# Generated by pormake.
# Topology ict, (4)-cn, num edge types: 1
# Building blocks:
#     Node 0, Type 0, BuildingBlock: QUQFOY_clean_sbu_3, # of connection points: 4
#     Node 1, Type 0, BuildingBlock: QUQFOY_clean_sbu_3, # of connection points: 4
#     Node 2, Type 0, BuildingBlock: QUQFOY_clean_sbu_3, # of connection points: 4
#     Node 3, Type 0, BuildingBlock: QUQFOY_clean_sbu_3, # of connection points: 4
#     Node 4, Type 0, BuildingBlock: QUQFOY_clean_sbu_3, # of connection points: 4
#     Node 5, Type 0, BuildingBlock: QUQFOY_clean_sbu_3, # of connection points: 4
#     Node 6, Type 0, BuildingBlock: QUQFOY_clean_sbu_3, # of connection points: 4
#     Node 7, Type 0, BuildingBlock: QUQFOY_clean_sbu_3, # of connection points: 4
#     Node 8, Type 0, BuildingBlock: QUQFOY_clean_sbu_3, # of connection points: 4
#     Node 9, Type 0, BuildingBlock: QUQFOY_clean_sbu_3, # of connection points: 4
#     Node 10, Type 0, BuildingBlock: QUQFOY_clean_sbu_3, # of connection points: 4
#     Node 11, Type 0, BuildingBlock: QUQFOY_clean_sbu_3, # of connection points: 4
#     Node 12, Type 0, BuildingBlock: QUQFOY_clean_sbu_3, # of connection points: 4
#     Node 13, Type 0, BuildingBlock: QUQFOY_clean_sbu_3, # of connection points: 4
#     Node 14, Type 0, BuildingBlock: QUQFOY_clean_sbu_3, # of connection points: 4
#     Node 15, Type 0, BuildingBlock: QUQFOY_clean_sbu_3, # of connection points: 4
#     Node 16, Type 0, BuildingBlock: QUQFOY_clean_sbu_3, # of connection points: 4
#     Node 17, Type 0, BuildingBlock: QUQFOY_clean_sbu_3, # of connection points: 4
#     Node 18, Type 0, BuildingBlock: QUQFOY_clean_sbu_3, # of connection points: 4
#     Node 19, Type 0, BuildingBlock: QUQFOY_clean_sbu_3, # of connection points: 4
#     Node 20, Type 0, BuildingBlock: QUQFOY_clean_sbu_3, # of connection points: 4
#     Node 21, Type 0, BuildingBlock: QUQFOY_clean_sbu_3, # of connection points: 4
#     Node 22, Type 0, BuildingBlock: QUQFOY_clean_sbu_3, # of connection points: 4
#     Node 23, Type 0, BuildingBlock: QUQFOY_clean_sbu_3, # of connection points: 4
#     Node 24, Type 0, BuildingBlock: QUQFOY_clean_sbu_3, # of connection points: 4
#     Node 25, Type 0, BuildingBlock: QUQFOY_clean_sbu_3, # of connection points: 4
#     Node 26, Type 0, BuildingBlock: QUQFOY_clean_sbu_3, # of connection points: 4
#     Node 27, Type 0, BuildingBlock: QUQFOY_clean_sbu_3, # of connection points: 4
#     Node 28, Type 0, BuildingBlock: QUQFOY_clean_sbu_3, # of connection points: 4
#     Node 29, Type 0, BuildingBlock: QUQFOY_clean_sbu_3, # of connection points: 4
#     Node 30, Type 0, BuildingBlock: QUQFOY_clean_sbu_3, # of connection points: 4
#     Node 31, Type 0, BuildingBlock: QUQFOY_clean_sbu_3, # of connection points: 4
#     Node 32, Type 0, BuildingBlock: QUQFOY_clean_sbu_3, # of connection points: 4
#     Node 33, Type 0, BuildingBlock: QUQFOY_clean_sbu_3, # of connection points: 4
#     Node 34, Type 0, BuildingBlock: QUQFOY_clean_sbu_3, # of connection points: 4
#     Node 35, Type 0, BuildingBlock: QUQFOY_clean_sbu_3, # of connection points: 4
#     Edge 36, Type (0, 0), BuildingBlock: TEMPAE_clean_linker_10, # of connection points: 2
#     Edge 37, Type (0, 0), BuildingBlock: TEMPAE_clean_linker_10, # of connection points: 2
#     Edge 38, Type (0, 0), BuildingBlock: TEMPAE_clean_linker_10, # of connection points: 2
#     Edge 39, Type (0, 0), BuildingBlock: TEMPAE_clean_linker_10, # of connection points: 2
#     Edge 40, Type (0, 0), BuildingBlock: TEMPAE_clean_linker_10, # of connection points: 2
#     Edge 41, Type (0, 0), BuildingBlock: TEMPAE_clean_linker_10, # of connection points: 2
#     Edge 42, Type (0, 0), BuildingBlock: TEMPAE_clean_linker_10, # of connection points: 2
#     Edge 43, Type (0, 0), BuildingBlock: TEMPAE_clean_linker_10, # of connection points: 2
#     Edge 44, Type (0, 0), BuildingBlock: TEMPAE_clean_linker_10, # of connection points: 2
#     Edge 45, Type (0, 0), BuildingBlock: TEMPAE_clean_linker_10, # of connection points: 2
#     Edge 46, Type (0, 0), BuildingBlock: TEMPAE_clean_linker_10, # of connection points: 2
#     Edge 47, Type (0, 0), BuildingBlock: TEMPAE_clean_linker_10, # of connection points: 2
#     Edge 48, Type (0, 0), BuildingBlock: TEMPAE_clean_linker_10, # of connection points: 2
#     Edge 49, Type (0, 0), BuildingBlock: TEMPAE_clean_linker_10, # of connection points: 2
#     Edge 50, Type (0, 0), BuildingBlock: TEMPAE_clean_linker_10, # of connection points: 2
#     Edge 51, Type (0, 0), BuildingBlock: TEMPAE_clean_linker_10, # of connection points: 2
#     Edge 52, Type (0, 0), BuildingBlock: TEMPAE_clean_linker_10, # of connection points: 2
#     Edge 53, Type (0, 0), BuildingBlock: TEMPAE_clean_linker_10, # of connection points: 2
#     Edge 54, Type (0, 0), BuildingBlock: TEMPAE_clean_linker_10, # of connection points: 2
#     Edge 55, Type (0, 0), BuildingBlock: TEMPAE_clean_linker_10, # of connection points: 2
#     Edge 56, Type (0, 0), BuildingBlock: TEMPAE_clean_linker_10, # of connection points: 2
#     Edge 57, Type (0, 0), BuildingBlock: TEMPAE_clean_linker_10, # of connection points: 2
#     Edge 58, Type (0, 0), BuildingBlock: TEMPAE_clean_linker_10, # of connection points: 2
#     Edge 59, Type (0, 0), BuildingBlock: TEMPAE_clean_linker_10, # of connection points: 2
#     Edge 60, Type (0, 0), BuildingBlock: TEMPAE_clean_linker_10, # of connection points: 2
#     Edge 61, Type (0, 0), BuildingBlock: TEMPAE_clean_linker_10, # of connection points: 2
#     Edge 62, Type (0, 0), BuildingBlock: TEMPAE_clean_linker_10, # of connection points: 2
#     Edge 63, Type (0, 0), BuildingBlock: TEMPAE_clean_linker_10, # of connection points: 2
#     Edge 64, Type (0, 0), BuildingBlock: TEMPAE_clean_linker_10, # of connection points: 2
#     Edge 65, Type (0, 0), BuildingBlock: TEMPAE_clean_linker_10, # of connection points: 2
#     Edge 66, Type (0, 0), BuildingBlock: TEMPAE_clean_linker_10, # of connection points: 2
#     Edge 67, Type (0, 0), BuildingBlock: TEMPAE_clean_linker_10, # of connection points: 2
#     Edge 68, Type (0, 0), BuildingBlock: TEMPAE_clean_linker_10, # of connection points: 2
#     Edge 69, Type (0, 0), BuildingBlock: TEMPAE_clean_linker_10, # of connection points: 2
#     Edge 70, Type (0, 0), BuildingBlock: TEMPAE_clean_linker_10, # of connection points: 2
#     Edge 71, Type (0, 0), BuildingBlock: TEMPAE_clean_linker_10, # of connection points: 2
#     Edge 72, Type (0, 0), BuildingBlock: TEMPAE_clean_linker_10, # of connection points: 2
#     Edge 73, Type (0, 0), BuildingBlock: TEMPAE_clean_linker_10, # of connection points: 2
#     Edge 74, Type (0, 0), BuildingBlock: TEMPAE_clean_linker_10, # of connection points: 2
#     Edge 75, Type (0, 0), BuildingBlock: TEMPAE_clean_linker_10, # of connection points: 2
#     Edge 76, Type (0, 0), BuildingBlock: TEMPAE_clean_linker_10, # of connection points: 2
#     Edge 77, Type (0, 0), BuildingBlock: TEMPAE_clean_linker_10, # of connection points: 2
#     Edge 78, Type (0, 0), BuildingBlock: TEMPAE_clean_linker_10, # of connection points: 2
#     Edge 79, Type (0, 0), BuildingBlock: TEMPAE_clean_linker_10, # of connection points: 2
#     Edge 80, Type (0, 0), BuildingBlock: TEMPAE_clean_linker_10, # of connection points: 2
#     Edge 81, Type (0, 0), BuildingBlock: TEMPAE_clean_linker_10, # of connection points: 2
#     Edge 82, Type (0, 0), BuildingBlock: TEMPAE_clean_linker_10, # of connection points: 2
#     Edge 83, Type (0, 0), BuildingBlock: TEMPAE_clean_linker_10, # of connection points: 2
#     Edge 84, Type (0, 0), BuildingBlock: TEMPAE_clean_linker_10, # of connection points: 2
#     Edge 85, Type (0, 0), BuildingBlock: TEMPAE_clean_linker_10, # of connection points: 2
#     Edge 86, Type (0, 0), BuildingBlock: TEMPAE_clean_linker_10, # of connection points: 2
#     Edge 87, Type (0, 0), BuildingBlock: TEMPAE_clean_linker_10, # of connection points: 2
#     Edge 88, Type (0, 0), BuildingBlock: TEMPAE_clean_linker_10, # of connection points: 2
#     Edge 89, Type (0, 0), BuildingBlock: TEMPAE_clean_linker_10, # of connection points: 2
#     Edge 90, Type (0, 0), BuildingBlock: TEMPAE_clean_linker_10, # of connection points: 2
#     Edge 91, Type (0, 0), BuildingBlock: TEMPAE_clean_linker_10, # of connection points: 2
#     Edge 92, Type (0, 0), BuildingBlock: TEMPAE_clean_linker_10, # of connection points: 2
#     Edge 93, Type (0, 0), BuildingBlock: TEMPAE_clean_linker_10, # of connection points: 2
#     Edge 94, Type (0, 0), BuildingBlock: TEMPAE_clean_linker_10, # of connection points: 2
#     Edge 95, Type (0, 0), BuildingBlock: TEMPAE_clean_linker_10, # of connection points: 2
#     Edge 96, Type (0, 0), BuildingBlock: TEMPAE_clean_linker_10, # of connection points: 2
#     Edge 97, Type (0, 0), BuildingBlock: TEMPAE_clean_linker_10, # of connection points: 2
#     Edge 98, Type (0, 0), BuildingBlock: TEMPAE_clean_linker_10, # of connection points: 2
#     Edge 99, Type (0, 0), BuildingBlock: TEMPAE_clean_linker_10, # of connection points: 2
#     Edge 100, Type (0, 0), BuildingBlock: TEMPAE_clean_linker_10, # of connection points: 2
#     Edge 101, Type (0, 0), BuildingBlock: TEMPAE_clean_linker_10, # of connection points: 2
#     Edge 102, Type (0, 0), BuildingBlock: TEMPAE_clean_linker_10, # of connection points: 2
#     Edge 103, Type (0, 0), BuildingBlock: TEMPAE_clean_linker_10, # of connection points: 2
#     Edge 104, Type (0, 0), BuildingBlock: TEMPAE_clean_linker_10, # of connection points: 2
#     Edge 105, Type (0, 0), BuildingBlock: TEMPAE_clean_linker_10, # of connection points: 2
#     Edge 106, Type (0, 0), BuildingBlock: TEMPAE_clean_linker_10, # of connection points: 2
#     Edge 107, Type (0, 0), BuildingBlock: TEMPAE_clean_linker_10, # of connection points: 2
# Relax obj value: 0.101
# Max RMSD: 0.124
# Mean RMSD: 0.124
data_MOF--net-ict--node1-QUQFOY_clean_sbu_3--edge1-TEMPAE_clean_linker_10
_symmetry_space_group_name_H-M    P1
_symmetry_Int_Tables_number       1
_symmetry_cell_setting            triclinic
loop_
_symmetry_equiv_pos_as_xyz
'x, y, z'
_cell_length_a     67.356578
_cell_length_b     67.346359
_cell_length_c     38.067539
_cell_angle_alpha  90.004367
_cell_angle_beta   90.000844
_cell_angle_gamma 119.98104
loop_
_atom_site_label
_atom_site_type_symbol
_atom_site_fract_x
_atom_site_fract_y
_atom_site_fract_z
_atom_type_partial_charge
C0 C 0.16966 0.23523 0.0283 0.0
O1 O 0.16301 0.21555 0.04129 0.0
Cd2 Cd 0.18737 0.20058 0.055 0.0
O3 O 0.19077 0.24886 0.02158 0.0
Cd4 Cd 0.22734 0.24814 0.029 0.0
C5 C 0.22112 0.24057 0.11647 0.0
O6 O 0.21395 0.20937 0.00767 0.0
O7 O 0.24594 0.22479 0.03603 0.0
O8 O 0.24192 0.2661 0.97245 0.0
C9 C 0.23152 0.20846 0.01706 0.0
O10 O 0.20555 0.22025 0.10909 0.0
C11 C 0.25982 0.28345 0.98412 0.0
O12 O 0.23179 0.25529 0.09251 0.0
O13 O 0.26232 0.28504 0.01726 0.0
C14 C 0.77242 0.94516 0.01546 0.0
O15 O 0.7915 0.95976 0.0287 0.0
Cd16 Cd 0.80406 -0.00047 0.03675 0.0
O17 O 0.75764 0.95081 0.00675 0.0
Cd18 Cd 0.75506 0.98638 0.01217 0.0
C19 C 0.76544 0.99436 0.09916 0.0
O20 O 0.79247 0.01327 0.98746 0.0
O21 O 0.77598 0.02865 0.01601 0.0
O22 O 0.73439 0.98031 0.95724 0.0
C23 C 0.79215 0.03128 -0.00404 0.0
O24 O 0.78633 0.00221 0.09066 0.0
C25 C 0.71672 0.97939 0.97068 0.0
O26 O 0.74965 0.98522 0.07614 0.0
O27 O 0.71632 0.98071 0.00392 0.0
C28 C 0.05103 0.82296 0.03438 0.0
O29 O 0.03684 0.82786 0.04817 0.0
Cd30 Cd -0.00354 0.8026 0.05568 0.0
O31 O 0.04489 0.80256 0.02472 0.0
Cd32 Cd 0.00937 0.76438 0.02816 0.0
C33 C -0.00131 0.76577 0.11545 0.0
O34 O 0.98444 0.7779 0.00648 0.0
O35 O 0.96711 0.74243 0.02215 0.0
O36 O 0.01789 0.75271 0.9725 0.0
C37 C 0.9658 0.75914 0.00949 0.0
O38 O 0.99241 0.78012 0.10719 0.0
C39 C 0.01773 0.73497 0.98409 0.0
O40 O 0.00762 0.75864 0.09273 0.0
O41 O 0.01494 0.73142 0.01698 0.0
C42 C 0.22127 0.17125 0.45821 0.0
O43 O 0.20197 0.16362 0.44323 0.0
Cd44 Cd 0.18287 0.18461 0.43119 0.0
O45 O 0.23314 0.19225 0.46733 0.0
Cd46 Cd 0.22965 0.22742 0.46107 0.0
C47 C 0.22138 0.22259 0.37239 0.0
O48 O 0.18995 0.20815 0.48196 0.0
O49 O 0.2045 0.24389 0.46946 0.0
O50 O 0.25585 0.24178 0.51177 0.0
C51 C 0.1875 0.22558 0.48053 0.0
O52 O 0.20164 0.20551 0.37845 0.0
C53 C 0.26671 0.26227 0.50054 0.0
O54 O 0.23533 0.23323 0.39726 0.0
O55 O 0.2609 0.26612 0.47075 0.0
C56 C 0.8086 0.03718 0.44422 0.0
O57 O 0.81463 0.02359 0.43148 0.0
Cd58 Cd 0.78909 0.98344 0.42392 0.0
O59 O 0.7877 0.03009 0.45193 0.0
Cd60 Cd 0.75124 0.99291 0.44478 0.0
C61 C 0.75629 0.98641 0.35878 0.0
O62 O 0.76423 0.96899 0.47388 0.0
O63 O 0.73327 0.95075 0.44368 0.0
O64 O 0.73744 0.00579 0.4944 0.0
C65 C 0.7469 0.94999 0.46581 0.0
O66 O 0.76914 0.97862 0.36867 0.0
C67 C 0.71712 -0.00281 0.48286 0.0
O68 O 0.74914 -0.00437 0.38081 0.0
O69 O 0.71304 0.98762 0.45296 0.0
C70 C 0.94347 0.76516 0.45866 0.0
O71 O 0.9574 0.78493 0.44679 0.0
Cd72 Cd -0.00222 0.80014 0.44105 0.0
O73 O 0.95023 0.75111 0.46667 0.0
Cd74 Cd 0.98753 0.7517 0.46119 0.0
C75 C -0.00366 0.76525 0.37546 0.0
O76 O 0.0114 0.78858 0.49068 0.0
O77 O 0.02964 0.7755 0.46132 0.0
O78 O 0.975 0.72432 0.51028 0.0
C79 C 0.03042 0.79022 0.48282 0.0
O80 O 0.00363 0.78571 0.38585 0.0
C81 C 0.98299 0.7124 0.49724 0.0
O82 O 0.98681 0.74856 0.39692 0.0
O83 O 0.99197 0.71813 0.46698 0.0
C84 C 0.82496 0.76778 0.95544 0.0
O85 O 0.8306 0.78636 0.93929 0.0
Cd86 Cd 0.80638 0.80172 0.92555 0.0
O87 O 0.80438 0.7546 0.96561 0.0
Cd88 Cd 0.76687 0.75355 0.96065 0.0
C89 C 0.76908 0.75845 0.87142 0.0
O90 O 0.7823 0.79365 0.9755 0.0
O91 O 0.74628 0.77536 0.96312 0.0
O92 O 0.75413 0.73522 0.01785 0.0
C93 C 0.76375 0.79395 0.97245 0.0
O94 O 0.78513 0.77902 0.87553 0.0
C95 C 0.73636 0.71758 0.00641 0.0
O96 O 0.75975 0.74509 0.89744 0.0
O97 O 0.73328 0.71619 0.97339 0.0
C98 C 0.21712 0.05526 0.97247 0.0
O99 O 0.19687 0.04113 0.96256 0.0
Cd100 Cd 0.18402 0.0033 0.94174 0.0
O101 O 0.23246 0.04943 0.97418 0.0
Cd102 Cd 0.23416 0.01327 0.9665 0.0
C103 C 0.22444 0.01143 0.87895 0.0
O104 O 0.19546 0.98664 0.98655 0.0
O105 O 0.21406 0.97092 0.96567 0.0
O106 O 0.25343 0.0181 0.02227 0.0
C107 C 0.19597 0.9685 0.97988 0.0
O108 O 0.20432 0.00711 0.88698 0.0
C109 C 0.27115 0.01862 0.00977 0.0
O110 O 0.23919 0.01472 0.90254 0.0
O111 O 0.27246 0.01804 0.97652 0.0
C112 C 0.94383 0.1733 0.95712 0.0
O113 O 0.95922 0.16848 0.94892 0.0
Cd114 Cd -0.00193 0.19504 0.93355 0.0
O115 O 0.94844 0.19408 0.9597 0.0
Cd116 Cd 0.98325 0.23317 0.95609 0.0
C117 C 0.99027 0.22726 0.86937 0.0
O118 O 0.01013 0.2225 0.97862 0.0
O119 O 0.02572 0.257 0.9588 0.0
O120 O 0.97366 0.24389 0.01155 0.0
C121 C 0.02821 0.24141 0.97317 0.0
O122 O -0.0032 0.21332 0.87912 0.0
C123 C 0.97406 0.26184 0.0004 0.0
O124 O 0.98297 0.23628 0.89165 0.0
O125 O 0.97725 0.26583 0.96762 0.0
C126 C 0.76764 0.81655 0.52334 0.0
O127 O 0.78817 0.82343 0.53268 0.0
Cd128 Cd 0.80306 0.79971 0.55124 0.0
O129 O 0.75294 0.79519 0.52135 0.0
Cd130 Cd 0.75286 0.75801 0.5279 0.0
C131 C 0.76371 0.76661 0.61492 0.0
O132 O 0.79141 0.77277 0.5046 0.0
O133 O 0.77497 0.73777 0.52202 0.0
O134 O 0.72631 0.74479 0.47788 0.0
C135 C 0.7924 0.75465 0.50856 0.0
O136 O 0.78365 0.78261 0.60649 0.0
C137 C 0.71387 0.72471 0.49003 0.0
O138 O 0.74881 0.75503 0.59166 0.0
O139 O 0.71898 0.72062 0.52022 0.0
C140 C 0.16579 0.94524 0.53158 0.0
O141 O 0.1595 0.95931 0.54118 0.0
Cd142 Cd 0.18447 -0.00244 0.56026 0.0
O143 O 0.187 0.95139 0.52901 0.0
Cd144 Cd 0.22474 0.98799 0.53418 0.0
C145 C 0.21842 0.99077 0.62179 0.0
O146 O 0.21174 0.01387 0.51435 0.0
O147 O 0.24628 0.03042 0.53438 0.0
O148 O 0.23797 0.98286 0.47747 0.0
C149 C 0.23022 0.03232 0.52048 0.0
O150 O 0.20229 0.99469 0.61423 0.0
C151 C 0.25552 0.98258 0.48888 0.0
O152 O 0.22969 0.98741 0.59797 0.0
O153 O 0.25824 0.9835 0.52199 0.0
C154 C 0.03382 0.20991 0.53238 0.0
O155 O 0.02006 0.19186 0.54905 0.0
Cd156 Cd 0.97971 0.17736 0.55667 0.0
O157 O 0.02722 0.22327 0.52003 0.0
Cd158 Cd 0.99139 0.22548 0.52261 0.0
C159 C 0.98188 0.21841 0.61106 0.0
O160 O 0.96653 0.18596 0.50415 0.0
O161 O 0.9491 0.2045 0.51715 0.0
O162 O -0.00217 0.24387 0.46537 0.0
C163 C 0.9479 0.18623 0.50587 0.0
O164 O 0.97517 0.19733 0.6059 0.0
C165 C -0.00119 0.26211 0.47648 0.0
O166 O 0.99067 0.23298 0.58623 0.0
O167 O -0.00253 0.26393 0.50948 0.0
C168 C 0.83155 0.54762 0.3647 0.0
O169 O 0.82512 0.52712 0.37371 0.0
Cd170 Cd 0.84953 0.51192 0.38759 0.0
O171 O 0.85279 0.56245 0.36162 0.0
Cd172 Cd 0.88979 0.56219 0.36683 0.0
C173 C 0.88315 0.54836 0.45325 0.0
O174 O 0.87541 0.52455 0.33962 0.0
O175 O 0.90985 0.54006 0.3594 0.0
O176 O 0.90372 0.58984 0.31807 0.0
C177 C 0.89354 0.52355 0.34327 0.0
O178 O 0.86856 0.52815 0.4434 0.0
C179 C 0.92384 0.60157 0.33043 0.0
O180 O 0.89231 0.56469 0.43112 0.0
O181 O 0.92752 0.59582 0.36041 0.0
C182 C 0.44506 0.2868 0.36362 0.0
O183 O 0.46506 0.3015 0.37386 0.0
Cd184 Cd 0.4777 0.34073 0.38784 0.0
O185 O 0.42977 0.29238 0.35845 0.0
Cd186 Cd 0.42725 0.32808 0.3603 0.0
C187 C 0.43681 0.33528 0.44798 0.0
O188 O 0.46574 0.35381 0.33905 0.0
O189 O 0.44721 0.37054 0.35591 0.0
O190 O 0.40773 0.32 0.30406 0.0
C191 C 0.46525 0.37224 0.34262 0.0
O192 O 0.4575 0.34122 0.44064 0.0
C193 C 0.38979 0.31942 0.31564 0.0
O194 O 0.42158 0.32831 0.42403 0.0
O195 O 0.38865 0.32172 0.34858 0.0
C196 C 0.71065 0.14854 0.37328 0.0
O197 O 0.69761 0.1537 0.39023 0.0
Cd198 Cd 0.65701 0.1293 0.39831 0.0
O199 O 0.70313 0.12838 0.36116 0.0
Cd200 Cd 0.66662 0.09124 0.36446 0.0
C201 C 0.65697 0.08911 0.45245 0.0
O202 O 0.6428 0.10719 0.34643 0.0
O203 O 0.62433 0.0713 0.35989 0.0
O204 O 0.67248 0.07947 0.30688 0.0
C205 C 0.62377 0.08876 0.3488 0.0
O206 O 0.65101 0.10402 0.44695 0.0
C207 C 0.67253 0.0616 0.31726 0.0
O208 O 0.66583 0.08301 0.42815 0.0
O209 O 0.67094 0.05793 0.35014 0.0
C210 C 0.88765 0.50629 0.80529 0.0
O211 O 0.86701 0.50111 0.79992 0.0
Cd212 Cd 0.85491 0.52784 0.78504 0.0
O213 O 0.90369 0.52718 0.80515 0.0
Cd214 Cd 0.90624 0.56541 0.79967 0.0
C215 C 0.89086 0.55656 0.71507 0.0
O216 O 0.87047 0.55729 0.82781 0.0
O217 O 0.88508 0.58645 0.79316 0.0
O218 O 0.92762 0.58006 0.85359 0.0
C219 C 0.87 0.57461 0.81592 0.0
O220 O 0.87075 0.5438 0.72726 0.0
C221 C 0.94495 0.59714 0.8401 0.0
O222 O 0.90821 0.56563 0.73539 0.0
O223 O 0.94507 0.59906 0.80687 0.0
C224 C 0.48443 0.37599 0.78708 0.0
O225 O 0.48891 0.36146 0.77356 0.0
Cd226 Cd 0.46159 0.32146 0.76746 0.0
O227 O 0.46412 0.37014 0.79678 0.0
Cd228 Cd 0.42615 0.33436 0.79309 0.0
C229 C 0.42693 0.32527 0.70611 0.0
O230 O 0.43746 0.30817 0.81819 0.0
O231 O 0.40493 0.29197 0.79137 0.0
O232 O 0.41334 0.34131 0.84893 0.0
C233 C 0.41894 0.28993 0.81119 0.0
O234 O 0.43999 0.3174 0.71436 0.0
C235 C 0.39629 0.34224 0.83686 0.0
O236 O 0.42083 0.33491 0.7291 0.0
O237 O 0.39342 0.34041 0.8038 0.0
C238 C 0.60651 0.10197 0.79503 0.0
O239 O 0.61991 0.12122 0.78104 0.0
Cd240 Cd 0.65996 0.13608 0.77104 0.0
O241 O 0.61362 0.0883 0.80358 0.0
Cd242 Cd 0.65032 0.08808 0.79665 0.0
C243 C 0.65628 0.09775 0.70914 0.0
O244 O 0.67629 0.12645 0.81939 0.0
O245 O 0.69237 0.11041 0.79141 0.0
O246 O 0.64693 0.06864 0.85199 0.0
C247 C 0.69461 0.12686 0.81043 0.0
O248 O 0.66253 0.11842 0.71706 0.0
C249 C 0.64565 0.05079 0.83862 0.0
O250 O 0.64897 0.08229 0.73278 0.0
O251 O 0.6457 0.04976 0.80533 0.0
C252 C 0.4858 0.10402 0.30069 0.0
O253 O 0.49191 0.12372 0.28821 0.0
Cd254 Cd 0.46743 0.13965 0.28105 0.0
O255 O 0.46497 0.09036 0.309 0.0
Cd256 Cd 0.42856 0.09139 0.30374 0.0
C257 C 0.43228 0.10364 0.2173 0.0
O258 O 0.44191 0.12905 0.32986 0.0
O259 O 0.41047 0.1154 0.30043 0.0
O260 O 0.41279 0.07111 0.35852 0.0
C261 C 0.4246 0.13062 0.32121 0.0
O262 O 0.4465 0.12403 0.22682 0.0
C263 C 0.3952 0.05424 0.34518 0.0
O264 O 0.42443 0.08723 0.2394 0.0
O265 O 0.39345 0.05395 0.31195 0.0
C266 C 0.88477 0.37483 0.28171 0.0
O267 O 0.86561 0.36146 0.26739 0.0
Cd268 Cd 0.84876 0.32077 0.26032 0.0
O269 O 0.89807 0.36755 0.29175 0.0
Cd270 Cd 0.89809 0.33064 0.28722 0.0
C271 C 0.88598 0.32092 0.19978 0.0
O272 O 0.85941 0.30737 0.31044 0.0
O273 O 0.87587 0.2886 0.29332 0.0
O274 O 0.91905 0.33799 0.34209 0.0
C275 C 0.85874 0.28832 0.3076 0.0
O276 O 0.86546 0.31494 0.20813 0.0
C277 C 0.93559 0.33627 0.32959 0.0
O278 O 0.90204 0.32954 0.2225 0.0
O279 O 0.93552 0.33328 0.29663 0.0
C280 C 0.61294 0.51163 0.27829 0.0
O281 O 0.62621 0.50506 0.26602 0.0
Cd282 Cd 0.66665 0.52966 0.25975 0.0
O283 O 0.62049 0.53263 0.28586 0.0
Cd284 Cd 0.65824 0.56851 0.27882 0.0
C285 C 0.66597 0.56271 0.19323 0.0
O286 O 0.68076 0.55451 0.30988 0.0
O287 O 0.70039 0.58548 0.28026 0.0
O288 O 0.64494 0.58343 0.32658 0.0
C289 C 0.70019 0.57146 0.30261 0.0
O290 O 0.67314 0.54951 0.20397 0.0
C291 C 0.65396 0.6036 0.31424 0.0
O292 O 0.65674 0.57027 0.21452 0.0
O293 O 0.66414 0.60713 0.28492 0.0
C294 C 0.43145 0.15126 0.86488 0.0
O295 O 0.45192 0.15752 0.8739 0.0
Cd296 Cd 0.46723 0.13355 0.88969 0.0
O297 O 0.41627 0.13005 0.86283 0.0
Cd298 Cd 0.4159 0.0928 0.87033 0.0
C299 C 0.4304 0.10136 0.9563 0.0
O300 O 0.45338 0.10649 0.84367 0.0
O301 O 0.43808 0.07244 0.86473 0.0
O302 O 0.38826 0.07772 0.82177 0.0
C303 C 0.45465 0.08861 0.84849 0.0
O304 O 0.45063 0.11542 0.94585 0.0
C305 C 0.37636 0.05797 0.83534 0.0
O306 O 0.41381 0.09198 0.93465 0.0
O307 O 0.382 0.05508 0.86591 0.0
C308 C 0.83579 0.27983 0.84627 0.0
O309 O 0.83032 0.29492 0.85302 0.0
Cd310 Cd 0.85675 0.33319 0.87022 0.0
O311 O 0.85676 0.2849 0.84636 0.0
Cd312 Cd 0.89448 0.32134 0.85369 0.0
C313 C 0.8853 0.32473 0.93889 0.0
O314 O 0.88515 0.34837 0.82543 0.0
O315 O 0.91399 0.36346 0.86041 0.0
O316 O 0.90979 0.31047 0.80334 0.0
C317 C 0.90216 0.36639 0.83731 0.0
O318 O 0.87242 0.33229 0.92806 0.0
C319 C 0.92922 0.3171 0.8173 0.0
O320 O 0.89446 0.31731 0.91721 0.0
O321 O 0.93187 0.32429 0.84872 0.0
C322 C 0.71298 0.55287 0.84668 0.0
O323 O 0.699 0.53254 0.85659 0.0
Cd324 Cd 0.65938 0.51716 0.87089 0.0
O325 O 0.70641 0.56748 0.84211 0.0
Cd326 Cd 0.66943 0.5677 0.84526 0.0
C327 C 0.66288 0.55647 0.93267 0.0
O328 O 0.645 0.52895 0.8238 0.0
O329 O 0.6269 0.54565 0.8426 0.0
O330 O 0.67569 0.58745 0.7895 0.0
C331 C 0.62604 0.52813 0.82872 0.0
O332 O 0.65772 0.53613 0.92432 0.0
C333 C 0.67491 0.6046 0.80166 0.0
O334 O 0.66941 0.57217 0.90948 0.0
O335 O 0.67289 0.60537 0.83474 0.0
C336 C 0.5024 0.88318 0.69052 0.0
O337 O 0.49658 0.86247 0.69682 0.0
Cd338 Cd 0.52297 0.8499 0.71069 0.0
O339 O 0.52349 0.8987 0.68979 0.0
Cd340 Cd 0.56082 0.89906 0.69508 0.0
C341 C 0.55301 0.88538 0.77982 0.0
O342 O 0.5501 0.86328 0.66392 0.0
O343 O 0.57928 0.87515 0.69786 0.0
O344 O 0.57549 0.92664 0.64647 0.0
C345 C 0.56695 0.86139 0.67401 0.0
O346 O 0.53998 0.86508 0.76852 0.0
C347 C 0.59537 0.93858 0.6595 0.0
O348 O 0.56165 0.90227 0.75872 0.0
O349 O 0.59869 0.93286 0.68974 0.0
C350 C 0.10719 0.61989 0.69714 0.0
O351 O 0.12779 0.63439 0.7051 0.0
Cd352 Cd 0.14315 0.67422 0.71771 0.0
O353 O 0.09197 0.62584 0.69464 0.0
Cd354 Cd 0.09091 0.66236 0.69988 0.0
C355 C 0.10753 0.67061 0.78534 0.0
O356 O 0.12775 0.68564 0.67131 0.0
O357 O 0.11211 0.70461 0.69013 0.0
O358 O 0.0615 0.64696 0.65368 0.0
C359 C 0.12873 0.70478 0.67438 0.0
O360 O 0.12768 0.67687 0.77436 0.0
C361 C 0.04959 0.65481 0.66725 0.0
O362 O 0.09062 0.66286 0.7642 0.0
O363 O 0.05627 0.66495 0.69661 0.0
C364 C 0.37293 0.4813 0.70275 0.0
O365 O 0.35972 0.48795 0.71506 0.0
Cd366 Cd 0.31921 0.46377 0.72188 0.0
O367 O 0.36532 0.46026 0.69535 0.0
Cd368 Cd 0.32755 0.42455 0.7034 0.0
C369 C 0.32023 0.43135 0.78887 0.0
O370 O 0.30448 0.43814 0.67281 0.0
O371 O 0.28545 0.40741 0.70318 0.0
O372 O 0.33932 0.40817 0.65563 0.0
C373 C 0.28519 0.42124 0.68092 0.0
O374 O 0.3128 0.44429 0.77795 0.0
C375 C 0.33095 0.38848 0.66958 0.0
O376 O 0.32956 0.4238 0.76774 0.0
O377 O 0.32193 0.38596 0.6997 0.0
C378 C 0.54797 0.83459 0.13037 0.0
O379 O 0.52747 0.82803 0.12118 0.0
Cd380 Cd 0.5121 0.85217 0.10566 0.0
O381 O 0.56269 0.85585 0.1333 0.0
Cd382 Cd 0.56325 0.89307 0.12795 0.0
C383 C 0.55024 0.88612 0.04123 0.0
O384 O 0.52502 0.87974 0.1509 0.0
O385 O 0.54177 0.91414 0.13046 0.0
O386 O 0.58444 0.90702 0.18235 0.0
C387 C 0.52434 0.89789 0.14517 0.0
O388 O 0.53003 0.87131 0.05079 0.0
C389 C 0.60135 0.92473 0.16925 0.0
O390 O 0.56643 0.89573 0.06356 0.0
O391 O 0.60123 0.92728 0.13619 0.0
C392 C 0.14718 0.71355 0.14251 0.0
O393 O 0.15355 0.69891 0.13782 0.0
Cd394 Cd 0.12904 0.66016 0.12068 0.0
O395 O 0.12605 0.70775 0.14036 0.0
Cd396 Cd 0.0893 0.67053 0.1317 0.0
C397 C 0.10232 0.66741 0.04821 0.0
O398 O 0.0988 0.64435 0.16233 0.0
O399 O 0.07125 0.62859 0.12511 0.0
O400 O 0.07187 0.6807 0.17979 0.0
C401 C 0.08267 0.62608 0.14938 0.0
O402 O 0.11512 0.66034 0.06122 0.0
C403 C 0.0527 0.67338 0.16452 0.0
O404 O 0.09196 0.67452 0.06804 0.0
O405 O 0.05113 0.66616 0.13327 0.0
C406 C 0.27789 0.43925 0.14284 0.0
O407 O 0.29262 0.45993 0.13603 0.0
Cd408 Cd 0.33122 0.47269 0.11889 0.0
O409 O 0.28351 0.42377 0.14301 0.0
Cd410 Cd 0.32001 0.42292 0.13599 0.0
C411 C 0.32374 0.43565 0.05062 0.0
O412 O 0.34739 0.45965 0.16225 0.0
O413 O 0.36198 0.44495 0.12787 0.0
O414 O 0.31473 0.40174 0.18989 0.0
C415 C 0.3652 0.46028 0.15011 0.0
O416 O 0.33051 0.45596 0.06147 0.0
C417 C 0.31543 0.38501 0.17589 0.0
O418 O 0.31684 0.41907 0.07222 0.0
O419 O 0.31702 0.38517 0.14262 0.0
C420 C 0.15171 0.44359 0.62793 0.0
O421 O 0.15783 0.46446 0.62248 0.0
Cd422 Cd 0.13209 0.47776 0.60801 0.0
O423 O 0.13056 0.42819 0.62726 0.0
Cd424 Cd 0.09354 0.42831 0.62005 0.0
C425 C 0.10397 0.44444 0.53614 0.0
O426 O 0.10365 0.46334 0.65304 0.0
O427 O 0.07511 0.45218 0.61791 0.0
O428 O 0.07736 0.39909 0.66637 0.0
C429 C 0.08696 0.46541 0.6426 0.0
O430 O 0.11683 0.46441 0.54872 0.0
C431 C 0.0578 0.38786 0.65204 0.0
O432 O 0.09458 0.42707 0.55628 0.0
O433 O 0.05533 0.39474 0.62221 0.0
C434 C 0.54492 0.70562 0.62347 0.0
O435 O 0.52451 0.69134 0.61428 0.0
Cd436 Cd 0.50978 0.65182 0.59966 0.0
O437 O 0.55994 0.69947 0.6268 0.0
Cd438 Cd 0.56112 0.66304 0.62204 0.0
C439 C 0.54771 0.65594 0.53516 0.0
O440 O 0.52318 0.63829 0.64597 0.0
O441 O 0.54008 0.62051 0.62664 0.0
O442 O 0.58323 0.67091 0.67586 0.0
C443 C 0.52273 0.61948 0.64143 0.0
O444 O 0.52745 0.65042 0.54458 0.0
C445 C 0.60004 0.67026 0.66201 0.0
O446 O 0.56385 0.66272 0.55761 0.0
O447 O 0.59938 0.66742 0.62895 0.0
C448 C 0.27965 0.84359 0.61797 0.0
O449 O 0.29301 0.83755 0.6044 0.0
Cd450 Cd 0.33339 0.86252 0.59806 0.0
O451 O 0.28707 0.86431 0.62725 0.0
Cd452 Cd 0.3247 0.90058 0.62172 0.0
C453 C 0.33158 0.89719 0.53516 0.0
O454 O 0.34799 0.88618 0.64931 0.0
O455 O 0.36678 0.91789 0.62108 0.0
O456 O 0.312 0.91422 0.67203 0.0
C457 C 0.3672 0.90347 0.64195 0.0
O458 O 0.33903 0.88387 0.54402 0.0
C459 C 0.32092 0.93469 0.66099 0.0
O460 O 0.32247 0.90405 0.55786 0.0
O461 O 0.3307 0.93897 0.63125 0.0
C462 C 0.10333 0.48977 0.18162 0.0
O463 O 0.12414 0.49554 0.18686 0.0
Cd464 Cd 0.1372 0.46964 0.20255 0.0
O465 O 0.08769 0.46873 0.18216 0.0
Cd466 Cd 0.08604 0.431 0.18837 0.0
C467 C 0.10156 0.44118 0.27289 0.0
O468 O 0.12211 0.4395 0.1609 0.0
O469 O 0.10742 0.41038 0.1957 0.0
O470 O 0.0651 0.41579 0.13434 0.0
C471 C 0.12268 0.42232 0.17322 0.0
O472 O 0.12158 0.45419 0.26058 0.0
C473 C 0.0478 0.39868 0.14783 0.0
O474 O 0.08421 0.43146 0.25261 0.0
O475 O 0.04744 0.39699 0.18112 0.0
C476 C 0.50481 0.61449 0.1824 0.0
O477 O 0.4992 0.62947 0.18923 0.0
Cd478 Cd 0.52539 0.66823 0.20493 0.0
O479 O 0.52584 0.61979 0.18184 0.0
Cd480 Cd 0.56346 0.65611 0.18843 0.0
C481 C 0.55501 0.66141 0.27365 0.0
O482 O 0.55403 0.68292 0.16074 0.0
O483 O 0.58323 0.69836 0.19525 0.0
O484 O 0.57939 0.65112 0.13448 0.0
C485 C 0.57114 0.70101 0.17223 0.0
O486 O 0.54182 0.66851 0.26243 0.0
C487 C 0.59653 0.65117 0.14832 0.0
O488 O 0.56419 0.65372 0.25245 0.0
O489 O 0.59786 0.65222 0.18163 0.0
C490 C 0.37332 0.88889 0.19011 0.0
O491 O 0.35904 0.86956 0.20303 0.0
Cd492 Cd 0.3191 0.85597 0.21183 0.0
O493 O 0.36727 0.90347 0.18203 0.0
Cd494 Cd 0.33134 0.90534 0.18844 0.0
C495 C 0.32409 0.89402 0.27534 0.0
O496 O 0.30451 0.86778 0.16403 0.0
O497 O 0.28917 0.88418 0.19291 0.0
O498 O 0.33672 0.9258 0.13354 0.0
C499 C 0.28646 0.86785 0.17315 0.0
O500 O 0.3166 0.87329 0.26619 0.0
C501 C 0.3375 0.9434 0.14699 0.0
O502 O 0.33284 0.91012 0.25275 0.0
O503 O 0.33644 0.94391 0.18026 0.0
C504 C 0.37511 0.33098 0.89314 0.0
C505 C 0.37887 0.34199 0.86062 0.0
C506 C 0.35595 0.32624 0.91352 0.0
C507 C 0.34069 0.33356 0.90171 0.0
C508 C 0.34576 0.34682 0.87067 0.0
C509 C 0.36452 0.35037 0.84988 0.0
C510 C 0.35105 0.31169 0.9461 0.0
C511 C 0.33073 0.35619 0.85846 0.0
C512 C 0.27987 0.29095 0.92691 0.0
C513 C 0.27828 0.29902 0.96011 0.0
C514 C 0.29962 0.30295 0.90642 0.0
C515 C 0.31791 0.32399 0.91889 0.0
C516 C 0.31536 0.33344 0.95066 0.0
C517 C 0.29571 0.32058 0.97135 0.0
C518 C 0.30172 0.29192 0.8731 0.0
C519 C 0.33394 0.35632 0.96413 0.0
H520 H 0.3862 0.3245 0.90149 0.0
H521 H 0.36765 0.35922 0.82495 0.0
H522 H 0.34882 0.32046 0.96911 0.0
H523 H 0.33483 0.2952 0.94259 0.0
H524 H 0.36496 0.3079 0.95207 0.0
H525 H 0.33991 0.37062 0.83973 0.0
H526 H 0.3154 0.3425 0.84496 0.0
H527 H 0.32471 0.36218 0.88109 0.0
H528 H 0.2664 0.27431 0.91807 0.0
H529 H 0.29437 0.32705 -0.0032 0.0
H530 H 0.31543 0.28748 0.87632 0.0
H531 H 0.30662 0.304 0.85074 0.0
H532 H 0.28553 0.27605 0.86628 0.0
H533 H 0.34616 0.35376 0.98034 0.0
H534 H 0.3267 0.3646 0.98099 0.0
H535 H 0.34364 0.36807 0.94225 0.0
C536 C 0.63977 0.0114 0.84867 0.0
C537 C 0.64743 0.03375 0.86072 0.0
C538 C 0.64503 -0.00345 0.86724 0.0
C539 C 0.65918 0.00477 0.8974 0.0
C540 C 0.66563 0.02682 0.91081 0.0
C541 C 0.65928 0.04084 0.89263 0.0
C542 C 0.6366 0.97265 0.85345 0.0
C543 C 0.68102 0.03649 0.94257 0.0
C544 C 0.67756 0.97429 0.9617 0.0
C545 C 0.69934 0.9805 0.94848 0.0
C546 C 0.66283 0.97968 0.94311 0.0
C547 C 0.67062 0.99249 0.91161 0.0
C548 C 0.69188 -0.00281 0.89695 0.0
C549 C 0.70577 0.99074 0.91529 0.0
C550 C 0.6397 0.97311 0.95847 0.0
C551 C 0.7011 0.01112 0.86371 0.0
H552 H 0.63025 0.00574 0.82426 0.0
H553 H 0.66518 0.0581 0.90205 0.0
H554 H 0.65055 0.97215 0.83871 0.0
H555 H 0.63152 0.96017 0.87537 0.0
H556 H 0.62177 0.96711 0.83544 0.0
H557 H 0.68362 0.05352 0.95043 0.0
H558 H 0.67369 0.02467 0.96521 0.0
H559 H 0.69802 0.03835 0.93674 0.0
H560 H 0.67238 0.96599 0.98712 0.0
H561 H 0.72256 -0.00451 0.90492 0.0
H562 H 0.6267 0.96853 0.93746 0.0
H563 H 0.64083 0.98784 0.97322 0.0
H564 H 0.63376 0.95843 0.9769 0.0
H565 H 0.68829 0.00374 0.84229 0.0
H566 H 0.7172 0.012 0.85466 0.0
H567 H 0.70461 0.02886 0.8684 0.0
C568 C 0.00751 0.7156 0.92616 0.0
C569 C 0.01673 0.71739 0.95977 0.0
C570 C 0.00076 0.69603 0.90556 0.0
C571 C 0.00422 0.67822 0.9183 0.0
C572 C 0.0161 0.68123 0.95037 0.0
C573 C 0.02174 0.70059 0.97121 0.0
C574 C 0.98765 0.69341 0.87203 0.0
C575 C 0.02129 0.6633 0.96408 0.0
C576 C 0.95494 0.61978 0.89496 0.0
C577 C 0.96207 0.61563 0.8626 0.0
C578 C 0.96906 0.63959 0.91427 0.0
C579 C 0.99133 0.65518 0.90169 0.0
C580 C -0.00053 0.64992 0.87072 0.0
C581 C 0.98447 0.63046 0.85092 0.0
C582 C 0.95935 0.64466 0.94665 0.0
C583 C 0.02356 0.6653 0.85763 0.0
H584 H 0.00365 0.72858 0.91717 0.0
H585 H 0.02922 0.7021 -0.00302 0.0
H586 H -0.00487 0.68866 0.84992 0.0
H587 H 0.96963 0.67941 0.87523 0.0
H588 H 0.98755 0.70935 0.86486 0.0
H589 H 0.03679 0.67115 0.98102 0.0
H590 H 0.00673 0.65075 0.98031 0.0
H591 H 0.02387 0.65388 0.94233 0.0
H592 H 0.93761 0.60836 0.90402 0.0
H593 H 0.99011 0.62709 0.8261 0.0
H594 H 0.95903 0.66085 0.94288 0.0
H595 H 0.97034 0.64703 0.96973 0.0
H596 H 0.94167 0.63076 0.95273 0.0
H597 H 0.02437 0.67983 0.84275 0.0
H598 H 0.02916 0.65596 0.83982 0.0
H599 H 0.0358 0.6725 0.87986 0.0
C600 C 0.3433 0.37171 0.62145 0.0
C601 C 0.32858 0.36867 0.64952 0.0
C602 C 0.33829 0.35364 0.59808 0.0
C603 C 0.31758 0.33257 0.60211 0.0
C604 C 0.30364 0.32896 0.63198 0.0
C605 C 0.30956 0.34697 0.65568 0.0
C606 C 0.35431 0.35757 0.56784 0.0
C607 C 0.2813 0.30684 0.63716 0.0
C608 C 0.2833 0.30224 0.5213 0.0
C609 C 0.28295 0.28132 0.52301 0.0
C610 C 0.29536 0.31946 0.54613 0.0
C611 C 0.30825 0.31605 0.57244 0.0
C612 C 0.30961 0.29572 0.57237 0.0
C613 C 0.29639 0.27826 0.54817 0.0
C614 C 0.29285 0.34056 0.5457 0.0
C615 C 0.32406 0.29184 0.59873 0.0
H616 H 0.35826 0.3884 0.61702 0.0
H617 H 0.29819 0.34456 0.67746 0.0
H618 H 0.35618 0.34227 0.56364 0.0
H619 H 0.34717 0.36045 0.54338 0.0
H620 H 0.37152 0.37276 0.57234 0.0
H621 H 0.27306 0.30636 0.66268 0.0
H622 H 0.26924 0.30475 0.6157 0.0
H623 H 0.28414 0.29201 0.63598 0.0
H624 H 0.27282 0.30456 0.50194 0.0
H625 H 0.29631 0.26213 0.54924 0.0
H626 H 0.30992 0.35626 0.54422 0.0
H627 H 0.28459 0.34146 0.57041 0.0
H628 H 0.28237 0.34062 0.52321 0.0
H629 H 0.33933 0.30819 0.60676 0.0
H630 H 0.32983 0.28024 0.58791 0.0
H631 H 0.31369 0.28357 0.62252 0.0
C632 C 0.63604 0.95685 0.64161 0.0
C633 C 0.61466 0.95537 0.63798 0.0
C634 C 0.65314 0.96795 0.61622 0.0
C635 C 0.64913 0.97883 0.58744 0.0
C636 C 0.62845 0.9795 0.58575 0.0
C637 C 0.61116 0.96721 0.61063 0.0
C638 C 0.67452 0.96603 0.6185 0.0
C639 C 0.62384 0.99177 0.55648 0.0
C640 C 0.70277 0.01115 0.53213 0.0
C641 C 0.69846 0.99516 0.50545 0.0
C642 C 0.686 0.00709 0.55745 0.0
C643 C 0.66495 0.98609 0.55688 0.0
C644 C 0.66023 0.9704 0.52898 0.0
C645 C 0.67687 0.97542 0.50315 0.0
C646 C 0.69145 0.02476 0.58575 0.0
C647 C 0.63842 0.94739 0.52795 0.0
H648 H 0.6387 0.94759 0.66266 0.0
H649 H 0.59467 0.96625 0.60799 0.0
H650 H 0.67571 0.95686 0.59506 0.0
H651 H 0.68998 0.98329 0.61877 0.0
H652 H 0.67479 0.95668 0.64237 0.0
H653 H 0.61194 -0.00229 0.56526 0.0
H654 H 0.6399 0.00672 0.54676 0.0
H655 H 0.61556 0.97982 0.53421 0.0
H656 H 0.71946 0.02653 0.53374 0.0
H657 H 0.6736 0.96298 0.48263 0.0
H658 H 0.6991 0.0209 0.60867 0.0
H659 H 0.67582 0.02479 0.59476 0.0
H660 H 0.70414 0.04218 0.57636 0.0
H661 H 0.63697 0.93759 0.55219 0.0
H662 H 0.63772 0.93695 0.50489 0.0
H663 H 0.6233 0.94977 0.52697 0.0
C664 C 0.00511 0.69371 0.51463 0.0
C665 C 0.98537 0.69544 0.51858 0.0
C666 C 0.01085 0.68212 0.53952 0.0
C667 C -0.00408 0.67109 0.5682 0.0
C668 C 0.97468 0.67061 0.57006 0.0
C669 C 0.96991 0.68337 0.5457 0.0
C670 C 0.03398 0.68365 0.53686 0.0
C671 C 0.95762 0.65794 0.59892 0.0
C672 C 0.01863 0.63933 0.62157 0.0
C673 C 0.03145 0.65586 0.64705 0.0
C674 C 0.00462 0.64281 0.5979 0.0
C675 C 0.0046 0.66382 0.59866 0.0
C676 C 0.01636 0.67982 0.62587 0.0
C677 C 0.02922 0.67536 0.65019 0.0
C678 C 0.99092 0.62464 0.57092 0.0
C679 C 0.01716 0.70264 0.62743 0.0
H680 H 0.0171 0.70309 0.49371 0.0
H681 H 0.95446 0.68446 0.5485 0.0
H682 H 0.0448 0.69353 0.55951 0.0
H683 H 0.03204 0.66633 0.53788 0.0
H684 H 0.04316 0.69217 0.51226 0.0
H685 H 0.93987 0.65238 0.59012 0.0
H686 H 0.95848 0.64268 0.60776 0.0
H687 H 0.96138 0.66948 0.62179 0.0
H688 H 0.02007 0.62404 0.61949 0.0
H689 H 0.03913 0.68816 0.6699 0.0
H690 H -0.0 0.62943 0.54535 0.0
H691 H 0.97387 0.62309 0.56699 0.0
H692 H 0.98849 0.60767 0.57875 0.0
H693 H 0.02563 0.71273 0.60346 0.0
H694 H 0.02667 0.7129 0.65077 0.0
H695 H -0.00043 0.70002 0.62821 0.0
C696 C 0.62106 0.66727 0.09594 0.0
C697 C 0.61575 0.65388 0.12635 0.0
C698 C 0.64127 0.6737 0.07731 0.0
C699 C 0.65607 0.66566 0.08846 0.0
C700 C 0.64987 0.65057 0.11754 0.0
C701 C 0.63 0.64534 0.13684 0.0
C702 C 0.64745 0.69037 0.04712 0.0
C703 C 0.66456 0.64063 0.12891 0.0
C704 C 0.70087 0.68007 0.01831 0.0
C705 C 0.71845 0.70127 0.03055 0.0
C706 C 0.68125 0.66677 0.03879 0.0
C707 C 0.67897 0.67528 0.07166 0.0
C708 C 0.69752 0.69575 0.08525 0.0
C709 C 0.71719 0.70831 0.0647 0.0
C710 C 0.66221 0.64466 0.02388 0.0
C711 C 0.69566 0.70578 0.11977 0.0
H712 H 0.61012 0.67402 0.08798 0.0
H713 H 0.62575 0.63479 0.16022 0.0
H714 H 0.66377 0.70633 0.053 0.0
H715 H 0.65012 0.68296 0.0228 0.0
H716 H 0.63402 0.69497 0.04192 0.0
H717 H 0.65542 0.62621 0.14765 0.0
H718 H 0.66997 0.63446 0.10578 0.0
H719 H 0.68031 0.65407 0.14189 0.0
H720 H 0.70193 0.67438 0.99209 0.0
H721 H 0.73076 0.72465 0.07432 0.0
H722 H 0.64923 0.64788 0.01131 0.0
H723 H 0.6535 0.63177 0.0449 0.0
H724 H 0.66868 0.63744 0.00362 0.0
H725 H 0.68304 0.71173 0.11709 0.0
H726 H 0.71231 0.72055 0.12815 0.0
H727 H 0.6894 0.69265 0.14078 0.0
C728 C 0.32596 0.9542 0.09158 0.0
C729 C 0.33621 0.96069 0.12476 0.0
C730 C 0.31988 0.96824 0.07282 0.0
C731 C 0.32501 0.98974 0.087 0.0
C732 C 0.33748 -0.00261 0.11885 0.0
C733 C 0.34252 0.98253 0.1378 0.0
C734 C 0.306 0.95901 0.03953 0.0
C735 C 0.34416 0.02056 0.13418 0.0
C736 C 0.30949 0.02226 0.02166 0.0
C737 C 0.28729 0.016 0.03289 0.0
C738 C 0.32315 0.01584 0.04112 0.0
C739 C 0.31388 0.00198 0.0714 0.0
C740 C 0.292 -0.00316 0.08384 0.0
C741 C 0.2792 0.00434 0.0648 0.0
C742 C 0.34693 0.02276 0.02822 0.0
C743 C 0.28114 0.98164 0.11547 0.0
H744 H 0.32104 0.93731 0.08143 0.0
H745 H 0.35072 0.98772 0.16328 0.0
H746 H 0.28851 0.95632 0.04374 0.0
H747 H 0.31388 0.97146 0.01777 0.0
H748 H 0.30442 0.94246 0.03123 0.0
H749 H 0.35934 0.02676 0.15162 0.0
H750 H 0.34797 0.03342 0.11324 0.0
H751 H 0.32981 0.01926 0.15018 0.0
H752 H 0.3159 0.03155 -0.00281 0.0
H753 H 0.26203 -0.00056 0.07354 0.0
H754 H 0.34678 0.00801 0.01505 0.0
H755 H 0.35909 0.0279 0.05057 0.0
H756 H 0.35331 0.03713 0.00912 0.0
H757 H 0.27866 0.96432 0.11023 0.0
H758 H 0.26424 0.97979 0.12219 0.0
H759 H 0.29251 0.98865 0.13866 0.0
C760 C 0.00833 0.36548 0.13621 0.0
C761 C 0.03099 0.37997 0.12533 0.0
C762 C -0.00659 0.34612 0.11615 0.0
C763 C 0.00185 0.34063 0.08572 0.0
C764 C 0.02454 0.3557 0.07423 0.0
C765 C 0.03859 0.37543 0.09374 0.0
C766 C 0.969 0.33117 0.12828 0.0
C767 C 0.03463 0.35023 0.04271 0.0
C768 C 0.98329 0.27991 0.05933 0.0
C769 C 0.97512 0.27922 0.02524 0.0
C770 C 0.99046 0.29926 0.08065 0.0
C771 C 0.98846 0.31799 0.06811 0.0
C772 C 0.97761 0.31617 0.03541 0.0
C773 C 0.9715 0.29697 0.01393 0.0
C774 C 0.00262 0.30064 0.11471 0.0
C775 C 0.97414 0.33525 0.02173 0.0
H776 H 0.00238 0.36912 0.16051 0.0
H777 H 0.05616 0.38654 0.0854 0.0
H778 H 0.95712 0.32464 0.10556 0.0
H779 H 0.96741 0.31616 0.14275 0.0
H780 H 0.96355 0.34059 0.14619 0.0
H781 H 0.05275 0.36355 0.03783 0.0
H782 H 0.03389 0.33354 0.04669 0.0
H783 H 0.02455 0.34866 0.01882 0.0
H784 H 0.9861 0.26622 0.06824 0.0
H785 H 0.96486 0.29636 0.98776 0.0
H786 H -0.00454 0.30597 0.13656 0.0
H787 H 0.02103 0.31377 0.11225 0.0
H788 H 0.00134 0.28404 0.1218 0.0
H789 H 0.97118 0.34441 0.04351 0.0
H790 H 0.95945 0.3286 0.00321 0.0
H791 H 0.98967 0.34783 0.00727 0.0
C792 C 0.63953 0.61887 0.36167 0.0
C793 C 0.65569 0.6227 0.33547 0.0
C794 C 0.64356 0.63606 0.38626 0.0
C795 C 0.66467 0.65695 0.38547 0.0
C796 C 0.68024 0.6614 0.35752 0.0
C797 C 0.67531 0.64434 0.33246 0.0
C798 C 0.62591 0.63139 0.41426 0.0
C799 C 0.7031 0.68333 0.35585 0.0
C800 C 0.68487 0.71008 0.44152 0.0
C801 C 0.697 0.706 0.46774 0.0
C802 C 0.67199 0.69316 0.4164 0.0
C803 C 0.67248 0.67237 0.41653 0.0
C804 C 0.68371 0.6678 0.44419 0.0
C805 C 0.69537 0.6845 0.46991 0.0
C806 C 0.65913 0.69823 0.38868 0.0
C807 C 0.68528 0.64618 0.44493 0.0
H808 H 0.62413 0.60224 0.36362 0.0
H809 H 0.6878 0.64733 0.31215 0.0
H810 H 0.63165 0.62794 0.43967 0.0
H811 H 0.62384 0.6466 0.418 0.0
H812 H 0.609 0.61634 0.40763 0.0
H813 H 0.71291 0.6844 0.33177 0.0
H814 H 0.7006 0.69838 0.35651 0.0
H815 H 0.71358 0.68447 0.3791 0.0
H816 H 0.68592 0.72666 0.4401 0.0
H817 H 0.70485 0.68139 0.49011 0.0
H818 H 0.64396 0.68233 0.37903 0.0
H819 H 0.67063 0.70684 0.36605 0.0
H820 H 0.65339 0.70996 0.39901 0.0
H821 H 0.66796 0.63082 0.44374 0.0
H822 H 0.69404 0.64498 0.4689 0.0
H823 H 0.69494 0.64573 0.4216 0.0
C824 C 0.28967 0.97848 0.47458 0.0
C825 C 0.27368 0.98496 0.4646 0.0
C826 C 0.30918 0.98451 0.45386 0.0
C827 C 0.31316 -0.00179 0.42354 0.0
C828 C 0.29637 0.00364 0.41244 0.0
C829 C 0.27662 -0.00348 0.43274 0.0
C830 C 0.32612 0.97737 0.46547 0.0
C831 C 0.30015 0.01879 0.38093 0.0
C832 C 0.37321 0.04471 0.40082 0.0
C833 C 0.37625 0.03768 0.36761 0.0
C834 C 0.35317 0.03138 0.42015 0.0
C835 C 0.33612 0.00999 0.40655 0.0
C836 C 0.34003 0.00185 0.37445 0.0
C837 C 0.35989 0.01605 0.35492 0.0
C838 C 0.34945 0.04117 0.45362 0.0
C839 C 0.32272 0.9788 0.35967 0.0
H840 H 0.28728 0.96928 0.49902 0.0
H841 H 0.26432 0.00162 0.425 0.0
H842 H 0.33234 0.97181 0.44259 0.0
H843 H 0.34122 0.99215 0.47767 0.0
H844 H 0.31854 0.96325 0.48502 0.0
H845 H 0.28502 0.02067 0.3751 0.0
H846 H 0.3151 0.03608 0.38579 0.0
H847 H 0.30407 0.01174 0.35734 0.0
H848 H 0.38578 0.06147 0.41065 0.0
H849 H 0.36233 0.01046 0.32937 0.0
H850 H 0.34521 0.02894 0.47563 0.0
H851 H 0.33473 0.04408 0.45019 0.0
H852 H 0.36473 0.05769 0.46113 0.0
H853 H 0.31437 0.966 0.38091 0.0
H854 H 0.33075 0.97237 0.34074 0.0
H855 H 0.30917 0.98034 0.34551 0.0
C856 C 0.97297 0.3376 0.34052 0.0
C857 C 0.9518 0.33393 0.35297 0.0
C858 C 0.98634 0.3312 0.36078 0.0
C859 C 0.97772 0.3199 0.39329 0.0
C860 C 0.95707 0.31756 0.40685 0.0
C861 C 0.94461 0.32502 0.38679 0.0
C862 C 0.00895 0.33531 0.34641 0.0
C863 C 0.94697 0.30526 0.44108 0.0
C864 C 0.98573 0.27042 0.42042 0.0
C865 C -0.00216 0.27857 0.45195 0.0
C866 C 0.98021 0.28424 0.39991 0.0
C867 C 0.98782 0.30712 0.41046 0.0
C868 C 0.0021 0.31617 0.44037 0.0
C869 C 0.00644 0.30157 0.46138 0.0
C870 C 0.96456 0.27367 0.36864 0.0
C871 C 0.01177 0.34085 0.45125 0.0
H872 H 0.97873 0.34479 0.31454 0.0
H873 H 0.92826 0.32215 0.39653 0.0
H874 H 0.02174 0.33987 0.36776 0.0
H875 H 0.00655 0.31944 0.33369 0.0
H876 H 0.01593 0.34921 0.32646 0.0
H877 H 0.93135 0.30585 0.4487 0.0
H878 H 0.94237 0.28702 0.43864 0.0
H879 H 0.95969 0.31292 0.46256 0.0
H880 H 0.97902 0.25263 0.41313 0.0
H881 H 0.01608 0.30798 0.48557 0.0
H882 H 0.97231 0.28419 0.34481 0.0
H883 H 0.94806 0.27317 0.37349 0.0
H884 H 0.96088 0.25594 0.36322 0.0
H885 H 0.01687 0.35228 0.42796 0.0
H886 H 0.02689 0.34664 0.46873 0.0
H887 H -0.00147 0.34275 0.46574 0.0
C888 C 0.03418 0.68276 0.21377 0.0
C889 C 0.03222 0.66941 0.18432 0.0
C890 C 0.01565 0.67599 0.23694 0.0
C891 C -0.00481 0.65492 0.23122 0.0
C892 C 0.99272 0.64218 0.2003 0.0
C893 C 0.01114 0.64988 0.17683 0.0
C894 C 0.01836 0.69067 0.26853 0.0
C895 C 0.9714 0.61939 0.19346 0.0
C896 C 0.96423 0.61958 0.31112 0.0
C897 C 0.94294 0.61841 0.30862 0.0
C898 C 0.98153 0.63188 0.2865 0.0
C899 C 0.9779 0.64437 0.25975 0.0
C900 C 0.95695 0.64456 0.25862 0.0
C901 C 0.93947 0.63109 0.28263 0.0
C902 C 0.00293 0.62991 0.28751 0.0
C903 C 0.95223 0.65781 0.23113 0.0
H904 H 0.05043 0.69805 0.21932 0.0
H905 H 0.00962 0.63951 0.1541 0.0
H906 H 0.0034 0.69328 0.27063 0.0
H907 H 0.01884 0.68191 0.2929 0.0
H908 H 0.03431 0.7076 0.26724 0.0
H909 H 0.9725 0.61134 0.16862 0.0
H910 H 0.96852 0.60742 0.21546 0.0
H911 H 0.95624 0.62168 0.19196 0.0
H912 H 0.96679 0.60947 0.33087 0.0
H913 H 0.92297 0.63017 0.28066 0.0
H914 H 0.01839 0.64708 0.29002 0.0
H915 H 0.00455 0.62228 0.26257 0.0
H916 H 0.00282 0.6191 0.30965 0.0
H917 H 0.96818 0.67209 0.21986 0.0
H918 H 0.9418 0.66483 0.24239 0.0
H919 H 0.94204 0.64606 0.20954 0.0
C920 C 0.38064 0.33132 0.25923 0.0
C921 C 0.373 0.32 0.29147 0.0
C922 C 0.36677 0.33703 0.23921 0.0
C923 C 0.34436 0.33039 0.25107 0.0
C924 C 0.33566 0.31658 0.28153 0.0
C925 C 0.35033 0.31208 0.30198 0.0
C926 C 0.37684 0.3518 0.20695 0.0
C927 C 0.31137 0.30754 0.29384 0.0
C928 C 0.3271 0.37462 0.23152 0.0
C929 C 0.31797 0.36828 0.19765 0.0
C930 C 0.33458 0.36162 0.25006 0.0
C931 C 0.33201 0.34125 0.23491 0.0
C932 C 0.32059 0.33353 0.20222 0.0
C933 C 0.31412 0.34742 0.18359 0.0
C934 C 0.3469 0.37077 0.28459 0.0
C935 C 0.31618 0.31136 0.18562 0.0
H936 H 0.39816 0.33738 0.25101 0.0
H937 H 0.34424 0.30294 0.32664 0.0
H938 H 0.36636 0.34285 0.18358 0.0
H939 H 0.37663 0.36809 0.21004 0.0
H940 H 0.39477 0.35598 0.20188 0.0
H941 H 0.30411 0.28977 0.30394 0.0
H942 H 0.3112 0.31825 0.31585 0.0
H943 H 0.30015 0.30756 0.27256 0.0
H944 H 0.33003 0.39071 0.24255 0.0
H945 H 0.30672 0.34225 0.15759 0.0
H946 H 0.36445 0.3732 0.28307 0.0
H947 H 0.33767 0.35827 0.30587 0.0
H948 H 0.34829 0.38738 0.29195 0.0
H949 H 0.32787 0.31518 0.1629 0.0
H950 H 0.2984 0.30191 0.17523 0.0
H951 H 0.31865 0.30009 0.20418 0.0
C952 C 0.63982 0.95964 0.17917 0.0
C953 C 0.61833 0.94311 0.19207 0.0
C954 C 0.65424 0.97922 0.19912 0.0
C955 C 0.64642 0.98269 0.23186 0.0
C956 C 0.62526 0.96537 0.2457 0.0
C957 C 0.61173 0.9456 0.22592 0.0
C958 C 0.6771 -0.00326 0.1841 0.0
C959 C 0.61584 0.96858 0.27995 0.0
C960 C 0.6777 0.02839 0.30085 0.0
C961 C 0.67064 0.04412 0.292 0.0
C962 C 0.67207 0.00935 0.27924 0.0
C963 C 0.65813 0.0055 0.24927 0.0
C964 C 0.65221 0.02213 0.23923 0.0
C965 C 0.65897 0.04148 0.26036 0.0
C966 C 0.67987 0.9927 0.28956 0.0
C967 C 0.63687 0.0185 0.20804 0.0
H968 H 0.64508 0.95762 0.15312 0.0
H969 H 0.59509 0.93288 0.23594 0.0
H970 H 0.67525 0.01013 0.17001 0.0
H971 H 0.69003 0.00525 0.20515 0.0
H972 H 0.68356 0.98882 0.16501 0.0
H973 H 0.59948 0.95313 0.28753 0.0
H974 H 0.62836 0.97264 0.30147 0.0
H975 H 0.61275 0.98325 0.27755 0.0
H976 H 0.68702 0.03061 0.3251 0.0
H977 H 0.65347 0.05361 0.2535 0.0
H978 H 0.68551 0.98705 0.26608 0.0
H979 H 0.66542 0.97723 0.30158 0.0
H980 H 0.69414 0.00032 0.30887 0.0
H981 H 0.64403 0.01518 0.18402 0.0
H982 H 0.63457 0.03349 0.20308 0.0
H983 H 0.61974 0.00324 0.21266 0.0
C984 C 0.34249 0.97481 0.68206 0.0
C985 C 0.3227 0.95322 0.6837 0.0
C986 C 0.34689 0.99152 0.70753 0.0
C987 C 0.33055 0.98687 0.73441 0.0
C988 C 0.30964 0.9657 0.73445 0.0
C989 C 0.30618 0.94891 0.70947 0.0
C990 C 0.36989 0.01336 0.70727 0.0
C991 C 0.29125 0.95996 0.76161 0.0
C992 C 0.35821 0.01694 0.81928 0.0
C993 C 0.35981 0.03829 0.81414 0.0
C994 C 0.34737 -0.00061 0.79447 0.0
C995 C 0.3371 0.003 0.76454 0.0
C996 C 0.33627 0.02352 0.76148 0.0
C997 C 0.34823 0.04127 0.78586 0.0
C998 C 0.34849 0.97768 0.79896 0.0
C999 C 0.3236 0.02704 0.73165 0.0
H1000 H 0.35537 0.97808 0.6623 0.0
H1001 H 0.29076 0.93223 0.71061 0.0
H1002 H 0.36757 0.02852 0.70631 0.0
H1003 H 0.37933 0.01457 0.73183 0.0
H1004 H 0.38067 0.01424 0.68457 0.0
H1005 H 0.27428 0.95263 0.74855 0.0
H1006 H 0.29045 0.94657 0.77953 0.0
H1007 H 0.29415 0.97498 0.77744 0.0
H1008 H 0.36709 0.01458 0.84122 0.0
H1009 H 0.3491 0.05765 0.78224 0.0
H1010 H 0.35768 0.97552 0.77638 0.0
H1011 H 0.33093 0.96263 0.79941 0.0
H1012 H 0.35738 0.9777 0.82356 0.0
H1013 H 0.33297 0.02935 0.70666 0.0
H1014 H 0.32171 0.04232 0.73588 0.0
H1015 H 0.30634 0.01167 0.72861 0.0
C1016 C 0.04042 0.35637 0.69657 0.0
C1017 C 0.03793 0.37029 0.67169 0.0
C1018 C 0.02234 0.34248 0.7194 0.0
C1019 C 0.0019 0.3436 0.71841 0.0
C1020 C -0.00096 0.35692 0.69224 0.0
C1021 C 0.01691 0.36967 0.66866 0.0
C1022 C 0.02564 0.32765 0.74576 0.0
C1023 C 0.97794 0.35938 0.69101 0.0
C1024 C 0.94595 0.30681 0.76649 0.0
C1025 C 0.94895 0.32045 0.79603 0.0
C1026 C 0.96393 0.31291 0.74244 0.0
C1027 C 0.98485 0.33369 0.74732 0.0
C1028 C 0.98826 0.34682 0.77813 0.0
C1029 C 0.97042 0.33971 0.80251 0.0
C1030 C 0.95996 0.29787 0.71079 0.0
C1031 C 0.0099 0.36956 0.78382 0.0
H1032 H 0.05666 0.35675 0.69873 0.0
H1033 H 0.01507 0.3806 0.64959 0.0
H1034 H 0.03107 0.33672 0.7713 0.0
H1035 H 0.00941 0.31132 0.75011 0.0
H1036 H 0.03911 0.32381 0.73709 0.0
H1037 H 0.97839 0.37035 0.66887 0.0
H1038 H 0.96231 0.34235 0.68835 0.0
H1039 H 0.9764 0.36707 0.71594 0.0
H1040 H 0.92937 0.29179 0.76161 0.0
H1041 H 0.9727 0.35037 0.82522 0.0
H1042 H 0.97592 0.29805 0.70293 0.0
H1043 H 0.95429 0.30428 0.68832 0.0
H1044 H 0.94637 0.2799 0.71596 0.0
H1045 H 0.02515 0.36741 0.78273 0.0
H1046 H 0.00994 0.37745 0.80947 0.0
H1047 H 0.01172 0.38165 0.76257 0.0
C1048 C 0.67856 0.64283 0.78891 0.0
C1049 C 0.67248 0.62062 0.77801 0.0
C1050 C 0.67245 0.65647 0.76879 0.0
C1051 C 0.65889 0.6471 0.73821 0.0
C1052 C 0.65402 0.62522 0.72608 0.0
C1053 C 0.66132 0.61249 0.74577 0.0
C1054 C 0.67975 0.68036 0.78151 0.0
C1055 C 0.63968 0.61447 0.69363 0.0
C1056 C 0.61191 0.6605 0.7181 0.0
C1057 C 0.61759 0.66924 0.68393 0.0
C1058 C 0.62597 0.65446 0.73691 0.0
C1059 C 0.64676 0.65812 0.72171 0.0
C1060 C 0.65364 0.66905 0.68851 0.0
C1061 C 0.63875 0.67412 0.66974 0.0
C1062 C 0.61759 0.64244 0.77184 0.0
C1063 C 0.67607 0.67461 0.67151 0.0
H1064 H 0.68758 0.64935 0.81356 0.0
H1065 H 0.65669 0.59535 0.7372 0.0
H1066 H 0.67777 0.69102 0.76113 0.0
H1067 H 0.66943 0.67938 0.80485 0.0
H1068 H 0.69796 0.68907 0.79 0.0
H1069 H 0.6363 0.59676 0.68902 0.0
H1070 H 0.62298 0.61392 0.69599 0.0
H1071 H 0.64861 0.62497 0.67025 0.0
H1072 H 0.59556 0.65675 0.72919 0.0
H1073 H 0.6434 0.68126 0.6435 0.0
H1074 H 0.62966 0.65285 0.79293 0.0
H1075 H 0.61685 0.6256 0.7713 0.0
H1076 H 0.60031 0.63954 0.77878 0.0
H1077 H 0.68633 0.66914 0.68728 0.0
H1078 H 0.68643 0.6934 0.66715 0.0
H1079 H 0.67276 0.66634 0.64527 0.0
C1080 C 0.20607 0.08184 -0.00036 0.0
C1081 C 0.22257 0.07864 0.98221 0.0
C1082 C 0.20993 0.10388 0.00689 0.0
C1083 C 0.23051 0.12321 -0.00461 0.0
C1084 C 0.24748 0.12009 0.9784 0.0
C1085 C 0.24343 0.09775 0.97247 0.0
C1086 C 0.19168 0.10644 0.026 0.0
C1087 C 0.26936 0.14026 0.96499 0.0
C1088 C 0.22338 0.17486 0.97984 0.0
C1089 C 0.23334 0.18788 0.01012 0.0
C1090 C 0.22359 0.15443 0.97376 0.0
C1091 C 0.23333 0.14647 -0.00082 0.0
C1092 C 0.24388 0.15983 0.02949 0.0
C1093 C 0.24406 0.18061 0.03434 0.0
C1094 C 0.21271 0.141 0.94065 0.0
C1095 C 0.25388 0.15163 0.05762 0.0
H1096 H 0.19001 0.06701 0.00748 0.0
H1097 H 0.25611 0.09523 0.95877 0.0
H1098 H 0.19933 0.11854 0.04831 0.0
H1099 H 0.18398 0.11367 0.00794 0.0
H1100 H 0.17776 0.08982 0.03622 0.0
H1101 H 0.28149 0.13504 0.95455 0.0
H1102 H 0.26528 0.1489 0.94369 0.0
H1103 H 0.278 0.15304 0.98618 0.0
H1104 H 0.21529 0.18062 0.96093 0.0
H1105 H 0.25167 0.19064 0.05787 0.0
H1106 H 0.19682 0.12485 0.94735 0.0
H1107 H 0.22446 0.13626 0.92749 0.0
H1108 H 0.20827 0.15077 0.9218 0.0
H1109 H 0.23992 0.13605 0.07029 0.0
H1110 H 0.26301 0.16481 0.07821 0.0
H1111 H 0.26598 0.14682 0.04596 0.0
C1112 C 0.91742 0.13423 0.98005 0.0
C1113 C 0.92044 0.15433 0.96424 0.0
C1114 C 0.89546 0.11551 0.98584 0.0
C1115 C 0.87603 0.11664 0.9745 0.0
C1116 C 0.87895 0.137 0.95876 0.0
C1117 C 0.90118 0.1558 0.9543 0.0
C1118 C 0.8931 0.09438 0.00363 0.0
C1119 C 0.85868 0.13862 0.94551 0.0
C1120 C 0.82486 0.05771 0.958 0.0
C1121 C 0.812 0.05412 0.98863 0.0
C1122 C 0.84501 0.07863 0.95203 0.0
C1123 C 0.85286 0.09604 0.97791 0.0
C1124 C 0.83956 0.09272 0.00849 0.0
C1125 C 0.81906 0.07186 0.01323 0.0
C1126 C 0.85835 0.08174 0.91862 0.0
C1127 C 0.84765 0.11059 0.03713 0.0
H1128 H 0.93232 0.13318 0.98807 0.0
H1129 H 0.90354 0.17131 0.94186 0.0
H1130 H 0.88108 0.08947 0.02613 0.0
H1131 H 0.88585 0.0798 0.98492 0.0
H1132 H 0.90978 0.09696 0.01336 0.0
H1133 H 0.86377 0.15594 0.93517 0.0
H1134 H 0.85001 0.12589 0.92423 0.0
H1135 H 0.84597 0.13441 0.96682 0.0
H1136 H 0.81928 0.04402 0.93884 0.0
H1137 H 0.80918 0.06902 0.03707 0.0
H1138 H 0.87453 0.0819 0.9248 0.0
H1139 H 0.86304 0.09843 0.9062 0.0
H1140 H 0.84854 0.06782 0.89936 0.0
H1141 H 0.8633 0.11221 0.04954 0.0
H1142 H 0.83446 0.1062 0.05782 0.0
H1143 H 0.8523 0.12759 0.02602 0.0
C1144 C 0.84376 0.75256 -0.00484 0.0
C1145 C 0.84283 0.76183 0.96269 0.0
C1146 C 0.86249 0.74974 0.00378 0.0
C1147 C 0.88022 0.75571 0.97885 0.0
C1148 C 0.87852 0.76368 0.94521 0.0
C1149 C 0.86003 0.76701 0.93775 0.0
C1150 C 0.86397 0.74172 0.0402 0.0
C1151 C 0.89672 0.76961 0.91754 0.0
C1152 C 0.94147 0.77722 0.00749 0.0
C1153 C 0.94359 0.75774 0.00286 0.0
C1154 C 0.9206 0.77644 0.00119 0.0
C1155 C 0.90162 0.75586 0.98884 0.0
C1156 C 0.90364 0.73607 0.98424 0.0
C1157 C 0.92458 0.73716 0.99187 0.0
C1158 C 0.91899 0.79775 0.0073 0.0
C1159 C 0.88397 0.71404 0.97017 0.0
H1160 H 0.83048 0.74868 0.01448 0.0
H1161 H 0.85915 0.77396 0.91248 0.0
H1162 H 0.86781 0.72753 0.03886 0.0
H1163 H 0.87824 0.75601 0.05475 0.0
H1164 H 0.84789 0.73583 0.05535 0.0
H1165 H 0.89144 0.77284 0.8915 0.0
H1166 H 0.91276 0.78522 0.92556 0.0
H1167 H 0.90067 0.75554 0.91483 0.0
H1168 H 0.95611 0.79307 0.01644 0.0
H1169 H 0.92629 0.72212 0.98822 0.0
H1170 H 0.90406 0.79374 0.02431 0.0
H1171 H 0.91629 0.80415 0.98191 0.0
H1172 H 0.93469 0.8117 0.01979 0.0
H1173 H 0.86843 0.70857 0.98644 0.0
H1174 H 0.888 0.69994 0.96952 0.0
H1175 H 0.87976 0.71687 0.94312 0.0
C1176 C 0.14487 0.20378 0.48419 0.0
C1177 C 0.16554 0.22429 0.48916 0.0
C1178 C 0.12379 0.20249 0.49105 0.0
C1179 C 0.12346 0.22199 0.50433 0.0
C1180 C 0.14436 0.24263 0.51003 0.0
C1181 C 0.16518 0.24365 0.50179 0.0
C1182 C 0.10186 0.18036 0.48371 0.0
C1183 C 0.14475 0.26354 0.52521 0.0
C1184 C 0.06848 0.22426 0.49429 0.0
C1185 C 0.05748 0.21482 0.52625 0.0
C1186 C 0.09009 0.22687 0.48685 0.0
C1187 C 0.10121 0.2206 0.51249 0.0
C1188 C 0.09057 0.21204 0.54542 0.0
C1189 C 0.06864 0.20887 0.55166 0.0
C1190 C 0.10058 0.23547 0.45108 0.0
C1191 C 0.10218 0.20586 0.57385 0.0
H1192 H 0.14516 0.18886 0.47408 0.0
H1193 H 0.18118 0.25945 0.50581 0.0
H1194 H 0.09206 0.17342 0.50841 0.0
H1195 H 0.09089 0.18357 0.46553 0.0
H1196 H 0.10507 0.16713 0.47192 0.0
H1197 H 0.16247 0.27804 0.52898 0.0
H1198 H 0.13543 0.26923 0.50763 0.0
H1199 H 0.13581 0.25922 0.55094 0.0
H1200 H 0.05974 0.22867 0.47452 0.0
H1201 H 0.06019 0.20173 0.5765 0.0
H1202 H 0.10268 0.22206 0.43745 0.0
H1203 H 0.11789 0.25075 0.45376 0.0
H1204 H 0.08994 0.24003 0.43435 0.0
H1205 H 0.10386 0.19102 0.56533 0.0
H1206 H 0.09251 0.20138 0.59899 0.0
H1207 H 0.11974 0.22038 0.5786 0.0
C1208 C 0.77725 0.85377 0.49619 0.0
C1209 C 0.76127 0.83384 0.51371 0.0
C1210 C 0.7723 0.8711 0.48808 0.0
C1211 C 0.75111 0.86879 0.49877 0.0
C1212 C 0.73477 0.84857 0.51621 0.0
C1213 C 0.73992 0.8311 0.52301 0.0
C1214 C 0.78994 0.89208 0.46854 0.0
C1215 C 0.71227 0.84577 0.52879 0.0
C1216 C 0.75506 0.92664 0.50786 0.0
C1217 C 0.74529 0.92813 0.47623 0.0
C1218 C 0.75556 0.90667 0.5167 0.0
C1219 C 0.74676 0.8881 0.49275 0.0
C1220 C 0.73616 0.88925 0.46128 0.0
C1221 C 0.73526 0.90918 0.45363 0.0
C1222 C 0.76643 0.90587 0.55097 0.0
C1223 C 0.72711 0.87007 0.43465 0.0
H1224 H 0.79368 0.85576 0.48868 0.0
H1225 H 0.72765 0.81572 0.53677 0.0
H1226 H 0.78203 0.89525 0.44521 0.0
H1227 H 0.79645 0.90737 0.48574 0.0
H1228 H 0.80474 0.89038 0.4597 0.0
H1229 H 0.70098 0.8286 0.54046 0.0
H1230 H 0.71555 0.85902 0.54887 0.0
H1231 H 0.70303 0.84839 0.50678 0.0
H1232 H 0.7626 0.94123 0.52551 0.0
H1233 H 0.72777 0.91036 0.42906 0.0
H1234 H 0.78305 0.90676 0.54568 0.0
H1235 H 0.75533 0.88948 0.56482 0.0
H1236 H 0.7696 0.9203 0.56863 0.0
H1237 H 0.74167 0.86909 0.42286 0.0
H1238 H 0.71742 0.87263 0.41322 0.0
H1239 H 0.71579 0.85335 0.44746 0.0
C1240 C 0.05411 0.82306 0.52269 0.0
C1241 C 0.05227 0.81089 0.4919 0.0
C1242 C 0.07414 0.84381 0.53019 0.0
C1243 C 0.09242 0.85292 0.50569 0.0
C1244 C 0.09086 0.84037 0.47496 0.0
C1245 C 0.0709 0.81931 0.46869 0.0
C1246 C 0.0754 0.85636 0.56372 0.0
C1247 C 0.10968 0.84979 0.44773 0.0
C1248 C 0.12798 0.91776 0.50587 0.0
C1249 C 0.148 0.92159 0.52297 0.0
C1250 C 0.11015 0.89547 0.499 0.0
C1251 C 0.11208 0.87653 0.51061 0.0
C1252 C 0.13237 0.88029 0.52769 0.0
C1253 C 0.15031 0.90286 0.53318 0.0
C1254 C 0.08912 0.89222 0.47974 0.0
C1255 C 0.13477 0.86054 0.54127 0.0
H1256 H 0.03976 0.81645 0.54077 0.0
H1257 H 0.06945 0.80998 0.44472 0.0
H1258 H 0.09184 0.8617 0.57746 0.0
H1259 H 0.07479 0.87213 0.55747 0.0
H1260 H 0.06104 0.8457 0.58188 0.0
H1261 H 0.10661 0.83717 0.42663 0.0
H1262 H 0.11086 0.86533 0.43557 0.0
H1263 H 0.12648 0.85502 0.46012 0.0
H1264 H 0.1263 0.93228 0.49772 0.0
H1265 H 0.16575 0.90588 0.54668 0.0
H1266 H 0.07402 0.88407 0.4974 0.0
H1267 H 0.08544 0.88062 0.45694 0.0
H1268 H 0.09109 0.90869 0.47014 0.0
H1269 H 0.12152 0.85109 0.56158 0.0
H1270 H 0.15192 0.86632 0.55293 0.0
H1271 H 0.13187 0.84827 0.51977 0.0
C1272 C 0.75703 0.90965 0.97905 0.0
C1273 C 0.76771 0.92154 0.00989 0.0
C1274 C 0.75473 0.88811 0.972 0.0
C1275 C 0.76261 0.87803 -0.00301 0.0
C1276 C 0.77231 0.88953 0.02899 0.0
C1277 C 0.77513 0.91134 0.03475 0.0
C1278 C 0.74492 0.8767 0.93717 0.0
C1279 C 0.78026 0.87905 0.05679 0.0
C1280 C 0.74316 0.81451 0.99058 0.0
C1281 C 0.76294 0.81524 0.97745 0.0
C1282 C 0.7427 0.83483 -0.00301 0.0
C1283 C 0.76222 0.85623 0.98887 0.0
C1284 C 0.78193 0.85692 0.97441 0.0
C1285 C 0.78219 0.83642 0.96947 0.0
C1286 C 0.72166 0.83344 0.01348 0.0
C1287 C 0.80285 0.87933 0.96446 0.0
H1288 H 0.75145 0.91767 0.95974 0.0
H1289 H 0.7832 0.9205 0.05876 0.0
H1290 H 0.75832 0.87555 0.92182 0.0
H1291 H 0.73065 0.85894 0.94125 0.0
H1292 H 0.73852 0.88622 0.92137 0.0
H1293 H 0.78515 0.88908 0.08159 0.0
H1294 H 0.76655 0.86126 0.06261 0.0
H1295 H 0.79532 0.87816 0.04704 0.0
H1296 H 0.72832 0.79809 -0.00308 0.0
H1297 H 0.7974 0.83694 0.95894 0.0
H1298 H 0.71507 0.84239 -0.00318 0.0
H1299 H 0.72621 0.84225 0.03932 0.0
H1300 H 0.70773 0.81546 0.01743 0.0
H1301 H 0.7979 0.88936 0.94704 0.0
H1302 H 0.81598 0.87676 0.95083 0.0
H1303 H 0.81071 0.88977 0.98836 0.0
C1304 C 0.15385 0.94241 0.98266 0.0
C1305 C 0.17596 0.94573 0.98659 0.0
C1306 C 0.13451 0.92102 0.98947 0.0
C1307 C 0.13742 0.90278 0.00178 0.0
C1308 C 0.15977 0.90607 0.0058 0.0
C1309 C 0.17883 0.92746 -0.00249 0.0
C1310 C 0.11097 0.91803 0.98379 0.0
C1311 C 0.16355 0.88728 0.01995 0.0
C1312 C 0.08571 0.85903 0.05278 0.0
C1313 C 0.07458 0.84164 0.02781 0.0
C1314 C 0.10702 0.87834 0.04543 0.0
C1315 C 0.11694 0.8807 0.01179 0.0
C1316 C 0.10607 0.86281 0.98684 0.0
C1317 C 0.08514 0.84325 -0.00459 0.0
C1318 C 0.11844 0.89667 0.07317 0.0
C1319 C 0.11575 0.86496 0.95037 0.0
H1320 H 0.15168 0.95653 0.97386 0.0
H1321 H 0.196 0.93015 0.00072 0.0
H1322 H 0.10055 0.90286 0.96692 0.0
H1323 H 0.10196 0.91493 0.00932 0.0
H1324 H 0.11171 0.9333 0.97131 0.0
H1325 H 0.18198 0.89237 0.02056 0.0
H1326 H 0.15659 0.88279 0.04703 0.0
H1327 H 0.15419 0.87158 0.00376 0.0
H1328 H 0.07756 0.85764 0.07794 0.0
H1329 H 0.07636 0.82985 0.97602 0.0
H1330 H 0.11764 0.91212 0.06539 0.0
H1331 H 0.13681 0.90181 0.07569 0.0
H1332 H 0.1101 0.89087 0.09925 0.0
H1333 H 0.11476 0.87876 0.93596 0.0
H1334 H 0.1063 0.84879 0.93513 0.0
H1335 H 0.13408 0.86985 0.95163 0.0
C1336 C 0.15194 0.2515 0.9885 0.0
C1337 C 0.15237 0.24193 0.02093 0.0
C1338 C 0.13334 0.25443 0.97937 0.0
C1339 C 0.11528 0.24827 0.00375 0.0
C1340 C 0.11663 0.24021 0.03751 0.0
C1341 C 0.13497 0.23674 0.04544 0.0
C1342 C 0.13225 0.26255 0.94284 0.0
C1343 C 0.09809 0.23408 0.06465 0.0
C1344 C 0.06957 0.26491 0.98956 0.0
C1345 C 0.05097 0.24392 0.97891 0.0
C1346 C 0.09089 0.26683 -0.0028 0.0
C1347 C 0.09371 0.24749 0.99289 0.0
C1348 C 0.07519 0.22657 0.98052 0.0
C1349 C 0.05394 0.22494 0.9743 0.0
C1350 C 0.11003 0.2892 0.0113 0.0
C1351 C 0.07764 0.20571 0.97464 0.0
H1352 H 0.16539 0.25535 0.96952 0.0
H1353 H 0.1355 0.22953 0.07067 0.0
H1354 H 0.11871 0.24805 0.92761 0.0
H1355 H 0.12759 0.27617 0.94381 0.0
H1356 H 0.14877 0.26921 0.9286 0.0
H1357 H 0.10328 0.23119 0.091 0.0
H1358 H 0.09371 0.24788 0.06674 0.0
H1359 H 0.08234 0.2182 0.05655 0.0
H1360 H 0.06718 0.27955 0.99321 0.0
H1361 H 0.03961 0.20878 0.96561 0.0
H1362 H 0.12594 0.29479 -0.00407 0.0
H1363 H 0.11379 0.28676 0.03884 0.0
H1364 H 0.10564 0.30305 0.01073 0.0
H1365 H 0.09295 0.21023 0.95825 0.0
H1366 H 0.06235 0.19156 0.96159 0.0
H1367 H 0.08013 0.19935 0.0002 0.0
C1368 C 0.90849 0.74951 0.49614 0.0
C1369 C 0.91945 0.75906 0.46423 0.0
C1370 C 0.88687 0.74687 0.50365 0.0
C1371 C 0.87575 0.75321 0.4781 0.0
C1372 C 0.88621 0.76149 0.44498 0.0
C1373 C 0.90816 0.76476 0.43872 0.0
C1374 C 0.8766 0.73864 0.53964 0.0
C1375 C 0.87461 0.7677 0.41659 0.0
C1376 C 0.81248 0.73372 0.48968 0.0
C1377 C 0.81354 0.754 0.50111 0.0
C1378 C 0.83259 0.73315 0.48187 0.0
C1379 C 0.85418 0.75313 0.4869 0.0
C1380 C 0.85527 0.77347 0.4994 0.0
C1381 C 0.83491 0.77376 0.50572 0.0
C1382 C 0.83073 0.71141 0.46744 0.0
C1383 C 0.87794 0.79495 0.5061 0.0
H1384 H 0.91739 0.74534 0.51595 0.0
H1385 H 0.91666 0.77203 0.41396 0.0
H1386 H 0.87601 0.75274 0.55379 0.0
H1387 H 0.85873 0.72425 0.53745 0.0
H1388 H 0.88663 0.73292 0.55563 0.0
H1389 H 0.88367 0.77108 0.391 0.0
H1390 H 0.85664 0.75371 0.41303 0.0
H1391 H 0.87408 0.7833 0.4244 0.0
H1392 H 0.7959 0.71846 0.48597 0.0
H1393 H 0.83571 0.78938 0.51496 0.0
H1394 H 0.84014 0.70557 0.48455 0.0
H1395 H 0.8388 0.71476 0.44107 0.0
H1396 H 0.81265 0.69735 0.46519 0.0
H1397 H 0.8887 0.79107 0.52371 0.0
H1398 H 0.87579 0.80876 0.51823 0.0
H1399 H 0.88742 0.80146 0.48104 0.0
C1400 C 0.226 0.13821 0.44182 0.0
C1401 C 0.22912 0.15494 0.46649 0.0
C1402 C 0.22983 0.12024 0.4508 0.0
C1403 C 0.23612 0.11854 0.48569 0.0
C1404 C 0.24038 0.13604 0.51026 0.0
C1405 C 0.23713 0.1543 0.50016 0.0
C1406 C 0.22581 0.10234 0.4235 0.0
C1407 C 0.24661 0.1346 0.54789 0.0
C1408 C 0.21275 0.05707 0.51488 0.0
C1409 C 0.23229 0.05481 0.51357 0.0
C1410 C 0.21406 0.07806 0.5074 0.0
C1411 C 0.23532 0.09707 0.49726 0.0
C1412 C 0.2552 0.09495 0.49622 0.0
C1413 C 0.25351 0.07386 0.50493 0.0
C1414 C 0.19255 0.07974 0.50971 0.0
C1415 C 0.27802 0.11463 0.4846 0.0
H1416 H 0.21994 0.13887 0.41567 0.0
H1417 H 0.23935 0.16719 0.51928 0.0
H1418 H 0.23997 0.09841 0.42379 0.0
H1419 H 0.20972 0.08622 0.4296 0.0
H1420 H 0.22434 0.1079 0.39662 0.0
H1421 H 0.25211 0.15084 0.56242 0.0
H1422 H 0.23149 0.12062 0.56145 0.0
H1423 H 0.26054 0.13038 0.54911 0.0
H1424 H 0.19638 0.04239 0.52196 0.0
H1425 H 0.26861 0.07205 0.50377 0.0
H1426 H 0.18763 0.0825 0.48312 0.0
H1427 H 0.19567 0.09464 0.52613 0.0
H1428 H 0.17791 0.06403 0.52101 0.0
H1429 H 0.27692 0.11869 0.45666 0.0
H1430 H 0.2921 0.11067 0.48733 0.0
H1431 H 0.28242 0.13024 0.50011 0.0
C1432 C 0.92305 0.14387 0.50455 0.0
C1433 C 0.92582 0.16556 0.49794 0.0
C1434 C 0.90242 0.12391 0.49659 0.0
C1435 C 0.88443 0.1257 0.48048 0.0
C1436 C 0.88711 0.14761 0.47385 0.0
C1437 C 0.90771 0.16735 0.48324 0.0
C1438 C 0.90002 0.10089 0.50504 0.0
C1439 C 0.86859 0.15019 0.45575 0.0
C1440 C 0.8449 0.07246 0.42843 0.0
C1441 C 0.82634 0.06108 0.45144 0.0
C1442 C 0.86324 0.09426 0.43657 0.0
C1443 C 0.86337 0.10451 0.46911 0.0
C1444 C 0.8443 0.09338 0.49197 0.0
C1445 C 0.82578 0.07188 0.48256 0.0
C1446 C 0.88291 0.10588 0.41097 0.0
C1447 C 0.84406 0.10345 0.52729 0.0
H1448 H 0.937 0.14252 0.5163 0.0
H1449 H 0.90996 0.18418 0.47799 0.0
H1450 H 0.88413 0.09032 0.52037 0.0
H1451 H 0.8986 0.09151 0.48036 0.0
H1452 H 0.91484 0.10252 0.52026 0.0
H1453 H 0.873 0.1684 0.45367 0.0
H1454 H 0.86579 0.14283 0.4289 0.0
H1455 H 0.85215 0.14052 0.47012 0.0
H1456 H 0.8452 0.06415 0.40419 0.0
H1457 H 0.81147 0.06295 0.50046 0.0
H1458 H 0.89826 0.10602 0.42185 0.0
H1459 H 0.88743 0.12397 0.40686 0.0
H1460 H 0.87884 0.09705 0.38511 0.0
H1461 H 0.85735 0.10336 0.54442 0.0
H1462 H 0.82719 0.09369 0.54061 0.0
H1463 H 0.84833 0.12154 0.52445 0.0
C1464 C 0.87468 0.48135 0.33535 0.0
C1465 C 0.8945 0.50291 0.33332 0.0
C1466 C 0.87528 0.46139 0.32695 0.0
C1467 C 0.89601 0.46315 0.31501 0.0
C1468 C 0.91603 0.48496 0.31238 0.0
C1469 C 0.91512 0.50461 0.32224 0.0
C1470 C 0.85372 0.43841 0.33111 0.0
C1471 C 0.93822 0.48756 0.2986 0.0
C1472 C 0.89958 0.40875 0.32128 0.0
C1473 C 0.89082 0.39873 0.28852 0.0
C1474 C 0.90208 0.43014 0.33 0.0
C1475 C 0.89642 0.44203 0.30485 0.0
C1476 C 0.88905 0.4326 0.2709 0.0
C1477 C 0.88588 0.41082 0.26338 0.0
C1478 C 0.90933 0.43929 0.3668 0.0
C1479 C 0.88361 0.44509 0.24296 0.0
H1480 H 0.8588 0.48005 0.3443 0.0
H1481 H 0.93042 0.52136 0.32052 0.0
H1482 H 0.84812 0.4299 0.30517 0.0
H1483 H 0.85713 0.42708 0.34814 0.0
H1484 H 0.83942 0.43996 0.34273 0.0
H1485 H 0.95214 0.50576 0.29773 0.0
H1486 H 0.94387 0.47783 0.31533 0.0
H1487 H 0.93556 0.48028 0.27173 0.0
H1488 H 0.90318 0.39924 0.3408 0.0
H1489 H 0.87925 0.40308 0.23795 0.0
H1490 H 0.89483 0.43937 0.38051 0.0
H1491 H 0.9237 0.45723 0.36613 0.0
H1492 H 0.91469 0.42882 0.38239 0.0
H1493 H 0.86769 0.44519 0.25003 0.0
H1494 H 0.88116 0.43695 0.21672 0.0
H1495 H 0.89758 0.46321 0.24113 0.0
C1496 C 0.57849 0.49496 0.31707 0.0
C1497 C 0.5889 0.49431 0.28559 0.0
C1498 C 0.55703 0.47655 0.32688 0.0
C1499 C 0.54553 0.45749 0.30406 0.0
C1500 C 0.55531 0.45763 0.27107 0.0
C1501 C 0.57709 0.47585 0.26253 0.0
C1502 C 0.54748 0.47679 0.36265 0.0
C1503 C 0.54329 0.438 0.2455 0.0
C1504 C 0.50745 0.39768 0.34 0.0
C1505 C 0.48553 0.39458 0.33455 0.0
C1506 C 0.52708 0.41848 0.33157 0.0
C1507 C 0.5247 0.43631 0.31611 0.0
C1508 C 0.50255 0.4333 0.31071 0.0
C1509 C 0.48316 0.41253 0.3206 0.0
C1510 C 0.55038 0.42121 0.33874 0.0
C1511 C 0.49933 0.45163 0.29331 0.0
H1512 H 0.58775 0.50919 0.33501 0.0
H1513 H 0.58512 0.47547 0.23802 0.0
H1514 H 0.52924 0.47216 0.36066 0.0
H1515 H 0.5482 0.46378 0.37965 0.0
H1516 H 0.55723 0.49378 0.37564 0.0
H1517 H 0.55158 0.4422 0.21923 0.0
H1518 H 0.54354 0.42271 0.25577 0.0
H1519 H 0.52508 0.43331 0.24245 0.0
H1520 H 0.50924 0.38384 0.35114 0.0
H1521 H 0.46614 0.41001 0.31623 0.0
H1522 H 0.56112 0.43718 0.3538 0.0
H1523 H 0.55929 0.42265 0.31356 0.0
H1524 H 0.54924 0.40652 0.35373 0.0
H1525 H 0.50931 0.46818 0.30731 0.0
H1526 H 0.48104 0.44708 0.29254 0.0
H1527 H 0.50593 0.45429 0.26599 0.0
C1528 C 0.50344 0.08604 0.33704 0.0
C1529 C 0.50337 0.09741 0.30629 0.0
C1530 C 0.52183 0.08243 0.34459 0.0
C1531 C 0.54006 0.08972 0.32022 0.0
C1532 C 0.53926 0.09993 0.28814 0.0
C1533 C 0.52112 0.10403 0.28186 0.0
C1534 C 0.52238 0.07207 0.37949 0.0
C1535 C 0.558 0.10731 0.26098 0.0
C1536 C 0.60039 0.10789 0.35033 0.0
C1537 C 0.602 0.08841 0.34267 0.0
C1538 C 0.57998 0.10813 0.34447 0.0
C1539 C 0.56098 0.08868 0.3294 0.0
C1540 C 0.56251 0.06892 0.32165 0.0
C1541 C 0.58295 0.06888 0.32898 0.0
C1542 C 0.57885 0.12931 0.35406 0.0
C1543 C 0.54288 0.04815 0.30458 0.0
H1544 H 0.48976 0.08109 0.35603 0.0
H1545 H 0.52091 0.11265 0.25792 0.0
H1546 H 0.52575 0.0577 0.37568 0.0
H1547 H 0.53659 0.08519 0.3957 0.0
H1548 H 0.50609 0.06568 0.3943 0.0
H1549 H 0.55341 0.11236 0.2358 0.0
H1550 H 0.574 0.12216 0.27103 0.0
H1551 H 0.56168 0.09326 0.25577 0.0
H1552 H 0.61508 0.1229 0.36134 0.0
H1553 H 0.58429 0.05385 0.32295 0.0
H1554 H 0.56364 0.12461 0.37079 0.0
H1555 H 0.57696 0.13744 0.32993 0.0
H1556 H 0.59442 0.14215 0.36829 0.0
H1557 H 0.52706 0.04194 0.32044 0.0
H1558 H 0.54653 0.03389 0.30131 0.0
H1559 H 0.53936 0.0529 0.27835 0.0
C1560 C 0.83776 0.56995 0.85351 0.0
C1561 C 0.84971 0.5771 0.8217 0.0
C1562 C 0.81677 0.56929 0.858 0.0
C1563 C 0.80718 0.5752 0.82955 0.0
C1564 C 0.81966 0.58334 0.7978 0.0
C1565 C 0.84098 0.58449 0.79442 0.0
C1566 C 0.80432 0.56113 0.89261 0.0
C1567 C 0.80981 0.58929 0.76658 0.0
C1568 C 0.74226 0.54267 0.82866 0.0
C1569 C 0.7371 0.55932 0.84027 0.0
C1570 C 0.76499 0.54794 0.82383 0.0
C1571 C 0.78308 0.57027 0.83176 0.0
C1572 C 0.778 0.58727 0.84314 0.0
C1573 C 0.75499 0.58166 0.8468 0.0
C1574 C 0.76964 0.52946 0.81079 0.0
C1575 C 0.79682 0.61108 0.85263 0.0
H1576 H 0.84462 0.56439 0.87469 0.0
H1577 H 0.85014 0.58986 0.76968 0.0
H1578 H 0.79805 0.57271 0.90155 0.0
H1579 H 0.78915 0.5438 0.88927 0.0
H1580 H 0.81541 0.56024 0.91342 0.0
H1581 H 0.8226 0.59763 0.74525 0.0
H1582 H 0.79504 0.57341 0.756 0.0
H1583 H 0.80332 0.60086 0.7745 0.0
H1584 H 0.72844 0.52544 0.82324 0.0
H1585 H 0.75101 0.59451 0.85599 0.0
H1586 H 0.77839 0.52512 0.83158 0.0
H1587 H 0.78123 0.53569 0.7877 0.0
H1588 H 0.75368 0.51356 0.80325 0.0
H1589 H 0.80657 0.61015 0.87547 0.0
H1590 H 0.79005 0.62263 0.85938 0.0
H1591 H 0.8091 0.61873 0.83055 0.0
C1592 C 0.44199 0.1884 0.83662 0.0
C1593 C 0.42586 0.16912 0.85527 0.0
C1594 C 0.43797 0.20639 0.82868 0.0
C1595 C 0.41762 0.20543 0.84072 0.0
C1596 C 0.40105 0.1858 0.85912 0.0
C1597 C 0.40522 0.16763 0.86572 0.0
C1598 C 0.4558 0.22668 0.80812 0.0
C1599 C 0.37943 0.18442 0.87312 0.0
C1600 C 0.42594 0.26501 0.85153 0.0
C1601 C 0.41587 0.26734 0.82079 0.0
C1602 C 0.42513 0.2443 0.85958 0.0
C1603 C 0.41467 0.22573 0.83569 0.0
C1604 C 0.40378 0.22775 0.80515 0.0
C1605 C 0.40423 0.24848 0.79831 0.0
C1606 C 0.4364 0.24266 0.8929 0.0
C1607 C 0.39297 0.20859 0.7786 0.0
H1608 H 0.45785 0.18941 0.82818 0.0
H1609 H 0.39282 0.15274 0.88032 0.0
H1610 H 0.4477 0.23041 0.78562 0.0
H1611 H 0.46373 0.24212 0.82513 0.0
H1612 H 0.46961 0.22379 0.79792 0.0
H1613 H 0.36758 0.16739 0.88476 0.0
H1614 H 0.38394 0.19774 0.8936 0.0
H1615 H 0.37033 0.18794 0.85191 0.0
H1616 H 0.43474 0.27953 0.8691 0.0
H1617 H 0.39653 0.25031 0.77443 0.0
H1618 H 0.45227 0.24232 0.88628 0.0
H1619 H 0.42488 0.22653 0.90707 0.0
H1620 H 0.44101 0.25736 0.9108 0.0
H1621 H 0.40657 0.20662 0.76539 0.0
H1622 H 0.38316 0.2119 0.75823 0.0
H1623 H 0.38132 0.19208 0.79172 0.0
C1624 C 0.7353 0.15347 0.79313 0.0
C1625 C 0.71722 0.14732 0.81685 0.0
C1626 C 0.75612 0.17412 0.79711 0.0
C1627 C 0.75907 0.18858 0.82603 0.0
C1628 C 0.74125 0.1818 0.85103 0.0
C1629 C 0.72041 0.16141 0.84583 0.0
C1630 C 0.77445 0.18102 0.76941 0.0
C1631 C 0.74391 0.19645 0.88269 0.0
C1632 C 0.81841 0.23723 0.85076 0.0
C1633 C 0.81737 0.25628 0.83839 0.0
C1634 C 0.79968 0.21493 0.84651 0.0
C1635 C 0.77983 0.21171 0.8286 0.0
C1636 C 0.77925 0.23089 0.81458 0.0
C1637 C 0.79788 0.25295 0.82014 0.0
C1638 C 0.80071 0.19497 0.86252 0.0
C1639 C 0.75871 0.22819 0.79445 0.0
H1640 H 0.73282 0.14264 0.77057 0.0
H1641 H 0.7065 0.15656 0.86436 0.0
H1642 H 0.77657 0.19634 0.75517 0.0
H1643 H 0.79117 0.18579 0.78173 0.0
H1644 H 0.77021 0.16713 0.75003 0.0
H1645 H 0.72952 0.18757 0.90156 0.0
H1646 H 0.76022 0.20129 0.89649 0.0
H1647 H 0.74462 0.21253 0.87412 0.0
H1648 H 0.83344 0.23985 0.86512 0.0
H1649 H 0.79716 0.26768 0.81028 0.0
H1650 H 0.7965 0.18143 0.84257 0.0
H1651 H 0.78772 0.18727 0.88371 0.0
H1652 H 0.81784 0.20016 0.87378 0.0
H1653 H 0.75409 0.21532 0.77323 0.0
H1654 H 0.76184 0.24458 0.78259 0.0
H1655 H 0.74374 0.22184 0.81229 0.0
C1656 C 0.41535 0.16081 0.30394 0.0
C1657 C 0.42368 0.15158 0.32902 0.0
C1658 C 0.41697 0.18219 0.3094 0.0
C1659 C 0.42646 0.19417 0.34117 0.0
C1660 C 0.43369 0.18423 0.36738 0.0
C1661 C 0.43261 0.16323 0.3607 0.0
C1662 C 0.40972 0.19251 0.2804 0.0
C1663 C 0.44326 0.19612 0.40202 0.0
C1664 C 0.45676 0.25909 0.34311 0.0
C1665 C 0.4398 0.26308 0.35694 0.0
C1666 C 0.45235 0.23674 0.33687 0.0
C1667 C 0.43069 0.2179 0.34585 0.0
C1668 C 0.41349 0.22182 0.35998 0.0
C1669 C 0.41814 0.24445 0.36481 0.0
C1670 C 0.47092 0.23332 0.32078 0.0
C1671 C 0.39046 0.20217 0.37086 0.0
H1672 H 0.40863 0.15186 0.27929 0.0
H1673 H 0.4389 0.15596 0.38017 0.0
H1674 H 0.39767 0.19784 0.29062 0.0
H1675 H 0.42496 0.20813 0.2702 0.0
H1676 H 0.40138 0.18041 0.25823 0.0
H1677 H 0.44552 0.18492 0.42108 0.0
H1678 H 0.46015 0.21172 0.39772 0.0
H1679 H 0.43175 0.20169 0.4138 0.0
H1680 H 0.47344 0.27353 0.3367 0.0
H1681 H 0.40508 0.24756 0.37574 0.0
H1682 H 0.46426 0.22224 0.29715 0.0
H1683 H 0.47638 0.22447 0.33975 0.0
H1684 H 0.48622 0.24978 0.3131 0.0
H1685 H 0.38199 0.19059 0.34824 0.0
H1686 H 0.37888 0.20812 0.38114 0.0
H1687 H 0.39282 0.1919 0.39151 0.0
C1688 C 0.8398 0.24789 0.32922 0.0
C1689 C 0.83809 0.26669 0.31748 0.0
C1690 C 0.82018 0.22749 0.33959 0.0
C1691 C 0.79837 0.22571 0.33693 0.0
C1692 C 0.79658 0.24453 0.32427 0.0
C1693 C 0.81651 0.26493 0.31527 0.0
C1694 C 0.8228 0.20804 0.35401 0.0
C1695 C 0.7736 0.24311 0.32011 0.0
C1696 C 0.74404 0.16762 0.33267 0.0
C1697 C 0.73433 0.16667 0.36561 0.0
C1698 C 0.76526 0.18648 0.32323 0.0
C1699 C 0.77731 0.20437 0.34779 0.0
C1700 C 0.76818 0.20273 0.38187 0.0
C1701 C 0.74657 0.18409 0.39015 0.0
C1702 C 0.7741 0.1879 0.28633 0.0
C1703 C 0.78084 0.22108 0.40917 0.0
H1704 H 0.85655 0.24936 0.33114 0.0
H1705 H 0.81518 0.27942 0.30586 0.0
H1706 H 0.81579 0.20388 0.38108 0.0
H1707 H 0.81284 0.19241 0.33788 0.0
H1708 H 0.84098 0.21223 0.35463 0.0
H1709 H 0.77511 0.25881 0.30798 0.0
H1710 H 0.76215 0.22814 0.30353 0.0
H1711 H 0.76524 0.24055 0.34612 0.0
H1712 H 0.73446 0.15423 0.31359 0.0
H1713 H 0.73911 0.18323 0.41575 0.0
H1714 H 0.79202 0.19138 0.28684 0.0
H1715 H 0.77417 0.20238 0.27227 0.0
H1716 H 0.76346 0.17192 0.27117 0.0
H1717 H 0.79894 0.22518 0.41099 0.0
H1718 H 0.77283 0.21585 0.43556 0.0
H1719 H 0.78097 0.23702 0.4014 0.0
C1720 C 0.81691 0.57532 0.36439 0.0
C1721 C 0.8139 0.55373 0.35599 0.0
C1722 C 0.79955 0.58059 0.35729 0.0
C1723 C 0.77916 0.56414 0.34033 0.0
C1724 C 0.77644 0.54258 0.33091 0.0
C1725 C 0.79366 0.53751 0.33939 0.0
C1726 C 0.80276 0.60348 0.36866 0.0
C1727 C 0.75529 0.52479 0.31186 0.0
C1728 C 0.72217 0.56251 0.3463 0.0
C1729 C 0.72147 0.57215 0.31406 0.0
C1730 C 0.74156 0.56122 0.35625 0.0
C1731 C 0.76033 0.56902 0.3328 0.0
C1732 C 0.75993 0.57936 0.3006 0.0
C1733 C 0.74061 0.58113 0.29186 0.0
C1734 C 0.7416 0.55072 0.39127 0.0
C1735 C 0.77927 0.58728 0.27443 0.0
H1736 H 0.83252 0.5878 0.37742 0.0
H1737 H 0.79144 0.52089 0.33253 0.0
H1738 H 0.80125 0.6128 0.34573 0.0
H1739 H 0.78904 0.6008 0.38745 0.0
H1740 H 0.81965 0.61443 0.38138 0.0
H1741 H 0.7565 0.50947 0.30446 0.0
H1742 H 0.73998 0.51915 0.32875 0.0
H1743 H 0.75254 0.53229 0.28767 0.0
H1744 H 0.70743 0.55575 0.36361 0.0
H1745 H 0.74002 0.58846 0.2668 0.0
H1746 H 0.75795 0.56166 0.40533 0.0
H1747 H 0.74017 0.53375 0.38709 0.0
H1748 H 0.72716 0.54833 0.40828 0.0
H1749 H 0.79596 0.59871 0.28725 0.0
H1750 H 0.77715 0.59652 0.25186 0.0
H1751 H 0.77999 0.57221 0.26421 0.0
C1752 C 0.57048 0.10051 0.77635 0.0
C1753 C 0.58257 0.09578 0.80174 0.0
C1754 C 0.54836 0.09661 0.78322 0.0
C1755 C 0.53855 0.08867 0.81681 0.0
C1756 C 0.55051 0.08333 0.84229 0.0
C1757 C 0.57229 0.08658 0.83418 0.0
C1758 C 0.53586 0.10176 0.75493 0.0
C1759 C 0.54094 0.07552 0.87874 0.0
C1760 C 0.49709 0.10834 0.84451 0.0
C1761 C 0.4759 0.08822 0.84092 0.0
C1762 C 0.51761 0.10844 0.83792 0.0
C1763 C 0.51684 0.08812 0.82617 0.0
C1764 C 0.49542 0.06774 0.82226 0.0
C1765 C 0.47515 0.06794 0.83036 0.0
C1766 C 0.5401 0.13035 0.84346 0.0
C1767 C 0.4939 0.04597 0.80865 0.0
H1768 H 0.57842 0.10743 0.75112 0.0
H1769 H 0.58179 0.08309 0.85385 0.0
H1770 H 0.51803 0.08732 0.75225 0.0
H1771 H 0.5349 0.11719 0.76226 0.0
H1772 H 0.54453 0.10491 0.72903 0.0
H1773 H 0.55158 0.07051 0.89461 0.0
H1774 H 0.54011 0.08961 0.89253 0.0
H1775 H 0.52323 0.06076 0.87739 0.0
H1776 H 0.49765 0.12396 0.8531 0.0
H1777 H 0.45869 0.05241 0.82749 0.0
H1778 H 0.54908 0.13662 0.81797 0.0
H1779 H 0.55142 0.12713 0.86083 0.0
H1780 H 0.53774 0.14411 0.85531 0.0
H1781 H 0.50137 0.04894 0.78187 0.0
H1782 H 0.47595 0.03153 0.80756 0.0
H1783 H 0.50404 0.04091 0.82556 0.0
C1784 C 0.91383 0.48998 0.80096 0.0
C1785 C 0.89283 0.48769 0.81142 0.0
C1786 C 0.918 0.47159 0.80434 0.0
C1787 C 0.90098 0.45071 0.81935 0.0
C1788 C 0.8801 0.44867 0.83112 0.0
C1789 C 0.87617 0.46707 0.82659 0.0
C1790 C 0.94025 0.47421 0.79081 0.0
C1791 C 0.86171 0.42691 0.84805 0.0
C1792 C 0.89548 0.39296 0.80014 0.0
C1793 C 0.90464 0.38913 0.83072 0.0
C1794 C 0.89553 0.41362 0.79511 0.0
C1795 C 0.90438 0.43056 0.82175 0.0
C1796 C 0.91439 0.4271 0.85215 0.0
C1797 C 0.91465 0.4065 0.85607 0.0
C1798 C 0.88521 0.41689 0.76193 0.0
C1799 C 0.92358 0.44453 0.88146 0.0
H1800 H 0.92667 0.50587 0.789 0.0
H1801 H 0.86 0.46533 0.83501 0.0
H1802 H 0.94899 0.47001 0.81177 0.0
H1803 H 0.93668 0.46196 0.76895 0.0
H1804 H 0.9521 0.49184 0.78116 0.0
H1805 H 0.84714 0.42867 0.85791 0.0
H1806 H 0.85501 0.41266 0.82876 0.0
H1807 H 0.86901 0.42201 0.87033 0.0
H1808 H 0.88792 0.37962 0.78037 0.0
H1809 H 0.92167 0.40354 0.87984 0.0
H1810 H 0.89687 0.43391 0.75017 0.0
H1811 H 0.86888 0.41637 0.76825 0.0
H1812 H 0.88165 0.40342 0.74207 0.0
H1813 H 0.93553 0.46184 0.87096 0.0
H1814 H 0.93264 0.44022 0.90183 0.0
H1815 H 0.90918 0.44536 0.89416 0.0
C1816 C 0.58476 0.50732 0.81123 0.0
C1817 C 0.60415 0.50675 0.8231 0.0
C1818 C 0.56412 0.48689 0.80463 0.0
C1819 C 0.56273 0.46554 0.8114 0.0
C1820 C 0.58213 0.465 0.82448 0.0
C1821 C 0.60274 0.48561 0.82952 0.0
C1822 C 0.54405 0.48814 0.78953 0.0
C1823 C 0.58118 0.44264 0.83309 0.0
C1824 C 0.50486 0.41154 0.82324 0.0
C1825 C 0.50317 0.39976 0.79206 0.0
C1826 C 0.52398 0.43325 0.82971 0.0
C1827 C 0.54131 0.44364 0.8038 0.0
C1828 C 0.53897 0.43225 0.77149 0.0
C1829 C 0.52015 0.41024 0.7663 0.0
C1830 C 0.5262 0.4445 0.86492 0.0
C1831 C 0.55667 0.44306 0.74274 0.0
H1832 H 0.58597 0.52372 0.80612 0.0
H1833 H 0.6177 0.48521 0.83907 0.0
H1834 H 0.53929 0.47935 0.76368 0.0
H1835 H 0.5289 0.47909 0.80692 0.0
H1836 H 0.54788 0.50608 0.78598 0.0
H1837 H 0.59723 0.44529 0.84556 0.0
H1838 H 0.56664 0.43231 0.8511 0.0
H1839 H 0.57821 0.43246 0.80877 0.0
H1840 H 0.49177 0.40331 0.84324 0.0
H1841 H 0.51869 0.40116 0.74204 0.0
H1842 H 0.52928 0.46216 0.86139 0.0
H1843 H 0.5412 0.44586 0.87917 0.0
H1844 H 0.5107 0.43473 0.88149 0.0
H1845 H 0.56042 0.46083 0.73762 0.0
H1846 H 0.55099 0.43317 0.71783 0.0
H1847 H 0.57291 0.44406 0.75114 0.0
C1848 C 0.57289 0.74784 0.62414 0.0
C1849 C 0.55091 0.72947 0.63121 0.0
C1850 C 0.57817 0.77059 0.63 0.0
C1851 C 0.56125 0.77489 0.64426 0.0
C1852 C 0.53926 0.7563 0.6524 0.0
C1853 C 0.53426 0.73386 0.64527 0.0
C1854 C 0.60159 0.79 0.62011 0.0
C1855 C 0.52091 0.76009 0.6685 0.0
C1856 C 0.57651 0.83107 0.68924 0.0
C1857 C 0.56857 0.84098 0.66467 0.0
C1858 C 0.57506 0.80988 0.68246 0.0
C1859 C 0.56606 0.79875 0.64995 0.0
C1860 C 0.55943 0.80949 0.62419 0.0
C1861 C 0.56041 0.83031 0.6321 0.0
C1862 C 0.58177 0.79876 0.71094 0.0
C1863 C 0.55036 0.7985 0.58884 0.0
H1864 H 0.58573 0.74445 0.61306 0.0
H1865 H 0.51732 0.71965 0.6511 0.0
H1866 H 0.59986 0.80079 0.59968 0.0
H1867 H 0.60994 0.80115 0.64319 0.0
H1868 H 0.61295 0.78376 0.60991 0.0
H1869 H 0.50523 0.74373 0.67533 0.0
H1870 H 0.52752 0.77063 0.69265 0.0
H1871 H 0.51609 0.76964 0.64987 0.0
H1872 H 0.58269 0.83925 0.71455 0.0
H1873 H 0.55444 0.83808 0.61299 0.0
H1874 H 0.59344 0.79304 0.70038 0.0
H1875 H 0.56622 0.78329 0.72078 0.0
H1876 H 0.59032 0.81048 0.73344 0.0
H1877 H 0.56174 0.79277 0.5771 0.0
H1878 H 0.54884 0.81038 0.57022 0.0
H1879 H 0.53318 0.78312 0.5921 0.0
C1880 C 0.17111 0.7278 0.66872 0.0
C1881 C 0.14972 0.72635 0.6654 0.0
C1882 C 0.19139 0.74826 0.66126 0.0
C1883 C 0.1902 0.76747 0.6489 0.0
C1884 C 0.16858 0.76599 0.64504 0.0
C1885 C 0.14856 0.74552 0.654 0.0
C1886 C 0.21411 0.7493 0.66673 0.0
C1887 C 0.16659 0.78584 0.63079 0.0
C1888 C 0.24511 0.82495 0.65649 0.0
C1889 C 0.25557 0.826 0.62422 0.0
C1890 C 0.22341 0.8063 0.66461 0.0
C1891 C 0.21169 0.7888 0.63931 0.0
C1892 C 0.22162 0.79067 0.60581 0.0
C1893 C 0.24366 0.80903 0.59893 0.0
C1894 C 0.21374 0.80459 0.70096 0.0
C1895 C 0.20937 0.77281 0.5777 0.0
H1896 H 0.17202 0.71304 0.67792 0.0
H1897 H 0.13196 0.74431 0.65131 0.0
H1898 H 0.22307 0.75206 0.64121 0.0
H1899 H 0.22529 0.764 0.68396 0.0
H1900 H 0.2121 0.73336 0.67875 0.0
H1901 H 0.1485 0.78189 0.62923 0.0
H1902 H 0.17631 0.80118 0.6476 0.0
H1903 H 0.17424 0.79036 0.60413 0.0
H1904 H 0.25447 0.83802 0.67613 0.0
H1905 H 0.25173 0.80999 0.57386 0.0
H1906 H 0.21321 0.78991 0.71507 0.0
H1907 H 0.19589 0.80127 0.69946 0.0
H1908 H 0.22412 0.8204 0.71664 0.0
H1909 H 0.20883 0.75664 0.5852 0.0
H1910 H 0.21797 0.77837 0.55176 0.0
H1911 H 0.19139 0.76899 0.57502 0.0
C1912 C 0.24447 0.41016 0.6928 0.0
C1913 C 0.26365 0.42046 0.67067 0.0
C1914 C 0.22482 0.41165 0.68543 0.0
C1915 C 0.22417 0.42316 0.65471 0.0
C1916 C 0.24301 0.4324 0.63125 0.0
C1917 C 0.26269 0.43125 0.6398 0.0
C1918 C 0.20535 0.40208 0.71156 0.0
C1919 C 0.24276 0.44429 0.59776 0.0
C1920 C 0.16719 0.41663 0.62486 0.0
C1921 C 0.16949 0.43753 0.63591 0.0
C1922 C 0.18487 0.41163 0.63068 0.0
C1923 C 0.2049 0.42763 0.64888 0.0
C1924 C 0.20689 0.44842 0.66106 0.0
C1925 C 0.18932 0.45324 0.65396 0.0
C1926 C 0.18241 0.38957 0.61654 0.0
C1927 C 0.22766 0.46568 0.68141 0.0
H1928 H 0.24522 0.4019 0.71681 0.0
H1929 H 0.27744 0.43904 0.6225 0.0
H1930 H 0.20411 0.41638 0.72382 0.0
H1931 H 0.18881 0.3909 0.69817 0.0
H1932 H 0.20771 0.39207 0.73269 0.0
H1933 H 0.25745 0.44797 0.58036 0.0
H1934 H 0.22658 0.43361 0.58312 0.0
H1935 H 0.24354 0.46073 0.60418 0.0
H1936 H 0.15192 0.40454 0.61068 0.0
H1937 H 0.19103 0.46932 0.66284 0.0
H1938 H 0.18434 0.37957 0.63806 0.0
H1939 H 0.19622 0.39349 0.59721 0.0
H1940 H 0.16558 0.37874 0.60356 0.0
H1941 H 0.23056 0.4573 0.70438 0.0
H1942 H 0.22588 0.48031 0.69091 0.0
H1943 H 0.24313 0.4725 0.66457 0.0
C1944 C 0.40818 0.88845 0.21018 0.0
C1945 C 0.39708 0.89416 0.18436 0.0
C1946 C 0.4301 0.89157 0.2043 0.0
C1947 C 0.44074 0.8997 0.17124 0.0
C1948 C 0.42975 0.90592 0.14528 0.0
C1949 C 0.40816 0.90345 0.15242 0.0
C1950 C 0.44155 0.88547 0.2331 0.0
C1951 C 0.4402 0.91395 0.10934 0.0
C1952 C 0.50414 0.91918 0.16154 0.0
C1953 C 0.50318 0.8988 0.15096 0.0
C1954 C 0.48395 0.91982 0.16831 0.0
C1955 C 0.4624 0.89981 0.16303 0.0
C1956 C 0.46144 0.87941 0.15117 0.0
C1957 C 0.48185 0.87905 0.14594 0.0
C1958 C 0.48566 0.94164 0.18208 0.0
C1959 C 0.43884 0.8579 0.14419 0.0
H1960 H 0.39961 0.88143 0.235 0.0
H1961 H 0.39942 0.90767 0.1324 0.0
H1962 H 0.44224 0.86992 0.22556 0.0
H1963 H 0.45946 0.89954 0.2369 0.0
H1964 H 0.43228 0.88208 0.2585 0.0
H1965 H 0.43018 0.91943 0.09288 0.0
H1966 H 0.45801 0.92844 0.11162 0.0
H1967 H 0.44102 0.89982 0.09564 0.0
H1968 H 0.5207 0.93441 0.16556 0.0
H1969 H 0.48113 0.86335 0.13735 0.0
H1970 H 0.47757 0.93847 0.20843 0.0
H1971 H 0.47619 0.94724 0.16466 0.0
H1972 H 0.5037 0.95579 0.18422 0.0
H1973 H 0.42919 0.85139 0.16911 0.0
H1974 H 0.44112 0.84411 0.13231 0.0
H1975 H 0.42818 0.86173 0.12628 0.0
C1976 C 0.09039 0.6003 0.18679 0.0
C1977 C 0.08115 0.60375 0.15598 0.0
C1978 C 0.09134 0.58015 0.19181 0.0
C1979 C 0.08338 0.56335 0.16496 0.0
C1980 C 0.07327 0.56639 0.13433 0.0
C1981 C 0.07204 0.58647 0.13038 0.0
C1982 C 0.10175 0.5773 0.22521 0.0
C1983 C 0.06499 0.54909 0.10483 0.0
C1984 C 0.11371 0.52881 0.16067 0.0
C1985 C 0.09742 0.50786 0.17545 0.0
C1986 C 0.10902 0.5467 0.15615 0.0
C1987 C 0.08771 0.54379 0.16751 0.0
C1988 C 0.07106 0.5226 0.18216 0.0
C1989 C 0.07602 0.50473 0.18556 0.0
C1990 C 0.12702 0.56885 0.13965 0.0
C1991 C 0.04836 0.51905 0.19522 0.0
H1992 H 0.09726 0.61356 0.20675 0.0
H1993 H 0.06496 0.58912 0.10644 0.0
H1994 H 0.09049 0.56011 0.23678 0.0
H1995 H 0.11845 0.57854 0.21924 0.0
H1996 H 0.10463 0.59055 0.2451 0.0
H1997 H 0.05579 0.55299 0.08418 0.0
H1998 H 0.07986 0.54894 0.09257 0.0
H1999 H 0.05341 0.53159 0.11507 0.0
H2000 H 0.1302 0.5312 0.15255 0.0
H2001 H 0.06346 0.4886 0.19723 0.0
H2002 H 0.13303 0.58299 0.15906 0.0
H2003 H 0.11961 0.57341 0.11714 0.0
H2004 H 0.14208 0.56781 0.13022 0.0
H2005 H 0.0513 0.53116 0.21702 0.0
H2006 H 0.03695 0.50129 0.20477 0.0
H2007 H 0.03941 0.52279 0.17401 0.0
C2008 C 0.46589 0.58675 0.16021 0.0
C2009 C 0.48652 0.59072 0.17533 0.0
C2010 C 0.44764 0.56442 0.15516 0.0
C2011 C 0.44985 0.54558 0.16639 0.0
C2012 C 0.4708 0.54944 0.18113 0.0
C2013 C 0.48906 0.57203 0.18502 0.0
C2014 C 0.4258 0.56105 0.13854 0.0
C2015 C 0.47361 0.5298 0.19407 0.0
C2016 C 0.39228 0.49352 0.18671 0.0
C2017 C 0.38806 0.48047 0.1561 0.0
C2018 C 0.41302 0.51407 0.19135 0.0
C2019 C 0.42967 0.52204 0.16428 0.0
C2020 C 0.42583 0.5085 0.13383 0.0
C2021 C 0.40513 0.48769 0.13029 0.0
C2022 C 0.41669 0.52773 0.22459 0.0
C2023 C 0.44293 0.51664 0.10408 0.0
H2024 H 0.46398 0.60119 0.15235 0.0
H2025 H 0.50497 0.57509 0.19691 0.0
H2026 H 0.42074 0.5488 0.11631 0.0
H2027 H 0.41168 0.5536 0.15805 0.0
H2028 H 0.42753 0.57737 0.12869 0.0
H2029 H 0.49139 0.53555 0.20292 0.0
H2030 H 0.46176 0.52122 0.21638 0.0
H2031 H 0.469 0.5168 0.17308 0.0
H2032 H 0.37916 0.48783 0.20683 0.0
H2033 H 0.40185 0.47766 0.10651 0.0
H2034 H 0.41618 0.54357 0.21846 0.0
H2035 H 0.43381 0.53302 0.23591 0.0
H2036 H 0.40341 0.5179 0.24472 0.0
H2037 H 0.44357 0.53179 0.09141 0.0
H2038 H 0.43843 0.50318 0.08381 0.0
H2039 H 0.46037 0.5221 0.11413 0.0
C2040 C 0.11796 0.59188 0.67478 0.0
C2041 C 0.10131 0.59607 0.68941 0.0
C2042 C 0.1131 0.56953 0.66738 0.0
C2043 C 0.09124 0.5508 0.67574 0.0
C2044 C 0.07432 0.55489 0.69061 0.0
C2045 C 0.07946 0.57757 0.6968 0.0
C2046 C 0.13145 0.56598 0.65067 0.0
C2047 C 0.05105 0.53532 0.7007 0.0
C2048 C 0.07656 0.49535 0.62903 0.0
C2049 C 0.08493 0.48545 0.65291 0.0
C2050 C 0.07756 0.51623 0.6367 0.0
C2051 C 0.08657 0.52705 0.6694 0.0
C2052 C 0.09357 0.51627 0.69451 0.0
C2053 C 0.093 0.49576 0.68573 0.0
C2054 C 0.07044 0.52742 0.60891 0.0
C2055 C 0.10268 0.52693 0.73002 0.0
H2056 H 0.13479 0.60619 0.66868 0.0
H2057 H 0.06662 0.5808 0.70829 0.0
H2058 H 0.13641 0.55633 0.66884 0.0
H2059 H 0.12477 0.55563 0.62635 0.0
H2060 H 0.14706 0.58243 0.64394 0.0
H2061 H 0.03969 0.54139 0.71152 0.0
H2062 H 0.04255 0.52431 0.67755 0.0
H2063 H 0.05302 0.52443 0.72068 0.0
H2064 H 0.0704 0.48744 0.60355 0.0
H2065 H 0.09927 0.48797 0.70434 0.0
H2066 H 0.08582 0.54302 0.59901 0.0
H2067 H 0.05875 0.5329 0.62013 0.0
H2068 H 0.06177 0.51581 0.58633 0.0
H2069 H 0.1198 0.54243 0.72687 0.0
H2070 H 0.10436 0.51494 0.74817 0.0
H2071 H 0.09125 0.53243 0.74224 0.0
C2072 C 0.40727 0.49827 0.66374 0.0
C2073 C 0.39701 0.49853 0.69559 0.0
C2074 C 0.4289 0.5166 0.65439 0.0
C2075 C 0.44073 0.53513 0.67803 0.0
C2076 C 0.43102 0.53459 0.71126 0.0
C2077 C 0.40906 0.51651 0.71935 0.0
C2078 C 0.43835 0.51684 0.61833 0.0
C2079 C 0.44337 0.55362 0.73769 0.0
C2080 C 0.5036 0.57886 0.66224 0.0
C2081 C 0.50198 0.59748 0.64936 0.0
C2082 C 0.48379 0.55831 0.67166 0.0
C2083 C 0.46196 0.5562 0.66678 0.0
C2084 C 0.46033 0.57475 0.65247 0.0
C2085 C 0.48038 0.5953 0.64457 0.0
C2086 C 0.48625 0.53921 0.68793 0.0
C2087 C 0.43739 0.57299 0.64584 0.0
H2088 H 0.39781 0.48443 0.64528 0.0
H2089 H 0.40113 0.51657 0.74411 0.0
H2090 H 0.43827 0.53057 0.60232 0.0
H2091 H 0.45638 0.52075 0.62011 0.0
H2092 H 0.42815 0.50025 0.6044 0.0
H2093 H 0.435 0.54908 0.76389 0.0
H2094 H 0.46143 0.55775 0.74059 0.0
H2095 H 0.44364 0.56935 0.72833 0.0
H2096 H 0.52037 0.58066 0.6661 0.0
H2097 H 0.47916 0.60966 0.63423 0.0
H2098 H 0.47606 0.52307 0.673 0.0
H2099 H 0.47939 0.53604 0.71512 0.0
H2100 H 0.50437 0.54325 0.68882 0.0
H2101 H 0.42629 0.55745 0.63008 0.0
H2102 H 0.43908 0.58821 0.63177 0.0
H2103 H 0.42854 0.5713 0.67117 0.0
C2104 C 0.3901 0.89325 0.68182 0.0
C2105 C 0.38885 0.9043 0.65145 0.0
C2106 C 0.40998 0.89235 0.68976 0.0
C2107 C 0.42873 0.90207 0.66613 0.0
C2108 C 0.42775 0.91377 0.63585 0.0
C2109 C 0.40791 0.91504 0.62914 0.0
C2110 C 0.41059 0.88027 0.72282 0.0
C2111 C 0.4471 0.92382 0.60952 0.0
C2112 C 0.48628 0.90953 0.69467 0.0
C2113 C 0.48431 0.88886 0.68311 0.0
C2114 C 0.46829 0.91414 0.68948 0.0
C2115 C 0.4483 0.898 0.67132 0.0
C2116 C 0.44666 0.87748 0.65859 0.0
C2117 C 0.46452 0.87301 0.66514 0.0
C2118 C 0.47037 0.93589 0.70425 0.0
C2119 C 0.42595 0.86013 0.63822 0.0
H2120 H 0.37542 0.88513 0.69924 0.0
H2121 H 0.40692 0.92349 0.60552 0.0
H2122 H 0.41012 0.86405 0.71585 0.0
H2123 H 0.42676 0.89104 0.73741 0.0
H2124 H 0.39589 0.87617 0.74046 0.0
H2125 H 0.44439 0.93379 0.58871 0.0
H2126 H 0.46363 0.93516 0.62281 0.0
H2127 H 0.44861 0.90978 0.59686 0.0
H2128 H 0.50154 0.92171 0.70879 0.0
H2129 H 0.46309 0.85712 0.65589 0.0
H2130 H 0.45657 0.93157 0.72379 0.0
H2131 H 0.46813 0.94592 0.6831 0.0
H2132 H 0.48719 0.94686 0.71716 0.0
H2133 H 0.41053 0.85288 0.65526 0.0
H2134 H 0.42804 0.84579 0.62817 0.0
H2135 H 0.42271 0.86854 0.61563 0.0
C2136 C 0.15024 0.41016 0.19375 0.0
C2137 C 0.14291 0.41968 0.16755 0.0
C2138 C 0.17122 0.41056 0.19063 0.0
C2139 C 0.18483 0.42022 0.16023 0.0
C2140 C 0.17673 0.42849 0.13276 0.0
C2141 C 0.156 0.4284 0.13697 0.0
C2142 C 0.17946 0.40198 0.22077 0.0
C2143 C 0.19045 0.43842 0.09957 0.0
C2144 C 0.24958 0.44979 0.16479 0.0
C2145 C 0.254 0.43334 0.14998 0.0
C2146 C 0.22709 0.44527 0.16965 0.0
C2147 C 0.20853 0.42399 0.15857 0.0
C2148 C 0.21284 0.40709 0.14424 0.0
C2149 C 0.23558 0.41188 0.14051 0.0
C2150 C 0.22323 0.46356 0.18584 0.0
C2151 C 0.19351 0.38439 0.13151 0.0
H2152 H 0.14019 0.40351 0.21752 0.0
H2153 H 0.15023 0.43558 0.11656 0.0
H2154 H 0.18537 0.39027 0.21113 0.0
H2155 H 0.19432 0.41671 0.23358 0.0
H2156 H 0.1659 0.39285 0.24084 0.0
H2157 H 0.18054 0.44151 0.07911 0.0
H2158 H 0.2061 0.45496 0.10562 0.0
H2159 H 0.19608 0.42674 0.08869 0.0
H2160 H 0.2638 0.46632 0.17247 0.0
H2161 H 0.23898 0.39918 0.12885 0.0
H2162 H 0.21091 0.4563 0.20797 0.0
H2163 H 0.21565 0.46992 0.16604 0.0
H2164 H 0.23937 0.47836 0.19571 0.0
H2165 H 0.18043 0.376 0.15239 0.0
H2166 H 0.1996 0.37252 0.12324 0.0
H2167 H 0.18492 0.38728 0.10882 0.0
C2168 C 0.53803 0.79563 0.15099 0.0
C2169 C 0.55452 0.81713 0.13814 0.0
C2170 C 0.5435 0.77846 0.15755 0.0
C2171 C 0.56588 0.78265 0.15014 0.0
C2172 C 0.58271 0.80442 0.13747 0.0
C2173 C 0.57691 0.82156 0.13206 0.0
C2174 C 0.52518 0.75567 0.17188 0.0
C2175 C 0.60658 0.80934 0.1285 0.0
C2176 C 0.58065 0.74029 0.19129 0.0
C2177 C 0.57335 0.72354 0.16499 0.0
C2178 C 0.57928 0.76025 0.18636 0.0
C2179 C 0.571 0.76369 0.15403 0.0
C2180 C 0.56517 0.74752 0.12658 0.0
C2181 C 0.56607 0.72745 0.1326 0.0
C2182 C 0.58519 0.77683 0.21652 0.0
C2183 C 0.55686 0.75083 0.09141 0.0
H2184 H 0.52078 0.79226 0.15611 0.0
H2185 H 0.58966 0.83815 0.12196 0.0
H2186 H 0.5209 0.74203 0.15208 0.0
H2187 H 0.53156 0.75106 0.19563 0.0
H2188 H 0.50923 0.7558 0.17882 0.0
H2189 H 0.618 0.82747 0.12065 0.0
H2190 H 0.61433 0.80542 0.15124 0.0
H2191 H 0.60572 0.79808 0.10655 0.0
H2192 H 0.58614 0.73718 0.21646 0.0
H2193 H 0.56061 0.71455 0.11217 0.0
H2194 H 0.56927 0.77582 0.2267 0.0
H2195 H 0.5966 0.79469 0.2076 0.0
H2196 H 0.59369 0.77304 0.23843 0.0
H2197 H 0.5395 0.74867 0.09436 0.0
H2198 H 0.55597 0.73835 0.07151 0.0
H2199 H 0.56833 0.76844 0.08145 0.0
C2200 C 0.18454 0.74197 0.16861 0.0
C2201 C 0.16484 0.73752 0.14987 0.0
C2202 C 0.20266 0.76442 0.1732 0.0
C2203 C 0.20133 0.78286 0.15784 0.0
C2204 C 0.18119 0.77854 0.13967 0.0
C2205 C 0.16299 0.75586 0.13627 0.0
C2206 C 0.22357 0.76829 0.19354 0.0
C2207 C 0.17932 0.79771 0.12237 0.0
C2208 C 0.24561 0.84199 0.19051 0.0
C2209 C 0.26363 0.84767 0.16686 0.0
C2210 C 0.22475 0.8213 0.18715 0.0
C2211 C 0.22174 0.8063 0.15901 0.0
C2212 C 0.2394 0.8127 0.13385 0.0
C2213 C 0.26026 0.83317 0.13836 0.0
C2214 C 0.20653 0.8149 0.21489 0.0
C2215 C 0.23668 0.79744 0.10299 0.0
H2216 H 0.18589 0.7278 0.17944 0.0
H2217 H 0.14781 0.7524 0.12156 0.0
H2218 H 0.23846 0.77455 0.17555 0.0
H2219 H 0.22797 0.78164 0.21391 0.0
H2220 H 0.22101 0.75241 0.20652 0.0
H2221 H 0.16186 0.79181 0.11183 0.0
H2222 H 0.18372 0.81184 0.14127 0.0
H2223 H 0.19177 0.80487 0.10041 0.0
H2224 H 0.2482 0.85314 0.21267 0.0
H2225 H 0.2741 0.83766 0.11984 0.0
H2226 H 0.20507 0.80037 0.23067 0.0
H2227 H 0.18958 0.80912 0.20259 0.0
H2228 H 0.21048 0.82939 0.23292 0.0
H2229 H 0.23648 0.78176 0.11244 0.0
H2230 H 0.25081 0.80612 0.08363 0.0
H2231 H 0.22014 0.79193 0.08948 0.0
C2232 C 0.24779 0.25182 0.1673 0.0
C2233 C 0.22644 0.2466 0.15362 0.0
C2234 C 0.25102 0.25197 0.2038 0.0
C2235 C 0.23262 0.24739 0.22667 0.0
C2236 C 0.21175 0.24426 0.21273 0.0
C2237 C 0.20879 0.2435 0.17628 0.0
C2238 C 0.27341 0.25526 0.21785 0.0
C2239 C 0.19189 0.23984 0.23622 0.0
C2240 C 0.22171 0.21301 0.3098 0.0
C2241 C 0.2278 0.22978 0.33572 0.0
C2242 C 0.22479 0.21887 0.27419 0.0
C2243 C 0.23355 0.24204 0.26426 0.0
C2244 C 0.24068 0.25924 0.29042 0.0
C2245 C 0.23797 0.2529 0.32605 0.0
C2246 C 0.21744 0.20003 0.24718 0.0
C2247 C 0.24941 0.28401 0.28104 0.0
H2248 H 0.26134 0.25406 0.14951 0.0
H2249 H 0.1923 0.23949 0.16543 0.0
H2250 H 0.28077 0.2696 0.23699 0.0
H2251 H 0.27042 0.23961 0.23207 0.0
H2252 H 0.2861 0.25886 0.19665 0.0
H2253 H 0.17821 0.241 0.22167 0.0
H2254 H 0.18437 0.22242 0.24773 0.0
H2255 H 0.19781 0.25229 0.25825 0.0
H2256 H 0.21404 0.19515 0.31744 0.0
H2257 H 0.24251 0.26584 0.34622 0.0
H2258 H 0.23112 0.20471 0.2273 0.0
H2259 H 0.20197 0.1977 0.2332 0.0
H2260 H 0.21338 0.18339 0.25923 0.0
H2261 H 0.25948 0.28885 0.25633 0.0
H2262 H 0.26014 0.29567 0.30243 0.0
H2263 H 0.23457 0.28664 0.27701 0.0
C2264 C 0.77737 0.00851 0.16026 0.0
C2265 C 0.75976 0.99512 0.13654 0.0
C2266 C 0.77317 0.00758 0.19638 0.0
C2267 C 0.75078 0.99284 0.20922 0.0
C2268 C 0.73259 0.98036 0.18533 0.0
C2269 C 0.73729 0.98168 0.14913 0.0
C2270 C 0.79305 0.02132 0.22092 0.0
C2271 C 0.70848 0.96463 0.19814 0.0
C2272 C 0.75358 0.97059 0.29883 0.0
C2273 C 0.75091 0.98571 0.32099 0.0
C2274 C 0.7518 0.97163 0.26235 0.0
C2275 C 0.74745 0.98837 0.24758 0.0
C2276 C 0.74322 0.0027 0.26985 0.0
C2277 C 0.74488 0.00111 0.30645 0.0
C2278 C 0.75621 0.95586 0.23957 0.0
C2279 C 0.73863 0.0208 0.25505 0.0
H2280 H 0.79471 0.01926 0.15073 0.0
H2281 H 0.72354 0.97144 0.13093 0.0
H2282 H 0.78867 0.03097 0.24003 0.0
H2283 H 0.79683 0.00953 0.23612 0.0
H2284 H 0.80884 0.03366 0.20662 0.0
H2285 H 0.69583 0.95846 0.17633 0.0
H2286 H 0.70763 0.94952 0.21127 0.0
H2287 H 0.70348 0.97347 0.21784 0.0
H2288 H 0.75783 0.95836 0.30996 0.0
H2289 H 0.74267 0.01276 0.32349 0.0
H2290 H 0.77287 0.96596 0.22583 0.0
H2291 H 0.74273 0.94767 0.21919 0.0
H2292 H 0.7568 0.94219 0.25509 0.0
H2293 H 0.75484 0.03526 0.2448 0.0
H2294 H 0.7317 0.02763 0.27523 0.0
H2295 H 0.72641 0.01387 0.2328 0.0
C2296 C 0.98564 0.73911 0.3232 0.0
C2297 C -0.00159 0.7611 0.3378 0.0
C2298 C 0.98583 0.7357 0.2868 0.0
C2299 C -0.00092 0.75472 0.26467 0.0
C2300 C 0.01315 0.77664 0.27958 0.0
C2301 C 0.01257 0.77958 0.3159 0.0
C2302 C 0.97087 0.71201 0.27201 0.0
C2303 C 0.02793 0.79728 0.25697 0.0
C2304 C 0.01124 0.75213 0.16782 0.0
C2305 C -0.00368 0.75852 0.15258 0.0
C2306 C 0.01137 0.74919 0.20438 0.0
C2307 C -0.00382 0.75266 0.22588 0.0
C2308 C 0.97983 0.75719 0.21017 0.0
C2309 C 0.98016 0.76014 0.17377 0.0
C2310 C 0.02889 0.74399 0.21982 0.0
C2311 C 0.96298 0.76053 0.23199 0.0
H2312 H 0.9748 0.72468 0.33996 0.0
H2313 H 0.02286 0.79656 0.32702 0.0
H2314 H 0.9543 0.71021 0.26347 0.0
H2315 H 0.97899 0.70904 0.24878 0.0
H2316 H 0.96723 0.69855 0.29193 0.0
H2317 H 0.03927 0.81271 0.27283 0.0
H2318 H 0.03874 0.79356 0.23923 0.0
H2319 H 0.01687 0.80126 0.24025 0.0
H2320 H 0.02368 0.75071 0.15153 0.0
H2321 H 0.96824 0.7646 0.16201 0.0
H2322 H 0.02346 0.73545 0.24574 0.0
H2323 H 0.04529 0.76029 0.22337 0.0
H2324 H 0.03216 0.73293 0.20187 0.0
H2325 H 0.95395 0.74613 0.25073 0.0
H2326 H 0.95001 0.76176 0.21556 0.0
H2327 H 0.97234 0.77652 0.24761 0.0
C2328 C 0.77815 0.75013 0.81254 0.0
C2329 C 0.76203 0.75031 0.83542 0.0
C2330 C 0.77431 0.74806 0.77626 0.0
C2331 C 0.75416 0.74684 0.7627 0.0
C2332 C 0.73697 0.74514 0.78601 0.0
C2333 C 0.74111 0.74683 0.82238 0.0
C2334 C 0.79277 0.74923 0.75237 0.0
C2335 C 0.71528 0.74386 0.77266 0.0
C2336 C 0.76689 0.77905 0.67692 0.0
C2337 C 0.75831 0.76122 0.65238 0.0
C2338 C 0.76414 0.77444 0.71298 0.0
C2339 C 0.75324 0.75141 0.72475 0.0
C2340 C 0.74392 0.73328 0.70003 0.0
C2341 C 0.74615 0.73842 0.66395 0.0
C2342 C 0.77393 0.79429 0.73848 0.0
C2343 C 0.73244 0.70857 0.71164 0.0
H2344 H 0.79433 0.75286 0.82292 0.0
H2345 H 0.72879 0.7472 0.8403 0.0
H2346 H 0.78514 0.73614 0.73131 0.0
H2347 H 0.80187 0.76631 0.73956 0.0
H2348 H 0.80555 0.74658 0.76695 0.0
H2349 H 0.70154 0.73674 0.79286 0.0
H2350 H 0.71889 0.76139 0.76589 0.0
H2351 H 0.70894 0.73322 0.74859 0.0
H2352 H 0.77606 0.79667 0.66786 0.0
H2353 H 0.73952 0.72464 0.64484 0.0
H2354 H 0.78883 0.79515 0.75237 0.0
H2355 H 0.76097 0.7918 0.75861 0.0
H2356 H 0.77969 0.81097 0.72514 0.0
H2357 H 0.7434 0.70594 0.73067 0.0
H2358 H 0.72867 0.69668 0.68918 0.0
H2359 H 0.71615 0.70402 0.7252 0.0
C2360 C 0.24566 0.00867 0.67136 0.0
C2361 C 0.22448 0.99131 0.65892 0.0
C2362 C 0.24964 0.0126 0.70761 0.0
C2363 C 0.23215 -0.00153 0.73162 0.0
C2364 C 0.21149 0.97971 0.71895 0.0
C2365 C 0.20773 0.97664 0.68267 0.0
C2366 C 0.27166 0.03309 0.71985 0.0
C2367 C 0.19268 0.96379 0.74364 0.0
C2368 C 0.2414 -0.00013 0.83028 0.0
C2369 C 0.22996 0.01131 0.84155 0.0
C2370 C 0.24314 -0.00373 0.7943 0.0
C2371 C 0.23381 0.00492 0.7693 0.0
C2372 C 0.22378 0.01795 0.78068 0.0
C2373 C 0.22161 0.02062 0.81671 0.0
C2374 C 0.25367 0.98209 0.78317 0.0
C2375 C 0.21428 0.02811 0.75486 0.0
H2376 H 0.25845 0.02018 0.65278 0.0
H2377 H 0.19136 0.96325 0.6728 0.0
H2378 H 0.2685 0.04747 0.72524 0.0
H2379 H 0.27791 0.02936 0.74453 0.0
H2380 H 0.28531 0.03881 0.69959 0.0
H2381 H 0.17932 0.94824 0.73 0.0
H2382 H 0.19985 0.9584 0.76547 0.0
H2383 H 0.18438 0.9729 0.75538 0.0
H2384 H 0.24772 0.99255 0.84961 0.0
H2385 H 0.21294 0.02963 0.82553 0.0
H2386 H 0.26687 0.9912 0.76268 0.0
H2387 H 0.24028 0.96574 0.77146 0.0
H2388 H 0.26163 0.97806 0.80558 0.0
H2389 H 0.22698 0.03752 0.73384 0.0
H2390 H 0.20963 0.04004 0.76772 0.0
H2391 H 0.19871 0.01418 0.74215 0.0
C2392 C 0.96398 0.21006 0.67021 0.0
C2393 C 0.98068 0.22575 0.64718 0.0
C2394 C 0.96499 0.2146 0.70624 0.0
C2395 C 0.98337 0.2352 0.71968 0.0
C2396 C -0.00085 0.252 0.69615 0.0
C2397 C -0.00247 0.24711 0.66 0.0
C2398 C 0.94749 0.19639 0.73023 0.0
C2399 C 0.01901 0.27429 0.70893 0.0
C2400 C 0.97932 0.24322 0.8178 0.0
C2401 C 0.99069 0.2322 0.83134 0.0
C2402 C 0.97793 0.2457 0.78132 0.0
C2403 C 0.98806 0.23689 0.75807 0.0
C2404 C 0.00081 0.22715 0.77174 0.0
C2405 C 0.00191 0.22488 0.8081 0.0
C2406 C 0.96506 0.25704 0.76758 0.0
C2407 C 0.01246 0.21814 0.74789 0.0
H2408 H 0.95066 0.19368 0.66025 0.0
H2409 H 0.01043 0.25937 0.64226 0.0
H2410 H 0.95567 0.18819 0.74509 0.0
H2411 H 0.94104 0.20412 0.74963 0.0
H2412 H 0.93268 0.18285 0.71545 0.0
H2413 H 0.02225 0.28845 0.69062 0.0
H2414 H 0.01616 0.27887 0.73568 0.0
H2415 H 0.03468 0.27278 0.70943 0.0
H2416 H 0.97089 0.24924 0.83557 0.0
H2417 H 0.01119 0.21681 0.81827 0.0
H2418 H 0.94894 0.24404 0.75482 0.0
H2419 H 0.97546 0.26991 0.74735 0.0
H2420 H 0.96075 0.26562 0.78872 0.0
H2421 H -0.00065 0.20327 0.73271 0.0
H2422 H 0.02307 0.2126 0.76269 0.0
H2423 H 0.0236 0.23153 0.72875 0.0
C2424 C 0.89926 0.57498 0.50491 0.0
C2425 C 0.88905 0.55271 0.49101 0.0
C2426 C 0.90302 0.57878 0.54124 0.0
C2427 C 0.8966 0.55989 0.564 0.0
C2428 C 0.88757 0.5376 0.54982 0.0
C2429 C 0.88374 0.53426 0.51359 0.0
C2430 C 0.91293 0.60281 0.55543 0.0
C2431 C 0.88105 0.51707 0.5731 0.0
C2432 C 0.91427 0.56544 0.65997 0.0
C2433 C 0.89371 0.56035 0.67669 0.0
C2434 C 0.91601 0.56655 0.62311 0.0
C2435 C 0.8968 0.56274 0.60276 0.0
C2436 C 0.87655 0.5591 0.61972 0.0
C2437 C 0.87519 0.55774 0.65641 0.0
C2438 C 0.93788 0.57032 0.60618 0.0
C2439 C 0.85587 0.55553 0.59905 0.0
H2440 H 0.90356 0.58934 0.48759 0.0
H2441 H 0.87625 0.51706 0.503 0.0
H2442 H 0.89954 0.60426 0.57029 0.0
H2443 H 0.92713 0.6067 0.57396 0.0
H2444 H 0.91947 0.61589 0.53421 0.0
H2445 H 0.87639 0.50131 0.55772 0.0
H2446 H 0.89544 0.52047 0.59093 0.0
H2447 H 0.86619 0.51383 0.58972 0.0
H2448 H 0.92867 0.56752 0.67555 0.0
H2449 H 0.85939 0.55422 0.66924 0.0
H2450 H 0.94172 0.58057 0.58176 0.0
H2451 H 0.93591 0.55345 0.59903 0.0
H2452 H 0.95271 0.57907 0.62433 0.0
H2453 H 0.86095 0.56925 0.57911 0.0
H2454 H 0.84242 0.55537 0.61615 0.0
H2455 H 0.84834 0.53894 0.58484 0.0
C2456 C 0.40778 0.3232 0.49669 0.0
C2457 C 0.43061 0.33579 0.48518 0.0
C2458 C 0.40243 0.32153 0.53269 0.0
C2459 C 0.42033 0.33271 0.5575 0.0
C2460 C 0.44313 0.34679 0.54573 0.0
C2461 C 0.44799 0.34807 0.5098 0.0
C2462 C 0.37785 0.30684 0.54424 0.0
C2463 C 0.46268 0.35949 0.57126 0.0
C2464 C 0.41481 0.34033 0.65501 0.0
C2465 C 0.42034 0.32439 0.66882 0.0
C2466 C 0.41272 0.34208 0.61853 0.0
C2467 C 0.41619 0.3275 0.59563 0.0
C2468 C 0.41957 0.30998 0.60978 0.0
C2469 C 0.42172 0.30872 0.64615 0.0
C2470 C 0.40871 0.36078 0.60472 0.0
C2471 C 0.42283 0.2937 0.58639 0.0
H2472 H 0.39421 0.31386 0.47777 0.0
H2473 H 0.46561 0.35825 0.50109 0.0
H2474 H 0.37527 0.29029 0.55451 0.0
H2475 H 0.3737 0.31527 0.56576 0.0
H2476 H 0.36566 0.30317 0.52223 0.0
H2477 H 0.47901 0.37137 0.55776 0.0
H2478 H 0.45856 0.36951 0.59004 0.0
H2479 H 0.4653 0.34701 0.58671 0.0
H2480 H 0.4135 0.35237 0.67242 0.0
H2481 H 0.42548 0.29601 0.65675 0.0
H2482 H 0.39973 0.35614 0.57904 0.0
H2483 H 0.42549 0.37663 0.60103 0.0
H2484 H 0.39854 0.36466 0.62363 0.0
H2485 H 0.40938 0.28649 0.56581 0.0
H2486 H 0.42233 0.27932 0.60141 0.0
H2487 H 0.43966 0.30316 0.57293 0.0
C2488 C 0.6495 0.0692 0.66136 0.0
C2489 C 0.6572 0.09189 0.67187 0.0
C2490 C 0.64938 0.06366 0.62571 0.0
C2491 C 0.65694 0.08121 0.60008 0.0
C2492 C 0.66543 0.1042 0.61073 0.0
C2493 C 0.66549 0.10924 0.64638 0.0
C2494 C 0.64027 0.03895 0.61571 0.0
C2495 C 0.67372 0.1235 0.58432 0.0
C2496 C 0.67308 0.08025 0.5053 0.0
C2497 C 0.65461 0.08026 0.48846 0.0
C2498 C 0.67322 0.07818 0.54204 0.0
C2499 C 0.65437 0.07588 0.56188 0.0
C2500 C 0.63459 0.07303 0.54437 0.0
C2501 C 0.63507 0.07556 0.50784 0.0
C2502 C 0.69444 0.08084 0.5597 0.0
C2503 C 0.6138 0.06965 0.56444 0.0
H2504 H 0.64316 0.05566 0.68085 0.0
H2505 H 0.67168 0.12685 0.65417 0.0
H2506 H 0.64801 0.03737 0.59095 0.0
H2507 H 0.64352 0.02951 0.6368 0.0
H2508 H 0.62146 0.03056 0.61188 0.0
H2509 H 0.68084 0.14056 0.59707 0.0
H2510 H 0.68715 0.12365 0.56729 0.0
H2511 H 0.65929 0.12085 0.5671 0.0
H2512 H 0.68818 0.08384 0.49024 0.0
H2513 H 0.62065 0.07522 0.49461 0.0
H2514 H 0.69005 0.07027 0.58386 0.0
H2515 H 0.7056 0.09904 0.5674 0.0
H2516 H 0.70435 0.07602 0.54177 0.0
H2517 H 0.60905 0.05634 0.58497 0.0
H2518 H 0.59881 0.06455 0.54695 0.0
H2519 H 0.61783 0.08589 0.5778 0.0
C2520 C 0.42961 0.11771 0.15806 0.0
C2521 C 0.42579 0.09931 0.17976 0.0
C2522 C 0.42643 0.11494 0.12169 0.0
C2523 C 0.41944 0.09325 0.10651 0.0
C2524 C 0.41416 0.07423 0.12841 0.0
C2525 C 0.41729 0.07746 0.16494 0.0
C2526 C 0.432 0.13564 0.09936 0.0
C2527 C 0.40659 0.05085 0.11308 0.0
C2528 C 0.4049 0.0894 0.00939 0.0
C2529 C 0.4264 0.09636 -0.00572 0.0
C2530 C 0.40192 0.08716 0.04603 0.0
C2531 C 0.42077 0.09156 0.06775 0.0
C2532 C 0.44207 0.09716 0.05233 0.0
C2533 C 0.44466 0.09967 0.01585 0.0
C2534 C 0.37908 0.08153 0.06154 0.0
C2535 C 0.46255 0.10175 0.07449 0.0
H2536 H 0.43576 0.13456 0.1694 0.0
H2537 H 0.41416 0.06313 0.18162 0.0
H2538 H 0.44789 0.1407 0.08416 0.0
H2539 H 0.41806 0.13154 0.08021 0.0
H2540 H 0.43464 0.15055 0.1154 0.0
H2541 H 0.40078 0.03738 0.13364 0.0
H2542 H 0.39247 0.04608 0.09401 0.0
H2543 H 0.42106 0.05123 0.09856 0.0
H2544 H 0.39072 0.08677 0.99278 0.0
H2545 H 0.4612 0.10468 0.00424 0.0
H2546 H 0.38051 0.09714 0.07382 0.0
H2547 H 0.374 0.06844 0.08247 0.0
H2548 H 0.36533 0.07523 0.04138 0.0
H2549 H 0.46841 0.11779 0.0897 0.0
H2550 H 0.47711 0.10359 0.05834 0.0
H2551 H 0.45782 0.08767 0.09363 0.0
C2552 C 0.87349 0.30192 0.14175 0.0
C2553 C 0.89082 0.31894 0.16251 0.0
C2554 C 0.8756 0.302 0.10518 0.0
C2555 C 0.89543 0.31974 0.0889 0.0
C2556 C 0.91372 0.33606 0.10987 0.0
C2557 C 0.91128 0.33536 0.14663 0.0
C2558 C 0.85578 0.28411 0.08389 0.0
C2559 C 0.93504 0.35534 0.09342 0.0
C2560 C 0.90013 0.31282 0.99064 0.0
C2561 C 0.88952 0.3246 0.97709 0.0
C2562 C 0.90303 0.31174 0.02704 0.0
C2563 C 0.89533 0.3229 0.05027 0.0
C2564 C 0.88544 0.33553 0.03662 0.0
C2565 C 0.88258 0.33615 0.00028 0.0
C2566 C 0.91348 0.29797 0.04069 0.0
C2567 C 0.87704 0.34772 0.0605 0.0
H2568 H 0.85777 0.289 0.15405 0.0
H2569 H 0.9247 0.34855 0.16264 0.0
H2570 H 0.84703 0.29221 0.07031 0.0
H2571 H 0.86196 0.27679 0.06341 0.0
H2572 H 0.84299 0.26991 0.10052 0.0
H2573 H 0.94911 0.36414 0.11283 0.0
H2574 H 0.9411 0.34888 0.07152 0.0
H2575 H 0.93102 0.36815 0.0823 0.0
H2576 H 0.90565 0.30393 0.9729 0.0
H2577 H 0.87463 0.34553 0.99008 0.0
H2578 H 0.90032 0.28275 0.05513 0.0
H2579 H 0.92743 0.30832 0.05953 0.0
H2580 H 0.92044 0.29203 0.01925 0.0
H2581 H 0.86245 0.33496 0.0765 0.0
H2582 H 0.87129 0.35815 0.04563 0.0
H2583 H 0.8908 0.35914 0.07893 0.0
C2584 C 0.65285 0.57483 0.13983 0.0
C2585 C 0.6675 0.56814 0.15533 0.0
C2586 C 0.65213 0.5768 0.10315 0.0
C2587 C 0.66657 0.57223 0.08172 0.0
C2588 C 0.68256 0.56716 0.09749 0.0
C2589 C 0.68272 0.56505 0.13405 0.0
C2590 C 0.63472 0.58208 0.0874 0.0
C2591 C 0.69848 0.56245 0.07565 0.0
C2592 C 0.64787 0.54371 0.99308 0.0
C2593 C 0.66172 0.56164 0.97014 0.0
C2594 C 0.64823 0.54737 0.0293 0.0
C2595 C 0.66303 0.56947 0.04309 0.0
C2596 C 0.67616 0.58797 0.01999 0.0
C2597 C 0.67524 0.58386 0.98361 0.0
C2598 C 0.63366 0.52723 0.05297 0.0
C2599 C 0.69212 0.61175 0.03382 0.0
H2600 H 0.6411 0.57735 0.15616 0.0
H2601 H 0.69438 0.56028 0.14592 0.0
H2602 H 0.64167 0.59308 0.06381 0.0
H2603 H 0.61945 0.56582 0.07908 0.0
H2604 H 0.62905 0.59065 0.10661 0.0
H2605 H 0.71161 0.56139 0.09194 0.0
H2606 H 0.6884 0.54595 0.06151 0.0
H2607 H 0.70734 0.57604 0.05562 0.0
H2608 H 0.63707 0.52658 0.98276 0.0
H2609 H 0.68591 0.5978 0.96596 0.0
H2610 H 0.62374 0.53162 0.07152 0.0
H2611 H 0.64487 0.52299 0.06882 0.0
H2612 H 0.6215 0.51173 0.03792 0.0
H2613 H 0.68334 0.61663 0.05382 0.0
H2614 H 0.69867 0.6248 0.01257 0.0
H2615 H 0.70697 0.61202 0.0469 0.0
C2616 C 0.53637 0.88765 0.98135 0.0
C2617 C 0.55463 0.8916 0.00343 0.0
C2618 C 0.53927 0.8903 0.94494 0.0
C2619 C 0.5609 0.89667 0.93008 0.0
C2620 C 0.57977 0.90189 0.9523 0.0
C2621 C 0.57645 0.89945 0.98888 0.0
C2622 C 0.5188 0.88505 0.92225 0.0
C2623 C 0.60308 0.9087 0.93737 0.0
C2624 C 0.55372 0.8708 0.83972 0.0
C2625 C 0.5577 0.8892 0.81794 0.0
C2626 C 0.55633 0.87351 0.8762 0.0
C2627 C 0.56269 0.89508 0.89139 0.0
C2628 C 0.56782 0.91403 0.86947 0.0
C2629 C 0.56542 0.9109 0.83289 0.0
C2630 C 0.55112 0.85295 0.89861 0.0
C2631 C 0.57449 0.93724 0.88471 0.0
H2632 H 0.51957 0.88201 0.99252 0.0
H2633 H 0.59064 0.90262 0.00589 0.0
H2634 H 0.52332 0.89898 0.90289 0.0
H2635 H 0.51346 0.86901 0.9073 0.0
H2636 H 0.50395 0.88286 0.938 0.0
H2637 H 0.61648 0.91466 0.95806 0.0
H2638 H 0.60236 0.89377 0.92379 0.0
H2639 H 0.60821 0.9225 0.91757 0.0
H2640 H 0.54817 0.85408 0.8283 0.0
H2641 H 0.56866 0.92524 0.81615 0.0
H2642 H 0.53503 0.84746 0.91349 0.0
H2643 H 0.56501 0.85743 0.91804 0.0
H2644 H 0.54904 0.83821 0.88266 0.0
H2645 H 0.55944 0.93642 0.89802 0.0
H2646 H 0.58062 0.95078 0.86424 0.0
H2647 H 0.5881 0.94224 0.90478 0.0
C2648 C 0.09168 0.68077 -0.00648 0.0
C2649 C 0.0997 0.66735 0.0096 0.0
C2650 C 0.09056 0.68177 0.95673 0.0
C2651 C 0.09725 0.66875 0.93574 0.0
C2652 C 0.10439 0.65444 0.95192 0.0
C2653 C 0.1057 0.65406 0.9886 0.0
C2654 C 0.08307 0.69737 0.94035 0.0
C2655 C 0.11132 0.64 0.93046 0.0
C2656 C 0.08256 0.65704 0.83885 0.0
C2657 C 0.10386 0.6718 0.82338 0.0
C2658 C 0.07979 0.65644 0.87549 0.0
C2659 C 0.09863 0.67128 0.8969 0.0
C2660 C 0.11974 0.68715 0.88117 0.0
C2661 C 0.12216 0.68704 0.84464 0.0
C2662 C 0.05715 0.63901 0.89133 0.0
C2663 C 0.14012 0.70355 0.90304 0.0
H2664 H 0.08694 0.69102 0.00961 0.0
H2665 H 0.11158 0.64339 0.00084 0.0
H2666 H 0.09757 0.71124 0.92557 0.0
H2667 H 0.06903 0.68772 0.92128 0.0
H2668 H 0.0771 0.7053 0.96025 0.0
H2669 H 0.11461 0.62839 0.94708 0.0
H2670 H 0.09773 0.6295 0.91117 0.0
H2671 H 0.12713 0.65131 0.91542 0.0
H2672 H 0.06836 0.64523 0.82249 0.0
H2673 H 0.13856 0.69871 0.83274 0.0
H2674 H 0.0517 0.64706 0.91168 0.0
H2675 H 0.05913 0.62538 0.90442 0.0
H2676 H 0.04341 0.63088 0.87126 0.0
H2677 H 0.13509 0.71276 0.92202 0.0
H2678 H 0.15445 0.71638 0.88664 0.0
H2679 H 0.14642 0.69383 0.91844 0.0
C2680 C 0.31158 0.40936 -0.00169 0.0
C2681 C 0.3239 0.43156 0.01242 0.0
C2682 C 0.3106 0.40579 0.9618 0.0
C2683 C 0.32241 0.42483 0.93911 0.0
C2684 C 0.33572 0.4471 0.95336 0.0
C2685 C 0.33618 0.45019 0.98976 0.0
C2686 C 0.29622 0.38181 0.94747 0.0
C2687 C 0.34886 0.46783 0.93008 0.0
C2688 C 0.33445 0.42095 0.84274 0.0
C2689 C 0.31878 0.42608 0.82678 0.0
C2690 C 0.33506 0.41913 0.87945 0.0
C2691 C 0.31939 0.42214 0.90041 0.0
C2692 C 0.30246 0.4256 0.88416 0.0
C2693 C 0.3025 0.42774 0.84758 0.0
C2694 C 0.35352 0.41567 0.89581 0.0
C2695 C 0.28514 0.42846 0.90552 0.0
H2696 H 0.30214 0.39486 0.01568 0.0
H2697 H 0.34604 0.46735 0.00045 0.0
H2698 H 0.28121 0.38049 0.93328 0.0
H2699 H 0.30621 0.37793 0.92828 0.0
H2700 H 0.28991 0.36864 0.96854 0.0
H2701 H 0.3599 0.48364 0.9454 0.0
H2702 H 0.35982 0.46494 0.91143 0.0
H2703 H 0.33668 0.47072 0.91431 0.0
H2704 H 0.34703 0.41958 0.82673 0.0
H2705 H 0.29009 0.4313 0.8353 0.0
H2706 H 0.34659 0.4034 0.91799 0.0
H2707 H 0.36718 0.43225 0.90649 0.0
H2708 H 0.36141 0.40936 0.87642 0.0
H2709 H 0.27705 0.41467 0.92548 0.0
H2710 H 0.27147 0.42819 0.88886 0.0
H2711 H 0.29393 0.44505 0.91975 0.0
C2712 C 0.09108 0.41984 0.48208 0.0
C2713 C 0.10007 0.44153 0.49773 0.0
C2714 C 0.08857 0.41721 0.44545 0.0
C2715 C 0.09496 0.43671 0.4241 0.0
C2716 C 0.10305 0.45845 0.4399 0.0
C2717 C 0.10567 0.46062 0.47646 0.0
C2718 C 0.08002 0.39378 0.42954 0.0
C2719 C 0.10966 0.47959 0.41809 0.0
C2720 C 0.1175 0.44103 0.33178 0.0
C2721 C 0.09879 0.43772 0.31132 0.0
C2722 C 0.11601 0.43951 0.36846 0.0
C2723 C 0.09542 0.43502 0.3852 0.0
C2724 C 0.07616 0.43088 0.36469 0.0
C2725 C 0.07802 0.43208 0.32786 0.0
C2726 C 0.13678 0.44354 0.38934 0.0
C2727 C 0.054 0.42626 0.38164 0.0
H2728 H 0.08663 0.40499 0.49836 0.0
H2729 H 0.1123 0.47738 0.48837 0.0
H2730 H 0.06592 0.38969 0.4107 0.0
H2731 H 0.0941 0.39363 0.41463 0.0
H2732 H 0.07377 0.38008 0.44979 0.0
H2733 H 0.11353 0.49474 0.43454 0.0
H2734 H 0.12505 0.48374 0.40216 0.0
H2735 H 0.09566 0.47644 0.39959 0.0
H2736 H 0.13349 0.44504 0.31909 0.0
H2737 H 0.06351 0.4295 0.31211 0.0
H2738 H 0.13202 0.42949 0.40856 0.0
H2739 H 0.14353 0.45975 0.40442 0.0
H2740 H 0.15071 0.44471 0.37229 0.0
H2741 H 0.04843 0.41248 0.40158 0.0
H2742 H 0.04002 0.42122 0.36213 0.0
H2743 H 0.05668 0.44192 0.39547 0.0
C2744 C 0.55598 0.67687 0.33343 0.0
C2745 C 0.55912 0.6618 0.31187 0.0
C2746 C 0.55768 0.67623 0.37002 0.0
C2747 C 0.56222 0.65981 0.38555 0.0
C2748 C 0.56657 0.6453 0.36388 0.0
C2749 C 0.56509 0.64656 0.32718 0.0
C2750 C 0.55348 0.69241 0.39213 0.0
C2751 C 0.57127 0.62739 0.3792 0.0
C2752 C 0.57453 0.66783 0.48354 0.0
C2753 C 0.55232 0.65493 0.49736 0.0
C2754 C 0.57835 0.66869 0.4471 0.0
C2755 C 0.55955 0.65623 0.4242 0.0
C2756 C 0.5374 0.642 0.43826 0.0
C2757 C 0.53403 0.64167 0.47459 0.0
C2758 C 0.60226 0.68376 0.43302 0.0
C2759 C 0.51701 0.62789 0.4148 0.0
H2760 H 0.55177 0.68898 0.32169 0.0
H2761 H 0.56759 0.63488 0.31063 0.0
H2762 H 0.53702 0.68258 0.40644 0.0
H2763 H 0.56724 0.70099 0.41203 0.0
H2764 H 0.55269 0.70576 0.37604 0.0
H2765 H 0.58119 0.62296 0.36063 0.0
H2766 H 0.58077 0.63313 0.40436 0.0
H2767 H 0.55471 0.61159 0.38449 0.0
H2768 H 0.58877 0.67799 0.50103 0.0
H2769 H 0.5169 0.63128 0.48513 0.0
H2770 H 0.60327 0.69899 0.42004 0.0
H2771 H 0.6064 0.67445 0.41292 0.0
H2772 H 0.61541 0.68972 0.45411 0.0
H2773 H 0.51315 0.63943 0.39908 0.0
H2774 H 0.50144 0.61605 0.43 0.0
H2775 H 0.52093 0.61766 0.39613 0.0
C2776 C 0.33726 0.92117 0.3267 0.0
C2777 C 0.32338 0.89906 0.31304 0.0
C2778 C 0.33869 0.92507 0.36318 0.0
C2779 C 0.32585 0.90644 0.38622 0.0
C2780 C 0.31066 0.88448 0.37232 0.0
C2781 C 0.30965 0.88107 0.33598 0.0
C2782 C 0.35492 0.94874 0.37713 0.0
C2783 C 0.29654 0.86414 0.39592 0.0
C2784 C 0.34744 0.9009 0.47496 0.0
C2785 C 0.33253 0.90348 0.49772 0.0
C2786 C 0.34658 0.9036 0.43865 0.0
C2787 C 0.33025 0.90881 0.42466 0.0
C2788 C 0.31614 0.91291 0.44762 0.0
C2789 C 0.31754 0.91033 0.48403 0.0
C2790 C 0.36206 0.8992 0.41513 0.0
C2791 C 0.29842 0.91834 0.43365 0.0
H2792 H 0.34778 0.9352 0.3091 0.0
H2793 H 0.29855 0.86402 0.32561 0.0
H2794 H 0.34624 0.95373 0.39711 0.0
H2795 H 0.36963 0.94875 0.39027 0.0
H2796 H 0.36167 0.96185 0.35597 0.0
H2797 H 0.28396 0.84882 0.38094 0.0
H2798 H 0.30805 0.85965 0.41044 0.0
H2799 H 0.28713 0.8684 0.41565 0.0
H2800 H 0.35935 0.89599 0.48544 0.0
H2801 H 0.30605 0.91246 0.50153 0.0
H2802 H 0.37054 0.91308 0.39542 0.0
H2803 H 0.35167 0.88291 0.40059 0.0
H2804 H 0.37549 0.8979 0.4302 0.0
H2805 H 0.3057 0.93118 0.41226 0.0
H2806 H 0.29164 0.92487 0.45454 0.0
H2807 H 0.28386 0.90258 0.42243 0.0
loop_
_geom_bond_atom_site_label_1
_geom_bond_atom_site_label_2
_geom_bond_distance
_geom_bond_site_symmetry_2
_ccdc_geom_bond_type
C0 O1 1.306 . S
C0 O3 1.160 . S
O1 C0 1.306 . S
O1 Cd2 2.228 . S
Cd2 O1 2.228 . S
Cd2 O6 2.273 . S
Cd2 O10 2.277 . S
O3 C0 1.160 . S
O3 Cd4 2.203 . S
Cd4 O3 2.203 . S
Cd4 O6 2.411 . S
Cd4 O7 2.333 . S
Cd4 O8 2.352 1_554 S
Cd4 O12 2.277 . S
Cd4 O13 2.356 . S
C5 O10 1.209 . S
C5 O12 1.226 . S
O6 Cd2 2.273 . S
O6 Cd4 2.411 . S
O6 C9 1.320 . S
O7 Cd4 2.333 . S
O7 C9 1.214 . S
O8 Cd4 2.352 1_556 S
O8 C11 1.258 . S
C9 O6 1.320 . S
C9 O7 1.214 . S
O10 Cd2 2.277 . S
O10 C5 1.209 . S
C11 O8 1.258 . S
C11 O13 1.282 1_556 S
O12 Cd4 2.277 . S
O12 C5 1.226 . S
O13 Cd4 2.356 . S
O13 C11 1.282 1_554 S
C14 O15 1.306 . S
C14 O17 1.160 . S
O15 C14 1.306 . S
O15 Cd16 2.228 1_565 S
Cd16 O15 2.228 1_545 S
Cd16 O20 2.273 . S
Cd16 O24 2.277 . S
O17 C14 1.160 . S
O17 Cd18 2.203 1_565 S
Cd18 O17 2.203 1_545 S
Cd18 O20 2.411 . S
Cd18 O21 2.333 . S
Cd18 O22 2.352 1_554 S
Cd18 O26 2.277 . S
Cd18 O27 2.356 . S
C19 O24 1.209 . S
C19 O26 1.226 . S
O20 Cd16 2.273 . S
O20 Cd18 2.411 . S
O20 C23 1.320 . S
O21 Cd18 2.333 . S
O21 C23 1.214 . S
O22 Cd18 2.352 1_556 S
O22 C25 1.258 . S
C23 O20 1.320 . S
C23 O21 1.214 . S
O24 Cd16 2.277 . S
O24 C19 1.209 . S
C25 O22 1.258 . S
C25 O27 1.282 1_556 S
O26 Cd18 2.277 . S
O26 C19 1.226 . S
O27 Cd18 2.356 . S
O27 C25 1.282 1_554 S
C28 O29 1.306 . S
C28 O31 1.160 . S
O29 C28 1.306 . S
O29 Cd30 2.228 1_455 S
Cd30 O29 2.228 1_655 S
Cd30 O34 2.273 . S
Cd30 O38 2.277 . S
O31 C28 1.160 . S
O31 Cd32 2.203 1_455 S
Cd32 O31 2.203 1_655 S
Cd32 O34 2.411 . S
Cd32 O35 2.333 . S
Cd32 O36 2.352 1_554 S
Cd32 O40 2.277 . S
Cd32 O41 2.356 . S
C33 O38 1.209 . S
C33 O40 1.226 . S
O34 Cd30 2.273 . S
O34 Cd32 2.411 . S
O34 C37 1.320 . S
O35 Cd32 2.333 . S
O35 C37 1.214 . S
O36 Cd32 2.352 1_556 S
O36 C39 1.258 . S
C37 O34 1.320 . S
C37 O35 1.214 . S
O38 Cd30 2.277 . S
O38 C33 1.209 . S
C39 O36 1.258 . S
C39 O41 1.282 1_556 S
O40 Cd32 2.277 . S
O40 C33 1.226 . S
O41 Cd32 2.356 . S
O41 C39 1.282 1_554 S
C42 O43 1.306 . S
C42 O45 1.160 . S
O43 C42 1.306 . S
O43 Cd44 2.228 . S
Cd44 O43 2.228 . S
Cd44 O48 2.273 . S
Cd44 O52 2.277 . S
O45 C42 1.160 . S
O45 Cd46 2.203 . S
Cd46 O45 2.203 . S
Cd46 O48 2.411 . S
Cd46 O49 2.333 . S
Cd46 O50 2.352 . S
Cd46 O54 2.277 . S
Cd46 O55 2.356 . S
C47 O52 1.209 . S
C47 O54 1.226 . S
O48 Cd44 2.273 . S
O48 Cd46 2.411 . S
O48 C51 1.320 . S
O49 Cd46 2.333 . S
O49 C51 1.214 . S
O50 Cd46 2.352 . S
O50 C53 1.258 . S
C51 O48 1.320 . S
C51 O49 1.214 . S
O52 Cd44 2.277 . S
O52 C47 1.209 . S
C53 O50 1.258 . S
C53 O55 1.282 . S
O54 Cd46 2.277 . S
O54 C47 1.226 . S
O55 Cd46 2.356 . S
O55 C53 1.282 . S
C56 O57 1.306 . S
C56 O59 1.160 . S
O57 C56 1.306 . S
O57 Cd58 2.228 1_545 S
Cd58 O57 2.228 1_565 S
Cd58 O62 2.273 . S
Cd58 O66 2.277 . S
O59 C56 1.160 . S
O59 Cd60 2.203 1_545 S
Cd60 O59 2.203 1_565 S
Cd60 O62 2.411 . S
Cd60 O63 2.333 . S
Cd60 O64 2.352 . S
Cd60 O68 2.277 . S
Cd60 O69 2.356 . S
C61 O66 1.209 . S
C61 O68 1.226 . S
O62 Cd58 2.273 . S
O62 Cd60 2.411 . S
O62 C65 1.320 . S
O63 Cd60 2.333 . S
O63 C65 1.214 . S
O64 Cd60 2.352 . S
O64 C67 1.258 . S
C65 O62 1.320 . S
C65 O63 1.214 . S
O66 Cd58 2.277 . S
O66 C61 1.209 . S
C67 O64 1.258 . S
C67 O69 1.282 . S
O68 Cd60 2.277 . S
O68 C61 1.226 . S
O69 Cd60 2.356 . S
O69 C67 1.282 . S
C70 O71 1.306 . S
C70 O73 1.160 . S
O71 C70 1.306 . S
O71 Cd72 2.228 1_655 S
Cd72 O71 2.228 1_455 S
Cd72 O76 2.273 . S
Cd72 O80 2.277 . S
O73 C70 1.160 . S
O73 Cd74 2.203 1_655 S
Cd74 O73 2.203 1_455 S
Cd74 O76 2.411 . S
Cd74 O77 2.333 . S
Cd74 O78 2.352 . S
Cd74 O82 2.277 . S
Cd74 O83 2.356 . S
C75 O80 1.209 . S
C75 O82 1.226 . S
O76 Cd72 2.273 . S
O76 Cd74 2.411 . S
O76 C79 1.320 . S
O77 Cd74 2.333 . S
O77 C79 1.214 . S
O78 Cd74 2.352 . S
O78 C81 1.258 . S
C79 O76 1.320 . S
C79 O77 1.214 . S
O80 Cd72 2.277 . S
O80 C75 1.209 . S
C81 O78 1.258 . S
C81 O83 1.282 . S
O82 Cd74 2.277 . S
O82 C75 1.226 . S
O83 Cd74 2.356 . S
O83 C81 1.282 . S
C84 O85 1.306 . S
C84 O87 1.160 . S
O85 C84 1.306 . S
O85 Cd86 2.228 . S
Cd86 O85 2.228 . S
Cd86 O90 2.273 . S
Cd86 O94 2.277 . S
O87 C84 1.160 . S
O87 Cd88 2.203 . S
Cd88 O87 2.203 . S
Cd88 O90 2.411 . S
Cd88 O91 2.333 . S
Cd88 O92 2.352 1_556 S
Cd88 O96 2.277 . S
Cd88 O97 2.356 . S
C89 O94 1.209 . S
C89 O96 1.226 . S
O90 Cd86 2.273 . S
O90 Cd88 2.411 . S
O90 C93 1.320 . S
O91 Cd88 2.333 . S
O91 C93 1.214 . S
O92 Cd88 2.352 1_554 S
O92 C95 1.258 . S
C93 O90 1.320 . S
C93 O91 1.214 . S
O94 Cd86 2.277 . S
O94 C89 1.209 . S
C95 O92 1.258 . S
C95 O97 1.282 1_554 S
O96 Cd88 2.277 . S
O96 C89 1.226 . S
O97 Cd88 2.356 . S
O97 C95 1.282 1_556 S
C98 O99 1.306 . S
C98 O101 1.160 . S
O99 C98 1.306 . S
O99 Cd100 2.228 1_545 S
Cd100 O99 2.228 1_565 S
Cd100 O104 2.273 . S
Cd100 O108 2.277 . S
O101 C98 1.160 . S
O101 Cd102 2.203 1_545 S
Cd102 O101 2.203 1_565 S
Cd102 O104 2.411 . S
Cd102 O105 2.333 . S
Cd102 O106 2.352 1_556 S
Cd102 O110 2.277 . S
Cd102 O111 2.356 . S
C103 O108 1.209 . S
C103 O110 1.226 . S
O104 Cd100 2.273 . S
O104 Cd102 2.411 . S
O104 C107 1.320 . S
O105 Cd102 2.333 . S
O105 C107 1.214 . S
O106 Cd102 2.352 1_554 S
O106 C109 1.258 . S
C107 O104 1.320 . S
C107 O105 1.214 . S
O108 Cd100 2.277 . S
O108 C103 1.209 . S
C109 O106 1.258 . S
C109 O111 1.282 1_554 S
O110 Cd102 2.277 . S
O110 C103 1.226 . S
O111 Cd102 2.356 . S
O111 C109 1.282 1_556 S
C112 O113 1.306 . S
C112 O115 1.160 . S
O113 C112 1.306 . S
O113 Cd114 2.228 1_655 S
Cd114 O113 2.228 1_455 S
Cd114 O118 2.273 . S
Cd114 O122 2.277 . S
O115 C112 1.160 . S
O115 Cd116 2.203 1_655 S
Cd116 O115 2.203 1_455 S
Cd116 O118 2.411 . S
Cd116 O119 2.333 . S
Cd116 O120 2.352 1_556 S
Cd116 O124 2.277 . S
Cd116 O125 2.356 . S
C117 O122 1.209 . S
C117 O124 1.226 . S
O118 Cd114 2.273 . S
O118 Cd116 2.411 . S
O118 C121 1.320 . S
O119 Cd116 2.333 . S
O119 C121 1.214 . S
O120 Cd116 2.352 1_554 S
O120 C123 1.258 . S
C121 O118 1.320 . S
C121 O119 1.214 . S
O122 Cd114 2.277 . S
O122 C117 1.209 . S
C123 O120 1.258 . S
C123 O125 1.282 1_554 S
O124 Cd116 2.277 . S
O124 C117 1.226 . S
O125 Cd116 2.356 . S
O125 C123 1.282 1_556 S
C126 O127 1.306 . S
C126 O129 1.160 . S
O127 C126 1.306 . S
O127 Cd128 2.228 . S
Cd128 O127 2.228 . S
Cd128 O132 2.273 . S
Cd128 O136 2.277 . S
O129 C126 1.160 . S
O129 Cd130 2.203 . S
Cd130 O129 2.203 . S
Cd130 O132 2.411 . S
Cd130 O133 2.333 . S
Cd130 O134 2.352 . S
Cd130 O138 2.277 . S
Cd130 O139 2.356 . S
C131 O136 1.209 . S
C131 O138 1.226 . S
O132 Cd128 2.273 . S
O132 Cd130 2.411 . S
O132 C135 1.320 . S
O133 Cd130 2.333 . S
O133 C135 1.214 . S
O134 Cd130 2.352 . S
O134 C137 1.258 . S
C135 O132 1.320 . S
C135 O133 1.214 . S
O136 Cd128 2.277 . S
O136 C131 1.209 . S
C137 O134 1.258 . S
C137 O139 1.282 . S
O138 Cd130 2.277 . S
O138 C131 1.226 . S
O139 Cd130 2.356 . S
O139 C137 1.282 . S
C140 O141 1.306 . S
C140 O143 1.160 . S
O141 C140 1.306 . S
O141 Cd142 2.228 1_565 S
Cd142 O141 2.228 1_545 S
Cd142 O146 2.273 . S
Cd142 O150 2.277 . S
O143 C140 1.160 . S
O143 Cd144 2.203 1_565 S
Cd144 O143 2.203 1_545 S
Cd144 O146 2.411 . S
Cd144 O147 2.333 . S
Cd144 O148 2.352 . S
Cd144 O152 2.277 . S
Cd144 O153 2.356 . S
C145 O150 1.209 . S
C145 O152 1.226 . S
O146 Cd142 2.273 . S
O146 Cd144 2.411 . S
O146 C149 1.320 . S
O147 Cd144 2.333 . S
O147 C149 1.214 . S
O148 Cd144 2.352 . S
O148 C151 1.258 . S
C149 O146 1.320 . S
C149 O147 1.214 . S
O150 Cd142 2.277 . S
O150 C145 1.209 . S
C151 O148 1.258 . S
C151 O153 1.282 . S
O152 Cd144 2.277 . S
O152 C145 1.226 . S
O153 Cd144 2.356 . S
O153 C151 1.282 . S
C154 O155 1.306 . S
C154 O157 1.160 . S
O155 C154 1.306 . S
O155 Cd156 2.228 1_455 S
Cd156 O155 2.228 1_655 S
Cd156 O160 2.273 . S
Cd156 O164 2.277 . S
O157 C154 1.160 . S
O157 Cd158 2.203 1_455 S
Cd158 O157 2.203 1_655 S
Cd158 O160 2.411 . S
Cd158 O161 2.333 . S
Cd158 O162 2.352 . S
Cd158 O166 2.277 . S
Cd158 O167 2.356 . S
C159 O164 1.209 . S
C159 O166 1.226 . S
O160 Cd156 2.273 . S
O160 Cd158 2.411 . S
O160 C163 1.320 . S
O161 Cd158 2.333 . S
O161 C163 1.214 . S
O162 Cd158 2.352 . S
O162 C165 1.258 . S
C163 O160 1.320 . S
C163 O161 1.214 . S
O164 Cd156 2.277 . S
O164 C159 1.209 . S
C165 O162 1.258 . S
C165 O167 1.282 . S
O166 Cd158 2.277 . S
O166 C159 1.226 . S
O167 Cd158 2.356 . S
O167 C165 1.282 . S
C168 O169 1.306 . S
C168 O171 1.160 . S
O169 C168 1.306 . S
O169 Cd170 2.228 . S
Cd170 O169 2.228 . S
Cd170 O174 2.273 . S
Cd170 O178 2.277 . S
O171 C168 1.160 . S
O171 Cd172 2.203 . S
Cd172 O171 2.203 . S
Cd172 O174 2.411 . S
Cd172 O175 2.333 . S
Cd172 O176 2.352 . S
Cd172 O180 2.277 . S
Cd172 O181 2.356 . S
C173 O178 1.209 . S
C173 O180 1.226 . S
O174 Cd170 2.273 . S
O174 Cd172 2.411 . S
O174 C177 1.320 . S
O175 Cd172 2.333 . S
O175 C177 1.214 . S
O176 Cd172 2.352 . S
O176 C179 1.258 . S
C177 O174 1.320 . S
C177 O175 1.214 . S
O178 Cd170 2.277 . S
O178 C173 1.209 . S
C179 O176 1.258 . S
C179 O181 1.282 . S
O180 Cd172 2.277 . S
O180 C173 1.226 . S
O181 Cd172 2.356 . S
O181 C179 1.282 . S
C182 O183 1.306 . S
C182 O185 1.160 . S
O183 C182 1.306 . S
O183 Cd184 2.228 . S
Cd184 O183 2.228 . S
Cd184 O188 2.273 . S
Cd184 O192 2.277 . S
O185 C182 1.160 . S
O185 Cd186 2.203 . S
Cd186 O185 2.203 . S
Cd186 O188 2.411 . S
Cd186 O189 2.333 . S
Cd186 O190 2.352 . S
Cd186 O194 2.277 . S
Cd186 O195 2.356 . S
C187 O192 1.209 . S
C187 O194 1.226 . S
O188 Cd184 2.273 . S
O188 Cd186 2.411 . S
O188 C191 1.320 . S
O189 Cd186 2.333 . S
O189 C191 1.214 . S
O190 Cd186 2.352 . S
O190 C193 1.258 . S
C191 O188 1.320 . S
C191 O189 1.214 . S
O192 Cd184 2.277 . S
O192 C187 1.209 . S
C193 O190 1.258 . S
C193 O195 1.282 . S
O194 Cd186 2.277 . S
O194 C187 1.226 . S
O195 Cd186 2.356 . S
O195 C193 1.282 . S
C196 O197 1.306 . S
C196 O199 1.160 . S
O197 C196 1.306 . S
O197 Cd198 2.228 . S
Cd198 O197 2.228 . S
Cd198 O202 2.273 . S
Cd198 O206 2.277 . S
O199 C196 1.160 . S
O199 Cd200 2.203 . S
Cd200 O199 2.203 . S
Cd200 O202 2.411 . S
Cd200 O203 2.333 . S
Cd200 O204 2.352 . S
Cd200 O208 2.277 . S
Cd200 O209 2.356 . S
C201 O206 1.209 . S
C201 O208 1.226 . S
O202 Cd198 2.273 . S
O202 Cd200 2.411 . S
O202 C205 1.320 . S
O203 Cd200 2.333 . S
O203 C205 1.214 . S
O204 Cd200 2.352 . S
O204 C207 1.258 . S
C205 O202 1.320 . S
C205 O203 1.214 . S
O206 Cd198 2.277 . S
O206 C201 1.209 . S
C207 O204 1.258 . S
C207 O209 1.282 . S
O208 Cd200 2.277 . S
O208 C201 1.226 . S
O209 Cd200 2.356 . S
O209 C207 1.282 . S
C210 O211 1.306 . S
C210 O213 1.160 . S
O211 C210 1.306 . S
O211 Cd212 2.228 . S
Cd212 O211 2.228 . S
Cd212 O216 2.273 . S
Cd212 O220 2.277 . S
O213 C210 1.160 . S
O213 Cd214 2.203 . S
Cd214 O213 2.203 . S
Cd214 O216 2.411 . S
Cd214 O217 2.333 . S
Cd214 O218 2.352 . S
Cd214 O222 2.277 . S
Cd214 O223 2.356 . S
C215 O220 1.209 . S
C215 O222 1.226 . S
O216 Cd212 2.273 . S
O216 Cd214 2.411 . S
O216 C219 1.320 . S
O217 Cd214 2.333 . S
O217 C219 1.214 . S
O218 Cd214 2.352 . S
O218 C221 1.258 . S
C219 O216 1.320 . S
C219 O217 1.214 . S
O220 Cd212 2.277 . S
O220 C215 1.209 . S
C221 O218 1.258 . S
C221 O223 1.282 . S
O222 Cd214 2.277 . S
O222 C215 1.226 . S
O223 Cd214 2.356 . S
O223 C221 1.282 . S
C224 O225 1.306 . S
C224 O227 1.160 . S
O225 C224 1.306 . S
O225 Cd226 2.228 . S
Cd226 O225 2.228 . S
Cd226 O230 2.273 . S
Cd226 O234 2.277 . S
O227 C224 1.160 . S
O227 Cd228 2.203 . S
Cd228 O227 2.203 . S
Cd228 O230 2.411 . S
Cd228 O231 2.333 . S
Cd228 O232 2.352 . S
Cd228 O236 2.277 . S
Cd228 O237 2.356 . S
C229 O234 1.209 . S
C229 O236 1.226 . S
O230 Cd226 2.273 . S
O230 Cd228 2.411 . S
O230 C233 1.320 . S
O231 Cd228 2.333 . S
O231 C233 1.214 . S
O232 Cd228 2.352 . S
O232 C235 1.258 . S
C233 O230 1.320 . S
C233 O231 1.214 . S
O234 Cd226 2.277 . S
O234 C229 1.209 . S
C235 O232 1.258 . S
C235 O237 1.282 . S
O236 Cd228 2.277 . S
O236 C229 1.226 . S
O237 Cd228 2.356 . S
O237 C235 1.282 . S
C238 O239 1.306 . S
C238 O241 1.160 . S
O239 C238 1.306 . S
O239 Cd240 2.228 . S
Cd240 O239 2.228 . S
Cd240 O244 2.273 . S
Cd240 O248 2.277 . S
O241 C238 1.160 . S
O241 Cd242 2.203 . S
Cd242 O241 2.203 . S
Cd242 O244 2.411 . S
Cd242 O245 2.333 . S
Cd242 O246 2.352 . S
Cd242 O250 2.277 . S
Cd242 O251 2.356 . S
C243 O248 1.209 . S
C243 O250 1.226 . S
O244 Cd240 2.273 . S
O244 Cd242 2.411 . S
O244 C247 1.320 . S
O245 Cd242 2.333 . S
O245 C247 1.214 . S
O246 Cd242 2.352 . S
O246 C249 1.258 . S
C247 O244 1.320 . S
C247 O245 1.214 . S
O248 Cd240 2.277 . S
O248 C243 1.209 . S
C249 O246 1.258 . S
C249 O251 1.282 . S
O250 Cd242 2.277 . S
O250 C243 1.226 . S
O251 Cd242 2.356 . S
O251 C249 1.282 . S
C252 O253 1.306 . S
C252 O255 1.160 . S
O253 C252 1.306 . S
O253 Cd254 2.228 . S
Cd254 O253 2.228 . S
Cd254 O258 2.273 . S
Cd254 O262 2.277 . S
O255 C252 1.160 . S
O255 Cd256 2.203 . S
Cd256 O255 2.203 . S
Cd256 O258 2.411 . S
Cd256 O259 2.333 . S
Cd256 O260 2.352 . S
Cd256 O264 2.277 . S
Cd256 O265 2.356 . S
C257 O262 1.209 . S
C257 O264 1.226 . S
O258 Cd254 2.273 . S
O258 Cd256 2.411 . S
O258 C261 1.320 . S
O259 Cd256 2.333 . S
O259 C261 1.214 . S
O260 Cd256 2.352 . S
O260 C263 1.258 . S
C261 O258 1.320 . S
C261 O259 1.214 . S
O262 Cd254 2.277 . S
O262 C257 1.209 . S
C263 O260 1.258 . S
C263 O265 1.282 . S
O264 Cd256 2.277 . S
O264 C257 1.226 . S
O265 Cd256 2.356 . S
O265 C263 1.282 . S
C266 O267 1.306 . S
C266 O269 1.160 . S
O267 C266 1.306 . S
O267 Cd268 2.228 . S
Cd268 O267 2.228 . S
Cd268 O272 2.273 . S
Cd268 O276 2.277 . S
O269 C266 1.160 . S
O269 Cd270 2.203 . S
Cd270 O269 2.203 . S
Cd270 O272 2.411 . S
Cd270 O273 2.333 . S
Cd270 O274 2.352 . S
Cd270 O278 2.277 . S
Cd270 O279 2.356 . S
C271 O276 1.209 . S
C271 O278 1.226 . S
O272 Cd268 2.273 . S
O272 Cd270 2.411 . S
O272 C275 1.320 . S
O273 Cd270 2.333 . S
O273 C275 1.214 . S
O274 Cd270 2.352 . S
O274 C277 1.258 . S
C275 O272 1.320 . S
C275 O273 1.214 . S
O276 Cd268 2.277 . S
O276 C271 1.209 . S
C277 O274 1.258 . S
C277 O279 1.282 . S
O278 Cd270 2.277 . S
O278 C271 1.226 . S
O279 Cd270 2.356 . S
O279 C277 1.282 . S
C280 O281 1.306 . S
C280 O283 1.160 . S
O281 C280 1.306 . S
O281 Cd282 2.228 . S
Cd282 O281 2.228 . S
Cd282 O286 2.273 . S
Cd282 O290 2.277 . S
O283 C280 1.160 . S
O283 Cd284 2.203 . S
Cd284 O283 2.203 . S
Cd284 O286 2.411 . S
Cd284 O287 2.333 . S
Cd284 O288 2.352 . S
Cd284 O292 2.277 . S
Cd284 O293 2.356 . S
C285 O290 1.209 . S
C285 O292 1.226 . S
O286 Cd282 2.273 . S
O286 Cd284 2.411 . S
O286 C289 1.320 . S
O287 Cd284 2.333 . S
O287 C289 1.214 . S
O288 Cd284 2.352 . S
O288 C291 1.258 . S
C289 O286 1.320 . S
C289 O287 1.214 . S
O290 Cd282 2.277 . S
O290 C285 1.209 . S
C291 O288 1.258 . S
C291 O293 1.282 . S
O292 Cd284 2.277 . S
O292 C285 1.226 . S
O293 Cd284 2.356 . S
O293 C291 1.282 . S
C294 O295 1.306 . S
C294 O297 1.160 . S
O295 C294 1.306 . S
O295 Cd296 2.228 . S
Cd296 O295 2.228 . S
Cd296 O300 2.273 . S
Cd296 O304 2.277 . S
O297 C294 1.160 . S
O297 Cd298 2.203 . S
Cd298 O297 2.203 . S
Cd298 O300 2.411 . S
Cd298 O301 2.333 . S
Cd298 O302 2.352 . S
Cd298 O306 2.277 . S
Cd298 O307 2.356 . S
C299 O304 1.209 . S
C299 O306 1.226 . S
O300 Cd296 2.273 . S
O300 Cd298 2.411 . S
O300 C303 1.320 . S
O301 Cd298 2.333 . S
O301 C303 1.214 . S
O302 Cd298 2.352 . S
O302 C305 1.258 . S
C303 O300 1.320 . S
C303 O301 1.214 . S
O304 Cd296 2.277 . S
O304 C299 1.209 . S
C305 O302 1.258 . S
C305 O307 1.282 . S
O306 Cd298 2.277 . S
O306 C299 1.226 . S
O307 Cd298 2.356 . S
O307 C305 1.282 . S
C308 O309 1.306 . S
C308 O311 1.160 . S
O309 C308 1.306 . S
O309 Cd310 2.228 . S
Cd310 O309 2.228 . S
Cd310 O314 2.273 . S
Cd310 O318 2.277 . S
O311 C308 1.160 . S
O311 Cd312 2.203 . S
Cd312 O311 2.203 . S
Cd312 O314 2.411 . S
Cd312 O315 2.333 . S
Cd312 O316 2.352 . S
Cd312 O320 2.277 . S
Cd312 O321 2.356 . S
C313 O318 1.209 . S
C313 O320 1.226 . S
O314 Cd310 2.273 . S
O314 Cd312 2.411 . S
O314 C317 1.320 . S
O315 Cd312 2.333 . S
O315 C317 1.214 . S
O316 Cd312 2.352 . S
O316 C319 1.258 . S
C317 O314 1.320 . S
C317 O315 1.214 . S
O318 Cd310 2.277 . S
O318 C313 1.209 . S
C319 O316 1.258 . S
C319 O321 1.282 . S
O320 Cd312 2.277 . S
O320 C313 1.226 . S
O321 Cd312 2.356 . S
O321 C319 1.282 . S
C322 O323 1.306 . S
C322 O325 1.160 . S
O323 C322 1.306 . S
O323 Cd324 2.228 . S
Cd324 O323 2.228 . S
Cd324 O328 2.273 . S
Cd324 O332 2.277 . S
O325 C322 1.160 . S
O325 Cd326 2.203 . S
Cd326 O325 2.203 . S
Cd326 O328 2.411 . S
Cd326 O329 2.333 . S
Cd326 O330 2.352 . S
Cd326 O334 2.277 . S
Cd326 O335 2.356 . S
C327 O332 1.209 . S
C327 O334 1.226 . S
O328 Cd324 2.273 . S
O328 Cd326 2.411 . S
O328 C331 1.320 . S
O329 Cd326 2.333 . S
O329 C331 1.214 . S
O330 Cd326 2.352 . S
O330 C333 1.258 . S
C331 O328 1.320 . S
C331 O329 1.214 . S
O332 Cd324 2.277 . S
O332 C327 1.209 . S
C333 O330 1.258 . S
C333 O335 1.282 . S
O334 Cd326 2.277 . S
O334 C327 1.226 . S
O335 Cd326 2.356 . S
O335 C333 1.282 . S
C336 O337 1.306 . S
C336 O339 1.160 . S
O337 C336 1.306 . S
O337 Cd338 2.228 . S
Cd338 O337 2.228 . S
Cd338 O342 2.273 . S
Cd338 O346 2.277 . S
O339 C336 1.160 . S
O339 Cd340 2.203 . S
Cd340 O339 2.203 . S
Cd340 O342 2.411 . S
Cd340 O343 2.333 . S
Cd340 O344 2.352 . S
Cd340 O348 2.277 . S
Cd340 O349 2.356 . S
C341 O346 1.209 . S
C341 O348 1.226 . S
O342 Cd338 2.273 . S
O342 Cd340 2.411 . S
O342 C345 1.320 . S
O343 Cd340 2.333 . S
O343 C345 1.214 . S
O344 Cd340 2.352 . S
O344 C347 1.258 . S
C345 O342 1.320 . S
C345 O343 1.214 . S
O346 Cd338 2.277 . S
O346 C341 1.209 . S
C347 O344 1.258 . S
C347 O349 1.282 . S
O348 Cd340 2.277 . S
O348 C341 1.226 . S
O349 Cd340 2.356 . S
O349 C347 1.282 . S
C350 O351 1.306 . S
C350 O353 1.160 . S
O351 C350 1.306 . S
O351 Cd352 2.228 . S
Cd352 O351 2.228 . S
Cd352 O356 2.273 . S
Cd352 O360 2.277 . S
O353 C350 1.160 . S
O353 Cd354 2.203 . S
Cd354 O353 2.203 . S
Cd354 O356 2.411 . S
Cd354 O357 2.333 . S
Cd354 O358 2.352 . S
Cd354 O362 2.277 . S
Cd354 O363 2.356 . S
C355 O360 1.209 . S
C355 O362 1.226 . S
O356 Cd352 2.273 . S
O356 Cd354 2.411 . S
O356 C359 1.320 . S
O357 Cd354 2.333 . S
O357 C359 1.214 . S
O358 Cd354 2.352 . S
O358 C361 1.258 . S
C359 O356 1.320 . S
C359 O357 1.214 . S
O360 Cd352 2.277 . S
O360 C355 1.209 . S
C361 O358 1.258 . S
C361 O363 1.282 . S
O362 Cd354 2.277 . S
O362 C355 1.226 . S
O363 Cd354 2.356 . S
O363 C361 1.282 . S
C364 O365 1.306 . S
C364 O367 1.160 . S
O365 C364 1.306 . S
O365 Cd366 2.228 . S
Cd366 O365 2.228 . S
Cd366 O370 2.273 . S
Cd366 O374 2.277 . S
O367 C364 1.160 . S
O367 Cd368 2.203 . S
Cd368 O367 2.203 . S
Cd368 O370 2.411 . S
Cd368 O371 2.333 . S
Cd368 O372 2.352 . S
Cd368 O376 2.277 . S
Cd368 O377 2.356 . S
C369 O374 1.209 . S
C369 O376 1.226 . S
O370 Cd366 2.273 . S
O370 Cd368 2.411 . S
O370 C373 1.320 . S
O371 Cd368 2.333 . S
O371 C373 1.214 . S
O372 Cd368 2.352 . S
O372 C375 1.258 . S
C373 O370 1.320 . S
C373 O371 1.214 . S
O374 Cd366 2.277 . S
O374 C369 1.209 . S
C375 O372 1.258 . S
C375 O377 1.282 . S
O376 Cd368 2.277 . S
O376 C369 1.226 . S
O377 Cd368 2.356 . S
O377 C375 1.282 . S
C378 O379 1.306 . S
C378 O381 1.160 . S
O379 C378 1.306 . S
O379 Cd380 2.228 . S
Cd380 O379 2.228 . S
Cd380 O384 2.273 . S
Cd380 O388 2.277 . S
O381 C378 1.160 . S
O381 Cd382 2.203 . S
Cd382 O381 2.203 . S
Cd382 O384 2.411 . S
Cd382 O385 2.333 . S
Cd382 O386 2.352 . S
Cd382 O390 2.277 . S
Cd382 O391 2.356 . S
C383 O388 1.209 . S
C383 O390 1.226 . S
O384 Cd380 2.273 . S
O384 Cd382 2.411 . S
O384 C387 1.320 . S
O385 Cd382 2.333 . S
O385 C387 1.214 . S
O386 Cd382 2.352 . S
O386 C389 1.258 . S
C387 O384 1.320 . S
C387 O385 1.214 . S
O388 Cd380 2.277 . S
O388 C383 1.209 . S
C389 O386 1.258 . S
C389 O391 1.282 . S
O390 Cd382 2.277 . S
O390 C383 1.226 . S
O391 Cd382 2.356 . S
O391 C389 1.282 . S
C392 O393 1.306 . S
C392 O395 1.160 . S
O393 C392 1.306 . S
O393 Cd394 2.228 . S
Cd394 O393 2.228 . S
Cd394 O398 2.273 . S
Cd394 O402 2.277 . S
O395 C392 1.160 . S
O395 Cd396 2.203 . S
Cd396 O395 2.203 . S
Cd396 O398 2.411 . S
Cd396 O399 2.333 . S
Cd396 O400 2.352 . S
Cd396 O404 2.277 . S
Cd396 O405 2.356 . S
C397 O402 1.209 . S
C397 O404 1.226 . S
O398 Cd394 2.273 . S
O398 Cd396 2.411 . S
O398 C401 1.320 . S
O399 Cd396 2.333 . S
O399 C401 1.214 . S
O400 Cd396 2.352 . S
O400 C403 1.258 . S
C401 O398 1.320 . S
C401 O399 1.214 . S
O402 Cd394 2.277 . S
O402 C397 1.209 . S
C403 O400 1.258 . S
C403 O405 1.282 . S
O404 Cd396 2.277 . S
O404 C397 1.226 . S
O405 Cd396 2.356 . S
O405 C403 1.282 . S
C406 O407 1.306 . S
C406 O409 1.160 . S
O407 C406 1.306 . S
O407 Cd408 2.228 . S
Cd408 O407 2.228 . S
Cd408 O412 2.273 . S
Cd408 O416 2.277 . S
O409 C406 1.160 . S
O409 Cd410 2.203 . S
Cd410 O409 2.203 . S
Cd410 O412 2.411 . S
Cd410 O413 2.333 . S
Cd410 O414 2.352 . S
Cd410 O418 2.277 . S
Cd410 O419 2.356 . S
C411 O416 1.209 . S
C411 O418 1.226 . S
O412 Cd408 2.273 . S
O412 Cd410 2.411 . S
O412 C415 1.320 . S
O413 Cd410 2.333 . S
O413 C415 1.214 . S
O414 Cd410 2.352 . S
O414 C417 1.258 . S
C415 O412 1.320 . S
C415 O413 1.214 . S
O416 Cd408 2.277 . S
O416 C411 1.209 . S
C417 O414 1.258 . S
C417 O419 1.282 . S
O418 Cd410 2.277 . S
O418 C411 1.226 . S
O419 Cd410 2.356 . S
O419 C417 1.282 . S
C420 O421 1.306 . S
C420 O423 1.160 . S
O421 C420 1.306 . S
O421 Cd422 2.228 . S
Cd422 O421 2.228 . S
Cd422 O426 2.273 . S
Cd422 O430 2.277 . S
O423 C420 1.160 . S
O423 Cd424 2.203 . S
Cd424 O423 2.203 . S
Cd424 O426 2.411 . S
Cd424 O427 2.333 . S
Cd424 O428 2.352 . S
Cd424 O432 2.277 . S
Cd424 O433 2.356 . S
C425 O430 1.209 . S
C425 O432 1.226 . S
O426 Cd422 2.273 . S
O426 Cd424 2.411 . S
O426 C429 1.320 . S
O427 Cd424 2.333 . S
O427 C429 1.214 . S
O428 Cd424 2.352 . S
O428 C431 1.258 . S
C429 O426 1.320 . S
C429 O427 1.214 . S
O430 Cd422 2.277 . S
O430 C425 1.209 . S
C431 O428 1.258 . S
C431 O433 1.282 . S
O432 Cd424 2.277 . S
O432 C425 1.226 . S
O433 Cd424 2.356 . S
O433 C431 1.282 . S
C434 O435 1.306 . S
C434 O437 1.160 . S
O435 C434 1.306 . S
O435 Cd436 2.228 . S
Cd436 O435 2.228 . S
Cd436 O440 2.273 . S
Cd436 O444 2.277 . S
O437 C434 1.160 . S
O437 Cd438 2.203 . S
Cd438 O437 2.203 . S
Cd438 O440 2.411 . S
Cd438 O441 2.333 . S
Cd438 O442 2.352 . S
Cd438 O446 2.277 . S
Cd438 O447 2.356 . S
C439 O444 1.209 . S
C439 O446 1.226 . S
O440 Cd436 2.273 . S
O440 Cd438 2.411 . S
O440 C443 1.320 . S
O441 Cd438 2.333 . S
O441 C443 1.214 . S
O442 Cd438 2.352 . S
O442 C445 1.258 . S
C443 O440 1.320 . S
C443 O441 1.214 . S
O444 Cd436 2.277 . S
O444 C439 1.209 . S
C445 O442 1.258 . S
C445 O447 1.282 . S
O446 Cd438 2.277 . S
O446 C439 1.226 . S
O447 Cd438 2.356 . S
O447 C445 1.282 . S
C448 O449 1.306 . S
C448 O451 1.160 . S
O449 C448 1.306 . S
O449 Cd450 2.228 . S
Cd450 O449 2.228 . S
Cd450 O454 2.273 . S
Cd450 O458 2.277 . S
O451 C448 1.160 . S
O451 Cd452 2.203 . S
Cd452 O451 2.203 . S
Cd452 O454 2.411 . S
Cd452 O455 2.333 . S
Cd452 O456 2.352 . S
Cd452 O460 2.277 . S
Cd452 O461 2.356 . S
C453 O458 1.209 . S
C453 O460 1.226 . S
O454 Cd450 2.273 . S
O454 Cd452 2.411 . S
O454 C457 1.320 . S
O455 Cd452 2.333 . S
O455 C457 1.214 . S
O456 Cd452 2.352 . S
O456 C459 1.258 . S
C457 O454 1.320 . S
C457 O455 1.214 . S
O458 Cd450 2.277 . S
O458 C453 1.209 . S
C459 O456 1.258 . S
C459 O461 1.282 . S
O460 Cd452 2.277 . S
O460 C453 1.226 . S
O461 Cd452 2.356 . S
O461 C459 1.282 . S
C462 O463 1.306 . S
C462 O465 1.160 . S
O463 C462 1.306 . S
O463 Cd464 2.228 . S
Cd464 O463 2.228 . S
Cd464 O468 2.273 . S
Cd464 O472 2.277 . S
O465 C462 1.160 . S
O465 Cd466 2.203 . S
Cd466 O465 2.203 . S
Cd466 O468 2.411 . S
Cd466 O469 2.333 . S
Cd466 O470 2.352 . S
Cd466 O474 2.277 . S
Cd466 O475 2.356 . S
C467 O472 1.209 . S
C467 O474 1.226 . S
O468 Cd464 2.273 . S
O468 Cd466 2.411 . S
O468 C471 1.320 . S
O469 Cd466 2.333 . S
O469 C471 1.214 . S
O470 Cd466 2.352 . S
O470 C473 1.258 . S
C471 O468 1.320 . S
C471 O469 1.214 . S
O472 Cd464 2.277 . S
O472 C467 1.209 . S
C473 O470 1.258 . S
C473 O475 1.282 . S
O474 Cd466 2.277 . S
O474 C467 1.226 . S
O475 Cd466 2.356 . S
O475 C473 1.282 . S
C476 O477 1.306 . S
C476 O479 1.160 . S
O477 C476 1.306 . S
O477 Cd478 2.228 . S
Cd478 O477 2.228 . S
Cd478 O482 2.273 . S
Cd478 O486 2.277 . S
O479 C476 1.160 . S
O479 Cd480 2.203 . S
Cd480 O479 2.203 . S
Cd480 O482 2.411 . S
Cd480 O483 2.333 . S
Cd480 O484 2.352 . S
Cd480 O488 2.277 . S
Cd480 O489 2.356 . S
C481 O486 1.209 . S
C481 O488 1.226 . S
O482 Cd478 2.273 . S
O482 Cd480 2.411 . S
O482 C485 1.320 . S
O483 Cd480 2.333 . S
O483 C485 1.214 . S
O484 Cd480 2.352 . S
O484 C487 1.258 . S
C485 O482 1.320 . S
C485 O483 1.214 . S
O486 Cd478 2.277 . S
O486 C481 1.209 . S
C487 O484 1.258 . S
C487 O489 1.282 . S
O488 Cd480 2.277 . S
O488 C481 1.226 . S
O489 Cd480 2.356 . S
O489 C487 1.282 . S
C490 O491 1.306 . S
C490 O493 1.160 . S
O491 C490 1.306 . S
O491 Cd492 2.228 . S
Cd492 O491 2.228 . S
Cd492 O496 2.273 . S
Cd492 O500 2.277 . S
O493 C490 1.160 . S
O493 Cd494 2.203 . S
Cd494 O493 2.203 . S
Cd494 O496 2.411 . S
Cd494 O497 2.333 . S
Cd494 O498 2.352 . S
Cd494 O502 2.277 . S
Cd494 O503 2.356 . S
C495 O500 1.209 . S
C495 O502 1.226 . S
O496 Cd492 2.273 . S
O496 Cd494 2.411 . S
O496 C499 1.320 . S
O497 Cd494 2.333 . S
O497 C499 1.214 . S
O498 Cd494 2.352 . S
O498 C501 1.258 . S
C499 O496 1.320 . S
C499 O497 1.214 . S
O500 Cd492 2.277 . S
O500 C495 1.209 . S
C501 O498 1.258 . S
C501 O503 1.282 . S
O502 Cd494 2.277 . S
O502 C495 1.226 . S
O503 Cd494 2.356 . S
O503 C501 1.282 . S
C504 C505 1.391 . S
C504 C506 1.394 . S
C504 H520 0.931 . S
C505 C504 1.391 . S
C505 C509 1.376 . S
C506 C504 1.394 . S
C506 C507 1.369 . S
C506 C510 1.531 . S
C507 C506 1.369 . S
C507 C508 1.410 . S
C507 C515 1.503 . S
C508 C507 1.410 . S
C508 C509 1.392 . S
C508 C511 1.511 . S
C509 C505 1.376 . S
C509 C508 1.392 . S
C509 H521 0.929 . S
C510 C506 1.531 . S
C510 H522 0.960 . S
C510 H523 0.962 . S
C510 H524 0.960 . S
C511 C508 1.511 . S
C511 H525 0.961 . S
C511 H526 0.961 . S
C511 H527 0.961 . S
C512 C513 1.370 . S
C512 C514 1.363 . S
C512 H528 0.931 . S
C513 C512 1.370 . S
C513 C517 1.408 . S
C514 C512 1.363 . S
C514 C515 1.370 . S
C514 C518 1.524 . S
C515 C507 1.503 . S
C515 C514 1.370 . S
C515 C516 1.403 . S
C516 C515 1.403 . S
C516 C517 1.404 . S
C516 C519 1.539 . S
C517 C513 1.408 . S
C517 C516 1.404 . S
C517 H529 0.930 . S
C518 C514 1.524 . S
C518 H530 0.956 . S
C518 H531 0.961 . S
C518 H532 0.961 . S
C519 C516 1.539 . S
C519 H533 0.958 . S
C519 H534 0.961 . S
C519 H535 0.960 . S
H520 C504 0.931 . S
H521 C509 0.929 . S
H522 C510 0.960 . S
H523 C510 0.962 . S
H524 C510 0.960 . S
H525 C511 0.961 . S
H526 C511 0.961 . S
H527 C511 0.961 . S
H528 C512 0.931 . S
H529 C517 0.930 . S
H530 C518 0.956 . S
H531 C518 0.961 . S
H532 C518 0.961 . S
H533 C519 0.958 . S
H534 C519 0.961 . S
H535 C519 0.960 . S
C536 C537 1.391 . S
C536 C538 1.394 . S
C536 H552 0.931 . S
C537 C536 1.391 . S
C537 C541 1.376 . S
C538 C536 1.394 . S
C538 C539 1.369 . S
C538 C542 1.531 . S
C539 C538 1.369 . S
C539 C540 1.410 . S
C539 C547 1.503 . S
C540 C539 1.410 . S
C540 C541 1.392 . S
C540 C543 1.511 . S
C541 C537 1.376 . S
C541 C540 1.392 . S
C541 H553 0.929 . S
C542 C538 1.531 . S
C542 H554 0.960 . S
C542 H555 0.962 . S
C542 H556 0.960 . S
C543 C540 1.511 . S
C543 H557 0.961 . S
C543 H558 0.961 . S
C543 H559 0.961 . S
C544 C545 1.370 . S
C544 C546 1.363 . S
C544 H560 0.931 1_556 S
C545 C544 1.370 . S
C545 C549 1.408 . S
C546 C544 1.363 . S
C546 C547 1.370 . S
C546 C550 1.524 . S
C547 C539 1.503 . S
C547 C546 1.370 . S
C547 C548 1.403 . S
C548 C547 1.403 . S
C548 C549 1.404 . S
C548 C551 1.539 . S
C549 C545 1.408 . S
C549 C548 1.404 . S
C549 H561 0.930 . S
C550 C546 1.524 . S
C550 H562 0.956 . S
C550 H563 0.961 . S
C550 H564 0.961 . S
C551 C548 1.539 . S
C551 H565 0.958 . S
C551 H566 0.961 . S
C551 H567 0.960 . S
H552 C536 0.931 . S
H553 C541 0.929 . S
H554 C542 0.960 . S
H555 C542 0.962 . S
H556 C542 0.960 . S
H557 C543 0.961 . S
H558 C543 0.961 . S
H559 C543 0.961 . S
H560 C544 0.931 1_554 S
H561 C549 0.930 . S
H562 C550 0.956 . S
H563 C550 0.961 . S
H564 C550 0.961 . S
H565 C551 0.958 . S
H566 C551 0.961 . S
H567 C551 0.960 . S
C568 C569 1.391 . S
C568 C570 1.394 . S
C568 H584 0.931 . S
C569 C568 1.391 . S
C569 C573 1.376 . S
C570 C568 1.394 . S
C570 C571 1.369 . S
C570 C574 1.531 . S
C571 C570 1.369 . S
C571 C572 1.410 . S
C571 C579 1.503 . S
C572 C571 1.410 . S
C572 C573 1.392 . S
C572 C575 1.511 . S
C573 C569 1.376 . S
C573 C572 1.392 . S
C573 H585 0.929 . S
C574 C570 1.531 . S
C574 H586 0.960 . S
C574 H587 0.962 . S
C574 H588 0.960 . S
C575 C572 1.511 . S
C575 H589 0.961 . S
C575 H590 0.961 . S
C575 H591 0.961 . S
C576 C577 1.370 . S
C576 C578 1.363 . S
C576 H592 0.931 . S
C577 C576 1.370 . S
C577 C581 1.408 . S
C578 C576 1.363 . S
C578 C579 1.370 . S
C578 C582 1.524 . S
C579 C571 1.503 . S
C579 C578 1.370 . S
C579 C580 1.403 . S
C580 C579 1.403 . S
C580 C581 1.404 . S
C580 C583 1.539 . S
C581 C577 1.408 . S
C581 C580 1.404 . S
C581 H593 0.930 . S
C582 C578 1.524 . S
C582 H594 0.956 . S
C582 H595 0.961 . S
C582 H596 0.961 . S
C583 C580 1.539 . S
C583 H597 0.958 . S
C583 H598 0.961 . S
C583 H599 0.960 . S
H584 C568 0.931 . S
H585 C573 0.929 . S
H586 C574 0.960 . S
H587 C574 0.962 . S
H588 C574 0.960 . S
H589 C575 0.961 . S
H590 C575 0.961 . S
H591 C575 0.961 . S
H592 C576 0.931 . S
H593 C581 0.930 . S
H594 C582 0.956 . S
H595 C582 0.961 . S
H596 C582 0.961 . S
H597 C583 0.958 . S
H598 C583 0.961 . S
H599 C583 0.960 . S
C600 C601 1.391 . S
C600 C602 1.394 . S
C600 H616 0.931 . S
C601 C600 1.391 . S
C601 C605 1.376 . S
C602 C600 1.394 . S
C602 C603 1.369 . S
C602 C606 1.531 . S
C603 C602 1.369 . S
C603 C604 1.410 . S
C603 C611 1.503 . S
C604 C603 1.410 . S
C604 C605 1.392 . S
C604 C607 1.511 . S
C605 C601 1.376 . S
C605 C604 1.392 . S
C605 H617 0.929 . S
C606 C602 1.531 . S
C606 H618 0.960 . S
C606 H619 0.962 . S
C606 H620 0.960 . S
C607 C604 1.511 . S
C607 H621 0.961 . S
C607 H622 0.961 . S
C607 H623 0.961 . S
C608 C609 1.370 . S
C608 C610 1.363 . S
C608 H624 0.931 . S
C609 C608 1.370 . S
C609 C613 1.408 . S
C610 C608 1.363 . S
C610 C611 1.370 . S
C610 C614 1.524 . S
C611 C603 1.503 . S
C611 C610 1.370 . S
C611 C612 1.403 . S
C612 C611 1.403 . S
C612 C613 1.404 . S
C612 C615 1.539 . S
C613 C609 1.408 . S
C613 C612 1.404 . S
C613 H625 0.930 . S
C614 C610 1.524 . S
C614 H626 0.956 . S
C614 H627 0.961 . S
C614 H628 0.961 . S
C615 C612 1.539 . S
C615 H629 0.958 . S
C615 H630 0.961 . S
C615 H631 0.960 . S
H616 C600 0.931 . S
H617 C605 0.929 . S
H618 C606 0.960 . S
H619 C606 0.962 . S
H620 C606 0.960 . S
H621 C607 0.961 . S
H622 C607 0.961 . S
H623 C607 0.961 . S
H624 C608 0.931 . S
H625 C613 0.930 . S
H626 C614 0.956 . S
H627 C614 0.961 . S
H628 C614 0.961 . S
H629 C615 0.958 . S
H630 C615 0.961 . S
H631 C615 0.960 . S
C632 C633 1.391 . S
C632 C634 1.394 . S
C632 H648 0.931 . S
C633 C632 1.391 . S
C633 C637 1.376 . S
C634 C632 1.394 . S
C634 C635 1.369 . S
C634 C638 1.531 . S
C635 C634 1.369 . S
C635 C636 1.410 . S
C635 C643 1.503 . S
C636 C635 1.410 . S
C636 C637 1.392 . S
C636 C639 1.511 . S
C637 C633 1.376 . S
C637 C636 1.392 . S
C637 H649 0.929 . S
C638 C634 1.531 . S
C638 H650 0.960 . S
C638 H651 0.962 . S
C638 H652 0.960 . S
C639 C636 1.511 . S
C639 H653 0.961 . S
C639 H654 0.961 . S
C639 H655 0.961 . S
C640 C641 1.370 . S
C640 C642 1.363 . S
C640 H656 0.931 . S
C641 C640 1.370 . S
C641 C645 1.408 . S
C642 C640 1.363 . S
C642 C643 1.370 . S
C642 C646 1.524 . S
C643 C635 1.503 . S
C643 C642 1.370 . S
C643 C644 1.403 . S
C644 C643 1.403 . S
C644 C645 1.404 . S
C644 C647 1.539 . S
C645 C641 1.408 . S
C645 C644 1.404 . S
C645 H657 0.930 . S
C646 C642 1.524 . S
C646 H658 0.956 . S
C646 H659 0.961 . S
C646 H660 0.961 . S
C647 C644 1.539 . S
C647 H661 0.958 . S
C647 H662 0.961 . S
C647 H663 0.960 . S
H648 C632 0.931 . S
H649 C637 0.929 . S
H650 C638 0.960 . S
H651 C638 0.962 . S
H652 C638 0.960 . S
H653 C639 0.961 . S
H654 C639 0.961 . S
H655 C639 0.961 . S
H656 C640 0.931 . S
H657 C645 0.930 . S
H658 C646 0.956 . S
H659 C646 0.961 . S
H660 C646 0.961 . S
H661 C647 0.958 . S
H662 C647 0.961 . S
H663 C647 0.960 . S
C664 C665 1.391 . S
C664 C666 1.394 . S
C664 H680 0.931 . S
C665 C664 1.391 . S
C665 C669 1.376 . S
C666 C664 1.394 . S
C666 C667 1.369 . S
C666 C670 1.531 . S
C667 C666 1.369 . S
C667 C668 1.410 . S
C667 C675 1.503 . S
C668 C667 1.410 . S
C668 C669 1.392 . S
C668 C671 1.511 . S
C669 C665 1.376 . S
C669 C668 1.392 . S
C669 H681 0.929 . S
C670 C666 1.531 . S
C670 H682 0.960 . S
C670 H683 0.962 . S
C670 H684 0.960 . S
C671 C668 1.511 . S
C671 H685 0.961 . S
C671 H686 0.961 . S
C671 H687 0.961 . S
C672 C673 1.370 . S
C672 C674 1.363 . S
C672 H688 0.931 . S
C673 C672 1.370 . S
C673 C677 1.408 . S
C674 C672 1.363 . S
C674 C675 1.370 . S
C674 C678 1.524 . S
C675 C667 1.503 . S
C675 C674 1.370 . S
C675 C676 1.403 . S
C676 C675 1.403 . S
C676 C677 1.404 . S
C676 C679 1.539 . S
C677 C673 1.408 . S
C677 C676 1.404 . S
C677 H689 0.930 . S
C678 C674 1.524 . S
C678 H690 0.956 . S
C678 H691 0.961 . S
C678 H692 0.961 . S
C679 C676 1.539 . S
C679 H693 0.958 . S
C679 H694 0.961 . S
C679 H695 0.960 . S
H680 C664 0.931 . S
H681 C669 0.929 . S
H682 C670 0.960 . S
H683 C670 0.962 . S
H684 C670 0.960 . S
H685 C671 0.961 . S
H686 C671 0.961 . S
H687 C671 0.961 . S
H688 C672 0.931 . S
H689 C677 0.930 . S
H690 C678 0.956 . S
H691 C678 0.961 . S
H692 C678 0.961 . S
H693 C679 0.958 . S
H694 C679 0.961 . S
H695 C679 0.960 . S
C696 C697 1.391 . S
C696 C698 1.394 . S
C696 H712 0.931 . S
C697 C696 1.391 . S
C697 C701 1.376 . S
C698 C696 1.394 . S
C698 C699 1.369 . S
C698 C702 1.531 . S
C699 C698 1.369 . S
C699 C700 1.410 . S
C699 C707 1.503 . S
C700 C699 1.410 . S
C700 C701 1.392 . S
C700 C703 1.511 . S
C701 C697 1.376 . S
C701 C700 1.392 . S
C701 H713 0.929 . S
C702 C698 1.531 . S
C702 H714 0.960 . S
C702 H715 0.962 . S
C702 H716 0.960 . S
C703 C700 1.511 . S
C703 H717 0.961 . S
C703 H718 0.961 . S
C703 H719 0.961 . S
C704 C705 1.370 . S
C704 C706 1.363 . S
C704 H720 0.931 1_554 S
C705 C704 1.370 . S
C705 C709 1.408 . S
C706 C704 1.363 . S
C706 C707 1.370 . S
C706 C710 1.524 . S
C707 C699 1.503 . S
C707 C706 1.370 . S
C707 C708 1.403 . S
C708 C707 1.403 . S
C708 C709 1.404 . S
C708 C711 1.539 . S
C709 C705 1.408 . S
C709 C708 1.404 . S
C709 H721 0.930 . S
C710 C706 1.524 . S
C710 H722 0.956 . S
C710 H723 0.961 . S
C710 H724 0.961 . S
C711 C708 1.539 . S
C711 H725 0.958 . S
C711 H726 0.961 . S
C711 H727 0.960 . S
H712 C696 0.931 . S
H713 C701 0.929 . S
H714 C702 0.960 . S
H715 C702 0.962 . S
H716 C702 0.960 . S
H717 C703 0.961 . S
H718 C703 0.961 . S
H719 C703 0.961 . S
H720 C704 0.931 1_556 S
H721 C709 0.930 . S
H722 C710 0.956 . S
H723 C710 0.961 . S
H724 C710 0.961 . S
H725 C711 0.958 . S
H726 C711 0.961 . S
H727 C711 0.960 . S
C728 C729 1.391 . S
C728 C730 1.394 . S
C728 H744 0.931 . S
C729 C728 1.391 . S
C729 C733 1.376 . S
C730 C728 1.394 . S
C730 C731 1.369 . S
C730 C734 1.531 . S
C731 C730 1.369 . S
C731 C732 1.410 . S
C731 C739 1.503 . S
C732 C731 1.410 . S
C732 C733 1.392 . S
C732 C735 1.511 . S
C733 C729 1.376 . S
C733 C732 1.392 . S
C733 H745 0.929 . S
C734 C730 1.531 . S
C734 H746 0.960 . S
C734 H747 0.962 . S
C734 H748 0.960 . S
C735 C732 1.511 . S
C735 H749 0.961 . S
C735 H750 0.961 . S
C735 H751 0.961 . S
C736 C737 1.370 . S
C736 C738 1.363 . S
C736 H752 0.931 . S
C737 C736 1.370 . S
C737 C741 1.408 . S
C738 C736 1.363 . S
C738 C739 1.370 . S
C738 C742 1.524 . S
C739 C731 1.503 . S
C739 C738 1.370 . S
C739 C740 1.403 . S
C740 C739 1.403 . S
C740 C741 1.404 . S
C740 C743 1.539 . S
C741 C737 1.408 . S
C741 C740 1.404 . S
C741 H753 0.930 . S
C742 C738 1.524 . S
C742 H754 0.956 . S
C742 H755 0.961 . S
C742 H756 0.961 . S
C743 C740 1.539 . S
C743 H757 0.958 . S
C743 H758 0.961 . S
C743 H759 0.960 . S
H744 C728 0.931 . S
H745 C733 0.929 . S
H746 C734 0.960 . S
H747 C734 0.962 . S
H748 C734 0.960 . S
H749 C735 0.961 . S
H750 C735 0.961 . S
H751 C735 0.961 . S
H752 C736 0.931 . S
H753 C741 0.930 . S
H754 C742 0.956 . S
H755 C742 0.961 . S
H756 C742 0.961 . S
H757 C743 0.958 . S
H758 C743 0.961 . S
H759 C743 0.960 . S
C760 C761 1.391 . S
C760 C762 1.394 . S
C760 H776 0.931 . S
C761 C760 1.391 . S
C761 C765 1.376 . S
C762 C760 1.394 . S
C762 C763 1.369 . S
C762 C766 1.531 . S
C763 C762 1.369 . S
C763 C764 1.410 . S
C763 C771 1.503 . S
C764 C763 1.410 . S
C764 C765 1.392 . S
C764 C767 1.511 . S
C765 C761 1.376 . S
C765 C764 1.392 . S
C765 H777 0.929 . S
C766 C762 1.531 . S
C766 H778 0.960 . S
C766 H779 0.962 . S
C766 H780 0.960 . S
C767 C764 1.511 . S
C767 H781 0.961 . S
C767 H782 0.961 . S
C767 H783 0.961 . S
C768 C769 1.370 . S
C768 C770 1.363 . S
C768 H784 0.931 . S
C769 C768 1.370 . S
C769 C773 1.408 . S
C770 C768 1.363 . S
C770 C771 1.370 . S
C770 C774 1.524 . S
C771 C763 1.503 . S
C771 C770 1.370 . S
C771 C772 1.403 . S
C772 C771 1.403 . S
C772 C773 1.404 . S
C772 C775 1.539 . S
C773 C769 1.408 . S
C773 C772 1.404 . S
C773 H785 0.930 1_554 S
C774 C770 1.524 . S
C774 H786 0.956 . S
C774 H787 0.961 . S
C774 H788 0.961 . S
C775 C772 1.539 . S
C775 H789 0.958 . S
C775 H790 0.961 1_554 S
C775 H791 0.960 . S
H776 C760 0.931 . S
H777 C765 0.929 . S
H778 C766 0.960 . S
H779 C766 0.962 . S
H780 C766 0.960 . S
H781 C767 0.961 . S
H782 C767 0.961 . S
H783 C767 0.961 . S
H784 C768 0.931 . S
H785 C773 0.930 1_556 S
H786 C774 0.956 . S
H787 C774 0.961 . S
H788 C774 0.961 . S
H789 C775 0.958 . S
H790 C775 0.961 1_556 S
H791 C775 0.960 . S
C792 C793 1.391 . S
C792 C794 1.394 . S
C792 H808 0.931 . S
C793 C792 1.391 . S
C793 C797 1.376 . S
C794 C792 1.394 . S
C794 C795 1.369 . S
C794 C798 1.531 . S
C795 C794 1.369 . S
C795 C796 1.410 . S
C795 C803 1.503 . S
C796 C795 1.410 . S
C796 C797 1.392 . S
C796 C799 1.511 . S
C797 C793 1.376 . S
C797 C796 1.392 . S
C797 H809 0.929 . S
C798 C794 1.531 . S
C798 H810 0.960 . S
C798 H811 0.962 . S
C798 H812 0.960 . S
C799 C796 1.511 . S
C799 H813 0.961 . S
C799 H814 0.961 . S
C799 H815 0.961 . S
C800 C801 1.370 . S
C800 C802 1.363 . S
C800 H816 0.931 . S
C801 C800 1.370 . S
C801 C805 1.408 . S
C802 C800 1.363 . S
C802 C803 1.370 . S
C802 C806 1.524 . S
C803 C795 1.503 . S
C803 C802 1.370 . S
C803 C804 1.403 . S
C804 C803 1.403 . S
C804 C805 1.404 . S
C804 C807 1.539 . S
C805 C801 1.408 . S
C805 C804 1.404 . S
C805 H817 0.930 . S
C806 C802 1.524 . S
C806 H818 0.956 . S
C806 H819 0.961 . S
C806 H820 0.961 . S
C807 C804 1.539 . S
C807 H821 0.958 . S
C807 H822 0.961 . S
C807 H823 0.960 . S
H808 C792 0.931 . S
H809 C797 0.929 . S
H810 C798 0.960 . S
H811 C798 0.962 . S
H812 C798 0.960 . S
H813 C799 0.961 . S
H814 C799 0.961 . S
H815 C799 0.961 . S
H816 C800 0.931 . S
H817 C805 0.930 . S
H818 C806 0.956 . S
H819 C806 0.961 . S
H820 C806 0.961 . S
H821 C807 0.958 . S
H822 C807 0.961 . S
H823 C807 0.960 . S
C824 C825 1.391 . S
C824 C826 1.394 . S
C824 H840 0.931 . S
C825 C824 1.391 . S
C825 C829 1.376 . S
C826 C824 1.394 . S
C826 C827 1.369 . S
C826 C830 1.531 . S
C827 C826 1.369 . S
C827 C828 1.410 . S
C827 C835 1.503 . S
C828 C827 1.410 . S
C828 C829 1.392 . S
C828 C831 1.511 . S
C829 C825 1.376 . S
C829 C828 1.392 . S
C829 H841 0.929 . S
C830 C826 1.531 . S
C830 H842 0.960 . S
C830 H843 0.962 . S
C830 H844 0.960 . S
C831 C828 1.511 . S
C831 H845 0.961 . S
C831 H846 0.961 . S
C831 H847 0.961 . S
C832 C833 1.370 . S
C832 C834 1.363 . S
C832 H848 0.931 . S
C833 C832 1.370 . S
C833 C837 1.408 . S
C834 C832 1.363 . S
C834 C835 1.370 . S
C834 C838 1.524 . S
C835 C827 1.503 . S
C835 C834 1.370 . S
C835 C836 1.403 . S
C836 C835 1.403 . S
C836 C837 1.404 . S
C836 C839 1.539 . S
C837 C833 1.408 . S
C837 C836 1.404 . S
C837 H849 0.930 . S
C838 C834 1.524 . S
C838 H850 0.956 . S
C838 H851 0.961 . S
C838 H852 0.961 . S
C839 C836 1.539 . S
C839 H853 0.958 . S
C839 H854 0.961 . S
C839 H855 0.960 . S
H840 C824 0.931 . S
H841 C829 0.929 . S
H842 C830 0.960 . S
H843 C830 0.962 . S
H844 C830 0.960 . S
H845 C831 0.961 . S
H846 C831 0.961 . S
H847 C831 0.961 . S
H848 C832 0.931 . S
H849 C837 0.930 . S
H850 C838 0.956 . S
H851 C838 0.961 . S
H852 C838 0.961 . S
H853 C839 0.958 . S
H854 C839 0.961 . S
H855 C839 0.960 . S
C856 C857 1.391 . S
C856 C858 1.394 . S
C856 H872 0.931 . S
C857 C856 1.391 . S
C857 C861 1.376 . S
C858 C856 1.394 . S
C858 C859 1.369 . S
C858 C862 1.531 . S
C859 C858 1.369 . S
C859 C860 1.410 . S
C859 C867 1.503 . S
C860 C859 1.410 . S
C860 C861 1.392 . S
C860 C863 1.511 . S
C861 C857 1.376 . S
C861 C860 1.392 . S
C861 H873 0.929 . S
C862 C858 1.531 . S
C862 H874 0.960 . S
C862 H875 0.962 . S
C862 H876 0.960 . S
C863 C860 1.511 . S
C863 H877 0.961 . S
C863 H878 0.961 . S
C863 H879 0.961 . S
C864 C865 1.370 . S
C864 C866 1.363 . S
C864 H880 0.931 . S
C865 C864 1.370 . S
C865 C869 1.408 . S
C866 C864 1.363 . S
C866 C867 1.370 . S
C866 C870 1.524 . S
C867 C859 1.503 . S
C867 C866 1.370 . S
C867 C868 1.403 . S
C868 C867 1.403 . S
C868 C869 1.404 . S
C868 C871 1.539 . S
C869 C865 1.408 . S
C869 C868 1.404 . S
C869 H881 0.930 . S
C870 C866 1.524 . S
C870 H882 0.956 . S
C870 H883 0.961 . S
C870 H884 0.961 . S
C871 C868 1.539 . S
C871 H885 0.958 . S
C871 H886 0.961 . S
C871 H887 0.960 . S
H872 C856 0.931 . S
H873 C861 0.929 . S
H874 C862 0.960 . S
H875 C862 0.962 . S
H876 C862 0.960 . S
H877 C863 0.961 . S
H878 C863 0.961 . S
H879 C863 0.961 . S
H880 C864 0.931 . S
H881 C869 0.930 . S
H882 C870 0.956 . S
H883 C870 0.961 . S
H884 C870 0.961 . S
H885 C871 0.958 . S
H886 C871 0.961 . S
H887 C871 0.960 . S
C888 C889 1.391 . S
C888 C890 1.394 . S
C888 H904 0.931 . S
C889 C888 1.391 . S
C889 C893 1.376 . S
C890 C888 1.394 . S
C890 C891 1.369 . S
C890 C894 1.531 . S
C891 C890 1.369 . S
C891 C892 1.410 . S
C891 C899 1.503 1_455 S
C892 C891 1.410 . S
C892 C893 1.392 . S
C892 C895 1.511 1_455 S
C893 C889 1.376 . S
C893 C892 1.392 . S
C893 H905 0.929 . S
C894 C890 1.531 . S
C894 H906 0.960 . S
C894 H907 0.962 . S
C894 H908 0.960 . S
C895 C892 1.511 1_655 S
C895 H909 0.961 . S
C895 H910 0.961 . S
C895 H911 0.961 . S
C896 C897 1.370 . S
C896 C898 1.363 . S
C896 H912 0.931 . S
C897 C896 1.370 . S
C897 C901 1.408 . S
C898 C896 1.363 . S
C898 C899 1.370 . S
C898 C902 1.524 . S
C899 C891 1.503 1_655 S
C899 C898 1.370 . S
C899 C900 1.403 . S
C900 C899 1.403 . S
C900 C901 1.404 . S
C900 C903 1.539 . S
C901 C897 1.408 . S
C901 C900 1.404 . S
C901 H913 0.930 . S
C902 C898 1.524 . S
C902 H914 0.956 1_655 S
C902 H915 0.961 . S
C902 H916 0.961 . S
C903 C900 1.539 . S
C903 H917 0.958 . S
C903 H918 0.961 . S
C903 H919 0.960 . S
H904 C888 0.931 . S
H905 C893 0.929 . S
H906 C894 0.960 . S
H907 C894 0.962 . S
H908 C894 0.960 . S
H909 C895 0.961 . S
H910 C895 0.961 . S
H911 C895 0.961 . S
H912 C896 0.931 . S
H913 C901 0.930 . S
H914 C902 0.956 1_455 S
H915 C902 0.961 . S
H916 C902 0.961 . S
H917 C903 0.958 . S
H918 C903 0.961 . S
H919 C903 0.960 . S
C920 C921 1.391 . S
C920 C922 1.394 . S
C920 H936 0.931 . S
C921 C920 1.391 . S
C921 C925 1.376 . S
C922 C920 1.394 . S
C922 C923 1.369 . S
C922 C926 1.531 . S
C923 C922 1.369 . S
C923 C924 1.410 . S
C923 C931 1.503 . S
C924 C923 1.410 . S
C924 C925 1.392 . S
C924 C927 1.511 . S
C925 C921 1.376 . S
C925 C924 1.392 . S
C925 H937 0.929 . S
C926 C922 1.531 . S
C926 H938 0.960 . S
C926 H939 0.962 . S
C926 H940 0.960 . S
C927 C924 1.511 . S
C927 H941 0.961 . S
C927 H942 0.961 . S
C927 H943 0.961 . S
C928 C929 1.370 . S
C928 C930 1.363 . S
C928 H944 0.931 . S
C929 C928 1.370 . S
C929 C933 1.408 . S
C930 C928 1.363 . S
C930 C931 1.370 . S
C930 C934 1.524 . S
C931 C923 1.503 . S
C931 C930 1.370 . S
C931 C932 1.403 . S
C932 C931 1.403 . S
C932 C933 1.404 . S
C932 C935 1.539 . S
C933 C929 1.408 . S
C933 C932 1.404 . S
C933 H945 0.930 . S
C934 C930 1.524 . S
C934 H946 0.956 . S
C934 H947 0.961 . S
C934 H948 0.961 . S
C935 C932 1.539 . S
C935 H949 0.958 . S
C935 H950 0.961 . S
C935 H951 0.960 . S
H936 C920 0.931 . S
H937 C925 0.929 . S
H938 C926 0.960 . S
H939 C926 0.962 . S
H940 C926 0.960 . S
H941 C927 0.961 . S
H942 C927 0.961 . S
H943 C927 0.961 . S
H944 C928 0.931 . S
H945 C933 0.930 . S
H946 C934 0.956 . S
H947 C934 0.961 . S
H948 C934 0.961 . S
H949 C935 0.958 . S
H950 C935 0.961 . S
H951 C935 0.960 . S
C952 C953 1.391 . S
C952 C954 1.394 . S
C952 H968 0.931 . S
C953 C952 1.391 . S
C953 C957 1.376 . S
C954 C952 1.394 . S
C954 C955 1.369 . S
C954 C958 1.531 1_565 S
C955 C954 1.369 . S
C955 C956 1.410 . S
C955 C963 1.503 1_565 S
C956 C955 1.410 . S
C956 C957 1.392 . S
C956 C959 1.511 . S
C957 C953 1.376 . S
C957 C956 1.392 . S
C957 H969 0.929 . S
C958 C954 1.531 1_545 S
C958 H970 0.960 . S
C958 H971 0.962 1_545 S
C958 H972 0.965 . S
C959 C956 1.511 . S
C959 H973 0.961 . S
C959 H974 0.961 . S
C959 H975 0.961 . S
C960 C961 1.370 . S
C960 C962 1.363 . S
C960 H976 0.931 . S
C961 C960 1.370 . S
C961 C965 1.408 . S
C962 C960 1.363 . S
C962 C963 1.370 . S
C962 C966 1.524 1_545 S
C963 C955 1.503 1_545 S
C963 C962 1.370 . S
C963 C964 1.403 . S
C964 C963 1.403 . S
C964 C965 1.404 . S
C964 C967 1.539 . S
C965 C961 1.408 . S
C965 C964 1.404 . S
C965 H977 0.930 . S
C966 C962 1.524 1_565 S
C966 H978 0.956 . S
C966 H979 0.961 . S
C966 H980 0.961 . S
C967 C964 1.539 . S
C967 H981 0.958 . S
C967 H982 0.961 . S
C967 H983 0.960 . S
H968 C952 0.931 . S
H969 C957 0.929 . S
H970 C958 0.960 . S
H971 C958 0.962 1_565 S
H972 C958 0.965 . S
H973 C959 0.961 . S
H974 C959 0.961 . S
H975 C959 0.961 . S
H976 C960 0.931 . S
H977 C965 0.930 . S
H978 C966 0.956 . S
H979 C966 0.961 . S
H980 C966 0.961 . S
H981 C967 0.958 . S
H982 C967 0.961 . S
H983 C967 0.960 . S
C984 C985 1.391 . S
C984 C986 1.394 . S
C984 H1000 0.931 . S
C985 C984 1.391 . S
C985 C989 1.376 . S
C986 C984 1.394 . S
C986 C987 1.369 . S
C986 C990 1.531 1_565 S
C987 C986 1.369 . S
C987 C988 1.410 . S
C987 C995 1.503 1_565 S
C988 C987 1.410 . S
C988 C989 1.392 . S
C988 C991 1.511 . S
C989 C985 1.376 . S
C989 C988 1.392 . S
C989 H1001 0.929 . S
C990 C986 1.531 1_545 S
C990 H1002 0.960 . S
C990 H1003 0.962 . S
C990 H1004 0.960 . S
C991 C988 1.511 . S
C991 H1005 0.961 . S
C991 H1006 0.961 . S
C991 H1007 0.961 . S
C992 C993 1.370 . S
C992 C994 1.363 . S
C992 H1008 0.931 . S
C993 C992 1.370 . S
C993 C997 1.408 . S
C994 C992 1.363 . S
C994 C995 1.370 . S
C994 C998 1.524 1_545 S
C995 C987 1.503 1_545 S
C995 C994 1.370 . S
C995 C996 1.403 . S
C996 C995 1.403 . S
C996 C997 1.404 . S
C996 C999 1.539 . S
C997 C993 1.408 . S
C997 C996 1.404 . S
C997 H1009 0.930 . S
C998 C994 1.524 1_565 S
C998 H1010 0.956 . S
C998 H1011 0.961 . S
C998 H1012 0.961 . S
C999 C996 1.539 . S
C999 H1013 0.958 . S
C999 H1014 0.961 . S
C999 H1015 0.960 . S
H1000 C984 0.931 . S
H1001 C989 0.929 . S
H1002 C990 0.960 . S
H1003 C990 0.962 . S
H1004 C990 0.960 . S
H1005 C991 0.961 . S
H1006 C991 0.961 . S
H1007 C991 0.961 . S
H1008 C992 0.931 . S
H1009 C997 0.930 . S
H1010 C998 0.956 . S
H1011 C998 0.961 . S
H1012 C998 0.961 . S
H1013 C999 0.958 . S
H1014 C999 0.961 . S
H1015 C999 0.960 . S
C1016 C1017 1.391 . S
C1016 C1018 1.394 . S
C1016 H1032 0.931 . S
C1017 C1016 1.391 . S
C1017 C1021 1.376 . S
C1018 C1016 1.394 . S
C1018 C1019 1.369 . S
C1018 C1022 1.531 . S
C1019 C1018 1.369 . S
C1019 C1020 1.410 . S
C1019 C1027 1.503 1_455 S
C1020 C1019 1.410 . S
C1020 C1021 1.392 . S
C1020 C1023 1.511 1_455 S
C1021 C1017 1.376 . S
C1021 C1020 1.392 . S
C1021 H1033 0.929 . S
C1022 C1018 1.531 . S
C1022 H1034 0.960 . S
C1022 H1035 0.962 . S
C1022 H1036 0.960 . S
C1023 C1020 1.511 1_655 S
C1023 H1037 0.961 . S
C1023 H1038 0.961 . S
C1023 H1039 0.961 . S
C1024 C1025 1.370 . S
C1024 C1026 1.363 . S
C1024 H1040 0.931 . S
C1025 C1024 1.370 . S
C1025 C1029 1.408 . S
C1026 C1024 1.363 . S
C1026 C1027 1.370 . S
C1026 C1030 1.524 . S
C1027 C1019 1.503 1_655 S
C1027 C1026 1.370 . S
C1027 C1028 1.403 . S
C1028 C1027 1.403 . S
C1028 C1029 1.404 . S
C1028 C1031 1.541 . S
C1029 C1025 1.408 . S
C1029 C1028 1.404 . S
C1029 H1041 0.930 . S
C1030 C1026 1.524 . S
C1030 H1042 0.956 . S
C1030 H1043 0.961 . S
C1030 H1044 0.961 . S
C1031 C1028 1.541 . S
C1031 H1045 0.935 1_655 S
C1031 H1046 0.996 . S
C1031 H1047 0.948 1_655 S
H1032 C1016 0.931 . S
H1033 C1021 0.929 . S
H1034 C1022 0.960 . S
H1035 C1022 0.962 . S
H1036 C1022 0.960 . S
H1037 C1023 0.961 . S
H1038 C1023 0.961 . S
H1039 C1023 0.961 . S
H1040 C1024 0.931 . S
H1041 C1029 0.930 . S
H1042 C1030 0.956 . S
H1043 C1030 0.961 . S
H1044 C1030 0.961 . S
H1045 C1031 0.935 1_455 S
H1046 C1031 0.996 . S
H1047 C1031 0.948 1_455 S
C1048 C1049 1.391 . S
C1048 C1050 1.394 . S
C1048 H1064 0.931 . S
C1049 C1048 1.391 . S
C1049 C1053 1.376 . S
C1050 C1048 1.394 . S
C1050 C1051 1.369 . S
C1050 C1054 1.531 . S
C1051 C1050 1.369 . S
C1051 C1052 1.410 . S
C1051 C1059 1.503 . S
C1052 C1051 1.410 . S
C1052 C1053 1.392 . S
C1052 C1055 1.511 . S
C1053 C1049 1.376 . S
C1053 C1052 1.392 . S
C1053 H1065 0.929 . S
C1054 C1050 1.531 . S
C1054 H1066 0.960 . S
C1054 H1067 0.962 . S
C1054 H1068 0.960 . S
C1055 C1052 1.511 . S
C1055 H1069 0.961 . S
C1055 H1070 0.961 . S
C1055 H1071 0.961 . S
C1056 C1057 1.370 . S
C1056 C1058 1.363 . S
C1056 H1072 0.931 . S
C1057 C1056 1.370 . S
C1057 C1061 1.408 . S
C1058 C1056 1.363 . S
C1058 C1059 1.370 . S
C1058 C1062 1.524 . S
C1059 C1051 1.503 . S
C1059 C1058 1.370 . S
C1059 C1060 1.403 . S
C1060 C1059 1.403 . S
C1060 C1061 1.404 . S
C1060 C1063 1.539 . S
C1061 C1057 1.408 . S
C1061 C1060 1.404 . S
C1061 H1073 0.930 . S
C1062 C1058 1.524 . S
C1062 H1074 0.956 . S
C1062 H1075 0.961 . S
C1062 H1076 0.961 . S
C1063 C1060 1.539 . S
C1063 H1077 0.958 . S
C1063 H1078 0.961 . S
C1063 H1079 0.960 . S
H1064 C1048 0.931 . S
H1065 C1053 0.929 . S
H1066 C1054 0.960 . S
H1067 C1054 0.962 . S
H1068 C1054 0.960 . S
H1069 C1055 0.961 . S
H1070 C1055 0.961 . S
H1071 C1055 0.961 . S
H1072 C1056 0.931 . S
H1073 C1061 0.930 . S
H1074 C1062 0.956 . S
H1075 C1062 0.961 . S
H1076 C1062 0.961 . S
H1077 C1063 0.958 . S
H1078 C1063 0.961 . S
H1079 C1063 0.960 . S
C1080 C1081 1.399 . S
C1080 C1082 1.386 1_556 S
C1080 H1096 0.930 . S
C1081 C1080 1.399 . S
C1081 C1085 1.376 . S
C1082 C1080 1.386 1_554 S
C1082 C1083 1.369 . S
C1082 C1086 1.531 . S
C1083 C1082 1.369 . S
C1083 C1084 1.405 1_554 S
C1083 C1091 1.503 . S
C1084 C1083 1.405 1_556 S
C1084 C1085 1.397 . S
C1084 C1087 1.511 . S
C1085 C1081 1.376 . S
C1085 C1084 1.397 . S
C1085 H1097 0.929 . S
C1086 C1082 1.531 . S
C1086 H1098 0.960 . S
C1086 H1099 0.962 . S
C1086 H1100 0.960 . S
C1087 C1084 1.511 . S
C1087 H1101 0.960 . S
C1087 H1102 0.961 . S
C1087 H1103 0.961 1_556 S
C1088 C1089 1.343 1_556 S
C1088 C1090 1.369 . S
C1088 H1104 0.952 . S
C1089 C1088 1.343 1_554 S
C1089 C1093 1.408 . S
C1090 C1088 1.369 . S
C1090 C1091 1.370 1_556 S
C1090 C1094 1.524 . S
C1091 C1083 1.503 . S
C1091 C1090 1.370 1_554 S
C1091 C1092 1.403 . S
C1092 C1091 1.403 . S
C1092 C1093 1.404 . S
C1092 C1095 1.539 . S
C1093 C1089 1.408 . S
C1093 C1092 1.404 . S
C1093 H1105 0.930 . S
C1094 C1090 1.524 . S
C1094 H1106 0.956 . S
C1094 H1107 0.961 . S
C1094 H1108 0.961 . S
C1095 C1092 1.539 . S
C1095 H1109 0.958 . S
C1095 H1110 0.961 . S
C1095 H1111 0.960 . S
H1096 C1080 0.930 . S
H1097 C1085 0.929 . S
H1098 C1086 0.960 . S
H1099 C1086 0.962 . S
H1100 C1086 0.960 . S
H1101 C1087 0.960 . S
H1102 C1087 0.961 . S
H1103 C1087 0.961 1_554 S
H1104 C1088 0.952 . S
H1105 C1093 0.930 . S
H1106 C1094 0.956 . S
H1107 C1094 0.961 . S
H1108 C1094 0.961 . S
H1109 C1095 0.958 . S
H1110 C1095 0.961 . S
H1111 C1095 0.960 . S
C1112 C1113 1.391 . S
C1112 C1114 1.394 . S
C1112 H1128 0.931 . S
C1113 C1112 1.391 . S
C1113 C1117 1.376 1_556 S
C1114 C1112 1.394 . S
C1114 C1115 1.369 1_556 S
C1114 C1118 1.531 . S
C1115 C1114 1.369 1_554 S
C1115 C1116 1.410 . S
C1115 C1123 1.503 . S
C1116 C1115 1.410 . S
C1116 C1117 1.392 . S
C1116 C1119 1.511 . S
C1117 C1113 1.376 1_554 S
C1117 C1116 1.392 . S
C1117 H1129 0.929 . S
C1118 C1114 1.531 . S
C1118 H1130 0.960 1_556 S
C1118 H1131 0.962 . S
C1118 H1132 0.960 . S
C1119 C1116 1.511 . S
C1119 H1133 0.961 . S
C1119 H1134 0.961 . S
C1119 H1135 0.961 . S
C1120 C1121 1.350 1_556 S
C1120 C1122 1.368 . S
C1120 H1136 0.947 . S
C1121 C1120 1.350 1_554 S
C1121 C1125 1.408 . S
C1122 C1120 1.368 . S
C1122 C1123 1.370 1_556 S
C1122 C1126 1.524 . S
C1123 C1115 1.503 . S
C1123 C1122 1.370 1_554 S
C1123 C1124 1.403 . S
C1124 C1123 1.403 . S
C1124 C1125 1.404 . S
C1124 C1127 1.539 . S
C1125 C1121 1.408 . S
C1125 C1124 1.404 . S
C1125 H1137 0.930 . S
C1126 C1122 1.524 . S
C1126 H1138 0.956 . S
C1126 H1139 0.961 . S
C1126 H1140 0.961 . S
C1127 C1124 1.539 . S
C1127 H1141 0.958 . S
C1127 H1142 0.961 . S
C1127 H1143 0.960 . S
H1128 C1112 0.931 . S
H1129 C1117 0.929 . S
H1130 C1118 0.960 1_554 S
H1131 C1118 0.962 . S
H1132 C1118 0.960 . S
H1133 C1119 0.961 . S
H1134 C1119 0.961 . S
H1135 C1119 0.961 . S
H1136 C1120 0.947 . S
H1137 C1125 0.930 . S
H1138 C1126 0.956 . S
H1139 C1126 0.961 . S
H1140 C1126 0.961 . S
H1141 C1127 0.958 . S
H1142 C1127 0.961 . S
H1143 C1127 0.960 . S
C1144 C1145 1.391 1_554 S
C1144 C1146 1.394 . S
C1144 H1160 0.931 . S
C1145 C1144 1.391 1_556 S
C1145 C1149 1.376 . S
C1146 C1144 1.394 . S
C1146 C1147 1.369 1_554 S
C1146 C1150 1.531 . S
C1147 C1146 1.369 1_556 S
C1147 C1148 1.409 . S
C1147 C1155 1.503 1_556 S
C1148 C1147 1.409 . S
C1148 C1149 1.392 . S
C1148 C1151 1.511 . S
C1149 C1145 1.376 . S
C1149 C1148 1.392 . S
C1149 H1161 0.929 . S
C1150 C1146 1.531 . S
C1150 H1162 0.960 . S
C1150 H1163 0.962 . S
C1150 H1164 0.960 . S
C1151 C1148 1.511 . S
C1151 H1165 0.961 . S
C1151 H1166 0.961 . S
C1151 H1167 0.961 . S
C1152 C1153 1.370 . S
C1152 C1154 1.363 . S
C1152 H1168 0.931 . S
C1153 C1152 1.370 . S
C1153 C1157 1.408 . S
C1154 C1152 1.363 . S
C1154 C1155 1.370 . S
C1154 C1158 1.524 . S
C1155 C1147 1.503 1_554 S
C1155 C1154 1.370 . S
C1155 C1156 1.403 . S
C1156 C1155 1.403 . S
C1156 C1157 1.404 . S
C1156 C1159 1.539 1_554 S
C1157 C1153 1.408 . S
C1157 C1156 1.404 . S
C1157 H1169 0.930 . S
C1158 C1154 1.524 . S
C1158 H1170 0.956 . S
C1158 H1171 0.961 . S
C1158 H1172 0.961 . S
C1159 C1156 1.539 1_556 S
C1159 H1173 0.945 1_556 S
C1159 H1174 0.961 . S
C1159 H1175 0.960 . S
H1160 C1144 0.931 . S
H1161 C1149 0.929 . S
H1162 C1150 0.960 . S
H1163 C1150 0.962 . S
H1164 C1150 0.960 . S
H1165 C1151 0.961 . S
H1166 C1151 0.961 . S
H1167 C1151 0.961 . S
H1168 C1152 0.931 . S
H1169 C1157 0.930 . S
H1170 C1158 0.956 . S
H1171 C1158 0.961 . S
H1172 C1158 0.961 . S
H1173 C1159 0.945 1_554 S
H1174 C1159 0.961 . S
H1175 C1159 0.960 . S
C1176 C1177 1.391 . S
C1176 C1178 1.394 . S
C1176 H1192 0.931 . S
C1177 C1176 1.391 . S
C1177 C1181 1.376 . S
C1178 C1176 1.394 . S
C1178 C1179 1.369 . S
C1178 C1182 1.531 . S
C1179 C1178 1.369 . S
C1179 C1180 1.410 . S
C1179 C1187 1.503 . S
C1180 C1179 1.410 . S
C1180 C1181 1.392 . S
C1180 C1183 1.511 . S
C1181 C1177 1.376 . S
C1181 C1180 1.392 . S
C1181 H1193 0.929 . S
C1182 C1178 1.531 . S
C1182 H1194 0.960 . S
C1182 H1195 0.962 . S
C1182 H1196 0.960 . S
C1183 C1180 1.511 . S
C1183 H1197 0.961 . S
C1183 H1198 0.961 . S
C1183 H1199 0.961 . S
C1184 C1185 1.370 . S
C1184 C1186 1.363 . S
C1184 H1200 0.931 . S
C1185 C1184 1.370 . S
C1185 C1189 1.408 . S
C1186 C1184 1.363 . S
C1186 C1187 1.370 . S
C1186 C1190 1.524 . S
C1187 C1179 1.503 . S
C1187 C1186 1.370 . S
C1187 C1188 1.403 . S
C1188 C1187 1.403 . S
C1188 C1189 1.404 . S
C1188 C1191 1.539 . S
C1189 C1185 1.408 . S
C1189 C1188 1.404 . S
C1189 H1201 0.930 . S
C1190 C1186 1.524 . S
C1190 H1202 0.956 . S
C1190 H1203 0.961 . S
C1190 H1204 0.961 . S
C1191 C1188 1.539 . S
C1191 H1205 0.958 . S
C1191 H1206 0.961 . S
C1191 H1207 0.960 . S
H1192 C1176 0.931 . S
H1193 C1181 0.929 . S
H1194 C1182 0.960 . S
H1195 C1182 0.962 . S
H1196 C1182 0.960 . S
H1197 C1183 0.961 . S
H1198 C1183 0.961 . S
H1199 C1183 0.961 . S
H1200 C1184 0.931 . S
H1201 C1189 0.930 . S
H1202 C1190 0.956 . S
H1203 C1190 0.961 . S
H1204 C1190 0.961 . S
H1205 C1191 0.958 . S
H1206 C1191 0.961 . S
H1207 C1191 0.960 . S
C1208 C1209 1.391 . S
C1208 C1210 1.394 . S
C1208 H1224 0.931 . S
C1209 C1208 1.391 . S
C1209 C1213 1.376 . S
C1210 C1208 1.394 . S
C1210 C1211 1.369 . S
C1210 C1214 1.531 . S
C1211 C1210 1.369 . S
C1211 C1212 1.410 . S
C1211 C1219 1.503 . S
C1212 C1211 1.410 . S
C1212 C1213 1.392 . S
C1212 C1215 1.511 . S
C1213 C1209 1.376 . S
C1213 C1212 1.392 . S
C1213 H1225 0.929 . S
C1214 C1210 1.531 . S
C1214 H1226 0.960 . S
C1214 H1227 0.962 . S
C1214 H1228 0.960 . S
C1215 C1212 1.511 . S
C1215 H1229 0.961 . S
C1215 H1230 0.961 . S
C1215 H1231 0.961 . S
C1216 C1217 1.370 . S
C1216 C1218 1.363 . S
C1216 H1232 0.931 . S
C1217 C1216 1.370 . S
C1217 C1221 1.408 . S
C1218 C1216 1.363 . S
C1218 C1219 1.370 . S
C1218 C1222 1.524 . S
C1219 C1211 1.503 . S
C1219 C1218 1.370 . S
C1219 C1220 1.403 . S
C1220 C1219 1.403 . S
C1220 C1221 1.404 . S
C1220 C1223 1.539 . S
C1221 C1217 1.408 . S
C1221 C1220 1.404 . S
C1221 H1233 0.930 . S
C1222 C1218 1.524 . S
C1222 H1234 0.956 . S
C1222 H1235 0.961 . S
C1222 H1236 0.961 . S
C1223 C1220 1.539 . S
C1223 H1237 0.958 . S
C1223 H1238 0.961 . S
C1223 H1239 0.960 . S
H1224 C1208 0.931 . S
H1225 C1213 0.929 . S
H1226 C1214 0.960 . S
H1227 C1214 0.962 . S
H1228 C1214 0.960 . S
H1229 C1215 0.961 . S
H1230 C1215 0.961 . S
H1231 C1215 0.961 . S
H1232 C1216 0.931 . S
H1233 C1221 0.930 . S
H1234 C1222 0.956 . S
H1235 C1222 0.961 . S
H1236 C1222 0.961 . S
H1237 C1223 0.958 . S
H1238 C1223 0.961 . S
H1239 C1223 0.960 . S
C1240 C1241 1.391 . S
C1240 C1242 1.394 . S
C1240 H1256 0.931 . S
C1241 C1240 1.391 . S
C1241 C1245 1.376 . S
C1242 C1240 1.394 . S
C1242 C1243 1.369 . S
C1242 C1246 1.531 . S
C1243 C1242 1.369 . S
C1243 C1244 1.410 . S
C1243 C1251 1.503 . S
C1244 C1243 1.410 . S
C1244 C1245 1.392 . S
C1244 C1247 1.511 . S
C1245 C1241 1.376 . S
C1245 C1244 1.392 . S
C1245 H1257 0.929 . S
C1246 C1242 1.531 . S
C1246 H1258 0.960 . S
C1246 H1259 0.962 . S
C1246 H1260 0.960 . S
C1247 C1244 1.511 . S
C1247 H1261 0.961 . S
C1247 H1262 0.961 . S
C1247 H1263 0.961 . S
C1248 C1249 1.370 . S
C1248 C1250 1.363 . S
C1248 H1264 0.931 . S
C1249 C1248 1.370 . S
C1249 C1253 1.408 . S
C1250 C1248 1.363 . S
C1250 C1251 1.370 . S
C1250 C1254 1.524 . S
C1251 C1243 1.503 . S
C1251 C1250 1.370 . S
C1251 C1252 1.403 . S
C1252 C1251 1.403 . S
C1252 C1253 1.404 . S
C1252 C1255 1.539 . S
C1253 C1249 1.408 . S
C1253 C1252 1.404 . S
C1253 H1265 0.930 . S
C1254 C1250 1.524 . S
C1254 H1266 0.956 . S
C1254 H1267 0.961 . S
C1254 H1268 0.961 . S
C1255 C1252 1.539 . S
C1255 H1269 0.958 . S
C1255 H1270 0.961 . S
C1255 H1271 0.960 . S
H1256 C1240 0.931 . S
H1257 C1245 0.929 . S
H1258 C1246 0.960 . S
H1259 C1246 0.962 . S
H1260 C1246 0.960 . S
H1261 C1247 0.961 . S
H1262 C1247 0.961 . S
H1263 C1247 0.961 . S
H1264 C1248 0.931 . S
H1265 C1253 0.930 . S
H1266 C1254 0.956 . S
H1267 C1254 0.961 . S
H1268 C1254 0.961 . S
H1269 C1255 0.958 . S
H1270 C1255 0.961 . S
H1271 C1255 0.960 . S
C1272 C1273 1.391 1_556 S
C1272 C1274 1.394 . S
C1272 H1288 0.931 . S
C1273 C1272 1.391 1_554 S
C1273 C1277 1.376 . S
C1274 C1272 1.394 . S
C1274 C1275 1.369 . S
C1274 C1278 1.531 . S
C1275 C1274 1.369 . S
C1275 C1276 1.410 1_556 S
C1275 C1283 1.503 . S
C1276 C1275 1.410 1_554 S
C1276 C1277 1.392 . S
C1276 C1279 1.511 . S
C1277 C1273 1.376 . S
C1277 C1276 1.392 . S
C1277 H1289 0.929 . S
C1278 C1274 1.531 . S
C1278 H1290 0.960 . S
C1278 H1291 0.962 . S
C1278 H1292 0.960 . S
C1279 C1276 1.511 . S
C1279 H1293 0.961 . S
C1279 H1294 0.961 . S
C1279 H1295 0.961 . S
C1280 C1281 1.370 . S
C1280 C1282 1.363 . S
C1280 H1296 0.931 . S
C1281 C1280 1.370 . S
C1281 C1285 1.408 . S
C1282 C1280 1.363 . S
C1282 C1283 1.370 . S
C1282 C1286 1.524 1_556 S
C1283 C1275 1.503 . S
C1283 C1282 1.370 . S
C1283 C1284 1.403 . S
C1284 C1283 1.403 . S
C1284 C1285 1.404 . S
C1284 C1287 1.539 . S
C1285 C1281 1.408 . S
C1285 C1284 1.404 . S
C1285 H1297 0.930 . S
C1286 C1282 1.524 1_554 S
C1286 H1298 0.956 1_554 S
C1286 H1299 0.961 . S
C1286 H1300 0.961 . S
C1287 C1284 1.539 . S
C1287 H1301 0.958 . S
C1287 H1302 0.961 . S
C1287 H1303 0.960 . S
H1288 C1272 0.931 . S
H1289 C1277 0.929 . S
H1290 C1278 0.960 . S
H1291 C1278 0.962 . S
H1292 C1278 0.960 . S
H1293 C1279 0.961 . S
H1294 C1279 0.961 . S
H1295 C1279 0.961 . S
H1296 C1280 0.931 . S
H1297 C1285 0.930 . S
H1298 C1286 0.956 1_556 S
H1299 C1286 0.961 . S
H1300 C1286 0.961 . S
H1301 C1287 0.958 . S
H1302 C1287 0.961 . S
H1303 C1287 0.960 . S
C1304 C1305 1.391 . S
C1304 C1306 1.394 . S
C1304 H1320 0.931 . S
C1305 C1304 1.391 . S
C1305 C1309 1.376 . S
C1306 C1304 1.394 . S
C1306 C1307 1.369 . S
C1306 C1310 1.531 . S
C1307 C1306 1.369 . S
C1307 C1308 1.410 . S
C1307 C1315 1.503 . S
C1308 C1307 1.410 . S
C1308 C1309 1.392 . S
C1308 C1311 1.511 1_556 S
C1309 C1305 1.376 . S
C1309 C1308 1.392 . S
C1309 H1321 0.929 . S
C1310 C1306 1.531 . S
C1310 H1322 0.960 . S
C1310 H1323 0.962 . S
C1310 H1324 0.960 . S
C1311 C1308 1.511 1_554 S
C1311 H1325 0.961 . S
C1311 H1326 0.961 . S
C1311 H1327 0.961 1_554 S
C1312 C1313 1.370 . S
C1312 C1314 1.363 . S
C1312 H1328 0.931 . S
C1313 C1312 1.370 . S
C1313 C1317 1.408 1_554 S
C1314 C1312 1.363 . S
C1314 C1315 1.370 1_554 S
C1314 C1318 1.524 . S
C1315 C1307 1.503 . S
C1315 C1314 1.370 1_556 S
C1315 C1316 1.403 . S
C1316 C1315 1.403 . S
C1316 C1317 1.404 . S
C1316 C1319 1.539 . S
C1317 C1313 1.408 1_556 S
C1317 C1316 1.404 . S
C1317 H1329 0.930 . S
C1318 C1314 1.524 . S
C1318 H1330 0.956 . S
C1318 H1331 0.961 . S
C1318 H1332 0.961 . S
C1319 C1316 1.539 . S
C1319 H1333 0.958 . S
C1319 H1334 0.961 . S
C1319 H1335 0.960 . S
H1320 C1304 0.931 . S
H1321 C1309 0.929 . S
H1322 C1310 0.960 . S
H1323 C1310 0.962 . S
H1324 C1310 0.960 . S
H1325 C1311 0.961 . S
H1326 C1311 0.961 . S
H1327 C1311 0.961 1_556 S
H1328 C1312 0.931 . S
H1329 C1317 0.930 . S
H1330 C1318 0.956 . S
H1331 C1318 0.961 . S
H1332 C1318 0.961 . S
H1333 C1319 0.958 . S
H1334 C1319 0.961 . S
H1335 C1319 0.960 . S
C1336 C1337 1.391 1_556 S
C1336 C1338 1.394 . S
C1336 H1352 0.931 . S
C1337 C1336 1.391 1_554 S
C1337 C1341 1.376 . S
C1338 C1336 1.394 . S
C1338 C1339 1.369 . S
C1338 C1342 1.531 . S
C1339 C1338 1.369 . S
C1339 C1340 1.410 1_556 S
C1339 C1347 1.503 . S
C1340 C1339 1.410 1_554 S
C1340 C1341 1.392 . S
C1340 C1343 1.511 . S
C1341 C1337 1.376 . S
C1341 C1340 1.392 . S
C1341 H1353 0.929 . S
C1342 C1338 1.531 . S
C1342 H1354 0.960 . S
C1342 H1355 0.962 . S
C1342 H1356 0.960 . S
C1343 C1340 1.511 . S
C1343 H1357 0.961 . S
C1343 H1358 0.961 . S
C1343 H1359 0.961 . S
C1344 C1345 1.370 . S
C1344 C1346 1.363 . S
C1344 H1360 0.931 . S
C1345 C1344 1.370 . S
C1345 C1349 1.408 . S
C1346 C1344 1.363 . S
C1346 C1347 1.370 . S
C1346 C1350 1.524 1_556 S
C1347 C1339 1.503 . S
C1347 C1346 1.370 . S
C1347 C1348 1.403 . S
C1348 C1347 1.403 . S
C1348 C1349 1.404 . S
C1348 C1351 1.539 . S
C1349 C1345 1.408 . S
C1349 C1348 1.404 . S
C1349 H1361 0.930 . S
C1350 C1346 1.524 1_554 S
C1350 H1362 0.956 1_554 S
C1350 H1363 0.961 . S
C1350 H1364 0.961 . S
C1351 C1348 1.539 . S
C1351 H1365 0.958 . S
C1351 H1366 0.961 . S
C1351 H1367 0.960 . S
H1352 C1336 0.931 . S
H1353 C1341 0.929 . S
H1354 C1342 0.960 . S
H1355 C1342 0.962 . S
H1356 C1342 0.960 . S
H1357 C1343 0.961 . S
H1358 C1343 0.961 . S
H1359 C1343 0.961 . S
H1360 C1344 0.931 . S
H1361 C1349 0.930 . S
H1362 C1350 0.956 1_556 S
H1363 C1350 0.961 . S
H1364 C1350 0.961 . S
H1365 C1351 0.958 . S
H1366 C1351 0.961 . S
H1367 C1351 0.960 . S
C1368 C1369 1.391 . S
C1368 C1370 1.394 . S
C1368 H1384 0.931 . S
C1369 C1368 1.391 . S
C1369 C1373 1.376 . S
C1370 C1368 1.394 . S
C1370 C1371 1.369 . S
C1370 C1374 1.531 . S
C1371 C1370 1.369 . S
C1371 C1372 1.410 . S
C1371 C1379 1.503 . S
C1372 C1371 1.410 . S
C1372 C1373 1.392 . S
C1372 C1375 1.511 . S
C1373 C1369 1.376 . S
C1373 C1372 1.392 . S
C1373 H1385 0.929 . S
C1374 C1370 1.531 . S
C1374 H1386 0.960 . S
C1374 H1387 0.962 . S
C1374 H1388 0.960 . S
C1375 C1372 1.511 . S
C1375 H1389 0.961 . S
C1375 H1390 0.961 . S
C1375 H1391 0.961 . S
C1376 C1377 1.370 . S
C1376 C1378 1.363 . S
C1376 H1392 0.931 . S
C1377 C1376 1.370 . S
C1377 C1381 1.408 . S
C1378 C1376 1.363 . S
C1378 C1379 1.370 . S
C1378 C1382 1.524 . S
C1379 C1371 1.503 . S
C1379 C1378 1.370 . S
C1379 C1380 1.403 . S
C1380 C1379 1.403 . S
C1380 C1381 1.404 . S
C1380 C1383 1.539 . S
C1381 C1377 1.408 . S
C1381 C1380 1.404 . S
C1381 H1393 0.930 . S
C1382 C1378 1.524 . S
C1382 H1394 0.956 . S
C1382 H1395 0.961 . S
C1382 H1396 0.961 . S
C1383 C1380 1.539 . S
C1383 H1397 0.958 . S
C1383 H1398 0.961 . S
C1383 H1399 0.960 . S
H1384 C1368 0.931 . S
H1385 C1373 0.929 . S
H1386 C1374 0.960 . S
H1387 C1374 0.962 . S
H1388 C1374 0.960 . S
H1389 C1375 0.961 . S
H1390 C1375 0.961 . S
H1391 C1375 0.961 . S
H1392 C1376 0.931 . S
H1393 C1381 0.930 . S
H1394 C1382 0.956 . S
H1395 C1382 0.961 . S
H1396 C1382 0.961 . S
H1397 C1383 0.958 . S
H1398 C1383 0.961 . S
H1399 C1383 0.960 . S
C1400 C1401 1.391 . S
C1400 C1402 1.394 . S
C1400 H1416 0.931 . S
C1401 C1400 1.391 . S
C1401 C1405 1.376 . S
C1402 C1400 1.394 . S
C1402 C1403 1.369 . S
C1402 C1406 1.531 . S
C1403 C1402 1.369 . S
C1403 C1404 1.410 . S
C1403 C1411 1.503 . S
C1404 C1403 1.410 . S
C1404 C1405 1.392 . S
C1404 C1407 1.511 . S
C1405 C1401 1.376 . S
C1405 C1404 1.392 . S
C1405 H1417 0.929 . S
C1406 C1402 1.531 . S
C1406 H1418 0.960 . S
C1406 H1419 0.962 . S
C1406 H1420 0.960 . S
C1407 C1404 1.511 . S
C1407 H1421 0.961 . S
C1407 H1422 0.961 . S
C1407 H1423 0.961 . S
C1408 C1409 1.370 . S
C1408 C1410 1.363 . S
C1408 H1424 0.931 . S
C1409 C1408 1.370 . S
C1409 C1413 1.408 . S
C1410 C1408 1.363 . S
C1410 C1411 1.370 . S
C1410 C1414 1.524 . S
C1411 C1403 1.503 . S
C1411 C1410 1.370 . S
C1411 C1412 1.403 . S
C1412 C1411 1.403 . S
C1412 C1413 1.404 . S
C1412 C1415 1.539 . S
C1413 C1409 1.408 . S
C1413 C1412 1.404 . S
C1413 H1425 0.930 . S
C1414 C1410 1.524 . S
C1414 H1426 0.956 . S
C1414 H1427 0.961 . S
C1414 H1428 0.961 . S
C1415 C1412 1.539 . S
C1415 H1429 0.958 . S
C1415 H1430 0.961 . S
C1415 H1431 0.960 . S
H1416 C1400 0.931 . S
H1417 C1405 0.929 . S
H1418 C1406 0.960 . S
H1419 C1406 0.962 . S
H1420 C1406 0.960 . S
H1421 C1407 0.961 . S
H1422 C1407 0.961 . S
H1423 C1407 0.961 . S
H1424 C1408 0.931 . S
H1425 C1413 0.930 . S
H1426 C1414 0.956 . S
H1427 C1414 0.961 . S
H1428 C1414 0.961 . S
H1429 C1415 0.958 . S
H1430 C1415 0.961 . S
H1431 C1415 0.960 . S
C1432 C1433 1.391 . S
C1432 C1434 1.394 . S
C1432 H1448 0.931 . S
C1433 C1432 1.391 . S
C1433 C1437 1.376 . S
C1434 C1432 1.394 . S
C1434 C1435 1.369 . S
C1434 C1438 1.531 . S
C1435 C1434 1.369 . S
C1435 C1436 1.410 . S
C1435 C1443 1.503 . S
C1436 C1435 1.410 . S
C1436 C1437 1.392 . S
C1436 C1439 1.511 . S
C1437 C1433 1.376 . S
C1437 C1436 1.392 . S
C1437 H1449 0.929 . S
C1438 C1434 1.531 . S
C1438 H1450 0.960 . S
C1438 H1451 0.962 . S
C1438 H1452 0.960 . S
C1439 C1436 1.511 . S
C1439 H1453 0.961 . S
C1439 H1454 0.961 . S
C1439 H1455 0.961 . S
C1440 C1441 1.370 . S
C1440 C1442 1.363 . S
C1440 H1456 0.931 . S
C1441 C1440 1.370 . S
C1441 C1445 1.408 . S
C1442 C1440 1.363 . S
C1442 C1443 1.370 . S
C1442 C1446 1.524 . S
C1443 C1435 1.503 . S
C1443 C1442 1.370 . S
C1443 C1444 1.403 . S
C1444 C1443 1.403 . S
C1444 C1445 1.404 . S
C1444 C1447 1.539 . S
C1445 C1441 1.408 . S
C1445 C1444 1.404 . S
C1445 H1457 0.930 . S
C1446 C1442 1.524 . S
C1446 H1458 0.956 . S
C1446 H1459 0.961 . S
C1446 H1460 0.961 . S
C1447 C1444 1.539 . S
C1447 H1461 0.958 . S
C1447 H1462 0.961 . S
C1447 H1463 0.960 . S
H1448 C1432 0.931 . S
H1449 C1437 0.929 . S
H1450 C1438 0.960 . S
H1451 C1438 0.962 . S
H1452 C1438 0.960 . S
H1453 C1439 0.961 . S
H1454 C1439 0.961 . S
H1455 C1439 0.961 . S
H1456 C1440 0.931 . S
H1457 C1445 0.930 . S
H1458 C1446 0.956 . S
H1459 C1446 0.961 . S
H1460 C1446 0.961 . S
H1461 C1447 0.958 . S
H1462 C1447 0.961 . S
H1463 C1447 0.960 . S
C1464 C1465 1.391 . S
C1464 C1466 1.394 . S
C1464 H1480 0.931 . S
C1465 C1464 1.391 . S
C1465 C1469 1.376 . S
C1466 C1464 1.394 . S
C1466 C1467 1.369 . S
C1466 C1470 1.531 . S
C1467 C1466 1.369 . S
C1467 C1468 1.410 . S
C1467 C1475 1.503 . S
C1468 C1467 1.410 . S
C1468 C1469 1.392 . S
C1468 C1471 1.511 . S
C1469 C1465 1.376 . S
C1469 C1468 1.392 . S
C1469 H1481 0.929 . S
C1470 C1466 1.531 . S
C1470 H1482 0.960 . S
C1470 H1483 0.962 . S
C1470 H1484 0.960 . S
C1471 C1468 1.511 . S
C1471 H1485 0.961 . S
C1471 H1486 0.961 . S
C1471 H1487 0.961 . S
C1472 C1473 1.370 . S
C1472 C1474 1.363 . S
C1472 H1488 0.931 . S
C1473 C1472 1.370 . S
C1473 C1477 1.408 . S
C1474 C1472 1.363 . S
C1474 C1475 1.370 . S
C1474 C1478 1.524 . S
C1475 C1467 1.503 . S
C1475 C1474 1.370 . S
C1475 C1476 1.403 . S
C1476 C1475 1.403 . S
C1476 C1477 1.404 . S
C1476 C1479 1.539 . S
C1477 C1473 1.408 . S
C1477 C1476 1.404 . S
C1477 H1489 0.930 . S
C1478 C1474 1.524 . S
C1478 H1490 0.956 . S
C1478 H1491 0.961 . S
C1478 H1492 0.961 . S
C1479 C1476 1.539 . S
C1479 H1493 0.958 . S
C1479 H1494 0.961 . S
C1479 H1495 0.960 . S
H1480 C1464 0.931 . S
H1481 C1469 0.929 . S
H1482 C1470 0.960 . S
H1483 C1470 0.962 . S
H1484 C1470 0.960 . S
H1485 C1471 0.961 . S
H1486 C1471 0.961 . S
H1487 C1471 0.961 . S
H1488 C1472 0.931 . S
H1489 C1477 0.930 . S
H1490 C1478 0.956 . S
H1491 C1478 0.961 . S
H1492 C1478 0.961 . S
H1493 C1479 0.958 . S
H1494 C1479 0.961 . S
H1495 C1479 0.960 . S
C1496 C1497 1.391 . S
C1496 C1498 1.394 . S
C1496 H1512 0.931 . S
C1497 C1496 1.391 . S
C1497 C1501 1.376 . S
C1498 C1496 1.394 . S
C1498 C1499 1.369 . S
C1498 C1502 1.531 . S
C1499 C1498 1.369 . S
C1499 C1500 1.410 . S
C1499 C1507 1.503 . S
C1500 C1499 1.410 . S
C1500 C1501 1.392 . S
C1500 C1503 1.511 . S
C1501 C1497 1.376 . S
C1501 C1500 1.392 . S
C1501 H1513 0.929 . S
C1502 C1498 1.531 . S
C1502 H1514 0.960 . S
C1502 H1515 0.962 . S
C1502 H1516 0.960 . S
C1503 C1500 1.511 . S
C1503 H1517 0.961 . S
C1503 H1518 0.961 . S
C1503 H1519 0.961 . S
C1504 C1505 1.370 . S
C1504 C1506 1.363 . S
C1504 H1520 0.931 . S
C1505 C1504 1.370 . S
C1505 C1509 1.408 . S
C1506 C1504 1.363 . S
C1506 C1507 1.370 . S
C1506 C1510 1.524 . S
C1507 C1499 1.503 . S
C1507 C1506 1.370 . S
C1507 C1508 1.403 . S
C1508 C1507 1.403 . S
C1508 C1509 1.404 . S
C1508 C1511 1.539 . S
C1509 C1505 1.408 . S
C1509 C1508 1.404 . S
C1509 H1521 0.930 . S
C1510 C1506 1.524 . S
C1510 H1522 0.956 . S
C1510 H1523 0.961 . S
C1510 H1524 0.961 . S
C1511 C1508 1.539 . S
C1511 H1525 0.958 . S
C1511 H1526 0.961 . S
C1511 H1527 0.960 . S
H1512 C1496 0.931 . S
H1513 C1501 0.929 . S
H1514 C1502 0.960 . S
H1515 C1502 0.962 . S
H1516 C1502 0.960 . S
H1517 C1503 0.961 . S
H1518 C1503 0.961 . S
H1519 C1503 0.961 . S
H1520 C1504 0.931 . S
H1521 C1509 0.930 . S
H1522 C1510 0.956 . S
H1523 C1510 0.961 . S
H1524 C1510 0.961 . S
H1525 C1511 0.958 . S
H1526 C1511 0.961 . S
H1527 C1511 0.960 . S
C1528 C1529 1.391 . S
C1528 C1530 1.394 . S
C1528 H1544 0.931 . S
C1529 C1528 1.391 . S
C1529 C1533 1.376 . S
C1530 C1528 1.394 . S
C1530 C1531 1.369 . S
C1530 C1534 1.531 . S
C1531 C1530 1.369 . S
C1531 C1532 1.410 . S
C1531 C1539 1.503 . S
C1532 C1531 1.410 . S
C1532 C1533 1.392 . S
C1532 C1535 1.511 . S
C1533 C1529 1.376 . S
C1533 C1532 1.392 . S
C1533 H1545 0.929 . S
C1534 C1530 1.531 . S
C1534 H1546 0.960 . S
C1534 H1547 0.962 . S
C1534 H1548 0.960 . S
C1535 C1532 1.511 . S
C1535 H1549 0.961 . S
C1535 H1550 0.961 . S
C1535 H1551 0.961 . S
C1536 C1537 1.370 . S
C1536 C1538 1.363 . S
C1536 H1552 0.931 . S
C1537 C1536 1.370 . S
C1537 C1541 1.408 . S
C1538 C1536 1.363 . S
C1538 C1539 1.370 . S
C1538 C1542 1.524 . S
C1539 C1531 1.503 . S
C1539 C1538 1.370 . S
C1539 C1540 1.403 . S
C1540 C1539 1.403 . S
C1540 C1541 1.404 . S
C1540 C1543 1.539 . S
C1541 C1537 1.408 . S
C1541 C1540 1.404 . S
C1541 H1553 0.930 . S
C1542 C1538 1.524 . S
C1542 H1554 0.956 . S
C1542 H1555 0.961 . S
C1542 H1556 0.961 . S
C1543 C1540 1.539 . S
C1543 H1557 0.958 . S
C1543 H1558 0.961 . S
C1543 H1559 0.960 . S
H1544 C1528 0.931 . S
H1545 C1533 0.929 . S
H1546 C1534 0.960 . S
H1547 C1534 0.962 . S
H1548 C1534 0.960 . S
H1549 C1535 0.961 . S
H1550 C1535 0.961 . S
H1551 C1535 0.961 . S
H1552 C1536 0.931 . S
H1553 C1541 0.930 . S
H1554 C1542 0.956 . S
H1555 C1542 0.961 . S
H1556 C1542 0.961 . S
H1557 C1543 0.958 . S
H1558 C1543 0.961 . S
H1559 C1543 0.960 . S
C1560 C1561 1.391 . S
C1560 C1562 1.394 . S
C1560 H1576 0.931 . S
C1561 C1560 1.391 . S
C1561 C1565 1.376 . S
C1562 C1560 1.394 . S
C1562 C1563 1.369 . S
C1562 C1566 1.531 . S
C1563 C1562 1.369 . S
C1563 C1564 1.410 . S
C1563 C1571 1.503 . S
C1564 C1563 1.410 . S
C1564 C1565 1.392 . S
C1564 C1567 1.511 . S
C1565 C1561 1.376 . S
C1565 C1564 1.392 . S
C1565 H1577 0.929 . S
C1566 C1562 1.531 . S
C1566 H1578 0.960 . S
C1566 H1579 0.962 . S
C1566 H1580 0.960 . S
C1567 C1564 1.511 . S
C1567 H1581 0.961 . S
C1567 H1582 0.961 . S
C1567 H1583 0.961 . S
C1568 C1569 1.370 . S
C1568 C1570 1.363 . S
C1568 H1584 0.931 . S
C1569 C1568 1.370 . S
C1569 C1573 1.408 . S
C1570 C1568 1.363 . S
C1570 C1571 1.370 . S
C1570 C1574 1.524 . S
C1571 C1563 1.503 . S
C1571 C1570 1.370 . S
C1571 C1572 1.403 . S
C1572 C1571 1.403 . S
C1572 C1573 1.404 . S
C1572 C1575 1.539 . S
C1573 C1569 1.408 . S
C1573 C1572 1.404 . S
C1573 H1585 0.930 . S
C1574 C1570 1.524 . S
C1574 H1586 0.956 . S
C1574 H1587 0.961 . S
C1574 H1588 0.961 . S
C1575 C1572 1.539 . S
C1575 H1589 0.958 . S
C1575 H1590 0.961 . S
C1575 H1591 0.960 . S
H1576 C1560 0.931 . S
H1577 C1565 0.929 . S
H1578 C1566 0.960 . S
H1579 C1566 0.962 . S
H1580 C1566 0.960 . S
H1581 C1567 0.961 . S
H1582 C1567 0.961 . S
H1583 C1567 0.961 . S
H1584 C1568 0.931 . S
H1585 C1573 0.930 . S
H1586 C1574 0.956 . S
H1587 C1574 0.961 . S
H1588 C1574 0.961 . S
H1589 C1575 0.958 . S
H1590 C1575 0.961 . S
H1591 C1575 0.960 . S
C1592 C1593 1.391 . S
C1592 C1594 1.394 . S
C1592 H1608 0.931 . S
C1593 C1592 1.391 . S
C1593 C1597 1.376 . S
C1594 C1592 1.394 . S
C1594 C1595 1.369 . S
C1594 C1598 1.531 . S
C1595 C1594 1.369 . S
C1595 C1596 1.410 . S
C1595 C1603 1.503 . S
C1596 C1595 1.410 . S
C1596 C1597 1.392 . S
C1596 C1599 1.511 . S
C1597 C1593 1.376 . S
C1597 C1596 1.392 . S
C1597 H1609 0.929 . S
C1598 C1594 1.531 . S
C1598 H1610 0.960 . S
C1598 H1611 0.962 . S
C1598 H1612 0.960 . S
C1599 C1596 1.511 . S
C1599 H1613 0.961 . S
C1599 H1614 0.961 . S
C1599 H1615 0.961 . S
C1600 C1601 1.370 . S
C1600 C1602 1.363 . S
C1600 H1616 0.931 . S
C1601 C1600 1.370 . S
C1601 C1605 1.408 . S
C1602 C1600 1.363 . S
C1602 C1603 1.370 . S
C1602 C1606 1.524 . S
C1603 C1595 1.503 . S
C1603 C1602 1.370 . S
C1603 C1604 1.403 . S
C1604 C1603 1.403 . S
C1604 C1605 1.404 . S
C1604 C1607 1.539 . S
C1605 C1601 1.408 . S
C1605 C1604 1.404 . S
C1605 H1617 0.930 . S
C1606 C1602 1.524 . S
C1606 H1618 0.956 . S
C1606 H1619 0.961 . S
C1606 H1620 0.961 . S
C1607 C1604 1.539 . S
C1607 H1621 0.958 . S
C1607 H1622 0.961 . S
C1607 H1623 0.960 . S
H1608 C1592 0.931 . S
H1609 C1597 0.929 . S
H1610 C1598 0.960 . S
H1611 C1598 0.962 . S
H1612 C1598 0.960 . S
H1613 C1599 0.961 . S
H1614 C1599 0.961 . S
H1615 C1599 0.961 . S
H1616 C1600 0.931 . S
H1617 C1605 0.930 . S
H1618 C1606 0.956 . S
H1619 C1606 0.961 . S
H1620 C1606 0.961 . S
H1621 C1607 0.958 . S
H1622 C1607 0.961 . S
H1623 C1607 0.960 . S
C1624 C1625 1.391 . S
C1624 C1626 1.394 . S
C1624 H1640 0.931 . S
C1625 C1624 1.391 . S
C1625 C1629 1.376 . S
C1626 C1624 1.394 . S
C1626 C1627 1.369 . S
C1626 C1630 1.531 . S
C1627 C1626 1.369 . S
C1627 C1628 1.410 . S
C1627 C1635 1.503 . S
C1628 C1627 1.410 . S
C1628 C1629 1.392 . S
C1628 C1631 1.511 . S
C1629 C1625 1.376 . S
C1629 C1628 1.392 . S
C1629 H1641 0.929 . S
C1630 C1626 1.531 . S
C1630 H1642 0.960 . S
C1630 H1643 0.962 . S
C1630 H1644 0.960 . S
C1631 C1628 1.511 . S
C1631 H1645 0.961 . S
C1631 H1646 0.961 . S
C1631 H1647 0.961 . S
C1632 C1633 1.370 . S
C1632 C1634 1.363 . S
C1632 H1648 0.931 . S
C1633 C1632 1.370 . S
C1633 C1637 1.408 . S
C1634 C1632 1.363 . S
C1634 C1635 1.370 . S
C1634 C1638 1.524 . S
C1635 C1627 1.503 . S
C1635 C1634 1.370 . S
C1635 C1636 1.403 . S
C1636 C1635 1.403 . S
C1636 C1637 1.404 . S
C1636 C1639 1.539 . S
C1637 C1633 1.408 . S
C1637 C1636 1.404 . S
C1637 H1649 0.930 . S
C1638 C1634 1.524 . S
C1638 H1650 0.956 . S
C1638 H1651 0.961 . S
C1638 H1652 0.961 . S
C1639 C1636 1.539 . S
C1639 H1653 0.958 . S
C1639 H1654 0.961 . S
C1639 H1655 0.960 . S
H1640 C1624 0.931 . S
H1641 C1629 0.929 . S
H1642 C1630 0.960 . S
H1643 C1630 0.962 . S
H1644 C1630 0.960 . S
H1645 C1631 0.961 . S
H1646 C1631 0.961 . S
H1647 C1631 0.961 . S
H1648 C1632 0.931 . S
H1649 C1637 0.930 . S
H1650 C1638 0.956 . S
H1651 C1638 0.961 . S
H1652 C1638 0.961 . S
H1653 C1639 0.958 . S
H1654 C1639 0.961 . S
H1655 C1639 0.960 . S
C1656 C1657 1.391 . S
C1656 C1658 1.394 . S
C1656 H1672 0.931 . S
C1657 C1656 1.391 . S
C1657 C1661 1.376 . S
C1658 C1656 1.394 . S
C1658 C1659 1.369 . S
C1658 C1662 1.531 . S
C1659 C1658 1.369 . S
C1659 C1660 1.410 . S
C1659 C1667 1.503 . S
C1660 C1659 1.410 . S
C1660 C1661 1.392 . S
C1660 C1663 1.511 . S
C1661 C1657 1.376 . S
C1661 C1660 1.392 . S
C1661 H1673 0.929 . S
C1662 C1658 1.531 . S
C1662 H1674 0.960 . S
C1662 H1675 0.962 . S
C1662 H1676 0.960 . S
C1663 C1660 1.511 . S
C1663 H1677 0.961 . S
C1663 H1678 0.961 . S
C1663 H1679 0.961 . S
C1664 C1665 1.370 . S
C1664 C1666 1.363 . S
C1664 H1680 0.931 . S
C1665 C1664 1.370 . S
C1665 C1669 1.408 . S
C1666 C1664 1.363 . S
C1666 C1667 1.370 . S
C1666 C1670 1.524 . S
C1667 C1659 1.503 . S
C1667 C1666 1.370 . S
C1667 C1668 1.403 . S
C1668 C1667 1.403 . S
C1668 C1669 1.404 . S
C1668 C1671 1.539 . S
C1669 C1665 1.408 . S
C1669 C1668 1.404 . S
C1669 H1681 0.930 . S
C1670 C1666 1.524 . S
C1670 H1682 0.956 . S
C1670 H1683 0.961 . S
C1670 H1684 0.961 . S
C1671 C1668 1.539 . S
C1671 H1685 0.958 . S
C1671 H1686 0.961 . S
C1671 H1687 0.960 . S
H1672 C1656 0.931 . S
H1673 C1661 0.929 . S
H1674 C1662 0.960 . S
H1675 C1662 0.962 . S
H1676 C1662 0.960 . S
H1677 C1663 0.961 . S
H1678 C1663 0.961 . S
H1679 C1663 0.961 . S
H1680 C1664 0.931 . S
H1681 C1669 0.930 . S
H1682 C1670 0.956 . S
H1683 C1670 0.961 . S
H1684 C1670 0.961 . S
H1685 C1671 0.958 . S
H1686 C1671 0.961 . S
H1687 C1671 0.960 . S
C1688 C1689 1.391 . S
C1688 C1690 1.394 . S
C1688 H1704 0.931 . S
C1689 C1688 1.391 . S
C1689 C1693 1.376 . S
C1690 C1688 1.394 . S
C1690 C1691 1.369 . S
C1690 C1694 1.531 . S
C1691 C1690 1.369 . S
C1691 C1692 1.410 . S
C1691 C1699 1.503 . S
C1692 C1691 1.410 . S
C1692 C1693 1.392 . S
C1692 C1695 1.511 . S
C1693 C1689 1.376 . S
C1693 C1692 1.392 . S
C1693 H1705 0.929 . S
C1694 C1690 1.531 . S
C1694 H1706 0.960 . S
C1694 H1707 0.962 . S
C1694 H1708 0.960 . S
C1695 C1692 1.511 . S
C1695 H1709 0.961 . S
C1695 H1710 0.961 . S
C1695 H1711 0.961 . S
C1696 C1697 1.370 . S
C1696 C1698 1.363 . S
C1696 H1712 0.931 . S
C1697 C1696 1.370 . S
C1697 C1701 1.408 . S
C1698 C1696 1.363 . S
C1698 C1699 1.370 . S
C1698 C1702 1.524 . S
C1699 C1691 1.503 . S
C1699 C1698 1.370 . S
C1699 C1700 1.403 . S
C1700 C1699 1.403 . S
C1700 C1701 1.404 . S
C1700 C1703 1.539 . S
C1701 C1697 1.408 . S
C1701 C1700 1.404 . S
C1701 H1713 0.930 . S
C1702 C1698 1.524 . S
C1702 H1714 0.956 . S
C1702 H1715 0.961 . S
C1702 H1716 0.961 . S
C1703 C1700 1.539 . S
C1703 H1717 0.958 . S
C1703 H1718 0.961 . S
C1703 H1719 0.960 . S
H1704 C1688 0.931 . S
H1705 C1693 0.929 . S
H1706 C1694 0.960 . S
H1707 C1694 0.962 . S
H1708 C1694 0.960 . S
H1709 C1695 0.961 . S
H1710 C1695 0.961 . S
H1711 C1695 0.961 . S
H1712 C1696 0.931 . S
H1713 C1701 0.930 . S
H1714 C1702 0.956 . S
H1715 C1702 0.961 . S
H1716 C1702 0.961 . S
H1717 C1703 0.958 . S
H1718 C1703 0.961 . S
H1719 C1703 0.960 . S
C1720 C1721 1.391 . S
C1720 C1722 1.394 . S
C1720 H1736 0.931 . S
C1721 C1720 1.391 . S
C1721 C1725 1.376 . S
C1722 C1720 1.394 . S
C1722 C1723 1.369 . S
C1722 C1726 1.531 . S
C1723 C1722 1.369 . S
C1723 C1724 1.410 . S
C1723 C1731 1.503 . S
C1724 C1723 1.410 . S
C1724 C1725 1.392 . S
C1724 C1727 1.511 . S
C1725 C1721 1.376 . S
C1725 C1724 1.392 . S
C1725 H1737 0.929 . S
C1726 C1722 1.531 . S
C1726 H1738 0.960 . S
C1726 H1739 0.962 . S
C1726 H1740 0.960 . S
C1727 C1724 1.511 . S
C1727 H1741 0.961 . S
C1727 H1742 0.961 . S
C1727 H1743 0.961 . S
C1728 C1729 1.370 . S
C1728 C1730 1.363 . S
C1728 H1744 0.931 . S
C1729 C1728 1.370 . S
C1729 C1733 1.408 . S
C1730 C1728 1.363 . S
C1730 C1731 1.370 . S
C1730 C1734 1.524 . S
C1731 C1723 1.503 . S
C1731 C1730 1.370 . S
C1731 C1732 1.403 . S
C1732 C1731 1.403 . S
C1732 C1733 1.404 . S
C1732 C1735 1.539 . S
C1733 C1729 1.408 . S
C1733 C1732 1.404 . S
C1733 H1745 0.930 . S
C1734 C1730 1.524 . S
C1734 H1746 0.956 . S
C1734 H1747 0.961 . S
C1734 H1748 0.961 . S
C1735 C1732 1.539 . S
C1735 H1749 0.958 . S
C1735 H1750 0.961 . S
C1735 H1751 0.960 . S
H1736 C1720 0.931 . S
H1737 C1725 0.929 . S
H1738 C1726 0.960 . S
H1739 C1726 0.962 . S
H1740 C1726 0.960 . S
H1741 C1727 0.961 . S
H1742 C1727 0.961 . S
H1743 C1727 0.961 . S
H1744 C1728 0.931 . S
H1745 C1733 0.930 . S
H1746 C1734 0.956 . S
H1747 C1734 0.961 . S
H1748 C1734 0.961 . S
H1749 C1735 0.958 . S
H1750 C1735 0.961 . S
H1751 C1735 0.960 . S
C1752 C1753 1.391 . S
C1752 C1754 1.394 . S
C1752 H1768 0.931 . S
C1753 C1752 1.391 . S
C1753 C1757 1.376 . S
C1754 C1752 1.394 . S
C1754 C1755 1.369 . S
C1754 C1758 1.531 . S
C1755 C1754 1.369 . S
C1755 C1756 1.410 . S
C1755 C1763 1.503 . S
C1756 C1755 1.410 . S
C1756 C1757 1.392 . S
C1756 C1759 1.511 . S
C1757 C1753 1.376 . S
C1757 C1756 1.392 . S
C1757 H1769 0.929 . S
C1758 C1754 1.531 . S
C1758 H1770 0.960 . S
C1758 H1771 0.962 . S
C1758 H1772 0.960 . S
C1759 C1756 1.511 . S
C1759 H1773 0.961 . S
C1759 H1774 0.961 . S
C1759 H1775 0.961 . S
C1760 C1761 1.370 . S
C1760 C1762 1.363 . S
C1760 H1776 0.931 . S
C1761 C1760 1.370 . S
C1761 C1765 1.408 . S
C1762 C1760 1.363 . S
C1762 C1763 1.370 . S
C1762 C1766 1.524 . S
C1763 C1755 1.503 . S
C1763 C1762 1.370 . S
C1763 C1764 1.403 . S
C1764 C1763 1.403 . S
C1764 C1765 1.404 . S
C1764 C1767 1.539 . S
C1765 C1761 1.408 . S
C1765 C1764 1.404 . S
C1765 H1777 0.930 . S
C1766 C1762 1.524 . S
C1766 H1778 0.956 . S
C1766 H1779 0.961 . S
C1766 H1780 0.961 . S
C1767 C1764 1.539 . S
C1767 H1781 0.958 . S
C1767 H1782 0.961 . S
C1767 H1783 0.960 . S
H1768 C1752 0.931 . S
H1769 C1757 0.929 . S
H1770 C1758 0.960 . S
H1771 C1758 0.962 . S
H1772 C1758 0.960 . S
H1773 C1759 0.961 . S
H1774 C1759 0.961 . S
H1775 C1759 0.961 . S
H1776 C1760 0.931 . S
H1777 C1765 0.930 . S
H1778 C1766 0.956 . S
H1779 C1766 0.961 . S
H1780 C1766 0.961 . S
H1781 C1767 0.958 . S
H1782 C1767 0.961 . S
H1783 C1767 0.960 . S
C1784 C1785 1.391 . S
C1784 C1786 1.394 . S
C1784 H1800 0.931 . S
C1785 C1784 1.391 . S
C1785 C1789 1.376 . S
C1786 C1784 1.394 . S
C1786 C1787 1.369 . S
C1786 C1790 1.531 . S
C1787 C1786 1.369 . S
C1787 C1788 1.410 . S
C1787 C1795 1.503 . S
C1788 C1787 1.410 . S
C1788 C1789 1.392 . S
C1788 C1791 1.511 . S
C1789 C1785 1.376 . S
C1789 C1788 1.392 . S
C1789 H1801 0.929 . S
C1790 C1786 1.531 . S
C1790 H1802 0.960 . S
C1790 H1803 0.962 . S
C1790 H1804 0.960 . S
C1791 C1788 1.511 . S
C1791 H1805 0.961 . S
C1791 H1806 0.961 . S
C1791 H1807 0.961 . S
C1792 C1793 1.370 . S
C1792 C1794 1.363 . S
C1792 H1808 0.931 . S
C1793 C1792 1.370 . S
C1793 C1797 1.408 . S
C1794 C1792 1.363 . S
C1794 C1795 1.370 . S
C1794 C1798 1.524 . S
C1795 C1787 1.503 . S
C1795 C1794 1.370 . S
C1795 C1796 1.403 . S
C1796 C1795 1.403 . S
C1796 C1797 1.404 . S
C1796 C1799 1.539 . S
C1797 C1793 1.408 . S
C1797 C1796 1.404 . S
C1797 H1809 0.930 . S
C1798 C1794 1.524 . S
C1798 H1810 0.956 . S
C1798 H1811 0.961 . S
C1798 H1812 0.961 . S
C1799 C1796 1.539 . S
C1799 H1813 0.958 . S
C1799 H1814 0.961 . S
C1799 H1815 0.960 . S
H1800 C1784 0.931 . S
H1801 C1789 0.929 . S
H1802 C1790 0.960 . S
H1803 C1790 0.962 . S
H1804 C1790 0.960 . S
H1805 C1791 0.961 . S
H1806 C1791 0.961 . S
H1807 C1791 0.961 . S
H1808 C1792 0.931 . S
H1809 C1797 0.930 . S
H1810 C1798 0.956 . S
H1811 C1798 0.961 . S
H1812 C1798 0.961 . S
H1813 C1799 0.958 . S
H1814 C1799 0.961 . S
H1815 C1799 0.960 . S
C1816 C1817 1.391 . S
C1816 C1818 1.394 . S
C1816 H1832 0.931 . S
C1817 C1816 1.391 . S
C1817 C1821 1.376 . S
C1818 C1816 1.394 . S
C1818 C1819 1.369 . S
C1818 C1822 1.531 . S
C1819 C1818 1.369 . S
C1819 C1820 1.410 . S
C1819 C1827 1.503 . S
C1820 C1819 1.410 . S
C1820 C1821 1.392 . S
C1820 C1823 1.511 . S
C1821 C1817 1.376 . S
C1821 C1820 1.392 . S
C1821 H1833 0.929 . S
C1822 C1818 1.531 . S
C1822 H1834 0.960 . S
C1822 H1835 0.962 . S
C1822 H1836 0.960 . S
C1823 C1820 1.511 . S
C1823 H1837 0.961 . S
C1823 H1838 0.961 . S
C1823 H1839 0.961 . S
C1824 C1825 1.370 . S
C1824 C1826 1.363 . S
C1824 H1840 0.931 . S
C1825 C1824 1.370 . S
C1825 C1829 1.408 . S
C1826 C1824 1.363 . S
C1826 C1827 1.370 . S
C1826 C1830 1.524 . S
C1827 C1819 1.503 . S
C1827 C1826 1.370 . S
C1827 C1828 1.403 . S
C1828 C1827 1.403 . S
C1828 C1829 1.404 . S
C1828 C1831 1.539 . S
C1829 C1825 1.408 . S
C1829 C1828 1.404 . S
C1829 H1841 0.930 . S
C1830 C1826 1.524 . S
C1830 H1842 0.956 . S
C1830 H1843 0.961 . S
C1830 H1844 0.961 . S
C1831 C1828 1.539 . S
C1831 H1845 0.958 . S
C1831 H1846 0.961 . S
C1831 H1847 0.960 . S
H1832 C1816 0.931 . S
H1833 C1821 0.929 . S
H1834 C1822 0.960 . S
H1835 C1822 0.962 . S
H1836 C1822 0.960 . S
H1837 C1823 0.961 . S
H1838 C1823 0.961 . S
H1839 C1823 0.961 . S
H1840 C1824 0.931 . S
H1841 C1829 0.930 . S
H1842 C1830 0.956 . S
H1843 C1830 0.961 . S
H1844 C1830 0.961 . S
H1845 C1831 0.958 . S
H1846 C1831 0.961 . S
H1847 C1831 0.960 . S
C1848 C1849 1.391 . S
C1848 C1850 1.394 . S
C1848 H1864 0.931 . S
C1849 C1848 1.391 . S
C1849 C1853 1.376 . S
C1850 C1848 1.394 . S
C1850 C1851 1.369 . S
C1850 C1854 1.531 . S
C1851 C1850 1.369 . S
C1851 C1852 1.410 . S
C1851 C1859 1.503 . S
C1852 C1851 1.410 . S
C1852 C1853 1.392 . S
C1852 C1855 1.511 . S
C1853 C1849 1.376 . S
C1853 C1852 1.392 . S
C1853 H1865 0.929 . S
C1854 C1850 1.531 . S
C1854 H1866 0.960 . S
C1854 H1867 0.962 . S
C1854 H1868 0.960 . S
C1855 C1852 1.511 . S
C1855 H1869 0.961 . S
C1855 H1870 0.961 . S
C1855 H1871 0.961 . S
C1856 C1857 1.370 . S
C1856 C1858 1.363 . S
C1856 H1872 0.931 . S
C1857 C1856 1.370 . S
C1857 C1861 1.408 . S
C1858 C1856 1.363 . S
C1858 C1859 1.370 . S
C1858 C1862 1.524 . S
C1859 C1851 1.503 . S
C1859 C1858 1.370 . S
C1859 C1860 1.403 . S
C1860 C1859 1.403 . S
C1860 C1861 1.404 . S
C1860 C1863 1.539 . S
C1861 C1857 1.408 . S
C1861 C1860 1.404 . S
C1861 H1873 0.930 . S
C1862 C1858 1.524 . S
C1862 H1874 0.956 . S
C1862 H1875 0.961 . S
C1862 H1876 0.961 . S
C1863 C1860 1.539 . S
C1863 H1877 0.958 . S
C1863 H1878 0.961 . S
C1863 H1879 0.960 . S
H1864 C1848 0.931 . S
H1865 C1853 0.929 . S
H1866 C1854 0.960 . S
H1867 C1854 0.962 . S
H1868 C1854 0.960 . S
H1869 C1855 0.961 . S
H1870 C1855 0.961 . S
H1871 C1855 0.961 . S
H1872 C1856 0.931 . S
H1873 C1861 0.930 . S
H1874 C1862 0.956 . S
H1875 C1862 0.961 . S
H1876 C1862 0.961 . S
H1877 C1863 0.958 . S
H1878 C1863 0.961 . S
H1879 C1863 0.960 . S
C1880 C1881 1.391 . S
C1880 C1882 1.394 . S
C1880 H1896 0.931 . S
C1881 C1880 1.391 . S
C1881 C1885 1.376 . S
C1882 C1880 1.394 . S
C1882 C1883 1.369 . S
C1882 C1886 1.531 . S
C1883 C1882 1.369 . S
C1883 C1884 1.410 . S
C1883 C1891 1.503 . S
C1884 C1883 1.410 . S
C1884 C1885 1.392 . S
C1884 C1887 1.511 . S
C1885 C1881 1.376 . S
C1885 C1884 1.392 . S
C1885 H1897 0.929 . S
C1886 C1882 1.531 . S
C1886 H1898 0.960 . S
C1886 H1899 0.962 . S
C1886 H1900 0.960 . S
C1887 C1884 1.511 . S
C1887 H1901 0.961 . S
C1887 H1902 0.961 . S
C1887 H1903 0.961 . S
C1888 C1889 1.370 . S
C1888 C1890 1.363 . S
C1888 H1904 0.931 . S
C1889 C1888 1.370 . S
C1889 C1893 1.408 . S
C1890 C1888 1.363 . S
C1890 C1891 1.370 . S
C1890 C1894 1.524 . S
C1891 C1883 1.503 . S
C1891 C1890 1.370 . S
C1891 C1892 1.403 . S
C1892 C1891 1.403 . S
C1892 C1893 1.404 . S
C1892 C1895 1.539 . S
C1893 C1889 1.408 . S
C1893 C1892 1.404 . S
C1893 H1905 0.930 . S
C1894 C1890 1.524 . S
C1894 H1906 0.956 . S
C1894 H1907 0.961 . S
C1894 H1908 0.961 . S
C1895 C1892 1.539 . S
C1895 H1909 0.958 . S
C1895 H1910 0.961 . S
C1895 H1911 0.960 . S
H1896 C1880 0.931 . S
H1897 C1885 0.929 . S
H1898 C1886 0.960 . S
H1899 C1886 0.962 . S
H1900 C1886 0.960 . S
H1901 C1887 0.961 . S
H1902 C1887 0.961 . S
H1903 C1887 0.961 . S
H1904 C1888 0.931 . S
H1905 C1893 0.930 . S
H1906 C1894 0.956 . S
H1907 C1894 0.961 . S
H1908 C1894 0.961 . S
H1909 C1895 0.958 . S
H1910 C1895 0.961 . S
H1911 C1895 0.960 . S
C1912 C1913 1.391 . S
C1912 C1914 1.394 . S
C1912 H1928 0.931 . S
C1913 C1912 1.391 . S
C1913 C1917 1.376 . S
C1914 C1912 1.394 . S
C1914 C1915 1.369 . S
C1914 C1918 1.531 . S
C1915 C1914 1.369 . S
C1915 C1916 1.410 . S
C1915 C1923 1.503 . S
C1916 C1915 1.410 . S
C1916 C1917 1.392 . S
C1916 C1919 1.511 . S
C1917 C1913 1.376 . S
C1917 C1916 1.392 . S
C1917 H1929 0.929 . S
C1918 C1914 1.531 . S
C1918 H1930 0.960 . S
C1918 H1931 0.962 . S
C1918 H1932 0.960 . S
C1919 C1916 1.511 . S
C1919 H1933 0.961 . S
C1919 H1934 0.961 . S
C1919 H1935 0.961 . S
C1920 C1921 1.370 . S
C1920 C1922 1.363 . S
C1920 H1936 0.931 . S
C1921 C1920 1.370 . S
C1921 C1925 1.408 . S
C1922 C1920 1.363 . S
C1922 C1923 1.370 . S
C1922 C1926 1.524 . S
C1923 C1915 1.503 . S
C1923 C1922 1.370 . S
C1923 C1924 1.403 . S
C1924 C1923 1.403 . S
C1924 C1925 1.404 . S
C1924 C1927 1.539 . S
C1925 C1921 1.408 . S
C1925 C1924 1.404 . S
C1925 H1937 0.930 . S
C1926 C1922 1.524 . S
C1926 H1938 0.956 . S
C1926 H1939 0.961 . S
C1926 H1940 0.961 . S
C1927 C1924 1.539 . S
C1927 H1941 0.958 . S
C1927 H1942 0.961 . S
C1927 H1943 0.960 . S
H1928 C1912 0.931 . S
H1929 C1917 0.929 . S
H1930 C1918 0.960 . S
H1931 C1918 0.962 . S
H1932 C1918 0.960 . S
H1933 C1919 0.961 . S
H1934 C1919 0.961 . S
H1935 C1919 0.961 . S
H1936 C1920 0.931 . S
H1937 C1925 0.930 . S
H1938 C1926 0.956 . S
H1939 C1926 0.961 . S
H1940 C1926 0.961 . S
H1941 C1927 0.958 . S
H1942 C1927 0.961 . S
H1943 C1927 0.960 . S
C1944 C1945 1.391 . S
C1944 C1946 1.394 . S
C1944 H1960 0.931 . S
C1945 C1944 1.391 . S
C1945 C1949 1.376 . S
C1946 C1944 1.394 . S
C1946 C1947 1.369 . S
C1946 C1950 1.531 . S
C1947 C1946 1.369 . S
C1947 C1948 1.410 . S
C1947 C1955 1.503 . S
C1948 C1947 1.410 . S
C1948 C1949 1.392 . S
C1948 C1951 1.511 . S
C1949 C1945 1.376 . S
C1949 C1948 1.392 . S
C1949 H1961 0.929 . S
C1950 C1946 1.531 . S
C1950 H1962 0.960 . S
C1950 H1963 0.962 . S
C1950 H1964 0.960 . S
C1951 C1948 1.511 . S
C1951 H1965 0.961 . S
C1951 H1966 0.961 . S
C1951 H1967 0.961 . S
C1952 C1953 1.370 . S
C1952 C1954 1.363 . S
C1952 H1968 0.931 . S
C1953 C1952 1.370 . S
C1953 C1957 1.408 . S
C1954 C1952 1.363 . S
C1954 C1955 1.370 . S
C1954 C1958 1.524 . S
C1955 C1947 1.503 . S
C1955 C1954 1.370 . S
C1955 C1956 1.403 . S
C1956 C1955 1.403 . S
C1956 C1957 1.404 . S
C1956 C1959 1.539 . S
C1957 C1953 1.408 . S
C1957 C1956 1.404 . S
C1957 H1969 0.930 . S
C1958 C1954 1.524 . S
C1958 H1970 0.956 . S
C1958 H1971 0.961 . S
C1958 H1972 0.961 . S
C1959 C1956 1.539 . S
C1959 H1973 0.958 . S
C1959 H1974 0.961 . S
C1959 H1975 0.960 . S
H1960 C1944 0.931 . S
H1961 C1949 0.929 . S
H1962 C1950 0.960 . S
H1963 C1950 0.962 . S
H1964 C1950 0.960 . S
H1965 C1951 0.961 . S
H1966 C1951 0.961 . S
H1967 C1951 0.961 . S
H1968 C1952 0.931 . S
H1969 C1957 0.930 . S
H1970 C1958 0.956 . S
H1971 C1958 0.961 . S
H1972 C1958 0.961 . S
H1973 C1959 0.958 . S
H1974 C1959 0.961 . S
H1975 C1959 0.960 . S
C1976 C1977 1.391 . S
C1976 C1978 1.394 . S
C1976 H1992 0.931 . S
C1977 C1976 1.391 . S
C1977 C1981 1.376 . S
C1978 C1976 1.394 . S
C1978 C1979 1.369 . S
C1978 C1982 1.531 . S
C1979 C1978 1.369 . S
C1979 C1980 1.410 . S
C1979 C1987 1.503 . S
C1980 C1979 1.410 . S
C1980 C1981 1.392 . S
C1980 C1983 1.511 . S
C1981 C1977 1.376 . S
C1981 C1980 1.392 . S
C1981 H1993 0.929 . S
C1982 C1978 1.531 . S
C1982 H1994 0.960 . S
C1982 H1995 0.962 . S
C1982 H1996 0.960 . S
C1983 C1980 1.511 . S
C1983 H1997 0.961 . S
C1983 H1998 0.961 . S
C1983 H1999 0.961 . S
C1984 C1985 1.370 . S
C1984 C1986 1.363 . S
C1984 H2000 0.931 . S
C1985 C1984 1.370 . S
C1985 C1989 1.408 . S
C1986 C1984 1.363 . S
C1986 C1987 1.370 . S
C1986 C1990 1.524 . S
C1987 C1979 1.503 . S
C1987 C1986 1.370 . S
C1987 C1988 1.403 . S
C1988 C1987 1.403 . S
C1988 C1989 1.404 . S
C1988 C1991 1.539 . S
C1989 C1985 1.408 . S
C1989 C1988 1.404 . S
C1989 H2001 0.930 . S
C1990 C1986 1.524 . S
C1990 H2002 0.956 . S
C1990 H2003 0.961 . S
C1990 H2004 0.961 . S
C1991 C1988 1.539 . S
C1991 H2005 0.958 . S
C1991 H2006 0.961 . S
C1991 H2007 0.960 . S
H1992 C1976 0.931 . S
H1993 C1981 0.929 . S
H1994 C1982 0.960 . S
H1995 C1982 0.962 . S
H1996 C1982 0.960 . S
H1997 C1983 0.961 . S
H1998 C1983 0.961 . S
H1999 C1983 0.961 . S
H2000 C1984 0.931 . S
H2001 C1989 0.930 . S
H2002 C1990 0.956 . S
H2003 C1990 0.961 . S
H2004 C1990 0.961 . S
H2005 C1991 0.958 . S
H2006 C1991 0.961 . S
H2007 C1991 0.960 . S
C2008 C2009 1.391 . S
C2008 C2010 1.394 . S
C2008 H2024 0.931 . S
C2009 C2008 1.391 . S
C2009 C2013 1.376 . S
C2010 C2008 1.394 . S
C2010 C2011 1.369 . S
C2010 C2014 1.531 . S
C2011 C2010 1.369 . S
C2011 C2012 1.410 . S
C2011 C2019 1.503 . S
C2012 C2011 1.410 . S
C2012 C2013 1.392 . S
C2012 C2015 1.511 . S
C2013 C2009 1.376 . S
C2013 C2012 1.392 . S
C2013 H2025 0.929 . S
C2014 C2010 1.531 . S
C2014 H2026 0.960 . S
C2014 H2027 0.962 . S
C2014 H2028 0.960 . S
C2015 C2012 1.511 . S
C2015 H2029 0.961 . S
C2015 H2030 0.961 . S
C2015 H2031 0.961 . S
C2016 C2017 1.370 . S
C2016 C2018 1.363 . S
C2016 H2032 0.931 . S
C2017 C2016 1.370 . S
C2017 C2021 1.408 . S
C2018 C2016 1.363 . S
C2018 C2019 1.370 . S
C2018 C2022 1.524 . S
C2019 C2011 1.503 . S
C2019 C2018 1.370 . S
C2019 C2020 1.403 . S
C2020 C2019 1.403 . S
C2020 C2021 1.404 . S
C2020 C2023 1.539 . S
C2021 C2017 1.408 . S
C2021 C2020 1.404 . S
C2021 H2033 0.930 . S
C2022 C2018 1.524 . S
C2022 H2034 0.956 . S
C2022 H2035 0.961 . S
C2022 H2036 0.961 . S
C2023 C2020 1.539 . S
C2023 H2037 0.958 . S
C2023 H2038 0.961 . S
C2023 H2039 0.960 . S
H2024 C2008 0.931 . S
H2025 C2013 0.929 . S
H2026 C2014 0.960 . S
H2027 C2014 0.962 . S
H2028 C2014 0.960 . S
H2029 C2015 0.961 . S
H2030 C2015 0.961 . S
H2031 C2015 0.961 . S
H2032 C2016 0.931 . S
H2033 C2021 0.930 . S
H2034 C2022 0.956 . S
H2035 C2022 0.961 . S
H2036 C2022 0.961 . S
H2037 C2023 0.958 . S
H2038 C2023 0.961 . S
H2039 C2023 0.960 . S
C2040 C2041 1.391 . S
C2040 C2042 1.394 . S
C2040 H2056 0.931 . S
C2041 C2040 1.391 . S
C2041 C2045 1.376 . S
C2042 C2040 1.394 . S
C2042 C2043 1.369 . S
C2042 C2046 1.531 . S
C2043 C2042 1.369 . S
C2043 C2044 1.410 . S
C2043 C2051 1.503 . S
C2044 C2043 1.410 . S
C2044 C2045 1.392 . S
C2044 C2047 1.511 . S
C2045 C2041 1.376 . S
C2045 C2044 1.392 . S
C2045 H2057 0.929 . S
C2046 C2042 1.531 . S
C2046 H2058 0.960 . S
C2046 H2059 0.962 . S
C2046 H2060 0.960 . S
C2047 C2044 1.511 . S
C2047 H2061 0.961 . S
C2047 H2062 0.961 . S
C2047 H2063 0.961 . S
C2048 C2049 1.370 . S
C2048 C2050 1.363 . S
C2048 H2064 0.931 . S
C2049 C2048 1.370 . S
C2049 C2053 1.408 . S
C2050 C2048 1.363 . S
C2050 C2051 1.370 . S
C2050 C2054 1.524 . S
C2051 C2043 1.503 . S
C2051 C2050 1.370 . S
C2051 C2052 1.403 . S
C2052 C2051 1.403 . S
C2052 C2053 1.404 . S
C2052 C2055 1.539 . S
C2053 C2049 1.408 . S
C2053 C2052 1.404 . S
C2053 H2065 0.930 . S
C2054 C2050 1.524 . S
C2054 H2066 0.956 . S
C2054 H2067 0.961 . S
C2054 H2068 0.961 . S
C2055 C2052 1.539 . S
C2055 H2069 0.958 . S
C2055 H2070 0.961 . S
C2055 H2071 0.960 . S
H2056 C2040 0.931 . S
H2057 C2045 0.929 . S
H2058 C2046 0.960 . S
H2059 C2046 0.962 . S
H2060 C2046 0.960 . S
H2061 C2047 0.961 . S
H2062 C2047 0.961 . S
H2063 C2047 0.961 . S
H2064 C2048 0.931 . S
H2065 C2053 0.930 . S
H2066 C2054 0.956 . S
H2067 C2054 0.961 . S
H2068 C2054 0.961 . S
H2069 C2055 0.958 . S
H2070 C2055 0.961 . S
H2071 C2055 0.960 . S
C2072 C2073 1.391 . S
C2072 C2074 1.394 . S
C2072 H2088 0.931 . S
C2073 C2072 1.391 . S
C2073 C2077 1.376 . S
C2074 C2072 1.394 . S
C2074 C2075 1.369 . S
C2074 C2078 1.531 . S
C2075 C2074 1.369 . S
C2075 C2076 1.410 . S
C2075 C2083 1.503 . S
C2076 C2075 1.410 . S
C2076 C2077 1.392 . S
C2076 C2079 1.511 . S
C2077 C2073 1.376 . S
C2077 C2076 1.392 . S
C2077 H2089 0.929 . S
C2078 C2074 1.531 . S
C2078 H2090 0.960 . S
C2078 H2091 0.962 . S
C2078 H2092 0.960 . S
C2079 C2076 1.511 . S
C2079 H2093 0.961 . S
C2079 H2094 0.961 . S
C2079 H2095 0.961 . S
C2080 C2081 1.370 . S
C2080 C2082 1.363 . S
C2080 H2096 0.931 . S
C2081 C2080 1.370 . S
C2081 C2085 1.408 . S
C2082 C2080 1.363 . S
C2082 C2083 1.370 . S
C2082 C2086 1.524 . S
C2083 C2075 1.503 . S
C2083 C2082 1.370 . S
C2083 C2084 1.403 . S
C2084 C2083 1.403 . S
C2084 C2085 1.404 . S
C2084 C2087 1.539 . S
C2085 C2081 1.408 . S
C2085 C2084 1.404 . S
C2085 H2097 0.930 . S
C2086 C2082 1.524 . S
C2086 H2098 0.956 . S
C2086 H2099 0.961 . S
C2086 H2100 0.961 . S
C2087 C2084 1.539 . S
C2087 H2101 0.958 . S
C2087 H2102 0.961 . S
C2087 H2103 0.960 . S
H2088 C2072 0.931 . S
H2089 C2077 0.929 . S
H2090 C2078 0.960 . S
H2091 C2078 0.962 . S
H2092 C2078 0.960 . S
H2093 C2079 0.961 . S
H2094 C2079 0.961 . S
H2095 C2079 0.961 . S
H2096 C2080 0.931 . S
H2097 C2085 0.930 . S
H2098 C2086 0.956 . S
H2099 C2086 0.961 . S
H2100 C2086 0.961 . S
H2101 C2087 0.958 . S
H2102 C2087 0.961 . S
H2103 C2087 0.960 . S
C2104 C2105 1.391 . S
C2104 C2106 1.394 . S
C2104 H2120 0.931 . S
C2105 C2104 1.391 . S
C2105 C2109 1.376 . S
C2106 C2104 1.394 . S
C2106 C2107 1.369 . S
C2106 C2110 1.531 . S
C2107 C2106 1.369 . S
C2107 C2108 1.410 . S
C2107 C2115 1.503 . S
C2108 C2107 1.410 . S
C2108 C2109 1.392 . S
C2108 C2111 1.511 . S
C2109 C2105 1.376 . S
C2109 C2108 1.392 . S
C2109 H2121 0.929 . S
C2110 C2106 1.531 . S
C2110 H2122 0.960 . S
C2110 H2123 0.962 . S
C2110 H2124 0.960 . S
C2111 C2108 1.511 . S
C2111 H2125 0.961 . S
C2111 H2126 0.961 . S
C2111 H2127 0.961 . S
C2112 C2113 1.370 . S
C2112 C2114 1.363 . S
C2112 H2128 0.931 . S
C2113 C2112 1.370 . S
C2113 C2117 1.408 . S
C2114 C2112 1.363 . S
C2114 C2115 1.370 . S
C2114 C2118 1.524 . S
C2115 C2107 1.503 . S
C2115 C2114 1.370 . S
C2115 C2116 1.403 . S
C2116 C2115 1.403 . S
C2116 C2117 1.404 . S
C2116 C2119 1.539 . S
C2117 C2113 1.408 . S
C2117 C2116 1.404 . S
C2117 H2129 0.930 . S
C2118 C2114 1.524 . S
C2118 H2130 0.956 . S
C2118 H2131 0.961 . S
C2118 H2132 0.961 . S
C2119 C2116 1.539 . S
C2119 H2133 0.958 . S
C2119 H2134 0.961 . S
C2119 H2135 0.960 . S
H2120 C2104 0.931 . S
H2121 C2109 0.929 . S
H2122 C2110 0.960 . S
H2123 C2110 0.962 . S
H2124 C2110 0.960 . S
H2125 C2111 0.961 . S
H2126 C2111 0.961 . S
H2127 C2111 0.961 . S
H2128 C2112 0.931 . S
H2129 C2117 0.930 . S
H2130 C2118 0.956 . S
H2131 C2118 0.961 . S
H2132 C2118 0.961 . S
H2133 C2119 0.958 . S
H2134 C2119 0.961 . S
H2135 C2119 0.960 . S
C2136 C2137 1.391 . S
C2136 C2138 1.394 . S
C2136 H2152 0.931 . S
C2137 C2136 1.391 . S
C2137 C2141 1.376 . S
C2138 C2136 1.394 . S
C2138 C2139 1.369 . S
C2138 C2142 1.531 . S
C2139 C2138 1.369 . S
C2139 C2140 1.410 . S
C2139 C2147 1.503 . S
C2140 C2139 1.410 . S
C2140 C2141 1.392 . S
C2140 C2143 1.511 . S
C2141 C2137 1.376 . S
C2141 C2140 1.392 . S
C2141 H2153 0.929 . S
C2142 C2138 1.531 . S
C2142 H2154 0.960 . S
C2142 H2155 0.962 . S
C2142 H2156 0.960 . S
C2143 C2140 1.511 . S
C2143 H2157 0.961 . S
C2143 H2158 0.961 . S
C2143 H2159 0.961 . S
C2144 C2145 1.370 . S
C2144 C2146 1.363 . S
C2144 H2160 0.931 . S
C2145 C2144 1.370 . S
C2145 C2149 1.408 . S
C2146 C2144 1.363 . S
C2146 C2147 1.370 . S
C2146 C2150 1.524 . S
C2147 C2139 1.503 . S
C2147 C2146 1.370 . S
C2147 C2148 1.403 . S
C2148 C2147 1.403 . S
C2148 C2149 1.404 . S
C2148 C2151 1.539 . S
C2149 C2145 1.408 . S
C2149 C2148 1.404 . S
C2149 H2161 0.930 . S
C2150 C2146 1.524 . S
C2150 H2162 0.956 . S
C2150 H2163 0.961 . S
C2150 H2164 0.961 . S
C2151 C2148 1.539 . S
C2151 H2165 0.958 . S
C2151 H2166 0.961 . S
C2151 H2167 0.960 . S
H2152 C2136 0.931 . S
H2153 C2141 0.929 . S
H2154 C2142 0.960 . S
H2155 C2142 0.962 . S
H2156 C2142 0.960 . S
H2157 C2143 0.961 . S
H2158 C2143 0.961 . S
H2159 C2143 0.961 . S
H2160 C2144 0.931 . S
H2161 C2149 0.930 . S
H2162 C2150 0.956 . S
H2163 C2150 0.961 . S
H2164 C2150 0.961 . S
H2165 C2151 0.958 . S
H2166 C2151 0.961 . S
H2167 C2151 0.960 . S
C2168 C2169 1.391 . S
C2168 C2170 1.394 . S
C2168 H2184 0.931 . S
C2169 C2168 1.391 . S
C2169 C2173 1.376 . S
C2170 C2168 1.394 . S
C2170 C2171 1.369 . S
C2170 C2174 1.531 . S
C2171 C2170 1.369 . S
C2171 C2172 1.410 . S
C2171 C2179 1.503 . S
C2172 C2171 1.410 . S
C2172 C2173 1.392 . S
C2172 C2175 1.511 . S
C2173 C2169 1.376 . S
C2173 C2172 1.392 . S
C2173 H2185 0.929 . S
C2174 C2170 1.531 . S
C2174 H2186 0.960 . S
C2174 H2187 0.962 . S
C2174 H2188 0.960 . S
C2175 C2172 1.511 . S
C2175 H2189 0.961 . S
C2175 H2190 0.961 . S
C2175 H2191 0.961 . S
C2176 C2177 1.370 . S
C2176 C2178 1.363 . S
C2176 H2192 0.931 . S
C2177 C2176 1.370 . S
C2177 C2181 1.408 . S
C2178 C2176 1.363 . S
C2178 C2179 1.370 . S
C2178 C2182 1.524 . S
C2179 C2171 1.503 . S
C2179 C2178 1.370 . S
C2179 C2180 1.403 . S
C2180 C2179 1.403 . S
C2180 C2181 1.404 . S
C2180 C2183 1.539 . S
C2181 C2177 1.408 . S
C2181 C2180 1.404 . S
C2181 H2193 0.930 . S
C2182 C2178 1.524 . S
C2182 H2194 0.956 . S
C2182 H2195 0.961 . S
C2182 H2196 0.961 . S
C2183 C2180 1.539 . S
C2183 H2197 0.958 . S
C2183 H2198 0.961 . S
C2183 H2199 0.960 . S
H2184 C2168 0.931 . S
H2185 C2173 0.929 . S
H2186 C2174 0.960 . S
H2187 C2174 0.962 . S
H2188 C2174 0.960 . S
H2189 C2175 0.961 . S
H2190 C2175 0.961 . S
H2191 C2175 0.961 . S
H2192 C2176 0.931 . S
H2193 C2181 0.930 . S
H2194 C2182 0.956 . S
H2195 C2182 0.961 . S
H2196 C2182 0.961 . S
H2197 C2183 0.958 . S
H2198 C2183 0.961 . S
H2199 C2183 0.960 . S
C2200 C2201 1.391 . S
C2200 C2202 1.394 . S
C2200 H2216 0.931 . S
C2201 C2200 1.391 . S
C2201 C2205 1.376 . S
C2202 C2200 1.394 . S
C2202 C2203 1.369 . S
C2202 C2206 1.531 . S
C2203 C2202 1.369 . S
C2203 C2204 1.410 . S
C2203 C2211 1.503 . S
C2204 C2203 1.410 . S
C2204 C2205 1.392 . S
C2204 C2207 1.511 . S
C2205 C2201 1.376 . S
C2205 C2204 1.392 . S
C2205 H2217 0.929 . S
C2206 C2202 1.531 . S
C2206 H2218 0.960 . S
C2206 H2219 0.962 . S
C2206 H2220 0.960 . S
C2207 C2204 1.511 . S
C2207 H2221 0.961 . S
C2207 H2222 0.961 . S
C2207 H2223 0.961 . S
C2208 C2209 1.370 . S
C2208 C2210 1.363 . S
C2208 H2224 0.931 . S
C2209 C2208 1.370 . S
C2209 C2213 1.408 . S
C2210 C2208 1.363 . S
C2210 C2211 1.370 . S
C2210 C2214 1.524 . S
C2211 C2203 1.503 . S
C2211 C2210 1.370 . S
C2211 C2212 1.403 . S
C2212 C2211 1.403 . S
C2212 C2213 1.404 . S
C2212 C2215 1.539 . S
C2213 C2209 1.408 . S
C2213 C2212 1.404 . S
C2213 H2225 0.930 . S
C2214 C2210 1.524 . S
C2214 H2226 0.956 . S
C2214 H2227 0.961 . S
C2214 H2228 0.961 . S
C2215 C2212 1.539 . S
C2215 H2229 0.958 . S
C2215 H2230 0.961 . S
C2215 H2231 0.960 . S
H2216 C2200 0.931 . S
H2217 C2205 0.929 . S
H2218 C2206 0.960 . S
H2219 C2206 0.962 . S
H2220 C2206 0.960 . S
H2221 C2207 0.961 . S
H2222 C2207 0.961 . S
H2223 C2207 0.961 . S
H2224 C2208 0.931 . S
H2225 C2213 0.930 . S
H2226 C2214 0.956 . S
H2227 C2214 0.961 . S
H2228 C2214 0.961 . S
H2229 C2215 0.958 . S
H2230 C2215 0.961 . S
H2231 C2215 0.960 . S
C2232 C2233 1.391 . S
C2232 C2234 1.394 . S
C2232 H2248 0.931 . S
C2233 C2232 1.391 . S
C2233 C2237 1.376 . S
C2234 C2232 1.394 . S
C2234 C2235 1.369 . S
C2234 C2238 1.531 . S
C2235 C2234 1.369 . S
C2235 C2236 1.410 . S
C2235 C2243 1.503 . S
C2236 C2235 1.410 . S
C2236 C2237 1.392 . S
C2236 C2239 1.511 . S
C2237 C2233 1.376 . S
C2237 C2236 1.392 . S
C2237 H2249 0.929 . S
C2238 C2234 1.531 . S
C2238 H2250 0.960 . S
C2238 H2251 0.962 . S
C2238 H2252 0.960 . S
C2239 C2236 1.511 . S
C2239 H2253 0.961 . S
C2239 H2254 0.961 . S
C2239 H2255 0.961 . S
C2240 C2241 1.370 . S
C2240 C2242 1.363 . S
C2240 H2256 0.931 . S
C2241 C2240 1.370 . S
C2241 C2245 1.408 . S
C2242 C2240 1.363 . S
C2242 C2243 1.370 . S
C2242 C2246 1.524 . S
C2243 C2235 1.503 . S
C2243 C2242 1.370 . S
C2243 C2244 1.403 . S
C2244 C2243 1.403 . S
C2244 C2245 1.404 . S
C2244 C2247 1.539 . S
C2245 C2241 1.408 . S
C2245 C2244 1.404 . S
C2245 H2257 0.930 . S
C2246 C2242 1.524 . S
C2246 H2258 0.956 . S
C2246 H2259 0.961 . S
C2246 H2260 0.961 . S
C2247 C2244 1.539 . S
C2247 H2261 0.958 . S
C2247 H2262 0.961 . S
C2247 H2263 0.960 . S
H2248 C2232 0.931 . S
H2249 C2237 0.929 . S
H2250 C2238 0.960 . S
H2251 C2238 0.962 . S
H2252 C2238 0.960 . S
H2253 C2239 0.961 . S
H2254 C2239 0.961 . S
H2255 C2239 0.961 . S
H2256 C2240 0.931 . S
H2257 C2245 0.930 . S
H2258 C2246 0.956 . S
H2259 C2246 0.961 . S
H2260 C2246 0.961 . S
H2261 C2247 0.958 . S
H2262 C2247 0.961 . S
H2263 C2247 0.960 . S
C2264 C2265 1.391 . S
C2264 C2266 1.394 . S
C2264 H2280 0.931 . S
C2265 C2264 1.391 . S
C2265 C2269 1.376 1_545 S
C2266 C2264 1.394 . S
C2266 C2267 1.369 . S
C2266 C2270 1.531 . S
C2267 C2266 1.369 . S
C2267 C2268 1.410 1_545 S
C2267 C2275 1.507 . S
C2268 C2267 1.410 1_565 S
C2268 C2269 1.392 . S
C2268 C2271 1.511 . S
C2269 C2265 1.376 1_565 S
C2269 C2268 1.392 . S
C2269 H2281 0.929 . S
C2270 C2266 1.531 . S
C2270 H2282 0.960 . S
C2270 H2283 0.962 . S
C2270 H2284 0.960 . S
C2271 C2268 1.511 . S
C2271 H2285 0.961 . S
C2271 H2286 0.961 . S
C2271 H2287 0.961 . S
C2272 C2273 1.370 . S
C2272 C2274 1.363 . S
C2272 H2288 0.931 . S
C2273 C2272 1.370 . S
C2273 C2277 1.408 1_565 S
C2274 C2272 1.363 . S
C2274 C2275 1.355 1_565 S
C2274 C2278 1.524 . S
C2275 C2267 1.507 . S
C2275 C2274 1.355 1_545 S
C2275 C2276 1.415 . S
C2276 C2275 1.415 . S
C2276 C2277 1.404 . S
C2276 C2279 1.539 . S
C2277 C2273 1.408 1_545 S
C2277 C2276 1.404 . S
C2277 H2289 0.930 . S
C2278 C2274 1.524 . S
C2278 H2290 0.956 . S
C2278 H2291 0.961 . S
C2278 H2292 0.961 . S
C2279 C2276 1.539 . S
C2279 H2293 0.958 . S
C2279 H2294 0.961 . S
C2279 H2295 0.960 . S
H2280 C2264 0.931 . S
H2281 C2269 0.929 . S
H2282 C2270 0.960 . S
H2283 C2270 0.962 . S
H2284 C2270 0.960 . S
H2285 C2271 0.961 . S
H2286 C2271 0.961 . S
H2287 C2271 0.961 . S
H2288 C2272 0.931 . S
H2289 C2277 0.930 . S
H2290 C2278 0.956 . S
H2291 C2278 0.961 . S
H2292 C2278 0.961 . S
H2293 C2279 0.958 . S
H2294 C2279 0.961 . S
H2295 C2279 0.960 . S
C2296 C2297 1.391 . S
C2296 C2298 1.394 . S
C2296 H2312 0.931 . S
C2297 C2296 1.391 . S
C2297 C2301 1.376 1_455 S
C2298 C2296 1.394 . S
C2298 C2299 1.369 1_455 S
C2298 C2302 1.531 . S
C2299 C2298 1.369 1_655 S
C2299 C2300 1.410 . S
C2299 C2307 1.503 . S
C2300 C2299 1.410 . S
C2300 C2301 1.392 . S
C2300 C2303 1.511 . S
C2301 C2297 1.376 1_655 S
C2301 C2300 1.392 . S
C2301 H2313 0.929 . S
C2302 C2298 1.531 . S
C2302 H2314 0.960 . S
C2302 H2315 0.962 . S
C2302 H2316 0.960 . S
C2303 C2300 1.511 . S
C2303 H2317 0.961 . S
C2303 H2318 0.961 . S
C2303 H2319 0.961 . S
C2304 C2305 1.370 1_455 S
C2304 C2306 1.363 . S
C2304 H2320 0.931 . S
C2305 C2304 1.370 1_655 S
C2305 C2309 1.408 . S
C2306 C2304 1.363 . S
C2306 C2307 1.370 1_455 S
C2306 C2310 1.524 . S
C2307 C2299 1.503 . S
C2307 C2306 1.370 1_655 S
C2307 C2308 1.403 . S
C2308 C2307 1.403 . S
C2308 C2309 1.404 . S
C2308 C2311 1.539 . S
C2309 C2305 1.408 . S
C2309 C2308 1.404 . S
C2309 H2321 0.930 . S
C2310 C2306 1.524 . S
C2310 H2322 0.956 . S
C2310 H2323 0.961 . S
C2310 H2324 0.961 . S
C2311 C2308 1.539 . S
C2311 H2325 0.958 . S
C2311 H2326 0.961 . S
C2311 H2327 0.960 . S
H2312 C2296 0.931 . S
H2313 C2301 0.929 . S
H2314 C2302 0.960 . S
H2315 C2302 0.962 . S
H2316 C2302 0.960 . S
H2317 C2303 0.961 . S
H2318 C2303 0.961 . S
H2319 C2303 0.961 . S
H2320 C2304 0.931 . S
H2321 C2309 0.930 . S
H2322 C2310 0.956 . S
H2323 C2310 0.961 . S
H2324 C2310 0.961 . S
H2325 C2311 0.958 . S
H2326 C2311 0.961 . S
H2327 C2311 0.960 . S
C2328 C2329 1.391 . S
C2328 C2330 1.394 . S
C2328 H2344 0.931 . S
C2329 C2328 1.391 . S
C2329 C2333 1.376 . S
C2330 C2328 1.394 . S
C2330 C2331 1.369 . S
C2330 C2334 1.531 . S
C2331 C2330 1.369 . S
C2331 C2332 1.410 . S
C2331 C2339 1.503 . S
C2332 C2331 1.410 . S
C2332 C2333 1.392 . S
C2332 C2335 1.511 . S
C2333 C2329 1.376 . S
C2333 C2332 1.392 . S
C2333 H2345 0.929 . S
C2334 C2330 1.531 . S
C2334 H2346 0.960 . S
C2334 H2347 0.962 . S
C2334 H2348 0.960 . S
C2335 C2332 1.511 . S
C2335 H2349 0.961 . S
C2335 H2350 0.961 . S
C2335 H2351 0.961 . S
C2336 C2337 1.370 . S
C2336 C2338 1.363 . S
C2336 H2352 0.931 . S
C2337 C2336 1.370 . S
C2337 C2341 1.408 . S
C2338 C2336 1.363 . S
C2338 C2339 1.370 . S
C2338 C2342 1.524 . S
C2339 C2331 1.503 . S
C2339 C2338 1.370 . S
C2339 C2340 1.403 . S
C2340 C2339 1.403 . S
C2340 C2341 1.404 . S
C2340 C2343 1.539 . S
C2341 C2337 1.408 . S
C2341 C2340 1.404 . S
C2341 H2353 0.930 . S
C2342 C2338 1.524 . S
C2342 H2354 0.956 . S
C2342 H2355 0.961 . S
C2342 H2356 0.961 . S
C2343 C2340 1.539 . S
C2343 H2357 0.958 . S
C2343 H2358 0.961 . S
C2343 H2359 0.960 . S
H2344 C2328 0.931 . S
H2345 C2333 0.929 . S
H2346 C2334 0.960 . S
H2347 C2334 0.962 . S
H2348 C2334 0.960 . S
H2349 C2335 0.961 . S
H2350 C2335 0.961 . S
H2351 C2335 0.961 . S
H2352 C2336 0.931 . S
H2353 C2341 0.930 . S
H2354 C2342 0.956 . S
H2355 C2342 0.961 . S
H2356 C2342 0.961 . S
H2357 C2343 0.958 . S
H2358 C2343 0.961 . S
H2359 C2343 0.960 . S
C2360 C2361 1.391 . S
C2360 C2362 1.394 . S
C2360 H2376 0.931 . S
C2361 C2360 1.391 . S
C2361 C2365 1.376 1_545 S
C2362 C2360 1.394 . S
C2362 C2363 1.369 . S
C2362 C2366 1.531 . S
C2363 C2362 1.369 . S
C2363 C2364 1.410 1_545 S
C2363 C2371 1.506 . S
C2364 C2363 1.410 1_565 S
C2364 C2365 1.392 . S
C2364 C2367 1.511 . S
C2365 C2361 1.376 1_565 S
C2365 C2364 1.392 . S
C2365 H2377 0.929 . S
C2366 C2362 1.531 . S
C2366 H2378 0.960 . S
C2366 H2379 0.962 . S
C2366 H2380 0.960 . S
C2367 C2364 1.511 . S
C2367 H2381 0.961 . S
C2367 H2382 0.961 . S
C2367 H2383 0.961 . S
C2368 C2369 1.370 . S
C2368 C2370 1.363 . S
C2368 H2384 0.931 . S
C2369 C2368 1.370 . S
C2369 C2373 1.408 1_565 S
C2370 C2368 1.363 . S
C2370 C2371 1.360 1_565 S
C2370 C2374 1.524 . S
C2371 C2363 1.506 . S
C2371 C2370 1.360 1_545 S
C2371 C2372 1.411 . S
C2372 C2371 1.411 . S
C2372 C2373 1.404 . S
C2372 C2375 1.539 . S
C2373 C2369 1.408 1_545 S
C2373 C2372 1.404 . S
C2373 H2385 0.930 . S
C2374 C2370 1.524 . S
C2374 H2386 0.956 . S
C2374 H2387 0.961 . S
C2374 H2388 0.961 . S
C2375 C2372 1.539 . S
C2375 H2389 0.958 . S
C2375 H2390 0.961 . S
C2375 H2391 0.960 . S
H2376 C2360 0.931 . S
H2377 C2365 0.929 . S
H2378 C2366 0.960 . S
H2379 C2366 0.962 . S
H2380 C2366 0.960 . S
H2381 C2367 0.961 . S
H2382 C2367 0.961 . S
H2383 C2367 0.961 . S
H2384 C2368 0.931 . S
H2385 C2373 0.930 . S
H2386 C2374 0.956 . S
H2387 C2374 0.961 . S
H2388 C2374 0.961 . S
H2389 C2375 0.958 . S
H2390 C2375 0.961 . S
H2391 C2375 0.960 . S
C2392 C2393 1.391 . S
C2392 C2394 1.394 . S
C2392 H2408 0.931 . S
C2393 C2392 1.391 . S
C2393 C2397 1.376 1_655 S
C2394 C2392 1.394 . S
C2394 C2395 1.369 1_655 S
C2394 C2398 1.531 . S
C2395 C2394 1.369 1_455 S
C2395 C2396 1.410 . S
C2395 C2403 1.503 . S
C2396 C2395 1.410 . S
C2396 C2397 1.392 . S
C2396 C2399 1.511 . S
C2397 C2393 1.376 1_455 S
C2397 C2396 1.392 . S
C2397 H2409 0.929 . S
C2398 C2394 1.531 . S
C2398 H2410 0.960 . S
C2398 H2411 0.962 . S
C2398 H2412 0.960 . S
C2399 C2396 1.511 . S
C2399 H2413 0.961 . S
C2399 H2414 0.961 . S
C2399 H2415 0.961 . S
C2400 C2401 1.370 1_655 S
C2400 C2402 1.363 . S
C2400 H2416 0.931 . S
C2401 C2400 1.370 1_455 S
C2401 C2405 1.408 . S
C2402 C2400 1.363 . S
C2402 C2403 1.370 1_655 S
C2402 C2406 1.524 . S
C2403 C2395 1.503 . S
C2403 C2402 1.370 1_455 S
C2403 C2404 1.403 . S
C2404 C2403 1.403 . S
C2404 C2405 1.404 . S
C2404 C2407 1.539 . S
C2405 C2401 1.408 . S
C2405 C2404 1.404 . S
C2405 H2417 0.930 . S
C2406 C2402 1.524 . S
C2406 H2418 0.956 . S
C2406 H2419 0.961 . S
C2406 H2420 0.961 . S
C2407 C2404 1.539 . S
C2407 H2421 0.958 . S
C2407 H2422 0.961 . S
C2407 H2423 0.960 . S
H2408 C2392 0.931 . S
H2409 C2397 0.929 . S
H2410 C2398 0.960 . S
H2411 C2398 0.962 . S
H2412 C2398 0.960 . S
H2413 C2399 0.961 . S
H2414 C2399 0.961 . S
H2415 C2399 0.961 . S
H2416 C2400 0.931 . S
H2417 C2405 0.930 . S
H2418 C2406 0.956 . S
H2419 C2406 0.961 . S
H2420 C2406 0.961 . S
H2421 C2407 0.958 . S
H2422 C2407 0.961 . S
H2423 C2407 0.960 . S
C2424 C2425 1.391 . S
C2424 C2426 1.394 . S
C2424 H2440 0.931 . S
C2425 C2424 1.391 . S
C2425 C2429 1.376 . S
C2426 C2424 1.394 . S
C2426 C2427 1.369 . S
C2426 C2430 1.531 . S
C2427 C2426 1.369 . S
C2427 C2428 1.410 . S
C2427 C2435 1.503 . S
C2428 C2427 1.410 . S
C2428 C2429 1.392 . S
C2428 C2431 1.511 . S
C2429 C2425 1.376 . S
C2429 C2428 1.392 . S
C2429 H2441 0.929 . S
C2430 C2426 1.531 . S
C2430 H2442 0.960 . S
C2430 H2443 0.962 . S
C2430 H2444 0.960 . S
C2431 C2428 1.511 . S
C2431 H2445 0.961 . S
C2431 H2446 0.961 . S
C2431 H2447 0.961 . S
C2432 C2433 1.370 . S
C2432 C2434 1.363 . S
C2432 H2448 0.931 . S
C2433 C2432 1.370 . S
C2433 C2437 1.408 . S
C2434 C2432 1.363 . S
C2434 C2435 1.370 . S
C2434 C2438 1.524 . S
C2435 C2427 1.503 . S
C2435 C2434 1.370 . S
C2435 C2436 1.403 . S
C2436 C2435 1.403 . S
C2436 C2437 1.404 . S
C2436 C2439 1.539 . S
C2437 C2433 1.408 . S
C2437 C2436 1.404 . S
C2437 H2449 0.930 . S
C2438 C2434 1.524 . S
C2438 H2450 0.956 . S
C2438 H2451 0.961 . S
C2438 H2452 0.961 . S
C2439 C2436 1.539 . S
C2439 H2453 0.958 . S
C2439 H2454 0.961 . S
C2439 H2455 0.960 . S
H2440 C2424 0.931 . S
H2441 C2429 0.929 . S
H2442 C2430 0.960 . S
H2443 C2430 0.962 . S
H2444 C2430 0.960 . S
H2445 C2431 0.961 . S
H2446 C2431 0.961 . S
H2447 C2431 0.961 . S
H2448 C2432 0.931 . S
H2449 C2437 0.930 . S
H2450 C2438 0.956 . S
H2451 C2438 0.961 . S
H2452 C2438 0.961 . S
H2453 C2439 0.958 . S
H2454 C2439 0.961 . S
H2455 C2439 0.960 . S
C2456 C2457 1.391 . S
C2456 C2458 1.394 . S
C2456 H2472 0.931 . S
C2457 C2456 1.391 . S
C2457 C2461 1.376 . S
C2458 C2456 1.394 . S
C2458 C2459 1.369 . S
C2458 C2462 1.531 . S
C2459 C2458 1.369 . S
C2459 C2460 1.410 . S
C2459 C2467 1.503 . S
C2460 C2459 1.410 . S
C2460 C2461 1.392 . S
C2460 C2463 1.511 . S
C2461 C2457 1.376 . S
C2461 C2460 1.392 . S
C2461 H2473 0.929 . S
C2462 C2458 1.531 . S
C2462 H2474 0.960 . S
C2462 H2475 0.962 . S
C2462 H2476 0.960 . S
C2463 C2460 1.511 . S
C2463 H2477 0.961 . S
C2463 H2478 0.961 . S
C2463 H2479 0.961 . S
C2464 C2465 1.370 . S
C2464 C2466 1.363 . S
C2464 H2480 0.931 . S
C2465 C2464 1.370 . S
C2465 C2469 1.408 . S
C2466 C2464 1.363 . S
C2466 C2467 1.370 . S
C2466 C2470 1.524 . S
C2467 C2459 1.503 . S
C2467 C2466 1.370 . S
C2467 C2468 1.403 . S
C2468 C2467 1.403 . S
C2468 C2469 1.404 . S
C2468 C2471 1.539 . S
C2469 C2465 1.408 . S
C2469 C2468 1.404 . S
C2469 H2481 0.930 . S
C2470 C2466 1.524 . S
C2470 H2482 0.956 . S
C2470 H2483 0.961 . S
C2470 H2484 0.961 . S
C2471 C2468 1.539 . S
C2471 H2485 0.958 . S
C2471 H2486 0.961 . S
C2471 H2487 0.960 . S
H2472 C2456 0.931 . S
H2473 C2461 0.929 . S
H2474 C2462 0.960 . S
H2475 C2462 0.962 . S
H2476 C2462 0.960 . S
H2477 C2463 0.961 . S
H2478 C2463 0.961 . S
H2479 C2463 0.961 . S
H2480 C2464 0.931 . S
H2481 C2469 0.930 . S
H2482 C2470 0.956 . S
H2483 C2470 0.961 . S
H2484 C2470 0.961 . S
H2485 C2471 0.958 . S
H2486 C2471 0.961 . S
H2487 C2471 0.960 . S
C2488 C2489 1.391 . S
C2488 C2490 1.394 . S
C2488 H2504 0.931 . S
C2489 C2488 1.391 . S
C2489 C2493 1.376 . S
C2490 C2488 1.394 . S
C2490 C2491 1.369 . S
C2490 C2494 1.531 . S
C2491 C2490 1.369 . S
C2491 C2492 1.410 . S
C2491 C2499 1.503 . S
C2492 C2491 1.410 . S
C2492 C2493 1.392 . S
C2492 C2495 1.511 . S
C2493 C2489 1.376 . S
C2493 C2492 1.392 . S
C2493 H2505 0.929 . S
C2494 C2490 1.531 . S
C2494 H2506 0.960 . S
C2494 H2507 0.962 . S
C2494 H2508 0.960 . S
C2495 C2492 1.511 . S
C2495 H2509 0.961 . S
C2495 H2510 0.961 . S
C2495 H2511 0.961 . S
C2496 C2497 1.370 . S
C2496 C2498 1.363 . S
C2496 H2512 0.931 . S
C2497 C2496 1.370 . S
C2497 C2501 1.408 . S
C2498 C2496 1.363 . S
C2498 C2499 1.370 . S
C2498 C2502 1.524 . S
C2499 C2491 1.503 . S
C2499 C2498 1.370 . S
C2499 C2500 1.403 . S
C2500 C2499 1.403 . S
C2500 C2501 1.404 . S
C2500 C2503 1.539 . S
C2501 C2497 1.408 . S
C2501 C2500 1.404 . S
C2501 H2513 0.930 . S
C2502 C2498 1.524 . S
C2502 H2514 0.956 . S
C2502 H2515 0.961 . S
C2502 H2516 0.961 . S
C2503 C2500 1.539 . S
C2503 H2517 0.958 . S
C2503 H2518 0.961 . S
C2503 H2519 0.960 . S
H2504 C2488 0.931 . S
H2505 C2493 0.929 . S
H2506 C2494 0.960 . S
H2507 C2494 0.962 . S
H2508 C2494 0.960 . S
H2509 C2495 0.961 . S
H2510 C2495 0.961 . S
H2511 C2495 0.961 . S
H2512 C2496 0.931 . S
H2513 C2501 0.930 . S
H2514 C2502 0.956 . S
H2515 C2502 0.961 . S
H2516 C2502 0.961 . S
H2517 C2503 0.958 . S
H2518 C2503 0.961 . S
H2519 C2503 0.960 . S
C2520 C2521 1.391 . S
C2520 C2522 1.394 . S
C2520 H2536 0.931 . S
C2521 C2520 1.391 . S
C2521 C2525 1.376 . S
C2522 C2520 1.394 . S
C2522 C2523 1.369 . S
C2522 C2526 1.531 . S
C2523 C2522 1.369 . S
C2523 C2524 1.410 . S
C2523 C2531 1.503 . S
C2524 C2523 1.410 . S
C2524 C2525 1.392 . S
C2524 C2527 1.511 . S
C2525 C2521 1.376 . S
C2525 C2524 1.392 . S
C2525 H2537 0.929 . S
C2526 C2522 1.531 . S
C2526 H2538 0.960 . S
C2526 H2539 0.962 . S
C2526 H2540 0.960 . S
C2527 C2524 1.511 . S
C2527 H2541 0.961 . S
C2527 H2542 0.961 . S
C2527 H2543 0.961 . S
C2528 C2529 1.370 1_554 S
C2528 C2530 1.363 . S
C2528 H2544 0.931 . S
C2529 C2528 1.370 1_556 S
C2529 C2533 1.408 1_556 S
C2530 C2528 1.363 . S
C2530 C2531 1.370 . S
C2530 C2534 1.524 . S
C2531 C2523 1.503 . S
C2531 C2530 1.370 . S
C2531 C2532 1.403 . S
C2532 C2531 1.403 . S
C2532 C2533 1.404 . S
C2532 C2535 1.539 . S
C2533 C2529 1.408 1_554 S
C2533 C2532 1.404 . S
C2533 H2545 0.930 1_554 S
C2534 C2530 1.524 . S
C2534 H2546 0.956 . S
C2534 H2547 0.961 . S
C2534 H2548 0.961 . S
C2535 C2532 1.539 . S
C2535 H2549 0.958 . S
C2535 H2550 0.961 . S
C2535 H2551 0.960 . S
H2536 C2520 0.931 . S
H2537 C2525 0.929 . S
H2538 C2526 0.960 . S
H2539 C2526 0.962 . S
H2540 C2526 0.960 . S
H2541 C2527 0.961 . S
H2542 C2527 0.961 . S
H2543 C2527 0.961 . S
H2544 C2528 0.931 . S
H2545 C2533 0.930 1_556 S
H2546 C2534 0.956 . S
H2547 C2534 0.961 . S
H2548 C2534 0.961 . S
H2549 C2535 0.958 . S
H2550 C2535 0.961 . S
H2551 C2535 0.960 . S
C2552 C2553 1.391 . S
C2552 C2554 1.394 . S
C2552 H2568 0.931 . S
C2553 C2552 1.391 . S
C2553 C2557 1.376 . S
C2554 C2552 1.394 . S
C2554 C2555 1.369 . S
C2554 C2558 1.531 . S
C2555 C2554 1.369 . S
C2555 C2556 1.410 . S
C2555 C2563 1.503 . S
C2556 C2555 1.410 . S
C2556 C2557 1.392 . S
C2556 C2559 1.511 . S
C2557 C2553 1.376 . S
C2557 C2556 1.392 . S
C2557 H2569 0.929 . S
C2558 C2554 1.531 . S
C2558 H2570 0.960 . S
C2558 H2571 0.962 . S
C2558 H2572 0.960 . S
C2559 C2556 1.511 . S
C2559 H2573 0.961 . S
C2559 H2574 0.961 . S
C2559 H2575 0.961 . S
C2560 C2561 1.370 1_554 S
C2560 C2562 1.363 . S
C2560 H2576 0.931 1_554 S
C2561 C2560 1.370 1_556 S
C2561 C2565 1.408 1_556 S
C2562 C2560 1.363 . S
C2562 C2563 1.370 . S
C2562 C2566 1.524 . S
C2563 C2555 1.503 . S
C2563 C2562 1.370 . S
C2563 C2564 1.403 . S
C2564 C2563 1.403 . S
C2564 C2565 1.404 . S
C2564 C2567 1.539 . S
C2565 C2561 1.408 1_554 S
C2565 C2564 1.404 . S
C2565 H2577 0.931 . S
C2566 C2562 1.524 . S
C2566 H2578 0.956 . S
C2566 H2579 0.961 . S
C2566 H2580 0.961 . S
C2567 C2564 1.539 . S
C2567 H2581 0.958 . S
C2567 H2582 0.961 . S
C2567 H2583 0.960 . S
H2568 C2552 0.931 . S
H2569 C2557 0.929 . S
H2570 C2558 0.960 . S
H2571 C2558 0.962 . S
H2572 C2558 0.960 . S
H2573 C2559 0.961 . S
H2574 C2559 0.961 . S
H2575 C2559 0.961 . S
H2576 C2560 0.931 1_556 S
H2577 C2565 0.931 . S
H2578 C2566 0.956 . S
H2579 C2566 0.961 . S
H2580 C2566 0.961 . S
H2581 C2567 0.958 . S
H2582 C2567 0.961 . S
H2583 C2567 0.960 . S
C2584 C2585 1.391 . S
C2584 C2586 1.394 . S
C2584 H2600 0.931 . S
C2585 C2584 1.391 . S
C2585 C2589 1.376 . S
C2586 C2584 1.394 . S
C2586 C2587 1.369 . S
C2586 C2590 1.531 . S
C2587 C2586 1.369 . S
C2587 C2588 1.410 . S
C2587 C2595 1.503 . S
C2588 C2587 1.410 . S
C2588 C2589 1.392 . S
C2588 C2591 1.511 . S
C2589 C2585 1.376 . S
C2589 C2588 1.392 . S
C2589 H2601 0.929 . S
C2590 C2586 1.531 . S
C2590 H2602 0.960 . S
C2590 H2603 0.962 . S
C2590 H2604 0.960 . S
C2591 C2588 1.511 . S
C2591 H2605 0.961 . S
C2591 H2606 0.961 . S
C2591 H2607 0.961 . S
C2592 C2593 1.370 1_554 S
C2592 C2594 1.363 . S
C2592 H2608 0.931 . S
C2593 C2592 1.370 1_556 S
C2593 C2597 1.408 1_556 S
C2594 C2592 1.363 . S
C2594 C2595 1.370 . S
C2594 C2598 1.524 . S
C2595 C2587 1.503 . S
C2595 C2594 1.370 . S
C2595 C2596 1.403 . S
C2596 C2595 1.403 . S
C2596 C2597 1.404 . S
C2596 C2599 1.539 . S
C2597 C2593 1.408 1_554 S
C2597 C2596 1.404 . S
C2597 H2609 0.930 1_554 S
C2598 C2594 1.524 . S
C2598 H2610 0.956 . S
C2598 H2611 0.961 . S
C2598 H2612 0.961 . S
C2599 C2596 1.539 . S
C2599 H2613 0.958 . S
C2599 H2614 0.961 . S
C2599 H2615 0.960 . S
H2600 C2584 0.931 . S
H2601 C2589 0.929 . S
H2602 C2590 0.960 . S
H2603 C2590 0.962 . S
H2604 C2590 0.960 . S
H2605 C2591 0.961 . S
H2606 C2591 0.961 . S
H2607 C2591 0.961 . S
H2608 C2592 0.931 . S
H2609 C2597 0.930 1_556 S
H2610 C2598 0.956 . S
H2611 C2598 0.961 . S
H2612 C2598 0.961 . S
H2613 C2599 0.958 . S
H2614 C2599 0.961 . S
H2615 C2599 0.960 . S
C2616 C2617 1.391 1_556 S
C2616 C2618 1.394 . S
C2616 H2632 0.931 . S
C2617 C2616 1.391 1_554 S
C2617 C2621 1.376 1_554 S
C2618 C2616 1.394 . S
C2618 C2619 1.369 . S
C2618 C2622 1.531 . S
C2619 C2618 1.369 . S
C2619 C2620 1.410 . S
C2619 C2627 1.503 . S
C2620 C2619 1.410 . S
C2620 C2621 1.392 . S
C2620 C2623 1.511 . S
C2621 C2617 1.376 1_556 S
C2621 C2620 1.392 . S
C2621 H2633 0.929 1_556 S
C2622 C2618 1.531 . S
C2622 H2634 0.960 . S
C2622 H2635 0.962 . S
C2622 H2636 0.960 . S
C2623 C2620 1.511 . S
C2623 H2637 0.961 . S
C2623 H2638 0.961 . S
C2623 H2639 0.961 . S
C2624 C2625 1.370 . S
C2624 C2626 1.363 . S
C2624 H2640 0.931 . S
C2625 C2624 1.370 . S
C2625 C2629 1.408 . S
C2626 C2624 1.363 . S
C2626 C2627 1.370 . S
C2626 C2630 1.524 . S
C2627 C2619 1.503 . S
C2627 C2626 1.370 . S
C2627 C2628 1.403 . S
C2628 C2627 1.403 . S
C2628 C2629 1.404 . S
C2628 C2631 1.539 . S
C2629 C2625 1.408 . S
C2629 C2628 1.404 . S
C2629 H2641 0.930 . S
C2630 C2626 1.524 . S
C2630 H2642 0.956 . S
C2630 H2643 0.961 . S
C2630 H2644 0.961 . S
C2631 C2628 1.539 . S
C2631 H2645 0.958 . S
C2631 H2646 0.961 . S
C2631 H2647 0.960 . S
H2632 C2616 0.931 . S
H2633 C2621 0.929 1_554 S
H2634 C2622 0.960 . S
H2635 C2622 0.962 . S
H2636 C2622 0.960 . S
H2637 C2623 0.961 . S
H2638 C2623 0.961 . S
H2639 C2623 0.961 . S
H2640 C2624 0.931 . S
H2641 C2629 0.930 . S
H2642 C2630 0.956 . S
H2643 C2630 0.961 . S
H2644 C2630 0.961 . S
H2645 C2631 0.958 . S
H2646 C2631 0.961 . S
H2647 C2631 0.960 . S
C2648 C2649 1.391 1_556 S
C2648 C2650 1.394 . S
C2648 H2664 0.931 1_556 S
C2649 C2648 1.391 1_554 S
C2649 C2653 1.376 1_554 S
C2650 C2648 1.394 . S
C2650 C2651 1.369 . S
C2650 C2654 1.531 . S
C2651 C2650 1.369 . S
C2651 C2652 1.410 . S
C2651 C2659 1.503 . S
C2652 C2651 1.410 . S
C2652 C2653 1.392 . S
C2652 C2655 1.511 . S
C2653 C2649 1.376 1_556 S
C2653 C2652 1.392 . S
C2653 H2665 0.929 1_556 S
C2654 C2650 1.531 . S
C2654 H2666 0.960 . S
C2654 H2667 0.962 . S
C2654 H2668 0.960 . S
C2655 C2652 1.511 . S
C2655 H2669 0.961 . S
C2655 H2670 0.961 . S
C2655 H2671 0.961 . S
C2656 C2657 1.370 . S
C2656 C2658 1.363 . S
C2656 H2672 0.931 . S
C2657 C2656 1.370 . S
C2657 C2661 1.408 . S
C2658 C2656 1.363 . S
C2658 C2659 1.370 . S
C2658 C2662 1.524 . S
C2659 C2651 1.503 . S
C2659 C2658 1.370 . S
C2659 C2660 1.403 . S
C2660 C2659 1.403 . S
C2660 C2661 1.404 . S
C2660 C2663 1.539 . S
C2661 C2657 1.408 . S
C2661 C2660 1.404 . S
C2661 H2673 0.930 . S
C2662 C2658 1.524 . S
C2662 H2674 0.956 . S
C2662 H2675 0.961 . S
C2662 H2676 0.961 . S
C2663 C2660 1.539 . S
C2663 H2677 0.958 . S
C2663 H2678 0.961 . S
C2663 H2679 0.960 . S
H2664 C2648 0.931 1_554 S
H2665 C2653 0.929 1_554 S
H2666 C2654 0.960 . S
H2667 C2654 0.962 . S
H2668 C2654 0.960 . S
H2669 C2655 0.961 . S
H2670 C2655 0.961 . S
H2671 C2655 0.961 . S
H2672 C2656 0.931 . S
H2673 C2661 0.930 . S
H2674 C2662 0.956 . S
H2675 C2662 0.961 . S
H2676 C2662 0.961 . S
H2677 C2663 0.958 . S
H2678 C2663 0.961 . S
H2679 C2663 0.960 . S
C2680 C2681 1.391 1_556 S
C2680 C2682 1.394 . S
C2680 H2696 0.936 . S
C2681 C2680 1.391 1_554 S
C2681 C2685 1.376 1_554 S
C2682 C2680 1.394 . S
C2682 C2683 1.369 . S
C2682 C2686 1.531 . S
C2683 C2682 1.369 . S
C2683 C2684 1.410 . S
C2683 C2691 1.503 . S
C2684 C2683 1.410 . S
C2684 C2685 1.392 . S
C2684 C2687 1.511 . S
C2685 C2681 1.376 1_556 S
C2685 C2684 1.392 . S
C2685 H2697 0.929 1_556 S
C2686 C2682 1.531 . S
C2686 H2698 0.960 . S
C2686 H2699 0.962 . S
C2686 H2700 0.960 . S
C2687 C2684 1.511 . S
C2687 H2701 0.961 . S
C2687 H2702 0.961 . S
C2687 H2703 0.961 . S
C2688 C2689 1.370 . S
C2688 C2690 1.363 . S
C2688 H2704 0.931 . S
C2689 C2688 1.370 . S
C2689 C2693 1.408 . S
C2690 C2688 1.363 . S
C2690 C2691 1.370 . S
C2690 C2694 1.524 . S
C2691 C2683 1.503 . S
C2691 C2690 1.370 . S
C2691 C2692 1.403 . S
C2692 C2691 1.403 . S
C2692 C2693 1.404 . S
C2692 C2695 1.539 . S
C2693 C2689 1.408 . S
C2693 C2692 1.404 . S
C2693 H2705 0.930 . S
C2694 C2690 1.524 . S
C2694 H2706 0.956 . S
C2694 H2707 0.961 . S
C2694 H2708 0.961 . S
C2695 C2692 1.539 . S
C2695 H2709 0.958 . S
C2695 H2710 0.961 . S
C2695 H2711 0.960 . S
H2696 C2680 0.936 . S
H2697 C2685 0.929 1_554 S
H2698 C2686 0.960 . S
H2699 C2686 0.962 . S
H2700 C2686 0.960 . S
H2701 C2687 0.961 . S
H2702 C2687 0.961 . S
H2703 C2687 0.961 . S
H2704 C2688 0.931 . S
H2705 C2693 0.930 . S
H2706 C2694 0.956 . S
H2707 C2694 0.961 . S
H2708 C2694 0.961 . S
H2709 C2695 0.958 . S
H2710 C2695 0.961 . S
H2711 C2695 0.960 . S
C2712 C2713 1.391 . S
C2712 C2714 1.394 . S
C2712 H2728 0.931 . S
C2713 C2712 1.391 . S
C2713 C2717 1.376 . S
C2714 C2712 1.394 . S
C2714 C2715 1.369 . S
C2714 C2718 1.531 . S
C2715 C2714 1.369 . S
C2715 C2716 1.410 . S
C2715 C2723 1.503 . S
C2716 C2715 1.410 . S
C2716 C2717 1.392 . S
C2716 C2719 1.511 . S
C2717 C2713 1.376 . S
C2717 C2716 1.392 . S
C2717 H2729 0.929 . S
C2718 C2714 1.531 . S
C2718 H2730 0.960 . S
C2718 H2731 0.962 . S
C2718 H2732 0.960 . S
C2719 C2716 1.511 . S
C2719 H2733 0.961 . S
C2719 H2734 0.961 . S
C2719 H2735 0.961 . S
C2720 C2721 1.370 . S
C2720 C2722 1.363 . S
C2720 H2736 0.931 . S
C2721 C2720 1.370 . S
C2721 C2725 1.408 . S
C2722 C2720 1.363 . S
C2722 C2723 1.370 . S
C2722 C2726 1.524 . S
C2723 C2715 1.503 . S
C2723 C2722 1.370 . S
C2723 C2724 1.403 . S
C2724 C2723 1.403 . S
C2724 C2725 1.404 . S
C2724 C2727 1.539 . S
C2725 C2721 1.408 . S
C2725 C2724 1.404 . S
C2725 H2737 0.930 . S
C2726 C2722 1.524 . S
C2726 H2738 0.956 . S
C2726 H2739 0.961 . S
C2726 H2740 0.961 . S
C2727 C2724 1.539 . S
C2727 H2741 0.958 . S
C2727 H2742 0.961 . S
C2727 H2743 0.960 . S
H2728 C2712 0.931 . S
H2729 C2717 0.929 . S
H2730 C2718 0.960 . S
H2731 C2718 0.962 . S
H2732 C2718 0.960 . S
H2733 C2719 0.961 . S
H2734 C2719 0.961 . S
H2735 C2719 0.961 . S
H2736 C2720 0.931 . S
H2737 C2725 0.930 . S
H2738 C2726 0.956 . S
H2739 C2726 0.961 . S
H2740 C2726 0.961 . S
H2741 C2727 0.958 . S
H2742 C2727 0.961 . S
H2743 C2727 0.960 . S
C2744 C2745 1.391 . S
C2744 C2746 1.394 . S
C2744 H2760 0.931 . S
C2745 C2744 1.391 . S
C2745 C2749 1.376 . S
C2746 C2744 1.394 . S
C2746 C2747 1.369 . S
C2746 C2750 1.531 . S
C2747 C2746 1.369 . S
C2747 C2748 1.410 . S
C2747 C2755 1.503 . S
C2748 C2747 1.410 . S
C2748 C2749 1.392 . S
C2748 C2751 1.511 . S
C2749 C2745 1.376 . S
C2749 C2748 1.392 . S
C2749 H2761 0.929 . S
C2750 C2746 1.531 . S
C2750 H2762 0.960 . S
C2750 H2763 0.962 . S
C2750 H2764 0.960 . S
C2751 C2748 1.511 . S
C2751 H2765 0.961 . S
C2751 H2766 0.961 . S
C2751 H2767 0.961 . S
C2752 C2753 1.370 . S
C2752 C2754 1.363 . S
C2752 H2768 0.931 . S
C2753 C2752 1.370 . S
C2753 C2757 1.408 . S
C2754 C2752 1.363 . S
C2754 C2755 1.370 . S
C2754 C2758 1.524 . S
C2755 C2747 1.503 . S
C2755 C2754 1.370 . S
C2755 C2756 1.403 . S
C2756 C2755 1.403 . S
C2756 C2757 1.404 . S
C2756 C2759 1.539 . S
C2757 C2753 1.408 . S
C2757 C2756 1.404 . S
C2757 H2769 0.930 . S
C2758 C2754 1.524 . S
C2758 H2770 0.956 . S
C2758 H2771 0.961 . S
C2758 H2772 0.961 . S
C2759 C2756 1.539 . S
C2759 H2773 0.958 . S
C2759 H2774 0.961 . S
C2759 H2775 0.960 . S
H2760 C2744 0.931 . S
H2761 C2749 0.929 . S
H2762 C2750 0.960 . S
H2763 C2750 0.962 . S
H2764 C2750 0.960 . S
H2765 C2751 0.961 . S
H2766 C2751 0.961 . S
H2767 C2751 0.961 . S
H2768 C2752 0.931 . S
H2769 C2757 0.930 . S
H2770 C2758 0.956 . S
H2771 C2758 0.961 . S
H2772 C2758 0.961 . S
H2773 C2759 0.958 . S
H2774 C2759 0.961 . S
H2775 C2759 0.960 . S
C2776 C2777 1.391 . S
C2776 C2778 1.394 . S
C2776 H2792 0.931 . S
C2777 C2776 1.391 . S
C2777 C2781 1.376 . S
C2778 C2776 1.394 . S
C2778 C2779 1.369 . S
C2778 C2782 1.531 . S
C2779 C2778 1.369 . S
C2779 C2780 1.410 . S
C2779 C2787 1.503 . S
C2780 C2779 1.410 . S
C2780 C2781 1.392 . S
C2780 C2783 1.511 . S
C2781 C2777 1.376 . S
C2781 C2780 1.392 . S
C2781 H2793 0.929 . S
C2782 C2778 1.531 . S
C2782 H2794 0.960 . S
C2782 H2795 0.962 . S
C2782 H2796 0.960 . S
C2783 C2780 1.511 . S
C2783 H2797 0.961 . S
C2783 H2798 0.961 . S
C2783 H2799 0.961 . S
C2784 C2785 1.370 . S
C2784 C2786 1.363 . S
C2784 H2800 0.931 . S
C2785 C2784 1.370 . S
C2785 C2789 1.408 . S
C2786 C2784 1.363 . S
C2786 C2787 1.370 . S
C2786 C2790 1.524 . S
C2787 C2779 1.503 . S
C2787 C2786 1.370 . S
C2787 C2788 1.403 . S
C2788 C2787 1.403 . S
C2788 C2789 1.404 . S
C2788 C2791 1.539 . S
C2789 C2785 1.408 . S
C2789 C2788 1.404 . S
C2789 H2801 0.930 . S
C2790 C2786 1.524 . S
C2790 H2802 0.956 . S
C2790 H2803 0.961 . S
C2790 H2804 0.961 . S
C2791 C2788 1.539 . S
C2791 H2805 0.958 . S
C2791 H2806 0.961 . S
C2791 H2807 0.960 . S
H2792 C2776 0.931 . S
H2793 C2781 0.929 . S
H2794 C2782 0.960 . S
H2795 C2782 0.962 . S
H2796 C2782 0.960 . S
H2797 C2783 0.961 . S
H2798 C2783 0.961 . S
H2799 C2783 0.961 . S
H2800 C2784 0.931 . S
H2801 C2789 0.930 . S
H2802 C2790 0.956 . S
H2803 C2790 0.961 . S
H2804 C2790 0.961 . S
H2805 C2791 0.958 . S
H2806 C2791 0.961 . S
H2807 C2791 0.960 . S
C505 C235 1.143 . S
C513 C11 1.127 . S
C537 C249 1.103 . S
C545 C25 1.126 . S
C569 C39 1.142 . S
C577 C221 1.125 . S
C601 C375 1.137 . S
C609 C53 1.131 . S
C633 C347 1.119 . S
C641 C67 1.114 . S
C665 C81 1.118 . S
C673 C361 1.114 . S
C697 C487 1.102 . S
C705 C95 1.128 . S
C729 C501 1.098 . S
C737 C109 1.122 . S
C761 C473 1.142 . S
C769 C123 1.122 . S
C793 C291 1.130 . S
C801 C137 1.115 . S
C825 C151 1.142 . S
C833 C263 1.125 . S
C857 C277 1.142 . S
C865 C165 1.122 . S
C889 C403 1.136 . S
C897 C179 1.132 . S
C921 C193 1.138 . S
C929 C417 1.121 . S
C953 C389 1.102 . S
C961 C207 1.125 . S
C985 C459 1.118 . S
C993 C305 1.132 . S
C1017 C431 1.110 . S
C1025 C319 1.114 . S
C1049 C333 1.142 . S
C1057 C445 1.125 . S
C1081 C98 1.529 . S
C1089 C9 1.537 . S
C1113 C112 1.519 . S
C1121 C23 1.539 . S
C1145 C84 1.534 . S
C1153 C37 1.527 . S
C1177 C51 1.519 . S
C1185 C154 1.520 . S
C1209 C126 1.526 . S
C1217 C65 1.538 . S
C1241 C79 1.514 . S
C1249 C140 1.525 . S
C1273 C14 1.501 . S
C1281 C93 1.540 . S
C1305 C107 1.536 . S
C1313 C28 1.529 . S
C1337 C0 1.501 . S
C1345 C121 1.540 . S
C1369 C70 1.496 . S
C1377 C135 1.537 . S
C1401 C42 1.539 . S
C1409 C149 1.531 . S
C1433 C163 1.536 . S
C1441 C56 1.529 . S
C1465 C177 1.519 . S
C1473 C266 1.520 . S
C1497 C280 1.530 . S
C1505 C191 1.527 . S
C1529 C252 1.534 . S
C1537 C205 1.527 . S
C1561 C219 1.532 . S
C1569 C322 1.529 . S
C1593 C294 1.537 . S
C1601 C233 1.533 . S
C1625 C247 1.547 . S
C1633 C308 1.516 . S
C1657 C261 1.516 . S
C1665 C182 1.528 . S
C1689 C275 1.518 . S
C1697 C196 1.517 . S
C1721 C168 1.538 . S
C1729 C289 1.534 . S
C1753 C238 1.536 . S
C1761 C303 1.529 . S
C1785 C210 1.516 . S
C1793 C317 1.541 . S
C1817 C331 1.520 . S
C1825 C224 1.516 . S
C1849 C434 1.503 . S
C1857 C345 1.533 . S
C1881 C359 1.520 . S
C1889 C448 1.519 . S
C1913 C373 1.545 . S
C1921 C420 1.519 . S
C1945 C490 1.496 . S
C1953 C387 1.538 . S
C1977 C401 1.516 . S
C1985 C462 1.522 . S
C2009 C476 1.537 . S
C2017 C415 1.533 . S
C2041 C350 1.519 . S
C2049 C429 1.528 . S
C2073 C364 1.498 . S
C2081 C443 1.539 . S
C2105 C457 1.545 . S
C2113 C336 1.516 . S
C2137 C471 1.514 . S
C2145 C406 1.526 . S
C2169 C378 1.527 . S
C2177 C485 1.527 . S
C2201 C392 1.521 . S
C2209 C499 1.527 . S
C2233 C5 1.581 . S
C2241 C47 1.587 . S
C2265 C19 1.585 . S
C2273 C61 1.586 . S
C2297 C75 1.580 . S
C2305 C33 1.587 . S
C2329 C89 1.581 . S
C2337 C131 1.587 . S
C2361 C145 1.581 . S
C2369 C103 1.585 . S
C2393 C159 1.578 . S
C2401 C117 1.586 . S
C2425 C173 1.579 . S
C2433 C215 1.587 . S
C2457 C187 1.579 . S
C2465 C229 1.586 . S
C2489 C243 1.582 . S
C2497 C201 1.587 . S
C2521 C257 1.580 . S
C2529 C299 1.585 . S
C2553 C271 1.579 . S
C2561 C313 1.586 . S
C2585 C285 1.583 . S
C2593 C327 1.585 . S
C2617 C383 1.584 . S
C2625 C341 1.587 . S
C2649 C397 1.579 . S
C2657 C355 1.586 . S
C2681 C411 1.581 . S
C2689 C369 1.587 . S
C2713 C425 1.584 . S
C2721 C467 1.587 . S
C2745 C481 1.579 . S
C2753 C439 1.587 . S
C2777 C495 1.583 . S
C2785 C453 1.587 . S
