# Generated by pormake.
# Topology uox, (4)-cn, num edge types: 1
# Building blocks:
#     Node 0, Type 0, BuildingBlock: CEKHIL_clean_sbu_0, # of connection points: 4
#     Node 1, Type 0, BuildingBlock: CEKHIL_clean_sbu_0, # of connection points: 4
#     Node 2, Type 0, BuildingBlock: CEKHIL_clean_sbu_0, # of connection points: 4
#     Node 3, Type 0, BuildingBlock: CEKHIL_clean_sbu_0, # of connection points: 4
#     Node 4, Type 0, BuildingBlock: CEKHIL_clean_sbu_0, # of connection points: 4
#     Node 5, Type 0, BuildingBlock: CEKHIL_clean_sbu_0, # of connection points: 4
#     Node 6, Type 0, BuildingBlock: CEKHIL_clean_sbu_0, # of connection points: 4
#     Node 7, Type 0, BuildingBlock: CEKHIL_clean_sbu_0, # of connection points: 4
#     Node 8, Type 0, BuildingBlock: CEKHIL_clean_sbu_0, # of connection points: 4
#     Node 9, Type 0, BuildingBlock: CEKHIL_clean_sbu_0, # of connection points: 4
#     Node 10, Type 0, BuildingBlock: CEKHIL_clean_sbu_0, # of connection points: 4
#     Node 11, Type 0, BuildingBlock: CEKHIL_clean_sbu_0, # of connection points: 4
#     Node 12, Type 0, BuildingBlock: CEKHIL_clean_sbu_0, # of connection points: 4
#     Node 13, Type 0, BuildingBlock: CEKHIL_clean_sbu_0, # of connection points: 4
#     Node 14, Type 0, BuildingBlock: CEKHIL_clean_sbu_0, # of connection points: 4
#     Node 15, Type 0, BuildingBlock: CEKHIL_clean_sbu_0, # of connection points: 4
#     Node 16, Type 0, BuildingBlock: CEKHIL_clean_sbu_0, # of connection points: 4
#     Node 17, Type 0, BuildingBlock: CEKHIL_clean_sbu_0, # of connection points: 4
#     Node 18, Type 0, BuildingBlock: CEKHIL_clean_sbu_0, # of connection points: 4
#     Node 19, Type 0, BuildingBlock: CEKHIL_clean_sbu_0, # of connection points: 4
#     Node 20, Type 0, BuildingBlock: CEKHIL_clean_sbu_0, # of connection points: 4
#     Node 21, Type 0, BuildingBlock: CEKHIL_clean_sbu_0, # of connection points: 4
#     Node 22, Type 0, BuildingBlock: CEKHIL_clean_sbu_0, # of connection points: 4
#     Node 23, Type 0, BuildingBlock: CEKHIL_clean_sbu_0, # of connection points: 4
#     Node 24, Type 0, BuildingBlock: CEKHIL_clean_sbu_0, # of connection points: 4
#     Node 25, Type 0, BuildingBlock: CEKHIL_clean_sbu_0, # of connection points: 4
#     Node 26, Type 0, BuildingBlock: CEKHIL_clean_sbu_0, # of connection points: 4
#     Node 27, Type 0, BuildingBlock: CEKHIL_clean_sbu_0, # of connection points: 4
#     Node 28, Type 0, BuildingBlock: CEKHIL_clean_sbu_0, # of connection points: 4
#     Node 29, Type 0, BuildingBlock: CEKHIL_clean_sbu_0, # of connection points: 4
#     Node 30, Type 0, BuildingBlock: CEKHIL_clean_sbu_0, # of connection points: 4
#     Node 31, Type 0, BuildingBlock: CEKHIL_clean_sbu_0, # of connection points: 4
#     Edge 32, Type (0, 0), BuildingBlock: KIFKEQ_clean_linker_1, # of connection points: 2
#     Edge 33, Type (0, 0), BuildingBlock: KIFKEQ_clean_linker_1, # of connection points: 2
#     Edge 34, Type (0, 0), BuildingBlock: KIFKEQ_clean_linker_1, # of connection points: 2
#     Edge 35, Type (0, 0), BuildingBlock: KIFKEQ_clean_linker_1, # of connection points: 2
#     Edge 36, Type (0, 0), BuildingBlock: KIFKEQ_clean_linker_1, # of connection points: 2
#     Edge 37, Type (0, 0), BuildingBlock: KIFKEQ_clean_linker_1, # of connection points: 2
#     Edge 38, Type (0, 0), BuildingBlock: KIFKEQ_clean_linker_1, # of connection points: 2
#     Edge 39, Type (0, 0), BuildingBlock: KIFKEQ_clean_linker_1, # of connection points: 2
#     Edge 40, Type (0, 0), BuildingBlock: KIFKEQ_clean_linker_1, # of connection points: 2
#     Edge 41, Type (0, 0), BuildingBlock: KIFKEQ_clean_linker_1, # of connection points: 2
#     Edge 42, Type (0, 0), BuildingBlock: KIFKEQ_clean_linker_1, # of connection points: 2
#     Edge 43, Type (0, 0), BuildingBlock: KIFKEQ_clean_linker_1, # of connection points: 2
#     Edge 44, Type (0, 0), BuildingBlock: KIFKEQ_clean_linker_1, # of connection points: 2
#     Edge 45, Type (0, 0), BuildingBlock: KIFKEQ_clean_linker_1, # of connection points: 2
#     Edge 46, Type (0, 0), BuildingBlock: KIFKEQ_clean_linker_1, # of connection points: 2
#     Edge 47, Type (0, 0), BuildingBlock: KIFKEQ_clean_linker_1, # of connection points: 2
#     Edge 48, Type (0, 0), BuildingBlock: KIFKEQ_clean_linker_1, # of connection points: 2
#     Edge 49, Type (0, 0), BuildingBlock: KIFKEQ_clean_linker_1, # of connection points: 2
#     Edge 50, Type (0, 0), BuildingBlock: KIFKEQ_clean_linker_1, # of connection points: 2
#     Edge 51, Type (0, 0), BuildingBlock: KIFKEQ_clean_linker_1, # of connection points: 2
#     Edge 52, Type (0, 0), BuildingBlock: KIFKEQ_clean_linker_1, # of connection points: 2
#     Edge 53, Type (0, 0), BuildingBlock: KIFKEQ_clean_linker_1, # of connection points: 2
#     Edge 54, Type (0, 0), BuildingBlock: KIFKEQ_clean_linker_1, # of connection points: 2
#     Edge 55, Type (0, 0), BuildingBlock: KIFKEQ_clean_linker_1, # of connection points: 2
#     Edge 56, Type (0, 0), BuildingBlock: KIFKEQ_clean_linker_1, # of connection points: 2
#     Edge 57, Type (0, 0), BuildingBlock: KIFKEQ_clean_linker_1, # of connection points: 2
#     Edge 58, Type (0, 0), BuildingBlock: KIFKEQ_clean_linker_1, # of connection points: 2
#     Edge 59, Type (0, 0), BuildingBlock: KIFKEQ_clean_linker_1, # of connection points: 2
#     Edge 60, Type (0, 0), BuildingBlock: KIFKEQ_clean_linker_1, # of connection points: 2
#     Edge 61, Type (0, 0), BuildingBlock: KIFKEQ_clean_linker_1, # of connection points: 2
#     Edge 62, Type (0, 0), BuildingBlock: KIFKEQ_clean_linker_1, # of connection points: 2
#     Edge 63, Type (0, 0), BuildingBlock: KIFKEQ_clean_linker_1, # of connection points: 2
#     Edge 64, Type (0, 0), BuildingBlock: KIFKEQ_clean_linker_1, # of connection points: 2
#     Edge 65, Type (0, 0), BuildingBlock: KIFKEQ_clean_linker_1, # of connection points: 2
#     Edge 66, Type (0, 0), BuildingBlock: KIFKEQ_clean_linker_1, # of connection points: 2
#     Edge 67, Type (0, 0), BuildingBlock: KIFKEQ_clean_linker_1, # of connection points: 2
#     Edge 68, Type (0, 0), BuildingBlock: KIFKEQ_clean_linker_1, # of connection points: 2
#     Edge 69, Type (0, 0), BuildingBlock: KIFKEQ_clean_linker_1, # of connection points: 2
#     Edge 70, Type (0, 0), BuildingBlock: KIFKEQ_clean_linker_1, # of connection points: 2
#     Edge 71, Type (0, 0), BuildingBlock: KIFKEQ_clean_linker_1, # of connection points: 2
#     Edge 72, Type (0, 0), BuildingBlock: KIFKEQ_clean_linker_1, # of connection points: 2
#     Edge 73, Type (0, 0), BuildingBlock: KIFKEQ_clean_linker_1, # of connection points: 2
#     Edge 74, Type (0, 0), BuildingBlock: KIFKEQ_clean_linker_1, # of connection points: 2
#     Edge 75, Type (0, 0), BuildingBlock: KIFKEQ_clean_linker_1, # of connection points: 2
#     Edge 76, Type (0, 0), BuildingBlock: KIFKEQ_clean_linker_1, # of connection points: 2
#     Edge 77, Type (0, 0), BuildingBlock: KIFKEQ_clean_linker_1, # of connection points: 2
#     Edge 78, Type (0, 0), BuildingBlock: KIFKEQ_clean_linker_1, # of connection points: 2
#     Edge 79, Type (0, 0), BuildingBlock: KIFKEQ_clean_linker_1, # of connection points: 2
#     Edge 80, Type (0, 0), BuildingBlock: KIFKEQ_clean_linker_1, # of connection points: 2
#     Edge 81, Type (0, 0), BuildingBlock: KIFKEQ_clean_linker_1, # of connection points: 2
#     Edge 82, Type (0, 0), BuildingBlock: KIFKEQ_clean_linker_1, # of connection points: 2
#     Edge 83, Type (0, 0), BuildingBlock: KIFKEQ_clean_linker_1, # of connection points: 2
#     Edge 84, Type (0, 0), BuildingBlock: KIFKEQ_clean_linker_1, # of connection points: 2
#     Edge 85, Type (0, 0), BuildingBlock: KIFKEQ_clean_linker_1, # of connection points: 2
#     Edge 86, Type (0, 0), BuildingBlock: KIFKEQ_clean_linker_1, # of connection points: 2
#     Edge 87, Type (0, 0), BuildingBlock: KIFKEQ_clean_linker_1, # of connection points: 2
#     Edge 88, Type (0, 0), BuildingBlock: KIFKEQ_clean_linker_1, # of connection points: 2
#     Edge 89, Type (0, 0), BuildingBlock: KIFKEQ_clean_linker_1, # of connection points: 2
#     Edge 90, Type (0, 0), BuildingBlock: KIFKEQ_clean_linker_1, # of connection points: 2
#     Edge 91, Type (0, 0), BuildingBlock: KIFKEQ_clean_linker_1, # of connection points: 2
#     Edge 92, Type (0, 0), BuildingBlock: KIFKEQ_clean_linker_1, # of connection points: 2
#     Edge 93, Type (0, 0), BuildingBlock: KIFKEQ_clean_linker_1, # of connection points: 2
#     Edge 94, Type (0, 0), BuildingBlock: KIFKEQ_clean_linker_1, # of connection points: 2
#     Edge 95, Type (0, 0), BuildingBlock: KIFKEQ_clean_linker_1, # of connection points: 2
# Relax obj value: 0.060
# Max RMSD: 0.089
# Mean RMSD: 0.089
data_MOF--net-uox--node1-CEKHIL_clean_sbu_0--edge1-KIFKEQ_clean_linker_1
_symmetry_space_group_name_H-M    P1
_symmetry_Int_Tables_number       1
_symmetry_cell_setting            triclinic
loop_
_symmetry_equiv_pos_as_xyz
'x, y, z'
_cell_length_a     46.62218
_cell_length_b     46.623128
_cell_length_c     77.879796
_cell_angle_alpha  89.998025
_cell_angle_beta   89.996979
_cell_angle_gamma 89.998036
loop_
_atom_site_label
_atom_site_type_symbol
_atom_site_fract_x
_atom_site_fract_y
_atom_site_fract_z
_atom_type_partial_charge
Co0 Co 0.42089 0.05682 0.16655 0.0
O1 O 0.4318 0.02839 0.18343 0.0
O2 O 0.39723 0.06019 0.18705 0.0
C3 C 0.46573 0.07213 0.16006 0.0
O4 O 0.40439 0.09023 0.15245 0.0
Co5 Co 0.4401 0.05037 0.12847 0.0
O6 O 0.42481 0.08981 0.12625 0.0
C7 C 0.39279 0.0145 0.14158 0.0
C8 C 0.4121 0.03902 0.19333 0.0
C9 C 0.40878 0.10149 0.13752 0.0
O10 O 0.39288 0.02866 0.15582 0.0
O11 O 0.41133 0.01853 0.1297 0.0
O12 O 0.45253 0.08174 0.17358 0.0
O13 O 0.45281 0.05159 0.15208 0.0
Co14 Co 0.19849 0.17026 0.41732 0.0
O15 O 0.22782 0.18072 0.43377 0.0
O16 O 0.19541 0.14688 0.43792 0.0
C17 C 0.18399 0.21542 0.41095 0.0
O18 O 0.16419 0.15424 0.40388 0.0
Co19 Co 0.20245 0.18882 0.37907 0.0
O20 O 0.16125 0.17824 0.37888 0.0
C21 C 0.23824 0.14073 0.39151 0.0
C22 C 0.21705 0.1614 0.44389 0.0
C23 C 0.15068 0.16124 0.39003 0.0
O24 O 0.22552 0.14163 0.40622 0.0
O25 O 0.23332 0.15885 0.3795 0.0
O26 O 0.17462 0.20252 0.42464 0.0
O27 O 0.20373 0.20189 0.40261 0.0
Co28 Co 0.08435 0.95012 0.66738 0.0
O29 O 0.07235 0.97925 0.68351 0.0
O30 O 0.1071 0.94812 0.68833 0.0
C31 C 0.03971 0.93468 0.66044 0.0
O32 O 0.10155 0.91593 0.65431 0.0
Co33 Co 0.06734 0.9536 0.62883 0.0
O34 O 0.07815 0.91247 0.62913 0.0
C35 C 0.11427 0.99024 0.64186 0.0
C36 C 0.09153 0.96926 0.694 0.0
C37 C 0.09492 0.90217 0.64048 0.0
O38 O 0.11291 0.97758 0.65658 0.0
O39 O 0.09674 0.98498 0.6296 0.0
O40 O 0.05216 0.92579 0.67439 0.0
O41 O 0.05332 0.95445 0.65217 0.0
Co42 Co 0.3048 0.8342 0.91727 0.0
O43 O 0.27606 0.82195 0.93357 0.0
O44 O 0.30686 0.85707 0.93819 0.0
C45 C 0.32065 0.78974 0.9103 0.0
O46 O 0.33862 0.85166 0.90401 0.0
Co47 Co 0.30097 0.817 0.8788 0.0
O48 O 0.34215 0.8277 0.87902 0.0
C49 C 0.26401 0.86361 0.89192 0.0
C50 C 0.28595 0.84129 0.94398 0.0
C51 C 0.35245 0.84469 0.89026 0.0
O52 O 0.27684 0.86241 0.90659 0.0
O53 O 0.26933 0.84614 0.87964 0.0
O54 O 0.32972 0.80243 0.92413 0.0
O55 O 0.30048 0.803 0.90217 0.0
Co56 Co 0.41999 0.94954 0.34264 0.0
O57 O 0.43054 0.97848 0.32598 0.0
O58 O 0.39673 0.94599 0.32199 0.0
C59 C 0.46505 0.93504 0.3493 0.0
O60 O 0.40398 0.91559 0.35651 0.0
Co61 Co 0.43855 0.95603 0.38089 0.0
O62 O 0.42381 0.91637 0.38288 0.0
C63 C 0.39077 0.99109 0.36762 0.0
C64 C 0.41126 0.96756 0.3159 0.0
C65 C 0.40823 0.90442 0.37148 0.0
O66 O 0.39119 0.97691 0.35338 0.0
O67 O 0.40935 0.98745 0.37952 0.0
O68 O 0.45236 0.92551 0.33559 0.0
O69 O 0.45151 0.95511 0.35735 0.0
Co70 Co 0.30674 0.17021 0.59312 0.0
O71 O 0.27767 0.18076 0.57654 0.0
O72 O 0.31002 0.14682 0.57253 0.0
C73 C 0.32133 0.2153 0.59956 0.0
O74 O 0.34083 0.15414 0.60676 0.0
Co75 Co 0.30208 0.18875 0.63134 0.0
O76 O 0.34327 0.17812 0.63179 0.0
C77 C 0.26625 0.14092 0.61863 0.0
C78 C 0.28849 0.16141 0.56647 0.0
C79 C 0.35408 0.16116 0.6207 0.0
O80 O 0.27944 0.14165 0.60406 0.0
O81 O 0.27091 0.15909 0.63064 0.0
O82 O 0.33083 0.20237 0.58591 0.0
O83 O 0.30139 0.20187 0.60779 0.0
Co84 Co 0.0841 0.05691 0.84409 0.0
O85 O 0.07171 0.02856 0.8276 0.0
O86 O 0.10722 0.05902 0.82327 0.0
C87 C 0.03972 0.07312 0.85093 0.0
O88 O 0.10178 0.09032 0.85762 0.0
Co89 Co 0.06637 0.0526 0.88244 0.0
O90 O 0.07776 0.09358 0.8826 0.0
C91 C 0.11285 0.01547 0.86934 0.0
C92 C 0.09126 0.03839 0.81731 0.0
C93 C 0.09496 0.10391 0.87149 0.0
O94 O 0.11189 0.0285 0.85473 0.0
O95 O 0.09528 0.02076 0.88158 0.0
O96 O 0.05271 0.08228 0.83721 0.0
O97 O 0.05264 0.05269 0.85902 0.0
Co98 Co 0.1994 0.83406 0.09439 0.0
O99 O 0.22708 0.82129 0.07761 0.0
O100 O 0.19699 0.8572 0.07358 0.0
C101 C 0.18273 0.78996 0.10147 0.0
O102 O 0.16667 0.85215 0.10832 0.0
Co103 Co 0.20558 0.81602 0.13268 0.0
O104 O 0.16641 0.8321 0.13462 0.0
C105 C 0.24246 0.86206 0.119 0.0
C106 C 0.21727 0.84098 0.06742 0.0
C107 C 0.15519 0.84822 0.12323 0.0
O108 O 0.2285 0.86154 0.1047 0.0
O109 O 0.23792 0.84417 0.13118 0.0
O110 O 0.17335 0.80302 0.08784 0.0
O111 O 0.20369 0.80252 0.10925 0.0
Co112 Co 0.5843 0.94924 0.84489 0.0
O113 O 0.5721 0.97748 0.82828 0.0
O114 O 0.60738 0.94671 0.82406 0.0
C115 C 0.53982 0.9334 0.85183 0.0
O116 O 0.60174 0.9159 0.85864 0.0
Co117 Co 0.56633 0.95518 0.88325 0.0
O118 O 0.5819 0.91581 0.88501 0.0
C119 C 0.61303 0.99142 0.86975 0.0
C120 C 0.59155 0.96738 0.81802 0.0
C121 C 0.59777 0.90442 0.87355 0.0
O122 O 0.61234 0.9776 0.85538 0.0
O123 O 0.59501 0.98707 0.88187 0.0
O124 O 0.55263 0.92409 0.8381 0.0
O125 O 0.55291 0.95385 0.8598 0.0
Co126 Co 0.80634 0.83562 0.59274 0.0
O127 O 0.77699 0.82542 0.57625 0.0
O128 O 0.8097 0.85899 0.57214 0.0
C129 C 0.82037 0.79032 0.59908 0.0
O130 O 0.84075 0.8513 0.60626 0.0
Co131 Co 0.80198 0.81705 0.63097 0.0
O132 O 0.84327 0.82728 0.63127 0.0
C133 C 0.76638 0.8652 0.6184 0.0
C134 C 0.78796 0.84463 0.56614 0.0
C135 C 0.8541 0.84416 0.62015 0.0
O136 O 0.77945 0.86445 0.60379 0.0
O137 O 0.77102 0.84693 0.63037 0.0
O138 O 0.82994 0.80317 0.58543 0.0
O139 O 0.80073 0.80402 0.60742 0.0
Co140 Co 0.92094 0.05524 0.34285 0.0
O141 O 0.93102 0.02625 0.32612 0.0
O142 O 0.89757 0.05916 0.32228 0.0
C143 C 0.96618 0.06921 0.34941 0.0
O144 O 0.90548 0.08931 0.35681 0.0
Co145 Co 0.93965 0.04835 0.38104 0.0
O146 O 0.92571 0.0883 0.38306 0.0
C147 C 0.89133 0.01398 0.36784 0.0
C148 C 0.91179 0.03746 0.31612 0.0
C149 C 0.91015 0.10047 0.37174 0.0
O150 O 0.8919 0.02819 0.35362 0.0
O151 O 0.91 0.01734 0.37973 0.0
O152 O 0.95351 0.07891 0.33574 0.0
O153 O 0.9525 0.04924 0.35747 0.0
Co154 Co 0.69939 0.17185 0.09351 0.0
O155 O 0.72807 0.18255 0.07673 0.0
O156 O 0.69569 0.14859 0.07287 0.0
C157 C 0.68485 0.21686 0.10021 0.0
O158 O 0.66565 0.15568 0.10746 0.0
Co159 Co 0.70582 0.19042 0.13171 0.0
O160 O 0.66608 0.17584 0.13372 0.0
C161 C 0.74098 0.14265 0.11845 0.0
C162 C 0.71711 0.16323 0.06669 0.0
C163 C 0.65429 0.16009 0.12235 0.0
O164 O 0.727 0.14321 0.10414 0.0
O165 O 0.73713 0.16108 0.13041 0.0
O166 O 0.67506 0.20403 0.08661 0.0
O167 O 0.7051 0.20345 0.10817 0.0
Co168 Co 0.58404 0.05493 0.668 0.0
O169 O 0.57246 0.02554 0.68406 0.0
O170 O 0.60689 0.05701 0.68891 0.0
C171 C 0.53922 0.06996 0.66119 0.0
O172 O 0.60076 0.08943 0.655 0.0
Co173 Co 0.56685 0.05164 0.62946 0.0
O174 O 0.57707 0.0929 0.62991 0.0
C175 C 0.61422 0.01536 0.64228 0.0
C176 C 0.59157 0.03567 0.69455 0.0
C177 C 0.5938 0.10329 0.64125 0.0
O178 O 0.61284 0.02788 0.65705 0.0
O179 O 0.59657 0.02055 0.63007 0.0
O180 O 0.55164 0.07885 0.67515 0.0
O181 O 0.55299 0.0504 0.65284 0.0
Co182 Co 0.69823 0.83533 0.41694 0.0
O183 O 0.72769 0.82517 0.43338 0.0
O184 O 0.69485 0.85858 0.43757 0.0
C185 C 0.6844 0.79 0.41051 0.0
O186 O 0.66371 0.851 0.40353 0.0
Co187 Co 0.70229 0.81702 0.37865 0.0
O188 O 0.66098 0.82713 0.37848 0.0
C189 C 0.73772 0.86531 0.39121 0.0
C190 C 0.71667 0.84431 0.44353 0.0
C191 C 0.65025 0.84395 0.38967 0.0
O192 O 0.72493 0.86432 0.4059 0.0
O193 O 0.73298 0.84717 0.37918 0.0
O194 O 0.67481 0.80272 0.42421 0.0
O195 O 0.7039 0.80387 0.40217 0.0
Co196 Co 0.92074 0.94956 0.16657 0.0
O197 O 0.93116 0.9782 0.18343 0.0
O198 O 0.89709 0.94586 0.18706 0.0
C199 C 0.96585 0.93497 0.16019 0.0
O200 O 0.90482 0.91587 0.15249 0.0
Co201 Co 0.94001 0.95617 0.12852 0.0
O202 O 0.92538 0.91648 0.12633 0.0
C203 C 0.89205 0.9913 0.14151 0.0
C204 C 0.91164 0.96726 0.19334 0.0
C205 C 0.90946 0.90461 0.13759 0.0
O206 O 0.89233 0.97721 0.15578 0.0
O207 O 0.91071 0.98753 0.12966 0.0
O208 O 0.95273 0.92518 0.17369 0.0
O209 O 0.95264 0.95526 0.15215 0.0
Co210 Co 0.80549 0.17256 0.91711 0.0
O211 O 0.77646 0.18294 0.93376 0.0
O212 O 0.80926 0.14945 0.93779 0.0
C213 C 0.81954 0.2177 0.91032 0.0
O214 O 0.83964 0.15674 0.90334 0.0
Co215 Co 0.79924 0.19072 0.87878 0.0
O216 O 0.83915 0.17657 0.87698 0.0
C217 C 0.76428 0.14292 0.89214 0.0
C218 C 0.78758 0.16381 0.94387 0.0
C219 C 0.85106 0.16112 0.88845 0.0
O220 O 0.77836 0.1435 0.90641 0.0
O221 O 0.76796 0.1614 0.88018 0.0
O222 O 0.8292 0.20521 0.92407 0.0
O223 O 0.79966 0.20388 0.90229 0.0
Co224 Co 0.92115 0.55721 0.66569 0.0
O225 O 0.93401 0.52967 0.68253 0.0
O226 O 0.89784 0.5595 0.68646 0.0
C227 C 0.96519 0.57416 0.65871 0.0
O228 O 0.90293 0.58978 0.65167 0.0
Co229 Co 0.93953 0.55099 0.62746 0.0
O230 O 0.92313 0.59 0.6254 0.0
C231 C 0.89372 0.51378 0.64108 0.0
C232 C 0.91418 0.53935 0.69266 0.0
C233 C 0.90687 0.60118 0.63673 0.0
O234 O 0.89398 0.52786 0.65535 0.0
O235 O 0.91167 0.51839 0.62895 0.0
O236 O 0.95195 0.58351 0.6723 0.0
O237 O 0.95282 0.55309 0.65093 0.0
Co238 Co 0.69832 0.6699 0.91747 0.0
O239 O 0.72769 0.6803 0.9339 0.0
O240 O 0.69513 0.64663 0.93812 0.0
C241 C 0.68409 0.71511 0.91106 0.0
O242 O 0.66392 0.65401 0.90403 0.0
Co243 Co 0.70245 0.68831 0.8792 0.0
O244 O 0.6612 0.67796 0.87901 0.0
C245 C 0.73824 0.64033 0.8918 0.0
C246 C 0.71684 0.66109 0.94406 0.0
C247 C 0.65049 0.66107 0.89016 0.0
O248 O 0.72527 0.64113 0.90644 0.0
O249 O 0.73347 0.6585 0.8798 0.0
O250 O 0.67462 0.7023 0.92475 0.0
O251 O 0.70375 0.70144 0.90273 0.0
Co252 Co 0.58538 0.45056 0.16708 0.0
O253 O 0.57309 0.47872 0.1837 0.0
O254 O 0.60848 0.44807 0.1879 0.0
C255 C 0.54101 0.43449 0.16007 0.0
O256 O 0.60291 0.41733 0.15328 0.0
Co257 Co 0.5674 0.45677 0.12872 0.0
O258 O 0.58305 0.41742 0.12691 0.0
C259 C 0.61388 0.49311 0.14235 0.0
C260 C 0.59261 0.46872 0.19394 0.0
C261 C 0.59893 0.40595 0.13833 0.0
O262 O 0.61336 0.47903 0.15662 0.0
O263 O 0.59579 0.4889 0.13024 0.0
O264 O 0.55379 0.42524 0.17382 0.0
O265 O 0.554 0.45506 0.15216 0.0
Co266 Co 0.80721 0.33325 0.41754 0.0
O267 O 0.77851 0.32088 0.43384 0.0
O268 O 0.80906 0.35621 0.43844 0.0
C269 C 0.82324 0.28881 0.41067 0.0
O270 O 0.84092 0.3509 0.40425 0.0
Co271 Co 0.80361 0.3157 0.37909 0.0
O272 O 0.84461 0.32699 0.37925 0.0
C273 C 0.76632 0.36217 0.39208 0.0
C274 C 0.78825 0.34031 0.44424 0.0
C275 C 0.85475 0.34413 0.39046 0.0
O276 O 0.77908 0.36118 0.40678 0.0
O277 O 0.7718 0.34463 0.37985 0.0
O278 O 0.83231 0.30162 0.42446 0.0
O279 O 0.80306 0.30196 0.4025 0.0
Co280 Co 0.92076 0.45054 0.84254 0.0
O281 O 0.93267 0.47982 0.82648 0.0
O282 O 0.89804 0.44861 0.82156 0.0
C283 C 0.96543 0.4352 0.84948 0.0
O284 O 0.90369 0.41623 0.85556 0.0
Co285 Co 0.9378 0.45398 0.88112 0.0
O286 O 0.92712 0.41283 0.88075 0.0
C287 C 0.89074 0.49047 0.86811 0.0
C288 C 0.91354 0.46985 0.81595 0.0
C289 C 0.91039 0.40248 0.86939 0.0
O290 O 0.89209 0.47783 0.85339 0.0
O291 O 0.90832 0.48529 0.88036 0.0
O292 O 0.95305 0.42635 0.8355 0.0
O293 O 0.95175 0.45491 0.85776 0.0
Co294 Co 0.80764 0.67084 0.09303 0.0
O295 O 0.77838 0.68137 0.07655 0.0
O296 O 0.81062 0.64735 0.07247 0.0
C297 C 0.8223 0.71596 0.09933 0.0
O298 O 0.84186 0.65471 0.10651 0.0
Co299 Co 0.80374 0.68957 0.13125 0.0
O300 O 0.84488 0.67877 0.13148 0.0
C301 C 0.76756 0.64176 0.11882 0.0
C302 C 0.78905 0.66193 0.06647 0.0
C303 C 0.85538 0.66168 0.12036 0.0
O304 O 0.78041 0.64243 0.10415 0.0
O305 O 0.77256 0.65992 0.1308 0.0
O306 O 0.83167 0.70297 0.08567 0.0
O307 O 0.8025 0.70253 0.10769 0.0
Co308 Co 0.58598 0.5553 0.34428 0.0
O309 O 0.57353 0.52711 0.32772 0.0
O310 O 0.60911 0.55751 0.32346 0.0
C311 C 0.54169 0.57167 0.35121 0.0
O312 O 0.60368 0.58852 0.35802 0.0
Co313 Co 0.5679 0.54944 0.38263 0.0
O314 O 0.58382 0.58868 0.38439 0.0
C315 C 0.6141 0.51265 0.3691 0.0
C316 C 0.59311 0.53694 0.31745 0.0
C317 C 0.59976 0.6 0.37295 0.0
O318 O 0.61373 0.52667 0.35481 0.0
O319 O 0.59603 0.51707 0.38119 0.0
O320 O 0.55458 0.58077 0.33745 0.0
O321 O 0.55454 0.55108 0.35918 0.0
Co322 Co 0.7 0.33347 0.59435 0.0
O323 O 0.72819 0.32082 0.57781 0.0
O324 O 0.69776 0.35633 0.57342 0.0
C325 C 0.68374 0.28923 0.60152 0.0
O326 O 0.66676 0.35137 0.60799 0.0
Co327 Co 0.70568 0.31594 0.63281 0.0
O328 O 0.66643 0.33186 0.63445 0.0
C329 C 0.74258 0.36189 0.61906 0.0
C330 C 0.71834 0.34029 0.56747 0.0
C331 C 0.65519 0.34767 0.62291 0.0
O332 O 0.72862 0.36135 0.60475 0.0
O333 O 0.73807 0.344 0.63124 0.0
O334 O 0.67457 0.3019 0.5877 0.0
O335 O 0.70428 0.30226 0.60941 0.0
Co336 Co 0.08538 0.44936 0.34394 0.0
O337 O 0.07498 0.47827 0.32724 0.0
O338 O 0.10853 0.4455 0.32329 0.0
C339 C 0.04022 0.43526 0.35067 0.0
O340 O 0.10119 0.41535 0.35782 0.0
Co341 Co 0.06712 0.45604 0.3822 0.0
O342 O 0.08143 0.41621 0.3842 0.0
C343 C 0.11503 0.49079 0.3688 0.0
C344 C 0.09414 0.46711 0.31716 0.0
C345 C 0.09688 0.40416 0.37278 0.0
O346 O 0.11441 0.47656 0.35458 0.0
O347 O 0.09652 0.48728 0.38076 0.0
O348 O 0.05283 0.42556 0.33697 0.0
O349 O 0.05393 0.45524 0.35869 0.0
Co350 Co 0.30742 0.33534 0.09286 0.0
O351 O 0.278 0.32512 0.07642 0.0
O352 O 0.31067 0.35872 0.07227 0.0
C353 C 0.32158 0.29007 0.0992 0.0
O354 O 0.34189 0.35107 0.10628 0.0
Co355 Co 0.30343 0.31682 0.13111 0.0
O356 O 0.34476 0.32689 0.13122 0.0
C357 C 0.26789 0.36513 0.11869 0.0
C358 C 0.28893 0.34435 0.06629 0.0
C359 C 0.35543 0.34383 0.12008 0.0
O360 O 0.2806 0.36417 0.10398 0.0
O361 O 0.27273 0.34697 0.13069 0.0
O362 O 0.33103 0.30292 0.08551 0.0
O363 O 0.30197 0.30375 0.10757 0.0
Co364 Co 0.42008 0.55653 0.84261 0.0
O365 O 0.43043 0.52744 0.82599 0.0
O366 O 0.39697 0.56024 0.8219 0.0
C367 C 0.46527 0.57058 0.84934 0.0
O368 O 0.40435 0.59068 0.85642 0.0
Co369 Co 0.4384 0.54999 0.8809 0.0
O370 O 0.42426 0.58989 0.88276 0.0
C371 C 0.39026 0.51543 0.86761 0.0
C372 C 0.41132 0.53852 0.81586 0.0
C373 C 0.40878 0.60193 0.87136 0.0
O374 O 0.39096 0.52948 0.85333 0.0
O375 O 0.40879 0.51895 0.87955 0.0
O376 O 0.45274 0.5802 0.83559 0.0
O377 O 0.45148 0.55068 0.85738 0.0
Co378 Co 0.2003 0.67223 0.59329 0.0
O379 O 0.22944 0.68239 0.57667 0.0
O380 O 0.19644 0.64908 0.57264 0.0
C381 C 0.18644 0.71746 0.59998 0.0
O382 O 0.16602 0.65669 0.60701 0.0
Co383 Co 0.20646 0.69047 0.6316 0.0
O384 O 0.1664 0.67672 0.63331 0.0
C385 C 0.24112 0.64232 0.61839 0.0
C386 C 0.21819 0.66332 0.56657 0.0
C387 C 0.15449 0.66127 0.62184 0.0
O388 O 0.22719 0.64303 0.60406 0.0
O389 O 0.23747 0.66082 0.63033 0.0
O390 O 0.17681 0.70496 0.58623 0.0
O391 O 0.20624 0.70359 0.60807 0.0
Co392 Co 0.08496 0.55517 0.16761 0.0
O393 O 0.07475 0.52605 0.18423 0.0
O394 O 0.1082 0.55891 0.18823 0.0
C395 C 0.03976 0.56924 0.16098 0.0
O396 O 0.10055 0.58938 0.15384 0.0
Co397 Co 0.06656 0.54886 0.12934 0.0
O398 O 0.08042 0.58888 0.12756 0.0
C399 C 0.11469 0.51415 0.14251 0.0
C400 C 0.09391 0.5372 0.19431 0.0
C401 C 0.09593 0.60083 0.13899 0.0
O402 O 0.11405 0.52817 0.15681 0.0
O403 O 0.09612 0.51775 0.13059 0.0
O404 O 0.05236 0.57879 0.17472 0.0
O405 O 0.05349 0.54936 0.15288 0.0
Co406 Co 0.19869 0.33557 0.91723 0.0
O407 O 0.2286 0.32575 0.93346 0.0
O408 O 0.1954 0.35872 0.93789 0.0
C409 C 0.18525 0.29009 0.91086 0.0
O410 O 0.16371 0.35082 0.90405 0.0
Co411 Co 0.20237 0.31742 0.87886 0.0
O412 O 0.16099 0.3272 0.8789 0.0
C413 C 0.23748 0.36602 0.89128 0.0
C414 C 0.21747 0.34468 0.94371 0.0
C415 C 0.1502 0.34378 0.8902 0.0
O416 O 0.22481 0.36493 0.90601 0.0
O417 O 0.23283 0.3478 0.87929 0.0
O418 O 0.17593 0.30259 0.92469 0.0
O419 O 0.20436 0.30426 0.90236 0.0
Co420 Co 0.4207 0.44891 0.66653 0.0
O421 O 0.43127 0.47769 0.68329 0.0
O422 O 0.39727 0.44537 0.68712 0.0
C423 C 0.46577 0.4343 0.65998 0.0
O424 O 0.40462 0.41511 0.6526 0.0
Co425 Co 0.43955 0.45524 0.62838 0.0
O426 O 0.42493 0.41553 0.62637 0.0
C427 C 0.39163 0.49038 0.64144 0.0
C428 C 0.41185 0.46683 0.69329 0.0
C429 C 0.4091 0.40374 0.6377 0.0
O430 O 0.39214 0.47648 0.65577 0.0
O431 O 0.41013 0.4865 0.62951 0.0
O432 O 0.45281 0.4246 0.67357 0.0
O433 O 0.45244 0.45452 0.65195 0.0
Co434 Co 0.30729 0.67095 0.41719 0.0
O435 O 0.27782 0.68137 0.43357 0.0
O436 O 0.31056 0.64792 0.43791 0.0
C437 C 0.3214 0.71611 0.41056 0.0
O438 O 0.34182 0.65507 0.4039 0.0
Co439 Co 0.30335 0.68874 0.37882 0.0
O440 O 0.34473 0.67885 0.37883 0.0
C441 C 0.26787 0.64062 0.39153 0.0
C442 C 0.28878 0.66232 0.4438 0.0
C443 C 0.35541 0.66214 0.39009 0.0
O444 O 0.28056 0.64188 0.40625 0.0
O445 O 0.27269 0.65856 0.37941 0.0
O446 O 0.33081 0.70354 0.42435 0.0
O447 O 0.30181 0.70226 0.40227 0.0
H448 H 0.42643 0.02002 0.30328 0.0
H449 H 0.38736 0.93992 0.28828 0.0
H450 H 0.42307 0.0372 0.27366 0.0
H451 H 0.38462 0.95695 0.2585 0.0
H452 H 0.42785 0.98688 0.20615 0.0
H453 H 0.42407 0.96971 0.23575 0.0
H454 H 0.38402 0.04939 0.25052 0.0
H455 H 0.38719 0.06639 0.22074 0.0
C456 C 0.41694 0.00614 0.29367 0.0
C457 C 0.40717 0.97858 0.29814 0.0
C458 C 0.41491 0.01605 0.27672 0.0
C459 C 0.40361 0.99843 0.26373 0.0
C460 C 0.39352 0.97098 0.26822 0.0
C461 C 0.39497 0.96129 0.28528 0.0
C462 C 0.41794 1.00064 0.21566 0.0
C463 C 0.40784 0.02802 0.21108 0.0
C464 C 0.41566 0.99073 0.2326 0.0
C465 C 0.40378 0.0082 0.24548 0.0
C466 C 0.39337 0.03548 0.24088 0.0
C467 C 0.39507 0.04516 0.22383 0.0
H468 H 0.23619 0.17696 0.55375 0.0
H469 H 0.31605 0.13718 0.53893 0.0
H470 H 0.2191 0.17354 0.52412 0.0
H471 H 0.29911 0.13437 0.50914 0.0
H472 H 0.2694 0.17704 0.45655 0.0
H473 H 0.2866 0.17362 0.48617 0.0
H474 H 0.20672 0.13424 0.5012 0.0
H475 H 0.18969 0.13706 0.47145 0.0
C476 C 0.25003 0.16731 0.54418 0.0
C477 C 0.27749 0.15734 0.5487 0.0
C478 C 0.24017 0.16526 0.52722 0.0
C479 C 0.25776 0.15373 0.51428 0.0
C480 C 0.28512 0.14346 0.51882 0.0
C481 C 0.29475 0.14494 0.53588 0.0
C482 C 0.25562 0.16734 0.46613 0.0
C483 C 0.22816 0.15732 0.46163 0.0
C484 C 0.26553 0.16528 0.48308 0.0
C485 C 0.24801 0.15371 0.49603 0.0
C486 C 0.22067 0.14337 0.49151 0.0
C487 C 0.21098 0.14486 0.47447 0.0
H488 H 0.05223 0.00651 0.79973 0.0
H489 H 0.13561 0.04579 0.79427 0.0
H490 H 0.05423 0.99048 0.76996 0.0
H491 H 0.1378 0.02903 0.76433 0.0
H492 H 0.13528 0.96119 0.71733 0.0
H493 H 0.13733 0.97822 0.74721 0.0
H494 H 0.05491 0.01887 0.74086 0.0
H495 H 0.05306 1.00255 0.71113 0.0
C496 C 0.07114 0.01152 0.79223 0.0
C497 C 0.09373 0.02752 0.7994 0.0
C498 C 0.0722 1.00241 0.77513 0.0
C499 C 0.09611 0.00858 0.76479 0.0
C500 C 0.11914 0.02389 0.77203 0.0
C501 C 0.11783 0.03355 0.78913 0.0
C502 C 0.11775 0.97397 0.72229 0.0
C503 C 0.09399 0.98047 0.71183 0.0
C504 C 0.11898 0.98379 0.73936 0.0
C505 C 0.0962 0.99975 0.74638 0.0
C506 C 0.07268 0.00645 0.73585 0.0
C507 C 0.0717 0.99717 0.71877 0.0
H508 H 0.29413 0.88503 0.96734 0.0
H509 H 0.25266 0.80288 0.96113 0.0
H510 H 0.27711 0.88709 0.99722 0.0
H511 H 0.23632 0.80475 0.99085 0.0
H512 H 0.24855 0.80174 0.04964 0.0
H513 H 0.26446 0.8038 0.01985 0.0
H514 H 0.22661 0.88774 0.01449 0.0
H515 H 0.20999 0.8855 0.04446 0.0
C516 C 0.28133 0.86751 0.9723 0.0
C517 C 0.27481 0.84377 0.96184 0.0
C518 C 0.27151 0.86875 0.98937 0.0
C519 C 0.25551 0.846 0.99639 0.0
C520 C 0.24878 0.8225 0.98585 0.0
C521 C 0.25808 0.82151 0.96878 0.0
C522 C 0.24365 0.82074 0.04219 0.0
C523 C 0.2279 0.84343 0.04945 0.0
C524 C 0.2527 0.82184 0.02508 0.0
C525 C 0.2467 0.84587 0.01481 0.0
C526 C 0.23162 0.86898 0.02213 0.0
C527 C 0.22202 0.86765 0.03925 0.0
H528 H 0.63594 0.95974 0.79502 0.0
H529 H 0.55248 0.99894 0.80027 0.0
H530 H 0.63815 0.97619 0.76501 0.0
H531 H 0.5545 0.01462 0.77043 0.0
H532 H 0.5535 1.00189 0.71165 0.0
H533 H 0.55546 0.98566 0.7414 0.0
H534 H 0.63742 0.0272 0.74778 0.0
H535 H 0.63524 0.04416 0.71789 0.0
C536 C 0.61815 0.97189 0.78981 0.0
C537 C 0.59403 0.978 0.80005 0.0
C538 C 0.61947 0.98137 0.77268 0.0
C539 C 0.59642 0.99656 0.76536 0.0
C540 C 0.57249 1.00279 0.77567 0.0
C541 C 0.57142 0.99388 0.7928 0.0
C542 C 0.57207 0.00748 0.7193 0.0
C543 C 0.59418 0.02442 0.71237 0.0
C544 C 0.57311 0.99825 0.73639 0.0
C545 C 0.59653 0.00524 0.74694 0.0
C546 C 0.61915 0.02141 0.73992 0.0
C547 C 0.61785 0.03118 0.72284 0.0
H548 H 0.68914 0.86853 0.47106 0.0
H549 H 0.76908 0.82894 0.45623 0.0
H550 H 0.70611 0.87148 0.50083 0.0
H551 H 0.78621 0.83247 0.48585 0.0
H552 H 0.81556 0.86874 0.53858 0.0
H553 H 0.79864 0.8715 0.50879 0.0
H554 H 0.71852 0.83258 0.5238 0.0
H555 H 0.7356 0.82924 0.55344 0.0
C556 C 0.71047 0.86083 0.4741 0.0
C557 C 0.72773 0.84845 0.46128 0.0
C558 C 0.72012 0.8624 0.49115 0.0
C559 C 0.74751 0.85221 0.49569 0.0
C560 C 0.76511 0.8407 0.48275 0.0
C561 C 0.75523 0.83858 0.46579 0.0
C562 C 0.79424 0.86104 0.53554 0.0
C563 C 0.77695 0.84873 0.54838 0.0
C564 C 0.78462 0.86248 0.51848 0.0
C565 C 0.75724 0.85226 0.51395 0.0
C566 C 0.73962 0.84083 0.5269 0.0
C567 C 0.74946 0.83882 0.54387 0.0
H568 H 0.92667 0.98508 0.30325 0.0
H569 H 0.88762 0.06541 0.28869 0.0
H570 H 0.92296 0.96821 0.2736 0.0
H571 H 0.88448 0.04869 0.25887 0.0
H572 H 0.92702 0.01942 0.20626 0.0
H573 H 0.9234 0.03627 0.23592 0.0
H574 H 0.884 0.95618 0.25054 0.0
H575 H 0.88704 0.93949 0.22071 0.0
C576 C 0.9171 0.99907 0.29374 0.0
C577 C 0.90746 0.02661 0.29834 0.0
C578 C 0.91486 0.98933 0.27676 0.0
C579 C 0.90346 0.00711 0.26388 0.0
C580 C 0.89346 0.03454 0.26851 0.0
C581 C 0.89514 0.04406 0.28559 0.0
C582 C 0.91727 0.00551 0.21575 0.0
C583 C 0.90733 0.9781 0.21112 0.0
C584 C 0.91509 0.01523 0.23273 0.0
C585 C 0.90345 0.99756 0.24559 0.0
C586 C 0.89317 0.97025 0.24093 0.0
C587 C 0.89479 0.96075 0.22384 0.0
H588 H 0.73526 0.1791 0.95671 0.0
H589 H 0.81536 0.13965 0.97135 0.0
H590 H 0.7183 0.17548 0.98636 0.0
H591 H 0.79856 0.13662 1.00115 0.0
H592 H 0.76929 0.1788 0.05383 0.0
H593 H 0.78617 0.1755 0.02416 0.0
H594 H 0.70606 0.13638 0.00934 0.0
H595 H 0.68933 0.13908 0.03918 0.0
C596 C 0.74919 0.16949 0.96624 0.0
C597 C 0.77668 0.15968 0.96166 0.0
C598 C 0.7394 0.1673 0.98321 0.0
C599 C 0.75709 0.1558 0.99611 0.0
C600 C 0.78448 0.14569 0.99151 0.0
C601 C 0.79404 0.14731 0.97444 0.0
C602 C 0.75538 0.16919 0.04429 0.0
C603 C 0.72795 0.15921 0.04888 0.0
C604 C 0.76512 0.1672 0.02731 0.0
C605 C 0.74745 0.15572 0.0144 0.0
C606 C 0.72012 0.14543 0.019 0.0
C607 C 0.7106 0.14685 0.03609 0.0
H608 H 0.95364 0.50858 0.71058 0.0
H609 H 0.86936 0.54611 0.71549 0.0
H610 H 0.95148 0.49258 0.74035 0.0
H611 H 0.86703 0.52937 0.74544 0.0
H612 H 0.87013 0.46139 0.79242 0.0
H613 H 0.86814 0.4787 0.76259 0.0
H614 H 0.94983 0.52058 0.76943 0.0
H615 H 0.95162 0.50396 0.79909 0.0
C616 C 0.9345 0.51323 0.71797 0.0
C617 C 0.91169 0.52872 0.71063 0.0
C618 C 0.93335 0.50414 0.73507 0.0
C619 C 0.90915 0.5098 0.74526 0.0
C620 C 0.88592 0.52463 0.73787 0.0
C621 C 0.88731 0.53428 0.72076 0.0
C622 C 0.88751 0.47451 0.78757 0.0
C623 C 0.91106 0.48124 0.79815 0.0
C624 C 0.88631 0.48449 0.77054 0.0
C625 C 0.90891 0.50087 0.76365 0.0
C626 C 0.9322 0.50783 0.77432 0.0
C627 C 0.93315 0.49837 0.79136 0.0
H628 H 0.81618 0.63721 0.03895 0.0
H629 H 0.73673 0.67773 0.05384 0.0
H630 H 0.79897 0.63416 0.00923 0.0
H631 H 0.71936 0.67407 0.02427 0.0
H632 H 0.68938 0.63727 0.97175 0.0
H633 H 0.70651 0.63467 1.0015 0.0
H634 H 0.78665 0.6732 0.98617 0.0
H635 H 0.76935 0.67641 0.95657 0.0
C636 C 0.79491 0.64509 0.03594 0.0
C637 C 0.77785 0.65776 0.04876 0.0
C638 C 0.78512 0.64346 0.01892 0.0
C639 C 0.75781 0.65387 0.01441 0.0
C640 C 0.74041 0.66567 0.02735 0.0
C641 C 0.75042 0.66787 0.04427 0.0
C642 C 0.71075 0.64492 0.97471 0.0
C643 C 0.72798 0.65709 0.9618 0.0
C644 C 0.72049 0.64356 0.99175 0.0
C645 C 0.74794 0.65373 0.99618 0.0
C646 C 0.7655 0.665 0.98315 0.0
C647 C 0.75553 0.66694 0.96621 0.0
H648 H 0.55429 0.50464 0.29999 0.0
H649 H 0.63723 0.54474 0.29427 0.0
H650 H 0.5562 0.4886 0.27023 0.0
H651 H 0.63932 0.528 0.26432 0.0
H652 H 0.63682 0.46067 0.21702 0.0
H653 H 0.63916 0.47737 0.24698 0.0
H654 H 0.55615 0.5171 0.24128 0.0
H655 H 0.554 0.50111 0.21151 0.0
C656 C 0.5731 0.50983 0.29244 0.0
C657 C 0.59558 0.52608 0.29953 0.0
C658 C 0.57411 0.5007 0.27534 0.0
C659 C 0.59784 0.50712 0.26492 0.0
C660 C 0.62079 0.52266 0.27208 0.0
C661 C 0.61954 0.53232 0.28919 0.0
C662 C 0.6192 0.47315 0.22216 0.0
C663 C 0.5952 0.4795 0.21187 0.0
C664 C 0.6206 0.48279 0.23926 0.0
C665 C 0.59776 0.49841 0.24649 0.0
C666 C 0.57398 0.50493 0.23612 0.0
C667 C 0.57283 0.49583 0.21902 0.0
H668 H 0.75032 0.3012 0.54999 0.0
H669 H 0.71098 0.38451 0.54432 0.0
H670 H 0.76661 0.30313 0.52027 0.0
H671 H 0.72799 0.38663 0.51443 0.0
H672 H 0.79586 0.38429 0.46752 0.0
H673 H 0.77863 0.38637 0.49736 0.0
H674 H 0.73885 0.30351 0.49113 0.0
H675 H 0.75538 0.30161 0.46145 0.0
C676 C 0.74534 0.32008 0.54245 0.0
C677 C 0.72925 0.34267 0.54956 0.0
C678 C 0.75461 0.32111 0.52538 0.0
C679 C 0.74851 0.34497 0.51499 0.0
C680 C 0.73309 0.368 0.52216 0.0
C681 C 0.72328 0.36673 0.53923 0.0
C682 C 0.78324 0.36665 0.4725 0.0
C683 C 0.77705 0.34277 0.46209 0.0
C684 C 0.7733 0.3679 0.48955 0.0
C685 C 0.75752 0.34502 0.4966 0.0
C686 C 0.75114 0.32136 0.48611 0.0
C687 C 0.76054 0.32036 0.46906 0.0
H688 H 0.07877 0.51933 0.30426 0.0
H689 H 0.11824 0.43919 0.2897 0.0
H690 H 0.08219 0.53613 0.27457 0.0
H691 H 0.12109 0.45584 0.25986 0.0
H692 H 0.07862 0.48492 0.20719 0.0
H693 H 0.08216 0.46807 0.23686 0.0
H694 H 0.12108 0.54833 0.25157 0.0
H695 H 0.11812 0.56504 0.22175 0.0
C696 C 0.08835 0.50536 0.29474 0.0
C697 C 0.09822 0.47791 0.29935 0.0
C698 C 0.09042 0.51505 0.27775 0.0
C699 C 0.10187 0.49731 0.26486 0.0
C700 C 0.11206 0.46996 0.26949 0.0
C701 C 0.11055 0.46049 0.28659 0.0
C702 C 0.08824 0.49887 0.2167 0.0
C703 C 0.09808 0.52634 0.2121 0.0
C704 C 0.09037 0.48915 0.23369 0.0
C705 C 0.10186 0.50687 0.24657 0.0
C706 C 0.11202 0.53423 0.24194 0.0
C707 C 0.11045 0.54373 0.22486 0.0
H708 H 0.23662 0.32874 0.05356 0.0
H709 H 0.31639 0.36872 0.03878 0.0
H710 H 0.21952 0.3322 0.02394 0.0
H711 H 0.29945 0.37161 0.009 0.0
H712 H 0.27003 0.32952 0.9563 0.0
H713 H 0.28719 0.33281 0.98593 0.0
H714 H 0.20691 0.37121 1.0011 0.0
H715 H 0.1899 0.36849 0.97134 0.0
C716 C 0.25044 0.33845 0.04401 0.0
C717 C 0.27788 0.34846 0.04854 0.0
C718 C 0.24058 0.34053 0.02705 0.0
C719 C 0.25815 0.35213 0.01412 0.0
C720 C 0.28547 0.36245 0.01867 0.0
C721 C 0.29511 0.36092 0.03573 0.0
C722 C 0.25615 0.33897 0.96591 0.0
C723 C 0.22859 0.34874 0.96145 0.0
C724 C 0.26604 0.34096 0.98287 0.0
C725 C 0.24839 0.35222 0.99586 0.0
C726 C 0.22095 0.36231 0.99138 0.0
C727 C 0.21128 0.36089 0.97433 0.0
H728 H 0.42637 0.48601 0.80325 0.0
H729 H 0.38747 0.56617 0.78821 0.0
H730 H 0.42297 0.46879 0.77365 0.0
H731 H 0.38465 0.5491 0.75845 0.0
H732 H 0.42732 0.51912 0.70602 0.0
H733 H 0.42365 0.53634 0.73561 0.0
H734 H 0.38421 0.45646 0.75056 0.0
H735 H 0.38729 0.43939 0.7208 0.0
C736 C 0.41691 0.4999 0.79364 0.0
C737 C 0.40721 0.52749 0.7981 0.0
C738 C 0.41485 0.48996 0.7767 0.0
C739 C 0.40358 0.50758 0.76369 0.0
C740 C 0.39354 0.53506 0.76817 0.0
C741 C 0.39503 0.54478 0.78522 0.0
C742 C 0.41757 0.50533 0.71557 0.0
C743 C 0.40762 0.47786 0.71105 0.0
C744 C 0.41535 0.51527 0.73251 0.0
C745 C 0.40368 0.49776 0.74544 0.0
C746 C 0.39341 0.4704 0.74089 0.0
C747 C 0.39506 0.46068 0.72385 0.0
H748 H 0.27053 0.67839 0.55368 0.0
H749 H 0.19017 0.63939 0.53911 0.0
H750 H 0.28735 0.67478 0.52401 0.0
H751 H 0.20685 0.63637 0.50928 0.0
H752 H 0.23651 0.6782 0.45651 0.0
H753 H 0.21947 0.67507 0.48617 0.0
H754 H 0.29933 0.63559 0.50116 0.0
H755 H 0.31621 0.63814 0.47137 0.0
C756 C 0.25651 0.66887 0.54416 0.0
C757 C 0.229 0.65918 0.54877 0.0
C758 C 0.26622 0.66671 0.52718 0.0
C759 C 0.24842 0.65533 0.51429 0.0
C760 C 0.221 0.64534 0.51891 0.0
C761 C 0.21151 0.64695 0.536 0.0
C762 C 0.25032 0.66855 0.46609 0.0
C763 C 0.27773 0.65843 0.46157 0.0
C764 C 0.2405 0.66665 0.48306 0.0
C765 C 0.25806 0.65514 0.49602 0.0
C766 C 0.28535 0.64469 0.49147 0.0
C767 C 0.29495 0.64603 0.47441 0.0
H768 H 0.38325 0.98387 0.11217 0.0
H769 H 0.35038 0.99599 0.16359 0.0
H770 H 0.34651 0.94815 0.10669 0.0
H771 H 0.31315 0.96033 0.1579 0.0
H772 H 0.27427 0.87123 0.14801 0.0
H773 H 0.30932 0.90865 0.1534 0.0
H774 H 0.29489 0.9428 0.10259 0.0
H775 H 0.2599 0.90492 0.09699 0.0
C776 C 0.36815 0.97902 0.12233 0.0
C777 C 0.36997 0.99282 0.13839 0.0
C778 C 0.34687 0.95864 0.1191 0.0
C779 C 0.32683 0.95137 0.13182 0.0
C780 C 0.32846 0.96522 0.14787 0.0
C781 C 0.34974 0.98576 0.15111 0.0
C782 C 0.2785 0.88663 0.13791 0.0
C783 C 0.26422 0.88488 0.122 0.0
C784 C 0.29849 0.90829 0.1411 0.0
C785 C 0.30487 0.92882 0.12848 0.0
C786 C 0.29067 0.92715 0.11255 0.0
C787 C 0.27054 0.90546 0.10935 0.0
H788 H 0.25776 0.09875 0.41346 0.0
H789 H 0.26682 0.13005 0.36148 0.0
H790 H 0.29301 0.06133 0.40745 0.0
H791 H 0.30224 0.09312 0.35565 0.0
H792 H 0.34655 0.00705 0.34613 0.0
H793 H 0.30832 0.04158 0.35198 0.0
H794 H 0.34423 0.05771 0.40217 0.0
H795 H 0.38192 0.02312 0.39655 0.0
C796 C 0.26722 0.09772 0.40078 0.0
C797 C 0.25945 0.11759 0.38801 0.0
C798 C 0.28754 0.07632 0.39734 0.0
C799 C 0.30052 0.07423 0.38105 0.0
C800 C 0.29245 0.09384 0.36825 0.0
C801 C 0.27224 0.11523 0.37168 0.0
C802 C 0.34627 0.01793 0.35842 0.0
C803 C 0.36745 0.01224 0.37082 0.0
C804 C 0.3244 0.0378 0.36175 0.0
C805 C 0.32314 0.05239 0.37758 0.0
C806 C 0.34423 0.04658 0.38997 0.0
C807 C 0.36606 0.02684 0.38664 0.0
H808 H 0.12463 0.02025 0.61229 0.0
H809 H 0.15652 0.00874 0.66397 0.0
H810 H 0.16194 0.05536 0.60677 0.0
H811 H 0.19436 0.04367 0.65825 0.0
H812 H 0.23526 0.13173 0.64798 0.0
H813 H 0.19979 0.09478 0.65356 0.0
H814 H 0.21326 0.06026 0.60273 0.0
H815 H 0.24856 0.09773 0.59694 0.0
C816 C 0.13965 0.02507 0.6225 0.0
C817 C 0.13737 0.01163 0.63864 0.0
C818 C 0.16126 0.04511 0.61924 0.0
C819 C 0.18124 0.05235 0.63202 0.0
C820 C 0.17912 0.03885 0.64816 0.0
C821 C 0.15747 0.01871 0.65142 0.0
C822 C 0.23077 0.11631 0.63793 0.0
C823 C 0.24481 0.1179 0.62194 0.0
C824 C 0.21051 0.09492 0.64122 0.0
C825 C 0.20365 0.07447 0.62863 0.0
C826 C 0.21778 0.07587 0.61267 0.0
C827 C 0.23813 0.09731 0.60936 0.0
H828 H 0.15518 0.99701 0.84729 0.0
H829 H 0.12231 0.98447 0.89866 0.0
H830 H 0.19259 0.96157 0.8529 0.0
H831 H 0.1592 0.94885 0.90407 0.0
H832 H 0.24572 0.90602 0.91398 0.0
H833 H 0.21043 0.94357 0.90837 0.0
H834 H 0.19768 0.91033 0.85717 0.0
H835 H 0.23315 0.8733 0.86258 0.0
C836 C 0.15581 0.98668 0.85974 0.0
C837 C 0.13559 0.99366 0.87248 0.0
C838 C 0.17722 0.96626 0.86295 0.0
C839 C 0.17895 0.95233 0.87896 0.0
C840 C 0.15881 0.95941 0.89169 0.0
C841 C 0.13744 0.97975 0.8885 0.0
C842 C 0.23542 0.90672 0.90153 0.0
C843 C 0.24234 0.88649 0.88878 0.0
C844 C 0.21508 0.9282 0.89832 0.0
C845 C 0.20119 0.93002 0.8823 0.0
C846 C 0.20822 0.90988 0.86956 0.0
C847 C 0.22847 0.88843 0.87275 0.0
H848 H 0.73304 0.1333 0.86299 0.0
H849 H 0.74737 0.09962 0.91401 0.0
H850 H 0.69791 0.09599 0.85761 0.0
H851 H 0.71231 0.06177 0.90841 0.0
H852 H 0.62325 0.02197 0.8991 0.0
H853 H 0.66063 0.05706 0.90448 0.0
H854 H 0.6932 0.04452 0.85311 0.0
H855 H 0.65532 0.00951 0.84754 0.0
C856 C 0.72883 0.11788 0.87308 0.0
C857 C 0.74306 0.11966 0.88901 0.0
C858 C 0.70879 0.09627 0.86989 0.0
C859 C 0.70229 0.07582 0.88254 0.0
C860 C 0.7166 0.07739 0.89844 0.0
C861 C 0.73678 0.09903 0.90164 0.0
C862 C 0.6383 0.02661 0.88888 0.0
C863 C 0.63607 0.0129 0.87281 0.0
C864 C 0.65996 0.04662 0.89206 0.0
C865 C 0.67999 0.05359 0.87927 0.0
C866 C 0.67792 0.03985 0.86321 0.0
C867 C 0.65625 0.0197 0.86002 0.0
H868 H 0.65677 0.99704 0.66424 0.0
H869 H 0.62464 0.98568 0.61261 0.0
H870 H 0.69479 0.96237 0.65836 0.0
H871 H 0.66212 0.95082 0.60693 0.0
H872 H 0.74865 0.90854 0.59683 0.0
H873 H 0.71341 0.94602 0.60277 0.0
H874 H 0.70033 0.91133 0.65359 0.0
H875 H 0.73574 0.87439 0.64787 0.0
C876 C 0.65772 0.98716 0.65167 0.0
C877 C 0.63749 0.9942 0.63895 0.0
C878 C 0.67947 0.96718 0.64831 0.0
C879 C 0.68156 0.95378 0.63215 0.0
C880 C 0.66147 0.96099 0.61942 0.0
C881 C 0.63976 0.98088 0.62277 0.0
C882 C 0.73833 0.90895 0.60928 0.0
C883 C 0.74508 0.8883 0.62182 0.0
C884 C 0.71802 0.93038 0.61267 0.0
C885 C 0.704 0.93172 0.62868 0.0
C886 C 0.71096 0.91124 0.64123 0.0
C887 C 0.73118 0.88985 0.63785 0.0
H888 H 0.76622 0.87632 0.3612 0.0
H889 H 0.75732 0.90703 0.41332 0.0
H890 H 0.80184 0.91311 0.35554 0.0
H891 H 0.79278 0.94433 0.40747 0.0
H892 H 0.88212 0.98187 0.39671 0.0
H893 H 0.84405 0.94763 0.40223 0.0
H894 H 0.80831 0.96459 0.35209 0.0
H895 H 0.84691 0.99874 0.34635 0.0
C896 C 0.7717 0.891 0.37147 0.0
C897 C 0.75891 0.88849 0.38779 0.0
C898 C 0.79203 0.9123 0.36813 0.0
C899 C 0.80022 0.9317 0.38102 0.0
C900 C 0.78721 0.9295 0.3973 0.0
C901 C 0.76677 0.90818 0.40063 0.0
C902 C 0.86621 0.97841 0.3868 0.0
C903 C 0.86776 0.99311 0.37102 0.0
C904 C 0.84417 0.95888 0.39006 0.0
C905 C 0.82302 0.95339 0.37765 0.0
C906 C 0.82442 0.96811 0.36188 0.0
C907 C 0.84651 0.98777 0.3586 0.0
H908 H 0.75883 0.10001 0.09639 0.0
H909 H 0.77122 0.13238 0.1479 0.0
H910 H 0.79376 0.06209 0.10209 0.0
H911 H 0.80622 0.09498 0.15339 0.0
H912 H 0.84863 0.00837 0.16322 0.0
H913 H 0.81079 0.04333 0.15744 0.0
H914 H 0.84533 0.05743 0.10668 0.0
H915 H 0.88268 0.02238 0.11225 0.0
C916 C 0.76896 0.09912 0.1089 0.0
C917 C 0.7622 0.11941 0.12163 0.0
C918 C 0.78907 0.07743 0.11215 0.0
C919 C 0.80279 0.07546 0.12822 0.0
C920 C 0.7958 0.09558 0.14097 0.0
C921 C 0.77584 0.11724 0.13772 0.0
C922 C 0.84813 0.01887 0.15081 0.0
C923 C 0.86886 0.01255 0.13826 0.0
C924 C 0.82648 0.039 0.14752 0.0
C925 C 0.825 0.05319 0.13157 0.0
C926 C 0.84556 0.04664 0.119 0.0
C927 C 0.86719 0.02665 0.12229 0.0
H928 H 0.77402 0.37131 0.64818 0.0
H929 H 0.76067 0.40425 0.59688 0.0
H930 H 0.80952 0.40833 0.65347 0.0
H931 H 0.79612 0.44176 0.60238 0.0
H932 H 0.88469 0.48211 0.612 0.0
H933 H 0.84779 0.44647 0.60667 0.0
H934 H 0.81399 0.45999 0.65766 0.0
H935 H 0.85134 0.49556 0.66319 0.0
C936 C 0.77856 0.38646 0.63799 0.0
C937 C 0.76444 0.38462 0.62204 0.0
C938 C 0.79882 0.4079 0.64113 0.0
C939 C 0.80564 0.42809 0.6284 0.0
C940 C 0.79157 0.42635 0.61242 0.0
C941 C 0.77117 0.40489 0.60929 0.0
C942 C 0.86948 0.47755 0.62215 0.0
C943 C 0.87117 0.49174 0.63809 0.0
C944 C 0.84812 0.45722 0.619 0.0
C945 C 0.82785 0.4504 0.63169 0.0
C946 C 0.82946 0.46454 0.64765 0.0
C947 C 0.85083 0.48501 0.6508 0.0
H948 H 0.84775 0.50811 0.84626 0.0
H949 H 0.88089 0.52102 0.89754 0.0
H950 H 0.80967 0.54273 0.8521 0.0
H951 H 0.84333 0.55582 0.90317 0.0
H952 H 0.75669 0.59757 0.91357 0.0
H953 H 0.79207 0.56022 0.90767 0.0
H954 H 0.80384 0.59386 0.85647 0.0
H955 H 0.76828 0.63066 0.86217 0.0
C956 C 0.84703 0.51833 0.85874 0.0
C957 C 0.86753 0.51172 0.87138 0.0
C958 C 0.82523 0.53828 0.86207 0.0
C959 C 0.82339 0.55207 0.87813 0.0
C960 C 0.84379 0.54532 0.89077 0.0
C961 C 0.86554 0.52546 0.88745 0.0
C962 C 0.76675 0.59696 0.90104 0.0
C963 C 0.7596 0.61728 0.8884 0.0
C964 C 0.78715 0.5756 0.89767 0.0
C965 C 0.80085 0.57402 0.88158 0.0
C966 C 0.79347 0.59415 0.86891 0.0
C967 C 0.77316 0.61547 0.87227 0.0
H968 H 0.74723 0.60032 0.09678 0.0
H969 H 0.73904 0.63124 0.14889 0.0
H970 H 0.71137 0.56346 0.10274 0.0
H971 H 0.70302 0.59488 0.15467 0.0
H972 H 0.65803 0.50891 0.1639 0.0
H973 H 0.69634 0.54337 0.15816 0.0
H974 H 0.66007 0.56055 0.10818 0.0
H975 H 0.62226 0.52602 0.1137 0.0
C976 C 0.73784 0.59931 0.10948 0.0
C977 C 0.74603 0.61892 0.1223 0.0
C978 C 0.71716 0.57825 0.11289 0.0
C979 C 0.70425 0.57622 0.12919 0.0
C980 C 0.71274 0.59556 0.14205 0.0
C981 C 0.7333 0.61662 0.13865 0.0
C982 C 0.6582 0.52004 0.1517 0.0
C983 C 0.63694 0.51461 0.13931 0.0
C984 C 0.68014 0.53987 0.14842 0.0
C985 C 0.68137 0.55466 0.13266 0.0
C986 C 0.6601 0.54922 0.12032 0.0
C987 C 0.63821 0.52952 0.12359 0.0
H988 H 0.73624 0.37193 0.36246 0.0
H989 H 0.74701 0.40411 0.41414 0.0
H990 H 0.7005 0.40864 0.35687 0.0
H991 H 0.71142 0.44131 0.40834 0.0
H992 H 0.62286 0.48063 0.39807 0.0
H993 H 0.66006 0.4454 0.40352 0.0
H994 H 0.69494 0.46015 0.35291 0.0
H995 H 0.65723 0.4953 0.34725 0.0
C996 C 0.73111 0.38688 0.37265 0.0
C997 C 0.74454 0.38487 0.38881 0.0
C998 C 0.71071 0.40813 0.36935 0.0
C999 C 0.70308 0.42798 0.38212 0.0
C1000 C 0.71656 0.42614 0.39827 0.0
C1001 C 0.73706 0.40486 0.40158 0.0
C1002 C 0.63837 0.47644 0.38803 0.0
C1003 C 0.63688 0.49086 0.37216 0.0
C1004 C 0.65992 0.45633 0.39125 0.0
C1005 C 0.68059 0.44998 0.37871 0.0
C1006 C 0.67917 0.46433 0.36281 0.0
C1007 C 0.6576 0.48457 0.35958 0.0
H1008 H 0.12413 0.52321 0.39756 0.0
H1009 H 0.15924 0.50622 0.34718 0.0
H1010 H 0.16195 0.55779 0.40291 0.0
H1011 H 0.1976 0.54071 0.35276 0.0
H1012 H 0.23934 0.62922 0.36158 0.0
H1013 H 0.20388 0.59222 0.35606 0.0
H1014 H 0.21314 0.56154 0.40809 0.0
H1015 H 0.24842 0.59906 0.4138 0.0
C1016 C 0.13997 0.52671 0.3876 0.0
C1017 C 0.13846 0.51188 0.37187 0.0
C1018 C 0.16187 0.54645 0.39077 0.0
C1019 C 0.18292 0.552 0.37832 0.0
C1020 C 0.18156 0.53715 0.36259 0.0
C1021 C 0.15961 0.51729 0.3594 0.0
C1022 C 0.23393 0.61463 0.3719 0.0
C1023 C 0.24673 0.61735 0.38821 0.0
C1024 C 0.21369 0.59319 0.36865 0.0
C1025 C 0.2056 0.57387 0.38161 0.0
C1026 C 0.21862 0.5763 0.39787 0.0
C1027 C 0.23896 0.59775 0.40112 0.0
H1028 H 0.2395 0.37603 0.14876 0.0
H1029 H 0.24823 0.40698 0.09668 0.0
H1030 H 0.20398 0.41287 0.15455 0.0
H1031 H 0.21288 0.44433 0.10266 0.0
H1032 H 0.12378 0.4822 0.11357 0.0
H1033 H 0.1617 0.44785 0.10796 0.0
H1034 H 0.19755 0.46431 0.15813 0.0
H1035 H 0.15908 0.49858 0.16397 0.0
C1036 C 0.23399 0.39077 0.13853 0.0
C1037 C 0.24671 0.38831 0.12218 0.0
C1038 C 0.21373 0.41211 0.14193 0.0
C1039 C 0.20552 0.4316 0.12909 0.0
C1040 C 0.21845 0.42944 0.1128 0.0
C1041 C 0.23883 0.40808 0.10938 0.0
C1042 C 0.13968 0.47861 0.12348 0.0
C1043 C 0.13819 0.49321 0.13929 0.0
C1044 C 0.16164 0.45901 0.12016 0.0
C1045 C 0.18278 0.45335 0.13254 0.0
C1046 C 0.18144 0.46796 0.14836 0.0
C1047 C 0.15943 0.48769 0.15169 0.0
H1048 H 0.34629 0.49945 0.84594 0.0
H1049 H 0.38063 0.48399 0.89669 0.0
H1050 H 0.30778 0.4652 0.85172 0.0
H1051 H 0.34269 0.44966 0.90224 0.0
H1052 H 0.25631 0.40844 0.91316 0.0
H1053 H 0.29144 0.44599 0.9072 0.0
H1054 H 0.30153 0.41379 0.85555 0.0
H1055 H 0.26621 0.37677 0.86132 0.0
C1056 C 0.34572 0.48878 0.85829 0.0
C1057 C 0.36671 0.49453 0.87079 0.0
C1058 C 0.32368 0.46906 0.86159 0.0
C1059 C 0.32208 0.4547 0.87748 0.0
C1060 C 0.34295 0.46062 0.88998 0.0
C1061 C 0.36494 0.4802 0.88669 0.0
C1062 C 0.26591 0.40943 0.90051 0.0
C1063 C 0.25843 0.38939 0.88778 0.0
C1064 C 0.28616 0.4309 0.89711 0.0
C1065 C 0.29938 0.4329 0.88089 0.0
C1066 C 0.29155 0.41316 0.8681 0.0
C1067 C 0.2714 0.39171 0.8715 0.0
H1068 H 0.38133 0.52041 0.6119 0.0
H1069 H 0.34896 0.50834 0.66343 0.0
H1070 H 0.344 0.55548 0.60636 0.0
H1071 H 0.31112 0.54332 0.65769 0.0
H1072 H 0.27204 0.63243 0.64763 0.0
H1073 H 0.30676 0.59479 0.65314 0.0
H1074 H 0.29243 0.56063 0.60231 0.0
H1075 H 0.25778 0.5988 0.59659 0.0
C1076 C 0.3662 0.52511 0.62207 0.0
C1077 C 0.36837 0.51156 0.63819 0.0
C1078 C 0.34458 0.54511 0.6188 0.0
C1079 C 0.3245 0.55222 0.63154 0.0
C1080 C 0.32644 0.53855 0.64763 0.0
C1081 C 0.34808 0.51841 0.65091 0.0
C1082 C 0.27617 0.61695 0.63756 0.0
C1083 C 0.26209 0.61885 0.62159 0.0
C1084 C 0.29597 0.59515 0.64082 0.0
C1085 C 0.30237 0.57461 0.62821 0.0
C1086 C 0.2882 0.57629 0.61226 0.0
C1087 C 0.26826 0.59813 0.609 0.0
H1088 H 0.38402 0.14217 0.15866 0.0
H1089 H 0.40108 0.12291 0.10537 0.0
H1090 H 0.36313 0.18827 0.15014 0.0
H1091 H 0.37961 0.16798 0.0969 0.0
H1092 H 0.30321 0.25675 0.12599 0.0
H1093 H 0.32344 0.21131 0.13594 0.0
H1094 H 0.38952 0.21746 0.09718 0.0
H1095 H 0.36869 0.26212 0.08693 0.0
C1096 C 0.3831 0.14762 0.14515 0.0
C1097 C 0.39454 0.12892 0.13274 0.0
C1098 C 0.37104 0.17401 0.14024 0.0
C1099 C 0.36998 0.18214 0.12281 0.0
C1100 C 0.38072 0.16296 0.11046 0.0
C1101 C 0.39293 0.1369 0.11534 0.0
C1102 C 0.32204 0.2483 0.1196 0.0
C1103 C 0.33417 0.26287 0.10555 0.0
C1104 C 0.33377 0.22235 0.12539 0.0
C1105 C 0.35802 0.21045 0.1173 0.0
C1106 C 0.37046 0.22551 0.1035 0.0
C1107 C 0.3586 0.25126 0.09765 0.0
H1108 H 0.12926 0.10912 0.40046 0.0
H1109 H 0.108 0.18429 0.37073 0.0
H1110 H 0.08467 0.08628 0.39111 0.0
H1111 H 0.0631 0.16232 0.36206 0.0
H1112 H 1.00252 0.10539 0.3327 0.0
H1113 H 0.04642 0.12703 0.34344 0.0
H1114 H 0.03402 0.08462 0.39227 0.0
H1115 H 0.99071 0.06187 0.3811 0.0
C1116 C 0.11481 0.12095 0.39219 0.0
C1117 C 0.12231 0.14835 0.38618 0.0
C1118 C 0.08917 0.10791 0.38684 0.0
C1119 C 0.07031 0.1222 0.37555 0.0
C1120 C 0.07736 0.15019 0.37027 0.0
C1121 C 0.10307 0.16295 0.37538 0.0
C1122 C 0.00922 0.10063 0.34571 0.0
C1123 C 0.99311 0.08197 0.35604 0.0
C1124 C 0.03432 0.11325 0.35197 0.0
C1125 C 0.0438 0.10794 0.36886 0.0
C1126 C 0.02769 0.08905 0.37916 0.0
C1127 C 1.00272 0.0761 0.37279 0.0
H1128 H 0.07149 0.85894 0.6219 0.0
H1129 H 0.14735 0.8811 0.65076 0.0
H1130 H 0.09341 0.81398 0.61331 0.0
H1131 H 0.17012 0.83636 0.64149 0.0
H1132 H 0.19438 0.74211 0.63158 0.0
H1133 H 0.17185 0.7855 0.64285 0.0
H1134 H 0.12847 0.79766 0.59432 0.0
H1135 H 0.14994 0.75375 0.58347 0.0
C1136 C 0.09298 0.85418 0.62639 0.0
C1137 C 0.10779 0.8737 0.63689 0.0
C1138 C 0.1057 0.82844 0.62133 0.0
C1139 C 0.13387 0.82162 0.62635 0.0
C1140 C 0.14836 0.84072 0.63741 0.0
C1141 C 0.13537 0.86642 0.64271 0.0
C1142 C 0.17998 0.75409 0.62336 0.0
C1143 C 0.17379 0.74441 0.60666 0.0
C1144 C 0.16717 0.77909 0.62979 0.0
C1145 C 0.14806 0.79514 0.6196 0.0
C1146 C 0.14243 0.7856 0.60276 0.0
C1147 C 0.15495 0.76049 0.59644 0.0
H1148 H 0.50421 0.89657 0.83505 0.0
H1149 H 0.51428 0.94142 0.88315 0.0
H1150 H 0.4596 0.87573 0.84529 0.0
H1151 H 0.47019 0.91951 0.89384 0.0
H1152 H 0.37405 0.89694 0.90045 0.0
H1153 H 0.41954 0.91874 0.8917 0.0
H1154 H 0.44139 0.84137 0.86401 0.0
H1155 H 0.39568 0.82046 0.87205 0.0
C1156 C 0.497 0.90175 0.8479 0.0
C1157 C 0.5128 0.92059 0.85828 0.0
C1158 C 0.47147 0.88961 0.85388 0.0
C1159 C 0.46122 0.89562 0.87052 0.0
C1160 C 0.47711 0.91457 0.8809 0.0
C1161 C 0.50252 0.92702 0.87481 0.0
C1162 C 0.38874 0.88463 0.89259 0.0
C1163 C 0.38112 0.85716 0.88675 0.0
C1164 C 0.41489 0.89705 0.8876 0.0
C1165 C 0.43412 0.88206 0.87686 0.0
C1166 C 0.42688 0.85403 0.87178 0.0
C1167 C 0.40069 0.84189 0.87652 0.0
H1168 H 0.36852 0.74422 0.42263 0.0
H1169 H 0.30317 0.74888 0.38348 0.0
H1170 H 0.38942 0.78866 0.4121 0.0
H1171 H 0.32347 0.79412 0.37323 0.0
H1172 H 0.38405 0.8633 0.35035 0.0
H1173 H 0.36332 0.81714 0.35898 0.0
H1174 H 0.37914 0.83809 0.41219 0.0
H1175 H 0.40039 0.88317 0.40365 0.0
C1176 C 0.35848 0.75488 0.41184 0.0
C1177 C 0.33404 0.74316 0.404 0.0
C1178 C 0.37038 0.7805 0.40582 0.0
C1179 C 0.35798 0.79532 0.3919 0.0
C1180 C 0.33376 0.78327 0.38387 0.0
C1181 C 0.32198 0.75744 0.38983 0.0
C1182 C 0.38303 0.85797 0.36387 0.0
C1183 C 0.39421 0.87687 0.37626 0.0
C1184 C 0.37106 0.83155 0.36884 0.0
C1185 C 0.36988 0.82359 0.3863 0.0
C1186 C 0.38037 0.84296 0.39861 0.0
C1187 C 0.39246 0.86904 0.39368 0.0
H1188 H 0.37631 0.10948 0.61004 0.0
H1189 H 0.3961 0.18419 0.64054 0.0
H1190 H 0.42107 0.08705 0.61942 0.0
H1191 H 0.44117 0.16264 0.64925 0.0
H1192 H 0.50264 0.10569 0.67816 0.0
H1193 H 0.45856 0.12721 0.66754 0.0
H1194 H 0.47164 0.08623 0.61834 0.0
H1195 H 0.51507 0.06361 0.62937 0.0
C1196 C 0.39046 0.1213 0.6185 0.0
C1197 C 0.3825 0.14846 0.62469 0.0
C1198 C 0.4162 0.1085 0.62387 0.0
C1199 C 0.43474 0.12277 0.63535 0.0
C1200 C 0.42719 0.1505 0.64086 0.0
C1201 C 0.40137 0.16303 0.63574 0.0
C1202 C 0.49606 0.10124 0.66509 0.0
C1203 C 0.51237 0.08298 0.65462 0.0
C1204 C 0.47084 0.11379 0.6589 0.0
C1205 C 0.46146 0.10878 0.64195 0.0
C1206 C 0.47785 0.09039 0.6315 0.0
C1207 C 0.50291 0.07752 0.63779 0.0
H1208 H 0.07198 0.14652 0.8908 0.0
H1209 H 0.14704 0.1255 0.86089 0.0
H1210 H 0.09367 0.19164 0.89925 0.0
H1211 H 0.1696 0.17042 0.87 0.0
H1212 H 0.19242 0.26521 0.87927 0.0
H1213 H 0.17035 0.22127 0.8685 0.0
H1214 H 0.12914 0.2088 0.91768 0.0
H1215 H 0.15013 0.25328 0.92805 0.0
C1216 C 0.09326 0.15152 0.88608 0.0
C1217 C 0.1079 0.13228 0.8753 0.0
C1218 C 0.10585 0.17737 0.89105 0.0
C1219 C 0.13371 0.18462 0.88564 0.0
C1220 C 0.14807 0.16574 0.87438 0.0
C1221 C 0.1352 0.13992 0.86918 0.0
C1222 C 0.1786 0.25305 0.88774 0.0
C1223 C 0.17286 0.26282 0.90448 0.0
C1224 C 0.16605 0.22772 0.8816 0.0
C1225 C 0.14769 0.2114 0.89212 0.0
C1226 C 0.14253 0.22103 0.909 0.0
C1227 C 0.15477 0.24648 0.91504 0.0
H1228 H 0.13354 0.85686 0.15524 0.0
H1229 H 0.11505 0.87295 0.10174 0.0
H1230 H 0.08827 0.87836 0.16332 0.0
H1231 H 0.06879 0.89394 0.10989 0.0
H1232 H 0.99955 0.95376 0.13364 0.0
H1233 H 0.04535 0.9339 0.12399 0.0
H1234 H 0.03876 0.86744 0.16248 0.0
H1235 H 0.9937 0.88783 0.17241 0.0
C1236 C 0.11971 0.86486 0.14514 0.0
C1237 C 0.12791 0.86291 0.12779 0.0
C1238 C 0.09354 0.87707 0.1498 0.0
C1239 C 0.07452 0.88749 0.13728 0.0
C1240 C 0.08294 0.88625 0.1199 0.0
C1241 C 0.10942 0.87415 0.11521 0.0
C1242 C 0.00797 0.93492 0.14003 0.0
C1243 C 0.99316 0.92254 0.15391 0.0
C1244 C 0.03413 0.92341 0.13442 0.0
C1245 C 0.04601 0.89919 0.14254 0.0
C1246 C 0.03071 0.88649 0.15616 0.0
C1247 C 0.00473 0.89809 0.16181 0.0
H1248 H 0.70234 0.74814 0.8841 0.0
H1249 H 0.63744 0.74353 0.92353 0.0
H1250 H 0.68247 0.79381 0.87426 0.0
H1251 H 0.61699 0.78845 0.91342 0.0
H1252 H 0.60684 0.88312 0.90558 0.0
H1253 H 0.62812 0.83784 0.91377 0.0
H1254 H 0.64244 0.81736 0.86034 0.0
H1255 H 0.62166 0.86368 0.85207 0.0
C1256 C 0.68372 0.75681 0.89059 0.0
C1257 C 0.67165 0.74239 0.90472 0.0
C1258 C 0.67219 0.78289 0.88487 0.0
C1259 C 0.64825 0.79508 0.89311 0.0
C1260 C 0.63584 0.78016 0.90698 0.0
C1261 C 0.64747 0.75426 0.91276 0.0
C1262 C 0.61449 0.86907 0.8955 0.0
C1263 C 0.61225 0.87702 0.87812 0.0
C1264 C 0.62658 0.84288 0.90023 0.0
C1265 C 0.6366 0.82357 0.88775 0.0
C1266 C 0.63505 0.83172 0.87033 0.0
C1267 C 0.62308 0.85824 0.86557 0.0
H1268 H 0.01549 0.94115 0.62864 0.0
H1269 H 0.00326 0.89871 0.67734 0.0
H1270 H 0.97201 0.91862 0.61762 0.0
H1271 H 0.95914 0.87728 0.66673 0.0
H1272 H 0.89619 0.82078 0.6398 0.0
H1273 H 0.94145 0.84207 0.64842 0.0
H1274 H 0.92147 0.91791 0.61878 0.0
H1275 H 0.87653 0.89575 0.60948 0.0
C1276 C 0.00337 0.92717 0.63704 0.0
C1277 C 0.0129 0.9216 0.65385 0.0
C1278 C 0.97829 0.91436 0.63075 0.0
C1279 C 0.96191 0.8959 0.64119 0.0
C1280 C 0.97139 0.89075 0.6581 0.0
C1281 C 0.99664 0.90324 0.66429 0.0
C1282 C 0.90154 0.84194 0.63501 0.0
C1283 C 0.88264 0.85666 0.62405 0.0
C1284 C 0.92746 0.85431 0.64009 0.0
C1285 C 0.9351 0.88204 0.63461 0.0
C1286 C 0.91654 0.89646 0.6232 0.0
C1287 C 0.8907 0.88381 0.61788 0.0
H1288 H 0.80489 0.25533 0.38401 0.0
H1289 H 0.87143 0.26191 0.42234 0.0
H1290 H 0.82556 0.21029 0.37384 0.0
H1291 H 0.89275 0.21759 0.41184 0.0
H1292 H 0.88517 0.14119 0.3507 0.0
H1293 H 0.86488 0.18753 0.35927 0.0
H1294 H 0.88348 0.16801 0.41236 0.0
H1295 H 0.90434 0.12273 0.40385 0.0
C1296 C 0.82408 0.24725 0.39018 0.0
C1297 C 0.83635 0.262 0.40411 0.0
C1298 C 0.83607 0.22152 0.38426 0.0
C1299 C 0.86075 0.21003 0.39207 0.0
C1300 C 0.87338 0.22533 0.40573 0.0
C1301 C 0.86125 0.25087 0.41173 0.0
C1302 C 0.88489 0.14688 0.36418 0.0
C1303 C 0.89666 0.12828 0.37653 0.0
C1304 C 0.87317 0.17341 0.36912 0.0
C1305 C 0.8728 0.18179 0.38652 0.0
C1306 C 0.88404 0.1628 0.39881 0.0
C1307 C 0.89589 0.1366 0.3939 0.0
H1308 H 0.6143 0.13451 0.10108 0.0
H1309 H 0.63168 0.15376 0.15435 0.0
H1310 H 0.56809 0.1136 0.10936 0.0
H1311 H 0.58651 0.13231 0.16257 0.0
H1312 H 0.49235 0.12038 0.17173 0.0
H1313 H 0.53688 0.14161 0.16156 0.0
H1314 H 0.54525 0.07403 0.1239 0.0
H1315 H 0.49994 0.05337 0.13376 0.0
C1316 C 0.60841 0.1341 0.11453 0.0
C1317 C 0.62665 0.14611 0.127 0.0
C1318 C 0.58196 0.12202 0.1193 0.0
C1319 C 0.57329 0.12154 0.13665 0.0
C1320 C 0.59195 0.13294 0.14906 0.0
C1321 C 0.61809 0.14514 0.14431 0.0
C1322 C 0.50366 0.11006 0.16126 0.0
C1323 C 0.49273 0.08507 0.15365 0.0
C1324 C 0.52933 0.12215 0.15546 0.0
C1325 C 0.54499 0.10939 0.142 0.0
C1326 C 0.53374 0.08461 0.13418 0.0
C1327 C 0.50786 0.07263 0.13992 0.0
H1328 H 0.64635 0.25368 0.58508 0.0
H1329 H 0.69154 0.26435 0.63302 0.0
H1330 H 0.62504 0.20954 0.59575 0.0
H1331 H 0.66918 0.2208 0.64412 0.0
H1332 H 0.64604 0.12492 0.65141 0.0
H1333 H 0.66802 0.17015 0.64238 0.0
H1334 H 0.59064 0.19197 0.61469 0.0
H1335 H 0.56952 0.14649 0.62304 0.0
C1336 C 0.65151 0.24671 0.59799 0.0
C1337 C 0.67059 0.26253 0.6082 0.0
C1338 C 0.6391 0.22146 0.60421 0.0
C1339 C 0.64509 0.21153 0.62093 0.0
C1340 C 0.66426 0.22746 0.63113 0.0
C1341 C 0.67696 0.25258 0.62481 0.0
C1342 C 0.63374 0.13957 0.64353 0.0
C1343 C 0.60621 0.132 0.63777 0.0
C1344 C 0.64627 0.16557 0.63835 0.0
C1345 C 0.63135 0.18469 0.62751 0.0
C1346 C 0.60324 0.17754 0.62255 0.0
C1347 C 0.59098 0.1515 0.62747 0.0
H1348 H 0.50135 0.89881 0.33256 0.0
H1349 H 0.48958 0.94225 0.38099 0.0
H1350 H 0.54537 0.87731 0.34324 0.0
H1351 H 0.53299 0.91963 0.3921 0.0
H1352 H 0.62834 0.89582 0.4002 0.0
H1353 H 0.58354 0.91829 0.39092 0.0
H1354 H 0.56262 0.8422 0.36174 0.0
H1355 H 0.60775 0.82061 0.37034 0.0
C1356 C 0.50807 0.90357 0.34557 0.0
C1357 C 0.49195 0.92219 0.35592 0.0
C1358 C 0.53325 0.89102 0.3518 0.0
C1359 C 0.5428 0.89638 0.36867 0.0
C1360 C 0.52663 0.91518 0.379 0.0
C1361 C 0.5016 0.92805 0.37266 0.0
C1362 C 0.61399 0.8839 0.39192 0.0
C1363 C 0.62174 0.85659 0.38585 0.0
C1364 C 0.58823 0.89672 0.3866 0.0
C1365 C 0.56946 0.88233 0.3753 0.0
C1366 C 0.57678 0.85443 0.36997 0.0
C1367 C 0.60263 0.84188 0.37504 0.0
H1368 H 0.80373 0.74972 0.12585 0.0
H1369 H 0.86995 0.74331 0.0873 0.0
H1370 H 0.82415 0.79506 0.13577 0.0
H1371 H 0.891 0.78789 0.09754 0.0
H1372 H 0.90294 0.88258 0.10547 0.0
H1373 H 0.88166 0.83744 0.09702 0.0
H1374 H 0.86356 0.81795 0.15017 0.0
H1375 H 0.88425 0.86414 0.15867 0.0
C1376 C 0.82277 0.75792 0.11957 0.0
C1377 C 0.83505 0.7431 0.10566 0.0
C1378 C 0.83462 0.78382 0.12534 0.0
C1379 C 0.85914 0.79541 0.1174 0.0
C1380 C 0.87173 0.78008 0.10374 0.0
C1381 C 0.85975 0.75438 0.0979 0.0
C1382 C 0.89449 0.86875 0.11544 0.0
C1383 C 0.89555 0.87701 0.1328 0.0
C1384 C 0.88239 0.84263 0.11056 0.0
C1385 C 0.87121 0.82368 0.12289 0.0
C1386 C 0.8718 0.83205 0.14029 0.0
C1387 C 0.88375 0.85849 0.14519 0.0
H1388 H 0.01327 0.12146 0.83919 0.0
H1389 H 0.00572 0.05488 0.87743 0.0
H1390 H 0.96886 0.14294 0.84938 0.0
H1391 H 0.96054 0.07576 0.88731 0.0
H1392 H 0.89117 0.13599 0.90986 0.0
H1393 H 0.93756 0.11533 0.90169 0.0
H1394 H 0.91927 0.13365 0.84842 0.0
H1395 H 0.87394 0.15486 0.85653 0.0
C1396 C 1.00201 0.11131 0.84972 0.0
C1397 C 0.01289 0.08634 0.85739 0.0
C1398 C 0.9764 0.12353 0.85554 0.0
C1399 C 0.96077 0.11093 0.86907 0.0
C1400 C 0.97202 0.08622 0.87697 0.0
C1401 C 0.99783 0.07412 0.87123 0.0
C1402 C 0.89714 0.13557 0.89642 0.0
C1403 C 0.87887 0.14738 0.8839 0.0
C1404 C 0.92369 0.12363 0.89171 0.0
C1405 C 0.93245 0.12309 0.87438 0.0
C1406 C 0.91377 0.13434 0.86192 0.0
C1407 C 0.88754 0.1464 0.8666 0.0
H1408 H 0.86682 0.76167 0.58651 0.0
H1409 H 0.802 0.75728 0.62601 0.0
H1410 H 0.88708 0.71664 0.59658 0.0
H1411 H 0.8217 0.7115 0.6358 0.0
H1412 H 0.88263 0.64185 0.65808 0.0
H1413 H 0.86167 0.68801 0.64971 0.0
H1414 H 0.87601 0.66722 0.59632 0.0
H1415 H 0.89749 0.62206 0.60462 0.0
C1416 C 0.85676 0.75096 0.59729 0.0
C1417 C 0.83267 0.76294 0.60537 0.0
C1418 C 0.86829 0.725 0.60303 0.0
C1419 C 0.85586 0.71011 0.61691 0.0
C1420 C 0.83199 0.72239 0.62518 0.0
C1421 C 0.82056 0.74854 0.61948 0.0
C1422 C 0.88115 0.64717 0.64457 0.0
C1423 C 0.89206 0.62834 0.63206 0.0
C1424 C 0.86908 0.6736 0.63975 0.0
C1425 C 0.8675 0.68164 0.62232 0.0
C1426 C 0.87756 0.66227 0.60987 0.0
C1427 C 0.88976 0.63615 0.61466 0.0
H1428 H 0.60802 0.68454 0.87089 0.0
H1429 H 0.62856 0.60909 0.90055 0.0
H1430 H 0.56293 0.66301 0.86217 0.0
H1431 H 0.58377 0.58669 0.89115 0.0
H1432 H 0.48966 0.56305 0.88104 0.0
H1433 H 0.53312 0.58543 0.89226 0.0
H1434 H 0.54587 0.62799 0.84352 0.0
H1435 H 0.50183 0.60671 0.83272 0.0
C1436 C 0.6029 0.66323 0.87551 0.0
C1437 C 0.62199 0.64843 0.8863 0.0
C1438 C 0.57707 0.65072 0.87038 0.0
C1439 C 0.56975 0.62278 0.87562 0.0
C1440 C 0.58848 0.60829 0.8869 0.0
C1441 C 0.61423 0.62107 0.89228 0.0
C1442 C 0.50177 0.57724 0.87276 0.0
C1443 C 0.49222 0.58324 0.85601 0.0
C1444 C 0.52683 0.58998 0.87916 0.0
C1445 C 0.54311 0.60879 0.8689 0.0
C1446 C 0.53366 0.61426 0.85202 0.0
C1447 C 0.50847 0.60185 0.84573 0.0
H1448 H 0.60744 0.38459 0.10626 0.0
H1449 H 0.62327 0.36529 0.15969 0.0
H1450 H 0.62859 0.3393 0.09798 0.0
H1451 H 0.64396 0.31897 0.15132 0.0
H1452 H 0.70368 0.24994 0.12702 0.0
H1453 H 0.68388 0.29554 0.13705 0.0
H1454 H 0.61735 0.28985 0.09855 0.0
H1455 H 0.63768 0.245 0.08826 0.0
C1456 C 0.61529 0.37057 0.11631 0.0
C1457 C 0.61336 0.37857 0.13369 0.0
C1458 C 0.62731 0.34438 0.11152 0.0
C1459 C 0.63757 0.32512 0.12396 0.0
C1460 C 0.63636 0.33331 0.14137 0.0
C1461 C 0.62444 0.35982 0.14619 0.0
C1462 C 0.68483 0.25851 0.12072 0.0
C1463 C 0.67243 0.24403 0.10672 0.0
C1464 C 0.67335 0.28455 0.12654 0.0
C1465 C 0.64915 0.29663 0.11853 0.0
C1466 C 0.63639 0.28163 0.10481 0.0
C1467 C 0.64796 0.25578 0.09893 0.0
H1468 H 0.87576 0.39661 0.40076 0.0
H1469 H 0.89799 0.32089 0.3718 0.0
H1470 H 0.92063 0.41934 0.39166 0.0
H1471 H 0.94304 0.34275 0.36338 0.0
H1472 H 0.00394 0.39904 0.33396 0.0
H1473 H 0.95975 0.37782 0.34456 0.0
H1474 H 0.97152 0.42089 0.39322 0.0
H1475 H 0.01523 0.44319 0.3822 0.0
C1476 C 0.89046 0.38466 0.39271 0.0
C1477 C 0.88316 0.35713 0.38681 0.0
C1478 C 0.91623 0.39763 0.3875 0.0
C1479 C 0.93541 0.38315 0.37649 0.0
C1480 C 0.92854 0.35504 0.37137 0.0
C1481 C 0.90273 0.34235 0.37632 0.0
C1482 C 0.99707 0.40403 0.34691 0.0
C1483 C 0.01314 0.42272 0.35724 0.0
C1484 C 0.97178 0.39166 0.35308 0.0
C1485 C 0.96205 0.39727 0.36989 0.0
C1486 C 0.97808 0.41623 0.38018 0.0
C1487 C 0.00327 0.42891 0.3739 0.0
H1488 H 0.93418 0.35925 0.88779 0.0
H1489 H 0.85788 0.3813 0.85934 0.0
H1490 H 0.91247 0.31425 0.89649 0.0
H1491 H 0.83532 0.33652 0.86871 0.0
H1492 H 0.81126 0.24232 0.87876 0.0
H1493 H 0.83363 0.28568 0.86737 0.0
H1494 H 0.87773 0.29783 0.91567 0.0
H1495 H 0.8564 0.25392 0.92664 0.0
C1496 C 0.91265 0.35445 0.88341 0.0
C1497 C 0.89765 0.37396 0.873 0.0
C1498 C 0.90005 0.32869 0.88854 0.0
C1499 C 0.87181 0.32183 0.88366 0.0
C1500 C 0.85713 0.34091 0.87269 0.0
C1501 C 0.87001 0.36663 0.86731 0.0
C1502 C 0.82579 0.25428 0.88691 0.0
C1503 C 0.8322 0.2446 0.90357 0.0
C1504 C 0.83851 0.27927 0.88041 0.0
C1505 C 0.85776 0.29533 0.89049 0.0
C1506 C 0.86364 0.28578 0.9073 0.0
C1507 C 0.85121 0.26066 0.9137 0.0
H1508 H 0.01527 0.56209 0.12927 0.0
H1509 H 0.00339 0.60536 0.17773 0.0
H1510 H 0.97198 0.5849 0.11811 0.0
H1511 H 0.95952 0.62707 0.167 0.0
H1512 H 0.89804 0.68454 0.13976 0.0
H1513 H 0.94289 0.66247 0.14844 0.0
H1514 H 0.92131 0.58661 0.11924 0.0
H1515 H 0.87677 0.60954 0.10988 0.0
C1516 C 0.00325 0.57628 0.13759 0.0
C1517 C 0.01285 0.58206 0.15436 0.0
C1518 C 0.97829 0.58927 0.13123 0.0
C1519 C 0.96216 0.60811 0.14155 0.0
C1520 C 0.97162 0.61333 0.15846 0.0
C1521 C 0.99672 0.60067 0.16471 0.0
C1522 C 0.90295 0.66321 0.13508 0.0
C1523 C 0.88372 0.6487 0.12424 0.0
C1524 C 0.92863 0.65039 0.14019 0.0
C1525 C 0.93567 0.62242 0.13487 0.0
C1526 C 0.91681 0.60822 0.12354 0.0
C1527 C 0.8912 0.62131 0.11819 0.0
H1528 H 0.62309 0.64106 0.35147 0.0
H1529 H 0.60937 0.62095 0.40499 0.0
H1530 H 0.64354 0.68752 0.35977 0.0
H1531 H 0.6303 0.66638 0.41321 0.0
H1532 H 0.7028 0.75736 0.38342 0.0
H1533 H 0.68347 0.71147 0.37357 0.0
H1534 H 0.61842 0.71565 0.41303 0.0
H1535 H 0.63831 0.76083 0.42315 0.0
C1536 C 0.62471 0.64638 0.36497 0.0
C1537 C 0.61425 0.62738 0.37752 0.0
C1538 C 0.63648 0.67297 0.36975 0.0
C1539 C 0.63819 0.68099 0.38719 0.0
C1540 C 0.62861 0.66144 0.39966 0.0
C1541 C 0.61672 0.63517 0.39491 0.0
C1542 C 0.68438 0.7484 0.38999 0.0
C1543 C 0.67227 0.76257 0.40419 0.0
C1544 C 0.67317 0.72218 0.38426 0.0
C1545 C 0.64951 0.7096 0.39258 0.0
C1546 C 0.63706 0.72426 0.40653 0.0
C1547 C 0.64837 0.7503 0.41231 0.0
H1548 H 0.63371 0.35705 0.65486 0.0
H1549 H 0.61471 0.37168 0.60128 0.0
H1550 H 0.5884 0.37844 0.66289 0.0
H1551 H 0.56836 0.39262 0.60939 0.0
H1552 H 0.49398 0.38745 0.67232 0.0
H1553 H 0.53897 0.36706 0.66228 0.0
H1554 H 0.54473 0.43282 0.62332 0.0
H1555 H 0.49899 0.4527 0.6331 0.0
C1556 C 0.61976 0.36469 0.64473 0.0
C1557 C 0.62784 0.36234 0.62737 0.0
C1558 C 0.59356 0.37686 0.64936 0.0
C1559 C 0.57435 0.38684 0.63681 0.0
C1560 C 0.58264 0.38524 0.61942 0.0
C1561 C 0.60917 0.37318 0.61475 0.0
C1562 C 0.5048 0.39755 0.6616 0.0
C1563 C 0.49303 0.42183 0.65361 0.0
C1564 C 0.53074 0.38596 0.65587 0.0
C1565 C 0.5458 0.39847 0.6421 0.0
C1566 C 0.5337 0.42248 0.63388 0.0
C1567 C 0.50757 0.434 0.63956 0.0
H1568 H 0.12158 0.36352 0.35155 0.0
H1569 H 0.10372 0.38206 0.40485 0.0
H1570 H 0.14224 0.31725 0.35998 0.0
H1571 H 0.12494 0.33687 0.41321 0.0
H1572 H 0.13642 0.24284 0.423 0.0
H1573 H 0.11531 0.28735 0.41271 0.0
H1574 H 0.18187 0.29427 0.37429 0.0
H1575 H 0.20236 0.24897 0.38427 0.0
C1576 C 0.12223 0.35787 0.36504 0.0
C1577 C 0.11068 0.37645 0.37747 0.0
C1578 C 0.13417 0.33139 0.36989 0.0
C1579 C 0.13498 0.32304 0.38729 0.0
C1580 C 0.12403 0.34205 0.39966 0.0
C1581 C 0.11196 0.3682 0.39484 0.0
C1582 C 0.14654 0.25384 0.41235 0.0
C1583 C 0.1712 0.2425 0.40456 0.0
C1584 C 0.13453 0.2795 0.40647 0.0
C1585 C 0.14703 0.29474 0.39275 0.0
C1586 C 0.17148 0.28309 0.38477 0.0
C1587 C 0.18337 0.25722 0.39058 0.0
H1588 H 0.39809 0.32004 0.13908 0.0
H1589 H 0.37734 0.3958 0.10975 0.0
H1590 H 0.44345 0.34131 0.14755 0.0
H1591 H 0.42236 0.41794 0.11892 0.0
H1592 H 0.5163 0.44171 0.12846 0.0
H1593 H 0.47284 0.4191 0.11743 0.0
H1594 H 0.46122 0.37602 0.16612 0.0
H1595 H 0.5053 0.39753 0.17671 0.0
C1596 C 0.40323 0.34137 0.13448 0.0
C1597 C 0.38401 0.35632 0.12385 0.0
C1598 C 0.4292 0.35372 0.13947 0.0
C1599 C 0.43656 0.38166 0.13424 0.0
C1600 C 0.41767 0.39632 0.12314 0.0
C1601 C 0.39177 0.38369 0.1179 0.0
C1602 C 0.50445 0.42732 0.13676 0.0
C1603 C 0.5143 0.42129 0.15344 0.0
C1604 C 0.47939 0.41446 0.13047 0.0
C1605 C 0.46338 0.39551 0.14079 0.0
C1606 C 0.47319 0.38989 0.15758 0.0
C1607 C 0.49841 0.40242 0.16375 0.0
H1608 H 0.30257 0.7564 0.88347 0.0
H1609 H 0.36888 0.76295 0.92194 0.0
H1610 H 0.32351 0.71149 0.87322 0.0
H1611 H 0.39043 0.71882 0.91138 0.0
H1612 H 0.40235 0.62411 0.90343 0.0
H1613 H 0.38114 0.66924 0.91187 0.0
H1614 H 0.36312 0.6888 0.85872 0.0
H1615 H 0.3838 0.64256 0.8502 0.0
C1616 C 0.32175 0.74835 0.88965 0.0
C1617 C 0.33388 0.76304 0.90366 0.0
C1618 C 0.3339 0.72269 0.88369 0.0
C1619 C 0.35856 0.71124 0.89154 0.0
C1620 C 0.37106 0.72651 0.90525 0.0
C1621 C 0.35879 0.75196 0.91128 0.0
C1622 C 0.39397 0.63794 0.89344 0.0
C1623 C 0.39504 0.62967 0.87608 0.0
C1624 C 0.38191 0.66407 0.89832 0.0
C1625 C 0.37075 0.68304 0.886 0.0
C1626 C 0.37137 0.67469 0.86859 0.0
C1627 C 0.38331 0.64823 0.86369 0.0
H1628 H 0.99102 0.62307 0.67008 0.0
H1629 H 0.99978 0.55536 0.63264 0.0
H1630 H 0.03559 0.64442 0.66002 0.0
H1631 H 0.04508 0.57612 0.62292 0.0
H1632 H 0.13079 0.65606 0.65364 0.0
H1633 H 0.08522 0.63517 0.66156 0.0
H1634 H 0.06819 0.6154 0.60832 0.0
H1635 H 0.1148 0.63575 0.60035 0.0
C1636 C 1.00257 0.61266 0.65974 0.0
C1637 C 0.99199 0.58741 0.65226 0.0
C1638 C 0.02826 0.62481 0.65401 0.0
C1639 C 0.04426 0.61185 0.64077 0.0
C1640 C 0.03331 0.58686 0.63304 0.0
C1641 C 0.00742 0.57483 0.63869 0.0
C1642 C 0.11742 0.64735 0.64353 0.0
C1643 C 0.12651 0.64782 0.6263 0.0
C1644 C 0.09105 0.63548 0.6481 0.0
C1645 C 0.07268 0.6239 0.63559 0.0
C1646 C 0.08184 0.62397 0.61833 0.0
C1647 C 0.10851 0.63572 0.61374 0.0
H1648 H 0.12147 0.64072 0.16035 0.0
H1649 H 0.10115 0.62424 0.10712 0.0
H1650 H 0.14177 0.68729 0.15223 0.0
H1651 H 0.12198 0.66975 0.09905 0.0
H1652 H 0.13388 0.76388 0.0902 0.0
H1653 H 0.11264 0.71936 0.10042 0.0
H1654 H 0.18097 0.71039 0.13754 0.0
H1655 H 0.20163 0.75565 0.12766 0.0
C1656 C 0.12149 0.64689 0.14695 0.0
C1657 C 0.1094 0.62877 0.13445 0.0
C1658 C 0.13321 0.67355 0.14227 0.0
C1659 C 0.13324 0.68255 0.12498 0.0
C1660 C 0.12169 0.66405 0.11253 0.0
C1661 C 0.10986 0.6377 0.11719 0.0
C1662 C 0.14433 0.75245 0.10058 0.0
C1663 C 0.16956 0.76317 0.10802 0.0
C1664 C 0.13224 0.72679 0.1064 0.0
C1665 C 0.14524 0.71095 0.1197 0.0
C1666 C 0.17021 0.72204 0.12739 0.0
C1667 C 0.18218 0.7479 0.12164 0.0
H1668 H 0.10779 0.32027 0.87087 0.0
H1669 H 0.12801 0.39546 0.90084 0.0
H1670 H 0.06265 0.34177 0.86218 0.0
H1671 H 0.0832 0.41782 0.89149 0.0
H1672 H 0.98947 0.44179 0.88132 0.0
H1673 H 0.03263 0.41895 0.89256 0.0
H1674 H 0.04552 0.377 0.84364 0.0
H1675 H 1.00171 0.39877 0.8328 0.0
C1676 C 0.10256 0.3415 0.87559 0.0
C1677 C 0.12159 0.35624 0.88645 0.0
C1678 C 0.07672 0.354 0.87047 0.0
C1679 C 0.06931 0.38186 0.8758 0.0
C1680 C 0.08796 0.39627 0.88717 0.0
C1681 C 0.11372 0.3835 0.89253 0.0
C1682 C 1.00152 0.42761 0.873 0.0
C1683 C 0.99209 0.42198 0.85619 0.0
C1684 C 0.02642 0.41462 0.87941 0.0
C1685 C 0.04269 0.3959 0.8691 0.0
C1686 C 0.03333 0.39068 0.85217 0.0
C1687 C 0.00827 0.40337 0.84586 0.0
H1688 H 0.30268 0.24916 0.62605 0.0
H1689 H 0.36928 0.24234 0.58777 0.0
H1690 H 0.32325 0.29443 0.63603 0.0
H1691 H 0.39045 0.2868 0.59806 0.0
H1692 H 0.40255 0.38146 0.60566 0.0
H1693 H 0.3811 0.33636 0.59732 0.0
H1694 H 0.36277 0.31735 0.65051 0.0
H1695 H 0.38367 0.36353 0.6589 0.0
C1696 C 0.32183 0.25725 0.61985 0.0
C1697 C 0.33416 0.24235 0.60599 0.0
C1698 C 0.33376 0.2831 0.62565 0.0
C1699 C 0.35842 0.29455 0.61778 0.0
C1700 C 0.37108 0.27912 0.6042 0.0
C1701 C 0.35903 0.25348 0.59832 0.0
C1702 C 0.39402 0.36775 0.61566 0.0
C1703 C 0.3951 0.37614 0.63301 0.0
C1704 C 0.38183 0.34165 0.61085 0.0
C1705 C 0.37053 0.32283 0.62322 0.0
C1706 C 0.37111 0.33134 0.64059 0.0
C1707 C 0.38318 0.35777 0.64543 0.0
H1708 H 0.50615 0.60844 0.33431 0.0
H1709 H 0.51671 0.56478 0.38276 0.0
H1710 H 0.4619 0.62995 0.34465 0.0
H1711 H 0.47308 0.5874 0.39355 0.0
H1712 H 0.37741 0.61038 0.4007 0.0
H1713 H 0.42264 0.58835 0.39183 0.0
H1714 H 0.44374 0.66477 0.363 0.0
H1715 H 0.39816 0.6859 0.37116 0.0
C1716 C 0.49914 0.60368 0.34726 0.0
C1717 C 0.51494 0.58494 0.35771 0.0
C1718 C 0.47382 0.61621 0.35329 0.0
C1719 C 0.46382 0.61072 0.37006 0.0
C1720 C 0.47977 0.59193 0.38051 0.0
C1721 C 0.50493 0.57907 0.37437 0.0
C1722 C 0.39188 0.62247 0.39257 0.0
C1723 C 0.38407 0.64972 0.38647 0.0
C1724 C 0.4179 0.6099 0.3875 0.0
C1725 C 0.43686 0.62453 0.37643 0.0
C1726 C 0.42945 0.65237 0.37106 0.0
C1727 C 0.40334 0.66466 0.37587 0.0
loop_
_geom_bond_atom_site_label_1
_geom_bond_atom_site_label_2
_geom_bond_distance
_geom_bond_site_symmetry_2
_ccdc_geom_bond_type
Co0 O1 2.216 . S
Co0 O2 2.091 . S
Co0 O4 2.004 . S
Co0 O10 2.021 . S
Co0 O12 2.137 . S
Co0 O13 2.244 . S
O1 Co0 2.216 . S
O1 C8 1.247 . S
O2 Co0 2.091 . S
O2 C8 1.261 . S
C3 O12 1.247 . S
C3 O13 1.272 . S
O4 Co0 2.004 . S
O4 C9 1.259 . S
Co5 O6 2.061 . S
Co5 O11 2.052 . S
Co5 O13 2.135 . S
O6 Co5 2.061 . S
O6 C9 1.235 . S
C7 O10 1.238 . S
C7 O11 1.241 . S
C8 O1 1.247 . S
C8 O2 1.261 . S
C9 O4 1.259 . S
C9 O6 1.235 . S
O10 Co0 2.021 . S
O10 C7 1.238 . S
O11 Co5 2.052 . S
O11 C7 1.241 . S
O12 Co0 2.137 . S
O12 C3 1.247 . S
O13 Co0 2.244 . S
O13 C3 1.272 . S
O13 Co5 2.135 . S
Co14 O15 2.216 . S
Co14 O16 2.091 . S
Co14 O18 2.004 . S
Co14 O24 2.021 . S
Co14 O26 2.137 . S
Co14 O27 2.244 . S
O15 Co14 2.216 . S
O15 C22 1.247 . S
O16 Co14 2.091 . S
O16 C22 1.261 . S
C17 O26 1.247 . S
C17 O27 1.272 . S
O18 Co14 2.004 . S
O18 C23 1.259 . S
Co19 O20 2.061 . S
Co19 O25 2.052 . S
Co19 O27 2.135 . S
O20 Co19 2.061 . S
O20 C23 1.235 . S
C21 O24 1.238 . S
C21 O25 1.241 . S
C22 O15 1.247 . S
C22 O16 1.261 . S
C23 O18 1.259 . S
C23 O20 1.235 . S
O24 Co14 2.021 . S
O24 C21 1.238 . S
O25 Co19 2.052 . S
O25 C21 1.241 . S
O26 Co14 2.137 . S
O26 C17 1.247 . S
O27 Co14 2.244 . S
O27 C17 1.272 . S
O27 Co19 2.135 . S
Co28 O29 2.216 . S
Co28 O30 2.091 . S
Co28 O32 2.004 . S
Co28 O38 2.021 . S
Co28 O40 2.137 . S
Co28 O41 2.244 . S
O29 Co28 2.216 . S
O29 C36 1.247 . S
O30 Co28 2.091 . S
O30 C36 1.261 . S
C31 O40 1.247 . S
C31 O41 1.272 . S
O32 Co28 2.004 . S
O32 C37 1.259 . S
Co33 O34 2.061 . S
Co33 O39 2.052 . S
Co33 O41 2.135 . S
O34 Co33 2.061 . S
O34 C37 1.235 . S
C35 O38 1.238 . S
C35 O39 1.241 . S
C36 O29 1.247 . S
C36 O30 1.261 . S
C37 O32 1.259 . S
C37 O34 1.235 . S
O38 Co28 2.021 . S
O38 C35 1.238 . S
O39 Co33 2.052 . S
O39 C35 1.241 . S
O40 Co28 2.137 . S
O40 C31 1.247 . S
O41 Co28 2.244 . S
O41 C31 1.272 . S
O41 Co33 2.135 . S
Co42 O43 2.216 . S
Co42 O44 2.091 . S
Co42 O46 2.004 . S
Co42 O52 2.021 . S
Co42 O54 2.137 . S
Co42 O55 2.244 . S
O43 Co42 2.216 . S
O43 C50 1.247 . S
O44 Co42 2.091 . S
O44 C50 1.261 . S
C45 O54 1.247 . S
C45 O55 1.272 . S
O46 Co42 2.004 . S
O46 C51 1.259 . S
Co47 O48 2.061 . S
Co47 O53 2.052 . S
Co47 O55 2.135 . S
O48 Co47 2.061 . S
O48 C51 1.235 . S
C49 O52 1.238 . S
C49 O53 1.241 . S
C50 O43 1.247 . S
C50 O44 1.261 . S
C51 O46 1.259 . S
C51 O48 1.235 . S
O52 Co42 2.021 . S
O52 C49 1.238 . S
O53 Co47 2.052 . S
O53 C49 1.241 . S
O54 Co42 2.137 . S
O54 C45 1.247 . S
O55 Co42 2.244 . S
O55 C45 1.272 . S
O55 Co47 2.135 . S
Co56 O57 2.216 . S
Co56 O58 2.091 . S
Co56 O60 2.004 . S
Co56 O66 2.021 . S
Co56 O68 2.137 . S
Co56 O69 2.244 . S
O57 Co56 2.216 . S
O57 C64 1.247 . S
O58 Co56 2.091 . S
O58 C64 1.261 . S
C59 O68 1.247 . S
C59 O69 1.272 . S
O60 Co56 2.004 . S
O60 C65 1.259 . S
Co61 O62 2.061 . S
Co61 O67 2.052 . S
Co61 O69 2.135 . S
O62 Co61 2.061 . S
O62 C65 1.235 . S
C63 O66 1.238 . S
C63 O67 1.241 . S
C64 O57 1.247 . S
C64 O58 1.261 . S
C65 O60 1.259 . S
C65 O62 1.235 . S
O66 Co56 2.021 . S
O66 C63 1.238 . S
O67 Co61 2.052 . S
O67 C63 1.241 . S
O68 Co56 2.137 . S
O68 C59 1.247 . S
O69 Co56 2.244 . S
O69 C59 1.272 . S
O69 Co61 2.135 . S
Co70 O71 2.216 . S
Co70 O72 2.091 . S
Co70 O74 2.004 . S
Co70 O80 2.021 . S
Co70 O82 2.137 . S
Co70 O83 2.244 . S
O71 Co70 2.216 . S
O71 C78 1.247 . S
O72 Co70 2.091 . S
O72 C78 1.261 . S
C73 O82 1.247 . S
C73 O83 1.272 . S
O74 Co70 2.004 . S
O74 C79 1.259 . S
Co75 O76 2.061 . S
Co75 O81 2.052 . S
Co75 O83 2.135 . S
O76 Co75 2.061 . S
O76 C79 1.235 . S
C77 O80 1.238 . S
C77 O81 1.241 . S
C78 O71 1.247 . S
C78 O72 1.261 . S
C79 O74 1.259 . S
C79 O76 1.235 . S
O80 Co70 2.021 . S
O80 C77 1.238 . S
O81 Co75 2.052 . S
O81 C77 1.241 . S
O82 Co70 2.137 . S
O82 C73 1.247 . S
O83 Co70 2.244 . S
O83 C73 1.272 . S
O83 Co75 2.135 . S
Co84 O85 2.216 . S
Co84 O86 2.091 . S
Co84 O88 2.004 . S
Co84 O94 2.021 . S
Co84 O96 2.137 . S
Co84 O97 2.244 . S
O85 Co84 2.216 . S
O85 C92 1.247 . S
O86 Co84 2.091 . S
O86 C92 1.261 . S
C87 O96 1.247 . S
C87 O97 1.272 . S
O88 Co84 2.004 . S
O88 C93 1.259 . S
Co89 O90 2.061 . S
Co89 O95 2.052 . S
Co89 O97 2.135 . S
O90 Co89 2.061 . S
O90 C93 1.235 . S
C91 O94 1.238 . S
C91 O95 1.241 . S
C92 O85 1.247 . S
C92 O86 1.261 . S
C93 O88 1.259 . S
C93 O90 1.235 . S
O94 Co84 2.021 . S
O94 C91 1.238 . S
O95 Co89 2.052 . S
O95 C91 1.241 . S
O96 Co84 2.137 . S
O96 C87 1.247 . S
O97 Co84 2.244 . S
O97 C87 1.272 . S
O97 Co89 2.135 . S
Co98 O99 2.216 . S
Co98 O100 2.091 . S
Co98 O102 2.004 . S
Co98 O108 2.021 . S
Co98 O110 2.137 . S
Co98 O111 2.244 . S
O99 Co98 2.216 . S
O99 C106 1.247 . S
O100 Co98 2.091 . S
O100 C106 1.261 . S
C101 O110 1.247 . S
C101 O111 1.272 . S
O102 Co98 2.004 . S
O102 C107 1.259 . S
Co103 O104 2.061 . S
Co103 O109 2.052 . S
Co103 O111 2.135 . S
O104 Co103 2.061 . S
O104 C107 1.235 . S
C105 O108 1.238 . S
C105 O109 1.241 . S
C106 O99 1.247 . S
C106 O100 1.261 . S
C107 O102 1.259 . S
C107 O104 1.235 . S
O108 Co98 2.021 . S
O108 C105 1.238 . S
O109 Co103 2.052 . S
O109 C105 1.241 . S
O110 Co98 2.137 . S
O110 C101 1.247 . S
O111 Co98 2.244 . S
O111 C101 1.272 . S
O111 Co103 2.135 . S
Co112 O113 2.216 . S
Co112 O114 2.091 . S
Co112 O116 2.004 . S
Co112 O122 2.021 . S
Co112 O124 2.137 . S
Co112 O125 2.244 . S
O113 Co112 2.216 . S
O113 C120 1.247 . S
O114 Co112 2.091 . S
O114 C120 1.261 . S
C115 O124 1.247 . S
C115 O125 1.272 . S
O116 Co112 2.004 . S
O116 C121 1.259 . S
Co117 O118 2.061 . S
Co117 O123 2.052 . S
Co117 O125 2.135 . S
O118 Co117 2.061 . S
O118 C121 1.235 . S
C119 O122 1.238 . S
C119 O123 1.241 . S
C120 O113 1.247 . S
C120 O114 1.261 . S
C121 O116 1.259 . S
C121 O118 1.235 . S
O122 Co112 2.021 . S
O122 C119 1.238 . S
O123 Co117 2.052 . S
O123 C119 1.241 . S
O124 Co112 2.137 . S
O124 C115 1.247 . S
O125 Co112 2.244 . S
O125 C115 1.272 . S
O125 Co117 2.135 . S
Co126 O127 2.216 . S
Co126 O128 2.091 . S
Co126 O130 2.004 . S
Co126 O136 2.021 . S
Co126 O138 2.137 . S
Co126 O139 2.244 . S
O127 Co126 2.216 . S
O127 C134 1.247 . S
O128 Co126 2.091 . S
O128 C134 1.261 . S
C129 O138 1.247 . S
C129 O139 1.272 . S
O130 Co126 2.004 . S
O130 C135 1.259 . S
Co131 O132 2.061 . S
Co131 O137 2.052 . S
Co131 O139 2.135 . S
O132 Co131 2.061 . S
O132 C135 1.235 . S
C133 O136 1.238 . S
C133 O137 1.241 . S
C134 O127 1.247 . S
C134 O128 1.261 . S
C135 O130 1.259 . S
C135 O132 1.235 . S
O136 Co126 2.021 . S
O136 C133 1.238 . S
O137 Co131 2.052 . S
O137 C133 1.241 . S
O138 Co126 2.137 . S
O138 C129 1.247 . S
O139 Co126 2.244 . S
O139 C129 1.272 . S
O139 Co131 2.135 . S
Co140 O141 2.216 . S
Co140 O142 2.091 . S
Co140 O144 2.004 . S
Co140 O150 2.021 . S
Co140 O152 2.137 . S
Co140 O153 2.244 . S
O141 Co140 2.216 . S
O141 C148 1.247 . S
O142 Co140 2.091 . S
O142 C148 1.261 . S
C143 O152 1.247 . S
C143 O153 1.272 . S
O144 Co140 2.004 . S
O144 C149 1.259 . S
Co145 O146 2.061 . S
Co145 O151 2.052 . S
Co145 O153 2.135 . S
O146 Co145 2.061 . S
O146 C149 1.235 . S
C147 O150 1.238 . S
C147 O151 1.241 . S
C148 O141 1.247 . S
C148 O142 1.261 . S
C149 O144 1.259 . S
C149 O146 1.235 . S
O150 Co140 2.021 . S
O150 C147 1.238 . S
O151 Co145 2.052 . S
O151 C147 1.241 . S
O152 Co140 2.137 . S
O152 C143 1.247 . S
O153 Co140 2.244 . S
O153 C143 1.272 . S
O153 Co145 2.135 . S
Co154 O155 2.216 . S
Co154 O156 2.091 . S
Co154 O158 2.004 . S
Co154 O164 2.021 . S
Co154 O166 2.137 . S
Co154 O167 2.244 . S
O155 Co154 2.216 . S
O155 C162 1.247 . S
O156 Co154 2.091 . S
O156 C162 1.261 . S
C157 O166 1.247 . S
C157 O167 1.272 . S
O158 Co154 2.004 . S
O158 C163 1.259 . S
Co159 O160 2.061 . S
Co159 O165 2.052 . S
Co159 O167 2.135 . S
O160 Co159 2.061 . S
O160 C163 1.235 . S
C161 O164 1.238 . S
C161 O165 1.241 . S
C162 O155 1.247 . S
C162 O156 1.261 . S
C163 O158 1.259 . S
C163 O160 1.235 . S
O164 Co154 2.021 . S
O164 C161 1.238 . S
O165 Co159 2.052 . S
O165 C161 1.241 . S
O166 Co154 2.137 . S
O166 C157 1.247 . S
O167 Co154 2.244 . S
O167 C157 1.272 . S
O167 Co159 2.135 . S
Co168 O169 2.216 . S
Co168 O170 2.091 . S
Co168 O172 2.004 . S
Co168 O178 2.021 . S
Co168 O180 2.137 . S
Co168 O181 2.244 . S
O169 Co168 2.216 . S
O169 C176 1.247 . S
O170 Co168 2.091 . S
O170 C176 1.261 . S
C171 O180 1.247 . S
C171 O181 1.272 . S
O172 Co168 2.004 . S
O172 C177 1.259 . S
Co173 O174 2.061 . S
Co173 O179 2.052 . S
Co173 O181 2.135 . S
O174 Co173 2.061 . S
O174 C177 1.235 . S
C175 O178 1.238 . S
C175 O179 1.241 . S
C176 O169 1.247 . S
C176 O170 1.261 . S
C177 O172 1.259 . S
C177 O174 1.235 . S
O178 Co168 2.021 . S
O178 C175 1.238 . S
O179 Co173 2.052 . S
O179 C175 1.241 . S
O180 Co168 2.137 . S
O180 C171 1.247 . S
O181 Co168 2.244 . S
O181 C171 1.272 . S
O181 Co173 2.135 . S
Co182 O183 2.216 . S
Co182 O184 2.091 . S
Co182 O186 2.004 . S
Co182 O192 2.021 . S
Co182 O194 2.137 . S
Co182 O195 2.244 . S
O183 Co182 2.216 . S
O183 C190 1.247 . S
O184 Co182 2.091 . S
O184 C190 1.261 . S
C185 O194 1.247 . S
C185 O195 1.272 . S
O186 Co182 2.004 . S
O186 C191 1.259 . S
Co187 O188 2.061 . S
Co187 O193 2.052 . S
Co187 O195 2.135 . S
O188 Co187 2.061 . S
O188 C191 1.235 . S
C189 O192 1.238 . S
C189 O193 1.241 . S
C190 O183 1.247 . S
C190 O184 1.261 . S
C191 O186 1.259 . S
C191 O188 1.235 . S
O192 Co182 2.021 . S
O192 C189 1.238 . S
O193 Co187 2.052 . S
O193 C189 1.241 . S
O194 Co182 2.137 . S
O194 C185 1.247 . S
O195 Co182 2.244 . S
O195 C185 1.272 . S
O195 Co187 2.135 . S
Co196 O197 2.216 . S
Co196 O198 2.091 . S
Co196 O200 2.004 . S
Co196 O206 2.021 . S
Co196 O208 2.137 . S
Co196 O209 2.244 . S
O197 Co196 2.216 . S
O197 C204 1.247 . S
O198 Co196 2.091 . S
O198 C204 1.261 . S
C199 O208 1.247 . S
C199 O209 1.272 . S
O200 Co196 2.004 . S
O200 C205 1.259 . S
Co201 O202 2.061 . S
Co201 O207 2.052 . S
Co201 O209 2.135 . S
O202 Co201 2.061 . S
O202 C205 1.235 . S
C203 O206 1.238 . S
C203 O207 1.241 . S
C204 O197 1.247 . S
C204 O198 1.261 . S
C205 O200 1.259 . S
C205 O202 1.235 . S
O206 Co196 2.021 . S
O206 C203 1.238 . S
O207 Co201 2.052 . S
O207 C203 1.241 . S
O208 Co196 2.137 . S
O208 C199 1.247 . S
O209 Co196 2.244 . S
O209 C199 1.272 . S
O209 Co201 2.135 . S
Co210 O211 2.216 . S
Co210 O212 2.091 . S
Co210 O214 2.004 . S
Co210 O220 2.021 . S
Co210 O222 2.137 . S
Co210 O223 2.244 . S
O211 Co210 2.216 . S
O211 C218 1.247 . S
O212 Co210 2.091 . S
O212 C218 1.261 . S
C213 O222 1.247 . S
C213 O223 1.272 . S
O214 Co210 2.004 . S
O214 C219 1.259 . S
Co215 O216 2.061 . S
Co215 O221 2.052 . S
Co215 O223 2.135 . S
O216 Co215 2.061 . S
O216 C219 1.235 . S
C217 O220 1.238 . S
C217 O221 1.241 . S
C218 O211 1.247 . S
C218 O212 1.261 . S
C219 O214 1.259 . S
C219 O216 1.235 . S
O220 Co210 2.021 . S
O220 C217 1.238 . S
O221 Co215 2.052 . S
O221 C217 1.241 . S
O222 Co210 2.137 . S
O222 C213 1.247 . S
O223 Co210 2.244 . S
O223 C213 1.272 . S
O223 Co215 2.135 . S
Co224 O225 2.216 . S
Co224 O226 2.091 . S
Co224 O228 2.004 . S
Co224 O234 2.021 . S
Co224 O236 2.137 . S
Co224 O237 2.244 . S
O225 Co224 2.216 . S
O225 C232 1.247 . S
O226 Co224 2.091 . S
O226 C232 1.261 . S
C227 O236 1.247 . S
C227 O237 1.272 . S
O228 Co224 2.004 . S
O228 C233 1.259 . S
Co229 O230 2.061 . S
Co229 O235 2.052 . S
Co229 O237 2.135 . S
O230 Co229 2.061 . S
O230 C233 1.235 . S
C231 O234 1.238 . S
C231 O235 1.241 . S
C232 O225 1.247 . S
C232 O226 1.261 . S
C233 O228 1.259 . S
C233 O230 1.235 . S
O234 Co224 2.021 . S
O234 C231 1.238 . S
O235 Co229 2.052 . S
O235 C231 1.241 . S
O236 Co224 2.137 . S
O236 C227 1.247 . S
O237 Co224 2.244 . S
O237 C227 1.272 . S
O237 Co229 2.135 . S
Co238 O239 2.216 . S
Co238 O240 2.091 . S
Co238 O242 2.004 . S
Co238 O248 2.021 . S
Co238 O250 2.137 . S
Co238 O251 2.244 . S
O239 Co238 2.216 . S
O239 C246 1.247 . S
O240 Co238 2.091 . S
O240 C246 1.261 . S
C241 O250 1.247 . S
C241 O251 1.272 . S
O242 Co238 2.004 . S
O242 C247 1.259 . S
Co243 O244 2.061 . S
Co243 O249 2.052 . S
Co243 O251 2.135 . S
O244 Co243 2.061 . S
O244 C247 1.235 . S
C245 O248 1.238 . S
C245 O249 1.241 . S
C246 O239 1.247 . S
C246 O240 1.261 . S
C247 O242 1.259 . S
C247 O244 1.235 . S
O248 Co238 2.021 . S
O248 C245 1.238 . S
O249 Co243 2.052 . S
O249 C245 1.241 . S
O250 Co238 2.137 . S
O250 C241 1.247 . S
O251 Co238 2.244 . S
O251 C241 1.272 . S
O251 Co243 2.135 . S
Co252 O253 2.216 . S
Co252 O254 2.091 . S
Co252 O256 2.004 . S
Co252 O262 2.021 . S
Co252 O264 2.137 . S
Co252 O265 2.244 . S
O253 Co252 2.216 . S
O253 C260 1.247 . S
O254 Co252 2.091 . S
O254 C260 1.261 . S
C255 O264 1.247 . S
C255 O265 1.272 . S
O256 Co252 2.004 . S
O256 C261 1.259 . S
Co257 O258 2.061 . S
Co257 O263 2.052 . S
Co257 O265 2.135 . S
O258 Co257 2.061 . S
O258 C261 1.235 . S
C259 O262 1.238 . S
C259 O263 1.241 . S
C260 O253 1.247 . S
C260 O254 1.261 . S
C261 O256 1.259 . S
C261 O258 1.235 . S
O262 Co252 2.021 . S
O262 C259 1.238 . S
O263 Co257 2.052 . S
O263 C259 1.241 . S
O264 Co252 2.137 . S
O264 C255 1.247 . S
O265 Co252 2.244 . S
O265 C255 1.272 . S
O265 Co257 2.135 . S
Co266 O267 2.216 . S
Co266 O268 2.091 . S
Co266 O270 2.004 . S
Co266 O276 2.021 . S
Co266 O278 2.137 . S
Co266 O279 2.244 . S
O267 Co266 2.216 . S
O267 C274 1.247 . S
O268 Co266 2.091 . S
O268 C274 1.261 . S
C269 O278 1.247 . S
C269 O279 1.272 . S
O270 Co266 2.004 . S
O270 C275 1.259 . S
Co271 O272 2.061 . S
Co271 O277 2.052 . S
Co271 O279 2.135 . S
O272 Co271 2.061 . S
O272 C275 1.235 . S
C273 O276 1.238 . S
C273 O277 1.241 . S
C274 O267 1.247 . S
C274 O268 1.261 . S
C275 O270 1.259 . S
C275 O272 1.235 . S
O276 Co266 2.021 . S
O276 C273 1.238 . S
O277 Co271 2.052 . S
O277 C273 1.241 . S
O278 Co266 2.137 . S
O278 C269 1.247 . S
O279 Co266 2.244 . S
O279 C269 1.272 . S
O279 Co271 2.135 . S
Co280 O281 2.216 . S
Co280 O282 2.091 . S
Co280 O284 2.004 . S
Co280 O290 2.021 . S
Co280 O292 2.137 . S
Co280 O293 2.244 . S
O281 Co280 2.216 . S
O281 C288 1.247 . S
O282 Co280 2.091 . S
O282 C288 1.261 . S
C283 O292 1.247 . S
C283 O293 1.272 . S
O284 Co280 2.004 . S
O284 C289 1.259 . S
Co285 O286 2.061 . S
Co285 O291 2.052 . S
Co285 O293 2.135 . S
O286 Co285 2.061 . S
O286 C289 1.235 . S
C287 O290 1.238 . S
C287 O291 1.241 . S
C288 O281 1.247 . S
C288 O282 1.261 . S
C289 O284 1.259 . S
C289 O286 1.235 . S
O290 Co280 2.021 . S
O290 C287 1.238 . S
O291 Co285 2.052 . S
O291 C287 1.241 . S
O292 Co280 2.137 . S
O292 C283 1.247 . S
O293 Co280 2.244 . S
O293 C283 1.272 . S
O293 Co285 2.135 . S
Co294 O295 2.216 . S
Co294 O296 2.091 . S
Co294 O298 2.004 . S
Co294 O304 2.021 . S
Co294 O306 2.137 . S
Co294 O307 2.244 . S
O295 Co294 2.216 . S
O295 C302 1.247 . S
O296 Co294 2.091 . S
O296 C302 1.261 . S
C297 O306 1.247 . S
C297 O307 1.272 . S
O298 Co294 2.004 . S
O298 C303 1.259 . S
Co299 O300 2.061 . S
Co299 O305 2.052 . S
Co299 O307 2.135 . S
O300 Co299 2.061 . S
O300 C303 1.235 . S
C301 O304 1.238 . S
C301 O305 1.241 . S
C302 O295 1.247 . S
C302 O296 1.261 . S
C303 O298 1.259 . S
C303 O300 1.235 . S
O304 Co294 2.021 . S
O304 C301 1.238 . S
O305 Co299 2.052 . S
O305 C301 1.241 . S
O306 Co294 2.137 . S
O306 C297 1.247 . S
O307 Co294 2.244 . S
O307 C297 1.272 . S
O307 Co299 2.135 . S
Co308 O309 2.216 . S
Co308 O310 2.091 . S
Co308 O312 2.004 . S
Co308 O318 2.021 . S
Co308 O320 2.137 . S
Co308 O321 2.244 . S
O309 Co308 2.216 . S
O309 C316 1.247 . S
O310 Co308 2.091 . S
O310 C316 1.261 . S
C311 O320 1.247 . S
C311 O321 1.272 . S
O312 Co308 2.004 . S
O312 C317 1.259 . S
Co313 O314 2.061 . S
Co313 O319 2.052 . S
Co313 O321 2.135 . S
O314 Co313 2.061 . S
O314 C317 1.235 . S
C315 O318 1.238 . S
C315 O319 1.241 . S
C316 O309 1.247 . S
C316 O310 1.261 . S
C317 O312 1.259 . S
C317 O314 1.235 . S
O318 Co308 2.021 . S
O318 C315 1.238 . S
O319 Co313 2.052 . S
O319 C315 1.241 . S
O320 Co308 2.137 . S
O320 C311 1.247 . S
O321 Co308 2.244 . S
O321 C311 1.272 . S
O321 Co313 2.135 . S
Co322 O323 2.216 . S
Co322 O324 2.091 . S
Co322 O326 2.004 . S
Co322 O332 2.021 . S
Co322 O334 2.137 . S
Co322 O335 2.244 . S
O323 Co322 2.216 . S
O323 C330 1.247 . S
O324 Co322 2.091 . S
O324 C330 1.261 . S
C325 O334 1.247 . S
C325 O335 1.272 . S
O326 Co322 2.004 . S
O326 C331 1.259 . S
Co327 O328 2.061 . S
Co327 O333 2.052 . S
Co327 O335 2.135 . S
O328 Co327 2.061 . S
O328 C331 1.235 . S
C329 O332 1.238 . S
C329 O333 1.241 . S
C330 O323 1.247 . S
C330 O324 1.261 . S
C331 O326 1.259 . S
C331 O328 1.235 . S
O332 Co322 2.021 . S
O332 C329 1.238 . S
O333 Co327 2.052 . S
O333 C329 1.241 . S
O334 Co322 2.137 . S
O334 C325 1.247 . S
O335 Co322 2.244 . S
O335 C325 1.272 . S
O335 Co327 2.135 . S
Co336 O337 2.216 . S
Co336 O338 2.091 . S
Co336 O340 2.004 . S
Co336 O346 2.021 . S
Co336 O348 2.137 . S
Co336 O349 2.244 . S
O337 Co336 2.216 . S
O337 C344 1.247 . S
O338 Co336 2.091 . S
O338 C344 1.261 . S
C339 O348 1.247 . S
C339 O349 1.272 . S
O340 Co336 2.004 . S
O340 C345 1.259 . S
Co341 O342 2.061 . S
Co341 O347 2.052 . S
Co341 O349 2.135 . S
O342 Co341 2.061 . S
O342 C345 1.235 . S
C343 O346 1.238 . S
C343 O347 1.241 . S
C344 O337 1.247 . S
C344 O338 1.261 . S
C345 O340 1.259 . S
C345 O342 1.235 . S
O346 Co336 2.021 . S
O346 C343 1.238 . S
O347 Co341 2.052 . S
O347 C343 1.241 . S
O348 Co336 2.137 . S
O348 C339 1.247 . S
O349 Co336 2.244 . S
O349 C339 1.272 . S
O349 Co341 2.135 . S
Co350 O351 2.216 . S
Co350 O352 2.091 . S
Co350 O354 2.004 . S
Co350 O360 2.021 . S
Co350 O362 2.137 . S
Co350 O363 2.244 . S
O351 Co350 2.216 . S
O351 C358 1.247 . S
O352 Co350 2.091 . S
O352 C358 1.261 . S
C353 O362 1.247 . S
C353 O363 1.272 . S
O354 Co350 2.004 . S
O354 C359 1.259 . S
Co355 O356 2.061 . S
Co355 O361 2.052 . S
Co355 O363 2.135 . S
O356 Co355 2.061 . S
O356 C359 1.235 . S
C357 O360 1.238 . S
C357 O361 1.241 . S
C358 O351 1.247 . S
C358 O352 1.261 . S
C359 O354 1.259 . S
C359 O356 1.235 . S
O360 Co350 2.021 . S
O360 C357 1.238 . S
O361 Co355 2.052 . S
O361 C357 1.241 . S
O362 Co350 2.137 . S
O362 C353 1.247 . S
O363 Co350 2.244 . S
O363 C353 1.272 . S
O363 Co355 2.135 . S
Co364 O365 2.216 . S
Co364 O366 2.091 . S
Co364 O368 2.004 . S
Co364 O374 2.021 . S
Co364 O376 2.137 . S
Co364 O377 2.244 . S
O365 Co364 2.216 . S
O365 C372 1.247 . S
O366 Co364 2.091 . S
O366 C372 1.261 . S
C367 O376 1.247 . S
C367 O377 1.272 . S
O368 Co364 2.004 . S
O368 C373 1.259 . S
Co369 O370 2.061 . S
Co369 O375 2.052 . S
Co369 O377 2.135 . S
O370 Co369 2.061 . S
O370 C373 1.235 . S
C371 O374 1.238 . S
C371 O375 1.241 . S
C372 O365 1.247 . S
C372 O366 1.261 . S
C373 O368 1.259 . S
C373 O370 1.235 . S
O374 Co364 2.021 . S
O374 C371 1.238 . S
O375 Co369 2.052 . S
O375 C371 1.241 . S
O376 Co364 2.137 . S
O376 C367 1.247 . S
O377 Co364 2.244 . S
O377 C367 1.272 . S
O377 Co369 2.135 . S
Co378 O379 2.216 . S
Co378 O380 2.091 . S
Co378 O382 2.004 . S
Co378 O388 2.021 . S
Co378 O390 2.137 . S
Co378 O391 2.244 . S
O379 Co378 2.216 . S
O379 C386 1.247 . S
O380 Co378 2.091 . S
O380 C386 1.261 . S
C381 O390 1.247 . S
C381 O391 1.272 . S
O382 Co378 2.004 . S
O382 C387 1.259 . S
Co383 O384 2.061 . S
Co383 O389 2.052 . S
Co383 O391 2.135 . S
O384 Co383 2.061 . S
O384 C387 1.235 . S
C385 O388 1.238 . S
C385 O389 1.241 . S
C386 O379 1.247 . S
C386 O380 1.261 . S
C387 O382 1.259 . S
C387 O384 1.235 . S
O388 Co378 2.021 . S
O388 C385 1.238 . S
O389 Co383 2.052 . S
O389 C385 1.241 . S
O390 Co378 2.137 . S
O390 C381 1.247 . S
O391 Co378 2.244 . S
O391 C381 1.272 . S
O391 Co383 2.135 . S
Co392 O393 2.216 . S
Co392 O394 2.091 . S
Co392 O396 2.004 . S
Co392 O402 2.021 . S
Co392 O404 2.137 . S
Co392 O405 2.244 . S
O393 Co392 2.216 . S
O393 C400 1.247 . S
O394 Co392 2.091 . S
O394 C400 1.261 . S
C395 O404 1.247 . S
C395 O405 1.272 . S
O396 Co392 2.004 . S
O396 C401 1.259 . S
Co397 O398 2.061 . S
Co397 O403 2.052 . S
Co397 O405 2.135 . S
O398 Co397 2.061 . S
O398 C401 1.235 . S
C399 O402 1.238 . S
C399 O403 1.241 . S
C400 O393 1.247 . S
C400 O394 1.261 . S
C401 O396 1.259 . S
C401 O398 1.235 . S
O402 Co392 2.021 . S
O402 C399 1.238 . S
O403 Co397 2.052 . S
O403 C399 1.241 . S
O404 Co392 2.137 . S
O404 C395 1.247 . S
O405 Co392 2.244 . S
O405 C395 1.272 . S
O405 Co397 2.135 . S
Co406 O407 2.216 . S
Co406 O408 2.091 . S
Co406 O410 2.004 . S
Co406 O416 2.021 . S
Co406 O418 2.137 . S
Co406 O419 2.244 . S
O407 Co406 2.216 . S
O407 C414 1.247 . S
O408 Co406 2.091 . S
O408 C414 1.261 . S
C409 O418 1.247 . S
C409 O419 1.272 . S
O410 Co406 2.004 . S
O410 C415 1.259 . S
Co411 O412 2.061 . S
Co411 O417 2.052 . S
Co411 O419 2.135 . S
O412 Co411 2.061 . S
O412 C415 1.235 . S
C413 O416 1.238 . S
C413 O417 1.241 . S
C414 O407 1.247 . S
C414 O408 1.261 . S
C415 O410 1.259 . S
C415 O412 1.235 . S
O416 Co406 2.021 . S
O416 C413 1.238 . S
O417 Co411 2.052 . S
O417 C413 1.241 . S
O418 Co406 2.137 . S
O418 C409 1.247 . S
O419 Co406 2.244 . S
O419 C409 1.272 . S
O419 Co411 2.135 . S
Co420 O421 2.216 . S
Co420 O422 2.091 . S
Co420 O424 2.004 . S
Co420 O430 2.021 . S
Co420 O432 2.137 . S
Co420 O433 2.244 . S
O421 Co420 2.216 . S
O421 C428 1.247 . S
O422 Co420 2.091 . S
O422 C428 1.261 . S
C423 O432 1.247 . S
C423 O433 1.272 . S
O424 Co420 2.004 . S
O424 C429 1.259 . S
Co425 O426 2.061 . S
Co425 O431 2.052 . S
Co425 O433 2.135 . S
O426 Co425 2.061 . S
O426 C429 1.235 . S
C427 O430 1.238 . S
C427 O431 1.241 . S
C428 O421 1.247 . S
C428 O422 1.261 . S
C429 O424 1.259 . S
C429 O426 1.235 . S
O430 Co420 2.021 . S
O430 C427 1.238 . S
O431 Co425 2.052 . S
O431 C427 1.241 . S
O432 Co420 2.137 . S
O432 C423 1.247 . S
O433 Co420 2.244 . S
O433 C423 1.272 . S
O433 Co425 2.135 . S
Co434 O435 2.216 . S
Co434 O436 2.091 . S
Co434 O438 2.004 . S
Co434 O444 2.021 . S
Co434 O446 2.137 . S
Co434 O447 2.244 . S
O435 Co434 2.216 . S
O435 C442 1.247 . S
O436 Co434 2.091 . S
O436 C442 1.261 . S
C437 O446 1.247 . S
C437 O447 1.272 . S
O438 Co434 2.004 . S
O438 C443 1.259 . S
Co439 O440 2.061 . S
Co439 O445 2.052 . S
Co439 O447 2.135 . S
O440 Co439 2.061 . S
O440 C443 1.235 . S
C441 O444 1.238 . S
C441 O445 1.241 . S
C442 O435 1.247 . S
C442 O436 1.261 . S
C443 O438 1.259 . S
C443 O440 1.235 . S
O444 Co434 2.021 . S
O444 C441 1.238 . S
O445 Co439 2.052 . S
O445 C441 1.241 . S
O446 Co434 2.137 . S
O446 C437 1.247 . S
O447 Co434 2.244 . S
O447 C437 1.272 . S
O447 Co439 2.135 . S
H448 C456 0.950 1_545 S
H449 C461 0.950 . S
H450 C458 0.950 . S
H451 C460 0.950 . S
H452 C462 0.950 1_565 S
H453 C464 0.950 . S
H454 C466 0.950 . S
H455 C467 0.950 . S
C456 H448 0.950 1_565 S
C456 C457 1.385 . S
C456 C458 1.391 1_565 S
C457 C456 1.385 . S
C457 C461 1.393 . S
C458 H450 0.950 . S
C458 C456 1.391 1_545 S
C458 C459 1.400 1_545 S
C459 C458 1.400 1_565 S
C459 C460 1.398 . S
C459 C465 1.491 1_565 S
C460 H451 0.950 . S
C460 C459 1.398 . S
C460 C461 1.391 . S
C461 H449 0.950 . S
C461 C457 1.393 . S
C461 C460 1.391 . S
C462 H452 0.950 1_545 S
C462 C463 1.385 . S
C462 C464 1.391 1_545 S
C463 C462 1.385 . S
C463 C467 1.393 . S
C464 H453 0.950 . S
C464 C462 1.391 1_565 S
C464 C465 1.400 1_565 S
C465 C459 1.491 1_545 S
C465 C464 1.400 1_545 S
C465 C466 1.398 . S
C466 H454 0.950 . S
C466 C465 1.398 . S
C466 C467 1.391 . S
C467 H455 0.950 . S
C467 C463 1.393 . S
C467 C466 1.391 . S
H468 C476 0.950 . S
H469 C481 0.950 . S
H470 C478 0.950 . S
H471 C480 0.950 . S
H472 C482 0.950 . S
H473 C484 0.950 . S
H474 C486 0.950 . S
H475 C487 0.950 . S
C476 H468 0.950 . S
C476 C477 1.386 . S
C476 C478 1.391 . S
C477 C476 1.386 . S
C477 C481 1.393 . S
C478 H470 0.950 . S
C478 C476 1.391 . S
C478 C479 1.400 . S
C479 C478 1.400 . S
C479 C480 1.398 . S
C479 C485 1.491 . S
C480 H471 0.950 . S
C480 C479 1.398 . S
C480 C481 1.391 . S
C481 H469 0.950 . S
C481 C477 1.393 . S
C481 C480 1.391 . S
C482 H472 0.950 . S
C482 C483 1.386 . S
C482 C484 1.391 . S
C483 C482 1.386 . S
C483 C487 1.393 . S
C484 H473 0.950 . S
C484 C482 1.391 . S
C484 C485 1.400 . S
C485 C479 1.491 . S
C485 C484 1.400 . S
C485 C486 1.398 . S
C486 H474 0.950 . S
C486 C485 1.398 . S
C486 C487 1.391 . S
C487 H475 0.950 . S
C487 C483 1.393 . S
C487 C486 1.391 . S
H488 C496 0.950 . S
H489 C501 0.950 . S
H490 C498 0.950 . S
H491 C500 0.950 . S
H492 C502 0.950 . S
H493 C504 0.950 . S
H494 C506 0.950 . S
H495 C507 0.950 . S
C496 H488 0.950 . S
C496 C497 1.386 . S
C496 C498 1.391 . S
C497 C496 1.386 . S
C497 C501 1.393 . S
C498 H490 0.950 . S
C498 C496 1.391 . S
C498 C499 1.400 . S
C499 C498 1.400 . S
C499 C500 1.398 . S
C499 C505 1.491 1_545 S
C500 H491 0.950 . S
C500 C499 1.398 . S
C500 C501 1.391 . S
C501 H489 0.950 . S
C501 C497 1.393 . S
C501 C500 1.391 . S
C502 H492 0.950 . S
C502 C503 1.386 . S
C502 C504 1.391 . S
C503 C502 1.386 . S
C503 C507 1.393 . S
C504 H493 0.950 . S
C504 C502 1.391 . S
C504 C505 1.400 . S
C505 C499 1.491 1_565 S
C505 C504 1.400 . S
C505 C506 1.398 . S
C506 H494 0.950 . S
C506 C505 1.398 . S
C506 C507 1.391 . S
C507 H495 0.950 . S
C507 C503 1.393 . S
C507 C506 1.391 . S
H508 C516 0.950 . S
H509 C521 0.950 . S
H510 C518 0.950 . S
H511 C520 0.950 . S
H512 C522 0.950 . S
H513 C524 0.950 . S
H514 C526 0.950 . S
H515 C527 0.950 . S
C516 H508 0.950 . S
C516 C517 1.386 . S
C516 C518 1.391 . S
C517 C516 1.386 . S
C517 C521 1.393 . S
C518 H510 0.950 . S
C518 C516 1.391 . S
C518 C519 1.400 . S
C519 C518 1.400 . S
C519 C520 1.398 . S
C519 C525 1.491 1_556 S
C520 H511 0.950 . S
C520 C519 1.398 . S
C520 C521 1.391 . S
C521 H509 0.950 . S
C521 C517 1.393 . S
C521 C520 1.391 . S
C522 H512 0.950 . S
C522 C523 1.386 . S
C522 C524 1.391 . S
C523 C522 1.386 . S
C523 C527 1.393 . S
C524 H513 0.950 . S
C524 C522 1.391 . S
C524 C525 1.400 . S
C525 C519 1.491 1_554 S
C525 C524 1.400 . S
C525 C526 1.398 . S
C526 H514 0.950 . S
C526 C525 1.398 . S
C526 C527 1.391 . S
C527 H515 0.950 . S
C527 C523 1.393 . S
C527 C526 1.391 . S
H528 C536 0.950 . S
H529 C541 0.950 . S
H530 C538 0.950 . S
H531 C540 0.950 1_545 S
H532 C542 0.950 . S
H533 C544 0.950 . S
H534 C546 0.950 1_565 S
H535 C547 0.950 . S
C536 H528 0.950 . S
C536 C537 1.386 . S
C536 C538 1.391 . S
C537 C536 1.386 . S
C537 C541 1.393 . S
C538 H530 0.950 . S
C538 C536 1.391 . S
C538 C539 1.400 . S
C539 C538 1.400 . S
C539 C540 1.398 . S
C539 C545 1.491 1_565 S
C540 H531 0.950 1_565 S
C540 C539 1.398 . S
C540 C541 1.391 . S
C541 H529 0.950 . S
C541 C537 1.393 . S
C541 C540 1.391 . S
C542 H532 0.950 . S
C542 C543 1.386 . S
C542 C544 1.391 . S
C543 C542 1.386 . S
C543 C547 1.393 . S
C544 H533 0.950 . S
C544 C542 1.391 . S
C544 C545 1.400 . S
C545 C539 1.491 1_545 S
C545 C544 1.400 . S
C545 C546 1.398 . S
C546 H534 0.950 1_545 S
C546 C545 1.398 . S
C546 C547 1.391 . S
C547 H535 0.950 . S
C547 C543 1.393 . S
C547 C546 1.391 . S
H548 C556 0.950 . S
H549 C561 0.950 . S
H550 C558 0.950 . S
H551 C560 0.950 . S
H552 C562 0.950 . S
H553 C564 0.950 . S
H554 C566 0.950 . S
H555 C567 0.950 . S
C556 H548 0.950 . S
C556 C557 1.386 . S
C556 C558 1.391 . S
C557 C556 1.386 . S
C557 C561 1.393 . S
C558 H550 0.950 . S
C558 C556 1.391 . S
C558 C559 1.400 . S
C559 C558 1.400 . S
C559 C560 1.398 . S
C559 C565 1.491 . S
C560 H551 0.950 . S
C560 C559 1.398 . S
C560 C561 1.391 . S
C561 H549 0.950 . S
C561 C557 1.393 . S
C561 C560 1.391 . S
C562 H552 0.950 . S
C562 C563 1.386 . S
C562 C564 1.391 . S
C563 C562 1.386 . S
C563 C567 1.393 . S
C564 H553 0.950 . S
C564 C562 1.391 . S
C564 C565 1.400 . S
C565 C559 1.491 . S
C565 C564 1.400 . S
C565 C566 1.398 . S
C566 H554 0.950 . S
C566 C565 1.398 . S
C566 C567 1.391 . S
C567 H555 0.950 . S
C567 C563 1.393 . S
C567 C566 1.391 . S
H568 C576 0.950 . S
H569 C581 0.950 . S
H570 C578 0.950 . S
H571 C580 0.950 . S
H572 C582 0.950 . S
H573 C584 0.950 . S
H574 C586 0.950 . S
H575 C587 0.950 . S
C576 H568 0.950 . S
C576 C577 1.386 1_565 S
C576 C578 1.391 . S
C577 C576 1.386 1_545 S
C577 C581 1.393 . S
C578 H570 0.950 . S
C578 C576 1.391 . S
C578 C579 1.400 1_565 S
C579 C578 1.400 1_545 S
C579 C580 1.398 . S
C579 C585 1.491 1_545 S
C580 H571 0.950 . S
C580 C579 1.398 . S
C580 C581 1.391 . S
C581 H569 0.950 . S
C581 C577 1.393 . S
C581 C580 1.391 . S
C582 H572 0.950 . S
C582 C583 1.386 1_545 S
C582 C584 1.391 . S
C583 C582 1.386 1_565 S
C583 C587 1.393 . S
C584 H573 0.950 . S
C584 C582 1.391 . S
C584 C585 1.400 1_545 S
C585 C579 1.491 1_565 S
C585 C584 1.400 1_565 S
C585 C586 1.398 . S
C586 H574 0.950 . S
C586 C585 1.398 . S
C586 C587 1.391 . S
C587 H575 0.950 . S
C587 C583 1.393 . S
C587 C586 1.391 . S
H588 C596 0.950 . S
H589 C601 0.950 . S
H590 C598 0.950 . S
H591 C600 0.950 . S
H592 C602 0.950 . S
H593 C604 0.950 . S
H594 C606 0.950 . S
H595 C607 0.950 . S
C596 H588 0.950 . S
C596 C597 1.386 . S
C596 C598 1.391 . S
C597 C596 1.386 . S
C597 C601 1.393 . S
C598 H590 0.950 . S
C598 C596 1.391 . S
C598 C599 1.400 . S
C599 C598 1.400 . S
C599 C600 1.398 . S
C599 C605 1.491 1_556 S
C600 H591 0.950 . S
C600 C599 1.398 . S
C600 C601 1.391 . S
C601 H589 0.950 . S
C601 C597 1.393 . S
C601 C600 1.391 . S
C602 H592 0.950 . S
C602 C603 1.386 . S
C602 C604 1.391 . S
C603 C602 1.386 . S
C603 C607 1.393 . S
C604 H593 0.950 . S
C604 C602 1.391 . S
C604 C605 1.400 . S
C605 C599 1.491 1_554 S
C605 C604 1.400 . S
C605 C606 1.398 . S
C606 H594 0.950 . S
C606 C605 1.398 . S
C606 C607 1.391 . S
C607 H595 0.950 . S
C607 C603 1.393 . S
C607 C606 1.391 . S
H608 C616 0.950 . S
H609 C621 0.950 . S
H610 C618 0.950 . S
H611 C620 0.950 . S
H612 C622 0.950 . S
H613 C624 0.950 . S
H614 C626 0.950 . S
H615 C627 0.950 . S
C616 H608 0.950 . S
C616 C617 1.386 . S
C616 C618 1.391 . S
C617 C616 1.386 . S
C617 C621 1.393 . S
C618 H610 0.950 . S
C618 C616 1.391 . S
C618 C619 1.400 . S
C619 C618 1.400 . S
C619 C620 1.398 . S
C619 C625 1.491 . S
C620 H611 0.950 . S
C620 C619 1.398 . S
C620 C621 1.391 . S
C621 H609 0.950 . S
C621 C617 1.393 . S
C621 C620 1.391 . S
C622 H612 0.950 . S
C622 C623 1.386 . S
C622 C624 1.391 . S
C623 C622 1.386 . S
C623 C627 1.393 . S
C624 H613 0.950 . S
C624 C622 1.391 . S
C624 C625 1.400 . S
C625 C619 1.491 . S
C625 C624 1.400 . S
C625 C626 1.398 . S
C626 H614 0.950 . S
C626 C625 1.398 . S
C626 C627 1.391 . S
C627 H615 0.950 . S
C627 C623 1.393 . S
C627 C626 1.391 . S
H628 C636 0.950 . S
H629 C641 0.950 . S
H630 C638 0.950 . S
H631 C640 0.950 . S
H632 C642 0.950 . S
H633 C644 0.950 . S
H634 C646 0.950 . S
H635 C647 0.950 . S
C636 H628 0.950 . S
C636 C637 1.386 . S
C636 C638 1.391 . S
C637 C636 1.386 . S
C637 C641 1.393 . S
C638 H630 0.950 . S
C638 C636 1.391 . S
C638 C639 1.400 . S
C639 C638 1.400 . S
C639 C640 1.398 . S
C639 C645 1.491 1_554 S
C640 H631 0.950 . S
C640 C639 1.398 . S
C640 C641 1.391 . S
C641 H629 0.950 . S
C641 C637 1.393 . S
C641 C640 1.391 . S
C642 H632 0.950 . S
C642 C643 1.386 . S
C642 C644 1.391 . S
C643 C642 1.386 . S
C643 C647 1.393 . S
C644 H633 0.950 . S
C644 C642 1.391 . S
C644 C645 1.400 . S
C645 C639 1.491 1_556 S
C645 C644 1.400 . S
C645 C646 1.398 . S
C646 H634 0.950 . S
C646 C645 1.398 . S
C646 C647 1.391 . S
C647 H635 0.950 . S
C647 C643 1.393 . S
C647 C646 1.391 . S
H648 C656 0.950 . S
H649 C661 0.950 . S
H650 C658 0.950 . S
H651 C660 0.950 . S
H652 C662 0.950 . S
H653 C664 0.950 . S
H654 C666 0.950 . S
H655 C667 0.950 . S
C656 H648 0.950 . S
C656 C657 1.386 . S
C656 C658 1.391 . S
C657 C656 1.386 . S
C657 C661 1.393 . S
C658 H650 0.950 . S
C658 C656 1.391 . S
C658 C659 1.400 . S
C659 C658 1.400 . S
C659 C660 1.398 . S
C659 C665 1.491 . S
C660 H651 0.950 . S
C660 C659 1.398 . S
C660 C661 1.391 . S
C661 H649 0.950 . S
C661 C657 1.393 . S
C661 C660 1.391 . S
C662 H652 0.950 . S
C662 C663 1.386 . S
C662 C664 1.391 . S
C663 C662 1.386 . S
C663 C667 1.393 . S
C664 H653 0.950 . S
C664 C662 1.391 . S
C664 C665 1.400 . S
C665 C659 1.491 . S
C665 C664 1.400 . S
C665 C666 1.398 . S
C666 H654 0.950 . S
C666 C665 1.398 . S
C666 C667 1.391 . S
C667 H655 0.950 . S
C667 C663 1.393 . S
C667 C666 1.391 . S
H668 C676 0.950 . S
H669 C681 0.950 . S
H670 C678 0.950 . S
H671 C680 0.950 . S
H672 C682 0.950 . S
H673 C684 0.950 . S
H674 C686 0.950 . S
H675 C687 0.950 . S
C676 H668 0.950 . S
C676 C677 1.386 . S
C676 C678 1.391 . S
C677 C676 1.386 . S
C677 C681 1.393 . S
C678 H670 0.950 . S
C678 C676 1.391 . S
C678 C679 1.400 . S
C679 C678 1.400 . S
C679 C680 1.398 . S
C679 C685 1.491 . S
C680 H671 0.950 . S
C680 C679 1.398 . S
C680 C681 1.391 . S
C681 H669 0.950 . S
C681 C677 1.393 . S
C681 C680 1.391 . S
C682 H672 0.950 . S
C682 C683 1.386 . S
C682 C684 1.391 . S
C683 C682 1.386 . S
C683 C687 1.393 . S
C684 H673 0.950 . S
C684 C682 1.391 . S
C684 C685 1.400 . S
C685 C679 1.491 . S
C685 C684 1.400 . S
C685 C686 1.398 . S
C686 H674 0.950 . S
C686 C685 1.398 . S
C686 C687 1.391 . S
C687 H675 0.950 . S
C687 C683 1.393 . S
C687 C686 1.391 . S
H688 C696 0.950 . S
H689 C701 0.950 . S
H690 C698 0.950 . S
H691 C700 0.950 . S
H692 C702 0.950 . S
H693 C704 0.950 . S
H694 C706 0.950 . S
H695 C707 0.950 . S
C696 H688 0.950 . S
C696 C697 1.386 . S
C696 C698 1.391 . S
C697 C696 1.386 . S
C697 C701 1.393 . S
C698 H690 0.950 . S
C698 C696 1.391 . S
C698 C699 1.400 . S
C699 C698 1.400 . S
C699 C700 1.398 . S
C699 C705 1.491 . S
C700 H691 0.950 . S
C700 C699 1.398 . S
C700 C701 1.391 . S
C701 H689 0.950 . S
C701 C697 1.393 . S
C701 C700 1.391 . S
C702 H692 0.950 . S
C702 C703 1.386 . S
C702 C704 1.391 . S
C703 C702 1.386 . S
C703 C707 1.393 . S
C704 H693 0.950 . S
C704 C702 1.391 . S
C704 C705 1.400 . S
C705 C699 1.491 . S
C705 C704 1.400 . S
C705 C706 1.398 . S
C706 H694 0.950 . S
C706 C705 1.398 . S
C706 C707 1.391 . S
C707 H695 0.950 . S
C707 C703 1.393 . S
C707 C706 1.391 . S
H708 C716 0.950 . S
H709 C721 0.950 . S
H710 C718 0.950 . S
H711 C720 0.950 . S
H712 C722 0.950 . S
H713 C724 0.950 . S
H714 C726 0.950 . S
H715 C727 0.950 . S
C716 H708 0.950 . S
C716 C717 1.386 . S
C716 C718 1.391 . S
C717 C716 1.386 . S
C717 C721 1.393 . S
C718 H710 0.950 . S
C718 C716 1.391 . S
C718 C719 1.400 . S
C719 C718 1.400 . S
C719 C720 1.398 . S
C719 C725 1.491 1_554 S
C720 H711 0.950 . S
C720 C719 1.398 . S
C720 C721 1.391 . S
C721 H709 0.950 . S
C721 C717 1.393 . S
C721 C720 1.391 . S
C722 H712 0.950 . S
C722 C723 1.386 . S
C722 C724 1.391 . S
C723 C722 1.386 . S
C723 C727 1.393 . S
C724 H713 0.950 . S
C724 C722 1.391 . S
C724 C725 1.400 . S
C725 C719 1.491 1_556 S
C725 C724 1.400 . S
C725 C726 1.398 . S
C726 H714 0.950 . S
C726 C725 1.398 . S
C726 C727 1.391 . S
C727 H715 0.950 . S
C727 C723 1.393 . S
C727 C726 1.391 . S
H728 C736 0.950 . S
H729 C741 0.950 . S
H730 C738 0.950 . S
H731 C740 0.950 . S
H732 C742 0.950 . S
H733 C744 0.950 . S
H734 C746 0.950 . S
H735 C747 0.950 . S
C736 H728 0.950 . S
C736 C737 1.386 . S
C736 C738 1.391 . S
C737 C736 1.386 . S
C737 C741 1.393 . S
C738 H730 0.950 . S
C738 C736 1.391 . S
C738 C739 1.400 . S
C739 C738 1.400 . S
C739 C740 1.398 . S
C739 C745 1.491 . S
C740 H731 0.950 . S
C740 C739 1.398 . S
C740 C741 1.391 . S
C741 H729 0.950 . S
C741 C737 1.393 . S
C741 C740 1.391 . S
C742 H732 0.950 . S
C742 C743 1.386 . S
C742 C744 1.391 . S
C743 C742 1.386 . S
C743 C747 1.393 . S
C744 H733 0.950 . S
C744 C742 1.391 . S
C744 C745 1.400 . S
C745 C739 1.491 . S
C745 C744 1.400 . S
C745 C746 1.398 . S
C746 H734 0.950 . S
C746 C745 1.398 . S
C746 C747 1.391 . S
C747 H735 0.950 . S
C747 C743 1.393 . S
C747 C746 1.391 . S
H748 C756 0.950 . S
H749 C761 0.950 . S
H750 C758 0.950 . S
H751 C760 0.950 . S
H752 C762 0.950 . S
H753 C764 0.950 . S
H754 C766 0.950 . S
H755 C767 0.950 . S
C756 H748 0.950 . S
C756 C757 1.386 . S
C756 C758 1.391 . S
C757 C756 1.386 . S
C757 C761 1.393 . S
C758 H750 0.950 . S
C758 C756 1.391 . S
C758 C759 1.400 . S
C759 C758 1.400 . S
C759 C760 1.398 . S
C759 C765 1.491 . S
C760 H751 0.950 . S
C760 C759 1.398 . S
C760 C761 1.391 . S
C761 H749 0.950 . S
C761 C757 1.393 . S
C761 C760 1.391 . S
C762 H752 0.950 . S
C762 C763 1.386 . S
C762 C764 1.391 . S
C763 C762 1.386 . S
C763 C767 1.393 . S
C764 H753 0.950 . S
C764 C762 1.391 . S
C764 C765 1.400 . S
C765 C759 1.491 . S
C765 C764 1.400 . S
C765 C766 1.398 . S
C766 H754 0.950 . S
C766 C765 1.398 . S
C766 C767 1.391 . S
C767 H755 0.950 . S
C767 C763 1.393 . S
C767 C766 1.391 . S
H768 C776 0.950 . S
H769 C781 0.950 . S
H770 C778 0.950 . S
H771 C780 0.950 . S
H772 C782 0.950 . S
H773 C784 0.950 . S
H774 C786 0.950 . S
H775 C787 0.950 . S
C776 H768 0.950 . S
C776 C777 1.387 . S
C776 C778 1.391 1_545 S
C777 C776 1.387 . S
C777 C781 1.384 1_545 S
C778 H770 0.950 . S
C778 C776 1.391 1_565 S
C778 C779 1.400 . S
C779 C778 1.400 . S
C779 C780 1.398 . S
C779 C785 1.491 . S
C780 H771 0.950 . S
C780 C779 1.398 . S
C780 C781 1.391 . S
C781 H769 0.950 . S
C781 C777 1.384 1_565 S
C781 C780 1.391 . S
C782 H772 0.950 . S
C782 C783 1.386 . S
C782 C784 1.391 . S
C783 C782 1.386 . S
C783 C787 1.393 . S
C784 H773 0.950 . S
C784 C782 1.391 . S
C784 C785 1.400 . S
C785 C779 1.491 . S
C785 C784 1.400 . S
C785 C786 1.398 . S
C786 H774 0.950 . S
C786 C785 1.398 . S
C786 C787 1.391 . S
C787 H775 0.950 . S
C787 C783 1.393 . S
C787 C786 1.391 . S
H788 C796 0.950 . S
H789 C801 0.950 . S
H790 C798 0.950 . S
H791 C800 0.950 . S
H792 C802 0.950 1_565 S
H793 C804 0.950 . S
H794 C806 0.950 . S
H795 C807 0.950 . S
C796 H788 0.950 . S
C796 C797 1.386 . S
C796 C798 1.391 . S
C797 C796 1.386 . S
C797 C801 1.393 . S
C798 H790 0.950 . S
C798 C796 1.391 . S
C798 C799 1.400 . S
C799 C798 1.400 . S
C799 C800 1.398 . S
C799 C805 1.491 . S
C800 H791 0.950 . S
C800 C799 1.398 . S
C800 C801 1.391 . S
C801 H789 0.950 . S
C801 C797 1.393 . S
C801 C800 1.391 . S
C802 H792 0.950 1_545 S
C802 C803 1.385 1_545 S
C802 C804 1.391 . S
C803 C802 1.385 1_565 S
C803 C807 1.389 1_565 S
C804 H793 0.950 . S
C804 C802 1.391 . S
C804 C805 1.400 . S
C805 C799 1.491 . S
C805 C804 1.400 . S
C805 C806 1.398 . S
C806 H794 0.950 . S
C806 C805 1.398 . S
C806 C807 1.391 . S
C807 H795 0.950 . S
C807 C803 1.389 1_545 S
C807 C806 1.391 . S
H808 C816 0.950 . S
H809 C821 0.950 . S
H810 C818 0.950 . S
H811 C820 0.950 . S
H812 C822 0.950 . S
H813 C824 0.950 . S
H814 C826 0.950 . S
H815 C827 0.950 . S
C816 H808 0.950 . S
C816 C817 1.389 . S
C816 C818 1.391 1_565 S
C817 C816 1.389 . S
C817 C821 1.377 1_565 S
C818 H810 0.950 . S
C818 C816 1.391 1_545 S
C818 C819 1.400 . S
C819 C818 1.400 . S
C819 C820 1.398 . S
C819 C825 1.491 . S
C820 H811 0.950 . S
C820 C819 1.398 . S
C820 C821 1.391 . S
C821 H809 0.950 . S
C821 C817 1.377 1_545 S
C821 C820 1.391 . S
C822 H812 0.950 . S
C822 C823 1.386 . S
C822 C824 1.391 . S
C823 C822 1.386 . S
C823 C827 1.393 . S
C824 H813 0.950 . S
C824 C822 1.391 . S
C824 C825 1.400 . S
C825 C819 1.491 . S
C825 C824 1.400 . S
C825 C826 1.398 . S
C826 H814 0.950 . S
C826 C825 1.398 . S
C826 C827 1.391 . S
C827 H815 0.950 . S
C827 C823 1.393 . S
C827 C826 1.391 . S
H828 C836 0.950 . S
H829 C841 0.950 . S
H830 C838 0.950 . S
H831 C840 0.950 . S
H832 C842 0.950 . S
H833 C844 0.950 . S
H834 C846 0.950 . S
H835 C847 0.950 . S
C836 H828 0.950 . S
C836 C837 1.386 1_565 S
C836 C838 1.391 . S
C837 C836 1.386 1_545 S
C837 C841 1.393 . S
C838 H830 0.950 . S
C838 C836 1.391 . S
C838 C839 1.400 . S
C839 C838 1.400 . S
C839 C840 1.398 . S
C839 C845 1.491 . S
C840 H831 0.950 . S
C840 C839 1.398 . S
C840 C841 1.391 1_565 S
C841 H829 0.950 . S
C841 C837 1.393 . S
C841 C840 1.391 1_545 S
C842 H832 0.950 . S
C842 C843 1.386 . S
C842 C844 1.391 . S
C843 C842 1.386 . S
C843 C847 1.393 . S
C844 H833 0.950 . S
C844 C842 1.391 . S
C844 C845 1.400 . S
C845 C839 1.491 . S
C845 C844 1.400 . S
C845 C846 1.398 . S
C846 H834 0.950 . S
C846 C845 1.398 . S
C846 C847 1.391 . S
C847 H835 0.950 . S
C847 C843 1.393 . S
C847 C846 1.391 . S
H848 C856 0.950 . S
H849 C861 0.950 . S
H850 C858 0.950 . S
H851 C860 0.950 . S
H852 C862 0.950 . S
H853 C864 0.950 . S
H854 C866 0.950 . S
H855 C867 0.950 . S
C856 H848 0.950 . S
C856 C857 1.386 . S
C856 C858 1.391 . S
C857 C856 1.386 . S
C857 C861 1.393 . S
C858 H850 0.950 . S
C858 C856 1.391 . S
C858 C859 1.400 . S
C859 C858 1.400 . S
C859 C860 1.398 . S
C859 C865 1.491 . S
C860 H851 0.950 . S
C860 C859 1.398 . S
C860 C861 1.391 . S
C861 H849 0.950 . S
C861 C857 1.393 . S
C861 C860 1.391 . S
C862 H852 0.950 . S
C862 C863 1.398 . S
C862 C864 1.391 1_565 S
C863 C862 1.398 . S
C863 C867 1.354 1_565 S
C864 H853 0.950 . S
C864 C862 1.391 1_545 S
C864 C865 1.400 . S
C865 C859 1.491 . S
C865 C864 1.400 . S
C865 C866 1.398 . S
C866 H854 0.950 . S
C866 C865 1.398 . S
C866 C867 1.391 . S
C867 H855 0.950 . S
C867 C863 1.354 1_545 S
C867 C866 1.391 . S
H868 C876 0.950 . S
H869 C881 0.950 . S
H870 C878 0.950 . S
H871 C880 0.950 . S
H872 C882 0.950 . S
H873 C884 0.950 . S
H874 C886 0.950 . S
H875 C887 0.950 . S
C876 H868 0.950 . S
C876 C877 1.353 1_565 S
C876 C878 1.391 . S
C877 C876 1.353 1_545 S
C877 C881 1.402 . S
C878 H870 0.950 . S
C878 C876 1.391 . S
C878 C879 1.400 . S
C879 C878 1.400 . S
C879 C880 1.398 . S
C879 C885 1.491 . S
C880 H871 0.950 . S
C880 C879 1.398 . S
C880 C881 1.391 1_565 S
C881 H869 0.950 . S
C881 C877 1.402 . S
C881 C880 1.391 1_545 S
C882 H872 0.950 . S
C882 C883 1.386 . S
C882 C884 1.391 . S
C883 C882 1.386 . S
C883 C887 1.393 . S
C884 H873 0.950 . S
C884 C882 1.391 . S
C884 C885 1.400 . S
C885 C879 1.491 . S
C885 C884 1.400 . S
C885 C886 1.398 . S
C886 H874 0.950 . S
C886 C885 1.398 . S
C886 C887 1.391 . S
C887 H875 0.950 . S
C887 C883 1.393 . S
C887 C886 1.391 . S
H888 C896 0.950 . S
H889 C901 0.950 . S
H890 C898 0.950 . S
H891 C900 0.950 . S
H892 C902 0.950 . S
H893 C904 0.950 . S
H894 C906 0.950 . S
H895 C907 0.950 1_545 S
C896 H888 0.950 . S
C896 C897 1.386 . S
C896 C898 1.391 . S
C897 C896 1.386 . S
C897 C901 1.393 . S
C898 H890 0.950 . S
C898 C896 1.391 . S
C898 C899 1.400 . S
C899 C898 1.400 . S
C899 C900 1.398 . S
C899 C905 1.491 . S
C900 H891 0.950 . S
C900 C899 1.398 . S
C900 C901 1.391 . S
C901 H889 0.950 . S
C901 C897 1.393 . S
C901 C900 1.391 . S
C902 H892 0.950 . S
C902 C903 1.382 1_565 S
C902 C904 1.391 . S
C903 C902 1.382 1_545 S
C903 C907 1.391 1_545 S
C904 H893 0.950 . S
C904 C902 1.391 . S
C904 C905 1.400 . S
C905 C899 1.491 . S
C905 C904 1.400 . S
C905 C906 1.398 . S
C906 H894 0.950 . S
C906 C905 1.398 . S
C906 C907 1.391 . S
C907 H895 0.950 1_565 S
C907 C903 1.391 1_565 S
C907 C906 1.391 . S
H908 C916 0.950 . S
H909 C921 0.950 . S
H910 C918 0.950 . S
H911 C920 0.950 . S
H912 C922 0.950 1_565 S
H913 C924 0.950 . S
H914 C926 0.950 . S
H915 C927 0.950 . S
C916 H908 0.950 . S
C916 C917 1.386 . S
C916 C918 1.391 . S
C917 C916 1.386 . S
C917 C921 1.393 . S
C918 H910 0.950 . S
C918 C916 1.391 . S
C918 C919 1.400 . S
C919 C918 1.400 . S
C919 C920 1.398 . S
C919 C925 1.491 . S
C920 H911 0.950 . S
C920 C919 1.398 . S
C920 C921 1.391 . S
C921 H909 0.950 . S
C921 C917 1.393 . S
C921 C920 1.391 . S
C922 H912 0.950 1_545 S
C922 C923 1.386 1_545 S
C922 C924 1.391 . S
C923 C922 1.386 1_565 S
C923 C927 1.393 1_565 S
C924 H913 0.950 . S
C924 C922 1.391 . S
C924 C925 1.400 . S
C925 C919 1.491 . S
C925 C924 1.400 . S
C925 C926 1.398 . S
C926 H914 0.950 . S
C926 C925 1.398 . S
C926 C927 1.391 . S
C927 H915 0.950 . S
C927 C923 1.393 1_545 S
C927 C926 1.391 . S
H928 C936 0.950 . S
H929 C941 0.950 . S
H930 C938 0.950 . S
H931 C940 0.950 . S
H932 C942 0.950 . S
H933 C944 0.950 . S
H934 C946 0.950 . S
H935 C947 0.950 . S
C936 H928 0.950 . S
C936 C937 1.386 . S
C936 C938 1.391 . S
C937 C936 1.386 . S
C937 C941 1.393 . S
C938 H930 0.950 . S
C938 C936 1.391 . S
C938 C939 1.400 . S
C939 C938 1.400 . S
C939 C940 1.398 . S
C939 C945 1.491 . S
C940 H931 0.950 . S
C940 C939 1.398 . S
C940 C941 1.391 . S
C941 H929 0.950 . S
C941 C937 1.393 . S
C941 C940 1.391 . S
C942 H932 0.950 . S
C942 C943 1.386 . S
C942 C944 1.391 . S
C943 C942 1.386 . S
C943 C947 1.393 . S
C944 H933 0.950 . S
C944 C942 1.391 . S
C944 C945 1.400 . S
C945 C939 1.491 . S
C945 C944 1.400 . S
C945 C946 1.398 . S
C946 H934 0.950 . S
C946 C945 1.398 . S
C946 C947 1.391 . S
C947 H935 0.950 . S
C947 C943 1.393 . S
C947 C946 1.391 . S
H948 C956 0.950 . S
H949 C961 0.950 . S
H950 C958 0.950 . S
H951 C960 0.950 . S
H952 C962 0.950 . S
H953 C964 0.950 . S
H954 C966 0.950 . S
H955 C967 0.950 . S
C956 H948 0.950 . S
C956 C957 1.386 . S
C956 C958 1.391 . S
C957 C956 1.386 . S
C957 C961 1.393 . S
C958 H950 0.950 . S
C958 C956 1.391 . S
C958 C959 1.400 . S
C959 C958 1.400 . S
C959 C960 1.398 . S
C959 C965 1.491 . S
C960 H951 0.950 . S
C960 C959 1.398 . S
C960 C961 1.391 . S
C961 H949 0.950 . S
C961 C957 1.393 . S
C961 C960 1.391 . S
C962 H952 0.950 . S
C962 C963 1.386 . S
C962 C964 1.391 . S
C963 C962 1.386 . S
C963 C967 1.393 . S
C964 H953 0.950 . S
C964 C962 1.391 . S
C964 C965 1.400 . S
C965 C959 1.491 . S
C965 C964 1.400 . S
C965 C966 1.398 . S
C966 H954 0.950 . S
C966 C965 1.398 . S
C966 C967 1.391 . S
C967 H955 0.950 . S
C967 C963 1.393 . S
C967 C966 1.391 . S
H968 C976 0.950 . S
H969 C981 0.950 . S
H970 C978 0.950 . S
H971 C980 0.950 . S
H972 C982 0.950 . S
H973 C984 0.950 . S
H974 C986 0.950 . S
H975 C987 0.950 . S
C976 H968 0.950 . S
C976 C977 1.386 . S
C976 C978 1.391 . S
C977 C976 1.386 . S
C977 C981 1.393 . S
C978 H970 0.950 . S
C978 C976 1.391 . S
C978 C979 1.400 . S
C979 C978 1.400 . S
C979 C980 1.398 . S
C979 C985 1.491 . S
C980 H971 0.950 . S
C980 C979 1.398 . S
C980 C981 1.391 . S
C981 H969 0.950 . S
C981 C977 1.393 . S
C981 C980 1.391 . S
C982 H972 0.950 . S
C982 C983 1.386 . S
C982 C984 1.391 . S
C983 C982 1.386 . S
C983 C987 1.393 . S
C984 H973 0.950 . S
C984 C982 1.391 . S
C984 C985 1.400 . S
C985 C979 1.491 . S
C985 C984 1.400 . S
C985 C986 1.398 . S
C986 H974 0.950 . S
C986 C985 1.398 . S
C986 C987 1.391 . S
C987 H975 0.950 . S
C987 C983 1.393 . S
C987 C986 1.391 . S
H988 C996 0.950 . S
H989 C1001 0.950 . S
H990 C998 0.950 . S
H991 C1000 0.950 . S
H992 C1002 0.950 . S
H993 C1004 0.950 . S
H994 C1006 0.950 . S
H995 C1007 0.950 . S
C996 H988 0.950 . S
C996 C997 1.386 . S
C996 C998 1.391 . S
C997 C996 1.386 . S
C997 C1001 1.393 . S
C998 H990 0.950 . S
C998 C996 1.391 . S
C998 C999 1.400 . S
C999 C998 1.400 . S
C999 C1000 1.398 . S
C999 C1005 1.491 . S
C1000 H991 0.950 . S
C1000 C999 1.398 . S
C1000 C1001 1.391 . S
C1001 H989 0.950 . S
C1001 C997 1.393 . S
C1001 C1000 1.391 . S
C1002 H992 0.950 . S
C1002 C1003 1.386 . S
C1002 C1004 1.391 . S
C1003 C1002 1.386 . S
C1003 C1007 1.393 . S
C1004 H993 0.950 . S
C1004 C1002 1.391 . S
C1004 C1005 1.400 . S
C1005 C999 1.491 . S
C1005 C1004 1.400 . S
C1005 C1006 1.398 . S
C1006 H994 0.950 . S
C1006 C1005 1.398 . S
C1006 C1007 1.391 . S
C1007 H995 0.950 . S
C1007 C1003 1.393 . S
C1007 C1006 1.391 . S
H1008 C1016 0.950 . S
H1009 C1021 0.950 . S
H1010 C1018 0.950 . S
H1011 C1020 0.950 . S
H1012 C1022 0.950 . S
H1013 C1024 0.950 . S
H1014 C1026 0.950 . S
H1015 C1027 0.950 . S
C1016 H1008 0.950 . S
C1016 C1017 1.386 . S
C1016 C1018 1.391 . S
C1017 C1016 1.386 . S
C1017 C1021 1.393 . S
C1018 H1010 0.950 . S
C1018 C1016 1.391 . S
C1018 C1019 1.400 . S
C1019 C1018 1.400 . S
C1019 C1020 1.398 . S
C1019 C1025 1.491 . S
C1020 H1011 0.950 . S
C1020 C1019 1.398 . S
C1020 C1021 1.391 . S
C1021 H1009 0.950 . S
C1021 C1017 1.393 . S
C1021 C1020 1.391 . S
C1022 H1012 0.950 . S
C1022 C1023 1.386 . S
C1022 C1024 1.391 . S
C1023 C1022 1.386 . S
C1023 C1027 1.393 . S
C1024 H1013 0.950 . S
C1024 C1022 1.391 . S
C1024 C1025 1.400 . S
C1025 C1019 1.491 . S
C1025 C1024 1.400 . S
C1025 C1026 1.398 . S
C1026 H1014 0.950 . S
C1026 C1025 1.398 . S
C1026 C1027 1.391 . S
C1027 H1015 0.950 . S
C1027 C1023 1.393 . S
C1027 C1026 1.391 . S
H1028 C1036 0.950 . S
H1029 C1041 0.950 . S
H1030 C1038 0.950 . S
H1031 C1040 0.950 . S
H1032 C1042 0.950 . S
H1033 C1044 0.950 . S
H1034 C1046 0.950 . S
H1035 C1047 0.950 . S
C1036 H1028 0.950 . S
C1036 C1037 1.386 . S
C1036 C1038 1.391 . S
C1037 C1036 1.386 . S
C1037 C1041 1.393 . S
C1038 H1030 0.950 . S
C1038 C1036 1.391 . S
C1038 C1039 1.400 . S
C1039 C1038 1.400 . S
C1039 C1040 1.398 . S
C1039 C1045 1.491 . S
C1040 H1031 0.950 . S
C1040 C1039 1.398 . S
C1040 C1041 1.391 . S
C1041 H1029 0.950 . S
C1041 C1037 1.393 . S
C1041 C1040 1.391 . S
C1042 H1032 0.950 . S
C1042 C1043 1.386 . S
C1042 C1044 1.391 . S
C1043 C1042 1.386 . S
C1043 C1047 1.393 . S
C1044 H1033 0.950 . S
C1044 C1042 1.391 . S
C1044 C1045 1.400 . S
C1045 C1039 1.491 . S
C1045 C1044 1.400 . S
C1045 C1046 1.398 . S
C1046 H1034 0.950 . S
C1046 C1045 1.398 . S
C1046 C1047 1.391 . S
C1047 H1035 0.950 . S
C1047 C1043 1.393 . S
C1047 C1046 1.391 . S
H1048 C1056 0.950 . S
H1049 C1061 0.950 . S
H1050 C1058 0.950 . S
H1051 C1060 0.950 . S
H1052 C1062 0.950 . S
H1053 C1064 0.950 . S
H1054 C1066 0.950 . S
H1055 C1067 0.950 . S
C1056 H1048 0.950 . S
C1056 C1057 1.386 . S
C1056 C1058 1.391 . S
C1057 C1056 1.386 . S
C1057 C1061 1.393 . S
C1058 H1050 0.950 . S
C1058 C1056 1.391 . S
C1058 C1059 1.400 . S
C1059 C1058 1.400 . S
C1059 C1060 1.398 . S
C1059 C1065 1.491 . S
C1060 H1051 0.950 . S
C1060 C1059 1.398 . S
C1060 C1061 1.391 . S
C1061 H1049 0.950 . S
C1061 C1057 1.393 . S
C1061 C1060 1.391 . S
C1062 H1052 0.950 . S
C1062 C1063 1.386 . S
C1062 C1064 1.391 . S
C1063 C1062 1.386 . S
C1063 C1067 1.393 . S
C1064 H1053 0.950 . S
C1064 C1062 1.391 . S
C1064 C1065 1.400 . S
C1065 C1059 1.491 . S
C1065 C1064 1.400 . S
C1065 C1066 1.398 . S
C1066 H1054 0.950 . S
C1066 C1065 1.398 . S
C1066 C1067 1.391 . S
C1067 H1055 0.950 . S
C1067 C1063 1.393 . S
C1067 C1066 1.391 . S
H1068 C1076 0.950 . S
H1069 C1081 0.950 . S
H1070 C1078 0.950 . S
H1071 C1080 0.950 . S
H1072 C1082 0.950 . S
H1073 C1084 0.950 . S
H1074 C1086 0.950 . S
H1075 C1087 0.950 . S
C1076 H1068 0.950 . S
C1076 C1077 1.386 . S
C1076 C1078 1.391 . S
C1077 C1076 1.386 . S
C1077 C1081 1.393 . S
C1078 H1070 0.950 . S
C1078 C1076 1.391 . S
C1078 C1079 1.400 . S
C1079 C1078 1.400 . S
C1079 C1080 1.398 . S
C1079 C1085 1.491 . S
C1080 H1071 0.950 . S
C1080 C1079 1.398 . S
C1080 C1081 1.391 . S
C1081 H1069 0.950 . S
C1081 C1077 1.393 . S
C1081 C1080 1.391 . S
C1082 H1072 0.950 . S
C1082 C1083 1.386 . S
C1082 C1084 1.391 . S
C1083 C1082 1.386 . S
C1083 C1087 1.393 . S
C1084 H1073 0.950 . S
C1084 C1082 1.391 . S
C1084 C1085 1.400 . S
C1085 C1079 1.491 . S
C1085 C1084 1.400 . S
C1085 C1086 1.398 . S
C1086 H1074 0.950 . S
C1086 C1085 1.398 . S
C1086 C1087 1.391 . S
C1087 H1075 0.950 . S
C1087 C1083 1.393 . S
C1087 C1086 1.391 . S
H1088 C1096 0.950 . S
H1089 C1101 0.950 . S
H1090 C1098 0.950 . S
H1091 C1100 0.950 . S
H1092 C1102 0.950 . S
H1093 C1104 0.950 . S
H1094 C1106 0.950 . S
H1095 C1107 0.950 . S
C1096 H1088 0.950 . S
C1096 C1097 1.386 . S
C1096 C1098 1.391 . S
C1097 C1096 1.386 . S
C1097 C1101 1.393 . S
C1098 H1090 0.950 . S
C1098 C1096 1.391 . S
C1098 C1099 1.400 . S
C1099 C1098 1.400 . S
C1099 C1100 1.398 . S
C1099 C1105 1.491 . S
C1100 H1091 0.950 . S
C1100 C1099 1.398 . S
C1100 C1101 1.391 . S
C1101 H1089 0.950 . S
C1101 C1097 1.393 . S
C1101 C1100 1.391 . S
C1102 H1092 0.950 . S
C1102 C1103 1.386 . S
C1102 C1104 1.391 . S
C1103 C1102 1.386 . S
C1103 C1107 1.393 . S
C1104 H1093 0.950 . S
C1104 C1102 1.391 . S
C1104 C1105 1.400 . S
C1105 C1099 1.491 . S
C1105 C1104 1.400 . S
C1105 C1106 1.398 . S
C1106 H1094 0.950 . S
C1106 C1105 1.398 . S
C1106 C1107 1.391 . S
C1107 H1095 0.950 . S
C1107 C1103 1.393 . S
C1107 C1106 1.391 . S
H1108 C1116 0.950 . S
H1109 C1121 0.950 . S
H1110 C1118 0.950 . S
H1111 C1120 0.950 . S
H1112 C1122 0.950 . S
H1113 C1124 0.950 . S
H1114 C1126 0.950 . S
H1115 C1127 0.950 . S
C1116 H1108 0.950 . S
C1116 C1117 1.386 . S
C1116 C1118 1.391 . S
C1117 C1116 1.386 . S
C1117 C1121 1.393 . S
C1118 H1110 0.950 . S
C1118 C1116 1.391 . S
C1118 C1119 1.400 . S
C1119 C1118 1.400 . S
C1119 C1120 1.398 . S
C1119 C1125 1.491 . S
C1120 H1111 0.950 . S
C1120 C1119 1.398 . S
C1120 C1121 1.391 . S
C1121 H1109 0.950 . S
C1121 C1117 1.393 . S
C1121 C1120 1.391 . S
C1122 H1112 0.950 . S
C1122 C1123 1.386 . S
C1122 C1124 1.391 1_655 S
C1123 C1122 1.386 . S
C1123 C1127 1.393 . S
C1124 H1113 0.950 . S
C1124 C1122 1.391 1_455 S
C1124 C1125 1.400 . S
C1125 C1119 1.491 . S
C1125 C1124 1.400 . S
C1125 C1126 1.398 . S
C1126 H1114 0.950 . S
C1126 C1125 1.398 . S
C1126 C1127 1.391 1_455 S
C1127 H1115 0.950 . S
C1127 C1123 1.393 . S
C1127 C1126 1.391 1_655 S
H1128 C1136 0.950 . S
H1129 C1141 0.950 . S
H1130 C1138 0.950 . S
H1131 C1140 0.950 . S
H1132 C1142 0.950 . S
H1133 C1144 0.950 . S
H1134 C1146 0.950 . S
H1135 C1147 0.950 . S
C1136 H1128 0.950 . S
C1136 C1137 1.386 . S
C1136 C1138 1.391 . S
C1137 C1136 1.386 . S
C1137 C1141 1.393 . S
C1138 H1130 0.950 . S
C1138 C1136 1.391 . S
C1138 C1139 1.400 . S
C1139 C1138 1.400 . S
C1139 C1140 1.398 . S
C1139 C1145 1.491 . S
C1140 H1131 0.950 . S
C1140 C1139 1.398 . S
C1140 C1141 1.391 . S
C1141 H1129 0.950 . S
C1141 C1137 1.393 . S
C1141 C1140 1.391 . S
C1142 H1132 0.950 . S
C1142 C1143 1.386 . S
C1142 C1144 1.391 . S
C1143 C1142 1.386 . S
C1143 C1147 1.393 . S
C1144 H1133 0.950 . S
C1144 C1142 1.391 . S
C1144 C1145 1.400 . S
C1145 C1139 1.491 . S
C1145 C1144 1.400 . S
C1145 C1146 1.398 . S
C1146 H1134 0.950 . S
C1146 C1145 1.398 . S
C1146 C1147 1.391 . S
C1147 H1135 0.950 . S
C1147 C1143 1.393 . S
C1147 C1146 1.391 . S
H1148 C1156 0.950 . S
H1149 C1161 0.950 . S
H1150 C1158 0.950 . S
H1151 C1160 0.950 . S
H1152 C1162 0.950 . S
H1153 C1164 0.950 . S
H1154 C1166 0.950 . S
H1155 C1167 0.950 . S
C1156 H1148 0.950 . S
C1156 C1157 1.386 . S
C1156 C1158 1.391 . S
C1157 C1156 1.386 . S
C1157 C1161 1.393 . S
C1158 H1150 0.950 . S
C1158 C1156 1.391 . S
C1158 C1159 1.400 . S
C1159 C1158 1.400 . S
C1159 C1160 1.398 . S
C1159 C1165 1.491 . S
C1160 H1151 0.950 . S
C1160 C1159 1.398 . S
C1160 C1161 1.391 . S
C1161 H1149 0.950 . S
C1161 C1157 1.393 . S
C1161 C1160 1.391 . S
C1162 H1152 0.950 . S
C1162 C1163 1.386 . S
C1162 C1164 1.391 . S
C1163 C1162 1.386 . S
C1163 C1167 1.393 . S
C1164 H1153 0.950 . S
C1164 C1162 1.391 . S
C1164 C1165 1.400 . S
C1165 C1159 1.491 . S
C1165 C1164 1.400 . S
C1165 C1166 1.398 . S
C1166 H1154 0.950 . S
C1166 C1165 1.398 . S
C1166 C1167 1.391 . S
C1167 H1155 0.950 . S
C1167 C1163 1.393 . S
C1167 C1166 1.391 . S
H1168 C1176 0.950 . S
H1169 C1181 0.950 . S
H1170 C1178 0.950 . S
H1171 C1180 0.950 . S
H1172 C1182 0.950 . S
H1173 C1184 0.950 . S
H1174 C1186 0.950 . S
H1175 C1187 0.950 . S
C1176 H1168 0.950 . S
C1176 C1177 1.386 . S
C1176 C1178 1.391 . S
C1177 C1176 1.386 . S
C1177 C1181 1.393 . S
C1178 H1170 0.950 . S
C1178 C1176 1.391 . S
C1178 C1179 1.400 . S
C1179 C1178 1.400 . S
C1179 C1180 1.398 . S
C1179 C1185 1.491 . S
C1180 H1171 0.950 . S
C1180 C1179 1.398 . S
C1180 C1181 1.391 . S
C1181 H1169 0.950 . S
C1181 C1177 1.393 . S
C1181 C1180 1.391 . S
C1182 H1172 0.950 . S
C1182 C1183 1.386 . S
C1182 C1184 1.391 . S
C1183 C1182 1.386 . S
C1183 C1187 1.393 . S
C1184 H1173 0.950 . S
C1184 C1182 1.391 . S
C1184 C1185 1.400 . S
C1185 C1179 1.491 . S
C1185 C1184 1.400 . S
C1185 C1186 1.398 . S
C1186 H1174 0.950 . S
C1186 C1185 1.398 . S
C1186 C1187 1.391 . S
C1187 H1175 0.950 . S
C1187 C1183 1.393 . S
C1187 C1186 1.391 . S
H1188 C1196 0.950 . S
H1189 C1201 0.950 . S
H1190 C1198 0.950 . S
H1191 C1200 0.950 . S
H1192 C1202 0.950 . S
H1193 C1204 0.950 . S
H1194 C1206 0.950 . S
H1195 C1207 0.950 . S
C1196 H1188 0.950 . S
C1196 C1197 1.386 . S
C1196 C1198 1.391 . S
C1197 C1196 1.386 . S
C1197 C1201 1.393 . S
C1198 H1190 0.950 . S
C1198 C1196 1.391 . S
C1198 C1199 1.400 . S
C1199 C1198 1.400 . S
C1199 C1200 1.398 . S
C1199 C1205 1.491 . S
C1200 H1191 0.950 . S
C1200 C1199 1.398 . S
C1200 C1201 1.391 . S
C1201 H1189 0.950 . S
C1201 C1197 1.393 . S
C1201 C1200 1.391 . S
C1202 H1192 0.950 . S
C1202 C1203 1.386 . S
C1202 C1204 1.391 . S
C1203 C1202 1.386 . S
C1203 C1207 1.393 . S
C1204 H1193 0.950 . S
C1204 C1202 1.391 . S
C1204 C1205 1.400 . S
C1205 C1199 1.491 . S
C1205 C1204 1.400 . S
C1205 C1206 1.398 . S
C1206 H1194 0.950 . S
C1206 C1205 1.398 . S
C1206 C1207 1.391 . S
C1207 H1195 0.950 . S
C1207 C1203 1.393 . S
C1207 C1206 1.391 . S
H1208 C1216 0.950 . S
H1209 C1221 0.950 . S
H1210 C1218 0.950 . S
H1211 C1220 0.950 . S
H1212 C1222 0.950 . S
H1213 C1224 0.950 . S
H1214 C1226 0.950 . S
H1215 C1227 0.950 . S
C1216 H1208 0.950 . S
C1216 C1217 1.386 . S
C1216 C1218 1.391 . S
C1217 C1216 1.386 . S
C1217 C1221 1.393 . S
C1218 H1210 0.950 . S
C1218 C1216 1.391 . S
C1218 C1219 1.400 . S
C1219 C1218 1.400 . S
C1219 C1220 1.398 . S
C1219 C1225 1.491 . S
C1220 H1211 0.950 . S
C1220 C1219 1.398 . S
C1220 C1221 1.391 . S
C1221 H1209 0.950 . S
C1221 C1217 1.393 . S
C1221 C1220 1.391 . S
C1222 H1212 0.950 . S
C1222 C1223 1.386 . S
C1222 C1224 1.391 . S
C1223 C1222 1.386 . S
C1223 C1227 1.393 . S
C1224 H1213 0.950 . S
C1224 C1222 1.391 . S
C1224 C1225 1.400 . S
C1225 C1219 1.491 . S
C1225 C1224 1.400 . S
C1225 C1226 1.398 . S
C1226 H1214 0.950 . S
C1226 C1225 1.398 . S
C1226 C1227 1.391 . S
C1227 H1215 0.950 . S
C1227 C1223 1.393 . S
C1227 C1226 1.391 . S
H1228 C1236 0.950 . S
H1229 C1241 0.950 . S
H1230 C1238 0.950 . S
H1231 C1240 0.950 . S
H1232 C1242 0.950 . S
H1233 C1244 0.950 . S
H1234 C1246 0.950 . S
H1235 C1247 0.950 . S
C1236 H1228 0.950 . S
C1236 C1237 1.386 . S
C1236 C1238 1.391 . S
C1237 C1236 1.386 . S
C1237 C1241 1.393 . S
C1238 H1230 0.950 . S
C1238 C1236 1.391 . S
C1238 C1239 1.400 . S
C1239 C1238 1.400 . S
C1239 C1240 1.398 . S
C1239 C1245 1.491 . S
C1240 H1231 0.950 . S
C1240 C1239 1.398 . S
C1240 C1241 1.391 . S
C1241 H1229 0.950 . S
C1241 C1237 1.393 . S
C1241 C1240 1.391 . S
C1242 H1232 0.950 . S
C1242 C1243 1.386 . S
C1242 C1244 1.391 1_655 S
C1243 C1242 1.386 . S
C1243 C1247 1.393 1_655 S
C1244 H1233 0.950 . S
C1244 C1242 1.391 1_455 S
C1244 C1245 1.400 . S
C1245 C1239 1.491 . S
C1245 C1244 1.400 . S
C1245 C1246 1.398 . S
C1246 H1234 0.950 . S
C1246 C1245 1.398 . S
C1246 C1247 1.391 . S
C1247 H1235 0.950 . S
C1247 C1243 1.393 1_455 S
C1247 C1246 1.391 . S
H1248 C1256 0.950 . S
H1249 C1261 0.950 . S
H1250 C1258 0.950 . S
H1251 C1260 0.950 . S
H1252 C1262 0.950 . S
H1253 C1264 0.950 . S
H1254 C1266 0.950 . S
H1255 C1267 0.950 . S
C1256 H1248 0.950 . S
C1256 C1257 1.386 . S
C1256 C1258 1.391 . S
C1257 C1256 1.386 . S
C1257 C1261 1.393 . S
C1258 H1250 0.950 . S
C1258 C1256 1.391 . S
C1258 C1259 1.400 . S
C1259 C1258 1.400 . S
C1259 C1260 1.398 . S
C1259 C1265 1.491 . S
C1260 H1251 0.950 . S
C1260 C1259 1.398 . S
C1260 C1261 1.391 . S
C1261 H1249 0.950 . S
C1261 C1257 1.393 . S
C1261 C1260 1.391 . S
C1262 H1252 0.950 . S
C1262 C1263 1.386 . S
C1262 C1264 1.391 . S
C1263 C1262 1.386 . S
C1263 C1267 1.393 . S
C1264 H1253 0.950 . S
C1264 C1262 1.391 . S
C1264 C1265 1.400 . S
C1265 C1259 1.491 . S
C1265 C1264 1.400 . S
C1265 C1266 1.398 . S
C1266 H1254 0.950 . S
C1266 C1265 1.398 . S
C1266 C1267 1.391 . S
C1267 H1255 0.950 . S
C1267 C1263 1.393 . S
C1267 C1266 1.391 . S
H1268 C1276 0.950 1_455 S
H1269 C1281 0.950 . S
H1270 C1278 0.950 . S
H1271 C1280 0.950 . S
H1272 C1282 0.950 . S
H1273 C1284 0.950 . S
H1274 C1286 0.950 . S
H1275 C1287 0.950 . S
C1276 H1268 0.950 1_655 S
C1276 C1277 1.386 1_655 S
C1276 C1278 1.391 . S
C1277 C1276 1.386 1_455 S
C1277 C1281 1.393 . S
C1278 H1270 0.950 . S
C1278 C1276 1.391 . S
C1278 C1279 1.400 . S
C1279 C1278 1.400 . S
C1279 C1280 1.398 . S
C1279 C1285 1.491 . S
C1280 H1271 0.950 . S
C1280 C1279 1.398 . S
C1280 C1281 1.391 1_655 S
C1281 H1269 0.950 . S
C1281 C1277 1.393 . S
C1281 C1280 1.391 1_455 S
C1282 H1272 0.950 . S
C1282 C1283 1.386 . S
C1282 C1284 1.391 . S
C1283 C1282 1.386 . S
C1283 C1287 1.393 . S
C1284 H1273 0.950 . S
C1284 C1282 1.391 . S
C1284 C1285 1.400 . S
C1285 C1279 1.491 . S
C1285 C1284 1.400 . S
C1285 C1286 1.398 . S
C1286 H1274 0.950 . S
C1286 C1285 1.398 . S
C1286 C1287 1.391 . S
C1287 H1275 0.950 . S
C1287 C1283 1.393 . S
C1287 C1286 1.391 . S
H1288 C1296 0.950 . S
H1289 C1301 0.950 . S
H1290 C1298 0.950 . S
H1291 C1300 0.950 . S
H1292 C1302 0.950 . S
H1293 C1304 0.950 . S
H1294 C1306 0.950 . S
H1295 C1307 0.950 . S
C1296 H1288 0.950 . S
C1296 C1297 1.386 . S
C1296 C1298 1.391 . S
C1297 C1296 1.386 . S
C1297 C1301 1.393 . S
C1298 H1290 0.950 . S
C1298 C1296 1.391 . S
C1298 C1299 1.400 . S
C1299 C1298 1.400 . S
C1299 C1300 1.398 . S
C1299 C1305 1.491 . S
C1300 H1291 0.950 . S
C1300 C1299 1.398 . S
C1300 C1301 1.391 . S
C1301 H1289 0.950 . S
C1301 C1297 1.393 . S
C1301 C1300 1.391 . S
C1302 H1292 0.950 . S
C1302 C1303 1.386 . S
C1302 C1304 1.391 . S
C1303 C1302 1.386 . S
C1303 C1307 1.393 . S
C1304 H1293 0.950 . S
C1304 C1302 1.391 . S
C1304 C1305 1.400 . S
C1305 C1299 1.491 . S
C1305 C1304 1.400 . S
C1305 C1306 1.398 . S
C1306 H1294 0.950 . S
C1306 C1305 1.398 . S
C1306 C1307 1.391 . S
C1307 H1295 0.950 . S
C1307 C1303 1.393 . S
C1307 C1306 1.391 . S
H1308 C1316 0.950 . S
H1309 C1321 0.950 . S
H1310 C1318 0.950 . S
H1311 C1320 0.950 . S
H1312 C1322 0.950 . S
H1313 C1324 0.950 . S
H1314 C1326 0.950 . S
H1315 C1327 0.950 . S
C1316 H1308 0.950 . S
C1316 C1317 1.386 . S
C1316 C1318 1.391 . S
C1317 C1316 1.386 . S
C1317 C1321 1.393 . S
C1318 H1310 0.950 . S
C1318 C1316 1.391 . S
C1318 C1319 1.400 . S
C1319 C1318 1.400 . S
C1319 C1320 1.398 . S
C1319 C1325 1.491 . S
C1320 H1311 0.950 . S
C1320 C1319 1.398 . S
C1320 C1321 1.391 . S
C1321 H1309 0.950 . S
C1321 C1317 1.393 . S
C1321 C1320 1.391 . S
C1322 H1312 0.950 . S
C1322 C1323 1.386 . S
C1322 C1324 1.391 . S
C1323 C1322 1.386 . S
C1323 C1327 1.393 . S
C1324 H1313 0.950 . S
C1324 C1322 1.391 . S
C1324 C1325 1.400 . S
C1325 C1319 1.491 . S
C1325 C1324 1.400 . S
C1325 C1326 1.398 . S
C1326 H1314 0.950 . S
C1326 C1325 1.398 . S
C1326 C1327 1.391 . S
C1327 H1315 0.950 . S
C1327 C1323 1.393 . S
C1327 C1326 1.391 . S
H1328 C1336 0.950 . S
H1329 C1341 0.950 . S
H1330 C1338 0.950 . S
H1331 C1340 0.950 . S
H1332 C1342 0.950 . S
H1333 C1344 0.950 . S
H1334 C1346 0.950 . S
H1335 C1347 0.950 . S
C1336 H1328 0.950 . S
C1336 C1337 1.386 . S
C1336 C1338 1.391 . S
C1337 C1336 1.386 . S
C1337 C1341 1.393 . S
C1338 H1330 0.950 . S
C1338 C1336 1.391 . S
C1338 C1339 1.400 . S
C1339 C1338 1.400 . S
C1339 C1340 1.398 . S
C1339 C1345 1.491 . S
C1340 H1331 0.950 . S
C1340 C1339 1.398 . S
C1340 C1341 1.391 . S
C1341 H1329 0.950 . S
C1341 C1337 1.393 . S
C1341 C1340 1.391 . S
C1342 H1332 0.950 . S
C1342 C1343 1.386 . S
C1342 C1344 1.391 . S
C1343 C1342 1.386 . S
C1343 C1347 1.393 . S
C1344 H1333 0.950 . S
C1344 C1342 1.391 . S
C1344 C1345 1.400 . S
C1345 C1339 1.491 . S
C1345 C1344 1.400 . S
C1345 C1346 1.398 . S
C1346 H1334 0.950 . S
C1346 C1345 1.398 . S
C1346 C1347 1.391 . S
C1347 H1335 0.950 . S
C1347 C1343 1.393 . S
C1347 C1346 1.391 . S
H1348 C1356 0.950 . S
H1349 C1361 0.950 . S
H1350 C1358 0.950 . S
H1351 C1360 0.950 . S
H1352 C1362 0.950 . S
H1353 C1364 0.950 . S
H1354 C1366 0.950 . S
H1355 C1367 0.950 . S
C1356 H1348 0.950 . S
C1356 C1357 1.386 . S
C1356 C1358 1.391 . S
C1357 C1356 1.386 . S
C1357 C1361 1.393 . S
C1358 H1350 0.950 . S
C1358 C1356 1.391 . S
C1358 C1359 1.400 . S
C1359 C1358 1.400 . S
C1359 C1360 1.398 . S
C1359 C1365 1.491 . S
C1360 H1351 0.950 . S
C1360 C1359 1.398 . S
C1360 C1361 1.391 . S
C1361 H1349 0.950 . S
C1361 C1357 1.393 . S
C1361 C1360 1.391 . S
C1362 H1352 0.950 . S
C1362 C1363 1.386 . S
C1362 C1364 1.391 . S
C1363 C1362 1.386 . S
C1363 C1367 1.393 . S
C1364 H1353 0.950 . S
C1364 C1362 1.391 . S
C1364 C1365 1.400 . S
C1365 C1359 1.491 . S
C1365 C1364 1.400 . S
C1365 C1366 1.398 . S
C1366 H1354 0.950 . S
C1366 C1365 1.398 . S
C1366 C1367 1.391 . S
C1367 H1355 0.950 . S
C1367 C1363 1.393 . S
C1367 C1366 1.391 . S
H1368 C1376 0.950 . S
H1369 C1381 0.950 . S
H1370 C1378 0.950 . S
H1371 C1380 0.950 . S
H1372 C1382 0.950 . S
H1373 C1384 0.950 . S
H1374 C1386 0.950 . S
H1375 C1387 0.950 . S
C1376 H1368 0.950 . S
C1376 C1377 1.386 . S
C1376 C1378 1.391 . S
C1377 C1376 1.386 . S
C1377 C1381 1.393 . S
C1378 H1370 0.950 . S
C1378 C1376 1.391 . S
C1378 C1379 1.400 . S
C1379 C1378 1.400 . S
C1379 C1380 1.398 . S
C1379 C1385 1.491 . S
C1380 H1371 0.950 . S
C1380 C1379 1.398 . S
C1380 C1381 1.391 . S
C1381 H1369 0.950 . S
C1381 C1377 1.393 . S
C1381 C1380 1.391 . S
C1382 H1372 0.950 . S
C1382 C1383 1.386 . S
C1382 C1384 1.391 . S
C1383 C1382 1.386 . S
C1383 C1387 1.393 . S
C1384 H1373 0.950 . S
C1384 C1382 1.391 . S
C1384 C1385 1.400 . S
C1385 C1379 1.491 . S
C1385 C1384 1.400 . S
C1385 C1386 1.398 . S
C1386 H1374 0.950 . S
C1386 C1385 1.398 . S
C1386 C1387 1.391 . S
C1387 H1375 0.950 . S
C1387 C1383 1.393 . S
C1387 C1386 1.391 . S
H1388 C1396 0.950 . S
H1389 C1401 0.950 . S
H1390 C1398 0.950 . S
H1391 C1400 0.950 . S
H1392 C1402 0.950 . S
H1393 C1404 0.950 . S
H1394 C1406 0.950 . S
H1395 C1407 0.950 . S
C1396 H1388 0.950 . S
C1396 C1397 1.386 1_655 S
C1396 C1398 1.391 . S
C1397 C1396 1.386 1_455 S
C1397 C1401 1.393 . S
C1398 H1390 0.950 . S
C1398 C1396 1.391 . S
C1398 C1399 1.400 . S
C1399 C1398 1.400 . S
C1399 C1400 1.398 . S
C1399 C1405 1.491 . S
C1400 H1391 0.950 . S
C1400 C1399 1.398 . S
C1400 C1401 1.391 1_655 S
C1401 H1389 0.950 . S
C1401 C1397 1.393 . S
C1401 C1400 1.391 1_455 S
C1402 H1392 0.950 . S
C1402 C1403 1.386 . S
C1402 C1404 1.391 . S
C1403 C1402 1.386 . S
C1403 C1407 1.393 . S
C1404 H1393 0.950 . S
C1404 C1402 1.391 . S
C1404 C1405 1.400 . S
C1405 C1399 1.491 . S
C1405 C1404 1.400 . S
C1405 C1406 1.398 . S
C1406 H1394 0.950 . S
C1406 C1405 1.398 . S
C1406 C1407 1.391 . S
C1407 H1395 0.950 . S
C1407 C1403 1.393 . S
C1407 C1406 1.391 . S
H1408 C1416 0.950 . S
H1409 C1421 0.950 . S
H1410 C1418 0.950 . S
H1411 C1420 0.950 . S
H1412 C1422 0.950 . S
H1413 C1424 0.950 . S
H1414 C1426 0.950 . S
H1415 C1427 0.950 . S
C1416 H1408 0.950 . S
C1416 C1417 1.386 . S
C1416 C1418 1.391 . S
C1417 C1416 1.386 . S
C1417 C1421 1.393 . S
C1418 H1410 0.950 . S
C1418 C1416 1.391 . S
C1418 C1419 1.400 . S
C1419 C1418 1.400 . S
C1419 C1420 1.398 . S
C1419 C1425 1.491 . S
C1420 H1411 0.950 . S
C1420 C1419 1.398 . S
C1420 C1421 1.391 . S
C1421 H1409 0.950 . S
C1421 C1417 1.393 . S
C1421 C1420 1.391 . S
C1422 H1412 0.950 . S
C1422 C1423 1.386 . S
C1422 C1424 1.391 . S
C1423 C1422 1.386 . S
C1423 C1427 1.393 . S
C1424 H1413 0.950 . S
C1424 C1422 1.391 . S
C1424 C1425 1.400 . S
C1425 C1419 1.491 . S
C1425 C1424 1.400 . S
C1425 C1426 1.398 . S
C1426 H1414 0.950 . S
C1426 C1425 1.398 . S
C1426 C1427 1.391 . S
C1427 H1415 0.950 . S
C1427 C1423 1.393 . S
C1427 C1426 1.391 . S
H1428 C1436 0.950 . S
H1429 C1441 0.950 . S
H1430 C1438 0.950 . S
H1431 C1440 0.950 . S
H1432 C1442 0.950 . S
H1433 C1444 0.950 . S
H1434 C1446 0.950 . S
H1435 C1447 0.950 . S
C1436 H1428 0.950 . S
C1436 C1437 1.386 . S
C1436 C1438 1.391 . S
C1437 C1436 1.386 . S
C1437 C1441 1.393 . S
C1438 H1430 0.950 . S
C1438 C1436 1.391 . S
C1438 C1439 1.400 . S
C1439 C1438 1.400 . S
C1439 C1440 1.398 . S
C1439 C1445 1.491 . S
C1440 H1431 0.950 . S
C1440 C1439 1.398 . S
C1440 C1441 1.391 . S
C1441 H1429 0.950 . S
C1441 C1437 1.393 . S
C1441 C1440 1.391 . S
C1442 H1432 0.950 . S
C1442 C1443 1.386 . S
C1442 C1444 1.391 . S
C1443 C1442 1.386 . S
C1443 C1447 1.393 . S
C1444 H1433 0.950 . S
C1444 C1442 1.391 . S
C1444 C1445 1.400 . S
C1445 C1439 1.491 . S
C1445 C1444 1.400 . S
C1445 C1446 1.398 . S
C1446 H1434 0.950 . S
C1446 C1445 1.398 . S
C1446 C1447 1.391 . S
C1447 H1435 0.950 . S
C1447 C1443 1.393 . S
C1447 C1446 1.391 . S
H1448 C1456 0.950 . S
H1449 C1461 0.950 . S
H1450 C1458 0.950 . S
H1451 C1460 0.950 . S
H1452 C1462 0.950 . S
H1453 C1464 0.950 . S
H1454 C1466 0.950 . S
H1455 C1467 0.950 . S
C1456 H1448 0.950 . S
C1456 C1457 1.386 . S
C1456 C1458 1.391 . S
C1457 C1456 1.386 . S
C1457 C1461 1.393 . S
C1458 H1450 0.950 . S
C1458 C1456 1.391 . S
C1458 C1459 1.400 . S
C1459 C1458 1.400 . S
C1459 C1460 1.398 . S
C1459 C1465 1.491 . S
C1460 H1451 0.950 . S
C1460 C1459 1.398 . S
C1460 C1461 1.391 . S
C1461 H1449 0.950 . S
C1461 C1457 1.393 . S
C1461 C1460 1.391 . S
C1462 H1452 0.950 . S
C1462 C1463 1.386 . S
C1462 C1464 1.391 . S
C1463 C1462 1.386 . S
C1463 C1467 1.393 . S
C1464 H1453 0.950 . S
C1464 C1462 1.391 . S
C1464 C1465 1.400 . S
C1465 C1459 1.491 . S
C1465 C1464 1.400 . S
C1465 C1466 1.398 . S
C1466 H1454 0.950 . S
C1466 C1465 1.398 . S
C1466 C1467 1.391 . S
C1467 H1455 0.950 . S
C1467 C1463 1.393 . S
C1467 C1466 1.391 . S
H1468 C1476 0.950 . S
H1469 C1481 0.950 . S
H1470 C1478 0.950 . S
H1471 C1480 0.950 . S
H1472 C1482 0.950 . S
H1473 C1484 0.950 . S
H1474 C1486 0.950 . S
H1475 C1487 0.950 1_455 S
C1476 H1468 0.950 . S
C1476 C1477 1.386 . S
C1476 C1478 1.391 . S
C1477 C1476 1.386 . S
C1477 C1481 1.393 . S
C1478 H1470 0.950 . S
C1478 C1476 1.391 . S
C1478 C1479 1.400 . S
C1479 C1478 1.400 . S
C1479 C1480 1.398 . S
C1479 C1485 1.491 . S
C1480 H1471 0.950 . S
C1480 C1479 1.398 . S
C1480 C1481 1.391 . S
C1481 H1469 0.950 . S
C1481 C1477 1.393 . S
C1481 C1480 1.391 . S
C1482 H1472 0.950 . S
C1482 C1483 1.386 . S
C1482 C1484 1.391 1_455 S
C1483 C1482 1.386 . S
C1483 C1487 1.393 1_455 S
C1484 H1473 0.950 . S
C1484 C1482 1.391 1_655 S
C1484 C1485 1.400 . S
C1485 C1479 1.491 . S
C1485 C1484 1.400 . S
C1485 C1486 1.398 . S
C1486 H1474 0.950 . S
C1486 C1485 1.398 . S
C1486 C1487 1.391 . S
C1487 H1475 0.950 1_655 S
C1487 C1483 1.393 1_655 S
C1487 C1486 1.391 . S
H1488 C1496 0.950 . S
H1489 C1501 0.950 . S
H1490 C1498 0.950 . S
H1491 C1500 0.950 . S
H1492 C1502 0.950 . S
H1493 C1504 0.950 . S
H1494 C1506 0.950 . S
H1495 C1507 0.950 . S
C1496 H1488 0.950 . S
C1496 C1497 1.386 . S
C1496 C1498 1.391 . S
C1497 C1496 1.386 . S
C1497 C1501 1.393 . S
C1498 H1490 0.950 . S
C1498 C1496 1.391 . S
C1498 C1499 1.400 . S
C1499 C1498 1.400 . S
C1499 C1500 1.398 . S
C1499 C1505 1.491 . S
C1500 H1491 0.950 . S
C1500 C1499 1.398 . S
C1500 C1501 1.391 . S
C1501 H1489 0.950 . S
C1501 C1497 1.393 . S
C1501 C1500 1.391 . S
C1502 H1492 0.950 . S
C1502 C1503 1.386 . S
C1502 C1504 1.391 . S
C1503 C1502 1.386 . S
C1503 C1507 1.393 . S
C1504 H1493 0.950 . S
C1504 C1502 1.391 . S
C1504 C1505 1.400 . S
C1505 C1499 1.491 . S
C1505 C1504 1.400 . S
C1505 C1506 1.398 . S
C1506 H1494 0.950 . S
C1506 C1505 1.398 . S
C1506 C1507 1.391 . S
C1507 H1495 0.950 . S
C1507 C1503 1.393 . S
C1507 C1506 1.391 . S
H1508 C1516 0.950 . S
H1509 C1521 0.950 . S
H1510 C1518 0.950 . S
H1511 C1520 0.950 . S
H1512 C1522 0.950 . S
H1513 C1524 0.950 . S
H1514 C1526 0.950 . S
H1515 C1527 0.950 . S
C1516 H1508 0.950 . S
C1516 C1517 1.386 . S
C1516 C1518 1.391 1_455 S
C1517 C1516 1.386 . S
C1517 C1521 1.393 . S
C1518 H1510 0.950 . S
C1518 C1516 1.391 1_655 S
C1518 C1519 1.400 . S
C1519 C1518 1.400 . S
C1519 C1520 1.398 . S
C1519 C1525 1.491 . S
C1520 H1511 0.950 . S
C1520 C1519 1.398 . S
C1520 C1521 1.391 1_655 S
C1521 H1509 0.950 . S
C1521 C1517 1.393 . S
C1521 C1520 1.391 1_455 S
C1522 H1512 0.950 . S
C1522 C1523 1.386 . S
C1522 C1524 1.391 . S
C1523 C1522 1.386 . S
C1523 C1527 1.393 . S
C1524 H1513 0.950 . S
C1524 C1522 1.391 . S
C1524 C1525 1.400 . S
C1525 C1519 1.491 . S
C1525 C1524 1.400 . S
C1525 C1526 1.398 . S
C1526 H1514 0.950 . S
C1526 C1525 1.398 . S
C1526 C1527 1.391 . S
C1527 H1515 0.950 . S
C1527 C1523 1.393 . S
C1527 C1526 1.391 . S
H1528 C1536 0.950 . S
H1529 C1541 0.950 . S
H1530 C1538 0.950 . S
H1531 C1540 0.950 . S
H1532 C1542 0.950 . S
H1533 C1544 0.950 . S
H1534 C1546 0.950 . S
H1535 C1547 0.950 . S
C1536 H1528 0.950 . S
C1536 C1537 1.386 . S
C1536 C1538 1.391 . S
C1537 C1536 1.386 . S
C1537 C1541 1.393 . S
C1538 H1530 0.950 . S
C1538 C1536 1.391 . S
C1538 C1539 1.400 . S
C1539 C1538 1.400 . S
C1539 C1540 1.398 . S
C1539 C1545 1.491 . S
C1540 H1531 0.950 . S
C1540 C1539 1.398 . S
C1540 C1541 1.391 . S
C1541 H1529 0.950 . S
C1541 C1537 1.393 . S
C1541 C1540 1.391 . S
C1542 H1532 0.950 . S
C1542 C1543 1.386 . S
C1542 C1544 1.391 . S
C1543 C1542 1.386 . S
C1543 C1547 1.393 . S
C1544 H1533 0.950 . S
C1544 C1542 1.391 . S
C1544 C1545 1.400 . S
C1545 C1539 1.491 . S
C1545 C1544 1.400 . S
C1545 C1546 1.398 . S
C1546 H1534 0.950 . S
C1546 C1545 1.398 . S
C1546 C1547 1.391 . S
C1547 H1535 0.950 . S
C1547 C1543 1.393 . S
C1547 C1546 1.391 . S
H1548 C1556 0.950 . S
H1549 C1561 0.950 . S
H1550 C1558 0.950 . S
H1551 C1560 0.950 . S
H1552 C1562 0.950 . S
H1553 C1564 0.950 . S
H1554 C1566 0.950 . S
H1555 C1567 0.950 . S
C1556 H1548 0.950 . S
C1556 C1557 1.386 . S
C1556 C1558 1.391 . S
C1557 C1556 1.386 . S
C1557 C1561 1.393 . S
C1558 H1550 0.950 . S
C1558 C1556 1.391 . S
C1558 C1559 1.400 . S
C1559 C1558 1.400 . S
C1559 C1560 1.398 . S
C1559 C1565 1.491 . S
C1560 H1551 0.950 . S
C1560 C1559 1.398 . S
C1560 C1561 1.391 . S
C1561 H1549 0.950 . S
C1561 C1557 1.393 . S
C1561 C1560 1.391 . S
C1562 H1552 0.950 . S
C1562 C1563 1.386 . S
C1562 C1564 1.391 . S
C1563 C1562 1.386 . S
C1563 C1567 1.393 . S
C1564 H1553 0.950 . S
C1564 C1562 1.391 . S
C1564 C1565 1.400 . S
C1565 C1559 1.491 . S
C1565 C1564 1.400 . S
C1565 C1566 1.398 . S
C1566 H1554 0.950 . S
C1566 C1565 1.398 . S
C1566 C1567 1.391 . S
C1567 H1555 0.950 . S
C1567 C1563 1.393 . S
C1567 C1566 1.391 . S
H1568 C1576 0.950 . S
H1569 C1581 0.950 . S
H1570 C1578 0.950 . S
H1571 C1580 0.950 . S
H1572 C1582 0.950 . S
H1573 C1584 0.950 . S
H1574 C1586 0.950 . S
H1575 C1587 0.950 . S
C1576 H1568 0.950 . S
C1576 C1577 1.386 . S
C1576 C1578 1.391 . S
C1577 C1576 1.386 . S
C1577 C1581 1.393 . S
C1578 H1570 0.950 . S
C1578 C1576 1.391 . S
C1578 C1579 1.400 . S
C1579 C1578 1.400 . S
C1579 C1580 1.398 . S
C1579 C1585 1.491 . S
C1580 H1571 0.950 . S
C1580 C1579 1.398 . S
C1580 C1581 1.391 . S
C1581 H1569 0.950 . S
C1581 C1577 1.393 . S
C1581 C1580 1.391 . S
C1582 H1572 0.950 . S
C1582 C1583 1.386 . S
C1582 C1584 1.391 . S
C1583 C1582 1.386 . S
C1583 C1587 1.393 . S
C1584 H1573 0.950 . S
C1584 C1582 1.391 . S
C1584 C1585 1.400 . S
C1585 C1579 1.491 . S
C1585 C1584 1.400 . S
C1585 C1586 1.398 . S
C1586 H1574 0.950 . S
C1586 C1585 1.398 . S
C1586 C1587 1.391 . S
C1587 H1575 0.950 . S
C1587 C1583 1.393 . S
C1587 C1586 1.391 . S
H1588 C1596 0.950 . S
H1589 C1601 0.950 . S
H1590 C1598 0.950 . S
H1591 C1600 0.950 . S
H1592 C1602 0.950 . S
H1593 C1604 0.950 . S
H1594 C1606 0.950 . S
H1595 C1607 0.950 . S
C1596 H1588 0.950 . S
C1596 C1597 1.386 . S
C1596 C1598 1.391 . S
C1597 C1596 1.386 . S
C1597 C1601 1.393 . S
C1598 H1590 0.950 . S
C1598 C1596 1.391 . S
C1598 C1599 1.400 . S
C1599 C1598 1.400 . S
C1599 C1600 1.398 . S
C1599 C1605 1.491 . S
C1600 H1591 0.950 . S
C1600 C1599 1.398 . S
C1600 C1601 1.391 . S
C1601 H1589 0.950 . S
C1601 C1597 1.393 . S
C1601 C1600 1.391 . S
C1602 H1592 0.950 . S
C1602 C1603 1.386 . S
C1602 C1604 1.391 . S
C1603 C1602 1.386 . S
C1603 C1607 1.393 . S
C1604 H1593 0.950 . S
C1604 C1602 1.391 . S
C1604 C1605 1.400 . S
C1605 C1599 1.491 . S
C1605 C1604 1.400 . S
C1605 C1606 1.398 . S
C1606 H1594 0.950 . S
C1606 C1605 1.398 . S
C1606 C1607 1.391 . S
C1607 H1595 0.950 . S
C1607 C1603 1.393 . S
C1607 C1606 1.391 . S
H1608 C1616 0.950 . S
H1609 C1621 0.950 . S
H1610 C1618 0.950 . S
H1611 C1620 0.950 . S
H1612 C1622 0.950 . S
H1613 C1624 0.950 . S
H1614 C1626 0.950 . S
H1615 C1627 0.950 . S
C1616 H1608 0.950 . S
C1616 C1617 1.386 . S
C1616 C1618 1.391 . S
C1617 C1616 1.386 . S
C1617 C1621 1.393 . S
C1618 H1610 0.950 . S
C1618 C1616 1.391 . S
C1618 C1619 1.400 . S
C1619 C1618 1.400 . S
C1619 C1620 1.398 . S
C1619 C1625 1.491 . S
C1620 H1611 0.950 . S
C1620 C1619 1.398 . S
C1620 C1621 1.391 . S
C1621 H1609 0.950 . S
C1621 C1617 1.393 . S
C1621 C1620 1.391 . S
C1622 H1612 0.950 . S
C1622 C1623 1.386 . S
C1622 C1624 1.391 . S
C1623 C1622 1.386 . S
C1623 C1627 1.393 . S
C1624 H1613 0.950 . S
C1624 C1622 1.391 . S
C1624 C1625 1.400 . S
C1625 C1619 1.491 . S
C1625 C1624 1.400 . S
C1625 C1626 1.398 . S
C1626 H1614 0.950 . S
C1626 C1625 1.398 . S
C1626 C1627 1.391 . S
C1627 H1615 0.950 . S
C1627 C1623 1.393 . S
C1627 C1626 1.391 . S
H1628 C1636 0.950 . S
H1629 C1641 0.950 . S
H1630 C1638 0.950 . S
H1631 C1640 0.950 . S
H1632 C1642 0.950 . S
H1633 C1644 0.950 . S
H1634 C1646 0.950 . S
H1635 C1647 0.950 . S
C1636 H1628 0.950 . S
C1636 C1637 1.386 . S
C1636 C1638 1.391 1_655 S
C1637 C1636 1.386 . S
C1637 C1641 1.393 1_655 S
C1638 H1630 0.950 . S
C1638 C1636 1.391 1_455 S
C1638 C1639 1.400 . S
C1639 C1638 1.400 . S
C1639 C1640 1.398 . S
C1639 C1645 1.491 . S
C1640 H1631 0.950 . S
C1640 C1639 1.398 . S
C1640 C1641 1.391 . S
C1641 H1629 0.950 . S
C1641 C1637 1.393 1_455 S
C1641 C1640 1.391 . S
C1642 H1632 0.950 . S
C1642 C1643 1.386 . S
C1642 C1644 1.391 . S
C1643 C1642 1.386 . S
C1643 C1647 1.393 . S
C1644 H1633 0.950 . S
C1644 C1642 1.391 . S
C1644 C1645 1.400 . S
C1645 C1639 1.491 . S
C1645 C1644 1.400 . S
C1645 C1646 1.398 . S
C1646 H1634 0.950 . S
C1646 C1645 1.398 . S
C1646 C1647 1.391 . S
C1647 H1635 0.950 . S
C1647 C1643 1.393 . S
C1647 C1646 1.391 . S
H1648 C1656 0.950 . S
H1649 C1661 0.950 . S
H1650 C1658 0.950 . S
H1651 C1660 0.950 . S
H1652 C1662 0.950 . S
H1653 C1664 0.950 . S
H1654 C1666 0.950 . S
H1655 C1667 0.950 . S
C1656 H1648 0.950 . S
C1656 C1657 1.386 . S
C1656 C1658 1.391 . S
C1657 C1656 1.386 . S
C1657 C1661 1.393 . S
C1658 H1650 0.950 . S
C1658 C1656 1.391 . S
C1658 C1659 1.400 . S
C1659 C1658 1.400 . S
C1659 C1660 1.398 . S
C1659 C1665 1.491 . S
C1660 H1651 0.950 . S
C1660 C1659 1.398 . S
C1660 C1661 1.391 . S
C1661 H1649 0.950 . S
C1661 C1657 1.393 . S
C1661 C1660 1.391 . S
C1662 H1652 0.950 . S
C1662 C1663 1.386 . S
C1662 C1664 1.391 . S
C1663 C1662 1.386 . S
C1663 C1667 1.393 . S
C1664 H1653 0.950 . S
C1664 C1662 1.391 . S
C1664 C1665 1.400 . S
C1665 C1659 1.491 . S
C1665 C1664 1.400 . S
C1665 C1666 1.398 . S
C1666 H1654 0.950 . S
C1666 C1665 1.398 . S
C1666 C1667 1.391 . S
C1667 H1655 0.950 . S
C1667 C1663 1.393 . S
C1667 C1666 1.391 . S
H1668 C1676 0.950 . S
H1669 C1681 0.950 . S
H1670 C1678 0.950 . S
H1671 C1680 0.950 . S
H1672 C1682 0.950 . S
H1673 C1684 0.950 . S
H1674 C1686 0.950 . S
H1675 C1687 0.950 . S
C1676 H1668 0.950 . S
C1676 C1677 1.386 . S
C1676 C1678 1.391 . S
C1677 C1676 1.386 . S
C1677 C1681 1.393 . S
C1678 H1670 0.950 . S
C1678 C1676 1.391 . S
C1678 C1679 1.400 . S
C1679 C1678 1.400 . S
C1679 C1680 1.398 . S
C1679 C1685 1.491 . S
C1680 H1671 0.950 . S
C1680 C1679 1.398 . S
C1680 C1681 1.391 . S
C1681 H1669 0.950 . S
C1681 C1677 1.393 . S
C1681 C1680 1.391 . S
C1682 H1672 0.950 . S
C1682 C1683 1.386 1_455 S
C1682 C1684 1.391 . S
C1683 C1682 1.386 1_655 S
C1683 C1687 1.393 . S
C1684 H1673 0.950 . S
C1684 C1682 1.391 . S
C1684 C1685 1.400 . S
C1685 C1679 1.491 . S
C1685 C1684 1.400 . S
C1685 C1686 1.398 . S
C1686 H1674 0.950 . S
C1686 C1685 1.398 . S
C1686 C1687 1.391 1_455 S
C1687 H1675 0.950 . S
C1687 C1683 1.393 . S
C1687 C1686 1.391 1_655 S
H1688 C1696 0.950 . S
H1689 C1701 0.950 . S
H1690 C1698 0.950 . S
H1691 C1700 0.950 . S
H1692 C1702 0.950 . S
H1693 C1704 0.950 . S
H1694 C1706 0.950 . S
H1695 C1707 0.950 . S
C1696 H1688 0.950 . S
C1696 C1697 1.386 . S
C1696 C1698 1.391 . S
C1697 C1696 1.386 . S
C1697 C1701 1.393 . S
C1698 H1690 0.950 . S
C1698 C1696 1.391 . S
C1698 C1699 1.400 . S
C1699 C1698 1.400 . S
C1699 C1700 1.398 . S
C1699 C1705 1.491 . S
C1700 H1691 0.950 . S
C1700 C1699 1.398 . S
C1700 C1701 1.391 . S
C1701 H1689 0.950 . S
C1701 C1697 1.393 . S
C1701 C1700 1.391 . S
C1702 H1692 0.950 . S
C1702 C1703 1.386 . S
C1702 C1704 1.391 . S
C1703 C1702 1.386 . S
C1703 C1707 1.393 . S
C1704 H1693 0.950 . S
C1704 C1702 1.391 . S
C1704 C1705 1.400 . S
C1705 C1699 1.491 . S
C1705 C1704 1.400 . S
C1705 C1706 1.398 . S
C1706 H1694 0.950 . S
C1706 C1705 1.398 . S
C1706 C1707 1.391 . S
C1707 H1695 0.950 . S
C1707 C1703 1.393 . S
C1707 C1706 1.391 . S
H1708 C1716 0.950 . S
H1709 C1721 0.950 . S
H1710 C1718 0.950 . S
H1711 C1720 0.950 . S
H1712 C1722 0.950 . S
H1713 C1724 0.950 . S
H1714 C1726 0.950 . S
H1715 C1727 0.950 . S
C1716 H1708 0.950 . S
C1716 C1717 1.386 . S
C1716 C1718 1.391 . S
C1717 C1716 1.386 . S
C1717 C1721 1.393 . S
C1718 H1710 0.950 . S
C1718 C1716 1.391 . S
C1718 C1719 1.400 . S
C1719 C1718 1.400 . S
C1719 C1720 1.398 . S
C1719 C1725 1.491 . S
C1720 H1711 0.950 . S
C1720 C1719 1.398 . S
C1720 C1721 1.391 . S
C1721 H1709 0.950 . S
C1721 C1717 1.393 . S
C1721 C1720 1.391 . S
C1722 H1712 0.950 . S
C1722 C1723 1.386 . S
C1722 C1724 1.391 . S
C1723 C1722 1.386 . S
C1723 C1727 1.393 . S
C1724 H1713 0.950 . S
C1724 C1722 1.391 . S
C1724 C1725 1.400 . S
C1725 C1719 1.491 . S
C1725 C1724 1.400 . S
C1725 C1726 1.398 . S
C1726 H1714 0.950 . S
C1726 C1725 1.398 . S
C1726 C1727 1.391 . S
C1727 H1715 0.950 . S
C1727 C1723 1.393 . S
C1727 C1726 1.391 . S
C457 C64 1.511 . S
C463 C8 1.509 . S
C477 C78 1.511 . S
C483 C22 1.509 . S
C497 C92 1.509 . S
C503 C36 1.509 . S
C517 C50 1.518 . S
C523 C106 1.517 . S
C537 C120 1.511 . S
C543 C176 1.509 . S
C557 C190 1.516 . S
C563 C134 1.513 . S
C577 C148 1.510 . S
C583 C204 1.513 . S
C597 C218 1.509 . S
C603 C162 1.512 . S
C617 C232 1.509 . S
C623 C288 1.511 . S
C637 C302 1.513 . S
C643 C246 1.516 . S
C657 C316 1.509 . S
C663 C260 1.510 . S
C677 C330 1.510 . S
C683 C274 1.512 . S
C697 C344 1.515 . S
C703 C400 1.517 . S
C717 C358 1.509 . S
C723 C414 1.511 . S
C737 C372 1.509 . S
C743 C428 1.511 . S
C757 C386 1.509 . S
C763 C442 1.511 . S
C777 C7 1.270 . S
C783 C105 1.259 . S
C797 C21 1.265 . S
C803 C63 1.273 . S
C817 C35 1.272 . S
C823 C77 1.257 . S
C837 C91 1.269 . S
C843 C49 1.270 . S
C857 C217 1.254 . S
C863 C119 1.284 . S
C877 C175 1.281 . S
C883 C133 1.254 . S
C897 C189 1.266 . S
C903 C147 1.274 . S
C917 C161 1.257 . S
C923 C203 1.255 . S
C937 C329 1.268 . S
C943 C231 1.266 . S
C957 C287 1.254 . S
C963 C245 1.255 . S
C977 C301 1.270 . S
C983 C259 1.271 . S
C997 C273 1.271 . S
C1003 C315 1.270 . S
C1017 C343 1.258 . S
C1023 C441 1.260 . S
C1037 C357 1.268 . S
C1043 C399 1.270 . S
C1057 C371 1.258 . S
C1063 C413 1.256 . S
C1077 C427 1.270 . S
C1083 C385 1.271 . S
C1097 C9 1.445 . S
C1103 C353 1.459 . S
C1117 C23 1.451 . S
C1123 C143 1.460 . S
C1137 C37 1.447 . S
C1143 C381 1.456 . S
C1157 C115 1.459 . S
C1163 C51 1.445 . S
C1177 C437 1.450 . S
C1183 C65 1.458 . S
C1197 C79 1.456 . S
C1203 C171 1.455 . S
C1217 C93 1.446 . S
C1223 C409 1.457 . S
C1237 C107 1.458 . S
C1243 C199 1.451 . S
C1257 C241 1.450 . S
C1263 C121 1.455 . S
C1277 C31 1.454 . S
C1283 C135 1.448 . S
C1297 C269 1.459 . S
C1303 C149 1.445 . S
C1317 C163 1.456 . S
C1323 C3 1.450 . S
C1337 C325 1.459 . S
C1343 C177 1.452 . S
C1357 C59 1.460 . S
C1363 C191 1.450 . S
C1377 C297 1.451 . S
C1383 C205 1.452 . S
C1397 C87 1.461 . S
C1403 C219 1.445 . S
C1417 C129 1.450 . S
C1423 C233 1.455 . S
C1437 C247 1.449 . S
C1443 C367 1.454 . S
C1457 C261 1.452 . S
C1463 C157 1.452 . S
C1477 C275 1.454 . S
C1483 C339 1.458 . S
C1497 C289 1.446 . S
C1503 C213 1.456 . S
C1517 C395 1.458 . S
C1523 C303 1.453 . S
C1537 C317 1.445 . S
C1543 C185 1.460 . S
C1557 C331 1.458 . S
C1563 C423 1.453 . S
C1577 C345 1.451 . S
C1583 C17 1.453 . S
C1597 C359 1.458 . S
C1603 C255 1.452 . S
C1617 C45 1.451 . S
C1623 C373 1.458 . S
C1637 C227 1.453 . S
C1643 C387 1.458 . S
C1657 C401 1.457 . S
C1663 C101 1.450 . S
C1677 C415 1.457 . S
C1683 C283 1.453 . S
C1697 C73 1.452 . S
C1703 C429 1.451 . S
C1717 C311 1.453 . S
C1723 C443 1.458 . S
