# Generated by pormake.
# Topology zfu, (5)-cn, num edge types: 1
# Building blocks:
#     Node 0, Type 0, BuildingBlock: XOMCOT_clean_sbu_1, # of connection points: 5
#     Node 1, Type 0, BuildingBlock: XOMCOT_clean_sbu_1, # of connection points: 5
#     Node 2, Type 0, BuildingBlock: XOMCOT_clean_sbu_1, # of connection points: 5
#     Node 3, Type 0, BuildingBlock: XOMCOT_clean_sbu_1, # of connection points: 5
#     Node 4, Type 0, BuildingBlock: XOMCOT_clean_sbu_1, # of connection points: 5
#     Node 5, Type 0, BuildingBlock: XOMCOT_clean_sbu_1, # of connection points: 5
#     Node 6, Type 0, BuildingBlock: XOMCOT_clean_sbu_1, # of connection points: 5
#     Node 7, Type 0, BuildingBlock: XOMCOT_clean_sbu_1, # of connection points: 5
#     Edge 8, Type (0, 0), BuildingBlock: CIFDUS_clean_linker_0, # of connection points: 2
#     Edge 9, Type (0, 0), BuildingBlock: CIFDUS_clean_linker_0, # of connection points: 2
#     Edge 10, Type (0, 0), BuildingBlock: CIFDUS_clean_linker_0, # of connection points: 2
#     Edge 11, Type (0, 0), BuildingBlock: CIFDUS_clean_linker_0, # of connection points: 2
#     Edge 12, Type (0, 0), BuildingBlock: CIFDUS_clean_linker_0, # of connection points: 2
#     Edge 13, Type (0, 0), BuildingBlock: CIFDUS_clean_linker_0, # of connection points: 2
#     Edge 14, Type (0, 0), BuildingBlock: CIFDUS_clean_linker_0, # of connection points: 2
#     Edge 15, Type (0, 0), BuildingBlock: CIFDUS_clean_linker_0, # of connection points: 2
#     Edge 16, Type (0, 0), BuildingBlock: CIFDUS_clean_linker_0, # of connection points: 2
#     Edge 17, Type (0, 0), BuildingBlock: CIFDUS_clean_linker_0, # of connection points: 2
#     Edge 18, Type (0, 0), BuildingBlock: CIFDUS_clean_linker_0, # of connection points: 2
#     Edge 19, Type (0, 0), BuildingBlock: CIFDUS_clean_linker_0, # of connection points: 2
#     Edge 20, Type (0, 0), BuildingBlock: CIFDUS_clean_linker_0, # of connection points: 2
#     Edge 21, Type (0, 0), BuildingBlock: CIFDUS_clean_linker_0, # of connection points: 2
#     Edge 22, Type (0, 0), BuildingBlock: CIFDUS_clean_linker_0, # of connection points: 2
#     Edge 23, Type (0, 0), BuildingBlock: CIFDUS_clean_linker_0, # of connection points: 2
#     Edge 24, Type (0, 0), BuildingBlock: CIFDUS_clean_linker_0, # of connection points: 2
#     Edge 25, Type (0, 0), BuildingBlock: CIFDUS_clean_linker_0, # of connection points: 2
#     Edge 26, Type (0, 0), BuildingBlock: CIFDUS_clean_linker_0, # of connection points: 2
#     Edge 27, Type (0, 0), BuildingBlock: CIFDUS_clean_linker_0, # of connection points: 2
# Relax obj value: 0.131
# Max RMSD: 0.160
# Mean RMSD: 0.160
data_MOF--net-zfu--node1-XOMCOT_clean_sbu_1--edge1-CIFDUS_clean_linker_0
_symmetry_space_group_name_H-M    P1
_symmetry_Int_Tables_number       1
_symmetry_cell_setting            triclinic
loop_
_symmetry_equiv_pos_as_xyz
'x, y, z'
_cell_length_a     34.026206
_cell_length_b     34.662209
_cell_length_c     24.153807
_cell_angle_alpha  89.418542
_cell_angle_beta   90.062747
_cell_angle_gamma 90.393794
loop_
_atom_site_label
_atom_site_type_symbol
_atom_site_fract_x
_atom_site_fract_y
_atom_site_fract_z
_atom_type_partial_charge
C0 C 0.45032 0.69977 0.03225 0.0
C1 C 0.46864 0.66638 0.04863 0.0
N2 N 0.50494 0.66615 0.02655 0.0
N3 N 0.47497 0.72093 0.00017 0.0
C4 C 0.50823 0.69972 -0.0022 0.0
H5 H 0.41988 0.70666 0.03977 0.0
Co6 Co 0.46 0.76285 0.95435 0.0
C7 C 0.51667 0.82458 0.97972 0.0
O8 O 0.48616 0.84739 0.98208 0.0
N9 N 0.44432 0.80474 0.90506 0.0
C10 C 0.43746 0.8395 0.82689 0.0
C11 C 0.45415 0.80737 0.85074 0.0
C12 C 0.42172 0.83657 0.91267 0.0
N13 N 0.41712 0.85798 0.86595 0.0
O14 O 0.47981 0.73507 0.89258 0.0
H15 H 0.47291 0.78765 0.82899 0.0
H16 H 0.40949 0.84484 0.952 0.0
O17 O 0.51142 0.78874 0.9691 0.0
C18 C 0.45205 0.71106 0.88268 0.0
O19 O 0.42028 0.71228 0.91357 0.0
N20 N 0.43555 0.78532 0.0152 0.0
C21 C 0.38888 0.7774 0.10935 0.0
C22 C 0.42973 0.78363 0.11403 0.0
C23 C 0.45263 0.78786 0.06622 0.0
C24 C 0.3957 0.78292 0.01024 0.0
C25 C 0.37176 0.78054 0.05672 0.0
H26 H 0.48425 0.78718 0.07036 0.0
H27 H 0.38255 0.77852 0.97 0.0
H28 H 0.53284 0.70696 0.9712 0.0
H29 H 0.45541 0.64295 0.07221 0.0
H30 H 0.44125 0.84929 0.78451 0.0
H31 H 0.44461 0.78099 0.15349 0.0
H32 H 0.34039 0.77715 0.05084 0.0
C33 C 0.88404 0.9307 0.25392 0.0
C34 C 0.91839 0.95112 0.26168 0.0
N35 N 0.913 0.98759 0.24341 0.0
N36 N 0.85698 0.95412 0.23088 0.0
C37 C 0.87549 0.98862 0.22498 0.0
H38 H 0.87921 0.9005 0.26359 0.0
Co39 Co 0.80633 0.93951 0.20751 0.0
C40 C 0.77731 1.02324 0.20951 0.0
O41 O 0.78212 0.03191 0.15689 0.0
N42 N 0.7552 0.92543 0.1839 0.0
C43 C 0.68989 0.92348 0.17909 0.0
C44 C 0.72166 0.9389 0.20626 0.0
C45 C 0.74287 0.901 0.14373 0.0
N46 N 0.70318 0.89959 0.13998 0.0
O47 O 0.82048 0.95408 0.13351 0.0
H48 H 0.72019 0.9586 0.24059 0.0
H49 H 0.76244 0.885 0.11734 0.0
O50 O 0.78672 0.98992 0.22784 0.0
C51 C 0.84023 0.92437 0.11965 0.0
O52 O 0.84092 0.89464 0.15391 0.0
N53 N 0.79543 0.92071 0.27825 0.0
C54 C 0.80071 0.88159 0.37894 0.0
C55 C 0.805 0.9219 0.37642 0.0
C56 C 0.80257 0.94097 0.32537 0.0
C57 C 0.78873 0.88193 0.28045 0.0
C58 C 0.79094 0.86179 0.33052 0.0
H59 H 0.8102 0.97125 0.3231 0.0
H60 H 0.78455 0.86605 0.24257 0.0
H61 H 0.86224 1.0136 0.20553 0.0
H62 H 0.94535 0.93991 0.27917 0.0
H63 H 0.65923 0.9291 0.18763 0.0
H64 H 0.81342 0.93815 0.41267 0.0
H65 H 0.78728 0.83072 0.3308 0.0
C66 C 0.63128 0.35641 0.51199 0.0
C67 C 0.6104 0.39001 0.51848 0.0
N68 N 0.57689 0.38692 0.48921 0.0
N69 N 0.61043 0.33197 0.47989 0.0
C70 C 0.57767 0.3517 0.46614 0.0
H71 H 0.66007 0.35044 0.5289 0.0
Co72 Co 0.6245 0.28279 0.45413 0.0
C73 C 0.53708 0.25739 0.46036 0.0
O74 O 0.52471 0.26902 0.4115 0.0
N75 N 0.63773 0.23342 0.42795 0.0
C76 C 0.641 0.16958 0.42301 0.0
C77 C 0.62494 0.19995 0.45072 0.0
C78 C 0.66185 0.22251 0.3863 0.0
N79 N 0.66451 0.18359 0.38256 0.0
O80 O 0.61032 0.29926 0.38102 0.0
H81 H 0.60559 0.19759 0.48602 0.0
H82 H 0.6779 0.24265 0.3602 0.0
O83 O 0.57278 0.263 0.4746 0.0
C84 C 0.64167 0.31861 0.36998 0.0
O85 O 0.67141 0.31617 0.40468 0.0
N86 N 0.64378 0.26988 0.5239 0.0
C87 C 0.68685 0.28443 0.61896 0.0
C88 C 0.64552 0.28422 0.62052 0.0
C89 C 0.62431 0.27665 0.57216 0.0
C90 C 0.68349 0.26524 0.52347 0.0
C91 C 0.70562 0.27198 0.57084 0.0
H92 H 0.59299 0.28161 0.57188 0.0
H93 H 0.6986 0.26065 0.48477 0.0
H94 H 0.55502 0.34074 0.43892 0.0
H95 H 0.61967 0.41523 0.54124 0.0
H96 H 0.63552 0.1394 0.43211 0.0
H97 H 0.62984 0.29384 0.65678 0.0
H98 H 0.73737 0.27088 0.5683 0.0
C99 C 0.19479 0.1227 0.78273 0.0
C100 C 0.16285 0.09937 0.79356 0.0
N101 N 0.17008 0.06434 0.77266 0.0
N102 N 0.22252 0.10225 0.75619 0.0
C103 C 0.20628 0.06678 0.74979 0.0
H104 H 0.19779 0.1527 0.79398 0.0
Co105 Co 0.27197 0.12198 0.73438 0.0
C106 C 0.32455 0.06008 0.77954 0.0
O107 O 0.34352 0.08602 0.80845 0.0
N108 N 0.32239 0.14273 0.71112 0.0
C109 C 0.38257 0.16889 0.71287 0.0
C110 C 0.35225 0.1546 0.74412 0.0
C111 C 0.3359 0.15092 0.65912 0.0
N112 N 0.37259 0.16661 0.65919 0.0
O113 O 0.25902 0.10957 0.65957 0.0
H114 H 0.35226 0.15429 0.78877 0.0
H115 H 0.31925 0.14565 0.62176 0.0
O116 O 0.29596 0.07033 0.74807 0.0
C117 C 0.23639 0.13744 0.64603 0.0
O118 O 0.23251 0.16605 0.68091 0.0
N119 N 0.27961 0.13887 0.8071 0.0
C120 C 0.26579 0.17529 0.90756 0.0
C121 C 0.26653 0.13481 0.90457 0.0
C122 C 0.27302 0.1171 0.85368 0.0
C123 C 0.27962 0.17816 0.80967 0.0
C124 C 0.27381 0.19691 0.85957 0.0
H125 H 0.26926 0.08619 0.85089 0.0
H126 H 0.28205 0.19515 0.772 0.0
H127 H 0.2208 0.04313 0.72944 0.0
H128 H 0.13612 0.10755 0.81456 0.0
H129 H 0.4095 0.18132 0.72885 0.0
H130 H 0.25926 0.11698 0.94023 0.0
H131 H 0.27368 0.22814 0.85988 0.0
C132 C 0.96426 0.85881 0.7083 0.0
C133 C 0.98323 0.89297 0.69558 0.0
N134 N 1.01152 0.89892 0.73361 0.0
N135 N 0.9812 0.84257 0.75339 0.0
C136 C 1.00889 0.86862 0.76904 0.0
H137 H 0.94029 0.84634 0.68504 0.0
Co138 Co 0.97031 0.79392 0.78737 0.0
C139 C 0.05421 0.78673 0.74405 0.0
O140 O 0.0506 0.81635 0.71018 0.0
N141 N 0.95938 0.74597 0.82195 0.0
C142 C 0.96148 0.68382 0.8457 0.0
C143 C 0.97927 0.71276 0.81536 0.0
C144 C 0.92919 0.73624 0.85599 0.0
N145 N 0.92985 0.69848 0.87121 0.0
O146 O 0.98117 0.81604 0.85823 0.0
H147 H 1.00426 0.70912 0.78844 0.0
H148 H 0.90668 0.75628 0.8684 0.0
O149 O 1.02554 0.77692 0.77583 0.0
C150 C 0.95001 0.83544 0.86768 0.0
O151 O 0.92164 0.83461 0.83068 0.0
N152 N 0.9532 0.77377 0.71985 0.0
C153 C 0.91039 0.77053 0.622 0.0
C154 C 0.95159 0.76775 0.62115 0.0
C155 C 0.97263 0.76901 0.67097 0.0
C156 C 0.91324 0.77157 0.72158 0.0
C157 C 0.89125 0.76934 0.67326 0.0
H158 H 1.0041 0.76941 0.66896 0.0
H159 H 0.89811 0.7753 0.76045 0.0
H160 H 1.02889 0.86389 0.80329 0.0
H161 H 0.97721 0.91162 0.6604 0.0
H162 H 0.96999 0.65378 0.84652 0.0
H163 H 0.96761 0.76815 0.58244 0.0
H164 H 0.85949 0.77021 0.67596 0.0
C165 C 0.70096 0.45527 0.98765 0.0
C166 C 0.66772 0.47769 0.98355 0.0
N167 N 0.67209 0.5081 0.01733 0.0
N168 N 0.72652 0.47182 0.02319 0.0
C169 C 0.70732 0.50316 0.042 0.0
H170 H 0.7061 0.42864 0.96594 0.0
Co171 Co 0.77624 0.45397 0.04785 0.0
C172 C 0.79379 0.53562 0.003 0.0
O173 O 0.76066 0.53802 0.9754 0.0
N174 N 0.82562 0.43644 0.07377 0.0
C175 C 0.89022 0.42714 0.07886 0.0
C176 C 0.86056 0.44517 0.05009 0.0
C177 C 0.83484 0.41257 0.11672 0.0
N178 N 0.87399 0.40666 0.12052 0.0
O179 O 0.76128 0.46643 0.12204 0.0
H180 H 0.86421 0.46299 0.01345 0.0
H181 H 0.81343 0.39964 0.14444 0.0
O182 O 0.80152 0.50521 0.03184 0.0
C183 C 0.73917 0.43695 0.13167 0.0
O184 O 0.73688 0.40998 0.09385 0.0
N185 N 0.7875 0.43475 0.97751 0.0
C186 C 0.77414 0.38935 0.8852 0.0
C187 C 0.77729 0.42966 0.87959 0.0
C188 C 0.78425 0.4521 0.92671 0.0
C189 C 0.78876 0.39554 0.98204 0.0
C190 C 0.78277 0.37235 0.93639 0.0
H191 H 0.78298 0.48294 0.92265 0.0
H192 H 0.7905 0.38185 0.02233 0.0
H193 H 0.71959 0.52271 0.07222 0.0
H194 H 0.64279 0.47258 0.95666 0.0
H195 H 0.92133 0.42856 0.06961 0.0
H196 H 0.77095 0.44384 0.84047 0.0
H197 H 0.78151 0.34132 0.9422 0.0
C198 C 0.10627 0.2048 0.2371 0.0
C199 C 0.08417 0.17364 0.22038 0.0
N200 N 0.04941 0.17431 0.24705 0.0
N201 N 0.08553 0.22537 0.27396 0.0
C202 C 0.05093 0.20613 0.27899 0.0
H203 H 0.13626 0.21101 0.22505 0.0
Co204 Co 0.10436 0.26619 0.31782 0.0
C205 C 0.04561 0.32773 0.30492 0.0
O206 O 0.07509 0.35228 0.30572 0.0
N207 N 0.12355 0.30706 0.36513 0.0
C208 C 0.13247 0.34059 0.443 0.0
C209 C 0.11355 0.30984 0.41928 0.0
C210 C 0.14819 0.33783 0.35716 0.0
N211 N 0.15416 0.35825 0.40389 0.0
O212 O 0.09035 0.23668 0.38239 0.0
H213 H 0.09287 0.29136 0.44082 0.0
H214 H 0.16076 0.3462 0.31779 0.0
O215 O 0.05228 0.29154 0.31081 0.0
C216 C 0.11922 0.21357 0.38885 0.0
O217 O 0.14669 0.21344 0.35061 0.0
N218 N 0.12339 0.2906 0.25404 0.0
C219 C 0.16193 0.28861 0.15266 0.0
C220 C 0.12114 0.29476 0.15492 0.0
C221 C 0.10226 0.29576 0.20642 0.0
C222 C 0.16327 0.28784 0.25233 0.0
C223 C 0.18323 0.28834 0.20229 0.0
H224 H 0.07052 0.2952 0.20733 0.0
H225 H 0.17944 0.28112 0.28973 0.0
H226 H 1.02836 0.21393 0.30829 0.0
H227 H 0.0935 0.15155 0.19199 0.0
H228 H 0.12923 0.35025 0.48523 0.0
H229 H 0.10344 0.2946 0.11764 0.0
H230 H 0.21478 0.28438 0.20259 0.0
C231 C 0.38931 0.60701 0.47653 0.0
C232 C 0.42127 0.58398 0.46578 0.0
N233 N 0.4172 0.55118 0.4955 0.0
N234 N 0.36496 0.58836 0.51214 0.0
C235 C 0.38299 0.5545 0.52297 0.0
H236 H 0.38493 0.636 0.46087 0.0
Co237 Co 0.31879 0.60503 0.5475 0.0
C238 C 0.26002 0.54985 0.5046 0.0
O239 O 0.23731 0.5792 0.49215 0.0
N240 N 0.2721 0.62009 0.58547 0.0
C241 C 0.22188 0.61339 0.64441 0.0
C242 C 0.25234 0.59502 0.61865 0.0
C243 C 0.25308 0.65399 0.59302 0.0
N244 N 0.22232 0.65066 0.62841 0.0
O245 O 0.33858 0.58523 0.61622 0.0
H246 H 0.26 0.56503 0.62459 0.0
H247 H 0.26196 0.68112 0.57483 0.0
O248 O 0.29345 0.55573 0.52757 0.0
C249 C 0.36323 0.61161 0.62933 0.0
O250 O 0.36704 0.6417 0.59612 0.0
N251 N 0.3037 0.63005 0.48182 0.0
C252 C 0.31276 0.67892 0.38993 0.0
C253 C 0.30662 0.639 0.38309 0.0
C254 C 0.3023 0.61489 0.42979 0.0
C255 C 0.30879 0.66869 0.48852 0.0
C256 C 0.31132 0.69371 0.44354 0.0
H257 H 0.30247 0.58402 0.4241 0.0
H258 H 0.31573 0.67989 0.52885 0.0
H259 H 0.37186 0.5331 0.55204 0.0
H260 H 0.44652 0.59155 0.44058 0.0
H261 H 0.20102 0.6001 0.67262 0.0
H262 H 0.30864 0.62598 0.34266 0.0
H263 H 0.31571 0.72414 0.4513 0.0
H264 H 0.59309 0.50784 0.0121 0.0
H265 H 0.69372 0.58252 0.03211 0.0
H266 H 0.65083 0.63877 0.03598 0.0
H267 H 0.58412 0.66705 0.03241 0.0
H268 H 0.48378 0.59158 0.0156 0.0
H269 H 0.52677 0.53562 0.01146 0.0
C270 C 0.60554 0.53645 0.01724 0.0
C271 C 0.64649 0.54095 0.02183 0.0
C272 C 0.58065 0.56863 0.0199 0.0
C273 C 0.66226 0.57819 0.02915 0.0
C274 C 0.63775 0.61042 0.03099 0.0
C275 C 0.57187 0.63831 0.02779 0.0
C276 C 0.53087 0.63345 0.02453 0.0
C277 C 0.59686 0.60605 0.02622 0.0
C278 C 0.51521 0.59603 0.01894 0.0
C279 C 0.53979 0.56401 0.0163 0.0
H280 H 0.05976 0.09813 0.23229 0.0
H281 H 0.97106 0.18366 0.26164 0.0
H282 H 0.92012 0.13326 0.26187 0.0
H283 H 0.90101 0.06427 0.25458 0.0
H284 H 0.99089 0.97951 0.22705 0.0
H285 H 0.04103 1.0301 0.2249 0.0
C286 C 1.02925 0.10588 0.23807 0.0
C287 C 1.01925 0.14472 0.24653 0.0
C288 C 1.0003 0.07676 0.23864 0.0
C289 C 0.97959 0.154 0.25531 0.0
C290 C 0.95045 0.12519 0.25524 0.0
C291 C 0.93154 0.05701 0.24772 0.0
C292 C 0.94215 1.01808 0.24115 0.0
C293 C 0.96046 0.08639 0.24705 0.0
C294 C 0.98194 1.00908 0.23295 0.0
C295 C 1.01065 0.03805 0.23145 0.0
H296 H 0.54212 0.42817 0.56817 0.0
H297 H 0.54612 0.41066 0.39219 0.0
H298 H 0.49727 0.46155 0.37773 0.0
H299 H 0.45338 0.51144 0.41588 0.0
H300 H 0.44525 0.52468 0.59241 0.0
H301 H 0.49556 0.47524 0.60655 0.0
C302 C 0.53217 0.4357 0.52682 0.0
C303 C 0.54762 0.41613 0.48123 0.0
C304 C 0.50337 0.46415 0.51915 0.0
C305 C 0.53434 0.42545 0.42773 0.0
C306 C 0.50659 0.45454 0.41954 0.0
C307 C 0.46281 0.50331 0.45725 0.0
C308 C 0.44603 0.52151 0.50309 0.0
C309 C 0.4909 0.47413 0.46494 0.0
C310 C 0.45784 0.51072 0.55672 0.0
C311 C 0.4866 0.48262 0.56472 0.0
H312 H 0.04435 0.93496 0.8206 0.0
H313 H 0.04722 0.92834 0.64267 0.0
H314 H 0.09934 0.97721 0.63903 0.0
H315 H 0.1433 1.02345 0.68662 0.0
H316 H 0.1369 0.0336 0.86366 0.0
H317 H 0.08766 0.98162 0.86804 0.0
C318 C 0.05657 0.9442 0.78118 0.0
C319 C 0.04185 0.92821 0.73201 0.0
C320 C 0.08614 0.97282 0.77939 0.0
C321 C 0.05766 0.94063 0.68103 0.0
C322 C 0.08766 0.96838 0.67895 0.0
C323 C 0.13137 1.01372 0.726 0.0
C324 C 0.14381 0.03172 0.77485 0.0
C325 C 0.10206 0.98483 0.72782 0.0
C326 C 0.12771 1.01977 0.82573 0.0
C327 C 0.09955 0.99023 0.82814 0.0
H328 H 0.29118 0.6767 0.28055 0.0
H329 H 0.36718 0.73747 0.39419 0.0
H330 H 0.39265 0.77693 0.31905 0.0
H331 H 0.39753 0.79141 0.22021 0.0
H332 H 0.32867 0.72426 0.10502 0.0
H333 H 0.29622 0.69121 0.18118 0.0
C334 C 0.3133 0.69853 0.28895 0.0
C335 C 0.32654 0.70418 0.34343 0.0
C336 C 0.3293 0.72039 0.24499 0.0
C337 C 0.3552 0.73295 0.35323 0.0
C338 C 0.37033 0.75543 0.31002 0.0
C339 C 0.37547 0.76957 0.21156 0.0
C340 C 0.36572 0.76088 0.1565 0.0
C341 C 0.35809 0.749 0.25562 0.0
C342 C 0.33641 0.73273 0.14664 0.0
C343 C 0.31805 0.71316 0.19035 0.0
H344 H 0.84652 0.81803 0.3863 0.0
H345 H 0.78083 0.89774 0.48573 0.0
H346 H 0.80676 0.86768 0.57002 0.0
H347 H 0.85266 0.82348 0.61428 0.0
H348 H 0.91929 0.74391 0.51575 0.0
H349 H 0.88815 0.76934 0.43164 0.0
C350 C 0.83708 0.82819 0.42644 0.0
C351 C 0.81178 0.86008 0.42986 0.0
C352 C 0.85254 0.81114 0.47458 0.0
C353 C 0.80048 0.87344 0.48212 0.0
C354 C 0.81528 0.85627 0.53021 0.0
C355 C 0.85962 0.81075 0.57468 0.0
C356 C 0.88815 0.7816 0.57141 0.0
C357 C 0.84198 0.82572 0.5268 0.0
C358 C 0.89761 0.76646 0.51939 0.0
C359 C 0.87978 0.78097 0.47137 0.0
H360 H 0.79052 0.38966 0.77442 0.0
H361 H 0.71647 0.3357 0.89818 0.0
H362 H 0.68488 0.29647 0.82781 0.0
H363 H 0.6764 0.27885 0.73062 0.0
H364 H 0.74855 0.3343 0.60594 0.0
H365 H 0.78296 0.37081 0.67686 0.0
C366 C 0.76753 0.36926 0.78579 0.0
C367 C 0.75621 0.36533 0.84139 0.0
C368 C 0.74919 0.34677 0.74497 0.0
C369 C 0.72633 0.33874 0.85571 0.0
C370 C 0.70802 0.31641 0.81549 0.0
C371 C 0.69976 0.2988 0.71906 0.0
C372 C 0.71001 0.30349 0.66315 0.0
C373 C 0.71903 0.32031 0.75995 0.0
C374 C 0.74055 0.32938 0.64883 0.0
C375 C 0.76002 0.35068 0.68931 0.0
H376 H 0.21747 0.23734 0.91546 0.0
H377 H 0.28413 0.15667 0.01483 0.0
H378 H 0.25869 0.1858 0.09899 0.0
H379 H 0.21526 0.2314 0.14361 0.0
H380 H 0.15023 0.31401 0.04549 0.0
H381 H 0.17767 0.28668 0.96088 0.0
C382 C 0.22719 0.22661 0.95547 0.0
C383 C 0.25278 0.19481 0.95876 0.0
C384 C 0.21265 0.24364 0.00366 0.0
C385 C 0.26418 0.18077 0.01107 0.0
C386 C 0.24977 0.19751 0.05918 0.0
C387 C 0.20783 0.24436 0.10395 0.0
C388 C 0.18102 0.27515 0.10107 0.0
C389 C 0.22373 0.22866 0.05586 0.0
C390 C 0.17071 0.29033 0.04894 0.0
C391 C 0.18644 0.27475 0.00062 0.0
H392 H 0.43314 0.64537 0.64644 0.0
H393 H 0.3419 0.58032 0.72975 0.0
H394 H 0.36848 0.60011 0.81959 0.0
H395 H 0.40816 0.64681 0.87141 0.0
H396 H 0.49488 0.717 0.78675 0.0
H397 H 0.48013 0.68376 0.70005 0.0
C398 C 0.41969 0.63473 0.6844 0.0
C399 C 0.38516 0.61216 0.68185 0.0
C400 C 0.434 0.6477 0.73529 0.0
C401 C 0.36839 0.59781 0.7309 0.0
C402 C 0.38335 0.60951 0.78211 0.0
C403 C 0.42443 0.6543 0.83417 0.0
C404 C 0.45185 0.68497 0.83488 0.0
C405 C 0.41466 0.63618 0.78444 0.0
C406 C 0.47344 0.69375 0.78696 0.0
C407 C 0.46477 0.67494 0.73742 0.0
H408 H 0.90775 0.88609 0.1076 0.0
H409 H 0.82483 0.95613 0.01717 0.0
H410 H 0.85679 0.93865 0.92985 0.0
H411 H 0.90141 0.89569 0.87991 0.0
H412 H 0.98217 0.8233 0.97064 0.0
H413 H 0.95834 0.85005 0.05795 0.0
C414 C 0.89704 0.89803 0.06876 0.0
C415 C 0.86356 0.92179 0.06841 0.0
C416 C 0.91499 0.88718 0.01919 0.0
C417 C 0.85045 0.93776 0.01825 0.0
C418 C 0.86855 0.92749 0.96849 0.0
C419 C 0.91429 0.88621 0.9188 0.0
C420 C 0.94303 0.85704 0.9191 0.0
C421 C 0.89979 0.90104 0.96849 0.0
C422 C 0.96001 0.84559 0.96947 0.0
C423 C 0.94614 0.86067 0.01928 0.0
H424 H 0.67105 0.39835 0.14061 0.0
H425 H 0.75751 0.45932 0.2376 0.0
H426 H 0.72909 0.43156 0.32265 0.0
H427 H 0.6878 0.38161 0.36617 0.0
H428 H 0.60515 0.31642 0.26818 0.0
H429 H 0.62372 0.35464 0.18594 0.0
C430 C 0.6832 0.40619 0.18054 0.0
C431 C 0.71675 0.43029 0.1831 0.0
C432 C 0.66778 0.38889 0.22849 0.0
C433 C 0.73176 0.44088 0.23478 0.0
C434 C 0.71577 0.42464 0.28317 0.0
C435 C 0.67345 0.376 0.3269 0.0
C436 C 0.64582 0.3456 0.32266 0.0
C437 C 0.68508 0.39725 0.28006 0.0
C438 C 0.62667 0.3394 0.27217 0.0
C439 C 0.63748 0.36111 0.22529 0.0
H440 H 0.17086 0.15573 0.40486 0.0
H441 H 0.08677 0.22573 0.49121 0.0
H442 H 0.1135 0.20345 0.57996 0.0
H443 H 0.16706 0.17255 0.63144 0.0
H444 H 0.25328 0.10504 0.54543 0.0
H445 H 0.21916 0.11769 0.4575 0.0
C446 C 0.15784 0.16558 0.44313 0.0
C447 C 0.12735 0.19298 0.44152 0.0
C448 C 0.17415 0.15355 0.49374 0.0
C449 C 0.11032 0.20487 0.49131 0.0
C450 C 0.12586 0.19238 0.54201 0.0
C451 C 0.17817 0.16021 0.59348 0.0
C452 C 0.2131 0.13856 0.59447 0.0
C453 C 0.15881 0.16813 0.54349 0.0
C454 C 0.22663 0.12195 0.54547 0.0
C455 C 0.20721 0.12936 0.49533 0.0
H456 H 0.37766 0.88507 0.77645 0.0
H457 H 0.41419 0.91445 0.94183 0.0
H458 H 0.38693 0.97899 0.93002 0.0
H459 H 0.35619 1.02815 0.87136 0.0
H460 H 0.31722 0.99969 0.70677 0.0
H461 H 0.34173 0.93362 0.71952 0.0
C462 C 0.37948 0.90564 0.80987 0.0
C463 C 0.39815 0.89497 0.85994 0.0
C464 C 0.36345 0.94281 0.80282 0.0
C465 C 0.39976 0.92172 0.90319 0.0
C466 C 0.38438 0.95873 0.89629 0.0
C467 C 0.35289 1.00749 0.83822 0.0
C468 C 0.33539 1.01898 0.78784 0.0
C469 C 0.36668 0.96973 0.8461 0.0
C470 C 0.33065 0.99161 0.74584 0.0
C471 C 0.34482 0.9539 0.75311 0.0
H472 H 0.58126 0.7888 0.02736 0.0
H473 H 0.53921 0.89862 0.96671 0.0
H474 H 0.59599 0.93113 0.00608 0.0
H475 H 0.65299 0.93008 0.06788 0.0
H476 H 0.69701 0.8221 0.12972 0.0
H477 H 0.64485 0.7871 0.07972 0.0
C478 C 0.58513 0.81966 0.02168 0.0
C479 C 0.55561 0.84126 -0.0053 0.0
C480 C 0.61809 0.83862 0.04524 0.0
C481 C 0.56106 0.88131 0.9879 0.0
C482 C 0.59358 0.90005 0.01048 0.0
C483 C 0.6516 0.89881 0.06908 0.0
C484 C 0.67858 0.87858 0.10206 0.0
C485 C 0.62153 0.87926 0.04075 0.0
C486 C 0.67666 0.8381 0.10394 0.0
C487 C 0.64663 0.81823 0.07577 0.0
H488 H 0.7565 0.09946 0.19151 0.0
H489 H 0.75311 1.00826 0.31475 0.0
H490 H 0.72088 0.05043 0.3792 0.0
H491 H 0.69197 0.11204 0.40106 0.0
H492 H 0.69044 0.20372 0.27918 0.0
H493 H 0.72667 0.16297 0.21453 0.0
C494 C 0.74883 0.0889 0.23252 0.0
C495 C 0.758 0.0506 0.24809 0.0
C496 C 0.7293 0.11345 0.26989 0.0
C497 C 0.7475 0.03757 0.3015 0.0
C498 C 0.72864 0.06169 0.33859 0.0
C499 C 0.69906 0.12319 0.36021 0.0
C500 C 0.68787 0.16085 0.345 0.0
C501 C 0.71918 0.09949 0.32318 0.0
C502 C 0.69867 0.17494 0.29226 0.0
C503 C 0.71922 0.1515 0.2551 0.0
H504 H 0.45632 0.24723 0.4547 0.0
H505 H 0.55771 0.21982 0.5552 0.0
H506 H 0.51609 0.18724 0.62235 0.0
H507 H 0.45137 0.16807 0.65521 0.0
H508 H 0.34829 0.19601 0.55962 0.0
H509 H 0.38996 0.2256 0.4875 0.0
C510 C 0.46928 0.23401 0.49118 0.0
C511 C 0.51034 0.23654 0.49971 0.0
C512 C 0.44484 0.2151 0.53058 0.0
C513 C 0.52641 0.21899 0.54735 0.0
C514 C 0.50257 0.20008 0.58599 0.0
C515 C 0.43784 0.18076 0.61877 0.0
C516 C 0.39664 0.18023 0.61339 0.0
C517 C 0.46182 0.19832 0.5784 0.0
C518 C 0.37988 0.19586 0.56491 0.0
C519 C 0.40375 0.21309 0.52387 0.0
H520 H 0.94216 0.63639 0.9371 0.0
H521 H 0.85138 0.71071 0.87313 0.0
H522 H 0.80104 0.66843 0.9136 0.0
H523 H 0.78279 0.60711 0.95884 0.0
H524 H 0.87331 0.53257 0.02352 0.0
H525 H 0.92372 0.57821 -0.00849 0.0
C526 C 0.91134 0.64344 0.93242 0.0
C527 C 0.90057 0.67649 0.90154 0.0
C528 C 0.88252 0.61879 0.95559 0.0
C529 C 0.86054 0.68565 0.89679 0.0
C530 C 0.83172 0.66128 0.91961 0.0
C531 C 0.81354 0.60095 0.96656 0.0
C532 C 0.82418 0.56595 -0.00733 0.0
C533 C 0.84235 0.6273 0.94789 0.0
C534 C 0.86417 0.55895 0.00312 0.0
C535 C 0.89306 0.58505 0.9846 0.0
H536 H 0.98959 0.29331 0.23925 0.0
H537 H 1.01549 0.39718 0.32949 0.0
H538 H 0.9607 0.4299 0.28463 0.0
H539 H 0.91159 0.43219 0.20981 0.0
H540 H 0.88611 0.33013 0.11674 0.0
H541 H 0.93393 0.29337 0.17225 0.0
C542 C 0.98238 0.32267 0.25028 0.0
C543 C 1.00671 0.34281 0.28758 0.0
C544 C 0.95117 0.34184 0.22303 0.0
C545 C 0.99734 0.38108 0.30081 0.0
C546 C 0.9661 0.39993 0.27494 0.0
C547 C 0.91584 0.40162 0.20308 0.0
C548 C 0.89534 0.3836 0.15999 0.0
C549 C 0.94376 0.38111 0.23453 0.0
C550 C 0.90135 0.34422 0.15041 0.0
C551 C 0.92886 0.3234 0.18186 0.0
H552 H 0.21801 0.52809 0.4148 0.0
H553 H 0.27256 0.48319 0.56291 0.0
H554 H 0.24557 0.4189 0.54366 0.0
H555 H 0.20299 0.37643 0.48714 0.0
H556 H 0.15235 0.4204 0.336 0.0
H557 H 0.18157 0.48405 0.35329 0.0
C558 C 0.22413 0.50412 0.44266 0.0
C559 C 0.24676 0.51036 0.49061 0.0
C560 C 0.20924 0.46718 0.43062 0.0
C561 C 0.25515 0.47903 0.52584 0.0
C562 C 0.23962 0.44235 0.51491 0.0
C563 C 0.19883 0.39996 0.45785 0.0
C564 C 0.17544 0.39399 0.41054 0.0
C565 C 0.21616 0.43622 0.46783 0.0
C566 C 0.17046 0.42438 0.37242 0.0
C567 C 0.18691 0.46076 0.38257 0.0
H568 H 0.17693 0.65156 0.72101 0.0
H569 H 0.2065 0.71781 0.57421 0.0
H570 H 0.15996 0.76723 0.60058 0.0
H571 H 0.10821 0.78999 0.66158 0.0
H572 H 0.07533 0.72299 0.80607 0.0
H573 H 0.12574 0.67545 0.78401 0.0
C574 C 0.17314 0.67662 0.69448 0.0
C575 C 0.19546 0.68058 0.6454 0.0
C576 C 0.1456 0.70484 0.70938 0.0
C577 C 0.19038 0.71388 0.61244 0.0
C578 C 0.16347 0.74218 0.62733 0.0
C579 C 0.11219 0.76525 0.6888 0.0
C580 C 0.08765 0.76004 0.73532 0.0
C581 C 0.14065 0.73777 0.67531 0.0
C582 C 0.09348 0.72766 0.7698 0.0
C583 C 0.12231 0.70042 0.75712 0.0
loop_
_geom_bond_atom_site_label_1
_geom_bond_atom_site_label_2
_geom_bond_distance
_geom_bond_site_symmetry_2
_ccdc_geom_bond_type
C0 C1 1.351 . S
C0 N3 1.368 . S
C0 H5 0.931 . S
C1 C0 1.351 . S
C1 N2 1.373 . S
C1 H29 0.930 . S
N2 C1 1.373 . S
N2 C4 1.340 . S
N3 C0 1.368 . S
N3 C4 1.321 . S
N3 Co6 2.135 . S
C4 N2 1.340 . S
C4 N3 1.321 . S
C4 H28 0.930 1_556 S
H5 C0 0.931 . S
Co6 N3 2.135 . S
Co6 N9 2.121 . S
Co6 O14 2.055 . S
Co6 O17 2.039 . S
Co6 N20 2.140 1_556 S
C7 O8 1.227 . S
C7 O17 1.265 1_554 S
O8 C7 1.227 . S
N9 Co6 2.121 . S
N9 C11 1.375 1_556 S
N9 C12 1.313 . S
C10 C11 1.338 . S
C10 N13 1.375 1_554 S
C10 H30 0.931 . S
C11 N9 1.375 1_554 S
C11 C10 1.338 . S
C11 H15 0.931 . S
C12 N9 1.313 . S
C12 N13 1.344 . S
C12 H16 0.930 . S
N13 C10 1.375 1_556 S
N13 C12 1.344 . S
O14 Co6 2.055 . S
O14 C18 1.253 . S
H15 C11 0.931 . S
H16 C12 0.930 . S
O17 Co6 2.039 . S
O17 C7 1.265 1_556 S
C18 O14 1.253 . S
C18 O19 1.227 . S
O19 C18 1.227 . S
N20 Co6 2.140 1_554 S
N20 C23 1.346 . S
N20 C24 1.345 . S
C21 C22 1.387 . S
C21 C25 1.391 . S
C22 C21 1.387 . S
C22 C23 1.369 . S
C22 H31 0.929 . S
C23 N20 1.346 . S
C23 C22 1.369 . S
C23 H26 0.928 . S
C24 N20 1.345 . S
C24 C25 1.371 . S
C24 H27 0.931 . S
C25 C21 1.391 . S
C25 C24 1.371 . S
C25 H32 0.930 . S
H26 C23 0.928 . S
H27 C24 0.931 . S
H28 C4 0.930 1_554 S
H29 C1 0.930 . S
H30 C10 0.931 . S
H31 C22 0.929 . S
H32 C25 0.930 . S
C33 C34 1.351 . S
C33 N36 1.368 . S
C33 H38 0.931 . S
C34 C33 1.351 . S
C34 N35 1.373 1_565 S
C34 H62 0.930 . S
N35 C34 1.373 1_545 S
N35 C37 1.340 1_545 S
N36 C33 1.368 . S
N36 C37 1.321 . S
N36 Co39 2.135 . S
C37 N35 1.340 1_565 S
C37 N36 1.321 . S
C37 H61 0.930 1_565 S
H38 C33 0.931 . S
Co39 N36 2.135 . S
Co39 N42 2.121 . S
Co39 O47 2.055 . S
Co39 O50 2.039 . S
Co39 N53 2.140 . S
C40 O41 1.227 . S
C40 O50 1.265 . S
O41 C40 1.227 . S
N42 Co39 2.121 . S
N42 C44 1.375 . S
N42 C45 1.313 . S
C43 C44 1.338 . S
C43 N46 1.377 . S
C43 H63 0.930 . S
C44 N42 1.375 . S
C44 C43 1.338 . S
C44 H48 0.931 . S
C45 N42 1.313 . S
C45 N46 1.344 . S
C45 H49 0.930 . S
N46 C43 1.377 . S
N46 C45 1.344 . S
O47 Co39 2.055 . S
O47 C51 1.253 . S
H48 C44 0.931 . S
H49 C45 0.930 . S
O50 Co39 2.039 . S
O50 C40 1.265 . S
C51 O47 1.253 . S
C51 O52 1.227 . S
O52 C51 1.227 . S
N53 Co39 2.140 . S
N53 C56 1.346 . S
N53 C57 1.345 . S
C54 C55 1.387 . S
C54 C58 1.391 . S
C55 C54 1.387 . S
C55 C56 1.369 . S
C55 H64 0.929 . S
C56 N53 1.346 . S
C56 C55 1.369 . S
C56 H59 0.928 . S
C57 N53 1.345 . S
C57 C58 1.371 . S
C57 H60 0.931 . S
C58 C54 1.391 . S
C58 C57 1.371 . S
C58 H65 0.930 . S
H59 C56 0.928 . S
H60 C57 0.931 . S
H61 C37 0.930 1_545 S
H62 C34 0.930 . S
H63 C43 0.930 . S
H64 C55 0.929 . S
H65 C58 0.930 . S
C66 C67 1.351 . S
C66 N69 1.368 . S
C66 H71 0.931 . S
C67 C66 1.351 . S
C67 N68 1.373 . S
C67 H95 0.930 . S
N68 C67 1.373 . S
N68 C70 1.340 . S
N69 C66 1.368 . S
N69 C70 1.321 . S
N69 Co72 2.135 . S
C70 N68 1.340 . S
C70 N69 1.321 . S
C70 H94 0.930 . S
H71 C66 0.931 . S
Co72 N69 2.135 . S
Co72 N75 2.121 . S
Co72 O80 2.055 . S
Co72 O83 2.039 . S
Co72 N86 2.140 . S
C73 O74 1.227 . S
C73 O83 1.265 . S
O74 C73 1.227 . S
N75 Co72 2.121 . S
N75 C77 1.375 . S
N75 C78 1.313 . S
C76 C77 1.338 . S
C76 N79 1.377 . S
C76 H96 0.930 . S
C77 N75 1.375 . S
C77 C76 1.338 . S
C77 H81 0.931 . S
C78 N75 1.313 . S
C78 N79 1.344 . S
C78 H82 0.930 . S
N79 C76 1.377 . S
N79 C78 1.344 . S
O80 Co72 2.055 . S
O80 C84 1.253 . S
H81 C77 0.931 . S
H82 C78 0.930 . S
O83 Co72 2.039 . S
O83 C73 1.265 . S
C84 O80 1.253 . S
C84 O85 1.227 . S
O85 C84 1.227 . S
N86 Co72 2.140 . S
N86 C89 1.346 . S
N86 C90 1.345 . S
C87 C88 1.387 . S
C87 C91 1.391 . S
C88 C87 1.387 . S
C88 C89 1.369 . S
C88 H97 0.929 . S
C89 N86 1.346 . S
C89 C88 1.369 . S
C89 H92 0.928 . S
C90 N86 1.345 . S
C90 C91 1.371 . S
C90 H93 0.931 . S
C91 C87 1.391 . S
C91 C90 1.371 . S
C91 H98 0.930 . S
H92 C89 0.928 . S
H93 C90 0.931 . S
H94 C70 0.930 . S
H95 C67 0.930 . S
H96 C76 0.930 . S
H97 C88 0.929 . S
H98 C91 0.930 . S
C99 C100 1.351 . S
C99 N102 1.368 . S
C99 H104 0.931 . S
C100 C99 1.351 . S
C100 N101 1.373 1_545 S
C100 H128 0.930 . S
N101 C100 1.373 1_565 S
N101 C103 1.340 1_565 S
N102 C99 1.368 . S
N102 C103 1.321 . S
N102 Co105 2.135 . S
C103 N101 1.340 1_545 S
C103 N102 1.321 . S
C103 H127 0.930 1_545 S
H104 C99 0.931 . S
Co105 N102 2.135 . S
Co105 N108 2.121 . S
Co105 O113 2.055 . S
Co105 O116 2.039 . S
Co105 N119 2.140 . S
C106 O107 1.227 . S
C106 O116 1.265 . S
O107 C106 1.227 . S
N108 Co105 2.121 . S
N108 C110 1.375 . S
N108 C111 1.313 . S
C109 C110 1.338 . S
C109 N112 1.377 . S
C109 H129 0.930 . S
C110 N108 1.375 . S
C110 C109 1.338 . S
C110 H114 0.931 . S
C111 N108 1.313 . S
C111 N112 1.344 . S
C111 H115 0.930 . S
N112 C109 1.377 . S
N112 C111 1.344 . S
O113 Co105 2.055 . S
O113 C117 1.253 . S
H114 C110 0.931 . S
H115 C111 0.930 . S
O116 Co105 2.039 . S
O116 C106 1.265 . S
C117 O113 1.253 . S
C117 O118 1.227 . S
O118 C117 1.227 . S
N119 Co105 2.140 . S
N119 C122 1.346 . S
N119 C123 1.345 . S
C120 C121 1.387 . S
C120 C124 1.391 . S
C121 C120 1.387 . S
C121 C122 1.369 . S
C121 H130 0.929 . S
C122 N119 1.346 . S
C122 C121 1.369 . S
C122 H125 0.928 . S
C123 N119 1.345 . S
C123 C124 1.371 . S
C123 H126 0.931 . S
C124 C120 1.391 . S
C124 C123 1.371 . S
C124 H131 0.930 . S
H125 C122 0.928 . S
H126 C123 0.931 . S
H127 C103 0.930 1_565 S
H128 C100 0.930 . S
H129 C109 0.930 . S
H130 C121 0.929 . S
H131 C124 0.930 . S
C132 C133 1.351 . S
C132 N135 1.368 . S
C132 H137 0.931 . S
C133 C132 1.351 . S
C133 N134 1.373 1_655 S
C133 H161 0.930 . S
N134 C133 1.373 1_455 S
N134 C136 1.340 1_455 S
N135 C132 1.368 . S
N135 C136 1.321 . S
N135 Co138 2.135 . S
C136 N134 1.340 1_655 S
C136 N135 1.321 . S
C136 H160 0.930 1_655 S
H137 C132 0.931 . S
Co138 N135 2.135 . S
Co138 N141 2.121 . S
Co138 O146 2.055 . S
Co138 O149 2.039 . S
Co138 N152 2.140 . S
C139 O140 1.227 . S
C139 O149 1.265 . S
O140 C139 1.227 . S
N141 Co138 2.121 . S
N141 C143 1.375 . S
N141 C144 1.313 . S
C142 C143 1.338 . S
C142 N145 1.377 . S
C142 H162 0.930 . S
C143 N141 1.375 . S
C143 C142 1.338 . S
C143 H147 0.931 . S
C144 N141 1.313 . S
C144 N145 1.344 . S
C144 H148 0.930 . S
N145 C142 1.377 . S
N145 C144 1.344 . S
O146 Co138 2.055 . S
O146 C150 1.253 . S
H147 C143 0.931 . S
H148 C144 0.930 . S
O149 Co138 2.039 . S
O149 C139 1.265 . S
C150 O146 1.253 . S
C150 O151 1.227 . S
O151 C150 1.227 . S
N152 Co138 2.140 . S
N152 C155 1.346 . S
N152 C156 1.345 . S
C153 C154 1.387 . S
C153 C157 1.391 . S
C154 C153 1.387 . S
C154 C155 1.369 . S
C154 H163 0.929 . S
C155 N152 1.346 . S
C155 C154 1.369 . S
C155 H158 0.928 . S
C156 N152 1.345 . S
C156 C157 1.371 . S
C156 H159 0.931 . S
C157 C153 1.391 . S
C157 C156 1.371 . S
C157 H164 0.930 . S
H158 C155 0.928 . S
H159 C156 0.931 . S
H160 C136 0.930 1_455 S
H161 C133 0.930 . S
H162 C142 0.930 . S
H163 C154 0.929 . S
H164 C157 0.930 . S
C165 C166 1.351 . S
C165 N168 1.368 . S
C165 H170 0.931 . S
C166 C165 1.351 . S
C166 N167 1.373 . S
C166 H194 0.930 . S
N167 C166 1.373 . S
N167 C169 1.340 . S
N168 C165 1.368 . S
N168 C169 1.321 . S
N168 Co171 2.135 . S
C169 N167 1.340 . S
C169 N168 1.321 . S
C169 H193 0.930 . S
H170 C165 0.931 . S
Co171 N168 2.135 . S
Co171 N174 2.121 . S
Co171 O179 2.055 . S
Co171 O182 2.039 . S
Co171 N185 2.140 1_554 S
C172 O173 1.227 1_554 S
C172 O182 1.265 . S
O173 C172 1.227 1_556 S
N174 Co171 2.121 . S
N174 C176 1.375 . S
N174 C177 1.313 . S
C175 C176 1.338 . S
C175 N178 1.377 . S
C175 H195 0.930 . S
C176 N174 1.375 . S
C176 C175 1.338 . S
C176 H180 0.931 1_554 S
C177 N174 1.313 . S
C177 N178 1.344 . S
C177 H181 0.930 . S
N178 C175 1.377 . S
N178 C177 1.344 . S
O179 Co171 2.055 . S
O179 C183 1.253 . S
H180 C176 0.931 1_556 S
H181 C177 0.930 . S
O182 Co171 2.039 . S
O182 C172 1.265 . S
C183 O179 1.253 . S
C183 O184 1.227 . S
O184 C183 1.227 . S
N185 Co171 2.140 1_556 S
N185 C188 1.346 . S
N185 C189 1.345 . S
C186 C187 1.387 . S
C186 C190 1.391 . S
C187 C186 1.387 . S
C187 C188 1.369 . S
C187 H196 0.929 . S
C188 N185 1.346 . S
C188 C187 1.369 . S
C188 H191 0.928 . S
C189 N185 1.345 . S
C189 C190 1.371 . S
C189 H192 0.931 1_556 S
C190 C186 1.391 . S
C190 C189 1.371 . S
C190 H197 0.930 . S
H191 C188 0.928 . S
H192 C189 0.931 1_554 S
H193 C169 0.930 . S
H194 C166 0.930 . S
H195 C175 0.930 . S
H196 C187 0.929 . S
H197 C190 0.930 . S
C198 C199 1.351 . S
C198 N201 1.368 . S
C198 H203 0.931 . S
C199 C198 1.351 . S
C199 N200 1.373 1_455 S
C199 H227 0.930 . S
N200 C199 1.373 1_655 S
N200 C202 1.340 1_655 S
N201 C198 1.368 . S
N201 C202 1.321 . S
N201 Co204 2.135 . S
C202 N200 1.340 1_455 S
C202 N201 1.321 . S
C202 H226 0.930 1_455 S
H203 C198 0.931 . S
Co204 N201 2.135 . S
Co204 N207 2.121 . S
Co204 O212 2.055 . S
Co204 O215 2.039 . S
Co204 N218 2.140 . S
C205 O206 1.227 . S
C205 O215 1.265 . S
O206 C205 1.227 . S
N207 Co204 2.121 . S
N207 C209 1.375 . S
N207 C210 1.313 . S
C208 C209 1.338 . S
C208 N211 1.377 . S
C208 H228 0.930 . S
C209 N207 1.375 . S
C209 C208 1.338 . S
C209 H213 0.931 . S
C210 N207 1.313 . S
C210 N211 1.344 . S
C210 H214 0.930 . S
N211 C208 1.377 . S
N211 C210 1.344 . S
O212 Co204 2.055 . S
O212 C216 1.253 . S
H213 C209 0.931 . S
H214 C210 0.930 . S
O215 Co204 2.039 . S
O215 C205 1.265 . S
C216 O212 1.253 . S
C216 O217 1.227 . S
O217 C216 1.227 . S
N218 Co204 2.140 . S
N218 C221 1.346 . S
N218 C222 1.345 . S
C219 C220 1.387 . S
C219 C223 1.391 . S
C220 C219 1.387 . S
C220 C221 1.369 . S
C220 H229 0.929 . S
C221 N218 1.346 . S
C221 C220 1.369 . S
C221 H224 0.928 . S
C222 N218 1.345 . S
C222 C223 1.371 . S
C222 H225 0.931 . S
C223 C219 1.391 . S
C223 C222 1.371 . S
C223 H230 0.930 . S
H224 C221 0.928 . S
H225 C222 0.931 . S
H226 C202 0.930 1_655 S
H227 C199 0.930 . S
H228 C208 0.930 . S
H229 C220 0.929 . S
H230 C223 0.930 . S
C231 C232 1.351 . S
C231 N234 1.368 . S
C231 H236 0.931 . S
C232 C231 1.351 . S
C232 N233 1.373 . S
C232 H260 0.930 . S
N233 C232 1.373 . S
N233 C235 1.340 . S
N234 C231 1.368 . S
N234 C235 1.321 . S
N234 Co237 2.135 . S
C235 N233 1.340 . S
C235 N234 1.321 . S
C235 H259 0.930 . S
H236 C231 0.931 . S
Co237 N234 2.135 . S
Co237 N240 2.121 . S
Co237 O245 2.055 . S
Co237 O248 2.039 . S
Co237 N251 2.140 . S
C238 O239 1.227 . S
C238 O248 1.265 . S
O239 C238 1.227 . S
N240 Co237 2.121 . S
N240 C242 1.375 . S
N240 C243 1.313 . S
C241 C242 1.338 . S
C241 N244 1.377 . S
C241 H261 0.930 . S
C242 N240 1.375 . S
C242 C241 1.338 . S
C242 H246 0.931 . S
C243 N240 1.313 . S
C243 N244 1.344 . S
C243 H247 0.930 . S
N244 C241 1.377 . S
N244 C243 1.344 . S
O245 Co237 2.055 . S
O245 C249 1.253 . S
H246 C242 0.931 . S
H247 C243 0.930 . S
O248 Co237 2.039 . S
O248 C238 1.265 . S
C249 O245 1.253 . S
C249 O250 1.227 . S
O250 C249 1.227 . S
N251 Co237 2.140 . S
N251 C254 1.346 . S
N251 C255 1.345 . S
C252 C253 1.387 . S
C252 C256 1.391 . S
C253 C252 1.387 . S
C253 C254 1.369 . S
C253 H262 0.929 . S
C254 N251 1.346 . S
C254 C253 1.369 . S
C254 H257 0.928 . S
C255 N251 1.345 . S
C255 C256 1.371 . S
C255 H258 0.931 . S
C256 C252 1.391 . S
C256 C255 1.371 . S
C256 H263 0.930 . S
H257 C254 0.928 . S
H258 C255 0.931 . S
H259 C235 0.930 . S
H260 C232 0.930 . S
H261 C241 0.930 . S
H262 C253 0.929 . S
H263 C256 0.930 . S
H264 C270 0.930 1_556 S
H265 C273 0.930 . S
H266 C274 0.930 . S
H267 C275 0.930 . S
H268 C278 0.930 1_556 S
H269 C279 0.930 1_556 S
C270 H264 0.930 1_554 S
C270 C271 1.355 . S
C270 C272 1.415 . S
C271 C270 1.355 . S
C271 C273 1.419 . S
C272 C270 1.415 . S
C272 C277 1.425 . S
C272 C279 1.409 . S
C273 H265 0.930 . S
C273 C271 1.419 . S
C273 C274 1.362 . S
C274 H266 0.930 . S
C274 C273 1.362 . S
C274 C277 1.409 . S
C275 H267 0.930 . S
C275 C276 1.355 . S
C275 C277 1.415 . S
C276 C275 1.355 . S
C276 C278 1.419 . S
C277 C272 1.425 . S
C277 C274 1.409 . S
C277 C275 1.415 . S
C278 H268 0.930 1_554 S
C278 C276 1.419 . S
C278 C279 1.362 . S
C279 H269 0.930 1_554 S
C279 C272 1.409 . S
C279 C278 1.362 . S
H280 C286 0.930 . S
H281 C289 0.930 . S
H282 C290 0.930 . S
H283 C291 0.930 . S
H284 C294 0.930 1_565 S
H285 C295 0.930 . S
C286 H280 0.930 . S
C286 C287 1.355 . S
C286 C288 1.415 . S
C287 C286 1.355 . S
C287 C289 1.419 . S
C288 C286 1.415 . S
C288 C293 1.425 . S
C288 C295 1.409 . S
C289 H281 0.930 . S
C289 C287 1.419 . S
C289 C290 1.362 . S
C290 H282 0.930 . S
C290 C289 1.362 . S
C290 C293 1.409 . S
C291 H283 0.930 . S
C291 C292 1.355 . S
C291 C293 1.415 . S
C292 C291 1.355 . S
C292 C294 1.419 . S
C293 C288 1.425 . S
C293 C290 1.409 . S
C293 C291 1.415 . S
C294 H284 0.930 1_545 S
C294 C292 1.419 . S
C294 C295 1.362 . S
C295 H285 0.930 . S
C295 C288 1.409 . S
C295 C294 1.362 . S
H296 C302 0.930 . S
H297 C305 0.930 . S
H298 C306 0.930 . S
H299 C307 0.930 . S
H300 C310 0.930 . S
H301 C311 0.930 . S
C302 H296 0.930 . S
C302 C303 1.355 . S
C302 C304 1.415 . S
C303 C302 1.355 . S
C303 C305 1.419 . S
C304 C302 1.415 . S
C304 C309 1.425 . S
C304 C311 1.409 . S
C305 H297 0.930 . S
C305 C303 1.419 . S
C305 C306 1.362 . S
C306 H298 0.930 . S
C306 C305 1.362 . S
C306 C309 1.409 . S
C307 H299 0.930 . S
C307 C308 1.355 . S
C307 C309 1.415 . S
C308 C307 1.355 . S
C308 C310 1.419 . S
C309 C304 1.425 . S
C309 C306 1.409 . S
C309 C307 1.415 . S
C310 H300 0.930 . S
C310 C308 1.419 . S
C310 C311 1.362 . S
C311 H301 0.930 . S
C311 C304 1.409 . S
C311 C310 1.362 . S
H312 C318 0.930 . S
H313 C321 0.930 . S
H314 C322 0.930 . S
H315 C323 0.930 . S
H316 C326 0.930 1_545 S
H317 C327 0.930 . S
C318 H312 0.930 . S
C318 C319 1.355 . S
C318 C320 1.415 . S
C319 C318 1.355 . S
C319 C321 1.419 . S
C320 C318 1.415 . S
C320 C325 1.425 . S
C320 C327 1.409 . S
C321 H313 0.930 . S
C321 C319 1.419 . S
C321 C322 1.362 . S
C322 H314 0.930 . S
C322 C321 1.362 . S
C322 C325 1.409 . S
C323 H315 0.930 . S
C323 C324 1.355 . S
C323 C325 1.415 . S
C324 C323 1.355 . S
C324 C326 1.419 . S
C325 C320 1.425 . S
C325 C322 1.409 . S
C325 C323 1.415 . S
C326 H316 0.930 1_565 S
C326 C324 1.419 . S
C326 C327 1.362 . S
C327 H317 0.930 . S
C327 C320 1.409 . S
C327 C326 1.362 . S
H328 C334 0.930 . S
H329 C337 0.930 . S
H330 C338 0.930 . S
H331 C339 0.930 . S
H332 C342 0.930 . S
H333 C343 0.930 . S
C334 H328 0.930 . S
C334 C335 1.355 . S
C334 C336 1.415 . S
C335 C334 1.355 . S
C335 C337 1.419 . S
C336 C334 1.415 . S
C336 C341 1.425 . S
C336 C343 1.409 . S
C337 H329 0.930 . S
C337 C335 1.419 . S
C337 C338 1.362 . S
C338 H330 0.930 . S
C338 C337 1.362 . S
C338 C341 1.409 . S
C339 H331 0.930 . S
C339 C340 1.355 . S
C339 C341 1.415 . S
C340 C339 1.355 . S
C340 C342 1.419 . S
C341 C336 1.425 . S
C341 C338 1.409 . S
C341 C339 1.415 . S
C342 H332 0.930 . S
C342 C340 1.419 . S
C342 C343 1.362 . S
C343 H333 0.930 . S
C343 C336 1.409 . S
C343 C342 1.362 . S
H344 C350 0.930 . S
H345 C353 0.930 . S
H346 C354 0.930 . S
H347 C355 0.930 . S
H348 C358 0.930 . S
H349 C359 0.930 . S
C350 H344 0.930 . S
C350 C351 1.355 . S
C350 C352 1.415 . S
C351 C350 1.355 . S
C351 C353 1.419 . S
C352 C350 1.415 . S
C352 C357 1.425 . S
C352 C359 1.409 . S
C353 H345 0.930 . S
C353 C351 1.419 . S
C353 C354 1.362 . S
C354 H346 0.930 . S
C354 C353 1.362 . S
C354 C357 1.409 . S
C355 H347 0.930 . S
C355 C356 1.355 . S
C355 C357 1.415 . S
C356 C355 1.355 . S
C356 C358 1.419 . S
C357 C352 1.425 . S
C357 C354 1.409 . S
C357 C355 1.415 . S
C358 H348 0.930 . S
C358 C356 1.419 . S
C358 C359 1.362 . S
C359 H349 0.930 . S
C359 C352 1.409 . S
C359 C358 1.362 . S
H360 C366 0.930 . S
H361 C369 0.930 . S
H362 C370 0.930 . S
H363 C371 0.930 . S
H364 C374 0.930 . S
H365 C375 0.930 . S
C366 H360 0.930 . S
C366 C367 1.355 . S
C366 C368 1.415 . S
C367 C366 1.355 . S
C367 C369 1.419 . S
C368 C366 1.415 . S
C368 C373 1.425 . S
C368 C375 1.409 . S
C369 H361 0.930 . S
C369 C367 1.419 . S
C369 C370 1.362 . S
C370 H362 0.930 . S
C370 C369 1.362 . S
C370 C373 1.409 . S
C371 H363 0.930 . S
C371 C372 1.355 . S
C371 C373 1.415 . S
C372 C371 1.355 . S
C372 C374 1.419 . S
C373 C368 1.425 . S
C373 C370 1.409 . S
C373 C371 1.415 . S
C374 H364 0.930 . S
C374 C372 1.419 . S
C374 C375 1.362 . S
C375 H365 0.930 . S
C375 C368 1.409 . S
C375 C374 1.362 . S
H376 C382 0.930 . S
H377 C385 0.930 . S
H378 C386 0.930 . S
H379 C387 0.930 . S
H380 C390 0.930 . S
H381 C391 0.930 1_556 S
C382 H376 0.930 . S
C382 C383 1.355 . S
C382 C384 1.415 . S
C383 C382 1.355 . S
C383 C385 1.419 . S
C384 C382 1.415 . S
C384 C389 1.425 1_556 S
C384 C391 1.409 1_556 S
C385 H377 0.930 . S
C385 C383 1.419 . S
C385 C386 1.362 1_556 S
C386 H378 0.930 . S
C386 C385 1.362 1_554 S
C386 C389 1.409 . S
C387 H379 0.930 . S
C387 C388 1.355 . S
C387 C389 1.415 . S
C388 C387 1.355 . S
C388 C390 1.419 . S
C389 C384 1.425 1_554 S
C389 C386 1.409 . S
C389 C387 1.415 . S
C390 H380 0.930 . S
C390 C388 1.419 . S
C390 C391 1.362 . S
C391 H381 0.930 1_554 S
C391 C384 1.409 1_554 S
C391 C390 1.362 . S
H392 C398 0.930 . S
H393 C401 0.930 . S
H394 C402 0.930 . S
H395 C403 0.930 . S
H396 C406 0.930 . S
H397 C407 0.930 . S
C398 H392 0.930 . S
C398 C399 1.355 . S
C398 C400 1.415 . S
C399 C398 1.355 . S
C399 C401 1.419 . S
C400 C398 1.415 . S
C400 C405 1.425 . S
C400 C407 1.409 . S
C401 H393 0.930 . S
C401 C399 1.419 . S
C401 C402 1.362 . S
C402 H394 0.930 . S
C402 C401 1.362 . S
C402 C405 1.409 . S
C403 H395 0.930 . S
C403 C404 1.355 . S
C403 C405 1.415 . S
C404 C403 1.355 . S
C404 C406 1.419 . S
C405 C400 1.425 . S
C405 C402 1.409 . S
C405 C403 1.415 . S
C406 H396 0.930 . S
C406 C404 1.419 . S
C406 C407 1.362 . S
C407 H397 0.930 . S
C407 C400 1.409 . S
C407 C406 1.362 . S
H408 C414 0.930 . S
H409 C417 0.930 . S
H410 C418 0.930 . S
H411 C419 0.930 . S
H412 C422 0.930 . S
H413 C423 0.930 . S
C414 H408 0.930 . S
C414 C415 1.355 . S
C414 C416 1.415 . S
C415 C414 1.355 . S
C415 C417 1.419 . S
C416 C414 1.415 . S
C416 C421 1.425 . S
C416 C423 1.409 1_554 S
C417 H409 0.930 . S
C417 C415 1.419 . S
C417 C418 1.362 . S
C418 H410 0.930 . S
C418 C417 1.362 . S
C418 C421 1.409 . S
C419 H411 0.930 . S
C419 C420 1.355 . S
C419 C421 1.415 1_556 S
C420 C419 1.355 . S
C420 C422 1.419 . S
C421 C416 1.425 . S
C421 C418 1.409 . S
C421 C419 1.415 1_554 S
C422 H412 0.930 . S
C422 C420 1.419 . S
C422 C423 1.362 . S
C423 H413 0.930 . S
C423 C416 1.409 1_556 S
C423 C422 1.362 . S
H424 C430 0.930 . S
H425 C433 0.930 . S
H426 C434 0.930 . S
H427 C435 0.930 . S
H428 C438 0.930 . S
H429 C439 0.930 . S
C430 H424 0.930 . S
C430 C431 1.355 . S
C430 C432 1.415 . S
C431 C430 1.355 . S
C431 C433 1.419 . S
C432 C430 1.415 . S
C432 C437 1.425 . S
C432 C439 1.409 . S
C433 H425 0.930 . S
C433 C431 1.419 . S
C433 C434 1.362 . S
C434 H426 0.930 . S
C434 C433 1.362 . S
C434 C437 1.409 . S
C435 H427 0.930 . S
C435 C436 1.355 . S
C435 C437 1.415 . S
C436 C435 1.355 . S
C436 C438 1.419 . S
C437 C432 1.425 . S
C437 C434 1.409 . S
C437 C435 1.415 . S
C438 H428 0.930 . S
C438 C436 1.419 . S
C438 C439 1.362 . S
C439 H429 0.930 . S
C439 C432 1.409 . S
C439 C438 1.362 . S
H440 C446 0.930 . S
H441 C449 0.930 . S
H442 C450 0.930 . S
H443 C451 0.930 . S
H444 C454 0.930 . S
H445 C455 0.930 . S
C446 H440 0.930 . S
C446 C447 1.355 . S
C446 C448 1.415 . S
C447 C446 1.355 . S
C447 C449 1.419 . S
C448 C446 1.415 . S
C448 C453 1.425 . S
C448 C455 1.409 . S
C449 H441 0.930 . S
C449 C447 1.419 . S
C449 C450 1.362 . S
C450 H442 0.930 . S
C450 C449 1.362 . S
C450 C453 1.409 . S
C451 H443 0.930 . S
C451 C452 1.355 . S
C451 C453 1.415 . S
C452 C451 1.355 . S
C452 C454 1.419 . S
C453 C448 1.425 . S
C453 C450 1.409 . S
C453 C451 1.415 . S
C454 H444 0.930 . S
C454 C452 1.419 . S
C454 C455 1.362 . S
C455 H445 0.930 . S
C455 C448 1.409 . S
C455 C454 1.362 . S
H456 C462 0.930 . S
H457 C465 0.930 . S
H458 C466 0.930 . S
H459 C467 0.930 . S
H460 C470 0.930 . S
H461 C471 0.930 . S
C462 H456 0.930 . S
C462 C463 1.355 . S
C462 C464 1.415 . S
C463 C462 1.355 . S
C463 C465 1.419 . S
C464 C462 1.415 . S
C464 C469 1.425 . S
C464 C471 1.409 . S
C465 H457 0.930 . S
C465 C463 1.419 . S
C465 C466 1.362 . S
C466 H458 0.930 . S
C466 C465 1.362 . S
C466 C469 1.409 . S
C467 H459 0.930 . S
C467 C468 1.355 . S
C467 C469 1.415 . S
C468 C467 1.355 . S
C468 C470 1.419 . S
C469 C464 1.425 . S
C469 C466 1.409 . S
C469 C467 1.415 . S
C470 H460 0.930 . S
C470 C468 1.419 . S
C470 C471 1.362 . S
C471 H461 0.930 . S
C471 C464 1.409 . S
C471 C470 1.362 . S
H472 C478 0.930 . S
H473 C481 0.930 1_556 S
H474 C482 0.930 . S
H475 C483 0.930 . S
H476 C486 0.930 . S
H477 C487 0.930 . S
C478 H472 0.930 . S
C478 C479 1.355 . S
C478 C480 1.415 . S
C479 C478 1.355 . S
C479 C481 1.419 . S
C480 C478 1.415 . S
C480 C485 1.425 . S
C480 C487 1.409 . S
C481 H473 0.930 1_554 S
C481 C479 1.419 . S
C481 C482 1.362 . S
C482 H474 0.930 . S
C482 C481 1.362 . S
C482 C485 1.409 . S
C483 H475 0.930 . S
C483 C484 1.355 . S
C483 C485 1.415 . S
C484 C483 1.355 . S
C484 C486 1.419 . S
C485 C480 1.425 . S
C485 C482 1.409 . S
C485 C483 1.415 . S
C486 H476 0.930 . S
C486 C484 1.419 . S
C486 C487 1.362 . S
C487 H477 0.930 . S
C487 C480 1.409 . S
C487 C486 1.362 . S
H488 C494 0.930 . S
H489 C497 0.930 . S
H490 C498 0.930 . S
H491 C499 0.930 . S
H492 C502 0.930 . S
H493 C503 0.930 . S
C494 H488 0.930 . S
C494 C495 1.355 . S
C494 C496 1.415 . S
C495 C494 1.355 . S
C495 C497 1.419 . S
C496 C494 1.415 . S
C496 C501 1.425 . S
C496 C503 1.409 . S
C497 H489 0.930 . S
C497 C495 1.419 . S
C497 C498 1.362 . S
C498 H490 0.930 . S
C498 C497 1.362 . S
C498 C501 1.409 . S
C499 H491 0.930 . S
C499 C500 1.355 . S
C499 C501 1.415 . S
C500 C499 1.355 . S
C500 C502 1.419 . S
C501 C496 1.425 . S
C501 C498 1.409 . S
C501 C499 1.415 . S
C502 H492 0.930 . S
C502 C500 1.419 . S
C502 C503 1.362 . S
C503 H493 0.930 . S
C503 C496 1.409 . S
C503 C502 1.362 . S
H504 C510 0.930 . S
H505 C513 0.930 . S
H506 C514 0.930 . S
H507 C515 0.930 . S
H508 C518 0.930 . S
H509 C519 0.930 . S
C510 H504 0.930 . S
C510 C511 1.355 . S
C510 C512 1.415 . S
C511 C510 1.355 . S
C511 C513 1.419 . S
C512 C510 1.415 . S
C512 C517 1.425 . S
C512 C519 1.409 . S
C513 H505 0.930 . S
C513 C511 1.419 . S
C513 C514 1.362 . S
C514 H506 0.930 . S
C514 C513 1.362 . S
C514 C517 1.409 . S
C515 H507 0.930 . S
C515 C516 1.355 . S
C515 C517 1.415 . S
C516 C515 1.355 . S
C516 C518 1.419 . S
C517 C512 1.425 . S
C517 C514 1.409 . S
C517 C515 1.415 . S
C518 H508 0.930 . S
C518 C516 1.419 . S
C518 C519 1.362 . S
C519 H509 0.930 . S
C519 C512 1.409 . S
C519 C518 1.362 . S
H520 C526 0.930 . S
H521 C529 0.930 . S
H522 C530 0.930 . S
H523 C531 0.930 1_554 S
H524 C534 0.930 . S
H525 C535 0.930 . S
C526 H520 0.930 . S
C526 C527 1.355 . S
C526 C528 1.415 . S
C527 C526 1.355 . S
C527 C529 1.419 . S
C528 C526 1.415 . S
C528 C533 1.425 . S
C528 C535 1.409 . S
C529 H521 0.930 . S
C529 C527 1.419 . S
C529 C530 1.362 . S
C530 H522 0.930 . S
C530 C529 1.362 . S
C530 C533 1.409 . S
C531 H523 0.930 1_556 S
C531 C532 1.355 . S
C531 C533 1.415 . S
C532 C531 1.355 . S
C532 C534 1.419 . S
C533 C528 1.425 . S
C533 C530 1.409 . S
C533 C531 1.415 . S
C534 H524 0.930 . S
C534 C532 1.419 . S
C534 C535 1.362 . S
C535 H525 0.930 . S
C535 C528 1.409 . S
C535 C534 1.362 . S
H536 C542 0.930 . S
H537 C545 0.952 . S
H538 C546 0.930 . S
H539 C547 0.930 . S
H540 C550 0.930 . S
H541 C551 0.930 . S
C542 H536 0.930 . S
C542 C543 1.355 . S
C542 C544 1.415 . S
C543 C542 1.355 . S
C543 C545 1.419 . S
C544 C542 1.415 . S
C544 C549 1.425 . S
C544 C551 1.409 . S
C545 H537 0.952 . S
C545 C543 1.419 . S
C545 C546 1.362 . S
C546 H538 0.930 . S
C546 C545 1.362 . S
C546 C549 1.409 . S
C547 H539 0.930 . S
C547 C548 1.355 . S
C547 C549 1.415 . S
C548 C547 1.355 . S
C548 C550 1.419 . S
C549 C544 1.425 . S
C549 C546 1.409 . S
C549 C547 1.415 . S
C550 H540 0.930 . S
C550 C548 1.419 . S
C550 C551 1.362 . S
C551 H541 0.930 . S
C551 C544 1.409 . S
C551 C550 1.362 . S
H552 C558 0.930 . S
H553 C561 0.930 . S
H554 C562 0.930 . S
H555 C563 0.930 . S
H556 C566 0.930 . S
H557 C567 0.930 . S
C558 H552 0.930 . S
C558 C559 1.355 . S
C558 C560 1.415 . S
C559 C558 1.355 . S
C559 C561 1.419 . S
C560 C558 1.415 . S
C560 C565 1.425 . S
C560 C567 1.409 . S
C561 H553 0.930 . S
C561 C559 1.419 . S
C561 C562 1.362 . S
C562 H554 0.930 . S
C562 C561 1.362 . S
C562 C565 1.409 . S
C563 H555 0.930 . S
C563 C564 1.355 . S
C563 C565 1.415 . S
C564 C563 1.355 . S
C564 C566 1.419 . S
C565 C560 1.425 . S
C565 C562 1.409 . S
C565 C563 1.415 . S
C566 H556 0.930 . S
C566 C564 1.419 . S
C566 C567 1.362 . S
C567 H557 0.930 . S
C567 C560 1.409 . S
C567 C566 1.362 . S
H568 C574 0.930 . S
H569 C577 0.930 . S
H570 C578 0.930 . S
H571 C579 0.930 . S
H572 C582 0.930 1_655 S
H573 C583 0.930 . S
C574 H568 0.930 . S
C574 C575 1.355 . S
C574 C576 1.415 . S
C575 C574 1.355 . S
C575 C577 1.419 . S
C576 C574 1.415 . S
C576 C581 1.425 . S
C576 C583 1.409 . S
C577 H569 0.930 . S
C577 C575 1.419 . S
C577 C578 1.362 . S
C578 H570 0.930 . S
C578 C577 1.362 . S
C578 C581 1.409 . S
C579 H571 0.930 . S
C579 C580 1.355 . S
C579 C581 1.415 . S
C580 C579 1.355 . S
C580 C582 1.419 . S
C581 C576 1.425 . S
C581 C578 1.409 . S
C581 C579 1.415 . S
C582 H572 0.930 1_455 S
C582 C580 1.419 . S
C582 C583 1.362 . S
C583 H573 0.930 . S
C583 C576 1.409 . S
C583 C582 1.362 . S
C271 N167 1.292 . S
C276 N2 1.257 1_554 S
C287 N200 1.292 . S
C292 N35 1.257 . S
C303 N68 1.232 . S
C308 N233 1.239 . S
C319 N134 1.309 . S
C324 N101 1.292 . S
C335 C252 0.947 . S
C340 C21 0.958 . S
C351 C54 0.943 . S
C356 C153 0.961 . S
C367 C186 0.949 . S
C372 C87 0.957 . S
C383 C120 0.947 . S
C388 C219 0.956 . S
C399 C249 1.671 . S
C404 C18 1.673 . S
C415 C51 1.618 . S
C420 C150 1.618 . S
C431 C183 1.664 . S
C436 C84 1.664 . S
C447 C216 1.617 . S
C452 C117 1.617 . S
C463 N13 1.706 . S
C468 C106 1.695 1_565 S
C479 C7 1.699 . S
C484 N46 1.697 . S
C495 C40 1.685 1_545 S
C500 N79 1.668 . S
C511 C73 1.639 . S
C516 N112 1.678 . S
C527 N145 1.695 . S
C532 C172 1.657 1_556 S
C543 C205 1.669 1_655 S
C548 N178 1.703 . S
C559 C238 1.688 . S
C564 N211 1.708 . S
C575 N244 1.693 . S
C580 C139 1.654 1_455 S
