# Generated by pormake.
# Topology dia-a, (4)-cn, num edge types: 1
# Building blocks:
#     Node 0, Type 0, BuildingBlock: UXUYUI_clean_sbu_0, # of connection points: 4
#     Node 1, Type 0, BuildingBlock: UXUYUI_clean_sbu_0, # of connection points: 4
#     Node 2, Type 0, BuildingBlock: UXUYUI_clean_sbu_0, # of connection points: 4
#     Node 3, Type 0, BuildingBlock: UXUYUI_clean_sbu_0, # of connection points: 4
#     Node 4, Type 0, BuildingBlock: UXUYUI_clean_sbu_0, # of connection points: 4
#     Node 5, Type 0, BuildingBlock: UXUYUI_clean_sbu_0, # of connection points: 4
#     Node 6, Type 0, BuildingBlock: UXUYUI_clean_sbu_0, # of connection points: 4
#     Node 7, Type 0, BuildingBlock: UXUYUI_clean_sbu_0, # of connection points: 4
#     Node 8, Type 0, BuildingBlock: UXUYUI_clean_sbu_0, # of connection points: 4
#     Node 9, Type 0, BuildingBlock: UXUYUI_clean_sbu_0, # of connection points: 4
#     Node 10, Type 0, BuildingBlock: UXUYUI_clean_sbu_0, # of connection points: 4
#     Node 11, Type 0, BuildingBlock: UXUYUI_clean_sbu_0, # of connection points: 4
#     Node 12, Type 0, BuildingBlock: UXUYUI_clean_sbu_0, # of connection points: 4
#     Node 13, Type 0, BuildingBlock: UXUYUI_clean_sbu_0, # of connection points: 4
#     Node 14, Type 0, BuildingBlock: UXUYUI_clean_sbu_0, # of connection points: 4
#     Node 15, Type 0, BuildingBlock: UXUYUI_clean_sbu_0, # of connection points: 4
#     Node 16, Type 0, BuildingBlock: UXUYUI_clean_sbu_0, # of connection points: 4
#     Node 17, Type 0, BuildingBlock: UXUYUI_clean_sbu_0, # of connection points: 4
#     Node 18, Type 0, BuildingBlock: UXUYUI_clean_sbu_0, # of connection points: 4
#     Node 19, Type 0, BuildingBlock: UXUYUI_clean_sbu_0, # of connection points: 4
#     Node 20, Type 0, BuildingBlock: UXUYUI_clean_sbu_0, # of connection points: 4
#     Node 21, Type 0, BuildingBlock: UXUYUI_clean_sbu_0, # of connection points: 4
#     Node 22, Type 0, BuildingBlock: UXUYUI_clean_sbu_0, # of connection points: 4
#     Node 23, Type 0, BuildingBlock: UXUYUI_clean_sbu_0, # of connection points: 4
#     Node 24, Type 0, BuildingBlock: UXUYUI_clean_sbu_0, # of connection points: 4
#     Node 25, Type 0, BuildingBlock: UXUYUI_clean_sbu_0, # of connection points: 4
#     Node 26, Type 0, BuildingBlock: UXUYUI_clean_sbu_0, # of connection points: 4
#     Node 27, Type 0, BuildingBlock: UXUYUI_clean_sbu_0, # of connection points: 4
#     Node 28, Type 0, BuildingBlock: UXUYUI_clean_sbu_0, # of connection points: 4
#     Node 29, Type 0, BuildingBlock: UXUYUI_clean_sbu_0, # of connection points: 4
#     Node 30, Type 0, BuildingBlock: UXUYUI_clean_sbu_0, # of connection points: 4
#     Node 31, Type 0, BuildingBlock: UXUYUI_clean_sbu_0, # of connection points: 4
#     Edge 32, Type (0, 0), None
#     Edge 33, Type (0, 0), None
#     Edge 34, Type (0, 0), None
#     Edge 35, Type (0, 0), None
#     Edge 36, Type (0, 0), None
#     Edge 37, Type (0, 0), None
#     Edge 38, Type (0, 0), None
#     Edge 39, Type (0, 0), None
#     Edge 40, Type (0, 0), None
#     Edge 41, Type (0, 0), None
#     Edge 42, Type (0, 0), None
#     Edge 43, Type (0, 0), None
#     Edge 44, Type (0, 0), None
#     Edge 45, Type (0, 0), None
#     Edge 46, Type (0, 0), None
#     Edge 47, Type (0, 0), None
#     Edge 48, Type (0, 0), None
#     Edge 49, Type (0, 0), None
#     Edge 50, Type (0, 0), None
#     Edge 51, Type (0, 0), None
#     Edge 52, Type (0, 0), None
#     Edge 53, Type (0, 0), None
#     Edge 54, Type (0, 0), None
#     Edge 55, Type (0, 0), None
#     Edge 56, Type (0, 0), None
#     Edge 57, Type (0, 0), None
#     Edge 58, Type (0, 0), None
#     Edge 59, Type (0, 0), None
#     Edge 60, Type (0, 0), None
#     Edge 61, Type (0, 0), None
#     Edge 62, Type (0, 0), None
#     Edge 63, Type (0, 0), None
#     Edge 64, Type (0, 0), None
#     Edge 65, Type (0, 0), None
#     Edge 66, Type (0, 0), None
#     Edge 67, Type (0, 0), None
#     Edge 68, Type (0, 0), None
#     Edge 69, Type (0, 0), None
#     Edge 70, Type (0, 0), None
#     Edge 71, Type (0, 0), None
#     Edge 72, Type (0, 0), None
#     Edge 73, Type (0, 0), None
#     Edge 74, Type (0, 0), None
#     Edge 75, Type (0, 0), None
#     Edge 76, Type (0, 0), None
#     Edge 77, Type (0, 0), None
#     Edge 78, Type (0, 0), None
#     Edge 79, Type (0, 0), None
#     Edge 80, Type (0, 0), None
#     Edge 81, Type (0, 0), None
#     Edge 82, Type (0, 0), None
#     Edge 83, Type (0, 0), None
#     Edge 84, Type (0, 0), None
#     Edge 85, Type (0, 0), None
#     Edge 86, Type (0, 0), None
#     Edge 87, Type (0, 0), None
#     Edge 88, Type (0, 0), None
#     Edge 89, Type (0, 0), None
#     Edge 90, Type (0, 0), None
#     Edge 91, Type (0, 0), None
#     Edge 92, Type (0, 0), None
#     Edge 93, Type (0, 0), None
#     Edge 94, Type (0, 0), None
#     Edge 95, Type (0, 0), None
# Relax obj value: 0.918
# Max RMSD: 0.302
# Mean RMSD: 0.302
data_MOF--net-dia-a--node1-UXUYUI_clean_sbu_0--edge1-none
_symmetry_space_group_name_H-M    P1
_symmetry_Int_Tables_number       1
_symmetry_cell_setting            triclinic
loop_
_symmetry_equiv_pos_as_xyz
'x, y, z'
_cell_length_a     35.214136
_cell_length_b     67.863089
_cell_length_c     67.863114
_cell_angle_alpha  90.00574
_cell_angle_beta   90.001066
_cell_angle_gamma 90.002036
loop_
_atom_site_label
_atom_site_type_symbol
_atom_site_fract_x
_atom_site_fract_y
_atom_site_fract_z
_atom_type_partial_charge
Li0 Li 0.01173 0.05344 0.5747 0.0
Li1 Li 0.95277 0.07325 0.57273 0.0
Li2 Li 0.97114 0.05209 0.54563 0.0
Li3 Li 0.0055 0.08176 0.55199 0.0
C4 C 0.92328 0.03476 0.5738 0.0
N5 N 0.85269 0.01701 0.57437 0.0
C6 C 0.89285 0.04329 0.56369 0.0
C7 C 0.91783 0.01721 0.58418 0.0
C8 C 0.85737 0.03409 0.56418 0.0
C9 C 0.88193 0.00845 0.58429 0.0
C10 C 0.01269 0.09417 0.59585 0.0
C11 C 0.00246 0.13576 0.61472 0.0
N12 N 0.04915 0.12391 0.63591 0.0
C13 C 0.04873 0.08659 0.61325 0.0
C14 C 0.98949 0.1178 0.59618 0.0
C15 C 0.06693 0.10144 0.63309 0.0
C16 C 0.08553 0.04494 0.58401 0.0
N17 N 0.04955 0.04105 0.59014 0.0
C18 C 0.07286 0.02598 0.61951 0.0
C19 C 0.0426 0.03117 0.60719 0.0
C20 C 0.11023 0.03093 0.61402 0.0
C21 C 0.11642 0.03978 0.59565 0.0
H22 H 0.09017 0.05334 0.5707 0.0
H23 H 0.01364 0.0285 0.61177 0.0
C24 C 0.8952 0.10062 0.58149 0.0
N25 N 0.91536 0.08511 0.5886 0.0
C26 C 0.88043 0.11463 0.59447 0.0
C27 C 0.90336 0.09493 0.62168 0.0
C28 C 0.91762 0.08134 0.60819 0.0
C29 C 0.8871 0.11259 0.61481 0.0
H30 H 0.89417 0.10329 0.56579 0.0
H31 H 0.93448 0.06904 0.61332 0.0
C32 C 0.04455 0.03849 0.54101 0.0
N33 N 0.0805 0.00427 0.52905 0.0
C34 C 0.07267 0.03914 0.52646 0.0
C35 C 0.03497 0.02039 0.54954 0.0
C36 C 0.09039 0.02168 0.52058 0.0
C37 C 0.05343 0.00328 0.5433 0.0
C38 C 0.94685 0.0946 0.53104 0.0
C39 C 0.93443 0.09111 0.51179 0.0
C40 C 0.95385 0.11391 0.53716 0.0
C41 C 0.93037 0.10696 0.49881 0.0
C42 C 0.94954 0.12937 0.52376 0.0
N43 N 0.93803 0.1256 0.50501 0.0
C44 C 0.95625 0.01585 0.52676 0.0
C45 C 0.97874 0.04285 0.50778 0.0
C46 C 0.97031 0.00261 0.51283 0.0
N47 N 0.96224 0.03547 0.52429 0.0
C48 C 0.99293 0.0302 0.4935 0.0
C49 C 0.99045 0.00982 0.49645 0.0
H50 H 0.94485 0.01038 0.5405 0.0
H51 H 0.98557 0.05835 0.50697 0.0
C52 C 0.04874 0.11639 0.55149 0.0
N53 N 0.03778 0.10068 0.54052 0.0
C54 C 0.08292 0.12575 0.54744 0.0
C55 C 0.09201 0.10387 0.51966 0.0
C56 C 0.05722 0.09505 0.52414 0.0
C57 C 0.10579 0.11867 0.5321 0.0
H58 H 0.03292 0.12048 0.5644 0.0
H59 H 0.04756 0.0825 0.51574 0.0
O60 O 0.95845 0.0433 0.57347 0.0
O61 O 0.00403 0.0813 0.58086 0.0
O62 O 0.0266 0.05548 0.54683 0.0
O63 O 0.95063 0.07927 0.54401 0.0
H64 H 0.89644 0.05684 0.55555 0.0
H65 H 0.94118 0.0104 0.59202 0.0
H66 H 0.83356 0.04053 0.55643 0.0
H67 H 0.87731 0.99485 0.59225 0.0
H68 H 0.98791 0.15002 0.61419 0.0
H69 H 0.06093 0.07218 0.61165 0.0
H70 H 0.96816 0.12142 0.58538 0.0
H71 H 0.0613 0.11628 0.63857 0.0
H72 H 0.06702 0.01927 0.63367 0.0
H73 H 0.14457 0.04433 0.59108 0.0
H74 H 0.86757 0.12786 0.58857 0.0
H75 H 0.90958 0.09272 0.63715 0.0
H76 H 0.08082 0.05294 0.51975 0.0
H77 H 0.01325 0.01949 0.56077 0.0
H78 H 0.11204 0.02199 0.50928 0.0
H79 H 0.04609 0.98919 0.54971 0.0
H80 H 0.92745 0.07636 0.50696 0.0
H81 H 0.96279 0.11691 0.55206 0.0
H82 H 0.92091 0.10445 0.48386 0.0
H83 H 0.95527 0.14437 0.52829 0.0
H84 H 0.96751 0.98694 0.51544 0.0
H85 H 0.00862 0.0363 0.4812 0.0
H86 H 0.09306 0.13717 0.5573 0.0
H87 H 0.10928 0.09809 0.50779 0.0
Li88 Li 0.98902 0.3247 0.80344 0.0
Li89 Li 0.04798 0.32273 0.82325 0.0
Li90 Li 0.02961 0.29564 0.80208 0.0
Li91 Li 0.99524 0.302 0.83175 0.0
C92 C 0.07746 0.3238 0.78476 0.0
N93 N 0.14805 0.32437 0.767 0.0
C94 C 0.1079 0.3137 0.79329 0.0
C95 C 0.08291 0.33418 0.7672 0.0
C96 C 0.14338 0.31418 0.78409 0.0
C97 C 0.11881 0.33429 0.75844 0.0
C98 C 0.98806 0.34585 0.84416 0.0
C99 C 0.99828 0.36472 0.88576 0.0
N100 N 0.95157 0.3859 0.87391 0.0
C101 C 0.952 0.36325 0.83659 0.0
C102 C 0.01126 0.34618 0.8678 0.0
C103 C 0.9338 0.38308 0.85144 0.0
C104 C 0.91522 0.33401 0.79492 0.0
N105 N 0.9512 0.34015 0.79104 0.0
C106 C 0.9279 0.36952 0.77599 0.0
C107 C 0.95816 0.3572 0.78118 0.0
C108 C 0.89054 0.36403 0.78093 0.0
C109 C 0.88434 0.34565 0.78977 0.0
H110 H 0.91058 0.3207 0.80332 0.0
H111 H 0.98713 0.36178 0.77851 0.0
C112 C 0.10554 0.33149 0.85062 0.0
N113 N 0.08539 0.33861 0.83511 0.0
C114 C 0.12031 0.34448 0.86463 0.0
C115 C 0.09737 0.37168 0.84494 0.0
C116 C 0.08313 0.35819 0.83134 0.0
C117 C 0.11363 0.36481 0.8626 0.0
H118 H 0.10657 0.3158 0.85329 0.0
H119 H 0.06626 0.36333 0.81904 0.0
C120 C 0.95619 0.29101 0.78848 0.0
N121 N 0.92024 0.27905 0.75426 0.0
C122 C 0.92807 0.27647 0.78913 0.0
C123 C 0.96578 0.29955 0.77038 0.0
C124 C 0.91035 0.27058 0.77167 0.0
C125 C 0.94732 0.2933 0.75327 0.0
C126 C 0.05389 0.28104 0.8446 0.0
C127 C 0.06631 0.26179 0.84111 0.0
C128 C 0.04689 0.28716 0.86391 0.0
C129 C 0.07037 0.24882 0.85696 0.0
C130 C 0.0512 0.27376 0.87937 0.0
N131 N 0.06271 0.25501 0.8756 0.0
C132 C 0.04449 0.27676 0.76585 0.0
C133 C 0.022 0.25778 0.79284 0.0
C134 C 0.03042 0.26283 0.7526 0.0
N135 N 0.0385 0.27429 0.78546 0.0
C136 C 0.0078 0.2435 0.7802 0.0
C137 C 0.01028 0.24646 0.75981 0.0
H138 H 0.05589 0.2905 0.76038 0.0
H139 H 0.01517 0.25697 0.80834 0.0
C140 C 0.952 0.30149 0.86638 0.0
N141 N 0.96297 0.29052 0.85067 0.0
C142 C 0.91783 0.29744 0.87575 0.0
C143 C 0.90873 0.26966 0.85386 0.0
C144 C 0.94352 0.27414 0.84504 0.0
C145 C 0.89495 0.2821 0.86866 0.0
H146 H 0.96783 0.3144 0.87047 0.0
H147 H 0.95318 0.26574 0.83249 0.0
O148 O 0.0423 0.32347 0.7933 0.0
O149 O 0.99672 0.33087 0.83129 0.0
O150 O 0.97415 0.29683 0.80547 0.0
O151 O 0.05011 0.29401 0.82926 0.0
H152 H 0.10431 0.30556 0.80684 0.0
H153 H 0.05956 0.34201 0.76039 0.0
H154 H 0.1672 0.30644 0.79053 0.0
H155 H 0.12342 0.34224 0.74484 0.0
H156 H 0.01282 0.36419 0.90002 0.0
H157 H 0.9398 0.36165 0.82217 0.0
H158 H 0.03258 0.33538 0.87142 0.0
H159 H 0.93942 0.38856 0.86628 0.0
H160 H 0.93375 0.38369 0.76928 0.0
H161 H 0.85619 0.34108 0.79432 0.0
H162 H 0.13317 0.33857 0.87787 0.0
H163 H 0.09115 0.38715 0.84273 0.0
H164 H 0.91992 0.26976 0.80293 0.0
H165 H 0.9875 0.31077 0.76949 0.0
H166 H 0.8887 0.25928 0.77198 0.0
H167 H 0.95465 0.29971 0.73919 0.0
H168 H 0.07329 0.25696 0.82636 0.0
H169 H 0.03795 0.30207 0.8669 0.0
H170 H 0.07982 0.23386 0.85445 0.0
H171 H 0.04547 0.27829 0.89436 0.0
H172 H 0.03322 0.26544 0.73693 0.0
H173 H 0.99211 0.2312 0.78629 0.0
H174 H 0.90769 0.3073 0.88716 0.0
H175 H 0.89146 0.25779 0.84808 0.0
Li176 Li 0.79816 0.16951 0.07273 0.0
Li177 Li 0.73916 0.18929 0.07473 0.0
Li178 Li 0.74543 0.16099 0.05201 0.0
Li179 Li 0.77968 0.1907 0.04564 0.0
C180 C 0.73827 0.14857 0.09586 0.0
N181 N 0.7018 0.11882 0.13591 0.0
C182 C 0.70222 0.15614 0.11327 0.0
C183 C 0.76147 0.12493 0.09619 0.0
C184 C 0.68403 0.14129 0.1331 0.0
C185 C 0.7485 0.10697 0.11472 0.0
C186 C 0.82755 0.20804 0.07378 0.0
C187 C 0.86882 0.23442 0.0842 0.0
N188 N 0.89809 0.22586 0.07431 0.0
C189 C 0.85802 0.1995 0.06371 0.0
C190 C 0.83294 0.22563 0.08411 0.0
C191 C 0.89347 0.20874 0.06417 0.0
C192 C 0.85571 0.14212 0.08149 0.0
N193 N 0.83558 0.15765 0.08861 0.0
C194 C 0.84752 0.14781 0.12168 0.0
C195 C 0.83331 0.16142 0.10819 0.0
C196 C 0.86376 0.13014 0.11481 0.0
C197 C 0.87043 0.12811 0.09448 0.0
H198 H 0.85674 0.13946 0.0658 0.0
H199 H 0.81646 0.17372 0.11333 0.0
C200 C 0.66537 0.19777 0.08407 0.0
N201 N 0.70135 0.20168 0.09019 0.0
C202 C 0.63449 0.20293 0.09571 0.0
C203 C 0.67806 0.21677 0.11955 0.0
C204 C 0.70831 0.21157 0.10722 0.0
C205 C 0.64069 0.21181 0.11406 0.0
H206 H 0.66072 0.18935 0.07077 0.0
H207 H 0.73728 0.21426 0.11179 0.0
C208 C 0.80403 0.14819 0.03102 0.0
N209 N 0.81277 0.11719 0.00497 0.0
C210 C 0.81633 0.15168 0.01175 0.0
C211 C 0.7971 0.12888 0.03715 0.0
C212 C 0.82036 0.13583 -0.00123 0.0
C213 C 0.80137 0.11342 0.02374 0.0
C214 C 0.7062 0.20422 0.04106 0.0
C215 C 0.67803 0.20353 0.02655 0.0
C216 C 0.71573 0.22233 0.04959 0.0
C217 C 0.6602 0.22096 0.02068 0.0
C218 C 0.69716 0.23942 0.04336 0.0
N219 N 0.67004 0.23839 0.02914 0.0
C220 C 0.70222 0.12635 0.05149 0.0
C221 C 0.69375 0.14768 0.02414 0.0
C222 C 0.66804 0.11699 0.04744 0.0
N223 N 0.71319 0.14206 0.04052 0.0
C224 C 0.65897 0.13886 0.01965 0.0
C225 C 0.64518 0.12406 0.03209 0.0
H226 H 0.71803 0.12227 0.06441 0.0
H227 H 0.70342 0.16023 0.01573 0.0
C228 C 0.79434 0.22697 0.02677 0.0
N229 N 0.78844 0.20735 0.02428 0.0
C230 C 0.78013 0.24021 0.01287 0.0
C231 C 0.75757 0.2126 0.99354 0.0
C232 C 0.7719 0.19996 0.00779 0.0
C233 C 0.75995 0.23298 -0.0035 0.0
H234 H 0.80577 0.23244 0.0405 0.0
H235 H 0.76515 0.18445 0.00697 0.0
O236 O 0.74693 0.16144 0.08088 0.0
O237 O 0.79242 0.19947 0.07347 0.0
O238 O 0.80028 0.16353 0.04399 0.0
O239 O 0.72424 0.18725 0.04687 0.0
H240 H 0.69002 0.17056 0.11167 0.0
H241 H 0.78279 0.12131 0.08538 0.0
H242 H 0.68965 0.12645 0.13857 0.0
H243 H 0.76304 0.09271 0.11419 0.0
H244 H 0.87338 0.24806 0.09211 0.0
H245 H 0.85448 0.18592 0.05561 0.0
H246 H 0.80957 0.23245 0.09193 0.0
H247 H 0.91731 0.2023 0.05645 0.0
H248 H 0.8413 0.15002 0.13715 0.0
H249 H 0.88327 0.11486 0.08858 0.0
H250 H 0.60634 0.19837 0.09115 0.0
H251 H 0.68391 0.2235 0.1337 0.0
H252 H 0.82325 0.16644 0.00692 0.0
H253 H 0.78825 0.12588 0.05207 0.0
H254 H 0.82972 0.13835 0.9838 0.0
H255 H 0.7957 0.09842 0.02828 0.0
H256 H 0.66991 0.18972 0.01985 0.0
H257 H 0.73749 0.22326 0.06079 0.0
H258 H 0.6385 0.22063 0.0094 0.0
H259 H 0.70446 0.25351 0.04977 0.0
H260 H 0.65789 0.10558 0.0573 0.0
H261 H 0.64171 0.14464 0.00777 0.0
H262 H 0.78287 0.25588 0.01549 0.0
H263 H 0.74185 0.20649 0.98125 0.0
Li264 Li 0.75448 0.94068 0.33169 0.0
Li265 Li 0.72024 0.94704 0.30197 0.0
Li266 Li 0.70174 0.91996 0.32316 0.0
Li267 Li 0.76076 0.91795 0.30339 0.0
C268 C 0.69582 0.96167 0.34447 0.0
N269 N 0.68693 0.98772 0.37545 0.0
C270 C 0.68344 0.98093 0.34096 0.0
C271 C 0.70276 0.95556 0.36379 0.0
C272 C 0.67934 0.99391 0.3568 0.0
C273 C 0.69841 0.96897 0.37924 0.0
C274 C 0.79373 0.95161 0.28845 0.0
C275 C 0.80277 0.9493 0.25326 0.0
N276 N 0.82988 0.96352 0.25428 0.0
C277 C 0.82188 0.96613 0.28914 0.0
C278 C 0.7842 0.94307 0.27035 0.0
C279 C 0.8397 0.972 0.27171 0.0
C280 C 0.79766 0.94122 0.36634 0.0
N281 N 0.78671 0.95217 0.35062 0.0
C282 C 0.84093 0.97304 0.35382 0.0
C283 C 0.80615 0.96855 0.345 0.0
C284 C 0.8547 0.96062 0.36863 0.0
C285 C 0.83182 0.94528 0.37572 0.0
H286 H 0.78184 0.9283 0.37043 0.0
H287 H 0.7965 0.97695 0.33243 0.0
C288 C 0.70565 0.96593 0.2657 0.0
N289 N 0.7115 0.9684 0.28533 0.0
C290 C 0.71986 0.97984 0.25248 0.0
C291 C 0.74234 -0.00084 0.28012 0.0
C292 C 0.72801 0.98489 0.29274 0.0
C293 C 0.74 0.99621 0.25973 0.0
H294 H 0.69424 0.9522 0.26021 0.0
H295 H 0.73473 0.9857 0.30825 0.0
C296 C 0.76162 0.89684 0.34413 0.0
N297 N 0.7981 0.85683 0.37392 0.0
C298 C 0.79768 0.87943 0.33658 0.0
C299 C 0.73842 0.89653 0.36776 0.0
C300 C 0.81588 0.85961 0.35144 0.0
C301 C 0.75139 0.87802 0.38575 0.0
C302 C 0.67237 0.91889 0.28462 0.0
C303 C 0.64189 0.92896 0.29317 0.0
C304 C 0.66701 0.90859 0.26702 0.0
C305 C 0.60646 0.9285 0.28393 0.0
C306 C 0.63114 0.90851 0.25822 0.0
N307 N 0.60186 0.91838 0.26679 0.0
C308 C 0.64419 0.91121 0.35056 0.0
C309 C 0.66659 0.88449 0.33129 0.0
C310 C 0.62948 0.89824 0.36459 0.0
N311 N 0.66431 0.90408 0.33504 0.0
C312 C 0.65239 0.87102 0.34492 0.0
C313 C 0.63616 0.87791 0.36258 0.0
H314 H 0.64315 0.92691 0.35321 0.0
H315 H 0.68344 0.87935 0.31899 0.0
C316 C 0.83456 0.9086 0.29494 0.0
N317 N 0.79859 0.90248 0.29102 0.0
C318 C 0.86545 0.89696 0.2898 0.0
C319 C 0.82191 0.87311 0.27595 0.0
C320 C 0.79165 0.88544 0.28114 0.0
C321 C 0.85927 0.8786 0.28092 0.0
H322 H 0.83919 0.92191 0.30336 0.0
H323 H 0.76268 0.88086 0.27844 0.0
O324 O 0.69964 0.94869 0.32914 0.0
O325 O 0.77568 0.9458 0.30542 0.0
O326 O 0.75297 0.91181 0.33125 0.0
O327 O 0.7075 0.9192 0.29321 0.0
H328 H 0.67652 0.98574 0.3262 0.0
H329 H 0.71167 0.94066 0.36679 0.0
H330 H 0.66992 0.00887 0.35427 0.0
H331 H 0.70408 0.96445 0.39424 0.0
H332 H 0.79548 0.94288 0.23917 0.0
H333 H 0.82998 0.97284 0.30294 0.0
H334 H 0.76246 0.93186 0.26943 0.0
H335 H 0.86139 0.98328 0.27203 0.0
H336 H 0.8582 0.98492 0.34804 0.0
H337 H 0.84196 0.93543 0.38714 0.0
H338 H 0.71716 0.97723 0.23681 0.0
H339 H 0.75803 0.01145 0.28625 0.0
H340 H 0.80988 0.88101 0.32216 0.0
H341 H 0.7171 0.90735 0.37137 0.0
H342 H 0.81025 0.85416 0.36629 0.0
H343 H 0.73685 0.87857 0.40001 0.0
H344 H 0.64543 0.93704 0.30676 0.0
H345 H 0.69039 0.90079 0.2602 0.0
H346 H 0.58261 0.93621 0.29037 0.0
H347 H 0.62659 0.90061 0.24458 0.0
H348 H 0.61664 0.90416 0.37783 0.0
H349 H 0.65862 0.85555 0.34272 0.0
H350 H 0.89359 0.90152 0.29437 0.0
H351 H 0.81607 0.85896 0.26923 0.0
Li352 Li 0.97113 0.19065 0.6971 0.0
Li353 Li 0.00549 0.16098 0.69073 0.0
Li354 Li 0.01172 0.18929 0.66803 0.0
Li355 Li 0.95276 0.16949 0.67 0.0
C356 C 0.04455 0.20425 0.70172 0.0
N357 N 0.0805 0.23847 0.71368 0.0
C358 C 0.07266 0.2036 0.71627 0.0
C359 C 0.03496 0.22235 0.69319 0.0
C360 C 0.09038 0.22106 0.72215 0.0
C361 C 0.05342 0.23946 0.69943 0.0
C362 C 0.94684 0.14814 0.71169 0.0
C363 C 0.94952 0.11336 0.71896 0.0
N364 N 0.93801 0.11713 0.73771 0.0
C365 C 0.93442 0.15162 0.73094 0.0
C366 C 0.95383 0.12882 0.70556 0.0
C367 C 0.93036 0.13577 0.74391 0.0
C368 C 0.95625 0.22688 0.71597 0.0
N369 N 0.96223 0.20727 0.71844 0.0
C370 C 0.99293 0.21254 0.74923 0.0
C371 C 0.97873 0.19989 0.73495 0.0
C372 C 0.99046 0.23292 0.74628 0.0
C373 C 0.97031 0.24013 0.7299 0.0
H374 H 0.94485 0.23235 0.70223 0.0
H375 H 0.98556 0.18439 0.73576 0.0
C376 C 0.04871 0.12635 0.69124 0.0
N377 N 0.03776 0.14206 0.70221 0.0
C378 C 0.08289 0.11698 0.69529 0.0
C379 C 0.092 0.13886 0.72306 0.0
C380 C 0.05721 0.14768 0.71858 0.0
C381 C 0.10577 0.12406 0.71063 0.0
H382 H 0.03288 0.12226 0.67833 0.0
H383 H 0.04755 0.16024 0.72699 0.0
C384 C 0.92328 0.20798 0.66893 0.0
N385 N 0.85269 0.22573 0.66835 0.0
C386 C 0.89284 0.19944 0.67904 0.0
C387 C 0.91783 0.22553 0.65855 0.0
C388 C 0.85736 0.20865 0.67855 0.0
C389 C 0.88192 0.23429 0.65844 0.0
C390 C 0.01268 0.14857 0.64688 0.0
C391 C 0.04874 0.15614 0.62949 0.0
C392 C 0.98947 0.12494 0.64654 0.0
C393 C 0.06695 0.1413 0.60965 0.0
C394 C 0.00245 0.10698 0.62801 0.0
N395 N 0.04916 0.11882 0.60683 0.0
C396 C 0.08552 0.19781 0.65872 0.0
C397 C 0.04259 0.21156 0.63554 0.0
C398 C 0.11641 0.20296 0.64708 0.0
N399 N 0.04954 0.2017 0.65259 0.0
C400 C 0.07285 0.21675 0.62321 0.0
C401 C 0.11021 0.21181 0.62871 0.0
H402 H 0.09016 0.18941 0.67203 0.0
H403 H 0.01362 0.21423 0.63095 0.0
C404 C 0.89519 0.14212 0.66124 0.0
N405 N 0.91535 0.15763 0.65412 0.0
C406 C 0.88042 0.12811 0.64825 0.0
C407 C 0.90337 0.14781 0.62104 0.0
C408 C 0.91762 0.1614 0.63454 0.0
C409 C 0.8871 0.13015 0.62792 0.0
H410 H 0.89415 0.13945 0.67693 0.0
H411 H 0.93449 0.1737 0.6294 0.0
O412 O 0.02659 0.18726 0.6959 0.0
O413 O 0.95062 0.16347 0.69872 0.0
O414 O 0.95844 0.19943 0.66926 0.0
O415 O 0.00401 0.16144 0.66186 0.0
H416 H 0.08081 0.1898 0.72298 0.0
H417 H 0.01324 0.22324 0.68196 0.0
H418 H 0.11204 0.22075 0.73345 0.0
H419 H 0.04609 0.25355 0.69302 0.0
H420 H 0.95524 0.09837 0.71443 0.0
H421 H 0.92745 0.16637 0.73577 0.0
H422 H 0.96276 0.12583 0.69066 0.0
H423 H 0.92091 0.13828 0.75887 0.0
H424 H 0.00862 0.20644 0.76153 0.0
H425 H 0.96751 0.2558 0.72729 0.0
H426 H 0.09302 0.10556 0.68543 0.0
H427 H 0.10927 0.14464 0.73494 0.0
H428 H 0.89643 0.1859 0.68718 0.0
H429 H 0.94118 0.23234 0.65071 0.0
H430 H 0.83354 0.20221 0.68629 0.0
H431 H 0.87731 0.24789 0.65048 0.0
H432 H 0.06095 0.17056 0.63109 0.0
H433 H 0.96814 0.12132 0.65735 0.0
H434 H 0.06132 0.12646 0.60418 0.0
H435 H 0.9879 0.09272 0.62853 0.0
H436 H 0.14456 0.19841 0.65165 0.0
H437 H 0.067 0.22346 0.60905 0.0
H438 H 0.86755 0.11487 0.65415 0.0
H439 H 0.90959 0.15001 0.60558 0.0
Li440 Li 0.76076 0.32477 0.93933 0.0
Li441 Li 0.70175 0.32275 0.91956 0.0
Li442 Li 0.72024 0.29567 0.94075 0.0
Li443 Li 0.75449 0.30203 0.91104 0.0
C444 C 0.67237 0.32381 0.95809 0.0
N445 N 0.60185 0.32432 0.97592 0.0
C446 C 0.6419 0.31375 0.94955 0.0
C447 C 0.667 0.33412 0.97569 0.0
C448 C 0.60646 0.3142 0.95879 0.0
C449 C 0.63113 0.3342 0.98449 0.0
C450 C 0.76163 0.34587 0.8986 0.0
C451 C 0.75141 0.3647 0.85698 0.0
N452 N 0.79811 0.38589 0.86881 0.0
C453 C 0.79768 0.36328 0.90615 0.0
C454 C 0.73843 0.34618 0.87496 0.0
C455 C 0.81588 0.3831 0.89129 0.0
C456 C 0.83456 0.33411 0.94779 0.0
N457 N 0.79858 0.34024 0.95171 0.0
C458 C 0.8219 0.36961 0.96677 0.0
C459 C 0.79164 0.35727 0.96159 0.0
C460 C 0.85926 0.36412 0.9618 0.0
C461 C 0.86545 0.34576 0.95293 0.0
H462 H 0.8392 0.32081 0.93937 0.0
H463 H 0.76267 0.36185 0.96428 0.0
C464 C 0.6442 0.33149 0.89216 0.0
N465 N 0.66432 0.33862 0.90768 0.0
C466 C 0.62949 0.34447 0.87812 0.0
C467 C 0.6524 0.37169 0.8978 0.0
C468 C 0.6666 0.35821 0.91143 0.0
C469 C 0.63617 0.3648 0.88014 0.0
H470 H 0.64316 0.3158 0.88951 0.0
H471 H 0.68345 0.36336 0.92373 0.0
C472 C 0.79373 0.2911 0.95427 0.0
N473 N 0.82987 0.27919 0.98845 0.0
C474 C 0.82189 0.27659 0.95359 0.0
C475 C 0.7842 0.29964 0.97238 0.0
C476 C 0.83971 0.27072 0.97103 0.0
C477 C 0.80276 0.29342 0.98947 0.0
C478 C 0.69584 0.28104 0.89825 0.0
C479 C 0.68347 0.26178 0.90176 0.0
C480 C 0.70277 0.28715 0.87893 0.0
C481 C 0.67938 0.2488 0.88592 0.0
C482 C 0.69844 0.27374 0.86348 0.0
N483 N 0.68697 0.25498 0.86727 0.0
C484 C 0.70564 0.27678 0.97702 0.0
C485 C 0.72801 0.25782 0.94999 0.0
C486 C 0.71985 0.26287 0.99024 0.0
N487 N 0.7115 0.27431 0.95739 0.0
C488 C 0.74235 0.24355 0.96261 0.0
C489 C 0.74 0.24651 0.983 0.0
H490 H 0.69423 0.29051 0.98251 0.0
H491 H 0.73474 0.25701 0.93447 0.0
C492 C 0.79767 0.30149 0.87639 0.0
N493 N 0.78672 0.29054 0.8921 0.0
C494 C 0.83183 0.29743 0.86701 0.0
C495 C 0.84094 0.26967 0.8889 0.0
C496 C 0.80617 0.27416 0.89773 0.0
C497 C 0.8547 0.2821 0.87409 0.0
H498 H 0.78185 0.31441 0.87229 0.0
H499 H 0.79652 0.26577 0.9103 0.0
O500 O 0.7075 0.32351 0.94951 0.0
O501 O 0.75298 0.3309 0.91148 0.0
O502 O 0.77568 0.29691 0.9373 0.0
O503 O 0.69965 0.29402 0.91358 0.0
H504 H 0.64543 0.30566 0.93596 0.0
H505 H 0.69037 0.34193 0.98251 0.0
H506 H 0.58261 0.30649 0.95234 0.0
H507 H 0.62657 0.3421 -0.00187 0.0
H508 H 0.73687 0.36415 0.84272 0.0
H509 H 0.80988 0.36171 0.92057 0.0
H510 H 0.71712 0.33537 0.87135 0.0
H511 H 0.81026 0.38856 0.87644 0.0
H512 H 0.81606 0.38376 0.9735 0.0
H513 H 0.89359 0.3412 0.94836 0.0
H514 H 0.61666 0.33855 0.86488 0.0
H515 H 0.65862 0.38716 0.9 0.0
H516 H 0.82999 0.26988 0.93979 0.0
H517 H 0.76245 0.31085 0.9733 0.0
H518 H 0.86139 0.25944 0.9707 0.0
H519 H 0.79547 0.29983 0.00356 0.0
H520 H 0.67655 0.25696 0.91652 0.0
H521 H 0.71168 0.30206 0.87593 0.0
H522 H 0.66996 0.23384 0.88844 0.0
H523 H 0.70411 0.27826 0.84848 0.0
H524 H 0.71714 0.26548 0.00592 0.0
H525 H 0.75804 0.23127 0.95649 0.0
H526 H 0.84196 0.30729 0.85559 0.0
H527 H 0.85821 0.2578 0.89468 0.0
Li528 Li 0.74542 0.08173 0.19073 0.0
Li529 Li 0.77969 0.05203 0.1971 0.0
Li530 Li 0.79817 0.07322 0.17002 0.0
Li531 Li 0.73917 0.05343 0.16801 0.0
C532 C 0.80402 0.09454 0.21172 0.0
N533 N 0.81277 0.12554 0.23777 0.0
C534 C 0.81632 0.09105 0.23099 0.0
C535 C 0.7971 0.11385 0.20559 0.0
C536 C 0.82035 0.1069 0.24397 0.0
C537 C 0.80137 0.12931 0.21899 0.0
C538 C 0.70621 0.0385 0.20168 0.0
C539 C 0.69719 0.0033 0.19937 0.0
N540 N 0.67006 0.00432 0.21359 0.0
C541 C 0.67804 0.03918 0.21619 0.0
C542 C 0.71575 0.02039 0.19315 0.0
C543 C 0.66022 0.02175 0.22205 0.0
C544 C 0.70222 0.11637 0.19124 0.0
N545 N 0.71318 0.10066 0.20221 0.0
C546 C 0.65894 0.10387 0.22307 0.0
C547 C 0.69373 0.09504 0.21859 0.0
C548 C 0.64517 0.11866 0.21063 0.0
C549 C 0.66805 0.12574 0.19529 0.0
H550 H 0.71805 0.12046 0.17833 0.0
H551 H 0.70338 0.08249 0.22699 0.0
C552 C 0.79435 0.01576 0.21597 0.0
N553 N 0.78845 0.03538 0.21846 0.0
C554 C 0.78015 0.00252 0.22987 0.0
C555 C 0.75757 0.03012 0.2492 0.0
C556 C 0.7719 0.04276 0.23495 0.0
C557 C 0.75996 0.00974 0.24623 0.0
H558 H 0.80579 0.01029 0.20224 0.0
H559 H 0.76514 0.05827 0.23577 0.0
C560 C 0.73827 0.09415 0.14688 0.0
N561 N 0.7018 0.12391 0.10684 0.0
C562 C 0.70222 0.08659 0.12948 0.0
C563 C 0.76148 0.11779 0.14655 0.0
C564 C 0.68402 0.10143 0.10965 0.0
C565 C 0.74851 0.13575 0.12801 0.0
C566 C 0.82758 0.0347 0.16896 0.0
C567 C 0.85803 0.04324 0.17906 0.0
C568 C 0.833 0.01712 0.15861 0.0
C569 C 0.89348 0.03401 0.17859 0.0
C570 C 0.86889 0.00835 0.15853 0.0
N571 N 0.89813 0.01691 0.16843 0.0
C572 C 0.85571 0.10061 0.16125 0.0
C573 C 0.83331 0.08131 0.13455 0.0
C574 C 0.87043 0.11463 0.14826 0.0
N575 N 0.83559 0.08509 0.15414 0.0
C576 C 0.84752 0.09492 0.12106 0.0
C577 C 0.86375 0.11259 0.12793 0.0
H578 H 0.85675 0.10328 0.17694 0.0
H579 H 0.81647 0.06901 0.12942 0.0
C580 C 0.66538 0.04494 0.15867 0.0
N581 N 0.70136 0.04104 0.15255 0.0
C582 C 0.6345 0.03979 0.14703 0.0
C583 C 0.67808 0.02597 0.12318 0.0
C584 C 0.70833 0.03116 0.13551 0.0
C585 C 0.64071 0.03092 0.12866 0.0
H586 H 0.66073 0.05336 0.17197 0.0
H587 H 0.7373 0.02848 0.13093 0.0
O588 O 0.80027 0.0792 0.19875 0.0
O589 O 0.72425 0.05547 0.19586 0.0
O590 O 0.74693 0.08129 0.16186 0.0
O591 O 0.79243 0.04326 0.16927 0.0
H592 H 0.82324 0.07629 0.23583 0.0
H593 H 0.78825 0.11685 0.19067 0.0
H594 H 0.82971 0.10439 0.25894 0.0
H595 H 0.79571 0.14431 0.21446 0.0
H596 H 0.70448 0.9892 0.19296 0.0
H597 H 0.66992 0.05299 0.22289 0.0
H598 H 0.73751 0.01947 0.18194 0.0
H599 H 0.63852 0.02207 0.23333 0.0
H600 H 0.64167 0.09809 0.23494 0.0
H601 H 0.65791 0.13715 0.18543 0.0
H602 H 0.78289 0.98685 0.22724 0.0
H603 H 0.74185 0.03623 0.26149 0.0
H604 H 0.69001 0.07217 0.13107 0.0
H605 H 0.7828 0.12141 0.15736 0.0
H606 H 0.68965 0.11628 0.10417 0.0
H607 H 0.76306 0.15002 0.12855 0.0
H608 H 0.85445 0.0568 0.18717 0.0
H609 H 0.80964 0.01031 0.15078 0.0
H610 H 0.91731 0.04045 0.18633 0.0
H611 H 0.87348 0.99472 0.1506 0.0
H612 H 0.88327 0.12788 0.15417 0.0
H613 H 0.8413 0.09271 0.10559 0.0
H614 H 0.60635 0.04434 0.15158 0.0
H615 H 0.68393 0.01925 0.10902 0.0
Li616 Li 0.02959 0.9471 0.44065 0.0
Li617 Li 0.99523 0.94074 0.41098 0.0
Li618 Li 0.98901 0.91803 0.43929 0.0
Li619 Li 0.04797 0.92001 0.41948 0.0
C620 C 0.95618 0.95172 0.45425 0.0
N621 N 0.92023 0.96368 0.48847 0.0
C622 C 0.92806 0.96626 0.4536 0.0
C623 C 0.96577 0.94319 0.47235 0.0
C624 C 0.91034 0.97215 0.47105 0.0
C625 C 0.94731 0.94943 0.48946 0.0
C626 C 0.05388 0.9617 0.39813 0.0
C627 C 0.05119 0.96897 0.36336 0.0
N628 N 0.0627 0.98772 0.36713 0.0
C629 C 0.06629 0.98095 0.40162 0.0
C630 C 0.04688 0.95557 0.37882 0.0
C631 C 0.07035 0.99392 0.38577 0.0
C632 C 0.04448 0.96597 0.47688 0.0
N633 N 0.03849 0.96845 0.45727 0.0
C634 C 0.00779 -0.00077 0.46253 0.0
C635 C 0.02199 0.98495 0.44989 0.0
C636 C 0.01027 0.99628 0.48292 0.0
C637 C 0.03041 0.9799 0.49013 0.0
H638 H 0.05588 0.95223 0.48235 0.0
H639 H 0.01515 0.98576 0.43439 0.0
C640 C 0.952 0.94124 0.37635 0.0
N641 N 0.96296 0.95221 0.39205 0.0
C642 C 0.91783 0.94529 0.36697 0.0
C643 C 0.90871 0.97306 0.38886 0.0
C644 C 0.9435 0.96858 0.39768 0.0
C645 C 0.89495 0.96062 0.37406 0.0
H646 H 0.96783 0.92833 0.37226 0.0
H647 H 0.95316 0.97699 0.41024 0.0
C648 C 0.07745 0.91894 0.45798 0.0
N649 N 0.14804 0.91837 0.47573 0.0
C650 C 0.10789 0.92904 0.44944 0.0
C651 C 0.0829 0.90856 0.47553 0.0
C652 C 0.14336 0.92856 0.45865 0.0
C653 C 0.1188 0.90845 0.48429 0.0
C654 C 0.98804 0.89688 0.39857 0.0
C655 C 0.95198 0.87949 0.40614 0.0
C656 C 0.01125 0.89655 0.37494 0.0
C657 C 0.93378 0.85965 0.39129 0.0
C658 C 0.99828 0.87801 0.35697 0.0
N659 N 0.95156 0.85683 0.36882 0.0
C660 C 0.91521 0.90872 0.44781 0.0
C661 C 0.95814 0.88554 0.46155 0.0
C662 C 0.88432 0.89708 0.45296 0.0
N663 N 0.95119 0.90258 0.45169 0.0
C664 C 0.92789 0.87321 0.46675 0.0
C665 C 0.89052 0.8787 0.4618 0.0
H666 H 0.91056 0.92203 0.43941 0.0
H667 H 0.98711 0.88095 0.46422 0.0
C668 C 0.10553 0.91125 0.39212 0.0
N669 N 0.08537 0.90413 0.40763 0.0
C670 C 0.1203 0.89826 0.37811 0.0
C671 C 0.09736 0.87105 0.39781 0.0
C672 C 0.08311 0.88455 0.4114 0.0
C673 C 0.11363 0.87792 0.38014 0.0
H674 H 0.10657 0.92694 0.38945 0.0
H675 H 0.06624 0.87941 0.4237 0.0
O676 O 0.97413 0.9459 0.43726 0.0
O677 O 0.0501 0.94873 0.41347 0.0
O678 O 0.04229 0.91927 0.44943 0.0
O679 O 0.99671 0.91187 0.41144 0.0
H680 H 0.91991 0.97298 0.4398 0.0
H681 H 0.98749 0.93196 0.47324 0.0
H682 H 0.88868 0.98345 0.47075 0.0
H683 H 0.95464 0.94302 0.50354 0.0
H684 H 0.04547 0.96444 0.34837 0.0
H685 H 0.07327 0.98577 0.41637 0.0
H686 H 0.03795 0.94067 0.37583 0.0
H687 H 0.0798 0.00888 0.38828 0.0
H688 H 0.9921 0.01153 0.45644 0.0
H689 H 0.03322 0.9773 0.5058 0.0
H690 H 0.90769 0.93542 0.35556 0.0
H691 H 0.89144 0.98493 0.39464 0.0
H692 H 0.10429 0.93719 0.43589 0.0
H693 H 0.05955 0.90072 0.48234 0.0
H694 H 0.16718 0.9363 0.45221 0.0
H695 H 0.12341 0.90049 0.49789 0.0
H696 H 0.93978 0.88109 0.42056 0.0
H697 H 0.03258 0.90735 0.37132 0.0
H698 H 0.93941 0.85418 0.37645 0.0
H699 H 0.01282 0.87854 0.34271 0.0
H700 H 0.85617 0.90165 0.44841 0.0
H701 H 0.93373 0.85905 0.47345 0.0
H702 H 0.13317 0.90416 0.36487 0.0
H703 H 0.09114 0.85559 0.40001 0.0
Li704 Li 0.51099 0.05342 0.07474 0.0
Li705 Li 0.45197 0.07318 0.07273 0.0
Li706 Li 0.47048 0.052 0.04564 0.0
Li707 Li 0.5047 0.08171 0.05201 0.0
C708 C 0.42263 0.03464 0.07379 0.0
N709 N 0.35213 0.01678 0.0743 0.0
C710 C 0.39213 0.04318 0.06373 0.0
C711 C 0.41728 0.01703 0.08408 0.0
C712 C 0.3567 0.03393 0.06419 0.0
C713 C 0.38142 0.00822 0.08416 0.0
C714 C 0.51185 0.09415 0.09587 0.0
C715 C 0.50162 0.13576 0.11471 0.0
N716 N 0.54832 0.12393 0.1359 0.0
C717 C 0.5479 0.08659 0.11327 0.0
C718 C 0.48865 0.11779 0.09618 0.0
C719 C 0.56609 0.10145 0.1331 0.0
C720 C 0.58479 0.04497 0.08409 0.0
N721 N 0.54882 0.04105 0.0902 0.0
C722 C 0.57212 0.02595 0.11955 0.0
C723 C 0.54187 0.03115 0.10723 0.0
C724 C 0.60948 0.03093 0.11408 0.0
C725 C 0.61568 0.03981 0.09572 0.0
H726 H 0.58943 0.0534 0.07079 0.0
H727 H 0.5129 0.02844 0.11179 0.0
C728 C 0.39443 0.10058 0.08149 0.0
N729 N 0.41454 0.08506 0.08861 0.0
C730 C 0.37972 0.11461 0.09448 0.0
C731 C 0.40263 0.09492 0.12169 0.0
C732 C 0.41682 0.0813 0.1082 0.0
C733 C 0.3864 0.11259 0.11481 0.0
H734 H 0.39339 0.10324 0.0658 0.0
H735 H 0.43367 0.069 0.11334 0.0
C736 C 0.54399 0.03849 0.04108 0.0
N737 N 0.58022 0.00434 0.02918 0.0
C738 C 0.57217 0.03919 0.02657 0.0
C739 C 0.53448 0.02038 0.04961 0.0
C740 C 0.59003 0.02177 0.02071 0.0
C741 C 0.55309 0.0033 0.04339 0.0
C742 C 0.44607 0.09449 0.03102 0.0
C743 C 0.43373 0.09098 0.01176 0.0
C744 C 0.45299 0.11381 0.03715 0.0
C745 C 0.42966 0.10683 -0.00122 0.0
C746 C 0.44867 0.12926 0.02374 0.0
N747 N 0.43724 0.12548 0.00498 0.0
C748 C 0.45594 0.01572 0.02676 0.0
C749 C 0.47829 0.04275 0.00779 0.0
C750 C 0.4702 0.00249 0.01286 0.0
N751 N 0.46177 0.03534 0.02428 0.0
C752 C 0.49268 0.03012 0.99354 0.0
C753 C 0.49037 0.00973 -0.0035 0.0
H754 H 0.44451 0.01023 0.04049 0.0
H755 H 0.48499 0.05826 0.00698 0.0
C756 C 0.54789 0.11636 0.05149 0.0
N757 N 0.53692 0.10065 0.04053 0.0
C758 C 0.58206 0.12573 0.04743 0.0
C759 C 0.59114 0.10385 0.01966 0.0
C760 C 0.55636 0.09503 0.02414 0.0
C761 C 0.60492 0.11865 0.03209 0.0
H762 H 0.53207 0.12045 0.06441 0.0
H763 H 0.54669 0.08246 0.01574 0.0
O764 O 0.45775 0.04323 0.07348 0.0
O765 O 0.5032 0.08127 0.08088 0.0
O766 O 0.52592 0.05546 0.04689 0.0
O767 O 0.44986 0.07916 0.044 0.0
H768 H 0.39565 0.05677 0.05566 0.0
H769 H 0.44068 0.01021 0.09188 0.0
H770 H 0.33285 0.04037 0.05648 0.0
H771 H 0.37689 0.99457 0.09205 0.0
H772 H 0.48708 0.15002 0.11417 0.0
H773 H 0.5601 0.07217 0.11169 0.0
H774 H 0.46733 0.1214 0.08537 0.0
H775 H 0.56047 0.11629 0.13857 0.0
H776 H 0.56628 0.01921 0.1337 0.0
H777 H 0.64383 0.04439 0.09117 0.0
H778 H 0.36689 0.12785 0.08857 0.0
H779 H 0.40885 0.09272 0.13715 0.0
H780 H 0.58027 0.053 0.01987 0.0
H781 H 0.51272 0.01945 0.06081 0.0
H782 H 0.61174 0.0221 0.00944 0.0
H783 H 0.54581 0.98921 0.0498 0.0
H784 H 0.42682 0.07622 0.00693 0.0
H785 H 0.46186 0.11681 0.05206 0.0
H786 H 0.42027 0.1043 0.98381 0.0
H787 H 0.45433 0.14426 0.02827 0.0
H788 H 0.46752 0.98681 0.01548 0.0
H789 H 0.50839 0.03625 0.98126 0.0
H790 H 0.59221 0.13715 0.05729 0.0
H791 H 0.60841 0.09807 0.00778 0.0
Li792 Li 0.98901 0.8247 0.30344 0.0
Li793 Li 0.04796 0.82273 0.32325 0.0
Li794 Li 0.02959 0.79564 0.30208 0.0
Li795 Li 0.99523 0.802 0.33175 0.0
C796 C 0.07745 0.82381 0.28476 0.0
N797 N 0.14805 0.82438 0.26702 0.0
C798 C 0.10789 0.8137 0.29329 0.0
C799 C 0.08291 0.83419 0.26721 0.0
C800 C 0.14337 0.81418 0.2841 0.0
C801 C 0.11882 0.8343 0.25846 0.0
C802 C 0.98804 0.84585 0.34416 0.0
C803 C 0.99827 0.86473 0.38576 0.0
N804 N 0.95157 0.88591 0.37391 0.0
C805 C 0.95199 0.86325 0.33659 0.0
C806 C 0.01124 0.84619 0.3678 0.0
C807 C 0.9338 0.88309 0.35143 0.0
C808 C 0.91521 0.83401 0.29493 0.0
N809 N 0.95118 0.84015 0.29104 0.0
C810 C 0.92788 0.86952 0.27598 0.0
C811 C 0.95813 0.85719 0.28117 0.0
C812 C 0.89051 0.86402 0.28093 0.0
C813 C 0.88431 0.84565 0.28978 0.0
H814 H 0.91056 0.8207 0.30333 0.0
H815 H 0.9871 0.86178 0.2785 0.0
C816 C 0.10553 0.83149 0.35062 0.0
N817 N 0.08537 0.83861 0.33511 0.0
C818 C 0.1203 0.84448 0.36463 0.0
C819 C 0.09736 0.87169 0.34493 0.0
C820 C 0.08311 0.85819 0.33134 0.0
C821 C 0.11363 0.86481 0.36259 0.0
H822 H 0.10656 0.8158 0.35329 0.0
H823 H 0.06624 0.86333 0.31904 0.0
C824 C 0.95618 0.79101 0.28848 0.0
N825 N 0.92023 0.77905 0.25426 0.0
C826 C 0.92806 0.77647 0.28913 0.0
C827 C 0.96577 0.79955 0.27038 0.0
C828 C 0.91035 0.77058 0.27168 0.0
C829 C 0.94731 0.7933 0.25327 0.0
C830 C 0.05388 0.78104 0.3446 0.0
C831 C 0.0663 0.76179 0.34111 0.0
C832 C 0.04688 0.78716 0.36391 0.0
C833 C 0.07036 0.74882 0.35696 0.0
C834 C 0.05119 0.77377 0.37937 0.0
N835 N 0.0627 0.75501 0.3756 0.0
C836 C 0.04448 0.77677 0.26585 0.0
C837 C 0.022 0.75779 0.29284 0.0
C838 C 0.03042 0.76284 0.2526 0.0
N839 N 0.0385 0.77429 0.28546 0.0
C840 C 0.0078 0.74351 0.2802 0.0
C841 C 0.01028 0.74646 0.25981 0.0
H842 H 0.05588 0.79051 0.26038 0.0
H843 H 0.01517 0.75698 0.30834 0.0
C844 C 0.95199 0.80149 0.36638 0.0
N845 N 0.96295 0.79052 0.35067 0.0
C846 C 0.91781 0.79744 0.37575 0.0
C847 C 0.90872 0.76966 0.35386 0.0
C848 C 0.94351 0.77415 0.34505 0.0
C849 C 0.89494 0.7821 0.36866 0.0
H850 H 0.96781 0.81441 0.37047 0.0
H851 H 0.95317 0.76574 0.33249 0.0
O852 O 0.04229 0.82347 0.2933 0.0
O853 O 0.9967 0.83087 0.3313 0.0
O854 O 0.97414 0.79684 0.30547 0.0
O855 O 0.0501 0.79401 0.32926 0.0
H856 H 0.10429 0.80555 0.30684 0.0
H857 H 0.05957 0.84204 0.26041 0.0
H858 H 0.16718 0.80644 0.29053 0.0
H859 H 0.12344 0.84226 0.24486 0.0
H860 H 0.01281 0.8642 0.40002 0.0
H861 H 0.93979 0.86165 0.32217 0.0
H862 H 0.03256 0.83538 0.37142 0.0
H863 H 0.93942 0.88857 0.36627 0.0
H864 H 0.93372 0.88368 0.26927 0.0
H865 H 0.85617 0.84108 0.29432 0.0
H866 H 0.13316 0.83858 0.37787 0.0
H867 H 0.09115 0.88715 0.34272 0.0
H868 H 0.91992 0.76976 0.30293 0.0
H869 H 0.98748 0.81078 0.26949 0.0
H870 H 0.88869 0.75928 0.27198 0.0
H871 H 0.95464 0.79971 0.23919 0.0
H872 H 0.07328 0.75697 0.32636 0.0
H873 H 0.03794 0.80207 0.3669 0.0
H874 H 0.07982 0.73386 0.35445 0.0
H875 H 0.04546 0.77829 0.39436 0.0
H876 H 0.03322 0.76545 0.23693 0.0
H877 H 0.99211 0.7312 0.28629 0.0
H878 H 0.90766 0.8073 0.38716 0.0
H879 H 0.89145 0.75779 0.34808 0.0
Li880 Li 0.23997 0.18934 0.57478 0.0
Li881 Li 0.29899 0.16957 0.57277 0.0
Li882 Li 0.28049 0.19076 0.54569 0.0
Li883 Li 0.24625 0.16104 0.55205 0.0
C884 C 0.32835 0.20811 0.57384 0.0
N885 N 0.39887 0.22594 0.57435 0.0
C886 C 0.35883 0.19956 0.56377 0.0
C887 C 0.33372 0.22571 0.58415 0.0
C888 C 0.39427 0.20881 0.56423 0.0
C889 C 0.36959 0.23451 0.58423 0.0
C890 C 0.2391 0.1486 0.59589 0.0
C891 C 0.24933 0.10698 0.61471 0.0
N892 N 0.20262 0.11881 0.6359 0.0
C893 C 0.20305 0.15615 0.6133 0.0
C894 C 0.26231 0.12497 0.5962 0.0
C895 C 0.18485 0.14128 0.63311 0.0
C896 C 0.16616 0.19778 0.58413 0.0
N897 N 0.20214 0.20171 0.59025 0.0
C898 C 0.17881 0.21678 0.61962 0.0
C899 C 0.20907 0.21159 0.60729 0.0
C900 C 0.14146 0.2118 0.61413 0.0
C901 C 0.13527 0.20293 0.59577 0.0
H902 H 0.16153 0.18937 0.57082 0.0
H903 H 0.23804 0.21429 0.61187 0.0
C904 C 0.35654 0.14217 0.58152 0.0
N905 N 0.33641 0.15769 0.58865 0.0
C906 C 0.37125 0.12814 0.59449 0.0
C907 C 0.34833 0.14782 0.62172 0.0
C908 C 0.33413 0.16144 0.60824 0.0
C909 C 0.36457 0.13015 0.61483 0.0
H910 H 0.35758 0.13953 0.56582 0.0
H911 H 0.31728 0.17374 0.61338 0.0
C912 C 0.207 0.20428 0.54112 0.0
N913 N 0.17085 0.23845 0.52921 0.0
C914 C 0.17885 0.2036 0.5266 0.0
C915 C 0.21653 0.22239 0.54966 0.0
C916 C 0.16103 0.22103 0.52074 0.0
C917 C 0.19796 0.23947 0.54344 0.0
C918 C 0.30491 0.14827 0.53106 0.0
C919 C 0.31729 0.15178 0.5118 0.0
C920 C 0.29798 0.12895 0.53717 0.0
C921 C 0.32139 0.13594 0.49882 0.0
C922 C 0.30232 0.1135 0.52376 0.0
N923 N 0.3138 0.11729 0.505 0.0
C924 C 0.29508 0.22703 0.52681 0.0
C925 C 0.27272 0.2 0.50784 0.0
C926 C 0.28087 0.24025 0.51289 0.0
N927 N 0.28923 0.20741 0.52433 0.0
C928 C 0.25839 0.21262 0.49357 0.0
C929 C 0.26073 0.23301 0.49653 0.0
H930 H 0.30649 0.23252 0.54054 0.0
H931 H 0.266 0.18448 0.50703 0.0
C932 C 0.20308 0.12639 0.55151 0.0
N933 N 0.21402 0.14211 0.54055 0.0
C934 C 0.16891 0.11701 0.54744 0.0
C935 C 0.15981 0.13891 0.51968 0.0
C936 C 0.19458 0.14774 0.52418 0.0
C937 C 0.14604 0.1241 0.5321 0.0
H938 H 0.21889 0.1223 0.56442 0.0
H939 H 0.20424 0.1603 0.51578 0.0
O940 O 0.29322 0.19952 0.57353 0.0
O941 O 0.24776 0.16148 0.58092 0.0
O942 O 0.22505 0.18731 0.54693 0.0
O943 O 0.30109 0.16359 0.54404 0.0
H944 H 0.3553 0.18597 0.55569 0.0
H945 H 0.31034 0.23253 0.59195 0.0
H946 H 0.41812 0.20236 0.55652 0.0
H947 H 0.37414 0.24815 0.59213 0.0
H948 H 0.26388 0.09272 0.61416 0.0
H949 H 0.19085 0.17057 0.61172 0.0
H950 H 0.28363 0.12136 0.58538 0.0
H951 H 0.19048 0.12643 0.63857 0.0
H952 H 0.18465 0.22351 0.63377 0.0
H953 H 0.10713 0.19836 0.59121 0.0
H954 H 0.38409 0.1149 0.58858 0.0
H955 H 0.3421 0.15001 0.63718 0.0
H956 H 0.17074 0.18979 0.51989 0.0
H957 H 0.23827 0.2233 0.56087 0.0
H958 H 0.13934 0.2207 0.50945 0.0
H959 H 0.20525 0.25357 0.54986 0.0
H960 H 0.32421 0.16654 0.50699 0.0
H961 H 0.28907 0.12594 0.55207 0.0
H962 H 0.33081 0.13846 0.48386 0.0
H963 H 0.29665 0.0985 0.52828 0.0
H964 H 0.28357 0.25593 0.5155 0.0
H965 H 0.2427 0.20649 0.48129 0.0
H966 H 0.15878 0.10559 0.55729 0.0
H967 H 0.14254 0.14469 0.50781 0.0
Li968 Li 0.72026 0.44704 0.80198 0.0
Li969 Li 0.75449 0.44068 0.8317 0.0
Li970 Li 0.76078 0.41795 0.8034 0.0
Li971 Li 0.70176 0.41996 0.82317 0.0
C972 C 0.79375 0.45162 0.78847 0.0
N973 N 0.8299 0.46354 0.7543 0.0
C974 C 0.8219 0.46614 0.78916 0.0
C975 C 0.78423 0.44308 0.77036 0.0
C976 C 0.83973 0.47201 0.77173 0.0
C977 C 0.8028 0.44931 0.75327 0.0
C978 C 0.69583 0.46167 0.84447 0.0
C979 C 0.69842 0.46897 0.87924 0.0
N980 N 0.68695 0.48773 0.87545 0.0
C981 C 0.68346 0.48093 0.84096 0.0
C982 C 0.70276 0.45556 0.86379 0.0
C983 C 0.67937 0.49391 0.8568 0.0
C984 C 0.70566 0.46593 0.76571 0.0
N985 N 0.71152 0.4684 0.78534 0.0
C986 C 0.74235 0.49916 0.78012 0.0
C987 C 0.72802 0.4849 0.79275 0.0
C988 C 0.74 0.49621 0.75973 0.0
C989 C 0.71986 0.47985 0.75249 0.0
H990 H 0.69425 0.4522 0.76022 0.0
H991 H 0.73475 0.4857 0.80826 0.0
C992 C 0.79766 0.44122 0.86635 0.0
N993 N 0.78671 0.45218 0.85064 0.0
C994 C 0.83182 0.44528 0.87573 0.0
C995 C 0.84093 0.47305 0.85384 0.0
C996 C 0.80615 0.46855 0.84501 0.0
C997 C 0.8547 0.46062 0.86865 0.0
H998 H 0.78184 0.42831 0.87044 0.0
H999 H 0.7965 0.47695 0.83245 0.0
C1000 C 0.67242 0.41889 0.78462 0.0
N1001 N 0.60193 0.41837 0.76675 0.0
C1002 C 0.64192 0.42893 0.79316 0.0
C1003 C 0.66709 0.40861 0.767 0.0
C1004 C 0.60649 0.42848 0.78391 0.0
C1005 C 0.63124 0.40853 0.75819 0.0
C1006 C 0.76164 0.39684 0.84414 0.0
C1007 C 0.7977 0.37943 0.83659 0.0
C1008 C 0.73843 0.39653 0.86777 0.0
C1009 C 0.81589 0.35961 0.85145 0.0
C1010 C 0.7514 0.37801 0.88575 0.0
N1011 N 0.79811 0.35683 0.87393 0.0
C1012 C 0.83459 0.40861 0.79496 0.0
C1013 C 0.79168 0.38545 0.78114 0.0
C1014 C 0.86549 0.39697 0.78981 0.0
N1015 N 0.79862 0.40249 0.79103 0.0
C1016 C 0.82194 0.37312 0.77596 0.0
C1017 C 0.85929 0.37861 0.78093 0.0
H1018 H 0.83923 0.42191 0.80337 0.0
H1019 H 0.76271 0.38088 0.77844 0.0
C1020 C 0.6442 0.41121 0.85056 0.0
N1021 N 0.66433 0.40408 0.83504 0.0
C1022 C 0.62949 0.39823 0.86459 0.0
C1023 C 0.65241 0.37101 0.84491 0.0
C1024 C 0.66662 0.38449 0.83129 0.0
C1025 C 0.63618 0.3779 0.86257 0.0
H1026 H 0.64316 0.4269 0.8532 0.0
H1027 H 0.68347 0.37934 0.81899 0.0
O1028 O 0.7757 0.44581 0.80544 0.0
O1029 O 0.69964 0.44869 0.82915 0.0
O1030 O 0.70754 0.4192 0.79321 0.0
O1031 O 0.75299 0.41181 0.83126 0.0
H1032 H 0.83 0.47285 0.80297 0.0
H1033 H 0.76249 0.43187 0.76944 0.0
H1034 H 0.86141 0.48329 0.77206 0.0
H1035 H 0.79551 0.4429 0.73918 0.0
H1036 H 0.70409 0.46445 0.89424 0.0
H1037 H 0.67654 0.48574 0.8262 0.0
H1038 H 0.71166 0.44065 0.8668 0.0
H1039 H 0.66995 0.50887 0.85428 0.0
H1040 H 0.75804 0.51145 0.78625 0.0
H1041 H 0.71715 0.47724 0.73681 0.0
H1042 H 0.84196 0.43543 0.88715 0.0
H1043 H 0.8582 0.48492 0.84806 0.0
H1044 H 0.64542 0.437 0.80677 0.0
H1045 H 0.6905 0.40082 0.76018 0.0
H1046 H 0.58262 0.43617 0.79035 0.0
H1047 H 0.62672 0.40064 0.74453 0.0
H1048 H 0.8099 0.38101 0.82217 0.0
H1049 H 0.71711 0.40734 0.87138 0.0
H1050 H 0.81026 0.35416 0.8663 0.0
H1051 H 0.73686 0.37856 0.90001 0.0
H1052 H 0.89363 0.40153 0.79438 0.0
H1053 H 0.8161 0.35897 0.76923 0.0
H1054 H 0.61664 0.40415 0.87783 0.0
H1055 H 0.65864 0.35554 0.84272 0.0
Li1056 Li 0.5047 0.16103 0.19071 0.0
Li1057 Li 0.47048 0.19074 0.19709 0.0
Li1058 Li 0.45196 0.16956 0.16999 0.0
Li1059 Li 0.51098 0.18932 0.16799 0.0
C1060 C 0.44607 0.14825 0.2117 0.0
N1061 N 0.43725 0.11725 0.23774 0.0
C1062 C 0.43374 0.15175 0.23097 0.0
C1063 C 0.45299 0.12893 0.20558 0.0
C1064 C 0.42968 0.1359 0.24395 0.0
C1065 C 0.44868 0.11347 0.21898 0.0
C1066 C 0.54398 0.20425 0.20165 0.0
C1067 C 0.55307 0.23944 0.19934 0.0
N1068 N 0.58021 0.23841 0.21355 0.0
C1069 C 0.57217 0.20355 0.21616 0.0
C1070 C 0.53447 0.22236 0.19312 0.0
C1071 C 0.59002 0.22098 0.22202 0.0
C1072 C 0.54788 0.12638 0.19123 0.0
N1073 N 0.53693 0.14209 0.20219 0.0
C1074 C 0.59115 0.13889 0.22306 0.0
C1075 C 0.55637 0.14771 0.21858 0.0
C1076 C 0.60492 0.12409 0.21062 0.0
C1077 C 0.58204 0.117 0.19529 0.0
H1078 H 0.53205 0.12229 0.17832 0.0
H1079 H 0.54671 0.16027 0.22698 0.0
C1080 C 0.45593 0.22702 0.21597 0.0
N1081 N 0.46176 0.20739 0.21845 0.0
C1082 C 0.47019 0.24025 0.22988 0.0
C1083 C 0.49268 0.21262 0.24919 0.0
C1084 C 0.47829 0.19999 0.23494 0.0
C1085 C 0.49037 0.233 0.24623 0.0
H1086 H 0.4445 0.2325 0.20225 0.0
H1087 H 0.485 0.18448 0.23575 0.0
C1088 C 0.51184 0.14859 0.14686 0.0
N1089 N 0.54832 0.11882 0.10683 0.0
C1090 C 0.5479 0.15615 0.12946 0.0
C1091 C 0.48864 0.12496 0.14654 0.0
C1092 C 0.5661 0.14129 0.10963 0.0
C1093 C 0.50161 0.10698 0.12801 0.0
C1094 C 0.42261 0.2081 0.16895 0.0
C1095 C 0.39213 0.19955 0.179 0.0
C1096 C 0.41726 0.22571 0.15865 0.0
C1097 C 0.35669 0.2088 0.17855 0.0
C1098 C 0.3814 0.23451 0.15857 0.0
N1099 N 0.35211 0.22594 0.16844 0.0
C1100 C 0.39442 0.14215 0.16123 0.0
C1101 C 0.41682 0.16144 0.13453 0.0
C1102 C 0.37971 0.12813 0.14825 0.0
N1103 N 0.41454 0.15768 0.15411 0.0
C1104 C 0.40263 0.14782 0.12104 0.0
C1105 C 0.3864 0.13015 0.12792 0.0
H1106 H 0.39337 0.1395 0.17693 0.0
H1107 H 0.43367 0.17374 0.12939 0.0
C1108 C 0.58478 0.19778 0.15864 0.0
N1109 N 0.5488 0.2017 0.15252 0.0
C1110 C 0.61567 0.20294 0.147 0.0
C1111 C 0.5721 0.21679 0.12317 0.0
C1112 C 0.54185 0.21159 0.1355 0.0
C1113 C 0.60946 0.21182 0.12865 0.0
H1114 H 0.58942 0.18936 0.17194 0.0
H1115 H 0.51288 0.21429 0.13093 0.0
O1116 O 0.44986 0.16358 0.19873 0.0
O1117 O 0.52591 0.18729 0.19584 0.0
O1118 O 0.50319 0.16147 0.16184 0.0
O1119 O 0.45774 0.19951 0.16925 0.0
H1120 H 0.42684 0.1665 0.2358 0.0
H1121 H 0.46186 0.12593 0.19066 0.0
H1122 H 0.4203 0.13842 0.25891 0.0
H1123 H 0.45433 0.09847 0.21445 0.0
H1124 H 0.5458 0.25354 0.19293 0.0
H1125 H 0.58026 0.18974 0.22286 0.0
H1126 H 0.51271 0.22329 0.18192 0.0
H1127 H 0.61173 0.22064 0.23329 0.0
H1128 H 0.60842 0.14467 0.23494 0.0
H1129 H 0.59218 0.10559 0.18542 0.0
H1130 H 0.4675 0.25592 0.22726 0.0
H1131 H 0.50839 0.20649 0.26147 0.0
H1132 H 0.5601 0.17057 0.13105 0.0
H1133 H 0.46732 0.12134 0.15735 0.0
H1134 H 0.56047 0.12645 0.10417 0.0
H1135 H 0.48707 0.09272 0.12855 0.0
H1136 H 0.39565 0.18596 0.18708 0.0
H1137 H 0.44065 0.23252 0.15085 0.0
H1138 H 0.33284 0.20236 0.18626 0.0
H1139 H 0.37685 0.24816 0.15068 0.0
H1140 H 0.36688 0.11488 0.15416 0.0
H1141 H 0.40886 0.15002 0.10557 0.0
H1142 H 0.64381 0.19837 0.15156 0.0
H1143 H 0.56626 0.22352 0.10902 0.0
Li1144 Li 0.76077 0.82477 0.43933 0.0
Li1145 Li 0.70175 0.82276 0.41956 0.0
Li1146 Li 0.72025 0.79568 0.44075 0.0
Li1147 Li 0.75449 0.80204 0.41104 0.0
C1148 C 0.67239 0.82382 0.4581 0.0
N1149 N 0.60188 0.82434 0.47594 0.0
C1150 C 0.6419 0.81376 0.44956 0.0
C1151 C 0.66703 0.83413 0.47571 0.0
C1152 C 0.60647 0.81422 0.4588 0.0
C1153 C 0.63116 0.83421 0.48451 0.0
C1154 C 0.76163 0.84588 0.39859 0.0
C1155 C 0.75139 0.8647 0.35698 0.0
N1156 N 0.7981 0.88589 0.3688 0.0
C1157 C 0.79768 0.86329 0.40614 0.0
C1158 C 0.73842 0.84618 0.37496 0.0
C1159 C 0.81588 0.88311 0.39128 0.0
C1160 C 0.83457 0.83412 0.44778 0.0
N1161 N 0.7986 0.84024 0.4517 0.0
C1162 C 0.82192 0.86961 0.46677 0.0
C1163 C 0.79166 0.85728 0.46159 0.0
C1164 C 0.85928 0.86413 0.4618 0.0
C1165 C 0.86547 0.84576 0.45292 0.0
H1166 H 0.83921 0.82082 0.43936 0.0
H1167 H 0.76269 0.86185 0.46429 0.0
C1168 C 0.6442 0.8315 0.39216 0.0
N1169 N 0.66432 0.83863 0.40768 0.0
C1170 C 0.62948 0.84447 0.37813 0.0
C1171 C 0.6524 0.8717 0.39781 0.0
C1172 C 0.6666 0.85822 0.41143 0.0
C1173 C 0.63617 0.86481 0.38015 0.0
H1174 H 0.64315 0.81581 0.38952 0.0
H1175 H 0.68345 0.86337 0.42373 0.0
C1176 C 0.79374 0.79111 0.45427 0.0
N1177 N 0.82989 0.7792 0.48844 0.0
C1178 C 0.82189 0.77659 0.45359 0.0
C1179 C 0.78421 0.79965 0.47238 0.0
C1180 C 0.83972 0.77073 0.47102 0.0
C1181 C 0.80278 0.79343 0.48947 0.0
C1182 C 0.69583 0.78104 0.39826 0.0
C1183 C 0.68345 0.76179 0.40177 0.0
C1184 C 0.70275 0.78715 0.37894 0.0
C1185 C 0.67936 0.7488 0.38593 0.0
C1186 C 0.69841 0.77374 0.36349 0.0
N1187 N 0.68694 0.75499 0.36728 0.0
C1188 C 0.70565 0.7768 0.47702 0.0
C1189 C 0.72802 0.75783 0.44999 0.0
C1190 C 0.71986 0.76288 0.49025 0.0
N1191 N 0.71151 0.77432 0.4574 0.0
C1192 C 0.74236 0.74356 0.46261 0.0
C1193 C 0.74001 0.74652 0.483 0.0
H1194 H 0.69425 0.79053 0.48251 0.0
H1195 H 0.73474 0.75702 0.43448 0.0
C1196 C 0.79765 0.8015 0.37638 0.0
N1197 N 0.78671 0.79054 0.3921 0.0
C1198 C 0.83181 0.79743 0.367 0.0
C1199 C 0.84093 0.76967 0.3889 0.0
C1200 C 0.80615 0.77417 0.39773 0.0
C1201 C 0.85469 0.7821 0.37409 0.0
H1202 H 0.78183 0.81441 0.37229 0.0
H1203 H 0.7965 0.76577 0.4103 0.0
O1204 O 0.70752 0.82352 0.44952 0.0
O1205 O 0.75297 0.83091 0.41148 0.0
O1206 O 0.77569 0.79692 0.4373 0.0
O1207 O 0.69964 0.79402 0.41359 0.0
H1208 H 0.64543 0.80568 0.43597 0.0
H1209 H 0.69041 0.84193 0.48252 0.0
H1210 H 0.58262 0.80651 0.45236 0.0
H1211 H 0.62661 0.8421 0.49815 0.0
H1212 H 0.73685 0.86415 0.34271 0.0
H1213 H 0.80988 0.86171 0.42056 0.0
H1214 H 0.7171 0.83537 0.37135 0.0
H1215 H 0.81025 0.88856 0.37643 0.0
H1216 H 0.81608 0.88376 0.4735 0.0
H1217 H 0.89361 0.8412 0.44835 0.0
H1218 H 0.61664 0.83856 0.36489 0.0
H1219 H 0.65862 0.88717 0.4 0.0
H1220 H 0.83 0.76988 0.43978 0.0
H1221 H 0.76247 0.81086 0.4733 0.0
H1222 H 0.86141 0.75945 0.47069 0.0
H1223 H 0.7955 0.79984 0.50356 0.0
H1224 H 0.67654 0.75697 0.41653 0.0
H1225 H 0.71166 0.80206 0.37593 0.0
H1226 H 0.66994 0.73384 0.38846 0.0
H1227 H 0.70408 0.77826 0.34849 0.0
H1228 H 0.71716 0.76549 0.50592 0.0
H1229 H 0.75805 0.73128 0.45649 0.0
H1230 H 0.84195 0.80729 0.35558 0.0
H1231 H 0.8582 0.7578 0.39468 0.0
Li1232 Li 0.24623 0.08169 0.69069 0.0
Li1233 Li 0.28048 0.05198 0.69705 0.0
Li1234 Li 0.29898 0.07317 0.66997 0.0
Li1235 Li 0.23997 0.0534 0.66795 0.0
C1236 C 0.30488 0.09447 0.71169 0.0
N1237 N 0.31377 0.12546 0.73774 0.0
C1238 C 0.31726 0.09097 0.73094 0.0
C1239 C 0.29795 0.11379 0.70557 0.0
C1240 C 0.32136 0.10681 0.74392 0.0
C1241 C 0.30229 0.12924 0.71898 0.0
C1242 C 0.207 0.03845 0.70161 0.0
C1243 C 0.19797 0.00326 0.6993 0.0
N1244 N 0.17086 0.00428 0.71352 0.0
C1245 C 0.17884 0.03913 0.71613 0.0
C1246 C 0.21653 0.02035 0.69308 0.0
C1247 C 0.16102 0.0217 0.722 0.0
C1248 C 0.20306 0.11634 0.69123 0.0
N1249 N 0.214 0.10062 0.70218 0.0
C1250 C 0.15978 0.10382 0.72305 0.0
C1251 C 0.19456 0.095 0.71856 0.0
C1252 C 0.14602 0.11863 0.71062 0.0
C1253 C 0.16889 0.12572 0.69529 0.0
H1254 H 0.21888 0.12043 0.67831 0.0
H1255 H 0.20421 0.08243 0.72695 0.0
C1256 C 0.29508 0.01571 0.71594 0.0
N1257 N 0.28922 0.03533 0.71841 0.0
C1258 C 0.28087 0.00249 0.72985 0.0
C1259 C 0.25838 0.03012 0.74917 0.0
C1260 C 0.27271 0.04274 0.7349 0.0
C1261 C 0.26072 0.00973 0.74622 0.0
H1262 H 0.30649 0.01022 0.70221 0.0
H1263 H 0.26599 0.05825 0.73571 0.0
C1264 C 0.2391 0.09413 0.64685 0.0
N1265 N 0.20263 0.12393 0.60684 0.0
C1266 C 0.20305 0.08658 0.62944 0.0
C1267 C 0.2623 0.11777 0.64654 0.0
C1268 C 0.18485 0.10145 0.60962 0.0
C1269 C 0.24933 0.13575 0.62803 0.0
C1270 C 0.32836 0.03464 0.66891 0.0
C1271 C 0.35883 0.04319 0.67898 0.0
C1272 C 0.33375 0.01704 0.65859 0.0
C1273 C 0.39427 0.03395 0.67853 0.0
C1274 C 0.36963 0.00826 0.65851 0.0
N1275 N 0.39889 0.01682 0.6684 0.0
C1276 C 0.35653 0.10057 0.66123 0.0
C1277 C 0.33413 0.0813 0.63451 0.0
C1278 C 0.37125 0.11461 0.64826 0.0
N1279 N 0.33641 0.08505 0.6541 0.0
C1280 C 0.34833 0.09493 0.62103 0.0
C1281 C 0.36456 0.11259 0.62793 0.0
H1282 H 0.35757 0.10322 0.67693 0.0
H1283 H 0.31728 0.069 0.62936 0.0
C1284 C 0.16617 0.04494 0.6586 0.0
N1285 N 0.20214 0.04103 0.65248 0.0
C1286 C 0.13528 0.0398 0.64696 0.0
C1287 C 0.17883 0.02596 0.62311 0.0
C1288 C 0.20909 0.03115 0.63544 0.0
C1289 C 0.14147 0.03093 0.6286 0.0
H1290 H 0.16153 0.05335 0.67191 0.0
H1291 H 0.23805 0.02845 0.63087 0.0
O1292 O 0.30108 0.07915 0.69871 0.0
O1293 O 0.22504 0.05542 0.69581 0.0
O1294 O 0.24775 0.08125 0.66182 0.0
O1295 O 0.29323 0.04322 0.66921 0.0
H1296 H 0.32419 0.07621 0.73576 0.0
H1297 H 0.28905 0.1168 0.69067 0.0
H1298 H 0.33078 0.10428 0.75889 0.0
H1299 H 0.29662 0.14424 0.71447 0.0
H1300 H 0.20526 0.98917 0.69288 0.0
H1301 H 0.17074 0.05294 0.72285 0.0
H1302 H 0.23827 0.01943 0.68187 0.0
H1303 H 0.13934 0.02202 0.73328 0.0
H1304 H 0.14251 0.09804 0.73492 0.0
H1305 H 0.15876 0.13714 0.68543 0.0
H1306 H 0.28358 0.98681 0.72724 0.0
H1307 H 0.24269 0.03624 0.76145 0.0
H1308 H 0.19085 0.07216 0.63102 0.0
H1309 H 0.28362 0.12138 0.65736 0.0
H1310 H 0.19048 0.1163 0.60417 0.0
H1311 H 0.26388 0.15001 0.62858 0.0
H1312 H 0.35528 0.05677 0.68708 0.0
H1313 H 0.31038 0.01023 0.65078 0.0
H1314 H 0.41811 0.04039 0.68625 0.0
H1315 H 0.37419 0.99462 0.65061 0.0
H1316 H 0.38408 0.12785 0.65418 0.0
H1317 H 0.34211 0.09273 0.60556 0.0
H1318 H 0.10714 0.04437 0.65152 0.0
H1319 H 0.18467 0.01924 0.60896 0.0
Li1320 Li 0.99523 0.44073 0.91098 0.0
Li1321 Li 0.02958 0.44709 0.94066 0.0
Li1322 Li 0.04796 0.42 0.91949 0.0
Li1323 Li 0.98899 0.41803 0.9393 0.0
C1324 C 0.05389 0.46169 0.89815 0.0
N1325 N 0.06271 0.48772 0.86714 0.0
C1326 C 0.06631 0.48094 0.90164 0.0
C1327 C 0.04689 0.45557 0.87883 0.0
C1328 C 0.07037 0.49391 0.88579 0.0
C1329 C 0.0512 0.46896 0.86338 0.0
C1330 C 0.95617 0.45172 0.95425 0.0
C1331 C 0.94729 0.44943 0.98946 0.0
N1332 N 0.92021 0.46368 0.98847 0.0
C1333 C 0.92805 0.46626 0.9536 0.0
C1334 C 0.96575 0.44318 0.97235 0.0
C1335 C 0.91033 0.47215 0.97105 0.0
C1336 C 0.952 0.44123 0.87636 0.0
N1337 N 0.96296 0.4522 0.89206 0.0
C1338 C 0.90872 0.47306 0.88887 0.0
C1339 C 0.94352 0.46858 0.89769 0.0
C1340 C 0.89495 0.46062 0.87407 0.0
C1341 C 0.91782 0.44528 0.86699 0.0
H1342 H 0.96783 0.42832 0.87226 0.0
H1343 H 0.95318 0.47699 0.91024 0.0
C1344 C 0.04447 0.46596 0.97689 0.0
N1345 N 0.03848 0.46844 0.95728 0.0
C1346 C 0.03041 0.47989 0.99014 0.0
C1347 C 0.00779 0.49922 0.96254 0.0
C1348 C 0.02199 0.48494 0.9499 0.0
C1349 C 0.01027 0.49627 0.98293 0.0
H1350 H 0.05587 0.45222 0.98236 0.0
H1351 H 0.01516 0.48575 0.9344 0.0
C1352 C 0.98805 0.39688 0.89857 0.0
N1353 N 0.95157 0.35683 0.86882 0.0
C1354 C 0.95199 0.37948 0.90614 0.0
C1355 C 0.01125 0.39654 0.87494 0.0
C1356 C 0.93379 0.35964 0.8913 0.0
C1357 C 0.99828 0.378 0.85698 0.0
C1358 C 0.07742 0.41892 0.958 0.0
C1359 C 0.10788 0.42901 0.94946 0.0
C1360 C 0.08284 0.40856 0.97556 0.0
C1361 C 0.14335 0.42852 0.95868 0.0
C1362 C 0.11873 0.40845 0.98433 0.0
N1363 N 0.14799 0.41835 0.97578 0.0
C1364 C 0.10553 0.41124 0.89213 0.0
C1365 C 0.08311 0.38453 0.91141 0.0
C1366 C 0.1203 0.39825 0.87812 0.0
N1367 N 0.08537 0.40412 0.90764 0.0
C1368 C 0.09736 0.37104 0.89781 0.0
C1369 C 0.11363 0.37792 0.88015 0.0
H1370 H 0.10657 0.42693 0.88946 0.0
H1371 H 0.06624 0.3794 0.9237 0.0
C1372 C 0.91519 0.40871 0.9478 0.0
N1373 N 0.95117 0.40258 0.95169 0.0
C1374 C 0.8843 0.39707 0.95296 0.0
C1375 C 0.92787 0.37321 0.96676 0.0
C1376 C 0.95812 0.38554 0.96156 0.0
C1377 C 0.8905 0.3787 0.96181 0.0
H1378 H 0.91055 0.42202 0.9394 0.0
H1379 H 0.98709 0.38095 0.96424 0.0
O1380 O 0.0501 0.44872 0.91348 0.0
O1381 O 0.97413 0.44589 0.93726 0.0
O1382 O 0.9967 0.41186 0.91144 0.0
O1383 O 0.04227 0.41926 0.94944 0.0
H1384 H 0.07328 0.48576 0.91639 0.0
H1385 H 0.03795 0.44066 0.87584 0.0
H1386 H 0.07982 0.50887 0.8883 0.0
H1387 H 0.04548 0.46444 0.84838 0.0
H1388 H 0.95462 0.44302 0.00355 0.0
H1389 H 0.91991 0.47297 0.9398 0.0
H1390 H 0.98747 0.43195 0.97325 0.0
H1391 H 0.88868 0.48345 0.97075 0.0
H1392 H 0.89145 0.48494 0.89465 0.0
H1393 H 0.90768 0.43542 0.85558 0.0
H1394 H 0.03321 0.47729 0.00581 0.0
H1395 H 0.9921 0.51152 0.95645 0.0
H1396 H 0.93978 0.38107 0.92056 0.0
H1397 H 0.03258 0.40735 0.87132 0.0
H1398 H 0.93943 0.35416 0.87645 0.0
H1399 H 0.01283 0.37853 0.84272 0.0
H1400 H 0.10431 0.43714 0.9359 0.0
H1401 H 0.05947 0.40074 0.98237 0.0
H1402 H 0.16718 0.43625 0.95224 0.0
H1403 H 0.12332 0.40051 -0.00205 0.0
H1404 H 0.13317 0.40415 0.86488 0.0
H1405 H 0.09114 0.35557 0.90002 0.0
H1406 H 0.85615 0.40164 0.94841 0.0
H1407 H 0.93371 0.35905 0.97347 0.0
Li1408 Li 0.95278 0.57325 0.07273 0.0
Li1409 Li 0.01174 0.55344 0.0747 0.0
Li1410 Li 0.00551 0.58176 0.052 0.0
Li1411 Li 0.97115 0.55208 0.04564 0.0
C1412 C 0.0127 0.59417 0.09585 0.0
N1413 N 0.04917 0.62392 0.1359 0.0
C1414 C 0.04875 0.5866 0.11325 0.0
C1415 C 0.98949 0.6178 0.09619 0.0
C1416 C 0.06695 0.60144 0.13309 0.0
C1417 C 0.00247 0.63576 0.11473 0.0
C1418 C 0.9233 0.53476 0.07381 0.0
C1419 C 0.88196 0.50844 0.08429 0.0
N1420 N 0.85271 0.51699 0.07438 0.0
C1421 C 0.89285 0.54329 0.06371 0.0
C1422 C 0.91786 0.5172 0.08418 0.0
C1423 C 0.85738 0.53408 0.06419 0.0
C1424 C 0.89521 0.60062 0.08149 0.0
N1425 N 0.91537 0.58511 0.08861 0.0
C1426 C 0.90337 0.59494 0.12168 0.0
C1427 C 0.91763 0.58134 0.10819 0.0
C1428 C 0.8871 0.6126 0.11481 0.0
C1429 C 0.88043 0.61462 0.09448 0.0
H1430 H 0.89418 0.60328 0.0658 0.0
H1431 H 0.9345 0.56904 0.11333 0.0
C1432 C 0.08553 0.54493 0.08402 0.0
N1433 N 0.04955 0.54104 0.09015 0.0
C1434 C 0.11642 0.53978 0.09566 0.0
C1435 C 0.07285 0.52598 0.11952 0.0
C1436 C 0.0426 0.53118 0.10719 0.0
C1437 C 0.11022 0.53093 0.11403 0.0
H1438 H 0.09018 0.55333 0.07071 0.0
H1439 H 0.01363 0.52851 0.11178 0.0
C1440 C 0.94687 0.5946 0.03104 0.0
N1441 N 0.93806 0.6256 0.00501 0.0
C1442 C 0.93445 0.59111 0.01179 0.0
C1443 C 0.95387 0.61391 0.03716 0.0
C1444 C 0.9304 0.60696 -0.00119 0.0
C1445 C 0.94956 0.62937 0.02376 0.0
C1446 C 0.04456 0.53848 0.04101 0.0
C1447 C 0.07268 0.53913 0.02647 0.0
C1448 C 0.03497 0.52039 0.04955 0.0
C1449 C 0.0904 0.52168 0.02058 0.0
C1450 C 0.05343 0.50328 0.0433 0.0
N1451 N 0.08051 0.50427 0.02906 0.0
C1452 C 0.04875 0.61638 0.05149 0.0
C1453 C 0.05723 0.59505 0.02415 0.0
C1454 C 0.08293 0.62575 0.04744 0.0
N1455 N 0.03779 0.60068 0.04053 0.0
C1456 C 0.09202 0.60387 0.01967 0.0
C1457 C 0.10581 0.61867 0.03211 0.0
H1458 H 0.03293 0.62048 0.06441 0.0
H1459 H 0.04757 0.58249 0.01574 0.0
C1460 C 0.95625 0.51585 0.02677 0.0
N1461 N 0.96225 0.53546 0.02429 0.0
C1462 C 0.97031 0.5026 0.01284 0.0
C1463 C 0.99294 0.53019 0.99351 0.0
C1464 C 0.97875 0.54284 0.00779 0.0
C1465 C 0.99046 0.50981 -0.00354 0.0
H1466 H 0.94485 0.51039 0.04051 0.0
H1467 H 0.98559 0.55834 0.00698 0.0
O1468 O 0.00404 0.5813 0.08087 0.0
O1469 O 0.95846 0.5433 0.07347 0.0
O1470 O 0.95064 0.57926 0.04401 0.0
O1471 O 0.02661 0.55548 0.04684 0.0
H1472 H 0.06095 0.57218 0.11165 0.0
H1473 H 0.96817 0.62142 0.08538 0.0
H1474 H 0.06132 0.61628 0.13857 0.0
H1475 H 0.98792 0.65002 0.1142 0.0
H1476 H 0.87735 0.49483 0.09224 0.0
H1477 H 0.89644 0.55684 0.05557 0.0
H1478 H 0.94121 0.51039 0.09201 0.0
H1479 H 0.83356 0.54052 0.05646 0.0
H1480 H 0.90959 0.59273 0.13715 0.0
H1481 H 0.86757 0.62786 0.08857 0.0
H1482 H 0.14457 0.54433 0.09109 0.0
H1483 H 0.06701 0.51927 0.13368 0.0
H1484 H 0.92747 0.57636 0.00697 0.0
H1485 H 0.9628 0.61691 0.05207 0.0
H1486 H 0.92095 0.60445 0.98386 0.0
H1487 H 0.95529 0.64436 0.02829 0.0
H1488 H 0.08083 0.55293 0.01976 0.0
H1489 H 0.01326 0.51949 0.06078 0.0
H1490 H 0.11205 0.52198 0.00928 0.0
H1491 H 0.0461 0.48919 0.04971 0.0
H1492 H 0.09308 0.63716 0.05731 0.0
H1493 H 0.10929 0.59809 0.00779 0.0
H1494 H 0.9675 0.48693 0.01545 0.0
H1495 H 0.00864 0.53629 0.98121 0.0
Li1496 Li 0.49604 0.44072 0.41103 0.0
Li1497 Li 0.53027 0.44709 0.44075 0.0
Li1498 Li 0.54878 0.42 0.41956 0.0
Li1499 Li 0.48976 0.41799 0.43932 0.0
C1500 C 0.55468 0.46171 0.39825 0.0
N1501 N 0.56352 0.48775 0.36726 0.0
C1502 C 0.56702 0.48097 0.40175 0.0
C1503 C 0.54777 0.45558 0.37893 0.0
C1504 C 0.57109 0.49395 0.38591 0.0
C1505 C 0.55208 0.46898 0.36348 0.0
C1506 C 0.45676 0.45166 0.45425 0.0
C1507 C 0.44766 0.44934 0.48944 0.0
N1508 N 0.42053 0.46356 0.4884 0.0
C1509 C 0.42858 0.46616 0.45355 0.0
C1510 C 0.46627 0.44313 0.47236 0.0
C1511 C 0.41071 0.47202 0.47098 0.0
C1512 C 0.45287 0.44124 0.37638 0.0
N1513 N 0.46382 0.4522 0.39209 0.0
C1514 C 0.4096 0.47307 0.38889 0.0
C1515 C 0.44439 0.46858 0.39771 0.0
C1516 C 0.39582 0.46063 0.37409 0.0
C1517 C 0.4187 0.44529 0.36701 0.0
H1518 H 0.46869 0.42832 0.37229 0.0
H1519 H 0.45404 0.47699 0.41027 0.0
C1520 C 0.54481 0.46598 0.47702 0.0
N1521 N 0.53898 0.46845 0.4574 0.0
C1522 C 0.53054 0.47988 0.49025 0.0
C1523 C 0.50806 0.49919 0.46262 0.0
C1524 C 0.52246 0.48494 0.44999 0.0
C1525 C 0.51037 0.49623 0.483 0.0
H1526 H 0.55623 0.45225 0.48251 0.0
H1527 H 0.51576 0.48575 0.43448 0.0
C1528 C 0.4889 0.39687 0.3986 0.0
N1529 N 0.45242 0.35684 0.36882 0.0
C1530 C 0.45284 0.37946 0.40615 0.0
C1531 C 0.51211 0.39654 0.37496 0.0
C1532 C 0.43464 0.35964 0.39129 0.0
C1533 C 0.49913 0.37802 0.35699 0.0
C1534 C 0.57812 0.41895 0.45811 0.0
C1535 C 0.60861 0.42901 0.44956 0.0
C1536 C 0.58348 0.40865 0.47571 0.0
C1537 C 0.64404 0.42855 0.45881 0.0
C1538 C 0.61934 0.40858 0.48452 0.0
N1539 N 0.64863 0.41844 0.47595 0.0
C1540 C 0.60632 0.41124 0.39216 0.0
C1541 C 0.58392 0.38453 0.41144 0.0
C1542 C 0.62103 0.39825 0.37814 0.0
N1543 N 0.5862 0.40412 0.40769 0.0
C1544 C 0.59811 0.37104 0.39783 0.0
C1545 C 0.61434 0.37792 0.38016 0.0
H1546 H 0.60737 0.42693 0.38951 0.0
H1547 H 0.56707 0.37939 0.42375 0.0
C1548 C 0.41595 0.40865 0.44778 0.0
N1549 N 0.45193 0.40253 0.4517 0.0
C1550 C 0.38507 0.39701 0.45293 0.0
C1551 C 0.42863 0.37317 0.46679 0.0
C1552 C 0.45888 0.3855 0.46159 0.0
C1553 C 0.39126 0.37865 0.46182 0.0
H1554 H 0.41131 0.42194 0.43935 0.0
H1555 H 0.48785 0.38093 0.46429 0.0
O1556 O 0.55089 0.44873 0.41358 0.0
O1557 O 0.47483 0.44585 0.43729 0.0
O1558 O 0.49755 0.41185 0.41147 0.0
O1559 O 0.543 0.41925 0.44951 0.0
H1560 H 0.57393 0.4858 0.41651 0.0
H1561 H 0.53889 0.44067 0.37593 0.0
H1562 H 0.58048 0.50891 0.38843 0.0
H1563 H 0.54642 0.46445 0.34848 0.0
H1564 H 0.45493 0.44294 0.50354 0.0
H1565 H 0.42048 0.47286 0.43974 0.0
H1566 H 0.48803 0.43193 0.47329 0.0
H1567 H 0.38901 0.48329 0.47064 0.0
H1568 H 0.39233 0.48494 0.39467 0.0
H1569 H 0.40855 0.43543 0.35559 0.0
H1570 H 0.53322 0.47726 0.50592 0.0
H1571 H 0.49236 0.51147 0.45649 0.0
H1572 H 0.44064 0.38105 0.42057 0.0
H1573 H 0.53343 0.40735 0.37135 0.0
H1574 H 0.44027 0.35417 0.37645 0.0
H1575 H 0.51368 0.37856 0.34273 0.0
H1576 H 0.60509 0.43709 0.43597 0.0
H1577 H 0.56009 0.40085 0.48253 0.0
H1578 H 0.6679 0.43626 0.45237 0.0
H1579 H 0.62388 0.40068 0.49817 0.0
H1580 H 0.63387 0.40416 0.36489 0.0
H1581 H 0.59188 0.35558 0.40003 0.0
H1582 H 0.35693 0.40156 0.44836 0.0
H1583 H 0.43447 0.35903 0.47352 0.0
Li1584 Li 0.23997 0.68934 0.07478 0.0
Li1585 Li 0.29899 0.66957 0.07278 0.0
Li1586 Li 0.28049 0.69076 0.04569 0.0
Li1587 Li 0.24625 0.66104 0.05205 0.0
C1588 C 0.32834 0.70812 0.07384 0.0
N1589 N 0.39884 0.72597 0.07436 0.0
C1590 C 0.35883 0.69957 0.06379 0.0
C1591 C 0.33368 0.72573 0.08413 0.0
C1592 C 0.39426 0.70882 0.06425 0.0
C1593 C 0.36954 0.73454 0.08421 0.0
C1594 C 0.23911 0.6486 0.09589 0.0
C1595 C 0.24934 0.60699 0.11471 0.0
N1596 N 0.20263 0.61881 0.1359 0.0
C1597 C 0.20305 0.65615 0.1133 0.0
C1598 C 0.26231 0.62497 0.0962 0.0
C1599 C 0.18485 0.64129 0.13312 0.0
C1600 C 0.16616 0.69778 0.08413 0.0
N1601 N 0.20213 0.70171 0.09025 0.0
C1602 C 0.17881 0.71678 0.11961 0.0
C1603 C 0.20907 0.7116 0.10728 0.0
C1604 C 0.14145 0.71181 0.11413 0.0
C1605 C 0.13526 0.70293 0.09576 0.0
H1606 H 0.16153 0.68937 0.07082 0.0
H1607 H 0.23804 0.7143 0.11186 0.0
C1608 C 0.35654 0.64218 0.08152 0.0
N1609 N 0.33641 0.6577 0.08865 0.0
C1610 C 0.37125 0.62815 0.0945 0.0
C1611 C 0.34833 0.64782 0.12172 0.0
C1612 C 0.33413 0.66145 0.10824 0.0
C1613 C 0.36457 0.63016 0.11483 0.0
H1614 H 0.35759 0.63953 0.06583 0.0
H1615 H 0.31728 0.67374 0.11339 0.0
C1616 C 0.207 0.70427 0.04112 0.0
N1617 N 0.17085 0.73844 0.0292 0.0
C1618 C 0.17885 0.70359 0.0266 0.0
C1619 C 0.21652 0.72238 0.04965 0.0
C1620 C 0.16102 0.72102 0.02073 0.0
C1621 C 0.19796 0.73947 0.04343 0.0
C1622 C 0.30492 0.64827 0.03106 0.0
C1623 C 0.3173 0.65178 0.01181 0.0
C1624 C 0.29799 0.62895 0.03717 0.0
C1625 C 0.3214 0.63594 -0.00118 0.0
C1626 C 0.30234 0.6135 0.02376 0.0
N1627 N 0.31381 0.61729 0.00501 0.0
C1628 C 0.29508 0.72703 0.0268 0.0
C1629 C 0.27273 0.69999 0.00784 0.0
C1630 C 0.28088 0.74025 0.01289 0.0
N1631 N 0.28923 0.70741 0.02433 0.0
C1632 C 0.25839 0.71261 0.99357 0.0
C1633 C 0.26073 0.733 -0.00348 0.0
H1634 H 0.30649 0.73252 0.04054 0.0
H1635 H 0.266 0.68448 0.00703 0.0
C1636 C 0.20309 0.62639 0.05151 0.0
N1637 N 0.21404 0.64211 0.04056 0.0
C1638 C 0.16893 0.61701 0.04744 0.0
C1639 C 0.15982 0.6389 0.01968 0.0
C1640 C 0.1946 0.64773 0.02418 0.0
C1641 C 0.14606 0.62409 0.03211 0.0
H1642 H 0.21891 0.6223 0.06442 0.0
H1643 H 0.20425 0.6603 0.01578 0.0
O1644 O 0.29322 0.69953 0.07353 0.0
O1645 O 0.24776 0.66148 0.08092 0.0
O1646 O 0.22505 0.68731 0.04693 0.0
O1647 O 0.3011 0.6636 0.04404 0.0
H1648 H 0.35532 0.68597 0.05572 0.0
H1649 H 0.31028 0.73255 0.09192 0.0
H1650 H 0.41813 0.70238 0.05655 0.0
H1651 H 0.37407 0.74819 0.0921 0.0
H1652 H 0.26388 0.59273 0.11417 0.0
H1653 H 0.19085 0.67057 0.11172 0.0
H1654 H 0.28363 0.62136 0.08539 0.0
H1655 H 0.19048 0.62644 0.13857 0.0
H1656 H 0.18464 0.72351 0.13376 0.0
H1657 H 0.10713 0.69836 0.09121 0.0
H1658 H 0.3841 0.61491 0.08858 0.0
H1659 H 0.3421 0.65002 0.13719 0.0
H1660 H 0.17075 0.68978 0.01989 0.0
H1661 H 0.23827 0.7233 0.06087 0.0
H1662 H 0.13934 0.72069 0.00945 0.0
H1663 H 0.20524 0.75356 0.04984 0.0
H1664 H 0.32422 0.66654 0.00699 0.0
H1665 H 0.28908 0.62594 0.05208 0.0
H1666 H 0.33082 0.63847 0.98386 0.0
H1667 H 0.29667 0.5985 0.02828 0.0
H1668 H 0.28358 0.75593 0.0155 0.0
H1669 H 0.24271 0.70649 0.98128 0.0
H1670 H 0.15879 0.60559 0.0573 0.0
H1671 H 0.14255 0.64468 0.00781 0.0
Li1672 Li 0.97114 0.69066 0.1971 0.0
Li1673 Li 0.0055 0.66099 0.19073 0.0
Li1674 Li 0.01172 0.6893 0.16803 0.0
Li1675 Li 0.95277 0.66949 0.17 0.0
C1676 C 0.04455 0.70426 0.20172 0.0
N1677 N 0.0805 0.73848 0.21368 0.0
C1678 C 0.07267 0.70361 0.21626 0.0
C1679 C 0.03496 0.72236 0.19319 0.0
C1680 C 0.09039 0.72106 0.22215 0.0
C1681 C 0.05342 0.73947 0.19943 0.0
C1682 C 0.94685 0.64814 0.21169 0.0
C1683 C 0.94954 0.61337 0.21896 0.0
N1684 N 0.93803 0.61713 0.23772 0.0
C1685 C 0.93443 0.65162 0.23094 0.0
C1686 C 0.95385 0.62883 0.20557 0.0
C1687 C 0.93037 0.63577 0.24391 0.0
C1688 C 0.95625 0.72689 0.21597 0.0
N1689 N 0.96224 0.70727 0.21844 0.0
C1690 C 0.99294 0.71254 0.24923 0.0
C1691 C 0.97874 0.69989 0.23495 0.0
C1692 C 0.99046 0.73292 0.24628 0.0
C1693 C 0.97032 0.74013 0.2299 0.0
H1694 H 0.94485 0.73235 0.20223 0.0
H1695 H 0.98557 0.68439 0.23576 0.0
C1696 C 0.04874 0.62636 0.19124 0.0
N1697 N 0.03778 0.64206 0.20221 0.0
C1698 C 0.08292 0.61699 0.19529 0.0
C1699 C 0.09201 0.63887 0.22307 0.0
C1700 C 0.05722 0.64769 0.21859 0.0
C1701 C 0.10579 0.62407 0.21063 0.0
H1702 H 0.03292 0.62227 0.17833 0.0
H1703 H 0.04756 0.66025 0.22699 0.0
C1704 C 0.92328 0.70798 0.16893 0.0
N1705 N 0.85269 0.72573 0.16836 0.0
C1706 C 0.89284 0.69944 0.17904 0.0
C1707 C 0.91783 0.72553 0.15855 0.0
C1708 C 0.85737 0.70864 0.17855 0.0
C1709 C 0.88192 0.73429 0.15844 0.0
C1710 C 0.01269 0.64858 0.14688 0.0
C1711 C 0.04875 0.65615 0.12949 0.0
C1712 C 0.98949 0.62494 0.14654 0.0
C1713 C 0.06695 0.6413 0.10965 0.0
C1714 C 0.00246 0.60698 0.12801 0.0
N1715 N 0.04917 0.61883 0.10683 0.0
C1716 C 0.08552 0.69782 0.15872 0.0
C1717 C 0.04259 0.71156 0.13554 0.0
C1718 C 0.11641 0.70297 0.14708 0.0
N1719 N 0.04954 0.7017 0.15258 0.0
C1720 C 0.07284 0.71675 0.12321 0.0
C1721 C 0.11021 0.71181 0.1287 0.0
H1722 H 0.09017 0.68942 0.17203 0.0
H1723 H 0.01362 0.71423 0.13095 0.0
C1724 C 0.8952 0.64212 0.16124 0.0
N1725 N 0.91536 0.65763 0.15412 0.0
C1726 C 0.88043 0.62811 0.14825 0.0
C1727 C 0.90337 0.64781 0.12105 0.0
C1728 C 0.91762 0.6614 0.13454 0.0
C1729 C 0.88711 0.63015 0.12792 0.0
H1730 H 0.89417 0.63945 0.17693 0.0
H1731 H 0.93449 0.6737 0.12941 0.0
O1732 O 0.0266 0.68727 0.1959 0.0
O1733 O 0.95063 0.66347 0.19872 0.0
O1734 O 0.95844 0.69944 0.16926 0.0
O1735 O 0.00402 0.66144 0.16187 0.0
H1736 H 0.08082 0.68981 0.22298 0.0
H1737 H 0.01325 0.72325 0.18196 0.0
H1738 H 0.11204 0.72076 0.23345 0.0
H1739 H 0.04609 0.75355 0.19302 0.0
H1740 H 0.95527 0.59837 0.21444 0.0
H1741 H 0.92745 0.66637 0.23577 0.0
H1742 H 0.96279 0.62583 0.19066 0.0
H1743 H 0.92092 0.63828 0.25887 0.0
H1744 H 0.00863 0.70644 0.26153 0.0
H1745 H 0.96752 0.7558 0.22729 0.0
H1746 H 0.09306 0.60558 0.18543 0.0
H1747 H 0.10928 0.64465 0.23495 0.0
H1748 H 0.89644 0.6859 0.18718 0.0
H1749 H 0.94117 0.73234 0.15071 0.0
H1750 H 0.83355 0.70221 0.18629 0.0
H1751 H 0.87731 0.74789 0.15048 0.0
H1752 H 0.06095 0.67056 0.13109 0.0
H1753 H 0.96816 0.62132 0.15735 0.0
H1754 H 0.06132 0.62646 0.10417 0.0
H1755 H 0.98792 0.59272 0.12854 0.0
H1756 H 0.14456 0.69842 0.15165 0.0
H1757 H 0.067 0.72346 0.10905 0.0
H1758 H 0.86756 0.61487 0.15415 0.0
H1759 H 0.90959 0.65001 0.10558 0.0
Li1760 Li 0.26158 0.82472 0.93929 0.0
Li1761 Li 0.20258 0.82272 0.91951 0.0
Li1762 Li 0.22106 0.79563 0.9407 0.0
Li1763 Li 0.25532 0.802 0.91099 0.0
C1764 C 0.17319 0.82378 0.95804 0.0
N1765 N 0.10265 0.82431 0.97584 0.0
C1766 C 0.14273 0.81369 0.9495 0.0
C1767 C 0.16779 0.83411 0.97562 0.0
C1768 C 0.10728 0.81415 0.95873 0.0
C1769 C 0.13191 0.8342 0.9844 0.0
C1770 C 0.26247 0.84585 0.89857 0.0
C1771 C 0.25223 0.86472 0.85697 0.0
N1772 N 0.29894 0.8859 0.86881 0.0
C1773 C 0.29852 0.86326 0.90614 0.0
C1774 C 0.23926 0.84618 0.87493 0.0
C1775 C 0.31672 0.88309 0.89129 0.0
C1776 C 0.33538 0.83406 0.94777 0.0
N1777 N 0.2994 0.84018 0.95168 0.0
C1778 C 0.3227 0.86954 0.96677 0.0
C1779 C 0.29244 0.85721 0.96157 0.0
C1780 C 0.36006 0.86406 0.9618 0.0
C1781 C 0.36626 0.8457 0.95293 0.0
H1782 H 0.34002 0.82076 0.93935 0.0
H1783 H 0.26347 0.86178 0.96426 0.0
C1784 C 0.14504 0.83148 0.89212 0.0
N1785 N 0.16516 0.8386 0.90764 0.0
C1786 C 0.13031 0.84447 0.8781 0.0
C1787 C 0.15322 0.87167 0.89781 0.0
C1788 C 0.16743 0.85818 0.91141 0.0
C1789 C 0.13699 0.8648 0.88013 0.0
H1790 H 0.144 0.81579 0.88945 0.0
H1791 H 0.18428 0.86332 0.92372 0.0
C1792 C 0.29455 0.79105 0.95422 0.0
N1793 N 0.3307 0.77914 0.98839 0.0
C1794 C 0.32272 0.77654 0.95354 0.0
C1795 C 0.28501 0.79958 0.97233 0.0
C1796 C 0.34054 0.77067 0.97097 0.0
C1797 C 0.30357 0.79336 0.98942 0.0
C1798 C 0.19672 0.78101 0.89819 0.0
C1799 C 0.18442 0.76173 0.90168 0.0
C1800 C 0.20364 0.78714 0.87887 0.0
C1801 C 0.1804 0.74876 0.88584 0.0
C1802 C 0.19937 0.77373 0.86342 0.0
N1803 N 0.18797 0.75496 0.86719 0.0
C1804 C 0.2064 0.77676 0.97697 0.0
C1805 C 0.22884 0.75778 0.94996 0.0
C1806 C 0.2206 0.76287 0.99021 0.0
N1807 N 0.2123 0.77427 0.95735 0.0
C1808 C 0.24318 0.74353 0.96261 0.0
C1809 C 0.24079 0.7465 0.98299 0.0
H1810 H 0.19496 0.79049 0.98244 0.0
H1811 H 0.23561 0.75696 0.93446 0.0
C1812 C 0.29851 0.80148 0.87635 0.0
N1813 N 0.28756 0.79052 0.89206 0.0
C1814 C 0.33269 0.79743 0.86698 0.0
C1815 C 0.34178 0.76965 0.88885 0.0
C1816 C 0.307 0.77414 0.89768 0.0
C1817 C 0.35556 0.78209 0.87406 0.0
H1818 H 0.28269 0.8144 0.87226 0.0
H1819 H 0.29734 0.76573 0.91024 0.0
O1820 O 0.20833 0.82347 0.94946 0.0
O1821 O 0.25382 0.83087 0.91144 0.0
O1822 O 0.2765 0.79686 0.93725 0.0
O1823 O 0.20047 0.79398 0.91352 0.0
H1824 H 0.14628 0.80558 0.93592 0.0
H1825 H 0.19116 0.84194 0.98243 0.0
H1826 H 0.08344 0.80643 0.95229 0.0
H1827 H 0.12733 0.84212 -0.00197 0.0
H1828 H 0.23769 0.86418 0.84271 0.0
H1829 H 0.31072 0.86166 0.92055 0.0
H1830 H 0.21795 0.83537 0.87131 0.0
H1831 H 0.31109 0.88856 0.87645 0.0
H1832 H 0.31685 0.88369 0.9735 0.0
H1833 H 0.39441 0.84114 0.94837 0.0
H1834 H 0.11747 0.83856 0.86486 0.0
H1835 H 0.15944 0.88714 0.90002 0.0
H1836 H 0.33083 0.76984 0.93973 0.0
H1837 H 0.26325 0.81079 0.97326 0.0
H1838 H 0.36224 0.7594 0.97064 0.0
H1839 H 0.29628 0.79976 0.00352 0.0
H1840 H 0.17751 0.7569 0.91644 0.0
H1841 H 0.21248 0.80206 0.87588 0.0
H1842 H 0.17104 0.73378 0.88835 0.0
H1843 H 0.20503 0.77827 0.84842 0.0
H1844 H 0.21785 0.76549 0.00588 0.0
H1845 H 0.2589 0.73125 0.9565 0.0
H1846 H 0.34283 0.80729 0.85557 0.0
H1847 H 0.35905 0.75778 0.89463 0.0
Li1848 Li 0.22105 0.9471 0.80203 0.0
Li1849 Li 0.25531 0.94073 0.83173 0.0
Li1850 Li 0.26157 0.91801 0.80343 0.0
Li1851 Li 0.20257 0.92001 0.82321 0.0
C1852 C 0.29453 0.95167 0.7885 0.0
N1853 N 0.33068 0.96359 0.75433 0.0
C1854 C 0.3227 0.96619 0.78919 0.0
C1855 C 0.28499 0.94315 0.77039 0.0
C1856 C 0.34052 0.97206 0.77176 0.0
C1857 C 0.30356 0.94937 0.7533 0.0
C1858 C 0.19671 0.96171 0.84454 0.0
C1859 C 0.19935 0.96898 0.87931 0.0
N1860 N 0.18795 0.98775 0.87554 0.0
C1861 C 0.1844 0.98098 0.84104 0.0
C1862 C 0.20363 0.95558 0.86385 0.0
C1863 C 0.18037 0.99396 0.85689 0.0
C1864 C 0.20639 0.96596 0.76576 0.0
N1865 N 0.21229 0.96845 0.78538 0.0
C1866 C 0.24316 -0.0008 0.78013 0.0
C1867 C 0.22883 0.98495 0.79277 0.0
C1868 C 0.24077 0.99623 0.75974 0.0
C1869 C 0.22059 0.97986 0.75252 0.0
H1870 H 0.19495 0.95223 0.76029 0.0
H1871 H 0.23558 0.98577 0.80827 0.0
C1872 C 0.29851 0.94124 0.86637 0.0
N1873 N 0.28755 0.95221 0.85067 0.0
C1874 C 0.33268 0.94529 0.87575 0.0
C1875 C 0.34178 0.97307 0.85387 0.0
C1876 C 0.30699 0.96859 0.84505 0.0
C1877 C 0.35555 0.96063 0.86867 0.0
H1878 H 0.28268 0.92832 0.87046 0.0
H1879 H 0.29733 0.97699 0.83249 0.0
C1880 C 0.17317 0.91895 0.78469 0.0
N1881 N 0.10262 0.91842 0.76689 0.0
C1882 C 0.14271 0.92904 0.79323 0.0
C1883 C 0.16776 0.90861 0.76711 0.0
C1884 C 0.10726 0.92857 0.784 0.0
C1885 C 0.13188 0.90852 0.75833 0.0
C1886 C 0.26246 0.89687 0.84415 0.0
C1887 C 0.29852 0.87947 0.83659 0.0
C1888 C 0.23926 0.89654 0.86779 0.0
C1889 C 0.31672 0.85964 0.85143 0.0
C1890 C 0.25223 0.87801 0.88575 0.0
N1891 N 0.29894 0.85683 0.87391 0.0
C1892 C 0.33536 0.90867 0.79495 0.0
C1893 C 0.29243 0.88552 0.78115 0.0
C1894 C 0.36625 0.89703 0.78979 0.0
N1895 N 0.29938 0.90255 0.79104 0.0
C1896 C 0.32268 0.87319 0.77595 0.0
C1897 C 0.36004 0.87867 0.78091 0.0
H1898 H 0.34001 0.92197 0.80337 0.0
H1899 H 0.26346 0.88094 0.77846 0.0
C1900 C 0.14503 0.91124 0.85061 0.0
N1901 N 0.16515 0.90412 0.83508 0.0
C1902 C 0.13031 0.89825 0.86462 0.0
C1903 C 0.15322 0.87105 0.84492 0.0
C1904 C 0.16743 0.88454 0.83131 0.0
C1905 C 0.13699 0.87792 0.86259 0.0
H1906 H 0.14399 0.92693 0.85327 0.0
H1907 H 0.18427 0.8794 0.819 0.0
O1908 O 0.27649 0.94586 0.80547 0.0
O1909 O 0.20046 0.94874 0.8292 0.0
O1910 O 0.20831 0.91926 0.79326 0.0
O1911 O 0.2538 0.91185 0.83129 0.0
H1912 H 0.33081 0.97289 0.803 0.0
H1913 H 0.26324 0.93194 0.76947 0.0
H1914 H 0.36222 0.98333 0.77209 0.0
H1915 H 0.29626 0.94296 0.73921 0.0
H1916 H 0.20502 0.96445 0.89431 0.0
H1917 H 0.17749 0.98581 0.82629 0.0
H1918 H 0.21248 0.94066 0.86685 0.0
H1919 H 0.171 0.00893 0.85438 0.0
H1920 H 0.25888 0.01148 0.78623 0.0
H1921 H 0.21785 0.97724 0.73685 0.0
H1922 H 0.34282 0.93543 0.88716 0.0
H1923 H 0.35904 0.98495 0.84809 0.0
H1924 H 0.14627 0.93715 0.8068 0.0
H1925 H 0.19113 0.90078 0.7603 0.0
H1926 H 0.08343 0.9363 0.79044 0.0
H1927 H 0.1273 0.9006 0.7447 0.0
H1928 H 0.31072 0.88106 0.82217 0.0
H1929 H 0.21794 0.90735 0.87141 0.0
H1930 H 0.31109 0.85417 0.86628 0.0
H1931 H 0.23769 0.87854 0.90002 0.0
H1932 H 0.39439 0.90159 0.79435 0.0
H1933 H 0.31683 0.85904 0.76923 0.0
H1934 H 0.11747 0.90415 0.87787 0.0
H1935 H 0.15944 0.85558 0.8427 0.0
Li1936 Li 0.49604 0.94072 0.91102 0.0
Li1937 Li 0.53027 0.94709 0.94074 0.0
Li1938 Li 0.54878 0.92 0.91955 0.0
Li1939 Li 0.48977 0.91799 0.93932 0.0
C1940 C 0.55466 0.96171 0.89824 0.0
N1941 N 0.56348 0.98775 0.86725 0.0
C1942 C 0.567 0.98098 0.90174 0.0
C1943 C 0.54774 0.95558 0.87892 0.0
C1944 C 0.57106 0.99395 0.88589 0.0
C1945 C 0.55205 0.96899 0.86347 0.0
C1946 C 0.45677 0.95165 0.95425 0.0
C1947 C 0.44769 0.94934 0.98944 0.0
N1948 N 0.42055 0.96355 0.98841 0.0
C1949 C 0.42858 0.96616 0.95356 0.0
C1950 C 0.46629 0.94312 0.97236 0.0
C1951 C 0.41073 0.97202 0.97098 0.0
C1952 C 0.45285 0.94124 0.87638 0.0
N1953 N 0.4638 0.9522 0.89209 0.0
C1954 C 0.40958 0.97307 0.88889 0.0
C1955 C 0.44437 0.96858 0.89771 0.0
C1956 C 0.39581 0.96063 0.87409 0.0
C1957 C 0.41867 0.94529 0.86701 0.0
H1958 H 0.46867 0.92832 0.87229 0.0
H1959 H 0.45403 0.97698 0.91027 0.0
C1960 C 0.54483 0.96598 0.97701 0.0
N1961 N 0.53899 0.96845 0.95739 0.0
C1962 C 0.53057 0.97988 0.99024 0.0
C1963 C 0.50807 -0.00081 0.96261 0.0
C1964 C 0.52246 0.98494 0.94998 0.0
C1965 C 0.51038 0.99623 0.983 0.0
H1966 H 0.55626 0.95225 0.9825 0.0
H1967 H 0.51575 0.98575 0.93447 0.0
C1968 C 0.4889 0.89687 0.89859 0.0
N1969 N 0.45242 0.85684 0.86881 0.0
C1970 C 0.45284 0.87946 0.90614 0.0
C1971 C 0.5121 0.89655 0.87495 0.0
C1972 C 0.43464 0.85964 0.89128 0.0
C1973 C 0.49913 0.87802 0.85698 0.0
C1974 C 0.57815 0.91895 0.95808 0.0
C1975 C 0.60862 0.92902 0.94954 0.0
C1976 C 0.58352 0.90865 0.97568 0.0
C1977 C 0.64406 0.92857 0.95878 0.0
C1978 C 0.61939 0.90857 0.98448 0.0
N1979 N 0.64867 0.91845 0.97591 0.0
C1980 C 0.60632 0.91124 0.89214 0.0
C1981 C 0.58392 0.88454 0.91143 0.0
C1982 C 0.62103 0.89826 0.87812 0.0
N1983 N 0.5862 0.90412 0.90767 0.0
C1984 C 0.59812 0.87105 0.89781 0.0
C1985 C 0.61435 0.87793 0.88014 0.0
H1986 H 0.60736 0.92694 0.88949 0.0
H1987 H 0.56708 0.8794 0.92373 0.0
C1988 C 0.41597 0.90864 0.94778 0.0
N1989 N 0.45195 0.90252 0.95169 0.0
C1990 C 0.38508 0.897 0.95293 0.0
C1991 C 0.42865 0.87316 0.96678 0.0
C1992 C 0.4589 0.8855 0.96158 0.0
C1993 C 0.39129 0.87864 0.96181 0.0
H1994 H 0.41132 0.92194 0.93935 0.0
H1995 H 0.48787 0.88093 0.96428 0.0
O1996 O 0.55088 0.94874 0.91357 0.0
O1997 O 0.47483 0.94584 0.93728 0.0
O1998 O 0.49755 0.91185 0.91146 0.0
O1999 O 0.54302 0.91926 0.9495 0.0
H2000 H 0.57391 0.9858 0.9165 0.0
H2001 H 0.53886 0.94067 0.87592 0.0
H2002 H 0.58045 0.00892 0.88841 0.0
H2003 H 0.54638 0.96446 0.84847 0.0
H2004 H 0.45497 0.94293 0.00353 0.0
H2005 H 0.42048 0.97286 0.93974 0.0
H2006 H 0.48805 0.93192 0.97328 0.0
H2007 H 0.38902 0.98329 0.97064 0.0
H2008 H 0.39232 0.98494 0.89467 0.0
H2009 H 0.40853 0.93543 0.85559 0.0
H2010 H 0.53325 0.97726 0.00591 0.0
H2011 H 0.49235 0.01147 0.95649 0.0
H2012 H 0.44064 0.88105 0.92056 0.0
H2013 H 0.53342 0.90736 0.87134 0.0
H2014 H 0.44027 0.85417 0.87644 0.0
H2015 H 0.51367 0.87856 0.84271 0.0
H2016 H 0.60508 0.93711 0.93595 0.0
H2017 H 0.56014 0.90084 0.9825 0.0
H2018 H 0.6679 0.93628 0.95234 0.0
H2019 H 0.62395 0.90067 -0.00188 0.0
H2020 H 0.63387 0.90417 0.86488 0.0
H2021 H 0.5919 0.85558 0.90001 0.0
H2022 H 0.35694 0.90155 0.94836 0.0
H2023 H 0.43449 0.85901 0.9735 0.0
Li2024 Li 0.28048 0.55198 0.19706 0.0
Li2025 Li 0.24624 0.5817 0.1907 0.0
Li2026 Li 0.23997 0.5534 0.16796 0.0
Li2027 Li 0.29899 0.57317 0.16998 0.0
C2028 C 0.20699 0.53846 0.20162 0.0
N2029 N 0.17084 0.50429 0.21353 0.0
C2030 C 0.17884 0.53914 0.21614 0.0
C2031 C 0.21652 0.52036 0.19309 0.0
C2032 C 0.16102 0.52171 0.22201 0.0
C2033 C 0.19796 0.50327 0.19931 0.0
C2034 C 0.30489 0.59448 0.21169 0.0
C2035 C 0.30231 0.62925 0.21899 0.0
N2036 N 0.31377 0.62546 0.23775 0.0
C2037 C 0.31727 0.59097 0.23095 0.0
C2038 C 0.29797 0.6138 0.20558 0.0
C2039 C 0.32136 0.60681 0.24393 0.0
C2040 C 0.29508 0.51571 0.21594 0.0
N2041 N 0.28922 0.53534 0.21842 0.0
C2042 C 0.25838 0.53012 0.24917 0.0
C2043 C 0.27271 0.54274 0.23491 0.0
C2044 C 0.26073 0.50973 0.24622 0.0
C2045 C 0.28087 0.50249 0.22986 0.0
H2046 H 0.30649 0.51023 0.20221 0.0
H2047 H 0.26598 0.55826 0.23572 0.0
C2048 C 0.20307 0.61635 0.19124 0.0
N2049 N 0.21402 0.60063 0.20219 0.0
C2050 C 0.16891 0.62573 0.1953 0.0
C2051 C 0.1598 0.60383 0.22306 0.0
C2052 C 0.19457 0.59501 0.21856 0.0
C2053 C 0.14604 0.61865 0.21063 0.0
H2054 H 0.2189 0.62044 0.17832 0.0
H2055 H 0.20422 0.58244 0.22696 0.0
C2056 C 0.32835 0.53463 0.16891 0.0
N2057 N 0.39886 0.5168 0.1684 0.0
C2058 C 0.35883 0.54318 0.17897 0.0
C2059 C 0.33371 0.51703 0.15861 0.0
C2060 C 0.39427 0.53394 0.17852 0.0
C2061 C 0.36957 0.50823 0.15853 0.0
C2062 C 0.2391 0.59414 0.14685 0.0
C2063 C 0.20305 0.58659 0.12944 0.0
C2064 C 0.26231 0.61777 0.14655 0.0
C2065 C 0.18485 0.60145 0.10963 0.0
C2066 C 0.24934 0.63576 0.12803 0.0
N2067 N 0.20263 0.62393 0.10684 0.0
C2068 C 0.16616 0.54495 0.15861 0.0
C2069 C 0.20908 0.53115 0.13546 0.0
C2070 C 0.13527 0.53981 0.14697 0.0
N2071 N 0.20214 0.54103 0.15249 0.0
C2072 C 0.17882 0.52596 0.12312 0.0
C2073 C 0.14147 0.53093 0.12861 0.0
H2074 H 0.16153 0.55337 0.17192 0.0
H2075 H 0.23805 0.52845 0.13088 0.0
C2076 C 0.35653 0.60057 0.16124 0.0
N2077 N 0.33641 0.58505 0.1541 0.0
C2078 C 0.37125 0.61461 0.14826 0.0
C2079 C 0.34833 0.59493 0.12104 0.0
C2080 C 0.33413 0.58131 0.13451 0.0
C2081 C 0.36456 0.61259 0.12793 0.0
H2082 H 0.35757 0.60322 0.17693 0.0
H2083 H 0.31729 0.56901 0.12937 0.0
O2084 O 0.22504 0.55543 0.19582 0.0
O2085 O 0.30109 0.57915 0.19871 0.0
O2086 O 0.29322 0.54322 0.16922 0.0
O2087 O 0.24776 0.58126 0.16183 0.0
H2088 H 0.17073 0.55295 0.22285 0.0
H2089 H 0.23827 0.51944 0.18188 0.0
H2090 H 0.13933 0.52204 0.23329 0.0
H2091 H 0.20524 0.48917 0.19289 0.0
H2092 H 0.29664 0.64425 0.21447 0.0
H2093 H 0.32418 0.57621 0.23576 0.0
H2094 H 0.28907 0.61681 0.19067 0.0
H2095 H 0.33077 0.60428 0.25889 0.0
H2096 H 0.24269 0.53625 0.26146 0.0
H2097 H 0.28358 0.48681 0.22725 0.0
H2098 H 0.15878 0.63715 0.18544 0.0
H2099 H 0.14252 0.59805 0.23493 0.0
H2100 H 0.3553 0.55677 0.18706 0.0
H2101 H 0.31032 0.51021 0.15081 0.0
H2102 H 0.41812 0.54038 0.18623 0.0
H2103 H 0.37412 0.49458 0.15064 0.0
H2104 H 0.19085 0.57217 0.13102 0.0
H2105 H 0.28363 0.62138 0.15736 0.0
H2106 H 0.19048 0.6163 0.10417 0.0
H2107 H 0.26388 0.65002 0.12858 0.0
H2108 H 0.10713 0.54438 0.15153 0.0
H2109 H 0.18466 0.51923 0.10897 0.0
H2110 H 0.38409 0.62785 0.15418 0.0
H2111 H 0.34211 0.59274 0.10557 0.0
Li2112 Li 0.54877 0.82274 0.82318 0.0
Li2113 Li 0.48976 0.82475 0.80341 0.0
Li2114 Li 0.49603 0.80202 0.8317 0.0
Li2115 Li 0.53026 0.79565 0.80199 0.0
C2116 C 0.48889 0.84587 0.84414 0.0
N2117 N 0.45242 0.8859 0.87392 0.0
C2118 C 0.45284 0.86328 0.83658 0.0
C2119 C 0.5121 0.84619 0.86777 0.0
C2120 C 0.43464 0.8831 0.85144 0.0
C2121 C 0.49913 0.86472 0.88575 0.0
C2122 C 0.57814 0.82379 0.78464 0.0
C2123 C 0.61939 0.83419 0.75825 0.0
N2124 N 0.64866 0.8243 0.76682 0.0
C2125 C 0.60861 0.81372 0.79318 0.0
C2126 C 0.58352 0.83411 0.76705 0.0
C2127 C 0.64405 0.81417 0.78394 0.0
C2128 C 0.60632 0.8315 0.85058 0.0
N2129 N 0.5862 0.83862 0.83505 0.0
C2130 C 0.59812 0.87169 0.84492 0.0
C2131 C 0.58392 0.85821 0.8313 0.0
C2132 C 0.61435 0.86481 0.86258 0.0
C2133 C 0.62103 0.84448 0.86461 0.0
H2134 H 0.60736 0.8158 0.85323 0.0
H2135 H 0.56707 0.86335 0.819 0.0
C2136 C 0.41596 0.8341 0.79495 0.0
N2137 N 0.45194 0.84022 0.79103 0.0
C2138 C 0.38507 0.84573 0.7898 0.0
C2139 C 0.42864 0.86957 0.77595 0.0
C2140 C 0.45889 0.85724 0.78114 0.0
C2141 C 0.39128 0.86409 0.78091 0.0
H2142 H 0.41132 0.8208 0.80337 0.0
H2143 H 0.48786 0.86181 0.77844 0.0
C2144 C 0.55466 0.78103 0.84448 0.0
N2145 N 0.56349 0.75499 0.87547 0.0
C2146 C 0.567 0.76177 0.84098 0.0
C2147 C 0.54774 0.78716 0.8638 0.0
C2148 C 0.57107 0.74879 0.85683 0.0
C2149 C 0.55205 0.77375 0.87925 0.0
C2150 C 0.45676 0.79109 0.78848 0.0
C2151 C 0.42858 0.77658 0.78917 0.0
C2152 C 0.46627 0.79962 0.77036 0.0
C2153 C 0.41072 0.77072 0.77174 0.0
C2154 C 0.44767 0.79341 0.75328 0.0
N2155 N 0.42053 0.77919 0.75432 0.0
C2156 C 0.45284 0.8015 0.86634 0.0
C2157 C 0.44437 0.77415 0.84501 0.0
C2158 C 0.41867 0.79744 0.87572 0.0
N2159 N 0.4638 0.79054 0.85063 0.0
C2160 C 0.40959 0.76966 0.85383 0.0
C2161 C 0.39581 0.7821 0.86864 0.0
H2162 H 0.46866 0.81442 0.87044 0.0
H2163 H 0.45403 0.76575 0.83245 0.0
C2164 C 0.54481 0.77677 0.76571 0.0
N2165 N 0.53898 0.77429 0.78533 0.0
C2166 C 0.53054 0.76287 0.75248 0.0
C2167 C 0.50806 0.74355 0.78011 0.0
C2168 C 0.52245 0.7578 0.79274 0.0
C2169 C 0.51037 0.74651 0.75972 0.0
H2170 H 0.55624 0.7905 0.76023 0.0
H2171 H 0.51575 0.75699 0.80825 0.0
O2172 O 0.49755 0.83089 0.83126 0.0
O2173 O 0.54301 0.82349 0.79322 0.0
O2174 O 0.55087 0.79401 0.82915 0.0
O2175 O 0.47483 0.7969 0.80544 0.0
H2176 H 0.44064 0.86169 0.82216 0.0
H2177 H 0.53341 0.83538 0.87139 0.0
H2178 H 0.44027 0.88857 0.86629 0.0
H2179 H 0.51367 0.86418 0.90001 0.0
H2180 H 0.62395 0.84209 0.74461 0.0
H2181 H 0.60507 0.80563 0.80677 0.0
H2182 H 0.56015 0.84192 0.76023 0.0
H2183 H 0.66789 0.80646 0.79038 0.0
H2184 H 0.59189 0.88716 0.84272 0.0
H2185 H 0.63387 0.83857 0.87785 0.0
H2186 H 0.35693 0.84118 0.79436 0.0
H2187 H 0.43448 0.88372 0.76921 0.0
H2188 H 0.57391 0.75694 0.82622 0.0
H2189 H 0.53886 0.80207 0.8668 0.0
H2190 H 0.58046 0.73382 0.8543 0.0
H2191 H 0.54639 0.77828 0.89425 0.0
H2192 H 0.42048 0.76988 0.80298 0.0
H2193 H 0.48804 0.81082 0.76944 0.0
H2194 H 0.38901 0.75945 0.77208 0.0
H2195 H 0.45495 0.79982 0.73919 0.0
H2196 H 0.40853 0.8073 0.88713 0.0
H2197 H 0.39233 0.75778 0.84805 0.0
H2198 H 0.53323 0.76549 0.73681 0.0
H2199 H 0.49235 0.73127 0.78624 0.0
Li2200 Li 0.45195 0.57319 0.57273 0.0
Li2201 Li 0.51096 0.55342 0.57474 0.0
Li2202 Li 0.5047 0.58171 0.55202 0.0
Li2203 Li 0.47046 0.552 0.54564 0.0
C2204 C 0.51183 0.59415 0.59587 0.0
N2205 N 0.54831 0.62393 0.6359 0.0
C2206 C 0.54788 0.58659 0.61328 0.0
C2207 C 0.48863 0.61779 0.59619 0.0
C2208 C 0.56608 0.60145 0.6331 0.0
C2209 C 0.50161 0.63576 0.61471 0.0
C2210 C 0.42258 0.53466 0.57378 0.0
C2211 C 0.38132 0.50826 0.58416 0.0
N2212 N 0.35205 0.51683 0.57428 0.0
C2213 C 0.39211 0.5432 0.56371 0.0
C2214 C 0.41719 0.51706 0.58409 0.0
C2215 C 0.35666 0.53396 0.56416 0.0
C2216 C 0.39441 0.60059 0.58148 0.0
N2217 N 0.41452 0.58507 0.58861 0.0
C2218 C 0.4026 0.59493 0.62168 0.0
C2219 C 0.4168 0.58131 0.60819 0.0
C2220 C 0.38637 0.6126 0.6148 0.0
C2221 C 0.3797 0.61462 0.59447 0.0
H2222 H 0.39337 0.60325 0.56579 0.0
H2223 H 0.43364 0.56901 0.61334 0.0
C2224 C 0.58475 0.54496 0.5841 0.0
N2225 N 0.54877 0.54104 0.59021 0.0
C2226 C 0.61563 0.5398 0.59574 0.0
C2227 C 0.57206 0.52596 0.61957 0.0
C2228 C 0.54182 0.53115 0.60724 0.0
C2229 C 0.60943 0.53092 0.61409 0.0
H2230 H 0.5894 0.55338 0.5708 0.0
H2231 H 0.51284 0.52846 0.61181 0.0
C2232 C 0.44608 0.5945 0.53102 0.0
N2233 N 0.43727 0.62549 0.50498 0.0
C2234 C 0.43374 0.591 0.51176 0.0
C2235 C 0.45301 0.61382 0.53715 0.0
C2236 C 0.42969 0.60684 0.49878 0.0
C2237 C 0.4487 0.62927 0.52374 0.0
C2238 C 0.54396 0.53849 0.54109 0.0
C2239 C 0.57215 0.53918 0.52658 0.0
C2240 C 0.53444 0.52038 0.54961 0.0
C2241 C 0.59 0.52175 0.52072 0.0
C2242 C 0.55305 0.5033 0.5434 0.0
N2243 N 0.58018 0.50433 0.52919 0.0
C2244 C 0.5479 0.61635 0.5515 0.0
C2245 C 0.55636 0.59502 0.52415 0.0
C2246 C 0.58208 0.62572 0.54744 0.0
N2247 N 0.53693 0.60065 0.54053 0.0
C2248 C 0.59115 0.60384 0.51966 0.0
C2249 C 0.60494 0.61864 0.5321 0.0
H2250 H 0.5321 0.62044 0.56442 0.0
H2251 H 0.5467 0.58246 0.51575 0.0
C2252 C 0.45591 0.51572 0.52676 0.0
N2253 N 0.46174 0.53535 0.52428 0.0
C2254 C 0.47017 0.5025 0.51286 0.0
C2255 C 0.49267 0.53013 0.49354 0.0
C2256 C 0.47828 0.54275 0.50779 0.0
C2257 C 0.49035 0.50974 0.49651 0.0
H2258 H 0.44447 0.51024 0.54048 0.0
H2259 H 0.48499 0.55827 0.50698 0.0
O2260 O 0.50318 0.58127 0.58089 0.0
O2261 O 0.45771 0.54324 0.57348 0.0
O2262 O 0.44986 0.57917 0.54399 0.0
O2263 O 0.5259 0.55545 0.54689 0.0
H2264 H 0.56008 0.57217 0.61169 0.0
H2265 H 0.46732 0.6214 0.58537 0.0
H2266 H 0.56045 0.6163 0.63857 0.0
H2267 H 0.48707 0.65002 0.61417 0.0
H2268 H 0.37676 0.49462 0.59206 0.0
H2269 H 0.39565 0.55679 0.55562 0.0
H2270 H 0.44057 0.51024 0.5919 0.0
H2271 H 0.33282 0.5404 0.55644 0.0
H2272 H 0.40883 0.59273 0.63715 0.0
H2273 H 0.36687 0.62786 0.58856 0.0
H2274 H 0.64378 0.54437 0.59119 0.0
H2275 H 0.56622 0.51923 0.63372 0.0
H2276 H 0.42683 0.57624 0.50693 0.0
H2277 H 0.46188 0.61682 0.55206 0.0
H2278 H 0.4203 0.60432 0.48381 0.0
H2279 H 0.45437 0.64427 0.52827 0.0
H2280 H 0.58025 0.55299 0.51988 0.0
H2281 H 0.51268 0.51945 0.56081 0.0
H2282 H 0.61172 0.52209 0.50945 0.0
H2283 H 0.54577 0.4892 0.54981 0.0
H2284 H 0.59223 0.63713 0.5573 0.0
H2285 H 0.60841 0.59806 0.50778 0.0
H2286 H 0.46748 0.48682 0.51548 0.0
H2287 H 0.50838 0.53625 0.48127 0.0
Li2288 Li 0.73916 0.6893 0.57472 0.0
Li2289 Li 0.79816 0.66952 0.57273 0.0
Li2290 Li 0.77969 0.6907 0.54563 0.0
Li2291 Li 0.74543 0.66099 0.552 0.0
C2292 C 0.82755 0.70804 0.57379 0.0
N2293 N 0.89809 0.72586 0.57432 0.0
C2294 C 0.85802 0.69951 0.56371 0.0
C2295 C 0.83294 0.72563 0.58412 0.0
C2296 C 0.89347 0.70874 0.56417 0.0
C2297 C 0.86882 0.73442 0.58421 0.0
C2298 C 0.73827 0.64857 0.59586 0.0
C2299 C 0.74849 0.60698 0.61472 0.0
N2300 N 0.70178 0.61882 0.6359 0.0
C2301 C 0.70221 0.65614 0.61326 0.0
C2302 C 0.76147 0.62494 0.59619 0.0
C2303 C 0.68401 0.6413 0.63309 0.0
C2304 C 0.66536 0.69777 0.58406 0.0
N2305 N 0.70134 0.70168 0.59018 0.0
C2306 C 0.67804 0.71678 0.61954 0.0
C2307 C 0.70829 0.71158 0.60721 0.0
C2308 C 0.64067 0.71181 0.61405 0.0
C2309 C 0.63447 0.70293 0.59569 0.0
H2310 H 0.66072 0.68935 0.57076 0.0
H2311 H 0.73726 0.71427 0.61178 0.0
C2312 C 0.8557 0.64212 0.58149 0.0
N2313 N 0.83558 0.65765 0.58861 0.0
C2314 C 0.87042 0.62811 0.59448 0.0
C2315 C 0.84751 0.64781 0.62169 0.0
C2316 C 0.8333 0.66142 0.60819 0.0
C2317 C 0.86374 0.63014 0.61481 0.0
H2318 H 0.85674 0.63946 0.5658 0.0
H2319 H 0.81645 0.67373 0.61333 0.0
C2320 C 0.7062 0.70423 0.54105 0.0
N2321 N 0.67005 0.7384 0.52914 0.0
C2322 C 0.67803 0.70354 0.52654 0.0
C2323 C 0.71574 0.72234 0.54958 0.0
C2324 C 0.66021 0.72097 0.52067 0.0
C2325 C 0.69717 0.73942 0.54336 0.0
C2326 C 0.80404 0.6482 0.53102 0.0
C2327 C 0.81634 0.65169 0.51175 0.0
C2328 C 0.79712 0.62888 0.53715 0.0
C2329 C 0.82038 0.63584 0.49877 0.0
C2330 C 0.8014 0.61342 0.52375 0.0
N2331 N 0.8128 0.61719 0.50498 0.0
C2332 C 0.79435 0.72697 0.52677 0.0
C2333 C 0.77191 0.69996 0.50779 0.0
C2334 C 0.78015 0.74021 0.51287 0.0
N2335 N 0.78845 0.70735 0.52428 0.0
C2336 C 0.75758 0.71261 0.49354 0.0
C2337 C 0.75996 0.73299 0.49651 0.0
H2338 H 0.80578 0.73244 0.5405 0.0
H2339 H 0.76516 0.68446 0.50696 0.0
C2340 C 0.70224 0.62635 0.55148 0.0
N2341 N 0.71319 0.64206 0.54052 0.0
C2342 C 0.66806 0.61698 0.54743 0.0
C2343 C 0.65897 0.63886 0.51966 0.0
C2344 C 0.69375 0.64768 0.52414 0.0
C2345 C 0.64519 0.62406 0.53209 0.0
H2346 H 0.71806 0.62227 0.5644 0.0
H2347 H 0.70341 0.66024 0.51574 0.0
O2348 O 0.79241 0.69947 0.57347 0.0
O2349 O 0.74693 0.66144 0.58087 0.0
O2350 O 0.72425 0.68726 0.54687 0.0
O2351 O 0.80028 0.66353 0.54399 0.0
H2352 H 0.85447 0.68593 0.5556 0.0
H2353 H 0.80957 0.73244 0.59194 0.0
H2354 H 0.9173 0.7023 0.55645 0.0
H2355 H 0.87339 0.74805 0.59213 0.0
H2356 H 0.76303 0.59271 0.61419 0.0
H2357 H 0.69001 0.67056 0.61166 0.0
H2358 H 0.78279 0.62132 0.58538 0.0
H2359 H 0.68964 0.62645 0.63856 0.0
H2360 H 0.68388 0.72351 0.63369 0.0
H2361 H 0.60633 0.69837 0.59114 0.0
H2362 H 0.88326 0.61486 0.58858 0.0
H2363 H 0.84128 0.65002 0.63715 0.0
H2364 H 0.66992 0.68973 0.51984 0.0
H2365 H 0.73749 0.72326 0.56079 0.0
H2366 H 0.63851 0.72064 0.5094 0.0
H2367 H 0.70447 0.75352 0.54977 0.0
H2368 H 0.82326 0.66644 0.50692 0.0
H2369 H 0.78826 0.62588 0.55207 0.0
H2370 H 0.82974 0.63835 0.4838 0.0
H2371 H 0.79573 0.59842 0.52828 0.0
H2372 H 0.78289 0.75588 0.51549 0.0
H2373 H 0.74186 0.7065 0.48125 0.0
H2374 H 0.65792 0.60557 0.55729 0.0
H2375 H 0.64169 0.64464 0.50778 0.0
Li2376 Li 0.74541 0.58174 0.69073 0.0
Li2377 Li 0.77966 0.55204 0.69711 0.0
Li2378 Li 0.79814 0.57322 0.67001 0.0
Li2379 Li 0.73914 0.55344 0.66801 0.0
C2380 C 0.80401 0.59454 0.71172 0.0
N2381 N 0.81275 0.62554 0.73777 0.0
C2382 C 0.8163 0.59105 0.731 0.0
C2383 C 0.79709 0.61386 0.70559 0.0
C2384 C 0.82032 0.6069 0.74397 0.0
C2385 C 0.80136 0.62932 0.719 0.0
C2386 C 0.70617 0.53851 0.70168 0.0
C2387 C 0.69714 0.50332 0.69938 0.0
N2388 N 0.67002 0.50434 0.7136 0.0
C2389 C 0.678 0.5392 0.71619 0.0
C2390 C 0.71571 0.5204 0.69316 0.0
C2391 C 0.66018 0.52177 0.72207 0.0
C2392 C 0.70222 0.61638 0.69125 0.0
N2393 N 0.71317 0.60068 0.70221 0.0
C2394 C 0.65894 0.60388 0.72307 0.0
C2395 C 0.69373 0.59506 0.71859 0.0
C2396 C 0.64516 0.61868 0.71063 0.0
C2397 C 0.66804 0.62576 0.6953 0.0
H2398 H 0.71804 0.62047 0.67833 0.0
H2399 H 0.70338 0.5825 0.727 0.0
C2400 C 0.79433 0.51577 0.71597 0.0
N2401 N 0.78842 0.53539 0.71846 0.0
C2402 C 0.78013 0.50252 0.72987 0.0
C2403 C 0.75755 0.53013 0.7492 0.0
C2404 C 0.77188 0.54277 0.73495 0.0
C2405 C 0.75994 0.50974 0.74623 0.0
H2406 H 0.80576 0.5103 0.70224 0.0
H2407 H 0.76511 0.55828 0.73577 0.0
C2408 C 0.73826 0.59416 0.64688 0.0
N2409 N 0.70179 0.62391 0.60683 0.0
C2410 C 0.7022 0.58659 0.62947 0.0
C2411 C 0.76146 0.6178 0.64655 0.0
C2412 C 0.68401 0.60144 0.60964 0.0
C2413 C 0.74849 0.63576 0.62801 0.0
C2414 C 0.82752 0.53469 0.66895 0.0
C2415 C 0.85799 0.54323 0.67903 0.0
C2416 C 0.8329 0.5171 0.65863 0.0
C2417 C 0.89344 0.53399 0.67857 0.0
C2418 C 0.86877 0.5083 0.65854 0.0
N2419 N 0.89805 0.51687 0.66843 0.0
C2420 C 0.85569 0.60061 0.66125 0.0
C2421 C 0.83329 0.58131 0.63455 0.0
C2422 C 0.87041 0.61463 0.64826 0.0
N2423 N 0.83556 0.58508 0.65413 0.0
C2424 C 0.8475 0.59492 0.62106 0.0
C2425 C 0.86373 0.61259 0.62793 0.0
H2426 H 0.85673 0.60328 0.67694 0.0
H2427 H 0.81644 0.56901 0.62941 0.0
C2428 C 0.66534 0.54497 0.65867 0.0
N2429 N 0.70132 0.54105 0.65256 0.0
C2430 C 0.63445 0.5398 0.64704 0.0
C2431 C 0.67802 0.52596 0.6232 0.0
C2432 C 0.70827 0.53116 0.63553 0.0
C2433 C 0.64066 0.53092 0.62868 0.0
H2434 H 0.66069 0.55339 0.67197 0.0
H2435 H 0.73724 0.52847 0.63095 0.0
O2436 O 0.80026 0.57921 0.69875 0.0
O2437 O 0.72422 0.55548 0.69587 0.0
O2438 O 0.74691 0.58129 0.66186 0.0
O2439 O 0.79239 0.54327 0.66927 0.0
H2440 H 0.82321 0.57629 0.73583 0.0
H2441 H 0.78825 0.61686 0.69067 0.0
H2442 H 0.82968 0.60438 0.75895 0.0
H2443 H 0.7957 0.64431 0.71446 0.0
H2444 H 0.70444 0.48922 0.69298 0.0
H2445 H 0.66989 0.55301 0.72289 0.0
H2446 H 0.73746 0.51948 0.68195 0.0
H2447 H 0.63848 0.5221 0.73334 0.0
H2448 H 0.64167 0.59811 0.73495 0.0
H2449 H 0.6579 0.63717 0.68543 0.0
H2450 H 0.78288 0.48685 0.72725 0.0
H2451 H 0.74183 0.53623 0.76149 0.0
H2452 H 0.69 0.57218 0.63107 0.0
H2453 H 0.78278 0.62142 0.65736 0.0
H2454 H 0.68964 0.61628 0.60417 0.0
H2455 H 0.76304 0.65002 0.62855 0.0
H2456 H 0.85445 0.55681 0.68713 0.0
H2457 H 0.80952 0.51028 0.65082 0.0
H2458 H 0.91728 0.54043 0.68628 0.0
H2459 H 0.87333 0.49467 0.65063 0.0
H2460 H 0.88325 0.62787 0.65417 0.0
H2461 H 0.84128 0.59271 0.60559 0.0
H2462 H 0.60631 0.54437 0.65159 0.0
H2463 H 0.68387 0.51923 0.60905 0.0
Li2464 Li 0.47046 0.69075 0.69708 0.0
Li2465 Li 0.50469 0.66104 0.69071 0.0
Li2466 Li 0.51096 0.68933 0.66798 0.0
Li2467 Li 0.45195 0.66956 0.66999 0.0
C2468 C 0.54396 0.70426 0.70164 0.0
N2469 N 0.58018 0.73842 0.71354 0.0
C2470 C 0.57214 0.70357 0.71615 0.0
C2471 C 0.53444 0.72237 0.69311 0.0
C2472 C 0.59 0.721 0.72201 0.0
C2473 C 0.55305 0.73946 0.69933 0.0
C2474 C 0.44606 0.64825 0.7117 0.0
C2475 C 0.44867 0.61348 0.71898 0.0
N2476 N 0.43723 0.61726 0.73774 0.0
C2477 C 0.43372 0.65175 0.73096 0.0
C2478 C 0.45298 0.62893 0.70557 0.0
C2479 C 0.42965 0.63591 0.74394 0.0
C2480 C 0.45591 0.72703 0.71596 0.0
N2481 N 0.46174 0.7074 0.71844 0.0
C2482 C 0.49266 0.71262 0.74918 0.0
C2483 C 0.47827 0.7 0.73493 0.0
C2484 C 0.49035 0.73301 0.74622 0.0
C2485 C 0.47018 0.74025 0.72986 0.0
H2486 H 0.44448 0.73251 0.70224 0.0
H2487 H 0.48497 0.68448 0.73574 0.0
C2488 C 0.54788 0.62639 0.69123 0.0
N2489 N 0.53692 0.6421 0.70219 0.0
C2490 C 0.58205 0.61702 0.69529 0.0
C2491 C 0.59114 0.6389 0.72306 0.0
C2492 C 0.55636 0.64773 0.71858 0.0
C2493 C 0.60491 0.6241 0.71063 0.0
H2494 H 0.53206 0.6223 0.67831 0.0
H2495 H 0.5467 0.66029 0.72698 0.0
C2496 C 0.42258 0.70809 0.66894 0.0
N2497 N 0.35205 0.72591 0.66843 0.0
C2498 C 0.39211 0.69955 0.67902 0.0
C2499 C 0.41719 0.72569 0.65862 0.0
C2500 C 0.35667 0.70879 0.67856 0.0
C2501 C 0.38132 0.73448 0.65855 0.0
C2502 C 0.51183 0.6486 0.64686 0.0
C2503 C 0.5479 0.65615 0.62946 0.0
C2504 C 0.48862 0.62496 0.64654 0.0
C2505 C 0.56609 0.64129 0.60963 0.0
C2506 C 0.5016 0.60699 0.62801 0.0
N2507 N 0.54831 0.61882 0.60683 0.0
C2508 C 0.58476 0.69779 0.65864 0.0
C2509 C 0.54183 0.71159 0.63548 0.0
C2510 C 0.61565 0.70294 0.647 0.0
N2511 N 0.54878 0.70171 0.65252 0.0
C2512 C 0.57208 0.71678 0.62315 0.0
C2513 C 0.60944 0.71182 0.62864 0.0
H2514 H 0.58941 0.68937 0.67194 0.0
H2515 H 0.51286 0.71429 0.63091 0.0
C2516 C 0.39441 0.64216 0.66123 0.0
N2517 N 0.41453 0.65768 0.65411 0.0
C2518 C 0.3797 0.62813 0.64825 0.0
C2519 C 0.40261 0.64782 0.62104 0.0
C2520 C 0.41681 0.66144 0.63452 0.0
C2521 C 0.38638 0.63016 0.62791 0.0
H2522 H 0.39336 0.6395 0.67692 0.0
H2523 H 0.43366 0.67374 0.62939 0.0
O2524 O 0.5259 0.6873 0.69583 0.0
O2525 O 0.44985 0.66358 0.69873 0.0
O2526 O 0.45771 0.69951 0.66924 0.0
O2527 O 0.50318 0.66148 0.66184 0.0
H2528 H 0.58024 0.68976 0.72285 0.0
H2529 H 0.51268 0.7233 0.68191 0.0
H2530 H 0.61171 0.72067 0.73328 0.0
H2531 H 0.54577 0.75355 0.69291 0.0
H2532 H 0.45433 0.59848 0.71445 0.0
H2533 H 0.42681 0.66651 0.73579 0.0
H2534 H 0.46186 0.62593 0.69066 0.0
H2535 H 0.42026 0.63843 0.75891 0.0
H2536 H 0.50837 0.7065 0.76146 0.0
H2537 H 0.46749 0.75593 0.72725 0.0
H2538 H 0.59219 0.6056 0.68543 0.0
H2539 H 0.60841 0.64468 0.73494 0.0
H2540 H 0.39566 0.68597 0.68711 0.0
H2541 H 0.44057 0.7325 0.65081 0.0
H2542 H 0.33283 0.70235 0.68628 0.0
H2543 H 0.37675 0.74811 0.65064 0.0
H2544 H 0.5601 0.67057 0.63104 0.0
H2545 H 0.4673 0.62135 0.65735 0.0
H2546 H 0.56046 0.62645 0.60417 0.0
H2547 H 0.48705 0.59273 0.62855 0.0
H2548 H 0.64379 0.69838 0.65155 0.0
H2549 H 0.56624 0.72351 0.609 0.0
H2550 H 0.36686 0.61489 0.65415 0.0
H2551 H 0.40884 0.65003 0.60557 0.0
Li2552 Li 0.26157 0.32472 0.4393 0.0
Li2553 Li 0.20257 0.32272 0.41952 0.0
Li2554 Li 0.22105 0.29563 0.4407 0.0
Li2555 Li 0.25532 0.302 0.411 0.0
C2556 C 0.17316 0.32378 0.45804 0.0
N2557 N 0.10261 0.32431 0.47583 0.0
C2558 C 0.14272 0.31368 0.4495 0.0
C2559 C 0.16775 0.33412 0.47561 0.0
C2560 C 0.10726 0.31415 0.45872 0.0
C2561 C 0.13186 0.33421 0.48439 0.0
C2562 C 0.26246 0.34586 0.39858 0.0
C2563 C 0.25223 0.36472 0.35698 0.0
N2564 N 0.29894 0.3859 0.36882 0.0
C2565 C 0.29852 0.36326 0.40615 0.0
C2566 C 0.23926 0.34618 0.37494 0.0
C2567 C 0.31672 0.38309 0.3913 0.0
C2568 C 0.33536 0.33407 0.44778 0.0
N2569 N 0.29938 0.34019 0.45169 0.0
C2570 C 0.32267 0.36955 0.46677 0.0
C2571 C 0.29242 0.35722 0.46158 0.0
C2572 C 0.36004 0.36407 0.46181 0.0
C2573 C 0.36624 0.34571 0.45294 0.0
H2574 H 0.34001 0.32076 0.43937 0.0
H2575 H 0.26345 0.36179 0.46426 0.0
C2576 C 0.14503 0.33148 0.39212 0.0
N2577 N 0.16515 0.3386 0.40765 0.0
C2578 C 0.13031 0.34447 0.37811 0.0
C2579 C 0.15322 0.37167 0.39782 0.0
C2580 C 0.16742 0.35818 0.41142 0.0
C2581 C 0.13699 0.3648 0.38014 0.0
H2582 H 0.144 0.31579 0.38946 0.0
H2583 H 0.18427 0.36332 0.42373 0.0
C2584 C 0.29453 0.29106 0.45424 0.0
N2585 N 0.33068 0.27915 0.48841 0.0
C2586 C 0.3227 0.27655 0.45356 0.0
C2587 C 0.28499 0.29959 0.47235 0.0
C2588 C 0.34052 0.27068 0.47099 0.0
C2589 C 0.30355 0.29337 0.48944 0.0
C2590 C 0.19671 0.28101 0.3982 0.0
C2591 C 0.18441 0.26174 0.40169 0.0
C2592 C 0.20364 0.28714 0.37888 0.0
C2593 C 0.18038 0.24876 0.38584 0.0
C2594 C 0.19937 0.27374 0.36342 0.0
N2595 N 0.18796 0.25497 0.36719 0.0
C2596 C 0.20639 0.27677 0.47697 0.0
C2597 C 0.22883 0.25778 0.44997 0.0
C2598 C 0.22059 0.26287 0.49022 0.0
N2599 N 0.21229 0.27428 0.45736 0.0
C2600 C 0.24316 0.24354 0.46261 0.0
C2601 C 0.24078 0.24651 0.483 0.0
H2602 H 0.19495 0.2905 0.48245 0.0
H2603 H 0.23559 0.25696 0.43446 0.0
C2604 C 0.29852 0.30149 0.37636 0.0
N2605 N 0.28756 0.29052 0.39207 0.0
C2606 C 0.33269 0.29743 0.36699 0.0
C2607 C 0.34178 0.26966 0.38887 0.0
C2608 C 0.307 0.27414 0.39769 0.0
C2609 C 0.35556 0.28209 0.37407 0.0
H2610 H 0.2827 0.3144 0.37228 0.0
H2611 H 0.29734 0.26574 0.41025 0.0
O2612 O 0.20831 0.32347 0.44947 0.0
O2613 O 0.25381 0.33087 0.41145 0.0
O2614 O 0.27649 0.29687 0.43727 0.0
O2615 O 0.20047 0.29398 0.41353 0.0
H2616 H 0.14628 0.30557 0.43593 0.0
H2617 H 0.1911 0.34196 0.48243 0.0
H2618 H 0.08343 0.30641 0.45229 0.0
H2619 H 0.12727 0.34214 0.49802 0.0
H2620 H 0.23769 0.36418 0.34272 0.0
H2621 H 0.31072 0.36167 0.42056 0.0
H2622 H 0.21794 0.33537 0.37132 0.0
H2623 H 0.31109 0.38856 0.37646 0.0
H2624 H 0.31683 0.38371 0.4735 0.0
H2625 H 0.39439 0.34115 0.44838 0.0
H2626 H 0.11747 0.33857 0.36486 0.0
H2627 H 0.15944 0.38714 0.40003 0.0
H2628 H 0.33082 0.26984 0.43975 0.0
H2629 H 0.26323 0.31079 0.47327 0.0
H2630 H 0.36222 0.2594 0.47066 0.0
H2631 H 0.29626 0.29977 0.50353 0.0
H2632 H 0.17749 0.25691 0.41644 0.0
H2633 H 0.21249 0.30206 0.37589 0.0
H2634 H 0.17102 0.23379 0.38835 0.0
H2635 H 0.20503 0.27827 0.34843 0.0
H2636 H 0.21785 0.26549 0.50589 0.0
H2637 H 0.25888 0.23125 0.45651 0.0
H2638 H 0.34284 0.30729 0.35558 0.0
H2639 H 0.35905 0.25778 0.39465 0.0
Li2640 Li 0.25532 0.44073 0.33174 0.0
Li2641 Li 0.22106 0.4471 0.30204 0.0
Li2642 Li 0.20258 0.42001 0.32322 0.0
Li2643 Li 0.26157 0.418 0.30344 0.0
C2644 C 0.19672 0.46172 0.34455 0.0
N2645 N 0.18797 0.48776 0.37555 0.0
C2646 C 0.18442 0.48099 0.34105 0.0
C2647 C 0.20364 0.45558 0.36386 0.0
C2648 C 0.18039 0.49396 0.3569 0.0
C2649 C 0.19937 0.46899 0.37932 0.0
C2650 C 0.29454 0.45167 0.28851 0.0
C2651 C 0.30356 0.44937 0.25331 0.0
N2652 N 0.33068 0.46359 0.25433 0.0
C2653 C 0.32271 0.46618 0.28919 0.0
C2654 C 0.28499 0.44314 0.2704 0.0
C2655 C 0.34052 0.47205 0.27176 0.0
C2656 C 0.29852 0.44124 0.36638 0.0
N2657 N 0.28757 0.4522 0.35067 0.0
C2658 C 0.3418 0.47307 0.35387 0.0
C2659 C 0.30701 0.46858 0.34505 0.0
C2660 C 0.35557 0.46063 0.36867 0.0
C2661 C 0.3327 0.44529 0.37575 0.0
H2662 H 0.2827 0.42832 0.37047 0.0
H2663 H 0.29735 0.47699 0.3325 0.0
C2664 C 0.20639 0.46597 0.26577 0.0
N2665 N 0.2123 0.46845 0.28539 0.0
C2666 C 0.22059 0.47987 0.25253 0.0
C2667 C 0.24317 0.4992 0.28013 0.0
C2668 C 0.22884 0.48495 0.29277 0.0
C2669 C 0.24078 0.49623 0.25975 0.0
H2670 H 0.19496 0.45223 0.2603 0.0
H2671 H 0.2356 0.48577 0.30828 0.0
C2672 C 0.26247 0.39687 0.34416 0.0
N2673 N 0.29894 0.35683 0.37392 0.0
C2674 C 0.29852 0.37947 0.3366 0.0
C2675 C 0.23926 0.39654 0.3678 0.0
C2676 C 0.31672 0.35964 0.35144 0.0
C2677 C 0.25223 0.37801 0.38576 0.0
C2678 C 0.17317 0.41895 0.2847 0.0
C2679 C 0.14272 0.42904 0.29324 0.0
C2680 C 0.16776 0.40861 0.26712 0.0
C2681 C 0.10726 0.42858 0.28401 0.0
C2682 C 0.13188 0.40852 0.25834 0.0
N2683 N 0.10262 0.41842 0.2669 0.0
C2684 C 0.14503 0.41124 0.35062 0.0
C2685 C 0.16743 0.38454 0.33132 0.0
C2686 C 0.13031 0.39825 0.36463 0.0
N2687 N 0.16516 0.40413 0.33509 0.0
C2688 C 0.15322 0.37105 0.34492 0.0
C2689 C 0.13699 0.37792 0.36259 0.0
H2690 H 0.144 0.42693 0.35328 0.0
H2691 H 0.18428 0.37941 0.31901 0.0
C2692 C 0.33537 0.40867 0.29496 0.0
N2693 N 0.29939 0.40254 0.29105 0.0
C2694 C 0.36625 0.39703 0.2898 0.0
C2695 C 0.32268 0.37318 0.27597 0.0
C2696 C 0.29243 0.38551 0.28116 0.0
C2697 C 0.36004 0.37866 0.28092 0.0
H2698 H 0.34002 0.42197 0.30338 0.0
H2699 H 0.26346 0.38094 0.27848 0.0
O2700 O 0.20047 0.44874 0.32921 0.0
O2701 O 0.2765 0.44586 0.30548 0.0
O2702 O 0.25381 0.41185 0.33129 0.0
O2703 O 0.20832 0.41926 0.29327 0.0
H2704 H 0.1775 0.48582 0.3263 0.0
H2705 H 0.2125 0.44067 0.36686 0.0
H2706 H 0.17103 0.50894 0.35439 0.0
H2707 H 0.20504 0.46445 0.39432 0.0
H2708 H 0.29626 0.44296 0.23921 0.0
H2709 H 0.33082 0.47289 0.303 0.0
H2710 H 0.26324 0.43194 0.26948 0.0
H2711 H 0.36222 0.48333 0.27209 0.0
H2712 H 0.35907 0.48494 0.3481 0.0
H2713 H 0.34284 0.43543 0.38716 0.0
H2714 H 0.21785 0.47724 0.23685 0.0
H2715 H 0.25889 0.51148 0.28624 0.0
H2716 H 0.31072 0.38106 0.32218 0.0
H2717 H 0.21794 0.40735 0.37142 0.0
H2718 H 0.31109 0.35417 0.36629 0.0
H2719 H 0.23769 0.37854 0.40002 0.0
H2720 H 0.14628 0.43715 0.30681 0.0
H2721 H 0.19112 0.40078 0.26031 0.0
H2722 H 0.08344 0.43631 0.29045 0.0
H2723 H 0.12729 0.4006 0.24471 0.0
H2724 H 0.11747 0.40416 0.37788 0.0
H2725 H 0.15944 0.35558 0.34271 0.0
H2726 H 0.3944 0.40158 0.29436 0.0
H2727 H 0.31683 0.35903 0.26924 0.0
Li2728 Li 0.54877 0.32274 0.32319 0.0
Li2729 Li 0.48976 0.32475 0.30342 0.0
Li2730 Li 0.49603 0.30202 0.33172 0.0
Li2731 Li 0.53026 0.29565 0.302 0.0
C2732 C 0.48889 0.34587 0.34415 0.0
N2733 N 0.45242 0.3859 0.37393 0.0
C2734 C 0.45284 0.36328 0.33659 0.0
C2735 C 0.51209 0.34619 0.36779 0.0
C2736 C 0.43465 0.3831 0.35145 0.0
C2737 C 0.49912 0.36472 0.38576 0.0
C2738 C 0.57813 0.32379 0.28465 0.0
C2739 C 0.61937 0.33417 0.25825 0.0
N2740 N 0.64865 0.3243 0.26682 0.0
C2741 C 0.60861 0.31372 0.2932 0.0
C2742 C 0.5835 0.33409 0.26705 0.0
C2743 C 0.64405 0.31418 0.28395 0.0
C2744 C 0.60632 0.33149 0.35059 0.0
N2745 N 0.5862 0.33862 0.33507 0.0
C2746 C 0.59812 0.37169 0.34493 0.0
C2747 C 0.58392 0.3582 0.33131 0.0
C2748 C 0.61435 0.36481 0.3626 0.0
C2749 C 0.62103 0.34447 0.36462 0.0
H2750 H 0.60736 0.3158 0.35324 0.0
H2751 H 0.56707 0.36334 0.31901 0.0
C2752 C 0.41596 0.33409 0.29497 0.0
N2753 N 0.45194 0.34021 0.29104 0.0
C2754 C 0.38507 0.34573 0.28981 0.0
C2755 C 0.42863 0.36956 0.27595 0.0
C2756 C 0.45889 0.35723 0.28115 0.0
C2757 C 0.39127 0.36408 0.28092 0.0
H2758 H 0.41132 0.32079 0.30339 0.0
H2759 H 0.48786 0.36181 0.27845 0.0
C2760 C 0.55466 0.28103 0.3445 0.0
N2761 N 0.56349 0.25498 0.37549 0.0
C2762 C 0.567 0.26176 0.34099 0.0
C2763 C 0.54774 0.28715 0.36382 0.0
C2764 C 0.57106 0.24878 0.35684 0.0
C2765 C 0.55205 0.27375 0.37927 0.0
C2766 C 0.45676 0.29108 0.28849 0.0
C2767 C 0.42858 0.27658 0.28918 0.0
C2768 C 0.46628 0.29961 0.27038 0.0
C2769 C 0.41072 0.27072 0.27176 0.0
C2770 C 0.44767 0.2934 0.2533 0.0
N2771 N 0.42054 0.27918 0.25433 0.0
C2772 C 0.45285 0.30149 0.36636 0.0
C2773 C 0.44437 0.27415 0.34503 0.0
C2774 C 0.41868 0.29744 0.37573 0.0
N2775 N 0.46381 0.29053 0.35065 0.0
C2776 C 0.40959 0.26966 0.35385 0.0
C2777 C 0.39581 0.28209 0.36865 0.0
H2778 H 0.46866 0.31441 0.37045 0.0
H2779 H 0.45403 0.26575 0.33246 0.0
C2780 C 0.54482 0.27676 0.26572 0.0
N2781 N 0.53898 0.27428 0.28535 0.0
C2782 C 0.53056 0.26286 0.25249 0.0
C2783 C 0.50806 0.24355 0.28012 0.0
C2784 C 0.52245 0.2578 0.29275 0.0
C2785 C 0.51038 0.24651 0.25974 0.0
H2786 H 0.55625 0.29049 0.26024 0.0
H2787 H 0.51574 0.25698 0.30826 0.0
O2788 O 0.49755 0.33089 0.33128 0.0
O2789 O 0.54301 0.32348 0.29324 0.0
O2790 O 0.55088 0.294 0.32917 0.0
O2791 O 0.47483 0.29689 0.30546 0.0
H2792 H 0.44065 0.36169 0.32217 0.0
H2793 H 0.53341 0.33538 0.3714 0.0
H2794 H 0.44028 0.38857 0.36629 0.0
H2795 H 0.51366 0.36418 0.40002 0.0
H2796 H 0.62392 0.34207 0.24461 0.0
H2797 H 0.60508 0.30564 0.30678 0.0
H2798 H 0.56012 0.3419 0.26023 0.0
H2799 H 0.6679 0.30647 0.29039 0.0
H2800 H 0.59189 0.38716 0.34273 0.0
H2801 H 0.63386 0.33856 0.37787 0.0
H2802 H 0.35693 0.34118 0.29438 0.0
H2803 H 0.43448 0.38371 0.26922 0.0
H2804 H 0.57391 0.25694 0.32624 0.0
H2805 H 0.53887 0.30206 0.36682 0.0
H2806 H 0.58045 0.23382 0.35432 0.0
H2807 H 0.54639 0.27828 0.39427 0.0
H2808 H 0.42048 0.26987 0.303 0.0
H2809 H 0.48804 0.31081 0.26945 0.0
H2810 H 0.38901 0.25944 0.27209 0.0
H2811 H 0.45495 0.29981 0.2392 0.0
H2812 H 0.40854 0.3073 0.38715 0.0
H2813 H 0.39232 0.25778 0.34807 0.0
H2814 H 0.53324 0.26548 0.23682 0.0
H2815 H 0.49235 0.23127 0.28625 0.0
loop_
_geom_bond_atom_site_label_1
_geom_bond_atom_site_label_2
_geom_bond_distance
_geom_bond_site_symmetry_2
_ccdc_geom_bond_type
Li0 N17 1.990 . S
Li0 O60 1.956 1_455 S
Li0 O61 1.970 . S
Li0 O62 1.961 . S
Li1 N25 1.990 . S
Li1 O60 1.970 . S
Li1 O61 1.956 1_655 S
Li1 O63 1.961 . S
Li2 N47 1.990 . S
Li2 O60 1.961 . S
Li2 O62 1.956 1_655 S
Li2 O63 1.970 . S
Li3 N53 1.990 . S
Li3 O61 1.961 . S
Li3 O62 1.970 . S
Li3 O63 1.956 1_455 S
C4 C6 1.348 . S
C4 C7 1.356 . S
C4 O60 1.325 . S
N5 C8 1.314 . S
N5 C9 1.279 . S
C6 C4 1.348 . S
C6 C8 1.353 . S
C6 H64 0.929 . S
C7 C4 1.356 . S
C7 C9 1.358 . S
C7 H65 0.930 . S
C8 N5 1.314 . S
C8 C6 1.353 . S
C8 H66 0.930 . S
C9 N5 1.279 . S
C9 C7 1.358 . S
C9 H67 0.930 1_545 S
C10 C13 1.348 . S
C10 C14 1.356 . S
C10 O61 1.325 . S
C11 N12 1.279 . S
C11 C14 1.358 . S
C11 H68 0.930 . S
N12 C11 1.279 . S
N12 C15 1.314 . S
C13 C10 1.348 . S
C13 C15 1.353 . S
C13 H69 0.929 . S
C14 C10 1.356 . S
C14 C11 1.358 . S
C14 H70 0.930 . S
C15 N12 1.314 . S
C15 C13 1.353 . S
C15 H71 0.930 . S
C16 N17 1.314 . S
C16 C21 1.353 . S
C16 H22 0.930 . S
N17 Li0 1.990 . S
N17 C16 1.314 . S
N17 C19 1.279 . S
C18 C19 1.358 . S
C18 C20 1.356 . S
C18 H72 0.930 . S
C19 N17 1.279 . S
C19 C18 1.358 . S
C19 H23 0.930 . S
C20 C18 1.356 . S
C20 C21 1.348 . S
C21 C16 1.353 . S
C21 C20 1.348 . S
C21 H73 0.929 . S
H22 C16 0.930 . S
H23 C19 0.930 . S
C24 N25 1.314 . S
C24 C26 1.353 . S
C24 H30 0.930 . S
N25 Li1 1.990 . S
N25 C24 1.314 . S
N25 C28 1.279 . S
C26 C24 1.353 . S
C26 C29 1.348 . S
C26 H74 0.929 . S
C27 C28 1.358 . S
C27 C29 1.356 . S
C27 H75 0.930 . S
C28 N25 1.279 . S
C28 C27 1.358 . S
C28 H31 0.930 . S
C29 C26 1.348 . S
C29 C27 1.356 . S
H30 C24 0.930 . S
H31 C28 0.930 . S
C32 C34 1.348 . S
C32 C35 1.356 . S
C32 O62 1.325 . S
N33 C36 1.314 . S
N33 C37 1.279 . S
C34 C32 1.348 . S
C34 C36 1.353 . S
C34 H76 0.929 . S
C35 C32 1.356 . S
C35 C37 1.358 . S
C35 H77 0.930 . S
C36 N33 1.314 . S
C36 C34 1.353 . S
C36 H78 0.930 . S
C37 N33 1.279 . S
C37 C35 1.358 . S
C37 H79 0.930 . S
C38 C39 1.348 . S
C38 C40 1.356 . S
C38 O63 1.325 . S
C39 C38 1.348 . S
C39 C41 1.353 . S
C39 H80 0.929 . S
C40 C38 1.356 . S
C40 C42 1.358 . S
C40 H81 0.930 . S
C41 C39 1.353 . S
C41 N43 1.314 . S
C41 H82 0.930 . S
C42 C40 1.358 . S
C42 N43 1.279 . S
C42 H83 0.930 . S
N43 C41 1.314 . S
N43 C42 1.279 . S
C44 C46 1.353 . S
C44 N47 1.314 . S
C44 H50 0.930 . S
C45 N47 1.279 . S
C45 C48 1.358 . S
C45 H51 0.930 1_655 S
C46 C44 1.353 . S
C46 C49 1.348 . S
C46 H84 0.929 . S
N47 Li2 1.990 . S
N47 C44 1.314 . S
N47 C45 1.279 . S
C48 C45 1.358 . S
C48 C49 1.356 . S
C48 H85 0.930 . S
C49 C46 1.348 . S
C49 C48 1.356 . S
H50 C44 0.930 . S
H51 C45 0.930 1_455 S
C52 N53 1.314 . S
C52 C54 1.353 . S
C52 H58 0.930 . S
N53 Li3 1.990 . S
N53 C52 1.314 . S
N53 C56 1.279 . S
C54 C52 1.353 . S
C54 C57 1.348 . S
C54 H86 0.929 . S
C55 C56 1.358 . S
C55 C57 1.356 . S
C55 H87 0.930 . S
C56 N53 1.279 . S
C56 C55 1.358 . S
C56 H59 0.930 . S
C57 C54 1.348 . S
C57 C55 1.356 . S
H58 C52 0.930 . S
H59 C56 0.930 . S
O60 Li0 1.956 1_655 S
O60 Li1 1.970 . S
O60 Li2 1.961 . S
O60 C4 1.325 . S
O61 Li0 1.970 . S
O61 Li1 1.956 1_455 S
O61 Li3 1.961 . S
O61 C10 1.325 . S
O62 Li0 1.961 . S
O62 Li2 1.956 1_455 S
O62 Li3 1.970 . S
O62 C32 1.325 . S
O63 Li1 1.961 . S
O63 Li2 1.970 . S
O63 Li3 1.956 1_655 S
O63 C38 1.325 . S
H64 C6 0.929 . S
H65 C7 0.930 . S
H66 C8 0.930 . S
H67 C9 0.930 1_565 S
H68 C11 0.930 . S
H69 C13 0.929 . S
H70 C14 0.930 . S
H71 C15 0.930 . S
H72 C18 0.930 . S
H73 C21 0.929 . S
H74 C26 0.929 . S
H75 C27 0.930 . S
H76 C34 0.929 . S
H77 C35 0.930 . S
H78 C36 0.930 . S
H79 C37 0.930 . S
H80 C39 0.929 . S
H81 C40 0.930 . S
H82 C41 0.930 . S
H83 C42 0.930 . S
H84 C46 0.929 . S
H85 C48 0.930 . S
H86 C54 0.929 . S
H87 C55 0.930 . S
Li88 N105 1.990 . S
Li88 O148 1.956 1_655 S
Li88 O149 1.970 . S
Li88 O150 1.961 . S
Li89 N113 1.990 . S
Li89 O148 1.970 . S
Li89 O149 1.956 1_455 S
Li89 O151 1.961 . S
Li90 N135 1.990 . S
Li90 O148 1.961 . S
Li90 O150 1.956 1_455 S
Li90 O151 1.970 . S
Li91 N141 1.990 . S
Li91 O149 1.961 . S
Li91 O150 1.970 . S
Li91 O151 1.956 1_655 S
C92 C94 1.348 . S
C92 C95 1.356 . S
C92 O148 1.325 . S
N93 C96 1.314 . S
N93 C97 1.279 . S
C94 C92 1.348 . S
C94 C96 1.353 . S
C94 H152 0.929 . S
C95 C92 1.356 . S
C95 C97 1.358 . S
C95 H153 0.930 . S
C96 N93 1.314 . S
C96 C94 1.353 . S
C96 H154 0.930 . S
C97 N93 1.279 . S
C97 C95 1.358 . S
C97 H155 0.930 . S
C98 C101 1.348 . S
C98 C102 1.356 . S
C98 O149 1.325 . S
C99 N100 1.279 . S
C99 C102 1.358 . S
C99 H156 0.930 . S
N100 C99 1.279 . S
N100 C103 1.314 . S
C101 C98 1.348 . S
C101 C103 1.353 . S
C101 H157 0.929 . S
C102 C98 1.356 . S
C102 C99 1.358 . S
C102 H158 0.930 . S
C103 N100 1.314 . S
C103 C101 1.353 . S
C103 H159 0.930 . S
C104 N105 1.314 . S
C104 C109 1.353 . S
C104 H110 0.930 . S
N105 Li88 1.990 . S
N105 C104 1.314 . S
N105 C107 1.279 . S
C106 C107 1.358 . S
C106 C108 1.356 . S
C106 H160 0.930 . S
C107 N105 1.279 . S
C107 C106 1.358 . S
C107 H111 0.930 . S
C108 C106 1.356 . S
C108 C109 1.348 . S
C109 C104 1.353 . S
C109 C108 1.348 . S
C109 H161 0.929 . S
H110 C104 0.930 . S
H111 C107 0.930 . S
C112 N113 1.314 . S
C112 C114 1.353 . S
C112 H118 0.930 . S
N113 Li89 1.990 . S
N113 C112 1.314 . S
N113 C116 1.279 . S
C114 C112 1.353 . S
C114 C117 1.348 . S
C114 H162 0.929 . S
C115 C116 1.358 . S
C115 C117 1.356 . S
C115 H163 0.930 . S
C116 N113 1.279 . S
C116 C115 1.358 . S
C116 H119 0.930 . S
C117 C114 1.348 . S
C117 C115 1.356 . S
H118 C112 0.930 . S
H119 C116 0.930 . S
C120 C122 1.348 . S
C120 C123 1.356 . S
C120 O150 1.325 . S
N121 C124 1.314 . S
N121 C125 1.279 . S
C122 C120 1.348 . S
C122 C124 1.353 . S
C122 H164 0.929 . S
C123 C120 1.356 . S
C123 C125 1.358 . S
C123 H165 0.930 . S
C124 N121 1.314 . S
C124 C122 1.353 . S
C124 H166 0.930 . S
C125 N121 1.279 . S
C125 C123 1.358 . S
C125 H167 0.930 . S
C126 C127 1.348 . S
C126 C128 1.356 . S
C126 O151 1.325 . S
C127 C126 1.348 . S
C127 C129 1.353 . S
C127 H168 0.929 . S
C128 C126 1.356 . S
C128 C130 1.358 . S
C128 H169 0.930 . S
C129 C127 1.353 . S
C129 N131 1.314 . S
C129 H170 0.930 . S
C130 C128 1.358 . S
C130 N131 1.279 . S
C130 H171 0.930 . S
N131 C129 1.314 . S
N131 C130 1.279 . S
C132 C134 1.353 . S
C132 N135 1.314 . S
C132 H138 0.930 . S
C133 N135 1.279 . S
C133 C136 1.358 . S
C133 H139 0.930 1_455 S
C134 C132 1.353 . S
C134 C137 1.348 . S
C134 H172 0.929 . S
N135 Li90 1.990 . S
N135 C132 1.314 . S
N135 C133 1.279 . S
C136 C133 1.358 . S
C136 C137 1.356 . S
C136 H173 0.930 . S
C137 C134 1.348 . S
C137 C136 1.356 . S
H138 C132 0.930 . S
H139 C133 0.930 1_655 S
C140 N141 1.314 . S
C140 C142 1.353 . S
C140 H146 0.930 . S
N141 Li91 1.990 . S
N141 C140 1.314 . S
N141 C144 1.279 . S
C142 C140 1.353 . S
C142 C145 1.348 . S
C142 H174 0.929 . S
C143 C144 1.358 . S
C143 C145 1.356 . S
C143 H175 0.930 . S
C144 N141 1.279 . S
C144 C143 1.358 . S
C144 H147 0.930 . S
C145 C142 1.348 . S
C145 C143 1.356 . S
H146 C140 0.930 . S
H147 C144 0.930 . S
O148 Li88 1.956 1_455 S
O148 Li89 1.970 . S
O148 Li90 1.961 . S
O148 C92 1.325 . S
O149 Li88 1.970 . S
O149 Li89 1.956 1_655 S
O149 Li91 1.961 . S
O149 C98 1.325 . S
O150 Li88 1.961 . S
O150 Li90 1.956 1_655 S
O150 Li91 1.970 . S
O150 C120 1.325 . S
O151 Li89 1.961 . S
O151 Li90 1.970 . S
O151 Li91 1.956 1_455 S
O151 C126 1.325 . S
H152 C94 0.929 . S
H153 C95 0.930 . S
H154 C96 0.930 . S
H155 C97 0.930 . S
H156 C99 0.930 . S
H157 C101 0.929 . S
H158 C102 0.930 . S
H159 C103 0.930 . S
H160 C106 0.930 . S
H161 C109 0.929 . S
H162 C114 0.929 . S
H163 C115 0.930 . S
H164 C122 0.929 . S
H165 C123 0.930 . S
H166 C124 0.930 . S
H167 C125 0.930 . S
H168 C127 0.929 . S
H169 C128 0.930 . S
H170 C129 0.930 . S
H171 C130 0.930 . S
H172 C134 0.929 . S
H173 C136 0.930 . S
H174 C142 0.929 . S
H175 C143 0.930 . S
Li176 N193 1.990 . S
Li176 O236 1.956 . S
Li176 O237 1.970 . S
Li176 O238 1.961 . S
Li177 N201 1.990 . S
Li177 O236 1.970 . S
Li177 O237 1.956 . S
Li177 O239 1.961 . S
Li178 N223 1.990 . S
Li178 O236 1.961 . S
Li178 O238 1.956 . S
Li178 O239 1.970 . S
Li179 N229 1.990 . S
Li179 O237 1.961 . S
Li179 O238 1.970 . S
Li179 O239 1.956 . S
C180 C182 1.348 . S
C180 C183 1.356 . S
C180 O236 1.325 . S
N181 C184 1.314 . S
N181 C185 1.279 . S
C182 C180 1.348 . S
C182 C184 1.353 . S
C182 H240 0.929 . S
C183 C180 1.356 . S
C183 C185 1.358 . S
C183 H241 0.930 . S
C184 N181 1.314 . S
C184 C182 1.353 . S
C184 H242 0.930 . S
C185 N181 1.279 . S
C185 C183 1.358 . S
C185 H243 0.930 . S
C186 C189 1.348 . S
C186 C190 1.356 . S
C186 O237 1.325 . S
C187 N188 1.279 . S
C187 C190 1.358 . S
C187 H244 0.930 . S
N188 C187 1.279 . S
N188 C191 1.314 . S
C189 C186 1.348 . S
C189 C191 1.353 . S
C189 H245 0.929 . S
C190 C186 1.356 . S
C190 C187 1.358 . S
C190 H246 0.930 . S
C191 N188 1.314 . S
C191 C189 1.353 . S
C191 H247 0.930 . S
C192 N193 1.314 . S
C192 C197 1.353 . S
C192 H198 0.930 . S
N193 Li176 1.990 . S
N193 C192 1.314 . S
N193 C195 1.279 . S
C194 C195 1.358 . S
C194 C196 1.356 . S
C194 H248 0.930 . S
C195 N193 1.279 . S
C195 C194 1.358 . S
C195 H199 0.930 . S
C196 C194 1.356 . S
C196 C197 1.348 . S
C197 C192 1.353 . S
C197 C196 1.348 . S
C197 H249 0.929 . S
H198 C192 0.930 . S
H199 C195 0.930 . S
C200 N201 1.314 . S
C200 C202 1.353 . S
C200 H206 0.930 . S
N201 Li177 1.990 . S
N201 C200 1.314 . S
N201 C204 1.279 . S
C202 C200 1.353 . S
C202 C205 1.348 . S
C202 H250 0.929 . S
C203 C204 1.358 . S
C203 C205 1.356 . S
C203 H251 0.930 . S
C204 N201 1.279 . S
C204 C203 1.358 . S
C204 H207 0.930 . S
C205 C202 1.348 . S
C205 C203 1.356 . S
H206 C200 0.930 . S
H207 C204 0.930 . S
C208 C210 1.348 . S
C208 C211 1.356 . S
C208 O238 1.325 . S
N209 C212 1.314 . S
N209 C213 1.279 . S
C210 C208 1.348 . S
C210 C212 1.353 . S
C210 H252 0.929 . S
C211 C208 1.356 . S
C211 C213 1.358 . S
C211 H253 0.930 . S
C212 N209 1.314 . S
C212 C210 1.353 . S
C212 H254 0.930 1_554 S
C213 N209 1.279 . S
C213 C211 1.358 . S
C213 H255 0.930 . S
C214 C215 1.348 . S
C214 C216 1.356 . S
C214 O239 1.325 . S
C215 C214 1.348 . S
C215 C217 1.353 . S
C215 H256 0.929 . S
C216 C214 1.356 . S
C216 C218 1.358 . S
C216 H257 0.930 . S
C217 C215 1.353 . S
C217 N219 1.314 . S
C217 H258 0.930 . S
C218 C216 1.358 . S
C218 N219 1.279 . S
C218 H259 0.930 . S
N219 C217 1.314 . S
N219 C218 1.279 . S
C220 C222 1.353 . S
C220 N223 1.314 . S
C220 H226 0.930 . S
C221 N223 1.279 . S
C221 C224 1.358 . S
C221 H227 0.930 . S
C222 C220 1.353 . S
C222 C225 1.348 . S
C222 H260 0.929 . S
N223 Li178 1.990 . S
N223 C220 1.314 . S
N223 C221 1.279 . S
C224 C221 1.358 . S
C224 C225 1.356 . S
C224 H261 0.930 . S
C225 C222 1.348 . S
C225 C224 1.356 . S
H226 C220 0.930 . S
H227 C221 0.930 . S
C228 N229 1.314 . S
C228 C230 1.353 . S
C228 H234 0.930 . S
N229 Li179 1.990 . S
N229 C228 1.314 . S
N229 C232 1.279 . S
C230 C228 1.353 . S
C230 C233 1.348 . S
C230 H262 0.929 . S
C231 C232 1.358 . S
C231 C233 1.356 . S
C231 H263 0.930 1_554 S
C232 N229 1.279 . S
C232 C231 1.358 . S
C232 H235 0.930 . S
C233 C230 1.348 . S
C233 C231 1.356 . S
H234 C228 0.930 . S
H235 C232 0.930 . S
O236 Li176 1.956 . S
O236 Li177 1.970 . S
O236 Li178 1.961 . S
O236 C180 1.325 . S
O237 Li176 1.970 . S
O237 Li177 1.956 . S
O237 Li179 1.961 . S
O237 C186 1.325 . S
O238 Li176 1.961 . S
O238 Li178 1.956 . S
O238 Li179 1.970 . S
O238 C208 1.325 . S
O239 Li177 1.961 . S
O239 Li178 1.970 . S
O239 Li179 1.956 . S
O239 C214 1.325 . S
H240 C182 0.929 . S
H241 C183 0.930 . S
H242 C184 0.930 . S
H243 C185 0.930 . S
H244 C187 0.930 . S
H245 C189 0.929 . S
H246 C190 0.930 . S
H247 C191 0.930 . S
H248 C194 0.930 . S
H249 C197 0.929 . S
H250 C202 0.929 . S
H251 C203 0.930 . S
H252 C210 0.929 . S
H253 C211 0.930 . S
H254 C212 0.930 1_556 S
H255 C213 0.930 . S
H256 C215 0.929 . S
H257 C216 0.930 . S
H258 C217 0.930 . S
H259 C218 0.930 . S
H260 C222 0.929 . S
H261 C224 0.930 . S
H262 C230 0.929 . S
H263 C231 0.930 1_556 S
Li264 N281 1.990 . S
Li264 O324 1.956 . S
Li264 O325 1.970 . S
Li264 O326 1.961 . S
Li265 N289 1.990 . S
Li265 O324 1.970 . S
Li265 O325 1.956 . S
Li265 O327 1.961 . S
Li266 N311 1.990 . S
Li266 O324 1.961 . S
Li266 O326 1.956 . S
Li266 O327 1.970 . S
Li267 N317 1.990 . S
Li267 O325 1.961 . S
Li267 O326 1.970 . S
Li267 O327 1.956 . S
C268 C270 1.348 . S
C268 C271 1.356 . S
C268 O324 1.325 . S
N269 C272 1.314 . S
N269 C273 1.279 . S
C270 C268 1.348 . S
C270 C272 1.353 . S
C270 H328 0.929 . S
C271 C268 1.356 . S
C271 C273 1.358 . S
C271 H329 0.930 . S
C272 N269 1.314 . S
C272 C270 1.353 . S
C272 H330 0.930 1_565 S
C273 N269 1.279 . S
C273 C271 1.358 . S
C273 H331 0.930 . S
C274 C277 1.348 . S
C274 C278 1.356 . S
C274 O325 1.325 . S
C275 N276 1.279 . S
C275 C278 1.358 . S
C275 H332 0.930 . S
N276 C275 1.279 . S
N276 C279 1.314 . S
C277 C274 1.348 . S
C277 C279 1.353 . S
C277 H333 0.929 . S
C278 C274 1.356 . S
C278 C275 1.358 . S
C278 H334 0.930 . S
C279 N276 1.314 . S
C279 C277 1.353 . S
C279 H335 0.930 . S
C280 N281 1.314 . S
C280 C285 1.353 . S
C280 H286 0.930 . S
N281 Li264 1.990 . S
N281 C280 1.314 . S
N281 C283 1.279 . S
C282 C283 1.358 . S
C282 C284 1.356 . S
C282 H336 0.930 . S
C283 N281 1.279 . S
C283 C282 1.358 . S
C283 H287 0.930 . S
C284 C282 1.356 . S
C284 C285 1.348 . S
C285 C280 1.353 . S
C285 C284 1.348 . S
C285 H337 0.929 . S
H286 C280 0.930 . S
H287 C283 0.930 . S
C288 N289 1.314 . S
C288 C290 1.353 . S
C288 H294 0.930 . S
N289 Li265 1.990 . S
N289 C288 1.314 . S
N289 C292 1.279 . S
C290 C288 1.353 . S
C290 C293 1.348 . S
C290 H338 0.929 . S
C291 C292 1.358 . S
C291 C293 1.356 . S
C291 H339 0.930 1_565 S
C292 N289 1.279 . S
C292 C291 1.358 . S
C292 H295 0.930 . S
C293 C290 1.348 . S
C293 C291 1.356 . S
H294 C288 0.930 . S
H295 C292 0.930 . S
C296 C298 1.348 . S
C296 C299 1.356 . S
C296 O326 1.325 . S
N297 C300 1.314 . S
N297 C301 1.279 . S
C298 C296 1.348 . S
C298 C300 1.353 . S
C298 H340 0.929 . S
C299 C296 1.356 . S
C299 C301 1.358 . S
C299 H341 0.930 . S
C300 N297 1.314 . S
C300 C298 1.353 . S
C300 H342 0.930 . S
C301 N297 1.279 . S
C301 C299 1.358 . S
C301 H343 0.930 . S
C302 C303 1.348 . S
C302 C304 1.356 . S
C302 O327 1.325 . S
C303 C302 1.348 . S
C303 C305 1.353 . S
C303 H344 0.929 . S
C304 C302 1.356 . S
C304 C306 1.358 . S
C304 H345 0.930 . S
C305 C303 1.353 . S
C305 N307 1.314 . S
C305 H346 0.930 . S
C306 C304 1.358 . S
C306 N307 1.279 . S
C306 H347 0.930 . S
N307 C305 1.314 . S
N307 C306 1.279 . S
C308 C310 1.353 . S
C308 N311 1.314 . S
C308 H314 0.930 . S
C309 N311 1.279 . S
C309 C312 1.358 . S
C309 H315 0.930 . S
C310 C308 1.353 . S
C310 C313 1.348 . S
C310 H348 0.929 . S
N311 Li266 1.990 . S
N311 C308 1.314 . S
N311 C309 1.279 . S
C312 C309 1.358 . S
C312 C313 1.356 . S
C312 H349 0.930 . S
C313 C310 1.348 . S
C313 C312 1.356 . S
H314 C308 0.930 . S
H315 C309 0.930 . S
C316 N317 1.314 . S
C316 C318 1.353 . S
C316 H322 0.930 . S
N317 Li267 1.990 . S
N317 C316 1.314 . S
N317 C320 1.279 . S
C318 C316 1.353 . S
C318 C321 1.348 . S
C318 H350 0.929 . S
C319 C320 1.358 . S
C319 C321 1.356 . S
C319 H351 0.930 . S
C320 N317 1.279 . S
C320 C319 1.358 . S
C320 H323 0.930 . S
C321 C318 1.348 . S
C321 C319 1.356 . S
H322 C316 0.930 . S
H323 C320 0.930 . S
O324 Li264 1.956 . S
O324 Li265 1.970 . S
O324 Li266 1.961 . S
O324 C268 1.325 . S
O325 Li264 1.970 . S
O325 Li265 1.956 . S
O325 Li267 1.961 . S
O325 C274 1.325 . S
O326 Li264 1.961 . S
O326 Li266 1.956 . S
O326 Li267 1.970 . S
O326 C296 1.325 . S
O327 Li265 1.961 . S
O327 Li266 1.970 . S
O327 Li267 1.956 . S
O327 C302 1.325 . S
H328 C270 0.929 . S
H329 C271 0.930 . S
H330 C272 0.930 1_545 S
H331 C273 0.930 . S
H332 C275 0.930 . S
H333 C277 0.929 . S
H334 C278 0.930 . S
H335 C279 0.930 . S
H336 C282 0.930 . S
H337 C285 0.929 . S
H338 C290 0.929 . S
H339 C291 0.930 1_545 S
H340 C298 0.929 . S
H341 C299 0.930 . S
H342 C300 0.930 . S
H343 C301 0.930 . S
H344 C303 0.929 . S
H345 C304 0.930 . S
H346 C305 0.930 . S
H347 C306 0.930 . S
H348 C310 0.929 . S
H349 C312 0.930 . S
H350 C318 0.929 . S
H351 C319 0.930 . S
Li352 N369 1.990 . S
Li352 O412 1.956 1_655 S
Li352 O413 1.970 . S
Li352 O414 1.961 . S
Li353 N377 1.990 . S
Li353 O412 1.970 . S
Li353 O413 1.956 1_455 S
Li353 O415 1.961 . S
Li354 N399 1.990 . S
Li354 O412 1.961 . S
Li354 O414 1.956 1_455 S
Li354 O415 1.970 . S
Li355 N405 1.990 . S
Li355 O413 1.961 . S
Li355 O414 1.970 . S
Li355 O415 1.956 1_655 S
C356 C358 1.348 . S
C356 C359 1.356 . S
C356 O412 1.325 . S
N357 C360 1.314 . S
N357 C361 1.279 . S
C358 C356 1.348 . S
C358 C360 1.353 . S
C358 H416 0.929 . S
C359 C356 1.356 . S
C359 C361 1.358 . S
C359 H417 0.930 . S
C360 N357 1.314 . S
C360 C358 1.353 . S
C360 H418 0.930 . S
C361 N357 1.279 . S
C361 C359 1.358 . S
C361 H419 0.930 . S
C362 C365 1.348 . S
C362 C366 1.356 . S
C362 O413 1.325 . S
C363 N364 1.279 . S
C363 C366 1.358 . S
C363 H420 0.930 . S
N364 C363 1.279 . S
N364 C367 1.314 . S
C365 C362 1.348 . S
C365 C367 1.353 . S
C365 H421 0.929 . S
C366 C362 1.356 . S
C366 C363 1.358 . S
C366 H422 0.930 . S
C367 N364 1.314 . S
C367 C365 1.353 . S
C367 H423 0.930 . S
C368 N369 1.314 . S
C368 C373 1.353 . S
C368 H374 0.930 . S
N369 Li352 1.990 . S
N369 C368 1.314 . S
N369 C371 1.279 . S
C370 C371 1.358 . S
C370 C372 1.356 . S
C370 H424 0.930 . S
C371 N369 1.279 . S
C371 C370 1.358 . S
C371 H375 0.930 1_655 S
C372 C370 1.356 . S
C372 C373 1.348 . S
C373 C368 1.353 . S
C373 C372 1.348 . S
C373 H425 0.929 . S
H374 C368 0.930 . S
H375 C371 0.930 1_455 S
C376 N377 1.314 . S
C376 C378 1.353 . S
C376 H382 0.930 . S
N377 Li353 1.990 . S
N377 C376 1.314 . S
N377 C380 1.279 . S
C378 C376 1.353 . S
C378 C381 1.348 . S
C378 H426 0.929 . S
C379 C380 1.358 . S
C379 C381 1.356 . S
C379 H427 0.930 . S
C380 N377 1.279 . S
C380 C379 1.358 . S
C380 H383 0.930 . S
C381 C378 1.348 . S
C381 C379 1.356 . S
H382 C376 0.930 . S
H383 C380 0.930 . S
C384 C386 1.348 . S
C384 C387 1.356 . S
C384 O414 1.325 . S
N385 C388 1.314 . S
N385 C389 1.279 . S
C386 C384 1.348 . S
C386 C388 1.353 . S
C386 H428 0.929 . S
C387 C384 1.356 . S
C387 C389 1.358 . S
C387 H429 0.930 . S
C388 N385 1.314 . S
C388 C386 1.353 . S
C388 H430 0.930 . S
C389 N385 1.279 . S
C389 C387 1.358 . S
C389 H431 0.930 . S
C390 C391 1.348 . S
C390 C392 1.356 . S
C390 O415 1.325 . S
C391 C390 1.348 . S
C391 C393 1.353 . S
C391 H432 0.929 . S
C392 C390 1.356 . S
C392 C394 1.358 . S
C392 H433 0.930 . S
C393 C391 1.353 . S
C393 N395 1.314 . S
C393 H434 0.930 . S
C394 C392 1.358 . S
C394 N395 1.279 . S
C394 H435 0.930 . S
N395 C393 1.314 . S
N395 C394 1.279 . S
C396 C398 1.353 . S
C396 N399 1.314 . S
C396 H402 0.930 . S
C397 N399 1.279 . S
C397 C400 1.358 . S
C397 H403 0.930 . S
C398 C396 1.353 . S
C398 C401 1.348 . S
C398 H436 0.929 . S
N399 Li354 1.990 . S
N399 C396 1.314 . S
N399 C397 1.279 . S
C400 C397 1.358 . S
C400 C401 1.356 . S
C400 H437 0.930 . S
C401 C398 1.348 . S
C401 C400 1.356 . S
H402 C396 0.930 . S
H403 C397 0.930 . S
C404 N405 1.314 . S
C404 C406 1.353 . S
C404 H410 0.930 . S
N405 Li355 1.990 . S
N405 C404 1.314 . S
N405 C408 1.279 . S
C406 C404 1.353 . S
C406 C409 1.348 . S
C406 H438 0.929 . S
C407 C408 1.358 . S
C407 C409 1.356 . S
C407 H439 0.930 . S
C408 N405 1.279 . S
C408 C407 1.358 . S
C408 H411 0.930 . S
C409 C406 1.348 . S
C409 C407 1.356 . S
H410 C404 0.930 . S
H411 C408 0.930 . S
O412 Li352 1.956 1_455 S
O412 Li353 1.970 . S
O412 Li354 1.961 . S
O412 C356 1.325 . S
O413 Li352 1.970 . S
O413 Li353 1.956 1_655 S
O413 Li355 1.961 . S
O413 C362 1.325 . S
O414 Li352 1.961 . S
O414 Li354 1.956 1_655 S
O414 Li355 1.970 . S
O414 C384 1.325 . S
O415 Li353 1.961 . S
O415 Li354 1.970 . S
O415 Li355 1.956 1_455 S
O415 C390 1.325 . S
H416 C358 0.929 . S
H417 C359 0.930 . S
H418 C360 0.930 . S
H419 C361 0.930 . S
H420 C363 0.930 . S
H421 C365 0.929 . S
H422 C366 0.930 . S
H423 C367 0.930 . S
H424 C370 0.930 . S
H425 C373 0.929 . S
H426 C378 0.929 . S
H427 C379 0.930 . S
H428 C386 0.929 . S
H429 C387 0.930 . S
H430 C388 0.930 . S
H431 C389 0.930 . S
H432 C391 0.929 . S
H433 C392 0.930 . S
H434 C393 0.930 . S
H435 C394 0.930 . S
H436 C398 0.929 . S
H437 C400 0.930 . S
H438 C406 0.929 . S
H439 C407 0.930 . S
Li440 N457 1.990 . S
Li440 O500 1.956 . S
Li440 O501 1.970 . S
Li440 O502 1.961 . S
Li441 N465 1.990 . S
Li441 O500 1.970 . S
Li441 O501 1.956 . S
Li441 O503 1.961 . S
Li442 N487 1.990 . S
Li442 O500 1.961 . S
Li442 O502 1.956 . S
Li442 O503 1.970 . S
Li443 N493 1.990 . S
Li443 O501 1.961 . S
Li443 O502 1.970 . S
Li443 O503 1.956 . S
C444 C446 1.348 . S
C444 C447 1.356 . S
C444 O500 1.325 . S
N445 C448 1.314 . S
N445 C449 1.279 . S
C446 C444 1.348 . S
C446 C448 1.353 . S
C446 H504 0.929 . S
C447 C444 1.356 . S
C447 C449 1.358 . S
C447 H505 0.930 . S
C448 N445 1.314 . S
C448 C446 1.353 . S
C448 H506 0.930 . S
C449 N445 1.279 . S
C449 C447 1.358 . S
C449 H507 0.930 1_556 S
C450 C453 1.348 . S
C450 C454 1.356 . S
C450 O501 1.325 . S
C451 N452 1.279 . S
C451 C454 1.358 . S
C451 H508 0.930 . S
N452 C451 1.279 . S
N452 C455 1.314 . S
C453 C450 1.348 . S
C453 C455 1.353 . S
C453 H509 0.929 . S
C454 C450 1.356 . S
C454 C451 1.358 . S
C454 H510 0.930 . S
C455 N452 1.314 . S
C455 C453 1.353 . S
C455 H511 0.930 . S
C456 N457 1.314 . S
C456 C461 1.353 . S
C456 H462 0.930 . S
N457 Li440 1.990 . S
N457 C456 1.314 . S
N457 C459 1.279 . S
C458 C459 1.358 . S
C458 C460 1.356 . S
C458 H512 0.930 . S
C459 N457 1.279 . S
C459 C458 1.358 . S
C459 H463 0.930 . S
C460 C458 1.356 . S
C460 C461 1.348 . S
C461 C456 1.353 . S
C461 C460 1.348 . S
C461 H513 0.929 . S
H462 C456 0.930 . S
H463 C459 0.930 . S
C464 N465 1.314 . S
C464 C466 1.353 . S
C464 H470 0.930 . S
N465 Li441 1.990 . S
N465 C464 1.314 . S
N465 C468 1.279 . S
C466 C464 1.353 . S
C466 C469 1.348 . S
C466 H514 0.929 . S
C467 C468 1.358 . S
C467 C469 1.356 . S
C467 H515 0.930 . S
C468 N465 1.279 . S
C468 C467 1.358 . S
C468 H471 0.930 . S
C469 C466 1.348 . S
C469 C467 1.356 . S
H470 C464 0.930 . S
H471 C468 0.930 . S
C472 C474 1.348 . S
C472 C475 1.356 . S
C472 O502 1.325 . S
N473 C476 1.314 . S
N473 C477 1.279 . S
C474 C472 1.348 . S
C474 C476 1.353 . S
C474 H516 0.929 . S
C475 C472 1.356 . S
C475 C477 1.358 . S
C475 H517 0.930 . S
C476 N473 1.314 . S
C476 C474 1.353 . S
C476 H518 0.930 . S
C477 N473 1.279 . S
C477 C475 1.358 . S
C477 H519 0.930 . S
C478 C479 1.348 . S
C478 C480 1.356 . S
C478 O503 1.325 . S
C479 C478 1.348 . S
C479 C481 1.353 . S
C479 H520 0.929 . S
C480 C478 1.356 . S
C480 C482 1.358 . S
C480 H521 0.930 . S
C481 C479 1.353 . S
C481 N483 1.314 . S
C481 H522 0.930 . S
C482 C480 1.358 . S
C482 N483 1.279 . S
C482 H523 0.930 . S
N483 C481 1.314 . S
N483 C482 1.279 . S
C484 C486 1.353 . S
C484 N487 1.314 . S
C484 H490 0.930 . S
C485 N487 1.279 . S
C485 C488 1.358 . S
C485 H491 0.930 . S
C486 C484 1.353 . S
C486 C489 1.348 . S
C486 H524 0.929 . S
N487 Li442 1.990 . S
N487 C484 1.314 . S
N487 C485 1.279 . S
C488 C485 1.358 . S
C488 C489 1.356 . S
C488 H525 0.930 . S
C489 C486 1.348 . S
C489 C488 1.356 . S
H490 C484 0.930 . S
H491 C485 0.930 . S
C492 N493 1.314 . S
C492 C494 1.353 . S
C492 H498 0.930 . S
N493 Li443 1.990 . S
N493 C492 1.314 . S
N493 C496 1.279 . S
C494 C492 1.353 . S
C494 C497 1.348 . S
C494 H526 0.929 . S
C495 C496 1.358 . S
C495 C497 1.356 . S
C495 H527 0.930 . S
C496 N493 1.279 . S
C496 C495 1.358 . S
C496 H499 0.930 . S
C497 C494 1.348 . S
C497 C495 1.356 . S
H498 C492 0.930 . S
H499 C496 0.930 . S
O500 Li440 1.956 . S
O500 Li441 1.970 . S
O500 Li442 1.961 . S
O500 C444 1.325 . S
O501 Li440 1.970 . S
O501 Li441 1.956 . S
O501 Li443 1.961 . S
O501 C450 1.325 . S
O502 Li440 1.961 . S
O502 Li442 1.956 . S
O502 Li443 1.970 . S
O502 C472 1.325 . S
O503 Li441 1.961 . S
O503 Li442 1.970 . S
O503 Li443 1.956 . S
O503 C478 1.325 . S
H504 C446 0.929 . S
H505 C447 0.930 . S
H506 C448 0.930 . S
H507 C449 0.930 1_554 S
H508 C451 0.930 . S
H509 C453 0.929 . S
H510 C454 0.930 . S
H511 C455 0.930 . S
H512 C458 0.930 . S
H513 C461 0.929 . S
H514 C466 0.929 . S
H515 C467 0.930 . S
H516 C474 0.929 . S
H517 C475 0.930 . S
H518 C476 0.930 . S
H519 C477 0.930 . S
H520 C479 0.929 . S
H521 C480 0.930 . S
H522 C481 0.930 . S
H523 C482 0.930 . S
H524 C486 0.929 . S
H525 C488 0.930 . S
H526 C494 0.929 . S
H527 C495 0.930 . S
Li528 N545 1.990 . S
Li528 O588 1.956 . S
Li528 O589 1.970 . S
Li528 O590 1.961 . S
Li529 N553 1.990 . S
Li529 O588 1.970 . S
Li529 O589 1.956 . S
Li529 O591 1.961 . S
Li530 N575 1.990 . S
Li530 O588 1.961 . S
Li530 O590 1.956 . S
Li530 O591 1.970 . S
Li531 N581 1.990 . S
Li531 O589 1.961 . S
Li531 O590 1.970 . S
Li531 O591 1.956 . S
C532 C534 1.348 . S
C532 C535 1.356 . S
C532 O588 1.325 . S
N533 C536 1.314 . S
N533 C537 1.279 . S
C534 C532 1.348 . S
C534 C536 1.353 . S
C534 H592 0.929 . S
C535 C532 1.356 . S
C535 C537 1.358 . S
C535 H593 0.930 . S
C536 N533 1.314 . S
C536 C534 1.353 . S
C536 H594 0.930 . S
C537 N533 1.279 . S
C537 C535 1.358 . S
C537 H595 0.930 . S
C538 C541 1.348 . S
C538 C542 1.356 . S
C538 O589 1.325 . S
C539 N540 1.279 . S
C539 C542 1.358 . S
C539 H596 0.930 . S
N540 C539 1.279 . S
N540 C543 1.314 . S
C541 C538 1.348 . S
C541 C543 1.353 . S
C541 H597 0.929 . S
C542 C538 1.356 . S
C542 C539 1.358 . S
C542 H598 0.930 . S
C543 N540 1.314 . S
C543 C541 1.353 . S
C543 H599 0.930 . S
C544 N545 1.314 . S
C544 C549 1.353 . S
C544 H550 0.930 . S
N545 Li528 1.990 . S
N545 C544 1.314 . S
N545 C547 1.279 . S
C546 C547 1.358 . S
C546 C548 1.356 . S
C546 H600 0.930 . S
C547 N545 1.279 . S
C547 C546 1.358 . S
C547 H551 0.930 . S
C548 C546 1.356 . S
C548 C549 1.348 . S
C549 C544 1.353 . S
C549 C548 1.348 . S
C549 H601 0.929 . S
H550 C544 0.930 . S
H551 C547 0.930 . S
C552 N553 1.314 . S
C552 C554 1.353 . S
C552 H558 0.930 . S
N553 Li529 1.990 . S
N553 C552 1.314 . S
N553 C556 1.279 . S
C554 C552 1.353 . S
C554 C557 1.348 . S
C554 H602 0.929 . S
C555 C556 1.358 . S
C555 C557 1.356 . S
C555 H603 0.930 . S
C556 N553 1.279 . S
C556 C555 1.358 . S
C556 H559 0.930 . S
C557 C554 1.348 . S
C557 C555 1.356 . S
H558 C552 0.930 . S
H559 C556 0.930 . S
C560 C562 1.348 . S
C560 C563 1.356 . S
C560 O590 1.325 . S
N561 C564 1.314 . S
N561 C565 1.279 . S
C562 C560 1.348 . S
C562 C564 1.353 . S
C562 H604 0.929 . S
C563 C560 1.356 . S
C563 C565 1.358 . S
C563 H605 0.930 . S
C564 N561 1.314 . S
C564 C562 1.353 . S
C564 H606 0.930 . S
C565 N561 1.279 . S
C565 C563 1.358 . S
C565 H607 0.930 . S
C566 C567 1.348 . S
C566 C568 1.356 . S
C566 O591 1.325 . S
C567 C566 1.348 . S
C567 C569 1.353 . S
C567 H608 0.929 . S
C568 C566 1.356 . S
C568 C570 1.358 . S
C568 H609 0.930 . S
C569 C567 1.353 . S
C569 N571 1.314 . S
C569 H610 0.930 . S
C570 C568 1.358 . S
C570 N571 1.279 . S
C570 H611 0.930 1_545 S
N571 C569 1.314 . S
N571 C570 1.279 . S
C572 C574 1.353 . S
C572 N575 1.314 . S
C572 H578 0.930 . S
C573 N575 1.279 . S
C573 C576 1.358 . S
C573 H579 0.930 . S
C574 C572 1.353 . S
C574 C577 1.348 . S
C574 H612 0.929 . S
N575 Li530 1.990 . S
N575 C572 1.314 . S
N575 C573 1.279 . S
C576 C573 1.358 . S
C576 C577 1.356 . S
C576 H613 0.930 . S
C577 C574 1.348 . S
C577 C576 1.356 . S
H578 C572 0.930 . S
H579 C573 0.930 . S
C580 N581 1.314 . S
C580 C582 1.353 . S
C580 H586 0.930 . S
N581 Li531 1.990 . S
N581 C580 1.314 . S
N581 C584 1.279 . S
C582 C580 1.353 . S
C582 C585 1.348 . S
C582 H614 0.929 . S
C583 C584 1.358 . S
C583 C585 1.356 . S
C583 H615 0.930 . S
C584 N581 1.279 . S
C584 C583 1.358 . S
C584 H587 0.930 . S
C585 C582 1.348 . S
C585 C583 1.356 . S
H586 C580 0.930 . S
H587 C584 0.930 . S
O588 Li528 1.956 . S
O588 Li529 1.970 . S
O588 Li530 1.961 . S
O588 C532 1.325 . S
O589 Li528 1.970 . S
O589 Li529 1.956 . S
O589 Li531 1.961 . S
O589 C538 1.325 . S
O590 Li528 1.961 . S
O590 Li530 1.956 . S
O590 Li531 1.970 . S
O590 C560 1.325 . S
O591 Li529 1.961 . S
O591 Li530 1.970 . S
O591 Li531 1.956 . S
O591 C566 1.325 . S
H592 C534 0.929 . S
H593 C535 0.930 . S
H594 C536 0.930 . S
H595 C537 0.930 . S
H596 C539 0.930 . S
H597 C541 0.929 . S
H598 C542 0.930 . S
H599 C543 0.930 . S
H600 C546 0.930 . S
H601 C549 0.929 . S
H602 C554 0.929 . S
H603 C555 0.930 . S
H604 C562 0.929 . S
H605 C563 0.930 . S
H606 C564 0.930 . S
H607 C565 0.930 . S
H608 C567 0.929 . S
H609 C568 0.930 . S
H610 C569 0.930 . S
H611 C570 0.930 1_565 S
H612 C574 0.929 . S
H613 C576 0.930 . S
H614 C582 0.929 . S
H615 C583 0.930 . S
Li616 N633 1.990 . S
Li616 O676 1.956 1_455 S
Li616 O677 1.970 . S
Li616 O678 1.961 . S
Li617 N641 1.990 . S
Li617 O676 1.970 . S
Li617 O677 1.956 1_655 S
Li617 O679 1.961 . S
Li618 N663 1.990 . S
Li618 O676 1.961 . S
Li618 O678 1.956 1_655 S
Li618 O679 1.970 . S
Li619 N669 1.990 . S
Li619 O677 1.961 . S
Li619 O678 1.970 . S
Li619 O679 1.956 1_455 S
C620 C622 1.348 . S
C620 C623 1.356 . S
C620 O676 1.325 . S
N621 C624 1.314 . S
N621 C625 1.279 . S
C622 C620 1.348 . S
C622 C624 1.353 . S
C622 H680 0.929 . S
C623 C620 1.356 . S
C623 C625 1.358 . S
C623 H681 0.930 . S
C624 N621 1.314 . S
C624 C622 1.353 . S
C624 H682 0.930 . S
C625 N621 1.279 . S
C625 C623 1.358 . S
C625 H683 0.930 . S
C626 C629 1.348 . S
C626 C630 1.356 . S
C626 O677 1.325 . S
C627 N628 1.279 . S
C627 C630 1.358 . S
C627 H684 0.930 . S
N628 C627 1.279 . S
N628 C631 1.314 . S
C629 C626 1.348 . S
C629 C631 1.353 . S
C629 H685 0.929 . S
C630 C626 1.356 . S
C630 C627 1.358 . S
C630 H686 0.930 . S
C631 N628 1.314 . S
C631 C629 1.353 . S
C631 H687 0.930 1_565 S
C632 N633 1.314 . S
C632 C637 1.353 . S
C632 H638 0.930 . S
N633 Li616 1.990 . S
N633 C632 1.314 . S
N633 C635 1.279 . S
C634 C635 1.358 . S
C634 C636 1.356 . S
C634 H688 0.930 1_565 S
C635 N633 1.279 . S
C635 C634 1.358 . S
C635 H639 0.930 1_455 S
C636 C634 1.356 . S
C636 C637 1.348 . S
C637 C632 1.353 . S
C637 C636 1.348 . S
C637 H689 0.929 . S
H638 C632 0.930 . S
H639 C635 0.930 1_655 S
C640 N641 1.314 . S
C640 C642 1.353 . S
C640 H646 0.930 . S
N641 Li617 1.990 . S
N641 C640 1.314 . S
N641 C644 1.279 . S
C642 C640 1.353 . S
C642 C645 1.348 . S
C642 H690 0.929 . S
C643 C644 1.358 . S
C643 C645 1.356 . S
C643 H691 0.930 . S
C644 N641 1.279 . S
C644 C643 1.358 . S
C644 H647 0.930 . S
C645 C642 1.348 . S
C645 C643 1.356 . S
H646 C640 0.930 . S
H647 C644 0.930 . S
C648 C650 1.348 . S
C648 C651 1.356 . S
C648 O678 1.325 . S
N649 C652 1.314 . S
N649 C653 1.279 . S
C650 C648 1.348 . S
C650 C652 1.353 . S
C650 H692 0.929 . S
C651 C648 1.356 . S
C651 C653 1.358 . S
C651 H693 0.930 . S
C652 N649 1.314 . S
C652 C650 1.353 . S
C652 H694 0.930 . S
C653 N649 1.279 . S
C653 C651 1.358 . S
C653 H695 0.930 . S
C654 C655 1.348 . S
C654 C656 1.356 . S
C654 O679 1.325 . S
C655 C654 1.348 . S
C655 C657 1.353 . S
C655 H696 0.929 . S
C656 C654 1.356 . S
C656 C658 1.358 . S
C656 H697 0.930 . S
C657 C655 1.353 . S
C657 N659 1.314 . S
C657 H698 0.930 . S
C658 C656 1.358 . S
C658 N659 1.279 . S
C658 H699 0.930 . S
N659 C657 1.314 . S
N659 C658 1.279 . S
C660 C662 1.353 . S
C660 N663 1.314 . S
C660 H666 0.930 . S
C661 N663 1.279 . S
C661 C664 1.358 . S
C661 H667 0.930 . S
C662 C660 1.353 . S
C662 C665 1.348 . S
C662 H700 0.929 . S
N663 Li618 1.990 . S
N663 C660 1.314 . S
N663 C661 1.279 . S
C664 C661 1.358 . S
C664 C665 1.356 . S
C664 H701 0.930 . S
C665 C662 1.348 . S
C665 C664 1.356 . S
H666 C660 0.930 . S
H667 C661 0.930 . S
C668 N669 1.314 . S
C668 C670 1.353 . S
C668 H674 0.930 . S
N669 Li619 1.990 . S
N669 C668 1.314 . S
N669 C672 1.279 . S
C670 C668 1.353 . S
C670 C673 1.348 . S
C670 H702 0.929 . S
C671 C672 1.358 . S
C671 C673 1.356 . S
C671 H703 0.930 . S
C672 N669 1.279 . S
C672 C671 1.358 . S
C672 H675 0.930 . S
C673 C670 1.348 . S
C673 C671 1.356 . S
H674 C668 0.930 . S
H675 C672 0.930 . S
O676 Li616 1.956 1_655 S
O676 Li617 1.970 . S
O676 Li618 1.961 . S
O676 C620 1.325 . S
O677 Li616 1.970 . S
O677 Li617 1.956 1_455 S
O677 Li619 1.961 . S
O677 C626 1.325 . S
O678 Li616 1.961 . S
O678 Li618 1.956 1_455 S
O678 Li619 1.970 . S
O678 C648 1.325 . S
O679 Li617 1.961 . S
O679 Li618 1.970 . S
O679 Li619 1.956 1_655 S
O679 C654 1.325 . S
H680 C622 0.929 . S
H681 C623 0.930 . S
H682 C624 0.930 . S
H683 C625 0.930 . S
H684 C627 0.930 . S
H685 C629 0.929 . S
H686 C630 0.930 . S
H687 C631 0.930 1_545 S
H688 C634 0.930 1_545 S
H689 C637 0.929 . S
H690 C642 0.929 . S
H691 C643 0.930 . S
H692 C650 0.929 . S
H693 C651 0.930 . S
H694 C652 0.930 . S
H695 C653 0.930 . S
H696 C655 0.929 . S
H697 C656 0.930 . S
H698 C657 0.930 . S
H699 C658 0.930 . S
H700 C662 0.929 . S
H701 C664 0.930 . S
H702 C670 0.929 . S
H703 C671 0.930 . S
Li704 N721 1.990 . S
Li704 O764 1.956 . S
Li704 O765 1.970 . S
Li704 O766 1.961 . S
Li705 N729 1.990 . S
Li705 O764 1.970 . S
Li705 O765 1.956 . S
Li705 O767 1.961 . S
Li706 N751 1.990 . S
Li706 O764 1.961 . S
Li706 O766 1.956 . S
Li706 O767 1.970 . S
Li707 N757 1.990 . S
Li707 O765 1.961 . S
Li707 O766 1.970 . S
Li707 O767 1.956 . S
C708 C710 1.348 . S
C708 C711 1.356 . S
C708 O764 1.325 . S
N709 C712 1.314 . S
N709 C713 1.279 . S
C710 C708 1.348 . S
C710 C712 1.353 . S
C710 H768 0.929 . S
C711 C708 1.356 . S
C711 C713 1.358 . S
C711 H769 0.930 . S
C712 N709 1.314 . S
C712 C710 1.353 . S
C712 H770 0.930 . S
C713 N709 1.279 . S
C713 C711 1.358 . S
C713 H771 0.930 1_545 S
C714 C717 1.348 . S
C714 C718 1.356 . S
C714 O765 1.325 . S
C715 N716 1.279 . S
C715 C718 1.358 . S
C715 H772 0.930 . S
N716 C715 1.279 . S
N716 C719 1.314 . S
C717 C714 1.348 . S
C717 C719 1.353 . S
C717 H773 0.929 . S
C718 C714 1.356 . S
C718 C715 1.358 . S
C718 H774 0.930 . S
C719 N716 1.314 . S
C719 C717 1.353 . S
C719 H775 0.930 . S
C720 N721 1.314 . S
C720 C725 1.353 . S
C720 H726 0.930 . S
N721 Li704 1.990 . S
N721 C720 1.314 . S
N721 C723 1.279 . S
C722 C723 1.358 . S
C722 C724 1.356 . S
C722 H776 0.930 . S
C723 N721 1.279 . S
C723 C722 1.358 . S
C723 H727 0.930 . S
C724 C722 1.356 . S
C724 C725 1.348 . S
C725 C720 1.353 . S
C725 C724 1.348 . S
C725 H777 0.929 . S
H726 C720 0.930 . S
H727 C723 0.930 . S
C728 N729 1.314 . S
C728 C730 1.353 . S
C728 H734 0.930 . S
N729 Li705 1.990 . S
N729 C728 1.314 . S
N729 C732 1.279 . S
C730 C728 1.353 . S
C730 C733 1.348 . S
C730 H778 0.929 . S
C731 C732 1.358 . S
C731 C733 1.356 . S
C731 H779 0.930 . S
C732 N729 1.279 . S
C732 C731 1.358 . S
C732 H735 0.930 . S
C733 C730 1.348 . S
C733 C731 1.356 . S
H734 C728 0.930 . S
H735 C732 0.930 . S
C736 C738 1.348 . S
C736 C739 1.356 . S
C736 O766 1.325 . S
N737 C740 1.314 . S
N737 C741 1.279 . S
C738 C736 1.348 . S
C738 C740 1.353 . S
C738 H780 0.929 . S
C739 C736 1.356 . S
C739 C741 1.358 . S
C739 H781 0.930 . S
C740 N737 1.314 . S
C740 C738 1.353 . S
C740 H782 0.930 . S
C741 N737 1.279 . S
C741 C739 1.358 . S
C741 H783 0.930 . S
C742 C743 1.348 . S
C742 C744 1.356 . S
C742 O767 1.325 . S
C743 C742 1.348 . S
C743 C745 1.353 . S
C743 H784 0.929 . S
C744 C742 1.356 . S
C744 C746 1.358 . S
C744 H785 0.930 . S
C745 C743 1.353 . S
C745 N747 1.314 . S
C745 H786 0.930 1_554 S
C746 C744 1.358 . S
C746 N747 1.279 . S
C746 H787 0.930 . S
N747 C745 1.314 . S
N747 C746 1.279 . S
C748 C750 1.353 . S
C748 N751 1.314 . S
C748 H754 0.930 . S
C749 N751 1.279 . S
C749 C752 1.358 . S
C749 H755 0.930 . S
C750 C748 1.353 . S
C750 C753 1.348 . S
C750 H788 0.929 . S
N751 Li706 1.990 . S
N751 C748 1.314 . S
N751 C749 1.279 . S
C752 C749 1.358 . S
C752 C753 1.356 . S
C752 H789 0.930 1_554 S
C753 C750 1.348 . S
C753 C752 1.356 . S
H754 C748 0.930 . S
H755 C749 0.930 . S
C756 N757 1.314 . S
C756 C758 1.353 . S
C756 H762 0.930 . S
N757 Li707 1.990 . S
N757 C756 1.314 . S
N757 C760 1.279 . S
C758 C756 1.353 . S
C758 C761 1.348 . S
C758 H790 0.929 . S
C759 C760 1.358 . S
C759 C761 1.356 . S
C759 H791 0.930 . S
C760 N757 1.279 . S
C760 C759 1.358 . S
C760 H763 0.930 . S
C761 C758 1.348 . S
C761 C759 1.356 . S
H762 C756 0.930 . S
H763 C760 0.930 . S
O764 Li704 1.956 . S
O764 Li705 1.970 . S
O764 Li706 1.961 . S
O764 C708 1.325 . S
O765 Li704 1.970 . S
O765 Li705 1.956 . S
O765 Li707 1.961 . S
O765 C714 1.325 . S
O766 Li704 1.961 . S
O766 Li706 1.956 . S
O766 Li707 1.970 . S
O766 C736 1.325 . S
O767 Li705 1.961 . S
O767 Li706 1.970 . S
O767 Li707 1.956 . S
O767 C742 1.325 . S
H768 C710 0.929 . S
H769 C711 0.930 . S
H770 C712 0.930 . S
H771 C713 0.930 1_565 S
H772 C715 0.930 . S
H773 C717 0.929 . S
H774 C718 0.930 . S
H775 C719 0.930 . S
H776 C722 0.930 . S
H777 C725 0.929 . S
H778 C730 0.929 . S
H779 C731 0.930 . S
H780 C738 0.929 . S
H781 C739 0.930 . S
H782 C740 0.930 . S
H783 C741 0.930 . S
H784 C743 0.929 . S
H785 C744 0.930 . S
H786 C745 0.930 1_556 S
H787 C746 0.930 . S
H788 C750 0.929 . S
H789 C752 0.930 1_556 S
H790 C758 0.929 . S
H791 C759 0.930 . S
Li792 N809 1.990 . S
Li792 O852 1.956 1_655 S
Li792 O853 1.970 . S
Li792 O854 1.961 . S
Li793 N817 1.990 . S
Li793 O852 1.970 . S
Li793 O853 1.956 1_455 S
Li793 O855 1.961 . S
Li794 N839 1.990 . S
Li794 O852 1.961 . S
Li794 O854 1.956 1_455 S
Li794 O855 1.970 . S
Li795 N845 1.990 . S
Li795 O853 1.961 . S
Li795 O854 1.970 . S
Li795 O855 1.956 1_655 S
C796 C798 1.348 . S
C796 C799 1.356 . S
C796 O852 1.325 . S
N797 C800 1.314 . S
N797 C801 1.279 . S
C798 C796 1.348 . S
C798 C800 1.353 . S
C798 H856 0.929 . S
C799 C796 1.356 . S
C799 C801 1.358 . S
C799 H857 0.930 . S
C800 N797 1.314 . S
C800 C798 1.353 . S
C800 H858 0.930 . S
C801 N797 1.279 . S
C801 C799 1.358 . S
C801 H859 0.930 . S
C802 C805 1.348 . S
C802 C806 1.356 . S
C802 O853 1.325 . S
C803 N804 1.279 . S
C803 C806 1.358 . S
C803 H860 0.930 . S
N804 C803 1.279 . S
N804 C807 1.314 . S
C805 C802 1.348 . S
C805 C807 1.353 . S
C805 H861 0.929 . S
C806 C802 1.356 . S
C806 C803 1.358 . S
C806 H862 0.930 . S
C807 N804 1.314 . S
C807 C805 1.353 . S
C807 H863 0.930 . S
C808 N809 1.314 . S
C808 C813 1.353 . S
C808 H814 0.930 . S
N809 Li792 1.990 . S
N809 C808 1.314 . S
N809 C811 1.279 . S
C810 C811 1.358 . S
C810 C812 1.356 . S
C810 H864 0.930 . S
C811 N809 1.279 . S
C811 C810 1.358 . S
C811 H815 0.930 . S
C812 C810 1.356 . S
C812 C813 1.348 . S
C813 C808 1.353 . S
C813 C812 1.348 . S
C813 H865 0.929 . S
H814 C808 0.930 . S
H815 C811 0.930 . S
C816 N817 1.314 . S
C816 C818 1.353 . S
C816 H822 0.930 . S
N817 Li793 1.990 . S
N817 C816 1.314 . S
N817 C820 1.279 . S
C818 C816 1.353 . S
C818 C821 1.348 . S
C818 H866 0.929 . S
C819 C820 1.358 . S
C819 C821 1.356 . S
C819 H867 0.930 . S
C820 N817 1.279 . S
C820 C819 1.358 . S
C820 H823 0.930 . S
C821 C818 1.348 . S
C821 C819 1.356 . S
H822 C816 0.930 . S
H823 C820 0.930 . S
C824 C826 1.348 . S
C824 C827 1.356 . S
C824 O854 1.325 . S
N825 C828 1.314 . S
N825 C829 1.279 . S
C826 C824 1.348 . S
C826 C828 1.353 . S
C826 H868 0.929 . S
C827 C824 1.356 . S
C827 C829 1.358 . S
C827 H869 0.930 . S
C828 N825 1.314 . S
C828 C826 1.353 . S
C828 H870 0.930 . S
C829 N825 1.279 . S
C829 C827 1.358 . S
C829 H871 0.930 . S
C830 C831 1.348 . S
C830 C832 1.356 . S
C830 O855 1.325 . S
C831 C830 1.348 . S
C831 C833 1.353 . S
C831 H872 0.929 . S
C832 C830 1.356 . S
C832 C834 1.358 . S
C832 H873 0.930 . S
C833 C831 1.353 . S
C833 N835 1.314 . S
C833 H874 0.930 . S
C834 C832 1.358 . S
C834 N835 1.279 . S
C834 H875 0.930 . S
N835 C833 1.314 . S
N835 C834 1.279 . S
C836 C838 1.353 . S
C836 N839 1.314 . S
C836 H842 0.930 . S
C837 N839 1.279 . S
C837 C840 1.358 . S
C837 H843 0.930 1_455 S
C838 C836 1.353 . S
C838 C841 1.348 . S
C838 H876 0.929 . S
N839 Li794 1.990 . S
N839 C836 1.314 . S
N839 C837 1.279 . S
C840 C837 1.358 . S
C840 C841 1.356 . S
C840 H877 0.930 . S
C841 C838 1.348 . S
C841 C840 1.356 . S
H842 C836 0.930 . S
H843 C837 0.930 1_655 S
C844 N845 1.314 . S
C844 C846 1.353 . S
C844 H850 0.930 . S
N845 Li795 1.990 . S
N845 C844 1.314 . S
N845 C848 1.279 . S
C846 C844 1.353 . S
C846 C849 1.348 . S
C846 H878 0.929 . S
C847 C848 1.358 . S
C847 C849 1.356 . S
C847 H879 0.930 . S
C848 N845 1.279 . S
C848 C847 1.358 . S
C848 H851 0.930 . S
C849 C846 1.348 . S
C849 C847 1.356 . S
H850 C844 0.930 . S
H851 C848 0.930 . S
O852 Li792 1.956 1_455 S
O852 Li793 1.970 . S
O852 Li794 1.961 . S
O852 C796 1.325 . S
O853 Li792 1.970 . S
O853 Li793 1.956 1_655 S
O853 Li795 1.961 . S
O853 C802 1.325 . S
O854 Li792 1.961 . S
O854 Li794 1.956 1_655 S
O854 Li795 1.970 . S
O854 C824 1.325 . S
O855 Li793 1.961 . S
O855 Li794 1.970 . S
O855 Li795 1.956 1_455 S
O855 C830 1.325 . S
H856 C798 0.929 . S
H857 C799 0.930 . S
H858 C800 0.930 . S
H859 C801 0.930 . S
H860 C803 0.930 . S
H861 C805 0.929 . S
H862 C806 0.930 . S
H863 C807 0.930 . S
H864 C810 0.930 . S
H865 C813 0.929 . S
H866 C818 0.929 . S
H867 C819 0.930 . S
H868 C826 0.929 . S
H869 C827 0.930 . S
H870 C828 0.930 . S
H871 C829 0.930 . S
H872 C831 0.929 . S
H873 C832 0.930 . S
H874 C833 0.930 . S
H875 C834 0.930 . S
H876 C838 0.929 . S
H877 C840 0.930 . S
H878 C846 0.929 . S
H879 C847 0.930 . S
Li880 N897 1.990 . S
Li880 O940 1.956 . S
Li880 O941 1.970 . S
Li880 O942 1.961 . S
Li881 N905 1.990 . S
Li881 O940 1.970 . S
Li881 O941 1.956 . S
Li881 O943 1.961 . S
Li882 N927 1.990 . S
Li882 O940 1.961 . S
Li882 O942 1.956 . S
Li882 O943 1.970 . S
Li883 N933 1.990 . S
Li883 O941 1.961 . S
Li883 O942 1.970 . S
Li883 O943 1.956 . S
C884 C886 1.348 . S
C884 C887 1.356 . S
C884 O940 1.325 . S
N885 C888 1.314 . S
N885 C889 1.279 . S
C886 C884 1.348 . S
C886 C888 1.353 . S
C886 H944 0.929 . S
C887 C884 1.356 . S
C887 C889 1.358 . S
C887 H945 0.930 . S
C888 N885 1.314 . S
C888 C886 1.353 . S
C888 H946 0.930 . S
C889 N885 1.279 . S
C889 C887 1.358 . S
C889 H947 0.930 . S
C890 C893 1.348 . S
C890 C894 1.356 . S
C890 O941 1.325 . S
C891 N892 1.279 . S
C891 C894 1.358 . S
C891 H948 0.930 . S
N892 C891 1.279 . S
N892 C895 1.314 . S
C893 C890 1.348 . S
C893 C895 1.353 . S
C893 H949 0.929 . S
C894 C890 1.356 . S
C894 C891 1.358 . S
C894 H950 0.930 . S
C895 N892 1.314 . S
C895 C893 1.353 . S
C895 H951 0.930 . S
C896 N897 1.314 . S
C896 C901 1.353 . S
C896 H902 0.930 . S
N897 Li880 1.990 . S
N897 C896 1.314 . S
N897 C899 1.279 . S
C898 C899 1.358 . S
C898 C900 1.356 . S
C898 H952 0.930 . S
C899 N897 1.279 . S
C899 C898 1.358 . S
C899 H903 0.930 . S
C900 C898 1.356 . S
C900 C901 1.348 . S
C901 C896 1.353 . S
C901 C900 1.348 . S
C901 H953 0.929 . S
H902 C896 0.930 . S
H903 C899 0.930 . S
C904 N905 1.314 . S
C904 C906 1.353 . S
C904 H910 0.930 . S
N905 Li881 1.990 . S
N905 C904 1.314 . S
N905 C908 1.279 . S
C906 C904 1.353 . S
C906 C909 1.348 . S
C906 H954 0.929 . S
C907 C908 1.358 . S
C907 C909 1.356 . S
C907 H955 0.930 . S
C908 N905 1.279 . S
C908 C907 1.358 . S
C908 H911 0.930 . S
C909 C906 1.348 . S
C909 C907 1.356 . S
H910 C904 0.930 . S
H911 C908 0.930 . S
C912 C914 1.348 . S
C912 C915 1.356 . S
C912 O942 1.325 . S
N913 C916 1.314 . S
N913 C917 1.279 . S
C914 C912 1.348 . S
C914 C916 1.353 . S
C914 H956 0.929 . S
C915 C912 1.356 . S
C915 C917 1.358 . S
C915 H957 0.930 . S
C916 N913 1.314 . S
C916 C914 1.353 . S
C916 H958 0.930 . S
C917 N913 1.279 . S
C917 C915 1.358 . S
C917 H959 0.930 . S
C918 C919 1.348 . S
C918 C920 1.356 . S
C918 O943 1.325 . S
C919 C918 1.348 . S
C919 C921 1.353 . S
C919 H960 0.929 . S
C920 C918 1.356 . S
C920 C922 1.358 . S
C920 H961 0.930 . S
C921 C919 1.353 . S
C921 N923 1.314 . S
C921 H962 0.930 . S
C922 C920 1.358 . S
C922 N923 1.279 . S
C922 H963 0.930 . S
N923 C921 1.314 . S
N923 C922 1.279 . S
C924 C926 1.353 . S
C924 N927 1.314 . S
C924 H930 0.930 . S
C925 N927 1.279 . S
C925 C928 1.358 . S
C925 H931 0.930 . S
C926 C924 1.353 . S
C926 C929 1.348 . S
C926 H964 0.929 . S
N927 Li882 1.990 . S
N927 C924 1.314 . S
N927 C925 1.279 . S
C928 C925 1.358 . S
C928 C929 1.356 . S
C928 H965 0.930 . S
C929 C926 1.348 . S
C929 C928 1.356 . S
H930 C924 0.930 . S
H931 C925 0.930 . S
C932 N933 1.314 . S
C932 C934 1.353 . S
C932 H938 0.930 . S
N933 Li883 1.990 . S
N933 C932 1.314 . S
N933 C936 1.279 . S
C934 C932 1.353 . S
C934 C937 1.348 . S
C934 H966 0.929 . S
C935 C936 1.358 . S
C935 C937 1.356 . S
C935 H967 0.930 . S
C936 N933 1.279 . S
C936 C935 1.358 . S
C936 H939 0.930 . S
C937 C934 1.348 . S
C937 C935 1.356 . S
H938 C932 0.930 . S
H939 C936 0.930 . S
O940 Li880 1.956 . S
O940 Li881 1.970 . S
O940 Li882 1.961 . S
O940 C884 1.325 . S
O941 Li880 1.970 . S
O941 Li881 1.956 . S
O941 Li883 1.961 . S
O941 C890 1.325 . S
O942 Li880 1.961 . S
O942 Li882 1.956 . S
O942 Li883 1.970 . S
O942 C912 1.325 . S
O943 Li881 1.961 . S
O943 Li882 1.970 . S
O943 Li883 1.956 . S
O943 C918 1.325 . S
H944 C886 0.929 . S
H945 C887 0.930 . S
H946 C888 0.930 . S
H947 C889 0.930 . S
H948 C891 0.930 . S
H949 C893 0.929 . S
H950 C894 0.930 . S
H951 C895 0.930 . S
H952 C898 0.930 . S
H953 C901 0.929 . S
H954 C906 0.929 . S
H955 C907 0.930 . S
H956 C914 0.929 . S
H957 C915 0.930 . S
H958 C916 0.930 . S
H959 C917 0.930 . S
H960 C919 0.929 . S
H961 C920 0.930 . S
H962 C921 0.930 . S
H963 C922 0.930 . S
H964 C926 0.929 . S
H965 C928 0.930 . S
H966 C934 0.929 . S
H967 C935 0.930 . S
Li968 N985 1.990 . S
Li968 O1028 1.956 . S
Li968 O1029 1.970 . S
Li968 O1030 1.961 . S
Li969 N993 1.990 . S
Li969 O1028 1.970 . S
Li969 O1029 1.956 . S
Li969 O1031 1.961 . S
Li970 N1015 1.990 . S
Li970 O1028 1.961 . S
Li970 O1030 1.956 . S
Li970 O1031 1.970 . S
Li971 N1021 1.990 . S
Li971 O1029 1.961 . S
Li971 O1030 1.970 . S
Li971 O1031 1.956 . S
C972 C974 1.348 . S
C972 C975 1.356 . S
C972 O1028 1.325 . S
N973 C976 1.314 . S
N973 C977 1.279 . S
C974 C972 1.348 . S
C974 C976 1.353 . S
C974 H1032 0.929 . S
C975 C972 1.356 . S
C975 C977 1.358 . S
C975 H1033 0.930 . S
C976 N973 1.314 . S
C976 C974 1.353 . S
C976 H1034 0.930 . S
C977 N973 1.279 . S
C977 C975 1.358 . S
C977 H1035 0.930 . S
C978 C981 1.348 . S
C978 C982 1.356 . S
C978 O1029 1.325 . S
C979 N980 1.279 . S
C979 C982 1.358 . S
C979 H1036 0.930 . S
N980 C979 1.279 . S
N980 C983 1.314 . S
C981 C978 1.348 . S
C981 C983 1.353 . S
C981 H1037 0.929 . S
C982 C978 1.356 . S
C982 C979 1.358 . S
C982 H1038 0.930 . S
C983 N980 1.314 . S
C983 C981 1.353 . S
C983 H1039 0.930 . S
C984 N985 1.314 . S
C984 C989 1.353 . S
C984 H990 0.930 . S
N985 Li968 1.990 . S
N985 C984 1.314 . S
N985 C987 1.279 . S
C986 C987 1.358 . S
C986 C988 1.356 . S
C986 H1040 0.930 . S
C987 N985 1.279 . S
C987 C986 1.358 . S
C987 H991 0.930 . S
C988 C986 1.356 . S
C988 C989 1.348 . S
C989 C984 1.353 . S
C989 C988 1.348 . S
C989 H1041 0.929 . S
H990 C984 0.930 . S
H991 C987 0.930 . S
C992 N993 1.314 . S
C992 C994 1.353 . S
C992 H998 0.930 . S
N993 Li969 1.990 . S
N993 C992 1.314 . S
N993 C996 1.279 . S
C994 C992 1.353 . S
C994 C997 1.348 . S
C994 H1042 0.929 . S
C995 C996 1.358 . S
C995 C997 1.356 . S
C995 H1043 0.930 . S
C996 N993 1.279 . S
C996 C995 1.358 . S
C996 H999 0.930 . S
C997 C994 1.348 . S
C997 C995 1.356 . S
H998 C992 0.930 . S
H999 C996 0.930 . S
C1000 C1002 1.348 . S
C1000 C1003 1.356 . S
C1000 O1030 1.325 . S
N1001 C1004 1.314 . S
N1001 C1005 1.279 . S
C1002 C1000 1.348 . S
C1002 C1004 1.353 . S
C1002 H1044 0.929 . S
C1003 C1000 1.356 . S
C1003 C1005 1.358 . S
C1003 H1045 0.930 . S
C1004 N1001 1.314 . S
C1004 C1002 1.353 . S
C1004 H1046 0.930 . S
C1005 N1001 1.279 . S
C1005 C1003 1.358 . S
C1005 H1047 0.930 . S
C1006 C1007 1.348 . S
C1006 C1008 1.356 . S
C1006 O1031 1.325 . S
C1007 C1006 1.348 . S
C1007 C1009 1.353 . S
C1007 H1048 0.929 . S
C1008 C1006 1.356 . S
C1008 C1010 1.358 . S
C1008 H1049 0.930 . S
C1009 C1007 1.353 . S
C1009 N1011 1.314 . S
C1009 H1050 0.930 . S
C1010 C1008 1.358 . S
C1010 N1011 1.279 . S
C1010 H1051 0.930 . S
N1011 C1009 1.314 . S
N1011 C1010 1.279 . S
C1012 C1014 1.353 . S
C1012 N1015 1.314 . S
C1012 H1018 0.930 . S
C1013 N1015 1.279 . S
C1013 C1016 1.358 . S
C1013 H1019 0.930 . S
C1014 C1012 1.353 . S
C1014 C1017 1.348 . S
C1014 H1052 0.929 . S
N1015 Li970 1.990 . S
N1015 C1012 1.314 . S
N1015 C1013 1.279 . S
C1016 C1013 1.358 . S
C1016 C1017 1.356 . S
C1016 H1053 0.930 . S
C1017 C1014 1.348 . S
C1017 C1016 1.356 . S
H1018 C1012 0.930 . S
H1019 C1013 0.930 . S
C1020 N1021 1.314 . S
C1020 C1022 1.353 . S
C1020 H1026 0.930 . S
N1021 Li971 1.990 . S
N1021 C1020 1.314 . S
N1021 C1024 1.279 . S
C1022 C1020 1.353 . S
C1022 C1025 1.348 . S
C1022 H1054 0.929 . S
C1023 C1024 1.358 . S
C1023 C1025 1.356 . S
C1023 H1055 0.930 . S
C1024 N1021 1.279 . S
C1024 C1023 1.358 . S
C1024 H1027 0.930 . S
C1025 C1022 1.348 . S
C1025 C1023 1.356 . S
H1026 C1020 0.930 . S
H1027 C1024 0.930 . S
O1028 Li968 1.956 . S
O1028 Li969 1.970 . S
O1028 Li970 1.961 . S
O1028 C972 1.325 . S
O1029 Li968 1.970 . S
O1029 Li969 1.956 . S
O1029 Li971 1.961 . S
O1029 C978 1.325 . S
O1030 Li968 1.961 . S
O1030 Li970 1.956 . S
O1030 Li971 1.970 . S
O1030 C1000 1.325 . S
O1031 Li969 1.961 . S
O1031 Li970 1.970 . S
O1031 Li971 1.956 . S
O1031 C1006 1.325 . S
H1032 C974 0.929 . S
H1033 C975 0.930 . S
H1034 C976 0.930 . S
H1035 C977 0.930 . S
H1036 C979 0.930 . S
H1037 C981 0.929 . S
H1038 C982 0.930 . S
H1039 C983 0.930 . S
H1040 C986 0.930 . S
H1041 C989 0.929 . S
H1042 C994 0.929 . S
H1043 C995 0.930 . S
H1044 C1002 0.929 . S
H1045 C1003 0.930 . S
H1046 C1004 0.930 . S
H1047 C1005 0.930 . S
H1048 C1007 0.929 . S
H1049 C1008 0.930 . S
H1050 C1009 0.930 . S
H1051 C1010 0.930 . S
H1052 C1014 0.929 . S
H1053 C1016 0.930 . S
H1054 C1022 0.929 . S
H1055 C1023 0.930 . S
Li1056 N1073 1.990 . S
Li1056 O1116 1.956 . S
Li1056 O1117 1.970 . S
Li1056 O1118 1.961 . S
Li1057 N1081 1.990 . S
Li1057 O1116 1.970 . S
Li1057 O1117 1.956 . S
Li1057 O1119 1.961 . S
Li1058 N1103 1.990 . S
Li1058 O1116 1.961 . S
Li1058 O1118 1.956 . S
Li1058 O1119 1.970 . S
Li1059 N1109 1.990 . S
Li1059 O1117 1.961 . S
Li1059 O1118 1.970 . S
Li1059 O1119 1.956 . S
C1060 C1062 1.348 . S
C1060 C1063 1.356 . S
C1060 O1116 1.325 . S
N1061 C1064 1.314 . S
N1061 C1065 1.279 . S
C1062 C1060 1.348 . S
C1062 C1064 1.353 . S
C1062 H1120 0.929 . S
C1063 C1060 1.356 . S
C1063 C1065 1.358 . S
C1063 H1121 0.930 . S
C1064 N1061 1.314 . S
C1064 C1062 1.353 . S
C1064 H1122 0.930 . S
C1065 N1061 1.279 . S
C1065 C1063 1.358 . S
C1065 H1123 0.930 . S
C1066 C1069 1.348 . S
C1066 C1070 1.356 . S
C1066 O1117 1.325 . S
C1067 N1068 1.279 . S
C1067 C1070 1.358 . S
C1067 H1124 0.930 . S
N1068 C1067 1.279 . S
N1068 C1071 1.314 . S
C1069 C1066 1.348 . S
C1069 C1071 1.353 . S
C1069 H1125 0.929 . S
C1070 C1066 1.356 . S
C1070 C1067 1.358 . S
C1070 H1126 0.930 . S
C1071 N1068 1.314 . S
C1071 C1069 1.353 . S
C1071 H1127 0.930 . S
C1072 N1073 1.314 . S
C1072 C1077 1.353 . S
C1072 H1078 0.930 . S
N1073 Li1056 1.990 . S
N1073 C1072 1.314 . S
N1073 C1075 1.279 . S
C1074 C1075 1.358 . S
C1074 C1076 1.356 . S
C1074 H1128 0.930 . S
C1075 N1073 1.279 . S
C1075 C1074 1.358 . S
C1075 H1079 0.930 . S
C1076 C1074 1.356 . S
C1076 C1077 1.348 . S
C1077 C1072 1.353 . S
C1077 C1076 1.348 . S
C1077 H1129 0.929 . S
H1078 C1072 0.930 . S
H1079 C1075 0.930 . S
C1080 N1081 1.314 . S
C1080 C1082 1.353 . S
C1080 H1086 0.930 . S
N1081 Li1057 1.990 . S
N1081 C1080 1.314 . S
N1081 C1084 1.279 . S
C1082 C1080 1.353 . S
C1082 C1085 1.348 . S
C1082 H1130 0.929 . S
C1083 C1084 1.358 . S
C1083 C1085 1.356 . S
C1083 H1131 0.930 . S
C1084 N1081 1.279 . S
C1084 C1083 1.358 . S
C1084 H1087 0.930 . S
C1085 C1082 1.348 . S
C1085 C1083 1.356 . S
H1086 C1080 0.930 . S
H1087 C1084 0.930 . S
C1088 C1090 1.348 . S
C1088 C1091 1.356 . S
C1088 O1118 1.325 . S
N1089 C1092 1.314 . S
N1089 C1093 1.279 . S
C1090 C1088 1.348 . S
C1090 C1092 1.353 . S
C1090 H1132 0.929 . S
C1091 C1088 1.356 . S
C1091 C1093 1.358 . S
C1091 H1133 0.930 . S
C1092 N1089 1.314 . S
C1092 C1090 1.353 . S
C1092 H1134 0.930 . S
C1093 N1089 1.279 . S
C1093 C1091 1.358 . S
C1093 H1135 0.930 . S
C1094 C1095 1.348 . S
C1094 C1096 1.356 . S
C1094 O1119 1.325 . S
C1095 C1094 1.348 . S
C1095 C1097 1.353 . S
C1095 H1136 0.929 . S
C1096 C1094 1.356 . S
C1096 C1098 1.358 . S
C1096 H1137 0.930 . S
C1097 C1095 1.353 . S
C1097 N1099 1.314 . S
C1097 H1138 0.930 . S
C1098 C1096 1.358 . S
C1098 N1099 1.279 . S
C1098 H1139 0.930 . S
N1099 C1097 1.314 . S
N1099 C1098 1.279 . S
C1100 C1102 1.353 . S
C1100 N1103 1.314 . S
C1100 H1106 0.930 . S
C1101 N1103 1.279 . S
C1101 C1104 1.358 . S
C1101 H1107 0.930 . S
C1102 C1100 1.353 . S
C1102 C1105 1.348 . S
C1102 H1140 0.929 . S
N1103 Li1058 1.990 . S
N1103 C1100 1.314 . S
N1103 C1101 1.279 . S
C1104 C1101 1.358 . S
C1104 C1105 1.356 . S
C1104 H1141 0.930 . S
C1105 C1102 1.348 . S
C1105 C1104 1.356 . S
H1106 C1100 0.930 . S
H1107 C1101 0.930 . S
C1108 N1109 1.314 . S
C1108 C1110 1.353 . S
C1108 H1114 0.930 . S
N1109 Li1059 1.990 . S
N1109 C1108 1.314 . S
N1109 C1112 1.279 . S
C1110 C1108 1.353 . S
C1110 C1113 1.348 . S
C1110 H1142 0.929 . S
C1111 C1112 1.358 . S
C1111 C1113 1.356 . S
C1111 H1143 0.930 . S
C1112 N1109 1.279 . S
C1112 C1111 1.358 . S
C1112 H1115 0.930 . S
C1113 C1110 1.348 . S
C1113 C1111 1.356 . S
H1114 C1108 0.930 . S
H1115 C1112 0.930 . S
O1116 Li1056 1.956 . S
O1116 Li1057 1.970 . S
O1116 Li1058 1.961 . S
O1116 C1060 1.325 . S
O1117 Li1056 1.970 . S
O1117 Li1057 1.956 . S
O1117 Li1059 1.961 . S
O1117 C1066 1.325 . S
O1118 Li1056 1.961 . S
O1118 Li1058 1.956 . S
O1118 Li1059 1.970 . S
O1118 C1088 1.325 . S
O1119 Li1057 1.961 . S
O1119 Li1058 1.970 . S
O1119 Li1059 1.956 . S
O1119 C1094 1.325 . S
H1120 C1062 0.929 . S
H1121 C1063 0.930 . S
H1122 C1064 0.930 . S
H1123 C1065 0.930 . S
H1124 C1067 0.930 . S
H1125 C1069 0.929 . S
H1126 C1070 0.930 . S
H1127 C1071 0.930 . S
H1128 C1074 0.930 . S
H1129 C1077 0.929 . S
H1130 C1082 0.929 . S
H1131 C1083 0.930 . S
H1132 C1090 0.929 . S
H1133 C1091 0.930 . S
H1134 C1092 0.930 . S
H1135 C1093 0.930 . S
H1136 C1095 0.929 . S
H1137 C1096 0.930 . S
H1138 C1097 0.930 . S
H1139 C1098 0.930 . S
H1140 C1102 0.929 . S
H1141 C1104 0.930 . S
H1142 C1110 0.929 . S
H1143 C1111 0.930 . S
Li1144 N1161 1.990 . S
Li1144 O1204 1.956 . S
Li1144 O1205 1.970 . S
Li1144 O1206 1.961 . S
Li1145 N1169 1.990 . S
Li1145 O1204 1.970 . S
Li1145 O1205 1.956 . S
Li1145 O1207 1.961 . S
Li1146 N1191 1.990 . S
Li1146 O1204 1.961 . S
Li1146 O1206 1.956 . S
Li1146 O1207 1.970 . S
Li1147 N1197 1.990 . S
Li1147 O1205 1.961 . S
Li1147 O1206 1.970 . S
Li1147 O1207 1.956 . S
C1148 C1150 1.348 . S
C1148 C1151 1.356 . S
C1148 O1204 1.325 . S
N1149 C1152 1.314 . S
N1149 C1153 1.279 . S
C1150 C1148 1.348 . S
C1150 C1152 1.353 . S
C1150 H1208 0.929 . S
C1151 C1148 1.356 . S
C1151 C1153 1.358 . S
C1151 H1209 0.930 . S
C1152 N1149 1.314 . S
C1152 C1150 1.353 . S
C1152 H1210 0.930 . S
C1153 N1149 1.279 . S
C1153 C1151 1.358 . S
C1153 H1211 0.930 . S
C1154 C1157 1.348 . S
C1154 C1158 1.356 . S
C1154 O1205 1.325 . S
C1155 N1156 1.279 . S
C1155 C1158 1.358 . S
C1155 H1212 0.930 . S
N1156 C1155 1.279 . S
N1156 C1159 1.314 . S
C1157 C1154 1.348 . S
C1157 C1159 1.353 . S
C1157 H1213 0.929 . S
C1158 C1154 1.356 . S
C1158 C1155 1.358 . S
C1158 H1214 0.930 . S
C1159 N1156 1.314 . S
C1159 C1157 1.353 . S
C1159 H1215 0.930 . S
C1160 N1161 1.314 . S
C1160 C1165 1.353 . S
C1160 H1166 0.930 . S
N1161 Li1144 1.990 . S
N1161 C1160 1.314 . S
N1161 C1163 1.279 . S
C1162 C1163 1.358 . S
C1162 C1164 1.356 . S
C1162 H1216 0.930 . S
C1163 N1161 1.279 . S
C1163 C1162 1.358 . S
C1163 H1167 0.930 . S
C1164 C1162 1.356 . S
C1164 C1165 1.348 . S
C1165 C1160 1.353 . S
C1165 C1164 1.348 . S
C1165 H1217 0.929 . S
H1166 C1160 0.930 . S
H1167 C1163 0.930 . S
C1168 N1169 1.314 . S
C1168 C1170 1.353 . S
C1168 H1174 0.930 . S
N1169 Li1145 1.990 . S
N1169 C1168 1.314 . S
N1169 C1172 1.279 . S
C1170 C1168 1.353 . S
C1170 C1173 1.348 . S
C1170 H1218 0.929 . S
C1171 C1172 1.358 . S
C1171 C1173 1.356 . S
C1171 H1219 0.930 . S
C1172 N1169 1.279 . S
C1172 C1171 1.358 . S
C1172 H1175 0.930 . S
C1173 C1170 1.348 . S
C1173 C1171 1.356 . S
H1174 C1168 0.930 . S
H1175 C1172 0.930 . S
C1176 C1178 1.348 . S
C1176 C1179 1.356 . S
C1176 O1206 1.325 . S
N1177 C1180 1.314 . S
N1177 C1181 1.279 . S
C1178 C1176 1.348 . S
C1178 C1180 1.353 . S
C1178 H1220 0.929 . S
C1179 C1176 1.356 . S
C1179 C1181 1.358 . S
C1179 H1221 0.930 . S
C1180 N1177 1.314 . S
C1180 C1178 1.353 . S
C1180 H1222 0.930 . S
C1181 N1177 1.279 . S
C1181 C1179 1.358 . S
C1181 H1223 0.930 . S
C1182 C1183 1.348 . S
C1182 C1184 1.356 . S
C1182 O1207 1.325 . S
C1183 C1182 1.348 . S
C1183 C1185 1.353 . S
C1183 H1224 0.929 . S
C1184 C1182 1.356 . S
C1184 C1186 1.358 . S
C1184 H1225 0.930 . S
C1185 C1183 1.353 . S
C1185 N1187 1.314 . S
C1185 H1226 0.930 . S
C1186 C1184 1.358 . S
C1186 N1187 1.279 . S
C1186 H1227 0.930 . S
N1187 C1185 1.314 . S
N1187 C1186 1.279 . S
C1188 C1190 1.353 . S
C1188 N1191 1.314 . S
C1188 H1194 0.930 . S
C1189 N1191 1.279 . S
C1189 C1192 1.358 . S
C1189 H1195 0.930 . S
C1190 C1188 1.353 . S
C1190 C1193 1.348 . S
C1190 H1228 0.929 . S
N1191 Li1146 1.990 . S
N1191 C1188 1.314 . S
N1191 C1189 1.279 . S
C1192 C1189 1.358 . S
C1192 C1193 1.356 . S
C1192 H1229 0.930 . S
C1193 C1190 1.348 . S
C1193 C1192 1.356 . S
H1194 C1188 0.930 . S
H1195 C1189 0.930 . S
C1196 N1197 1.314 . S
C1196 C1198 1.353 . S
C1196 H1202 0.930 . S
N1197 Li1147 1.990 . S
N1197 C1196 1.314 . S
N1197 C1200 1.279 . S
C1198 C1196 1.353 . S
C1198 C1201 1.348 . S
C1198 H1230 0.929 . S
C1199 C1200 1.358 . S
C1199 C1201 1.356 . S
C1199 H1231 0.930 . S
C1200 N1197 1.279 . S
C1200 C1199 1.358 . S
C1200 H1203 0.930 . S
C1201 C1198 1.348 . S
C1201 C1199 1.356 . S
H1202 C1196 0.930 . S
H1203 C1200 0.930 . S
O1204 Li1144 1.956 . S
O1204 Li1145 1.970 . S
O1204 Li1146 1.961 . S
O1204 C1148 1.325 . S
O1205 Li1144 1.970 . S
O1205 Li1145 1.956 . S
O1205 Li1147 1.961 . S
O1205 C1154 1.325 . S
O1206 Li1144 1.961 . S
O1206 Li1146 1.956 . S
O1206 Li1147 1.970 . S
O1206 C1176 1.325 . S
O1207 Li1145 1.961 . S
O1207 Li1146 1.970 . S
O1207 Li1147 1.956 . S
O1207 C1182 1.325 . S
H1208 C1150 0.929 . S
H1209 C1151 0.930 . S
H1210 C1152 0.930 . S
H1211 C1153 0.930 . S
H1212 C1155 0.930 . S
H1213 C1157 0.929 . S
H1214 C1158 0.930 . S
H1215 C1159 0.930 . S
H1216 C1162 0.930 . S
H1217 C1165 0.929 . S
H1218 C1170 0.929 . S
H1219 C1171 0.930 . S
H1220 C1178 0.929 . S
H1221 C1179 0.930 . S
H1222 C1180 0.930 . S
H1223 C1181 0.930 . S
H1224 C1183 0.929 . S
H1225 C1184 0.930 . S
H1226 C1185 0.930 . S
H1227 C1186 0.930 . S
H1228 C1190 0.929 . S
H1229 C1192 0.930 . S
H1230 C1198 0.929 . S
H1231 C1199 0.930 . S
Li1232 N1249 1.990 . S
Li1232 O1292 1.956 . S
Li1232 O1293 1.970 . S
Li1232 O1294 1.961 . S
Li1233 N1257 1.990 . S
Li1233 O1292 1.970 . S
Li1233 O1293 1.956 . S
Li1233 O1295 1.961 . S
Li1234 N1279 1.990 . S
Li1234 O1292 1.961 . S
Li1234 O1294 1.956 . S
Li1234 O1295 1.970 . S
Li1235 N1285 1.990 . S
Li1235 O1293 1.961 . S
Li1235 O1294 1.970 . S
Li1235 O1295 1.956 . S
C1236 C1238 1.348 . S
C1236 C1239 1.356 . S
C1236 O1292 1.325 . S
N1237 C1240 1.314 . S
N1237 C1241 1.279 . S
C1238 C1236 1.348 . S
C1238 C1240 1.353 . S
C1238 H1296 0.929 . S
C1239 C1236 1.356 . S
C1239 C1241 1.358 . S
C1239 H1297 0.930 . S
C1240 N1237 1.314 . S
C1240 C1238 1.353 . S
C1240 H1298 0.930 . S
C1241 N1237 1.279 . S
C1241 C1239 1.358 . S
C1241 H1299 0.930 . S
C1242 C1245 1.348 . S
C1242 C1246 1.356 . S
C1242 O1293 1.325 . S
C1243 N1244 1.279 . S
C1243 C1246 1.358 . S
C1243 H1300 0.930 . S
N1244 C1243 1.279 . S
N1244 C1247 1.314 . S
C1245 C1242 1.348 . S
C1245 C1247 1.353 . S
C1245 H1301 0.929 . S
C1246 C1242 1.356 . S
C1246 C1243 1.358 . S
C1246 H1302 0.930 . S
C1247 N1244 1.314 . S
C1247 C1245 1.353 . S
C1247 H1303 0.930 . S
C1248 N1249 1.314 . S
C1248 C1253 1.353 . S
C1248 H1254 0.930 . S
N1249 Li1232 1.990 . S
N1249 C1248 1.314 . S
N1249 C1251 1.279 . S
C1250 C1251 1.358 . S
C1250 C1252 1.356 . S
C1250 H1304 0.930 . S
C1251 N1249 1.279 . S
C1251 C1250 1.358 . S
C1251 H1255 0.930 . S
C1252 C1250 1.356 . S
C1252 C1253 1.348 . S
C1253 C1248 1.353 . S
C1253 C1252 1.348 . S
C1253 H1305 0.929 . S
H1254 C1248 0.930 . S
H1255 C1251 0.930 . S
C1256 N1257 1.314 . S
C1256 C1258 1.353 . S
C1256 H1262 0.930 . S
N1257 Li1233 1.990 . S
N1257 C1256 1.314 . S
N1257 C1260 1.279 . S
C1258 C1256 1.353 . S
C1258 C1261 1.348 . S
C1258 H1306 0.929 . S
C1259 C1260 1.358 . S
C1259 C1261 1.356 . S
C1259 H1307 0.930 . S
C1260 N1257 1.279 . S
C1260 C1259 1.358 . S
C1260 H1263 0.930 . S
C1261 C1258 1.348 . S
C1261 C1259 1.356 . S
H1262 C1256 0.930 . S
H1263 C1260 0.930 . S
C1264 C1266 1.348 . S
C1264 C1267 1.356 . S
C1264 O1294 1.325 . S
N1265 C1268 1.314 . S
N1265 C1269 1.279 . S
C1266 C1264 1.348 . S
C1266 C1268 1.353 . S
C1266 H1308 0.929 . S
C1267 C1264 1.356 . S
C1267 C1269 1.358 . S
C1267 H1309 0.930 . S
C1268 N1265 1.314 . S
C1268 C1266 1.353 . S
C1268 H1310 0.930 . S
C1269 N1265 1.279 . S
C1269 C1267 1.358 . S
C1269 H1311 0.930 . S
C1270 C1271 1.348 . S
C1270 C1272 1.356 . S
C1270 O1295 1.325 . S
C1271 C1270 1.348 . S
C1271 C1273 1.353 . S
C1271 H1312 0.929 . S
C1272 C1270 1.356 . S
C1272 C1274 1.358 . S
C1272 H1313 0.930 . S
C1273 C1271 1.353 . S
C1273 N1275 1.314 . S
C1273 H1314 0.930 . S
C1274 C1272 1.358 . S
C1274 N1275 1.279 . S
C1274 H1315 0.930 1_545 S
N1275 C1273 1.314 . S
N1275 C1274 1.279 . S
C1276 C1278 1.353 . S
C1276 N1279 1.314 . S
C1276 H1282 0.930 . S
C1277 N1279 1.279 . S
C1277 C1280 1.358 . S
C1277 H1283 0.930 . S
C1278 C1276 1.353 . S
C1278 C1281 1.348 . S
C1278 H1316 0.929 . S
N1279 Li1234 1.990 . S
N1279 C1276 1.314 . S
N1279 C1277 1.279 . S
C1280 C1277 1.358 . S
C1280 C1281 1.356 . S
C1280 H1317 0.930 . S
C1281 C1278 1.348 . S
C1281 C1280 1.356 . S
H1282 C1276 0.930 . S
H1283 C1277 0.930 . S
C1284 N1285 1.314 . S
C1284 C1286 1.353 . S
C1284 H1290 0.930 . S
N1285 Li1235 1.990 . S
N1285 C1284 1.314 . S
N1285 C1288 1.279 . S
C1286 C1284 1.353 . S
C1286 C1289 1.348 . S
C1286 H1318 0.929 . S
C1287 C1288 1.358 . S
C1287 C1289 1.356 . S
C1287 H1319 0.930 . S
C1288 N1285 1.279 . S
C1288 C1287 1.358 . S
C1288 H1291 0.930 . S
C1289 C1286 1.348 . S
C1289 C1287 1.356 . S
H1290 C1284 0.930 . S
H1291 C1288 0.930 . S
O1292 Li1232 1.956 . S
O1292 Li1233 1.970 . S
O1292 Li1234 1.961 . S
O1292 C1236 1.325 . S
O1293 Li1232 1.970 . S
O1293 Li1233 1.956 . S
O1293 Li1235 1.961 . S
O1293 C1242 1.325 . S
O1294 Li1232 1.961 . S
O1294 Li1234 1.956 . S
O1294 Li1235 1.970 . S
O1294 C1264 1.325 . S
O1295 Li1233 1.961 . S
O1295 Li1234 1.970 . S
O1295 Li1235 1.956 . S
O1295 C1270 1.325 . S
H1296 C1238 0.929 . S
H1297 C1239 0.930 . S
H1298 C1240 0.930 . S
H1299 C1241 0.930 . S
H1300 C1243 0.930 . S
H1301 C1245 0.929 . S
H1302 C1246 0.930 . S
H1303 C1247 0.930 . S
H1304 C1250 0.930 . S
H1305 C1253 0.929 . S
H1306 C1258 0.929 . S
H1307 C1259 0.930 . S
H1308 C1266 0.929 . S
H1309 C1267 0.930 . S
H1310 C1268 0.930 . S
H1311 C1269 0.930 . S
H1312 C1271 0.929 . S
H1313 C1272 0.930 . S
H1314 C1273 0.930 . S
H1315 C1274 0.930 1_565 S
H1316 C1278 0.929 . S
H1317 C1280 0.930 . S
H1318 C1286 0.929 . S
H1319 C1287 0.930 . S
Li1320 N1337 1.990 . S
Li1320 O1380 1.956 1_655 S
Li1320 O1381 1.970 . S
Li1320 O1382 1.961 . S
Li1321 N1345 1.990 . S
Li1321 O1380 1.970 . S
Li1321 O1381 1.956 1_455 S
Li1321 O1383 1.961 . S
Li1322 N1367 1.990 . S
Li1322 O1380 1.961 . S
Li1322 O1382 1.956 1_455 S
Li1322 O1383 1.970 . S
Li1323 N1373 1.990 . S
Li1323 O1381 1.961 . S
Li1323 O1382 1.970 . S
Li1323 O1383 1.956 1_655 S
C1324 C1326 1.348 . S
C1324 C1327 1.356 . S
C1324 O1380 1.325 . S
N1325 C1328 1.314 . S
N1325 C1329 1.279 . S
C1326 C1324 1.348 . S
C1326 C1328 1.353 . S
C1326 H1384 0.929 . S
C1327 C1324 1.356 . S
C1327 C1329 1.358 . S
C1327 H1385 0.930 . S
C1328 N1325 1.314 . S
C1328 C1326 1.353 . S
C1328 H1386 0.930 . S
C1329 N1325 1.279 . S
C1329 C1327 1.358 . S
C1329 H1387 0.930 . S
C1330 C1333 1.348 . S
C1330 C1334 1.356 . S
C1330 O1381 1.325 . S
C1331 N1332 1.279 . S
C1331 C1334 1.358 . S
C1331 H1388 0.930 . S
N1332 C1331 1.279 . S
N1332 C1335 1.314 . S
C1333 C1330 1.348 . S
C1333 C1335 1.353 . S
C1333 H1389 0.929 . S
C1334 C1330 1.356 . S
C1334 C1331 1.358 . S
C1334 H1390 0.930 . S
C1335 N1332 1.314 . S
C1335 C1333 1.353 . S
C1335 H1391 0.930 . S
C1336 N1337 1.314 . S
C1336 C1341 1.353 . S
C1336 H1342 0.930 . S
N1337 Li1320 1.990 . S
N1337 C1336 1.314 . S
N1337 C1339 1.279 . S
C1338 C1339 1.358 . S
C1338 C1340 1.356 . S
C1338 H1392 0.930 . S
C1339 N1337 1.279 . S
C1339 C1338 1.358 . S
C1339 H1343 0.930 . S
C1340 C1338 1.356 . S
C1340 C1341 1.348 . S
C1341 C1336 1.353 . S
C1341 C1340 1.348 . S
C1341 H1393 0.929 . S
H1342 C1336 0.930 . S
H1343 C1339 0.930 . S
C1344 N1345 1.314 . S
C1344 C1346 1.353 . S
C1344 H1350 0.930 . S
N1345 Li1321 1.990 . S
N1345 C1344 1.314 . S
N1345 C1348 1.279 . S
C1346 C1344 1.353 . S
C1346 C1349 1.348 . S
C1346 H1394 0.929 . S
C1347 C1348 1.358 . S
C1347 C1349 1.356 . S
C1347 H1395 0.930 . S
C1348 N1345 1.279 . S
C1348 C1347 1.358 . S
C1348 H1351 0.930 1_455 S
C1349 C1346 1.348 . S
C1349 C1347 1.356 . S
H1350 C1344 0.930 . S
H1351 C1348 0.930 1_655 S
C1352 C1354 1.348 . S
C1352 C1355 1.356 . S
C1352 O1382 1.325 . S
N1353 C1356 1.314 . S
N1353 C1357 1.279 . S
C1354 C1352 1.348 . S
C1354 C1356 1.353 . S
C1354 H1396 0.929 . S
C1355 C1352 1.356 . S
C1355 C1357 1.358 . S
C1355 H1397 0.930 . S
C1356 N1353 1.314 . S
C1356 C1354 1.353 . S
C1356 H1398 0.930 . S
C1357 N1353 1.279 . S
C1357 C1355 1.358 . S
C1357 H1399 0.930 . S
C1358 C1359 1.348 . S
C1358 C1360 1.356 . S
C1358 O1383 1.325 . S
C1359 C1358 1.348 . S
C1359 C1361 1.353 . S
C1359 H1400 0.929 . S
C1360 C1358 1.356 . S
C1360 C1362 1.358 . S
C1360 H1401 0.930 . S
C1361 C1359 1.353 . S
C1361 N1363 1.314 . S
C1361 H1402 0.930 . S
C1362 C1360 1.358 . S
C1362 N1363 1.279 . S
C1362 H1403 0.930 1_556 S
N1363 C1361 1.314 . S
N1363 C1362 1.279 . S
C1364 C1366 1.353 . S
C1364 N1367 1.314 . S
C1364 H1370 0.930 . S
C1365 N1367 1.279 . S
C1365 C1368 1.358 . S
C1365 H1371 0.930 . S
C1366 C1364 1.353 . S
C1366 C1369 1.348 . S
C1366 H1404 0.929 . S
N1367 Li1322 1.990 . S
N1367 C1364 1.314 . S
N1367 C1365 1.279 . S
C1368 C1365 1.358 . S
C1368 C1369 1.356 . S
C1368 H1405 0.930 . S
C1369 C1366 1.348 . S
C1369 C1368 1.356 . S
H1370 C1364 0.930 . S
H1371 C1365 0.930 . S
C1372 N1373 1.314 . S
C1372 C1374 1.353 . S
C1372 H1378 0.930 . S
N1373 Li1323 1.990 . S
N1373 C1372 1.314 . S
N1373 C1376 1.279 . S
C1374 C1372 1.353 . S
C1374 C1377 1.348 . S
C1374 H1406 0.929 . S
C1375 C1376 1.358 . S
C1375 C1377 1.356 . S
C1375 H1407 0.930 . S
C1376 N1373 1.279 . S
C1376 C1375 1.358 . S
C1376 H1379 0.930 . S
C1377 C1374 1.348 . S
C1377 C1375 1.356 . S
H1378 C1372 0.930 . S
H1379 C1376 0.930 . S
O1380 Li1320 1.956 1_455 S
O1380 Li1321 1.970 . S
O1380 Li1322 1.961 . S
O1380 C1324 1.325 . S
O1381 Li1320 1.970 . S
O1381 Li1321 1.956 1_655 S
O1381 Li1323 1.961 . S
O1381 C1330 1.325 . S
O1382 Li1320 1.961 . S
O1382 Li1322 1.956 1_655 S
O1382 Li1323 1.970 . S
O1382 C1352 1.325 . S
O1383 Li1321 1.961 . S
O1383 Li1322 1.970 . S
O1383 Li1323 1.956 1_455 S
O1383 C1358 1.325 . S
H1384 C1326 0.929 . S
H1385 C1327 0.930 . S
H1386 C1328 0.930 . S
H1387 C1329 0.930 . S
H1388 C1331 0.930 . S
H1389 C1333 0.929 . S
H1390 C1334 0.930 . S
H1391 C1335 0.930 . S
H1392 C1338 0.930 . S
H1393 C1341 0.929 . S
H1394 C1346 0.929 . S
H1395 C1347 0.930 . S
H1396 C1354 0.929 . S
H1397 C1355 0.930 . S
H1398 C1356 0.930 . S
H1399 C1357 0.930 . S
H1400 C1359 0.929 . S
H1401 C1360 0.930 . S
H1402 C1361 0.930 . S
H1403 C1362 0.930 1_554 S
H1404 C1366 0.929 . S
H1405 C1368 0.930 . S
H1406 C1374 0.929 . S
H1407 C1375 0.930 . S
Li1408 N1425 1.990 . S
Li1408 O1468 1.956 1_655 S
Li1408 O1469 1.970 . S
Li1408 O1470 1.961 . S
Li1409 N1433 1.990 . S
Li1409 O1468 1.970 . S
Li1409 O1469 1.956 1_455 S
Li1409 O1471 1.961 . S
Li1410 N1455 1.990 . S
Li1410 O1468 1.961 . S
Li1410 O1470 1.956 1_455 S
Li1410 O1471 1.970 . S
Li1411 N1461 1.990 . S
Li1411 O1469 1.961 . S
Li1411 O1470 1.970 . S
Li1411 O1471 1.956 1_655 S
C1412 C1414 1.348 . S
C1412 C1415 1.356 . S
C1412 O1468 1.325 . S
N1413 C1416 1.314 . S
N1413 C1417 1.279 . S
C1414 C1412 1.348 . S
C1414 C1416 1.353 . S
C1414 H1472 0.929 . S
C1415 C1412 1.356 . S
C1415 C1417 1.358 . S
C1415 H1473 0.930 . S
C1416 N1413 1.314 . S
C1416 C1414 1.353 . S
C1416 H1474 0.930 . S
C1417 N1413 1.279 . S
C1417 C1415 1.358 . S
C1417 H1475 0.930 . S
C1418 C1421 1.348 . S
C1418 C1422 1.356 . S
C1418 O1469 1.325 . S
C1419 N1420 1.279 . S
C1419 C1422 1.358 . S
C1419 H1476 0.930 . S
N1420 C1419 1.279 . S
N1420 C1423 1.314 . S
C1421 C1418 1.348 . S
C1421 C1423 1.353 . S
C1421 H1477 0.929 . S
C1422 C1418 1.356 . S
C1422 C1419 1.358 . S
C1422 H1478 0.930 . S
C1423 N1420 1.314 . S
C1423 C1421 1.353 . S
C1423 H1479 0.930 . S
C1424 N1425 1.314 . S
C1424 C1429 1.353 . S
C1424 H1430 0.930 . S
N1425 Li1408 1.990 . S
N1425 C1424 1.314 . S
N1425 C1427 1.279 . S
C1426 C1427 1.358 . S
C1426 C1428 1.356 . S
C1426 H1480 0.930 . S
C1427 N1425 1.279 . S
C1427 C1426 1.358 . S
C1427 H1431 0.930 . S
C1428 C1426 1.356 . S
C1428 C1429 1.348 . S
C1429 C1424 1.353 . S
C1429 C1428 1.348 . S
C1429 H1481 0.929 . S
H1430 C1424 0.930 . S
H1431 C1427 0.930 . S
C1432 N1433 1.314 . S
C1432 C1434 1.353 . S
C1432 H1438 0.930 . S
N1433 Li1409 1.990 . S
N1433 C1432 1.314 . S
N1433 C1436 1.279 . S
C1434 C1432 1.353 . S
C1434 C1437 1.348 . S
C1434 H1482 0.929 . S
C1435 C1436 1.358 . S
C1435 C1437 1.356 . S
C1435 H1483 0.930 . S
C1436 N1433 1.279 . S
C1436 C1435 1.358 . S
C1436 H1439 0.930 . S
C1437 C1434 1.348 . S
C1437 C1435 1.356 . S
H1438 C1432 0.930 . S
H1439 C1436 0.930 . S
C1440 C1442 1.348 . S
C1440 C1443 1.356 . S
C1440 O1470 1.325 . S
N1441 C1444 1.314 . S
N1441 C1445 1.279 . S
C1442 C1440 1.348 . S
C1442 C1444 1.353 . S
C1442 H1484 0.929 . S
C1443 C1440 1.356 . S
C1443 C1445 1.358 . S
C1443 H1485 0.930 . S
C1444 N1441 1.314 . S
C1444 C1442 1.353 . S
C1444 H1486 0.930 1_554 S
C1445 N1441 1.279 . S
C1445 C1443 1.358 . S
C1445 H1487 0.930 . S
C1446 C1447 1.348 . S
C1446 C1448 1.356 . S
C1446 O1471 1.325 . S
C1447 C1446 1.348 . S
C1447 C1449 1.353 . S
C1447 H1488 0.929 . S
C1448 C1446 1.356 . S
C1448 C1450 1.358 . S
C1448 H1489 0.930 . S
C1449 C1447 1.353 . S
C1449 N1451 1.314 . S
C1449 H1490 0.930 . S
C1450 C1448 1.358 . S
C1450 N1451 1.279 . S
C1450 H1491 0.930 . S
N1451 C1449 1.314 . S
N1451 C1450 1.279 . S
C1452 C1454 1.353 . S
C1452 N1455 1.314 . S
C1452 H1458 0.930 . S
C1453 N1455 1.279 . S
C1453 C1456 1.358 . S
C1453 H1459 0.930 . S
C1454 C1452 1.353 . S
C1454 C1457 1.348 . S
C1454 H1492 0.929 . S
N1455 Li1410 1.990 . S
N1455 C1452 1.314 . S
N1455 C1453 1.279 . S
C1456 C1453 1.358 . S
C1456 C1457 1.356 . S
C1456 H1493 0.930 . S
C1457 C1454 1.348 . S
C1457 C1456 1.356 . S
H1458 C1452 0.930 . S
H1459 C1453 0.930 . S
C1460 N1461 1.314 . S
C1460 C1462 1.353 . S
C1460 H1466 0.930 . S
N1461 Li1411 1.990 . S
N1461 C1460 1.314 . S
N1461 C1464 1.279 . S
C1462 C1460 1.353 . S
C1462 C1465 1.348 . S
C1462 H1494 0.929 . S
C1463 C1464 1.358 . S
C1463 C1465 1.356 . S
C1463 H1495 0.930 1_554 S
C1464 N1461 1.279 . S
C1464 C1463 1.358 . S
C1464 H1467 0.930 1_655 S
C1465 C1462 1.348 . S
C1465 C1463 1.356 . S
H1466 C1460 0.930 . S
H1467 C1464 0.930 1_455 S
O1468 Li1408 1.956 1_455 S
O1468 Li1409 1.970 . S
O1468 Li1410 1.961 . S
O1468 C1412 1.325 . S
O1469 Li1408 1.970 . S
O1469 Li1409 1.956 1_655 S
O1469 Li1411 1.961 . S
O1469 C1418 1.325 . S
O1470 Li1408 1.961 . S
O1470 Li1410 1.956 1_655 S
O1470 Li1411 1.970 . S
O1470 C1440 1.325 . S
O1471 Li1409 1.961 . S
O1471 Li1410 1.970 . S
O1471 Li1411 1.956 1_455 S
O1471 C1446 1.325 . S
H1472 C1414 0.929 . S
H1473 C1415 0.930 . S
H1474 C1416 0.930 . S
H1475 C1417 0.930 . S
H1476 C1419 0.930 . S
H1477 C1421 0.929 . S
H1478 C1422 0.930 . S
H1479 C1423 0.930 . S
H1480 C1426 0.930 . S
H1481 C1429 0.929 . S
H1482 C1434 0.929 . S
H1483 C1435 0.930 . S
H1484 C1442 0.929 . S
H1485 C1443 0.930 . S
H1486 C1444 0.930 1_556 S
H1487 C1445 0.930 . S
H1488 C1447 0.929 . S
H1489 C1448 0.930 . S
H1490 C1449 0.930 . S
H1491 C1450 0.930 . S
H1492 C1454 0.929 . S
H1493 C1456 0.930 . S
H1494 C1462 0.929 . S
H1495 C1463 0.930 1_556 S
Li1496 N1513 1.990 . S
Li1496 O1556 1.956 . S
Li1496 O1557 1.970 . S
Li1496 O1558 1.961 . S
Li1497 N1521 1.990 . S
Li1497 O1556 1.970 . S
Li1497 O1557 1.956 . S
Li1497 O1559 1.961 . S
Li1498 N1543 1.990 . S
Li1498 O1556 1.961 . S
Li1498 O1558 1.956 . S
Li1498 O1559 1.970 . S
Li1499 N1549 1.990 . S
Li1499 O1557 1.961 . S
Li1499 O1558 1.970 . S
Li1499 O1559 1.956 . S
C1500 C1502 1.348 . S
C1500 C1503 1.356 . S
C1500 O1556 1.325 . S
N1501 C1504 1.314 . S
N1501 C1505 1.279 . S
C1502 C1500 1.348 . S
C1502 C1504 1.353 . S
C1502 H1560 0.929 . S
C1503 C1500 1.356 . S
C1503 C1505 1.358 . S
C1503 H1561 0.930 . S
C1504 N1501 1.314 . S
C1504 C1502 1.353 . S
C1504 H1562 0.930 . S
C1505 N1501 1.279 . S
C1505 C1503 1.358 . S
C1505 H1563 0.930 . S
C1506 C1509 1.348 . S
C1506 C1510 1.356 . S
C1506 O1557 1.325 . S
C1507 N1508 1.279 . S
C1507 C1510 1.358 . S
C1507 H1564 0.930 . S
N1508 C1507 1.279 . S
N1508 C1511 1.314 . S
C1509 C1506 1.348 . S
C1509 C1511 1.353 . S
C1509 H1565 0.929 . S
C1510 C1506 1.356 . S
C1510 C1507 1.358 . S
C1510 H1566 0.930 . S
C1511 N1508 1.314 . S
C1511 C1509 1.353 . S
C1511 H1567 0.930 . S
C1512 N1513 1.314 . S
C1512 C1517 1.353 . S
C1512 H1518 0.930 . S
N1513 Li1496 1.990 . S
N1513 C1512 1.314 . S
N1513 C1515 1.279 . S
C1514 C1515 1.358 . S
C1514 C1516 1.356 . S
C1514 H1568 0.930 . S
C1515 N1513 1.279 . S
C1515 C1514 1.358 . S
C1515 H1519 0.930 . S
C1516 C1514 1.356 . S
C1516 C1517 1.348 . S
C1517 C1512 1.353 . S
C1517 C1516 1.348 . S
C1517 H1569 0.929 . S
H1518 C1512 0.930 . S
H1519 C1515 0.930 . S
C1520 N1521 1.314 . S
C1520 C1522 1.353 . S
C1520 H1526 0.930 . S
N1521 Li1497 1.990 . S
N1521 C1520 1.314 . S
N1521 C1524 1.279 . S
C1522 C1520 1.353 . S
C1522 C1525 1.348 . S
C1522 H1570 0.929 . S
C1523 C1524 1.358 . S
C1523 C1525 1.356 . S
C1523 H1571 0.930 . S
C1524 N1521 1.279 . S
C1524 C1523 1.358 . S
C1524 H1527 0.930 . S
C1525 C1522 1.348 . S
C1525 C1523 1.356 . S
H1526 C1520 0.930 . S
H1527 C1524 0.930 . S
C1528 C1530 1.348 . S
C1528 C1531 1.356 . S
C1528 O1558 1.325 . S
N1529 C1532 1.314 . S
N1529 C1533 1.279 . S
C1530 C1528 1.348 . S
C1530 C1532 1.353 . S
C1530 H1572 0.929 . S
C1531 C1528 1.356 . S
C1531 C1533 1.358 . S
C1531 H1573 0.930 . S
C1532 N1529 1.314 . S
C1532 C1530 1.353 . S
C1532 H1574 0.930 . S
C1533 N1529 1.279 . S
C1533 C1531 1.358 . S
C1533 H1575 0.930 . S
C1534 C1535 1.348 . S
C1534 C1536 1.356 . S
C1534 O1559 1.325 . S
C1535 C1534 1.348 . S
C1535 C1537 1.353 . S
C1535 H1576 0.929 . S
C1536 C1534 1.356 . S
C1536 C1538 1.358 . S
C1536 H1577 0.930 . S
C1537 C1535 1.353 . S
C1537 N1539 1.314 . S
C1537 H1578 0.930 . S
C1538 C1536 1.358 . S
C1538 N1539 1.279 . S
C1538 H1579 0.930 . S
N1539 C1537 1.314 . S
N1539 C1538 1.279 . S
C1540 C1542 1.353 . S
C1540 N1543 1.314 . S
C1540 H1546 0.930 . S
C1541 N1543 1.279 . S
C1541 C1544 1.358 . S
C1541 H1547 0.930 . S
C1542 C1540 1.353 . S
C1542 C1545 1.348 . S
C1542 H1580 0.929 . S
N1543 Li1498 1.990 . S
N1543 C1540 1.314 . S
N1543 C1541 1.279 . S
C1544 C1541 1.358 . S
C1544 C1545 1.356 . S
C1544 H1581 0.930 . S
C1545 C1542 1.348 . S
C1545 C1544 1.356 . S
H1546 C1540 0.930 . S
H1547 C1541 0.930 . S
C1548 N1549 1.314 . S
C1548 C1550 1.353 . S
C1548 H1554 0.930 . S
N1549 Li1499 1.990 . S
N1549 C1548 1.314 . S
N1549 C1552 1.279 . S
C1550 C1548 1.353 . S
C1550 C1553 1.348 . S
C1550 H1582 0.929 . S
C1551 C1552 1.358 . S
C1551 C1553 1.356 . S
C1551 H1583 0.930 . S
C1552 N1549 1.279 . S
C1552 C1551 1.358 . S
C1552 H1555 0.930 . S
C1553 C1550 1.348 . S
C1553 C1551 1.356 . S
H1554 C1548 0.930 . S
H1555 C1552 0.930 . S
O1556 Li1496 1.956 . S
O1556 Li1497 1.970 . S
O1556 Li1498 1.961 . S
O1556 C1500 1.325 . S
O1557 Li1496 1.970 . S
O1557 Li1497 1.956 . S
O1557 Li1499 1.961 . S
O1557 C1506 1.325 . S
O1558 Li1496 1.961 . S
O1558 Li1498 1.956 . S
O1558 Li1499 1.970 . S
O1558 C1528 1.325 . S
O1559 Li1497 1.961 . S
O1559 Li1498 1.970 . S
O1559 Li1499 1.956 . S
O1559 C1534 1.325 . S
H1560 C1502 0.929 . S
H1561 C1503 0.930 . S
H1562 C1504 0.930 . S
H1563 C1505 0.930 . S
H1564 C1507 0.930 . S
H1565 C1509 0.929 . S
H1566 C1510 0.930 . S
H1567 C1511 0.930 . S
H1568 C1514 0.930 . S
H1569 C1517 0.929 . S
H1570 C1522 0.929 . S
H1571 C1523 0.930 . S
H1572 C1530 0.929 . S
H1573 C1531 0.930 . S
H1574 C1532 0.930 . S
H1575 C1533 0.930 . S
H1576 C1535 0.929 . S
H1577 C1536 0.930 . S
H1578 C1537 0.930 . S
H1579 C1538 0.930 . S
H1580 C1542 0.929 . S
H1581 C1544 0.930 . S
H1582 C1550 0.929 . S
H1583 C1551 0.930 . S
Li1584 N1601 1.990 . S
Li1584 O1644 1.956 . S
Li1584 O1645 1.970 . S
Li1584 O1646 1.961 . S
Li1585 N1609 1.990 . S
Li1585 O1644 1.970 . S
Li1585 O1645 1.956 . S
Li1585 O1647 1.961 . S
Li1586 N1631 1.990 . S
Li1586 O1644 1.961 . S
Li1586 O1646 1.956 . S
Li1586 O1647 1.970 . S
Li1587 N1637 1.990 . S
Li1587 O1645 1.961 . S
Li1587 O1646 1.970 . S
Li1587 O1647 1.956 . S
C1588 C1590 1.348 . S
C1588 C1591 1.356 . S
C1588 O1644 1.325 . S
N1589 C1592 1.314 . S
N1589 C1593 1.279 . S
C1590 C1588 1.348 . S
C1590 C1592 1.353 . S
C1590 H1648 0.929 . S
C1591 C1588 1.356 . S
C1591 C1593 1.358 . S
C1591 H1649 0.930 . S
C1592 N1589 1.314 . S
C1592 C1590 1.353 . S
C1592 H1650 0.930 . S
C1593 N1589 1.279 . S
C1593 C1591 1.358 . S
C1593 H1651 0.930 . S
C1594 C1597 1.348 . S
C1594 C1598 1.356 . S
C1594 O1645 1.325 . S
C1595 N1596 1.279 . S
C1595 C1598 1.358 . S
C1595 H1652 0.930 . S
N1596 C1595 1.279 . S
N1596 C1599 1.314 . S
C1597 C1594 1.348 . S
C1597 C1599 1.353 . S
C1597 H1653 0.929 . S
C1598 C1594 1.356 . S
C1598 C1595 1.358 . S
C1598 H1654 0.930 . S
C1599 N1596 1.314 . S
C1599 C1597 1.353 . S
C1599 H1655 0.930 . S
C1600 N1601 1.314 . S
C1600 C1605 1.353 . S
C1600 H1606 0.930 . S
N1601 Li1584 1.990 . S
N1601 C1600 1.314 . S
N1601 C1603 1.279 . S
C1602 C1603 1.358 . S
C1602 C1604 1.356 . S
C1602 H1656 0.930 . S
C1603 N1601 1.279 . S
C1603 C1602 1.358 . S
C1603 H1607 0.930 . S
C1604 C1602 1.356 . S
C1604 C1605 1.348 . S
C1605 C1600 1.353 . S
C1605 C1604 1.348 . S
C1605 H1657 0.929 . S
H1606 C1600 0.930 . S
H1607 C1603 0.930 . S
C1608 N1609 1.314 . S
C1608 C1610 1.353 . S
C1608 H1614 0.930 . S
N1609 Li1585 1.990 . S
N1609 C1608 1.314 . S
N1609 C1612 1.279 . S
C1610 C1608 1.353 . S
C1610 C1613 1.348 . S
C1610 H1658 0.929 . S
C1611 C1612 1.358 . S
C1611 C1613 1.356 . S
C1611 H1659 0.930 . S
C1612 N1609 1.279 . S
C1612 C1611 1.358 . S
C1612 H1615 0.930 . S
C1613 C1610 1.348 . S
C1613 C1611 1.356 . S
H1614 C1608 0.930 . S
H1615 C1612 0.930 . S
C1616 C1618 1.348 . S
C1616 C1619 1.356 . S
C1616 O1646 1.325 . S
N1617 C1620 1.314 . S
N1617 C1621 1.279 . S
C1618 C1616 1.348 . S
C1618 C1620 1.353 . S
C1618 H1660 0.929 . S
C1619 C1616 1.356 . S
C1619 C1621 1.358 . S
C1619 H1661 0.930 . S
C1620 N1617 1.314 . S
C1620 C1618 1.353 . S
C1620 H1662 0.930 . S
C1621 N1617 1.279 . S
C1621 C1619 1.358 . S
C1621 H1663 0.930 . S
C1622 C1623 1.348 . S
C1622 C1624 1.356 . S
C1622 O1647 1.325 . S
C1623 C1622 1.348 . S
C1623 C1625 1.353 . S
C1623 H1664 0.929 . S
C1624 C1622 1.356 . S
C1624 C1626 1.358 . S
C1624 H1665 0.930 . S
C1625 C1623 1.353 . S
C1625 N1627 1.314 . S
C1625 H1666 0.930 1_554 S
C1626 C1624 1.358 . S
C1626 N1627 1.279 . S
C1626 H1667 0.930 . S
N1627 C1625 1.314 . S
N1627 C1626 1.279 . S
C1628 C1630 1.353 . S
C1628 N1631 1.314 . S
C1628 H1634 0.930 . S
C1629 N1631 1.279 . S
C1629 C1632 1.358 . S
C1629 H1635 0.930 . S
C1630 C1628 1.353 . S
C1630 C1633 1.348 . S
C1630 H1668 0.929 . S
N1631 Li1586 1.990 . S
N1631 C1628 1.314 . S
N1631 C1629 1.279 . S
C1632 C1629 1.358 . S
C1632 C1633 1.356 . S
C1632 H1669 0.930 1_554 S
C1633 C1630 1.348 . S
C1633 C1632 1.356 . S
H1634 C1628 0.930 . S
H1635 C1629 0.930 . S
C1636 N1637 1.314 . S
C1636 C1638 1.353 . S
C1636 H1642 0.930 . S
N1637 Li1587 1.990 . S
N1637 C1636 1.314 . S
N1637 C1640 1.279 . S
C1638 C1636 1.353 . S
C1638 C1641 1.348 . S
C1638 H1670 0.929 . S
C1639 C1640 1.358 . S
C1639 C1641 1.356 . S
C1639 H1671 0.930 . S
C1640 N1637 1.279 . S
C1640 C1639 1.358 . S
C1640 H1643 0.930 . S
C1641 C1638 1.348 . S
C1641 C1639 1.356 . S
H1642 C1636 0.930 . S
H1643 C1640 0.930 . S
O1644 Li1584 1.956 . S
O1644 Li1585 1.970 . S
O1644 Li1586 1.961 . S
O1644 C1588 1.325 . S
O1645 Li1584 1.970 . S
O1645 Li1585 1.956 . S
O1645 Li1587 1.961 . S
O1645 C1594 1.325 . S
O1646 Li1584 1.961 . S
O1646 Li1586 1.956 . S
O1646 Li1587 1.970 . S
O1646 C1616 1.325 . S
O1647 Li1585 1.961 . S
O1647 Li1586 1.970 . S
O1647 Li1587 1.956 . S
O1647 C1622 1.325 . S
H1648 C1590 0.929 . S
H1649 C1591 0.930 . S
H1650 C1592 0.930 . S
H1651 C1593 0.930 . S
H1652 C1595 0.930 . S
H1653 C1597 0.929 . S
H1654 C1598 0.930 . S
H1655 C1599 0.930 . S
H1656 C1602 0.930 . S
H1657 C1605 0.929 . S
H1658 C1610 0.929 . S
H1659 C1611 0.930 . S
H1660 C1618 0.929 . S
H1661 C1619 0.930 . S
H1662 C1620 0.930 . S
H1663 C1621 0.930 . S
H1664 C1623 0.929 . S
H1665 C1624 0.930 . S
H1666 C1625 0.930 1_556 S
H1667 C1626 0.930 . S
H1668 C1630 0.929 . S
H1669 C1632 0.930 1_556 S
H1670 C1638 0.929 . S
H1671 C1639 0.930 . S
Li1672 N1689 1.990 . S
Li1672 O1732 1.956 1_655 S
Li1672 O1733 1.970 . S
Li1672 O1734 1.961 . S
Li1673 N1697 1.990 . S
Li1673 O1732 1.970 . S
Li1673 O1733 1.956 1_455 S
Li1673 O1735 1.961 . S
Li1674 N1719 1.990 . S
Li1674 O1732 1.961 . S
Li1674 O1734 1.956 1_455 S
Li1674 O1735 1.970 . S
Li1675 N1725 1.990 . S
Li1675 O1733 1.961 . S
Li1675 O1734 1.970 . S
Li1675 O1735 1.956 1_655 S
C1676 C1678 1.348 . S
C1676 C1679 1.356 . S
C1676 O1732 1.325 . S
N1677 C1680 1.314 . S
N1677 C1681 1.279 . S
C1678 C1676 1.348 . S
C1678 C1680 1.353 . S
C1678 H1736 0.929 . S
C1679 C1676 1.356 . S
C1679 C1681 1.358 . S
C1679 H1737 0.930 . S
C1680 N1677 1.314 . S
C1680 C1678 1.353 . S
C1680 H1738 0.930 . S
C1681 N1677 1.279 . S
C1681 C1679 1.358 . S
C1681 H1739 0.930 . S
C1682 C1685 1.348 . S
C1682 C1686 1.356 . S
C1682 O1733 1.325 . S
C1683 N1684 1.279 . S
C1683 C1686 1.358 . S
C1683 H1740 0.930 . S
N1684 C1683 1.279 . S
N1684 C1687 1.314 . S
C1685 C1682 1.348 . S
C1685 C1687 1.353 . S
C1685 H1741 0.929 . S
C1686 C1682 1.356 . S
C1686 C1683 1.358 . S
C1686 H1742 0.930 . S
C1687 N1684 1.314 . S
C1687 C1685 1.353 . S
C1687 H1743 0.930 . S
C1688 N1689 1.314 . S
C1688 C1693 1.353 . S
C1688 H1694 0.930 . S
N1689 Li1672 1.990 . S
N1689 C1688 1.314 . S
N1689 C1691 1.279 . S
C1690 C1691 1.358 . S
C1690 C1692 1.356 . S
C1690 H1744 0.930 . S
C1691 N1689 1.279 . S
C1691 C1690 1.358 . S
C1691 H1695 0.930 1_655 S
C1692 C1690 1.356 . S
C1692 C1693 1.348 . S
C1693 C1688 1.353 . S
C1693 C1692 1.348 . S
C1693 H1745 0.929 . S
H1694 C1688 0.930 . S
H1695 C1691 0.930 1_455 S
C1696 N1697 1.314 . S
C1696 C1698 1.353 . S
C1696 H1702 0.930 . S
N1697 Li1673 1.990 . S
N1697 C1696 1.314 . S
N1697 C1700 1.279 . S
C1698 C1696 1.353 . S
C1698 C1701 1.348 . S
C1698 H1746 0.929 . S
C1699 C1700 1.358 . S
C1699 C1701 1.356 . S
C1699 H1747 0.930 . S
C1700 N1697 1.279 . S
C1700 C1699 1.358 . S
C1700 H1703 0.930 . S
C1701 C1698 1.348 . S
C1701 C1699 1.356 . S
H1702 C1696 0.930 . S
H1703 C1700 0.930 . S
C1704 C1706 1.348 . S
C1704 C1707 1.356 . S
C1704 O1734 1.325 . S
N1705 C1708 1.314 . S
N1705 C1709 1.279 . S
C1706 C1704 1.348 . S
C1706 C1708 1.353 . S
C1706 H1748 0.929 . S
C1707 C1704 1.356 . S
C1707 C1709 1.358 . S
C1707 H1749 0.930 . S
C1708 N1705 1.314 . S
C1708 C1706 1.353 . S
C1708 H1750 0.930 . S
C1709 N1705 1.279 . S
C1709 C1707 1.358 . S
C1709 H1751 0.930 . S
C1710 C1711 1.348 . S
C1710 C1712 1.356 . S
C1710 O1735 1.325 . S
C1711 C1710 1.348 . S
C1711 C1713 1.353 . S
C1711 H1752 0.929 . S
C1712 C1710 1.356 . S
C1712 C1714 1.358 . S
C1712 H1753 0.930 . S
C1713 C1711 1.353 . S
C1713 N1715 1.314 . S
C1713 H1754 0.930 . S
C1714 C1712 1.358 . S
C1714 N1715 1.279 . S
C1714 H1755 0.930 . S
N1715 C1713 1.314 . S
N1715 C1714 1.279 . S
C1716 C1718 1.353 . S
C1716 N1719 1.314 . S
C1716 H1722 0.930 . S
C1717 N1719 1.279 . S
C1717 C1720 1.358 . S
C1717 H1723 0.930 . S
C1718 C1716 1.353 . S
C1718 C1721 1.348 . S
C1718 H1756 0.929 . S
N1719 Li1674 1.990 . S
N1719 C1716 1.314 . S
N1719 C1717 1.279 . S
C1720 C1717 1.358 . S
C1720 C1721 1.356 . S
C1720 H1757 0.930 . S
C1721 C1718 1.348 . S
C1721 C1720 1.356 . S
H1722 C1716 0.930 . S
H1723 C1717 0.930 . S
C1724 N1725 1.314 . S
C1724 C1726 1.353 . S
C1724 H1730 0.930 . S
N1725 Li1675 1.990 . S
N1725 C1724 1.314 . S
N1725 C1728 1.279 . S
C1726 C1724 1.353 . S
C1726 C1729 1.348 . S
C1726 H1758 0.929 . S
C1727 C1728 1.358 . S
C1727 C1729 1.356 . S
C1727 H1759 0.930 . S
C1728 N1725 1.279 . S
C1728 C1727 1.358 . S
C1728 H1731 0.930 . S
C1729 C1726 1.348 . S
C1729 C1727 1.356 . S
H1730 C1724 0.930 . S
H1731 C1728 0.930 . S
O1732 Li1672 1.956 1_455 S
O1732 Li1673 1.970 . S
O1732 Li1674 1.961 . S
O1732 C1676 1.325 . S
O1733 Li1672 1.970 . S
O1733 Li1673 1.956 1_655 S
O1733 Li1675 1.961 . S
O1733 C1682 1.325 . S
O1734 Li1672 1.961 . S
O1734 Li1674 1.956 1_655 S
O1734 Li1675 1.970 . S
O1734 C1704 1.325 . S
O1735 Li1673 1.961 . S
O1735 Li1674 1.970 . S
O1735 Li1675 1.956 1_455 S
O1735 C1710 1.325 . S
H1736 C1678 0.929 . S
H1737 C1679 0.930 . S
H1738 C1680 0.930 . S
H1739 C1681 0.930 . S
H1740 C1683 0.930 . S
H1741 C1685 0.929 . S
H1742 C1686 0.930 . S
H1743 C1687 0.930 . S
H1744 C1690 0.930 . S
H1745 C1693 0.929 . S
H1746 C1698 0.929 . S
H1747 C1699 0.930 . S
H1748 C1706 0.929 . S
H1749 C1707 0.930 . S
H1750 C1708 0.930 . S
H1751 C1709 0.930 . S
H1752 C1711 0.929 . S
H1753 C1712 0.930 . S
H1754 C1713 0.930 . S
H1755 C1714 0.930 . S
H1756 C1718 0.929 . S
H1757 C1720 0.930 . S
H1758 C1726 0.929 . S
H1759 C1727 0.930 . S
Li1760 N1777 1.990 . S
Li1760 O1820 1.956 . S
Li1760 O1821 1.970 . S
Li1760 O1822 1.961 . S
Li1761 N1785 1.990 . S
Li1761 O1820 1.970 . S
Li1761 O1821 1.956 . S
Li1761 O1823 1.961 . S
Li1762 N1807 1.990 . S
Li1762 O1820 1.961 . S
Li1762 O1822 1.956 . S
Li1762 O1823 1.970 . S
Li1763 N1813 1.990 . S
Li1763 O1821 1.961 . S
Li1763 O1822 1.970 . S
Li1763 O1823 1.956 . S
C1764 C1766 1.348 . S
C1764 C1767 1.356 . S
C1764 O1820 1.325 . S
N1765 C1768 1.314 . S
N1765 C1769 1.279 . S
C1766 C1764 1.348 . S
C1766 C1768 1.353 . S
C1766 H1824 0.929 . S
C1767 C1764 1.356 . S
C1767 C1769 1.358 . S
C1767 H1825 0.930 . S
C1768 N1765 1.314 . S
C1768 C1766 1.353 . S
C1768 H1826 0.930 . S
C1769 N1765 1.279 . S
C1769 C1767 1.358 . S
C1769 H1827 0.930 1_556 S
C1770 C1773 1.348 . S
C1770 C1774 1.356 . S
C1770 O1821 1.325 . S
C1771 N1772 1.279 . S
C1771 C1774 1.358 . S
C1771 H1828 0.930 . S
N1772 C1771 1.279 . S
N1772 C1775 1.314 . S
C1773 C1770 1.348 . S
C1773 C1775 1.353 . S
C1773 H1829 0.929 . S
C1774 C1770 1.356 . S
C1774 C1771 1.358 . S
C1774 H1830 0.930 . S
C1775 N1772 1.314 . S
C1775 C1773 1.353 . S
C1775 H1831 0.930 . S
C1776 N1777 1.314 . S
C1776 C1781 1.353 . S
C1776 H1782 0.930 . S
N1777 Li1760 1.990 . S
N1777 C1776 1.314 . S
N1777 C1779 1.279 . S
C1778 C1779 1.358 . S
C1778 C1780 1.356 . S
C1778 H1832 0.930 . S
C1779 N1777 1.279 . S
C1779 C1778 1.358 . S
C1779 H1783 0.930 . S
C1780 C1778 1.356 . S
C1780 C1781 1.348 . S
C1781 C1776 1.353 . S
C1781 C1780 1.348 . S
C1781 H1833 0.929 . S
H1782 C1776 0.930 . S
H1783 C1779 0.930 . S
C1784 N1785 1.314 . S
C1784 C1786 1.353 . S
C1784 H1790 0.930 . S
N1785 Li1761 1.990 . S
N1785 C1784 1.314 . S
N1785 C1788 1.279 . S
C1786 C1784 1.353 . S
C1786 C1789 1.348 . S
C1786 H1834 0.929 . S
C1787 C1788 1.358 . S
C1787 C1789 1.356 . S
C1787 H1835 0.930 . S
C1788 N1785 1.279 . S
C1788 C1787 1.358 . S
C1788 H1791 0.930 . S
C1789 C1786 1.348 . S
C1789 C1787 1.356 . S
H1790 C1784 0.930 . S
H1791 C1788 0.930 . S
C1792 C1794 1.348 . S
C1792 C1795 1.356 . S
C1792 O1822 1.325 . S
N1793 C1796 1.314 . S
N1793 C1797 1.279 . S
C1794 C1792 1.348 . S
C1794 C1796 1.353 . S
C1794 H1836 0.929 . S
C1795 C1792 1.356 . S
C1795 C1797 1.358 . S
C1795 H1837 0.930 . S
C1796 N1793 1.314 . S
C1796 C1794 1.353 . S
C1796 H1838 0.930 . S
C1797 N1793 1.279 . S
C1797 C1795 1.358 . S
C1797 H1839 0.930 . S
C1798 C1799 1.348 . S
C1798 C1800 1.356 . S
C1798 O1823 1.325 . S
C1799 C1798 1.348 . S
C1799 C1801 1.353 . S
C1799 H1840 0.929 . S
C1800 C1798 1.356 . S
C1800 C1802 1.358 . S
C1800 H1841 0.930 . S
C1801 C1799 1.353 . S
C1801 N1803 1.314 . S
C1801 H1842 0.930 . S
C1802 C1800 1.358 . S
C1802 N1803 1.279 . S
C1802 H1843 0.930 . S
N1803 C1801 1.314 . S
N1803 C1802 1.279 . S
C1804 C1806 1.353 . S
C1804 N1807 1.314 . S
C1804 H1810 0.930 . S
C1805 N1807 1.279 . S
C1805 C1808 1.358 . S
C1805 H1811 0.930 . S
C1806 C1804 1.353 . S
C1806 C1809 1.348 . S
C1806 H1844 0.929 . S
N1807 Li1762 1.990 . S
N1807 C1804 1.314 . S
N1807 C1805 1.279 . S
C1808 C1805 1.358 . S
C1808 C1809 1.356 . S
C1808 H1845 0.930 . S
C1809 C1806 1.348 . S
C1809 C1808 1.356 . S
H1810 C1804 0.930 . S
H1811 C1805 0.930 . S
C1812 N1813 1.314 . S
C1812 C1814 1.353 . S
C1812 H1818 0.930 . S
N1813 Li1763 1.990 . S
N1813 C1812 1.314 . S
N1813 C1816 1.279 . S
C1814 C1812 1.353 . S
C1814 C1817 1.348 . S
C1814 H1846 0.929 . S
C1815 C1816 1.358 . S
C1815 C1817 1.356 . S
C1815 H1847 0.930 . S
C1816 N1813 1.279 . S
C1816 C1815 1.358 . S
C1816 H1819 0.930 . S
C1817 C1814 1.348 . S
C1817 C1815 1.356 . S
H1818 C1812 0.930 . S
H1819 C1816 0.930 . S
O1820 Li1760 1.956 . S
O1820 Li1761 1.970 . S
O1820 Li1762 1.961 . S
O1820 C1764 1.325 . S
O1821 Li1760 1.970 . S
O1821 Li1761 1.956 . S
O1821 Li1763 1.961 . S
O1821 C1770 1.325 . S
O1822 Li1760 1.961 . S
O1822 Li1762 1.956 . S
O1822 Li1763 1.970 . S
O1822 C1792 1.325 . S
O1823 Li1761 1.961 . S
O1823 Li1762 1.970 . S
O1823 Li1763 1.956 . S
O1823 C1798 1.325 . S
H1824 C1766 0.929 . S
H1825 C1767 0.930 . S
H1826 C1768 0.930 . S
H1827 C1769 0.930 1_554 S
H1828 C1771 0.930 . S
H1829 C1773 0.929 . S
H1830 C1774 0.930 . S
H1831 C1775 0.930 . S
H1832 C1778 0.930 . S
H1833 C1781 0.929 . S
H1834 C1786 0.929 . S
H1835 C1787 0.930 . S
H1836 C1794 0.929 . S
H1837 C1795 0.930 . S
H1838 C1796 0.930 . S
H1839 C1797 0.930 . S
H1840 C1799 0.929 . S
H1841 C1800 0.930 . S
H1842 C1801 0.930 . S
H1843 C1802 0.930 . S
H1844 C1806 0.929 . S
H1845 C1808 0.930 . S
H1846 C1814 0.929 . S
H1847 C1815 0.930 . S
Li1848 N1865 1.990 . S
Li1848 O1908 1.956 . S
Li1848 O1909 1.970 . S
Li1848 O1910 1.961 . S
Li1849 N1873 1.990 . S
Li1849 O1908 1.970 . S
Li1849 O1909 1.956 . S
Li1849 O1911 1.961 . S
Li1850 N1895 1.990 . S
Li1850 O1908 1.961 . S
Li1850 O1910 1.956 . S
Li1850 O1911 1.970 . S
Li1851 N1901 1.990 . S
Li1851 O1909 1.961 . S
Li1851 O1910 1.970 . S
Li1851 O1911 1.956 . S
C1852 C1854 1.348 . S
C1852 C1855 1.356 . S
C1852 O1908 1.325 . S
N1853 C1856 1.314 . S
N1853 C1857 1.279 . S
C1854 C1852 1.348 . S
C1854 C1856 1.353 . S
C1854 H1912 0.929 . S
C1855 C1852 1.356 . S
C1855 C1857 1.358 . S
C1855 H1913 0.930 . S
C1856 N1853 1.314 . S
C1856 C1854 1.353 . S
C1856 H1914 0.930 . S
C1857 N1853 1.279 . S
C1857 C1855 1.358 . S
C1857 H1915 0.930 . S
C1858 C1861 1.348 . S
C1858 C1862 1.356 . S
C1858 O1909 1.325 . S
C1859 N1860 1.279 . S
C1859 C1862 1.358 . S
C1859 H1916 0.930 . S
N1860 C1859 1.279 . S
N1860 C1863 1.314 . S
C1861 C1858 1.348 . S
C1861 C1863 1.353 . S
C1861 H1917 0.929 . S
C1862 C1858 1.356 . S
C1862 C1859 1.358 . S
C1862 H1918 0.930 . S
C1863 N1860 1.314 . S
C1863 C1861 1.353 . S
C1863 H1919 0.930 1_565 S
C1864 N1865 1.314 . S
C1864 C1869 1.353 . S
C1864 H1870 0.930 . S
N1865 Li1848 1.990 . S
N1865 C1864 1.314 . S
N1865 C1867 1.279 . S
C1866 C1867 1.358 . S
C1866 C1868 1.356 . S
C1866 H1920 0.930 1_565 S
C1867 N1865 1.279 . S
C1867 C1866 1.358 . S
C1867 H1871 0.930 . S
C1868 C1866 1.356 . S
C1868 C1869 1.348 . S
C1869 C1864 1.353 . S
C1869 C1868 1.348 . S
C1869 H1921 0.929 . S
H1870 C1864 0.930 . S
H1871 C1867 0.930 . S
C1872 N1873 1.314 . S
C1872 C1874 1.353 . S
C1872 H1878 0.930 . S
N1873 Li1849 1.990 . S
N1873 C1872 1.314 . S
N1873 C1876 1.279 . S
C1874 C1872 1.353 . S
C1874 C1877 1.348 . S
C1874 H1922 0.929 . S
C1875 C1876 1.358 . S
C1875 C1877 1.356 . S
C1875 H1923 0.930 . S
C1876 N1873 1.279 . S
C1876 C1875 1.358 . S
C1876 H1879 0.930 . S
C1877 C1874 1.348 . S
C1877 C1875 1.356 . S
H1878 C1872 0.930 . S
H1879 C1876 0.930 . S
C1880 C1882 1.348 . S
C1880 C1883 1.356 . S
C1880 O1910 1.325 . S
N1881 C1884 1.314 . S
N1881 C1885 1.279 . S
C1882 C1880 1.348 . S
C1882 C1884 1.353 . S
C1882 H1924 0.929 . S
C1883 C1880 1.356 . S
C1883 C1885 1.358 . S
C1883 H1925 0.930 . S
C1884 N1881 1.314 . S
C1884 C1882 1.353 . S
C1884 H1926 0.930 . S
C1885 N1881 1.279 . S
C1885 C1883 1.358 . S
C1885 H1927 0.930 . S
C1886 C1887 1.348 . S
C1886 C1888 1.356 . S
C1886 O1911 1.325 . S
C1887 C1886 1.348 . S
C1887 C1889 1.353 . S
C1887 H1928 0.929 . S
C1888 C1886 1.356 . S
C1888 C1890 1.358 . S
C1888 H1929 0.930 . S
C1889 C1887 1.353 . S
C1889 N1891 1.314 . S
C1889 H1930 0.930 . S
C1890 C1888 1.358 . S
C1890 N1891 1.279 . S
C1890 H1931 0.930 . S
N1891 C1889 1.314 . S
N1891 C1890 1.279 . S
C1892 C1894 1.353 . S
C1892 N1895 1.314 . S
C1892 H1898 0.930 . S
C1893 N1895 1.279 . S
C1893 C1896 1.358 . S
C1893 H1899 0.930 . S
C1894 C1892 1.353 . S
C1894 C1897 1.348 . S
C1894 H1932 0.929 . S
N1895 Li1850 1.990 . S
N1895 C1892 1.314 . S
N1895 C1893 1.279 . S
C1896 C1893 1.358 . S
C1896 C1897 1.356 . S
C1896 H1933 0.930 . S
C1897 C1894 1.348 . S
C1897 C1896 1.356 . S
H1898 C1892 0.930 . S
H1899 C1893 0.930 . S
C1900 N1901 1.314 . S
C1900 C1902 1.353 . S
C1900 H1906 0.930 . S
N1901 Li1851 1.990 . S
N1901 C1900 1.314 . S
N1901 C1904 1.279 . S
C1902 C1900 1.353 . S
C1902 C1905 1.348 . S
C1902 H1934 0.929 . S
C1903 C1904 1.358 . S
C1903 C1905 1.356 . S
C1903 H1935 0.930 . S
C1904 N1901 1.279 . S
C1904 C1903 1.358 . S
C1904 H1907 0.930 . S
C1905 C1902 1.348 . S
C1905 C1903 1.356 . S
H1906 C1900 0.930 . S
H1907 C1904 0.930 . S
O1908 Li1848 1.956 . S
O1908 Li1849 1.970 . S
O1908 Li1850 1.961 . S
O1908 C1852 1.325 . S
O1909 Li1848 1.970 . S
O1909 Li1849 1.956 . S
O1909 Li1851 1.961 . S
O1909 C1858 1.325 . S
O1910 Li1848 1.961 . S
O1910 Li1850 1.956 . S
O1910 Li1851 1.970 . S
O1910 C1880 1.325 . S
O1911 Li1849 1.961 . S
O1911 Li1850 1.970 . S
O1911 Li1851 1.956 . S
O1911 C1886 1.325 . S
H1912 C1854 0.929 . S
H1913 C1855 0.930 . S
H1914 C1856 0.930 . S
H1915 C1857 0.930 . S
H1916 C1859 0.930 . S
H1917 C1861 0.929 . S
H1918 C1862 0.930 . S
H1919 C1863 0.930 1_545 S
H1920 C1866 0.930 1_545 S
H1921 C1869 0.929 . S
H1922 C1874 0.929 . S
H1923 C1875 0.930 . S
H1924 C1882 0.929 . S
H1925 C1883 0.930 . S
H1926 C1884 0.930 . S
H1927 C1885 0.930 . S
H1928 C1887 0.929 . S
H1929 C1888 0.930 . S
H1930 C1889 0.930 . S
H1931 C1890 0.930 . S
H1932 C1894 0.929 . S
H1933 C1896 0.930 . S
H1934 C1902 0.929 . S
H1935 C1903 0.930 . S
Li1936 N1953 1.990 . S
Li1936 O1996 1.956 . S
Li1936 O1997 1.970 . S
Li1936 O1998 1.961 . S
Li1937 N1961 1.990 . S
Li1937 O1996 1.970 . S
Li1937 O1997 1.956 . S
Li1937 O1999 1.961 . S
Li1938 N1983 1.990 . S
Li1938 O1996 1.961 . S
Li1938 O1998 1.956 . S
Li1938 O1999 1.970 . S
Li1939 N1989 1.990 . S
Li1939 O1997 1.961 . S
Li1939 O1998 1.970 . S
Li1939 O1999 1.956 . S
C1940 C1942 1.348 . S
C1940 C1943 1.356 . S
C1940 O1996 1.325 . S
N1941 C1944 1.314 . S
N1941 C1945 1.279 . S
C1942 C1940 1.348 . S
C1942 C1944 1.353 . S
C1942 H2000 0.929 . S
C1943 C1940 1.356 . S
C1943 C1945 1.358 . S
C1943 H2001 0.930 . S
C1944 N1941 1.314 . S
C1944 C1942 1.353 . S
C1944 H2002 0.930 1_565 S
C1945 N1941 1.279 . S
C1945 C1943 1.358 . S
C1945 H2003 0.930 . S
C1946 C1949 1.348 . S
C1946 C1950 1.356 . S
C1946 O1997 1.325 . S
C1947 N1948 1.279 . S
C1947 C1950 1.358 . S
C1947 H2004 0.930 . S
N1948 C1947 1.279 . S
N1948 C1951 1.314 . S
C1949 C1946 1.348 . S
C1949 C1951 1.353 . S
C1949 H2005 0.929 . S
C1950 C1946 1.356 . S
C1950 C1947 1.358 . S
C1950 H2006 0.930 . S
C1951 N1948 1.314 . S
C1951 C1949 1.353 . S
C1951 H2007 0.930 . S
C1952 N1953 1.314 . S
C1952 C1957 1.353 . S
C1952 H1958 0.930 . S
N1953 Li1936 1.990 . S
N1953 C1952 1.314 . S
N1953 C1955 1.279 . S
C1954 C1955 1.358 . S
C1954 C1956 1.356 . S
C1954 H2008 0.930 . S
C1955 N1953 1.279 . S
C1955 C1954 1.358 . S
C1955 H1959 0.930 . S
C1956 C1954 1.356 . S
C1956 C1957 1.348 . S
C1957 C1952 1.353 . S
C1957 C1956 1.348 . S
C1957 H2009 0.929 . S
H1958 C1952 0.930 . S
H1959 C1955 0.930 . S
C1960 N1961 1.314 . S
C1960 C1962 1.353 . S
C1960 H1966 0.930 . S
N1961 Li1937 1.990 . S
N1961 C1960 1.314 . S
N1961 C1964 1.279 . S
C1962 C1960 1.353 . S
C1962 C1965 1.348 . S
C1962 H2010 0.929 . S
C1963 C1964 1.358 . S
C1963 C1965 1.356 . S
C1963 H2011 0.930 1_565 S
C1964 N1961 1.279 . S
C1964 C1963 1.358 . S
C1964 H1967 0.930 . S
C1965 C1962 1.348 . S
C1965 C1963 1.356 . S
H1966 C1960 0.930 . S
H1967 C1964 0.930 . S
C1968 C1970 1.348 . S
C1968 C1971 1.356 . S
C1968 O1998 1.325 . S
N1969 C1972 1.314 . S
N1969 C1973 1.279 . S
C1970 C1968 1.348 . S
C1970 C1972 1.353 . S
C1970 H2012 0.929 . S
C1971 C1968 1.356 . S
C1971 C1973 1.358 . S
C1971 H2013 0.930 . S
C1972 N1969 1.314 . S
C1972 C1970 1.353 . S
C1972 H2014 0.930 . S
C1973 N1969 1.279 . S
C1973 C1971 1.358 . S
C1973 H2015 0.930 . S
C1974 C1975 1.348 . S
C1974 C1976 1.356 . S
C1974 O1999 1.325 . S
C1975 C1974 1.348 . S
C1975 C1977 1.353 . S
C1975 H2016 0.929 . S
C1976 C1974 1.356 . S
C1976 C1978 1.358 . S
C1976 H2017 0.930 . S
C1977 C1975 1.353 . S
C1977 N1979 1.314 . S
C1977 H2018 0.930 . S
C1978 C1976 1.358 . S
C1978 N1979 1.279 . S
C1978 H2019 0.930 1_556 S
N1979 C1977 1.314 . S
N1979 C1978 1.279 . S
C1980 C1982 1.353 . S
C1980 N1983 1.314 . S
C1980 H1986 0.930 . S
C1981 N1983 1.279 . S
C1981 C1984 1.358 . S
C1981 H1987 0.930 . S
C1982 C1980 1.353 . S
C1982 C1985 1.348 . S
C1982 H2020 0.929 . S
N1983 Li1938 1.990 . S
N1983 C1980 1.314 . S
N1983 C1981 1.279 . S
C1984 C1981 1.358 . S
C1984 C1985 1.356 . S
C1984 H2021 0.930 . S
C1985 C1982 1.348 . S
C1985 C1984 1.356 . S
H1986 C1980 0.930 . S
H1987 C1981 0.930 . S
C1988 N1989 1.314 . S
C1988 C1990 1.353 . S
C1988 H1994 0.930 . S
N1989 Li1939 1.990 . S
N1989 C1988 1.314 . S
N1989 C1992 1.279 . S
C1990 C1988 1.353 . S
C1990 C1993 1.348 . S
C1990 H2022 0.929 . S
C1991 C1992 1.358 . S
C1991 C1993 1.356 . S
C1991 H2023 0.930 . S
C1992 N1989 1.279 . S
C1992 C1991 1.358 . S
C1992 H1995 0.930 . S
C1993 C1990 1.348 . S
C1993 C1991 1.356 . S
H1994 C1988 0.930 . S
H1995 C1992 0.930 . S
O1996 Li1936 1.956 . S
O1996 Li1937 1.970 . S
O1996 Li1938 1.961 . S
O1996 C1940 1.325 . S
O1997 Li1936 1.970 . S
O1997 Li1937 1.956 . S
O1997 Li1939 1.961 . S
O1997 C1946 1.325 . S
O1998 Li1936 1.961 . S
O1998 Li1938 1.956 . S
O1998 Li1939 1.970 . S
O1998 C1968 1.325 . S
O1999 Li1937 1.961 . S
O1999 Li1938 1.970 . S
O1999 Li1939 1.956 . S
O1999 C1974 1.325 . S
H2000 C1942 0.929 . S
H2001 C1943 0.930 . S
H2002 C1944 0.930 1_545 S
H2003 C1945 0.930 . S
H2004 C1947 0.930 . S
H2005 C1949 0.929 . S
H2006 C1950 0.930 . S
H2007 C1951 0.930 . S
H2008 C1954 0.930 . S
H2009 C1957 0.929 . S
H2010 C1962 0.929 . S
H2011 C1963 0.930 1_545 S
H2012 C1970 0.929 . S
H2013 C1971 0.930 . S
H2014 C1972 0.930 . S
H2015 C1973 0.930 . S
H2016 C1975 0.929 . S
H2017 C1976 0.930 . S
H2018 C1977 0.930 . S
H2019 C1978 0.930 1_554 S
H2020 C1982 0.929 . S
H2021 C1984 0.930 . S
H2022 C1990 0.929 . S
H2023 C1991 0.930 . S
Li2024 N2041 1.990 . S
Li2024 O2084 1.956 . S
Li2024 O2085 1.970 . S
Li2024 O2086 1.961 . S
Li2025 N2049 1.990 . S
Li2025 O2084 1.970 . S
Li2025 O2085 1.956 . S
Li2025 O2087 1.961 . S
Li2026 N2071 1.990 . S
Li2026 O2084 1.961 . S
Li2026 O2086 1.956 . S
Li2026 O2087 1.970 . S
Li2027 N2077 1.990 . S
Li2027 O2085 1.961 . S
Li2027 O2086 1.970 . S
Li2027 O2087 1.956 . S
C2028 C2030 1.348 . S
C2028 C2031 1.356 . S
C2028 O2084 1.325 . S
N2029 C2032 1.314 . S
N2029 C2033 1.279 . S
C2030 C2028 1.348 . S
C2030 C2032 1.353 . S
C2030 H2088 0.929 . S
C2031 C2028 1.356 . S
C2031 C2033 1.358 . S
C2031 H2089 0.930 . S
C2032 N2029 1.314 . S
C2032 C2030 1.353 . S
C2032 H2090 0.930 . S
C2033 N2029 1.279 . S
C2033 C2031 1.358 . S
C2033 H2091 0.930 . S
C2034 C2037 1.348 . S
C2034 C2038 1.356 . S
C2034 O2085 1.325 . S
C2035 N2036 1.279 . S
C2035 C2038 1.358 . S
C2035 H2092 0.930 . S
N2036 C2035 1.279 . S
N2036 C2039 1.314 . S
C2037 C2034 1.348 . S
C2037 C2039 1.353 . S
C2037 H2093 0.929 . S
C2038 C2034 1.356 . S
C2038 C2035 1.358 . S
C2038 H2094 0.930 . S
C2039 N2036 1.314 . S
C2039 C2037 1.353 . S
C2039 H2095 0.930 . S
C2040 N2041 1.314 . S
C2040 C2045 1.353 . S
C2040 H2046 0.930 . S
N2041 Li2024 1.990 . S
N2041 C2040 1.314 . S
N2041 C2043 1.279 . S
C2042 C2043 1.358 . S
C2042 C2044 1.356 . S
C2042 H2096 0.930 . S
C2043 N2041 1.279 . S
C2043 C2042 1.358 . S
C2043 H2047 0.930 . S
C2044 C2042 1.356 . S
C2044 C2045 1.348 . S
C2045 C2040 1.353 . S
C2045 C2044 1.348 . S
C2045 H2097 0.929 . S
H2046 C2040 0.930 . S
H2047 C2043 0.930 . S
C2048 N2049 1.314 . S
C2048 C2050 1.353 . S
C2048 H2054 0.930 . S
N2049 Li2025 1.990 . S
N2049 C2048 1.314 . S
N2049 C2052 1.279 . S
C2050 C2048 1.353 . S
C2050 C2053 1.348 . S
C2050 H2098 0.929 . S
C2051 C2052 1.358 . S
C2051 C2053 1.356 . S
C2051 H2099 0.930 . S
C2052 N2049 1.279 . S
C2052 C2051 1.358 . S
C2052 H2055 0.930 . S
C2053 C2050 1.348 . S
C2053 C2051 1.356 . S
H2054 C2048 0.930 . S
H2055 C2052 0.930 . S
C2056 C2058 1.348 . S
C2056 C2059 1.356 . S
C2056 O2086 1.325 . S
N2057 C2060 1.314 . S
N2057 C2061 1.279 . S
C2058 C2056 1.348 . S
C2058 C2060 1.353 . S
C2058 H2100 0.929 . S
C2059 C2056 1.356 . S
C2059 C2061 1.358 . S
C2059 H2101 0.930 . S
C2060 N2057 1.314 . S
C2060 C2058 1.353 . S
C2060 H2102 0.930 . S
C2061 N2057 1.279 . S
C2061 C2059 1.358 . S
C2061 H2103 0.930 . S
C2062 C2063 1.348 . S
C2062 C2064 1.356 . S
C2062 O2087 1.325 . S
C2063 C2062 1.348 . S
C2063 C2065 1.353 . S
C2063 H2104 0.929 . S
C2064 C2062 1.356 . S
C2064 C2066 1.358 . S
C2064 H2105 0.930 . S
C2065 C2063 1.353 . S
C2065 N2067 1.314 . S
C2065 H2106 0.930 . S
C2066 C2064 1.358 . S
C2066 N2067 1.279 . S
C2066 H2107 0.930 . S
N2067 C2065 1.314 . S
N2067 C2066 1.279 . S
C2068 C2070 1.353 . S
C2068 N2071 1.314 . S
C2068 H2074 0.930 . S
C2069 N2071 1.279 . S
C2069 C2072 1.358 . S
C2069 H2075 0.930 . S
C2070 C2068 1.353 . S
C2070 C2073 1.348 . S
C2070 H2108 0.929 . S
N2071 Li2026 1.990 . S
N2071 C2068 1.314 . S
N2071 C2069 1.279 . S
C2072 C2069 1.358 . S
C2072 C2073 1.356 . S
C2072 H2109 0.930 . S
C2073 C2070 1.348 . S
C2073 C2072 1.356 . S
H2074 C2068 0.930 . S
H2075 C2069 0.930 . S
C2076 N2077 1.314 . S
C2076 C2078 1.353 . S
C2076 H2082 0.930 . S
N2077 Li2027 1.990 . S
N2077 C2076 1.314 . S
N2077 C2080 1.279 . S
C2078 C2076 1.353 . S
C2078 C2081 1.348 . S
C2078 H2110 0.929 . S
C2079 C2080 1.358 . S
C2079 C2081 1.356 . S
C2079 H2111 0.930 . S
C2080 N2077 1.279 . S
C2080 C2079 1.358 . S
C2080 H2083 0.930 . S
C2081 C2078 1.348 . S
C2081 C2079 1.356 . S
H2082 C2076 0.930 . S
H2083 C2080 0.930 . S
O2084 Li2024 1.956 . S
O2084 Li2025 1.970 . S
O2084 Li2026 1.961 . S
O2084 C2028 1.325 . S
O2085 Li2024 1.970 . S
O2085 Li2025 1.956 . S
O2085 Li2027 1.961 . S
O2085 C2034 1.325 . S
O2086 Li2024 1.961 . S
O2086 Li2026 1.956 . S
O2086 Li2027 1.970 . S
O2086 C2056 1.325 . S
O2087 Li2025 1.961 . S
O2087 Li2026 1.970 . S
O2087 Li2027 1.956 . S
O2087 C2062 1.325 . S
H2088 C2030 0.929 . S
H2089 C2031 0.930 . S
H2090 C2032 0.930 . S
H2091 C2033 0.930 . S
H2092 C2035 0.930 . S
H2093 C2037 0.929 . S
H2094 C2038 0.930 . S
H2095 C2039 0.930 . S
H2096 C2042 0.930 . S
H2097 C2045 0.929 . S
H2098 C2050 0.929 . S
H2099 C2051 0.930 . S
H2100 C2058 0.929 . S
H2101 C2059 0.930 . S
H2102 C2060 0.930 . S
H2103 C2061 0.930 . S
H2104 C2063 0.929 . S
H2105 C2064 0.930 . S
H2106 C2065 0.930 . S
H2107 C2066 0.930 . S
H2108 C2070 0.929 . S
H2109 C2072 0.930 . S
H2110 C2078 0.929 . S
H2111 C2079 0.930 . S
Li2112 N2129 1.990 . S
Li2112 O2172 1.956 . S
Li2112 O2173 1.970 . S
Li2112 O2174 1.961 . S
Li2113 N2137 1.990 . S
Li2113 O2172 1.970 . S
Li2113 O2173 1.956 . S
Li2113 O2175 1.961 . S
Li2114 N2159 1.990 . S
Li2114 O2172 1.961 . S
Li2114 O2174 1.956 . S
Li2114 O2175 1.970 . S
Li2115 N2165 1.990 . S
Li2115 O2173 1.961 . S
Li2115 O2174 1.970 . S
Li2115 O2175 1.956 . S
C2116 C2118 1.348 . S
C2116 C2119 1.356 . S
C2116 O2172 1.325 . S
N2117 C2120 1.314 . S
N2117 C2121 1.279 . S
C2118 C2116 1.348 . S
C2118 C2120 1.353 . S
C2118 H2176 0.929 . S
C2119 C2116 1.356 . S
C2119 C2121 1.358 . S
C2119 H2177 0.930 . S
C2120 N2117 1.314 . S
C2120 C2118 1.353 . S
C2120 H2178 0.930 . S
C2121 N2117 1.279 . S
C2121 C2119 1.358 . S
C2121 H2179 0.930 . S
C2122 C2125 1.348 . S
C2122 C2126 1.356 . S
C2122 O2173 1.325 . S
C2123 N2124 1.279 . S
C2123 C2126 1.358 . S
C2123 H2180 0.930 . S
N2124 C2123 1.279 . S
N2124 C2127 1.314 . S
C2125 C2122 1.348 . S
C2125 C2127 1.353 . S
C2125 H2181 0.929 . S
C2126 C2122 1.356 . S
C2126 C2123 1.358 . S
C2126 H2182 0.930 . S
C2127 N2124 1.314 . S
C2127 C2125 1.353 . S
C2127 H2183 0.930 . S
C2128 N2129 1.314 . S
C2128 C2133 1.353 . S
C2128 H2134 0.930 . S
N2129 Li2112 1.990 . S
N2129 C2128 1.314 . S
N2129 C2131 1.279 . S
C2130 C2131 1.358 . S
C2130 C2132 1.356 . S
C2130 H2184 0.930 . S
C2131 N2129 1.279 . S
C2131 C2130 1.358 . S
C2131 H2135 0.930 . S
C2132 C2130 1.356 . S
C2132 C2133 1.348 . S
C2133 C2128 1.353 . S
C2133 C2132 1.348 . S
C2133 H2185 0.929 . S
H2134 C2128 0.930 . S
H2135 C2131 0.930 . S
C2136 N2137 1.314 . S
C2136 C2138 1.353 . S
C2136 H2142 0.930 . S
N2137 Li2113 1.990 . S
N2137 C2136 1.314 . S
N2137 C2140 1.279 . S
C2138 C2136 1.353 . S
C2138 C2141 1.348 . S
C2138 H2186 0.929 . S
C2139 C2140 1.358 . S
C2139 C2141 1.356 . S
C2139 H2187 0.930 . S
C2140 N2137 1.279 . S
C2140 C2139 1.358 . S
C2140 H2143 0.930 . S
C2141 C2138 1.348 . S
C2141 C2139 1.356 . S
H2142 C2136 0.930 . S
H2143 C2140 0.930 . S
C2144 C2146 1.348 . S
C2144 C2147 1.356 . S
C2144 O2174 1.325 . S
N2145 C2148 1.314 . S
N2145 C2149 1.279 . S
C2146 C2144 1.348 . S
C2146 C2148 1.353 . S
C2146 H2188 0.929 . S
C2147 C2144 1.356 . S
C2147 C2149 1.358 . S
C2147 H2189 0.930 . S
C2148 N2145 1.314 . S
C2148 C2146 1.353 . S
C2148 H2190 0.930 . S
C2149 N2145 1.279 . S
C2149 C2147 1.358 . S
C2149 H2191 0.930 . S
C2150 C2151 1.348 . S
C2150 C2152 1.356 . S
C2150 O2175 1.325 . S
C2151 C2150 1.348 . S
C2151 C2153 1.353 . S
C2151 H2192 0.929 . S
C2152 C2150 1.356 . S
C2152 C2154 1.358 . S
C2152 H2193 0.930 . S
C2153 C2151 1.353 . S
C2153 N2155 1.314 . S
C2153 H2194 0.930 . S
C2154 C2152 1.358 . S
C2154 N2155 1.279 . S
C2154 H2195 0.930 . S
N2155 C2153 1.314 . S
N2155 C2154 1.279 . S
C2156 C2158 1.353 . S
C2156 N2159 1.314 . S
C2156 H2162 0.930 . S
C2157 N2159 1.279 . S
C2157 C2160 1.358 . S
C2157 H2163 0.930 . S
C2158 C2156 1.353 . S
C2158 C2161 1.348 . S
C2158 H2196 0.929 . S
N2159 Li2114 1.990 . S
N2159 C2156 1.314 . S
N2159 C2157 1.279 . S
C2160 C2157 1.358 . S
C2160 C2161 1.356 . S
C2160 H2197 0.930 . S
C2161 C2158 1.348 . S
C2161 C2160 1.356 . S
H2162 C2156 0.930 . S
H2163 C2157 0.930 . S
C2164 N2165 1.314 . S
C2164 C2166 1.353 . S
C2164 H2170 0.930 . S
N2165 Li2115 1.990 . S
N2165 C2164 1.314 . S
N2165 C2168 1.279 . S
C2166 C2164 1.353 . S
C2166 C2169 1.348 . S
C2166 H2198 0.929 . S
C2167 C2168 1.358 . S
C2167 C2169 1.356 . S
C2167 H2199 0.930 . S
C2168 N2165 1.279 . S
C2168 C2167 1.358 . S
C2168 H2171 0.930 . S
C2169 C2166 1.348 . S
C2169 C2167 1.356 . S
H2170 C2164 0.930 . S
H2171 C2168 0.930 . S
O2172 Li2112 1.956 . S
O2172 Li2113 1.970 . S
O2172 Li2114 1.961 . S
O2172 C2116 1.325 . S
O2173 Li2112 1.970 . S
O2173 Li2113 1.956 . S
O2173 Li2115 1.961 . S
O2173 C2122 1.325 . S
O2174 Li2112 1.961 . S
O2174 Li2114 1.956 . S
O2174 Li2115 1.970 . S
O2174 C2144 1.325 . S
O2175 Li2113 1.961 . S
O2175 Li2114 1.970 . S
O2175 Li2115 1.956 . S
O2175 C2150 1.325 . S
H2176 C2118 0.929 . S
H2177 C2119 0.930 . S
H2178 C2120 0.930 . S
H2179 C2121 0.930 . S
H2180 C2123 0.930 . S
H2181 C2125 0.929 . S
H2182 C2126 0.930 . S
H2183 C2127 0.930 . S
H2184 C2130 0.930 . S
H2185 C2133 0.929 . S
H2186 C2138 0.929 . S
H2187 C2139 0.930 . S
H2188 C2146 0.929 . S
H2189 C2147 0.930 . S
H2190 C2148 0.930 . S
H2191 C2149 0.930 . S
H2192 C2151 0.929 . S
H2193 C2152 0.930 . S
H2194 C2153 0.930 . S
H2195 C2154 0.930 . S
H2196 C2158 0.929 . S
H2197 C2160 0.930 . S
H2198 C2166 0.929 . S
H2199 C2167 0.930 . S
Li2200 N2217 1.990 . S
Li2200 O2260 1.956 . S
Li2200 O2261 1.970 . S
Li2200 O2262 1.961 . S
Li2201 N2225 1.990 . S
Li2201 O2260 1.970 . S
Li2201 O2261 1.956 . S
Li2201 O2263 1.961 . S
Li2202 N2247 1.990 . S
Li2202 O2260 1.961 . S
Li2202 O2262 1.956 . S
Li2202 O2263 1.970 . S
Li2203 N2253 1.990 . S
Li2203 O2261 1.961 . S
Li2203 O2262 1.970 . S
Li2203 O2263 1.956 . S
C2204 C2206 1.348 . S
C2204 C2207 1.356 . S
C2204 O2260 1.325 . S
N2205 C2208 1.314 . S
N2205 C2209 1.279 . S
C2206 C2204 1.348 . S
C2206 C2208 1.353 . S
C2206 H2264 0.929 . S
C2207 C2204 1.356 . S
C2207 C2209 1.358 . S
C2207 H2265 0.930 . S
C2208 N2205 1.314 . S
C2208 C2206 1.353 . S
C2208 H2266 0.930 . S
C2209 N2205 1.279 . S
C2209 C2207 1.358 . S
C2209 H2267 0.930 . S
C2210 C2213 1.348 . S
C2210 C2214 1.356 . S
C2210 O2261 1.325 . S
C2211 N2212 1.279 . S
C2211 C2214 1.358 . S
C2211 H2268 0.930 . S
N2212 C2211 1.279 . S
N2212 C2215 1.314 . S
C2213 C2210 1.348 . S
C2213 C2215 1.353 . S
C2213 H2269 0.929 . S
C2214 C2210 1.356 . S
C2214 C2211 1.358 . S
C2214 H2270 0.930 . S
C2215 N2212 1.314 . S
C2215 C2213 1.353 . S
C2215 H2271 0.930 . S
C2216 N2217 1.314 . S
C2216 C2221 1.353 . S
C2216 H2222 0.930 . S
N2217 Li2200 1.990 . S
N2217 C2216 1.314 . S
N2217 C2219 1.279 . S
C2218 C2219 1.358 . S
C2218 C2220 1.356 . S
C2218 H2272 0.930 . S
C2219 N2217 1.279 . S
C2219 C2218 1.358 . S
C2219 H2223 0.930 . S
C2220 C2218 1.356 . S
C2220 C2221 1.348 . S
C2221 C2216 1.353 . S
C2221 C2220 1.348 . S
C2221 H2273 0.929 . S
H2222 C2216 0.930 . S
H2223 C2219 0.930 . S
C2224 N2225 1.314 . S
C2224 C2226 1.353 . S
C2224 H2230 0.930 . S
N2225 Li2201 1.990 . S
N2225 C2224 1.314 . S
N2225 C2228 1.279 . S
C2226 C2224 1.353 . S
C2226 C2229 1.348 . S
C2226 H2274 0.929 . S
C2227 C2228 1.358 . S
C2227 C2229 1.356 . S
C2227 H2275 0.930 . S
C2228 N2225 1.279 . S
C2228 C2227 1.358 . S
C2228 H2231 0.930 . S
C2229 C2226 1.348 . S
C2229 C2227 1.356 . S
H2230 C2224 0.930 . S
H2231 C2228 0.930 . S
C2232 C2234 1.348 . S
C2232 C2235 1.356 . S
C2232 O2262 1.325 . S
N2233 C2236 1.314 . S
N2233 C2237 1.279 . S
C2234 C2232 1.348 . S
C2234 C2236 1.353 . S
C2234 H2276 0.929 . S
C2235 C2232 1.356 . S
C2235 C2237 1.358 . S
C2235 H2277 0.930 . S
C2236 N2233 1.314 . S
C2236 C2234 1.353 . S
C2236 H2278 0.930 . S
C2237 N2233 1.279 . S
C2237 C2235 1.358 . S
C2237 H2279 0.930 . S
C2238 C2239 1.348 . S
C2238 C2240 1.356 . S
C2238 O2263 1.325 . S
C2239 C2238 1.348 . S
C2239 C2241 1.353 . S
C2239 H2280 0.929 . S
C2240 C2238 1.356 . S
C2240 C2242 1.358 . S
C2240 H2281 0.930 . S
C2241 C2239 1.353 . S
C2241 N2243 1.314 . S
C2241 H2282 0.930 . S
C2242 C2240 1.358 . S
C2242 N2243 1.279 . S
C2242 H2283 0.930 . S
N2243 C2241 1.314 . S
N2243 C2242 1.279 . S
C2244 C2246 1.353 . S
C2244 N2247 1.314 . S
C2244 H2250 0.930 . S
C2245 N2247 1.279 . S
C2245 C2248 1.358 . S
C2245 H2251 0.930 . S
C2246 C2244 1.353 . S
C2246 C2249 1.348 . S
C2246 H2284 0.929 . S
N2247 Li2202 1.990 . S
N2247 C2244 1.314 . S
N2247 C2245 1.279 . S
C2248 C2245 1.358 . S
C2248 C2249 1.356 . S
C2248 H2285 0.930 . S
C2249 C2246 1.348 . S
C2249 C2248 1.356 . S
H2250 C2244 0.930 . S
H2251 C2245 0.930 . S
C2252 N2253 1.314 . S
C2252 C2254 1.353 . S
C2252 H2258 0.930 . S
N2253 Li2203 1.990 . S
N2253 C2252 1.314 . S
N2253 C2256 1.279 . S
C2254 C2252 1.353 . S
C2254 C2257 1.348 . S
C2254 H2286 0.929 . S
C2255 C2256 1.358 . S
C2255 C2257 1.356 . S
C2255 H2287 0.930 . S
C2256 N2253 1.279 . S
C2256 C2255 1.358 . S
C2256 H2259 0.930 . S
C2257 C2254 1.348 . S
C2257 C2255 1.356 . S
H2258 C2252 0.930 . S
H2259 C2256 0.930 . S
O2260 Li2200 1.956 . S
O2260 Li2201 1.970 . S
O2260 Li2202 1.961 . S
O2260 C2204 1.325 . S
O2261 Li2200 1.970 . S
O2261 Li2201 1.956 . S
O2261 Li2203 1.961 . S
O2261 C2210 1.325 . S
O2262 Li2200 1.961 . S
O2262 Li2202 1.956 . S
O2262 Li2203 1.970 . S
O2262 C2232 1.325 . S
O2263 Li2201 1.961 . S
O2263 Li2202 1.970 . S
O2263 Li2203 1.956 . S
O2263 C2238 1.325 . S
H2264 C2206 0.929 . S
H2265 C2207 0.930 . S
H2266 C2208 0.930 . S
H2267 C2209 0.930 . S
H2268 C2211 0.930 . S
H2269 C2213 0.929 . S
H2270 C2214 0.930 . S
H2271 C2215 0.930 . S
H2272 C2218 0.930 . S
H2273 C2221 0.929 . S
H2274 C2226 0.929 . S
H2275 C2227 0.930 . S
H2276 C2234 0.929 . S
H2277 C2235 0.930 . S
H2278 C2236 0.930 . S
H2279 C2237 0.930 . S
H2280 C2239 0.929 . S
H2281 C2240 0.930 . S
H2282 C2241 0.930 . S
H2283 C2242 0.930 . S
H2284 C2246 0.929 . S
H2285 C2248 0.930 . S
H2286 C2254 0.929 . S
H2287 C2255 0.930 . S
Li2288 N2305 1.990 . S
Li2288 O2348 1.956 . S
Li2288 O2349 1.970 . S
Li2288 O2350 1.961 . S
Li2289 N2313 1.990 . S
Li2289 O2348 1.970 . S
Li2289 O2349 1.956 . S
Li2289 O2351 1.961 . S
Li2290 N2335 1.990 . S
Li2290 O2348 1.961 . S
Li2290 O2350 1.956 . S
Li2290 O2351 1.970 . S
Li2291 N2341 1.990 . S
Li2291 O2349 1.961 . S
Li2291 O2350 1.970 . S
Li2291 O2351 1.956 . S
C2292 C2294 1.348 . S
C2292 C2295 1.356 . S
C2292 O2348 1.325 . S
N2293 C2296 1.314 . S
N2293 C2297 1.279 . S
C2294 C2292 1.348 . S
C2294 C2296 1.353 . S
C2294 H2352 0.929 . S
C2295 C2292 1.356 . S
C2295 C2297 1.358 . S
C2295 H2353 0.930 . S
C2296 N2293 1.314 . S
C2296 C2294 1.353 . S
C2296 H2354 0.930 . S
C2297 N2293 1.279 . S
C2297 C2295 1.358 . S
C2297 H2355 0.930 . S
C2298 C2301 1.348 . S
C2298 C2302 1.356 . S
C2298 O2349 1.325 . S
C2299 N2300 1.279 . S
C2299 C2302 1.358 . S
C2299 H2356 0.930 . S
N2300 C2299 1.279 . S
N2300 C2303 1.314 . S
C2301 C2298 1.348 . S
C2301 C2303 1.353 . S
C2301 H2357 0.929 . S
C2302 C2298 1.356 . S
C2302 C2299 1.358 . S
C2302 H2358 0.930 . S
C2303 N2300 1.314 . S
C2303 C2301 1.353 . S
C2303 H2359 0.930 . S
C2304 N2305 1.314 . S
C2304 C2309 1.353 . S
C2304 H2310 0.930 . S
N2305 Li2288 1.990 . S
N2305 C2304 1.314 . S
N2305 C2307 1.279 . S
C2306 C2307 1.358 . S
C2306 C2308 1.356 . S
C2306 H2360 0.930 . S
C2307 N2305 1.279 . S
C2307 C2306 1.358 . S
C2307 H2311 0.930 . S
C2308 C2306 1.356 . S
C2308 C2309 1.348 . S
C2309 C2304 1.353 . S
C2309 C2308 1.348 . S
C2309 H2361 0.929 . S
H2310 C2304 0.930 . S
H2311 C2307 0.930 . S
C2312 N2313 1.314 . S
C2312 C2314 1.353 . S
C2312 H2318 0.930 . S
N2313 Li2289 1.990 . S
N2313 C2312 1.314 . S
N2313 C2316 1.279 . S
C2314 C2312 1.353 . S
C2314 C2317 1.348 . S
C2314 H2362 0.929 . S
C2315 C2316 1.358 . S
C2315 C2317 1.356 . S
C2315 H2363 0.930 . S
C2316 N2313 1.279 . S
C2316 C2315 1.358 . S
C2316 H2319 0.930 . S
C2317 C2314 1.348 . S
C2317 C2315 1.356 . S
H2318 C2312 0.930 . S
H2319 C2316 0.930 . S
C2320 C2322 1.348 . S
C2320 C2323 1.356 . S
C2320 O2350 1.325 . S
N2321 C2324 1.314 . S
N2321 C2325 1.279 . S
C2322 C2320 1.348 . S
C2322 C2324 1.353 . S
C2322 H2364 0.929 . S
C2323 C2320 1.356 . S
C2323 C2325 1.358 . S
C2323 H2365 0.930 . S
C2324 N2321 1.314 . S
C2324 C2322 1.353 . S
C2324 H2366 0.930 . S
C2325 N2321 1.279 . S
C2325 C2323 1.358 . S
C2325 H2367 0.930 . S
C2326 C2327 1.348 . S
C2326 C2328 1.356 . S
C2326 O2351 1.325 . S
C2327 C2326 1.348 . S
C2327 C2329 1.353 . S
C2327 H2368 0.929 . S
C2328 C2326 1.356 . S
C2328 C2330 1.358 . S
C2328 H2369 0.930 . S
C2329 C2327 1.353 . S
C2329 N2331 1.314 . S
C2329 H2370 0.930 . S
C2330 C2328 1.358 . S
C2330 N2331 1.279 . S
C2330 H2371 0.930 . S
N2331 C2329 1.314 . S
N2331 C2330 1.279 . S
C2332 C2334 1.353 . S
C2332 N2335 1.314 . S
C2332 H2338 0.930 . S
C2333 N2335 1.279 . S
C2333 C2336 1.358 . S
C2333 H2339 0.930 . S
C2334 C2332 1.353 . S
C2334 C2337 1.348 . S
C2334 H2372 0.929 . S
N2335 Li2290 1.990 . S
N2335 C2332 1.314 . S
N2335 C2333 1.279 . S
C2336 C2333 1.358 . S
C2336 C2337 1.356 . S
C2336 H2373 0.930 . S
C2337 C2334 1.348 . S
C2337 C2336 1.356 . S
H2338 C2332 0.930 . S
H2339 C2333 0.930 . S
C2340 N2341 1.314 . S
C2340 C2342 1.353 . S
C2340 H2346 0.930 . S
N2341 Li2291 1.990 . S
N2341 C2340 1.314 . S
N2341 C2344 1.279 . S
C2342 C2340 1.353 . S
C2342 C2345 1.348 . S
C2342 H2374 0.929 . S
C2343 C2344 1.358 . S
C2343 C2345 1.356 . S
C2343 H2375 0.930 . S
C2344 N2341 1.279 . S
C2344 C2343 1.358 . S
C2344 H2347 0.930 . S
C2345 C2342 1.348 . S
C2345 C2343 1.356 . S
H2346 C2340 0.930 . S
H2347 C2344 0.930 . S
O2348 Li2288 1.956 . S
O2348 Li2289 1.970 . S
O2348 Li2290 1.961 . S
O2348 C2292 1.325 . S
O2349 Li2288 1.970 . S
O2349 Li2289 1.956 . S
O2349 Li2291 1.961 . S
O2349 C2298 1.325 . S
O2350 Li2288 1.961 . S
O2350 Li2290 1.956 . S
O2350 Li2291 1.970 . S
O2350 C2320 1.325 . S
O2351 Li2289 1.961 . S
O2351 Li2290 1.970 . S
O2351 Li2291 1.956 . S
O2351 C2326 1.325 . S
H2352 C2294 0.929 . S
H2353 C2295 0.930 . S
H2354 C2296 0.930 . S
H2355 C2297 0.930 . S
H2356 C2299 0.930 . S
H2357 C2301 0.929 . S
H2358 C2302 0.930 . S
H2359 C2303 0.930 . S
H2360 C2306 0.930 . S
H2361 C2309 0.929 . S
H2362 C2314 0.929 . S
H2363 C2315 0.930 . S
H2364 C2322 0.929 . S
H2365 C2323 0.930 . S
H2366 C2324 0.930 . S
H2367 C2325 0.930 . S
H2368 C2327 0.929 . S
H2369 C2328 0.930 . S
H2370 C2329 0.930 . S
H2371 C2330 0.930 . S
H2372 C2334 0.929 . S
H2373 C2336 0.930 . S
H2374 C2342 0.929 . S
H2375 C2343 0.930 . S
Li2376 N2393 1.990 . S
Li2376 O2436 1.956 . S
Li2376 O2437 1.970 . S
Li2376 O2438 1.961 . S
Li2377 N2401 1.990 . S
Li2377 O2436 1.970 . S
Li2377 O2437 1.956 . S
Li2377 O2439 1.961 . S
Li2378 N2423 1.990 . S
Li2378 O2436 1.961 . S
Li2378 O2438 1.956 . S
Li2378 O2439 1.970 . S
Li2379 N2429 1.990 . S
Li2379 O2437 1.961 . S
Li2379 O2438 1.970 . S
Li2379 O2439 1.956 . S
C2380 C2382 1.348 . S
C2380 C2383 1.356 . S
C2380 O2436 1.325 . S
N2381 C2384 1.314 . S
N2381 C2385 1.279 . S
C2382 C2380 1.348 . S
C2382 C2384 1.353 . S
C2382 H2440 0.929 . S
C2383 C2380 1.356 . S
C2383 C2385 1.358 . S
C2383 H2441 0.930 . S
C2384 N2381 1.314 . S
C2384 C2382 1.353 . S
C2384 H2442 0.930 . S
C2385 N2381 1.279 . S
C2385 C2383 1.358 . S
C2385 H2443 0.930 . S
C2386 C2389 1.348 . S
C2386 C2390 1.356 . S
C2386 O2437 1.325 . S
C2387 N2388 1.279 . S
C2387 C2390 1.358 . S
C2387 H2444 0.930 . S
N2388 C2387 1.279 . S
N2388 C2391 1.314 . S
C2389 C2386 1.348 . S
C2389 C2391 1.353 . S
C2389 H2445 0.929 . S
C2390 C2386 1.356 . S
C2390 C2387 1.358 . S
C2390 H2446 0.930 . S
C2391 N2388 1.314 . S
C2391 C2389 1.353 . S
C2391 H2447 0.930 . S
C2392 N2393 1.314 . S
C2392 C2397 1.353 . S
C2392 H2398 0.930 . S
N2393 Li2376 1.990 . S
N2393 C2392 1.314 . S
N2393 C2395 1.279 . S
C2394 C2395 1.358 . S
C2394 C2396 1.356 . S
C2394 H2448 0.930 . S
C2395 N2393 1.279 . S
C2395 C2394 1.358 . S
C2395 H2399 0.930 . S
C2396 C2394 1.356 . S
C2396 C2397 1.348 . S
C2397 C2392 1.353 . S
C2397 C2396 1.348 . S
C2397 H2449 0.929 . S
H2398 C2392 0.930 . S
H2399 C2395 0.930 . S
C2400 N2401 1.314 . S
C2400 C2402 1.353 . S
C2400 H2406 0.930 . S
N2401 Li2377 1.990 . S
N2401 C2400 1.314 . S
N2401 C2404 1.279 . S
C2402 C2400 1.353 . S
C2402 C2405 1.348 . S
C2402 H2450 0.929 . S
C2403 C2404 1.358 . S
C2403 C2405 1.356 . S
C2403 H2451 0.930 . S
C2404 N2401 1.279 . S
C2404 C2403 1.358 . S
C2404 H2407 0.930 . S
C2405 C2402 1.348 . S
C2405 C2403 1.356 . S
H2406 C2400 0.930 . S
H2407 C2404 0.930 . S
C2408 C2410 1.348 . S
C2408 C2411 1.356 . S
C2408 O2438 1.325 . S
N2409 C2412 1.314 . S
N2409 C2413 1.279 . S
C2410 C2408 1.348 . S
C2410 C2412 1.353 . S
C2410 H2452 0.929 . S
C2411 C2408 1.356 . S
C2411 C2413 1.358 . S
C2411 H2453 0.930 . S
C2412 N2409 1.314 . S
C2412 C2410 1.353 . S
C2412 H2454 0.930 . S
C2413 N2409 1.279 . S
C2413 C2411 1.358 . S
C2413 H2455 0.930 . S
C2414 C2415 1.348 . S
C2414 C2416 1.356 . S
C2414 O2439 1.325 . S
C2415 C2414 1.348 . S
C2415 C2417 1.353 . S
C2415 H2456 0.929 . S
C2416 C2414 1.356 . S
C2416 C2418 1.358 . S
C2416 H2457 0.930 . S
C2417 C2415 1.353 . S
C2417 N2419 1.314 . S
C2417 H2458 0.930 . S
C2418 C2416 1.358 . S
C2418 N2419 1.279 . S
C2418 H2459 0.930 . S
N2419 C2417 1.314 . S
N2419 C2418 1.279 . S
C2420 C2422 1.353 . S
C2420 N2423 1.314 . S
C2420 H2426 0.930 . S
C2421 N2423 1.279 . S
C2421 C2424 1.358 . S
C2421 H2427 0.930 . S
C2422 C2420 1.353 . S
C2422 C2425 1.348 . S
C2422 H2460 0.929 . S
N2423 Li2378 1.990 . S
N2423 C2420 1.314 . S
N2423 C2421 1.279 . S
C2424 C2421 1.358 . S
C2424 C2425 1.356 . S
C2424 H2461 0.930 . S
C2425 C2422 1.348 . S
C2425 C2424 1.356 . S
H2426 C2420 0.930 . S
H2427 C2421 0.930 . S
C2428 N2429 1.314 . S
C2428 C2430 1.353 . S
C2428 H2434 0.930 . S
N2429 Li2379 1.990 . S
N2429 C2428 1.314 . S
N2429 C2432 1.279 . S
C2430 C2428 1.353 . S
C2430 C2433 1.348 . S
C2430 H2462 0.929 . S
C2431 C2432 1.358 . S
C2431 C2433 1.356 . S
C2431 H2463 0.930 . S
C2432 N2429 1.279 . S
C2432 C2431 1.358 . S
C2432 H2435 0.930 . S
C2433 C2430 1.348 . S
C2433 C2431 1.356 . S
H2434 C2428 0.930 . S
H2435 C2432 0.930 . S
O2436 Li2376 1.956 . S
O2436 Li2377 1.970 . S
O2436 Li2378 1.961 . S
O2436 C2380 1.325 . S
O2437 Li2376 1.970 . S
O2437 Li2377 1.956 . S
O2437 Li2379 1.961 . S
O2437 C2386 1.325 . S
O2438 Li2376 1.961 . S
O2438 Li2378 1.956 . S
O2438 Li2379 1.970 . S
O2438 C2408 1.325 . S
O2439 Li2377 1.961 . S
O2439 Li2378 1.970 . S
O2439 Li2379 1.956 . S
O2439 C2414 1.325 . S
H2440 C2382 0.929 . S
H2441 C2383 0.930 . S
H2442 C2384 0.930 . S
H2443 C2385 0.930 . S
H2444 C2387 0.930 . S
H2445 C2389 0.929 . S
H2446 C2390 0.930 . S
H2447 C2391 0.930 . S
H2448 C2394 0.930 . S
H2449 C2397 0.929 . S
H2450 C2402 0.929 . S
H2451 C2403 0.930 . S
H2452 C2410 0.929 . S
H2453 C2411 0.930 . S
H2454 C2412 0.930 . S
H2455 C2413 0.930 . S
H2456 C2415 0.929 . S
H2457 C2416 0.930 . S
H2458 C2417 0.930 . S
H2459 C2418 0.930 . S
H2460 C2422 0.929 . S
H2461 C2424 0.930 . S
H2462 C2430 0.929 . S
H2463 C2431 0.930 . S
Li2464 N2481 1.990 . S
Li2464 O2524 1.956 . S
Li2464 O2525 1.970 . S
Li2464 O2526 1.961 . S
Li2465 N2489 1.990 . S
Li2465 O2524 1.970 . S
Li2465 O2525 1.956 . S
Li2465 O2527 1.961 . S
Li2466 N2511 1.990 . S
Li2466 O2524 1.961 . S
Li2466 O2526 1.956 . S
Li2466 O2527 1.970 . S
Li2467 N2517 1.990 . S
Li2467 O2525 1.961 . S
Li2467 O2526 1.970 . S
Li2467 O2527 1.956 . S
C2468 C2470 1.348 . S
C2468 C2471 1.356 . S
C2468 O2524 1.325 . S
N2469 C2472 1.314 . S
N2469 C2473 1.279 . S
C2470 C2468 1.348 . S
C2470 C2472 1.353 . S
C2470 H2528 0.929 . S
C2471 C2468 1.356 . S
C2471 C2473 1.358 . S
C2471 H2529 0.930 . S
C2472 N2469 1.314 . S
C2472 C2470 1.353 . S
C2472 H2530 0.930 . S
C2473 N2469 1.279 . S
C2473 C2471 1.358 . S
C2473 H2531 0.930 . S
C2474 C2477 1.348 . S
C2474 C2478 1.356 . S
C2474 O2525 1.325 . S
C2475 N2476 1.279 . S
C2475 C2478 1.358 . S
C2475 H2532 0.930 . S
N2476 C2475 1.279 . S
N2476 C2479 1.314 . S
C2477 C2474 1.348 . S
C2477 C2479 1.353 . S
C2477 H2533 0.929 . S
C2478 C2474 1.356 . S
C2478 C2475 1.358 . S
C2478 H2534 0.930 . S
C2479 N2476 1.314 . S
C2479 C2477 1.353 . S
C2479 H2535 0.930 . S
C2480 N2481 1.314 . S
C2480 C2485 1.353 . S
C2480 H2486 0.930 . S
N2481 Li2464 1.990 . S
N2481 C2480 1.314 . S
N2481 C2483 1.279 . S
C2482 C2483 1.358 . S
C2482 C2484 1.356 . S
C2482 H2536 0.930 . S
C2483 N2481 1.279 . S
C2483 C2482 1.358 . S
C2483 H2487 0.930 . S
C2484 C2482 1.356 . S
C2484 C2485 1.348 . S
C2485 C2480 1.353 . S
C2485 C2484 1.348 . S
C2485 H2537 0.929 . S
H2486 C2480 0.930 . S
H2487 C2483 0.930 . S
C2488 N2489 1.314 . S
C2488 C2490 1.353 . S
C2488 H2494 0.930 . S
N2489 Li2465 1.990 . S
N2489 C2488 1.314 . S
N2489 C2492 1.279 . S
C2490 C2488 1.353 . S
C2490 C2493 1.348 . S
C2490 H2538 0.929 . S
C2491 C2492 1.358 . S
C2491 C2493 1.356 . S
C2491 H2539 0.930 . S
C2492 N2489 1.279 . S
C2492 C2491 1.358 . S
C2492 H2495 0.930 . S
C2493 C2490 1.348 . S
C2493 C2491 1.356 . S
H2494 C2488 0.930 . S
H2495 C2492 0.930 . S
C2496 C2498 1.348 . S
C2496 C2499 1.356 . S
C2496 O2526 1.325 . S
N2497 C2500 1.314 . S
N2497 C2501 1.279 . S
C2498 C2496 1.348 . S
C2498 C2500 1.353 . S
C2498 H2540 0.929 . S
C2499 C2496 1.356 . S
C2499 C2501 1.358 . S
C2499 H2541 0.930 . S
C2500 N2497 1.314 . S
C2500 C2498 1.353 . S
C2500 H2542 0.930 . S
C2501 N2497 1.279 . S
C2501 C2499 1.358 . S
C2501 H2543 0.930 . S
C2502 C2503 1.348 . S
C2502 C2504 1.356 . S
C2502 O2527 1.325 . S
C2503 C2502 1.348 . S
C2503 C2505 1.353 . S
C2503 H2544 0.929 . S
C2504 C2502 1.356 . S
C2504 C2506 1.358 . S
C2504 H2545 0.930 . S
C2505 C2503 1.353 . S
C2505 N2507 1.314 . S
C2505 H2546 0.930 . S
C2506 C2504 1.358 . S
C2506 N2507 1.279 . S
C2506 H2547 0.930 . S
N2507 C2505 1.314 . S
N2507 C2506 1.279 . S
C2508 C2510 1.353 . S
C2508 N2511 1.314 . S
C2508 H2514 0.930 . S
C2509 N2511 1.279 . S
C2509 C2512 1.358 . S
C2509 H2515 0.930 . S
C2510 C2508 1.353 . S
C2510 C2513 1.348 . S
C2510 H2548 0.929 . S
N2511 Li2466 1.990 . S
N2511 C2508 1.314 . S
N2511 C2509 1.279 . S
C2512 C2509 1.358 . S
C2512 C2513 1.356 . S
C2512 H2549 0.930 . S
C2513 C2510 1.348 . S
C2513 C2512 1.356 . S
H2514 C2508 0.930 . S
H2515 C2509 0.930 . S
C2516 N2517 1.314 . S
C2516 C2518 1.353 . S
C2516 H2522 0.930 . S
N2517 Li2467 1.990 . S
N2517 C2516 1.314 . S
N2517 C2520 1.279 . S
C2518 C2516 1.353 . S
C2518 C2521 1.348 . S
C2518 H2550 0.929 . S
C2519 C2520 1.358 . S
C2519 C2521 1.356 . S
C2519 H2551 0.930 . S
C2520 N2517 1.279 . S
C2520 C2519 1.358 . S
C2520 H2523 0.930 . S
C2521 C2518 1.348 . S
C2521 C2519 1.356 . S
H2522 C2516 0.930 . S
H2523 C2520 0.930 . S
O2524 Li2464 1.956 . S
O2524 Li2465 1.970 . S
O2524 Li2466 1.961 . S
O2524 C2468 1.325 . S
O2525 Li2464 1.970 . S
O2525 Li2465 1.956 . S
O2525 Li2467 1.961 . S
O2525 C2474 1.325 . S
O2526 Li2464 1.961 . S
O2526 Li2466 1.956 . S
O2526 Li2467 1.970 . S
O2526 C2496 1.325 . S
O2527 Li2465 1.961 . S
O2527 Li2466 1.970 . S
O2527 Li2467 1.956 . S
O2527 C2502 1.325 . S
H2528 C2470 0.929 . S
H2529 C2471 0.930 . S
H2530 C2472 0.930 . S
H2531 C2473 0.930 . S
H2532 C2475 0.930 . S
H2533 C2477 0.929 . S
H2534 C2478 0.930 . S
H2535 C2479 0.930 . S
H2536 C2482 0.930 . S
H2537 C2485 0.929 . S
H2538 C2490 0.929 . S
H2539 C2491 0.930 . S
H2540 C2498 0.929 . S
H2541 C2499 0.930 . S
H2542 C2500 0.930 . S
H2543 C2501 0.930 . S
H2544 C2503 0.929 . S
H2545 C2504 0.930 . S
H2546 C2505 0.930 . S
H2547 C2506 0.930 . S
H2548 C2510 0.929 . S
H2549 C2512 0.930 . S
H2550 C2518 0.929 . S
H2551 C2519 0.930 . S
Li2552 N2569 1.990 . S
Li2552 O2612 1.956 . S
Li2552 O2613 1.970 . S
Li2552 O2614 1.961 . S
Li2553 N2577 1.990 . S
Li2553 O2612 1.970 . S
Li2553 O2613 1.956 . S
Li2553 O2615 1.961 . S
Li2554 N2599 1.990 . S
Li2554 O2612 1.961 . S
Li2554 O2614 1.956 . S
Li2554 O2615 1.970 . S
Li2555 N2605 1.990 . S
Li2555 O2613 1.961 . S
Li2555 O2614 1.970 . S
Li2555 O2615 1.956 . S
C2556 C2558 1.348 . S
C2556 C2559 1.356 . S
C2556 O2612 1.325 . S
N2557 C2560 1.314 . S
N2557 C2561 1.279 . S
C2558 C2556 1.348 . S
C2558 C2560 1.353 . S
C2558 H2616 0.929 . S
C2559 C2556 1.356 . S
C2559 C2561 1.358 . S
C2559 H2617 0.930 . S
C2560 N2557 1.314 . S
C2560 C2558 1.353 . S
C2560 H2618 0.930 . S
C2561 N2557 1.279 . S
C2561 C2559 1.358 . S
C2561 H2619 0.930 . S
C2562 C2565 1.348 . S
C2562 C2566 1.356 . S
C2562 O2613 1.325 . S
C2563 N2564 1.279 . S
C2563 C2566 1.358 . S
C2563 H2620 0.930 . S
N2564 C2563 1.279 . S
N2564 C2567 1.314 . S
C2565 C2562 1.348 . S
C2565 C2567 1.353 . S
C2565 H2621 0.929 . S
C2566 C2562 1.356 . S
C2566 C2563 1.358 . S
C2566 H2622 0.930 . S
C2567 N2564 1.314 . S
C2567 C2565 1.353 . S
C2567 H2623 0.930 . S
C2568 N2569 1.314 . S
C2568 C2573 1.353 . S
C2568 H2574 0.930 . S
N2569 Li2552 1.990 . S
N2569 C2568 1.314 . S
N2569 C2571 1.279 . S
C2570 C2571 1.358 . S
C2570 C2572 1.356 . S
C2570 H2624 0.930 . S
C2571 N2569 1.279 . S
C2571 C2570 1.358 . S
C2571 H2575 0.930 . S
C2572 C2570 1.356 . S
C2572 C2573 1.348 . S
C2573 C2568 1.353 . S
C2573 C2572 1.348 . S
C2573 H2625 0.929 . S
H2574 C2568 0.930 . S
H2575 C2571 0.930 . S
C2576 N2577 1.314 . S
C2576 C2578 1.353 . S
C2576 H2582 0.930 . S
N2577 Li2553 1.990 . S
N2577 C2576 1.314 . S
N2577 C2580 1.279 . S
C2578 C2576 1.353 . S
C2578 C2581 1.348 . S
C2578 H2626 0.929 . S
C2579 C2580 1.358 . S
C2579 C2581 1.356 . S
C2579 H2627 0.930 . S
C2580 N2577 1.279 . S
C2580 C2579 1.358 . S
C2580 H2583 0.930 . S
C2581 C2578 1.348 . S
C2581 C2579 1.356 . S
H2582 C2576 0.930 . S
H2583 C2580 0.930 . S
C2584 C2586 1.348 . S
C2584 C2587 1.356 . S
C2584 O2614 1.325 . S
N2585 C2588 1.314 . S
N2585 C2589 1.279 . S
C2586 C2584 1.348 . S
C2586 C2588 1.353 . S
C2586 H2628 0.929 . S
C2587 C2584 1.356 . S
C2587 C2589 1.358 . S
C2587 H2629 0.930 . S
C2588 N2585 1.314 . S
C2588 C2586 1.353 . S
C2588 H2630 0.930 . S
C2589 N2585 1.279 . S
C2589 C2587 1.358 . S
C2589 H2631 0.930 . S
C2590 C2591 1.348 . S
C2590 C2592 1.356 . S
C2590 O2615 1.325 . S
C2591 C2590 1.348 . S
C2591 C2593 1.353 . S
C2591 H2632 0.929 . S
C2592 C2590 1.356 . S
C2592 C2594 1.358 . S
C2592 H2633 0.930 . S
C2593 C2591 1.353 . S
C2593 N2595 1.314 . S
C2593 H2634 0.930 . S
C2594 C2592 1.358 . S
C2594 N2595 1.279 . S
C2594 H2635 0.930 . S
N2595 C2593 1.314 . S
N2595 C2594 1.279 . S
C2596 C2598 1.353 . S
C2596 N2599 1.314 . S
C2596 H2602 0.930 . S
C2597 N2599 1.279 . S
C2597 C2600 1.358 . S
C2597 H2603 0.930 . S
C2598 C2596 1.353 . S
C2598 C2601 1.348 . S
C2598 H2636 0.929 . S
N2599 Li2554 1.990 . S
N2599 C2596 1.314 . S
N2599 C2597 1.279 . S
C2600 C2597 1.358 . S
C2600 C2601 1.356 . S
C2600 H2637 0.930 . S
C2601 C2598 1.348 . S
C2601 C2600 1.356 . S
H2602 C2596 0.930 . S
H2603 C2597 0.930 . S
C2604 N2605 1.314 . S
C2604 C2606 1.353 . S
C2604 H2610 0.930 . S
N2605 Li2555 1.990 . S
N2605 C2604 1.314 . S
N2605 C2608 1.279 . S
C2606 C2604 1.353 . S
C2606 C2609 1.348 . S
C2606 H2638 0.929 . S
C2607 C2608 1.358 . S
C2607 C2609 1.356 . S
C2607 H2639 0.930 . S
C2608 N2605 1.279 . S
C2608 C2607 1.358 . S
C2608 H2611 0.930 . S
C2609 C2606 1.348 . S
C2609 C2607 1.356 . S
H2610 C2604 0.930 . S
H2611 C2608 0.930 . S
O2612 Li2552 1.956 . S
O2612 Li2553 1.970 . S
O2612 Li2554 1.961 . S
O2612 C2556 1.325 . S
O2613 Li2552 1.970 . S
O2613 Li2553 1.956 . S
O2613 Li2555 1.961 . S
O2613 C2562 1.325 . S
O2614 Li2552 1.961 . S
O2614 Li2554 1.956 . S
O2614 Li2555 1.970 . S
O2614 C2584 1.325 . S
O2615 Li2553 1.961 . S
O2615 Li2554 1.970 . S
O2615 Li2555 1.956 . S
O2615 C2590 1.325 . S
H2616 C2558 0.929 . S
H2617 C2559 0.930 . S
H2618 C2560 0.930 . S
H2619 C2561 0.930 . S
H2620 C2563 0.930 . S
H2621 C2565 0.929 . S
H2622 C2566 0.930 . S
H2623 C2567 0.930 . S
H2624 C2570 0.930 . S
H2625 C2573 0.929 . S
H2626 C2578 0.929 . S
H2627 C2579 0.930 . S
H2628 C2586 0.929 . S
H2629 C2587 0.930 . S
H2630 C2588 0.930 . S
H2631 C2589 0.930 . S
H2632 C2591 0.929 . S
H2633 C2592 0.930 . S
H2634 C2593 0.930 . S
H2635 C2594 0.930 . S
H2636 C2598 0.929 . S
H2637 C2600 0.930 . S
H2638 C2606 0.929 . S
H2639 C2607 0.930 . S
Li2640 N2657 1.990 . S
Li2640 O2700 1.956 . S
Li2640 O2701 1.970 . S
Li2640 O2702 1.961 . S
Li2641 N2665 1.990 . S
Li2641 O2700 1.970 . S
Li2641 O2701 1.956 . S
Li2641 O2703 1.961 . S
Li2642 N2687 1.990 . S
Li2642 O2700 1.961 . S
Li2642 O2702 1.956 . S
Li2642 O2703 1.970 . S
Li2643 N2693 1.990 . S
Li2643 O2701 1.961 . S
Li2643 O2702 1.970 . S
Li2643 O2703 1.956 . S
C2644 C2646 1.348 . S
C2644 C2647 1.356 . S
C2644 O2700 1.325 . S
N2645 C2648 1.314 . S
N2645 C2649 1.279 . S
C2646 C2644 1.348 . S
C2646 C2648 1.353 . S
C2646 H2704 0.929 . S
C2647 C2644 1.356 . S
C2647 C2649 1.358 . S
C2647 H2705 0.930 . S
C2648 N2645 1.314 . S
C2648 C2646 1.353 . S
C2648 H2706 0.930 . S
C2649 N2645 1.279 . S
C2649 C2647 1.358 . S
C2649 H2707 0.930 . S
C2650 C2653 1.348 . S
C2650 C2654 1.356 . S
C2650 O2701 1.325 . S
C2651 N2652 1.279 . S
C2651 C2654 1.358 . S
C2651 H2708 0.930 . S
N2652 C2651 1.279 . S
N2652 C2655 1.314 . S
C2653 C2650 1.348 . S
C2653 C2655 1.353 . S
C2653 H2709 0.929 . S
C2654 C2650 1.356 . S
C2654 C2651 1.358 . S
C2654 H2710 0.930 . S
C2655 N2652 1.314 . S
C2655 C2653 1.353 . S
C2655 H2711 0.930 . S
C2656 N2657 1.314 . S
C2656 C2661 1.353 . S
C2656 H2662 0.930 . S
N2657 Li2640 1.990 . S
N2657 C2656 1.314 . S
N2657 C2659 1.279 . S
C2658 C2659 1.358 . S
C2658 C2660 1.356 . S
C2658 H2712 0.930 . S
C2659 N2657 1.279 . S
C2659 C2658 1.358 . S
C2659 H2663 0.930 . S
C2660 C2658 1.356 . S
C2660 C2661 1.348 . S
C2661 C2656 1.353 . S
C2661 C2660 1.348 . S
C2661 H2713 0.929 . S
H2662 C2656 0.930 . S
H2663 C2659 0.930 . S
C2664 N2665 1.314 . S
C2664 C2666 1.353 . S
C2664 H2670 0.930 . S
N2665 Li2641 1.990 . S
N2665 C2664 1.314 . S
N2665 C2668 1.279 . S
C2666 C2664 1.353 . S
C2666 C2669 1.348 . S
C2666 H2714 0.929 . S
C2667 C2668 1.358 . S
C2667 C2669 1.356 . S
C2667 H2715 0.930 . S
C2668 N2665 1.279 . S
C2668 C2667 1.358 . S
C2668 H2671 0.930 . S
C2669 C2666 1.348 . S
C2669 C2667 1.356 . S
H2670 C2664 0.930 . S
H2671 C2668 0.930 . S
C2672 C2674 1.348 . S
C2672 C2675 1.356 . S
C2672 O2702 1.325 . S
N2673 C2676 1.314 . S
N2673 C2677 1.279 . S
C2674 C2672 1.348 . S
C2674 C2676 1.353 . S
C2674 H2716 0.929 . S
C2675 C2672 1.356 . S
C2675 C2677 1.358 . S
C2675 H2717 0.930 . S
C2676 N2673 1.314 . S
C2676 C2674 1.353 . S
C2676 H2718 0.930 . S
C2677 N2673 1.279 . S
C2677 C2675 1.358 . S
C2677 H2719 0.930 . S
C2678 C2679 1.348 . S
C2678 C2680 1.356 . S
C2678 O2703 1.325 . S
C2679 C2678 1.348 . S
C2679 C2681 1.353 . S
C2679 H2720 0.929 . S
C2680 C2678 1.356 . S
C2680 C2682 1.358 . S
C2680 H2721 0.930 . S
C2681 C2679 1.353 . S
C2681 N2683 1.314 . S
C2681 H2722 0.930 . S
C2682 C2680 1.358 . S
C2682 N2683 1.279 . S
C2682 H2723 0.930 . S
N2683 C2681 1.314 . S
N2683 C2682 1.279 . S
C2684 C2686 1.353 . S
C2684 N2687 1.314 . S
C2684 H2690 0.930 . S
C2685 N2687 1.279 . S
C2685 C2688 1.358 . S
C2685 H2691 0.930 . S
C2686 C2684 1.353 . S
C2686 C2689 1.348 . S
C2686 H2724 0.929 . S
N2687 Li2642 1.990 . S
N2687 C2684 1.314 . S
N2687 C2685 1.279 . S
C2688 C2685 1.358 . S
C2688 C2689 1.356 . S
C2688 H2725 0.930 . S
C2689 C2686 1.348 . S
C2689 C2688 1.356 . S
H2690 C2684 0.930 . S
H2691 C2685 0.930 . S
C2692 N2693 1.314 . S
C2692 C2694 1.353 . S
C2692 H2698 0.930 . S
N2693 Li2643 1.990 . S
N2693 C2692 1.314 . S
N2693 C2696 1.279 . S
C2694 C2692 1.353 . S
C2694 C2697 1.348 . S
C2694 H2726 0.929 . S
C2695 C2696 1.358 . S
C2695 C2697 1.356 . S
C2695 H2727 0.930 . S
C2696 N2693 1.279 . S
C2696 C2695 1.358 . S
C2696 H2699 0.930 . S
C2697 C2694 1.348 . S
C2697 C2695 1.356 . S
H2698 C2692 0.930 . S
H2699 C2696 0.930 . S
O2700 Li2640 1.956 . S
O2700 Li2641 1.970 . S
O2700 Li2642 1.961 . S
O2700 C2644 1.325 . S
O2701 Li2640 1.970 . S
O2701 Li2641 1.956 . S
O2701 Li2643 1.961 . S
O2701 C2650 1.325 . S
O2702 Li2640 1.961 . S
O2702 Li2642 1.956 . S
O2702 Li2643 1.970 . S
O2702 C2672 1.325 . S
O2703 Li2641 1.961 . S
O2703 Li2642 1.970 . S
O2703 Li2643 1.956 . S
O2703 C2678 1.325 . S
H2704 C2646 0.929 . S
H2705 C2647 0.930 . S
H2706 C2648 0.930 . S
H2707 C2649 0.930 . S
H2708 C2651 0.930 . S
H2709 C2653 0.929 . S
H2710 C2654 0.930 . S
H2711 C2655 0.930 . S
H2712 C2658 0.930 . S
H2713 C2661 0.929 . S
H2714 C2666 0.929 . S
H2715 C2667 0.930 . S
H2716 C2674 0.929 . S
H2717 C2675 0.930 . S
H2718 C2676 0.930 . S
H2719 C2677 0.930 . S
H2720 C2679 0.929 . S
H2721 C2680 0.930 . S
H2722 C2681 0.930 . S
H2723 C2682 0.930 . S
H2724 C2686 0.929 . S
H2725 C2688 0.930 . S
H2726 C2694 0.929 . S
H2727 C2695 0.930 . S
Li2728 N2745 1.990 . S
Li2728 O2788 1.956 . S
Li2728 O2789 1.970 . S
Li2728 O2790 1.961 . S
Li2729 N2753 1.990 . S
Li2729 O2788 1.970 . S
Li2729 O2789 1.956 . S
Li2729 O2791 1.961 . S
Li2730 N2775 1.990 . S
Li2730 O2788 1.961 . S
Li2730 O2790 1.956 . S
Li2730 O2791 1.970 . S
Li2731 N2781 1.990 . S
Li2731 O2789 1.961 . S
Li2731 O2790 1.970 . S
Li2731 O2791 1.956 . S
C2732 C2734 1.348 . S
C2732 C2735 1.356 . S
C2732 O2788 1.325 . S
N2733 C2736 1.314 . S
N2733 C2737 1.279 . S
C2734 C2732 1.348 . S
C2734 C2736 1.353 . S
C2734 H2792 0.929 . S
C2735 C2732 1.356 . S
C2735 C2737 1.358 . S
C2735 H2793 0.930 . S
C2736 N2733 1.314 . S
C2736 C2734 1.353 . S
C2736 H2794 0.930 . S
C2737 N2733 1.279 . S
C2737 C2735 1.358 . S
C2737 H2795 0.930 . S
C2738 C2741 1.348 . S
C2738 C2742 1.356 . S
C2738 O2789 1.325 . S
C2739 N2740 1.279 . S
C2739 C2742 1.358 . S
C2739 H2796 0.930 . S
N2740 C2739 1.279 . S
N2740 C2743 1.314 . S
C2741 C2738 1.348 . S
C2741 C2743 1.353 . S
C2741 H2797 0.929 . S
C2742 C2738 1.356 . S
C2742 C2739 1.358 . S
C2742 H2798 0.930 . S
C2743 N2740 1.314 . S
C2743 C2741 1.353 . S
C2743 H2799 0.930 . S
C2744 N2745 1.314 . S
C2744 C2749 1.353 . S
C2744 H2750 0.930 . S
N2745 Li2728 1.990 . S
N2745 C2744 1.314 . S
N2745 C2747 1.279 . S
C2746 C2747 1.358 . S
C2746 C2748 1.356 . S
C2746 H2800 0.930 . S
C2747 N2745 1.279 . S
C2747 C2746 1.358 . S
C2747 H2751 0.930 . S
C2748 C2746 1.356 . S
C2748 C2749 1.348 . S
C2749 C2744 1.353 . S
C2749 C2748 1.348 . S
C2749 H2801 0.929 . S
H2750 C2744 0.930 . S
H2751 C2747 0.930 . S
C2752 N2753 1.314 . S
C2752 C2754 1.353 . S
C2752 H2758 0.930 . S
N2753 Li2729 1.990 . S
N2753 C2752 1.314 . S
N2753 C2756 1.279 . S
C2754 C2752 1.353 . S
C2754 C2757 1.348 . S
C2754 H2802 0.929 . S
C2755 C2756 1.358 . S
C2755 C2757 1.356 . S
C2755 H2803 0.930 . S
C2756 N2753 1.279 . S
C2756 C2755 1.358 . S
C2756 H2759 0.930 . S
C2757 C2754 1.348 . S
C2757 C2755 1.356 . S
H2758 C2752 0.930 . S
H2759 C2756 0.930 . S
C2760 C2762 1.348 . S
C2760 C2763 1.356 . S
C2760 O2790 1.325 . S
N2761 C2764 1.314 . S
N2761 C2765 1.279 . S
C2762 C2760 1.348 . S
C2762 C2764 1.353 . S
C2762 H2804 0.929 . S
C2763 C2760 1.356 . S
C2763 C2765 1.358 . S
C2763 H2805 0.930 . S
C2764 N2761 1.314 . S
C2764 C2762 1.353 . S
C2764 H2806 0.930 . S
C2765 N2761 1.279 . S
C2765 C2763 1.358 . S
C2765 H2807 0.930 . S
C2766 C2767 1.348 . S
C2766 C2768 1.356 . S
C2766 O2791 1.325 . S
C2767 C2766 1.348 . S
C2767 C2769 1.353 . S
C2767 H2808 0.929 . S
C2768 C2766 1.356 . S
C2768 C2770 1.358 . S
C2768 H2809 0.930 . S
C2769 C2767 1.353 . S
C2769 N2771 1.314 . S
C2769 H2810 0.930 . S
C2770 C2768 1.358 . S
C2770 N2771 1.279 . S
C2770 H2811 0.930 . S
N2771 C2769 1.314 . S
N2771 C2770 1.279 . S
C2772 C2774 1.353 . S
C2772 N2775 1.314 . S
C2772 H2778 0.930 . S
C2773 N2775 1.279 . S
C2773 C2776 1.358 . S
C2773 H2779 0.930 . S
C2774 C2772 1.353 . S
C2774 C2777 1.348 . S
C2774 H2812 0.929 . S
N2775 Li2730 1.990 . S
N2775 C2772 1.314 . S
N2775 C2773 1.279 . S
C2776 C2773 1.358 . S
C2776 C2777 1.356 . S
C2776 H2813 0.930 . S
C2777 C2774 1.348 . S
C2777 C2776 1.356 . S
H2778 C2772 0.930 . S
H2779 C2773 0.930 . S
C2780 N2781 1.314 . S
C2780 C2782 1.353 . S
C2780 H2786 0.930 . S
N2781 Li2731 1.990 . S
N2781 C2780 1.314 . S
N2781 C2784 1.279 . S
C2782 C2780 1.353 . S
C2782 C2785 1.348 . S
C2782 H2814 0.929 . S
C2783 C2784 1.358 . S
C2783 C2785 1.356 . S
C2783 H2815 0.930 . S
C2784 N2781 1.279 . S
C2784 C2783 1.358 . S
C2784 H2787 0.930 . S
C2785 C2782 1.348 . S
C2785 C2783 1.356 . S
H2786 C2780 0.930 . S
H2787 C2784 0.930 . S
O2788 Li2728 1.956 . S
O2788 Li2729 1.970 . S
O2788 Li2730 1.961 . S
O2788 C2732 1.325 . S
O2789 Li2728 1.970 . S
O2789 Li2729 1.956 . S
O2789 Li2731 1.961 . S
O2789 C2738 1.325 . S
O2790 Li2728 1.961 . S
O2790 Li2730 1.956 . S
O2790 Li2731 1.970 . S
O2790 C2760 1.325 . S
O2791 Li2729 1.961 . S
O2791 Li2730 1.970 . S
O2791 Li2731 1.956 . S
O2791 C2766 1.325 . S
H2792 C2734 0.929 . S
H2793 C2735 0.930 . S
H2794 C2736 0.930 . S
H2795 C2737 0.930 . S
H2796 C2739 0.930 . S
H2797 C2741 0.929 . S
H2798 C2742 0.930 . S
H2799 C2743 0.930 . S
H2800 C2746 0.930 . S
H2801 C2749 0.929 . S
H2802 C2754 0.929 . S
H2803 C2755 0.930 . S
H2804 C2762 0.929 . S
H2805 C2763 0.930 . S
H2806 C2764 0.930 . S
H2807 C2765 0.930 . S
H2808 C2767 0.929 . S
H2809 C2768 0.930 . S
H2810 C2769 0.930 . S
H2811 C2770 0.930 . S
H2812 C2774 0.929 . S
H2813 C2776 0.930 . S
H2814 C2782 0.929 . S
H2815 C2783 0.930 . S
C636 C49 4.641 1_465 S
C137 C372 4.641 1_455 S
C489 C233 4.692 1_556 S
C557 C293 4.692 1_545 S
C753 C1965 4.692 1_544 S
C841 C1692 4.641 1_455 S
C2601 C929 4.692 . S
C2405 C988 4.692 . S
C1085 C2785 4.689 . S
C1193 C2337 4.692 . S
C1261 C1868 4.692 1_545 S
C1349 C1465 4.641 1_456 S
C1525 C2257 4.692 . S
C1633 C1809 4.692 1_554 S
C2669 C2044 4.692 . S
C2484 C2169 4.689 . S
C937 C57 2.230 . S
C1017 C108 2.150 . S
C761 C225 2.237 . S
C812 C321 2.150 . S
C1252 C381 2.230 . S
C460 C1377 2.150 . S
C548 C1076 2.237 . S
C665 C1164 2.150 . S
C1105 C733 2.248 . S
C849 C1201 2.230 . S
C1281 C909 2.251 . S
C997 C1340 2.230 . S
C2073 C1437 2.150 . S
C205 C1113 2.157 . S
C313 C1173 2.251 . S
C20 C1289 2.150 . S
C1545 C2748 2.248 . S
C1721 C1604 2.150 . S
C117 C1369 2.223 . S
C2053 C1701 2.230 . S
C1780 C1993 2.157 . S
C1457 C1641 2.230 . S
C1897 C2141 2.157 . S
C2132 C1985 2.248 . S
C900 C401 2.150 . S
C1817 C2161 2.237 . S
C645 C284 2.230 . S
C2521 C2220 2.248 . S
C497 C145 2.230 . S
C1428 C1729 2.223 . S
C2249 C2345 2.237 . S
C2396 C2493 2.237 . S
C2081 C1613 2.251 . S
C2308 C2513 2.157 . S
C1025 C469 2.251 . S
C673 C821 2.223 . S
C1553 C2572 2.157 . S
C2697 C2757 2.157 . S
C2777 C2609 2.237 . S
C409 C29 2.223 . S
C196 C577 2.251 . S
C2660 C1516 2.237 . S
C2229 C2433 2.157 . S
C1789 C1905 2.251 . S
C585 C724 2.157 . S
C1956 C1877 2.237 . S
C2317 C2425 2.251 . S
C2689 C2581 2.251 . S
