# Generated by pormake.
# Topology vmr, (7)-cn, num edge types: 1
# Building blocks:
#     Node 0, Type 0, BuildingBlock: HICVOG_clean_sbu_0, # of connection points: 7
#     Node 1, Type 0, BuildingBlock: HICVOG_clean_sbu_0, # of connection points: 7
#     Node 2, Type 0, BuildingBlock: HICVOG_clean_sbu_0, # of connection points: 7
#     Node 3, Type 0, BuildingBlock: HICVOG_clean_sbu_0, # of connection points: 7
#     Edge 4, Type (0, 0), BuildingBlock: TEMPAE_clean_linker_10, # of connection points: 2
#     Edge 5, Type (0, 0), BuildingBlock: TEMPAE_clean_linker_10, # of connection points: 2
#     Edge 6, Type (0, 0), BuildingBlock: TEMPAE_clean_linker_10, # of connection points: 2
#     Edge 7, Type (0, 0), BuildingBlock: TEMPAE_clean_linker_10, # of connection points: 2
#     Edge 8, Type (0, 0), BuildingBlock: TEMPAE_clean_linker_10, # of connection points: 2
#     Edge 9, Type (0, 0), BuildingBlock: TEMPAE_clean_linker_10, # of connection points: 2
#     Edge 10, Type (0, 0), BuildingBlock: TEMPAE_clean_linker_10, # of connection points: 2
#     Edge 11, Type (0, 0), BuildingBlock: TEMPAE_clean_linker_10, # of connection points: 2
#     Edge 12, Type (0, 0), BuildingBlock: TEMPAE_clean_linker_10, # of connection points: 2
#     Edge 13, Type (0, 0), BuildingBlock: TEMPAE_clean_linker_10, # of connection points: 2
#     Edge 14, Type (0, 0), BuildingBlock: TEMPAE_clean_linker_10, # of connection points: 2
#     Edge 15, Type (0, 0), BuildingBlock: TEMPAE_clean_linker_10, # of connection points: 2
#     Edge 16, Type (0, 0), BuildingBlock: TEMPAE_clean_linker_10, # of connection points: 2
#     Edge 17, Type (0, 0), BuildingBlock: TEMPAE_clean_linker_10, # of connection points: 2
# Relax obj value: 0.076
# Max RMSD: 0.174
# Mean RMSD: 0.174
data_MOF--net-vmr--node1-HICVOG_clean_sbu_0--edge1-TEMPAE_clean_linker_10
_symmetry_space_group_name_H-M    P1
_symmetry_Int_Tables_number       1
_symmetry_cell_setting            triclinic
loop_
_symmetry_equiv_pos_as_xyz
'x, y, z'
_cell_length_a     25.715762
_cell_length_b     21.942882
_cell_length_c     36.350943
_cell_angle_alpha  90.074829
_cell_angle_beta   122.5152
_cell_angle_gamma 90.019878
loop_
_atom_site_label
_atom_site_type_symbol
_atom_site_fract_x
_atom_site_fract_y
_atom_site_fract_z
_atom_type_partial_charge
Zn0 Zn 0.22634 0.36815 0.15495 0.0
C1 C 0.0936 0.35069 0.18086 0.0
N2 N 0.05764 0.37902 0.1426 0.0
C3 C 0.09363 0.38203 0.12627 0.0
N4 N 0.15002 0.35733 0.15379 0.0
N5 N 0.14895 0.33618 0.18751 0.0
C6 C 0.23367 0.26358 0.31263 0.0
O7 O 0.28834 0.2715 0.31858 0.0
O8 O 0.2092 0.36597 0.09386 0.0
Zn9 Zn 0.18923 0.26273 0.21946 0.0
N10 N 0.26073 0.44831 0.18061 0.0
C11 C 0.24895 0.54033 0.21027 0.0
C12 C 0.22982 0.48138 0.19462 0.0
C13 C 0.31171 0.47169 0.18296 0.0
N14 N 0.29882 0.56398 0.21185 0.0
C15 C 0.33135 0.53143 0.19895 0.0
O16 O 0.27569 0.24739 0.23326 0.0
C17 C 0.30907 0.26274 0.21864 0.0
O18 O 0.29233 0.3041 0.18978 0.0
H19 H 0.1898 0.46268 0.19298 0.0
H20 H 0.33564 0.44474 0.1716 0.0
C21 C 0.11724 0.15228 0.19753 0.0
C22 C 0.0796 0.10489 0.16951 0.0
C23 C 0.08925 0.14685 0.11321 0.0
C24 C 0.12558 0.19399 0.14091 0.0
N25 N 0.13902 0.19572 0.18248 0.0
N26 N 0.06717 0.10362 0.12805 0.0
H27 H 0.12986 0.15459 0.23106 0.0
C28 C 0.20127 0.31581 0.07401 0.0
O29 O 0.2036 0.26472 0.09362 0.0
O30 O 0.18681 0.25907 0.27403 0.0
H31 H 0.14296 0.22911 0.12948 0.0
H32 H 0.2242 0.56727 0.22094 0.0
H33 H 0.07839 0.14476 0.08005 0.0
Zn34 Zn 0.8368 0.76269 0.27541 0.0
C35 C 0.93221 0.88282 0.36815 0.0
N36 N 0.96827 0.87959 0.35188 0.0
C37 C 0.93235 0.85092 0.31368 0.0
N38 N 0.87699 0.83645 0.30704 0.0
N39 N 0.87582 0.85794 0.34066 0.0
C40 C 0.82425 0.81664 0.42003 0.0
O41 O 0.82132 0.76568 0.4 0.0
O42 O 0.83936 0.75822 0.221 0.0
Zn43 Zn 0.79948 0.86891 0.33945 0.0
N44 N 0.88721 0.69616 0.31257 0.0
C45 C 0.93778 0.64802 0.382 0.0
C46 C 0.90106 0.6948 0.35424 0.0
C47 C 0.90899 0.65273 0.29748 0.0
N48 N 0.95987 0.60482 0.3671 0.0
C49 C 0.94705 0.60577 0.32554 0.0
O50 O 0.73338 0.80471 0.30465 0.0
C51 C 0.71679 0.76298 0.27596 0.0
O52 O 0.75036 0.7473 0.26157 0.0
H53 H 0.88376 0.72995 0.36572 0.0
H54 H 0.89606 0.65475 0.26388 0.0
C55 C 0.71419 0.97228 0.31149 0.0
C56 C 0.69453 0.03194 0.29548 0.0
C57 C 0.7769 0.04083 0.28413 0.0
C58 C 0.79604 0.98196 0.29978 0.0
N59 N 0.76516 0.94895 0.31382 0.0
N60 N 0.72705 0.06445 0.28256 0.0
H61 H 0.69027 0.94536 0.32285 0.0
C62 C 0.79272 0.76226 0.18231 0.0
O63 O 0.7379 0.77042 0.17604 0.0
O64 O 0.81677 0.86695 0.40054 0.0
H65 H 0.83606 0.96328 0.30141 0.0
H66 H 0.94898 0.64622 0.41523 0.0
H67 H 0.80164 0.06773 0.27344 0.0
Zn68 Zn 0.84453 0.78876 0.78026 0.0
C69 C 0.92572 0.6477 0.86211 0.0
N70 N 0.96216 0.64988 0.84618 0.0
C71 C 0.93415 0.69123 0.81423 0.0
N72 N 0.88278 0.71351 0.81075 0.0
N73 N 0.8765 0.68531 0.8404 0.0
C74 C 0.81839 0.72636 0.91594 0.0
O75 O 0.81871 0.77635 0.89622 0.0
O76 O 0.84774 0.7941 0.72615 0.0
Zn77 Zn 0.7984 0.67654 0.83719 0.0
N78 N 0.89544 0.85481 0.81791 0.0
C79 C 0.94643 0.90395 0.88712 0.0
C80 C 0.91037 0.85626 0.85985 0.0
C81 C 0.91549 0.89892 0.80212 0.0
N82 N 0.96669 0.94792 0.87146 0.0
C83 C 0.95273 0.94677 0.82962 0.0
O84 O 0.73605 0.74384 0.80404 0.0
C85 C 0.72222 0.7882 0.77778 0.0
O86 O 0.7579 0.8055 0.76556 0.0
H87 H 0.89421 0.8207 0.87187 0.0
H88 H 0.90166 0.89696 0.76832 0.0
C89 C 0.71154 0.57399 0.80647 0.0
C90 C 0.68197 0.5226 0.77983 0.0
C91 C 0.75179 0.52556 0.75613 0.0
C92 C 0.78024 0.57681 0.78187 0.0
N93 N 0.75969 0.60038 0.80644 0.0
N94 N 0.70316 0.50014 0.75536 0.0
H95 H 0.69505 0.59409 0.82555 0.0
C96 C 0.80103 0.79308 0.68735 0.0
O97 O 0.74577 0.78753 0.68077 0.0
O98 O 0.81147 0.67536 0.89713 0.0
H99 H 0.81767 0.59834 0.78145 0.0
H100 H 0.95843 0.90592 0.92054 0.0
H101 H 0.76753 0.50671 0.73626 0.0
Zn102 Zn 0.18272 0.28998 0.7142 0.0
C103 C 0.10036 0.15076 0.63162 0.0
N104 N 0.06308 0.15394 0.64683 0.0
C105 C 0.09201 0.19395 0.67973 0.0
N106 N 0.14474 0.21444 0.68442 0.0
N107 N 0.15116 0.18621 0.65483 0.0
C108 C 0.212 0.23187 0.58092 0.0
O109 O 0.21516 0.28178 0.60204 0.0
O110 O 0.17947 0.29617 0.7683 0.0
Zn111 Zn 0.22961 0.17588 0.65844 0.0
N112 N 0.13193 0.35547 0.67612 0.0
C113 C 0.08117 0.40386 0.60677 0.0
C114 C 0.1174 0.35657 0.63427 0.0
C115 C 0.11131 0.3995 0.69158 0.0
N116 N 0.06027 0.44773 0.6221 0.0
C117 C 0.07381 0.44686 0.66384 0.0
O118 O 0.29639 0.23873 0.69569 0.0
C119 C 0.30821 0.28496 0.72031 0.0
O120 O 0.26923 0.30544 0.72859 0.0
H121 H 0.13394 0.321 0.6225 0.0
H122 H 0.12481 0.39779 0.72532 0.0
C123 C 0.31358 0.07274 0.68431 0.0
C124 C 0.33313 1.0126 0.69886 0.0
C125 C 0.24954 1.0004 0.70857 0.0
C126 C 0.23073 0.05993 0.69459 0.0
N127 N 0.26215 0.09476 0.68189 0.0
N128 N 0.29991 0.97813 0.71021 0.0
H129 H 0.33812 0.10125 0.67425 0.0
C130 C 0.22598 0.2944 0.80716 0.0
O131 O 0.28122 0.28777 0.81389 0.0
O132 O 0.21618 0.1805 0.59846 0.0
H133 H 0.19103 0.07788 0.69371 0.0
H134 H 0.06948 0.40556 0.57342 0.0
H135 H 0.22436 0.97206 0.71816 0.0
C136 C 0.39688 0.19657 0.2732 0.0
C137 C 0.36725 0.22875 0.23364 0.0
C138 C 0.45074 0.16256 0.28683 0.0
C139 C 0.47486 0.1594 0.25982 0.0
C140 C 0.44484 0.19146 0.21971 0.0
C141 C 0.39195 0.2262 0.20738 0.0
C142 C 0.48209 0.13037 0.33029 0.0
C143 C 0.46829 0.18868 0.18954 0.0
C144 C 0.64296 0.12223 0.30392 0.0
C145 C 0.63978 0.06093 0.29188 0.0
C146 C 0.59023 0.15382 0.29569 0.0
C147 C 0.53229 0.12396 0.2737 0.0
C148 C 0.52906 0.06146 0.26254 0.0
C149 C 0.583 0.03048 0.27218 0.0
C150 C 0.59626 0.21986 0.30917 0.0
C151 C 0.46814 0.02816 0.23839 0.0
H152 H 0.37825 0.19839 0.29377 0.0
H153 H 0.36905 0.25029 0.17653 0.0
H154 H 0.48413 0.08069 0.32556 0.0
H155 H 0.53032 0.14678 0.35129 0.0
H156 H 0.45797 0.13783 0.3477 0.0
H157 H 0.43831 0.21414 0.15873 0.0
H158 H 0.51551 0.20802 0.20604 0.0
H159 H 0.47111 0.14055 0.18137 0.0
H160 H 0.68684 0.14588 0.31925 0.0
H161 H 0.58015 0.98338 0.26222 0.0
H162 H 0.57349 0.22768 0.32745 0.0
H163 H 0.57275 0.24917 0.27974 0.0
H164 H 0.64519 0.23454 0.32984 0.0
H165 H 0.44377 0.03322 0.25577 0.0
H166 H 0.47381 0.97883 0.23454 0.0
H167 H 0.43824 0.04847 0.20552 0.0
C168 C 0.44292 0.53024 0.22238 0.0
C169 C 0.38609 0.56049 0.20255 0.0
C170 C 0.49686 0.56135 0.23205 0.0
C171 C 0.49356 0.62377 0.2208 0.0
C172 C 0.43558 0.6534 0.19867 0.0
C173 C 0.38285 0.62169 0.19041 0.0
C174 C 0.55782 0.52831 0.25635 0.0
C175 C 0.42949 0.71932 0.18507 0.0
C176 C 0.63373 0.72662 0.2871 0.0
C177 C 0.65858 0.72894 0.26092 0.0
C178 C 0.58085 0.69178 0.27474 0.0
C179 C 0.55097 0.65937 0.2347 0.0
C180 C 0.57522 0.6623 0.20776 0.0
C181 C 0.62907 0.69642 0.22141 0.0
C182 C 0.55725 0.68923 0.30483 0.0
C183 C 0.54401 0.62976 0.16436 0.0
H184 H 0.44581 0.48322 0.23242 0.0
H185 H 0.33893 0.64518 0.17499 0.0
H186 H 0.58228 0.53324 0.23903 0.0
H187 H 0.58761 0.54891 0.28919 0.0
H188 H 0.55221 0.479 0.26029 0.0
H189 H 0.38055 0.7338 0.16431 0.0
H190 H 0.45287 0.74889 0.21445 0.0
H191 H 0.45235 0.72703 0.16686 0.0
H192 H 0.65653 0.75097 0.3179 0.0
H193 H 0.64782 0.69806 0.20092 0.0
H194 H 0.55447 0.64116 0.31309 0.0
H195 H 0.51 0.70839 0.28822 0.0
H196 H 0.58712 0.71497 0.3356 0.0
H197 H 0.54205 0.58011 0.16918 0.0
H198 H 0.5682 0.63711 0.14699 0.0
H199 H 0.49576 0.64593 0.14328 0.0
C200 C 0.38677 0.92497 0.68959 0.0
C201 C 0.38883 0.9854 0.7029 0.0
C202 C 0.44035 0.89485 0.69811 0.0
C203 C 0.49793 0.92526 0.72171 0.0
C204 C 0.50004 0.987 0.73414 0.0
C205 C 0.44531 1.01657 0.72417 0.0
C206 C 0.43557 0.82965 0.68325 0.0
C207 C 0.56051 1.02078 0.76003 0.0
C208 C 0.63792 0.82281 0.78796 0.0
C209 C 0.66437 0.82265 0.76279 0.0
C210 C 0.58469 0.85702 0.7754 0.0
C211 C 0.55607 0.89092 0.73609 0.0
C212 C 0.58213 0.89042 0.71025 0.0
C213 C 0.63636 0.85692 0.72417 0.0
C214 C 0.55921 0.85706 0.80438 0.0
C215 C 0.55229 0.92464 0.66763 0.0
H216 H 0.34312 0.9008 0.67304 0.0
H217 H 0.44726 0.06298 0.7351 0.0
H218 H 0.45987 0.82398 0.66585 0.0
H219 H 0.4582 0.79906 0.71201 0.0
H220 H 0.38691 0.81475 0.66133 0.0
H221 H 0.55397 0.06969 0.76446 0.0
H222 H 0.58937 0.99953 0.79268 0.0
H223 H 0.58645 1.01751 0.74368 0.0
H224 H 0.65963 0.79707 0.81811 0.0
H225 H 0.6564 0.8569 0.70446 0.0
H226 H 0.51222 0.83704 0.78664 0.0
H227 H 0.55524 0.90453 0.81315 0.0
H228 H 0.58854 0.83077 0.83489 0.0
H229 H 0.50453 0.9078 0.64526 0.0
H230 H 0.57817 0.91959 0.65127 0.0
H231 H 0.54912 0.97381 0.67326 0.0
C232 C 0.57559 0.481 0.73399 0.0
C233 C 0.62691 0.4936 0.77569 0.0
C234 C 0.52469 0.44856 0.72832 0.0
C235 C 0.52572 0.42634 0.76528 0.0
C236 C 0.57732 0.4394 0.80763 0.0
C237 C 0.62706 0.4736 0.81236 0.0
C238 C 0.47015 0.43728 0.68263 0.0
C239 C 0.58093 0.41542 0.84782 0.0
C240 C 0.37 0.38161 0.7466 0.0
C241 C 0.36659 0.31933 0.73651 0.0
C242 C 0.42219 0.41661 0.75732 0.0
C243 C 0.47306 0.38853 0.75906 0.0
C244 C 0.47113 0.32502 0.75105 0.0
C245 C 0.41769 0.2914 0.73931 0.0
C246 C 0.42152 0.48431 0.76455 0.0
C247 C 0.52482 0.29287 0.75355 0.0
H248 H 0.57542 0.49647 0.7056 0.0
H249 H 0.66714 0.48248 0.84462 0.0
H250 H 0.46514 0.38773 0.67545 0.0
H251 H 0.42706 0.45296 0.67972 0.0
H252 H 0.47485 0.46098 0.65757 0.0
H253 H 0.62314 0.43115 0.87839 0.0
H254 H 0.53997 0.43007 0.84822 0.0
H255 H 0.58072 0.36484 0.84724 0.0
H256 H 0.33065 0.40377 0.74423 0.0
H257 H 0.41568 0.24326 0.73189 0.0
H258 H 0.42159 0.50944 0.73811 0.0
H259 H 0.46357 0.49813 0.79579 0.0
H260 H 0.38041 0.49851 0.76502 0.0
H261 H 0.52954 0.30835 0.72644 0.0
H262 H 0.51903 0.24255 0.75136 0.0
H263 H 0.5684 0.30445 0.78454 0.0
C264 C 0.03944 0.99869 0.16423 0.0
C265 C 0.05326 0.05673 0.18377 0.0
C266 C 0.01476 0.95248 0.17729 0.0
C267 C 1.00396 0.96444 0.21088 0.0
C268 C 0.01631 1.02333 0.22993 0.0
C269 C 0.04038 0.06867 0.21602 0.0
C270 C 1.0018 0.89064 0.15586 0.0
C271 C 1.00467 0.03845 0.26549 0.0
C272 C 0.90133 0.88141 0.23883 0.0
C273 C 0.94576 0.85616 0.27916 0.0
C274 C 0.91892 0.91067 0.21279 0.0
C275 C 0.98236 0.91565 0.22811 0.0
C276 C 0.02622 0.88314 0.26587 0.0
C277 C 1.00732 0.85381 0.29104 0.0
C278 C 0.87027 0.94234 0.17169 0.0
C279 C 0.09411 0.88565 0.28271 0.0
H280 H 0.04879 0.98895 0.13908 0.0
H281 H 0.04842 0.11373 0.23027 0.0
H282 H 0.03954 0.85891 0.17768 0.0
H283 H 0.95823 0.87131 0.15022 0.0
H284 H 0.99877 0.89258 0.12422 0.0
H285 H 0.01564 0.08669 0.27634 0.0
H286 H 0.95562 0.02979 0.2538 0.0
H287 H 0.03318 1.00866 0.29417 0.0
H288 H 0.85373 0.88405 0.22974 0.0
H289 H 0.0417 0.83426 0.32226 0.0
H290 H 0.88061 0.93881 0.1458 0.0
H291 H 0.86942 0.99143 0.17874 0.0
H292 H 0.82372 0.92294 0.15917 0.0
H293 H 0.10174 0.87998 0.25563 0.0
H294 H 0.12048 0.84998 0.30761 0.0
H295 H 0.11274 0.93088 0.29784 0.0
C296 C 0.01891 0.3542 0.20375 0.0
C297 C 0.0804 0.35655 0.21546 0.0
C298 C 1.00019 0.38387 0.22894 0.0
C299 C 0.04415 0.41678 0.26656 0.0
C300 C 0.10754 0.41201 0.28167 0.0
C301 C 0.12494 0.38233 0.25563 0.0
C302 C 0.93235 0.38627 0.21223 0.0
C303 C 0.15633 0.44435 0.32249 0.0
C304 C 0.98585 0.5696 0.27874 0.0
C305 C 0.97342 0.55772 0.3112 0.0
C306 C 1.00989 0.52432 0.26472 0.0
C307 C 0.02263 0.46559 0.28387 0.0
C308 C 1.01227 0.45373 0.31767 0.0
C309 C 0.98766 0.49986 0.33085 0.0
C310 C 0.02106 0.53934 0.22893 0.0
C311 C 0.02585 0.39207 0.33924 0.0
H312 H 0.98443 0.33429 0.17263 0.0
H313 H 0.17247 0.38502 0.26457 0.0
H314 H 0.92484 0.38122 0.2394 0.0
H315 H 0.91358 0.43124 0.1968 0.0
H316 H 0.90598 0.35017 0.18759 0.0
H317 H 0.20275 0.42456 0.33523 0.0
H318 H 0.15755 0.49312 0.31494 0.0
H319 H 0.14597 0.44208 0.3484 0.0
H320 H 0.9775 0.61456 0.2644 0.0
H321 H 0.97869 0.49021 0.35618 0.0
H322 H 0.99247 0.50932 0.20033 0.0
H323 H 0.07007 0.53093 0.24043 0.0
H324 H 1.00987 0.5875 0.21805 0.0
H325 H 0.02662 0.39346 0.37008 0.0
H326 H 0.0708 0.37456 0.34638 0.0
H327 H 0.98985 0.35918 0.31677 0.0
C328 C 0.98739 0.05454 0.83185 0.0
C329 C 0.97688 0.99549 0.81419 0.0
C330 C 1.0097 0.10127 0.81741 0.0
C331 C 0.02173 0.08869 0.78448 0.0
C332 C 0.01262 0.02881 0.7673 0.0
C333 C 0.9906 0.98307 0.78244 0.0
C334 C 0.01873 0.16421 0.83665 0.0
C335 C 0.02569 1.01294 0.73254 0.0
C336 C 0.01613 0.19489 0.70137 0.0
C337 C 0.07808 0.19421 0.71406 0.0
C338 C 0.99747 0.16698 0.72716 0.0
C339 C 0.04194 0.13749 0.76628 0.0
C340 C 0.10538 0.14476 0.78222 0.0
C341 C 0.12274 0.17246 0.75557 0.0
C342 C 0.92951 0.1623 0.7097 0.0
C343 C 0.15458 0.1167 0.82481 0.0
H344 H 0.97716 0.06462 0.85652 0.0
H345 H 0.98484 0.9373 0.76959 0.0
H346 H 0.05963 0.18681 0.84003 0.0
H347 H 0.97782 0.19252 0.81459 0.0
H348 H 0.02418 0.16299 0.86911 0.0
H349 H 0.01718 0.96403 0.72316 0.0
H350 H 0.99612 0.04074 0.70292 0.0
H351 H 0.07441 1.02367 0.7443 0.0
H352 H 0.98153 0.21137 0.66912 0.0
H353 H 0.17061 0.17075 0.7652 0.0
H354 H 0.92088 0.16912 0.73622 0.0
H355 H 0.91285 0.11603 0.69596 0.0
H356 H 0.90222 0.19622 0.68357 0.0
H357 H 0.14312 0.12179 0.85003 0.0
H358 H 0.20044 0.13769 0.83709 0.0
H359 H 0.15774 0.06724 0.81987 0.0
C360 C 0.03497 0.4827 0.71053 0.0
C361 C 0.04893 0.4953 0.67894 0.0
C362 C 0.01265 0.52823 0.72561 0.0
C363 C 1.00337 0.58807 0.70848 0.0
C364 C 0.01543 0.60077 0.67559 0.0
C365 C 0.03812 0.55425 0.66125 0.0
C366 C 0.99958 0.51223 0.76033 0.0
C367 C 1.00607 0.66363 0.65632 0.0
C368 C 0.90275 0.67057 0.7382 0.0
C369 C 0.94761 0.69237 0.7797 0.0
C370 C 0.91985 0.64348 0.7112 0.0
C371 C 0.98324 0.63674 0.72684 0.0
C372 C 0.02783 0.66629 0.76599 0.0
C373 C 1.00941 0.69365 0.79211 0.0
C374 C 0.87051 0.61538 0.66858 0.0
C375 C 0.09572 0.6621 0.78315 0.0
H376 H 0.04088 0.43696 0.72336 0.0
H377 H 0.04847 0.56444 0.63666 0.0
H378 H 0.029 0.54019 0.78997 0.0
H379 H 0.9508 0.52261 0.74855 0.0
H380 H 1.00829 0.46337 0.7697 0.0
H381 H 1.00026 0.66229 0.62375 0.0
H382 H 0.96526 0.68607 0.65317 0.0
H383 H 0.04701 0.69214 0.67823 0.0
H384 H 0.855 0.66838 0.72883 0.0
H385 H 0.04415 0.71009 0.82439 0.0
H386 H 0.86742 0.56588 0.67339 0.0
H387 H 0.88178 0.62068 0.64327 0.0
H388 H 0.82469 0.63621 0.65651 0.0
H389 H 0.11261 0.61586 0.7967 0.0
H390 H 0.12304 0.69603 0.80938 0.0
H391 H 0.10402 0.66926 0.75652 0.0
C392 C 0.94293 0.62339 0.93483 0.0
C393 C 0.93818 0.60388 0.89653 0.0
C394 C 0.96792 0.58498 0.97143 0.0
C395 C 0.99014 0.52648 0.96979 0.0
C396 C 0.98462 0.50641 0.93085 0.0
C397 C 0.95844 0.5453 0.89466 0.0
C398 C 0.9723 0.60768 0.01223 0.0
C399 C 1.00837 0.44477 0.92788 0.0
C400 C 0.10848 0.45286 0.07815 0.0
C401 C 0.07137 0.41301 0.08429 0.0
C402 C 0.08308 0.48901 0.04037 0.0
C403 C 0.01884 0.48604 0.00869 0.0
C404 C 0.98155 0.44482 0.0144 0.0
C405 C 1.00832 0.40874 0.05197 0.0
C406 C 0.12456 0.53179 0.03506 0.0
C407 C 0.91297 0.44015 0.98148 0.0
H408 H 0.93071 0.66982 0.93709 0.0
H409 H 0.95602 0.5308 0.86524 0.0
H410 H 0.94528 0.57742 0.02035 0.0
H411 H 0.02091 0.60634 0.0402 0.0
H412 H 0.95478 0.65497 0.00862 0.0
H413 H 0.99914 0.43548 0.89483 0.0
H414 H 0.05887 0.44217 0.95178 0.0
H415 H 0.98669 0.40823 0.93629 0.0
H416 H 0.15653 0.45791 0.10349 0.0
H417 H 0.9793 0.37814 0.05673 0.0
H418 H 0.11039 0.57961 0.03484 0.0
H419 H 0.12002 0.52337 0.00335 0.0
H420 H 0.17381 0.52663 0.06162 0.0
H421 H 0.89066 0.48452 0.97909 0.0
H422 H 0.89079 0.40446 0.9902 0.0
H423 H 0.904 0.42965 0.94869 0.0
C424 C 0.01746 0.9094 0.44255 0.0
C425 C 0.9545 0.91396 0.41013 0.0
C426 C 0.04442 0.94573 0.48009 0.0
C427 C 1.00741 0.9876 0.48559 0.0
C428 C 0.94323 0.99085 0.45382 0.0
C429 C 0.91762 0.9543 0.41614 0.0
C430 C 0.11289 0.94061 0.5132 0.0
C431 C 0.90207 0.03435 0.45892 0.0
C432 C 0.06706 0.04827 0.59924 0.0
C433 C 0.08802 0.1065 0.5974 0.0
C434 C 0.04108 1.00896 0.56321 0.0
C435 C 0.0363 0.02832 0.52442 0.0
C436 C 0.05934 0.08642 0.52285 0.0
C437 C 0.08435 0.12521 0.55935 0.0
C438 C 0.01671 0.94767 0.56617 0.0
C439 C 0.05574 0.10834 0.48219 0.0
H440 H 0.04629 0.87836 0.4379 0.0
H441 H 0.86962 0.95942 0.39076 0.0
H442 H 0.13577 0.98461 0.51552 0.0
H443 H 0.12152 0.9308 0.54597 0.0
H444 H 0.13476 0.90428 0.5047 0.0
H445 H 0.85285 0.02962 0.43216 0.0
H446 H 0.9061 0.02627 0.49048 0.0
H447 H 0.91696 0.08194 0.45933 0.0
H448 H 0.06884 0.03436 0.62853 0.0
H449 H 0.09742 0.17133 0.55718 0.0
H450 H 0.03809 0.91072 0.55783 0.0
H451 H 0.96621 0.94534 0.54223 0.0
H452 H 0.02575 0.93879 0.59921 0.0
H453 H 1.00723 0.10721 0.45405 0.0
H454 H 0.08266 0.07748 0.47434 0.0
H455 H 0.07383 0.15542 0.48582 0.0
C456 C 0.26882 0.29903 0.8873 0.0
C457 C 0.21758 0.29952 0.84433 0.0
C458 C 0.26167 0.30389 0.92284 0.0
C459 C 0.20177 0.30914 0.91529 0.0
C460 C 0.14977 0.30998 0.87198 0.0
C461 C 0.15829 0.30518 0.83701 0.0
C462 C 0.31831 0.30315 0.96856 0.0
C463 C 0.08521 0.31667 0.86248 0.0
C464 C 0.1906 0.2589 0.01061 0.0
C465 C 0.19464 0.31466 0.03092 0.0
C466 C 0.19009 0.25671 0.97184 0.0
C467 C 0.19406 0.31157 0.95302 0.0
C468 C 0.19508 0.36816 0.97216 0.0
C469 C 0.19527 0.36905 0.01087 0.0
C470 C 0.18751 0.19551 0.95185 0.0
C471 C 0.19859 0.42768 0.95283 0.0
H472 H 0.31475 0.29484 0.89329 0.0
H473 H 0.11835 0.30581 0.80389 0.0
H474 H 0.31961 0.34473 0.98644 0.0
H475 H 0.31653 0.26334 0.98664 0.0
H476 H 0.36169 0.30077 0.96886 0.0
H477 H 0.04957 0.30651 0.82782 0.0
H478 H 0.07795 0.28616 0.88365 0.0
H479 H 0.0783 0.3641 0.86957 0.0
H480 H 0.18939 0.21667 0.02556 0.0
H481 H 0.19759 0.4124 0.02604 0.0
H482 H 0.23216 0.18645 0.95496 0.0
H483 H 0.1513 0.19555 0.91654 0.0
H484 H 0.17799 0.15771 0.96772 0.0
H485 H 0.24343 0.43075 0.95529 0.0
H486 H 0.19408 0.46775 0.96964 0.0
H487 H 0.16175 0.42991 0.91771 0.0
C488 C 0.75777 0.79818 0.60718 0.0
C489 C 0.80918 0.79831 0.65009 0.0
C490 C 0.76468 0.80338 0.57157 0.0
C491 C 0.82449 0.80865 0.57898 0.0
C492 C 0.87667 0.80914 0.62222 0.0
C493 C 0.86839 0.80395 0.65727 0.0
C494 C 0.70786 0.80301 0.52592 0.0
C495 C 0.94115 0.81589 0.63156 0.0
C496 C 0.83484 0.75923 0.4831 0.0
C497 C 0.83104 0.81516 0.46316 0.0
C498 C 0.83552 0.75671 0.52192 0.0
C499 C 0.83195 0.81141 0.54115 0.0
C500 C 0.83115 0.86817 0.52236 0.0
C501 C 0.8308 0.86938 0.4836 0.0
C502 C 0.83782 0.69534 0.54151 0.0
C503 C 0.82802 0.92752 0.54212 0.0
H504 H 0.7119 0.79401 0.60132 0.0
H505 H 0.90846 0.80434 0.69034 0.0
H506 H 0.70667 0.84475 0.50828 0.0
H507 H 0.70931 0.76337 0.50751 0.0
H508 H 0.66458 0.80059 0.52576 0.0
H509 H 0.9769 0.80552 0.66612 0.0
H510 H 0.94812 0.78559 0.61012 0.0
H511 H 0.94816 0.8634 0.62472 0.0
H512 H 0.83575 0.71713 0.46784 0.0
H513 H 0.82866 0.91286 0.4687 0.0
H514 H 0.79311 0.68623 0.53831 0.0
H515 H 0.874 0.69512 0.57682 0.0
H516 H 0.84721 0.6577 0.5254 0.0
H517 H 0.78324 0.93058 0.53975 0.0
H518 H 0.83269 0.96773 0.52555 0.0
H519 H 0.86493 0.92947 0.57723 0.0
C520 C 0.81974 0.67732 0.97876 0.0
C521 C 0.82277 0.73009 0.95824 0.0
C522 C 0.81931 0.68105 0.0172 0.0
C523 C 0.82177 0.73891 0.03541 0.0
C524 C 0.82727 0.79211 0.01578 0.0
C525 C 0.82767 0.78707 0.97746 0.0
C526 C 0.81422 0.62321 0.03749 0.0
C527 C 0.83092 0.85458 0.03457 0.0
C528 C 0.74873 0.75724 0.10199 0.0
C529 C 0.80037 0.75687 0.14481 0.0
C530 C 0.75518 0.751 0.0662 0.0
C531 C 0.81473 0.74434 0.07335 0.0
C532 C 0.86715 0.74429 0.1165 0.0
C533 C 0.85935 0.75052 0.15172 0.0
C534 C 0.69816 0.7516 0.02065 0.0
C535 C 0.93139 0.73688 0.12553 0.0
H536 H 0.81656 0.63308 0.96438 0.0
H537 H 0.83056 0.82809 0.96207 0.0
H538 H 0.85097 0.62166 0.07267 0.0
H539 H 0.7693 0.62232 0.03502 0.0
H540 H 0.81772 0.58172 0.02139 0.0
H541 H 0.83933 0.89102 0.01718 0.0
H542 H 0.78715 0.86466 0.03251 0.0
H543 H 0.86841 0.85594 0.06958 0.0
H544 H 0.70305 0.76214 0.09633 0.0
H545 H 0.8996 0.75027 0.18471 0.0
H546 H 0.69532 0.70878 0.00339 0.0
H547 H 0.7008 0.78983 0.00177 0.0
H548 H 0.65516 0.7565 0.02065 0.0
H549 H 0.93691 0.69 0.11666 0.0
H550 H 0.96753 0.74485 0.16041 0.0
H551 H 0.93909 0.7688 0.10526 0.0
C552 C 0.20849 0.18261 0.51733 0.0
C553 C 0.20702 0.23561 0.5384 0.0
C554 C 0.20838 0.18595 0.47869 0.0
C555 C 0.20677 0.24366 0.4607 0.0
C556 C 0.20274 0.29716 0.48083 0.0
C557 C 0.20305 0.29251 0.51947 0.0
C558 C 0.21213 0.1278 0.458 0.0
C559 C 0.19974 0.35946 0.46216 0.0
C560 C 0.2785 0.25947 0.39308 0.0
C561 C 0.2265 0.25913 0.35039 0.0
C562 C 0.27258 0.25412 0.42914 0.0
C563 C 0.21319 0.24848 0.42244 0.0
C564 C 0.16042 0.24844 0.37944 0.0
C565 C 0.1677 0.25373 0.34393 0.0
C566 C 0.33 0.25438 0.4745 0.0
C567 C 0.09636 0.24186 0.37086 0.0
H568 H 0.21098 0.13841 0.53148 0.0
H569 H 0.2013 0.3337 0.53525 0.0
H570 H 0.17512 0.12656 0.42288 0.0
H571 H 0.25686 0.12606 0.46022 0.0
H572 H 0.20807 0.08655 0.47399 0.0
H573 H 0.19274 0.39627 0.48009 0.0
H574 H 0.24318 0.36866 0.46354 0.0
H575 H 0.16157 0.36117 0.42736 0.0
H576 H 0.32407 0.26358 0.39842 0.0
H577 H 0.12718 0.25349 0.31105 0.0
H578 H 0.33241 0.2118 0.49178 0.0
H579 H 0.32831 0.29297 0.49358 0.0
H580 H 0.37279 0.25841 0.47415 0.0
H581 H 0.09029 0.19507 0.37949 0.0
H582 H 0.05999 0.25022 0.33611 0.0
H583 H 0.08955 0.27389 0.39156 0.0
loop_
_geom_bond_atom_site_label_1
_geom_bond_atom_site_label_2
_geom_bond_distance
_geom_bond_site_symmetry_2
_ccdc_geom_bond_type
Zn0 N4 2.020 . S
Zn0 O8 2.019 . S
Zn0 N10 2.119 . S
Zn0 O18 1.975 . S
C1 N2 1.334 . S
C1 N5 1.336 . S
N2 C1 1.334 . S
N2 C3 1.334 . S
C3 N2 1.334 . S
C3 N4 1.336 . S
N4 Zn0 2.020 . S
N4 C3 1.336 . S
N4 N5 1.354 . S
N5 C1 1.336 . S
N5 N4 1.354 . S
N5 Zn9 2.020 . S
C6 O7 1.244 . S
C6 O30 1.257 . S
O7 C6 1.244 . S
O8 Zn0 2.019 . S
O8 C28 1.257 . S
Zn9 N5 2.020 . S
Zn9 O16 1.975 . S
Zn9 N25 2.119 . S
Zn9 O30 2.019 . S
N10 Zn0 2.119 . S
N10 C12 1.334 . S
N10 C13 1.328 . S
C11 C12 1.391 . S
C11 N14 1.329 . S
C11 H32 0.930 . S
C12 N10 1.334 . S
C12 C11 1.391 . S
C12 H19 0.930 . S
C13 N10 1.328 . S
C13 C15 1.392 . S
C13 H20 0.930 . S
N14 C11 1.329 . S
N14 C15 1.331 . S
C15 C13 1.392 . S
C15 N14 1.331 . S
O16 Zn9 1.975 . S
O16 C17 1.252 . S
C17 O16 1.252 . S
C17 O18 1.252 . S
O18 Zn0 1.975 . S
O18 C17 1.252 . S
H19 C12 0.930 . S
H20 C13 0.930 . S
C21 C22 1.392 . S
C21 N25 1.328 . S
C21 H27 0.930 . S
C22 C21 1.392 . S
C22 N26 1.331 . S
C23 C24 1.391 . S
C23 N26 1.329 . S
C23 H33 0.930 . S
C24 C23 1.391 . S
C24 N25 1.334 . S
C24 H31 0.930 . S
N25 Zn9 2.119 . S
N25 C21 1.328 . S
N25 C24 1.334 . S
N26 C22 1.331 . S
N26 C23 1.329 . S
H27 C21 0.930 . S
C28 O8 1.257 . S
C28 O29 1.244 . S
O29 C28 1.244 . S
O30 C6 1.257 . S
O30 Zn9 2.019 . S
H31 C24 0.930 . S
H32 C11 0.930 . S
H33 C23 0.930 . S
Zn34 N38 2.020 . S
Zn34 O42 2.019 . S
Zn34 N44 2.119 . S
Zn34 O52 1.975 . S
C35 N36 1.334 . S
C35 N39 1.336 . S
N36 C35 1.334 . S
N36 C37 1.334 . S
C37 N36 1.334 . S
C37 N38 1.336 . S
N38 Zn34 2.020 . S
N38 C37 1.336 . S
N38 N39 1.354 . S
N39 C35 1.336 . S
N39 N38 1.354 . S
N39 Zn43 2.020 . S
C40 O41 1.244 . S
C40 O64 1.257 . S
O41 C40 1.244 . S
O42 Zn34 2.019 . S
O42 C62 1.257 . S
Zn43 N39 2.020 . S
Zn43 O50 1.975 . S
Zn43 N59 2.119 . S
Zn43 O64 2.019 . S
N44 Zn34 2.119 . S
N44 C46 1.334 . S
N44 C47 1.328 . S
C45 C46 1.391 . S
C45 N48 1.329 . S
C45 H66 0.930 . S
C46 N44 1.334 . S
C46 C45 1.391 . S
C46 H53 0.930 . S
C47 N44 1.328 . S
C47 C49 1.392 . S
C47 H54 0.930 . S
N48 C45 1.329 . S
N48 C49 1.331 . S
C49 C47 1.392 . S
C49 N48 1.331 . S
O50 Zn43 1.975 . S
O50 C51 1.252 . S
C51 O50 1.252 . S
C51 O52 1.252 . S
O52 Zn34 1.975 . S
O52 C51 1.252 . S
H53 C46 0.930 . S
H54 C47 0.930 . S
C55 C56 1.392 . S
C55 N59 1.328 . S
C55 H61 0.930 . S
C56 C55 1.392 . S
C56 N60 1.331 . S
C57 C58 1.391 . S
C57 N60 1.329 . S
C57 H67 0.930 . S
C58 C57 1.391 . S
C58 N59 1.334 . S
C58 H65 0.930 . S
N59 Zn43 2.119 . S
N59 C55 1.328 . S
N59 C58 1.334 . S
N60 C56 1.331 . S
N60 C57 1.329 . S
H61 C55 0.930 . S
C62 O42 1.257 . S
C62 O63 1.244 . S
O63 C62 1.244 . S
O64 C40 1.257 . S
O64 Zn43 2.019 . S
H65 C58 0.930 . S
H66 C45 0.930 . S
H67 C57 0.930 . S
Zn68 N72 2.020 . S
Zn68 O76 2.019 . S
Zn68 N78 2.119 . S
Zn68 O86 1.975 . S
C69 N70 1.334 . S
C69 N73 1.336 . S
N70 C69 1.334 . S
N70 C71 1.334 . S
C71 N70 1.334 . S
C71 N72 1.336 . S
N72 Zn68 2.020 . S
N72 C71 1.336 . S
N72 N73 1.354 . S
N73 C69 1.336 . S
N73 N72 1.354 . S
N73 Zn77 2.020 . S
C74 O75 1.244 . S
C74 O98 1.257 . S
O75 C74 1.244 . S
O76 Zn68 2.019 . S
O76 C96 1.257 . S
Zn77 N73 2.020 . S
Zn77 O84 1.975 . S
Zn77 N93 2.119 . S
Zn77 O98 2.019 . S
N78 Zn68 2.119 . S
N78 C80 1.334 . S
N78 C81 1.328 . S
C79 C80 1.391 . S
C79 N82 1.329 . S
C79 H100 0.930 . S
C80 N78 1.334 . S
C80 C79 1.391 . S
C80 H87 0.930 . S
C81 N78 1.328 . S
C81 C83 1.392 . S
C81 H88 0.930 . S
N82 C79 1.329 . S
N82 C83 1.331 . S
C83 C81 1.392 . S
C83 N82 1.331 . S
O84 Zn77 1.975 . S
O84 C85 1.252 . S
C85 O84 1.252 . S
C85 O86 1.252 . S
O86 Zn68 1.975 . S
O86 C85 1.252 . S
H87 C80 0.930 . S
H88 C81 0.930 . S
C89 C90 1.392 . S
C89 N93 1.328 . S
C89 H95 0.930 . S
C90 C89 1.392 . S
C90 N94 1.331 . S
C91 C92 1.391 . S
C91 N94 1.329 . S
C91 H101 0.930 . S
C92 C91 1.391 . S
C92 N93 1.334 . S
C92 H99 0.930 . S
N93 Zn77 2.119 . S
N93 C89 1.328 . S
N93 C92 1.334 . S
N94 C90 1.331 . S
N94 C91 1.329 . S
H95 C89 0.930 . S
C96 O76 1.257 . S
C96 O97 1.244 . S
O97 C96 1.244 . S
O98 C74 1.257 . S
O98 Zn77 2.019 . S
H99 C92 0.930 . S
H100 C79 0.930 . S
H101 C91 0.930 . S
Zn102 N106 2.020 . S
Zn102 O110 2.019 . S
Zn102 N112 2.119 . S
Zn102 O120 1.975 . S
C103 N104 1.334 . S
C103 N107 1.336 . S
N104 C103 1.334 . S
N104 C105 1.334 . S
C105 N104 1.334 . S
C105 N106 1.336 . S
N106 Zn102 2.020 . S
N106 C105 1.336 . S
N106 N107 1.354 . S
N107 C103 1.336 . S
N107 N106 1.354 . S
N107 Zn111 2.020 . S
C108 O109 1.244 . S
C108 O132 1.257 . S
O109 C108 1.244 . S
O110 Zn102 2.019 . S
O110 C130 1.257 . S
Zn111 N107 2.020 . S
Zn111 O118 1.975 . S
Zn111 N127 2.119 . S
Zn111 O132 2.019 . S
N112 Zn102 2.119 . S
N112 C114 1.334 . S
N112 C115 1.328 . S
C113 C114 1.391 . S
C113 N116 1.329 . S
C113 H134 0.930 . S
C114 N112 1.334 . S
C114 C113 1.391 . S
C114 H121 0.930 . S
C115 N112 1.328 . S
C115 C117 1.392 . S
C115 H122 0.930 . S
N116 C113 1.329 . S
N116 C117 1.331 . S
C117 C115 1.392 . S
C117 N116 1.331 . S
O118 Zn111 1.975 . S
O118 C119 1.252 . S
C119 O118 1.252 . S
C119 O120 1.252 . S
O120 Zn102 1.975 . S
O120 C119 1.252 . S
H121 C114 0.930 . S
H122 C115 0.930 . S
C123 C124 1.392 . S
C123 N127 1.328 . S
C123 H129 0.930 . S
C124 C123 1.392 . S
C124 N128 1.331 . S
C125 C126 1.391 . S
C125 N128 1.329 . S
C125 H135 0.930 . S
C126 C125 1.391 . S
C126 N127 1.334 . S
C126 H133 0.930 . S
N127 Zn111 2.119 . S
N127 C123 1.328 . S
N127 C126 1.334 . S
N128 C124 1.331 . S
N128 C125 1.329 . S
H129 C123 0.930 . S
C130 O110 1.257 . S
C130 O131 1.244 . S
O131 C130 1.244 . S
O132 C108 1.257 . S
O132 Zn111 2.019 . S
H133 C126 0.930 . S
H134 C113 0.930 . S
H135 C125 0.930 . S
C136 C137 1.391 . S
C136 C138 1.394 . S
C136 H152 0.931 . S
C137 C136 1.391 . S
C137 C141 1.376 . S
C138 C136 1.394 . S
C138 C139 1.369 . S
C138 C142 1.531 . S
C139 C138 1.369 . S
C139 C140 1.410 . S
C139 C147 1.503 . S
C140 C139 1.410 . S
C140 C141 1.392 . S
C140 C143 1.511 . S
C141 C137 1.376 . S
C141 C140 1.392 . S
C141 H153 0.929 . S
C142 C138 1.531 . S
C142 H154 0.960 . S
C142 H155 0.962 . S
C142 H156 0.960 . S
C143 C140 1.511 . S
C143 H157 0.961 . S
C143 H158 0.961 1_545 S
C143 H159 0.961 1_545 S
C144 C145 1.370 . S
C144 C146 1.363 1_565 S
C144 H160 0.931 1_565 S
C145 C144 1.370 . S
C145 C149 1.408 . S
C146 C144 1.363 1_545 S
C146 C147 1.370 . S
C146 C150 1.524 . S
C147 C139 1.503 . S
C147 C146 1.370 . S
C147 C148 1.403 1_545 S
C148 C147 1.403 1_565 S
C148 C149 1.404 . S
C148 C151 1.539 . S
C149 C145 1.408 . S
C149 C148 1.404 . S
C149 H161 0.930 . S
C150 C146 1.524 . S
C150 H162 0.956 . S
C150 H163 0.961 . S
C150 H164 0.961 . S
C151 C148 1.539 . S
C151 H165 0.958 . S
C151 H166 0.961 . S
C151 H167 0.960 . S
H152 C136 0.931 . S
H153 C141 0.929 . S
H154 C142 0.960 . S
H155 C142 0.962 . S
H156 C142 0.960 . S
H157 C143 0.961 . S
H158 C143 0.961 1_565 S
H159 C143 0.961 1_565 S
H160 C144 0.931 1_545 S
H161 C149 0.930 . S
H162 C150 0.956 . S
H163 C150 0.961 . S
H164 C150 0.961 . S
H165 C151 0.958 . S
H166 C151 0.961 . S
H167 C151 0.960 . S
C168 C169 1.391 . S
C168 C170 1.394 . S
C168 H184 0.931 . S
C169 C168 1.391 . S
C169 C173 1.376 . S
C170 C168 1.394 . S
C170 C171 1.369 . S
C170 C174 1.531 . S
C171 C170 1.369 . S
C171 C172 1.410 . S
C171 C179 1.503 . S
C172 C171 1.410 . S
C172 C173 1.392 . S
C172 C175 1.511 . S
C173 C169 1.376 . S
C173 C172 1.392 . S
C173 H185 0.929 . S
C174 C170 1.531 . S
C174 H186 0.960 . S
C174 H187 0.962 . S
C174 H188 0.960 . S
C175 C172 1.511 . S
C175 H189 0.961 . S
C175 H190 0.961 . S
C175 H191 0.961 . S
C176 C177 1.370 . S
C176 C178 1.363 . S
C176 H192 0.931 . S
C177 C176 1.370 . S
C177 C181 1.408 . S
C178 C176 1.363 . S
C178 C179 1.370 . S
C178 C182 1.524 . S
C179 C171 1.503 . S
C179 C178 1.370 . S
C179 C180 1.403 . S
C180 C179 1.403 . S
C180 C181 1.404 . S
C180 C183 1.539 . S
C181 C177 1.408 . S
C181 C180 1.404 . S
C181 H193 0.930 . S
C182 C178 1.524 . S
C182 H194 0.956 . S
C182 H195 0.961 . S
C182 H196 0.961 . S
C183 C180 1.539 . S
C183 H197 0.958 . S
C183 H198 0.961 . S
C183 H199 0.960 . S
H184 C168 0.931 . S
H185 C173 0.929 . S
H186 C174 0.960 . S
H187 C174 0.962 . S
H188 C174 0.960 . S
H189 C175 0.961 . S
H190 C175 0.961 . S
H191 C175 0.961 . S
H192 C176 0.931 . S
H193 C181 0.930 . S
H194 C182 0.956 . S
H195 C182 0.961 . S
H196 C182 0.961 . S
H197 C183 0.958 . S
H198 C183 0.961 . S
H199 C183 0.960 . S
C200 C201 1.391 1_565 S
C200 C202 1.394 . S
C200 H216 0.931 . S
C201 C200 1.391 1_545 S
C201 C205 1.376 . S
C202 C200 1.394 . S
C202 C203 1.369 . S
C202 C206 1.531 . S
C203 C202 1.369 . S
C203 C204 1.410 1_565 S
C203 C211 1.503 . S
C204 C203 1.410 1_545 S
C204 C205 1.392 . S
C204 C207 1.511 . S
C205 C201 1.376 . S
C205 C204 1.392 . S
C205 H217 0.929 . S
C206 C202 1.531 . S
C206 H218 0.960 . S
C206 H219 0.962 . S
C206 H220 0.960 . S
C207 C204 1.511 . S
C207 H221 0.961 . S
C207 H222 0.961 . S
C207 H223 0.961 . S
C208 C209 1.370 . S
C208 C210 1.363 . S
C208 H224 0.931 . S
C209 C208 1.370 . S
C209 C213 1.408 . S
C210 C208 1.363 . S
C210 C211 1.370 . S
C210 C214 1.524 . S
C211 C203 1.503 . S
C211 C210 1.370 . S
C211 C212 1.403 . S
C212 C211 1.403 . S
C212 C213 1.404 . S
C212 C215 1.539 . S
C213 C209 1.408 . S
C213 C212 1.404 . S
C213 H225 0.930 . S
C214 C210 1.524 . S
C214 H226 0.956 . S
C214 H227 0.961 . S
C214 H228 0.961 . S
C215 C212 1.539 . S
C215 H229 0.958 . S
C215 H230 0.961 . S
C215 H231 0.960 . S
H216 C200 0.931 . S
H217 C205 0.929 . S
H218 C206 0.960 . S
H219 C206 0.962 . S
H220 C206 0.960 . S
H221 C207 0.961 . S
H222 C207 0.961 . S
H223 C207 0.961 . S
H224 C208 0.931 . S
H225 C213 0.930 . S
H226 C214 0.956 . S
H227 C214 0.961 . S
H228 C214 0.961 . S
H229 C215 0.958 . S
H230 C215 0.961 . S
H231 C215 0.960 . S
C232 C233 1.391 . S
C232 C234 1.394 . S
C232 H248 0.931 . S
C233 C232 1.391 . S
C233 C237 1.376 . S
C234 C232 1.394 . S
C234 C235 1.369 . S
C234 C238 1.531 . S
C235 C234 1.369 . S
C235 C236 1.410 . S
C235 C243 1.503 . S
C236 C235 1.410 . S
C236 C237 1.392 . S
C236 C239 1.511 . S
C237 C233 1.376 . S
C237 C236 1.392 . S
C237 H249 0.929 . S
C238 C234 1.531 . S
C238 H250 0.960 . S
C238 H251 0.962 . S
C238 H252 0.960 . S
C239 C236 1.511 . S
C239 H253 0.961 . S
C239 H254 0.961 . S
C239 H255 0.961 . S
C240 C241 1.370 . S
C240 C242 1.363 . S
C240 H256 0.931 . S
C241 C240 1.370 . S
C241 C245 1.408 . S
C242 C240 1.363 . S
C242 C243 1.370 . S
C242 C246 1.524 . S
C243 C235 1.503 . S
C243 C242 1.370 . S
C243 C244 1.403 . S
C244 C243 1.403 . S
C244 C245 1.404 . S
C244 C247 1.539 . S
C245 C241 1.408 . S
C245 C244 1.404 . S
C245 H257 0.930 . S
C246 C242 1.524 . S
C246 H258 0.956 . S
C246 H259 0.961 . S
C246 H260 0.961 . S
C247 C244 1.539 . S
C247 H261 0.958 . S
C247 H262 0.961 . S
C247 H263 0.960 . S
H248 C232 0.931 . S
H249 C237 0.929 . S
H250 C238 0.960 . S
H251 C238 0.962 . S
H252 C238 0.960 . S
H253 C239 0.961 . S
H254 C239 0.961 . S
H255 C239 0.961 . S
H256 C240 0.931 . S
H257 C245 0.930 . S
H258 C246 0.956 . S
H259 C246 0.961 . S
H260 C246 0.961 . S
H261 C247 0.958 . S
H262 C247 0.961 . S
H263 C247 0.960 . S
C264 C265 1.391 . S
C264 C266 1.394 1_445 S
C264 H280 0.936 1_455 S
C265 C264 1.391 . S
C265 C269 1.376 . S
C266 C264 1.394 1_665 S
C266 C267 1.369 1_655 S
C266 C270 1.531 . S
C267 C266 1.369 1_455 S
C267 C268 1.410 1_565 S
C267 C275 1.503 1_455 S
C268 C267 1.410 1_545 S
C268 C269 1.392 . S
C268 C271 1.511 . S
C269 C265 1.376 . S
C269 C268 1.392 . S
C269 H281 0.929 . S
C270 C266 1.531 . S
C270 H282 0.960 . S
C270 H283 0.962 . S
C270 H284 0.960 . S
C271 C268 1.511 . S
C271 H285 0.961 . S
C271 H286 0.961 1_545 S
C271 H287 0.961 1_545 S
C272 C273 1.370 . S
C272 C274 1.363 . S
C272 H288 0.931 . S
C273 C272 1.370 . S
C273 C277 1.408 . S
C274 C272 1.363 . S
C274 C275 1.370 . S
C274 C278 1.524 1_565 S
C275 C267 1.503 1_655 S
C275 C274 1.370 . S
C275 C276 1.403 . S
C276 C275 1.403 . S
C276 C277 1.404 . S
C276 C279 1.539 1_655 S
C277 C273 1.408 . S
C277 C276 1.404 . S
C277 H289 0.930 . S
C278 C274 1.524 1_545 S
C278 H290 0.956 . S
C278 H291 0.961 . S
C278 H292 0.961 . S
C279 C276 1.539 1_455 S
C279 H293 0.958 . S
C279 H294 0.961 . S
C279 H295 0.960 . S
H280 C264 0.936 1_655 S
H281 C269 0.929 . S
H282 C270 0.960 . S
H283 C270 0.962 . S
H284 C270 0.960 . S
H285 C271 0.961 . S
H286 C271 0.961 1_565 S
H287 C271 0.961 1_565 S
H288 C272 0.931 . S
H289 C277 0.930 . S
H290 C278 0.956 . S
H291 C278 0.961 . S
H292 C278 0.961 . S
H293 C279 0.958 . S
H294 C279 0.961 . S
H295 C279 0.960 . S
C296 C297 1.391 . S
C296 C298 1.394 . S
C296 H312 0.931 . S
C297 C296 1.391 . S
C297 C301 1.376 . S
C298 C296 1.394 . S
C298 C299 1.369 . S
C298 C302 1.531 1_455 S
C299 C298 1.369 . S
C299 C300 1.410 . S
C299 C307 1.503 . S
C300 C299 1.410 . S
C300 C301 1.392 . S
C300 C303 1.511 . S
C301 C297 1.376 . S
C301 C300 1.392 . S
C301 H313 0.929 . S
C302 C298 1.531 1_655 S
C302 H314 0.960 . S
C302 H315 0.962 . S
C302 H316 0.960 . S
C303 C300 1.511 . S
C303 H317 0.961 . S
C303 H318 0.961 . S
C303 H319 0.961 . S
C304 C305 1.370 . S
C304 C306 1.363 . S
C304 H320 0.931 . S
C305 C304 1.370 . S
C305 C309 1.408 . S
C306 C304 1.363 . S
C306 C307 1.370 1_655 S
C306 C310 1.524 . S
C307 C299 1.503 . S
C307 C306 1.370 1_455 S
C307 C308 1.403 1_455 S
C308 C307 1.403 1_655 S
C308 C309 1.404 . S
C308 C311 1.539 1_655 S
C309 C305 1.408 . S
C309 C308 1.404 . S
C309 H321 0.930 . S
C310 C306 1.524 . S
C310 H322 0.956 . S
C310 H323 0.961 1_655 S
C310 H324 0.961 . S
C311 C308 1.539 1_455 S
C311 H325 0.958 1_455 S
C311 H326 0.961 . S
C311 H327 0.960 . S
H312 C296 0.931 . S
H313 C301 0.929 . S
H314 C302 0.960 . S
H315 C302 0.962 . S
H316 C302 0.960 . S
H317 C303 0.961 . S
H318 C303 0.961 . S
H319 C303 0.961 . S
H320 C304 0.931 . S
H321 C309 0.930 . S
H322 C310 0.956 . S
H323 C310 0.961 1_455 S
H324 C310 0.961 . S
H325 C311 0.958 1_655 S
H326 C311 0.961 . S
H327 C311 0.960 . S
C328 C329 1.391 1_455 S
C328 C330 1.394 . S
C328 H344 0.931 . S
C329 C328 1.391 1_655 S
C329 C333 1.376 . S
C330 C328 1.394 . S
C330 C331 1.369 1_565 S
C330 C334 1.531 . S
C331 C330 1.369 1_545 S
C331 C332 1.410 1_455 S
C331 C339 1.503 . S
C332 C331 1.410 1_655 S
C332 C333 1.392 1_545 S
C332 C335 1.511 . S
C333 C329 1.376 . S
C333 C332 1.392 1_565 S
C333 H345 0.929 . S
C334 C330 1.531 . S
C334 H346 0.960 . S
C334 H347 0.962 . S
C334 H348 0.960 . S
C335 C332 1.511 . S
C335 H349 0.961 . S
C335 H350 0.961 . S
C335 H351 0.961 . S
C336 C337 1.370 . S
C336 C338 1.363 . S
C336 H352 0.931 . S
C337 C336 1.370 . S
C337 C341 1.408 . S
C338 C336 1.363 . S
C338 C339 1.370 . S
C338 C342 1.524 . S
C339 C331 1.503 . S
C339 C338 1.370 . S
C339 C340 1.403 . S
C340 C339 1.403 . S
C340 C341 1.404 . S
C340 C343 1.539 1_545 S
C341 C337 1.408 . S
C341 C340 1.404 . S
C341 H353 0.930 . S
C342 C338 1.524 . S
C342 H354 0.956 . S
C342 H355 0.961 . S
C342 H356 0.961 . S
C343 C340 1.539 1_565 S
C343 H357 0.958 . S
C343 H358 0.962 1_465 S
C343 H359 0.960 1_455 S
H344 C328 0.931 . S
H345 C333 0.929 . S
H346 C334 0.960 . S
H347 C334 0.962 . S
H348 C334 0.960 . S
H349 C335 0.961 . S
H350 C335 0.961 . S
H351 C335 0.961 . S
H352 C336 0.931 . S
H353 C341 0.930 . S
H354 C342 0.956 . S
H355 C342 0.961 . S
H356 C342 0.961 . S
H357 C343 0.958 . S
H358 C343 0.962 1_645 S
H359 C343 0.960 1_655 S
C360 C361 1.391 . S
C360 C362 1.394 . S
C360 H376 0.931 . S
C361 C360 1.391 . S
C361 C365 1.376 1_455 S
C362 C360 1.394 . S
C362 C363 1.369 1_455 S
C362 C366 1.531 . S
C363 C362 1.369 1_655 S
C363 C364 1.410 . S
C363 C371 1.503 . S
C364 C363 1.410 . S
C364 C365 1.392 . S
C364 C367 1.511 . S
C365 C361 1.376 1_655 S
C365 C364 1.392 . S
C365 H377 0.929 . S
C366 C362 1.531 . S
C366 H378 0.960 . S
C366 H379 0.962 . S
C366 H380 0.960 . S
C367 C364 1.511 . S
C367 H381 0.961 . S
C367 H382 0.961 . S
C367 H383 0.961 . S
C368 C369 1.370 . S
C368 C370 1.363 . S
C368 H384 0.931 . S
C369 C368 1.370 . S
C369 C373 1.408 . S
C370 C368 1.363 . S
C370 C371 1.370 . S
C370 C374 1.524 . S
C371 C363 1.503 . S
C371 C370 1.370 . S
C371 C372 1.403 . S
C372 C371 1.403 . S
C372 C373 1.404 . S
C372 C375 1.539 . S
C373 C369 1.408 . S
C373 C372 1.404 . S
C373 H385 0.930 . S
C374 C370 1.524 . S
C374 H386 0.956 . S
C374 H387 0.961 . S
C374 H388 0.961 . S
C375 C372 1.539 . S
C375 H389 0.958 1_655 S
C375 H390 0.961 . S
C375 H391 0.960 . S
H376 C360 0.931 . S
H377 C365 0.929 . S
H378 C366 0.960 . S
H379 C366 0.962 . S
H380 C366 0.960 . S
H381 C367 0.961 . S
H382 C367 0.961 . S
H383 C367 0.961 . S
H384 C368 0.931 . S
H385 C373 0.930 . S
H386 C374 0.956 . S
H387 C374 0.961 . S
H388 C374 0.961 . S
H389 C375 0.958 1_455 S
H390 C375 0.961 . S
H391 C375 0.960 . S
C392 C393 1.391 . S
C392 C394 1.394 . S
C392 H408 0.931 . S
C393 C392 1.391 . S
C393 C397 1.376 . S
C394 C392 1.394 . S
C394 C395 1.369 . S
C394 C398 1.531 1_556 S
C395 C394 1.369 . S
C395 C396 1.410 . S
C395 C403 1.503 1_656 S
C396 C395 1.410 . S
C396 C397 1.392 . S
C396 C399 1.511 1_655 S
C397 C393 1.376 . S
C397 C396 1.392 . S
C397 H409 0.929 . S
C398 C394 1.531 1_554 S
C398 H410 0.960 . S
C398 H411 0.962 . S
C398 H412 0.960 . S
C399 C396 1.511 1_455 S
C399 H413 0.961 . S
C399 H414 0.961 . S
C399 H415 0.961 . S
C400 C401 1.370 . S
C400 C402 1.363 . S
C400 H416 0.931 . S
C401 C400 1.370 . S
C401 C405 1.408 . S
C402 C400 1.363 . S
C402 C403 1.370 . S
C402 C406 1.524 . S
C403 C395 1.503 1_454 S
C403 C402 1.370 . S
C403 C404 1.403 . S
C404 C403 1.403 . S
C404 C405 1.404 . S
C404 C407 1.539 1_454 S
C405 C401 1.408 . S
C405 C404 1.404 . S
C405 H417 0.930 . S
C406 C402 1.524 . S
C406 H418 0.956 . S
C406 H419 0.961 . S
C406 H420 0.961 . S
C407 C404 1.539 1_656 S
C407 H421 0.958 . S
C407 H422 0.961 . S
C407 H423 0.960 . S
H408 C392 0.931 . S
H409 C397 0.929 . S
H410 C398 0.960 . S
H411 C398 0.962 . S
H412 C398 0.960 . S
H413 C399 0.961 . S
H414 C399 0.961 . S
H415 C399 0.961 . S
H416 C400 0.931 . S
H417 C405 0.930 . S
H418 C406 0.956 . S
H419 C406 0.961 . S
H420 C406 0.961 . S
H421 C407 0.958 . S
H422 C407 0.961 . S
H423 C407 0.960 . S
C424 C425 1.391 . S
C424 C426 1.394 . S
C424 H440 0.931 . S
C425 C424 1.391 . S
C425 C429 1.376 . S
C426 C424 1.394 . S
C426 C427 1.369 . S
C426 C430 1.531 1_655 S
C427 C426 1.369 . S
C427 C428 1.410 1_565 S
C427 C435 1.503 1_665 S
C428 C427 1.410 1_545 S
C428 C429 1.392 1_545 S
C428 C431 1.511 . S
C429 C425 1.376 . S
C429 C428 1.392 1_565 S
C429 H441 0.929 . S
C430 C426 1.531 1_455 S
C430 H442 0.960 . S
C430 H443 0.962 . S
C430 H444 0.960 . S
C431 C428 1.511 . S
C431 H445 0.961 . S
C431 H446 0.961 . S
C431 H447 0.961 . S
C432 C433 1.370 . S
C432 C434 1.363 . S
C432 H448 0.931 . S
C433 C432 1.370 . S
C433 C437 1.408 . S
C434 C432 1.363 . S
C434 C435 1.370 . S
C434 C438 1.524 1_445 S
C435 C427 1.503 1_445 S
C435 C434 1.370 . S
C435 C436 1.403 . S
C436 C435 1.403 . S
C436 C437 1.404 . S
C436 C439 1.539 . S
C437 C433 1.408 . S
C437 C436 1.404 . S
C437 H449 0.930 . S
C438 C434 1.524 1_665 S
C438 H450 0.956 . S
C438 H451 0.961 1_565 S
C438 H452 0.965 . S
C439 C436 1.539 . S
C439 H453 0.958 . S
C439 H454 0.961 . S
C439 H455 0.960 . S
H440 C424 0.931 . S
H441 C429 0.929 . S
H442 C430 0.960 . S
H443 C430 0.962 . S
H444 C430 0.960 . S
H445 C431 0.961 . S
H446 C431 0.961 . S
H447 C431 0.961 . S
H448 C432 0.931 . S
H449 C437 0.930 . S
H450 C438 0.956 . S
H451 C438 0.961 1_545 S
H452 C438 0.965 . S
H453 C439 0.958 . S
H454 C439 0.961 . S
H455 C439 0.960 . S
C456 C457 1.391 . S
C456 C458 1.394 . S
C456 H472 0.931 . S
C457 C456 1.391 . S
C457 C461 1.376 . S
C458 C456 1.394 . S
C458 C459 1.369 . S
C458 C462 1.531 . S
C459 C458 1.369 . S
C459 C460 1.410 . S
C459 C467 1.503 . S
C460 C459 1.410 . S
C460 C461 1.392 . S
C460 C463 1.511 . S
C461 C457 1.376 . S
C461 C460 1.392 . S
C461 H473 0.929 . S
C462 C458 1.531 . S
C462 H474 0.960 . S
C462 H475 0.962 . S
C462 H476 0.960 . S
C463 C460 1.511 . S
C463 H477 0.961 . S
C463 H478 0.961 . S
C463 H479 0.961 . S
C464 C465 1.370 . S
C464 C466 1.363 1_554 S
C464 H480 0.931 . S
C465 C464 1.370 . S
C465 C469 1.408 . S
C466 C464 1.363 1_556 S
C466 C467 1.370 . S
C466 C470 1.524 . S
C467 C459 1.503 . S
C467 C466 1.370 . S
C467 C468 1.403 . S
C468 C467 1.403 . S
C468 C469 1.404 1_556 S
C468 C471 1.539 . S
C469 C465 1.408 . S
C469 C468 1.404 1_554 S
C469 H481 0.930 . S
C470 C466 1.524 . S
C470 H482 0.956 . S
C470 H483 0.961 . S
C470 H484 0.961 1_556 S
C471 C468 1.539 . S
C471 H485 0.958 . S
C471 H486 0.961 . S
C471 H487 0.960 . S
H472 C456 0.931 . S
H473 C461 0.929 . S
H474 C462 0.960 . S
H475 C462 0.962 . S
H476 C462 0.960 . S
H477 C463 0.961 . S
H478 C463 0.961 . S
H479 C463 0.961 . S
H480 C464 0.931 . S
H481 C469 0.930 . S
H482 C470 0.956 . S
H483 C470 0.961 . S
H484 C470 0.961 1_554 S
H485 C471 0.958 . S
H486 C471 0.961 . S
H487 C471 0.960 . S
C488 C489 1.391 . S
C488 C490 1.394 . S
C488 H504 0.931 . S
C489 C488 1.391 . S
C489 C493 1.376 . S
C490 C488 1.394 . S
C490 C491 1.369 . S
C490 C494 1.531 . S
C491 C490 1.369 . S
C491 C492 1.410 . S
C491 C499 1.503 . S
C492 C491 1.410 . S
C492 C493 1.392 . S
C492 C495 1.511 . S
C493 C489 1.376 . S
C493 C492 1.392 . S
C493 H505 0.929 . S
C494 C490 1.531 . S
C494 H506 0.960 . S
C494 H507 0.962 . S
C494 H508 0.960 . S
C495 C492 1.511 . S
C495 H509 0.961 . S
C495 H510 0.961 . S
C495 H511 0.961 . S
C496 C497 1.370 . S
C496 C498 1.363 . S
C496 H512 0.931 . S
C497 C496 1.370 . S
C497 C501 1.408 . S
C498 C496 1.363 . S
C498 C499 1.370 . S
C498 C502 1.524 . S
C499 C491 1.503 . S
C499 C498 1.370 . S
C499 C500 1.403 . S
C500 C499 1.403 . S
C500 C501 1.404 . S
C500 C503 1.539 . S
C501 C497 1.408 . S
C501 C500 1.404 . S
C501 H513 0.930 . S
C502 C498 1.524 . S
C502 H514 0.956 . S
C502 H515 0.961 . S
C502 H516 0.961 . S
C503 C500 1.539 . S
C503 H517 0.958 . S
C503 H518 0.961 . S
C503 H519 0.960 . S
H504 C488 0.931 . S
H505 C493 0.929 . S
H506 C494 0.960 . S
H507 C494 0.962 . S
H508 C494 0.960 . S
H509 C495 0.961 . S
H510 C495 0.961 . S
H511 C495 0.961 . S
H512 C496 0.931 . S
H513 C501 0.930 . S
H514 C502 0.956 . S
H515 C502 0.961 . S
H516 C502 0.961 . S
H517 C503 0.958 . S
H518 C503 0.961 . S
H519 C503 0.960 . S
C520 C521 1.391 . S
C520 C522 1.394 . S
C520 H536 0.931 . S
C521 C520 1.391 . S
C521 C525 1.376 . S
C522 C520 1.394 . S
C522 C523 1.369 1_556 S
C522 C526 1.529 . S
C523 C522 1.369 1_554 S
C523 C524 1.410 . S
C523 C531 1.503 . S
C524 C523 1.410 . S
C524 C525 1.392 1_554 S
C524 C527 1.511 . S
C525 C521 1.376 . S
C525 C524 1.392 1_556 S
C525 H537 0.929 . S
C526 C522 1.529 . S
C526 H538 0.963 1_556 S
C526 H539 0.962 . S
C526 H540 0.959 . S
C527 C524 1.511 . S
C527 H541 0.961 . S
C527 H542 0.961 . S
C527 H543 0.961 . S
C528 C529 1.370 . S
C528 C530 1.363 . S
C528 H544 0.931 . S
C529 C528 1.370 . S
C529 C533 1.408 . S
C530 C528 1.363 . S
C530 C531 1.370 . S
C530 C534 1.524 . S
C531 C523 1.503 . S
C531 C530 1.370 . S
C531 C532 1.403 . S
C532 C531 1.403 . S
C532 C533 1.404 . S
C532 C535 1.539 . S
C533 C529 1.408 . S
C533 C532 1.404 . S
C533 H545 0.930 . S
C534 C530 1.524 . S
C534 H546 0.956 . S
C534 H547 0.961 . S
C534 H548 0.961 . S
C535 C532 1.539 . S
C535 H549 0.958 . S
C535 H550 0.961 . S
C535 H551 0.960 . S
H536 C520 0.931 . S
H537 C525 0.929 . S
H538 C526 0.963 1_554 S
H539 C526 0.962 . S
H540 C526 0.959 . S
H541 C527 0.961 . S
H542 C527 0.961 . S
H543 C527 0.961 . S
H544 C528 0.931 . S
H545 C533 0.930 . S
H546 C534 0.956 . S
H547 C534 0.961 . S
H548 C534 0.961 . S
H549 C535 0.958 . S
H550 C535 0.961 . S
H551 C535 0.960 . S
C552 C553 1.391 . S
C552 C554 1.394 . S
C552 H568 0.931 . S
C553 C552 1.391 . S
C553 C557 1.376 . S
C554 C552 1.394 . S
C554 C555 1.369 . S
C554 C558 1.531 . S
C555 C554 1.369 . S
C555 C556 1.410 . S
C555 C563 1.503 . S
C556 C555 1.410 . S
C556 C557 1.392 . S
C556 C559 1.511 . S
C557 C553 1.376 . S
C557 C556 1.392 . S
C557 H569 0.929 . S
C558 C554 1.531 . S
C558 H570 0.960 . S
C558 H571 0.962 . S
C558 H572 0.960 . S
C559 C556 1.511 . S
C559 H573 0.961 . S
C559 H574 0.961 . S
C559 H575 0.961 . S
C560 C561 1.370 . S
C560 C562 1.363 . S
C560 H576 0.931 . S
C561 C560 1.370 . S
C561 C565 1.408 . S
C562 C560 1.363 . S
C562 C563 1.370 . S
C562 C566 1.524 . S
C563 C555 1.503 . S
C563 C562 1.370 . S
C563 C564 1.403 . S
C564 C563 1.403 . S
C564 C565 1.404 . S
C564 C567 1.539 . S
C565 C561 1.408 . S
C565 C564 1.404 . S
C565 H577 0.930 . S
C566 C562 1.524 . S
C566 H578 0.956 . S
C566 H579 0.961 . S
C566 H580 0.961 . S
C567 C564 1.539 . S
C567 H581 0.958 . S
C567 H582 0.961 . S
C567 H583 0.960 . S
H568 C552 0.931 . S
H569 C557 0.929 . S
H570 C558 0.960 . S
H571 C558 0.962 . S
H572 C558 0.960 . S
H573 C559 0.961 . S
H574 C559 0.961 . S
H575 C559 0.961 . S
H576 C560 0.931 . S
H577 C565 0.930 . S
H578 C566 0.956 . S
H579 C566 0.961 . S
H580 C566 0.961 . S
H581 C567 0.958 . S
H582 C567 0.961 . S
H583 C567 0.960 . S
C137 C17 1.612 . S
C145 C56 1.513 . S
C169 C15 1.536 . S
C177 C51 1.613 . S
C201 C124 1.534 . S
C209 C85 1.612 . S
C233 C90 1.468 . S
C241 C119 1.608 . S
C265 C22 1.491 . S
C273 C37 1.409 . S
C297 C1 1.436 . S
C305 C49 1.496 . S
C329 C83 1.511 . S
C337 C105 1.381 . S
C361 C117 1.484 . S
C369 C71 1.415 . S
C393 C69 1.947 . S
C401 C3 1.935 . S
C425 C35 1.905 . S
C433 C103 1.949 . S
C457 C130 1.244 . S
C465 C28 1.267 . S
C489 C96 1.240 . S
C497 C40 1.268 . S
C521 C74 1.266 . S
C529 C62 1.250 . S
C553 C108 1.273 . S
C561 C6 1.256 . S
