# Generated by pormake.
# Topology uow, (4)-cn, num edge types: 1
# Building blocks:
#     Node 0, Type 0, BuildingBlock: CEKHIL_clean_sbu_0, # of connection points: 4
#     Node 1, Type 0, BuildingBlock: CEKHIL_clean_sbu_0, # of connection points: 4
#     Node 2, Type 0, BuildingBlock: CEKHIL_clean_sbu_0, # of connection points: 4
#     Node 3, Type 0, BuildingBlock: CEKHIL_clean_sbu_0, # of connection points: 4
#     Node 4, Type 0, BuildingBlock: CEKHIL_clean_sbu_0, # of connection points: 4
#     Node 5, Type 0, BuildingBlock: CEKHIL_clean_sbu_0, # of connection points: 4
#     Node 6, Type 0, BuildingBlock: CEKHIL_clean_sbu_0, # of connection points: 4
#     Node 7, Type 0, BuildingBlock: CEKHIL_clean_sbu_0, # of connection points: 4
#     Node 8, Type 0, BuildingBlock: CEKHIL_clean_sbu_0, # of connection points: 4
#     Node 9, Type 0, BuildingBlock: CEKHIL_clean_sbu_0, # of connection points: 4
#     Node 10, Type 0, BuildingBlock: CEKHIL_clean_sbu_0, # of connection points: 4
#     Node 11, Type 0, BuildingBlock: CEKHIL_clean_sbu_0, # of connection points: 4
#     Node 12, Type 0, BuildingBlock: CEKHIL_clean_sbu_0, # of connection points: 4
#     Node 13, Type 0, BuildingBlock: CEKHIL_clean_sbu_0, # of connection points: 4
#     Node 14, Type 0, BuildingBlock: CEKHIL_clean_sbu_0, # of connection points: 4
#     Node 15, Type 0, BuildingBlock: CEKHIL_clean_sbu_0, # of connection points: 4
#     Node 16, Type 0, BuildingBlock: CEKHIL_clean_sbu_0, # of connection points: 4
#     Node 17, Type 0, BuildingBlock: CEKHIL_clean_sbu_0, # of connection points: 4
#     Node 18, Type 0, BuildingBlock: CEKHIL_clean_sbu_0, # of connection points: 4
#     Node 19, Type 0, BuildingBlock: CEKHIL_clean_sbu_0, # of connection points: 4
#     Node 20, Type 0, BuildingBlock: CEKHIL_clean_sbu_0, # of connection points: 4
#     Node 21, Type 0, BuildingBlock: CEKHIL_clean_sbu_0, # of connection points: 4
#     Node 22, Type 0, BuildingBlock: CEKHIL_clean_sbu_0, # of connection points: 4
#     Node 23, Type 0, BuildingBlock: CEKHIL_clean_sbu_0, # of connection points: 4
#     Node 24, Type 0, BuildingBlock: CEKHIL_clean_sbu_0, # of connection points: 4
#     Node 25, Type 0, BuildingBlock: CEKHIL_clean_sbu_0, # of connection points: 4
#     Node 26, Type 0, BuildingBlock: CEKHIL_clean_sbu_0, # of connection points: 4
#     Node 27, Type 0, BuildingBlock: CEKHIL_clean_sbu_0, # of connection points: 4
#     Node 28, Type 0, BuildingBlock: CEKHIL_clean_sbu_0, # of connection points: 4
#     Node 29, Type 0, BuildingBlock: CEKHIL_clean_sbu_0, # of connection points: 4
#     Node 30, Type 0, BuildingBlock: CEKHIL_clean_sbu_0, # of connection points: 4
#     Node 31, Type 0, BuildingBlock: CEKHIL_clean_sbu_0, # of connection points: 4
#     Edge 32, Type (0, 0), BuildingBlock: XUDNAN_clean_linker_2, # of connection points: 2
#     Edge 33, Type (0, 0), BuildingBlock: XUDNAN_clean_linker_2, # of connection points: 2
#     Edge 34, Type (0, 0), BuildingBlock: XUDNAN_clean_linker_2, # of connection points: 2
#     Edge 35, Type (0, 0), BuildingBlock: XUDNAN_clean_linker_2, # of connection points: 2
#     Edge 36, Type (0, 0), BuildingBlock: XUDNAN_clean_linker_2, # of connection points: 2
#     Edge 37, Type (0, 0), BuildingBlock: XUDNAN_clean_linker_2, # of connection points: 2
#     Edge 38, Type (0, 0), BuildingBlock: XUDNAN_clean_linker_2, # of connection points: 2
#     Edge 39, Type (0, 0), BuildingBlock: XUDNAN_clean_linker_2, # of connection points: 2
#     Edge 40, Type (0, 0), BuildingBlock: XUDNAN_clean_linker_2, # of connection points: 2
#     Edge 41, Type (0, 0), BuildingBlock: XUDNAN_clean_linker_2, # of connection points: 2
#     Edge 42, Type (0, 0), BuildingBlock: XUDNAN_clean_linker_2, # of connection points: 2
#     Edge 43, Type (0, 0), BuildingBlock: XUDNAN_clean_linker_2, # of connection points: 2
#     Edge 44, Type (0, 0), BuildingBlock: XUDNAN_clean_linker_2, # of connection points: 2
#     Edge 45, Type (0, 0), BuildingBlock: XUDNAN_clean_linker_2, # of connection points: 2
#     Edge 46, Type (0, 0), BuildingBlock: XUDNAN_clean_linker_2, # of connection points: 2
#     Edge 47, Type (0, 0), BuildingBlock: XUDNAN_clean_linker_2, # of connection points: 2
#     Edge 48, Type (0, 0), BuildingBlock: XUDNAN_clean_linker_2, # of connection points: 2
#     Edge 49, Type (0, 0), BuildingBlock: XUDNAN_clean_linker_2, # of connection points: 2
#     Edge 50, Type (0, 0), BuildingBlock: XUDNAN_clean_linker_2, # of connection points: 2
#     Edge 51, Type (0, 0), BuildingBlock: XUDNAN_clean_linker_2, # of connection points: 2
#     Edge 52, Type (0, 0), BuildingBlock: XUDNAN_clean_linker_2, # of connection points: 2
#     Edge 53, Type (0, 0), BuildingBlock: XUDNAN_clean_linker_2, # of connection points: 2
#     Edge 54, Type (0, 0), BuildingBlock: XUDNAN_clean_linker_2, # of connection points: 2
#     Edge 55, Type (0, 0), BuildingBlock: XUDNAN_clean_linker_2, # of connection points: 2
#     Edge 56, Type (0, 0), BuildingBlock: XUDNAN_clean_linker_2, # of connection points: 2
#     Edge 57, Type (0, 0), BuildingBlock: XUDNAN_clean_linker_2, # of connection points: 2
#     Edge 58, Type (0, 0), BuildingBlock: XUDNAN_clean_linker_2, # of connection points: 2
#     Edge 59, Type (0, 0), BuildingBlock: XUDNAN_clean_linker_2, # of connection points: 2
#     Edge 60, Type (0, 0), BuildingBlock: XUDNAN_clean_linker_2, # of connection points: 2
#     Edge 61, Type (0, 0), BuildingBlock: XUDNAN_clean_linker_2, # of connection points: 2
#     Edge 62, Type (0, 0), BuildingBlock: XUDNAN_clean_linker_2, # of connection points: 2
#     Edge 63, Type (0, 0), BuildingBlock: XUDNAN_clean_linker_2, # of connection points: 2
#     Edge 64, Type (0, 0), BuildingBlock: XUDNAN_clean_linker_2, # of connection points: 2
#     Edge 65, Type (0, 0), BuildingBlock: XUDNAN_clean_linker_2, # of connection points: 2
#     Edge 66, Type (0, 0), BuildingBlock: XUDNAN_clean_linker_2, # of connection points: 2
#     Edge 67, Type (0, 0), BuildingBlock: XUDNAN_clean_linker_2, # of connection points: 2
#     Edge 68, Type (0, 0), BuildingBlock: XUDNAN_clean_linker_2, # of connection points: 2
#     Edge 69, Type (0, 0), BuildingBlock: XUDNAN_clean_linker_2, # of connection points: 2
#     Edge 70, Type (0, 0), BuildingBlock: XUDNAN_clean_linker_2, # of connection points: 2
#     Edge 71, Type (0, 0), BuildingBlock: XUDNAN_clean_linker_2, # of connection points: 2
#     Edge 72, Type (0, 0), BuildingBlock: XUDNAN_clean_linker_2, # of connection points: 2
#     Edge 73, Type (0, 0), BuildingBlock: XUDNAN_clean_linker_2, # of connection points: 2
#     Edge 74, Type (0, 0), BuildingBlock: XUDNAN_clean_linker_2, # of connection points: 2
#     Edge 75, Type (0, 0), BuildingBlock: XUDNAN_clean_linker_2, # of connection points: 2
#     Edge 76, Type (0, 0), BuildingBlock: XUDNAN_clean_linker_2, # of connection points: 2
#     Edge 77, Type (0, 0), BuildingBlock: XUDNAN_clean_linker_2, # of connection points: 2
#     Edge 78, Type (0, 0), BuildingBlock: XUDNAN_clean_linker_2, # of connection points: 2
#     Edge 79, Type (0, 0), BuildingBlock: XUDNAN_clean_linker_2, # of connection points: 2
#     Edge 80, Type (0, 0), BuildingBlock: XUDNAN_clean_linker_2, # of connection points: 2
#     Edge 81, Type (0, 0), BuildingBlock: XUDNAN_clean_linker_2, # of connection points: 2
#     Edge 82, Type (0, 0), BuildingBlock: XUDNAN_clean_linker_2, # of connection points: 2
#     Edge 83, Type (0, 0), BuildingBlock: XUDNAN_clean_linker_2, # of connection points: 2
#     Edge 84, Type (0, 0), BuildingBlock: XUDNAN_clean_linker_2, # of connection points: 2
#     Edge 85, Type (0, 0), BuildingBlock: XUDNAN_clean_linker_2, # of connection points: 2
#     Edge 86, Type (0, 0), BuildingBlock: XUDNAN_clean_linker_2, # of connection points: 2
#     Edge 87, Type (0, 0), BuildingBlock: XUDNAN_clean_linker_2, # of connection points: 2
#     Edge 88, Type (0, 0), BuildingBlock: XUDNAN_clean_linker_2, # of connection points: 2
#     Edge 89, Type (0, 0), BuildingBlock: XUDNAN_clean_linker_2, # of connection points: 2
#     Edge 90, Type (0, 0), BuildingBlock: XUDNAN_clean_linker_2, # of connection points: 2
#     Edge 91, Type (0, 0), BuildingBlock: XUDNAN_clean_linker_2, # of connection points: 2
#     Edge 92, Type (0, 0), BuildingBlock: XUDNAN_clean_linker_2, # of connection points: 2
#     Edge 93, Type (0, 0), BuildingBlock: XUDNAN_clean_linker_2, # of connection points: 2
#     Edge 94, Type (0, 0), BuildingBlock: XUDNAN_clean_linker_2, # of connection points: 2
#     Edge 95, Type (0, 0), BuildingBlock: XUDNAN_clean_linker_2, # of connection points: 2
# Relax obj value: 0.098
# Max RMSD: 0.128
# Mean RMSD: 0.128
data_MOF--net-uow--node1-CEKHIL_clean_sbu_0--edge1-XUDNAN_clean_linker_2
_symmetry_space_group_name_H-M    P1
_symmetry_Int_Tables_number       1
_symmetry_cell_setting            triclinic
loop_
_symmetry_equiv_pos_as_xyz
'x, y, z'
_cell_length_a     61.927947
_cell_length_b     61.968594
_cell_length_c     40.039396
_cell_angle_alpha  89.966904
_cell_angle_beta   89.938705
_cell_angle_gamma 89.990477
loop_
_atom_site_label
_atom_site_type_symbol
_atom_site_fract_x
_atom_site_fract_y
_atom_site_fract_z
_atom_type_partial_charge
Co0 Co 0.04245 0.38631 0.30081 0.0
O1 O 0.03211 0.41466 0.29073 0.0
O2 O 0.06651 0.40614 0.29892 0.0
C3 C 0.01751 0.37806 0.33972 0.0
O4 O 0.05893 0.35908 0.31262 0.0
Co5 Co 0.01366 0.34622 0.28666 0.0
O6 O 0.03527 0.33157 0.31549 0.0
C7 C 0.03771 0.36666 0.23132 0.0
C8 C 0.05215 0.42078 0.2919 0.0
C9 C 0.05401 0.33953 0.3201 0.0
O10 O 0.04635 0.37994 0.25197 0.0
O11 O 0.02325 0.35292 0.23984 0.0
O12 O 0.03429 0.38956 0.34768 0.0
O13 O 0.01524 0.37407 0.30827 0.0
Co14 Co 0.86244 0.79321 0.5271 0.0
O15 O 0.84062 0.78718 0.49431 0.0
O16 O 0.83909 0.81347 0.53204 0.0
C17 C 0.86743 0.75898 0.54437 0.0
O18 O 0.88142 0.80426 0.56484 0.0
Co19 Co 0.90895 0.77436 0.52057 0.0
O20 O 0.91242 0.78528 0.56666 0.0
C21 C 0.89574 0.81184 0.47951 0.0
C22 C 0.83019 0.80333 0.50722 0.0
C23 C 0.89939 0.7991 0.57876 0.0
O24 O 0.87744 0.81289 0.49458 0.0
O25 O 0.90969 0.79699 0.48489 0.0
O26 O 0.85141 0.77027 0.55593 0.0
O27 O 0.87845 0.7679 0.52072 0.0
Co28 Co 0.45845 0.601 0.79384 0.0
O29 O 0.46746 0.57255 0.78142 0.0
O30 O 0.43438 0.58129 0.79797 0.0
C31 C 0.48729 0.60864 0.82613 0.0
O32 O 0.44357 0.62845 0.80946 0.0
Co33 Co 0.48641 0.64077 0.77291 0.0
O34 O 0.46646 0.65645 0.80318 0.0
C35 C 0.45715 0.62042 0.72392 0.0
C36 C 0.44787 0.56651 0.78809 0.0
C37 C 0.44867 0.64842 0.81327 0.0
O38 O 0.44964 0.60773 0.74653 0.0
O39 O 0.47306 0.63324 0.72887 0.0
O40 O 0.47148 0.5972 0.83807 0.0
O41 O 0.48613 0.61305 0.79471 0.0
Co42 Co 0.64113 0.20329 0.04693 0.0
O43 O 0.66835 0.21286 0.03007 0.0
O44 O 0.66182 0.17993 0.04935 0.0
C45 C 0.63434 0.23269 0.07828 0.0
O46 O 0.61503 0.18787 0.0665 0.0
Co47 Co 0.59932 0.22945 0.03031 0.0
O48 O 0.58597 0.20971 0.06343 0.0
C49 C 0.61983 0.20203 0.97898 0.0
C50 C 0.67536 0.1935 0.03601 0.0
C51 C 0.59515 0.19234 0.07285 0.0
O52 O 0.63249 0.19376 0.00091 0.0
O53 O 0.60705 0.2178 0.98516 0.0
O54 O 0.64677 0.21754 0.08991 0.0
O55 O 0.62828 0.23042 0.04775 0.0
Co56 Co 0.04323 0.60468 0.20334 0.0
O57 O 0.03361 0.57892 0.225 0.0
O58 O 0.06598 0.58326 0.20222 0.0
C59 C 0.01296 0.60986 0.17357 0.0
O60 O 0.05853 0.62872 0.17828 0.0
Co61 Co 0.01889 0.64813 0.21367 0.0
O62 O 0.03709 0.65799 0.17577 0.0
C63 C 0.04833 0.63154 0.26608 0.0
C64 C 0.05248 0.57092 0.21825 0.0
C65 C 0.05414 0.64777 0.16751 0.0
O66 O 0.0546 0.61615 0.24687 0.0
O67 O 0.03315 0.64469 0.25838 0.0
O68 O 0.02773 0.59679 0.1625 0.0
O69 O 0.01617 0.61795 0.20274 0.0
Co70 Co 0.6427 0.78944 0.45962 0.0
O71 O 0.66994 0.7848 0.48147 0.0
O72 O 0.66336 0.81025 0.44372 0.0
C73 C 0.63607 0.75471 0.44645 0.0
O74 O 0.61722 0.79917 0.43135 0.0
Co75 Co 0.59996 0.76915 0.48703 0.0
O76 O 0.58625 0.78367 0.4485 0.0
C77 C 0.61818 0.80844 0.51824 0.0
C78 C 0.67697 0.80088 0.46366 0.0
C79 C 0.5967 0.79624 0.42919 0.0
O80 O 0.63343 0.80951 0.49651 0.0
O81 O 0.60444 0.79305 0.51975 0.0
O82 O 0.64891 0.76624 0.42803 0.0
O83 O 0.62942 0.76372 0.47361 0.0
Co84 Co 0.45561 0.38205 0.70955 0.0
O85 O 0.46337 0.4046 0.74023 0.0
O86 O 0.4341 0.40451 0.70833 0.0
C87 C 0.48863 0.37809 0.68663 0.0
O88 O 0.44244 0.36251 0.67428 0.0
Co89 Co 0.47594 0.33625 0.71274 0.0
O90 O 0.46252 0.33259 0.66815 0.0
C91 C 0.44183 0.34861 0.76092 0.0
C92 C 0.44588 0.41432 0.73046 0.0
C93 C 0.44718 0.34491 0.65895 0.0
O94 O 0.43903 0.36665 0.74565 0.0
O95 O 0.45661 0.33507 0.75297 0.0
O96 O 0.47598 0.39353 0.67664 0.0
O97 O 0.48174 0.3669 0.71166 0.0
Co98 Co 0.86129 0.20154 0.96468 0.0
O99 O 0.83306 0.21087 0.97732 0.0
O100 O 0.84151 0.17739 0.96247 0.0
C101 C 0.86843 0.22982 0.93132 0.0
O102 O 0.88861 0.18638 0.94903 0.0
Co103 Co 0.90137 0.22981 0.98318 0.0
O104 O 0.91682 0.2092 0.95362 0.0
C105 C 0.87788 0.20551 0.03489 0.0
C106 C 0.82691 0.19115 0.97216 0.0
C107 C 0.90854 0.19137 0.94426 0.0
O108 O 0.86815 0.1944 0.01242 0.0
O109 O 0.88975 0.2219 0.02839 0.0
O110 O 0.85707 0.21379 0.91992 0.0
O111 O 0.87328 0.22899 0.96252 0.0
Co112 Co 0.9543 0.60586 0.70546 0.0
O113 O 0.96203 0.57924 0.72669 0.0
O114 O 0.93069 0.58564 0.70168 0.0
C115 C 0.98583 0.60968 0.67817 0.0
O116 O 0.94078 0.63058 0.67968 0.0
Co117 Co 0.98002 0.64841 0.7162 0.0
O118 O 0.96358 0.65871 0.67677 0.0
C119 C 0.94687 0.63448 0.7657 0.0
C120 C 0.94326 0.5722 0.7173 0.0
C121 C 0.9462 0.6492 0.66828 0.0
O122 O 0.94197 0.61772 0.7483 0.0
O123 O 0.96215 0.6475 0.75794 0.0
O124 O 0.97073 0.5976 0.66567 0.0
O125 O 0.982 0.61793 0.70708 0.0
Co126 Co 0.14505 0.19673 0.4577 0.0
O127 O 0.1718 0.20517 0.47782 0.0
O128 O 0.16549 0.17335 0.45407 0.0
C129 C 0.13948 0.22746 0.42902 0.0
O130 O 0.12023 0.1828 0.43267 0.0
Co131 Co 0.10242 0.22164 0.47282 0.0
O132 O 0.0899 0.20256 0.43823 0.0
C133 C 0.12088 0.19259 0.52331 0.0
C134 C 0.17884 0.18626 0.4691 0.0
C135 C 0.10033 0.18672 0.42591 0.0
O136 O 0.13427 0.18494 0.50173 0.0
O137 O 0.10868 0.20881 0.51745 0.0
O138 O 0.15257 0.21293 0.41723 0.0
O139 O 0.13218 0.22391 0.45867 0.0
Co140 Co 0.54291 0.39865 0.19897 0.0
O141 O 0.53305 0.42688 0.21116 0.0
O142 O 0.56634 0.41912 0.1945 0.0
C143 C 0.51415 0.39027 0.16705 0.0
O144 O 0.55864 0.3716 0.18347 0.0
Co145 Co 0.51618 0.35788 0.21942 0.0
O146 O 0.53656 0.34289 0.18899 0.0
C147 C 0.54424 0.37953 0.2689 0.0
C148 C 0.55239 0.43355 0.20411 0.0
C149 C 0.55416 0.35151 0.17929 0.0
O150 O 0.55177 0.39228 0.24635 0.0
O151 O 0.52874 0.36628 0.26363 0.0
O152 O 0.52964 0.40199 0.15478 0.0
O153 O 0.51562 0.38582 0.19838 0.0
Co154 Co 0.36543 0.79915 0.94459 0.0
O155 O 0.33919 0.78855 0.96369 0.0
O156 O 0.34378 0.82165 0.94362 0.0
C157 C 0.372 0.76976 0.9132 0.0
O158 O 0.39005 0.81542 0.92212 0.0
Co159 Co 0.40895 0.77495 0.95687 0.0
O160 O 0.41956 0.79417 0.92082 0.0
C161 C 0.38959 0.80177 0.01014 0.0
C162 C 0.33115 0.80747 0.95752 0.0
C163 C 0.40945 0.81126 0.91253 0.0
O164 O 0.37546 0.80926 0.98971 0.0
O165 O 0.40291 0.78673 0.00251 0.0
O166 O 0.35867 0.7844 0.90244 0.0
O167 O 0.37927 0.77253 0.94299 0.0
Co168 Co 0.95201 0.3833 0.76733 0.0
O169 O 0.95859 0.40759 0.73939 0.0
O170 O 0.9299 0.405 0.77238 0.0
C171 C 0.98559 0.37957 0.78842 0.0
O172 O 0.93997 0.36128 0.80005 0.0
Co173 Co 0.97447 0.33865 0.75819 0.0
O174 O 0.96122 0.3319 0.80196 0.0
C175 C 0.93529 0.34987 0.71893 0.0
C176 C 0.94122 0.41638 0.75145 0.0
C177 C 0.94518 0.34284 0.81239 0.0
O178 O 0.93482 0.36908 0.73092 0.0
O179 O 0.94971 0.33583 0.72617 0.0
O180 O 0.97243 0.39384 0.80065 0.0
O181 O 0.97882 0.36935 0.76235 0.0
Co182 Co 0.36655 0.20628 0.51483 0.0
O183 O 0.34122 0.2092 0.4878 0.0
O184 O 0.34587 0.18432 0.527 0.0
C185 C 0.37005 0.2415 0.52775 0.0
O186 O 0.39013 0.1986 0.54813 0.0
Co187 Co 0.40965 0.22873 0.49331 0.0
O188 O 0.42093 0.21611 0.53516 0.0
C189 C 0.39713 0.18698 0.46346 0.0
C190 C 0.33353 0.19286 0.5043 0.0
C191 C 0.4101 0.20319 0.55339 0.0
O192 O 0.37991 0.18614 0.48127 0.0
O193 O 0.41038 0.20281 0.46354 0.0
O194 O 0.35647 0.22945 0.54398 0.0
O195 O 0.37925 0.23258 0.50232 0.0
Co196 Co 0.53702 0.61686 0.27874 0.0
O197 O 0.53031 0.59502 0.24626 0.0
O198 O 0.56086 0.597 0.27492 0.0
C199 C 0.50489 0.6154 0.30512 0.0
O200 O 0.54984 0.63594 0.31477 0.0
Co201 Co 0.51104 0.65957 0.2866 0.0
O202 O 0.52825 0.66377 0.32783 0.0
C203 C 0.54588 0.65592 0.23548 0.0
C204 C 0.54904 0.58674 0.25332 0.0
C205 C 0.54521 0.65255 0.33257 0.0
O206 O 0.54999 0.63623 0.24358 0.0
O207 O 0.53068 0.66712 0.24855 0.0
O208 O 0.51992 0.60158 0.31246 0.0
O209 O 0.50918 0.62867 0.28127 0.0
Co210 Co 0.14502 0.79117 0.03261 0.0
O211 O 0.17092 0.78361 0.00928 0.0
O212 O 0.16677 0.81292 0.04047 0.0
C213 C 0.13847 0.75824 0.05412 0.0
O214 O 0.1209 0.80388 0.06104 0.0
Co215 Co 0.1012 0.76941 0.01308 0.0
O216 O 0.08952 0.78678 0.05036 0.0
C217 C 0.11828 0.8057 0.97308 0.0
C218 C 0.17911 0.80122 0.0214 0.0
C219 C 0.10056 0.80093 0.06586 0.0
O220 O 0.13446 0.80791 0.99278 0.0
O221 O 0.10414 0.79075 0.97588 0.0
O222 O 0.15229 0.77099 0.06845 0.0
O223 O 0.13088 0.76482 0.02591 0.0
Co224 Co 0.55619 0.89859 0.77767 0.0
O225 O 0.54694 0.92553 0.75954 0.0
O226 O 0.57862 0.92011 0.78389 0.0
C227 C 0.52496 0.8914 0.80428 0.0
O228 O 0.5706 0.87271 0.79997 0.0
Co229 Co 0.53196 0.85653 0.7565 0.0
O230 O 0.54871 0.84388 0.79391 0.0
C231 C 0.56232 0.87781 0.71004 0.0
C232 C 0.5653 0.93333 0.76921 0.0
C233 C 0.56533 0.85301 0.80626 0.0
O234 O 0.56906 0.89023 0.73346 0.0
O235 O 0.54631 0.86488 0.71339 0.0
O236 O 0.53913 0.90402 0.81807 0.0
O237 O 0.52929 0.88528 0.77427 0.0
Co238 Co 0.35584 0.2935 0.03306 0.0
O239 O 0.32788 0.28423 0.01816 0.0
O240 O 0.33591 0.31749 0.03421 0.0
C241 C 0.36202 0.26522 0.0672 0.0
O242 O 0.38242 0.309 0.05082 0.0
Co243 Co 0.39715 0.26611 0.01911 0.0
O244 O 0.41096 0.28648 0.0508 0.0
C245 C 0.37793 0.29259 0.96524 0.0
C246 C 0.3215 0.3039 0.02353 0.0
C247 C 0.40211 0.30441 0.05819 0.0
O248 O 0.36449 0.30104 0.98597 0.0
O249 O 0.39085 0.27725 0.97308 0.0
O250 O 0.35015 0.28122 0.07736 0.0
O251 O 0.36805 0.26597 0.0364 0.0
Co252 Co 0.96162 0.11161 0.26983 0.0
O253 O 0.96397 0.08628 0.24284 0.0
O254 O 0.9371 0.09303 0.27816 0.0
C255 C 0.99589 0.11127 0.28807 0.0
O256 O 0.95431 0.13546 0.30275 0.0
Co257 Co 0.9897 0.15234 0.25516 0.0
O258 O 0.97701 0.16363 0.29704 0.0
C259 C 0.94818 0.14561 0.21973 0.0
C260 C 0.94619 0.08 0.25696 0.0
C261 C 0.96138 0.15412 0.31157 0.0
O262 O 0.94517 0.12729 0.23401 0.0
O263 O 0.96487 0.15743 0.22415 0.0
O264 O 0.98139 0.09929 0.30235 0.0
O265 O 0.98982 0.12145 0.26156 0.0
Co266 Co 0.13565 0.7074 0.52689 0.0
O267 O 0.16286 0.71573 0.50779 0.0
O268 O 0.15641 0.68432 0.5324 0.0
C269 C 0.12978 0.73871 0.55388 0.0
O270 O 0.11029 0.69345 0.5508 0.0
Co271 Co 0.09312 0.73235 0.511 0.0
O272 O 0.08 0.71317 0.54507 0.0
C273 C 0.11012 0.69992 0.46325 0.0
C274 C 0.17007 0.69713 0.51766 0.0
C275 C 0.09023 0.69707 0.55696 0.0
O276 O 0.12564 0.69474 0.48309 0.0
O277 O 0.09699 0.71545 0.46895 0.0
O278 O 0.14199 0.72403 0.56729 0.0
O279 O 0.12297 0.73477 0.52414 0.0
Co280 Co 0.54821 0.12176 0.71215 0.0
O281 O 0.54133 0.09538 0.73471 0.0
O282 O 0.57118 0.10107 0.70525 0.0
C283 C 0.51535 0.12647 0.68952 0.0
O284 O 0.56044 0.14627 0.68416 0.0
Co285 Co 0.52418 0.1647 0.7283 0.0
O286 O 0.54127 0.17683 0.6909 0.0
C287 C 0.5589 0.14887 0.77285 0.0
C288 C 0.55951 0.08803 0.72324 0.0
C289 C 0.55646 0.16615 0.67723 0.0
O290 O 0.5632 0.13312 0.75307 0.0
O291 O 0.54314 0.16194 0.76845 0.0
O292 O 0.52932 0.1139 0.67504 0.0
O293 O 0.521 0.13441 0.7179 0.0
Co294 Co 0.13235 0.30023 0.97122 0.0
O295 O 0.15642 0.29258 -0.00106 0.0
O296 O 0.15384 0.32288 0.96971 0.0
C297 C 0.12993 0.26762 0.94652 0.0
O298 O 0.11067 0.31328 0.93872 0.0
Co299 Co 0.0882 0.27638 0.97551 0.0
O300 O 0.08253 0.29078 0.93221 0.0
C301 C 0.09958 0.3098 0.02565 0.0
C302 C 0.16523 0.31049 0.98912 0.0
C303 C 0.09316 0.30754 0.9239 0.0
O304 O 0.11711 0.31452 0.0099 0.0
O305 O 0.08704 0.29433 0.01707 0.0
O306 O 0.14388 0.28167 0.93579 0.0
O307 O 0.11911 0.27316 0.97265 0.0
Co308 Co 0.96233 0.89161 0.21276 0.0
O309 O 0.96956 0.9192 0.23097 0.0
O310 O 0.93924 0.91179 0.20384 0.0
C311 C 0.9946 0.8852 0.18928 0.0
O312 O 0.9496 0.86549 0.18937 0.0
Co313 Co 0.98612 0.84997 0.23523 0.0
O314 O 0.9684 0.8353 0.20073 0.0
C315 C 0.95586 0.87197 0.28071 0.0
C316 C 0.95103 0.92578 0.21975 0.0
C317 C 0.9533 0.84523 0.18552 0.0
O318 O 0.94852 0.88328 0.25635 0.0
O319 O 0.97232 0.85957 0.27803 0.0
O320 O 0.98042 0.8969 0.17359 0.0
O321 O 0.98952 0.87925 0.2191 0.0
Co322 Co 0.36137 0.70557 0.47915 0.0
O323 O 0.3353 0.71341 0.50215 0.0
O324 O 0.33989 0.6832 0.4734 0.0
C325 C 0.36661 0.73798 0.45495 0.0
O326 O 0.38525 0.69232 0.45097 0.0
Co327 Co 0.40501 0.729 0.49302 0.0
O328 O 0.41618 0.71112 0.45579 0.0
C329 C 0.39 0.69399 0.53807 0.0
C330 C 0.32721 0.6955 0.49097 0.0
C331 C 0.40512 0.6958 0.44326 0.0
O332 O 0.37312 0.69058 0.52008 0.0
O333 O 0.40338 0.70935 0.53255 0.0
O334 O 0.35351 0.72412 0.44153 0.0
O335 O 0.37472 0.73262 0.48337 0.0
Co336 Co 0.44799 0.10236 0.20407 0.0
O337 O 0.45778 0.074 0.21514 0.0
O338 O 0.42433 0.08207 0.19968 0.0
C339 C 0.47667 0.11103 0.17225 0.0
O340 O 0.43255 0.1299 0.18975 0.0
Co341 Co 0.47528 0.14225 0.22667 0.0
O342 O 0.45516 0.15809 0.19678 0.0
C343 C 0.45022 0.11714 0.27558 0.0
C344 C 0.43829 0.06753 0.2089 0.0
C345 C 0.43752 0.14996 0.1863 0.0
O346 O 0.43987 0.10774 0.25194 0.0
O347 O 0.46649 0.12951 0.27077 0.0
O348 O 0.46106 0.09968 0.15951 0.0
O349 O 0.47524 0.11491 0.20373 0.0
Co350 Co 0.63655 0.71097 0.97457 0.0
O351 O 0.6636 0.72145 0.99141 0.0
O352 O 0.65699 0.68743 0.9778 0.0
C353 C 0.63161 0.73792 0.93751 0.0
O354 O 0.61107 0.69431 0.95543 0.0
Co355 Co 0.59431 0.7382 0.9814 0.0
O356 O 0.58227 0.71629 0.95042 0.0
C357 C 0.61307 0.71617 0.04005 0.0
C358 C 0.67063 0.70181 0.9885 0.0
C359 C 0.59171 0.69829 0.94554 0.0
O360 O 0.62597 0.7053 0.02132 0.0
O361 O 0.60102 0.73148 0.02933 0.0
O362 O 0.64405 0.72176 0.9299 0.0
O363 O 0.62413 0.73803 0.96752 0.0
Co364 Co 0.03897 0.88673 0.71894 0.0
O365 O 0.03168 0.91454 0.73663 0.0
O366 O 0.05974 0.90769 0.70366 0.0
C367 C 0.00522 0.87745 0.70376 0.0
O368 O 0.05117 0.86075 0.69454 0.0
Co369 Co 0.02047 0.84421 0.74881 0.0
O370 O 0.03624 0.82963 0.71198 0.0
C371 C 0.05284 0.86964 0.78562 0.0
C372 C 0.04861 0.92158 0.72085 0.0
C373 C 0.04895 0.84015 0.69293 0.0
O374 O 0.05736 0.88051 0.75921 0.0
O375 O 0.03701 0.8564 0.78742 0.0
O376 O 0.01679 0.88977 0.6844 0.0
O377 O 0.01371 0.87275 0.73218 0.0
Co378 Co 0.86226 0.28588 0.46397 0.0
O379 O 0.83204 0.2796 0.46594 0.0
O380 O 0.84587 0.31127 0.45135 0.0
C381 C 0.87237 0.25544 0.43795 0.0
O382 O 0.89262 0.29768 0.45773 0.0
Co383 Co 0.89466 0.25622 0.50192 0.0
O384 O 0.91688 0.27509 0.48106 0.0
C385 C 0.86681 0.2859 0.53912 0.0
C386 C 0.82886 0.29942 0.45679 0.0
C387 C 0.91214 0.29201 0.46444 0.0
O388 O 0.86192 0.29569 0.51188 0.0
O389 O 0.87733 0.26814 0.53999 0.0
O390 O 0.86481 0.27152 0.42061 0.0
O391 O 0.87137 0.2575 0.46989 0.0
Co392 Co 0.45734 0.88213 0.28064 0.0
O393 O 0.46394 0.90781 0.25606 0.0
O394 O 0.4342 0.90287 0.28594 0.0
C395 C 0.49021 0.87839 0.30359 0.0
O396 O 0.44538 0.85821 0.31022 0.0
Co397 Co 0.48198 0.83917 0.26684 0.0
O398 O 0.46526 0.82793 0.30528 0.0
C399 C 0.44783 0.85401 0.22055 0.0
C400 C 0.44563 0.91535 0.26664 0.0
C401 C 0.44985 0.83862 0.31838 0.0
O402 O 0.44265 0.86952 0.2403 0.0
O403 O 0.46399 0.84153 0.22555 0.0
O404 O 0.47615 0.89121 0.3173 0.0
O405 O 0.48463 0.86968 0.27575 0.0
Co406 Co 0.86238 0.70992 0.02794 0.0
O407 O 0.83478 0.71943 0.01189 0.0
O408 O 0.841 0.68762 0.03532 0.0
C409 C 0.87067 0.74075 0.05464 0.0
O410 O 0.8882 0.69485 0.04871 0.0
Co411 Co 0.90487 0.73304 0.00701 0.0
O412 O 0.91882 0.7135 0.03982 0.0
C413 C 0.88314 0.70326 0.9601 0.0
C414 C 0.82729 0.70098 0.02196 0.0
C415 C 0.9086 0.69773 0.05281 0.0
O416 O 0.86973 0.69732 0.98289 0.0
O417 O 0.89674 0.71862 0.9641 0.0
O418 O 0.85853 0.72645 0.06919 0.0
O419 O 0.87595 0.7368 0.02414 0.0
Co420 Co 0.05071 0.10841 0.79014 0.0
O421 O 0.03984 0.08392 0.7665 0.0
O422 O 0.07237 0.08592 0.78949 0.0
C423 C 0.02075 0.11413 0.82083 0.0
O424 O 0.06701 0.13097 0.81719 0.0
Co425 Co 0.02823 0.15315 0.7818 0.0
O426 O 0.04582 0.16039 0.82153 0.0
C427 C 0.05822 0.13734 0.72977 0.0
C428 C 0.05821 0.07475 0.77283 0.0
C429 C 0.06255 0.14962 0.82955 0.0
O430 O 0.0628 0.12071 0.74759 0.0
O431 O 0.04391 0.15128 0.73806 0.0
O432 O 0.03467 0.09963 0.83009 0.0
O433 O 0.02436 0.12301 0.79222 0.0
Co434 Co 0.64221 0.29932 0.51505 0.0
O435 O 0.66684 0.2912 0.489 0.0
O436 O 0.66402 0.32177 0.51728 0.0
C437 C 0.6384 0.26717 0.54055 0.0
O438 O 0.61941 0.3128 0.54526 0.0
Co439 Co 0.59831 0.2754 0.50648 0.0
O440 O 0.59098 0.29031 0.54879 0.0
C441 C 0.611 0.31003 0.45902 0.0
C442 C 0.67552 0.30931 0.49805 0.0
C443 C 0.60119 0.30713 0.55805 0.0
O444 O 0.62857 0.31363 0.47519 0.0
O445 O 0.59777 0.29487 0.46648 0.0
O446 O 0.65198 0.28124 0.55222 0.0
O447 O 0.62895 0.27223 0.51301 0.0
H448 H 0.02626 0.33863 0.1816 0.0
H449 H 0.07052 0.39098 0.20421 0.0
H450 H 0.09007 0.38387 0.15163 0.0
H451 H 0.06426 0.30327 0.15262 0.0
H452 H 0.04789 0.29177 0.11997 0.0
H453 H 0.03525 0.3031 0.15638 0.0
H454 H 0.01251 0.32877 0.11928 0.0
H455 H 0.02479 0.31722 0.08259 0.0
H456 H 0.02589 0.34595 0.08938 0.0
H457 H 0.10759 0.36777 0.09997 0.0
H458 H 0.1198 0.3457 0.052 0.0
H459 H 0.06394 0.30409 0.06487 0.0
C460 C 0.03967 0.34905 0.17517 0.0
C461 C 0.04681 0.36535 0.19715 0.0
C462 C 0.06465 0.37841 0.18779 0.0
C463 C 0.0759 0.37449 0.15796 0.0
C464 C 0.069 0.35761 0.13764 0.0
C465 C 0.05107 0.34534 0.14565 0.0
C466 C 0.04782 0.32715 0.12109 0.0
C467 C 0.04888 0.30503 0.13857 0.0
C468 C 0.02649 0.32995 0.10194 0.0
C469 C 0.06707 0.33067 0.09858 0.0
C470 C 0.07905 0.34838 0.10822 0.0
C471 C 0.09815 0.35404 0.0919 0.0
C472 C 0.10503 0.34133 0.06482 0.0
C473 C 0.09286 0.32314 0.05455 0.0
C474 C 0.07364 0.31791 0.07182 0.0
H475 H 0.97111 0.85846 0.34071 0.0
H476 H 0.91393 0.88438 0.29275 0.0
H477 H 0.89292 0.87756 0.34424 0.0
H478 H 0.94766 0.81578 0.37545 0.0
H479 H 0.96276 0.81568 0.41392 0.0
H480 H 0.97431 0.82747 0.3771 0.0
H481 H 0.97995 0.86365 0.40839 0.0
H482 H 0.96857 0.85186 0.44564 0.0
H483 H 0.95738 0.87643 0.42885 0.0
H484 H 0.87694 0.86135 0.39647 0.0
H485 H 0.86777 0.83774 0.4443 0.0
H486 H 0.93566 0.82253 0.45692 0.0
C487 C 0.95432 0.86332 0.34132 0.0
C488 C 0.94411 0.87183 0.31277 0.0
C489 C 0.9221 0.87792 0.31448 0.0
C490 C 0.91006 0.87416 0.34364 0.0
C491 C 0.92042 0.86471 0.3709 0.0
C492 C 0.94219 0.85971 0.37008 0.0
C493 C 0.94906 0.84723 0.40067 0.0
C494 C 0.95901 0.82525 0.39119 0.0
C495 C 0.96466 0.8606 0.42216 0.0
C496 C 0.9275 0.84462 0.41772 0.0
C497 C 0.91122 0.85527 0.4008 0.0
C498 C 0.88963 0.85337 0.41035 0.0
C499 C 0.88456 0.83989 0.43745 0.0
C500 C 0.90102 0.82825 0.45412 0.0
C501 C 0.92273 0.83121 0.44462 0.0
H502 H 0.47007 0.64213 0.66824 0.0
H503 H 0.4164 0.60548 0.70882 0.0
H504 H 0.39349 0.61756 0.66189 0.0
H505 H 0.44166 0.68672 0.64955 0.0
H506 H 0.45578 0.69346 0.61155 0.0
H507 H 0.46925 0.67823 0.64352 0.0
H508 H 0.47763 0.64755 0.60145 0.0
H509 H 0.46465 0.66294 0.56897 0.0
H510 H 0.45597 0.63574 0.57761 0.0
H511 H 0.37501 0.63849 0.61465 0.0
H512 H 0.3638 0.66451 0.57073 0.0
H513 H 0.42976 0.68788 0.56462 0.0
C514 C 0.45372 0.63601 0.66677 0.0
C515 C 0.44507 0.62288 0.69225 0.0
C516 C 0.42349 0.61541 0.68944 0.0
C517 C 0.41031 0.62227 0.66291 0.0
C518 C 0.41904 0.63633 0.63929 0.0
C519 C 0.44041 0.64278 0.64077 0.0
C520 C 0.44552 0.65963 0.61471 0.0
C521 C 0.45351 0.68074 0.63082 0.0
C522 C 0.46191 0.65094 0.58917 0.0
C523 C 0.4235 0.6624 0.59927 0.0
C524 C 0.40842 0.64863 0.61315 0.0
C525 C 0.38678 0.64914 0.60335 0.0
C526 C 0.38052 0.66403 0.57859 0.0
C527 C 0.39582 0.67842 0.56456 0.0
C528 C 0.41754 0.67735 0.57509 0.0
H529 H 0.56354 0.18679 0.8056 0.0
H530 H 0.58694 0.12077 0.80416 0.0
H531 H 0.60972 0.1286 0.85364 0.0
H532 H 0.61431 0.21202 0.83337 0.0
H533 H 0.60007 0.2315 0.85853 0.0
H534 H 0.58787 0.22115 0.82095 0.0
H535 H 0.55425 0.20901 0.85486 0.0
H536 H 0.56625 0.2194 0.89235 0.0
H537 H 0.5578 0.19159 0.89052 0.0
H538 H 0.62662 0.14307 0.90712 0.0
H539 H 0.63501 0.16216 0.95977 0.0
H540 H 0.6006 0.21853 0.92358 0.0
C541 C 0.57357 0.17395 0.81542 0.0
C542 C 0.57335 0.15312 0.80131 0.0
C543 C 0.58688 0.13686 0.81471 0.0
C544 C 0.59991 0.14119 0.84265 0.0
C545 C 0.59945 0.16193 0.85624 0.0
C546 C 0.58669 0.17803 0.84281 0.0
C547 C 0.58771 0.19853 0.863 0.0
C548 C 0.59811 0.21688 0.84275 0.0
C549 C 0.56517 0.20499 0.87595 0.0
C550 C 0.60226 0.19122 0.89093 0.0
C551 C 0.60924 0.17022 0.88646 0.0
C552 C 0.62153 0.15963 0.91058 0.0
C553 C 0.62623 0.17061 0.94038 0.0
C554 C 0.61838 0.19182 0.94579 0.0
C555 C 0.60687 0.20236 0.92021 0.0
H556 H 0.03556 0.6568 0.31802 0.0
H557 H 0.08828 0.616 0.28455 0.0
H558 H 0.10998 0.62754 0.33328 0.0
H559 H 0.06626 0.70025 0.34168 0.0
H560 H 0.05022 0.70718 0.37771 0.0
H561 H 0.03796 0.69346 0.34303 0.0
H562 H 0.02495 0.66275 0.38225 0.0
H563 H 0.03684 0.67658 0.41725 0.0
H564 H 0.04423 0.64903 0.40845 0.0
H565 H 0.12699 0.64662 0.38393 0.0
H566 H 0.13665 0.67007 0.43197 0.0
H567 H 0.07249 0.69827 0.42886 0.0
C568 C 0.05152 0.64993 0.32115 0.0
C569 C 0.06023 0.63556 0.29745 0.0
C570 C 0.0812 0.62697 0.30256 0.0
C571 C 0.09367 0.63347 0.33009 0.0
C572 C 0.08481 0.64835 0.35234 0.0
C573 C 0.06407 0.6562 0.34828 0.0
C574 C 0.05848 0.67285 0.37431 0.0
C575 C 0.05292 0.69472 0.3582 0.0
C576 C 0.04004 0.66482 0.39691 0.0
C577 C 0.07957 0.6738 0.393 0.0
C578 C 0.09456 0.65941 0.3805 0.0
C579 C 0.1153 0.65785 0.394 0.0
C580 C 0.12069 0.67128 0.42112 0.0
C581 C 0.10545 0.68621 0.43391 0.0
C582 C 0.0847 0.68732 0.41947 0.0
H583 H 0.58022 0.8256 0.53631 0.0
H584 H 0.64904 0.83092 0.55341 0.0
H585 H 0.64206 0.85669 0.59971 0.0
H586 H 0.56581 0.88313 0.56162 0.0
H587 H 0.54094 0.8738 0.58008 0.0
H588 H 0.55181 0.86039 0.54379 0.0
H589 H 0.55099 0.82395 0.57566 0.0
H590 H 0.54031 0.83716 0.61188 0.0
H591 H 0.56488 0.82168 0.61507 0.0
H592 H 0.62691 0.87567 0.65054 0.0
H593 H 0.60555 0.88521 0.70066 0.0
H594 H 0.54683 0.86707 0.64905 0.0
C595 C 0.59384 0.83271 0.54924 0.0
C596 C 0.6151 0.82634 0.54174 0.0
C597 C 0.63262 0.83582 0.55889 0.0
C598 C 0.62878 0.85048 0.58504 0.0
C599 C 0.60741 0.85576 0.59283 0.0
C600 C 0.59026 0.84737 0.57492 0.0
C601 C 0.5688 0.85312 0.59039 0.0
C602 C 0.55609 0.86853 0.56761 0.0
C603 C 0.5555 0.83277 0.59876 0.0
C604 C 0.57646 0.86452 0.62143 0.0
C605 C 0.59872 0.86659 0.622 0.0
C606 C 0.60947 0.87463 0.64995 0.0
C607 C 0.59722 0.88 0.6783 0.0
C608 C 0.57458 0.87681 0.67855 0.0
C609 C 0.56412 0.86975 0.64937 0.0
H610 H 0.40229 0.27749 0.91335 0.0
H611 H 0.35968 0.3301 0.94153 0.0
H612 H 0.36883 0.34902 0.88906 0.0
H613 H 0.44332 0.30868 0.8833 0.0
H614 H 0.4507 0.29114 0.84925 0.0
H615 H 0.4381 0.2801 0.88592 0.0
H616 H 0.40771 0.26341 0.84969 0.0
H617 H 0.42041 0.27414 0.81272 0.0
H618 H 0.39258 0.28041 0.82166 0.0
H619 H 0.38651 0.36424 0.83707 0.0
H620 H 0.40986 0.37361 0.78911 0.0
H621 H 0.44082 0.31087 0.79636 0.0
C622 C 0.39441 0.29274 0.90823 0.0
C623 C 0.38027 0.30229 0.93164 0.0
C624 C 0.37047 0.32237 0.92393 0.0
C625 C 0.37559 0.33326 0.89419 0.0
C626 C 0.3903 0.32373 0.87233 0.0
C627 C 0.39932 0.30377 0.87884 0.0
C628 C 0.41597 0.2977 0.85287 0.0
C629 C 0.43833 0.29421 0.8688 0.0
C630 C 0.40873 0.27773 0.83306 0.0
C631 C 0.41556 0.31774 0.83141 0.0
C632 C 0.40049 0.33248 0.84267 0.0
C633 C 0.39813 0.35267 0.82773 0.0
C634 C 0.41153 0.35787 0.80059 0.0
C635 C 0.42722 0.34299 0.7889 0.0
C636 C 0.429 0.32263 0.8045 0.0
H637 H 0.88256 0.16419 0.05588 0.0
H638 H 0.8748 0.22983 0.09091 0.0
H639 H 0.88417 0.2183 0.14796 0.0
H640 H 0.86742 0.13554 0.13975 0.0
H641 H 0.88811 0.11562 0.13247 0.0
H642 H 0.87347 0.127 0.09774 0.0
H643 H 0.9097 0.13806 0.07042 0.0
H644 H 0.92442 0.12723 0.10513 0.0
H645 H 0.92815 0.15506 0.09326 0.0
H646 H 0.90364 0.20312 0.19466 0.0
H647 H 0.93053 0.18461 0.22971 0.0
H648 H 0.92679 0.12812 0.1663 0.0
C649 C 0.88167 0.17577 0.07609 0.0
C650 C 0.87771 0.19777 0.06946 0.0
C651 C 0.8776 0.21286 0.09584 0.0
C652 C 0.88279 0.20641 0.12829 0.0
C653 C 0.88807 0.18484 0.13379 0.0
C654 C 0.88726 0.16959 0.10856 0.0
C655 C 0.89765 0.14856 0.11944 0.0
C656 C 0.88064 0.13062 0.12254 0.0
C657 C 0.91607 0.14187 0.09566 0.0
C658 C 0.90616 0.15503 0.15343 0.0
C659 C 0.89982 0.17582 0.16156 0.0
C660 C 0.90811 0.18661 0.18919 0.0
C661 C 0.92354 0.1761 0.20869 0.0
C662 C 0.93046 0.15504 0.2005 0.0
C663 C 0.92125 0.14408 0.17322 0.0
H664 H 0.94377 0.674 0.79426 0.0
H665 H 0.91873 0.60876 0.8019 0.0
H666 H 0.89578 0.62015 0.84967 0.0
H667 H 0.94766 0.68477 0.87948 0.0
H668 H 0.93979 0.71265 0.87538 0.0
H669 H 0.95283 0.69916 0.84115 0.0
H670 H 0.92069 0.70927 0.80263 0.0
H671 H 0.90739 0.72255 0.83698 0.0
H672 H 0.89368 0.70149 0.81435 0.0
H673 H 0.87761 0.63893 0.89971 0.0
H674 H 0.86756 0.66235 0.94739 0.0
H675 H 0.90398 0.71494 0.90315 0.0
C676 C 0.93353 0.66197 0.80588 0.0
C677 C 0.93322 0.64042 0.79459 0.0
C678 C 0.91928 0.62537 0.81027 0.0
C679 C 0.90613 0.63172 0.83726 0.0
C680 C 0.90689 0.65322 0.84768 0.0
C681 C 0.92023 0.66806 0.83224 0.0
C682 C 0.91892 0.68998 0.84843 0.0
C683 C 0.94111 0.69703 0.86192 0.0
C684 C 0.90961 0.70681 0.82414 0.0
C685 C 0.90328 0.68511 0.8763 0.0
C686 C 0.89624 0.66394 0.87544 0.0
C687 C 0.88281 0.6556 0.9003 0.0
C688 C 0.8771 0.66905 0.92721 0.0
C689 C 0.885 0.69049 0.92902 0.0
C690 C 0.8976 0.69867 0.90254 0.0
H691 H 0.09845 0.20738 0.57696 0.0
H692 H 0.1355 0.15227 0.54225 0.0
H693 H 0.12504 0.13215 0.59328 0.0
H694 H 0.10887 0.20071 0.66653 0.0
H695 H 0.08189 0.20916 0.67721 0.0
H696 H 0.09478 0.21969 0.64029 0.0
H697 H 0.06234 0.20664 0.6047 0.0
H698 H 0.04952 0.19575 0.64133 0.0
H699 H 0.05468 0.17858 0.60588 0.0
H700 H 0.10742 0.1172 0.64635 0.0
H701 H 0.08565 0.10944 0.69688 0.0
H702 H 0.05975 0.17454 0.69358 0.0
C703 C 0.10476 0.19121 0.58018 0.0
C704 C 0.11777 0.18139 0.55555 0.0
C705 C 0.12561 0.16018 0.5609 0.0
C706 C 0.1197 0.14862 0.58974 0.0
C707 C 0.1061 0.1586 0.61287 0.0
C708 C 0.09896 0.17953 0.60844 0.0
C709 C 0.08346 0.18634 0.63553 0.0
C710 C 0.09282 0.20508 0.65611 0.0
C711 C 0.06119 0.19216 0.62097 0.0
C712 C 0.08252 0.16582 0.65565 0.0
C713 C 0.0958 0.15001 0.64257 0.0
C714 C 0.0971 0.12954 0.65691 0.0
C715 C 0.08462 0.12527 0.6855 0.0
C716 C 0.07089 0.14135 0.6991 0.0
C717 C 0.06992 0.16181 0.68377 0.0
H718 H 0.57133 0.3139 0.43053 0.0
H719 H 0.63629 0.34014 0.42652 0.0
H720 H 0.62478 0.36524 0.38173 0.0
H721 H 0.56147 0.31382 0.34517 0.0
H722 H 0.53338 0.32101 0.34919 0.0
H723 H 0.54668 0.3068 0.38244 0.0
H724 H 0.53546 0.33706 0.42377 0.0
H725 H 0.52239 0.35155 0.39039 0.0
H726 H 0.54291 0.36462 0.41505 0.0
H727 H 0.60647 0.38517 0.33384 0.0
H728 H 0.58405 0.39614 0.2857 0.0
H729 H 0.53116 0.35736 0.32409 0.0
C730 C 0.58322 0.32492 0.42041 0.0
C731 C 0.60476 0.32494 0.43187 0.0
C732 C 0.61969 0.33981 0.41804 0.0
C733 C 0.61327 0.35421 0.39278 0.0
C734 C 0.59182 0.35372 0.38214 0.0
C735 C 0.57707 0.33944 0.39566 0.0
C736 C 0.55533 0.34109 0.37889 0.0
C737 C 0.54885 0.3194 0.36297 0.0
C738 C 0.538 0.34906 0.4035 0.0
C739 C 0.56029 0.35795 0.35281 0.0
C740 C 0.58129 0.36535 0.35528 0.0
C741 C 0.58991 0.37972 0.33199 0.0
C742 C 0.577 0.38594 0.30479 0.0
C743 C 0.55582 0.37759 0.30106 0.0
C744 C 0.54721 0.36416 0.32623 0.0
H745 H 0.44814 0.81773 0.18258 0.0
H746 H 0.41684 0.88015 0.19185 0.0
H747 H 0.39529 0.87226 0.14114 0.0
H748 H 0.45386 0.81808 0.09629 0.0
H749 H 0.44893 0.78959 0.09149 0.0
H750 H 0.46014 0.79969 0.12981 0.0
H751 H 0.42887 0.78185 0.16306 0.0
H752 H 0.41749 0.77176 0.12474 0.0
H753 H 0.4013 0.78809 0.15234 0.0
H754 H 0.37934 0.85808 0.08643 0.0
H755 H 0.37137 0.83962 0.03302 0.0
H756 H 0.41333 0.78676 0.06233 0.0
C757 C 0.43669 0.82979 0.17421 0.0
C758 C 0.43425 0.84961 0.19106 0.0
C759 C 0.41895 0.86482 0.17929 0.0
C760 C 0.40662 0.86046 0.15061 0.0
C761 C 0.40965 0.84074 0.13444 0.0
C762 C 0.42428 0.82567 0.14604 0.0
C763 C 0.42552 0.80616 0.12365 0.0
C764 C 0.44846 0.80323 0.10947 0.0
C765 C 0.41783 0.78577 0.14205 0.0
C766 C 0.40975 0.8128 0.09693 0.0
C767 C 0.40051 0.83265 0.10358 0.0
C768 C 0.38631 0.84243 0.0812 0.0
C769 C 0.38186 0.83181 0.05097 0.0
C770 C 0.39178 0.81176 0.04345 0.0
C771 C 0.40546 0.80205 0.06722 0.0
H772 H 0.92017 0.36575 0.65951 0.0
H773 H 0.90957 0.31656 0.73456 0.0
H774 H 0.88109 0.30026 0.69987 0.0
H775 H 0.86157 0.36685 0.62513 0.0
H776 H 0.8715 0.36995 0.58307 0.0
H777 H 0.88605 0.3818 0.61749 0.0
H778 H 0.92076 0.36152 0.59936 0.0
H779 H 0.90641 0.34993 0.56493 0.0
H780 H 0.91991 0.3326 0.59447 0.0
H781 H 0.86149 0.28433 0.65381 0.0
H782 H 0.85411 0.26874 0.5984 0.0
H783 H 0.87594 0.32776 0.55141 0.0
C784 C 0.91115 0.35206 0.66891 0.0
C785 C 0.91675 0.34236 0.69949 0.0
C786 C 0.90532 0.3241 0.71102 0.0
C787 C 0.88897 0.31492 0.6917 0.0
C788 C 0.88425 0.32423 0.6609 0.0
C789 C 0.89494 0.34246 0.64951 0.0
C790 C 0.88972 0.34679 0.61315 0.0
C791 C 0.87641 0.36758 0.60951 0.0
C792 C 0.91042 0.34774 0.59175 0.0
C793 C 0.87614 0.32709 0.60518 0.0
C794 C 0.87247 0.31476 0.63345 0.0
C795 C 0.86354 0.29413 0.63166 0.0
C796 C 0.8594 0.28537 0.60014 0.0
C797 C 0.86411 0.29728 0.57096 0.0
C798 C 0.87144 0.31876 0.57355 0.0
H799 H 0.40955 0.12654 0.2949 0.0
H800 H 0.47233 0.10762 0.33205 0.0
H801 H 0.46045 0.11523 0.38966 0.0
H802 H 0.40643 0.17087 0.33786 0.0
H803 H 0.37796 0.17096 0.34732 0.0
H804 H 0.38765 0.15661 0.31148 0.0
H805 H 0.37009 0.12135 0.33306 0.0
H806 H 0.35997 0.13572 0.36898 0.0
H807 H 0.37615 0.11181 0.37454 0.0
H808 H 0.44657 0.13376 0.43841 0.0
H809 H 0.43158 0.16188 0.4753 0.0
H810 H 0.37759 0.17052 0.40805 0.0
C811 C 0.42022 0.12284 0.31553 0.0
C812 C 0.44159 0.11606 0.30956 0.0
C813 C 0.45575 0.11244 0.33655 0.0
C814 C 0.44909 0.11663 0.36927 0.0
C815 C 0.42829 0.12462 0.3744 0.0
C816 C 0.41392 0.12753 0.34829 0.0
C817 C 0.3944 0.14052 0.3593 0.0
C818 C 0.39148 0.16094 0.33772 0.0
C819 C 0.37394 0.12651 0.35896 0.0
C820 C 0.40096 0.14606 0.39468 0.0
C821 C 0.42019 0.13605 0.40323 0.0
C822 C 0.43118 0.14109 0.43254 0.0
C823 C 0.42267 0.15715 0.45319 0.0
C824 C 0.40341 0.1679 0.4444 0.0
C825 C 0.39203 0.1619 0.41547 0.0
H826 H 0.56715 0.63954 0.18037 0.0
H827 H 0.55703 0.69799 0.23797 0.0
H828 H 0.57943 0.71836 0.19833 0.0
H829 H 0.62357 0.65274 0.15107 0.0
H830 H 0.61868 0.64166 0.11016 0.0
H831 H 0.60512 0.63047 0.1461 0.0
H832 H 0.56808 0.63685 0.1177 0.0
H833 H 0.58151 0.64787 0.08172 0.0
H834 H 0.56125 0.66353 0.10314 0.0
H835 H 0.59767 0.73355 0.14983 0.0
H836 H 0.60961 0.74307 0.09294 0.0
H837 H 0.60894 0.67545 0.06532 0.0
C838 C 0.57013 0.6565 0.1849 0.0
C839 C 0.56037 0.66723 0.21211 0.0
C840 C 0.56421 0.68952 0.21706 0.0
C841 C 0.57712 0.70119 0.19492 0.0
C842 C 0.58615 0.69036 0.16791 0.0
C843 C 0.58286 0.66854 0.16265 0.0
C844 C 0.59228 0.66157 0.12938 0.0
C845 C 0.61103 0.64567 0.1345 0.0
C846 C 0.57473 0.6519 0.10665 0.0
C847 C 0.60035 0.68308 0.11621 0.0
C848 C 0.59705 0.69934 0.13928 0.0
C849 C 0.60086 0.72095 0.13179 0.0
C850 C 0.60758 0.72622 0.09947 0.0
C851 C 0.61048 0.70994 0.07519 0.0
C852 C 0.60749 0.68806 0.08391 0.0
H853 H 0.04154 0.86468 0.85011 0.0
H854 H 0.09679 0.87532 0.78584 0.0
H855 H 0.12124 0.86669 0.83288 0.0
H856 H 0.06864 0.88193 0.93258 0.0
H857 H 0.05419 0.86095 0.95436 0.0
H858 H 0.04182 0.87452 0.91942 0.0
H859 H 0.0354 0.83749 0.89107 0.0
H860 H 0.04806 0.82387 0.9253 0.0
H861 H 0.05809 0.81991 0.88346 0.0
H862 H 0.13886 0.84868 0.88261 0.0
H863 H 0.14751 0.82405 0.92977 0.0
H864 H 0.08023 0.82424 0.95928 0.0
C865 C 0.05881 0.86609 0.84641 0.0
C866 C 0.06736 0.8706 0.8146 0.0
C867 C 0.08998 0.87212 0.81028 0.0
C868 C 0.10396 0.86724 0.83686 0.0
C869 C 0.09494 0.86135 0.86753 0.0
C870 C 0.07281 0.86125 0.87252 0.0
C871 C 0.06679 0.85117 0.90557 0.0
C872 C 0.05731 0.86816 0.9294 0.0
C873 C 0.0512 0.83198 0.90103 0.0
C874 C 0.08876 0.84388 0.91711 0.0
C875 C 0.10497 0.85051 0.89564 0.0
C876 C 0.12635 0.84385 0.89997 0.0
C877 C 0.13112 0.82982 0.92659 0.0
C878 C 0.11441 0.82224 0.94759 0.0
C879 C 0.0932 0.82981 0.94327 0.0
H880 H 0.04992 0.31048 0.37032 0.0
H881 H 0.09594 0.33669 0.29949 0.0
H882 H 0.12355 0.31064 0.31928 0.0
H883 H 0.08869 0.3029 0.43722 0.0
H884 H 0.07582 0.27862 0.45203 0.0
H885 H 0.06003 0.29923 0.43182 0.0
H886 H 0.04613 0.27101 0.38911 0.0
H887 H 0.06201 0.25036 0.409 0.0
H888 H 0.06532 0.25561 0.36502 0.0
H889 H 0.14494 0.27919 0.34423 0.0
H890 H 0.15962 0.24855 0.37729 0.0
H891 H 0.10019 0.24644 0.43452 0.0
C892 C 0.06585 0.31075 0.35912 0.0
C893 C 0.07091 0.32533 0.33335 0.0
C894 C 0.09192 0.32556 0.31943 0.0
C895 C 0.10761 0.3108 0.33036 0.0
C896 C 0.10203 0.29637 0.35566 0.0
C897 C 0.08177 0.29658 0.37029 0.0
C898 C 0.07992 0.27999 0.39771 0.0
C899 C 0.07589 0.29084 0.43171 0.0
C900 C 0.06231 0.26326 0.38971 0.0
C901 C 0.10218 0.27014 0.39594 0.0
C902 C 0.11468 0.27949 0.37129 0.0
C903 C 0.13541 0.27198 0.36398 0.0
C904 C 0.14357 0.25459 0.38269 0.0
C905 C 0.13112 0.24535 0.40865 0.0
C906 C 0.11025 0.25333 0.41523 0.0
H907 H 0.91943 0.83705 0.57176 0.0
H908 H 0.89974 0.78979 0.64528 0.0
H909 H 0.92086 0.80911 0.68856 0.0
H910 H 0.97162 0.8384 0.59485 0.0
H911 H 0.97635 0.86672 0.58755 0.0
H912 H 0.95555 0.85293 0.56477 0.0
H913 H 0.92711 0.88051 0.58557 0.0
H914 H 0.94794 0.89466 0.60811 0.0
H915 H 0.92414 0.88536 0.62973 0.0
H916 H 0.94814 0.82988 0.72074 0.0
H917 H 0.98034 0.84963 0.73968 0.0
H918 H 0.98413 0.88226 0.6439 0.0
C919 C 0.91882 0.83148 0.59741 0.0
C920 C 0.90756 0.81252 0.60585 0.0
C921 C 0.90785 0.80474 0.63895 0.0
C922 C 0.91978 0.81559 0.66351 0.0
C923 C 0.93137 0.83398 0.65422 0.0
C924 C 0.93092 0.84192 0.62193 0.0
C925 C 0.94728 0.85982 0.61704 0.0
C926 C 0.96366 0.85411 0.58944 0.0
C927 C 0.93593 0.88137 0.60969 0.0
C928 C 0.95775 0.86003 0.65112 0.0
C929 C 0.94796 0.8454 0.67242 0.0
C930 C 0.95571 0.84162 0.70448 0.0
C931 C 0.9741 0.85285 0.71491 0.0
C932 C 0.98475 0.86744 0.69316 0.0
C933 C 0.97621 0.87133 0.6611 0.0
H934 H 0.41202 0.75233 0.91278 0.0
H935 H 0.34856 0.74586 0.86842 0.0
H936 H 0.36065 0.71243 0.83958 0.0
H937 H 0.44164 0.73522 0.83941 0.0
H938 H 0.4623 0.72216 0.86384 0.0
H939 H 0.44813 0.74514 0.88051 0.0
H940 H 0.43745 0.7225 0.93248 0.0
H941 H 0.45123 0.69934 0.91564 0.0
H942 H 0.4231 0.69745 0.92693 0.0
H943 H 0.37962 0.67809 0.81937 0.0
H944 H 0.40525 0.64952 0.80154 0.0
H945 H 0.45658 0.68127 0.8562 0.0
C946 C 0.40068 0.74404 0.8968 0.0
C947 C 0.37936 0.75148 0.89285 0.0
C948 C 0.36503 0.74032 0.87151 0.0
C949 C 0.37171 0.72131 0.85533 0.0
C950 C 0.39284 0.71414 0.86039 0.0
C951 C 0.40722 0.72553 0.87998 0.0
C952 C 0.42929 0.71518 0.88043 0.0
C953 C 0.44634 0.73032 0.86512 0.0
C954 C 0.43562 0.70821 0.91599 0.0
C955 C 0.42511 0.69592 0.85837 0.0
C956 C 0.40393 0.69532 0.84744 0.0
C957 C 0.39627 0.67853 0.82753 0.0
C958 C 0.41083 0.66232 0.81781 0.0
C959 C 0.43276 0.66336 0.82757 0.0
C960 C 0.43986 0.68022 0.84837 0.0
H961 H 0.56443 0.19816 0.12058 0.0
H962 H 0.5943 0.14952 0.05798 0.0
H963 H 0.56663 0.123 0.07576 0.0
H964 H 0.55063 0.16096 0.1893 0.0
H965 H 0.52587 0.17507 0.19845 0.0
H966 H 0.5486 0.18955 0.18154 0.0
H967 H 0.52443 0.20331 0.13317 0.0
H968 H 0.50176 0.18846 0.14946 0.0
H969 H 0.51057 0.18408 0.10709 0.0
H970 H 0.5327 0.10344 0.09519 0.0
H971 H 0.49953 0.09018 0.12352 0.0
H972 H 0.49477 0.15067 0.17725 0.0
C973 C 0.56536 0.18178 0.11123 0.0
C974 C 0.58139 0.17573 0.08806 0.0
C975 C 0.58221 0.15426 0.07612 0.0
C976 C 0.56648 0.1392 0.08582 0.0
C977 C 0.55043 0.14585 0.10798 0.0
C978 C 0.55018 0.16645 0.12129 0.0
C979 C 0.5315 0.16949 0.14513 0.0
C980 C 0.53964 0.17403 0.18072 0.0
C981 C 0.51617 0.18739 0.13297 0.0
C982 C 0.52103 0.14754 0.14267 0.0
C983 C 0.53189 0.1342 0.12069 0.0
C984 C 0.52429 0.1136 0.11292 0.0
C985 C 0.50541 0.10628 0.12881 0.0
C986 C 0.49481 0.11941 0.15256 0.0
C987 C 0.50269 0.14026 0.15937 0.0
H988 H 0.04755 0.67898 0.12038 0.0
H989 H 0.09783 0.64317 0.1715 0.0
H990 H 0.12551 0.6664 0.14533 0.0
H991 H 0.07868 0.68766 0.04206 0.0
H992 H 0.06732 0.71416 0.03606 0.0
H993 H 0.05177 0.6935 0.05672 0.0
H994 H 0.04649 0.71882 0.10751 0.0
H995 H 0.06225 0.73944 0.08732 0.0
H996 H 0.06984 0.7299 0.12819 0.0
H997 H 0.14694 0.69714 0.12084 0.0
H998 H 0.16108 0.72987 0.09263 0.0
H999 H 0.09725 0.7431 0.05334 0.0
C1000 C 0.06442 0.67576 0.12546 0.0
C1001 C 0.07061 0.65934 0.1479 0.0
C1002 C 0.0928 0.65557 0.15409 0.0
C1003 C 0.10862 0.66873 0.13949 0.0
C1004 C 0.10194 0.68521 0.11819 0.0
C1005 C 0.08041 0.6884 0.11051 0.0
C1006 C 0.07745 0.70748 0.0874 0.0
C1007 C 0.06827 0.70026 0.05354 0.0
C1008 C 0.06317 0.72493 0.10359 0.0
C1009 C 0.10061 0.71494 0.08417 0.0
C1010 C 0.1145 0.70203 0.10234 0.0
C1011 C 0.13634 0.70704 0.10578 0.0
C1012 C 0.1442 0.72566 0.08992 0.0
C1013 C 0.1303 0.73867 0.07048 0.0
C1014 C 0.10832 0.73312 0.0674 0.0
H1015 H 0.49354 0.86096 0.36561 0.0
H1016 H 0.53046 0.87813 0.27764 0.0
H1017 H 0.56279 0.86041 0.30151 0.0
H1018 H 0.53794 0.86445 0.42783 0.0
H1019 H 0.52844 0.84101 0.45007 0.0
H1020 H 0.50952 0.85815 0.42851 0.0
H1021 H 0.49547 0.82499 0.3956 0.0
H1022 H 0.51459 0.80782 0.41655 0.0
H1023 H 0.51421 0.80902 0.37157 0.0
H1024 H 0.5903 0.83895 0.33347 0.0
H1025 H 0.61087 0.81461 0.37081 0.0
H1026 H 0.55473 0.80884 0.43522 0.0
C1027 C 0.5087 0.86165 0.35212 0.0
C1028 C 0.50994 0.87135 0.3204 0.0
C1029 C 0.52957 0.8711 0.30239 0.0
C1030 C 0.54791 0.86106 0.31568 0.0
C1031 C 0.5461 0.85103 0.34669 0.0
C1032 C 0.527 0.85121 0.36469 0.0
C1033 C 0.52868 0.83734 0.39567 0.0
C1034 C 0.52599 0.85106 0.4274 0.0
C1035 C 0.51227 0.81869 0.39477 0.0
C1036 C 0.55158 0.82916 0.39206 0.0
C1037 C 0.56148 0.83748 0.36395 0.0
C1038 C 0.58273 0.83232 0.35559 0.0
C1039 C 0.59425 0.81846 0.37681 0.0
C1040 C 0.5843 0.80965 0.40559 0.0
C1041 C 0.56266 0.81502 0.41306 0.0
H1042 H 0.41082 0.25773 0.52811 0.0
H1043 H 0.34526 0.27165 0.55906 0.0
H1044 H 0.35794 0.30487 0.58725 0.0
H1045 H 0.43268 0.2688 0.60408 0.0
H1046 H 0.45778 0.27972 0.58875 0.0
H1047 H 0.44307 0.26057 0.56399 0.0
H1048 H 0.44231 0.28765 0.51462 0.0
H1049 H 0.45707 0.30697 0.53935 0.0
H1050 H 0.43157 0.31439 0.52094 0.0
H1051 H 0.37815 0.33395 0.61706 0.0
H1052 H 0.40414 0.35329 0.65285 0.0
H1053 H 0.45685 0.31777 0.60729 0.0
C1054 C 0.39905 0.26815 0.53983 0.0
C1055 C 0.37704 0.26247 0.54096 0.0
C1056 C 0.36218 0.276 0.55766 0.0
C1057 C 0.36922 0.29492 0.57349 0.0
C1058 C 0.39122 0.29979 0.57275 0.0
C1059 C 0.40595 0.28662 0.55666 0.0
C1060 C 0.42894 0.29309 0.56454 0.0
C1061 C 0.44133 0.27445 0.58135 0.0
C1062 C 0.44066 0.301 0.53298 0.0
C1063 C 0.42488 0.31147 0.58858 0.0
C1064 C 0.40304 0.31561 0.59201 0.0
C1065 C 0.39529 0.33105 0.61429 0.0
C1066 C 0.41019 0.34199 0.63444 0.0
C1067 C 0.43247 0.33697 0.63278 0.0
C1068 C 0.4399 0.32198 0.60889 0.0
H1069 H 0.00339 0.15437 0.82413 0.0
H1070 H 0.99825 0.0902 0.86656 0.0
H1071 H 0.96756 0.10249 0.90168 0.0
H1072 H 0.99401 0.18196 0.90196 0.0
H1073 H 0.9799 0.20403 0.88236 0.0
H1074 H 0.00043 0.18958 0.85965 0.0
H1075 H 0.97291 0.18165 0.81244 0.0
H1076 H 0.95224 0.19591 0.83515 0.0
H1077 H 0.94782 0.16836 0.82243 0.0
H1078 H 0.93605 0.1219 0.92969 0.0
H1079 H 0.90997 0.14779 0.95437 0.0
H1080 H 0.93925 0.19972 0.89763 0.0
C1081 C 0.99585 0.14287 0.84077 0.0
C1082 C 0.00298 0.12131 0.84252 0.0
C1083 C 0.99289 0.10681 0.86493 0.0
C1084 C 0.97546 0.11362 0.8848 0.0
C1085 C 0.96879 0.13508 0.88239 0.0
C1086 C 0.97903 0.14957 0.86144 0.0
C1087 C 0.96986 0.17205 0.86493 0.0
C1088 C 0.98707 0.18783 0.87801 0.0
C1089 C 0.96013 0.17994 0.83176 0.0
C1090 C 0.95253 0.16794 0.89071 0.0
C1091 C 0.95189 0.14647 0.90014 0.0
C1092 C 0.93657 0.13877 0.92276 0.0
C1093 C 0.92178 0.1535 0.93646 0.0
C1094 C 0.92282 0.17564 0.92794 0.0
C1095 C 0.93833 0.18287 0.90474 0.0
H1096 H 0.95485 0.68059 0.62218 0.0
H1097 H 0.90236 0.64478 0.66783 0.0
H1098 H 0.87595 0.66746 0.63776 0.0
H1099 H 0.93157 0.73141 0.62543 0.0
H1100 H 0.94139 0.74039 0.58539 0.0
H1101 H 0.95613 0.72029 0.60841 0.0
H1102 H 0.95406 0.69419 0.55799 0.0
H1103 H 0.93946 0.71431 0.5346 0.0
H1104 H 0.92815 0.68774 0.5401 0.0
H1105 H 0.8556 0.69759 0.60943 0.0
H1106 H 0.84282 0.73007 0.57918 0.0
H1107 H 0.90848 0.74316 0.54734 0.0
C1108 C 0.93782 0.67724 0.62527 0.0
C1109 C 0.93063 0.66095 0.64722 0.0
C1110 C 0.9082 0.65709 0.65086 0.0
C1111 C 0.89309 0.66992 0.63399 0.0
C1112 C 0.90071 0.68615 0.61301 0.0
C1113 C 0.92256 0.68951 0.60801 0.0
C1114 C 0.92657 0.70826 0.58467 0.0
C1115 C 0.93968 0.72614 0.60202 0.0
C1116 C 0.93771 0.70066 0.55242 0.0
C1117 C 0.90359 0.71535 0.57816 0.0
C1118 C 0.88889 0.70254 0.59493 0.0
C1119 C 0.86689 0.7074 0.59546 0.0
C1120 C 0.8598 0.72588 0.57839 0.0
C1121 C 0.87462 0.73894 0.56066 0.0
C1122 C 0.89669 0.73332 0.56016 0.0
H1123 H 0.99791 0.12731 0.35047 0.0
H1124 H 0.03705 0.11143 0.26426 0.0
H1125 H 0.0694 0.12628 0.29273 0.0
H1126 H 0.02131 0.17793 0.36212 0.0
H1127 H 0.01942 0.17761 0.40704 0.0
H1128 H 0.00043 0.16248 0.38244 0.0
H1129 H 0.01066 0.12752 0.41433 0.0
H1130 H 0.0296 0.14257 0.43927 0.0
H1131 H 0.03854 0.11923 0.41622 0.0
H1132 H 0.09693 0.14402 0.33022 0.0
H1133 H 0.11682 0.16667 0.37083 0.0
H1134 H 0.05824 0.17435 0.42909 0.0
C1135 C 0.01347 0.12639 0.33815 0.0
C1136 C 0.01541 0.11775 0.30582 0.0
C1137 C 0.03561 0.11766 0.28944 0.0
C1138 C 0.05395 0.126 0.3054 0.0
C1139 C 0.0515 0.13476 0.33726 0.0
C1140 C 0.03169 0.13525 0.35325 0.0
C1141 C 0.03269 0.14793 0.38543 0.0
C1142 C 0.01758 0.16765 0.38416 0.0
C1143 C 0.02757 0.13344 0.41559 0.0
C1144 C 0.05616 0.1546 0.38506 0.0
C1145 C 0.06687 0.14648 0.35747 0.0
C1146 C 0.08873 0.15047 0.35191 0.0
C1147 C 0.09987 0.16327 0.37505 0.0
C1148 C 0.08895 0.17226 0.40281 0.0
C1149 C 0.06688 0.16777 0.40787 0.0
H1150 H 0.59474 0.25103 0.07497 0.0
H1151 H 0.65592 0.25516 0.12699 0.0
H1152 H 0.64287 0.2879 0.15671 0.0
H1153 H 0.58477 0.30671 0.06408 0.0
H1154 H 0.55619 0.30465 0.072 0.0
H1155 H 0.57062 0.28203 0.05471 0.0
H1156 H 0.55739 0.25762 0.10325 0.0
H1157 H 0.5426 0.28006 0.12034 0.0
H1158 H 0.562 0.26593 0.14578 0.0
H1159 H 0.62324 0.32177 0.17754 0.0
H1160 H 0.59694 0.34977 0.19521 0.0
H1161 H 0.54805 0.32042 0.13264 0.0
C1162 C 0.6054 0.2587 0.09269 0.0
C1163 C 0.62636 0.25077 0.09859 0.0
C1164 C 0.63975 0.26109 0.1223 0.0
C1165 C 0.63253 0.27971 0.13902 0.0
C1166 C 0.61178 0.28736 0.13209 0.0
C1167 C 0.59827 0.27679 0.11006 0.0
C1168 C 0.57633 0.28734 0.1081 0.0
C1169 C 0.57172 0.29568 0.07261 0.0
C1170 C 0.55853 0.27182 0.1201 0.0
C1171 C 0.57956 0.30573 0.13225 0.0
C1172 C 0.60021 0.30579 0.14542 0.0
C1173 C 0.607 0.32174 0.1676 0.0
C1174 C 0.59207 0.33765 0.17724 0.0
C1175 C 0.57062 0.33711 0.16515 0.0
C1176 C 0.5644 0.3211 0.14218 0.0
H1177 H 0.43866 0.80479 0.86278 0.0
H1178 H 0.40844 0.85478 0.92239 0.0
H1179 H 0.43399 0.88167 0.89927 0.0
H1180 H 0.49151 0.82136 0.8715 0.0
H1181 H 0.49983 0.81549 0.82933 0.0
H1182 H 0.47794 0.80063 0.84792 0.0
H1183 H 0.45264 0.81155 0.79922 0.0
H1184 H 0.47458 0.82612 0.78008 0.0
H1185 H 0.44944 0.83967 0.78879 0.0
H1186 H 0.46675 0.90138 0.87672 0.0
H1187 H 0.50019 0.91396 0.8486 0.0
H1188 H 0.50622 0.85188 0.79967 0.0
C1189 C 0.43711 0.82152 0.87027 0.0
C1190 C 0.42168 0.82783 0.89425 0.0
C1191 C 0.42006 0.84976 0.90371 0.0
C1192 C 0.43458 0.86507 0.8909 0.0
C1193 C 0.45015 0.85818 0.86811 0.0
C1194 C 0.45108 0.83704 0.85715 0.0
C1195 C 0.46952 0.83364 0.83294 0.0
C1196 C 0.48564 0.81679 0.84623 0.0
C1197 C 0.46103 0.82738 0.79819 0.0
C1198 C 0.47925 0.856 0.83279 0.0
C1199 C 0.46805 0.8699 0.85351 0.0
C1200 C 0.47532 0.89082 0.85977 0.0
C1201 C 0.49436 0.89776 0.84398 0.0
C1202 C 0.50552 0.88393 0.82182 0.0
C1203 C 0.49777 0.86289 0.81609 0.0
H1204 H 0.90853 0.24718 0.93016 0.0
H1205 H 0.8449 0.25298 0.88621 0.0
H1206 H 0.85679 0.28594 0.85598 0.0
H1207 H 0.921 0.30307 0.93976 0.0
H1208 H 0.94883 0.30014 0.92732 0.0
H1209 H 0.93494 0.27796 0.94698 0.0
H1210 H 0.94404 0.25309 0.8968 0.0
H1211 H 0.95841 0.27503 0.87744 0.0
H1212 H 0.93699 0.26162 0.85516 0.0
H1213 H 0.87559 0.31889 0.83263 0.0
H1214 H 0.9015 0.34457 0.80769 0.0
H1215 H 0.95366 0.31456 0.86305 0.0
C1216 C 0.89713 0.25533 0.91408 0.0
C1217 C 0.87582 0.24779 0.91049 0.0
C1218 C 0.86135 0.25863 0.88899 0.0
C1219 C 0.8679 0.27741 0.87212 0.0
C1220 C 0.88903 0.28468 0.87668 0.0
C1221 C 0.90358 0.27358 0.89638 0.0
C1222 C 0.92588 0.28346 0.89478 0.0
C1223 C 0.93307 0.29164 0.92926 0.0
C1224 C 0.94229 0.26735 0.88016 0.0
C1225 C 0.92164 0.30198 0.87111 0.0
C1226 C 0.90017 0.30275 0.86165 0.0
C1227 C 0.89243 0.31843 0.8398 0.0
C1228 C 0.90722 0.33309 0.82609 0.0
C1229 C 0.92949 0.33158 0.83374 0.0
C1230 C 0.93666 0.31617 0.85713 0.0
H1231 H 0.51166 0.14052 0.62555 0.0
H1232 H 0.4757 0.13109 0.71722 0.0
H1233 H 0.44361 0.14828 0.69158 0.0
H1234 H 0.49232 0.19277 0.61146 0.0
H1235 H 0.49153 0.19057 0.56659 0.0
H1236 H 0.51046 0.17465 0.59015 0.0
H1237 H 0.49533 0.13961 0.5636 0.0
H1238 H 0.47653 0.15545 0.53958 0.0
H1239 H 0.4668 0.13405 0.5661 0.0
H1240 H 0.4158 0.16747 0.65596 0.0
H1241 H 0.39538 0.18915 0.61443 0.0
H1242 H 0.45131 0.18907 0.54914 0.0
C1243 C 0.49678 0.14151 0.63973 0.0
C1244 C 0.49575 0.13409 0.67289 0.0
C1245 C 0.47647 0.13644 0.69148 0.0
C1246 C 0.45825 0.14615 0.67717 0.0
C1247 C 0.45985 0.15378 0.64453 0.0
C1248 C 0.47869 0.15171 0.62614 0.0
C1249 C 0.477 0.16317 0.59295 0.0
C1250 C 0.49382 0.18137 0.59015 0.0
C1251 C 0.47903 0.14711 0.56384 0.0
C1252 C 0.45435 0.17209 0.59559 0.0
C1253 C 0.44453 0.16622 0.62522 0.0
C1254 C 0.42335 0.17226 0.63272 0.0
C1255 C 0.41191 0.18457 0.60915 0.0
C1256 C 0.42196 0.19104 0.57904 0.0
C1257 C 0.44342 0.18473 0.57235 0.0
H1258 H 0.59418 0.74187 0.45051 0.0
H1259 H 0.65692 0.72251 0.41319 0.0
H1260 H 0.64052 0.68974 0.38843 0.0
H1261 H 0.57008 0.6876 0.46435 0.0
H1262 H 0.54425 0.69609 0.44832 0.0
H1263 H 0.56146 0.71519 0.46937 0.0
H1264 H 0.56002 0.74046 0.41777 0.0
H1265 H 0.54276 0.72154 0.39677 0.0
H1266 H 0.56764 0.73005 0.37741 0.0
H1267 H 0.61694 0.66109 0.36397 0.0
H1268 H 0.58802 0.64198 0.33401 0.0
H1269 H 0.5402 0.68263 0.38234 0.0
C1270 C 0.60456 0.73043 0.43802 0.0
C1271 C 0.62684 0.73436 0.43426 0.0
C1272 C 0.63982 0.7195 0.41659 0.0
C1273 C 0.63068 0.70083 0.40271 0.0
C1274 C 0.6085 0.69759 0.40631 0.0
C1275 C 0.59556 0.71218 0.42311 0.0
C1276 C 0.57184 0.70705 0.41864 0.0
C1277 C 0.56129 0.70112 0.45217 0.0
C1278 C 0.55988 0.72588 0.40163 0.0
C1279 C 0.57341 0.68761 0.39595 0.0
C1280 C 0.59469 0.68199 0.39007 0.0
C1281 C 0.60022 0.66521 0.3686 0.0
C1282 C 0.58363 0.65441 0.35176 0.0
C1283 C 0.5618 0.6608 0.35582 0.0
C1284 C 0.55667 0.67723 0.37894 0.0
H1285 H 0.05957 0.81545 0.05809 0.0
H1286 H 0.11525 0.81998 0.12335 0.0
H1287 H 0.09478 0.84458 0.16063 0.0
H1288 H 0.04323 0.87166 0.06636 0.0
H1289 H 0.01484 0.86532 0.06472 0.0
H1290 H 0.03406 0.84849 0.04316 0.0
H1291 H 0.01978 0.81494 0.07504 0.0
H1292 H 0.00047 0.83164 0.09652 0.0
H1293 H 0.0191 0.81527 0.12006 0.0
H1294 H 0.06685 0.86541 0.19319 0.0
H1295 H 0.0344 0.88308 0.21687 0.0
H1296 H 0.99842 0.86768 0.1273 0.0
C1297 C 0.06745 0.82159 0.08028 0.0
C1298 C 0.08885 0.81567 0.08825 0.0
C1299 C 0.09881 0.82433 0.11703 0.0
C1300 C 0.08734 0.83828 0.13822 0.0
C1301 C 0.06618 0.84373 0.12966 0.0
C1302 C 0.05646 0.83586 0.10114 0.0
C1303 C 0.03359 0.84412 0.09746 0.0
C1304 C 0.03131 0.85824 0.06606 0.0
C1305 C 0.01728 0.82538 0.09728 0.0
C1306 C 0.0317 0.85745 0.12892 0.0
C1307 C 0.05064 0.85694 0.14724 0.0
C1308 C 0.05212 0.86636 0.17873 0.0
C1309 C 0.03369 0.87631 0.19195 0.0
C1310 C 0.01429 0.87709 0.17341 0.0
C1311 C 0.01336 0.86788 0.14134 0.0
H1312 H 0.59231 0.75648 0.92943 0.0
H1313 H 0.65814 0.7582 0.8928 0.0
H1314 H 0.64904 0.78998 0.85766 0.0
H1315 H 0.56782 0.76936 0.84976 0.0
H1316 H 0.5462 0.78455 0.86867 0.0
H1317 H 0.55851 0.76259 0.89113 0.0
H1318 H 0.56671 0.78853 0.9403 0.0
H1319 H 0.55482 0.81066 0.91768 0.0
H1320 H 0.58217 0.81269 0.93273 0.0
H1321 H 0.63273 0.8232 0.82951 0.0
H1322 H 0.60929 0.85058 0.80247 0.0
H1323 H 0.5537 0.82425 0.85418 0.0
C1324 C 0.60477 0.76346 0.91386 0.0
C1325 C 0.62593 0.75511 0.91381 0.0
C1326 C 0.6418 0.76443 0.89291 0.0
C1327 C 0.63681 0.78254 0.87318 0.0
C1328 C 0.61579 0.79067 0.87427 0.0
C1329 C 0.59991 0.78103 0.89343 0.0
C1330 C 0.57827 0.7919 0.8888 0.0
C1331 C 0.56173 0.77617 0.87368 0.0
C1332 C 0.57002 0.80152 0.92185 0.0
C1333 C 0.58444 0.80941 0.8643 0.0
C1334 C 0.60622 0.80875 0.85667 0.0
C1335 C 0.61564 0.82374 0.8351 0.0
C1336 C 0.60229 0.83933 0.82014 0.0
C1337 C 0.57981 0.83942 0.82639 0.0
C1338 C 0.57089 0.82446 0.84906 0.0
H1339 H 0.49692 0.35005 0.17122 0.0
H1340 H 0.49222 0.41022 0.11654 0.0
H1341 H 0.46122 0.39547 0.08452 0.0
H1342 H 0.48676 0.31632 0.09933 0.0
H1343 H 0.47262 0.29619 0.12341 0.0
H1344 H 0.49346 0.31216 0.14266 0.0
H1345 H 0.46634 0.32409 0.18847 0.0
H1346 H 0.44533 0.30842 0.16907 0.0
H1347 H 0.44134 0.33683 0.17647 0.0
H1348 H 0.42928 0.37445 0.06139 0.0
H1349 H 0.40316 0.34701 0.0416 0.0
H1350 H 0.4322 0.29952 0.10721 0.0
C1351 C 0.48944 0.36011 0.15247 0.0
C1352 C 0.49672 0.3813 0.14642 0.0
C1353 C 0.48674 0.39392 0.1214 0.0
C1354 C 0.46912 0.38572 0.10332 0.0
C1355 C 0.46219 0.36474 0.11015 0.0
C1356 C 0.47244 0.35194 0.13353 0.0
C1357 C 0.463 0.32945 0.1346 0.0
C1358 C 0.47996 0.31254 0.12438 0.0
C1359 C 0.45344 0.32442 0.16921 0.0
C1360 C 0.44551 0.33164 0.10854 0.0
C1361 C 0.44501 0.35222 0.09515 0.0
C1362 C 0.42968 0.35824 0.07144 0.0
C1363 C 0.41484 0.34264 0.06057 0.0
C1364 C 0.41581 0.32126 0.07292 0.0
C1365 C 0.43124 0.31577 0.09734 0.0
H1366 H 0.89678 0.25544 0.38099 0.0
H1367 H 0.87459 0.21469 0.46213 0.0
H1368 H 0.89594 0.18426 0.43967 0.0
H1369 H 0.89805 0.21475 0.31648 0.0
H1370 H 0.92251 0.22492 0.29779 0.0
H1371 H 0.9046 0.24303 0.31947 0.0
H1372 H 0.93625 0.25515 0.35743 0.0
H1373 H 0.9542 0.23687 0.33613 0.0
H1374 H 0.95108 0.23519 0.38081 0.0
H1375 H 0.91859 0.15802 0.40722 0.0
H1376 H 0.94224 0.13812 0.36788 0.0
H1377 H 0.95219 0.19694 0.31117 0.0
C1378 C 0.8962 0.23999 0.39363 0.0
C1379 C 0.88385 0.23716 0.42288 0.0
C1380 C 0.88387 0.21699 0.43946 0.0
C1381 C 0.89596 0.19968 0.42697 0.0
C1382 C 0.90823 0.20301 0.39828 0.0
C1383 C 0.90857 0.22268 0.38193 0.0
C1384 C 0.92376 0.22221 0.35233 0.0
C1385 C 0.91149 0.22647 0.31959 0.0
C1386 C 0.94243 0.23831 0.35697 0.0
C1387 C 0.93163 0.19912 0.35434 0.0
C1388 C 0.92237 0.18826 0.38088 0.0
C1389 C 0.92618 0.16639 0.3866 0.0
C1390 C 0.93959 0.15524 0.36424 0.0
C1391 C 0.94923 0.16614 0.33702 0.0
C1392 C 0.94544 0.18839 0.33236 0.0
H1393 H 0.0471 0.68782 0.5542 0.0
H1394 H 0.10642 0.67031 0.6051 0.0
H1395 H 0.08642 0.64325 0.63837 0.0
H1396 H 0.01156 0.68313 0.62352 0.0
H1397 H 0.98984 0.67181 0.59926 0.0
H1398 H 0.00916 0.68939 0.57968 0.0
H1399 H 0.01699 0.65947 0.53591 0.0
H1400 H 0.99798 0.64177 0.55623 0.0
H1401 H 0.02547 0.63314 0.54985 0.0
H1402 H 0.05953 0.62069 0.66932 0.0
H1403 H 0.02752 0.60342 0.69503 0.0
H1404 H 0.9863 0.63328 0.62094 0.0
C1405 C 0.05587 0.67832 0.57242 0.0
C1406 C 0.07827 0.68122 0.57733 0.0
C1407 C 0.08925 0.6683 0.60101 0.0
C1408 C 0.07805 0.65289 0.61993 0.0
C1409 C 0.05599 0.65035 0.61434 0.0
C1410 C 0.04503 0.6626 0.59102 0.0
C1411 C 0.02128 0.65681 0.59005 0.0
C1412 C 0.00715 0.67646 0.59867 0.0
C1413 C 0.01507 0.64722 0.55598 0.0
C1414 C 0.02045 0.63987 0.61726 0.0
C1415 C 0.04067 0.63635 0.63089 0.0
C1416 C 0.04371 0.62288 0.65836 0.0
C1417 C 0.02553 0.61312 0.67271 0.0
C1418 C 0.00478 0.61658 0.65915 0.0
C1419 C 0.00221 0.62978 0.63078 0.0
H1420 H 0.62119 0.26652 0.60308 0.0
H1421 H 0.63798 0.22589 0.51902 0.0
H1422 H 0.6209 0.19457 0.54694 0.0
H1423 H 0.62583 0.22472 0.66995 0.0
H1424 H 0.60256 0.23502 0.69184 0.0
H1425 H 0.61938 0.25307 0.66795 0.0
H1426 H 0.58585 0.26557 0.6355 0.0
H1427 H 0.56873 0.24708 0.65776 0.0
H1428 H 0.56983 0.24621 0.61277 0.0
H1429 H 0.60035 0.16833 0.5825 0.0
H1430 H 0.576 0.14937 0.62188 0.0
H1431 H 0.56956 0.20811 0.67992 0.0
C1432 C 0.6219 0.25081 0.59128 0.0
C1433 C 0.63136 0.24823 0.55952 0.0
C1434 C 0.63115 0.22784 0.54376 0.0
C1435 C 0.6215 0.21005 0.55938 0.0
C1436 C 0.61179 0.21314 0.59043 0.0
C1437 C 0.61184 0.23301 0.60619 0.0
C1438 C 0.59829 0.23254 0.6377 0.0
C1439 C 0.61236 0.23657 0.66869 0.0
C1440 C 0.57955 0.2488 0.63577 0.0
C1441 C 0.59023 0.20949 0.6367 0.0
C1442 C 0.59861 0.19842 0.60969 0.0
C1443 C 0.59368 0.17681 0.60376 0.0
C1444 C 0.57986 0.16619 0.62616 0.0
C1445 C 0.57079 0.17739 0.65358 0.0
C1446 C 0.57605 0.19929 0.65881 0.0
H1447 H 0.00395 0.33964 0.79182 0.0
H1448 H 0.01192 0.4057 0.82502 0.0
H1449 H 0.04447 0.39496 0.8569 0.0
H1450 H 0.01462 0.31723 0.86963 0.0
H1451 H 0.02779 0.29341 0.85372 0.0
H1452 H 0.00786 0.30703 0.82881 0.0
H1453 H 0.03559 0.31079 0.78058 0.0
H1454 H 0.05569 0.29725 0.80549 0.0
H1455 H 0.06124 0.32358 0.78837 0.0
H1456 H 0.07473 0.3765 0.88771 0.0
H1457 H 0.09678 0.35143 0.92149 0.0
H1458 H 0.06635 0.29702 0.87226 0.0
C1459 C 0.01279 0.35193 0.80518 0.0
C1460 C 0.00568 0.37354 0.80566 0.0
C1461 C 0.0173 0.38908 0.82423 0.0
C1462 C 0.03584 0.38315 0.84218 0.0
C1463 C 0.04226 0.36157 0.84164 0.0
C1464 C 0.03086 0.34615 0.824 0.0
C1465 C 0.03913 0.32365 0.83121 0.0
C1466 C 0.02129 0.30951 0.84678 0.0
C1467 C 0.04847 0.31321 0.79952 0.0
C1468 C 0.05672 0.32874 0.85616 0.0
C1469 C 0.0587 0.35073 0.86112 0.0
C1470 C 0.07342 0.35926 0.88388 0.0
C1471 C 0.08594 0.34491 0.90283 0.0
C1472 C 0.08324 0.32232 0.89942 0.0
C1473 C 0.06879 0.31422 0.87524 0.0
H1474 H 0.8906 0.74194 0.11549 0.0
H1475 H 0.8715 0.78162 0.03142 0.0
H1476 H 0.88911 0.81327 0.05733 0.0
H1477 H 0.8866 0.78331 0.18107 0.0
H1478 H 0.91058 0.77408 0.2022 0.0
H1479 H 0.89423 0.75526 0.17906 0.0
H1480 H 0.92776 0.74407 0.14437 0.0
H1481 H 0.94417 0.76297 0.16717 0.0
H1482 H 0.94287 0.76444 0.12226 0.0
H1483 H 0.90929 0.84021 0.09148 0.0
H1484 H 0.93292 0.86042 0.13005 0.0
H1485 H 0.94185 0.80255 0.18955 0.0
C1486 C 0.88971 0.75747 0.10312 0.0
C1487 C 0.87937 0.75968 0.07197 0.0
C1488 C 0.87916 0.77988 0.05559 0.0
C1489 C 0.88908 0.79788 0.07009 0.0
C1490 C 0.89949 0.7952 0.10063 0.0
C1491 C 0.90006 0.77549 0.11686 0.0
C1492 C 0.914 0.77659 0.1479 0.0
C1493 C 0.90054 0.77205 0.17942 0.0
C1494 C 0.93334 0.7611 0.14525 0.0
C1495 C 0.92118 0.79995 0.14647 0.0
C1496 C 0.91234 0.81045 0.11928 0.0
C1497 C 0.91635 0.83218 0.11285 0.0
C1498 C 0.92975 0.84352 0.13487 0.0
C1499 C 0.93927 0.833 0.16259 0.0
C1500 C 0.93496 0.81092 0.16833 0.0
H1501 H 0.44781 0.68503 0.44286 0.0
H1502 H 0.387 0.67178 0.39322 0.0
H1503 H 0.40549 0.64572 0.35606 0.0
H1504 H 0.48147 0.683 0.37194 0.0
H1505 H 0.50348 0.66996 0.39335 0.0
H1506 H 0.48507 0.68681 0.41625 0.0
H1507 H 0.4774 0.65489 0.45655 0.0
H1508 H 0.49557 0.63793 0.43314 0.0
H1509 H 0.46804 0.62954 0.43988 0.0
H1510 H 0.43142 0.62441 0.32061 0.0
H1511 H 0.46276 0.6091 0.29025 0.0
H1512 H 0.50575 0.63335 0.36663 0.0
C1513 C 0.43838 0.67665 0.42415 0.0
C1514 C 0.41603 0.68051 0.42063 0.0
C1515 C 0.40416 0.66903 0.39622 0.0
C1516 C 0.4145 0.65417 0.37515 0.0
C1517 C 0.43657 0.65066 0.3794 0.0
C1518 C 0.44833 0.66146 0.40347 0.0
C1519 C 0.47192 0.65516 0.40251 0.0
C1520 C 0.48632 0.67492 0.39558 0.0
C1521 C 0.47862 0.64369 0.43495 0.0
C1522 C 0.47181 0.63969 0.3733 0.0
C1523 C 0.45124 0.63724 0.36035 0.0
C1524 C 0.44748 0.62568 0.33107 0.0
C1525 C 0.46528 0.61695 0.31411 0.0
C1526 C 0.48637 0.61951 0.32689 0.0
C1527 C 0.48962 0.6305 0.35722 0.0
H1528 H 0.44574 0.17938 0.13778 0.0
H1529 H 0.39453 0.15385 0.20013 0.0
H1530 H 0.36935 0.18147 0.1777 0.0
H1531 H 0.43208 0.23488 0.14301 0.0
H1532 H 0.43822 0.24071 0.09994 0.0
H1533 H 0.4521 0.21916 0.12115 0.0
H1534 H 0.43992 0.19211 0.07553 0.0
H1535 H 0.42625 0.21363 0.05392 0.0
H1536 H 0.41162 0.18966 0.06574 0.0
H1537 H 0.35092 0.21426 0.15149 0.0
H1538 H 0.33906 0.24534 0.11684 0.0
H1539 H 0.40145 0.24602 0.06775 0.0
C1540 C 0.42915 0.17955 0.14644 0.0
C1541 C 0.42194 0.16468 0.17062 0.0
C1542 C 0.40018 0.16512 0.18137 0.0
C1543 C 0.38588 0.18081 0.16898 0.0
C1544 C 0.39359 0.19552 0.14541 0.0
C1545 C 0.41459 0.19464 0.13369 0.0
C1546 C 0.4187 0.2116 0.1073 0.0
C1547 C 0.43632 0.22753 0.11854 0.0
C1548 C 0.42445 0.20112 0.07363 0.0
C1549 C 0.3968 0.22232 0.10617 0.0
C1550 C 0.38261 0.21317 0.12877 0.0
C1551 C 0.36179 0.22131 0.13334 0.0
C1552 C 0.35524 0.23898 0.11378 0.0
C1553 C 0.3693 0.24784 0.08954 0.0
C1554 C 0.39029 0.2394 0.08584 0.0
H1555 H 0.50581 0.64831 0.82048 0.0
H1556 H 0.50662 0.59002 0.8803 0.0
H1557 H 0.53552 0.60576 0.91565 0.0
H1558 H 0.5617 0.66206 0.82372 0.0
H1559 H 0.55682 0.69058 0.82841 0.0
H1560 H 0.53761 0.674 0.8065 0.0
H1561 H 0.50714 0.6868 0.84634 0.0
H1562 H 0.52621 0.70357 0.86816 0.0
H1563 H 0.51056 0.68387 0.8908 0.0
H1564 H 0.56547 0.62782 0.9427 0.0
H1565 H 0.58965 0.65622 0.96511 0.0
H1566 H 0.56519 0.70135 0.89155 0.0
C1567 C 0.51206 0.6388 0.84091 0.0
C1568 C 0.50423 0.61788 0.84754 0.0
C1569 C 0.51258 0.60607 0.87485 0.0
C1570 C 0.529 0.61484 0.89489 0.0
C1571 C 0.53637 0.63562 0.88766 0.0
C1572 C 0.52777 0.6476 0.86179 0.0
C1573 C 0.53697 0.6702 0.86091 0.0
C1574 C 0.54899 0.67444 0.82793 0.0
C1575 C 0.51917 0.6871 0.86692 0.0
C1576 C 0.55243 0.66901 0.89004 0.0
C1577 C 0.55218 0.64881 0.90478 0.0
C1578 C 0.56565 0.64373 0.93154 0.0
C1579 C 0.5794 0.65986 0.94393 0.0
C1580 C 0.57913 0.68085 0.93001 0.0
C1581 C 0.56556 0.68541 0.90266 0.0
H1582 H 0.06281 0.79812 0.69633 0.0
H1583 H 0.06513 0.85555 0.63427 0.0
H1584 H 0.08795 0.83624 0.59349 0.0
H1585 H 0.11827 0.78196 0.68173 0.0
H1586 H 0.11222 0.75351 0.68132 0.0
H1587 H 0.09588 0.77168 0.70574 0.0
H1588 H 0.06151 0.75838 0.67512 0.0
H1589 H 0.07772 0.74004 0.65086 0.0
H1590 H 0.06054 0.75932 0.63013 0.0
H1591 H 0.10831 0.8103 0.55797 0.0
H1592 H 0.12627 0.77938 0.53055 0.0
H1593 H 0.11344 0.73956 0.61733 0.0
C1594 C 0.06805 0.80657 0.67407 0.0
C1595 C 0.06214 0.82829 0.66832 0.0
C1596 C 0.06953 0.83892 0.63916 0.0
C1597 C 0.08249 0.82811 0.61588 0.0
C1598 C 0.08818 0.80678 0.62242 0.0
C1599 C 0.08134 0.79613 0.65085 0.0
C1600 C 0.08992 0.77323 0.65187 0.0
C1601 C 0.10497 0.76991 0.68195 0.0
C1602 C 0.07131 0.75678 0.65199 0.0
C1603 C 0.10236 0.77259 0.6193 0.0
C1604 C 0.10103 0.79211 0.60267 0.0
C1605 C 0.10982 0.79507 0.57098 0.0
C1606 C 0.11999 0.77749 0.55565 0.0
C1607 C 0.1216 0.75744 0.57229 0.0
C1608 C 0.11298 0.75501 0.60468 0.0
H1609 H 0.91517 0.31216 0.40406 0.0
H1610 H 0.94934 0.30217 0.49724 0.0
H1611 H 0.97939 0.32501 0.47671 0.0
H1612 H 0.96216 0.30808 0.35248 0.0
H1613 H 0.95302 0.32789 0.32268 0.0
H1614 H 0.93367 0.31214 0.3458 0.0
H1615 H 0.91559 0.3473 0.36709 0.0
H1616 H 0.93495 0.36316 0.34414 0.0
H1617 H 0.9317 0.3672 0.38844 0.0
H1618 H 0.0055 0.34927 0.44591 0.0
H1619 H 0.02734 0.36996 0.40515 0.0
H1620 H 0.9771 0.36166 0.33085 0.0
C1621 C 0.92888 0.31502 0.42023 0.0
C1622 C 0.92993 0.30571 0.45232 0.0
C1623 C 0.94831 0.30928 0.47256 0.0
C1624 C 0.96536 0.32227 0.46119 0.0
C1625 C 0.96387 0.33123 0.42933 0.0
C1626 C 0.94624 0.32751 0.40896 0.0
C1627 C 0.94926 0.33771 0.37494 0.0
C1628 C 0.94955 0.32043 0.34736 0.0
C1629 C 0.93184 0.35486 0.36828 0.0
C1630 C 0.97127 0.34789 0.37939 0.0
C1631 C 0.97933 0.34422 0.41106 0.0
C1632 C 0.99937 0.35221 0.42101 0.0
C1633 C 0.01161 0.36401 0.39779 0.0
C1634 C 0.00386 0.36737 0.36496 0.0
C1635 C 0.9834 0.35929 0.35581 0.0
H1636 H 0.43848 0.79619 0.31812 0.0
H1637 H 0.42906 0.85602 0.37239 0.0
H1638 H 0.40506 0.83703 0.41234 0.0
H1639 H 0.38344 0.77757 0.32636 0.0
H1640 H 0.39102 0.7496 0.33039 0.0
H1641 H 0.40773 0.76781 0.30664 0.0
H1642 H 0.44077 0.75773 0.34321 0.0
H1643 H 0.42421 0.73939 0.36689 0.0
H1644 H 0.43896 0.76042 0.38795 0.0
H1645 H 0.38446 0.81069 0.44852 0.0
H1646 H 0.3667 0.77951 0.47603 0.0
H1647 H 0.38663 0.73804 0.39464 0.0
C1648 C 0.43145 0.80526 0.33854 0.0
C1649 C 0.43574 0.82748 0.34252 0.0
C1650 C 0.42596 0.83895 0.36907 0.0
C1651 C 0.41234 0.82832 0.3918 0.0
C1652 C 0.40838 0.80637 0.38708 0.0
C1653 C 0.41746 0.79504 0.36088 0.0
C1654 C 0.41029 0.77169 0.36088 0.0
C1655 C 0.39735 0.76636 0.32918 0.0
C1656 C 0.42971 0.75642 0.36499 0.0
C1657 C 0.39601 0.77151 0.39152 0.0
C1658 C 0.39526 0.79163 0.40649 0.0
C1659 C 0.38453 0.795 0.43666 0.0
C1660 C 0.37449 0.7773 0.45204 0.0
C1661 C 0.37487 0.75675 0.43678 0.0
C1662 C 0.38553 0.75386 0.40603 0.0
H1663 H 0.01359 0.63675 0.11995 0.0
H1664 H 0.97113 0.60032 0.18486 0.0
H1665 H 0.93932 0.6173 0.1582 0.0
H1666 H 0.98515 0.68476 0.12589 0.0
H1667 H 0.98934 0.69345 0.0834 0.0
H1668 H 0.00865 0.67591 0.10311 0.0
H1669 H 0.00436 0.64796 0.05562 0.0
H1670 H 0.9853 0.66556 0.03526 0.0
H1671 H 0.97783 0.63816 0.04502 0.0
H1672 H 0.91258 0.64026 0.12804 0.0
H1673 H 0.89236 0.66776 0.09631 0.0
H1674 H 0.95244 0.69099 0.05325 0.0
C1675 C 0.99752 0.63185 0.12753 0.0
C1676 C 0.99452 0.61685 0.15357 0.0
C1677 C 0.97348 0.61142 0.16425 0.0
C1678 C 0.95541 0.62102 0.14937 0.0
C1679 C 0.95881 0.63621 0.12423 0.0
C1680 C 0.97933 0.64159 0.11331 0.0
C1681 C 0.97859 0.65989 0.08824 0.0
C1682 C 0.99117 0.67967 0.10094 0.0
C1683 C 0.98702 0.65244 0.054 0.0
C1684 C 0.95453 0.66421 0.08731 0.0
C1685 C 0.94341 0.65018 0.1079 0.0
C1686 C 0.92107 0.65124 0.11161 0.0
C1687 C 0.90974 0.66695 0.09354 0.0
C1688 C 0.9208 0.68157 0.07236 0.0
C1689 C 0.94351 0.68014 0.06937 0.0
H1690 H 0.09358 0.24342 0.95142 0.0
H1691 H 0.15581 0.24604 0.90185 0.0
H1692 H 0.14737 0.21172 0.87273 0.0
H1693 H 0.08903 0.18473 0.95998 0.0
H1694 H 0.06056 0.18501 0.95067 0.0
H1695 H 0.07286 0.20786 0.97098 0.0
H1696 H 0.05864 0.23319 0.92429 0.0
H1697 H 0.04609 0.21052 0.9042 0.0
H1698 H 0.06487 0.22714 0.88131 0.0
H1699 H 0.13091 0.17805 0.84692 0.0
H1700 H 0.10614 0.1518 0.82028 0.0
H1701 H 0.05422 0.17348 0.88462 0.0
C1702 C 0.10561 0.23666 0.93485 0.0
C1703 C 0.12542 0.24721 0.92905 0.0
C1704 C 0.14054 0.23809 0.90663 0.0
C1705 C 0.13596 0.21855 0.89027 0.0
C1706 C 0.11616 0.20856 0.89654 0.0
C1707 C 0.10114 0.21754 0.91797 0.0
C1708 C 0.08006 0.20529 0.91757 0.0
C1709 C 0.07536 0.19512 0.95184 0.0
C1710 C 0.06132 0.2199 0.90614 0.0
C1711 C 0.08529 0.18825 0.89188 0.0
C1712 C 0.10637 0.18994 0.88069 0.0
C1713 C 0.11446 0.17646 0.85574 0.0
C1714 C 0.10037 0.16151 0.84094 0.0
C1715 C 0.07843 0.16064 0.85072 0.0
C1716 C 0.07103 0.17372 0.8771 0.0
H1717 H 0.57214 0.29651 0.60644 0.0
H1718 H 0.60421 0.35114 0.5604 0.0
H1719 H 0.58025 0.37601 0.59148 0.0
H1720 H 0.52052 0.31579 0.60376 0.0
H1721 H 0.51205 0.30559 0.64385 0.0
H1722 H 0.5333 0.29221 0.62128 0.0
H1723 H 0.55911 0.2965 0.67167 0.0
H1724 H 0.53782 0.30955 0.69481 0.0
H1725 H 0.56346 0.32287 0.68943 0.0
H1726 H 0.54848 0.39423 0.61992 0.0
H1727 H 0.51517 0.40461 0.65045 0.0
H1728 H 0.5067 0.33818 0.68179 0.0
C1729 C 0.57459 0.31371 0.60376 0.0
C1730 C 0.59006 0.32192 0.58122 0.0
C1731 C 0.59261 0.34453 0.5779 0.0
C1732 C 0.57901 0.35876 0.59529 0.0
C1733 C 0.56338 0.35008 0.61649 0.0
C1734 C 0.56155 0.32807 0.62149 0.0
C1735 C 0.54304 0.32272 0.64469 0.0
C1736 C 0.52625 0.30823 0.62734 0.0
C1737 C 0.55136 0.3123 0.67708 0.0
C1738 C 0.53419 0.34508 0.651 0.0
C1739 C 0.546 0.36068 0.63437 0.0
C1740 C 0.53947 0.38224 0.6338 0.0
C1741 C 0.5205 0.38797 0.65095 0.0
C1742 C 0.50859 0.37224 0.66875 0.0
C1743 C 0.5157 0.35063 0.66895 0.0
H1744 H 0.02516 0.45511 0.28955 0.0
H1745 H 0.09216 0.4369 0.27525 0.0
H1746 H 0.10044 0.47408 0.25604 0.0
H1747 H 0.02015 0.48731 0.2185 0.0
H1748 H 0.00289 0.50707 0.23797 0.0
H1749 H 0.00289 0.47967 0.25282 0.0
H1750 H 0.01207 0.49284 0.31263 0.0
H1751 H 0.01186 0.52034 0.29806 0.0
H1752 H 0.03534 0.50982 0.31907 0.0
H1753 H 0.1002 0.51305 0.23406 0.0
H1754 H 0.09193 0.5503 0.21509 0.0
H1755 H 0.0252 0.54157 0.24536 0.0
C1756 C 0.04166 0.45896 0.28277 0.0
C1757 C 0.05803 0.4432 0.28379 0.0
C1758 C 0.07941 0.44886 0.27479 0.0
C1759 C 0.08422 0.46988 0.26376 0.0
C1760 C 0.06749 0.48495 0.26234 0.0
C1761 C 0.0467 0.47972 0.27203 0.0
C1762 C 0.03138 0.49841 0.26755 0.0
C1763 C 0.01327 0.49277 0.24273 0.0
C1764 C 0.02213 0.50579 0.30134 0.0
C1765 C 0.04664 0.51496 0.25322 0.0
C1766 C 0.06743 0.50704 0.25033 0.0
C1767 C 0.08402 0.51945 0.23656 0.0
C1768 C 0.07918 0.54052 0.22574 0.0
C1769 C 0.05796 0.54881 0.2289 0.0
C1770 C 0.04162 0.53578 0.24282 0.0
H1771 H 0.79362 0.80503 0.54395 0.0
H1772 H 0.81843 0.81277 0.44354 0.0
H1773 H 0.78122 0.8186 0.42256 0.0
H1774 H 0.7511 0.77266 0.52071 0.0
H1775 H 0.73219 0.7826 0.55132 0.0
H1776 H 0.76069 0.78387 0.5595 0.0
H1777 H 0.75785 0.82512 0.5694 0.0
H1778 H 0.72924 0.82397 0.56134 0.0
H1779 H 0.74612 0.84206 0.53762 0.0
H1780 H 0.74129 0.8209 0.41223 0.0
H1781 H 0.70179 0.81469 0.41178 0.0
H1782 H 0.70333 0.80106 0.51794 0.0
C1783 C 0.79115 0.80868 0.51776 0.0
C1784 C 0.80863 0.80904 0.49531 0.0
C1785 C 0.80504 0.81283 0.46098 0.0
C1786 C 0.78405 0.81625 0.44898 0.0
C1787 C 0.76696 0.81538 0.47165 0.0
C1788 C 0.77027 0.81143 0.50529 0.0
C1789 C 0.74915 0.80799 0.52354 0.0
C1790 C 0.74824 0.78544 0.53969 0.0
C1791 C 0.74537 0.82585 0.54951 0.0
C1792 C 0.73348 0.80991 0.49477 0.0
C1793 C 0.74398 0.81493 0.46528 0.0
C1794 C 0.73288 0.81709 0.43519 0.0
C1795 C 0.71051 0.81358 0.43516 0.0
C1796 C 0.69975 0.80735 0.4648 0.0
C1797 C 0.71131 0.80579 0.49498 0.0
H1798 H 0.47256 0.44268 0.76158 0.0
H1799 H 0.40691 0.43516 0.72587 0.0
H1800 H 0.39878 0.47272 0.74284 0.0
H1801 H 0.46076 0.47895 0.83248 0.0
H1802 H 0.48488 0.49457 0.82531 0.0
H1803 H 0.4844 0.46628 0.81492 0.0
H1804 H 0.49589 0.47538 0.75421 0.0
H1805 H 0.49637 0.50362 0.76437 0.0
H1806 H 0.47997 0.49417 0.73021 0.0
H1807 H 0.39877 0.51212 0.76061 0.0
H1808 H 0.40778 0.55029 0.77321 0.0
H1809 H 0.47394 0.53167 0.7936 0.0
C1810 C 0.45633 0.44876 0.75803 0.0
C1811 C 0.44029 0.43602 0.74276 0.0
C1812 C 0.41939 0.44469 0.73772 0.0
C1813 C 0.41461 0.46594 0.74742 0.0
C1814 C 0.43095 0.47824 0.76193 0.0
C1815 C 0.45142 0.46994 0.76706 0.0
C1816 C 0.46678 0.48694 0.77989 0.0
C1817 C 0.47466 0.48135 0.81525 0.0
C1818 C 0.48586 0.49022 0.75572 0.0
C1819 C 0.45197 0.5063 0.78027 0.0
C1820 C 0.43122 0.50095 0.77064 0.0
C1821 C 0.41493 0.51645 0.76838 0.0
C1822 C 0.42015 0.53803 0.7756 0.0
C1823 C 0.44154 0.54379 0.78415 0.0
C1824 C 0.45747 0.52766 0.78696 0.0
H1825 H 0.79247 0.21748 0.9677 0.0
H1826 H 0.81053 0.15148 0.99016 0.0
H1827 H 0.77265 0.14362 0.00682 0.0
H1828 H 0.75852 0.22574 0.03441 0.0
H1829 H 0.73908 0.24175 0.01188 0.0
H1830 H 0.76677 0.24118 -0.00159 0.0
H1831 H 0.75497 0.22871 0.93934 0.0
H1832 H 0.72714 0.22955 0.95247 0.0
H1833 H 0.73818 0.20511 0.93505 0.0
H1834 H 0.73304 0.14478 0.02659 0.0
H1835 H 0.6956 0.15407 0.04361 0.0
H1836 H 0.70519 0.21923 0.00673 0.0
C1837 C 0.7884 0.20126 0.97563 0.0
C1838 C 0.80427 0.18508 0.97786 0.0
C1839 C 0.79842 0.16403 0.98815 0.0
C1840 C 0.77702 0.15948 -0.00228 0.0
C1841 C 0.76182 0.1761 0.99617 0.0
C1842 C 0.76728 0.19646 0.98479 0.0
C1843 C 0.74848 0.21187 0.98643 0.0
C1844 C 0.75353 0.23127 0.00914 0.0
C1845 C 0.7418 0.21923 0.95123 0.0
C1846 C 0.73169 0.19732 0.00174 0.0
C1847 C 0.73945 0.17668 0.00701 0.0
C1848 C 0.72676 0.16082 0.02216 0.0
C1849 C 0.7056 0.16625 0.03189 0.0
C1850 C 0.69754 0.18736 0.02651 0.0
C1851 C 0.71083 0.20293 0.01118 0.0
H1852 H 0.96899 0.44753 0.73155 0.0
H1853 H 0.90171 0.43637 0.7561 0.0
H1854 H 0.89399 0.47526 0.74716 0.0
H1855 H 0.97342 0.49611 0.77569 0.0
H1856 H 0.99174 0.50849 0.74637 0.0
H1857 H 0.9912 0.47961 0.75079 0.0
H1858 H 0.98388 0.47547 0.68734 0.0
H1859 H 0.98456 0.50438 0.68266 0.0
H1860 H 0.9613 0.48938 0.66882 0.0
H1861 H 0.89424 0.51597 0.73576 0.0
H1862 H 0.90299 0.55478 0.72762 0.0
H1863 H 0.97064 0.53836 0.71626 0.0
C1864 C 0.95253 0.45316 0.73438 0.0
C1865 C 0.93585 0.43901 0.74397 0.0
C1866 C 0.91465 0.44704 0.74845 0.0
C1867 C 0.91014 0.46904 0.74337 0.0
C1868 C 0.92711 0.48268 0.73436 0.0
C1869 C 0.9479 0.47499 0.7302 0.0
C1870 C 0.96369 0.49299 0.72321 0.0
C1871 C 0.98103 0.49437 0.75066 0.0
C1872 C 0.97395 0.4904 0.68844 0.0
C1873 C 0.94862 0.5121 0.72435 0.0
C1874 C 0.9275 0.50592 0.73014 0.0
C1875 C 0.91075 0.52098 0.73141 0.0
C1876 C 0.91582 0.5429 0.72679 0.0
C1877 C 0.93748 0.5494 0.72185 0.0
C1878 C 0.95398 0.53379 0.7206 0.0
H1879 H 0.30316 0.21224 0.46589 0.0
H1880 H 0.3135 0.15699 0.53051 0.0
H1881 H 0.27507 0.14667 0.5238 0.0
H1882 H 0.25408 0.22707 0.49879 0.0
H1883 H 0.24246 0.23572 0.45975 0.0
H1884 H 0.27123 0.23659 0.46546 0.0
H1885 H 0.27658 0.21279 0.41281 0.0
H1886 H 0.24775 0.21191 0.40682 0.0
H1887 H 0.26292 0.18718 0.40998 0.0
H1888 H 0.23457 0.14397 0.5123 0.0
H1889 H 0.1957 0.15088 0.50073 0.0
H1890 H 0.21277 0.20936 0.44772 0.0
C1891 C 0.29752 0.19769 0.4781 0.0
C1892 C 0.31129 0.18531 0.4985 0.0
C1893 C 0.30317 0.16662 0.51457 0.0
C1894 C 0.28143 0.16061 0.5108 0.0
C1895 C 0.26815 0.17349 0.49093 0.0
C1896 C 0.27596 0.19167 0.47493 0.0
C1897 C 0.25821 0.20405 0.45762 0.0
C1898 C 0.2564 0.22721 0.47124 0.0
C1899 C 0.26157 0.20397 0.41955 0.0
C1900 C 0.239 0.19052 0.46742 0.0
C1901 C 0.24499 0.17259 0.4858 0.0
C1902 C 0.22974 0.1579 0.49781 0.0
C1903 C 0.2078 0.1619 0.49118 0.0
C1904 C 0.20158 0.18067 0.47363 0.0
C1905 C 0.21732 0.19496 0.46139 0.0
H1906 H 0.52311 0.55692 0.22402 0.0
H1907 H 0.58931 0.56825 0.25449 0.0
H1908 H 0.5987 0.53074 0.23886 0.0
H1909 H 0.51894 0.50662 0.25917 0.0
H1910 H 0.50202 0.49521 0.22712 0.0
H1911 H 0.50151 0.52378 0.23475 0.0
H1912 H 0.5109 0.53118 0.17267 0.0
H1913 H 0.51127 0.50256 0.16472 0.0
H1914 H 0.53448 0.51881 0.15447 0.0
H1915 H 0.59984 0.49076 0.2244 0.0
H1916 H 0.5921 0.45187 0.21555 0.0
H1917 H 0.52469 0.46714 0.19849 0.0
C1918 C 0.53974 0.55173 0.22646 0.0
C1919 C 0.55556 0.56551 0.24005 0.0
C1920 C 0.577 0.55795 0.24383 0.0
C1921 C 0.58248 0.53671 0.23494 0.0
C1922 C 0.56629 0.5233 0.22246 0.0
C1923 C 0.54535 0.53058 0.21826 0.0
C1924 C 0.53036 0.51252 0.20804 0.0
C1925 C 0.51215 0.50935 0.23381 0.0
C1926 C 0.52122 0.51651 0.17288 0.0
C1927 C 0.54594 0.49378 0.20818 0.0
C1928 C 0.56671 0.5003 0.21575 0.0
C1929 C 0.58367 0.48552 0.2182 0.0
C1930 C 0.57916 0.46352 0.21317 0.0
C1931 C 0.55781 0.45662 0.20659 0.0
C1932 C 0.54115 0.472 0.20369 0.0
H1933 H 0.21066 0.77489 -0.00151 0.0
H1934 H 0.19801 0.84127 0.02666 0.0
H1935 H 0.2356 0.85103 0.01115 0.0
H1936 H 0.26412 0.77263 0.03109 0.0
H1937 H 0.27389 0.75536 -0.00184 0.0
H1938 H 0.24594 0.75428 0.0104 0.0
H1939 H 0.2345 0.76191 0.94919 0.0
H1940 H 0.26243 0.76316 0.9368 0.0
H1941 H 0.2447 0.78556 0.92822 0.0
H1942 H 0.27487 0.85315 0.99058 0.0
H1943 H 0.31275 0.84671 0.97255 0.0
H1944 H 0.29869 0.77856 0.96146 0.0
C1945 C 0.21573 0.79152 0.0013 0.0
C1946 C 0.20149 0.80738 0.01349 0.0
C1947 C 0.20878 0.82889 0.01731 0.0
C1948 C 0.23001 0.83457 0.00843 0.0
C1949 C 0.24364 0.81847 0.99619 0.0
C1950 C 0.23677 0.79733 0.99307 0.0
C1951 C 0.25455 0.78275 0.98069 0.0
C1952 C 0.25994 0.76523 0.00664 0.0
C1953 C 0.24869 0.77277 0.94671 0.0
C1954 C 0.27262 0.79891 0.97733 0.0
C1955 C 0.26607 0.81951 0.98588 0.0
C1956 C 0.28016 0.83706 0.98402 0.0
C1957 C 0.30155 0.8333 0.97366 0.0
C1958 C 0.30852 0.81214 0.96594 0.0
C1959 C 0.2938 0.79487 0.96758 0.0
H1960 H 0.53615 0.96482 0.75801 0.0
H1961 H 0.60496 0.95382 0.7687 0.0
H1962 H 0.61172 0.99268 0.75704 0.0
H1963 H 0.53878 0.00272 0.69143 0.0
H1964 H 0.51668 0.01871 0.70712 0.0
H1965 H 0.51777 0.99024 0.71592 0.0
H1966 H 0.51547 0.99814 0.77946 0.0
H1967 H 0.51425 0.02662 0.77086 0.0
H1968 H 0.5348 0.01614 0.79829 0.0
H1969 H 0.61023 0.03312 0.74104 0.0
H1970 H 0.60053 0.07118 0.72819 0.0
H1971 H 0.53267 0.05426 0.73206 0.0
C1972 C 0.55269 0.97051 0.75789 0.0
C1973 C 0.57007 0.95638 0.76397 0.0
C1974 C 0.59143 0.96449 0.76406 0.0
C1975 C 0.59539 0.98646 0.75734 0.0
C1976 C 0.57776 -6e-05 0.75106 0.0
C1977 C 0.55683 0.9922 0.75175 0.0
C1978 C 0.5405 0.00972 0.7451 0.0
C1979 C 0.52769 0.00507 0.71299 0.0
C1980 C 0.52537 0.01284 0.77523 0.0
C1981 C 0.55541 0.02872 0.74063 0.0
C1982 C 0.57687 0.02287 0.74359 0.0
C1983 C 0.59346 0.03785 0.73903 0.0
C1984 C 0.58784 0.05935 0.73164 0.0
C1985 C 0.56588 0.06554 0.72958 0.0
C1986 C 0.54959 0.04999 0.73405 0.0
H1987 H 0.28756 0.277 0.01274 0.0
H1988 H 0.30391 0.34469 0.02376 0.0
H1989 H 0.26535 0.35439 0.01639 0.0
H1990 H 0.2463 0.28384 0.9504 0.0
H1991 H 0.22964 0.26264 0.9673 0.0
H1992 H 0.25851 0.26153 0.97225 0.0
H1993 H 0.25375 0.25837 0.03644 0.0
H1994 H 0.22487 0.2596 0.03171 0.0
H1995 H 0.23845 0.27864 0.05846 0.0
H1996 H 0.22447 0.35628 0.00561 0.0
H1997 H 0.18532 0.34989 0.996 0.0
H1998 H 0.19678 0.28089 -0.00336 0.0
C1999 C 0.28311 0.2939 0.01344 0.0
C2000 C 0.2987 0.31012 0.01862 0.0
C2001 C 0.29217 0.33202 0.01972 0.0
C2002 C 0.27033 0.33766 0.01553 0.0
C2003 C 0.25532 0.32118 0.01059 0.0
C2004 C 0.2615 0.29975 0.00975 0.0
C2005 C 0.2424 0.28495 0.00487 0.0
C2006 C 0.24433 0.27251 0.97174 0.0
C2007 C 0.23972 0.26949 0.03466 0.0
C2008 C 0.22438 0.30133 0.00354 0.0
C2009 C 0.23206 0.3222 0.00627 0.0
C2010 C 0.21829 0.33999 0.00385 0.0
C2011 C 0.19615 0.33625 -0.00158 0.0
C2012 C 0.18811 0.31493 0.99629 0.0
C2013 C 0.20244 0.29736 -0.00094 0.0
H2014 H 0.9688 0.04603 0.27752 0.0
H2015 H 0.90929 0.06378 0.22806 0.0
H2016 H 0.90186 0.02498 0.21644 0.0
H2017 H 0.98499 0.00683 0.22307 0.0
H2018 H 0.99611 0.98894 0.25413 0.0
H2019 H 0.9949 0.01745 0.26207 0.0
H2020 H 0.97316 0.01056 0.31645 0.0
H2021 H 0.97452 0.98193 0.30891 0.0
H2022 H 0.9487 0.99483 0.31478 0.0
H2023 H 0.90391 0.98421 0.20485 0.0
H2024 H 0.91418 0.94585 0.19667 0.0
H2025 H 0.97209 0.95639 0.2553 0.0
C2026 C 0.95395 0.04162 0.26495 0.0
C2027 C 0.9395 0.0575 0.25375 0.0
C2028 C 0.92033 0.05154 0.23707 0.0
C2029 C 0.91607 0.02964 0.23039 0.0
C2030 C 0.93103 0.01423 0.24115 0.0
C2031 C 0.9494 0.02005 0.25858 0.0
C2032 C 0.96365 0.00091 0.26594 0.0
C2033 C 0.98623 0.00371 0.25035 0.0
C2034 C 0.96508 0.99682 0.30377 0.0
C2035 C 0.95099 0.98341 0.24871 0.0
C2036 C 0.93209 0.99119 0.23482 0.0
C2037 C 0.9185 0.97793 0.21608 0.0
C2038 C 0.92448 0.95622 0.21147 0.0
C2039 C 0.94393 0.9482 0.22534 0.0
C2040 C 0.9571 0.962 0.24443 0.0
H2041 H 0.29491 0.72398 0.50292 0.0
H2042 H 0.30752 0.65572 0.48934 0.0
H2043 H 0.26841 0.64806 0.49631 0.0
H2044 H 0.25218 0.71958 0.56373 0.0
H2045 H 0.23697 0.7416 0.54607 0.0
H2046 H 0.26595 0.74115 0.54227 0.0
H2047 H 0.26256 0.74438 0.47791 0.0
H2048 H 0.23359 0.74477 0.48149 0.0
H2049 H 0.24657 0.72493 0.45538 0.0
H2050 H 0.22739 0.64835 0.50607 0.0
H2051 H 0.18841 0.65682 0.51277 0.0
H2052 H 0.20361 0.72509 0.51484 0.0
C2053 C 0.2895 0.70737 0.50185 0.0
C2054 C 0.30418 0.69038 0.49608 0.0
C2055 C 0.29646 0.66893 0.49397 0.0
C2056 C 0.27432 0.66445 0.49795 0.0
C2057 C 0.26022 0.68167 0.50345 0.0
C2058 C 0.26756 0.70272 0.50501 0.0
C2059 C 0.2492 0.71854 0.50914 0.0
C2060 C 0.2512 0.73094 0.54228 0.0
C2061 C 0.24791 0.73406 0.47919 0.0
C2062 C 0.23029 0.70318 0.50974 0.0
C2063 C 0.23687 0.68194 0.50694 0.0
C2064 C 0.22208 0.66494 0.50799 0.0
C2065 C 0.20003 0.66987 0.51184 0.0
C2066 C 0.19309 0.69159 0.51387 0.0
C2067 C 0.20846 0.70835 0.51278 0.0
H2068 H 0.46493 0.03369 0.19974 0.0
H2069 H 0.39947 0.04999 0.22849 0.0
H2070 H 0.39278 0.01164 0.24353 0.0
H2071 H 0.45225 0.97975 0.16493 0.0
H2072 H 0.47744 0.96877 0.17976 0.0
H2073 H 0.47572 0.99682 0.16816 0.0
H2074 H 0.49002 0.00762 0.22666 0.0
H2075 H 0.4915 0.9797 0.23863 0.0
H2076 H 0.47596 0.99837 0.26343 0.0
H2077 H 0.39549 0.97202 0.2622 0.0
H2078 H 0.40616 0.93474 0.27783 0.0
H2079 H 0.4694 0.94554 0.23422 0.0
C2080 C 0.44904 0.0291 0.20858 0.0
C2081 C 0.4327 0.04463 0.21309 0.0
C2082 C 0.41211 0.03816 0.22466 0.0
C2083 C 0.40823 0.01649 0.23334 0.0
C2084 C 0.42501 0.00161 0.22955 0.0
C2085 C 0.44486 0.00767 0.21677 0.0
C2086 C 0.4606 0.98909 0.21618 0.0
C2087 C 0.46686 0.98326 0.18011 0.0
C2088 C 0.48069 0.99399 0.2375 0.0
C2089 C 0.44686 0.97172 0.23181 0.0
C2090 C 0.42634 0.97907 0.23931 0.0
C2091 C 0.41138 0.96602 0.25587 0.0
C2092 C 0.4176 0.94494 0.26479 0.0
C2093 C 0.43855 0.93724 0.25706 0.0
C2094 C 0.45318 0.95084 0.24017 0.0
H2095 H 0.79472 0.72946 0.01135 0.0
H2096 H 0.80747 0.66128 0.02586 0.0
H2097 H 0.76836 0.65355 0.0195 0.0
H2098 H 0.74498 0.73083 0.05766 0.0
H2099 H 0.73268 0.75031 0.03017 0.0
H2100 H 0.76154 0.75007 0.03559 0.0
H2101 H 0.76668 0.74618 0.97157 0.0
H2102 H 0.73784 0.74642 0.96595 0.0
H2103 H 0.75363 0.72427 0.94993 0.0
H2104 H 0.72749 0.65365 0.00883 0.0
H2105 H 0.68885 0.66176 -0.0018 0.0
H2106 H 0.70392 0.73006 0.994 0.0
C2107 C 0.78934 0.71287 0.01314 0.0
C2108 C 0.80408 0.69593 0.01885 0.0
C2109 C 0.79638 0.67448 0.02146 0.0
C2110 C 0.77423 0.66996 0.01783 0.0
C2111 C 0.76011 0.68712 0.01208 0.0
C2112 C 0.76742 0.70816 0.01009 0.0
C2113 C 0.74913 0.72385 0.00431 0.0
C2114 C 0.74696 0.7397 0.03369 0.0
C2115 C 0.752 0.73588 0.97096 0.0
C2116 C 0.73032 0.7084 0.00301 0.0
C2117 C 0.73686 0.68725 0.00731 0.0
C2118 C 0.7222 0.67017 0.00576 0.0
C2119 C 0.70033 0.67491 -0.00032 0.0
C2120 C 0.69341 0.69654 0.99562 0.0
C2121 C 0.70866 0.71339 -0.00252 0.0
H2122 H 0.02796 0.04524 0.75605 0.0
H2123 H 0.09714 0.05365 0.76659 0.0
H2124 H 0.10273 0.01555 0.74942 0.0
H2125 H 0.02581 0.99359 0.79138 0.0
H2126 H 0.00468 0.98406 0.76421 0.0
H2127 H 0.00665 0.01234 0.77384 0.0
H2128 H 0.00843 0.02129 0.7106 0.0
H2129 H 0.00654 0.99299 0.70075 0.0
H2130 H 0.02881 0.00872 0.68498 0.0
H2131 H 0.10017 0.97603 0.73162 0.0
H2132 H 0.08962 0.93798 0.72116 0.0
H2133 H 0.02212 0.95608 0.7268 0.0
C2134 C 0.04434 0.0392 0.75432 0.0
C2135 C 0.06216 0.05235 0.76227 0.0
C2136 C 0.0833 0.04375 0.76044 0.0
C2137 C 0.0866 0.02223 0.75055 0.0
C2138 C 0.06856 0.00965 0.74295 0.0
C2139 C 0.04785 0.01784 0.74509 0.0
C2140 C 0.03102 0.00079 0.73829 0.0
C2141 C 0.01618 0.9975 0.76875 0.0
C2142 C 0.01794 0.00628 0.70678 0.0
C2143 C 0.04542 0.98152 0.7326 0.0
C2144 C 0.06705 0.98695 0.73456 0.0
C2145 C 0.08329 0.97162 0.73005 0.0
C2146 C 0.07719 0.95014 0.72403 0.0
C2147 C 0.05511 0.94429 0.72342 0.0
C2148 C 0.03912 0.9602 0.72738 0.0
H2149 H 0.70347 0.28305 0.46545 0.0
H2150 H 0.69829 0.34702 0.50859 0.0
H2151 H 0.73675 0.35382 0.49465 0.0
H2152 H 0.75311 0.27107 0.49869 0.0
H2153 H 0.7625 0.25577 0.46326 0.0
H2154 H 0.73408 0.25766 0.47171 0.0
H2155 H 0.72765 0.27259 0.41199 0.0
H2156 H 0.75617 0.27083 0.40341 0.0
H2157 H 0.74223 0.29615 0.39819 0.0
H2158 H 0.77703 0.35195 0.48012 0.0
H2159 H 0.81504 0.34044 0.47154 0.0
H2160 H 0.79284 0.27727 0.44061 0.0
C2161 C 0.71021 0.29871 0.47135 0.0
C2162 C 0.69786 0.31459 0.48785 0.0
C2163 C 0.70746 0.33468 0.49573 0.0
C2164 C 0.72925 0.3387 0.48775 0.0
C2165 C 0.74108 0.32247 0.47189 0.0
C2166 C 0.7318 0.30285 0.4639 0.0
C2167 C 0.74822 0.2871 0.45035 0.0
C2168 C 0.74956 0.26672 0.47233 0.0
C2169 C 0.74327 0.28134 0.41381 0.0
C2170 C 0.76843 0.30058 0.45299 0.0
C2171 C 0.76405 0.32113 0.46464 0.0
C2172 C 0.78057 0.33598 0.47063 0.0
C2173 C 0.80207 0.32938 0.46555 0.0
C2174 C 0.80671 0.30802 0.45535 0.0
C2175 C 0.78966 0.29373 0.44823 0.0
loop_
_geom_bond_atom_site_label_1
_geom_bond_atom_site_label_2
_geom_bond_distance
_geom_bond_site_symmetry_2
_ccdc_geom_bond_type
Co0 O1 2.216 . S
Co0 O2 2.091 . S
Co0 O4 2.004 . S
Co0 O10 2.021 . S
Co0 O12 2.137 . S
Co0 O13 2.244 . S
O1 Co0 2.216 . S
O1 C8 1.247 . S
O2 Co0 2.091 . S
O2 C8 1.261 . S
C3 O12 1.247 . S
C3 O13 1.272 . S
O4 Co0 2.004 . S
O4 C9 1.259 . S
Co5 O6 2.061 . S
Co5 O11 2.052 . S
Co5 O13 2.135 . S
O6 Co5 2.061 . S
O6 C9 1.235 . S
C7 O10 1.238 . S
C7 O11 1.241 . S
C8 O1 1.247 . S
C8 O2 1.261 . S
C9 O4 1.259 . S
C9 O6 1.235 . S
O10 Co0 2.021 . S
O10 C7 1.238 . S
O11 Co5 2.052 . S
O11 C7 1.241 . S
O12 Co0 2.137 . S
O12 C3 1.247 . S
O13 Co0 2.244 . S
O13 C3 1.272 . S
O13 Co5 2.135 . S
Co14 O15 2.216 . S
Co14 O16 2.091 . S
Co14 O18 2.004 . S
Co14 O24 2.021 . S
Co14 O26 2.137 . S
Co14 O27 2.244 . S
O15 Co14 2.216 . S
O15 C22 1.247 . S
O16 Co14 2.091 . S
O16 C22 1.261 . S
C17 O26 1.247 . S
C17 O27 1.272 . S
O18 Co14 2.004 . S
O18 C23 1.259 . S
Co19 O20 2.061 . S
Co19 O25 2.052 . S
Co19 O27 2.135 . S
O20 Co19 2.061 . S
O20 C23 1.235 . S
C21 O24 1.238 . S
C21 O25 1.241 . S
C22 O15 1.247 . S
C22 O16 1.261 . S
C23 O18 1.259 . S
C23 O20 1.235 . S
O24 Co14 2.021 . S
O24 C21 1.238 . S
O25 Co19 2.052 . S
O25 C21 1.241 . S
O26 Co14 2.137 . S
O26 C17 1.247 . S
O27 Co14 2.244 . S
O27 C17 1.272 . S
O27 Co19 2.135 . S
Co28 O29 2.216 . S
Co28 O30 2.091 . S
Co28 O32 2.004 . S
Co28 O38 2.021 . S
Co28 O40 2.137 . S
Co28 O41 2.244 . S
O29 Co28 2.216 . S
O29 C36 1.247 . S
O30 Co28 2.091 . S
O30 C36 1.261 . S
C31 O40 1.247 . S
C31 O41 1.272 . S
O32 Co28 2.004 . S
O32 C37 1.259 . S
Co33 O34 2.061 . S
Co33 O39 2.052 . S
Co33 O41 2.135 . S
O34 Co33 2.061 . S
O34 C37 1.235 . S
C35 O38 1.238 . S
C35 O39 1.241 . S
C36 O29 1.247 . S
C36 O30 1.261 . S
C37 O32 1.259 . S
C37 O34 1.235 . S
O38 Co28 2.021 . S
O38 C35 1.238 . S
O39 Co33 2.052 . S
O39 C35 1.241 . S
O40 Co28 2.137 . S
O40 C31 1.247 . S
O41 Co28 2.244 . S
O41 C31 1.272 . S
O41 Co33 2.135 . S
Co42 O43 2.216 . S
Co42 O44 2.091 . S
Co42 O46 2.004 . S
Co42 O52 2.021 . S
Co42 O54 2.137 . S
Co42 O55 2.244 . S
O43 Co42 2.216 . S
O43 C50 1.247 . S
O44 Co42 2.091 . S
O44 C50 1.261 . S
C45 O54 1.247 . S
C45 O55 1.272 . S
O46 Co42 2.004 . S
O46 C51 1.259 . S
Co47 O48 2.061 . S
Co47 O53 2.052 1_554 S
Co47 O55 2.135 . S
O48 Co47 2.061 . S
O48 C51 1.235 . S
C49 O52 1.238 1_556 S
C49 O53 1.241 . S
C50 O43 1.247 . S
C50 O44 1.261 . S
C51 O46 1.259 . S
C51 O48 1.235 . S
O52 Co42 2.021 . S
O52 C49 1.238 1_554 S
O53 Co47 2.052 1_556 S
O53 C49 1.241 . S
O54 Co42 2.137 . S
O54 C45 1.247 . S
O55 Co42 2.244 . S
O55 C45 1.272 . S
O55 Co47 2.135 . S
Co56 O57 2.216 . S
Co56 O58 2.091 . S
Co56 O60 2.004 . S
Co56 O66 2.021 . S
Co56 O68 2.137 . S
Co56 O69 2.244 . S
O57 Co56 2.216 . S
O57 C64 1.247 . S
O58 Co56 2.091 . S
O58 C64 1.261 . S
C59 O68 1.247 . S
C59 O69 1.272 . S
O60 Co56 2.004 . S
O60 C65 1.259 . S
Co61 O62 2.061 . S
Co61 O67 2.052 . S
Co61 O69 2.135 . S
O62 Co61 2.061 . S
O62 C65 1.235 . S
C63 O66 1.238 . S
C63 O67 1.241 . S
C64 O57 1.247 . S
C64 O58 1.261 . S
C65 O60 1.259 . S
C65 O62 1.235 . S
O66 Co56 2.021 . S
O66 C63 1.238 . S
O67 Co61 2.052 . S
O67 C63 1.241 . S
O68 Co56 2.137 . S
O68 C59 1.247 . S
O69 Co56 2.244 . S
O69 C59 1.272 . S
O69 Co61 2.135 . S
Co70 O71 2.216 . S
Co70 O72 2.091 . S
Co70 O74 2.004 . S
Co70 O80 2.021 . S
Co70 O82 2.137 . S
Co70 O83 2.244 . S
O71 Co70 2.216 . S
O71 C78 1.247 . S
O72 Co70 2.091 . S
O72 C78 1.261 . S
C73 O82 1.247 . S
C73 O83 1.272 . S
O74 Co70 2.004 . S
O74 C79 1.259 . S
Co75 O76 2.061 . S
Co75 O81 2.052 . S
Co75 O83 2.135 . S
O76 Co75 2.061 . S
O76 C79 1.235 . S
C77 O80 1.238 . S
C77 O81 1.241 . S
C78 O71 1.247 . S
C78 O72 1.261 . S
C79 O74 1.259 . S
C79 O76 1.235 . S
O80 Co70 2.021 . S
O80 C77 1.238 . S
O81 Co75 2.052 . S
O81 C77 1.241 . S
O82 Co70 2.137 . S
O82 C73 1.247 . S
O83 Co70 2.244 . S
O83 C73 1.272 . S
O83 Co75 2.135 . S
Co84 O85 2.216 . S
Co84 O86 2.091 . S
Co84 O88 2.004 . S
Co84 O94 2.021 . S
Co84 O96 2.137 . S
Co84 O97 2.244 . S
O85 Co84 2.216 . S
O85 C92 1.247 . S
O86 Co84 2.091 . S
O86 C92 1.261 . S
C87 O96 1.247 . S
C87 O97 1.272 . S
O88 Co84 2.004 . S
O88 C93 1.259 . S
Co89 O90 2.061 . S
Co89 O95 2.052 . S
Co89 O97 2.135 . S
O90 Co89 2.061 . S
O90 C93 1.235 . S
C91 O94 1.238 . S
C91 O95 1.241 . S
C92 O85 1.247 . S
C92 O86 1.261 . S
C93 O88 1.259 . S
C93 O90 1.235 . S
O94 Co84 2.021 . S
O94 C91 1.238 . S
O95 Co89 2.052 . S
O95 C91 1.241 . S
O96 Co84 2.137 . S
O96 C87 1.247 . S
O97 Co84 2.244 . S
O97 C87 1.272 . S
O97 Co89 2.135 . S
Co98 O99 2.216 . S
Co98 O100 2.091 . S
Co98 O102 2.004 . S
Co98 O108 2.021 . S
Co98 O110 2.137 . S
Co98 O111 2.244 . S
O99 Co98 2.216 . S
O99 C106 1.247 . S
O100 Co98 2.091 . S
O100 C106 1.261 . S
C101 O110 1.247 . S
C101 O111 1.272 . S
O102 Co98 2.004 . S
O102 C107 1.259 . S
Co103 O104 2.061 . S
Co103 O109 2.052 1_556 S
Co103 O111 2.135 . S
O104 Co103 2.061 . S
O104 C107 1.235 . S
C105 O108 1.238 1_554 S
C105 O109 1.241 . S
C106 O99 1.247 . S
C106 O100 1.261 . S
C107 O102 1.259 . S
C107 O104 1.235 . S
O108 Co98 2.021 . S
O108 C105 1.238 1_556 S
O109 Co103 2.052 1_554 S
O109 C105 1.241 . S
O110 Co98 2.137 . S
O110 C101 1.247 . S
O111 Co98 2.244 . S
O111 C101 1.272 . S
O111 Co103 2.135 . S
Co112 O113 2.216 . S
Co112 O114 2.091 . S
Co112 O116 2.004 . S
Co112 O122 2.021 . S
Co112 O124 2.137 . S
Co112 O125 2.244 . S
O113 Co112 2.216 . S
O113 C120 1.247 . S
O114 Co112 2.091 . S
O114 C120 1.261 . S
C115 O124 1.247 . S
C115 O125 1.272 . S
O116 Co112 2.004 . S
O116 C121 1.259 . S
Co117 O118 2.061 . S
Co117 O123 2.052 . S
Co117 O125 2.135 . S
O118 Co117 2.061 . S
O118 C121 1.235 . S
C119 O122 1.238 . S
C119 O123 1.241 . S
C120 O113 1.247 . S
C120 O114 1.261 . S
C121 O116 1.259 . S
C121 O118 1.235 . S
O122 Co112 2.021 . S
O122 C119 1.238 . S
O123 Co117 2.052 . S
O123 C119 1.241 . S
O124 Co112 2.137 . S
O124 C115 1.247 . S
O125 Co112 2.244 . S
O125 C115 1.272 . S
O125 Co117 2.135 . S
Co126 O127 2.216 . S
Co126 O128 2.091 . S
Co126 O130 2.004 . S
Co126 O136 2.021 . S
Co126 O138 2.137 . S
Co126 O139 2.244 . S
O127 Co126 2.216 . S
O127 C134 1.247 . S
O128 Co126 2.091 . S
O128 C134 1.261 . S
C129 O138 1.247 . S
C129 O139 1.272 . S
O130 Co126 2.004 . S
O130 C135 1.259 . S
Co131 O132 2.061 . S
Co131 O137 2.052 . S
Co131 O139 2.135 . S
O132 Co131 2.061 . S
O132 C135 1.235 . S
C133 O136 1.238 . S
C133 O137 1.241 . S
C134 O127 1.247 . S
C134 O128 1.261 . S
C135 O130 1.259 . S
C135 O132 1.235 . S
O136 Co126 2.021 . S
O136 C133 1.238 . S
O137 Co131 2.052 . S
O137 C133 1.241 . S
O138 Co126 2.137 . S
O138 C129 1.247 . S
O139 Co126 2.244 . S
O139 C129 1.272 . S
O139 Co131 2.135 . S
Co140 O141 2.216 . S
Co140 O142 2.091 . S
Co140 O144 2.004 . S
Co140 O150 2.021 . S
Co140 O152 2.137 . S
Co140 O153 2.244 . S
O141 Co140 2.216 . S
O141 C148 1.247 . S
O142 Co140 2.091 . S
O142 C148 1.261 . S
C143 O152 1.247 . S
C143 O153 1.272 . S
O144 Co140 2.004 . S
O144 C149 1.259 . S
Co145 O146 2.061 . S
Co145 O151 2.052 . S
Co145 O153 2.135 . S
O146 Co145 2.061 . S
O146 C149 1.235 . S
C147 O150 1.238 . S
C147 O151 1.241 . S
C148 O141 1.247 . S
C148 O142 1.261 . S
C149 O144 1.259 . S
C149 O146 1.235 . S
O150 Co140 2.021 . S
O150 C147 1.238 . S
O151 Co145 2.052 . S
O151 C147 1.241 . S
O152 Co140 2.137 . S
O152 C143 1.247 . S
O153 Co140 2.244 . S
O153 C143 1.272 . S
O153 Co145 2.135 . S
Co154 O155 2.216 . S
Co154 O156 2.091 . S
Co154 O158 2.004 . S
Co154 O164 2.021 . S
Co154 O166 2.137 . S
Co154 O167 2.244 . S
O155 Co154 2.216 . S
O155 C162 1.247 . S
O156 Co154 2.091 . S
O156 C162 1.261 . S
C157 O166 1.247 . S
C157 O167 1.272 . S
O158 Co154 2.004 . S
O158 C163 1.259 . S
Co159 O160 2.061 . S
Co159 O165 2.052 1_556 S
Co159 O167 2.135 . S
O160 Co159 2.061 . S
O160 C163 1.235 . S
C161 O164 1.238 1_554 S
C161 O165 1.241 . S
C162 O155 1.247 . S
C162 O156 1.261 . S
C163 O158 1.259 . S
C163 O160 1.235 . S
O164 Co154 2.021 . S
O164 C161 1.238 1_556 S
O165 Co159 2.052 1_554 S
O165 C161 1.241 . S
O166 Co154 2.137 . S
O166 C157 1.247 . S
O167 Co154 2.244 . S
O167 C157 1.272 . S
O167 Co159 2.135 . S
Co168 O169 2.216 . S
Co168 O170 2.091 . S
Co168 O172 2.004 . S
Co168 O178 2.021 . S
Co168 O180 2.137 . S
Co168 O181 2.244 . S
O169 Co168 2.216 . S
O169 C176 1.247 . S
O170 Co168 2.091 . S
O170 C176 1.261 . S
C171 O180 1.247 . S
C171 O181 1.272 . S
O172 Co168 2.004 . S
O172 C177 1.259 . S
Co173 O174 2.061 . S
Co173 O179 2.052 . S
Co173 O181 2.135 . S
O174 Co173 2.061 . S
O174 C177 1.235 . S
C175 O178 1.238 . S
C175 O179 1.241 . S
C176 O169 1.247 . S
C176 O170 1.261 . S
C177 O172 1.259 . S
C177 O174 1.235 . S
O178 Co168 2.021 . S
O178 C175 1.238 . S
O179 Co173 2.052 . S
O179 C175 1.241 . S
O180 Co168 2.137 . S
O180 C171 1.247 . S
O181 Co168 2.244 . S
O181 C171 1.272 . S
O181 Co173 2.135 . S
Co182 O183 2.216 . S
Co182 O184 2.091 . S
Co182 O186 2.004 . S
Co182 O192 2.021 . S
Co182 O194 2.137 . S
Co182 O195 2.244 . S
O183 Co182 2.216 . S
O183 C190 1.247 . S
O184 Co182 2.091 . S
O184 C190 1.261 . S
C185 O194 1.247 . S
C185 O195 1.272 . S
O186 Co182 2.004 . S
O186 C191 1.259 . S
Co187 O188 2.061 . S
Co187 O193 2.052 . S
Co187 O195 2.135 . S
O188 Co187 2.061 . S
O188 C191 1.235 . S
C189 O192 1.238 . S
C189 O193 1.241 . S
C190 O183 1.247 . S
C190 O184 1.261 . S
C191 O186 1.259 . S
C191 O188 1.235 . S
O192 Co182 2.021 . S
O192 C189 1.238 . S
O193 Co187 2.052 . S
O193 C189 1.241 . S
O194 Co182 2.137 . S
O194 C185 1.247 . S
O195 Co182 2.244 . S
O195 C185 1.272 . S
O195 Co187 2.135 . S
Co196 O197 2.216 . S
Co196 O198 2.091 . S
Co196 O200 2.004 . S
Co196 O206 2.021 . S
Co196 O208 2.137 . S
Co196 O209 2.244 . S
O197 Co196 2.216 . S
O197 C204 1.247 . S
O198 Co196 2.091 . S
O198 C204 1.261 . S
C199 O208 1.247 . S
C199 O209 1.272 . S
O200 Co196 2.004 . S
O200 C205 1.259 . S
Co201 O202 2.061 . S
Co201 O207 2.052 . S
Co201 O209 2.135 . S
O202 Co201 2.061 . S
O202 C205 1.235 . S
C203 O206 1.238 . S
C203 O207 1.241 . S
C204 O197 1.247 . S
C204 O198 1.261 . S
C205 O200 1.259 . S
C205 O202 1.235 . S
O206 Co196 2.021 . S
O206 C203 1.238 . S
O207 Co201 2.052 . S
O207 C203 1.241 . S
O208 Co196 2.137 . S
O208 C199 1.247 . S
O209 Co196 2.244 . S
O209 C199 1.272 . S
O209 Co201 2.135 . S
Co210 O211 2.216 . S
Co210 O212 2.091 . S
Co210 O214 2.004 . S
Co210 O220 2.021 . S
Co210 O222 2.137 . S
Co210 O223 2.244 . S
O211 Co210 2.216 . S
O211 C218 1.247 . S
O212 Co210 2.091 . S
O212 C218 1.261 . S
C213 O222 1.247 . S
C213 O223 1.272 . S
O214 Co210 2.004 . S
O214 C219 1.259 . S
Co215 O216 2.061 . S
Co215 O221 2.052 1_554 S
Co215 O223 2.135 . S
O216 Co215 2.061 . S
O216 C219 1.235 . S
C217 O220 1.238 1_556 S
C217 O221 1.241 . S
C218 O211 1.247 . S
C218 O212 1.261 . S
C219 O214 1.259 . S
C219 O216 1.235 . S
O220 Co210 2.021 . S
O220 C217 1.238 1_554 S
O221 Co215 2.052 1_556 S
O221 C217 1.241 . S
O222 Co210 2.137 . S
O222 C213 1.247 . S
O223 Co210 2.244 . S
O223 C213 1.272 . S
O223 Co215 2.135 . S
Co224 O225 2.216 . S
Co224 O226 2.091 . S
Co224 O228 2.004 . S
Co224 O234 2.021 . S
Co224 O236 2.137 . S
Co224 O237 2.244 . S
O225 Co224 2.216 . S
O225 C232 1.247 . S
O226 Co224 2.091 . S
O226 C232 1.261 . S
C227 O236 1.247 . S
C227 O237 1.272 . S
O228 Co224 2.004 . S
O228 C233 1.259 . S
Co229 O230 2.061 . S
Co229 O235 2.052 . S
Co229 O237 2.135 . S
O230 Co229 2.061 . S
O230 C233 1.235 . S
C231 O234 1.238 . S
C231 O235 1.241 . S
C232 O225 1.247 . S
C232 O226 1.261 . S
C233 O228 1.259 . S
C233 O230 1.235 . S
O234 Co224 2.021 . S
O234 C231 1.238 . S
O235 Co229 2.052 . S
O235 C231 1.241 . S
O236 Co224 2.137 . S
O236 C227 1.247 . S
O237 Co224 2.244 . S
O237 C227 1.272 . S
O237 Co229 2.135 . S
Co238 O239 2.216 . S
Co238 O240 2.091 . S
Co238 O242 2.004 . S
Co238 O248 2.021 . S
Co238 O250 2.137 . S
Co238 O251 2.244 . S
O239 Co238 2.216 . S
O239 C246 1.247 . S
O240 Co238 2.091 . S
O240 C246 1.261 . S
C241 O250 1.247 . S
C241 O251 1.272 . S
O242 Co238 2.004 . S
O242 C247 1.259 . S
Co243 O244 2.061 . S
Co243 O249 2.052 1_554 S
Co243 O251 2.135 . S
O244 Co243 2.061 . S
O244 C247 1.235 . S
C245 O248 1.238 1_556 S
C245 O249 1.241 . S
C246 O239 1.247 . S
C246 O240 1.261 . S
C247 O242 1.259 . S
C247 O244 1.235 . S
O248 Co238 2.021 . S
O248 C245 1.238 1_554 S
O249 Co243 2.052 1_556 S
O249 C245 1.241 . S
O250 Co238 2.137 . S
O250 C241 1.247 . S
O251 Co238 2.244 . S
O251 C241 1.272 . S
O251 Co243 2.135 . S
Co252 O253 2.216 . S
Co252 O254 2.091 . S
Co252 O256 2.004 . S
Co252 O262 2.021 . S
Co252 O264 2.137 . S
Co252 O265 2.244 . S
O253 Co252 2.216 . S
O253 C260 1.247 . S
O254 Co252 2.091 . S
O254 C260 1.261 . S
C255 O264 1.247 . S
C255 O265 1.272 . S
O256 Co252 2.004 . S
O256 C261 1.259 . S
Co257 O258 2.061 . S
Co257 O263 2.052 . S
Co257 O265 2.135 . S
O258 Co257 2.061 . S
O258 C261 1.235 . S
C259 O262 1.238 . S
C259 O263 1.241 . S
C260 O253 1.247 . S
C260 O254 1.261 . S
C261 O256 1.259 . S
C261 O258 1.235 . S
O262 Co252 2.021 . S
O262 C259 1.238 . S
O263 Co257 2.052 . S
O263 C259 1.241 . S
O264 Co252 2.137 . S
O264 C255 1.247 . S
O265 Co252 2.244 . S
O265 C255 1.272 . S
O265 Co257 2.135 . S
Co266 O267 2.216 . S
Co266 O268 2.091 . S
Co266 O270 2.004 . S
Co266 O276 2.021 . S
Co266 O278 2.137 . S
Co266 O279 2.244 . S
O267 Co266 2.216 . S
O267 C274 1.247 . S
O268 Co266 2.091 . S
O268 C274 1.261 . S
C269 O278 1.247 . S
C269 O279 1.272 . S
O270 Co266 2.004 . S
O270 C275 1.259 . S
Co271 O272 2.061 . S
Co271 O277 2.052 . S
Co271 O279 2.135 . S
O272 Co271 2.061 . S
O272 C275 1.235 . S
C273 O276 1.238 . S
C273 O277 1.241 . S
C274 O267 1.247 . S
C274 O268 1.261 . S
C275 O270 1.259 . S
C275 O272 1.235 . S
O276 Co266 2.021 . S
O276 C273 1.238 . S
O277 Co271 2.052 . S
O277 C273 1.241 . S
O278 Co266 2.137 . S
O278 C269 1.247 . S
O279 Co266 2.244 . S
O279 C269 1.272 . S
O279 Co271 2.135 . S
Co280 O281 2.216 . S
Co280 O282 2.091 . S
Co280 O284 2.004 . S
Co280 O290 2.021 . S
Co280 O292 2.137 . S
Co280 O293 2.244 . S
O281 Co280 2.216 . S
O281 C288 1.247 . S
O282 Co280 2.091 . S
O282 C288 1.261 . S
C283 O292 1.247 . S
C283 O293 1.272 . S
O284 Co280 2.004 . S
O284 C289 1.259 . S
Co285 O286 2.061 . S
Co285 O291 2.052 . S
Co285 O293 2.135 . S
O286 Co285 2.061 . S
O286 C289 1.235 . S
C287 O290 1.238 . S
C287 O291 1.241 . S
C288 O281 1.247 . S
C288 O282 1.261 . S
C289 O284 1.259 . S
C289 O286 1.235 . S
O290 Co280 2.021 . S
O290 C287 1.238 . S
O291 Co285 2.052 . S
O291 C287 1.241 . S
O292 Co280 2.137 . S
O292 C283 1.247 . S
O293 Co280 2.244 . S
O293 C283 1.272 . S
O293 Co285 2.135 . S
Co294 O295 2.216 . S
Co294 O296 2.091 . S
Co294 O298 2.004 . S
Co294 O304 2.021 . S
Co294 O306 2.137 . S
Co294 O307 2.244 . S
O295 Co294 2.216 . S
O295 C302 1.247 . S
O296 Co294 2.091 . S
O296 C302 1.261 . S
C297 O306 1.247 . S
C297 O307 1.272 . S
O298 Co294 2.004 . S
O298 C303 1.259 . S
Co299 O300 2.061 . S
Co299 O305 2.052 1_556 S
Co299 O307 2.135 . S
O300 Co299 2.061 . S
O300 C303 1.235 . S
C301 O304 1.238 1_554 S
C301 O305 1.241 . S
C302 O295 1.247 . S
C302 O296 1.261 . S
C303 O298 1.259 . S
C303 O300 1.235 . S
O304 Co294 2.021 . S
O304 C301 1.238 1_556 S
O305 Co299 2.052 1_554 S
O305 C301 1.241 . S
O306 Co294 2.137 . S
O306 C297 1.247 . S
O307 Co294 2.244 . S
O307 C297 1.272 . S
O307 Co299 2.135 . S
Co308 O309 2.216 . S
Co308 O310 2.091 . S
Co308 O312 2.004 . S
Co308 O318 2.021 . S
Co308 O320 2.137 . S
Co308 O321 2.244 . S
O309 Co308 2.216 . S
O309 C316 1.247 . S
O310 Co308 2.091 . S
O310 C316 1.261 . S
C311 O320 1.247 . S
C311 O321 1.272 . S
O312 Co308 2.004 . S
O312 C317 1.259 . S
Co313 O314 2.061 . S
Co313 O319 2.052 . S
Co313 O321 2.135 . S
O314 Co313 2.061 . S
O314 C317 1.235 . S
C315 O318 1.238 . S
C315 O319 1.241 . S
C316 O309 1.247 . S
C316 O310 1.261 . S
C317 O312 1.259 . S
C317 O314 1.235 . S
O318 Co308 2.021 . S
O318 C315 1.238 . S
O319 Co313 2.052 . S
O319 C315 1.241 . S
O320 Co308 2.137 . S
O320 C311 1.247 . S
O321 Co308 2.244 . S
O321 C311 1.272 . S
O321 Co313 2.135 . S
Co322 O323 2.216 . S
Co322 O324 2.091 . S
Co322 O326 2.004 . S
Co322 O332 2.021 . S
Co322 O334 2.137 . S
Co322 O335 2.244 . S
O323 Co322 2.216 . S
O323 C330 1.247 . S
O324 Co322 2.091 . S
O324 C330 1.261 . S
C325 O334 1.247 . S
C325 O335 1.272 . S
O326 Co322 2.004 . S
O326 C331 1.259 . S
Co327 O328 2.061 . S
Co327 O333 2.052 . S
Co327 O335 2.135 . S
O328 Co327 2.061 . S
O328 C331 1.235 . S
C329 O332 1.238 . S
C329 O333 1.241 . S
C330 O323 1.247 . S
C330 O324 1.261 . S
C331 O326 1.259 . S
C331 O328 1.235 . S
O332 Co322 2.021 . S
O332 C329 1.238 . S
O333 Co327 2.052 . S
O333 C329 1.241 . S
O334 Co322 2.137 . S
O334 C325 1.247 . S
O335 Co322 2.244 . S
O335 C325 1.272 . S
O335 Co327 2.135 . S
Co336 O337 2.216 . S
Co336 O338 2.091 . S
Co336 O340 2.004 . S
Co336 O346 2.021 . S
Co336 O348 2.137 . S
Co336 O349 2.244 . S
O337 Co336 2.216 . S
O337 C344 1.247 . S
O338 Co336 2.091 . S
O338 C344 1.261 . S
C339 O348 1.247 . S
C339 O349 1.272 . S
O340 Co336 2.004 . S
O340 C345 1.259 . S
Co341 O342 2.061 . S
Co341 O347 2.052 . S
Co341 O349 2.135 . S
O342 Co341 2.061 . S
O342 C345 1.235 . S
C343 O346 1.238 . S
C343 O347 1.241 . S
C344 O337 1.247 . S
C344 O338 1.261 . S
C345 O340 1.259 . S
C345 O342 1.235 . S
O346 Co336 2.021 . S
O346 C343 1.238 . S
O347 Co341 2.052 . S
O347 C343 1.241 . S
O348 Co336 2.137 . S
O348 C339 1.247 . S
O349 Co336 2.244 . S
O349 C339 1.272 . S
O349 Co341 2.135 . S
Co350 O351 2.216 . S
Co350 O352 2.091 . S
Co350 O354 2.004 . S
Co350 O360 2.021 . S
Co350 O362 2.137 . S
Co350 O363 2.244 . S
O351 Co350 2.216 . S
O351 C358 1.247 . S
O352 Co350 2.091 . S
O352 C358 1.261 . S
C353 O362 1.247 . S
C353 O363 1.272 . S
O354 Co350 2.004 . S
O354 C359 1.259 . S
Co355 O356 2.061 . S
Co355 O361 2.052 1_556 S
Co355 O363 2.135 . S
O356 Co355 2.061 . S
O356 C359 1.235 . S
C357 O360 1.238 1_554 S
C357 O361 1.241 . S
C358 O351 1.247 . S
C358 O352 1.261 . S
C359 O354 1.259 . S
C359 O356 1.235 . S
O360 Co350 2.021 . S
O360 C357 1.238 1_556 S
O361 Co355 2.052 1_554 S
O361 C357 1.241 . S
O362 Co350 2.137 . S
O362 C353 1.247 . S
O363 Co350 2.244 . S
O363 C353 1.272 . S
O363 Co355 2.135 . S
Co364 O365 2.216 . S
Co364 O366 2.091 . S
Co364 O368 2.004 . S
Co364 O374 2.021 . S
Co364 O376 2.137 . S
Co364 O377 2.244 . S
O365 Co364 2.216 . S
O365 C372 1.247 . S
O366 Co364 2.091 . S
O366 C372 1.261 . S
C367 O376 1.247 . S
C367 O377 1.272 . S
O368 Co364 2.004 . S
O368 C373 1.259 . S
Co369 O370 2.061 . S
Co369 O375 2.052 . S
Co369 O377 2.135 . S
O370 Co369 2.061 . S
O370 C373 1.235 . S
C371 O374 1.238 . S
C371 O375 1.241 . S
C372 O365 1.247 . S
C372 O366 1.261 . S
C373 O368 1.259 . S
C373 O370 1.235 . S
O374 Co364 2.021 . S
O374 C371 1.238 . S
O375 Co369 2.052 . S
O375 C371 1.241 . S
O376 Co364 2.137 . S
O376 C367 1.247 . S
O377 Co364 2.244 . S
O377 C367 1.272 . S
O377 Co369 2.135 . S
Co378 O379 2.216 . S
Co378 O380 2.091 . S
Co378 O382 2.004 . S
Co378 O388 2.021 . S
Co378 O390 2.137 . S
Co378 O391 2.244 . S
O379 Co378 2.216 . S
O379 C386 1.247 . S
O380 Co378 2.091 . S
O380 C386 1.261 . S
C381 O390 1.247 . S
C381 O391 1.272 . S
O382 Co378 2.004 . S
O382 C387 1.259 . S
Co383 O384 2.061 . S
Co383 O389 2.052 . S
Co383 O391 2.135 . S
O384 Co383 2.061 . S
O384 C387 1.235 . S
C385 O388 1.238 . S
C385 O389 1.241 . S
C386 O379 1.247 . S
C386 O380 1.261 . S
C387 O382 1.259 . S
C387 O384 1.235 . S
O388 Co378 2.021 . S
O388 C385 1.238 . S
O389 Co383 2.052 . S
O389 C385 1.241 . S
O390 Co378 2.137 . S
O390 C381 1.247 . S
O391 Co378 2.244 . S
O391 C381 1.272 . S
O391 Co383 2.135 . S
Co392 O393 2.216 . S
Co392 O394 2.091 . S
Co392 O396 2.004 . S
Co392 O402 2.021 . S
Co392 O404 2.137 . S
Co392 O405 2.244 . S
O393 Co392 2.216 . S
O393 C400 1.247 . S
O394 Co392 2.091 . S
O394 C400 1.261 . S
C395 O404 1.247 . S
C395 O405 1.272 . S
O396 Co392 2.004 . S
O396 C401 1.259 . S
Co397 O398 2.061 . S
Co397 O403 2.052 . S
Co397 O405 2.135 . S
O398 Co397 2.061 . S
O398 C401 1.235 . S
C399 O402 1.238 . S
C399 O403 1.241 . S
C400 O393 1.247 . S
C400 O394 1.261 . S
C401 O396 1.259 . S
C401 O398 1.235 . S
O402 Co392 2.021 . S
O402 C399 1.238 . S
O403 Co397 2.052 . S
O403 C399 1.241 . S
O404 Co392 2.137 . S
O404 C395 1.247 . S
O405 Co392 2.244 . S
O405 C395 1.272 . S
O405 Co397 2.135 . S
Co406 O407 2.216 . S
Co406 O408 2.091 . S
Co406 O410 2.004 . S
Co406 O416 2.021 . S
Co406 O418 2.137 . S
Co406 O419 2.244 . S
O407 Co406 2.216 . S
O407 C414 1.247 . S
O408 Co406 2.091 . S
O408 C414 1.261 . S
C409 O418 1.247 . S
C409 O419 1.272 . S
O410 Co406 2.004 . S
O410 C415 1.259 . S
Co411 O412 2.061 . S
Co411 O417 2.052 1_554 S
Co411 O419 2.135 . S
O412 Co411 2.061 . S
O412 C415 1.235 . S
C413 O416 1.238 1_556 S
C413 O417 1.241 . S
C414 O407 1.247 . S
C414 O408 1.261 . S
C415 O410 1.259 . S
C415 O412 1.235 . S
O416 Co406 2.021 . S
O416 C413 1.238 1_554 S
O417 Co411 2.052 1_556 S
O417 C413 1.241 . S
O418 Co406 2.137 . S
O418 C409 1.247 . S
O419 Co406 2.244 . S
O419 C409 1.272 . S
O419 Co411 2.135 . S
Co420 O421 2.216 . S
Co420 O422 2.091 . S
Co420 O424 2.004 . S
Co420 O430 2.021 . S
Co420 O432 2.137 . S
Co420 O433 2.244 . S
O421 Co420 2.216 . S
O421 C428 1.247 . S
O422 Co420 2.091 . S
O422 C428 1.261 . S
C423 O432 1.247 . S
C423 O433 1.272 . S
O424 Co420 2.004 . S
O424 C429 1.259 . S
Co425 O426 2.061 . S
Co425 O431 2.052 . S
Co425 O433 2.135 . S
O426 Co425 2.061 . S
O426 C429 1.235 . S
C427 O430 1.238 . S
C427 O431 1.241 . S
C428 O421 1.247 . S
C428 O422 1.261 . S
C429 O424 1.259 . S
C429 O426 1.235 . S
O430 Co420 2.021 . S
O430 C427 1.238 . S
O431 Co425 2.052 . S
O431 C427 1.241 . S
O432 Co420 2.137 . S
O432 C423 1.247 . S
O433 Co420 2.244 . S
O433 C423 1.272 . S
O433 Co425 2.135 . S
Co434 O435 2.216 . S
Co434 O436 2.091 . S
Co434 O438 2.004 . S
Co434 O444 2.021 . S
Co434 O446 2.137 . S
Co434 O447 2.244 . S
O435 Co434 2.216 . S
O435 C442 1.247 . S
O436 Co434 2.091 . S
O436 C442 1.261 . S
C437 O446 1.247 . S
C437 O447 1.272 . S
O438 Co434 2.004 . S
O438 C443 1.259 . S
Co439 O440 2.061 . S
Co439 O445 2.052 . S
Co439 O447 2.135 . S
O440 Co439 2.061 . S
O440 C443 1.235 . S
C441 O444 1.238 . S
C441 O445 1.241 . S
C442 O435 1.247 . S
C442 O436 1.261 . S
C443 O438 1.259 . S
C443 O440 1.235 . S
O444 Co434 2.021 . S
O444 C441 1.238 . S
O445 Co439 2.052 . S
O445 C441 1.241 . S
O446 Co434 2.137 . S
O446 C437 1.247 . S
O447 Co434 2.244 . S
O447 C437 1.272 . S
O447 Co439 2.135 . S
H448 C460 0.930 . S
H449 C462 0.930 . S
H450 C463 0.930 . S
H451 C467 0.959 . S
H452 C467 0.959 . S
H453 C467 0.961 . S
H454 C468 0.960 . S
H455 C468 0.961 . S
H456 C468 0.959 . S
H457 C471 0.929 . S
H458 C472 0.931 . S
H459 C474 0.930 . S
C460 H448 0.930 . S
C460 C461 1.399 . S
C460 C465 1.399 . S
C461 C460 1.399 . S
C461 C462 1.376 . S
C462 H449 0.930 . S
C462 C461 1.376 . S
C462 C463 1.388 . S
C463 H450 0.930 . S
C463 C462 1.388 . S
C463 C464 1.390 . S
C464 C463 1.390 . S
C464 C465 1.394 . S
C464 C470 1.465 . S
C465 C460 1.399 . S
C465 C464 1.394 . S
C465 C466 1.516 . S
C466 C465 1.516 . S
C466 C467 1.502 . S
C466 C468 1.561 . S
C466 C469 1.526 . S
C467 H451 0.959 . S
C467 H452 0.959 . S
C467 H453 0.961 . S
C467 C466 1.502 . S
C468 H454 0.960 . S
C468 H455 0.961 . S
C468 H456 0.959 . S
C468 C466 1.561 . S
C469 C466 1.526 . S
C469 C470 1.396 . S
C469 C474 1.390 . S
C470 C464 1.465 . S
C470 C469 1.396 . S
C470 C471 1.399 . S
C471 H457 0.929 . S
C471 C470 1.399 . S
C471 C472 1.385 . S
C472 H458 0.931 . S
C472 C471 1.385 . S
C472 C473 1.389 . S
C473 C472 1.389 . S
C473 C474 1.387 . S
C474 H459 0.930 . S
C474 C469 1.390 . S
C474 C473 1.387 . S
H475 C487 0.930 . S
H476 C489 0.930 . S
H477 C490 0.930 . S
H478 C494 0.959 . S
H479 C494 0.959 . S
H480 C494 0.961 . S
H481 C495 0.960 . S
H482 C495 0.961 . S
H483 C495 0.959 . S
H484 C498 0.929 . S
H485 C499 0.931 . S
H486 C501 0.930 . S
C487 H475 0.930 . S
C487 C488 1.399 . S
C487 C492 1.399 . S
C488 C487 1.399 . S
C488 C489 1.376 . S
C489 H476 0.930 . S
C489 C488 1.376 . S
C489 C490 1.388 . S
C490 H477 0.930 . S
C490 C489 1.388 . S
C490 C491 1.390 . S
C491 C490 1.390 . S
C491 C492 1.394 . S
C491 C497 1.465 . S
C492 C487 1.399 . S
C492 C491 1.394 . S
C492 C493 1.516 . S
C493 C492 1.516 . S
C493 C494 1.502 . S
C493 C495 1.561 . S
C493 C496 1.526 . S
C494 H478 0.959 . S
C494 H479 0.959 . S
C494 H480 0.961 . S
C494 C493 1.502 . S
C495 H481 0.960 . S
C495 H482 0.961 . S
C495 H483 0.959 . S
C495 C493 1.561 . S
C496 C493 1.526 . S
C496 C497 1.396 . S
C496 C501 1.390 . S
C497 C491 1.465 . S
C497 C496 1.396 . S
C497 C498 1.399 . S
C498 H484 0.929 . S
C498 C497 1.399 . S
C498 C499 1.385 . S
C499 H485 0.931 . S
C499 C498 1.385 . S
C499 C500 1.389 . S
C500 C499 1.389 . S
C500 C501 1.387 . S
C501 H486 0.930 . S
C501 C496 1.390 . S
C501 C500 1.387 . S
H502 C514 0.930 . S
H503 C516 0.930 . S
H504 C517 0.930 . S
H505 C521 0.959 . S
H506 C521 0.959 . S
H507 C521 0.961 . S
H508 C522 0.960 . S
H509 C522 0.961 . S
H510 C522 0.959 . S
H511 C525 0.929 . S
H512 C526 0.931 . S
H513 C528 0.930 . S
C514 H502 0.930 . S
C514 C515 1.399 . S
C514 C519 1.399 . S
C515 C514 1.399 . S
C515 C516 1.376 . S
C516 H503 0.930 . S
C516 C515 1.376 . S
C516 C517 1.388 . S
C517 H504 0.930 . S
C517 C516 1.388 . S
C517 C518 1.390 . S
C518 C517 1.390 . S
C518 C519 1.394 . S
C518 C524 1.465 . S
C519 C514 1.399 . S
C519 C518 1.394 . S
C519 C520 1.516 . S
C520 C519 1.516 . S
C520 C521 1.502 . S
C520 C522 1.561 . S
C520 C523 1.526 . S
C521 H505 0.959 . S
C521 H506 0.959 . S
C521 H507 0.961 . S
C521 C520 1.502 . S
C522 H508 0.960 . S
C522 H509 0.961 . S
C522 H510 0.959 . S
C522 C520 1.561 . S
C523 C520 1.526 . S
C523 C524 1.396 . S
C523 C528 1.390 . S
C524 C518 1.465 . S
C524 C523 1.396 . S
C524 C525 1.399 . S
C525 H511 0.929 . S
C525 C524 1.399 . S
C525 C526 1.385 . S
C526 H512 0.931 . S
C526 C525 1.385 . S
C526 C527 1.389 . S
C527 C526 1.389 . S
C527 C528 1.387 . S
C528 H513 0.930 . S
C528 C523 1.390 . S
C528 C527 1.387 . S
H529 C541 0.930 . S
H530 C543 0.930 . S
H531 C544 0.930 . S
H532 C548 0.959 . S
H533 C548 0.959 . S
H534 C548 0.961 . S
H535 C549 0.960 . S
H536 C549 0.961 . S
H537 C549 0.959 . S
H538 C552 0.929 . S
H539 C553 0.931 . S
H540 C555 0.930 . S
C541 H529 0.930 . S
C541 C542 1.399 . S
C541 C546 1.399 . S
C542 C541 1.399 . S
C542 C543 1.376 . S
C543 H530 0.930 . S
C543 C542 1.376 . S
C543 C544 1.388 . S
C544 H531 0.930 . S
C544 C543 1.388 . S
C544 C545 1.390 . S
C545 C544 1.390 . S
C545 C546 1.394 . S
C545 C551 1.465 . S
C546 C541 1.399 . S
C546 C545 1.394 . S
C546 C547 1.516 . S
C547 C546 1.516 . S
C547 C548 1.502 . S
C547 C549 1.561 . S
C547 C550 1.526 . S
C548 H532 0.959 . S
C548 H533 0.959 . S
C548 H534 0.961 . S
C548 C547 1.502 . S
C549 H535 0.960 . S
C549 H536 0.961 . S
C549 H537 0.959 . S
C549 C547 1.561 . S
C550 C547 1.526 . S
C550 C551 1.396 . S
C550 C555 1.390 . S
C551 C545 1.465 . S
C551 C550 1.396 . S
C551 C552 1.399 . S
C552 H538 0.929 . S
C552 C551 1.399 . S
C552 C553 1.385 . S
C553 H539 0.931 . S
C553 C552 1.385 . S
C553 C554 1.389 . S
C554 C553 1.389 . S
C554 C555 1.387 . S
C555 H540 0.930 . S
C555 C550 1.390 . S
C555 C554 1.387 . S
H556 C568 0.930 . S
H557 C570 0.930 . S
H558 C571 0.930 . S
H559 C575 0.959 . S
H560 C575 0.959 . S
H561 C575 0.961 . S
H562 C576 0.960 . S
H563 C576 0.961 . S
H564 C576 0.959 . S
H565 C579 0.929 . S
H566 C580 0.931 . S
H567 C582 0.930 . S
C568 H556 0.930 . S
C568 C569 1.399 . S
C568 C573 1.399 . S
C569 C568 1.399 . S
C569 C570 1.376 . S
C570 H557 0.930 . S
C570 C569 1.376 . S
C570 C571 1.388 . S
C571 H558 0.930 . S
C571 C570 1.388 . S
C571 C572 1.390 . S
C572 C571 1.390 . S
C572 C573 1.394 . S
C572 C578 1.465 . S
C573 C568 1.399 . S
C573 C572 1.394 . S
C573 C574 1.516 . S
C574 C573 1.516 . S
C574 C575 1.502 . S
C574 C576 1.561 . S
C574 C577 1.526 . S
C575 H559 0.959 . S
C575 H560 0.959 . S
C575 H561 0.961 . S
C575 C574 1.502 . S
C576 H562 0.960 . S
C576 H563 0.961 . S
C576 H564 0.959 . S
C576 C574 1.561 . S
C577 C574 1.526 . S
C577 C578 1.396 . S
C577 C582 1.390 . S
C578 C572 1.465 . S
C578 C577 1.396 . S
C578 C579 1.399 . S
C579 H565 0.929 . S
C579 C578 1.399 . S
C579 C580 1.385 . S
C580 H566 0.931 . S
C580 C579 1.385 . S
C580 C581 1.389 . S
C581 C580 1.389 . S
C581 C582 1.387 . S
C582 H567 0.930 . S
C582 C577 1.390 . S
C582 C581 1.387 . S
H583 C595 0.930 . S
H584 C597 0.930 . S
H585 C598 0.930 . S
H586 C602 0.959 . S
H587 C602 0.959 . S
H588 C602 0.961 . S
H589 C603 0.960 . S
H590 C603 0.961 . S
H591 C603 0.959 . S
H592 C606 0.929 . S
H593 C607 0.931 . S
H594 C609 0.930 . S
C595 H583 0.930 . S
C595 C596 1.399 . S
C595 C600 1.399 . S
C596 C595 1.399 . S
C596 C597 1.376 . S
C597 H584 0.930 . S
C597 C596 1.376 . S
C597 C598 1.388 . S
C598 H585 0.930 . S
C598 C597 1.388 . S
C598 C599 1.390 . S
C599 C598 1.390 . S
C599 C600 1.394 . S
C599 C605 1.465 . S
C600 C595 1.399 . S
C600 C599 1.394 . S
C600 C601 1.516 . S
C601 C600 1.516 . S
C601 C602 1.502 . S
C601 C603 1.561 . S
C601 C604 1.526 . S
C602 H586 0.959 . S
C602 H587 0.959 . S
C602 H588 0.961 . S
C602 C601 1.502 . S
C603 H589 0.960 . S
C603 H590 0.961 . S
C603 H591 0.959 . S
C603 C601 1.561 . S
C604 C601 1.526 . S
C604 C605 1.396 . S
C604 C609 1.390 . S
C605 C599 1.465 . S
C605 C604 1.396 . S
C605 C606 1.399 . S
C606 H592 0.929 . S
C606 C605 1.399 . S
C606 C607 1.385 . S
C607 H593 0.931 . S
C607 C606 1.385 . S
C607 C608 1.389 . S
C608 C607 1.389 . S
C608 C609 1.387 . S
C609 H594 0.930 . S
C609 C604 1.390 . S
C609 C608 1.387 . S
H610 C622 0.930 . S
H611 C624 0.930 . S
H612 C625 0.930 . S
H613 C629 0.959 . S
H614 C629 0.959 . S
H615 C629 0.961 . S
H616 C630 0.960 . S
H617 C630 0.961 . S
H618 C630 0.959 . S
H619 C633 0.929 . S
H620 C634 0.931 . S
H621 C636 0.930 . S
C622 H610 0.930 . S
C622 C623 1.399 . S
C622 C627 1.399 . S
C623 C622 1.399 . S
C623 C624 1.376 . S
C624 H611 0.930 . S
C624 C623 1.376 . S
C624 C625 1.388 . S
C625 H612 0.930 . S
C625 C624 1.388 . S
C625 C626 1.390 . S
C626 C625 1.390 . S
C626 C627 1.394 . S
C626 C632 1.465 . S
C627 C622 1.399 . S
C627 C626 1.394 . S
C627 C628 1.516 . S
C628 C627 1.516 . S
C628 C629 1.502 . S
C628 C630 1.561 . S
C628 C631 1.526 . S
C629 H613 0.959 . S
C629 H614 0.959 . S
C629 H615 0.961 . S
C629 C628 1.502 . S
C630 H616 0.960 . S
C630 H617 0.961 . S
C630 H618 0.959 . S
C630 C628 1.561 . S
C631 C628 1.526 . S
C631 C632 1.396 . S
C631 C636 1.390 . S
C632 C626 1.465 . S
C632 C631 1.396 . S
C632 C633 1.399 . S
C633 H619 0.929 . S
C633 C632 1.399 . S
C633 C634 1.385 . S
C634 H620 0.931 . S
C634 C633 1.385 . S
C634 C635 1.389 . S
C635 C634 1.389 . S
C635 C636 1.387 . S
C636 H621 0.930 . S
C636 C631 1.390 . S
C636 C635 1.387 . S
H637 C649 0.930 . S
H638 C651 0.930 . S
H639 C652 0.930 . S
H640 C656 0.959 . S
H641 C656 0.959 . S
H642 C656 0.961 . S
H643 C657 0.960 . S
H644 C657 0.961 . S
H645 C657 0.959 . S
H646 C660 0.929 . S
H647 C661 0.931 . S
H648 C663 0.930 . S
C649 H637 0.930 . S
C649 C650 1.399 . S
C649 C654 1.399 . S
C650 C649 1.399 . S
C650 C651 1.376 . S
C651 H638 0.930 . S
C651 C650 1.376 . S
C651 C652 1.388 . S
C652 H639 0.930 . S
C652 C651 1.388 . S
C652 C653 1.390 . S
C653 C652 1.390 . S
C653 C654 1.394 . S
C653 C659 1.465 . S
C654 C649 1.399 . S
C654 C653 1.394 . S
C654 C655 1.516 . S
C655 C654 1.516 . S
C655 C656 1.502 . S
C655 C657 1.561 . S
C655 C658 1.526 . S
C656 H640 0.959 . S
C656 H641 0.959 . S
C656 H642 0.961 . S
C656 C655 1.502 . S
C657 H643 0.960 . S
C657 H644 0.961 . S
C657 H645 0.959 . S
C657 C655 1.561 . S
C658 C655 1.526 . S
C658 C659 1.396 . S
C658 C663 1.390 . S
C659 C653 1.465 . S
C659 C658 1.396 . S
C659 C660 1.399 . S
C660 H646 0.929 . S
C660 C659 1.399 . S
C660 C661 1.385 . S
C661 H647 0.931 . S
C661 C660 1.385 . S
C661 C662 1.389 . S
C662 C661 1.389 . S
C662 C663 1.387 . S
C663 H648 0.930 . S
C663 C658 1.390 . S
C663 C662 1.387 . S
H664 C676 0.930 . S
H665 C678 0.930 . S
H666 C679 0.930 . S
H667 C683 0.959 . S
H668 C683 0.959 . S
H669 C683 0.961 . S
H670 C684 0.960 . S
H671 C684 0.961 . S
H672 C684 0.959 . S
H673 C687 0.929 . S
H674 C688 0.931 . S
H675 C690 0.930 . S
C676 H664 0.930 . S
C676 C677 1.399 . S
C676 C681 1.399 . S
C677 C676 1.399 . S
C677 C678 1.376 . S
C678 H665 0.930 . S
C678 C677 1.376 . S
C678 C679 1.388 . S
C679 H666 0.930 . S
C679 C678 1.388 . S
C679 C680 1.390 . S
C680 C679 1.390 . S
C680 C681 1.394 . S
C680 C686 1.465 . S
C681 C676 1.399 . S
C681 C680 1.394 . S
C681 C682 1.516 . S
C682 C681 1.516 . S
C682 C683 1.502 . S
C682 C684 1.561 . S
C682 C685 1.526 . S
C683 H667 0.959 . S
C683 H668 0.959 . S
C683 H669 0.961 . S
C683 C682 1.502 . S
C684 H670 0.960 . S
C684 H671 0.961 . S
C684 H672 0.959 . S
C684 C682 1.561 . S
C685 C682 1.526 . S
C685 C686 1.396 . S
C685 C690 1.390 . S
C686 C680 1.465 . S
C686 C685 1.396 . S
C686 C687 1.399 . S
C687 H673 0.929 . S
C687 C686 1.399 . S
C687 C688 1.385 . S
C688 H674 0.931 . S
C688 C687 1.385 . S
C688 C689 1.389 . S
C689 C688 1.389 . S
C689 C690 1.387 . S
C690 H675 0.930 . S
C690 C685 1.390 . S
C690 C689 1.387 . S
H691 C703 0.930 . S
H692 C705 0.930 . S
H693 C706 0.930 . S
H694 C710 0.959 . S
H695 C710 0.959 . S
H696 C710 0.961 . S
H697 C711 0.960 . S
H698 C711 0.961 . S
H699 C711 0.959 . S
H700 C714 0.929 . S
H701 C715 0.931 . S
H702 C717 0.930 . S
C703 H691 0.930 . S
C703 C704 1.399 . S
C703 C708 1.399 . S
C704 C703 1.399 . S
C704 C705 1.376 . S
C705 H692 0.930 . S
C705 C704 1.376 . S
C705 C706 1.388 . S
C706 H693 0.930 . S
C706 C705 1.388 . S
C706 C707 1.390 . S
C707 C706 1.390 . S
C707 C708 1.394 . S
C707 C713 1.465 . S
C708 C703 1.399 . S
C708 C707 1.394 . S
C708 C709 1.516 . S
C709 C708 1.516 . S
C709 C710 1.502 . S
C709 C711 1.561 . S
C709 C712 1.526 . S
C710 H694 0.959 . S
C710 H695 0.959 . S
C710 H696 0.961 . S
C710 C709 1.502 . S
C711 H697 0.960 . S
C711 H698 0.961 . S
C711 H699 0.959 . S
C711 C709 1.561 . S
C712 C709 1.526 . S
C712 C713 1.396 . S
C712 C717 1.390 . S
C713 C707 1.465 . S
C713 C712 1.396 . S
C713 C714 1.399 . S
C714 H700 0.929 . S
C714 C713 1.399 . S
C714 C715 1.385 . S
C715 H701 0.931 . S
C715 C714 1.385 . S
C715 C716 1.389 . S
C716 C715 1.389 . S
C716 C717 1.387 . S
C717 H702 0.930 . S
C717 C712 1.390 . S
C717 C716 1.387 . S
H718 C730 0.930 . S
H719 C732 0.930 . S
H720 C733 0.930 . S
H721 C737 0.959 . S
H722 C737 0.959 . S
H723 C737 0.961 . S
H724 C738 0.960 . S
H725 C738 0.961 . S
H726 C738 0.959 . S
H727 C741 0.929 . S
H728 C742 0.931 . S
H729 C744 0.930 . S
C730 H718 0.930 . S
C730 C731 1.399 . S
C730 C735 1.399 . S
C731 C730 1.399 . S
C731 C732 1.376 . S
C732 H719 0.930 . S
C732 C731 1.376 . S
C732 C733 1.388 . S
C733 H720 0.930 . S
C733 C732 1.388 . S
C733 C734 1.390 . S
C734 C733 1.390 . S
C734 C735 1.394 . S
C734 C740 1.465 . S
C735 C730 1.399 . S
C735 C734 1.394 . S
C735 C736 1.516 . S
C736 C735 1.516 . S
C736 C737 1.502 . S
C736 C738 1.561 . S
C736 C739 1.526 . S
C737 H721 0.959 . S
C737 H722 0.959 . S
C737 H723 0.961 . S
C737 C736 1.502 . S
C738 H724 0.960 . S
C738 H725 0.961 . S
C738 H726 0.959 . S
C738 C736 1.561 . S
C739 C736 1.526 . S
C739 C740 1.396 . S
C739 C744 1.390 . S
C740 C734 1.465 . S
C740 C739 1.396 . S
C740 C741 1.399 . S
C741 H727 0.929 . S
C741 C740 1.399 . S
C741 C742 1.385 . S
C742 H728 0.931 . S
C742 C741 1.385 . S
C742 C743 1.389 . S
C743 C742 1.389 . S
C743 C744 1.387 . S
C744 H729 0.930 . S
C744 C739 1.390 . S
C744 C743 1.387 . S
H745 C757 0.930 . S
H746 C759 0.930 . S
H747 C760 0.930 . S
H748 C764 0.959 . S
H749 C764 0.959 . S
H750 C764 0.961 . S
H751 C765 0.960 . S
H752 C765 0.961 . S
H753 C765 0.959 . S
H754 C768 0.929 . S
H755 C769 0.931 . S
H756 C771 0.930 . S
C757 H745 0.930 . S
C757 C758 1.399 . S
C757 C762 1.399 . S
C758 C757 1.399 . S
C758 C759 1.376 . S
C759 H746 0.930 . S
C759 C758 1.376 . S
C759 C760 1.388 . S
C760 H747 0.930 . S
C760 C759 1.388 . S
C760 C761 1.390 . S
C761 C760 1.390 . S
C761 C762 1.394 . S
C761 C767 1.465 . S
C762 C757 1.399 . S
C762 C761 1.394 . S
C762 C763 1.516 . S
C763 C762 1.516 . S
C763 C764 1.502 . S
C763 C765 1.561 . S
C763 C766 1.526 . S
C764 H748 0.959 . S
C764 H749 0.959 . S
C764 H750 0.961 . S
C764 C763 1.502 . S
C765 H751 0.960 . S
C765 H752 0.961 . S
C765 H753 0.959 . S
C765 C763 1.561 . S
C766 C763 1.526 . S
C766 C767 1.396 . S
C766 C771 1.390 . S
C767 C761 1.465 . S
C767 C766 1.396 . S
C767 C768 1.399 . S
C768 H754 0.929 . S
C768 C767 1.399 . S
C768 C769 1.385 . S
C769 H755 0.931 . S
C769 C768 1.385 . S
C769 C770 1.389 . S
C770 C769 1.389 . S
C770 C771 1.387 . S
C771 H756 0.930 . S
C771 C766 1.390 . S
C771 C770 1.387 . S
H772 C784 0.930 . S
H773 C786 0.930 . S
H774 C787 0.930 . S
H775 C791 0.959 . S
H776 C791 0.959 . S
H777 C791 0.961 . S
H778 C792 0.960 . S
H779 C792 0.961 . S
H780 C792 0.959 . S
H781 C795 0.929 . S
H782 C796 0.931 . S
H783 C798 0.930 . S
C784 H772 0.930 . S
C784 C785 1.399 . S
C784 C789 1.399 . S
C785 C784 1.399 . S
C785 C786 1.376 . S
C786 H773 0.930 . S
C786 C785 1.376 . S
C786 C787 1.388 . S
C787 H774 0.930 . S
C787 C786 1.388 . S
C787 C788 1.390 . S
C788 C787 1.390 . S
C788 C789 1.394 . S
C788 C794 1.465 . S
C789 C784 1.399 . S
C789 C788 1.394 . S
C789 C790 1.516 . S
C790 C789 1.516 . S
C790 C791 1.502 . S
C790 C792 1.561 . S
C790 C793 1.526 . S
C791 H775 0.959 . S
C791 H776 0.959 . S
C791 H777 0.961 . S
C791 C790 1.502 . S
C792 H778 0.960 . S
C792 H779 0.961 . S
C792 H780 0.959 . S
C792 C790 1.561 . S
C793 C790 1.526 . S
C793 C794 1.396 . S
C793 C798 1.390 . S
C794 C788 1.465 . S
C794 C793 1.396 . S
C794 C795 1.399 . S
C795 H781 0.929 . S
C795 C794 1.399 . S
C795 C796 1.385 . S
C796 H782 0.931 . S
C796 C795 1.385 . S
C796 C797 1.389 . S
C797 C796 1.389 . S
C797 C798 1.387 . S
C798 H783 0.930 . S
C798 C793 1.390 . S
C798 C797 1.387 . S
H799 C811 0.930 . S
H800 C813 0.930 . S
H801 C814 0.930 . S
H802 C818 0.959 . S
H803 C818 0.959 . S
H804 C818 0.961 . S
H805 C819 0.960 . S
H806 C819 0.961 . S
H807 C819 0.959 . S
H808 C822 0.929 . S
H809 C823 0.931 . S
H810 C825 0.930 . S
C811 H799 0.930 . S
C811 C812 1.399 . S
C811 C816 1.399 . S
C812 C811 1.399 . S
C812 C813 1.376 . S
C813 H800 0.930 . S
C813 C812 1.376 . S
C813 C814 1.388 . S
C814 H801 0.930 . S
C814 C813 1.388 . S
C814 C815 1.390 . S
C815 C814 1.390 . S
C815 C816 1.394 . S
C815 C821 1.465 . S
C816 C811 1.399 . S
C816 C815 1.394 . S
C816 C817 1.516 . S
C817 C816 1.516 . S
C817 C818 1.502 . S
C817 C819 1.561 . S
C817 C820 1.526 . S
C818 H802 0.959 . S
C818 H803 0.959 . S
C818 H804 0.961 . S
C818 C817 1.502 . S
C819 H805 0.960 . S
C819 H806 0.961 . S
C819 H807 0.959 . S
C819 C817 1.561 . S
C820 C817 1.526 . S
C820 C821 1.396 . S
C820 C825 1.390 . S
C821 C815 1.465 . S
C821 C820 1.396 . S
C821 C822 1.399 . S
C822 H808 0.929 . S
C822 C821 1.399 . S
C822 C823 1.385 . S
C823 H809 0.931 . S
C823 C822 1.385 . S
C823 C824 1.389 . S
C824 C823 1.389 . S
C824 C825 1.387 . S
C825 H810 0.930 . S
C825 C820 1.390 . S
C825 C824 1.387 . S
H826 C838 0.930 . S
H827 C840 0.930 . S
H828 C841 0.930 . S
H829 C845 0.959 . S
H830 C845 0.959 . S
H831 C845 0.961 . S
H832 C846 0.960 . S
H833 C846 0.961 . S
H834 C846 0.959 . S
H835 C849 0.929 . S
H836 C850 0.931 . S
H837 C852 0.930 . S
C838 H826 0.930 . S
C838 C839 1.399 . S
C838 C843 1.399 . S
C839 C838 1.399 . S
C839 C840 1.376 . S
C840 H827 0.930 . S
C840 C839 1.376 . S
C840 C841 1.388 . S
C841 H828 0.930 . S
C841 C840 1.388 . S
C841 C842 1.390 . S
C842 C841 1.390 . S
C842 C843 1.394 . S
C842 C848 1.465 . S
C843 C838 1.399 . S
C843 C842 1.394 . S
C843 C844 1.516 . S
C844 C843 1.516 . S
C844 C845 1.502 . S
C844 C846 1.561 . S
C844 C847 1.526 . S
C845 H829 0.959 . S
C845 H830 0.959 . S
C845 H831 0.961 . S
C845 C844 1.502 . S
C846 H832 0.960 . S
C846 H833 0.961 . S
C846 H834 0.959 . S
C846 C844 1.561 . S
C847 C844 1.526 . S
C847 C848 1.396 . S
C847 C852 1.390 . S
C848 C842 1.465 . S
C848 C847 1.396 . S
C848 C849 1.399 . S
C849 H835 0.929 . S
C849 C848 1.399 . S
C849 C850 1.385 . S
C850 H836 0.931 . S
C850 C849 1.385 . S
C850 C851 1.389 . S
C851 C850 1.389 . S
C851 C852 1.387 . S
C852 H837 0.930 . S
C852 C847 1.390 . S
C852 C851 1.387 . S
H853 C865 0.930 . S
H854 C867 0.930 . S
H855 C868 0.930 . S
H856 C872 0.959 . S
H857 C872 0.959 . S
H858 C872 0.961 . S
H859 C873 0.960 . S
H860 C873 0.961 . S
H861 C873 0.959 . S
H862 C876 0.929 . S
H863 C877 0.931 . S
H864 C879 0.930 . S
C865 H853 0.930 . S
C865 C866 1.399 . S
C865 C870 1.399 . S
C866 C865 1.399 . S
C866 C867 1.376 . S
C867 H854 0.930 . S
C867 C866 1.376 . S
C867 C868 1.388 . S
C868 H855 0.930 . S
C868 C867 1.388 . S
C868 C869 1.390 . S
C869 C868 1.390 . S
C869 C870 1.394 . S
C869 C875 1.465 . S
C870 C865 1.399 . S
C870 C869 1.394 . S
C870 C871 1.516 . S
C871 C870 1.516 . S
C871 C872 1.502 . S
C871 C873 1.561 . S
C871 C874 1.526 . S
C872 H856 0.959 . S
C872 H857 0.959 . S
C872 H858 0.961 . S
C872 C871 1.502 . S
C873 H859 0.960 . S
C873 H860 0.961 . S
C873 H861 0.959 . S
C873 C871 1.561 . S
C874 C871 1.526 . S
C874 C875 1.396 . S
C874 C879 1.390 . S
C875 C869 1.465 . S
C875 C874 1.396 . S
C875 C876 1.399 . S
C876 H862 0.929 . S
C876 C875 1.399 . S
C876 C877 1.385 . S
C877 H863 0.931 . S
C877 C876 1.385 . S
C877 C878 1.389 . S
C878 C877 1.389 . S
C878 C879 1.387 . S
C879 H864 0.930 . S
C879 C874 1.390 . S
C879 C878 1.387 . S
H880 C892 0.930 . S
H881 C894 0.930 . S
H882 C895 0.930 . S
H883 C899 0.959 . S
H884 C899 0.959 . S
H885 C899 0.961 . S
H886 C900 0.960 . S
H887 C900 0.961 . S
H888 C900 0.959 . S
H889 C903 0.929 . S
H890 C904 0.931 . S
H891 C906 0.930 . S
C892 H880 0.930 . S
C892 C893 1.399 . S
C892 C897 1.399 . S
C893 C892 1.399 . S
C893 C894 1.376 . S
C894 H881 0.930 . S
C894 C893 1.376 . S
C894 C895 1.388 . S
C895 H882 0.930 . S
C895 C894 1.388 . S
C895 C896 1.390 . S
C896 C895 1.390 . S
C896 C897 1.394 . S
C896 C902 1.465 . S
C897 C892 1.399 . S
C897 C896 1.394 . S
C897 C898 1.516 . S
C898 C897 1.516 . S
C898 C899 1.502 . S
C898 C900 1.561 . S
C898 C901 1.526 . S
C899 H883 0.959 . S
C899 H884 0.959 . S
C899 H885 0.961 . S
C899 C898 1.502 . S
C900 H886 0.960 . S
C900 H887 0.961 . S
C900 H888 0.959 . S
C900 C898 1.561 . S
C901 C898 1.526 . S
C901 C902 1.396 . S
C901 C906 1.390 . S
C902 C896 1.465 . S
C902 C901 1.396 . S
C902 C903 1.399 . S
C903 H889 0.929 . S
C903 C902 1.399 . S
C903 C904 1.385 . S
C904 H890 0.931 . S
C904 C903 1.385 . S
C904 C905 1.389 . S
C905 C904 1.389 . S
C905 C906 1.387 . S
C906 H891 0.930 . S
C906 C901 1.390 . S
C906 C905 1.387 . S
H907 C919 0.930 . S
H908 C921 0.930 . S
H909 C922 0.930 . S
H910 C926 0.959 . S
H911 C926 0.959 . S
H912 C926 0.961 . S
H913 C927 0.960 . S
H914 C927 0.961 . S
H915 C927 0.959 . S
H916 C930 0.929 . S
H917 C931 0.931 . S
H918 C933 0.930 . S
C919 H907 0.930 . S
C919 C920 1.399 . S
C919 C924 1.399 . S
C920 C919 1.399 . S
C920 C921 1.376 . S
C921 H908 0.930 . S
C921 C920 1.376 . S
C921 C922 1.388 . S
C922 H909 0.930 . S
C922 C921 1.388 . S
C922 C923 1.390 . S
C923 C922 1.390 . S
C923 C924 1.394 . S
C923 C929 1.465 . S
C924 C919 1.399 . S
C924 C923 1.394 . S
C924 C925 1.516 . S
C925 C924 1.516 . S
C925 C926 1.502 . S
C925 C927 1.561 . S
C925 C928 1.526 . S
C926 H910 0.959 . S
C926 H911 0.959 . S
C926 H912 0.961 . S
C926 C925 1.502 . S
C927 H913 0.960 . S
C927 H914 0.961 . S
C927 H915 0.959 . S
C927 C925 1.561 . S
C928 C925 1.526 . S
C928 C929 1.396 . S
C928 C933 1.390 1_655 S
C929 C923 1.465 . S
C929 C928 1.396 . S
C929 C930 1.399 . S
C930 H916 0.929 . S
C930 C929 1.399 . S
C930 C931 1.385 1_655 S
C931 H917 0.931 . S
C931 C930 1.385 1_455 S
C931 C932 1.389 . S
C932 C931 1.389 . S
C932 C933 1.387 . S
C933 H918 0.930 . S
C933 C928 1.390 1_455 S
C933 C932 1.387 . S
H934 C946 0.930 . S
H935 C948 0.930 . S
H936 C949 0.930 . S
H937 C953 0.959 . S
H938 C953 0.959 . S
H939 C953 0.961 . S
H940 C954 0.960 . S
H941 C954 0.961 . S
H942 C954 0.959 . S
H943 C957 0.929 . S
H944 C958 0.931 . S
H945 C960 0.930 . S
C946 H934 0.930 . S
C946 C947 1.399 . S
C946 C951 1.399 . S
C947 C946 1.399 . S
C947 C948 1.376 . S
C948 H935 0.930 . S
C948 C947 1.376 . S
C948 C949 1.388 . S
C949 H936 0.930 . S
C949 C948 1.388 . S
C949 C950 1.390 . S
C950 C949 1.390 . S
C950 C951 1.394 . S
C950 C956 1.465 . S
C951 C946 1.399 . S
C951 C950 1.394 . S
C951 C952 1.516 . S
C952 C951 1.516 . S
C952 C953 1.502 . S
C952 C954 1.561 . S
C952 C955 1.526 . S
C953 H937 0.959 . S
C953 H938 0.959 . S
C953 H939 0.961 . S
C953 C952 1.502 . S
C954 H940 0.960 . S
C954 H941 0.961 . S
C954 H942 0.959 . S
C954 C952 1.561 . S
C955 C952 1.526 . S
C955 C956 1.396 . S
C955 C960 1.390 . S
C956 C950 1.465 . S
C956 C955 1.396 . S
C956 C957 1.399 . S
C957 H943 0.929 . S
C957 C956 1.399 . S
C957 C958 1.385 . S
C958 H944 0.931 . S
C958 C957 1.385 . S
C958 C959 1.389 . S
C959 C958 1.389 . S
C959 C960 1.387 . S
C960 H945 0.930 . S
C960 C955 1.390 . S
C960 C959 1.387 . S
H961 C973 0.930 . S
H962 C975 0.930 . S
H963 C976 0.930 . S
H964 C980 0.959 . S
H965 C980 0.959 . S
H966 C980 0.961 . S
H967 C981 0.960 . S
H968 C981 0.961 . S
H969 C981 0.959 . S
H970 C984 0.929 . S
H971 C985 0.931 . S
H972 C987 0.930 . S
C973 H961 0.930 . S
C973 C974 1.399 . S
C973 C978 1.399 . S
C974 C973 1.399 . S
C974 C975 1.376 . S
C975 H962 0.930 . S
C975 C974 1.376 . S
C975 C976 1.388 . S
C976 H963 0.930 . S
C976 C975 1.388 . S
C976 C977 1.390 . S
C977 C976 1.390 . S
C977 C978 1.394 . S
C977 C983 1.465 . S
C978 C973 1.399 . S
C978 C977 1.394 . S
C978 C979 1.516 . S
C979 C978 1.516 . S
C979 C980 1.502 . S
C979 C981 1.561 . S
C979 C982 1.526 . S
C980 H964 0.959 . S
C980 H965 0.959 . S
C980 H966 0.961 . S
C980 C979 1.502 . S
C981 H967 0.960 . S
C981 H968 0.961 . S
C981 H969 0.959 . S
C981 C979 1.561 . S
C982 C979 1.526 . S
C982 C983 1.396 . S
C982 C987 1.390 . S
C983 C977 1.465 . S
C983 C982 1.396 . S
C983 C984 1.399 . S
C984 H970 0.929 . S
C984 C983 1.399 . S
C984 C985 1.385 . S
C985 H971 0.931 . S
C985 C984 1.385 . S
C985 C986 1.389 . S
C986 C985 1.389 . S
C986 C987 1.387 . S
C987 H972 0.930 . S
C987 C982 1.390 . S
C987 C986 1.387 . S
H988 C1000 0.930 . S
H989 C1002 0.930 . S
H990 C1003 0.930 . S
H991 C1007 0.959 . S
H992 C1007 0.959 . S
H993 C1007 0.961 . S
H994 C1008 0.960 . S
H995 C1008 0.961 . S
H996 C1008 0.959 . S
H997 C1011 0.929 . S
H998 C1012 0.931 . S
H999 C1014 0.930 . S
C1000 H988 0.930 . S
C1000 C1001 1.399 . S
C1000 C1005 1.399 . S
C1001 C1000 1.399 . S
C1001 C1002 1.376 . S
C1002 H989 0.930 . S
C1002 C1001 1.376 . S
C1002 C1003 1.388 . S
C1003 H990 0.930 . S
C1003 C1002 1.388 . S
C1003 C1004 1.390 . S
C1004 C1003 1.390 . S
C1004 C1005 1.394 . S
C1004 C1010 1.465 . S
C1005 C1000 1.399 . S
C1005 C1004 1.394 . S
C1005 C1006 1.516 . S
C1006 C1005 1.516 . S
C1006 C1007 1.502 . S
C1006 C1008 1.561 . S
C1006 C1009 1.526 . S
C1007 H991 0.959 . S
C1007 H992 0.959 . S
C1007 H993 0.961 . S
C1007 C1006 1.502 . S
C1008 H994 0.960 . S
C1008 H995 0.961 . S
C1008 H996 0.959 . S
C1008 C1006 1.561 . S
C1009 C1006 1.526 . S
C1009 C1010 1.396 . S
C1009 C1014 1.390 . S
C1010 C1004 1.465 . S
C1010 C1009 1.396 . S
C1010 C1011 1.399 . S
C1011 H997 0.929 . S
C1011 C1010 1.399 . S
C1011 C1012 1.385 . S
C1012 H998 0.931 . S
C1012 C1011 1.385 . S
C1012 C1013 1.389 . S
C1013 C1012 1.389 . S
C1013 C1014 1.387 . S
C1014 H999 0.930 . S
C1014 C1009 1.390 . S
C1014 C1013 1.387 . S
H1015 C1027 0.930 . S
H1016 C1029 0.930 . S
H1017 C1030 0.930 . S
H1018 C1034 0.959 . S
H1019 C1034 0.959 . S
H1020 C1034 0.961 . S
H1021 C1035 0.960 . S
H1022 C1035 0.961 . S
H1023 C1035 0.959 . S
H1024 C1038 0.929 . S
H1025 C1039 0.931 . S
H1026 C1041 0.930 . S
C1027 H1015 0.930 . S
C1027 C1028 1.399 . S
C1027 C1032 1.399 . S
C1028 C1027 1.399 . S
C1028 C1029 1.376 . S
C1029 H1016 0.930 . S
C1029 C1028 1.376 . S
C1029 C1030 1.388 . S
C1030 H1017 0.930 . S
C1030 C1029 1.388 . S
C1030 C1031 1.390 . S
C1031 C1030 1.390 . S
C1031 C1032 1.394 . S
C1031 C1037 1.465 . S
C1032 C1027 1.399 . S
C1032 C1031 1.394 . S
C1032 C1033 1.516 . S
C1033 C1032 1.516 . S
C1033 C1034 1.502 . S
C1033 C1035 1.561 . S
C1033 C1036 1.526 . S
C1034 H1018 0.959 . S
C1034 H1019 0.959 . S
C1034 H1020 0.961 . S
C1034 C1033 1.502 . S
C1035 H1021 0.960 . S
C1035 H1022 0.961 . S
C1035 H1023 0.959 . S
C1035 C1033 1.561 . S
C1036 C1033 1.526 . S
C1036 C1037 1.396 . S
C1036 C1041 1.390 . S
C1037 C1031 1.465 . S
C1037 C1036 1.396 . S
C1037 C1038 1.399 . S
C1038 H1024 0.929 . S
C1038 C1037 1.399 . S
C1038 C1039 1.385 . S
C1039 H1025 0.931 . S
C1039 C1038 1.385 . S
C1039 C1040 1.389 . S
C1040 C1039 1.389 . S
C1040 C1041 1.387 . S
C1041 H1026 0.930 . S
C1041 C1036 1.390 . S
C1041 C1040 1.387 . S
H1042 C1054 0.930 . S
H1043 C1056 0.930 . S
H1044 C1057 0.930 . S
H1045 C1061 0.959 . S
H1046 C1061 0.959 . S
H1047 C1061 0.961 . S
H1048 C1062 0.960 . S
H1049 C1062 0.961 . S
H1050 C1062 0.959 . S
H1051 C1065 0.929 . S
H1052 C1066 0.931 . S
H1053 C1068 0.930 . S
C1054 H1042 0.930 . S
C1054 C1055 1.399 . S
C1054 C1059 1.399 . S
C1055 C1054 1.399 . S
C1055 C1056 1.376 . S
C1056 H1043 0.930 . S
C1056 C1055 1.376 . S
C1056 C1057 1.388 . S
C1057 H1044 0.930 . S
C1057 C1056 1.388 . S
C1057 C1058 1.390 . S
C1058 C1057 1.390 . S
C1058 C1059 1.394 . S
C1058 C1064 1.465 . S
C1059 C1054 1.399 . S
C1059 C1058 1.394 . S
C1059 C1060 1.516 . S
C1060 C1059 1.516 . S
C1060 C1061 1.502 . S
C1060 C1062 1.561 . S
C1060 C1063 1.526 . S
C1061 H1045 0.959 . S
C1061 H1046 0.959 . S
C1061 H1047 0.961 . S
C1061 C1060 1.502 . S
C1062 H1048 0.960 . S
C1062 H1049 0.961 . S
C1062 H1050 0.959 . S
C1062 C1060 1.561 . S
C1063 C1060 1.526 . S
C1063 C1064 1.396 . S
C1063 C1068 1.390 . S
C1064 C1058 1.465 . S
C1064 C1063 1.396 . S
C1064 C1065 1.399 . S
C1065 H1051 0.929 . S
C1065 C1064 1.399 . S
C1065 C1066 1.385 . S
C1066 H1052 0.931 . S
C1066 C1065 1.385 . S
C1066 C1067 1.389 . S
C1067 C1066 1.389 . S
C1067 C1068 1.387 . S
C1068 H1053 0.930 . S
C1068 C1063 1.390 . S
C1068 C1067 1.387 . S
H1069 C1081 0.930 . S
H1070 C1083 0.936 . S
H1071 C1084 0.930 . S
H1072 C1088 0.959 . S
H1073 C1088 0.959 . S
H1074 C1088 0.961 . S
H1075 C1089 0.960 . S
H1076 C1089 0.961 . S
H1077 C1089 0.959 . S
H1078 C1092 0.929 . S
H1079 C1093 0.931 . S
H1080 C1095 0.930 . S
C1081 H1069 0.930 . S
C1081 C1082 1.399 . S
C1081 C1086 1.399 1_455 S
C1082 C1081 1.399 . S
C1082 C1083 1.385 . S
C1083 H1070 0.936 . S
C1083 C1082 1.385 . S
C1083 C1084 1.374 1_455 S
C1084 H1071 0.930 . S
C1084 C1083 1.374 1_655 S
C1084 C1085 1.390 . S
C1085 C1084 1.390 . S
C1085 C1086 1.394 . S
C1085 C1091 1.465 . S
C1086 C1081 1.399 1_655 S
C1086 C1085 1.394 . S
C1086 C1087 1.516 . S
C1087 C1086 1.516 . S
C1087 C1088 1.502 . S
C1087 C1089 1.561 . S
C1087 C1090 1.526 . S
C1088 H1072 0.959 . S
C1088 H1073 0.959 . S
C1088 H1074 0.961 . S
C1088 C1087 1.502 . S
C1089 H1075 0.960 . S
C1089 H1076 0.961 . S
C1089 H1077 0.959 . S
C1089 C1087 1.561 . S
C1090 C1087 1.526 . S
C1090 C1091 1.396 . S
C1090 C1095 1.390 . S
C1091 C1085 1.465 . S
C1091 C1090 1.396 . S
C1091 C1092 1.399 . S
C1092 H1078 0.929 . S
C1092 C1091 1.399 . S
C1092 C1093 1.385 . S
C1093 H1079 0.931 . S
C1093 C1092 1.385 . S
C1093 C1094 1.389 . S
C1094 C1093 1.389 . S
C1094 C1095 1.387 . S
C1095 H1080 0.930 . S
C1095 C1090 1.390 . S
C1095 C1094 1.387 . S
H1096 C1108 0.930 . S
H1097 C1110 0.930 . S
H1098 C1111 0.930 . S
H1099 C1115 0.959 . S
H1100 C1115 0.959 . S
H1101 C1115 0.961 . S
H1102 C1116 0.960 . S
H1103 C1116 0.961 . S
H1104 C1116 0.959 . S
H1105 C1119 0.929 . S
H1106 C1120 0.931 . S
H1107 C1122 0.930 . S
C1108 H1096 0.930 . S
C1108 C1109 1.399 . S
C1108 C1113 1.399 . S
C1109 C1108 1.399 . S
C1109 C1110 1.376 . S
C1110 H1097 0.930 . S
C1110 C1109 1.376 . S
C1110 C1111 1.388 . S
C1111 H1098 0.930 . S
C1111 C1110 1.388 . S
C1111 C1112 1.390 . S
C1112 C1111 1.390 . S
C1112 C1113 1.394 . S
C1112 C1118 1.465 . S
C1113 C1108 1.399 . S
C1113 C1112 1.394 . S
C1113 C1114 1.516 . S
C1114 C1113 1.516 . S
C1114 C1115 1.502 . S
C1114 C1116 1.561 . S
C1114 C1117 1.526 . S
C1115 H1099 0.959 . S
C1115 H1100 0.959 . S
C1115 H1101 0.961 . S
C1115 C1114 1.502 . S
C1116 H1102 0.960 . S
C1116 H1103 0.961 . S
C1116 H1104 0.959 . S
C1116 C1114 1.561 . S
C1117 C1114 1.526 . S
C1117 C1118 1.396 . S
C1117 C1122 1.390 . S
C1118 C1112 1.465 . S
C1118 C1117 1.396 . S
C1118 C1119 1.399 . S
C1119 H1105 0.929 . S
C1119 C1118 1.399 . S
C1119 C1120 1.385 . S
C1120 H1106 0.931 . S
C1120 C1119 1.385 . S
C1120 C1121 1.389 . S
C1121 C1120 1.389 . S
C1121 C1122 1.387 . S
C1122 H1107 0.930 . S
C1122 C1117 1.390 . S
C1122 C1121 1.387 . S
H1123 C1135 0.930 . S
H1124 C1137 0.930 . S
H1125 C1138 0.930 . S
H1126 C1142 0.959 . S
H1127 C1142 0.959 . S
H1128 C1142 0.961 . S
H1129 C1143 0.960 . S
H1130 C1143 0.961 . S
H1131 C1143 0.959 . S
H1132 C1146 0.929 . S
H1133 C1147 0.931 . S
H1134 C1149 0.930 . S
C1135 H1123 0.930 . S
C1135 C1136 1.399 . S
C1135 C1140 1.399 1_655 S
C1136 C1135 1.399 . S
C1136 C1137 1.376 . S
C1137 H1124 0.930 . S
C1137 C1136 1.376 . S
C1137 C1138 1.388 1_655 S
C1138 H1125 0.930 . S
C1138 C1137 1.388 1_455 S
C1138 C1139 1.390 . S
C1139 C1138 1.390 . S
C1139 C1140 1.394 . S
C1139 C1145 1.465 . S
C1140 C1135 1.399 1_455 S
C1140 C1139 1.394 . S
C1140 C1141 1.516 . S
C1141 C1140 1.516 . S
C1141 C1142 1.502 . S
C1141 C1143 1.561 . S
C1141 C1144 1.526 . S
C1142 H1126 0.959 . S
C1142 H1127 0.959 . S
C1142 H1128 0.961 . S
C1142 C1141 1.502 . S
C1143 H1129 0.960 . S
C1143 H1130 0.961 . S
C1143 H1131 0.959 . S
C1143 C1141 1.561 . S
C1144 C1141 1.526 . S
C1144 C1145 1.396 . S
C1144 C1149 1.390 . S
C1145 C1139 1.465 . S
C1145 C1144 1.396 . S
C1145 C1146 1.399 . S
C1146 H1132 0.929 . S
C1146 C1145 1.399 . S
C1146 C1147 1.385 . S
C1147 H1133 0.931 . S
C1147 C1146 1.385 . S
C1147 C1148 1.389 . S
C1148 C1147 1.389 . S
C1148 C1149 1.387 . S
C1149 H1134 0.930 . S
C1149 C1144 1.390 . S
C1149 C1148 1.387 . S
H1150 C1162 0.930 . S
H1151 C1164 0.930 . S
H1152 C1165 0.930 . S
H1153 C1169 0.959 . S
H1154 C1169 0.959 . S
H1155 C1169 0.961 . S
H1156 C1170 0.960 . S
H1157 C1170 0.961 . S
H1158 C1170 0.959 . S
H1159 C1173 0.929 . S
H1160 C1174 0.931 . S
H1161 C1176 0.930 . S
C1162 H1150 0.930 . S
C1162 C1163 1.399 . S
C1162 C1167 1.399 . S
C1163 C1162 1.399 . S
C1163 C1164 1.376 . S
C1164 H1151 0.930 . S
C1164 C1163 1.376 . S
C1164 C1165 1.388 . S
C1165 H1152 0.930 . S
C1165 C1164 1.388 . S
C1165 C1166 1.390 . S
C1166 C1165 1.390 . S
C1166 C1167 1.394 . S
C1166 C1172 1.465 . S
C1167 C1162 1.399 . S
C1167 C1166 1.394 . S
C1167 C1168 1.516 . S
C1168 C1167 1.516 . S
C1168 C1169 1.502 . S
C1168 C1170 1.561 . S
C1168 C1171 1.526 . S
C1169 H1153 0.959 . S
C1169 H1154 0.959 . S
C1169 H1155 0.961 . S
C1169 C1168 1.502 . S
C1170 H1156 0.960 . S
C1170 H1157 0.961 . S
C1170 H1158 0.959 . S
C1170 C1168 1.561 . S
C1171 C1168 1.526 . S
C1171 C1172 1.396 . S
C1171 C1176 1.390 . S
C1172 C1166 1.465 . S
C1172 C1171 1.396 . S
C1172 C1173 1.399 . S
C1173 H1159 0.929 . S
C1173 C1172 1.399 . S
C1173 C1174 1.385 . S
C1174 H1160 0.931 . S
C1174 C1173 1.385 . S
C1174 C1175 1.389 . S
C1175 C1174 1.389 . S
C1175 C1176 1.387 . S
C1176 H1161 0.930 . S
C1176 C1171 1.390 . S
C1176 C1175 1.387 . S
H1177 C1189 0.930 . S
H1178 C1191 0.930 . S
H1179 C1192 0.930 . S
H1180 C1196 0.959 . S
H1181 C1196 0.959 . S
H1182 C1196 0.961 . S
H1183 C1197 0.960 . S
H1184 C1197 0.961 . S
H1185 C1197 0.959 . S
H1186 C1200 0.929 . S
H1187 C1201 0.931 . S
H1188 C1203 0.930 . S
C1189 H1177 0.930 . S
C1189 C1190 1.399 . S
C1189 C1194 1.399 . S
C1190 C1189 1.399 . S
C1190 C1191 1.376 . S
C1191 H1178 0.930 . S
C1191 C1190 1.376 . S
C1191 C1192 1.388 . S
C1192 H1179 0.930 . S
C1192 C1191 1.388 . S
C1192 C1193 1.390 . S
C1193 C1192 1.390 . S
C1193 C1194 1.394 . S
C1193 C1199 1.465 . S
C1194 C1189 1.399 . S
C1194 C1193 1.394 . S
C1194 C1195 1.516 . S
C1195 C1194 1.516 . S
C1195 C1196 1.502 . S
C1195 C1197 1.561 . S
C1195 C1198 1.526 . S
C1196 H1180 0.959 . S
C1196 H1181 0.959 . S
C1196 H1182 0.961 . S
C1196 C1195 1.502 . S
C1197 H1183 0.960 . S
C1197 H1184 0.961 . S
C1197 H1185 0.959 . S
C1197 C1195 1.561 . S
C1198 C1195 1.526 . S
C1198 C1199 1.396 . S
C1198 C1203 1.390 . S
C1199 C1193 1.465 . S
C1199 C1198 1.396 . S
C1199 C1200 1.399 . S
C1200 H1186 0.929 . S
C1200 C1199 1.399 . S
C1200 C1201 1.385 . S
C1201 H1187 0.931 . S
C1201 C1200 1.385 . S
C1201 C1202 1.389 . S
C1202 C1201 1.389 . S
C1202 C1203 1.387 . S
C1203 H1188 0.930 . S
C1203 C1198 1.390 . S
C1203 C1202 1.387 . S
H1204 C1216 0.930 . S
H1205 C1218 0.930 . S
H1206 C1219 0.930 . S
H1207 C1223 0.959 . S
H1208 C1223 0.959 . S
H1209 C1223 0.961 . S
H1210 C1224 0.960 . S
H1211 C1224 0.961 . S
H1212 C1224 0.959 . S
H1213 C1227 0.929 . S
H1214 C1228 0.931 . S
H1215 C1230 0.930 . S
C1216 H1204 0.930 . S
C1216 C1217 1.399 . S
C1216 C1221 1.399 . S
C1217 C1216 1.399 . S
C1217 C1218 1.376 . S
C1218 H1205 0.930 . S
C1218 C1217 1.376 . S
C1218 C1219 1.388 . S
C1219 H1206 0.930 . S
C1219 C1218 1.388 . S
C1219 C1220 1.390 . S
C1220 C1219 1.390 . S
C1220 C1221 1.394 . S
C1220 C1226 1.465 . S
C1221 C1216 1.399 . S
C1221 C1220 1.394 . S
C1221 C1222 1.516 . S
C1222 C1221 1.516 . S
C1222 C1223 1.502 . S
C1222 C1224 1.561 . S
C1222 C1225 1.526 . S
C1223 H1207 0.959 . S
C1223 H1208 0.959 . S
C1223 H1209 0.961 . S
C1223 C1222 1.502 . S
C1224 H1210 0.960 . S
C1224 H1211 0.961 . S
C1224 H1212 0.959 . S
C1224 C1222 1.561 . S
C1225 C1222 1.526 . S
C1225 C1226 1.396 . S
C1225 C1230 1.390 . S
C1226 C1220 1.465 . S
C1226 C1225 1.396 . S
C1226 C1227 1.399 . S
C1227 H1213 0.929 . S
C1227 C1226 1.399 . S
C1227 C1228 1.385 . S
C1228 H1214 0.931 . S
C1228 C1227 1.385 . S
C1228 C1229 1.389 . S
C1229 C1228 1.389 . S
C1229 C1230 1.387 . S
C1230 H1215 0.930 . S
C1230 C1225 1.390 . S
C1230 C1229 1.387 . S
H1231 C1243 0.930 . S
H1232 C1245 0.930 . S
H1233 C1246 0.930 . S
H1234 C1250 0.959 . S
H1235 C1250 0.959 . S
H1236 C1250 0.961 . S
H1237 C1251 0.960 . S
H1238 C1251 0.961 . S
H1239 C1251 0.959 . S
H1240 C1254 0.929 . S
H1241 C1255 0.931 . S
H1242 C1257 0.930 . S
C1243 H1231 0.930 . S
C1243 C1244 1.399 . S
C1243 C1248 1.399 . S
C1244 C1243 1.399 . S
C1244 C1245 1.376 . S
C1245 H1232 0.930 . S
C1245 C1244 1.376 . S
C1245 C1246 1.388 . S
C1246 H1233 0.930 . S
C1246 C1245 1.388 . S
C1246 C1247 1.390 . S
C1247 C1246 1.390 . S
C1247 C1248 1.394 . S
C1247 C1253 1.465 . S
C1248 C1243 1.399 . S
C1248 C1247 1.394 . S
C1248 C1249 1.516 . S
C1249 C1248 1.516 . S
C1249 C1250 1.502 . S
C1249 C1251 1.561 . S
C1249 C1252 1.526 . S
C1250 H1234 0.959 . S
C1250 H1235 0.959 . S
C1250 H1236 0.961 . S
C1250 C1249 1.502 . S
C1251 H1237 0.960 . S
C1251 H1238 0.961 . S
C1251 H1239 0.959 . S
C1251 C1249 1.561 . S
C1252 C1249 1.526 . S
C1252 C1253 1.396 . S
C1252 C1257 1.390 . S
C1253 C1247 1.465 . S
C1253 C1252 1.396 . S
C1253 C1254 1.399 . S
C1254 H1240 0.929 . S
C1254 C1253 1.399 . S
C1254 C1255 1.385 . S
C1255 H1241 0.931 . S
C1255 C1254 1.385 . S
C1255 C1256 1.389 . S
C1256 C1255 1.389 . S
C1256 C1257 1.387 . S
C1257 H1242 0.930 . S
C1257 C1252 1.390 . S
C1257 C1256 1.387 . S
H1258 C1270 0.930 . S
H1259 C1272 0.930 . S
H1260 C1273 0.930 . S
H1261 C1277 0.959 . S
H1262 C1277 0.959 . S
H1263 C1277 0.961 . S
H1264 C1278 0.960 . S
H1265 C1278 0.961 . S
H1266 C1278 0.959 . S
H1267 C1281 0.929 . S
H1268 C1282 0.931 . S
H1269 C1284 0.930 . S
C1270 H1258 0.930 . S
C1270 C1271 1.399 . S
C1270 C1275 1.399 . S
C1271 C1270 1.399 . S
C1271 C1272 1.376 . S
C1272 H1259 0.930 . S
C1272 C1271 1.376 . S
C1272 C1273 1.388 . S
C1273 H1260 0.930 . S
C1273 C1272 1.388 . S
C1273 C1274 1.390 . S
C1274 C1273 1.390 . S
C1274 C1275 1.394 . S
C1274 C1280 1.465 . S
C1275 C1270 1.399 . S
C1275 C1274 1.394 . S
C1275 C1276 1.516 . S
C1276 C1275 1.516 . S
C1276 C1277 1.502 . S
C1276 C1278 1.561 . S
C1276 C1279 1.526 . S
C1277 H1261 0.959 . S
C1277 H1262 0.959 . S
C1277 H1263 0.961 . S
C1277 C1276 1.502 . S
C1278 H1264 0.960 . S
C1278 H1265 0.961 . S
C1278 H1266 0.959 . S
C1278 C1276 1.561 . S
C1279 C1276 1.526 . S
C1279 C1280 1.396 . S
C1279 C1284 1.390 . S
C1280 C1274 1.465 . S
C1280 C1279 1.396 . S
C1280 C1281 1.399 . S
C1281 H1267 0.929 . S
C1281 C1280 1.399 . S
C1281 C1282 1.385 . S
C1282 H1268 0.931 . S
C1282 C1281 1.385 . S
C1282 C1283 1.389 . S
C1283 C1282 1.389 . S
C1283 C1284 1.387 . S
C1284 H1269 0.930 . S
C1284 C1279 1.390 . S
C1284 C1283 1.387 . S
H1285 C1297 0.930 . S
H1286 C1299 0.930 . S
H1287 C1300 0.930 . S
H1288 C1304 0.959 . S
H1289 C1304 0.959 . S
H1290 C1304 0.961 . S
H1291 C1305 0.960 . S
H1292 C1305 0.961 . S
H1293 C1305 0.959 . S
H1294 C1308 0.929 . S
H1295 C1309 0.931 . S
H1296 C1311 0.928 1_655 S
C1297 H1285 0.930 . S
C1297 C1298 1.399 . S
C1297 C1302 1.399 . S
C1298 C1297 1.399 . S
C1298 C1299 1.376 . S
C1299 H1286 0.930 . S
C1299 C1298 1.376 . S
C1299 C1300 1.388 . S
C1300 H1287 0.930 . S
C1300 C1299 1.388 . S
C1300 C1301 1.390 . S
C1301 C1300 1.390 . S
C1301 C1302 1.394 . S
C1301 C1307 1.465 . S
C1302 C1297 1.399 . S
C1302 C1301 1.394 . S
C1302 C1303 1.516 . S
C1303 C1302 1.516 . S
C1303 C1304 1.502 . S
C1303 C1305 1.561 . S
C1303 C1306 1.526 . S
C1304 H1288 0.959 . S
C1304 H1289 0.959 . S
C1304 H1290 0.961 . S
C1304 C1303 1.502 . S
C1305 H1291 0.960 . S
C1305 H1292 0.961 . S
C1305 H1293 0.959 . S
C1305 C1303 1.561 . S
C1306 C1303 1.526 . S
C1306 C1307 1.396 . S
C1306 C1311 1.400 . S
C1307 C1301 1.465 . S
C1307 C1306 1.396 . S
C1307 C1308 1.399 . S
C1308 H1294 0.929 . S
C1308 C1307 1.399 . S
C1308 C1309 1.385 1_455 S
C1309 H1295 0.931 . S
C1309 C1308 1.385 1_655 S
C1309 C1310 1.389 . S
C1310 C1309 1.389 . S
C1310 C1311 1.378 1_655 S
C1311 H1296 0.928 1_455 S
C1311 C1306 1.400 . S
C1311 C1310 1.378 1_455 S
H1312 C1324 0.930 . S
H1313 C1326 0.930 . S
H1314 C1327 0.930 . S
H1315 C1331 0.959 . S
H1316 C1331 0.959 . S
H1317 C1331 0.961 . S
H1318 C1332 0.960 . S
H1319 C1332 0.961 . S
H1320 C1332 0.959 . S
H1321 C1335 0.929 . S
H1322 C1336 0.931 . S
H1323 C1338 0.930 . S
C1324 H1312 0.930 . S
C1324 C1325 1.399 . S
C1324 C1329 1.399 . S
C1325 C1324 1.399 . S
C1325 C1326 1.376 . S
C1326 H1313 0.930 . S
C1326 C1325 1.376 . S
C1326 C1327 1.388 . S
C1327 H1314 0.930 . S
C1327 C1326 1.388 . S
C1327 C1328 1.390 . S
C1328 C1327 1.390 . S
C1328 C1329 1.394 . S
C1328 C1334 1.465 . S
C1329 C1324 1.399 . S
C1329 C1328 1.394 . S
C1329 C1330 1.516 . S
C1330 C1329 1.516 . S
C1330 C1331 1.502 . S
C1330 C1332 1.561 . S
C1330 C1333 1.526 . S
C1331 H1315 0.959 . S
C1331 H1316 0.959 . S
C1331 H1317 0.961 . S
C1331 C1330 1.502 . S
C1332 H1318 0.960 . S
C1332 H1319 0.961 . S
C1332 H1320 0.959 . S
C1332 C1330 1.561 . S
C1333 C1330 1.526 . S
C1333 C1334 1.396 . S
C1333 C1338 1.390 . S
C1334 C1328 1.465 . S
C1334 C1333 1.396 . S
C1334 C1335 1.399 . S
C1335 H1321 0.929 . S
C1335 C1334 1.399 . S
C1335 C1336 1.385 . S
C1336 H1322 0.931 . S
C1336 C1335 1.385 . S
C1336 C1337 1.389 . S
C1337 C1336 1.389 . S
C1337 C1338 1.387 . S
C1338 H1323 0.930 . S
C1338 C1333 1.390 . S
C1338 C1337 1.387 . S
H1339 C1351 0.930 . S
H1340 C1353 0.930 . S
H1341 C1354 0.930 . S
H1342 C1358 0.959 . S
H1343 C1358 0.959 . S
H1344 C1358 0.961 . S
H1345 C1359 0.960 . S
H1346 C1359 0.961 . S
H1347 C1359 0.959 . S
H1348 C1362 0.929 . S
H1349 C1363 0.931 . S
H1350 C1365 0.930 . S
C1351 H1339 0.930 . S
C1351 C1352 1.399 . S
C1351 C1356 1.399 . S
C1352 C1351 1.399 . S
C1352 C1353 1.376 . S
C1353 H1340 0.930 . S
C1353 C1352 1.376 . S
C1353 C1354 1.388 . S
C1354 H1341 0.930 . S
C1354 C1353 1.388 . S
C1354 C1355 1.390 . S
C1355 C1354 1.390 . S
C1355 C1356 1.394 . S
C1355 C1361 1.465 . S
C1356 C1351 1.399 . S
C1356 C1355 1.394 . S
C1356 C1357 1.516 . S
C1357 C1356 1.516 . S
C1357 C1358 1.502 . S
C1357 C1359 1.561 . S
C1357 C1360 1.526 . S
C1358 H1342 0.959 . S
C1358 H1343 0.959 . S
C1358 H1344 0.961 . S
C1358 C1357 1.502 . S
C1359 H1345 0.960 . S
C1359 H1346 0.961 . S
C1359 H1347 0.959 . S
C1359 C1357 1.561 . S
C1360 C1357 1.526 . S
C1360 C1361 1.396 . S
C1360 C1365 1.390 . S
C1361 C1355 1.465 . S
C1361 C1360 1.396 . S
C1361 C1362 1.399 . S
C1362 H1348 0.929 . S
C1362 C1361 1.399 . S
C1362 C1363 1.385 . S
C1363 H1349 0.931 . S
C1363 C1362 1.385 . S
C1363 C1364 1.389 . S
C1364 C1363 1.389 . S
C1364 C1365 1.387 . S
C1365 H1350 0.930 . S
C1365 C1360 1.390 . S
C1365 C1364 1.387 . S
H1366 C1378 0.930 . S
H1367 C1380 0.930 . S
H1368 C1381 0.930 . S
H1369 C1385 0.959 . S
H1370 C1385 0.959 . S
H1371 C1385 0.961 . S
H1372 C1386 0.960 . S
H1373 C1386 0.961 . S
H1374 C1386 0.959 . S
H1375 C1389 0.929 . S
H1376 C1390 0.931 . S
H1377 C1392 0.930 . S
C1378 H1366 0.930 . S
C1378 C1379 1.399 . S
C1378 C1383 1.399 . S
C1379 C1378 1.399 . S
C1379 C1380 1.376 . S
C1380 H1367 0.930 . S
C1380 C1379 1.376 . S
C1380 C1381 1.388 . S
C1381 H1368 0.930 . S
C1381 C1380 1.388 . S
C1381 C1382 1.390 . S
C1382 C1381 1.390 . S
C1382 C1383 1.394 . S
C1382 C1388 1.465 . S
C1383 C1378 1.399 . S
C1383 C1382 1.394 . S
C1383 C1384 1.516 . S
C1384 C1383 1.516 . S
C1384 C1385 1.502 . S
C1384 C1386 1.561 . S
C1384 C1387 1.526 . S
C1385 H1369 0.959 . S
C1385 H1370 0.959 . S
C1385 H1371 0.961 . S
C1385 C1384 1.502 . S
C1386 H1372 0.960 . S
C1386 H1373 0.961 . S
C1386 H1374 0.959 . S
C1386 C1384 1.561 . S
C1387 C1384 1.526 . S
C1387 C1388 1.396 . S
C1387 C1392 1.390 . S
C1388 C1382 1.465 . S
C1388 C1387 1.396 . S
C1388 C1389 1.399 . S
C1389 H1375 0.929 . S
C1389 C1388 1.399 . S
C1389 C1390 1.385 . S
C1390 H1376 0.931 . S
C1390 C1389 1.385 . S
C1390 C1391 1.389 . S
C1391 C1390 1.389 . S
C1391 C1392 1.387 . S
C1392 H1377 0.930 . S
C1392 C1387 1.390 . S
C1392 C1391 1.387 . S
H1393 C1405 0.930 . S
H1394 C1407 0.930 . S
H1395 C1408 0.930 . S
H1396 C1412 0.959 . S
H1397 C1412 0.959 . S
H1398 C1412 0.961 . S
H1399 C1413 0.960 . S
H1400 C1413 0.961 . S
H1401 C1413 0.959 . S
H1402 C1416 0.929 . S
H1403 C1417 0.931 . S
H1404 C1419 0.930 . S
C1405 H1393 0.930 . S
C1405 C1406 1.399 . S
C1405 C1410 1.399 . S
C1406 C1405 1.399 . S
C1406 C1407 1.376 . S
C1407 H1394 0.930 . S
C1407 C1406 1.376 . S
C1407 C1408 1.388 . S
C1408 H1395 0.930 . S
C1408 C1407 1.388 . S
C1408 C1409 1.390 . S
C1409 C1408 1.390 . S
C1409 C1410 1.394 . S
C1409 C1415 1.465 . S
C1410 C1405 1.399 . S
C1410 C1409 1.394 . S
C1410 C1411 1.516 . S
C1411 C1410 1.516 . S
C1411 C1412 1.502 . S
C1411 C1413 1.561 . S
C1411 C1414 1.526 . S
C1412 H1396 0.959 . S
C1412 H1397 0.959 . S
C1412 H1398 0.961 . S
C1412 C1411 1.502 . S
C1413 H1399 0.960 . S
C1413 H1400 0.961 . S
C1413 H1401 0.959 . S
C1413 C1411 1.561 . S
C1414 C1411 1.526 . S
C1414 C1415 1.396 . S
C1414 C1419 1.390 1_455 S
C1415 C1409 1.465 . S
C1415 C1414 1.396 . S
C1415 C1416 1.399 . S
C1416 H1402 0.929 . S
C1416 C1415 1.399 . S
C1416 C1417 1.385 1_455 S
C1417 H1403 0.931 . S
C1417 C1416 1.385 1_655 S
C1417 C1418 1.389 . S
C1418 C1417 1.389 . S
C1418 C1419 1.387 . S
C1419 H1404 0.930 . S
C1419 C1414 1.390 1_655 S
C1419 C1418 1.387 . S
H1420 C1432 0.930 . S
H1421 C1434 0.930 . S
H1422 C1435 0.930 . S
H1423 C1439 0.959 . S
H1424 C1439 0.959 . S
H1425 C1439 0.961 . S
H1426 C1440 0.960 . S
H1427 C1440 0.961 . S
H1428 C1440 0.959 . S
H1429 C1443 0.929 . S
H1430 C1444 0.931 . S
H1431 C1446 0.930 . S
C1432 H1420 0.930 . S
C1432 C1433 1.399 . S
C1432 C1437 1.399 . S
C1433 C1432 1.399 . S
C1433 C1434 1.376 . S
C1434 H1421 0.930 . S
C1434 C1433 1.376 . S
C1434 C1435 1.388 . S
C1435 H1422 0.930 . S
C1435 C1434 1.388 . S
C1435 C1436 1.390 . S
C1436 C1435 1.390 . S
C1436 C1437 1.394 . S
C1436 C1442 1.465 . S
C1437 C1432 1.399 . S
C1437 C1436 1.394 . S
C1437 C1438 1.516 . S
C1438 C1437 1.516 . S
C1438 C1439 1.502 . S
C1438 C1440 1.561 . S
C1438 C1441 1.526 . S
C1439 H1423 0.959 . S
C1439 H1424 0.959 . S
C1439 H1425 0.961 . S
C1439 C1438 1.502 . S
C1440 H1426 0.960 . S
C1440 H1427 0.961 . S
C1440 H1428 0.959 . S
C1440 C1438 1.561 . S
C1441 C1438 1.526 . S
C1441 C1442 1.396 . S
C1441 C1446 1.390 . S
C1442 C1436 1.465 . S
C1442 C1441 1.396 . S
C1442 C1443 1.399 . S
C1443 H1429 0.929 . S
C1443 C1442 1.399 . S
C1443 C1444 1.385 . S
C1444 H1430 0.931 . S
C1444 C1443 1.385 . S
C1444 C1445 1.389 . S
C1445 C1444 1.389 . S
C1445 C1446 1.387 . S
C1446 H1431 0.930 . S
C1446 C1441 1.390 . S
C1446 C1445 1.387 . S
H1447 C1459 0.930 . S
H1448 C1461 0.930 . S
H1449 C1462 0.930 . S
H1450 C1466 0.959 . S
H1451 C1466 0.959 . S
H1452 C1466 0.961 . S
H1453 C1467 0.960 . S
H1454 C1467 0.961 . S
H1455 C1467 0.959 . S
H1456 C1470 0.929 . S
H1457 C1471 0.931 . S
H1458 C1473 0.930 . S
C1459 H1447 0.930 . S
C1459 C1460 1.399 . S
C1459 C1464 1.399 1_655 S
C1460 C1459 1.399 . S
C1460 C1461 1.376 . S
C1461 H1448 0.930 . S
C1461 C1460 1.376 . S
C1461 C1462 1.388 1_655 S
C1462 H1449 0.930 . S
C1462 C1461 1.388 1_455 S
C1462 C1463 1.390 . S
C1463 C1462 1.390 . S
C1463 C1464 1.394 . S
C1463 C1469 1.465 . S
C1464 C1459 1.399 1_455 S
C1464 C1463 1.394 . S
C1464 C1465 1.516 . S
C1465 C1464 1.516 . S
C1465 C1466 1.502 . S
C1465 C1467 1.561 . S
C1465 C1468 1.526 . S
C1466 H1450 0.959 . S
C1466 H1451 0.959 . S
C1466 H1452 0.961 . S
C1466 C1465 1.502 . S
C1467 H1453 0.960 . S
C1467 H1454 0.961 . S
C1467 H1455 0.959 . S
C1467 C1465 1.561 . S
C1468 C1465 1.526 . S
C1468 C1469 1.396 . S
C1468 C1473 1.390 . S
C1469 C1463 1.465 . S
C1469 C1468 1.396 . S
C1469 C1470 1.399 . S
C1470 H1456 0.929 . S
C1470 C1469 1.399 . S
C1470 C1471 1.385 . S
C1471 H1457 0.931 . S
C1471 C1470 1.385 . S
C1471 C1472 1.389 . S
C1472 C1471 1.389 . S
C1472 C1473 1.387 . S
C1473 H1458 0.930 . S
C1473 C1468 1.390 . S
C1473 C1472 1.387 . S
H1474 C1486 0.930 . S
H1475 C1488 0.930 . S
H1476 C1489 0.930 . S
H1477 C1493 0.959 . S
H1478 C1493 0.959 . S
H1479 C1493 0.961 . S
H1480 C1494 0.960 . S
H1481 C1494 0.961 . S
H1482 C1494 0.959 . S
H1483 C1497 0.929 . S
H1484 C1498 0.931 . S
H1485 C1500 0.930 . S
C1486 H1474 0.930 . S
C1486 C1487 1.399 . S
C1486 C1491 1.399 . S
C1487 C1486 1.399 . S
C1487 C1488 1.376 . S
C1488 H1475 0.930 . S
C1488 C1487 1.376 . S
C1488 C1489 1.388 . S
C1489 H1476 0.930 . S
C1489 C1488 1.388 . S
C1489 C1490 1.390 . S
C1490 C1489 1.390 . S
C1490 C1491 1.394 . S
C1490 C1496 1.465 . S
C1491 C1486 1.399 . S
C1491 C1490 1.394 . S
C1491 C1492 1.516 . S
C1492 C1491 1.516 . S
C1492 C1493 1.502 . S
C1492 C1494 1.561 . S
C1492 C1495 1.526 . S
C1493 H1477 0.959 . S
C1493 H1478 0.959 . S
C1493 H1479 0.961 . S
C1493 C1492 1.502 . S
C1494 H1480 0.960 . S
C1494 H1481 0.961 . S
C1494 H1482 0.959 . S
C1494 C1492 1.561 . S
C1495 C1492 1.526 . S
C1495 C1496 1.396 . S
C1495 C1500 1.390 . S
C1496 C1490 1.465 . S
C1496 C1495 1.396 . S
C1496 C1497 1.399 . S
C1497 H1483 0.929 . S
C1497 C1496 1.399 . S
C1497 C1498 1.385 . S
C1498 H1484 0.931 . S
C1498 C1497 1.385 . S
C1498 C1499 1.389 . S
C1499 C1498 1.389 . S
C1499 C1500 1.387 . S
C1500 H1485 0.930 . S
C1500 C1495 1.390 . S
C1500 C1499 1.387 . S
H1501 C1513 0.930 . S
H1502 C1515 0.930 . S
H1503 C1516 0.930 . S
H1504 C1520 0.959 . S
H1505 C1520 0.959 . S
H1506 C1520 0.961 . S
H1507 C1521 0.960 . S
H1508 C1521 0.961 . S
H1509 C1521 0.959 . S
H1510 C1524 0.929 . S
H1511 C1525 0.931 . S
H1512 C1527 0.930 . S
C1513 H1501 0.930 . S
C1513 C1514 1.399 . S
C1513 C1518 1.399 . S
C1514 C1513 1.399 . S
C1514 C1515 1.376 . S
C1515 H1502 0.930 . S
C1515 C1514 1.376 . S
C1515 C1516 1.388 . S
C1516 H1503 0.930 . S
C1516 C1515 1.388 . S
C1516 C1517 1.390 . S
C1517 C1516 1.390 . S
C1517 C1518 1.394 . S
C1517 C1523 1.465 . S
C1518 C1513 1.399 . S
C1518 C1517 1.394 . S
C1518 C1519 1.516 . S
C1519 C1518 1.516 . S
C1519 C1520 1.502 . S
C1519 C1521 1.561 . S
C1519 C1522 1.526 . S
C1520 H1504 0.959 . S
C1520 H1505 0.959 . S
C1520 H1506 0.961 . S
C1520 C1519 1.502 . S
C1521 H1507 0.960 . S
C1521 H1508 0.961 . S
C1521 H1509 0.959 . S
C1521 C1519 1.561 . S
C1522 C1519 1.526 . S
C1522 C1523 1.396 . S
C1522 C1527 1.390 . S
C1523 C1517 1.465 . S
C1523 C1522 1.396 . S
C1523 C1524 1.399 . S
C1524 H1510 0.929 . S
C1524 C1523 1.399 . S
C1524 C1525 1.385 . S
C1525 H1511 0.931 . S
C1525 C1524 1.385 . S
C1525 C1526 1.389 . S
C1526 C1525 1.389 . S
C1526 C1527 1.387 . S
C1527 H1512 0.930 . S
C1527 C1522 1.390 . S
C1527 C1526 1.387 . S
H1528 C1540 0.930 . S
H1529 C1542 0.930 . S
H1530 C1543 0.930 . S
H1531 C1547 0.959 . S
H1532 C1547 0.959 . S
H1533 C1547 0.961 . S
H1534 C1548 0.960 . S
H1535 C1548 0.961 . S
H1536 C1548 0.959 . S
H1537 C1551 0.929 . S
H1538 C1552 0.931 . S
H1539 C1554 0.930 . S
C1540 H1528 0.930 . S
C1540 C1541 1.399 . S
C1540 C1545 1.399 . S
C1541 C1540 1.399 . S
C1541 C1542 1.376 . S
C1542 H1529 0.930 . S
C1542 C1541 1.376 . S
C1542 C1543 1.388 . S
C1543 H1530 0.930 . S
C1543 C1542 1.388 . S
C1543 C1544 1.390 . S
C1544 C1543 1.390 . S
C1544 C1545 1.394 . S
C1544 C1550 1.465 . S
C1545 C1540 1.399 . S
C1545 C1544 1.394 . S
C1545 C1546 1.516 . S
C1546 C1545 1.516 . S
C1546 C1547 1.502 . S
C1546 C1548 1.561 . S
C1546 C1549 1.526 . S
C1547 H1531 0.959 . S
C1547 H1532 0.959 . S
C1547 H1533 0.961 . S
C1547 C1546 1.502 . S
C1548 H1534 0.960 . S
C1548 H1535 0.961 . S
C1548 H1536 0.959 . S
C1548 C1546 1.561 . S
C1549 C1546 1.526 . S
C1549 C1550 1.396 . S
C1549 C1554 1.390 . S
C1550 C1544 1.465 . S
C1550 C1549 1.396 . S
C1550 C1551 1.399 . S
C1551 H1537 0.929 . S
C1551 C1550 1.399 . S
C1551 C1552 1.385 . S
C1552 H1538 0.931 . S
C1552 C1551 1.385 . S
C1552 C1553 1.389 . S
C1553 C1552 1.389 . S
C1553 C1554 1.387 . S
C1554 H1539 0.930 . S
C1554 C1549 1.390 . S
C1554 C1553 1.387 . S
H1555 C1567 0.930 . S
H1556 C1569 0.930 . S
H1557 C1570 0.930 . S
H1558 C1574 0.959 . S
H1559 C1574 0.959 . S
H1560 C1574 0.961 . S
H1561 C1575 0.960 . S
H1562 C1575 0.961 . S
H1563 C1575 0.959 . S
H1564 C1578 0.929 . S
H1565 C1579 0.931 . S
H1566 C1581 0.930 . S
C1567 H1555 0.930 . S
C1567 C1568 1.399 . S
C1567 C1572 1.399 . S
C1568 C1567 1.399 . S
C1568 C1569 1.376 . S
C1569 H1556 0.930 . S
C1569 C1568 1.376 . S
C1569 C1570 1.388 . S
C1570 H1557 0.930 . S
C1570 C1569 1.388 . S
C1570 C1571 1.390 . S
C1571 C1570 1.390 . S
C1571 C1572 1.394 . S
C1571 C1577 1.465 . S
C1572 C1567 1.399 . S
C1572 C1571 1.394 . S
C1572 C1573 1.516 . S
C1573 C1572 1.516 . S
C1573 C1574 1.502 . S
C1573 C1575 1.561 . S
C1573 C1576 1.526 . S
C1574 H1558 0.959 . S
C1574 H1559 0.959 . S
C1574 H1560 0.961 . S
C1574 C1573 1.502 . S
C1575 H1561 0.960 . S
C1575 H1562 0.961 . S
C1575 H1563 0.959 . S
C1575 C1573 1.561 . S
C1576 C1573 1.526 . S
C1576 C1577 1.396 . S
C1576 C1581 1.390 . S
C1577 C1571 1.465 . S
C1577 C1576 1.396 . S
C1577 C1578 1.399 . S
C1578 H1564 0.929 . S
C1578 C1577 1.399 . S
C1578 C1579 1.385 . S
C1579 H1565 0.931 . S
C1579 C1578 1.385 . S
C1579 C1580 1.389 . S
C1580 C1579 1.389 . S
C1580 C1581 1.387 . S
C1581 H1566 0.930 . S
C1581 C1576 1.390 . S
C1581 C1580 1.387 . S
H1582 C1594 0.930 . S
H1583 C1596 0.930 . S
H1584 C1597 0.930 . S
H1585 C1601 0.959 . S
H1586 C1601 0.959 . S
H1587 C1601 0.961 . S
H1588 C1602 0.960 . S
H1589 C1602 0.961 . S
H1590 C1602 0.959 . S
H1591 C1605 0.929 . S
H1592 C1606 0.931 . S
H1593 C1608 0.930 . S
C1594 H1582 0.930 . S
C1594 C1595 1.399 . S
C1594 C1599 1.399 . S
C1595 C1594 1.399 . S
C1595 C1596 1.376 . S
C1596 H1583 0.930 . S
C1596 C1595 1.376 . S
C1596 C1597 1.388 . S
C1597 H1584 0.930 . S
C1597 C1596 1.388 . S
C1597 C1598 1.390 . S
C1598 C1597 1.390 . S
C1598 C1599 1.394 . S
C1598 C1604 1.465 . S
C1599 C1594 1.399 . S
C1599 C1598 1.394 . S
C1599 C1600 1.516 . S
C1600 C1599 1.516 . S
C1600 C1601 1.502 . S
C1600 C1602 1.561 . S
C1600 C1603 1.526 . S
C1601 H1585 0.959 . S
C1601 H1586 0.959 . S
C1601 H1587 0.961 . S
C1601 C1600 1.502 . S
C1602 H1588 0.960 . S
C1602 H1589 0.961 . S
C1602 H1590 0.959 . S
C1602 C1600 1.561 . S
C1603 C1600 1.526 . S
C1603 C1604 1.396 . S
C1603 C1608 1.390 . S
C1604 C1598 1.465 . S
C1604 C1603 1.396 . S
C1604 C1605 1.399 . S
C1605 H1591 0.929 . S
C1605 C1604 1.399 . S
C1605 C1606 1.385 . S
C1606 H1592 0.931 . S
C1606 C1605 1.385 . S
C1606 C1607 1.389 . S
C1607 C1606 1.389 . S
C1607 C1608 1.387 . S
C1608 H1593 0.930 . S
C1608 C1603 1.390 . S
C1608 C1607 1.387 . S
H1609 C1621 0.930 . S
H1610 C1623 0.930 . S
H1611 C1624 0.930 . S
H1612 C1628 0.959 . S
H1613 C1628 0.959 . S
H1614 C1628 0.961 . S
H1615 C1629 0.960 . S
H1616 C1629 0.961 . S
H1617 C1629 0.959 . S
H1618 C1632 0.929 . S
H1619 C1633 0.931 . S
H1620 C1635 0.930 . S
C1621 H1609 0.930 . S
C1621 C1622 1.399 . S
C1621 C1626 1.399 . S
C1622 C1621 1.399 . S
C1622 C1623 1.376 . S
C1623 H1610 0.930 . S
C1623 C1622 1.376 . S
C1623 C1624 1.388 . S
C1624 H1611 0.930 . S
C1624 C1623 1.388 . S
C1624 C1625 1.390 . S
C1625 C1624 1.390 . S
C1625 C1626 1.394 . S
C1625 C1631 1.465 . S
C1626 C1621 1.399 . S
C1626 C1625 1.394 . S
C1626 C1627 1.516 . S
C1627 C1626 1.516 . S
C1627 C1628 1.502 . S
C1627 C1629 1.561 . S
C1627 C1630 1.526 . S
C1628 H1612 0.959 . S
C1628 H1613 0.959 . S
C1628 H1614 0.961 . S
C1628 C1627 1.502 . S
C1629 H1615 0.960 . S
C1629 H1616 0.961 . S
C1629 H1617 0.959 . S
C1629 C1627 1.561 . S
C1630 C1627 1.526 . S
C1630 C1631 1.396 . S
C1630 C1635 1.390 . S
C1631 C1625 1.465 . S
C1631 C1630 1.396 . S
C1631 C1632 1.399 . S
C1632 H1618 0.929 . S
C1632 C1631 1.399 . S
C1632 C1633 1.385 1_655 S
C1633 H1619 0.931 . S
C1633 C1632 1.385 1_455 S
C1633 C1634 1.389 . S
C1634 C1633 1.389 . S
C1634 C1635 1.387 1_455 S
C1635 H1620 0.930 . S
C1635 C1630 1.390 . S
C1635 C1634 1.387 1_655 S
H1636 C1648 0.930 . S
H1637 C1650 0.930 . S
H1638 C1651 0.930 . S
H1639 C1655 0.959 . S
H1640 C1655 0.959 . S
H1641 C1655 0.961 . S
H1642 C1656 0.960 . S
H1643 C1656 0.961 . S
H1644 C1656 0.959 . S
H1645 C1659 0.929 . S
H1646 C1660 0.931 . S
H1647 C1662 0.930 . S
C1648 H1636 0.930 . S
C1648 C1649 1.399 . S
C1648 C1653 1.399 . S
C1649 C1648 1.399 . S
C1649 C1650 1.376 . S
C1650 H1637 0.930 . S
C1650 C1649 1.376 . S
C1650 C1651 1.388 . S
C1651 H1638 0.930 . S
C1651 C1650 1.388 . S
C1651 C1652 1.390 . S
C1652 C1651 1.390 . S
C1652 C1653 1.394 . S
C1652 C1658 1.465 . S
C1653 C1648 1.399 . S
C1653 C1652 1.394 . S
C1653 C1654 1.516 . S
C1654 C1653 1.516 . S
C1654 C1655 1.502 . S
C1654 C1656 1.561 . S
C1654 C1657 1.526 . S
C1655 H1639 0.959 . S
C1655 H1640 0.959 . S
C1655 H1641 0.961 . S
C1655 C1654 1.502 . S
C1656 H1642 0.960 . S
C1656 H1643 0.961 . S
C1656 H1644 0.959 . S
C1656 C1654 1.561 . S
C1657 C1654 1.526 . S
C1657 C1658 1.396 . S
C1657 C1662 1.390 . S
C1658 C1652 1.465 . S
C1658 C1657 1.396 . S
C1658 C1659 1.399 . S
C1659 H1645 0.929 . S
C1659 C1658 1.399 . S
C1659 C1660 1.385 . S
C1660 H1646 0.931 . S
C1660 C1659 1.385 . S
C1660 C1661 1.389 . S
C1661 C1660 1.389 . S
C1661 C1662 1.387 . S
C1662 H1647 0.930 . S
C1662 C1657 1.390 . S
C1662 C1661 1.387 . S
H1663 C1675 0.930 . S
H1664 C1677 0.931 . S
H1665 C1678 0.930 . S
H1666 C1682 0.959 . S
H1667 C1682 0.959 . S
H1668 C1682 0.961 . S
H1669 C1683 0.960 . S
H1670 C1683 0.961 . S
H1671 C1683 0.959 . S
H1672 C1686 0.929 . S
H1673 C1687 0.931 . S
H1674 C1689 0.930 . S
C1675 H1663 0.930 . S
C1675 C1676 1.399 . S
C1675 C1680 1.399 1_455 S
C1676 C1675 1.399 . S
C1676 C1677 1.378 . S
C1677 H1664 0.931 . S
C1677 C1676 1.378 . S
C1677 C1678 1.386 1_455 S
C1678 H1665 0.930 . S
C1678 C1677 1.386 1_655 S
C1678 C1679 1.390 . S
C1679 C1678 1.390 . S
C1679 C1680 1.394 . S
C1679 C1685 1.465 . S
C1680 C1675 1.399 1_655 S
C1680 C1679 1.394 . S
C1680 C1681 1.516 . S
C1681 C1680 1.516 . S
C1681 C1682 1.502 . S
C1681 C1683 1.561 . S
C1681 C1684 1.526 . S
C1682 H1666 0.959 . S
C1682 H1667 0.959 . S
C1682 H1668 0.961 . S
C1682 C1681 1.502 . S
C1683 H1669 0.960 . S
C1683 H1670 0.961 . S
C1683 H1671 0.959 . S
C1683 C1681 1.561 . S
C1684 C1681 1.526 . S
C1684 C1685 1.396 . S
C1684 C1689 1.390 . S
C1685 C1679 1.465 . S
C1685 C1684 1.396 . S
C1685 C1686 1.399 . S
C1686 H1672 0.929 . S
C1686 C1685 1.399 . S
C1686 C1687 1.385 . S
C1687 H1673 0.931 . S
C1687 C1686 1.385 . S
C1687 C1688 1.389 . S
C1688 C1687 1.389 . S
C1688 C1689 1.387 . S
C1689 H1674 0.930 . S
C1689 C1684 1.390 . S
C1689 C1688 1.387 . S
H1690 C1702 0.930 . S
H1691 C1704 0.930 . S
H1692 C1705 0.930 . S
H1693 C1709 0.959 . S
H1694 C1709 0.959 . S
H1695 C1709 0.961 . S
H1696 C1710 0.960 . S
H1697 C1710 0.961 . S
H1698 C1710 0.959 . S
H1699 C1713 0.929 . S
H1700 C1714 0.931 . S
H1701 C1716 0.930 . S
C1702 H1690 0.930 . S
C1702 C1703 1.399 . S
C1702 C1707 1.399 . S
C1703 C1702 1.399 . S
C1703 C1704 1.376 . S
C1704 H1691 0.930 . S
C1704 C1703 1.376 . S
C1704 C1705 1.388 . S
C1705 H1692 0.930 . S
C1705 C1704 1.388 . S
C1705 C1706 1.390 . S
C1706 C1705 1.390 . S
C1706 C1707 1.394 . S
C1706 C1712 1.465 . S
C1707 C1702 1.399 . S
C1707 C1706 1.394 . S
C1707 C1708 1.516 . S
C1708 C1707 1.516 . S
C1708 C1709 1.502 . S
C1708 C1710 1.561 . S
C1708 C1711 1.526 . S
C1709 H1693 0.959 . S
C1709 H1694 0.959 . S
C1709 H1695 0.961 . S
C1709 C1708 1.502 . S
C1710 H1696 0.960 . S
C1710 H1697 0.961 . S
C1710 H1698 0.959 . S
C1710 C1708 1.561 . S
C1711 C1708 1.526 . S
C1711 C1712 1.396 . S
C1711 C1716 1.390 . S
C1712 C1706 1.465 . S
C1712 C1711 1.396 . S
C1712 C1713 1.399 . S
C1713 H1699 0.929 . S
C1713 C1712 1.399 . S
C1713 C1714 1.385 . S
C1714 H1700 0.931 . S
C1714 C1713 1.385 . S
C1714 C1715 1.389 . S
C1715 C1714 1.389 . S
C1715 C1716 1.387 . S
C1716 H1701 0.930 . S
C1716 C1711 1.390 . S
C1716 C1715 1.387 . S
H1717 C1729 0.930 . S
H1718 C1731 0.930 . S
H1719 C1732 0.930 . S
H1720 C1736 0.959 . S
H1721 C1736 0.959 . S
H1722 C1736 0.961 . S
H1723 C1737 0.960 . S
H1724 C1737 0.961 . S
H1725 C1737 0.959 . S
H1726 C1740 0.929 . S
H1727 C1741 0.931 . S
H1728 C1743 0.930 . S
C1729 H1717 0.930 . S
C1729 C1730 1.399 . S
C1729 C1734 1.399 . S
C1730 C1729 1.399 . S
C1730 C1731 1.376 . S
C1731 H1718 0.930 . S
C1731 C1730 1.376 . S
C1731 C1732 1.388 . S
C1732 H1719 0.930 . S
C1732 C1731 1.388 . S
C1732 C1733 1.390 . S
C1733 C1732 1.390 . S
C1733 C1734 1.394 . S
C1733 C1739 1.465 . S
C1734 C1729 1.399 . S
C1734 C1733 1.394 . S
C1734 C1735 1.516 . S
C1735 C1734 1.516 . S
C1735 C1736 1.502 . S
C1735 C1737 1.561 . S
C1735 C1738 1.526 . S
C1736 H1720 0.959 . S
C1736 H1721 0.959 . S
C1736 H1722 0.961 . S
C1736 C1735 1.502 . S
C1737 H1723 0.960 . S
C1737 H1724 0.961 . S
C1737 H1725 0.959 . S
C1737 C1735 1.561 . S
C1738 C1735 1.526 . S
C1738 C1739 1.396 . S
C1738 C1743 1.390 . S
C1739 C1733 1.465 . S
C1739 C1738 1.396 . S
C1739 C1740 1.399 . S
C1740 H1726 0.929 . S
C1740 C1739 1.399 . S
C1740 C1741 1.385 . S
C1741 H1727 0.931 . S
C1741 C1740 1.385 . S
C1741 C1742 1.389 . S
C1742 C1741 1.389 . S
C1742 C1743 1.387 . S
C1743 H1728 0.930 . S
C1743 C1738 1.390 . S
C1743 C1742 1.387 . S
H1744 C1756 0.930 . S
H1745 C1758 0.930 . S
H1746 C1759 0.930 . S
H1747 C1763 0.959 . S
H1748 C1763 0.959 . S
H1749 C1763 0.961 . S
H1750 C1764 0.960 . S
H1751 C1764 0.961 . S
H1752 C1764 0.959 . S
H1753 C1767 0.929 . S
H1754 C1768 0.931 . S
H1755 C1770 0.930 . S
C1756 H1744 0.930 . S
C1756 C1757 1.399 . S
C1756 C1761 1.399 . S
C1757 C1756 1.399 . S
C1757 C1758 1.376 . S
C1758 H1745 0.930 . S
C1758 C1757 1.376 . S
C1758 C1759 1.388 . S
C1759 H1746 0.930 . S
C1759 C1758 1.388 . S
C1759 C1760 1.390 . S
C1760 C1759 1.390 . S
C1760 C1761 1.394 . S
C1760 C1766 1.465 . S
C1761 C1756 1.399 . S
C1761 C1760 1.394 . S
C1761 C1762 1.516 . S
C1762 C1761 1.516 . S
C1762 C1763 1.502 . S
C1762 C1764 1.561 . S
C1762 C1765 1.526 . S
C1763 H1747 0.959 . S
C1763 H1748 0.959 . S
C1763 H1749 0.961 . S
C1763 C1762 1.502 . S
C1764 H1750 0.960 . S
C1764 H1751 0.961 . S
C1764 H1752 0.959 . S
C1764 C1762 1.561 . S
C1765 C1762 1.526 . S
C1765 C1766 1.396 . S
C1765 C1770 1.390 . S
C1766 C1760 1.465 . S
C1766 C1765 1.396 . S
C1766 C1767 1.399 . S
C1767 H1753 0.929 . S
C1767 C1766 1.399 . S
C1767 C1768 1.385 . S
C1768 H1754 0.931 . S
C1768 C1767 1.385 . S
C1768 C1769 1.389 . S
C1769 C1768 1.389 . S
C1769 C1770 1.387 . S
C1770 H1755 0.930 . S
C1770 C1765 1.390 . S
C1770 C1769 1.387 . S
H1771 C1783 0.930 . S
H1772 C1785 0.930 . S
H1773 C1786 0.930 . S
H1774 C1790 0.959 . S
H1775 C1790 0.959 . S
H1776 C1790 0.961 . S
H1777 C1791 0.960 . S
H1778 C1791 0.961 . S
H1779 C1791 0.959 . S
H1780 C1794 0.929 . S
H1781 C1795 0.931 . S
H1782 C1797 0.930 . S
C1783 H1771 0.930 . S
C1783 C1784 1.399 . S
C1783 C1788 1.399 . S
C1784 C1783 1.399 . S
C1784 C1785 1.376 . S
C1785 H1772 0.930 . S
C1785 C1784 1.376 . S
C1785 C1786 1.388 . S
C1786 H1773 0.930 . S
C1786 C1785 1.388 . S
C1786 C1787 1.390 . S
C1787 C1786 1.390 . S
C1787 C1788 1.394 . S
C1787 C1793 1.465 . S
C1788 C1783 1.399 . S
C1788 C1787 1.394 . S
C1788 C1789 1.516 . S
C1789 C1788 1.516 . S
C1789 C1790 1.502 . S
C1789 C1791 1.561 . S
C1789 C1792 1.526 . S
C1790 H1774 0.959 . S
C1790 H1775 0.959 . S
C1790 H1776 0.961 . S
C1790 C1789 1.502 . S
C1791 H1777 0.960 . S
C1791 H1778 0.961 . S
C1791 H1779 0.959 . S
C1791 C1789 1.561 . S
C1792 C1789 1.526 . S
C1792 C1793 1.396 . S
C1792 C1797 1.390 . S
C1793 C1787 1.465 . S
C1793 C1792 1.396 . S
C1793 C1794 1.399 . S
C1794 H1780 0.929 . S
C1794 C1793 1.399 . S
C1794 C1795 1.385 . S
C1795 H1781 0.931 . S
C1795 C1794 1.385 . S
C1795 C1796 1.389 . S
C1796 C1795 1.389 . S
C1796 C1797 1.387 . S
C1797 H1782 0.930 . S
C1797 C1792 1.390 . S
C1797 C1796 1.387 . S
H1798 C1810 0.930 . S
H1799 C1812 0.930 . S
H1800 C1813 0.930 . S
H1801 C1817 0.959 . S
H1802 C1817 0.959 . S
H1803 C1817 0.961 . S
H1804 C1818 0.960 . S
H1805 C1818 0.961 . S
H1806 C1818 0.959 . S
H1807 C1821 0.929 . S
H1808 C1822 0.931 . S
H1809 C1824 0.930 . S
C1810 H1798 0.930 . S
C1810 C1811 1.399 . S
C1810 C1815 1.399 . S
C1811 C1810 1.399 . S
C1811 C1812 1.376 . S
C1812 H1799 0.930 . S
C1812 C1811 1.376 . S
C1812 C1813 1.388 . S
C1813 H1800 0.930 . S
C1813 C1812 1.388 . S
C1813 C1814 1.390 . S
C1814 C1813 1.390 . S
C1814 C1815 1.394 . S
C1814 C1820 1.465 . S
C1815 C1810 1.399 . S
C1815 C1814 1.394 . S
C1815 C1816 1.516 . S
C1816 C1815 1.516 . S
C1816 C1817 1.502 . S
C1816 C1818 1.561 . S
C1816 C1819 1.526 . S
C1817 H1801 0.959 . S
C1817 H1802 0.959 . S
C1817 H1803 0.961 . S
C1817 C1816 1.502 . S
C1818 H1804 0.960 . S
C1818 H1805 0.961 . S
C1818 H1806 0.959 . S
C1818 C1816 1.561 . S
C1819 C1816 1.526 . S
C1819 C1820 1.396 . S
C1819 C1824 1.390 . S
C1820 C1814 1.465 . S
C1820 C1819 1.396 . S
C1820 C1821 1.399 . S
C1821 H1807 0.929 . S
C1821 C1820 1.399 . S
C1821 C1822 1.385 . S
C1822 H1808 0.931 . S
C1822 C1821 1.385 . S
C1822 C1823 1.389 . S
C1823 C1822 1.389 . S
C1823 C1824 1.387 . S
C1824 H1809 0.930 . S
C1824 C1819 1.390 . S
C1824 C1823 1.387 . S
H1825 C1837 0.930 . S
H1826 C1839 0.930 . S
H1827 C1840 0.919 1_554 S
H1828 C1844 0.959 . S
H1829 C1844 0.959 . S
H1830 C1844 0.961 . S
H1831 C1845 0.960 . S
H1832 C1845 0.961 . S
H1833 C1845 0.959 . S
H1834 C1848 0.929 . S
H1835 C1849 0.931 . S
H1836 C1851 0.930 . S
C1837 H1825 0.930 . S
C1837 C1838 1.399 . S
C1837 C1842 1.399 . S
C1838 C1837 1.399 . S
C1838 C1839 1.376 . S
C1839 H1826 0.930 . S
C1839 C1838 1.376 . S
C1839 C1840 1.401 . S
C1840 H1827 0.919 1_556 S
C1840 C1839 1.401 . S
C1840 C1841 1.389 1_556 S
C1841 C1840 1.389 1_554 S
C1841 C1842 1.383 1_554 S
C1841 C1847 1.475 . S
C1842 C1837 1.399 . S
C1842 C1841 1.383 1_556 S
C1842 C1843 1.516 . S
C1843 C1842 1.516 . S
C1843 C1844 1.502 . S
C1843 C1845 1.561 1_556 S
C1843 C1846 1.526 1_556 S
C1844 H1828 0.959 . S
C1844 H1829 0.959 . S
C1844 H1830 0.961 . S
C1844 C1843 1.502 . S
C1845 H1831 0.960 . S
C1845 H1832 0.961 . S
C1845 H1833 0.959 . S
C1845 C1843 1.561 1_554 S
C1846 C1843 1.526 1_554 S
C1846 C1847 1.396 . S
C1846 C1851 1.390 . S
C1847 C1841 1.475 . S
C1847 C1846 1.396 . S
C1847 C1848 1.399 . S
C1848 H1834 0.929 . S
C1848 C1847 1.399 . S
C1848 C1849 1.385 . S
C1849 H1835 0.931 . S
C1849 C1848 1.385 . S
C1849 C1850 1.389 . S
C1850 C1849 1.389 . S
C1850 C1851 1.387 . S
C1851 H1836 0.930 . S
C1851 C1846 1.390 . S
C1851 C1850 1.387 . S
H1852 C1864 0.930 . S
H1853 C1866 0.930 . S
H1854 C1867 0.930 . S
H1855 C1871 0.959 . S
H1856 C1871 0.959 . S
H1857 C1871 0.961 . S
H1858 C1872 0.960 . S
H1859 C1872 0.961 . S
H1860 C1872 0.959 . S
H1861 C1875 0.929 . S
H1862 C1876 0.931 . S
H1863 C1878 0.930 . S
C1864 H1852 0.930 . S
C1864 C1865 1.399 . S
C1864 C1869 1.399 . S
C1865 C1864 1.399 . S
C1865 C1866 1.376 . S
C1866 H1853 0.930 . S
C1866 C1865 1.376 . S
C1866 C1867 1.388 . S
C1867 H1854 0.930 . S
C1867 C1866 1.388 . S
C1867 C1868 1.390 . S
C1868 C1867 1.390 . S
C1868 C1869 1.394 . S
C1868 C1874 1.465 . S
C1869 C1864 1.399 . S
C1869 C1868 1.394 . S
C1869 C1870 1.516 . S
C1870 C1869 1.516 . S
C1870 C1871 1.502 . S
C1870 C1872 1.561 . S
C1870 C1873 1.526 . S
C1871 H1855 0.959 . S
C1871 H1856 0.959 . S
C1871 H1857 0.961 . S
C1871 C1870 1.502 . S
C1872 H1858 0.960 . S
C1872 H1859 0.961 . S
C1872 H1860 0.959 . S
C1872 C1870 1.561 . S
C1873 C1870 1.526 . S
C1873 C1874 1.396 . S
C1873 C1878 1.390 . S
C1874 C1868 1.465 . S
C1874 C1873 1.396 . S
C1874 C1875 1.399 . S
C1875 H1861 0.929 . S
C1875 C1874 1.399 . S
C1875 C1876 1.385 . S
C1876 H1862 0.931 . S
C1876 C1875 1.385 . S
C1876 C1877 1.389 . S
C1877 C1876 1.389 . S
C1877 C1878 1.387 . S
C1878 H1863 0.930 . S
C1878 C1873 1.390 . S
C1878 C1877 1.387 . S
H1879 C1891 0.930 . S
H1880 C1893 0.930 . S
H1881 C1894 0.930 . S
H1882 C1898 0.959 . S
H1883 C1898 0.959 . S
H1884 C1898 0.961 . S
H1885 C1899 0.960 . S
H1886 C1899 0.961 . S
H1887 C1899 0.959 . S
H1888 C1902 0.929 . S
H1889 C1903 0.931 . S
H1890 C1905 0.930 . S
C1891 H1879 0.930 . S
C1891 C1892 1.399 . S
C1891 C1896 1.399 . S
C1892 C1891 1.399 . S
C1892 C1893 1.376 . S
C1893 H1880 0.930 . S
C1893 C1892 1.376 . S
C1893 C1894 1.388 . S
C1894 H1881 0.930 . S
C1894 C1893 1.388 . S
C1894 C1895 1.390 . S
C1895 C1894 1.390 . S
C1895 C1896 1.394 . S
C1895 C1901 1.465 . S
C1896 C1891 1.399 . S
C1896 C1895 1.394 . S
C1896 C1897 1.516 . S
C1897 C1896 1.516 . S
C1897 C1898 1.502 . S
C1897 C1899 1.561 . S
C1897 C1900 1.526 . S
C1898 H1882 0.959 . S
C1898 H1883 0.959 . S
C1898 H1884 0.961 . S
C1898 C1897 1.502 . S
C1899 H1885 0.960 . S
C1899 H1886 0.961 . S
C1899 H1887 0.959 . S
C1899 C1897 1.561 . S
C1900 C1897 1.526 . S
C1900 C1901 1.396 . S
C1900 C1905 1.390 . S
C1901 C1895 1.465 . S
C1901 C1900 1.396 . S
C1901 C1902 1.399 . S
C1902 H1888 0.929 . S
C1902 C1901 1.399 . S
C1902 C1903 1.385 . S
C1903 H1889 0.931 . S
C1903 C1902 1.385 . S
C1903 C1904 1.389 . S
C1904 C1903 1.389 . S
C1904 C1905 1.387 . S
C1905 H1890 0.930 . S
C1905 C1900 1.390 . S
C1905 C1904 1.387 . S
H1906 C1918 0.930 . S
H1907 C1920 0.930 . S
H1908 C1921 0.930 . S
H1909 C1925 0.959 . S
H1910 C1925 0.959 . S
H1911 C1925 0.961 . S
H1912 C1926 0.960 . S
H1913 C1926 0.961 . S
H1914 C1926 0.959 . S
H1915 C1929 0.929 . S
H1916 C1930 0.931 . S
H1917 C1932 0.930 . S
C1918 H1906 0.930 . S
C1918 C1919 1.399 . S
C1918 C1923 1.399 . S
C1919 C1918 1.399 . S
C1919 C1920 1.376 . S
C1920 H1907 0.930 . S
C1920 C1919 1.376 . S
C1920 C1921 1.388 . S
C1921 H1908 0.930 . S
C1921 C1920 1.388 . S
C1921 C1922 1.390 . S
C1922 C1921 1.390 . S
C1922 C1923 1.394 . S
C1922 C1928 1.465 . S
C1923 C1918 1.399 . S
C1923 C1922 1.394 . S
C1923 C1924 1.516 . S
C1924 C1923 1.516 . S
C1924 C1925 1.502 . S
C1924 C1926 1.561 . S
C1924 C1927 1.526 . S
C1925 H1909 0.959 . S
C1925 H1910 0.959 . S
C1925 H1911 0.961 . S
C1925 C1924 1.502 . S
C1926 H1912 0.960 . S
C1926 H1913 0.961 . S
C1926 H1914 0.959 . S
C1926 C1924 1.561 . S
C1927 C1924 1.526 . S
C1927 C1928 1.396 . S
C1927 C1932 1.390 . S
C1928 C1922 1.465 . S
C1928 C1927 1.396 . S
C1928 C1929 1.399 . S
C1929 H1915 0.929 . S
C1929 C1928 1.399 . S
C1929 C1930 1.385 . S
C1930 H1916 0.931 . S
C1930 C1929 1.385 . S
C1930 C1931 1.389 . S
C1931 C1930 1.389 . S
C1931 C1932 1.387 . S
C1932 H1917 0.930 . S
C1932 C1927 1.390 . S
C1932 C1931 1.387 . S
H1933 C1945 0.930 . S
H1934 C1947 0.930 . S
H1935 C1948 0.930 . S
H1936 C1952 0.959 . S
H1937 C1952 0.959 . S
H1938 C1952 0.961 . S
H1939 C1953 0.960 . S
H1940 C1953 0.961 1_556 S
H1941 C1953 0.959 . S
H1942 C1956 0.929 . S
H1943 C1957 0.931 . S
H1944 C1959 0.930 . S
C1945 H1933 0.930 . S
C1945 C1946 1.399 . S
C1945 C1950 1.399 . S
C1946 C1945 1.399 . S
C1946 C1947 1.376 . S
C1947 H1934 0.930 . S
C1947 C1946 1.376 . S
C1947 C1948 1.388 . S
C1948 H1935 0.930 . S
C1948 C1947 1.388 . S
C1948 C1949 1.390 . S
C1949 C1948 1.390 . S
C1949 C1950 1.394 . S
C1949 C1955 1.465 . S
C1950 C1945 1.399 . S
C1950 C1949 1.394 . S
C1950 C1951 1.516 1_554 S
C1951 C1950 1.516 1_556 S
C1951 C1952 1.502 . S
C1951 C1953 1.561 1_556 S
C1951 C1954 1.526 . S
C1952 H1936 0.959 . S
C1952 H1937 0.959 . S
C1952 H1938 0.961 . S
C1952 C1951 1.502 . S
C1953 H1939 0.960 . S
C1953 H1940 0.961 1_554 S
C1953 H1941 0.959 . S
C1953 C1951 1.561 1_554 S
C1954 C1951 1.526 . S
C1954 C1955 1.396 1_556 S
C1954 C1959 1.390 . S
C1955 C1949 1.465 . S
C1955 C1954 1.396 1_554 S
C1955 C1956 1.399 . S
C1956 H1942 0.929 . S
C1956 C1955 1.399 . S
C1956 C1957 1.385 1_554 S
C1957 H1943 0.931 . S
C1957 C1956 1.385 1_556 S
C1957 C1958 1.389 . S
C1958 C1957 1.389 . S
C1958 C1959 1.387 . S
C1959 H1944 0.930 . S
C1959 C1954 1.390 . S
C1959 C1958 1.387 . S
H1960 C1972 0.930 . S
H1961 C1974 0.930 . S
H1962 C1975 0.930 . S
H1963 C1979 0.959 . S
H1964 C1979 0.977 . S
H1965 C1979 0.961 . S
H1966 C1980 0.960 . S
H1967 C1980 0.961 . S
H1968 C1980 0.959 . S
H1969 C1983 0.929 . S
H1970 C1984 0.931 . S
H1971 C1986 0.930 . S
C1972 H1960 0.930 . S
C1972 C1973 1.399 . S
C1972 C1977 1.399 . S
C1973 C1972 1.399 . S
C1973 C1974 1.376 . S
C1974 H1961 0.930 . S
C1974 C1973 1.376 . S
C1974 C1975 1.388 . S
C1975 H1962 0.930 . S
C1975 C1974 1.388 . S
C1975 C1976 1.390 . S
C1976 C1975 1.390 . S
C1976 C1977 1.394 . S
C1976 C1982 1.465 1_565 S
C1977 C1972 1.399 . S
C1977 C1976 1.394 . S
C1977 C1978 1.516 . S
C1978 C1977 1.516 . S
C1978 C1979 1.502 . S
C1978 C1980 1.561 . S
C1978 C1981 1.526 1_565 S
C1979 H1963 0.959 . S
C1979 H1964 0.977 . S
C1979 H1965 0.961 . S
C1979 C1978 1.502 . S
C1980 H1966 0.960 . S
C1980 H1967 0.961 . S
C1980 H1968 0.959 . S
C1980 C1978 1.561 . S
C1981 C1978 1.526 1_545 S
C1981 C1982 1.396 . S
C1981 C1986 1.390 . S
C1982 C1976 1.465 1_545 S
C1982 C1981 1.396 . S
C1982 C1983 1.399 . S
C1983 H1969 0.929 . S
C1983 C1982 1.399 . S
C1983 C1984 1.385 . S
C1984 H1970 0.931 . S
C1984 C1983 1.385 . S
C1984 C1985 1.389 . S
C1985 C1984 1.389 . S
C1985 C1986 1.387 . S
C1986 H1971 0.930 . S
C1986 C1981 1.390 . S
C1986 C1985 1.387 . S
H1987 C1999 0.930 . S
H1988 C2001 0.930 . S
H1989 C2002 0.930 . S
H1990 C2006 0.959 . S
H1991 C2006 0.959 1_556 S
H1992 C2006 0.961 . S
H1993 C2007 0.960 . S
H1994 C2007 0.961 . S
H1995 C2007 0.959 . S
H1996 C2010 0.929 . S
H1997 C2011 0.931 . S
H1998 C2013 0.930 . S
C1999 H1987 0.930 . S
C1999 C2000 1.399 . S
C1999 C2004 1.399 . S
C2000 C1999 1.399 . S
C2000 C2001 1.376 . S
C2001 H1988 0.930 . S
C2001 C2000 1.376 . S
C2001 C2002 1.388 . S
C2002 H1989 0.930 . S
C2002 C2001 1.388 . S
C2002 C2003 1.390 . S
C2003 C2002 1.390 . S
C2003 C2004 1.394 . S
C2003 C2009 1.465 1_554 S
C2004 C1999 1.399 . S
C2004 C2003 1.394 . S
C2004 C2005 1.516 1_554 S
C2005 C2004 1.516 1_556 S
C2005 C2006 1.502 1_556 S
C2005 C2007 1.561 . S
C2005 C2008 1.526 . S
C2006 H1990 0.959 . S
C2006 H1991 0.959 1_554 S
C2006 H1992 0.961 . S
C2006 C2005 1.502 1_554 S
C2007 H1993 0.960 . S
C2007 H1994 0.961 . S
C2007 H1995 0.959 . S
C2007 C2005 1.561 . S
C2008 C2005 1.526 . S
C2008 C2009 1.396 . S
C2008 C2013 1.390 . S
C2009 C2003 1.465 1_556 S
C2009 C2008 1.396 . S
C2009 C2010 1.399 . S
C2010 H1996 0.929 . S
C2010 C2009 1.399 . S
C2010 C2011 1.385 . S
C2011 H1997 0.931 . S
C2011 C2010 1.385 . S
C2011 C2012 1.389 . S
C2012 C2011 1.389 . S
C2012 C2013 1.387 . S
C2013 H1998 0.930 . S
C2013 C2008 1.390 . S
C2013 C2012 1.387 . S
H2014 C2026 0.930 . S
H2015 C2028 0.930 . S
H2016 C2029 0.930 . S
H2017 C2033 0.959 . S
H2018 C2033 0.959 . S
H2019 C2033 0.961 . S
H2020 C2034 0.960 . S
H2021 C2034 0.961 . S
H2022 C2034 0.959 . S
H2023 C2037 0.929 . S
H2024 C2038 0.931 . S
H2025 C2040 0.930 . S
C2026 H2014 0.930 . S
C2026 C2027 1.399 . S
C2026 C2031 1.399 . S
C2027 C2026 1.399 . S
C2027 C2028 1.376 . S
C2028 H2015 0.930 . S
C2028 C2027 1.376 . S
C2028 C2029 1.388 . S
C2029 H2016 0.930 . S
C2029 C2028 1.388 . S
C2029 C2030 1.390 . S
C2030 C2029 1.390 . S
C2030 C2031 1.394 . S
C2030 C2036 1.465 1_545 S
C2031 C2026 1.399 . S
C2031 C2030 1.394 . S
C2031 C2032 1.516 1_545 S
C2032 C2031 1.516 1_565 S
C2032 C2033 1.502 . S
C2032 C2034 1.561 . S
C2032 C2035 1.526 . S
C2033 H2017 0.959 . S
C2033 H2018 0.959 . S
C2033 H2019 0.961 . S
C2033 C2032 1.502 . S
C2034 H2020 0.960 . S
C2034 H2021 0.961 . S
C2034 H2022 0.959 . S
C2034 C2032 1.561 . S
C2035 C2032 1.526 . S
C2035 C2036 1.396 . S
C2035 C2040 1.390 . S
C2036 C2030 1.465 1_565 S
C2036 C2035 1.396 . S
C2036 C2037 1.399 . S
C2037 H2023 0.929 . S
C2037 C2036 1.399 . S
C2037 C2038 1.385 . S
C2038 H2024 0.931 . S
C2038 C2037 1.385 . S
C2038 C2039 1.389 . S
C2039 C2038 1.389 . S
C2039 C2040 1.387 . S
C2040 H2025 0.930 . S
C2040 C2035 1.390 . S
C2040 C2039 1.387 . S
H2041 C2053 0.930 . S
H2042 C2055 0.930 . S
H2043 C2056 0.930 . S
H2044 C2060 0.959 . S
H2045 C2060 0.959 . S
H2046 C2060 0.961 . S
H2047 C2061 0.960 . S
H2048 C2061 0.961 . S
H2049 C2061 0.959 . S
H2050 C2064 0.929 . S
H2051 C2065 0.931 . S
H2052 C2067 0.930 . S
C2053 H2041 0.930 . S
C2053 C2054 1.399 . S
C2053 C2058 1.399 . S
C2054 C2053 1.399 . S
C2054 C2055 1.376 . S
C2055 H2042 0.930 . S
C2055 C2054 1.376 . S
C2055 C2056 1.388 . S
C2056 H2043 0.930 . S
C2056 C2055 1.388 . S
C2056 C2057 1.390 . S
C2057 C2056 1.390 . S
C2057 C2058 1.394 . S
C2057 C2063 1.465 . S
C2058 C2053 1.399 . S
C2058 C2057 1.394 . S
C2058 C2059 1.516 . S
C2059 C2058 1.516 . S
C2059 C2060 1.502 . S
C2059 C2061 1.561 . S
C2059 C2062 1.526 . S
C2060 H2044 0.959 . S
C2060 H2045 0.959 . S
C2060 H2046 0.961 . S
C2060 C2059 1.502 . S
C2061 H2047 0.960 . S
C2061 H2048 0.961 . S
C2061 H2049 0.959 . S
C2061 C2059 1.561 . S
C2062 C2059 1.526 . S
C2062 C2063 1.396 . S
C2062 C2067 1.390 . S
C2063 C2057 1.465 . S
C2063 C2062 1.396 . S
C2063 C2064 1.399 . S
C2064 H2050 0.929 . S
C2064 C2063 1.399 . S
C2064 C2065 1.385 . S
C2065 H2051 0.931 . S
C2065 C2064 1.385 . S
C2065 C2066 1.389 . S
C2066 C2065 1.389 . S
C2066 C2067 1.387 . S
C2067 H2052 0.930 . S
C2067 C2062 1.390 . S
C2067 C2066 1.387 . S
H2068 C2080 0.930 . S
H2069 C2082 0.930 . S
H2070 C2083 0.930 . S
H2071 C2087 0.959 . S
H2072 C2087 0.959 . S
H2073 C2087 0.961 . S
H2074 C2088 0.960 . S
H2075 C2088 0.961 . S
H2076 C2088 0.959 . S
H2077 C2091 0.929 . S
H2078 C2092 0.931 . S
H2079 C2094 0.930 . S
C2080 H2068 0.930 . S
C2080 C2081 1.399 . S
C2080 C2085 1.399 . S
C2081 C2080 1.399 . S
C2081 C2082 1.376 . S
C2082 H2069 0.930 . S
C2082 C2081 1.376 . S
C2082 C2083 1.388 . S
C2083 H2070 0.930 . S
C2083 C2082 1.388 . S
C2083 C2084 1.390 . S
C2084 C2083 1.390 . S
C2084 C2085 1.394 . S
C2084 C2090 1.465 1_545 S
C2085 C2080 1.399 . S
C2085 C2084 1.394 . S
C2085 C2086 1.516 1_545 S
C2086 C2085 1.516 1_565 S
C2086 C2087 1.502 . S
C2086 C2088 1.561 . S
C2086 C2089 1.526 . S
C2087 H2071 0.959 . S
C2087 H2072 0.959 . S
C2087 H2073 0.961 . S
C2087 C2086 1.502 . S
C2088 H2074 0.960 . S
C2088 H2075 0.961 . S
C2088 H2076 0.959 . S
C2088 C2086 1.561 . S
C2089 C2086 1.526 . S
C2089 C2090 1.396 . S
C2089 C2094 1.390 . S
C2090 C2084 1.465 1_565 S
C2090 C2089 1.396 . S
C2090 C2091 1.399 . S
C2091 H2077 0.929 . S
C2091 C2090 1.399 . S
C2091 C2092 1.385 . S
C2092 H2078 0.931 . S
C2092 C2091 1.385 . S
C2092 C2093 1.389 . S
C2093 C2092 1.389 . S
C2093 C2094 1.387 . S
C2094 H2079 0.930 . S
C2094 C2089 1.390 . S
C2094 C2093 1.387 . S
H2095 C2107 0.930 . S
H2096 C2109 0.930 . S
H2097 C2110 0.930 . S
H2098 C2114 0.959 . S
H2099 C2114 0.959 . S
H2100 C2114 0.961 . S
H2101 C2115 0.960 . S
H2102 C2115 0.961 . S
H2103 C2115 0.959 . S
H2104 C2118 0.929 . S
H2105 C2119 0.931 . S
H2106 C2121 0.930 . S
C2107 H2095 0.930 . S
C2107 C2108 1.399 . S
C2107 C2112 1.399 . S
C2108 C2107 1.399 . S
C2108 C2109 1.376 . S
C2109 H2096 0.930 . S
C2109 C2108 1.376 . S
C2109 C2110 1.388 . S
C2110 H2097 0.930 . S
C2110 C2109 1.388 . S
C2110 C2111 1.390 . S
C2111 C2110 1.390 . S
C2111 C2112 1.394 . S
C2111 C2117 1.465 1_554 S
C2112 C2107 1.399 . S
C2112 C2111 1.394 . S
C2112 C2113 1.516 . S
C2113 C2112 1.516 . S
C2113 C2114 1.502 . S
C2113 C2115 1.561 1_554 S
C2113 C2116 1.526 1_554 S
C2114 H2098 0.959 . S
C2114 H2099 0.959 . S
C2114 H2100 0.961 . S
C2114 C2113 1.502 . S
C2115 H2101 0.960 . S
C2115 H2102 0.961 . S
C2115 H2103 0.959 . S
C2115 C2113 1.561 1_556 S
C2116 C2113 1.526 1_556 S
C2116 C2117 1.396 . S
C2116 C2121 1.390 . S
C2117 C2111 1.465 1_556 S
C2117 C2116 1.396 . S
C2117 C2118 1.399 . S
C2118 H2104 0.929 . S
C2118 C2117 1.399 . S
C2118 C2119 1.385 . S
C2119 H2105 0.931 . S
C2119 C2118 1.385 . S
C2119 C2120 1.389 . S
C2120 C2119 1.389 . S
C2120 C2121 1.387 . S
C2121 H2106 0.930 . S
C2121 C2116 1.390 . S
C2121 C2120 1.387 . S
H2122 C2134 0.930 . S
H2123 C2136 0.930 . S
H2124 C2137 0.930 . S
H2125 C2141 0.959 . S
H2126 C2141 0.959 . S
H2127 C2141 0.961 . S
H2128 C2142 0.975 . S
H2129 C2142 0.951 1_565 S
H2130 C2142 0.951 1_565 S
H2131 C2145 0.929 . S
H2132 C2146 0.931 . S
H2133 C2148 0.930 . S
C2134 H2122 0.930 . S
C2134 C2135 1.399 . S
C2134 C2139 1.399 . S
C2135 C2134 1.399 . S
C2135 C2136 1.376 . S
C2136 H2123 0.930 . S
C2136 C2135 1.376 . S
C2136 C2137 1.388 . S
C2137 H2124 0.930 . S
C2137 C2136 1.388 . S
C2137 C2138 1.390 . S
C2138 C2137 1.390 . S
C2138 C2139 1.394 . S
C2138 C2144 1.465 1_545 S
C2139 C2134 1.399 . S
C2139 C2138 1.394 . S
C2139 C2140 1.516 . S
C2140 C2139 1.516 . S
C2140 C2141 1.502 . S
C2140 C2142 1.564 . S
C2140 C2143 1.526 1_545 S
C2141 H2125 0.959 . S
C2141 H2126 0.959 . S
C2141 H2127 0.961 . S
C2141 C2140 1.502 . S
C2142 H2128 0.975 . S
C2142 H2129 0.951 1_545 S
C2142 H2130 0.951 1_545 S
C2142 C2140 1.564 . S
C2143 C2140 1.526 1_565 S
C2143 C2144 1.396 . S
C2143 C2148 1.390 . S
C2144 C2138 1.465 1_565 S
C2144 C2143 1.396 . S
C2144 C2145 1.399 . S
C2145 H2131 0.929 . S
C2145 C2144 1.399 . S
C2145 C2146 1.385 . S
C2146 H2132 0.931 . S
C2146 C2145 1.385 . S
C2146 C2147 1.389 . S
C2147 C2146 1.389 . S
C2147 C2148 1.387 . S
C2148 H2133 0.930 . S
C2148 C2143 1.390 . S
C2148 C2147 1.387 . S
H2149 C2161 0.930 . S
H2150 C2163 0.930 . S
H2151 C2164 0.930 . S
H2152 C2168 0.959 . S
H2153 C2168 0.959 . S
H2154 C2168 0.961 . S
H2155 C2169 0.960 . S
H2156 C2169 0.961 . S
H2157 C2169 0.959 . S
H2158 C2172 0.929 . S
H2159 C2173 0.931 . S
H2160 C2175 0.930 . S
C2161 H2149 0.930 . S
C2161 C2162 1.399 . S
C2161 C2166 1.399 . S
C2162 C2161 1.399 . S
C2162 C2163 1.376 . S
C2163 H2150 0.930 . S
C2163 C2162 1.376 . S
C2163 C2164 1.388 . S
C2164 H2151 0.930 . S
C2164 C2163 1.388 . S
C2164 C2165 1.390 . S
C2165 C2164 1.390 . S
C2165 C2166 1.394 . S
C2165 C2171 1.465 . S
C2166 C2161 1.399 . S
C2166 C2165 1.394 . S
C2166 C2167 1.516 . S
C2167 C2166 1.516 . S
C2167 C2168 1.502 . S
C2167 C2169 1.561 . S
C2167 C2170 1.526 . S
C2168 H2152 0.959 . S
C2168 H2153 0.959 . S
C2168 H2154 0.961 . S
C2168 C2167 1.502 . S
C2169 H2155 0.960 . S
C2169 H2156 0.961 . S
C2169 H2157 0.959 . S
C2169 C2167 1.561 . S
C2170 C2167 1.526 . S
C2170 C2171 1.396 . S
C2170 C2175 1.390 . S
C2171 C2165 1.465 . S
C2171 C2170 1.396 . S
C2171 C2172 1.399 . S
C2172 H2158 0.929 . S
C2172 C2171 1.399 . S
C2172 C2173 1.385 . S
C2173 H2159 0.931 . S
C2173 C2172 1.385 . S
C2173 C2174 1.389 . S
C2174 C2173 1.389 . S
C2174 C2175 1.387 . S
C2175 H2160 0.930 . S
C2175 C2170 1.390 . S
C2175 C2174 1.387 . S
C461 C7 1.351 . S
C473 C301 1.335 . S
C488 C315 1.321 . S
C500 C21 1.337 . S
C515 C35 1.342 . S
C527 C329 1.357 . S
C542 C287 1.347 . S
C554 C49 1.331 . S
C569 C63 1.310 . S
C581 C273 1.324 . S
C596 C77 1.308 . S
C608 C231 1.303 . S
C623 C245 1.363 . S
C635 C91 1.369 . S
C650 C105 1.305 . S
C662 C259 1.303 . S
C677 C119 1.369 . S
C689 C413 1.350 . S
C704 C133 1.317 . S
C716 C427 1.353 . S
C731 C441 1.365 . S
C743 C147 1.333 . S
C758 C399 1.369 . S
C770 C161 1.355 . S
C785 C175 1.303 . S
C797 C385 1.314 . S
C812 C343 1.342 . S
C824 C189 1.309 . S
C839 C203 1.302 . S
C851 C357 1.315 . S
C866 C371 1.304 . S
C878 C217 1.311 . S
C893 C9 1.278 . S
C905 C129 1.371 . S
C920 C23 1.328 . S
C932 C367 1.379 . S
C947 C157 1.380 . S
C959 C37 1.340 . S
C974 C51 1.277 . S
C986 C339 1.371 . S
C1001 C65 1.283 . S
C1013 C213 1.372 . S
C1028 C395 1.370 . S
C1040 C79 1.278 . S
C1055 C185 1.384 . S
C1067 C93 1.361 . S
C1082 C423 1.383 . S
C1094 C107 1.358 . S
C1109 C121 1.344 . S
C1121 C17 1.377 . S
C1136 C255 1.380 . S
C1148 C135 1.309 . S
C1163 C45 1.369 . S
C1175 C149 1.272 . S
C1190 C163 1.355 . S
C1202 C227 1.379 . S
C1217 C101 1.381 . S
C1229 C177 1.359 . S
C1244 C283 1.383 . S
C1256 C191 1.360 . S
C1271 C73 1.369 . S
C1283 C205 1.273 . S
C1298 C219 1.269 . S
C1310 C311 1.373 . S
C1325 C353 1.374 . S
C1337 C233 1.301 . S
C1352 C143 1.383 . S
C1364 C247 1.360 . S
C1379 C381 1.377 . S
C1391 C261 1.317 . S
C1406 C275 1.323 . S
C1418 C115 1.378 . S
C1433 C437 1.376 . S
C1445 C289 1.311 . S
C1460 C171 1.382 . S
C1472 C303 1.351 . S
C1487 C409 1.379 . S
C1499 C317 1.329 . S
C1514 C331 1.350 . S
C1526 C199 1.382 . S
C1541 C345 1.340 . S
C1553 C241 1.376 . S
C1568 C31 1.376 . S
C1580 C359 1.342 . S
C1595 C373 1.303 . S
C1607 C269 1.379 . S
C1622 C387 1.325 . S
C1634 C3 1.374 . S
C1649 C401 1.314 . S
C1661 C325 1.381 . S
C1676 C59 1.382 . S
C1688 C415 1.329 . S
C1703 C297 1.369 . S
C1715 C429 1.282 . S
C1730 C443 1.360 . S
C1742 C87 1.381 . S
C1757 C8 1.279 . S
C1769 C64 1.314 . S
C1784 C22 1.273 . S
C1796 C78 1.288 . S
C1811 C92 1.311 . S
C1823 C36 1.269 . S
C1838 C106 1.270 . S
C1850 C50 1.294 . S
C1865 C176 1.314 . S
C1877 C120 1.271 . S
C1892 C190 1.300 . S
C1904 C134 1.275 . S
C1919 C204 1.308 . S
C1931 C148 1.280 . S
C1946 C218 1.303 . S
C1958 C162 1.273 . S
C1973 C232 1.293 . S
C1985 C288 1.271 . S
C2000 C246 1.278 . S
C2012 C302 1.282 . S
C2027 C260 1.282 . S
C2039 C316 1.314 . S
C2054 C330 1.301 . S
C2066 C274 1.268 . S
C2081 C344 1.271 . S
C2093 C400 1.304 . S
C2108 C414 1.285 . S
C2120 C358 1.304 . S
C2135 C428 1.307 . S
C2147 C372 1.270 . S
C2162 C442 1.292 . S
C2174 C386 1.298 . S
