# Generated by pormake.
# Topology vby, (6)-cn, num edge types: 1
# Building blocks:
#     Node 0, Type 0, BuildingBlock: KUMJIN_clean_sbu_1, # of connection points: 6
#     Node 1, Type 0, BuildingBlock: KUMJIN_clean_sbu_1, # of connection points: 6
#     Node 2, Type 0, BuildingBlock: KUMJIN_clean_sbu_1, # of connection points: 6
#     Node 3, Type 0, BuildingBlock: KUMJIN_clean_sbu_1, # of connection points: 6
#     Node 4, Type 0, BuildingBlock: KUMJIN_clean_sbu_1, # of connection points: 6
#     Node 5, Type 0, BuildingBlock: KUMJIN_clean_sbu_1, # of connection points: 6
#     Node 6, Type 0, BuildingBlock: KUMJIN_clean_sbu_1, # of connection points: 6
#     Node 7, Type 0, BuildingBlock: KUMJIN_clean_sbu_1, # of connection points: 6
#     Edge 8, Type (0, 0), BuildingBlock: TEMPAE_clean_linker_10, # of connection points: 2
#     Edge 9, Type (0, 0), BuildingBlock: TEMPAE_clean_linker_10, # of connection points: 2
#     Edge 10, Type (0, 0), BuildingBlock: TEMPAE_clean_linker_10, # of connection points: 2
#     Edge 11, Type (0, 0), BuildingBlock: TEMPAE_clean_linker_10, # of connection points: 2
#     Edge 12, Type (0, 0), BuildingBlock: TEMPAE_clean_linker_10, # of connection points: 2
#     Edge 13, Type (0, 0), BuildingBlock: TEMPAE_clean_linker_10, # of connection points: 2
#     Edge 14, Type (0, 0), BuildingBlock: TEMPAE_clean_linker_10, # of connection points: 2
#     Edge 15, Type (0, 0), BuildingBlock: TEMPAE_clean_linker_10, # of connection points: 2
#     Edge 16, Type (0, 0), BuildingBlock: TEMPAE_clean_linker_10, # of connection points: 2
#     Edge 17, Type (0, 0), BuildingBlock: TEMPAE_clean_linker_10, # of connection points: 2
#     Edge 18, Type (0, 0), BuildingBlock: TEMPAE_clean_linker_10, # of connection points: 2
#     Edge 19, Type (0, 0), BuildingBlock: TEMPAE_clean_linker_10, # of connection points: 2
#     Edge 20, Type (0, 0), BuildingBlock: TEMPAE_clean_linker_10, # of connection points: 2
#     Edge 21, Type (0, 0), BuildingBlock: TEMPAE_clean_linker_10, # of connection points: 2
#     Edge 22, Type (0, 0), BuildingBlock: TEMPAE_clean_linker_10, # of connection points: 2
#     Edge 23, Type (0, 0), BuildingBlock: TEMPAE_clean_linker_10, # of connection points: 2
#     Edge 24, Type (0, 0), BuildingBlock: TEMPAE_clean_linker_10, # of connection points: 2
#     Edge 25, Type (0, 0), BuildingBlock: TEMPAE_clean_linker_10, # of connection points: 2
#     Edge 26, Type (0, 0), BuildingBlock: TEMPAE_clean_linker_10, # of connection points: 2
#     Edge 27, Type (0, 0), BuildingBlock: TEMPAE_clean_linker_10, # of connection points: 2
#     Edge 28, Type (0, 0), BuildingBlock: TEMPAE_clean_linker_10, # of connection points: 2
#     Edge 29, Type (0, 0), BuildingBlock: TEMPAE_clean_linker_10, # of connection points: 2
#     Edge 30, Type (0, 0), BuildingBlock: TEMPAE_clean_linker_10, # of connection points: 2
#     Edge 31, Type (0, 0), BuildingBlock: TEMPAE_clean_linker_10, # of connection points: 2
# Relax obj value: 0.189
# Max RMSD: 0.310
# Mean RMSD: 0.217
data_MOF--net-vby--node1-KUMJIN_clean_sbu_1--edge1-TEMPAE_clean_linker_10
_symmetry_space_group_name_H-M    P1
_symmetry_Int_Tables_number       1
_symmetry_cell_setting            triclinic
loop_
_symmetry_equiv_pos_as_xyz
'x, y, z'
_cell_length_a     15.278084
_cell_length_b     100.15123
_cell_length_c     30.077764
_cell_angle_alpha  101.61122
_cell_angle_beta   94.497662
_cell_angle_gamma 90.058
loop_
_atom_site_label
_atom_site_type_symbol
_atom_site_fract_x
_atom_site_fract_y
_atom_site_fract_z
_atom_type_partial_charge
Eu0 Eu 0.08241 0.36 0.00106 0.0
C1 C 0.28039 0.41137 0.07249 0.0
N2 N 0.20277 0.40688 0.08425 0.0
C3 C 0.25962 0.41086 0.16264 0.0
C4 C 0.35162 0.4153 0.10544 0.0
C5 C 0.19021 0.40741 0.12908 0.0
C6 C 0.3411 0.41461 0.15069 0.0
C7 C 0.36534 0.41803 0.01508 0.0
C8 C 0.28784 0.41264 0.02768 0.0
C9 C 0.43651 0.42171 0.04769 0.0
C10 C 0.42998 0.42023 0.09263 0.0
Eu11 Eu 0.09131 0.40133 0.02333 0.0
N12 N 0.21921 0.40861 0.99629 0.0
C13 C 0.36885 0.4196 0.97 0.0
C14 C 0.221 0.41044 0.95263 0.0
C15 C 0.29618 0.41585 0.9387 0.0
H16 H 0.12643 0.40567 0.13988 0.0
H17 H 0.29803 0.41714 0.90391 0.0
H18 H 0.96959 0.34947 0.90109 0.0
H19 H 0.05199 0.34224 0.15967 0.0
H20 H 0.16425 0.40767 0.92868 0.0
H21 H 0.42721 0.42373 0.95907 0.0
H22 H 0.12946 0.35161 0.10318 0.0
H23 H 0.2495 0.41097 0.19793 0.0
H24 H 0.49663 0.42582 0.03856 0.0
H25 H 0.48528 0.42325 0.1175 0.0
H26 H 0.83173 0.33666 0.86993 0.0
H27 H 0.39429 0.4175 0.17693 0.0
H28 H 0.899 0.33359 0.14066 0.0
N29 N 0.95117 0.34834 0.96945 0.0
C30 C 0.90314 0.34309 0.99813 0.0
C31 C 0.85068 0.33851 0.9061 0.0
C32 C 0.82379 0.33591 0.98219 0.0
C33 C 0.92829 0.34576 0.92372 0.0
C34 C 0.7975 0.33373 0.93557 0.0
N35 N 1.01829 0.34969 0.05518 0.0
C36 C 0.0616 0.34834 0.0954 0.0
C37 C 0.89128 0.33812 0.07299 0.0
C38 C 0.93697 0.34407 0.04272 0.0
C39 C 0.93198 0.338 0.11628 0.0
C40 C 1.01835 0.34286 0.12713 0.0
H41 H 0.7373 0.32816 0.92189 0.0
H42 H 0.71324 0.32538 0.00151 0.0
H43 H 0.77208 0.32741 0.08123 0.0
O44 O 0.12796 0.33904 -7e-05 0.0
O45 O 0.9525 0.3705 0.98649 0.0
O46 O 0.95781 0.39227 0.03197 0.0
O47 O 0.16942 0.35043 0.95012 0.0
O48 O 0.12005 0.37288 0.07136 0.0
O49 O 0.03786 0.39217 0.07904 0.0
O50 O 0.03039 0.41633 0.98753 0.0
O51 O 0.20041 0.38755 0.9927 0.0
O52 O 0.20591 0.37133 0.03537 0.0
O53 O 0.07434 0.42242 0.05876 0.0
O54 O 0.03562 0.39143 0.95272 0.0
O55 O 0.08934 0.36932 0.93799 0.0
C56 C 0.91384 0.38124 0.00953 0.0
C57 C 0.22458 0.32734 0.94355 0.0
C58 C 0.27606 0.30392 0.93828 0.0
C59 C 0.32302 0.30542 0.90112 0.0
C60 C 0.27259 0.32851 0.90651 0.0
C61 C 0.3212 0.31761 0.88547 0.0
C62 C 0.22614 0.31495 0.95925 0.0
C63 C 0.06589 0.38134 0.09398 0.0
C64 C 0.17268 0.33905 0.96486 0.0
C65 C 0.77525 0.33071 0.01288 0.0
C66 C 0.80873 0.33188 0.05831 0.0
C67 C 0.24676 0.37948 0.01452 0.0
C68 C 0.97196 0.43672 0.02818 0.0
C69 C 0.93081 0.46033 0.02801 0.0
C70 C 0.84457 0.45702 0.0359 0.0
C71 C 0.88594 0.43361 0.03614 0.0
C72 C 0.99408 0.45004 0.02424 0.0
C73 C 0.82257 0.44376 0.04001 0.0
C74 C 0.05715 0.38026 0.92465 0.0
C75 C 0.04016 0.42634 0.02264 0.0
H76 H 0.36085 0.29709 0.88384 0.0
H77 H 0.27247 0.33785 0.89358 0.0
H78 H 0.35763 0.31861 0.85683 0.0
H79 H 0.18984 0.31395 0.98799 0.0
H80 H 0.79437 0.4647 0.03941 0.0
H81 H 0.86793 0.42338 0.03912 0.0
H82 H 0.06053 0.4523 0.01735 0.0
H83 H 0.75609 0.44134 0.04619 0.0
Eu84 Eu 0.95128 0.65597 0.02027 0.0
C85 C 0.7465 0.60338 0.00292 0.0
N86 N 0.81658 0.60811 0.03262 0.0
C87 C 0.74541 0.60204 0.09402 0.0
C88 C 0.67113 0.5982 0.01833 0.0
C89 C 0.81834 0.60722 0.07733 0.0
C90 C 0.67137 0.59755 0.06444 0.0
C91 C 0.6766 0.59941 0.92604 0.0
C92 C 0.74981 0.60391 0.95712 0.0
C93 C 0.60055 0.59462 0.94156 0.0
C94 C 0.59803 0.59393 0.98748 0.0
Eu95 Eu 0.94048 0.61487 0.0009 0.0
N96 N 0.825 0.60839 0.94277 0.0
C97 C 0.68268 0.59951 0.87996 0.0
C98 C 0.83324 0.60741 0.89732 0.0
C99 C 0.76175 0.60334 0.86549 0.0
H100 H 0.87627 0.61048 0.09994 0.0
H101 H 0.7684 0.60283 0.82963 0.0
H102 H 0.92984 0.66496 0.91792 0.0
H103 H 0.18358 0.6772 0.16384 0.0
H104 H 0.89521 0.60926 0.88479 0.0
H105 H 0.62782 0.59618 0.85509 0.0
H106 H 0.04918 0.6649 0.1253 0.0
H107 H 0.74642 0.60146 0.12961 0.0
H108 H 0.54379 0.59117 0.91811 0.0
H109 H 0.53926 0.59004 0.99879 0.0
H110 H 1.02333 0.67385 0.86652 0.0
H111 H 0.61475 0.59361 0.07753 0.0
H112 H 0.28852 0.68651 0.11873 0.0
N113 N 0.03161 0.66583 0.9705 0.0
C114 C 0.11108 0.67145 0.98799 0.0
C115 C 0.04967 0.67296 0.90026 0.0
C116 C 0.16511 0.67745 0.9612 0.0
C117 C 0.99774 0.6675 0.92873 0.0
C118 C 0.13471 0.67766 0.9162 0.0
N119 N 0.08014 0.6668 0.0592 0.0
C120 C 0.0954 0.66876 0.10539 0.0
C121 C 0.21224 0.6794 0.05445 0.0
C122 C 0.1348 0.67234 0.03399 0.0
C123 C 0.22999 0.68107 0.10168 0.0
C124 C 0.171 0.6758 0.12727 0.0
H125 H 0.17428 0.68213 0.89443 0.0
H126 H 0.28814 0.6882 0.96057 0.0
H127 H 0.32918 0.68997 0.04233 0.0
O128 O 0.92139 0.67722 0.01885 0.0
O129 O 0.07993 0.64509 0.03469 0.0
O130 O 0.07232 0.6236 0.98803 0.0
O131 O 0.85814 0.66726 0.0651 0.0
O132 O 0.93518 0.64688 0.08327 0.0
O133 O 0.99976 0.62556 0.0699 0.0
O134 O 0.95428 0.5936 0.967 0.0
O135 O 0.83086 0.62882 0.02912 0.0
O136 O 0.82673 0.64482 0.98565 0.0
O137 O 1.00587 0.60024 0.03697 0.0
O138 O 0.98808 0.62341 0.94267 0.0
O139 O 0.91619 0.64391 0.94807 0.0
C140 C 0.11766 0.63448 0.01038 0.0
C141 C 0.77936 0.68451 0.03507 0.0
C142 C 0.70189 0.70449 0.01689 0.0
C143 C 0.62665 0.69608 0.00225 0.0
C144 C 0.70275 0.67657 0.02147 0.0
C145 C 0.62694 0.68234 0.0052 0.0
C146 C 0.7782 0.69849 0.03357 0.0
C147 C 0.97389 0.63651 0.09749 0.0
C148 C 0.86247 0.67823 0.04809 0.0
C149 C 0.24531 0.68368 0.98077 0.0
C150 C 0.26852 0.68474 0.02737 0.0
C151 C 0.78516 0.63651 0.00563 0.0
C152 C 0.05971 0.57947 0.99581 0.0
C153 C 0.09921 0.55569 0.99382 0.0
C154 C 0.18331 0.55868 0.98193 0.0
C155 C 0.14371 0.58228 0.98409 0.0
C156 C 0.03782 0.56624 0.00064 0.0
C157 C 0.20522 0.57188 0.9772 0.0
C158 C 0.96128 0.63393 0.92535 0.0
C159 C 0.99252 0.58999 0.0028 0.0
H160 H 0.56746 0.69995 0.98758 0.0
H161 H 0.70196 0.66589 0.02288 0.0
H162 H 0.56846 0.67607 0.99406 0.0
H163 H 0.83726 0.70457 0.04528 0.0
H164 H 0.23252 0.55086 0.97685 0.0
H165 H 0.16143 0.59244 0.98023 0.0
H166 H 0.97219 0.56412 0.0091 0.0
H167 H 0.27021 0.57406 0.96822 0.0
Eu168 Eu 0.10906 0.65446 0.53262 0.0
C169 C 0.302 0.60133 0.48089 0.0
N170 N 0.23009 0.60561 0.45836 0.0
C171 C 0.29161 0.59824 0.38693 0.0
C172 C 0.37315 0.59561 0.45689 0.0
C173 C 0.22282 0.60392 0.4121 0.0
C174 C 0.36711 0.59407 0.4094 0.0
C175 C 0.38063 0.59898 0.55219 0.0
C176 C 0.30529 0.60298 0.52821 0.0
C177 C 0.4519 0.59344 0.52836 0.0
C178 C 0.44811 0.59172 0.48089 0.0
Eu179 Eu 0.11356 0.61318 0.50255 0.0
N180 N 0.23457 0.60817 0.55059 0.0
C181 C 0.38147 0.60034 0.59941 0.0
C182 C 0.23291 0.60849 0.59614 0.0
C183 C 0.30689 0.60495 0.62135 0.0
H184 H 0.1636 0.60685 0.39469 0.0
H185 H 0.30547 0.60544 0.65757 0.0
H186 H 0.15079 0.66544 0.64575 0.0
H187 H 0.86379 0.67472 0.42409 0.0
H188 H 0.1741 0.61089 0.61325 0.0
H189 H 0.43822 0.59742 0.619 0.0
H190 H 1.0003 0.66286 0.44255 0.0
H191 H 0.28617 0.59699 0.35023 0.0
H192 H 0.50991 0.59026 0.54633 0.0
H193 H 0.50363 0.58738 0.46305 0.0
H194 H 0.069 0.67494 0.71256 0.0
H195 H 0.42041 0.58971 0.38979 0.0
H196 H 0.76589 0.68356 0.4848 0.0
N197 N 0.04044 0.66512 0.59819 0.0
C198 C 0.95899 0.67006 0.59083 0.0
C199 C 0.03657 0.67339 0.67857 0.0
C200 C 0.91115 0.67628 0.62751 0.0
C201 C 0.08206 0.66768 0.64089 0.0
C202 C 0.94979 0.67739 0.67191 0.0
N203 N 0.97739 0.66472 0.51221 0.0
C204 C 0.95726 0.66665 0.46895 0.0
C205 C 0.84884 0.67688 0.53764 0.0
C206 C 0.92754 0.67021 0.5465 0.0
C207 C 0.8254 0.67837 0.49294 0.0
C208 C 0.8805 0.67339 0.45855 0.0
H209 H 0.91518 0.68205 0.70106 0.0
H210 H 0.79064 0.68654 0.64638 0.0
H211 H 0.7364 0.68719 0.56759 0.0
O212 O 0.19092 0.66489 0.49316 0.0
O213 O 0.97921 0.64313 0.50495 0.0
O214 O 0.98356 0.62216 0.52633 0.0
O215 O 0.14989 0.67581 0.55721 0.0
O216 O 0.12153 0.64406 0.45872 0.0
O217 O 0.05564 0.62248 0.44427 0.0
O218 O 0.10626 0.59256 0.51561 0.0
O219 O 0.22516 0.62689 0.48975 0.0
O220 O 0.23409 0.64407 0.55212 0.0
O221 O 0.03893 0.59697 0.45455 0.0
O222 O 0.06989 0.62276 0.57159 0.0
O223 O 0.14592 0.6433 0.59055 0.0
C224 C 0.93987 0.63271 0.5164 0.0
C225 C 0.27616 0.68435 0.53058 0.0
C226 C 0.35625 0.70537 0.52791 0.0
C227 C 0.43295 0.69975 0.54527 0.0
C228 C 0.3532 0.67898 0.54779 0.0
C229 C 0.43124 0.68667 0.55505 0.0
C230 C 0.27787 0.6975 0.52075 0.0
C231 C 0.07906 0.63371 0.43128 0.0
C232 C 0.1931 0.67647 0.52218 0.0
C233 C 0.82889 0.68189 0.61867 0.0
C234 C 0.79807 0.68228 0.5738 0.0
C235 C 0.27292 0.63529 0.52176 0.0
C236 C 0.98782 0.57782 0.48248 0.0
C237 C 0.94844 0.55456 0.48863 0.0
C238 C 0.85959 0.55825 0.48799 0.0
C239 C 0.89899 0.58132 0.48243 0.0
C240 C 1.01219 0.56448 0.48596 0.0
C241 C 0.83531 0.57154 0.48515 0.0
C242 C 0.09871 0.63361 0.60162 0.0
C243 C 0.05693 0.58773 0.47873 0.0
H244 H 0.49421 0.70552 0.55176 0.0
H245 H 0.35286 0.66888 0.55554 0.0
H246 H 0.49068 0.68249 0.56839 0.0
H247 H 0.21823 0.7015 0.50677 0.0
H248 H 0.80898 0.5509 0.49035 0.0
H249 H 0.87894 0.59156 0.48023 0.0
H250 H 0.0809 0.56177 0.48585 0.0
H251 H 0.76677 0.57428 0.48507 0.0
Eu252 Eu 0.94006 0.39999 0.51502 0.0
C253 C 0.12677 0.34306 0.48873 0.0
N254 N 0.06528 0.34761 0.46055 0.0
C255 C 0.14278 0.33786 0.39586 0.0
C256 C 0.20129 0.33617 0.47161 0.0
C257 C 0.07081 0.34485 0.41458 0.0
C258 C 0.20877 0.33361 0.42454 0.0
C259 C 0.17388 0.33972 0.56445 0.0
C260 C 0.11284 0.34476 0.53444 0.0
C261 C 0.25116 0.33366 0.54817 0.0
C262 C 0.26461 0.33182 0.50178 0.0
Eu263 Eu 0.94284 0.35852 0.49375 0.0
N264 N 0.03619 0.35027 0.54872 0.0
C265 C 0.15333 0.34032 0.60934 0.0
C266 C 1.01198 0.34946 0.59082 0.0
C267 C 0.07107 0.34493 0.62226 0.0
H268 H 1.0197 0.3481 0.39251 0.0
H269 H 0.05235 0.3447 0.65606 0.0
H270 H 0.943 0.40707 0.63152 0.0
H271 H 0.70196 0.416 0.39343 0.0
H272 H 0.94644 0.35209 0.59999 0.0
H273 H 0.19845 0.33659 0.63349 0.0
H274 H 0.84169 0.40635 0.4196 0.0
H275 H 0.14745 0.33579 0.3594 0.0
H276 H 0.29928 0.32988 0.57084 0.0
H277 H 0.32309 0.32672 0.48941 0.0
H278 H 0.83804 0.41304 0.68967 0.0
H279 H 0.26469 0.32825 0.41 0.0
H280 H 0.5884 0.42291 0.44751 0.0
N281 N 0.84783 0.4068 0.57551 0.0
C282 C 0.76649 0.41102 0.56297 0.0
C283 C 0.81639 0.41223 0.65406 0.0
C284 C 0.70558 0.41542 0.59562 0.0
C285 C 0.87523 0.40836 0.62065 0.0
C286 C 0.73057 0.41551 0.64141 0.0
N287 N 0.80533 0.40756 0.48694 0.0
C288 C 0.79177 0.40929 0.44309 0.0
C289 C 0.66522 0.41729 0.50436 0.0
C290 C 0.74583 0.41184 0.51777 0.0
C291 C 0.64939 0.41872 0.45905 0.0
C292 C 0.71323 0.41479 0.42836 0.0
H293 H 0.68562 0.41877 0.66747 0.0
H294 H 0.57563 0.42349 0.6065 0.0
H295 H 0.5409 0.42529 0.52671 0.0
O296 O 0.99681 0.41407 0.47781 0.0
O297 O 0.82066 0.38656 0.4826 0.0
O298 O 0.82489 0.36974 0.5232 0.0
O299 O 0.97066 0.42128 0.54796 0.0
O300 O 0.97641 0.38933 0.44569 0.0
O301 O 0.91353 0.36746 0.4297 0.0
O302 O 0.90088 0.33842 0.50311 0.0
O303 O 0.0671 0.36955 0.48044 0.0
O304 O 0.07387 0.39077 0.52888 0.0
O305 O 0.85023 0.34574 0.4437 0.0
O306 O 0.91414 0.3714 0.56228 0.0
O307 O 1.00072 0.39067 0.57287 0.0
C308 C 0.77955 0.37817 0.50268 0.0
C309 C 0.06899 0.43466 0.51643 0.0
C310 C 0.11399 0.45809 0.51566 0.0
C311 C 0.20227 0.45423 0.52017 0.0
C312 C 0.15723 0.43103 0.52116 0.0
C313 C 0.22352 0.44082 0.52316 0.0
C314 C 0.04769 0.44818 0.51407 0.0
C315 C 0.94611 0.37827 0.41696 0.0
C316 C 0.9974 0.42451 0.51147 0.0
C317 C 0.62333 0.42017 0.58192 0.0
C318 C 0.60356 0.42123 0.53651 0.0
C319 C 0.11214 0.38016 0.5049 0.0
C320 C 0.86947 0.3217 0.43609 0.0
C321 C 0.86831 0.29676 0.42749 0.0
C322 C 0.89605 0.29569 0.3834 0.0
C323 C 0.89638 0.32025 0.3918 0.0
C324 C 0.85571 0.30988 0.45382 0.0
C325 C 0.90987 0.30733 0.36584 0.0
C326 C 0.96833 0.38044 0.58816 0.0
C327 C 0.85526 0.33539 0.46405 0.0
H328 H 0.25486 0.46162 0.5218 0.0
H329 H 0.17467 0.42065 0.52285 0.0
H330 H 0.29169 0.43799 0.52673 0.0
H331 H 0.9793 0.45089 0.50975 0.0
H332 H 0.90809 0.28583 0.36252 0.0
H333 H 0.90703 0.32907 0.37711 0.0
H334 H 0.83402 0.31093 0.48779 0.0
H335 H 0.93121 0.30634 0.33186 0.0
Eu336 Eu 0.59565 0.85951 0.01139 0.0
C337 C 0.79369 0.91137 0.08007 0.0
N338 N 0.71622 0.90693 0.09214 0.0
C339 C 0.77301 0.91141 0.17059 0.0
C340 C 0.86488 0.9155 0.11288 0.0
C341 C 0.70366 0.90776 0.13713 0.0
C342 C 0.85443 0.91508 0.15835 0.0
C343 C 0.87824 0.91778 0.02207 0.0
C344 C 0.80099 0.91242 0.03504 0.0
C345 C 0.94948 0.92161 0.05454 0.0
C346 C 0.94312 0.92036 0.09971 0.0
Eu347 Eu 0.60504 0.9009 0.03124 0.0
N348 N 0.73245 0.9082 0.00377 0.0
C349 C 0.88147 0.91916 0.97678 0.0
C350 C 0.73397 0.90982 0.95988 0.0
C351 C 0.80883 0.91523 0.94561 0.0
H352 H 0.63992 0.90609 0.14811 0.0
H353 H 0.81046 0.91637 0.91066 0.0
H354 H 0.48705 0.85066 0.90902 0.0
H355 H 0.53833 0.84295 0.16924 0.0
H356 H 0.67727 0.9069 0.93603 0.0
H357 H 0.9396 0.92328 0.96558 0.0
H358 H 0.62504 0.85205 0.11567 0.0
H359 H 0.76291 0.91174 0.20601 0.0
H360 H 1.00953 0.92567 0.04511 0.0
H361 H 0.99843 0.92351 0.12447 0.0
H362 H 0.35226 0.83779 0.87366 0.0
H363 H 0.90759 0.91812 0.1845 0.0
H364 H 0.3877 0.83392 0.14452 0.0
N365 N 0.46422 0.84854 0.97599 0.0
C366 C 0.41291 0.84303 0.00274 0.0
C367 C 0.36823 0.83927 0.91003 0.0
C368 C 0.3347 0.83584 0.98427 0.0
C369 C 0.4443 0.84655 0.93006 0.0
C370 C 0.3128 0.83398 0.9373 0.0
N371 N 0.52057 0.84994 0.06375 0.0
C372 C 0.55768 0.84884 0.10558 0.0
C373 C 0.39036 0.83816 0.07678 0.0
C374 C 0.44086 0.84408 0.04826 0.0
C375 C 0.42451 0.83831 0.12146 0.0
C376 C 0.5094 0.84342 0.1356 0.0
H377 H 0.25367 0.82841 0.92175 0.0
H378 H 0.221 0.82515 0.9996 0.0
H379 H 0.26948 0.82725 0.08074 0.0
O380 O 0.64405 0.83953 0.01985 0.0
O381 O 0.4662 0.87017 0.99696 0.0
O382 O 0.47208 0.89204 0.04164 0.0
O383 O 0.67641 0.84741 0.96159 0.0
O384 O 0.63423 0.87262 0.08127 0.0
O385 O 0.55325 0.89208 0.08807 0.0
O386 O 0.54268 0.91539 0.9937 0.0
O387 O 0.71525 0.88727 0.00153 0.0
O388 O 0.72006 0.87097 0.04408 0.0
O389 O 0.58705 0.92217 0.06464 0.0
O390 O 0.54954 0.89005 0.96147 0.0
O391 O 0.61123 0.86848 0.94817 0.0
C392 C 0.42783 0.88099 0.01971 0.0
C393 C 0.65184 0.82341 0.95155 0.0
C394 C 0.6414 0.79843 0.94109 0.0
C395 C 0.58858 0.79822 0.90029 0.0
C396 C 0.60288 0.82268 0.90964 0.0
C397 C 0.57084 0.81018 0.88453 0.0
C398 C 0.67232 0.81124 0.96673 0.0
C399 C 0.58144 0.88138 0.10378 0.0
C400 C 0.67753 0.83681 0.98073 0.0
C401 C 0.28207 0.8305 0.013 0.0
C402 C 0.30958 0.83174 0.05924 0.0
C403 C 0.76098 0.87909 0.02313 0.0
C404 C 0.48448 0.93612 0.0323 0.0
C405 C 0.44438 0.95971 0.03041 0.0
C406 C 0.35748 0.95645 0.03747 0.0
C407 C 0.39781 0.93309 0.0393 0.0
C408 C 0.50751 0.94939 0.02814 0.0
C409 C 0.33468 0.94326 0.04197 0.0
C410 C 0.57561 0.87908 0.93392 0.0
C411 C 0.55248 0.92569 0.02788 0.0
H412 H 0.55973 0.78881 0.88039 0.0
H413 H 0.58815 0.83177 0.89645 0.0
H414 H 0.53118 0.80978 0.85282 0.0
H415 H 0.71243 0.81185 0.99841 0.0
H416 H 0.30667 0.96401 0.03878 0.0
H417 H 0.37908 0.9229 0.04243 0.0
H418 H 0.57513 0.95165 0.02332 0.0
H419 H 0.26757 0.94089 0.04718 0.0
Eu420 Eu 0.45744 0.15313 0.02893 0.0
C421 C 0.25906 0.10016 0.0192 0.0
N422 N 0.3358 0.10537 0.04258 0.0
C423 C 0.28457 0.10093 0.11175 0.0
C424 C 0.19075 0.09568 0.04197 0.0
C425 C 0.35128 0.10484 0.08754 0.0
C426 C 0.20333 0.09657 0.08903 0.0
C427 C 0.17377 0.09244 0.94666 0.0
C428 C 0.25014 0.09859 0.97192 0.0
C429 C 0.10527 0.08826 0.96949 0.0
C430 C 0.11353 0.08995 0.01698 0.0
Eu431 Eu 0.44253 0.11156 0.99668 0.0
N432 N 0.31603 0.1031 0.95053 0.0
C433 C 0.1684 0.09073 0.89912 0.0
C434 C 0.31234 0.10121 0.90425 0.0
C435 C 0.23805 0.09511 0.87784 0.0
H436 H 0.41575 0.1068 0.10474 0.0
H437 H 0.23474 0.09372 0.84112 0.0
H438 H 0.54348 0.16381 0.9443 0.0
H439 H 0.5693 0.16604 0.21017 0.0
H440 H 0.36704 0.10435 0.88784 0.0
H441 H 0.11083 0.08603 0.87855 0.0
H442 H 0.46078 0.16033 0.14377 0.0
H443 H 0.29682 0.10087 0.14765 0.0
H444 H 0.04576 0.08363 0.95069 0.0
H445 H 0.0606 0.08647 0.03401 0.0
H446 H 0.68091 0.17462 0.92881 0.0
H447 H 0.15232 0.09329 0.10773 0.0
H448 H 0.72361 0.17117 0.19913 0.0
N449 N 0.58934 0.16256 0.01172 0.0
C450 C 0.65417 0.16577 0.04577 0.0
C451 C 0.6745 0.17208 0.96174 0.0
C452 C 0.73396 0.17174 0.03848 0.0
C453 C 0.59709 0.16594 0.97045 0.0
C454 C 0.74365 0.17486 0.99575 0.0
N455 N 0.55503 0.16008 0.0953 0.0
C456 C 0.52895 0.16169 0.1384 0.0
C457 C 0.70058 0.16818 0.12579 0.0
C458 C 0.63715 0.16411 0.0888 0.0
C459 C 0.67689 0.16815 0.16977 0.0
C460 C 0.58993 0.16524 0.17617 0.0
H461 H 0.80357 0.1796 0.98893 0.0
H462 H 0.86236 0.17918 0.0693 0.0
H463 H 0.83335 0.17597 0.14588 0.0
O464 O 0.40695 0.17206 0.06661 0.0
O465 O 0.57597 0.14122 0.0004 0.0
O466 O 0.57619 0.12101 0.02597 0.0
O467 O 0.39679 0.16856 0.99374 0.0
O468 O 0.41807 0.14094 0.08079 0.0
O469 O 0.49767 0.1213 0.06783 0.0
O470 O 0.5183 0.09678 0.9513 0.0
O471 O 0.32582 0.12448 0.97909 0.0
O472 O 0.32998 0.14267 0.03875 0.0
O473 O 0.45193 0.09045 0.0045 0.0
O474 O 0.47998 0.12177 0.93984 0.0
O475 O 0.42004 0.14353 0.95415 0.0
C476 C 0.61798 0.13085 0.01263 0.0
C477 C 0.42531 0.19133 0.0347 0.0
C478 C 0.40931 0.21525 0.02874 0.0
C479 C 0.49556 0.21792 0.04853 0.0
C480 C 0.51065 0.19445 0.05523 0.0
C481 C 0.54584 0.20757 0.06148 0.0
C482 C 0.37458 0.20181 0.02102 0.0
C483 C 0.46619 0.13165 0.09573 0.0
C484 C 0.38846 0.17742 0.03122 0.0
C485 C 0.79977 0.17487 0.07444 0.0
C486 C 0.78332 0.173 0.11801 0.0
C487 C 0.28512 0.13337 0.00847 0.0
C488 C 0.57349 0.07746 0.98013 0.0
C489 C 0.61557 0.05487 0.99362 0.0
C490 C 0.70433 0.05907 0.99725 0.0
C491 C 0.66223 0.08143 0.98418 0.0
C492 C 0.55069 0.06423 0.98502 0.0
C493 C 0.7272 0.07224 0.99265 0.0
C494 C 0.45491 0.13315 0.92695 0.0
C495 C 0.50239 0.08679 0.97161 0.0
H496 H 0.52402 0.2281 0.05419 0.0
H497 H 0.54959 0.18684 0.0677 0.0
H498 H 0.61182 0.20978 0.07724 0.0
H499 H 0.30799 0.19965 0.00598 0.0
H500 H 0.7563 0.05214 0.00314 0.0
H501 H 0.68125 0.09159 0.98093 0.0
H502 H 0.48184 0.06135 0.98285 0.0
H503 H 0.79569 0.07533 0.99561 0.0
Eu504 Eu 0.58829 0.15466 0.53265 0.0
C505 C 0.78649 0.10163 0.49363 0.0
N506 N 0.71538 0.10507 0.46846 0.0
C507 C 0.7817 0.09618 0.39937 0.0
C508 C 0.85972 0.09561 0.47219 0.0
C509 C 0.71083 0.10221 0.42207 0.0
C510 C 0.8565 0.09288 0.42452 0.0
C511 C 0.86059 0.10106 0.56762 0.0
C512 C 0.78641 0.1043 0.54099 0.0
C513 C 0.93429 0.09535 0.54633 0.0
C514 C 0.93372 0.09258 0.4988 0.0
Eu515 Eu 0.59504 0.11326 0.50874 0.0
N516 N 0.7132 0.10956 0.56085 0.0
C517 C 0.85767 0.10325 0.61488 0.0
C518 C 0.70773 0.11052 0.60651 0.0
C519 C 0.78044 0.10781 0.6343 0.0
H520 H 0.6522 0.1045 0.4027 0.0
H521 H 0.77599 0.10886 0.67058 0.0
H522 H 0.63054 0.16524 0.64652 0.0
H523 H 0.33937 0.17472 0.42576 0.0
H524 H 0.64689 0.11278 0.62185 0.0
H525 H 0.9134 0.10094 0.63646 0.0
H526 H 0.4777 0.16318 0.44353 0.0
H527 H 0.77843 0.09401 0.36254 0.0
H528 H 0.99157 0.0928 0.56636 0.0
H529 H 0.99083 0.08804 0.48293 0.0
H530 H 0.54843 0.17443 0.71335 0.0
H531 H 0.91143 0.08824 0.40684 0.0
H532 H 0.24083 0.18293 0.48676 0.0
N533 N 0.52006 0.16508 0.59881 0.0
C534 C 0.43771 0.16974 0.59179 0.0
C535 C 0.51601 0.17299 0.67937 0.0
C536 C 0.3895 0.17565 0.62869 0.0
C537 C 0.56186 0.16757 0.64153 0.0
C538 C 0.42864 0.17675 0.67298 0.0
N539 N 0.45542 0.16471 0.51312 0.0
C540 C 0.43452 0.16675 0.47007 0.0
C541 C 0.32544 0.1763 0.53911 0.0
C542 C 0.40533 0.16989 0.5476 0.0
C543 C 0.30123 0.17791 0.4946 0.0
C544 C 0.35671 0.1733 0.46006 0.0
H545 H 0.39369 0.18115 0.70229 0.0
H546 H 0.26755 0.18536 0.64806 0.0
H547 H 0.21182 0.18606 0.56952 0.0
O548 O 0.66964 0.16493 0.49249 0.0
O549 O 0.46016 0.14292 0.50412 0.0
O550 O 0.46322 0.12243 0.52884 0.0
O551 O 0.6265 0.17618 0.55557 0.0
O552 O 0.59754 0.14373 0.45894 0.0
O553 O 0.54156 0.12145 0.4473 0.0
O554 O 0.58815 0.09294 0.52447 0.0
O555 O 0.70512 0.1267 0.49254 0.0
O556 O 0.71477 0.14469 0.55247 0.0
O557 O 0.52226 0.09657 0.46197 0.0
O558 O 0.5462 0.12372 0.57569 0.0
O559 O 0.62795 0.14357 0.59011 0.0
C560 C 0.42014 0.13278 0.51692 0.0
C561 C 0.75278 0.18472 0.52896 0.0
C562 C 0.832 0.20575 0.52543 0.0
C563 C 0.90869 0.20034 0.54363 0.0
C564 C 0.82984 0.17957 0.54702 0.0
C565 C 0.90742 0.18737 0.55427 0.0
C566 C 0.754 0.19778 0.51832 0.0
C567 C 0.56257 0.1325 0.43251 0.0
C568 C 0.6703 0.17667 0.5206 0.0
C569 C 0.30611 0.18096 0.62018 0.0
C570 C 0.2744 0.18138 0.57546 0.0
C571 C 0.75319 0.1356 0.52289 0.0
C572 C 0.47265 0.07758 0.49123 0.0
C573 C 0.43638 0.05423 0.49773 0.0
C574 C 0.34697 0.05761 0.49651 0.0
C575 C 0.3833 0.08077 0.49058 0.0
C576 C 0.49882 0.06436 0.49516 0.0
C577 C 0.32088 0.0708 0.49319 0.0
C578 C 0.57545 0.13498 0.60335 0.0
C579 C 0.54051 0.08767 0.48742 0.0
H580 H 0.96961 0.2062 0.55012 0.0
H581 H 0.82985 0.16956 0.55545 0.0
H582 H 0.96685 0.18335 0.56826 0.0
H583 H 0.69438 0.20162 0.50376 0.0
H584 H 0.29731 0.0501 0.49877 0.0
H585 H 0.36189 0.09092 0.48796 0.0
H586 H 0.56794 0.06189 0.49545 0.0
H587 H 0.25193 0.07329 0.49264 0.0
Eu588 Eu 0.45488 0.89991 0.5258 0.0
C589 C 0.64139 0.84288 0.49709 0.0
N590 N 0.58016 0.84762 0.46924 0.0
C591 C 0.65755 0.8381 0.40426 0.0
C592 C 0.71575 0.83601 0.47968 0.0
C593 C 0.58573 0.84506 0.42327 0.0
C594 C 0.72332 0.83366 0.43264 0.0
C595 C 0.68799 0.83911 0.57235 0.0
C596 C 0.62727 0.84435 0.5427 0.0
C597 C 0.76517 0.83307 0.55585 0.0
C598 C 0.77879 0.83146 0.50953 0.0
Eu599 Eu 0.45788 0.85845 0.50285 0.0
N600 N 0.55067 0.84983 0.55717 0.0
C601 C 0.6672 0.83949 0.61709 0.0
C602 C 0.52618 0.8488 0.59902 0.0
C603 C 0.58499 0.84408 0.63016 0.0
H604 H 0.53478 0.84845 0.40143 0.0
H605 H 0.56609 0.84369 0.66381 0.0
H606 H 0.45702 0.90636 0.64233 0.0
H607 H 0.21684 0.91625 0.40493 0.0
H608 H 0.46063 0.85141 0.60822 0.0
H609 H 0.7121 0.8356 0.64098 0.0
H610 H 0.35649 0.9065 0.43073 0.0
H611 H 0.66227 0.8362 0.36782 0.0
H612 H 0.81305 0.82914 0.57824 0.0
H613 H 0.83716 0.82637 0.49695 0.0
H614 H 0.35177 0.91209 0.70038 0.0
H615 H 0.77911 0.82833 0.41788 0.0
H616 H 0.10327 0.92301 0.45913 0.0
N617 N 0.36229 0.9064 0.58632 0.0
C618 C 0.28103 0.91069 0.57392 0.0
C619 C 0.33035 0.91146 0.66483 0.0
C620 C 0.21999 0.91496 0.6066 0.0
C621 C 0.38937 0.90772 0.63143 0.0
C622 C 0.24468 0.91483 0.65228 0.0
N623 N 0.32005 0.90749 0.49796 0.0
C624 C 0.30654 0.90937 0.45426 0.0
C625 C 0.17998 0.91719 0.51566 0.0
C626 C 0.26053 0.91169 0.52886 0.0
C627 C 0.16423 0.91877 0.4705 0.0
C628 C 0.22805 0.91493 0.43975 0.0
H629 H 0.19961 0.91798 0.67835 0.0
H630 H 0.09009 0.92302 0.6177 0.0
H631 H 0.05569 0.92514 0.5382 0.0
O632 O 0.51045 0.91425 0.4892 0.0
O633 O 0.33574 0.88649 0.49297 0.0
O634 O 0.34007 0.86953 0.53296 0.0
O635 O 0.48509 0.92114 0.55966 0.0
O636 O 0.49167 0.88953 0.45624 0.0
O637 O 0.42859 0.86768 0.43945 0.0
O638 O 0.41543 0.83825 0.51094 0.0
O639 O 0.58229 0.86953 0.49012 0.0
O640 O 0.58909 0.89071 0.53892 0.0
O641 O 0.36503 0.84594 0.45221 0.0
O642 O 0.42993 0.87109 0.57187 0.0
O643 O 0.5162 0.89041 0.58316 0.0
C644 C 0.29467 0.87804 0.51283 0.0
C645 C 0.58004 0.93504 0.52799 0.0
C646 C 0.62003 0.95865 0.52663 0.0
C647 C 0.70914 0.95522 0.53112 0.0
C648 C 0.66905 0.93184 0.53267 0.0
C649 C 0.73326 0.94194 0.53437 0.0
C650 C 0.55586 0.94844 0.52536 0.0
C651 C 0.46152 0.87853 0.42715 0.0
C652 C 0.51051 0.92458 0.52321 0.0
C653 C 0.13786 0.91979 0.59309 0.0
C654 C 0.11827 0.92102 0.54784 0.0
C655 C 0.62731 0.88012 0.51481 0.0
C656 C 0.38478 0.82187 0.44301 0.0
C657 C 0.38636 0.79691 0.43321 0.0
C658 C 0.41292 0.79612 0.38901 0.0
C659 C 0.41057 0.8207 0.3986 0.0
C660 C 0.37291 0.80991 0.46018 0.0
C661 C 0.42482 0.80791 0.37197 0.0
C662 C 0.48462 0.88002 0.59792 0.0
C663 C 0.37008 0.83542 0.47176 0.0
H664 H 0.76016 0.96285 0.53251 0.0
H665 H 0.68869 0.92156 0.53453 0.0
H666 H 0.80204 0.93944 0.53791 0.0
H667 H 0.48686 0.95081 0.52104 0.0
H668 H 0.42554 0.78636 0.36764 0.0
H669 H 0.41984 0.82965 0.38433 0.0
H670 H 0.35208 0.81074 0.49425 0.0
H671 H 0.44529 0.80713 0.33791 0.0
C672 C 0.39734 0.3735 0.04522 0.0
C673 C 0.34456 0.37917 0.01362 0.0
C674 C 0.48985 0.37366 0.04541 0.0
C675 C 0.53113 0.37989 0.01393 0.0
C676 C 0.47799 0.38551 0.9818 0.0
C677 C 0.38588 0.3848 0.98141 0.0
C678 C 0.54364 0.36719 0.07937 0.0
C679 C 0.51857 0.39239 0.94791 0.0
C680 C 0.77302 0.39115 0.03998 0.0
C681 C 0.81577 0.38102 0.01039 0.0
C682 C 0.68099 0.39089 0.04177 0.0
C683 C 0.62957 0.38019 0.01351 0.0
C684 C 0.67236 0.36996 0.98358 0.0
C685 C 0.76415 0.37062 0.98206 0.0
C686 C 0.63914 0.40241 0.07285 0.0
C687 C 0.62177 0.35809 0.95357 0.0
H688 H 0.3664 0.36901 0.07006 0.0
H689 H 0.34604 0.38878 0.95586 0.0
H690 H 0.58634 0.35929 0.06122 0.0
H691 H 0.58727 0.37499 0.102 0.0
H692 H 0.502 0.3624 0.10072 0.0
H693 H 0.46846 0.3958 0.92397 0.0
H694 H 0.55812 0.4014 0.96642 0.0
H695 H 0.56362 0.38536 0.9278 0.0
H696 H 0.8114 0.39936 0.0619 0.0
H697 H 0.7953 0.36301 0.95816 0.0
H698 H 0.58342 0.39875 0.08898 0.0
H699 H 0.61334 0.40979 0.05234 0.0
H700 H 0.6872 0.40789 0.10005 0.0
H701 H 0.60639 0.35057 0.97451 0.0
H702 H 0.66002 0.35291 0.92535 0.0
H703 H 0.55871 0.36133 0.93857 0.0
C704 C 0.25781 0.62434 0.97941 0.0
C705 C 0.21576 0.63456 0.00902 0.0
C706 C 0.34989 0.62448 0.97736 0.0
C707 C 0.40183 0.63529 0.00471 0.0
C708 C 0.35974 0.64562 0.03455 0.0
C709 C 0.2682 0.64491 0.0371 0.0
C710 C 0.39146 0.61272 0.94718 0.0
C711 C 0.41098 0.65764 0.06336 0.0
C712 C 0.64549 0.63136 0.03843 0.0
C713 C 0.68705 0.63651 0.00524 0.0
C714 C 0.55342 0.63043 0.03754 0.0
C715 C 0.50031 0.6355 0.00407 0.0
C716 C 0.54172 0.64126 0.97152 0.0
C717 C 0.63432 0.64144 0.97189 0.0
C718 C 0.51291 0.62396 0.07245 0.0
C719 C 0.4881 0.64738 0.93661 0.0
H720 H 0.2189 0.6161 0.95794 0.0
H721 H 0.23793 0.65245 0.06167 0.0
H722 H 0.44438 0.61629 0.92895 0.0
H723 H 0.42144 0.60591 0.9688 0.0
H724 H 0.34257 0.60665 0.92177 0.0
H725 H 0.37284 0.66325 0.09088 0.0
H726 H 0.47334 0.65445 0.07921 0.0
H727 H 0.428 0.66475 0.04129 0.0
H728 H 0.68517 0.62793 0.06523 0.0
H729 H 0.66546 0.64557 0.94631 0.0
H730 H 0.47434 0.61475 0.05489 0.0
H731 H 0.46696 0.63107 0.09155 0.0
H732 H 0.56298 0.62099 0.0973 0.0
H733 H 0.44513 0.63942 0.91435 0.0
H734 H 0.52991 0.65203 0.91498 0.0
H735 H 0.44478 0.65534 0.95396 0.0
C736 C 0.79717 0.62311 0.53562 0.0
C737 C 0.84172 0.6327 0.51699 0.0
C738 C 0.70496 0.62335 0.53723 0.0
C739 C 0.65556 0.63358 0.5206 0.0
C740 C 0.70019 0.64319 0.50143 0.0
C741 C 0.79172 0.64242 0.49909 0.0
C742 C 0.66049 0.61229 0.55509 0.0
C743 C 0.65222 0.65456 0.48413 0.0
C744 C 0.41092 0.62896 0.4825 0.0
C745 C 0.37089 0.63531 0.52158 0.0
C746 C 0.50277 0.62791 0.48231 0.0
C747 C 0.55722 0.63399 0.52147 0.0
C748 C 0.5175 0.64101 0.56039 0.0
C749 C 0.42502 0.6414 0.56026 0.0
C750 C 0.54169 0.62035 0.43999 0.0
C751 C 0.57289 0.64822 0.60203 0.0
H752 H 0.83422 0.61534 0.54885 0.0
H753 H 0.82397 0.64944 0.48268 0.0
H754 H 0.60703 0.6164 0.57657 0.0
H755 H 0.63081 0.6047 0.52569 0.0
H756 H 0.70759 0.60692 0.57517 0.0
H757 H 0.68924 0.65844 0.4589 0.0
H758 H 0.58579 0.65135 0.46803 0.0
H759 H 0.64437 0.6631 0.51333 0.0
H760 H 0.37024 0.6247 0.45181 0.0
H761 H 0.39515 0.64648 0.59051 0.0
H762 H 0.5806 0.61168 0.44821 0.0
H763 H 0.58708 0.62715 0.42747 0.0
H764 H 0.49073 0.61637 0.41207 0.0
H765 H 0.61514 0.64078 0.61595 0.0
H766 H 0.53242 0.65351 0.62915 0.0
H767 H 0.61696 0.65584 0.59255 0.0
C768 C 0.63857 0.37247 0.53387 0.0
C769 C 0.68158 0.37829 0.5026 0.0
C770 C 0.54634 0.37284 0.53477 0.0
C771 C 0.4955 0.37951 0.50452 0.0
C772 C 0.5386 0.38532 0.47272 0.0
C773 C 0.63041 0.38434 0.47148 0.0
C774 C 0.50307 0.366 0.56792 0.0
C775 C 0.48765 0.39262 0.44004 0.0
C776 C 0.25223 0.37041 0.47379 0.0
C777 C 0.21024 0.38031 0.50441 0.0
C778 C 0.3443 0.36988 0.47402 0.0
C779 C 0.39705 0.37986 0.50463 0.0
C780 C 0.35524 0.39024 0.53461 0.0
C781 C 0.26272 0.39028 0.5344 0.0
C782 C 0.3846 0.35836 0.44204 0.0
C783 C 0.40778 0.40158 0.56602 0.0
H784 H 0.67703 0.36762 0.55782 0.0
H785 H 0.66227 0.3884 0.44606 0.0
H786 H 0.46714 0.37363 0.59146 0.0
H787 H 0.45417 0.35827 0.54914 0.0
H788 H 0.55123 0.36092 0.58837 0.0
H789 H 0.52987 0.3959 0.41563 0.0
H790 H 0.43405 0.38596 0.42037 0.0
H791 H 0.45678 0.40176 0.45956 0.0
H792 H 0.2131 0.36304 0.44916 0.0
H793 H 0.23162 0.39817 0.55778 0.0
H794 H 0.40654 0.35045 0.46133 0.0
H795 H 0.44279 0.36183 0.42737 0.0
H796 H 0.33689 0.35358 0.41352 0.0
H797 H 0.46601 0.39759 0.58321 0.0
H798 H 0.36788 0.40746 0.59235 0.0
H799 H 0.43179 0.40867 0.54555 0.0
C800 C 0.91134 0.87321 0.05437 0.0
C801 C 0.8588 0.87886 0.02264 0.0
C802 C 1.00387 0.87344 0.05487 0.0
C803 C 0.04532 0.87975 0.02363 0.0
C804 C 0.99244 0.88536 0.99138 0.0
C805 C 0.90034 0.88455 0.99064 0.0
C806 C 0.05747 0.86691 0.08876 0.0
C807 C 0.03323 0.89229 0.9577 0.0
C808 C 0.28716 0.89092 0.05027 0.0
C809 C 0.32981 0.88085 0.02045 0.0
C810 C 0.19508 0.89069 0.05188 0.0
C811 C 0.14369 0.88004 0.02333 0.0
C812 C 0.18639 0.86989 0.99312 0.0
C813 C 0.27811 0.87056 0.99163 0.0
C814 C 0.15305 0.90217 0.08305 0.0
C815 C 0.13581 0.85807 0.96278 0.0
H816 H 0.8802 0.86866 0.07902 0.0
H817 H 0.8607 0.8885 0.96495 0.0
H818 H 0.10019 0.85903 0.07054 0.0
H819 H 0.10107 0.87468 0.11154 0.0
H820 H 1.01569 0.8621 0.10996 0.0
H821 H 0.98331 0.89561 0.9335 0.0
H822 H 0.07205 0.90135 0.97637 0.0
H823 H 0.079 0.88533 0.93783 0.0
H824 H 0.32566 0.89907 0.07247 0.0
H825 H 0.30912 0.86306 0.96732 0.0
H826 H 0.09848 0.89841 0.09974 0.0
H827 H 0.1254 0.90942 0.06248 0.0
H828 H 0.20131 0.90783 0.1098 0.0
H829 H 0.12097 0.85044 0.98336 0.0
H830 H 0.17386 0.85303 0.93429 0.0
H831 H 0.07248 0.86132 0.94811 0.0
C832 C 0.14397 0.13966 0.04551 0.0
C833 C 0.18693 0.13286 0.00799 0.0
C834 C 0.05172 0.13901 0.04592 0.0
C835 C 1.00065 0.13099 0.00858 0.0
C836 C 0.0436 0.12417 0.97055 0.0
C837 C 0.13546 0.1255 0.97025 0.0
C838 C 1.00864 0.14706 0.0861 0.0
C839 C 0.99236 0.11543 0.9301 0.0
C840 C 0.76704 0.12115 0.03052 0.0
C841 C 0.71557 0.1302 0.00992 0.0
C842 C 0.85942 0.12102 0.02937 0.0
C843 C 0.90209 0.13041 0.00819 0.0
C844 C 0.85015 0.13931 0.98648 0.0
C845 C 0.75814 0.13882 0.98666 0.0
C846 C 0.91113 0.11062 0.04985 0.0
C847 C 0.89148 0.14974 0.96423 0.0
H848 H 0.18246 0.14555 0.07471 0.0
H849 H 0.16706 0.12073 0.94027 0.0
H850 H 0.96011 0.1541 0.07429 0.0
H851 H 0.97229 0.14008 0.10271 0.0
H852 H 0.05695 0.15313 0.11186 0.0
H853 H 0.03466 0.1112 0.90245 0.0
H854 H 0.95976 0.10687 0.94111 0.0
H855 H 0.9399 0.12139 0.91602 0.0
H856 H 0.73525 0.11417 0.04767 0.0
H857 H 0.71942 0.1453 0.96847 0.0
H858 H 0.96653 0.11556 0.07349 0.0
H859 H 0.93956 0.10331 0.02216 0.0
H860 H 0.86975 0.10482 0.06843 0.0
H861 H 0.91898 0.15828 0.99118 0.0
H862 H 0.8431 0.1539 0.94129 0.0
H863 H 0.9463 0.14542 0.94419 0.0
C864 C 0.27735 0.12395 0.53856 0.0
C865 C 0.32197 0.13288 0.5172 0.0
C866 C 0.18519 0.12433 0.54015 0.0
C867 C 0.13582 0.13401 0.52056 0.0
C868 C 0.18051 0.14294 0.49865 0.0
C869 C 0.2721 0.14205 0.49651 0.0
C870 C 0.14085 0.11397 0.56134 0.0
C871 C 0.13235 0.15373 0.47823 0.0
C872 C 0.89082 0.12868 0.48381 0.0
C873 C 0.85111 0.13569 0.5221 0.0
C874 C 0.98271 0.1277 0.48346 0.0
C875 C 0.03748 0.13453 0.52144 0.0
C876 C 0.99801 0.14226 0.55932 0.0
C877 C 0.90558 0.14255 0.55956 0.0
C878 C 1.02127 0.11927 0.44241 0.0
C879 C 0.05361 0.15028 0.59951 0.0
H880 H 0.31436 0.11662 0.55408 0.0
H881 H 0.30455 0.14853 0.47813 0.0
H882 H 0.08693 0.11854 0.5817 0.0
H883 H 0.11187 0.10577 0.53367 0.0
H884 H 0.18792 0.10926 0.58347 0.0
H885 H 0.171 0.15744 0.45326 0.0
H886 H 0.06777 0.14995 0.46087 0.0
H887 H 0.12013 0.1625 0.50596 0.0
H888 H 0.84986 0.1238 0.45398 0.0
H889 H 0.87601 0.14814 0.58919 0.0
H890 H 0.05766 0.11064 0.45263 0.0
H891 H 0.06885 0.12546 0.42873 0.0
H892 H 0.97025 0.11515 0.41468 0.0
H893 H 0.09549 0.14327 0.61573 0.0
H894 H 1.01328 0.15623 0.62549 0.0
H895 H 0.09805 0.15742 0.58781 0.0
C896 C 0.77794 0.89015 0.54462 0.0
C897 C 0.72541 0.88025 0.51439 0.0
C898 C 0.87046 0.89008 0.54493 0.0
C899 C 0.91222 0.87974 0.51475 0.0
C900 C 0.85943 0.86983 0.4839 0.0
C901 C 0.76736 0.87038 0.48362 0.0
C902 C 0.92303 0.90136 0.57663 0.0
C903 C 0.89963 0.85835 0.45171 0.0
C904 C 0.1456 0.88427 0.48175 0.0
C905 C 0.1967 0.87815 0.51272 0.0
C906 C 0.05381 0.88525 0.48302 0.0
C907 C 1.01066 0.87937 0.51465 0.0
C908 C 0.06141 0.87263 0.54472 0.0
C909 C 0.15364 0.87225 0.54382 0.0
C910 C 1.00293 0.89263 0.45053 0.0
C911 C 1.01807 0.86573 0.57767 0.0
H912 H 0.74687 0.89802 0.56811 0.0
H913 H 0.72821 0.86307 0.45881 0.0
H914 H 0.98183 0.89735 0.59328 0.0
H915 H 0.94607 0.90861 0.55648 0.0
H916 H 0.88337 0.90707 0.6034 0.0
H917 H 0.85204 0.85369 0.42296 0.0
H918 H 0.95822 0.86181 0.43736 0.0
H919 H 0.92088 0.85034 0.47073 0.0
H920 H 0.1775 0.88837 0.45645 0.0
H921 H 0.19207 0.86736 0.56764 0.0
H922 H 0.9719 0.90172 0.47022 0.0
H923 H 0.94946 0.88598 0.43065 0.0
H924 H 0.04523 0.89598 0.4263 0.0
H925 H 0.98226 0.87334 0.60137 0.0
H926 H 0.06616 0.86059 0.59796 0.0
H927 H 0.96904 0.85804 0.55877 0.0
C928 C 1.0265 0.53973 0.03504 0.0
C929 C 0.07518 0.54165 0.99904 0.0
C930 C 1.00237 0.52659 0.04013 0.0
C931 C 1.02733 0.51504 0.00846 0.0
C932 C 0.07657 0.51689 0.97208 0.0
C933 C 0.09998 0.53015 0.96786 0.0
C934 C 0.95033 0.52509 0.07954 0.0
C935 C 0.10417 0.50486 0.93744 0.0
C936 C 0.03463 0.48057 0.04397 0.0
C937 C 0.95491 0.47442 0.02339 0.0
C938 C 0.05891 0.49375 0.03942 0.0
C939 C 1.0023 0.50101 0.01355 0.0
C940 C 0.92167 0.49489 0.99274 0.0
C941 C 0.89891 0.48171 0.99797 0.0
C942 C 0.14517 0.49991 0.06241 0.0
C943 C 0.8596 0.50225 0.9647 0.0
H944 H 1.00803 0.54852 0.05967 0.0
H945 H 0.1366 0.53152 0.93962 0.0
H946 H 0.88736 0.51962 0.06665 0.0
H947 H 0.98725 0.51888 0.10111 0.0
H948 H 0.9358 0.53508 0.10113 0.0
H949 H 0.14215 0.50801 0.91114 0.0
H950 H 0.14503 0.49796 0.95469 0.0
H951 H 0.04538 0.49891 0.92027 0.0
H952 H 0.07783 0.47511 0.06417 0.0
H953 H 0.83774 0.477 0.98146 0.0
H954 H 0.13338 0.50954 0.08662 0.0
H955 H 0.18699 0.50249 0.03669 0.0
H956 H 0.18186 0.49294 0.08126 0.0
H957 H 0.83984 0.51201 0.98581 0.0
H958 H 0.79946 0.4961 0.95074 0.0
H959 H 0.89314 0.50477 0.93597 0.0
C960 C 1.02591 0.4793 0.53736 0.0
C961 C 0.09102 0.47233 0.51188 0.0
C962 C 1.00347 0.49272 0.53405 0.0
C963 C 0.04615 0.49931 0.50399 0.0
C964 C 0.11162 0.49229 0.47799 0.0
C965 C 0.13366 0.47895 0.48248 0.0
C966 C 0.93423 0.49986 0.56288 0.0
C967 C 0.15781 0.49882 0.44502 0.0
C968 C 0.92909 0.5291 0.46485 0.0
C969 C 0.97439 0.54041 0.49212 0.0
C970 C 0.95239 0.5157 0.46796 0.0
C971 C 1.02193 0.51351 0.49961 0.0
C972 C 0.06781 0.52489 0.52729 0.0
C973 C 0.04395 0.53818 0.52298 0.0
C974 C 0.90266 0.50388 0.43726 0.0
C975 C 0.1415 0.52305 0.56189 0.0
H976 H 0.99328 0.47431 0.56046 0.0
H977 H 0.18329 0.47358 0.46228 0.0
H978 H 0.96193 0.50946 0.58455 0.0
H979 H 0.8787 0.50267 0.54072 0.0
H980 H 0.90836 0.49344 0.58518 0.0
H981 H 0.20663 0.49198 0.42702 0.0
H982 H 0.10902 0.50165 0.41932 0.0
H983 H 0.19201 0.50835 0.46338 0.0
H984 H 0.87593 0.53073 0.44057 0.0
H985 H 0.07869 0.54686 0.54447 0.0
H986 H 0.87033 0.49764 0.45805 0.0
H987 H 0.94885 0.49717 0.41679 0.0
H988 H 0.85174 0.50728 0.41371 0.0
H989 H 0.11688 0.51737 0.58661 0.0
H990 H 0.17047 0.53293 0.58092 0.0
H991 H 0.19414 0.5169 0.54474 0.0
C992 C 0.52913 0.9756 0.99357 0.0
C993 C 0.46909 0.97374 0.025 0.0
C994 C 0.55369 0.9887 0.98838 0.0
C995 C 0.51683 1.00033 0.01488 0.0
C996 C 0.45576 0.99856 0.04642 0.0
C997 C 0.43296 0.98533 0.05122 0.0
C998 C 0.61918 0.99011 0.95445 0.0
C999 C 0.41455 0.01066 0.07519 0.0
C1000 C 0.63693 0.03462 0.03131 0.0
C1001 C 0.59054 0.04084 0.99896 0.0
C1002 C 0.61388 0.02146 0.03675 0.0
C1003 C 0.54208 0.01433 0.00951 0.0
C1004 C 0.49472 0.02055 0.97694 0.0
C1005 C 0.51972 0.03365 0.9719 0.0
C1006 C 0.66643 0.0152 0.07173 0.0
C1007 C 0.41756 0.01334 0.9473 0.0
H1008 H 0.55639 0.96677 0.97249 0.0
H1009 H 0.38751 0.98408 0.07605 0.0
H1010 H 0.58896 0.99547 0.92838 0.0
H1011 H 0.67655 0.99636 0.97191 0.0
H1012 H 0.64288 0.98008 0.93695 0.0
H1013 H 0.36727 0.00758 0.09767 0.0
H1014 H 0.46634 0.01729 0.0967 0.0
H1015 H 0.37964 0.01688 0.05297 0.0
H1016 H 0.69081 0.0401 0.05294 0.0
H1017 H 0.48416 0.0382 0.94626 0.0
H1018 H 0.69434 1.00541 0.05502 0.0
H1019 H 0.62303 0.01288 0.09718 0.0
H1020 H 0.72102 0.02199 0.08986 0.0
H1021 H 0.43915 1.00367 0.92636 0.0
H1022 H 0.38645 0.01966 0.92422 0.0
H1023 H 0.36733 0.01065 0.9689 0.0
C1024 C 0.42075 0.02871 0.47448 0.0
C1025 C 0.46435 0.0402 0.50163 0.0
C1026 C 0.44629 0.01542 0.47784 0.0
C1027 C 0.51644 0.01353 0.50959 0.0
C1028 C 0.56052 0.0251 0.53719 0.0
C1029 C 0.53439 0.03827 0.53266 0.0
C1030 C 0.39837 1.0034 0.44724 0.0
C1031 C 0.63479 0.02357 0.57188 0.0
C1032 C 0.52768 0.97941 0.54787 0.0
C1033 C 0.59396 0.97274 0.52252 0.0
C1034 C 0.50238 0.99269 0.54428 0.0
C1035 C 0.54336 0.99945 0.5141 0.0
C1036 C 0.60994 0.99273 0.4882 0.0
C1037 C 0.63481 0.97952 0.49296 0.0
C1038 C 0.432 0.99952 0.57299 0.0
C1039 C 0.65442 0.99944 0.45511 0.0
H1040 H 0.36724 0.03011 0.45007 0.0
H1041 H 0.56782 0.04709 0.55407 0.0
H1042 H 0.44552 0.9969 0.42674 0.0
H1043 H 0.3676 0.99702 0.4681 0.0
H1044 H 0.34645 0.00658 0.42372 0.0
H1045 H 0.66201 0.03357 0.59091 0.0
H1046 H 0.61147 0.01778 0.59659 0.0
H1047 H 0.68847 0.01768 0.5548 0.0
H1048 H 0.49639 0.97429 0.5711 0.0
H1049 H 0.68532 0.97438 0.47284 0.0
H1050 H 0.37581 1.00209 0.55075 0.0
H1051 H 0.45806 0.00923 0.59465 0.0
H1052 H 0.40749 0.99299 0.5953 0.0
H1053 H 0.60477 1.00205 0.4294 0.0
H1054 H 0.70425 0.99281 0.43713 0.0
H1055 H 0.68707 0.00911 0.47337 0.0
C1056 C 0.20565 0.28428 0.96418 0.0
C1057 C 0.28129 0.29086 0.95486 0.0
C1058 C 0.21054 0.27145 0.97672 0.0
C1059 C 0.29302 0.26511 0.9802 0.0
C1060 C 0.3696 0.27187 0.97173 0.0
C1061 C 0.36276 0.28461 0.95926 0.0
C1062 C 0.1275 0.2646 0.98557 0.0
C1063 C 0.45915 0.26561 0.97564 0.0
C1064 C 0.35017 0.2386 0.05104 0.0
C1065 C 0.35801 0.22685 0.01729 0.0
C1066 C 0.32171 0.25091 0.03979 0.0
C1067 C 0.30123 0.25154 0.99354 0.0
C1068 C 0.30211 0.23941 0.9597 0.0
C1069 C 0.33044 0.22717 0.97202 0.0
C1070 C 0.32097 0.26349 0.07711 0.0
C1071 C 0.28021 0.2396 0.91005 0.0
H1072 H 0.1424 0.289 0.96054 0.0
H1073 H 0.42167 0.28972 0.95285 0.0
H1074 H 0.11606 0.25488 0.96048 0.0
H1075 H 0.13422 0.26204 0.01988 0.0
H1076 H 0.0691 0.2711 0.98327 0.0
H1077 H 0.51212 0.27217 0.96777 0.0
H1078 H 0.47417 0.26383 0.01065 0.0
H1079 H 0.45981 0.25557 0.95198 0.0
H1080 H 0.3712 0.23833 0.08614 0.0
H1081 H 0.33696 0.21812 0.94587 0.0
H1082 H 0.26068 0.26941 0.07282 0.0
H1083 H 0.37802 0.27017 0.07525 0.0
H1084 H 0.32495 0.26093 0.11147 0.0
H1085 H 0.21969 0.24545 0.9055 0.0
H1086 H 0.271 0.22915 0.88901 0.0
H1087 H 0.33441 0.24475 0.89718 0.0
C1088 C 0.66695 0.77305 0.9242 0.0
C1089 C 0.6621 0.78529 0.95645 0.0
C1090 C 0.67747 0.76044 0.93739 0.0
C1091 C 0.68835 0.75995 0.98418 0.0
C1092 C 0.68927 0.77228 0.01707 0.0
C1093 C 0.67433 0.78474 0.00292 0.0
C1094 C 0.6741 0.74757 0.90104 0.0
C1095 C 0.7045 0.7723 0.06727 0.0
C1096 C 0.62191 0.72654 0.0152 0.0
C1097 C 0.7008 0.71927 0.01311 0.0
C1098 C 0.61733 0.73983 0.00672 0.0
C1099 C 0.69436 0.74644 0.99818 0.0
C1100 C 0.77539 0.73961 0.99924 0.0
C1101 C 0.77737 0.72606 0.00561 0.0
C1102 C 0.52904 0.74656 0.00488 0.0
C1103 C 0.85986 0.74647 0.99229 0.0
H1104 H 0.66147 0.77322 0.88822 0.0
H1105 H 0.67037 0.79396 0.02853 0.0
H1106 H 0.73664 0.74204 0.90302 0.0
H1107 H 0.62088 0.74068 0.90664 0.0
H1108 H 0.66235 0.74965 0.86617 0.0
H1109 H 0.71705 0.78275 0.08784 0.0
H1110 H 0.64604 0.76795 0.07921 0.0
H1111 H 0.76118 0.76584 0.07375 0.0
H1112 H 0.56262 0.7218 0.0227 0.0
H1113 H 0.83896 0.72073 0.00334 0.0
H1114 H 0.51333 0.74878 0.97046 0.0
H1115 H 0.53072 0.75643 0.02953 0.0
H1116 H 0.47531 0.7401 0.01251 0.0
H1117 H 0.86118 0.74713 0.95599 0.0
H1118 H 0.91849 0.74081 0.00189 0.0
H1119 H 0.86451 0.75703 0.01269 0.0
C1120 C 0.28887 0.72832 0.52655 0.0
C1121 C 0.35831 0.71928 0.51679 0.0
C1122 C 0.2896 0.74134 0.51555 0.0
C1123 C 0.36151 0.74549 0.49422 0.0
C1124 C 0.43216 0.73648 0.4847 0.0
C1125 C 0.42967 0.72353 0.49601 0.0
C1126 C 0.21302 0.75062 0.5264 0.0
C1127 C 0.50995 0.74044 0.46182 0.0
C1128 C 0.3329 0.77261 0.42195 0.0
C1129 C 0.37375 0.78411 0.4506 0.0
C1130 C 0.32656 0.76013 0.43615 0.0
C1131 C 0.36177 0.75903 0.48022 0.0
C1132 C 0.40055 0.77071 0.50991 0.0
C1133 C 0.406 0.7831 0.49479 0.0
C1134 C 0.28398 0.748 0.40347 0.0
C1135 C 0.43872 0.77 0.55719 0.0
H1136 H 0.23399 0.72526 0.54319 0.0
H1137 H 0.48311 0.7166 0.48768 0.0
H1138 H 0.2365 0.76043 0.54831 0.0
H1139 H 0.18098 0.75297 0.49455 0.0
H1140 H 0.16311 0.74602 0.544 0.0
H1141 H 0.56095 0.73248 0.45813 0.0
H1142 H 0.48793 0.74223 0.42751 0.0
H1143 H 0.54015 0.7501 0.48171 0.0
H1144 H 0.30628 0.77334 0.38806 0.0
H1145 H 0.43819 0.79188 0.51708 0.0
H1146 H 0.2306 0.74366 0.41946 0.0
H1147 H 0.33306 0.7399 0.39523 0.0
H1148 H 0.25621 0.75068 0.3712 0.0
H1149 H 0.38922 0.76579 0.57595 0.0
H1150 H 0.46144 0.78015 0.57713 0.0
H1151 H 0.49525 0.76302 0.55491 0.0
C1152 C 0.8848 0.28316 0.48978 0.0
C1153 C 0.85362 0.2841 0.44537 0.0
C1154 C 0.87793 0.27084 0.50527 0.0
C1155 C 0.83876 0.25916 0.47574 0.0
C1156 C 0.80438 0.2602 0.43147 0.0
C1157 C 0.81214 0.27261 0.41691 0.0
C1158 C 0.91522 0.2702 0.55275 0.0
C1159 C 0.76145 0.24809 0.39892 0.0
C1160 C 0.90552 0.22371 0.49266 0.0
C1161 C 0.83388 0.21955 0.51345 0.0
C1162 C 0.90835 0.2366 0.4809 0.0
C1163 C 0.83779 0.24566 0.49 0.0
C1164 C 0.76546 0.24159 0.51122 0.0
C1165 C 0.76434 0.22861 0.52263 0.0
C1166 C 0.98652 0.24045 0.45809 0.0
C1167 C 0.68897 0.25091 0.52164 0.0
H1168 H 0.91741 0.29192 0.51195 0.0
H1169 H 0.78631 0.27328 0.38284 0.0
H1170 H 0.86523 0.26605 0.57139 0.0
H1171 H 0.97162 0.26319 0.55085 0.0
H1172 H 0.9379 0.28036 0.57261 0.0
H1173 H 0.73397 0.25074 0.36657 0.0
H1174 H 0.81025 0.23994 0.39083 0.0
H1175 H 0.7078 0.24382 0.41494 0.0
H1176 H 0.95902 0.21676 0.48475 0.0
H1177 H 0.7092 0.22562 0.53922 0.0
H1178 H 1.017 0.2501 0.47794 0.0
H1179 H 0.96488 0.24223 0.42371 0.0
H1180 H 0.03722 0.23244 0.45456 0.0
H1181 H 0.71244 0.26073 0.54358 0.0
H1182 H 0.63853 0.24637 0.53906 0.0
H1183 H 0.6576 0.25327 0.48964 0.0
C1184 C 0.95961 0.38281 0.15335 0.0
C1185 C 0.04426 0.37987 0.13977 0.0
C1186 C 0.93742 0.38157 0.19679 0.0
C1187 C 1.00182 0.37741 0.22751 0.0
C1188 C 0.08726 0.37429 0.21364 0.0
C1189 C 0.1076 0.37564 0.16999 0.0
C1190 C 0.84568 0.385 0.21017 0.0
C1191 C 0.1578 0.36983 0.24529 0.0
C1192 C 0.98553 0.38966 0.35432 0.0
C1193 C 0.95447 0.37797 0.36775 0.0
C1194 C 0.9996 0.38962 0.30883 0.0
C1195 C 0.98252 0.37758 0.27547 0.0
C1196 C 0.94913 0.36582 0.28831 0.0
C1197 C 0.93505 0.36616 0.33429 0.0
C1198 C 0.03436 0.40244 0.29665 0.0
C1199 C 0.93047 0.35277 0.25369 0.0
H1200 H 0.91056 0.38604 0.12982 0.0
H1201 H 0.17338 0.37352 0.15961 0.0
H1202 H 0.81663 0.37644 0.22275 0.0
H1203 H 0.8481 0.39406 0.23843 0.0
H1204 H 0.80179 0.3872 0.18137 0.0
H1205 H 0.21886 0.36688 0.22827 0.0
H1206 H 0.17395 0.37825 0.27499 0.0
H1207 H 0.13383 0.36105 0.25854 0.0
H1208 H 0.99999 0.39892 0.3795 0.0
H1209 H 0.9102 0.35712 0.34402 0.0
H1210 H 0.9895 0.40554 0.26983 0.0
H1211 H 0.09926 0.40049 0.28265 0.0
H1212 H 0.04184 0.41108 0.32641 0.0
H1213 H 0.88979 0.35479 0.22361 0.0
H1214 H 0.89624 0.345 0.26804 0.0
H1215 H 0.99318 0.34846 0.24151 0.0
C1216 C 0.93756 0.6451 0.17813 0.0
C1217 C 0.98883 0.63694 0.14701 0.0
C1218 C 0.949 0.64494 0.22489 0.0
C1219 C 1.01422 0.63661 0.24087 0.0
C1220 C 0.06723 0.62857 0.20966 0.0
C1221 C 0.05346 0.62876 0.16316 0.0
C1222 C 0.89052 0.65353 0.25711 0.0
C1223 C 0.13853 0.61973 0.22536 0.0
C1224 C 0.10281 0.64463 0.36512 0.0
C1225 C 0.06097 0.63456 0.38274 0.0
C1226 C 0.08725 0.64553 0.31922 0.0
C1227 C 1.0276 0.63625 0.29022 0.0
C1228 C 0.98392 0.62622 0.30791 0.0
C1229 C 1.00153 0.62544 0.35388 0.0
C1230 C 0.13605 0.65625 0.30153 0.0
C1231 C 0.91916 0.61623 0.27815 0.0
H1232 H 0.88716 0.65138 0.16583 0.0
H1233 H 0.09393 0.62251 0.13938 0.0
H1234 H 0.85342 0.6469 0.27473 0.0
H1235 H 0.93091 0.66073 0.28371 0.0
H1236 H 0.84297 0.65945 0.23932 0.0
H1237 H 0.1754 0.61433 0.19685 0.0
H1238 H 0.18559 0.62606 0.25108 0.0
H1239 H 0.10947 0.61203 0.24196 0.0
H1240 H 0.14896 0.65172 0.38705 0.0
H1241 H 0.96828 0.61771 0.36724 0.0
H1242 H 0.08891 0.6627 0.28582 0.0
H1243 H 0.17784 0.65126 0.27461 0.0
H1244 H 0.17844 0.66293 0.32878 0.0
H1245 H 0.86747 0.62179 0.26164 0.0
H1246 H 0.88726 0.60952 0.29763 0.0
H1247 H 0.95313 0.60973 0.2506 0.0
C1248 C 0.04854 0.62606 0.85837 0.0
C1249 C 0.97988 0.63393 0.87763 0.0
C1250 C 0.06875 0.62599 0.81362 0.0
C1251 C 1.02161 0.63444 0.78804 0.0
C1252 C 0.95254 0.64247 0.80731 0.0
C1253 C 0.9303 0.64169 0.85118 0.0
C1254 C 0.13975 0.61672 0.79354 0.0
C1255 C 0.90263 0.65198 0.7818 0.0
C1256 C 0.1314 0.64205 0.68624 0.0
C1257 C 0.08069 0.63401 0.64971 0.0
C1258 C 0.11077 0.64273 0.73141 0.0
C1259 C 0.04198 0.63439 0.74039 0.0
C1260 C 0.99343 0.62575 0.70376 0.0
C1261 C 1.01208 0.62589 0.65898 0.0
C1262 C 0.16195 0.65247 0.76943 0.0
C1263 C 0.9224 0.6162 0.71181 0.0
H1264 H 0.08664 0.61988 0.87827 0.0
H1265 H 0.87434 0.64723 0.86481 0.0
H1266 H 0.11312 0.60996 0.76141 0.0
H1267 H 0.19413 0.62285 0.78501 0.0
H1268 H 0.16707 0.61028 0.81717 0.0
H1269 H 0.85812 0.65867 0.80357 0.0
H1270 H 0.94914 0.65849 0.76867 0.0
H1271 H 0.86279 0.646 0.75202 0.0
H1272 H 0.18725 0.6478 0.67967 0.0
H1273 H 0.97288 0.6195 0.6311 0.0
H1274 H 0.20085 0.64669 0.79164 0.0
H1275 H 0.1162 0.65896 0.79094 0.0
H1276 H 0.2074 0.65917 0.7564 0.0
H1277 H 0.94897 0.6097 0.73541 0.0
H1278 H 0.8949 0.60947 0.67974 0.0
H1279 H 0.86809 0.62212 0.72811 0.0
C1280 C 0.91544 0.37575 0.66011 0.0
C1281 C 0.98207 0.38046 0.6374 0.0
C1282 C 0.92799 0.37546 0.70662 0.0
C1283 C 1.00902 0.38007 0.73105 0.0
C1284 C 0.07635 0.38493 0.70828 0.0
C1285 C 0.06187 0.38514 0.6617 0.0
C1286 C 0.85434 0.3703 0.72966 0.0
C1287 C 0.16369 0.3899 0.73311 0.0
C1288 C 1.01086 0.39153 0.85946 0.0
C1289 C 0.04476 0.3801 0.87501 0.0
C1290 C 0.99939 0.39166 0.8128 0.0
C1291 C 1.02239 0.3801 0.78068 0.0
C1292 C 0.05687 0.36854 0.79598 0.0
C1293 C 0.06753 0.36867 0.84292 0.0
C1294 C 0.96237 0.40418 0.79785 0.0
C1295 C 0.08184 0.356 0.76274 0.0
H1296 H 0.85323 0.3723 0.64144 0.0
H1297 H 0.11343 0.38877 0.64409 0.0
H1298 H 0.87707 0.36161 0.7451 0.0
H1299 H 0.83441 0.37844 0.75765 0.0
H1300 H 0.79582 0.36691 0.70568 0.0
H1301 H 0.20946 0.39324 0.71038 0.0
H1302 H 0.15375 0.39857 0.76155 0.0
H1303 H 0.19494 0.38167 0.74819 0.0
H1304 H 0.99312 0.40045 0.88375 0.0
H1305 H 0.09383 0.35979 0.8544 0.0
H1306 H 0.90081 0.40146 0.77569 0.0
H1307 H 1.00942 0.40827 0.77745 0.0
H1308 H 0.94812 0.41237 0.82713 0.0
H1309 H 1.02239 0.35138 0.74168 0.0
H1310 H 0.11287 0.3482 0.78012 0.0
H1311 H 0.12797 0.35878 0.73923 0.0
C1312 C 0.62323 0.87585 0.1801 0.0
C1313 C 0.56032 0.88024 0.15 0.0
C1314 C 0.60289 0.87461 0.22386 0.0
C1315 C 0.51795 0.878 0.23798 0.0
C1316 C 0.45408 0.88236 0.20745 0.0
C1317 C 0.47622 0.88349 0.16389 0.0
C1318 C 0.67279 0.8699 0.25528 0.0
C1319 C 0.36279 0.88604 0.22106 0.0
C1320 C 0.44952 0.86667 0.34429 0.0
C1321 C 0.47021 0.87835 0.37805 0.0
C1322 C 0.46355 0.8664 0.29836 0.0
C1323 C 0.4985 0.87812 0.28589 0.0
C1324 C 0.51696 0.89004 0.31957 0.0
C1325 C 0.50272 0.89001 0.365 0.0
C1326 C 0.4435 0.85344 0.26351 0.0
C1327 C 0.55332 0.90282 0.30777 0.0
H1328 H 0.68854 0.87346 0.16945 0.0
H1329 H 0.42742 0.88682 0.14045 0.0
H1330 H 0.68929 0.87818 0.28534 0.0
H1331 H 0.64793 0.86107 0.26798 0.0
H1332 H 0.7338 0.86691 0.23826 0.0
H1333 H 0.31945 0.88856 0.19257 0.0
H1334 H 0.33241 0.87746 0.23295 0.0
H1335 H 0.36628 0.89495 0.24986 0.0
H1336 H 0.42364 0.85764 0.35373 0.0
H1337 H 0.51824 0.89919 0.39043 0.0
H1338 H 0.50603 0.84858 0.25335 0.0
H1339 H 0.40746 0.85565 0.23239 0.0
H1340 H 0.40416 0.84604 0.27702 0.0
H1341 H 0.61798 0.90072 0.29364 0.0
H1342 H 0.56178 0.91138 0.33775 0.0
H1343 H 0.50892 0.90611 0.28116 0.0
C1344 C 0.55531 0.12657 0.16313 0.0
C1345 C 0.47864 0.13186 0.14512 0.0
C1346 C 0.56889 0.12665 0.20985 0.0
C1347 C 0.50377 0.13202 0.23918 0.0
C1348 C 0.42581 0.13728 0.22106 0.0
C1349 C 0.41415 0.13713 0.17417 0.0
C1350 C 0.65321 0.12106 0.22788 0.0
C1351 C 0.35471 0.14303 0.25118 0.0
C1352 C 0.5057 0.1211 0.35328 0.0
C1353 C 0.5471 0.13235 0.38301 0.0
C1354 C 0.49054 0.12091 0.30647 0.0
C1355 C 0.51766 0.1322 0.28886 0.0
C1356 C 0.55941 0.14357 0.31859 0.0
C1357 C 0.57341 0.14352 0.36523 0.0
C1358 C 0.44576 0.1086 0.27579 0.0
C1359 C 0.58931 0.1558 0.30115 0.0
H1360 H 0.60534 0.12253 0.14068 0.0
H1361 H 0.35437 0.14107 0.16013 0.0
H1362 H 0.68909 0.12914 0.25353 0.0
H1363 H 0.63841 0.11264 0.24522 0.0
H1364 H 0.697 0.11719 0.2005 0.0
H1365 H 0.29785 0.14664 0.23173 0.0
H1366 H 0.3311 0.13515 0.26881 0.0
H1367 H 0.38152 0.15168 0.27786 0.0
H1368 H 0.48486 0.11242 0.36652 0.0
H1369 H 0.60539 0.15228 0.38772 0.0
H1370 H 0.48994 0.1039 0.24964 0.0
H1371 H 0.38577 0.11173 0.25751 0.0
H1372 H 0.42706 0.10077 0.29491 0.0
H1373 H 0.63406 0.15259 0.27376 0.0
H1374 H 0.62383 0.1636 0.32842 0.0
H1375 H 0.53177 0.16058 0.28619 0.0
C1376 C 0.50772 0.12362 0.85037 0.0
C1377 C 0.46905 0.13434 0.87949 0.0
C1378 C 0.52506 0.12464 0.80605 0.0
C1379 C 0.50354 0.1367 0.7902 0.0
C1380 C 0.46445 0.14758 0.81922 0.0
C1381 C 0.44733 0.14626 0.86345 0.0
C1382 C 0.56631 0.11276 0.77611 0.0
C1383 C 0.44088 0.16061 0.8035 0.0
C1384 C 0.61957 0.14171 0.68708 0.0
C1385 C 0.55603 0.13667 0.65151 0.0
C1386 C 0.6022 0.14232 0.73268 0.0
C1387 C 0.51975 0.13764 0.74268 0.0
C1388 C 0.4548 0.13286 0.70675 0.0
C1389 C 0.47387 0.13241 0.66165 0.0
C1390 C 0.67304 0.14752 0.77003 0.0
C1391 C 0.36614 0.12777 0.71579 0.0
H1392 H 0.52501 0.11436 0.86216 0.0
H1393 H 0.41745 0.15461 0.88552 0.0
H1394 H 0.52202 0.10899 0.74506 0.0
H1395 H 0.62875 0.11609 0.76485 0.0
H1396 H 0.58015 0.10416 0.79376 0.0
H1397 H 0.41208 0.16821 0.83037 0.0
H1398 H 0.50021 0.16522 0.79318 0.0
H1399 H 0.39308 0.15839 0.77312 0.0
H1400 H 0.68352 0.14484 0.67918 0.0
H1401 H 0.42459 0.12855 0.63407 0.0
H1402 H 0.69594 0.13905 0.78652 0.0
H1403 H 0.64662 0.15544 0.79668 0.0
H1404 H 0.73037 0.15188 0.75699 0.0
H1405 H 0.37438 0.1185 0.73057 0.0
H1406 H 0.32103 0.12522 0.68435 0.0
H1407 H 0.33496 0.13556 0.74101 0.0
C1408 C 0.43378 0.87484 0.66969 0.0
C1409 C 0.49967 0.87973 0.64692 0.0
C1410 C 0.44753 0.87426 0.71593 0.0
C1411 C 0.52897 0.87876 0.74009 0.0
C1412 C 0.59564 0.88377 0.71725 0.0
C1413 C 0.58001 0.88426 0.67092 0.0
C1414 C 0.37453 0.86894 0.73903 0.0
C1415 C 0.68332 0.88867 0.74181 0.0
C1416 C 0.53031 0.89024 0.86843 0.0
C1417 C 0.56452 0.87886 0.88418 0.0
C1418 C 0.51926 0.89036 0.82177 0.0
C1419 C 0.54274 0.87881 0.78975 0.0
C1420 C 0.57762 0.86729 0.80522 0.0
C1421 C 0.58815 0.86746 0.85224 0.0
C1422 C 0.48196 0.90285 0.80672 0.0
C1423 C 0.60284 0.85475 0.77208 0.0
H1424 H 0.37115 0.8715 0.65128 0.0
H1425 H 0.63102 0.88802 0.65328 0.0
H1426 H 0.39813 0.86032 0.75457 0.0
H1427 H 0.35401 0.87705 0.76694 0.0
H1428 H 0.31619 0.86542 0.71507 0.0
H1429 H 0.72891 0.89197 0.71892 0.0
H1430 H 0.67383 0.89737 0.77026 0.0
H1431 H 0.71452 0.88043 0.75685 0.0
H1432 H 0.51196 0.89915 0.89257 0.0
H1433 H 0.61461 0.85861 0.86388 0.0
H1434 H 0.42019 0.9001 0.78476 0.0
H1435 H 0.52869 0.90691 0.7861 0.0
H1436 H 0.46794 0.91107 0.83595 0.0
H1437 H 0.54341 0.85006 0.75117 0.0
H1438 H 0.63435 0.847 0.78955 0.0
H1439 H 0.64859 0.85754 0.74841 0.0
loop_
_geom_bond_atom_site_label_1
_geom_bond_atom_site_label_2
_geom_bond_distance
_geom_bond_site_symmetry_2
_ccdc_geom_bond_type
Eu0 N29 2.600 1_455 S
Eu0 N35 2.562 1_456 S
Eu0 O44 2.462 1_556 S
Eu0 O45 2.373 1_455 S
Eu0 O47 2.432 . S
Eu0 O48 2.291 1_556 S
Eu0 O52 2.335 1_556 S
Eu0 O55 2.372 . S
Eu0 C64 2.787 . S
C1 N2 1.365 . S
C1 C4 1.405 . S
C1 C8 1.448 . S
N2 C1 1.365 . S
N2 C5 1.319 . S
N2 Eu11 2.600 . S
C3 C5 1.397 . S
C3 C6 1.367 . S
C3 H23 0.931 . S
C4 C1 1.405 . S
C4 C6 1.403 . S
C4 C10 1.439 . S
C5 N2 1.319 . S
C5 C3 1.397 . S
C5 H16 0.930 . S
C6 C3 1.367 . S
C6 C4 1.403 . S
C6 H27 0.929 . S
C7 C8 1.430 . S
C7 C9 1.387 . S
C7 C13 1.404 1_554 S
C8 C1 1.448 . S
C8 C7 1.430 . S
C8 N12 1.351 . S
C9 C7 1.387 . S
C9 C10 1.374 . S
C9 H24 0.931 . S
C10 C4 1.439 . S
C10 C9 1.374 . S
C10 H25 0.931 . S
Eu11 N2 2.600 . S
Eu11 N12 2.562 . S
Eu11 O46 2.335 1_455 S
Eu11 O49 2.372 . S
Eu11 O50 2.477 . S
Eu11 O51 2.373 . S
Eu11 O53 2.432 . S
Eu11 O54 2.291 1_554 S
Eu11 C75 2.787 . S
N12 C8 1.351 . S
N12 Eu11 2.562 . S
N12 C14 1.325 1_554 S
C13 C7 1.404 1_556 S
C13 C15 1.366 . S
C13 H21 0.930 . S
C14 N12 1.325 1_556 S
C14 C15 1.416 . S
C14 H20 0.929 . S
C15 C13 1.366 . S
C15 C14 1.416 . S
C15 H17 0.930 . S
H16 C5 0.930 . S
H17 C15 0.930 . S
H18 C33 0.930 . S
H19 C40 0.930 . S
H20 C14 0.929 . S
H21 C13 0.930 . S
H22 C36 0.929 . S
H23 C3 0.931 . S
H24 C9 0.931 . S
H25 C10 0.931 . S
H26 C31 0.931 . S
H27 C6 0.929 . S
H28 C39 0.930 . S
N29 Eu0 2.600 1_655 S
N29 C30 1.365 . S
N29 C33 1.319 . S
C30 N29 1.365 . S
C30 C32 1.405 . S
C30 C38 1.448 . S
C31 H26 0.931 . S
C31 C33 1.397 . S
C31 C34 1.367 . S
C32 C30 1.405 . S
C32 C34 1.403 . S
C32 C65 1.439 . S
C33 H18 0.930 . S
C33 N29 1.319 . S
C33 C31 1.397 . S
C34 C31 1.367 . S
C34 C32 1.403 . S
C34 H41 0.929 . S
N35 Eu0 2.562 1_654 S
N35 C36 1.325 . S
N35 C38 1.351 1_554 S
C36 H22 0.929 . S
C36 N35 1.325 . S
C36 C40 1.416 . S
C37 C38 1.430 . S
C37 C39 1.404 1_556 S
C37 C66 1.387 . S
C38 C30 1.448 . S
C38 N35 1.351 1_556 S
C38 C37 1.430 . S
C39 H28 0.930 . S
C39 C37 1.404 1_554 S
C39 C40 1.366 . S
C40 H19 0.930 . S
C40 C36 1.416 . S
C40 C39 1.366 . S
H41 C34 0.929 . S
H42 C65 0.931 . S
H43 C66 0.931 . S
O44 Eu0 2.462 1_554 S
O44 C64 1.252 1_554 S
O45 Eu0 2.373 1_655 S
O45 C56 1.249 1_556 S
O46 Eu11 2.335 1_655 S
O46 C56 1.264 . S
O47 Eu0 2.432 . S
O47 C64 1.268 . S
O48 Eu0 2.291 1_554 S
O48 C63 1.255 . S
O49 Eu11 2.372 . S
O49 C63 1.257 . S
O50 Eu11 2.477 . S
O50 C75 1.272 . S
O51 Eu11 2.373 . S
O51 C67 1.249 . S
O52 Eu0 2.335 1_554 S
O52 C67 1.264 . S
O53 Eu11 2.432 . S
O53 C75 1.268 . S
O54 Eu11 2.291 1_556 S
O54 C74 1.255 . S
O55 Eu0 2.372 . S
O55 C74 1.257 . S
C56 O45 1.249 1_554 S
C56 O46 1.264 . S
C57 C60 1.382 . S
C57 C62 1.390 1_556 S
C57 C64 1.506 . S
C58 C59 1.398 1_554 S
C58 C62 1.392 . S
C59 C58 1.398 1_556 S
C59 C61 1.372 . S
C59 H76 0.931 . S
C60 C57 1.382 . S
C60 C61 1.390 . S
C60 H77 0.931 . S
C61 C59 1.372 . S
C61 C60 1.390 . S
C61 H78 0.929 . S
C62 C57 1.390 1_554 S
C62 C58 1.392 . S
C62 H79 0.930 . S
C63 O48 1.255 . S
C63 O49 1.257 . S
C64 Eu0 2.787 . S
C64 O44 1.252 1_556 S
C64 O47 1.268 . S
C64 C57 1.506 . S
C65 C32 1.439 . S
C65 H42 0.931 . S
C65 C66 1.374 . S
C66 C37 1.387 . S
C66 H43 0.931 . S
C66 C65 1.374 . S
C67 O51 1.249 . S
C67 O52 1.264 . S
C68 C71 1.382 . S
C68 C72 1.390 1_554 S
C68 C75 1.506 1_655 S
C69 C70 1.398 1_556 S
C69 C72 1.392 . S
C70 C69 1.398 1_554 S
C70 C73 1.372 . S
C70 H80 0.931 . S
C71 C68 1.382 . S
C71 C73 1.390 . S
C71 H81 0.931 . S
C72 C68 1.390 1_556 S
C72 C69 1.392 . S
C72 H82 0.930 . S
C73 C70 1.372 . S
C73 C71 1.390 . S
C73 H83 0.929 . S
C74 O54 1.255 . S
C74 O55 1.257 . S
C75 Eu11 2.787 . S
C75 O50 1.272 . S
C75 O53 1.268 . S
C75 C68 1.506 1_455 S
H76 C59 0.931 . S
H77 C60 0.931 . S
H78 C61 0.929 . S
H79 C62 0.930 . S
H80 C70 0.931 . S
H81 C71 0.931 . S
H82 C72 0.930 . S
H83 C73 0.929 . S
Eu84 N113 2.600 1_654 S
Eu84 N119 2.562 1_655 S
Eu84 O128 2.462 . S
Eu84 O129 2.373 1_655 S
Eu84 O131 2.432 1_554 S
Eu84 O132 2.291 . S
Eu84 O136 2.335 . S
Eu84 O139 2.372 1_554 S
Eu84 C148 2.787 . S
C85 N86 1.365 . S
C85 C88 1.405 . S
C85 C92 1.448 . S
N86 C85 1.365 . S
N86 C89 1.319 . S
N86 Eu95 2.600 . S
C87 C89 1.397 . S
C87 C90 1.367 . S
C87 H107 0.931 . S
C88 C85 1.405 . S
C88 C90 1.403 . S
C88 C94 1.439 . S
C89 N86 1.319 . S
C89 C87 1.397 . S
C89 H100 0.930 . S
C90 C87 1.367 . S
C90 C88 1.403 . S
C90 H111 0.929 . S
C91 C92 1.430 1_556 S
C91 C93 1.387 1_556 S
C91 C97 1.404 . S
C92 C85 1.448 . S
C92 C91 1.430 1_554 S
C92 N96 1.351 1_554 S
C93 C91 1.387 1_554 S
C93 C94 1.374 . S
C93 H108 0.931 . S
C94 C88 1.439 . S
C94 C93 1.374 . S
C94 H109 0.931 . S
Eu95 N86 2.600 . S
Eu95 N96 2.562 1_554 S
Eu95 O130 2.335 1_655 S
Eu95 O133 2.372 . S
Eu95 O134 2.462 1_554 S
Eu95 O135 2.373 . S
Eu95 O137 2.432 . S
Eu95 O138 2.291 1_554 S
Eu95 C159 2.787 . S
N96 C92 1.351 1_556 S
N96 Eu95 2.562 1_556 S
N96 C98 1.325 . S
C97 C91 1.404 . S
C97 C99 1.366 . S
C97 H105 0.930 . S
C98 N96 1.325 . S
C98 C99 1.416 . S
C98 H104 0.929 . S
C99 C97 1.366 . S
C99 C98 1.416 . S
C99 H101 0.930 . S
H100 C89 0.930 . S
H101 C99 0.930 . S
H102 C117 0.930 1_655 S
H103 C124 0.930 . S
H104 C98 0.929 . S
H105 C97 0.930 . S
H106 C120 0.929 . S
H107 C87 0.931 . S
H108 C93 0.931 . S
H109 C94 0.931 . S
H110 C115 0.931 . S
H111 C90 0.929 . S
H112 C123 0.930 . S
N113 Eu84 2.600 1_456 S
N113 C114 1.365 . S
N113 C117 1.319 . S
C114 N113 1.365 . S
C114 C116 1.405 . S
C114 C122 1.448 1_556 S
C115 H110 0.931 . S
C115 C117 1.397 . S
C115 C118 1.367 . S
C116 C114 1.405 . S
C116 C118 1.403 . S
C116 C149 1.439 . S
C117 H102 0.930 1_455 S
C117 N113 1.319 . S
C117 C115 1.397 . S
C118 C115 1.367 . S
C118 C116 1.403 . S
C118 H125 0.929 . S
N119 Eu84 2.562 1_455 S
N119 C120 1.325 . S
N119 C122 1.351 . S
C120 H106 0.929 . S
C120 N119 1.325 . S
C120 C124 1.416 . S
C121 C122 1.430 . S
C121 C123 1.404 . S
C121 C150 1.387 . S
C122 C114 1.448 1_554 S
C122 N119 1.351 . S
C122 C121 1.430 . S
C123 H112 0.930 . S
C123 C121 1.404 . S
C123 C124 1.366 . S
C124 H103 0.930 . S
C124 C120 1.416 . S
C124 C123 1.366 . S
H125 C118 0.929 . S
H126 C149 0.931 . S
H127 C150 0.931 . S
O128 Eu84 2.462 . S
O128 C148 1.252 . S
O129 Eu84 2.373 1_455 S
O129 C140 1.249 . S
O130 Eu95 2.335 1_455 S
O130 C140 1.264 . S
O131 Eu84 2.432 1_556 S
O131 C148 1.268 1_556 S
O132 Eu84 2.291 . S
O132 C147 1.255 . S
O133 Eu95 2.372 . S
O133 C147 1.257 . S
O134 Eu95 2.462 1_556 S
O134 C159 1.252 1_556 S
O135 Eu95 2.373 . S
O135 C151 1.249 . S
O136 Eu84 2.335 . S
O136 C151 1.264 . S
O137 Eu95 2.432 . S
O137 C159 1.268 . S
O138 Eu95 2.291 1_556 S
O138 C158 1.255 . S
O139 Eu84 2.372 1_556 S
O139 C158 1.257 . S
C140 O129 1.249 . S
C140 O130 1.264 . S
C141 C144 1.382 1_554 S
C141 C146 1.390 . S
C141 C148 1.506 . S
C142 C143 1.398 . S
C142 C146 1.392 . S
C143 C142 1.398 . S
C143 C145 1.372 . S
C143 H160 0.931 . S
C144 C141 1.382 1_556 S
C144 C145 1.390 1_556 S
C144 H161 0.931 . S
C145 C143 1.372 . S
C145 C144 1.390 1_554 S
C145 H162 0.929 1_554 S
C146 C141 1.390 . S
C146 C142 1.392 . S
C146 H163 0.930 . S
C147 O132 1.255 . S
C147 O133 1.257 . S
C148 Eu84 2.787 . S
C148 O128 1.252 . S
C148 O131 1.268 1_554 S
C148 C141 1.506 . S
C149 C116 1.439 . S
C149 H126 0.931 . S
C149 C150 1.374 1_556 S
C150 C121 1.387 . S
C150 H127 0.931 . S
C150 C149 1.374 1_554 S
C151 O135 1.249 . S
C151 O136 1.264 . S
C152 C155 1.382 1_556 S
C152 C156 1.390 . S
C152 C159 1.506 1_456 S
C153 C154 1.398 . S
C153 C156 1.392 . S
C154 C153 1.398 . S
C154 C157 1.372 1_556 S
C154 H164 0.931 . S
C155 C152 1.382 1_554 S
C155 C157 1.390 . S
C155 H165 0.931 . S
C156 C152 1.390 . S
C156 C153 1.392 . S
C156 H166 0.930 . S
C157 C154 1.372 1_554 S
C157 C155 1.390 . S
C157 H167 0.929 . S
C158 O138 1.255 . S
C158 O139 1.257 . S
C159 Eu95 2.787 . S
C159 O134 1.252 1_554 S
C159 O137 1.268 . S
C159 C152 1.506 1_654 S
H160 C143 0.931 . S
H161 C144 0.931 . S
H162 C145 0.929 1_556 S
H163 C146 0.930 . S
H164 C154 0.931 . S
H165 C155 0.931 . S
H166 C156 0.930 . S
H167 C157 0.929 . S
Eu168 N197 2.600 1_455 S
Eu168 N203 2.562 1_455 S
Eu168 O212 2.462 . S
Eu168 O213 2.373 1_455 S
Eu168 O215 2.432 . S
Eu168 O216 2.291 . S
Eu168 O220 2.335 . S
Eu168 O223 2.372 . S
Eu168 C232 2.787 . S
C169 N170 1.365 . S
C169 C172 1.405 . S
C169 C176 1.448 . S
N170 C169 1.365 . S
N170 C173 1.319 . S
N170 Eu179 2.600 . S
C171 C173 1.397 . S
C171 C174 1.367 . S
C171 H191 0.931 . S
C172 C169 1.405 . S
C172 C174 1.403 . S
C172 C178 1.439 . S
C173 N170 1.319 . S
C173 C171 1.397 . S
C173 H184 0.930 . S
C174 C171 1.367 . S
C174 C172 1.403 . S
C174 H195 0.929 . S
C175 C176 1.430 . S
C175 C177 1.387 . S
C175 C181 1.404 . S
C176 C169 1.448 . S
C176 C175 1.430 . S
C176 N180 1.351 . S
C177 C175 1.387 . S
C177 C178 1.374 . S
C177 H192 0.931 . S
C178 C172 1.439 . S
C178 C177 1.374 . S
C178 H193 0.931 . S
Eu179 N170 2.600 . S
Eu179 N180 2.562 . S
Eu179 O214 2.335 1_455 S
Eu179 O217 2.372 . S
Eu179 O218 2.462 . S
Eu179 O219 2.373 . S
Eu179 O221 2.432 . S
Eu179 O222 2.291 . S
Eu179 C243 2.787 1_455 S
N180 C176 1.351 . S
N180 Eu179 2.562 . S
N180 C182 1.325 . S
C181 C175 1.404 . S
C181 C183 1.366 . S
C181 H189 0.930 . S
C182 N180 1.325 . S
C182 C183 1.416 . S
C182 H188 0.929 . S
C183 C181 1.366 . S
C183 C182 1.416 . S
C183 H185 0.930 . S
H184 C173 0.930 . S
H185 C183 0.930 . S
H186 C201 0.930 1_455 S
H187 C208 0.930 . S
H188 C182 0.929 . S
H189 C181 0.930 . S
H190 C204 0.929 . S
H191 C171 0.931 . S
H192 C177 0.931 . S
H193 C178 0.931 . S
H194 C199 0.931 . S
H195 C174 0.929 . S
H196 C207 0.930 . S
N197 Eu168 2.600 1_655 S
N197 C198 1.365 . S
N197 C201 1.319 . S
C198 N197 1.365 . S
C198 C200 1.405 . S
C198 C206 1.448 . S
C199 H194 0.931 . S
C199 C201 1.397 . S
C199 C202 1.367 . S
C200 C198 1.405 . S
C200 C202 1.403 . S
C200 C233 1.439 . S
C201 H186 0.930 1_655 S
C201 N197 1.319 . S
C201 C199 1.397 . S
C202 C199 1.367 . S
C202 C200 1.403 . S
C202 H209 0.929 . S
N203 Eu168 2.562 1_655 S
N203 C204 1.325 . S
N203 C206 1.351 . S
C204 H190 0.929 . S
C204 N203 1.325 . S
C204 C208 1.416 . S
C205 C206 1.430 . S
C205 C207 1.404 . S
C205 C234 1.387 . S
C206 C198 1.448 . S
C206 N203 1.351 . S
C206 C205 1.430 . S
C207 H196 0.930 . S
C207 C205 1.404 . S
C207 C208 1.366 . S
C208 H187 0.930 . S
C208 C204 1.416 . S
C208 C207 1.366 . S
H209 C202 0.929 . S
H210 C233 0.931 . S
H211 C234 0.931 . S
O212 Eu168 2.462 . S
O212 C232 1.252 . S
O213 Eu168 2.373 1_655 S
O213 C224 1.249 . S
O214 Eu179 2.335 1_655 S
O214 C224 1.264 . S
O215 Eu168 2.432 . S
O215 C232 1.268 . S
O216 Eu168 2.291 . S
O216 C231 1.255 . S
O217 Eu179 2.372 . S
O217 C231 1.257 . S
O218 Eu179 2.462 . S
O218 C243 1.252 1_455 S
O219 Eu179 2.373 . S
O219 C235 1.249 . S
O220 Eu168 2.335 . S
O220 C235 1.264 . S
O221 Eu179 2.432 . S
O221 C243 1.268 1_455 S
O222 Eu179 2.291 . S
O222 C242 1.255 . S
O223 Eu168 2.372 . S
O223 C242 1.257 . S
C224 O213 1.249 . S
C224 O214 1.264 . S
C225 C228 1.382 . S
C225 C230 1.390 . S
C225 C232 1.506 . S
C226 C227 1.398 . S
C226 C230 1.392 . S
C227 C226 1.398 . S
C227 C229 1.372 . S
C227 H244 0.931 . S
C228 C225 1.382 . S
C228 C229 1.390 . S
C228 H245 0.931 . S
C229 C227 1.372 . S
C229 C228 1.390 . S
C229 H246 0.929 . S
C230 C225 1.390 . S
C230 C226 1.392 . S
C230 H247 0.930 . S
C231 O216 1.255 . S
C231 O217 1.257 . S
C232 Eu168 2.787 . S
C232 O212 1.252 . S
C232 O215 1.268 . S
C232 C225 1.506 . S
C233 C200 1.439 . S
C233 H210 0.931 . S
C233 C234 1.374 . S
C234 C205 1.387 . S
C234 H211 0.931 . S
C234 C233 1.374 . S
C235 O219 1.249 . S
C235 O220 1.264 . S
C236 C239 1.382 . S
C236 C240 1.390 . S
C236 C243 1.506 . S
C237 C238 1.398 . S
C237 C240 1.392 . S
C238 C237 1.398 . S
C238 C241 1.372 . S
C238 H248 0.931 . S
C239 C236 1.382 . S
C239 C241 1.390 . S
C239 H249 0.931 . S
C240 C236 1.390 . S
C240 C237 1.392 . S
C240 H250 0.930 . S
C241 C238 1.372 . S
C241 C239 1.390 . S
C241 H251 0.929 . S
C242 O222 1.255 . S
C242 O223 1.257 . S
C243 Eu179 2.787 1_655 S
C243 O218 1.252 1_655 S
C243 O221 1.268 1_655 S
C243 C236 1.506 . S
H244 C227 0.931 . S
H245 C228 0.931 . S
H246 C229 0.929 . S
H247 C230 0.930 . S
H248 C238 0.931 . S
H249 C239 0.931 . S
H250 C240 0.930 . S
H251 C241 0.929 . S
Eu252 N281 2.600 . S
Eu252 N287 2.562 . S
Eu252 O296 2.462 . S
Eu252 O297 2.373 . S
Eu252 O299 2.432 . S
Eu252 O300 2.291 . S
Eu252 O304 2.335 1_655 S
Eu252 O307 2.372 . S
Eu252 C316 2.787 1_655 S
C253 N254 1.365 . S
C253 C256 1.405 . S
C253 C260 1.448 . S
N254 C253 1.365 . S
N254 C257 1.319 . S
N254 Eu263 2.600 1_455 S
C255 C257 1.397 . S
C255 C258 1.367 . S
C255 H275 0.931 . S
C256 C253 1.405 . S
C256 C258 1.403 . S
C256 C262 1.439 . S
C257 N254 1.319 . S
C257 C255 1.397 . S
C257 H268 0.930 1_455 S
C258 C255 1.367 . S
C258 C256 1.403 . S
C258 H279 0.929 . S
C259 C260 1.430 . S
C259 C261 1.387 . S
C259 C265 1.404 . S
C260 C253 1.448 . S
C260 C259 1.430 . S
C260 N264 1.351 . S
C261 C259 1.387 . S
C261 C262 1.374 . S
C261 H276 0.931 . S
C262 C256 1.439 . S
C262 C261 1.374 . S
C262 H277 0.931 . S
Eu263 N254 2.600 1_655 S
Eu263 N264 2.562 1_655 S
Eu263 O298 2.335 . S
Eu263 O301 2.372 . S
Eu263 O302 2.462 . S
Eu263 O303 2.373 1_655 S
Eu263 O305 2.432 . S
Eu263 O306 2.291 . S
Eu263 C327 2.787 . S
N264 C260 1.351 . S
N264 Eu263 2.562 1_455 S
N264 C266 1.325 . S
C265 C259 1.404 . S
C265 C267 1.366 . S
C265 H273 0.930 . S
C266 N264 1.325 . S
C266 C267 1.416 . S
C266 H272 0.929 . S
C267 C265 1.366 . S
C267 C266 1.416 . S
C267 H269 0.930 . S
H268 C257 0.930 1_655 S
H269 C267 0.930 . S
H270 C285 0.930 . S
H271 C292 0.930 . S
H272 C266 0.929 . S
H273 C265 0.930 . S
H274 C288 0.929 . S
H275 C255 0.931 . S
H276 C261 0.931 . S
H277 C262 0.931 . S
H278 C283 0.931 . S
H279 C258 0.929 . S
H280 C291 0.930 . S
N281 Eu252 2.600 . S
N281 C282 1.365 . S
N281 C285 1.319 . S
C282 N281 1.365 . S
C282 C284 1.405 . S
C282 C290 1.448 . S
C283 H278 0.931 . S
C283 C285 1.397 . S
C283 C286 1.367 . S
C284 C282 1.405 . S
C284 C286 1.403 . S
C284 C317 1.439 . S
C285 H270 0.930 . S
C285 N281 1.319 . S
C285 C283 1.397 . S
C286 C283 1.367 . S
C286 C284 1.403 . S
C286 H293 0.929 . S
N287 Eu252 2.562 . S
N287 C288 1.325 . S
N287 C290 1.351 . S
C288 H274 0.929 . S
C288 N287 1.325 . S
C288 C292 1.416 . S
C289 C290 1.430 . S
C289 C291 1.404 . S
C289 C318 1.387 . S
C290 C282 1.448 . S
C290 N287 1.351 . S
C290 C289 1.430 . S
C291 H280 0.930 . S
C291 C289 1.404 . S
C291 C292 1.366 . S
C292 H271 0.930 . S
C292 C288 1.416 . S
C292 C291 1.366 . S
H293 C286 0.929 . S
H294 C317 0.931 . S
H295 C318 0.931 . S
O296 Eu252 2.462 . S
O296 C316 1.252 1_655 S
O297 Eu252 2.373 . S
O297 C308 1.249 . S
O298 Eu263 2.335 . S
O298 C308 1.264 . S
O299 Eu252 2.432 . S
O299 C316 1.268 1_655 S
O300 Eu252 2.291 . S
O300 C315 1.255 . S
O301 Eu263 2.372 . S
O301 C315 1.257 . S
O302 Eu263 2.462 . S
O302 C327 1.252 . S
O303 Eu263 2.373 1_455 S
O303 C319 1.249 . S
O304 Eu252 2.335 1_455 S
O304 C319 1.264 . S
O305 Eu263 2.432 . S
O305 C327 1.268 . S
O306 Eu263 2.291 . S
O306 C326 1.255 . S
O307 Eu252 2.372 . S
O307 C326 1.257 . S
C308 O297 1.249 . S
C308 O298 1.264 . S
C309 C312 1.382 . S
C309 C314 1.390 . S
C309 C316 1.506 . S
C310 C311 1.398 . S
C310 C314 1.392 . S
C311 C310 1.398 . S
C311 C313 1.372 . S
C311 H328 0.931 . S
C312 C309 1.382 . S
C312 C313 1.390 . S
C312 H329 0.931 . S
C313 C311 1.372 . S
C313 C312 1.390 . S
C313 H330 0.929 . S
C314 C309 1.390 . S
C314 C310 1.392 . S
C314 H331 0.930 . S
C315 O300 1.255 . S
C315 O301 1.257 . S
C316 Eu252 2.787 1_455 S
C316 O296 1.252 1_455 S
C316 O299 1.268 1_455 S
C316 C309 1.506 . S
C317 C284 1.439 . S
C317 H294 0.931 . S
C317 C318 1.374 . S
C318 C289 1.387 . S
C318 H295 0.931 . S
C318 C317 1.374 . S
C319 O303 1.249 . S
C319 O304 1.264 . S
C320 C323 1.382 . S
C320 C324 1.390 . S
C320 C327 1.506 . S
C321 C322 1.398 . S
C321 C324 1.392 . S
C322 C321 1.398 . S
C322 C325 1.372 . S
C322 H332 0.931 . S
C323 C320 1.382 . S
C323 C325 1.390 . S
C323 H333 0.931 . S
C324 C320 1.390 . S
C324 C321 1.392 . S
C324 H334 0.930 . S
C325 C322 1.372 . S
C325 C323 1.390 . S
C325 H335 0.929 . S
C326 O306 1.255 . S
C326 O307 1.257 . S
C327 Eu263 2.787 . S
C327 O302 1.252 . S
C327 O305 1.268 . S
C327 C320 1.506 . S
H328 C311 0.931 . S
H329 C312 0.931 . S
H330 C313 0.929 . S
H331 C314 0.930 . S
H332 C322 0.931 . S
H333 C323 0.931 . S
H334 C324 0.930 . S
H335 C325 0.929 . S
Eu336 N365 2.600 . S
Eu336 N371 2.562 1_556 S
Eu336 O380 2.462 1_556 S
Eu336 O381 2.373 . S
Eu336 O383 2.432 . S
Eu336 O384 2.291 1_556 S
Eu336 O388 2.335 1_556 S
Eu336 O391 2.372 . S
Eu336 C400 2.787 . S
C337 N338 1.365 . S
C337 C340 1.405 . S
C337 C344 1.448 . S
N338 C337 1.365 . S
N338 C341 1.319 . S
N338 Eu347 2.600 . S
C339 C341 1.397 . S
C339 C342 1.367 . S
C339 H359 0.931 . S
C340 C337 1.405 . S
C340 C342 1.403 . S
C340 C346 1.439 . S
C341 N338 1.319 . S
C341 C339 1.397 . S
C341 H352 0.930 . S
C342 C339 1.367 . S
C342 C340 1.403 . S
C342 H363 0.929 . S
C343 C344 1.430 . S
C343 C345 1.387 . S
C343 C349 1.404 1_554 S
C344 C337 1.448 . S
C344 C343 1.430 . S
C344 N348 1.351 . S
C345 C343 1.387 . S
C345 C346 1.374 . S
C345 H360 0.931 . S
C346 C340 1.439 . S
C346 C345 1.374 . S
C346 H361 0.931 . S
Eu347 N338 2.600 . S
Eu347 N348 2.562 . S
Eu347 O382 2.335 . S
Eu347 O385 2.372 . S
Eu347 O386 2.476 . S
Eu347 O387 2.373 . S
Eu347 O389 2.432 . S
Eu347 O390 2.291 1_554 S
Eu347 C411 2.787 . S
N348 C344 1.351 . S
N348 Eu347 2.562 . S
N348 C350 1.325 1_554 S
C349 C343 1.404 1_556 S
C349 C351 1.366 . S
C349 H357 0.930 . S
C350 N348 1.325 1_556 S
C350 C351 1.416 . S
C350 H356 0.929 . S
C351 C349 1.366 . S
C351 C350 1.416 . S
C351 H353 0.930 . S
H352 C341 0.930 . S
H353 C351 0.930 . S
H354 C369 0.930 . S
H355 C376 0.930 . S
H356 C350 0.929 . S
H357 C349 0.930 . S
H358 C372 0.929 . S
H359 C339 0.931 . S
H360 C345 0.931 . S
H361 C346 0.931 . S
H362 C367 0.931 . S
H363 C342 0.929 . S
H364 C375 0.930 . S
N365 Eu336 2.600 . S
N365 C366 1.365 . S
N365 C369 1.319 . S
C366 N365 1.365 . S
C366 C368 1.405 . S
C366 C374 1.448 . S
C367 H362 0.931 . S
C367 C369 1.397 . S
C367 C370 1.367 . S
C368 C366 1.405 . S
C368 C370 1.403 . S
C368 C401 1.439 . S
C369 H354 0.930 . S
C369 N365 1.319 . S
C369 C367 1.397 . S
C370 C367 1.367 . S
C370 C368 1.403 . S
C370 H377 0.929 . S
N371 Eu336 2.562 1_554 S
N371 C372 1.325 . S
N371 C374 1.351 1_554 S
C372 H358 0.929 . S
C372 N371 1.325 . S
C372 C376 1.416 . S
C373 C374 1.430 . S
C373 C375 1.404 1_556 S
C373 C402 1.387 . S
C374 C366 1.448 . S
C374 N371 1.351 1_556 S
C374 C373 1.430 . S
C375 H364 0.930 . S
C375 C373 1.404 1_554 S
C375 C376 1.366 . S
C376 H355 0.930 . S
C376 C372 1.416 . S
C376 C375 1.366 . S
H377 C370 0.929 . S
H378 C401 0.931 . S
H379 C402 0.931 . S
O380 Eu336 2.462 1_554 S
O380 C400 1.252 1_554 S
O381 Eu336 2.373 . S
O381 C392 1.249 1_556 S
O382 Eu347 2.335 . S
O382 C392 1.264 . S
O383 Eu336 2.432 . S
O383 C400 1.268 . S
O384 Eu336 2.291 1_554 S
O384 C399 1.255 . S
O385 Eu347 2.372 . S
O385 C399 1.257 . S
O386 Eu347 2.476 . S
O386 C411 1.271 . S
O387 Eu347 2.373 . S
O387 C403 1.249 . S
O388 Eu336 2.335 1_554 S
O388 C403 1.264 . S
O389 Eu347 2.432 . S
O389 C411 1.268 . S
O390 Eu347 2.291 1_556 S
O390 C410 1.255 . S
O391 Eu336 2.372 . S
O391 C410 1.257 . S
C392 O381 1.249 1_554 S
C392 O382 1.264 . S
C393 C396 1.382 . S
C393 C398 1.390 1_556 S
C393 C400 1.506 . S
C394 C395 1.398 1_554 S
C394 C398 1.392 . S
C395 C394 1.398 1_556 S
C395 C397 1.372 . S
C395 H412 0.931 . S
C396 C393 1.382 . S
C396 C397 1.390 . S
C396 H413 0.931 . S
C397 C395 1.372 . S
C397 C396 1.390 . S
C397 H414 0.929 . S
C398 C393 1.390 1_554 S
C398 C394 1.392 . S
C398 H415 0.930 . S
C399 O384 1.255 . S
C399 O385 1.257 . S
C400 Eu336 2.787 . S
C400 O380 1.252 1_556 S
C400 O383 1.268 . S
C400 C393 1.506 . S
C401 C368 1.439 . S
C401 H378 0.931 . S
C401 C402 1.374 . S
C402 C373 1.387 . S
C402 H379 0.931 . S
C402 C401 1.374 . S
C403 O387 1.249 . S
C403 O388 1.264 . S
C404 C407 1.382 . S
C404 C408 1.390 1_554 S
C404 C411 1.506 . S
C405 C406 1.398 1_556 S
C405 C408 1.392 . S
C406 C405 1.398 1_554 S
C406 C409 1.372 . S
C406 H416 0.931 . S
C407 C404 1.382 . S
C407 C409 1.390 . S
C407 H417 0.931 . S
C408 C404 1.390 1_556 S
C408 C405 1.392 . S
C408 H418 0.930 . S
C409 C406 1.372 . S
C409 C407 1.390 . S
C409 H419 0.929 . S
C410 O390 1.255 . S
C410 O391 1.257 . S
C411 Eu347 2.787 . S
C411 O386 1.271 . S
C411 O389 1.268 . S
C411 C404 1.506 . S
H412 C395 0.931 . S
H413 C396 0.931 . S
H414 C397 0.929 . S
H415 C398 0.930 . S
H416 C406 0.931 . S
H417 C407 0.931 . S
H418 C408 0.930 . S
H419 C409 0.929 . S
Eu420 N449 2.600 1_554 S
Eu420 N455 2.562 . S
Eu420 O464 2.462 . S
Eu420 O465 2.373 . S
Eu420 O467 2.432 1_554 S
Eu420 O468 2.291 . S
Eu420 O472 2.335 . S
Eu420 O475 2.372 1_554 S
Eu420 C484 2.787 . S
C421 N422 1.365 . S
C421 C424 1.405 . S
C421 C428 1.448 . S
N422 C421 1.365 . S
N422 C425 1.319 . S
N422 Eu431 2.600 . S
C423 C425 1.397 . S
C423 C426 1.367 . S
C423 H443 0.931 . S
C424 C421 1.405 . S
C424 C426 1.403 . S
C424 C430 1.439 . S
C425 N422 1.319 . S
C425 C423 1.397 . S
C425 H436 0.930 . S
C426 C423 1.367 . S
C426 C424 1.403 . S
C426 H447 0.929 . S
C427 C428 1.430 1_556 S
C427 C429 1.387 1_556 S
C427 C433 1.404 . S
C428 C421 1.448 . S
C428 C427 1.430 1_554 S
C428 N432 1.351 1_554 S
C429 C427 1.387 1_554 S
C429 C430 1.374 . S
C429 H444 0.931 . S
C430 C424 1.439 . S
C430 C429 1.374 . S
C430 H445 0.931 . S
Eu431 N422 2.600 . S
Eu431 N432 2.562 1_554 S
Eu431 O466 2.335 . S
Eu431 O469 2.372 . S
Eu431 O470 2.462 1_554 S
Eu431 O471 2.373 . S
Eu431 O473 2.432 . S
Eu431 O474 2.291 1_554 S
Eu431 C495 2.787 . S
N432 C428 1.351 1_556 S
N432 Eu431 2.562 1_556 S
N432 C434 1.325 . S
C433 C427 1.404 . S
C433 C435 1.366 . S
C433 H441 0.930 . S
C434 N432 1.325 . S
C434 C435 1.416 . S
C434 H440 0.929 . S
C435 C433 1.366 . S
C435 C434 1.416 . S
C435 H437 0.930 . S
H436 C425 0.930 . S
H437 C435 0.930 . S
H438 C453 0.930 . S
H439 C460 0.930 . S
H440 C434 0.929 . S
H441 C433 0.930 . S
H442 C456 0.929 . S
H443 C423 0.931 . S
H444 C429 0.931 . S
H445 C430 0.931 . S
H446 C451 0.931 . S
H447 C426 0.929 . S
H448 C459 0.930 . S
N449 Eu420 2.600 1_556 S
N449 C450 1.365 . S
N449 C453 1.319 . S
C450 N449 1.365 . S
C450 C452 1.405 . S
C450 C458 1.448 1_556 S
C451 H446 0.931 . S
C451 C453 1.397 . S
C451 C454 1.367 . S
C452 C450 1.405 . S
C452 C454 1.403 . S
C452 C485 1.439 . S
C453 H438 0.930 . S
C453 N449 1.319 . S
C453 C451 1.397 . S
C454 C451 1.367 . S
C454 C452 1.403 . S
C454 H461 0.929 . S
N455 Eu420 2.562 . S
N455 C456 1.325 . S
N455 C458 1.351 . S
C456 H442 0.929 . S
C456 N455 1.325 . S
C456 C460 1.416 . S
C457 C458 1.430 . S
C457 C459 1.404 . S
C457 C486 1.387 . S
C458 C450 1.448 1_554 S
C458 N455 1.351 . S
C458 C457 1.430 . S
C459 H448 0.930 . S
C459 C457 1.404 . S
C459 C460 1.366 . S
C460 H439 0.930 . S
C460 C456 1.416 . S
C460 C459 1.366 . S
H461 C454 0.929 . S
H462 C485 0.931 . S
H463 C486 0.931 . S
O464 Eu420 2.462 . S
O464 C484 1.252 . S
O465 Eu420 2.373 . S
O465 C476 1.249 . S
O466 Eu431 2.335 . S
O466 C476 1.264 . S
O467 Eu420 2.432 1_556 S
O467 C484 1.268 1_556 S
O468 Eu420 2.291 . S
O468 C483 1.255 . S
O469 Eu431 2.372 . S
O469 C483 1.257 . S
O470 Eu431 2.462 1_556 S
O470 C495 1.252 1_556 S
O471 Eu431 2.373 . S
O471 C487 1.249 . S
O472 Eu420 2.335 . S
O472 C487 1.264 . S
O473 Eu431 2.432 . S
O473 C495 1.268 . S
O474 Eu431 2.291 1_556 S
O474 C494 1.255 . S
O475 Eu420 2.372 1_556 S
O475 C494 1.257 . S
C476 O465 1.249 . S
C476 O466 1.264 . S
C477 C480 1.382 1_554 S
C477 C482 1.390 . S
C477 C484 1.506 . S
C478 C479 1.398 . S
C478 C482 1.392 . S
C479 C478 1.398 . S
C479 C481 1.372 . S
C479 H496 0.931 . S
C480 C477 1.382 1_556 S
C480 C481 1.390 1_556 S
C480 H497 0.931 . S
C481 C479 1.372 . S
C481 C480 1.390 1_554 S
C481 H498 0.929 1_554 S
C482 C477 1.390 . S
C482 C478 1.392 . S
C482 H499 0.930 . S
C483 O468 1.255 . S
C483 O469 1.257 . S
C484 Eu420 2.787 . S
C484 O464 1.252 . S
C484 O467 1.268 1_554 S
C484 C477 1.506 . S
C485 C452 1.439 . S
C485 H462 0.931 . S
C485 C486 1.374 1_556 S
C486 C457 1.387 . S
C486 H463 0.931 . S
C486 C485 1.374 1_554 S
C487 O471 1.249 . S
C487 O472 1.264 . S
C488 C491 1.382 1_556 S
C488 C492 1.390 . S
C488 C495 1.506 1_556 S
C489 C490 1.398 . S
C489 C492 1.392 . S
C490 C489 1.398 . S
C490 C493 1.372 1_556 S
C490 H500 0.931 . S
C491 C488 1.382 1_554 S
C491 C493 1.390 . S
C491 H501 0.931 . S
C492 C488 1.390 . S
C492 C489 1.392 . S
C492 H502 0.930 . S
C493 C490 1.372 1_554 S
C493 C491 1.390 . S
C493 H503 0.929 . S
C494 O474 1.255 . S
C494 O475 1.257 . S
C495 Eu431 2.787 . S
C495 O470 1.252 1_554 S
C495 O473 1.268 . S
C495 C488 1.506 1_554 S
H496 C479 0.931 . S
H497 C480 0.931 . S
H498 C481 0.929 1_556 S
H499 C482 0.930 . S
H500 C490 0.931 . S
H501 C491 0.931 . S
H502 C492 0.930 . S
H503 C493 0.929 . S
Eu504 N533 2.600 . S
Eu504 N539 2.562 . S
Eu504 O548 2.462 . S
Eu504 O549 2.373 . S
Eu504 O551 2.432 . S
Eu504 O552 2.291 . S
Eu504 O556 2.335 . S
Eu504 O559 2.372 . S
Eu504 C568 2.787 . S
C505 N506 1.365 . S
C505 C508 1.405 . S
C505 C512 1.448 . S
N506 C505 1.365 . S
N506 C509 1.319 . S
N506 Eu515 2.600 . S
C507 C509 1.397 . S
C507 C510 1.367 . S
C507 H527 0.931 . S
C508 C505 1.405 . S
C508 C510 1.403 . S
C508 C514 1.439 . S
C509 N506 1.319 . S
C509 C507 1.397 . S
C509 H520 0.930 . S
C510 C507 1.367 . S
C510 C508 1.403 . S
C510 H531 0.929 . S
C511 C512 1.430 . S
C511 C513 1.387 . S
C511 C517 1.404 . S
C512 C505 1.448 . S
C512 C511 1.430 . S
C512 N516 1.351 . S
C513 C511 1.387 . S
C513 C514 1.374 . S
C513 H528 0.931 . S
C514 C508 1.439 . S
C514 C513 1.374 . S
C514 H529 0.931 . S
Eu515 N506 2.600 . S
Eu515 N516 2.562 . S
Eu515 O550 2.335 . S
Eu515 O553 2.372 . S
Eu515 O554 2.462 . S
Eu515 O555 2.373 . S
Eu515 O557 2.432 . S
Eu515 O558 2.291 . S
Eu515 C579 2.787 . S
N516 C512 1.351 . S
N516 Eu515 2.562 . S
N516 C518 1.325 . S
C517 C511 1.404 . S
C517 C519 1.366 . S
C517 H525 0.930 . S
C518 N516 1.325 . S
C518 C519 1.416 . S
C518 H524 0.929 . S
C519 C517 1.366 . S
C519 C518 1.416 . S
C519 H521 0.930 . S
H520 C509 0.930 . S
H521 C519 0.930 . S
H522 C537 0.930 . S
H523 C544 0.930 . S
H524 C518 0.929 . S
H525 C517 0.930 . S
H526 C540 0.929 . S
H527 C507 0.931 . S
H528 C513 0.931 . S
H529 C514 0.931 . S
H530 C535 0.931 . S
H531 C510 0.929 . S
H532 C543 0.930 . S
N533 Eu504 2.600 . S
N533 C534 1.365 . S
N533 C537 1.319 . S
C534 N533 1.365 . S
C534 C536 1.405 . S
C534 C542 1.448 . S
C535 H530 0.931 . S
C535 C537 1.397 . S
C535 C538 1.367 . S
C536 C534 1.405 . S
C536 C538 1.403 . S
C536 C569 1.439 . S
C537 H522 0.930 . S
C537 N533 1.319 . S
C537 C535 1.397 . S
C538 C535 1.367 . S
C538 C536 1.403 . S
C538 H545 0.929 . S
N539 Eu504 2.562 . S
N539 C540 1.325 . S
N539 C542 1.351 . S
C540 H526 0.929 . S
C540 N539 1.325 . S
C540 C544 1.416 . S
C541 C542 1.430 . S
C541 C543 1.404 . S
C541 C570 1.387 . S
C542 C534 1.448 . S
C542 N539 1.351 . S
C542 C541 1.430 . S
C543 H532 0.930 . S
C543 C541 1.404 . S
C543 C544 1.366 . S
C544 H523 0.930 . S
C544 C540 1.416 . S
C544 C543 1.366 . S
H545 C538 0.929 . S
H546 C569 0.931 . S
H547 C570 0.931 . S
O548 Eu504 2.462 . S
O548 C568 1.252 . S
O549 Eu504 2.373 . S
O549 C560 1.249 . S
O550 Eu515 2.335 . S
O550 C560 1.264 . S
O551 Eu504 2.432 . S
O551 C568 1.268 . S
O552 Eu504 2.291 . S
O552 C567 1.255 . S
O553 Eu515 2.372 . S
O553 C567 1.257 . S
O554 Eu515 2.462 . S
O554 C579 1.252 . S
O555 Eu515 2.373 . S
O555 C571 1.249 . S
O556 Eu504 2.335 . S
O556 C571 1.264 . S
O557 Eu515 2.432 . S
O557 C579 1.268 . S
O558 Eu515 2.291 . S
O558 C578 1.255 . S
O559 Eu504 2.372 . S
O559 C578 1.257 . S
C560 O549 1.249 . S
C560 O550 1.264 . S
C561 C564 1.382 . S
C561 C566 1.390 . S
C561 C568 1.506 . S
C562 C563 1.398 . S
C562 C566 1.392 . S
C563 C562 1.398 . S
C563 C565 1.372 . S
C563 H580 0.931 . S
C564 C561 1.382 . S
C564 C565 1.390 . S
C564 H581 0.931 . S
C565 C563 1.372 . S
C565 C564 1.390 . S
C565 H582 0.929 . S
C566 C561 1.390 . S
C566 C562 1.392 . S
C566 H583 0.930 . S
C567 O552 1.255 . S
C567 O553 1.257 . S
C568 Eu504 2.787 . S
C568 O548 1.252 . S
C568 O551 1.268 . S
C568 C561 1.506 . S
C569 C536 1.439 . S
C569 H546 0.931 . S
C569 C570 1.374 . S
C570 C541 1.387 . S
C570 H547 0.931 . S
C570 C569 1.374 . S
C571 O555 1.249 . S
C571 O556 1.264 . S
C572 C575 1.382 . S
C572 C576 1.390 . S
C572 C579 1.506 . S
C573 C574 1.398 . S
C573 C576 1.392 . S
C574 C573 1.398 . S
C574 C577 1.372 . S
C574 H584 0.931 . S
C575 C572 1.382 . S
C575 C577 1.390 . S
C575 H585 0.931 . S
C576 C572 1.390 . S
C576 C573 1.392 . S
C576 H586 0.930 . S
C577 C574 1.372 . S
C577 C575 1.390 . S
C577 H587 0.929 . S
C578 O558 1.255 . S
C578 O559 1.257 . S
C579 Eu515 2.787 . S
C579 O554 1.252 . S
C579 O557 1.268 . S
C579 C572 1.506 . S
H580 C563 0.931 . S
H581 C564 0.931 . S
H582 C565 0.929 . S
H583 C566 0.930 . S
H584 C574 0.931 . S
H585 C575 0.931 . S
H586 C576 0.930 . S
H587 C577 0.929 . S
Eu588 N617 2.600 . S
Eu588 N623 2.562 . S
Eu588 O632 2.462 . S
Eu588 O633 2.373 . S
Eu588 O635 2.432 . S
Eu588 O636 2.291 . S
Eu588 O640 2.335 . S
Eu588 O643 2.372 . S
Eu588 C652 2.787 . S
C589 N590 1.365 . S
C589 C592 1.405 . S
C589 C596 1.448 . S
N590 C589 1.365 . S
N590 C593 1.319 . S
N590 Eu599 2.600 . S
C591 C593 1.397 . S
C591 C594 1.367 . S
C591 H611 0.931 . S
C592 C589 1.405 . S
C592 C594 1.403 . S
C592 C598 1.439 . S
C593 N590 1.319 . S
C593 C591 1.397 . S
C593 H604 0.930 . S
C594 C591 1.367 . S
C594 C592 1.403 . S
C594 H615 0.929 . S
C595 C596 1.430 . S
C595 C597 1.387 . S
C595 C601 1.404 . S
C596 C589 1.448 . S
C596 C595 1.430 . S
C596 N600 1.351 . S
C597 C595 1.387 . S
C597 C598 1.374 . S
C597 H612 0.931 . S
C598 C592 1.439 . S
C598 C597 1.374 . S
C598 H613 0.931 . S
Eu599 N590 2.600 . S
Eu599 N600 2.562 . S
Eu599 O634 2.335 . S
Eu599 O637 2.372 . S
Eu599 O638 2.462 . S
Eu599 O639 2.373 . S
Eu599 O641 2.432 . S
Eu599 O642 2.291 . S
Eu599 C663 2.787 . S
N600 C596 1.351 . S
N600 Eu599 2.562 . S
N600 C602 1.325 . S
C601 C595 1.404 . S
C601 C603 1.366 . S
C601 H609 0.930 . S
C602 N600 1.325 . S
C602 C603 1.416 . S
C602 H608 0.929 . S
C603 C601 1.366 . S
C603 C602 1.416 . S
C603 H605 0.930 . S
H604 C593 0.930 . S
H605 C603 0.930 . S
H606 C621 0.930 . S
H607 C628 0.930 . S
H608 C602 0.929 . S
H609 C601 0.930 . S
H610 C624 0.929 . S
H611 C591 0.931 . S
H612 C597 0.931 . S
H613 C598 0.931 . S
H614 C619 0.931 . S
H615 C594 0.929 . S
H616 C627 0.930 . S
N617 Eu588 2.600 . S
N617 C618 1.365 . S
N617 C621 1.319 . S
C618 N617 1.365 . S
C618 C620 1.405 . S
C618 C626 1.448 . S
C619 H614 0.931 . S
C619 C621 1.397 . S
C619 C622 1.367 . S
C620 C618 1.405 . S
C620 C622 1.403 . S
C620 C653 1.439 . S
C621 H606 0.930 . S
C621 N617 1.319 . S
C621 C619 1.397 . S
C622 C619 1.367 . S
C622 C620 1.403 . S
C622 H629 0.929 . S
N623 Eu588 2.562 . S
N623 C624 1.325 . S
N623 C626 1.351 . S
C624 H610 0.929 . S
C624 N623 1.325 . S
C624 C628 1.416 . S
C625 C626 1.430 . S
C625 C627 1.404 . S
C625 C654 1.387 . S
C626 C618 1.448 . S
C626 N623 1.351 . S
C626 C625 1.430 . S
C627 H616 0.930 . S
C627 C625 1.404 . S
C627 C628 1.366 . S
C628 H607 0.930 . S
C628 C624 1.416 . S
C628 C627 1.366 . S
H629 C622 0.929 . S
H630 C653 0.931 . S
H631 C654 0.931 . S
O632 Eu588 2.462 . S
O632 C652 1.252 . S
O633 Eu588 2.373 . S
O633 C644 1.249 . S
O634 Eu599 2.335 . S
O634 C644 1.264 . S
O635 Eu588 2.432 . S
O635 C652 1.268 . S
O636 Eu588 2.291 . S
O636 C651 1.255 . S
O637 Eu599 2.372 . S
O637 C651 1.257 . S
O638 Eu599 2.462 . S
O638 C663 1.252 . S
O639 Eu599 2.373 . S
O639 C655 1.249 . S
O640 Eu588 2.335 . S
O640 C655 1.264 . S
O641 Eu599 2.432 . S
O641 C663 1.268 . S
O642 Eu599 2.291 . S
O642 C662 1.255 . S
O643 Eu588 2.372 . S
O643 C662 1.257 . S
C644 O633 1.249 . S
C644 O634 1.264 . S
C645 C648 1.382 . S
C645 C650 1.390 . S
C645 C652 1.506 . S
C646 C647 1.398 . S
C646 C650 1.392 . S
C647 C646 1.398 . S
C647 C649 1.372 . S
C647 H664 0.931 . S
C648 C645 1.382 . S
C648 C649 1.390 . S
C648 H665 0.931 . S
C649 C647 1.372 . S
C649 C648 1.390 . S
C649 H666 0.929 . S
C650 C645 1.390 . S
C650 C646 1.392 . S
C650 H667 0.930 . S
C651 O636 1.255 . S
C651 O637 1.257 . S
C652 Eu588 2.787 . S
C652 O632 1.252 . S
C652 O635 1.268 . S
C652 C645 1.506 . S
C653 C620 1.439 . S
C653 H630 0.931 . S
C653 C654 1.374 . S
C654 C625 1.387 . S
C654 H631 0.931 . S
C654 C653 1.374 . S
C655 O639 1.249 . S
C655 O640 1.264 . S
C656 C659 1.382 . S
C656 C660 1.390 . S
C656 C663 1.506 . S
C657 C658 1.398 . S
C657 C660 1.392 . S
C658 C657 1.398 . S
C658 C661 1.372 . S
C658 H668 0.931 . S
C659 C656 1.382 . S
C659 C661 1.390 . S
C659 H669 0.931 . S
C660 C656 1.390 . S
C660 C657 1.392 . S
C660 H670 0.930 . S
C661 C658 1.372 . S
C661 C659 1.390 . S
C661 H671 0.929 . S
C662 O642 1.255 . S
C662 O643 1.257 . S
C663 Eu599 2.787 . S
C663 O638 1.252 . S
C663 O641 1.268 . S
C663 C656 1.506 . S
H664 C647 0.931 . S
H665 C648 0.931 . S
H666 C649 0.929 . S
H667 C650 0.930 . S
H668 C658 0.931 . S
H669 C659 0.931 . S
H670 C660 0.930 . S
H671 C661 0.929 . S
C672 C673 1.391 . S
C672 C674 1.394 . S
C672 H688 0.931 . S
C673 C672 1.391 . S
C673 C677 1.376 1_554 S
C674 C672 1.394 . S
C674 C675 1.369 . S
C674 C678 1.531 . S
C675 C674 1.369 . S
C675 C676 1.410 1_554 S
C675 C683 1.503 . S
C676 C675 1.410 1_556 S
C676 C677 1.392 . S
C676 C679 1.511 . S
C677 C673 1.376 1_556 S
C677 C676 1.392 . S
C677 H689 0.929 . S
C678 C674 1.531 . S
C678 H690 0.960 . S
C678 H691 0.962 . S
C678 H692 0.960 . S
C679 C676 1.511 . S
C679 H693 0.961 . S
C679 H694 0.961 . S
C679 H695 0.961 . S
C680 C681 1.370 . S
C680 C682 1.363 . S
C680 H696 0.931 . S
C681 C680 1.370 . S
C681 C685 1.408 1_554 S
C682 C680 1.363 . S
C682 C683 1.370 . S
C682 C686 1.524 . S
C683 C675 1.503 . S
C683 C682 1.370 . S
C683 C684 1.403 1_554 S
C684 C683 1.403 1_556 S
C684 C685 1.404 . S
C684 C687 1.539 . S
C685 C681 1.408 1_556 S
C685 C684 1.404 . S
C685 H697 0.930 . S
C686 C682 1.524 . S
C686 H698 0.956 . S
C686 H699 0.961 . S
C686 H700 0.961 . S
C687 C684 1.539 . S
C687 H701 0.958 . S
C687 H702 0.961 . S
C687 H703 0.960 . S
H688 C672 0.931 . S
H689 C677 0.929 . S
H690 C678 0.960 . S
H691 C678 0.962 . S
H692 C678 0.960 . S
H693 C679 0.961 . S
H694 C679 0.961 . S
H695 C679 0.961 . S
H696 C680 0.931 . S
H697 C685 0.930 . S
H698 C686 0.956 . S
H699 C686 0.961 . S
H700 C686 0.961 . S
H701 C687 0.958 . S
H702 C687 0.961 . S
H703 C687 0.960 . S
C704 C705 1.391 . S
C704 C706 1.394 1_554 S
C704 H720 0.930 1_554 S
C705 C704 1.391 . S
C705 C709 1.376 . S
C706 C704 1.394 1_556 S
C706 C707 1.369 1_556 S
C706 C710 1.531 . S
C707 C706 1.369 1_554 S
C707 C708 1.410 . S
C707 C715 1.503 . S
C708 C707 1.410 . S
C708 C709 1.392 . S
C708 C711 1.511 . S
C709 C705 1.376 . S
C709 C708 1.392 . S
C709 H721 0.929 . S
C710 C706 1.531 . S
C710 H722 0.960 . S
C710 H723 0.962 1_556 S
C710 H724 0.960 . S
C711 C708 1.511 . S
C711 H725 0.961 . S
C711 H726 0.961 . S
C711 H727 0.961 1_554 S
C712 C713 1.370 . S
C712 C714 1.363 . S
C712 H728 0.931 . S
C713 C712 1.370 . S
C713 C717 1.408 1_554 S
C714 C712 1.363 . S
C714 C715 1.370 . S
C714 C718 1.524 . S
C715 C707 1.503 . S
C715 C714 1.370 . S
C715 C716 1.403 1_554 S
C716 C715 1.403 1_556 S
C716 C717 1.404 . S
C716 C719 1.539 . S
C717 C713 1.408 1_556 S
C717 C716 1.404 . S
C717 H729 0.930 . S
C718 C714 1.524 . S
C718 H730 0.956 . S
C718 H731 0.961 . S
C718 H732 0.961 . S
C719 C716 1.539 . S
C719 H733 0.958 . S
C719 H734 0.961 . S
C719 H735 0.960 . S
H720 C704 0.930 1_556 S
H721 C709 0.929 . S
H722 C710 0.960 . S
H723 C710 0.962 1_554 S
H724 C710 0.960 . S
H725 C711 0.961 . S
H726 C711 0.961 . S
H727 C711 0.961 1_556 S
H728 C712 0.931 . S
H729 C717 0.930 . S
H730 C718 0.956 . S
H731 C718 0.961 . S
H732 C718 0.961 . S
H733 C719 0.958 . S
H734 C719 0.961 . S
H735 C719 0.960 . S
C736 C737 1.391 . S
C736 C738 1.394 . S
C736 H752 0.931 . S
C737 C736 1.391 . S
C737 C741 1.376 . S
C738 C736 1.394 . S
C738 C739 1.369 . S
C738 C742 1.531 . S
C739 C738 1.369 . S
C739 C740 1.410 . S
C739 C747 1.503 . S
C740 C739 1.410 . S
C740 C741 1.392 . S
C740 C743 1.511 . S
C741 C737 1.376 . S
C741 C740 1.392 . S
C741 H753 0.929 . S
C742 C738 1.531 . S
C742 H754 0.960 . S
C742 H755 0.962 . S
C742 H756 0.960 . S
C743 C740 1.511 . S
C743 H757 0.961 . S
C743 H758 0.961 . S
C743 H759 0.961 . S
C744 C745 1.370 . S
C744 C746 1.363 . S
C744 H760 0.931 . S
C745 C744 1.370 . S
C745 C749 1.408 . S
C746 C744 1.363 . S
C746 C747 1.370 . S
C746 C750 1.524 . S
C747 C739 1.503 . S
C747 C746 1.370 . S
C747 C748 1.403 . S
C748 C747 1.403 . S
C748 C749 1.404 . S
C748 C751 1.539 . S
C749 C745 1.408 . S
C749 C748 1.404 . S
C749 H761 0.930 . S
C750 C746 1.524 . S
C750 H762 0.956 . S
C750 H763 0.961 . S
C750 H764 0.961 . S
C751 C748 1.539 . S
C751 H765 0.958 . S
C751 H766 0.961 . S
C751 H767 0.960 . S
H752 C736 0.931 . S
H753 C741 0.929 . S
H754 C742 0.960 . S
H755 C742 0.962 . S
H756 C742 0.960 . S
H757 C743 0.961 . S
H758 C743 0.961 . S
H759 C743 0.961 . S
H760 C744 0.931 . S
H761 C749 0.930 . S
H762 C750 0.956 . S
H763 C750 0.961 . S
H764 C750 0.961 . S
H765 C751 0.958 . S
H766 C751 0.961 . S
H767 C751 0.960 . S
C768 C769 1.391 . S
C768 C770 1.394 . S
C768 H784 0.931 . S
C769 C768 1.391 . S
C769 C773 1.376 . S
C770 C768 1.394 . S
C770 C771 1.369 . S
C770 C774 1.531 . S
C771 C770 1.369 . S
C771 C772 1.410 . S
C771 C779 1.503 . S
C772 C771 1.410 . S
C772 C773 1.392 . S
C772 C775 1.511 . S
C773 C769 1.376 . S
C773 C772 1.392 . S
C773 H785 0.929 . S
C774 C770 1.531 . S
C774 H786 0.960 . S
C774 H787 0.962 . S
C774 H788 0.960 . S
C775 C772 1.511 . S
C775 H789 0.961 . S
C775 H790 0.961 . S
C775 H791 0.961 . S
C776 C777 1.370 . S
C776 C778 1.363 . S
C776 H792 0.931 . S
C777 C776 1.370 . S
C777 C781 1.408 . S
C778 C776 1.363 . S
C778 C779 1.370 . S
C778 C782 1.524 . S
C779 C771 1.503 . S
C779 C778 1.370 . S
C779 C780 1.403 . S
C780 C779 1.403 . S
C780 C781 1.404 . S
C780 C783 1.539 . S
C781 C777 1.408 . S
C781 C780 1.404 . S
C781 H793 0.930 . S
C782 C778 1.524 . S
C782 H794 0.956 . S
C782 H795 0.961 . S
C782 H796 0.961 . S
C783 C780 1.539 . S
C783 H797 0.958 . S
C783 H798 0.961 . S
C783 H799 0.960 . S
H784 C768 0.931 . S
H785 C773 0.929 . S
H786 C774 0.960 . S
H787 C774 0.962 . S
H788 C774 0.960 . S
H789 C775 0.961 . S
H790 C775 0.961 . S
H791 C775 0.961 . S
H792 C776 0.931 . S
H793 C781 0.930 . S
H794 C782 0.956 . S
H795 C782 0.961 . S
H796 C782 0.961 . S
H797 C783 0.958 . S
H798 C783 0.961 . S
H799 C783 0.960 . S
C800 C801 1.391 . S
C800 C802 1.394 . S
C800 H816 0.931 . S
C801 C800 1.391 . S
C801 C805 1.376 1_554 S
C802 C800 1.394 . S
C802 C803 1.369 1_655 S
C802 C806 1.531 1_655 S
C803 C802 1.369 1_455 S
C803 C804 1.410 1_454 S
C803 C811 1.503 . S
C804 C803 1.410 1_656 S
C804 C805 1.392 . S
C804 C807 1.511 . S
C805 C801 1.376 1_556 S
C805 C804 1.392 . S
C805 H817 0.929 . S
C806 C802 1.531 1_455 S
C806 H818 0.960 . S
C806 H819 0.962 . S
C806 H820 0.960 . S
C807 C804 1.511 . S
C807 H821 0.961 . S
C807 H822 0.961 1_655 S
C807 H823 0.961 . S
C808 C809 1.370 . S
C808 C810 1.363 . S
C808 H824 0.931 . S
C809 C808 1.370 . S
C809 C813 1.408 1_554 S
C810 C808 1.363 . S
C810 C811 1.370 . S
C810 C814 1.524 . S
C811 C803 1.503 . S
C811 C810 1.370 . S
C811 C812 1.403 1_554 S
C812 C811 1.403 1_556 S
C812 C813 1.404 . S
C812 C815 1.539 . S
C813 C809 1.408 1_556 S
C813 C812 1.404 . S
C813 H825 0.930 . S
C814 C810 1.524 . S
C814 H826 0.956 . S
C814 H827 0.961 . S
C814 H828 0.961 . S
C815 C812 1.539 . S
C815 H829 0.958 . S
C815 H830 0.961 . S
C815 H831 0.960 . S
H816 C800 0.931 . S
H817 C805 0.929 . S
H818 C806 0.960 . S
H819 C806 0.962 . S
H820 C806 0.960 . S
H821 C807 0.961 . S
H822 C807 0.961 1_455 S
H823 C807 0.961 . S
H824 C808 0.931 . S
H825 C813 0.930 . S
H826 C814 0.956 . S
H827 C814 0.961 . S
H828 C814 0.961 . S
H829 C815 0.958 . S
H830 C815 0.961 . S
H831 C815 0.960 . S
C832 C833 1.391 . S
C832 C834 1.394 . S
C832 H848 0.931 . S
C833 C832 1.391 . S
C833 C837 1.376 1_554 S
C834 C832 1.394 . S
C834 C835 1.369 1_455 S
C834 C838 1.531 1_455 S
C835 C834 1.369 1_655 S
C835 C836 1.410 1_654 S
C835 C843 1.503 . S
C836 C835 1.410 1_456 S
C836 C837 1.392 . S
C836 C839 1.511 1_455 S
C837 C833 1.376 1_556 S
C837 C836 1.392 . S
C837 H849 0.929 . S
C838 C834 1.531 1_655 S
C838 H850 0.960 . S
C838 H851 0.962 . S
C838 H852 0.960 1_655 S
C839 C836 1.511 1_655 S
C839 H853 0.961 . S
C839 H854 0.961 . S
C839 H855 0.961 . S
C840 C841 1.370 . S
C840 C842 1.363 . S
C840 H856 0.931 . S
C841 C840 1.370 . S
C841 C845 1.408 . S
C842 C840 1.363 . S
C842 C843 1.370 . S
C842 C846 1.524 . S
C843 C835 1.503 . S
C843 C842 1.370 . S
C843 C844 1.403 . S
C844 C843 1.403 . S
C844 C845 1.404 . S
C844 C847 1.539 1_554 S
C845 C841 1.408 . S
C845 C844 1.404 . S
C845 H857 0.930 1_554 S
C846 C842 1.524 . S
C846 H858 0.956 . S
C846 H859 0.961 . S
C846 H860 0.961 . S
C847 C844 1.539 1_556 S
C847 H861 0.958 1_556 S
C847 H862 0.961 . S
C847 H863 0.960 . S
H848 C832 0.931 . S
H849 C837 0.929 . S
H850 C838 0.960 . S
H851 C838 0.962 . S
H852 C838 0.960 1_455 S
H853 C839 0.961 . S
H854 C839 0.961 . S
H855 C839 0.961 . S
H856 C840 0.931 . S
H857 C845 0.930 1_556 S
H858 C846 0.956 . S
H859 C846 0.961 . S
H860 C846 0.961 . S
H861 C847 0.958 1_554 S
H862 C847 0.961 . S
H863 C847 0.960 . S
C864 C865 1.391 . S
C864 C866 1.394 . S
C864 H880 0.931 . S
C865 C864 1.391 . S
C865 C869 1.376 . S
C866 C864 1.394 . S
C866 C867 1.369 . S
C866 C870 1.531 . S
C867 C866 1.369 . S
C867 C868 1.410 . S
C867 C875 1.503 . S
C868 C867 1.410 . S
C868 C869 1.392 . S
C868 C871 1.511 . S
C869 C865 1.376 . S
C869 C868 1.392 . S
C869 H881 0.929 . S
C870 C866 1.531 . S
C870 H882 0.960 . S
C870 H883 0.962 . S
C870 H884 0.960 . S
C871 C868 1.511 . S
C871 H885 0.961 . S
C871 H886 0.961 . S
C871 H887 0.961 . S
C872 C873 1.370 . S
C872 C874 1.363 . S
C872 H888 0.931 . S
C873 C872 1.370 . S
C873 C877 1.408 . S
C874 C872 1.363 . S
C874 C875 1.370 1_655 S
C874 C878 1.524 1_655 S
C875 C867 1.503 . S
C875 C874 1.370 1_455 S
C875 C876 1.403 1_455 S
C876 C875 1.403 1_655 S
C876 C877 1.404 . S
C876 C879 1.539 1_655 S
C877 C873 1.408 . S
C877 C876 1.404 . S
C877 H889 0.930 . S
C878 C874 1.524 1_455 S
C878 H890 0.956 . S
C878 H891 0.961 . S
C878 H892 0.961 1_455 S
C879 C876 1.539 1_455 S
C879 H893 0.958 . S
C879 H894 0.963 . S
C879 H895 0.960 . S
H880 C864 0.931 . S
H881 C869 0.929 . S
H882 C870 0.960 . S
H883 C870 0.962 . S
H884 C870 0.960 . S
H885 C871 0.961 . S
H886 C871 0.961 . S
H887 C871 0.961 . S
H888 C872 0.931 . S
H889 C877 0.930 . S
H890 C878 0.956 . S
H891 C878 0.961 . S
H892 C878 0.961 1_655 S
H893 C879 0.958 . S
H894 C879 0.963 . S
H895 C879 0.960 . S
C896 C897 1.391 . S
C896 C898 1.394 . S
C896 H912 0.931 . S
C897 C896 1.391 . S
C897 C901 1.376 . S
C898 C896 1.394 . S
C898 C899 1.369 . S
C898 C902 1.531 . S
C899 C898 1.369 . S
C899 C900 1.410 . S
C899 C907 1.503 . S
C900 C899 1.410 . S
C900 C901 1.392 . S
C900 C903 1.511 . S
C901 C897 1.376 . S
C901 C900 1.392 . S
C901 H913 0.929 . S
C902 C898 1.531 . S
C902 H914 0.960 . S
C902 H915 0.962 . S
C902 H916 0.960 . S
C903 C900 1.511 . S
C903 H917 0.961 . S
C903 H918 0.961 . S
C903 H919 0.961 . S
C904 C905 1.370 . S
C904 C906 1.363 . S
C904 H920 0.931 . S
C905 C904 1.370 . S
C905 C909 1.408 . S
C906 C904 1.363 . S
C906 C907 1.370 1_455 S
C906 C910 1.524 1_455 S
C907 C899 1.503 . S
C907 C906 1.370 1_655 S
C907 C908 1.403 1_655 S
C908 C907 1.403 1_455 S
C908 C909 1.404 . S
C908 C911 1.539 . S
C909 C905 1.408 . S
C909 C908 1.404 . S
C909 H921 0.930 . S
C910 C906 1.524 1_655 S
C910 H922 0.956 . S
C910 H923 0.961 . S
C910 H924 0.961 . S
C911 C908 1.539 . S
C911 H925 0.958 . S
C911 H926 0.961 . S
C911 H927 0.960 1_455 S
H912 C896 0.931 . S
H913 C901 0.929 . S
H914 C902 0.960 . S
H915 C902 0.962 . S
H916 C902 0.960 . S
H917 C903 0.961 . S
H918 C903 0.961 . S
H919 C903 0.961 . S
H920 C904 0.931 . S
H921 C909 0.930 . S
H922 C910 0.956 . S
H923 C910 0.961 . S
H924 C910 0.961 . S
H925 C911 0.958 . S
H926 C911 0.961 . S
H927 C911 0.960 1_655 S
C928 C929 1.391 1_655 S
C928 C930 1.394 . S
C928 H944 0.931 . S
C929 C928 1.391 1_455 S
C929 C933 1.376 . S
C930 C928 1.394 . S
C930 C931 1.369 1_655 S
C930 C934 1.531 . S
C931 C930 1.369 1_455 S
C931 C932 1.410 . S
C931 C939 1.503 1_455 S
C932 C931 1.410 . S
C932 C933 1.392 . S
C932 C935 1.511 . S
C933 C929 1.376 . S
C933 C932 1.392 . S
C933 H945 0.929 . S
C934 C930 1.531 . S
C934 H946 0.960 . S
C934 H947 0.962 . S
C934 H948 0.960 . S
C935 C932 1.511 . S
C935 H949 0.961 . S
C935 H950 0.961 . S
C935 H951 0.961 . S
C936 C937 1.370 . S
C936 C938 1.363 . S
C936 H952 0.931 1_556 S
C937 C936 1.370 . S
C937 C941 1.408 . S
C938 C936 1.363 . S
C938 C939 1.370 . S
C938 C942 1.524 1_556 S
C939 C931 1.503 1_655 S
C939 C938 1.370 . S
C939 C940 1.403 . S
C940 C939 1.403 . S
C940 C941 1.404 . S
C940 C943 1.539 . S
C941 C937 1.408 . S
C941 C940 1.404 . S
C941 H953 0.930 . S
C942 C938 1.524 1_554 S
C942 H954 0.956 . S
C942 H955 0.961 1_655 S
C942 H956 0.961 . S
C943 C940 1.539 . S
C943 H957 0.958 . S
C943 H958 0.961 1_655 S
C943 H959 0.960 1_655 S
H944 C928 0.931 . S
H945 C933 0.929 . S
H946 C934 0.960 . S
H947 C934 0.962 . S
H948 C934 0.960 . S
H949 C935 0.961 . S
H950 C935 0.961 . S
H951 C935 0.961 . S
H952 C936 0.931 1_554 S
H953 C941 0.930 . S
H954 C942 0.956 . S
H955 C942 0.961 1_455 S
H956 C942 0.961 . S
H957 C943 0.958 . S
H958 C943 0.961 1_455 S
H959 C943 0.960 1_455 S
C960 C961 1.391 . S
C960 C962 1.394 1_455 S
C960 H976 0.931 1_455 S
C961 C960 1.391 . S
C961 C965 1.376 . S
C962 C960 1.394 1_655 S
C962 C963 1.369 1_655 S
C962 C966 1.531 . S
C963 C962 1.369 1_455 S
C963 C964 1.410 . S
C963 C971 1.503 1_455 S
C964 C963 1.410 . S
C964 C965 1.392 . S
C964 C967 1.511 . S
C965 C961 1.376 . S
C965 C964 1.392 . S
C965 H977 0.929 . S
C966 C962 1.531 . S
C966 H978 0.960 . S
C966 H979 0.962 . S
C966 H980 0.960 . S
C967 C964 1.511 . S
C967 H981 0.961 . S
C967 H982 0.961 . S
C967 H983 0.961 . S
C968 C969 1.370 . S
C968 C970 1.363 . S
C968 H984 0.931 . S
C969 C968 1.370 . S
C969 C973 1.408 . S
C970 C968 1.363 . S
C970 C971 1.370 . S
C970 C974 1.524 . S
C971 C963 1.503 1_655 S
C971 C970 1.370 . S
C971 C972 1.403 1_655 S
C972 C971 1.403 1_455 S
C972 C973 1.404 1_455 S
C972 C975 1.539 . S
C973 C969 1.408 . S
C973 C972 1.404 1_655 S
C973 H985 0.930 1_655 S
C974 C970 1.524 . S
C974 H986 0.956 . S
C974 H987 0.961 . S
C974 H988 0.961 . S
C975 C972 1.539 . S
C975 H989 0.958 . S
C975 H990 0.961 . S
C975 H991 0.960 . S
H976 C960 0.931 1_655 S
H977 C965 0.929 . S
H978 C966 0.960 . S
H979 C966 0.962 . S
H980 C966 0.960 . S
H981 C967 0.961 . S
H982 C967 0.961 . S
H983 C967 0.961 . S
H984 C968 0.931 . S
H985 C973 0.930 1_455 S
H986 C974 0.956 . S
H987 C974 0.961 . S
H988 C974 0.961 . S
H989 C975 0.958 . S
H990 C975 0.961 . S
H991 C975 0.960 . S
C992 C993 1.391 . S
C992 C994 1.394 . S
C992 H1008 0.931 . S
C993 C992 1.391 . S
C993 C997 1.376 . S
C994 C992 1.394 . S
C994 C995 1.369 . S
C994 C998 1.531 . S
C995 C994 1.369 . S
C995 C996 1.410 . S
C995 C1003 1.503 1_565 S
C996 C995 1.410 . S
C996 C997 1.392 . S
C996 C999 1.511 1_565 S
C997 C993 1.376 . S
C997 C996 1.392 . S
C997 H1009 0.929 1_556 S
C998 C994 1.531 . S
C998 H1010 0.960 . S
C998 H1011 0.962 . S
C998 H1012 0.960 . S
C999 C996 1.511 1_545 S
C999 H1013 0.961 1_556 S
C999 H1014 0.961 1_556 S
C999 H1015 0.961 . S
C1000 C1001 1.370 . S
C1000 C1002 1.363 . S
C1000 H1016 0.931 . S
C1001 C1000 1.370 . S
C1001 C1005 1.408 . S
C1002 C1000 1.363 . S
C1002 C1003 1.370 . S
C1002 C1006 1.524 1_556 S
C1003 C995 1.503 1_545 S
C1003 C1002 1.370 . S
C1003 C1004 1.403 . S
C1004 C1003 1.403 . S
C1004 C1005 1.404 . S
C1004 C1007 1.539 . S
C1005 C1001 1.408 . S
C1005 C1004 1.404 . S
C1005 H1017 0.930 . S
C1006 C1002 1.524 1_554 S
C1006 H1018 0.956 1_544 S
C1006 H1019 0.961 . S
C1006 H1020 0.961 . S
C1007 C1004 1.539 . S
C1007 H1021 0.946 1_545 S
C1007 H1022 0.961 . S
C1007 H1023 0.941 1_545 S
H1008 C992 0.931 . S
H1009 C997 0.929 1_554 S
H1010 C998 0.960 . S
H1011 C998 0.962 . S
H1012 C998 0.960 . S
H1013 C999 0.961 1_554 S
H1014 C999 0.961 1_554 S
H1015 C999 0.961 . S
H1016 C1000 0.931 . S
H1017 C1005 0.930 . S
H1018 C1006 0.956 1_566 S
H1019 C1006 0.961 . S
H1020 C1006 0.961 . S
H1021 C1007 0.946 1_565 S
H1022 C1007 0.961 . S
H1023 C1007 0.941 1_565 S
C1024 C1025 1.391 . S
C1024 C1026 1.394 . S
C1024 H1040 0.931 . S
C1025 C1024 1.391 . S
C1025 C1029 1.376 . S
C1026 C1024 1.394 . S
C1026 C1027 1.369 . S
C1026 C1030 1.531 . S
C1027 C1026 1.369 . S
C1027 C1028 1.410 . S
C1027 C1035 1.503 1_545 S
C1028 C1027 1.410 . S
C1028 C1029 1.392 . S
C1028 C1031 1.511 . S
C1029 C1025 1.376 . S
C1029 C1028 1.392 . S
C1029 H1041 0.929 . S
C1030 C1026 1.531 . S
C1030 H1042 0.960 1_545 S
C1030 H1043 0.962 1_545 S
C1030 H1044 0.960 . S
C1031 C1028 1.511 . S
C1031 H1045 0.961 . S
C1031 H1046 0.961 . S
C1031 H1047 0.961 . S
C1032 C1033 1.370 . S
C1032 C1034 1.363 . S
C1032 H1048 0.931 . S
C1033 C1032 1.370 . S
C1033 C1037 1.408 . S
C1034 C1032 1.363 . S
C1034 C1035 1.370 . S
C1034 C1038 1.524 . S
C1035 C1027 1.503 1_565 S
C1035 C1034 1.370 . S
C1035 C1036 1.403 . S
C1036 C1035 1.403 . S
C1036 C1037 1.404 . S
C1036 C1039 1.590 . S
C1037 C1033 1.408 . S
C1037 C1036 1.404 . S
C1037 H1049 0.930 . S
C1038 C1034 1.524 . S
C1038 H1050 0.956 . S
C1038 H1051 0.961 . S
C1038 H1052 0.961 . S
C1039 C1036 1.590 . S
C1039 H1053 0.961 . S
C1039 H1054 0.982 . S
C1039 H1055 0.905 1_565 S
H1040 C1024 0.931 . S
H1041 C1029 0.929 . S
H1042 C1030 0.960 1_565 S
H1043 C1030 0.962 1_565 S
H1044 C1030 0.960 . S
H1045 C1031 0.961 . S
H1046 C1031 0.961 . S
H1047 C1031 0.961 . S
H1048 C1032 0.931 . S
H1049 C1037 0.930 . S
H1050 C1038 0.956 . S
H1051 C1038 0.961 . S
H1052 C1038 0.961 . S
H1053 C1039 0.961 . S
H1054 C1039 0.982 . S
H1055 C1039 0.905 1_545 S
C1056 C1057 1.391 . S
C1056 C1058 1.394 . S
C1056 H1072 0.931 . S
C1057 C1056 1.391 . S
C1057 C1061 1.376 . S
C1058 C1056 1.394 . S
C1058 C1059 1.369 . S
C1058 C1062 1.531 . S
C1059 C1058 1.369 . S
C1059 C1060 1.410 . S
C1059 C1067 1.503 . S
C1060 C1059 1.410 . S
C1060 C1061 1.392 . S
C1060 C1063 1.511 . S
C1061 C1057 1.376 . S
C1061 C1060 1.392 . S
C1061 H1073 0.929 . S
C1062 C1058 1.531 . S
C1062 H1074 0.960 . S
C1062 H1075 0.962 . S
C1062 H1076 0.960 . S
C1063 C1060 1.511 . S
C1063 H1077 0.961 . S
C1063 H1078 0.961 . S
C1063 H1079 0.961 . S
C1064 C1065 1.370 . S
C1064 C1066 1.363 . S
C1064 H1080 0.931 . S
C1065 C1064 1.370 . S
C1065 C1069 1.408 . S
C1066 C1064 1.363 . S
C1066 C1067 1.370 . S
C1066 C1070 1.524 . S
C1067 C1059 1.503 . S
C1067 C1066 1.370 . S
C1067 C1068 1.403 . S
C1068 C1067 1.403 . S
C1068 C1069 1.404 . S
C1068 C1071 1.539 1_554 S
C1069 C1065 1.408 . S
C1069 C1068 1.404 . S
C1069 H1081 0.930 . S
C1070 C1066 1.524 . S
C1070 H1082 0.956 . S
C1070 H1083 0.961 . S
C1070 H1084 0.961 . S
C1071 C1068 1.539 1_556 S
C1071 H1085 0.958 . S
C1071 H1086 0.961 . S
C1071 H1087 0.960 . S
H1072 C1056 0.931 . S
H1073 C1061 0.929 . S
H1074 C1062 0.960 . S
H1075 C1062 0.962 . S
H1076 C1062 0.960 . S
H1077 C1063 0.961 . S
H1078 C1063 0.961 . S
H1079 C1063 0.961 . S
H1080 C1064 0.931 . S
H1081 C1069 0.930 . S
H1082 C1070 0.956 . S
H1083 C1070 0.961 . S
H1084 C1070 0.961 . S
H1085 C1071 0.958 . S
H1086 C1071 0.961 . S
H1087 C1071 0.960 . S
C1088 C1089 1.391 . S
C1088 C1090 1.394 . S
C1088 H1104 0.931 1_554 S
C1089 C1088 1.391 . S
C1089 C1093 1.376 . S
C1090 C1088 1.394 . S
C1090 C1091 1.369 . S
C1090 C1094 1.531 1_554 S
C1091 C1090 1.369 . S
C1091 C1092 1.410 . S
C1091 C1099 1.503 . S
C1092 C1091 1.410 . S
C1092 C1093 1.392 . S
C1092 C1095 1.511 . S
C1093 C1089 1.376 . S
C1093 C1092 1.392 . S
C1093 H1105 0.929 . S
C1094 C1090 1.531 1_556 S
C1094 H1106 0.960 1_556 S
C1094 H1107 0.962 . S
C1094 H1108 0.960 . S
C1095 C1092 1.511 . S
C1095 H1109 0.961 . S
C1095 H1110 0.961 . S
C1095 H1111 0.961 . S
C1096 C1097 1.370 . S
C1096 C1098 1.363 . S
C1096 H1112 0.931 . S
C1097 C1096 1.370 . S
C1097 C1101 1.408 . S
C1098 C1096 1.363 . S
C1098 C1099 1.370 . S
C1098 C1102 1.524 . S
C1099 C1091 1.503 . S
C1099 C1098 1.370 . S
C1099 C1100 1.403 . S
C1100 C1099 1.403 . S
C1100 C1101 1.404 . S
C1100 C1103 1.539 . S
C1101 C1097 1.408 . S
C1101 C1100 1.404 . S
C1101 H1113 0.930 . S
C1102 C1098 1.524 . S
C1102 H1114 0.956 . S
C1102 H1115 0.961 . S
C1102 H1116 0.961 . S
C1103 C1100 1.539 . S
C1103 H1117 0.958 . S
C1103 H1118 0.961 . S
C1103 H1119 0.960 . S
H1104 C1088 0.931 1_556 S
H1105 C1093 0.929 . S
H1106 C1094 0.960 1_554 S
H1107 C1094 0.962 . S
H1108 C1094 0.960 . S
H1109 C1095 0.961 . S
H1110 C1095 0.961 . S
H1111 C1095 0.961 . S
H1112 C1096 0.931 . S
H1113 C1101 0.930 . S
H1114 C1102 0.956 . S
H1115 C1102 0.961 . S
H1116 C1102 0.961 . S
H1117 C1103 0.958 . S
H1118 C1103 0.961 . S
H1119 C1103 0.960 . S
C1120 C1121 1.391 . S
C1120 C1122 1.394 . S
C1120 H1136 0.931 . S
C1121 C1120 1.391 . S
C1121 C1125 1.376 . S
C1122 C1120 1.394 . S
C1122 C1123 1.369 . S
C1122 C1126 1.531 . S
C1123 C1122 1.369 . S
C1123 C1124 1.410 . S
C1123 C1131 1.503 . S
C1124 C1123 1.410 . S
C1124 C1125 1.392 . S
C1124 C1127 1.511 . S
C1125 C1121 1.376 . S
C1125 C1124 1.392 . S
C1125 H1137 0.929 . S
C1126 C1122 1.531 . S
C1126 H1138 0.960 . S
C1126 H1139 0.962 . S
C1126 H1140 0.960 . S
C1127 C1124 1.511 . S
C1127 H1141 0.961 . S
C1127 H1142 0.961 . S
C1127 H1143 0.961 . S
C1128 C1129 1.370 . S
C1128 C1130 1.363 . S
C1128 H1144 0.931 . S
C1129 C1128 1.370 . S
C1129 C1133 1.408 . S
C1130 C1128 1.363 . S
C1130 C1131 1.370 . S
C1130 C1134 1.524 . S
C1131 C1123 1.503 . S
C1131 C1130 1.370 . S
C1131 C1132 1.403 . S
C1132 C1131 1.403 . S
C1132 C1133 1.404 . S
C1132 C1135 1.539 . S
C1133 C1129 1.408 . S
C1133 C1132 1.404 . S
C1133 H1145 0.930 . S
C1134 C1130 1.524 . S
C1134 H1146 0.956 . S
C1134 H1147 0.961 . S
C1134 H1148 0.961 . S
C1135 C1132 1.539 . S
C1135 H1149 0.958 . S
C1135 H1150 0.961 . S
C1135 H1151 0.960 . S
H1136 C1120 0.931 . S
H1137 C1125 0.929 . S
H1138 C1126 0.960 . S
H1139 C1126 0.962 . S
H1140 C1126 0.960 . S
H1141 C1127 0.961 . S
H1142 C1127 0.961 . S
H1143 C1127 0.961 . S
H1144 C1128 0.931 . S
H1145 C1133 0.930 . S
H1146 C1134 0.956 . S
H1147 C1134 0.961 . S
H1148 C1134 0.961 . S
H1149 C1135 0.958 . S
H1150 C1135 0.961 . S
H1151 C1135 0.960 . S
C1152 C1153 1.391 . S
C1152 C1154 1.394 . S
C1152 H1168 0.931 . S
C1153 C1152 1.391 . S
C1153 C1157 1.376 . S
C1154 C1152 1.394 . S
C1154 C1155 1.369 . S
C1154 C1158 1.531 . S
C1155 C1154 1.369 . S
C1155 C1156 1.410 . S
C1155 C1163 1.503 . S
C1156 C1155 1.410 . S
C1156 C1157 1.392 . S
C1156 C1159 1.511 . S
C1157 C1153 1.376 . S
C1157 C1156 1.392 . S
C1157 H1169 0.929 . S
C1158 C1154 1.531 . S
C1158 H1170 0.960 . S
C1158 H1171 0.962 . S
C1158 H1172 0.960 . S
C1159 C1156 1.511 . S
C1159 H1173 0.961 . S
C1159 H1174 0.961 . S
C1159 H1175 0.961 . S
C1160 C1161 1.370 . S
C1160 C1162 1.363 . S
C1160 H1176 0.931 . S
C1161 C1160 1.370 . S
C1161 C1165 1.408 . S
C1162 C1160 1.363 . S
C1162 C1163 1.370 . S
C1162 C1166 1.524 . S
C1163 C1155 1.503 . S
C1163 C1162 1.370 . S
C1163 C1164 1.403 . S
C1164 C1163 1.403 . S
C1164 C1165 1.404 . S
C1164 C1167 1.539 . S
C1165 C1161 1.408 . S
C1165 C1164 1.404 . S
C1165 H1177 0.930 . S
C1166 C1162 1.524 . S
C1166 H1178 0.956 . S
C1166 H1179 0.961 . S
C1166 H1180 0.961 . S
C1167 C1164 1.539 . S
C1167 H1181 0.958 . S
C1167 H1182 0.961 . S
C1167 H1183 0.960 . S
H1168 C1152 0.931 . S
H1169 C1157 0.929 . S
H1170 C1158 0.960 . S
H1171 C1158 0.962 . S
H1172 C1158 0.960 . S
H1173 C1159 0.961 . S
H1174 C1159 0.961 . S
H1175 C1159 0.961 . S
H1176 C1160 0.931 . S
H1177 C1165 0.930 . S
H1178 C1166 0.956 . S
H1179 C1166 0.961 . S
H1180 C1166 0.961 . S
H1181 C1167 0.958 . S
H1182 C1167 0.961 . S
H1183 C1167 0.960 . S
C1184 C1185 1.391 1_655 S
C1184 C1186 1.394 . S
C1184 H1200 0.931 . S
C1185 C1184 1.391 1_455 S
C1185 C1189 1.376 . S
C1186 C1184 1.394 . S
C1186 C1187 1.369 1_655 S
C1186 C1190 1.531 . S
C1187 C1186 1.369 1_455 S
C1187 C1188 1.410 . S
C1187 C1195 1.503 1_455 S
C1188 C1187 1.410 . S
C1188 C1189 1.392 . S
C1188 C1191 1.511 . S
C1189 C1185 1.376 . S
C1189 C1188 1.392 . S
C1189 H1201 0.929 . S
C1190 C1186 1.531 . S
C1190 H1202 0.960 . S
C1190 H1203 0.962 . S
C1190 H1204 0.960 . S
C1191 C1188 1.511 . S
C1191 H1205 0.961 . S
C1191 H1206 0.961 . S
C1191 H1207 0.961 . S
C1192 C1193 1.370 . S
C1192 C1194 1.363 . S
C1192 H1208 0.931 . S
C1193 C1192 1.370 . S
C1193 C1197 1.408 . S
C1194 C1192 1.363 . S
C1194 C1195 1.370 . S
C1194 C1198 1.524 . S
C1195 C1187 1.503 1_655 S
C1195 C1194 1.370 . S
C1195 C1196 1.403 1_655 S
C1196 C1195 1.403 1_455 S
C1196 C1197 1.404 1_455 S
C1196 C1199 1.539 . S
C1197 C1193 1.408 . S
C1197 C1196 1.404 1_655 S
C1197 H1209 0.930 1_655 S
C1198 C1194 1.524 . S
C1198 H1210 0.956 . S
C1198 H1211 0.961 . S
C1198 H1212 0.961 . S
C1199 C1196 1.539 . S
C1199 H1213 0.958 . S
C1199 H1214 0.961 . S
C1199 H1215 0.960 . S
H1200 C1184 0.931 . S
H1201 C1189 0.929 . S
H1202 C1190 0.960 . S
H1203 C1190 0.962 . S
H1204 C1190 0.960 . S
H1205 C1191 0.961 . S
H1206 C1191 0.961 . S
H1207 C1191 0.961 . S
H1208 C1192 0.931 . S
H1209 C1197 0.930 1_455 S
H1210 C1198 0.956 . S
H1211 C1198 0.961 . S
H1212 C1198 0.961 . S
H1213 C1199 0.958 . S
H1214 C1199 0.961 . S
H1215 C1199 0.960 . S
C1216 C1217 1.391 . S
C1216 C1218 1.394 . S
C1216 H1232 0.931 . S
C1217 C1216 1.391 . S
C1217 C1221 1.376 1_655 S
C1218 C1216 1.394 . S
C1218 C1219 1.369 . S
C1218 C1222 1.531 . S
C1219 C1218 1.369 . S
C1219 C1220 1.410 1_655 S
C1219 C1227 1.503 1_655 S
C1220 C1219 1.410 1_455 S
C1220 C1221 1.392 . S
C1220 C1223 1.511 . S
C1221 C1217 1.376 1_455 S
C1221 C1220 1.392 . S
C1221 H1233 0.929 . S
C1222 C1218 1.531 . S
C1222 H1234 0.960 . S
C1222 H1235 0.962 . S
C1222 H1236 0.960 . S
C1223 C1220 1.511 . S
C1223 H1237 0.961 . S
C1223 H1238 0.961 . S
C1223 H1239 0.961 . S
C1224 C1225 1.365 1_655 S
C1224 C1226 1.364 . S
C1224 H1240 0.936 . S
C1225 C1224 1.365 1_455 S
C1225 C1229 1.408 . S
C1226 C1224 1.364 . S
C1226 C1227 1.370 1_655 S
C1226 C1230 1.524 . S
C1227 C1219 1.503 1_455 S
C1227 C1226 1.370 1_455 S
C1227 C1228 1.403 . S
C1228 C1227 1.403 . S
C1228 C1229 1.404 . S
C1228 C1231 1.539 . S
C1229 C1225 1.408 . S
C1229 C1228 1.404 . S
C1229 H1241 0.930 . S
C1230 C1226 1.524 . S
C1230 H1242 0.956 . S
C1230 H1243 0.961 . S
C1230 H1244 0.961 . S
C1231 C1228 1.539 . S
C1231 H1245 0.958 . S
C1231 H1246 0.961 . S
C1231 H1247 0.960 . S
H1232 C1216 0.931 . S
H1233 C1221 0.929 . S
H1234 C1222 0.960 . S
H1235 C1222 0.962 . S
H1236 C1222 0.960 . S
H1237 C1223 0.961 . S
H1238 C1223 0.961 . S
H1239 C1223 0.961 . S
H1240 C1224 0.936 . S
H1241 C1229 0.930 . S
H1242 C1230 0.956 . S
H1243 C1230 0.961 . S
H1244 C1230 0.961 . S
H1245 C1231 0.958 . S
H1246 C1231 0.961 . S
H1247 C1231 0.960 . S
C1248 C1249 1.391 . S
C1248 C1250 1.394 . S
C1248 H1264 0.931 . S
C1249 C1248 1.391 . S
C1249 C1253 1.376 . S
C1250 C1248 1.394 . S
C1250 C1251 1.369 . S
C1250 C1254 1.531 . S
C1251 C1250 1.369 . S
C1251 C1252 1.410 . S
C1251 C1259 1.503 1_655 S
C1252 C1251 1.410 . S
C1252 C1253 1.392 . S
C1252 C1255 1.511 1_655 S
C1253 C1249 1.376 . S
C1253 C1252 1.392 . S
C1253 H1265 0.929 . S
C1254 C1250 1.531 . S
C1254 H1266 0.960 . S
C1254 H1267 0.962 . S
C1254 H1268 0.960 . S
C1255 C1252 1.511 1_455 S
C1255 H1269 0.961 . S
C1255 H1270 0.961 . S
C1255 H1271 0.961 1_455 S
C1256 C1257 1.370 . S
C1256 C1258 1.363 . S
C1256 H1272 0.931 . S
C1257 C1256 1.370 . S
C1257 C1261 1.408 1_455 S
C1258 C1256 1.363 . S
C1258 C1259 1.370 . S
C1258 C1262 1.524 . S
C1259 C1251 1.503 1_455 S
C1259 C1258 1.370 . S
C1259 C1260 1.403 1_455 S
C1260 C1259 1.403 1_655 S
C1260 C1261 1.404 . S
C1260 C1263 1.539 . S
C1261 C1257 1.408 1_655 S
C1261 C1260 1.404 . S
C1261 H1273 0.930 . S
C1262 C1258 1.524 . S
C1262 H1274 0.956 . S
C1262 H1275 0.961 . S
C1262 H1276 0.961 . S
C1263 C1260 1.539 . S
C1263 H1277 0.958 . S
C1263 H1278 0.961 . S
C1263 H1279 0.960 . S
H1264 C1248 0.931 . S
H1265 C1253 0.929 . S
H1266 C1254 0.960 . S
H1267 C1254 0.962 . S
H1268 C1254 0.960 . S
H1269 C1255 0.961 . S
H1270 C1255 0.961 . S
H1271 C1255 0.961 1_655 S
H1272 C1256 0.931 . S
H1273 C1261 0.930 . S
H1274 C1262 0.956 . S
H1275 C1262 0.961 . S
H1276 C1262 0.961 . S
H1277 C1263 0.958 . S
H1278 C1263 0.961 . S
H1279 C1263 0.960 . S
C1280 C1281 1.391 . S
C1280 C1282 1.394 . S
C1280 H1296 0.931 . S
C1281 C1280 1.391 . S
C1281 C1285 1.376 1_655 S
C1282 C1280 1.394 . S
C1282 C1283 1.369 1_655 S
C1282 C1286 1.531 . S
C1283 C1282 1.369 1_455 S
C1283 C1284 1.410 . S
C1283 C1291 1.503 . S
C1284 C1283 1.410 . S
C1284 C1285 1.392 . S
C1284 C1287 1.511 . S
C1285 C1281 1.376 1_455 S
C1285 C1284 1.392 . S
C1285 H1297 0.929 . S
C1286 C1282 1.531 . S
C1286 H1298 0.960 . S
C1286 H1299 0.962 . S
C1286 H1300 0.960 . S
C1287 C1284 1.511 . S
C1287 H1301 0.961 . S
C1287 H1302 0.961 . S
C1287 H1303 0.961 . S
C1288 C1289 1.370 1_655 S
C1288 C1290 1.363 . S
C1288 H1304 0.931 . S
C1289 C1288 1.370 1_455 S
C1289 C1293 1.408 . S
C1290 C1288 1.363 . S
C1290 C1291 1.370 1_655 S
C1290 C1294 1.524 . S
C1291 C1283 1.503 . S
C1291 C1290 1.370 1_455 S
C1291 C1292 1.403 . S
C1292 C1291 1.403 . S
C1292 C1293 1.404 . S
C1292 C1295 1.539 . S
C1293 C1289 1.408 . S
C1293 C1292 1.404 . S
C1293 H1305 0.930 . S
C1294 C1290 1.524 . S
C1294 H1306 0.956 . S
C1294 H1307 0.961 . S
C1294 H1308 0.961 . S
C1295 C1292 1.539 . S
C1295 H1309 0.958 . S
C1295 H1310 0.961 . S
C1295 H1311 0.960 . S
H1296 C1280 0.931 . S
H1297 C1285 0.929 . S
H1298 C1286 0.960 . S
H1299 C1286 0.962 . S
H1300 C1286 0.960 . S
H1301 C1287 0.961 . S
H1302 C1287 0.961 . S
H1303 C1287 0.961 . S
H1304 C1288 0.931 . S
H1305 C1293 0.930 . S
H1306 C1294 0.956 . S
H1307 C1294 0.961 . S
H1308 C1294 0.961 . S
H1309 C1295 0.958 . S
H1310 C1295 0.961 . S
H1311 C1295 0.960 . S
C1312 C1313 1.391 . S
C1312 C1314 1.394 . S
C1312 H1328 0.931 . S
C1313 C1312 1.391 . S
C1313 C1317 1.376 . S
C1314 C1312 1.394 . S
C1314 C1315 1.369 . S
C1314 C1318 1.531 . S
C1315 C1314 1.369 . S
C1315 C1316 1.410 . S
C1315 C1323 1.503 . S
C1316 C1315 1.410 . S
C1316 C1317 1.392 . S
C1316 C1319 1.511 . S
C1317 C1313 1.376 . S
C1317 C1316 1.392 . S
C1317 H1329 0.929 . S
C1318 C1314 1.531 . S
C1318 H1330 0.960 . S
C1318 H1331 0.962 . S
C1318 H1332 0.960 . S
C1319 C1316 1.511 . S
C1319 H1333 0.961 . S
C1319 H1334 0.961 . S
C1319 H1335 0.961 . S
C1320 C1321 1.370 . S
C1320 C1322 1.363 . S
C1320 H1336 0.931 . S
C1321 C1320 1.370 . S
C1321 C1325 1.408 . S
C1322 C1320 1.363 . S
C1322 C1323 1.370 . S
C1322 C1326 1.524 . S
C1323 C1315 1.503 . S
C1323 C1322 1.370 . S
C1323 C1324 1.403 . S
C1324 C1323 1.403 . S
C1324 C1325 1.404 . S
C1324 C1327 1.539 . S
C1325 C1321 1.408 . S
C1325 C1324 1.404 . S
C1325 H1337 0.930 . S
C1326 C1322 1.524 . S
C1326 H1338 0.956 . S
C1326 H1339 0.961 . S
C1326 H1340 0.961 . S
C1327 C1324 1.539 . S
C1327 H1341 0.958 . S
C1327 H1342 0.961 . S
C1327 H1343 0.960 . S
H1328 C1312 0.931 . S
H1329 C1317 0.929 . S
H1330 C1318 0.960 . S
H1331 C1318 0.962 . S
H1332 C1318 0.960 . S
H1333 C1319 0.961 . S
H1334 C1319 0.961 . S
H1335 C1319 0.961 . S
H1336 C1320 0.931 . S
H1337 C1325 0.930 . S
H1338 C1326 0.956 . S
H1339 C1326 0.961 . S
H1340 C1326 0.961 . S
H1341 C1327 0.958 . S
H1342 C1327 0.961 . S
H1343 C1327 0.960 . S
C1344 C1345 1.391 . S
C1344 C1346 1.394 . S
C1344 H1360 0.931 . S
C1345 C1344 1.391 . S
C1345 C1349 1.376 . S
C1346 C1344 1.394 . S
C1346 C1347 1.369 . S
C1346 C1350 1.531 . S
C1347 C1346 1.369 . S
C1347 C1348 1.410 . S
C1347 C1355 1.503 . S
C1348 C1347 1.410 . S
C1348 C1349 1.392 . S
C1348 C1351 1.511 . S
C1349 C1345 1.376 . S
C1349 C1348 1.392 . S
C1349 H1361 0.929 . S
C1350 C1346 1.531 . S
C1350 H1362 0.960 . S
C1350 H1363 0.962 . S
C1350 H1364 0.960 . S
C1351 C1348 1.511 . S
C1351 H1365 0.961 . S
C1351 H1366 0.961 . S
C1351 H1367 0.961 . S
C1352 C1353 1.370 . S
C1352 C1354 1.363 . S
C1352 H1368 0.931 . S
C1353 C1352 1.370 . S
C1353 C1357 1.408 . S
C1354 C1352 1.363 . S
C1354 C1355 1.370 . S
C1354 C1358 1.524 . S
C1355 C1347 1.503 . S
C1355 C1354 1.370 . S
C1355 C1356 1.403 . S
C1356 C1355 1.403 . S
C1356 C1357 1.404 . S
C1356 C1359 1.539 . S
C1357 C1353 1.408 . S
C1357 C1356 1.404 . S
C1357 H1369 0.930 . S
C1358 C1354 1.524 . S
C1358 H1370 0.956 . S
C1358 H1371 0.961 . S
C1358 H1372 0.961 . S
C1359 C1356 1.539 . S
C1359 H1373 0.958 . S
C1359 H1374 0.961 . S
C1359 H1375 0.960 . S
H1360 C1344 0.931 . S
H1361 C1349 0.929 . S
H1362 C1350 0.960 . S
H1363 C1350 0.962 . S
H1364 C1350 0.960 . S
H1365 C1351 0.961 . S
H1366 C1351 0.961 . S
H1367 C1351 0.961 . S
H1368 C1352 0.931 . S
H1369 C1357 0.930 . S
H1370 C1358 0.956 . S
H1371 C1358 0.961 . S
H1372 C1358 0.961 . S
H1373 C1359 0.958 . S
H1374 C1359 0.961 . S
H1375 C1359 0.960 . S
C1376 C1377 1.391 . S
C1376 C1378 1.394 . S
C1376 H1392 0.931 . S
C1377 C1376 1.391 . S
C1377 C1381 1.376 . S
C1378 C1376 1.394 . S
C1378 C1379 1.369 . S
C1378 C1382 1.531 . S
C1379 C1378 1.369 . S
C1379 C1380 1.410 . S
C1379 C1387 1.503 . S
C1380 C1379 1.410 . S
C1380 C1381 1.392 . S
C1380 C1383 1.511 . S
C1381 C1377 1.376 . S
C1381 C1380 1.392 . S
C1381 H1393 0.929 . S
C1382 C1378 1.531 . S
C1382 H1394 0.960 . S
C1382 H1395 0.962 . S
C1382 H1396 0.960 . S
C1383 C1380 1.511 . S
C1383 H1397 0.961 . S
C1383 H1398 0.961 . S
C1383 H1399 0.961 . S
C1384 C1385 1.370 . S
C1384 C1386 1.363 . S
C1384 H1400 0.931 . S
C1385 C1384 1.370 . S
C1385 C1389 1.408 . S
C1386 C1384 1.363 . S
C1386 C1387 1.370 . S
C1386 C1390 1.524 . S
C1387 C1379 1.503 . S
C1387 C1386 1.370 . S
C1387 C1388 1.403 . S
C1388 C1387 1.403 . S
C1388 C1389 1.404 . S
C1388 C1391 1.539 . S
C1389 C1385 1.408 . S
C1389 C1388 1.404 . S
C1389 H1401 0.930 . S
C1390 C1386 1.524 . S
C1390 H1402 0.956 . S
C1390 H1403 0.961 . S
C1390 H1404 0.961 . S
C1391 C1388 1.539 . S
C1391 H1405 0.958 . S
C1391 H1406 0.961 . S
C1391 H1407 0.960 . S
H1392 C1376 0.931 . S
H1393 C1381 0.929 . S
H1394 C1382 0.960 . S
H1395 C1382 0.962 . S
H1396 C1382 0.960 . S
H1397 C1383 0.961 . S
H1398 C1383 0.961 . S
H1399 C1383 0.961 . S
H1400 C1384 0.931 . S
H1401 C1389 0.930 . S
H1402 C1390 0.956 . S
H1403 C1390 0.961 . S
H1404 C1390 0.961 . S
H1405 C1391 0.958 . S
H1406 C1391 0.961 . S
H1407 C1391 0.960 . S
C1408 C1409 1.391 . S
C1408 C1410 1.394 . S
C1408 H1424 0.931 . S
C1409 C1408 1.391 . S
C1409 C1413 1.376 . S
C1410 C1408 1.394 . S
C1410 C1411 1.369 . S
C1410 C1414 1.531 . S
C1411 C1410 1.369 . S
C1411 C1412 1.410 . S
C1411 C1419 1.503 . S
C1412 C1411 1.410 . S
C1412 C1413 1.392 . S
C1412 C1415 1.511 . S
C1413 C1409 1.376 . S
C1413 C1412 1.392 . S
C1413 H1425 0.929 . S
C1414 C1410 1.531 . S
C1414 H1426 0.960 . S
C1414 H1427 0.962 . S
C1414 H1428 0.960 . S
C1415 C1412 1.511 . S
C1415 H1429 0.961 . S
C1415 H1430 0.961 . S
C1415 H1431 0.961 . S
C1416 C1417 1.370 . S
C1416 C1418 1.363 . S
C1416 H1432 0.931 . S
C1417 C1416 1.370 . S
C1417 C1421 1.408 . S
C1418 C1416 1.363 . S
C1418 C1419 1.370 . S
C1418 C1422 1.524 . S
C1419 C1411 1.503 . S
C1419 C1418 1.370 . S
C1419 C1420 1.403 . S
C1420 C1419 1.403 . S
C1420 C1421 1.404 . S
C1420 C1423 1.539 . S
C1421 C1417 1.408 . S
C1421 C1420 1.404 . S
C1421 H1433 0.930 . S
C1422 C1418 1.524 . S
C1422 H1434 0.956 . S
C1422 H1435 0.961 . S
C1422 H1436 0.961 . S
C1423 C1420 1.539 . S
C1423 H1437 0.958 . S
C1423 H1438 0.961 . S
C1423 H1439 0.960 . S
H1424 C1408 0.931 . S
H1425 C1413 0.929 . S
H1426 C1414 0.960 . S
H1427 C1414 0.962 . S
H1428 C1414 0.960 . S
H1429 C1415 0.961 . S
H1430 C1415 0.961 . S
H1431 C1415 0.961 . S
H1432 C1416 0.931 . S
H1433 C1421 0.930 . S
H1434 C1422 0.956 . S
H1435 C1422 0.961 . S
H1436 C1422 0.961 . S
H1437 C1423 0.958 . S
H1438 C1423 0.961 . S
H1439 C1423 0.960 . S
C673 C67 1.964 . S
C681 C56 1.957 . S
C705 C140 1.934 . S
C713 C151 1.959 . S
C737 C224 1.930 . S
C745 C235 1.954 . S
C769 C308 1.929 . S
C777 C319 1.955 . S
C801 C403 1.964 . S
C809 C392 1.957 . S
C833 C487 1.963 . S
C841 C476 1.946 . S
C865 C560 1.931 . S
C873 C571 1.953 . S
C897 C655 1.950 . S
C905 C644 1.947 . S
C929 C153 2.001 . S
C937 C69 2.285 . S
C961 C310 1.936 . S
C969 C237 1.968 . S
C993 C405 2.301 . S
C1001 C489 1.968 . S
C1025 C573 1.917 . S
C1033 C646 1.976 . S
C1057 C58 1.736 . S
C1065 C478 1.480 . S
C1089 C394 1.793 . S
C1097 C142 1.510 . S
C1121 C226 1.404 . S
C1129 C657 1.473 . S
C1153 C321 1.497 . S
C1161 C562 1.440 . S
C1185 C63 1.657 . S
C1193 C315 1.672 . S
C1217 C147 1.461 . S
C1225 C231 1.575 . S
C1249 C158 1.674 . S
C1257 C242 1.751 . S
C1281 C326 1.492 . S
C1289 C74 1.496 . S
C1313 C399 1.590 . S
C1321 C651 1.687 . S
C1345 C483 1.540 . S
C1353 C567 1.578 . S
C1377 C494 1.716 . S
C1385 C578 1.760 . S
C1409 C662 1.496 . S
C1417 C410 1.495 . S
