# Generated by pormake.
# Topology wiu, (6)-cn, num edge types: 1
# Building blocks:
#     Node 0, Type 0, BuildingBlock: PAMTUU_clean_sbu_0, # of connection points: 6
#     Node 1, Type 0, BuildingBlock: PAMTUU_clean_sbu_0, # of connection points: 6
#     Node 2, Type 0, BuildingBlock: PAMTUU_clean_sbu_0, # of connection points: 6
#     Node 3, Type 0, BuildingBlock: PAMTUU_clean_sbu_0, # of connection points: 6
#     Node 4, Type 0, BuildingBlock: PAMTUU_clean_sbu_0, # of connection points: 6
#     Node 5, Type 0, BuildingBlock: PAMTUU_clean_sbu_0, # of connection points: 6
#     Node 6, Type 0, BuildingBlock: PAMTUU_clean_sbu_0, # of connection points: 6
#     Node 7, Type 0, BuildingBlock: PAMTUU_clean_sbu_0, # of connection points: 6
#     Node 8, Type 0, BuildingBlock: PAMTUU_clean_sbu_0, # of connection points: 6
#     Node 9, Type 0, BuildingBlock: PAMTUU_clean_sbu_0, # of connection points: 6
#     Node 10, Type 0, BuildingBlock: PAMTUU_clean_sbu_0, # of connection points: 6
#     Node 11, Type 0, BuildingBlock: PAMTUU_clean_sbu_0, # of connection points: 6
#     Node 12, Type 0, BuildingBlock: PAMTUU_clean_sbu_0, # of connection points: 6
#     Node 13, Type 0, BuildingBlock: PAMTUU_clean_sbu_0, # of connection points: 6
#     Node 14, Type 0, BuildingBlock: PAMTUU_clean_sbu_0, # of connection points: 6
#     Node 15, Type 0, BuildingBlock: PAMTUU_clean_sbu_0, # of connection points: 6
#     Edge 16, Type (0, 0), BuildingBlock: UVAHIK_clean_linker_0, # of connection points: 2
#     Edge 17, Type (0, 0), BuildingBlock: UVAHIK_clean_linker_0, # of connection points: 2
#     Edge 18, Type (0, 0), BuildingBlock: UVAHIK_clean_linker_0, # of connection points: 2
#     Edge 19, Type (0, 0), BuildingBlock: UVAHIK_clean_linker_0, # of connection points: 2
#     Edge 20, Type (0, 0), BuildingBlock: UVAHIK_clean_linker_0, # of connection points: 2
#     Edge 21, Type (0, 0), BuildingBlock: UVAHIK_clean_linker_0, # of connection points: 2
#     Edge 22, Type (0, 0), BuildingBlock: UVAHIK_clean_linker_0, # of connection points: 2
#     Edge 23, Type (0, 0), BuildingBlock: UVAHIK_clean_linker_0, # of connection points: 2
#     Edge 24, Type (0, 0), BuildingBlock: UVAHIK_clean_linker_0, # of connection points: 2
#     Edge 25, Type (0, 0), BuildingBlock: UVAHIK_clean_linker_0, # of connection points: 2
#     Edge 26, Type (0, 0), BuildingBlock: UVAHIK_clean_linker_0, # of connection points: 2
#     Edge 27, Type (0, 0), BuildingBlock: UVAHIK_clean_linker_0, # of connection points: 2
#     Edge 28, Type (0, 0), BuildingBlock: UVAHIK_clean_linker_0, # of connection points: 2
#     Edge 29, Type (0, 0), BuildingBlock: UVAHIK_clean_linker_0, # of connection points: 2
#     Edge 30, Type (0, 0), BuildingBlock: UVAHIK_clean_linker_0, # of connection points: 2
#     Edge 31, Type (0, 0), BuildingBlock: UVAHIK_clean_linker_0, # of connection points: 2
#     Edge 32, Type (0, 0), BuildingBlock: UVAHIK_clean_linker_0, # of connection points: 2
#     Edge 33, Type (0, 0), BuildingBlock: UVAHIK_clean_linker_0, # of connection points: 2
#     Edge 34, Type (0, 0), BuildingBlock: UVAHIK_clean_linker_0, # of connection points: 2
#     Edge 35, Type (0, 0), BuildingBlock: UVAHIK_clean_linker_0, # of connection points: 2
#     Edge 36, Type (0, 0), BuildingBlock: UVAHIK_clean_linker_0, # of connection points: 2
#     Edge 37, Type (0, 0), BuildingBlock: UVAHIK_clean_linker_0, # of connection points: 2
#     Edge 38, Type (0, 0), BuildingBlock: UVAHIK_clean_linker_0, # of connection points: 2
#     Edge 39, Type (0, 0), BuildingBlock: UVAHIK_clean_linker_0, # of connection points: 2
#     Edge 40, Type (0, 0), BuildingBlock: UVAHIK_clean_linker_0, # of connection points: 2
#     Edge 41, Type (0, 0), BuildingBlock: UVAHIK_clean_linker_0, # of connection points: 2
#     Edge 42, Type (0, 0), BuildingBlock: UVAHIK_clean_linker_0, # of connection points: 2
#     Edge 43, Type (0, 0), BuildingBlock: UVAHIK_clean_linker_0, # of connection points: 2
#     Edge 44, Type (0, 0), BuildingBlock: UVAHIK_clean_linker_0, # of connection points: 2
#     Edge 45, Type (0, 0), BuildingBlock: UVAHIK_clean_linker_0, # of connection points: 2
#     Edge 46, Type (0, 0), BuildingBlock: UVAHIK_clean_linker_0, # of connection points: 2
#     Edge 47, Type (0, 0), BuildingBlock: UVAHIK_clean_linker_0, # of connection points: 2
#     Edge 48, Type (0, 0), BuildingBlock: UVAHIK_clean_linker_0, # of connection points: 2
#     Edge 49, Type (0, 0), BuildingBlock: UVAHIK_clean_linker_0, # of connection points: 2
#     Edge 50, Type (0, 0), BuildingBlock: UVAHIK_clean_linker_0, # of connection points: 2
#     Edge 51, Type (0, 0), BuildingBlock: UVAHIK_clean_linker_0, # of connection points: 2
#     Edge 52, Type (0, 0), BuildingBlock: UVAHIK_clean_linker_0, # of connection points: 2
#     Edge 53, Type (0, 0), BuildingBlock: UVAHIK_clean_linker_0, # of connection points: 2
#     Edge 54, Type (0, 0), BuildingBlock: UVAHIK_clean_linker_0, # of connection points: 2
#     Edge 55, Type (0, 0), BuildingBlock: UVAHIK_clean_linker_0, # of connection points: 2
#     Edge 56, Type (0, 0), BuildingBlock: UVAHIK_clean_linker_0, # of connection points: 2
#     Edge 57, Type (0, 0), BuildingBlock: UVAHIK_clean_linker_0, # of connection points: 2
#     Edge 58, Type (0, 0), BuildingBlock: UVAHIK_clean_linker_0, # of connection points: 2
#     Edge 59, Type (0, 0), BuildingBlock: UVAHIK_clean_linker_0, # of connection points: 2
#     Edge 60, Type (0, 0), BuildingBlock: UVAHIK_clean_linker_0, # of connection points: 2
#     Edge 61, Type (0, 0), BuildingBlock: UVAHIK_clean_linker_0, # of connection points: 2
#     Edge 62, Type (0, 0), BuildingBlock: UVAHIK_clean_linker_0, # of connection points: 2
#     Edge 63, Type (0, 0), BuildingBlock: UVAHIK_clean_linker_0, # of connection points: 2
# Relax obj value: 0.398
# Max RMSD: 0.292
# Mean RMSD: 0.292
data_MOF--net-wiu--node1-PAMTUU_clean_sbu_0--edge1-UVAHIK_clean_linker_0
_symmetry_space_group_name_H-M    P1
_symmetry_Int_Tables_number       1
_symmetry_cell_setting            triclinic
loop_
_symmetry_equiv_pos_as_xyz
'x, y, z'
_cell_length_a     46.853243
_cell_length_b     46.676683
_cell_length_c     72.177422
_cell_angle_alpha  90.145092
_cell_angle_beta   89.884274
_cell_angle_gamma 90.143922
loop_
_atom_site_label
_atom_site_type_symbol
_atom_site_fract_x
_atom_site_fract_y
_atom_site_fract_z
_atom_type_partial_charge
Tb0 Tb 0.3643 0.09487 0.19497 0.0
Tb1 Tb 0.32389 0.14741 0.20589 0.0
C2 C 0.29863 0.08689 0.20057 0.0
C3 C 0.38716 0.03893 0.16471 0.0
C4 C 0.38348 0.01463 0.12915 0.0
C5 C 0.39288 0.99816 0.14444 0.0
C6 C 0.3945 1.01026 0.16214 0.0
C7 C 0.37476 0.05411 0.15005 0.0
C8 C 0.37137 0.04152 0.13276 0.0
C9 C 0.39231 0.05341 0.18242 0.0
O10 O 0.33733 0.10075 0.17058 0.0
O11 O 0.32104 0.14605 0.17535 0.0
O12 O 0.36609 0.16731 0.20822 0.0
O13 O 0.39234 0.13332 0.19284 0.0
O14 O 0.29107 0.16237 0.22322 0.0
O15 O 0.30669 0.1875 0.20012 0.0
O16 O 0.33048 0.12262 0.23189 0.0
O17 O 0.37046 0.09648 0.22465 0.0
O18 O 0.32377 0.07609 0.20421 0.0
O19 O 0.29542 0.11402 0.19712 0.0
C20 C 0.32385 0.12342 0.16458 0.0
O21 O 0.40069 0.07995 0.18108 0.0
O22 O 0.37219 0.05048 0.19468 0.0
C23 C 0.39006 0.15919 0.20027 0.0
C24 C 0.28636 0.21248 0.22524 0.0
C25 C 0.27397 0.26495 0.2422 0.0
C26 C 0.298 0.26225 0.23064 0.0
C27 C 0.30426 0.23615 0.22229 0.0
C28 C 0.26308 0.21475 0.23734 0.0
C29 C 0.257 0.24078 0.24587 0.0
C30 C 0.28934 0.18645 0.21423 0.0
C31 C 0.35104 0.10465 0.23668 0.0
H32 H 0.40191 0.97704 0.14263 0.0
H33 H 0.40335 0.99792 0.17343 0.0
H34 H 0.36958 0.07645 0.15141 0.0
H35 H 0.36266 0.05445 0.1217 0.0
H36 H 0.31121 0.28059 0.22728 0.0
H37 H 0.32233 0.23491 0.21294 0.0
H38 H 0.24899 0.19665 0.23965 0.0
H39 H 0.23857 0.24217 0.25491 0.0
Tb40 Tb 0.67933 0.61752 0.44397 0.0
Tb41 Tb 0.62568 0.58001 0.45586 0.0
C42 C 0.68459 0.55264 0.4558 0.0
C43 C 0.74607 0.63507 0.42028 0.0
C44 C 0.78525 0.6387 0.39116 0.0
C45 C 0.79495 0.6381 0.40965 0.0
C46 C 0.77524 0.63734 0.42418 0.0
C47 C 0.73733 0.62843 0.40225 0.0
C48 C 0.75683 0.62998 0.38775 0.0
C49 C 0.72501 0.64146 0.4347 0.0
O50 O 0.66422 0.60052 0.41726 0.0
O51 O 0.63696 0.56346 0.42817 0.0
O52 O 0.60837 0.6201 0.44482 0.0
O53 O 0.64586 0.65022 0.44905 0.0
O54 O 0.60135 0.54221 0.45381 0.0
O55 O 0.58531 0.58014 0.4679 0.0
O56 O 0.64524 0.58991 0.48318 0.0
O57 O 0.68227 0.61909 0.47396 0.0
O58 O 0.69186 0.57218 0.4436 0.0
O59 O 0.66115 0.55509 0.46544 0.0
C60 C 0.65099 0.57591 0.41453 0.0
O61 O 0.6999 0.64989 0.42902 0.0
O62 O 0.72335 0.62278 0.448 0.0
C63 C 0.6182 0.64625 0.44682 0.0
C64 C 0.56394 0.53568 0.47601 0.0
C65 C 0.51807 0.50626 0.4924 0.0
C66 C 0.52483 0.53432 0.49798 0.0
C67 C 0.54762 0.54883 0.48993 0.0
C68 C 0.55909 0.50672 0.47175 0.0
C69 C 0.53645 0.49202 0.48001 0.0
C70 C 0.58031 0.55361 0.4631 0.0
C71 C 0.66819 0.60551 0.48699 0.0
H72 H 0.81711 0.64225 0.41293 0.0
H73 H 0.78255 0.64073 0.43825 0.0
H74 H 0.71502 0.62473 0.39908 0.0
H75 H 0.74828 0.62838 0.37388 0.0
H76 H 0.51108 0.54614 0.50732 0.0
H77 H 0.5507 0.5712 0.49345 0.0
H78 H 0.57131 0.49609 0.46099 0.0
H79 H 0.53219 0.47017 0.47573 0.0
Tb80 Tb 0.15643 0.93226 0.69542 0.0
Tb81 Tb 0.19512 0.87823 0.70501 0.0
C82 C 0.22359 0.93653 0.69943 0.0
C83 C 0.13385 0.99805 0.67265 0.0
C84 C 0.12508 0.03584 0.64324 0.0
C85 C 0.12664 0.04633 0.66155 0.0
C86 C 0.13013 0.02727 0.67626 0.0
C87 C 0.1391 0.98895 0.65444 0.0
C88 C 0.13487 1.00774 0.6398 0.0
C89 C 0.12963 0.97699 0.68744 0.0
O90 O 0.18015 0.92671 0.66949 0.0
O91 O 0.19864 0.88198 0.67445 0.0
O92 O 0.15243 0.85981 0.70744 0.0
O93 O 0.12681 0.89476 0.6927 0.0
O94 O 0.22794 0.86184 0.72158 0.0
O95 O 0.20993 0.8372 0.69893 0.0
O96 O 0.19129 0.90364 0.73113 0.0
O97 O 0.1498 0.92706 0.72493 0.0
O98 O 0.19901 0.94894 0.7029 0.0
O99 O 0.22481 0.90942 0.69558 0.0
C100 C 0.19465 0.90441 0.66358 0.0
O101 O 0.12184 0.95142 0.68211 0.0
O102 O 0.14929 0.97619 0.70009 0.0
C103 C 0.12862 0.86854 0.69971 0.0
C104 C 0.23101 0.81151 0.7235 0.0
C105 C 0.24445 0.75899 0.73996 0.0
C106 C 0.22165 0.76093 0.72739 0.0
C107 C 0.21489 0.78701 0.71929 0.0
C108 C 0.25296 0.80993 0.73662 0.0
C109 C 0.25952 0.78389 0.7449 0.0
C110 C 0.22812 0.83761 0.71258 0.0
C111 C 0.17018 0.92048 0.73655 0.0
H112 H 0.12126 0.06836 0.66469 0.0
H113 H 0.12757 0.03494 0.69035 0.0
H114 H 0.14363 0.96669 0.65137 0.0
H115 H 0.13533 0.99869 0.626 0.0
H116 H 0.20994 0.74207 0.72303 0.0
H117 H 0.19796 0.7876 0.7091 0.0
H118 H 0.26581 0.8286 0.7399 0.0
H119 H 0.27695 0.78309 0.75472 0.0
Tb120 Tb 0.84163 0.40763 0.94307 0.0
Tb121 Tb 0.89216 0.44839 0.95695 0.0
C122 C 0.83123 0.47187 0.95242 0.0
C123 C 0.77565 0.38643 0.92038 0.0
C124 C 0.73408 0.38445 0.89265 0.0
C125 C 0.72593 0.38443 0.91148 0.0
C126 C 0.74679 0.38438 0.92527 0.0
C127 C 0.783 0.3936 0.90217 0.0
C128 C 0.76233 0.39293 0.88839 0.0
C129 C 0.79781 0.38024 0.93407 0.0
O130 O 0.85541 0.42612 0.91669 0.0
O131 O 0.8812 0.46341 0.92868 0.0
O132 O 0.91462 0.40748 0.95426 0.0
O133 O 0.87776 0.37723 0.94619 0.0
O134 O 0.90757 0.48107 0.97427 0.0
O135 O 0.93069 0.46813 0.94967 0.0
O136 O 0.87755 0.43071 0.98372 0.0
O137 O 0.83596 0.41075 0.97294 0.0
O138 O 0.82571 0.45153 0.94042 0.0
O139 O 0.85288 0.46964 0.96353 0.0
C140 C 0.86858 0.4508 0.9145 0.0
O141 O 0.82323 0.37436 0.92764 0.0
O142 O 0.79865 0.39768 0.94811 0.0
C143 C 0.90505 0.38167 0.95011 0.0
C144 C 0.95646 0.49182 0.97309 0.0
C145 C 1.00967 0.50721 0.98742 0.0
C146 C 1.00336 0.47827 0.98375 0.0
C147 C 0.97679 0.47058 0.97657 0.0
C148 C 0.96228 0.52045 0.97738 0.0
C149 C 0.9887 0.52814 0.98454 0.0
C150 C 0.92973 0.48549 0.96381 0.0
C151 C 0.85204 0.41943 0.98674 0.0
H152 H 0.704 0.38058 0.91551 0.0
H153 H 0.74054 0.38075 0.93954 0.0
H154 H 0.80504 0.3973 0.89825 0.0
H155 H 0.76978 0.39514 0.87428 0.0
H156 H 0.01932 0.46181 0.98571 0.0
H157 H 0.97243 0.44834 0.97324 0.0
H158 H 0.94663 0.537 0.97472 0.0
H159 H 0.99294 0.55052 0.98747 0.0
Tb160 Tb 0.70034 0.87905 1.00348 0.0
Tb161 Tb 0.65815 0.92979 1.01396 0.0
C162 C 0.63495 0.86506 1.00913 0.0
C163 C 0.74072 0.81535 0.98487 0.0
C164 C 0.75252 0.76195 0.96926 0.0
C165 C 0.72442 0.76899 0.97432 0.0
C166 C 0.71851 0.79566 0.98208 0.0
C167 C 0.76841 0.80899 0.97896 0.0
C168 C 0.77431 0.78244 0.97115 0.0
C169 C 0.73646 0.84119 0.99572 0.0
O170 O 0.69434 0.90437 0.97772 0.0
O171 O 0.65164 0.92577 0.9843 0.0
O172 O 0.6978 0.94978 1.0043 0.0
O173 O 0.72734 0.91351 1.01264 0.0
O174 O 0.62004 0.94387 1.02622 0.0
O175 O 0.64981 0.97405 1.0146 0.0
O176 O 0.68497 0.92517 1.03859 0.0
O177 O 0.70152 0.87995 1.03403 0.0
O178 O 0.65842 0.85877 0.99993 0.0
O179 O 0.63276 0.88995 1.01783 0.0
C180 C 0.67222 0.91994 0.9725 0.0
O181 O 0.73418 0.8651 0.98662 0.0
O182 O 0.71834 0.83935 1.00938 0.0
C183 C 0.72321 0.9403 1.00856 0.0
C184 C 0.63187 0.98399 1.04402 0.0
C185 C 0.63425 1.00693 1.08001 0.0
C186 C 0.6252 0.02391 1.06486 0.0
C187 C 0.62429 1.01251 1.04696 0.0
C188 C 0.64362 0.96819 1.05863 0.0
C189 C 0.64633 0.98009 1.07617 0.0
C190 C 0.62844 0.97048 1.02584 0.0
C191 C 0.69838 0.90256 1.04477 0.0
H192 H 0.70733 0.75342 0.97314 0.0
H193 H 0.69697 0.8004 0.98663 0.0
H194 H 0.78569 0.82413 0.98109 0.0
H195 H 0.79605 0.77759 0.96711 0.0
H196 H 0.61611 0.04495 1.06688 0.0
H197 H 0.61597 0.02533 1.0357 0.0
H198 H 0.64903 0.94594 1.05693 0.0
H199 H 0.65474 0.96677 1.08712 0.0
Tb200 Tb 0.39372 0.44284 0.75371 0.0
Tb201 Tb 0.3403 0.40524 0.76626 0.0
C202 C 0.40158 0.37705 0.763 0.0
C203 C 0.45543 0.48736 0.73345 0.0
C204 C 0.50359 0.51499 0.71874 0.0
C205 C 0.49686 0.48676 0.71344 0.0
C206 C 0.47289 0.47318 0.72061 0.0
C207 C 0.46014 0.51654 0.73711 0.0
C208 C 0.48394 0.53038 0.72963 0.0
C209 C 0.43837 0.47035 0.74645 0.0
O210 O 0.37545 0.43061 0.72641 0.0
O211 O 0.33557 0.40635 0.73642 0.0
O212 O 0.32794 0.45036 0.76732 0.0
O213 O 0.35741 0.46718 0.74472 0.0
O214 O 0.32004 0.37321 0.78171 0.0
O215 O 0.29662 0.3986 0.76175 0.0
O216 O 0.35456 0.42355 0.7928 0.0
O217 O 0.38391 0.45896 0.78171 0.0
O218 O 0.4113 0.40321 0.7651 0.0
O219 O 0.37395 0.37297 0.76074 0.0
C220 C 0.35091 0.4174 0.723 0.0
O221 O 0.41624 0.48192 0.75446 0.0
O222 O 0.43474 0.44319 0.74276 0.0
C223 C 0.33462 0.46981 0.75497 0.0
C224 C 0.27328 0.38775 0.78946 0.0
C225 C 0.23262 0.38604 0.81781 0.0
C226 C 0.22385 0.38615 0.79911 0.0
C227 C 0.24428 0.38593 0.785 0.0
C228 C 0.28125 0.39499 0.80755 0.0
C229 C 0.261 0.39452 0.82164 0.0
C230 C 0.29493 0.38078 0.77552 0.0
C231 C 0.36916 0.44744 0.79537 0.0
H232 H 0.51143 0.474 0.70523 0.0
H233 H 0.46986 0.45065 0.71753 0.0
H234 H 0.44694 0.52798 0.747 0.0
H235 H 0.48807 0.55242 0.73354 0.0
H236 H 0.20179 0.38237 0.79542 0.0
H237 H 0.23758 0.38221 0.77083 0.0
H238 H 0.30344 0.39842 0.81111 0.0
H239 H 0.26889 0.39671 0.83563 0.0
Tb240 Tb 0.82815 0.14872 0.50332 0.0
Tb241 Tb 0.86292 0.09272 0.51498 0.0
C242 C 0.89331 0.15389 0.51299 0.0
C243 C 0.78251 0.21065 0.48477 0.0
C244 C 0.75205 0.25721 0.47037 0.0
C245 C 0.77817 0.24894 0.46239 0.0
C246 C 0.79328 0.22583 0.46953 0.0
C247 C 0.75493 0.21675 0.49131 0.0
C248 C 0.73972 0.23979 0.48409 0.0
C249 C 0.80201 0.19438 0.49664 0.0
O250 O 0.83938 0.12978 0.47575 0.0
O251 O 0.86095 0.08824 0.48532 0.0
O252 O 0.81712 0.08199 0.51575 0.0
O253 O 0.80183 0.11402 0.49424 0.0
O254 O 0.89376 0.07078 0.53031 0.0
O255 O 0.8687 0.04909 0.50927 0.0
O256 O 0.84509 0.10567 0.54167 0.0
O257 O 0.81267 0.13899 0.5316 0.0
O258 O 0.86775 0.16447 0.51528 0.0
O259 O 0.89628 0.12608 0.51013 0.0
C260 C 0.85081 0.10434 0.4721 0.0
O261 O 0.79144 0.1737 0.50666 0.0
O262 O 0.82776 0.18892 0.49061 0.0
C263 C 0.79763 0.09103 0.50407 0.0
C264 C 0.879 0.02313 0.53604 0.0
C265 C 0.88159 0.97965 0.56249 0.0
C266 C 0.8813 0.97269 0.54347 0.0
C267 C 0.88106 0.99454 0.5303 0.0
C268 C 0.87198 0.02923 0.55448 0.0
C269 C 0.8729 1.00754 0.56764 0.0
C270 C 0.88616 0.04617 0.52311 0.0
C271 C 0.82295 0.12231 0.54474 0.0
H272 H 0.78837 0.26195 0.45187 0.0
H273 H 0.81451 0.22166 0.46423 0.0
H274 H 0.74613 0.2054 0.5031 0.0
H275 H 0.71936 0.24534 0.49026 0.0
H276 H 0.88546 0.95103 0.53881 0.0
H277 H 0.88477 0.98929 0.51586 0.0
H278 H 0.8685 0.05107 0.55905 0.0
H279 H 0.87098 0.014 0.58198 0.0
Tb280 Tb 0.13287 0.57644 0.25261 0.0
Tb281 Tb 0.18219 0.61931 0.26674 0.0
C282 C 0.11788 0.6428 0.2601 0.0
C283 C 0.06577 0.53814 0.23847 0.0
C284 C 1.00869 0.53137 0.22823 0.0
C285 C 0.01673 0.5539 0.2401 0.0
C286 C 0.04522 0.55736 0.24515 0.0
C287 C 0.05797 0.51614 0.22634 0.0
C288 C 0.02964 0.51284 0.22115 0.0
C289 C 0.09541 0.53993 0.24415 0.0
O290 O 0.15185 0.58945 0.22609 0.0
O291 O 0.18777 0.61873 0.23671 0.0
O292 O 0.19974 0.57632 0.26952 0.0
O293 O 0.17231 0.55418 0.24772 0.0
O294 O 0.19871 0.65312 0.28256 0.0
O295 O 0.22489 0.631 0.26231 0.0
O296 O 0.17022 0.5986 0.29285 0.0
O297 O 0.14243 0.56228 0.28118 0.0
O298 O 0.10931 0.61688 0.25531 0.0
O299 O 0.14478 0.648 0.26459 0.0
C300 C 0.17476 0.60523 0.22314 0.0
O301 O 0.1128 0.55144 0.23228 0.0
O302 O 0.10028 0.54859 0.261 0.0
C303 C 0.19488 0.55498 0.2582 0.0
C304 C 0.24602 0.64158 0.29077 0.0
C305 C 0.28642 0.64122 0.31929 0.0
C306 C 0.29536 0.64176 0.30061 0.0
C307 C 0.27513 0.64297 0.28645 0.0
C308 C 0.23768 0.63402 0.30874 0.0
C309 C 0.25775 0.63348 0.32289 0.0
C310 C 0.22458 0.64796 0.27663 0.0
C311 C 0.15612 0.57442 0.29511 0.0
H312 H 1.00095 0.56833 0.24586 0.0
H313 H 0.05109 0.57461 0.25448 0.0
H314 H 0.07378 0.50132 0.22101 0.0
H315 H 0.02413 0.49565 0.21169 0.0
H316 H 0.31756 0.64491 0.29699 0.0
H317 H 0.28212 0.64676 0.27234 0.0
H318 H 0.21541 0.63072 0.31221 0.0
H319 H 0.24961 0.63077 0.33679 0.0
Tb320 Tb 0.86214 0.59226 0.69553 0.0
Tb321 Tb 0.82327 0.6459 0.70548 0.0
C322 C 0.7957 0.58752 0.69928 0.0
C323 C 0.88761 0.53153 0.66943 0.0
C324 C 0.89558 0.5024 0.63586 0.0
C325 C 0.89026 0.487 0.65229 0.0
C326 C 0.88684 0.50156 0.66908 0.0
C327 C 0.88775 0.54674 0.65274 0.0
C328 C 0.89166 0.53236 0.6361 0.0
C329 C 0.88793 0.54706 0.68702 0.0
O330 O 0.84077 0.59933 0.66891 0.0
O331 O 0.81889 0.64225 0.67503 0.0
O332 O 0.8662 0.66406 0.70774 0.0
O333 O 0.89134 0.62983 0.69187 0.0
O334 O 0.79017 0.66224 0.72201 0.0
O335 O 0.80899 0.68715 0.69976 0.0
O336 O 0.82738 0.62074 0.73158 0.0
O337 O 0.86878 0.59713 0.72506 0.0
O338 O 0.82001 0.57632 0.70445 0.0
O339 O 0.7941 0.61451 0.69527 0.0
C340 C 0.82482 0.62092 0.66356 0.0
O341 O 0.89987 0.57231 0.68677 0.0
O342 O 0.86373 0.54731 0.69576 0.0
C343 C 0.88978 0.65575 0.69941 0.0
C344 C 0.78796 0.71259 0.72455 0.0
C345 C 0.77578 0.76506 0.74166 0.0
C346 C 0.7993 0.76254 0.72965 0.0
C347 C 0.80544 0.73647 0.72122 0.0
C348 C 0.76522 0.7147 0.73711 0.0
C349 C 0.75926 0.74072 0.74571 0.0
C350 C 0.79054 0.68668 0.71331 0.0
C351 C 0.8486 0.60398 0.73685 0.0
H352 H 0.89174 0.46386 0.6525 0.0
H353 H 0.88517 0.48949 0.68184 0.0
H354 H 0.88688 0.56994 0.65262 0.0
H355 H 0.89496 0.54536 0.62389 0.0
H356 H 0.81214 0.78101 0.72599 0.0
H357 H 0.82303 0.73545 0.71148 0.0
H358 H 0.75138 0.69651 0.73971 0.0
H359 H 0.74123 0.74198 0.75509 0.0
Tb360 Tb 0.18136 0.11831 0.94303 0.0
Tb361 Tb 0.12987 0.07905 0.95677 0.0
C362 C 0.1894 0.05381 0.95386 0.0
C363 C 0.24775 0.13672 0.91924 0.0
C364 C 0.28808 0.13975 0.89076 0.0
C365 C 0.29706 0.13919 0.9094 0.0
C366 C 0.27678 0.13877 0.9236 0.0
C367 C 0.23968 0.12986 0.9011 0.0
C368 C 0.25978 0.13102 0.88693 0.0
C369 C 0.22621 0.14328 0.93332 0.0
O370 O 0.1665 0.09985 0.91672 0.0
O371 O 0.13818 0.06387 0.92821 0.0
O372 O 0.10895 0.1189 0.94826 0.0
O373 O 0.14668 0.15 0.94705 0.0
O374 O 0.10745 0.04031 0.9538 0.0
O375 O 0.09339 0.0738 0.97331 0.0
O376 O 0.15094 0.08958 0.98328 0.0
O377 O 0.18586 0.12023 0.973 0.0
O378 O 0.19453 0.07333 0.94128 0.0
O379 O 0.16766 0.05634 0.96496 0.0
C380 C 0.15217 0.07578 0.91431 0.0
O381 O 0.20089 0.15048 0.92732 0.0
O382 O 0.22507 0.12543 0.94712 0.0
C383 C 0.11886 0.14525 0.94737 0.0
C384 C 0.06488 0.03048 0.97178 0.0
C385 C 0.01351 1.0025 0.97966 0.0
C386 C 0.02455 0.02288 0.99207 0.0
C387 C 0.05006 0.03683 0.98813 0.0
C388 C 0.05495 1.00874 0.95997 0.0
C389 C 0.02926 0.99489 0.96385 0.0
C390 C 0.08891 0.04843 0.96622 0.0
C391 C 0.17326 0.10619 0.98645 0.0
H392 H 0.31911 0.14317 0.91305 0.0
H393 H 0.28357 0.14224 0.93778 0.0
H394 H 0.21749 0.12624 0.89759 0.0
H395 H 0.25178 0.12916 0.87295 0.0
H396 H 0.01261 0.02936 1.00425 0.0
H397 H 0.0575 0.05346 0.99745 0.0
H398 H 0.0662 1.00352 0.94727 0.0
H399 H 0.02114 0.9791 0.95416 0.0
Tb400 Tb 0.65845 0.43232 0.1953 0.0
Tb401 Tb 0.69755 0.37868 0.20629 0.0
C402 C 0.72498 0.43747 0.20127 0.0
C403 C 0.6307 0.49509 0.17068 0.0
C404 C 0.61679 0.51987 0.13672 0.0
C405 C 0.60572 0.53121 0.15337 0.0
C406 C 0.61249 0.51865 0.17026 0.0
C407 C 0.64528 0.48674 0.15457 0.0
C408 C 0.63847 0.49918 0.13762 0.0
C409 C 0.63098 0.47688 0.18705 0.0
O410 O 0.68099 0.42418 0.16914 0.0
O411 O 0.70458 0.38252 0.17612 0.0
O412 O 0.65487 0.35973 0.20729 0.0
O413 O 0.62911 0.39478 0.19264 0.0
O414 O 0.72734 0.36186 0.2251 0.0
O415 O 0.71557 0.33916 0.19999 0.0
O416 O 0.69293 0.40509 0.23181 0.0
O417 O 0.65125 0.42767 0.22486 0.0
O418 O 0.70008 0.44946 0.20418 0.0
O419 O 0.72685 0.4105 0.19718 0.0
C420 C 0.69817 0.40316 0.16436 0.0
O421 O 0.62148 0.45095 0.18445 0.0
O422 O 0.65444 0.47709 0.19656 0.0
C423 C 0.63104 0.36856 0.19958 0.0
C424 C 0.73267 0.31164 0.22474 0.0
C425 C 0.74374 0.2562 0.237 0.0
C426 C 0.71831 0.26213 0.22754 0.0
C427 C 0.71269 0.28979 0.22152 0.0
C428 C 0.75721 0.30611 0.23517 0.0
C429 C 0.76269 0.27847 0.24138 0.0
C430 C 0.73078 0.33888 0.21509 0.0
C431 C 0.67138 0.42163 0.23681 0.0
H432 H 0.589 0.54718 0.15328 0.0
H433 H 0.60147 0.5256 0.18269 0.0
H434 H 0.65994 0.46895 0.15483 0.0
H435 H 0.64764 0.49033 0.12506 0.0
H436 H 0.70336 0.24514 0.22422 0.0
H437 H 0.69354 0.29372 0.21352 0.0
H438 H 0.77287 0.32281 0.23763 0.0
H439 H 0.78247 0.27418 0.24859 0.0
Tb440 Tb 0.34075 0.90904 0.4432 0.0
Tb441 Tb 0.39139 0.94977 0.45664 0.0
C442 C 0.33053 0.97307 0.45348 0.0
C443 C 0.27551 0.88842 0.41976 0.0
C444 C 0.23624 0.88677 0.39061 0.0
C445 C 0.22657 0.88762 0.40913 0.0
C446 C 0.24625 0.88747 0.42365 0.0
C447 C 0.28459 0.89447 0.4017 0.0
C448 C 0.2651 0.89397 0.38723 0.0
C449 C 0.29638 0.8825 0.43433 0.0
O450 O 0.35322 0.92748 0.41661 0.0
O451 O 0.38153 0.96342 0.42795 0.0
O452 O 0.41243 0.90776 0.45635 0.0
O453 O 0.37734 0.8789 0.44409 0.0
O454 O 0.40525 0.9875 0.46966 0.0
O455 O 0.43352 0.963 0.45201 0.0
O456 O 0.37572 0.93534 0.48389 0.0
O457 O 0.3375 0.90886 0.47338 0.0
O458 O 0.32556 0.95332 0.44099 0.0
O459 O 0.35256 0.97113 0.46428 0.0
C460 C 0.36762 0.95134 0.4141 0.0
O461 O 0.32187 0.87495 0.42882 0.0
O462 O 0.29717 0.9012 0.4477 0.0
C463 C 0.4038 0.88263 0.45009 0.0
C464 C 0.45442 0.99373 0.47429 0.0
C465 C 0.50464 1.01275 0.49121 0.0
C466 C 0.49966 0.98325 0.48874 0.0
C467 C 0.47461 0.97375 0.4803 0.0
C468 C 0.45846 0.02294 0.47784 0.0
C469 C 0.48337 0.03243 0.48631 0.0
C470 C 0.4306 0.98558 0.4625 0.0
C471 C 0.35202 0.9206 0.48702 0.0
H472 H 0.20423 0.88472 0.41245 0.0
H473 H 0.23872 0.88471 0.43774 0.0
H474 H 0.30703 0.89718 0.3985 0.0
H475 H 0.27381 0.89536 0.37338 0.0
H476 H 0.51585 0.96765 0.49222 0.0
H477 H 0.47171 0.95107 0.47766 0.0
H478 H 0.44294 0.03857 0.47325 0.0
H479 H 0.48657 0.05523 0.48825 0.0
Tb480 Tb 0.1961 0.37682 0.50315 0.0
Tb481 Tb 0.15855 0.43123 0.51507 0.0
C482 C 0.12915 0.3687 0.51191 0.0
C483 C 0.24467 0.31686 0.4847 0.0
C484 C 0.27411 0.26977 0.47003 0.0
C485 C 0.24905 0.2796 0.46149 0.0
C486 C 0.23448 0.30304 0.46874 0.0
C487 C 0.27149 0.30936 0.4918 0.0
C488 C 0.28623 0.28605 0.48443 0.0
C489 C 0.22488 0.33265 0.49668 0.0
O490 O 0.18974 0.39883 0.47625 0.0
O491 O 0.1548 0.43059 0.48499 0.0
O492 O 0.20396 0.4435 0.51575 0.0
O493 O 0.22111 0.41254 0.49409 0.0
O494 O 0.12611 0.45244 0.52947 0.0
O495 O 0.15314 0.47517 0.50996 0.0
O496 O 0.17977 0.42248 0.54124 0.0
O497 O 0.20628 0.38321 0.53284 0.0
O498 O 0.15374 0.35849 0.50637 0.0
O499 O 0.12644 0.39603 0.51653 0.0
C500 C 0.17148 0.41951 0.47222 0.0
O501 O 0.23449 0.35414 0.50644 0.0
O502 O 0.19884 0.33655 0.49083 0.0
C503 C 0.22385 0.43579 0.50392 0.0
C504 C 0.14272 0.49818 0.53807 0.0
C505 C 0.14482 0.53785 0.56728 0.0
C506 C 0.14511 0.54733 0.54871 0.0
C507 C 0.14313 0.52753 0.53421 0.0
C508 C 0.14897 0.48888 0.55605 0.0
C509 C 0.15022 0.50852 0.57053 0.0
C510 C 0.13507 0.47739 0.52363 0.0
C511 C 0.19891 0.40291 0.54509 0.0
H512 H 0.23904 0.26754 0.45043 0.0
H513 H 0.21386 0.30838 0.46296 0.0
H514 H 0.27978 0.31972 0.50413 0.0
H515 H 0.30584 0.27932 0.49101 0.0
H516 H 0.14346 0.56985 0.54541 0.0
H517 H 0.14012 0.53513 0.52018 0.0
H518 H 0.15056 0.46628 0.55925 0.0
H519 H 0.15174 0.49979 0.58434 0.0
Tb520 Tb 0.89147 0.94506 0.25185 0.0
Tb521 Tb 0.84096 0.90404 0.26672 0.0
C522 C 0.90449 0.87912 0.26162 0.0
C523 C 0.95685 0.9905 0.23762 0.0
C524 C 0.01012 0.01643 0.2322 0.0
C525 C 0.99808 0.99936 0.21825 0.0
C526 C 0.97169 0.98654 0.22095 0.0
C527 C 0.96853 1.00799 0.25155 0.0
C528 C 0.99522 0.02075 0.24888 0.0
C529 C 0.92793 0.97892 0.23876 0.0
O530 O 0.86963 0.93293 0.2261 0.0
O531 O 0.83489 0.90254 0.23682 0.0
O532 O 0.82631 0.94819 0.2691 0.0
O533 O 0.85188 0.96562 0.24498 0.0
O534 O 0.82279 0.872 0.28324 0.0
O535 O 0.79769 0.89463 0.26272 0.0
O536 O 0.85538 0.9246 0.29246 0.0
O537 O 0.88507 0.95963 0.28079 0.0
O538 O 0.91412 0.90555 0.25957 0.0
O539 O 0.87681 0.87386 0.26291 0.0
C540 C 0.84729 0.9164 0.22323 0.0
O541 O 0.91192 0.98513 0.25302 0.0
O542 O 0.9239 0.95288 0.23268 0.0
C543 C 0.83062 0.96769 0.25648 0.0
C544 C 0.77553 0.88509 0.29101 0.0
C545 C 0.73462 0.88516 0.31927 0.0
C546 C 0.72599 0.88464 0.30055 0.0
C547 C 0.74651 0.88357 0.2865 0.0
C548 C 0.78349 0.89276 0.30903 0.0
C549 C 0.76314 0.89315 0.32307 0.0
C550 C 0.7972 0.87792 0.27711 0.0
C551 C 0.87049 0.94828 0.29469 0.0
H552 H 1.00936 0.99538 0.20538 0.0
H553 H 0.96271 0.97368 0.20986 0.0
H554 H 0.95707 1.01194 0.26435 0.0
H555 H 1.00421 0.03399 0.25976 0.0
H556 H 0.70389 0.88112 0.29685 0.0
H557 H 0.73982 0.87955 0.27237 0.0
H558 H 0.80569 0.89602 0.31263 0.0
H559 H 0.77097 0.89569 0.33705 0.0
Tb560 Tb 0.33142 0.64876 1.00368 0.0
Tb561 Tb 0.36521 0.59194 1.01482 0.0
C562 C 0.39676 0.65213 1.01314 0.0
C563 C 0.29337 0.71597 0.98515 0.0
C564 C 0.26456 0.76131 0.96779 0.0
C565 C 0.29418 0.76257 0.97069 0.0
C566 C 0.30836 0.74017 0.97915 0.0
C567 C 0.26381 0.71405 0.98201 0.0
C568 C 0.24949 0.7366 0.97328 0.0
C569 C 0.30853 0.69628 0.99742 0.0
O570 O 0.34241 0.63033 0.97593 0.0
O571 O 0.36171 0.58762 0.98529 0.0
O572 O 0.31935 0.58204 1.01572 0.0
O573 O 0.30338 0.61501 0.99494 0.0
O574 O 0.39428 0.56828 1.03062 0.0
O575 O 0.37119 0.54882 1.00789 0.0
O576 O 0.34718 0.60481 1.04158 0.0
O577 O 0.31564 0.63927 1.03188 0.0
O578 O 0.37137 0.6626 1.01637 0.0
O579 O 0.39922 0.62445 1.00971 0.0
C580 C 0.35246 0.60436 0.97216 0.0
O581 O 0.29493 0.67487 1.005 0.0
O582 O 0.33492 0.69012 0.99317 0.0
C583 C 0.2995 0.59162 1.00449 0.0
C584 C 0.37619 0.52206 1.0347 0.0
C585 C 0.36608 0.48982 1.06643 0.0
C586 C 0.38728 0.48129 1.0536 0.0
C587 C 0.39276 0.49789 1.03801 0.0
C588 C 0.3512 0.52666 1.04506 0.0
C589 C 0.34589 0.51023 1.06081 0.0
C590 C 0.38686 0.54438 1.02242 0.0
C591 C 0.32545 0.62196 1.04483 0.0
H592 H 0.30643 0.78157 0.96733 0.0
H593 H 0.33097 0.74256 0.98194 0.0
H594 H 0.25168 0.69576 0.98687 0.0
H595 H 0.22664 0.73503 0.97127 0.0
H596 H 0.40284 0.46505 1.05707 0.0
H597 H 0.41156 0.49358 1.0297 0.0
H598 H 0.33755 0.54477 1.04215 0.0
H599 H 0.32888 0.5167 1.07011 0.0
Tb600 Tb 0.63193 0.0759 0.75292 0.0
Tb601 Tb 0.68133 0.11907 0.76675 0.0
C602 C 0.61695 0.14238 0.76027 0.0
C603 C 0.56461 0.03733 0.73918 0.0
C604 C 0.50756 0.0298 0.72895 0.0
C605 C 0.51508 0.05118 0.74182 0.0
C606 C 0.54352 0.05503 0.74686 0.0
C607 C 0.55729 0.01646 0.7261 0.0
C608 C 0.529 0.01282 0.72092 0.0
C609 C 0.59429 0.03934 0.74484 0.0
O610 O 0.65075 0.08858 0.72629 0.0
O611 O 0.68623 0.11857 0.7367 0.0
O612 O 0.69917 0.07612 0.76936 0.0
O613 O 0.67132 0.05363 0.7479 0.0
O614 O 0.69839 0.15256 0.78263 0.0
O615 O 0.7237 0.1312 0.76158 0.0
O616 O 0.66954 0.0986 0.79296 0.0
O617 O 0.64221 0.06186 0.78139 0.0
O618 O 0.60844 0.11641 0.75553 0.0
O619 O 0.64385 0.14768 0.76471 0.0
C620 C 0.67337 0.10471 0.72323 0.0
O621 O 0.6117 0.05051 0.73284 0.0
O622 O 0.59926 0.04835 0.7616 0.0
C623 C 0.69412 0.05463 0.75817 0.0
C624 C 0.74646 0.14181 0.78949 0.0
C625 C 0.78866 0.14253 0.81687 0.0
C626 C 0.79638 0.14345 0.79797 0.0
C627 C 0.77521 0.14412 0.78438 0.0
C628 C 0.73952 0.13388 0.80764 0.0
C629 C 0.7605 0.13389 0.82122 0.0
C630 C 0.72397 0.14794 0.776 0.0
C631 C 0.6558 0.07423 0.79527 0.0
H632 H 0.49895 0.06441 0.74834 0.0
H633 H 0.54894 0.07139 0.75694 0.0
H634 H 0.57348 1.00278 0.72002 0.0
H635 H 0.52391 0.99658 0.71069 0.0
H636 H 0.81822 0.14739 0.79378 0.0
H637 H 0.78116 0.14828 0.77012 0.0
H638 H 0.71758 0.12995 0.8117 0.0
H639 H 0.75337 0.13093 0.83534 0.0
C640 C 0.44272 0.17208 0.19396 0.0
C641 C 0.41498 0.18034 0.19946 0.0
C642 C 0.46564 0.19204 0.19332 0.0
C643 C 0.4822 0.27296 0.19557 0.0
H644 H 0.55981 0.24621 0.20013 0.0
C645 C 0.57882 0.35519 0.19183 0.0
C646 C 0.60591 0.34762 0.19878 0.0
C647 C 0.55586 0.33518 0.19127 0.0
C648 C 0.53846 0.2547 0.1991 0.0
H649 H 0.3904 0.21711 0.20843 0.0
H650 H 0.4296 0.25123 0.20767 0.0
H651 H 0.52097 0.21229 0.20117 0.0
H652 H 0.6292 0.31203 0.21058 0.0
H653 H 0.59014 0.27827 0.21027 0.0
H654 H 0.49944 0.31546 0.19443 0.0
C655 C 0.43405 0.22941 0.20353 0.0
C656 C 0.51567 0.23464 0.19935 0.0
C657 C 0.41122 0.20948 0.20419 0.0
C658 C 0.60893 0.31918 0.20512 0.0
C659 C 0.58607 0.29932 0.20472 0.0
C660 C 0.50496 0.29309 0.19562 0.0
C661 C 0.46198 0.22134 0.19811 0.0
C662 C 0.48683 0.24314 0.19762 0.0
C663 C 0.55876 0.30657 0.19775 0.0
C664 C 0.53387 0.28464 0.19743 0.0
H665 H 0.44684 0.15001 0.19017 0.0
H666 H 0.48624 0.1843 0.18878 0.0
H667 H 0.46081 0.28112 0.19377 0.0
H668 H 0.57524 0.37669 0.18675 0.0
H669 H 0.53591 0.34243 0.18549 0.0
C670 C 0.6054 0.70009 0.44578 0.0
C671 C 0.59698 0.67108 0.44655 0.0
C672 C 0.58501 0.72264 0.44568 0.0
C673 C 0.50341 0.73672 0.44289 0.0
H674 H 0.52701 0.81412 0.45413 0.0
C675 C 0.4191 0.83125 0.44132 0.0
C676 C 0.42522 0.85795 0.44967 0.0
C677 C 0.43965 0.8089 0.44057 0.0
C678 C 0.51933 0.79276 0.45122 0.0
H679 H 0.55952 0.64388 0.44821 0.0
H680 H 0.52485 0.68202 0.44884 0.0
H681 H 0.56164 0.77626 0.45437 0.0
H682 H 0.4587 0.88108 0.464 0.0
H683 H 0.49334 0.84286 0.4635 0.0
H684 H 0.46084 0.75287 0.44077 0.0
C685 C 0.54702 0.68811 0.44761 0.0
C686 C 0.53992 0.7705 0.451 0.0
C687 C 0.56731 0.6657 0.4474 0.0
C688 C 0.45273 0.86111 0.45738 0.0
C689 C 0.47311 0.83875 0.45687 0.0
C690 C 0.48272 0.75887 0.44349 0.0
C691 C 0.55511 0.71736 0.44665 0.0
C692 C 0.53268 0.74172 0.44682 0.0
C693 C 0.46739 0.81192 0.44834 0.0
C694 C 0.48996 0.78767 0.44766 0.0
H695 H 0.62787 0.70548 0.4451 0.0
H696 H 0.59308 0.74427 0.44462 0.0
H697 H 0.49598 0.71557 0.43915 0.0
H698 H 0.39839 0.82761 0.43509 0.0
H699 H 0.43353 0.78939 0.43355 0.0
C700 C 0.07563 0.85547 0.69388 0.0
C701 C 0.10364 0.84737 0.69877 0.0
C702 C 0.05287 0.8352 0.6933 0.0
C703 C 0.03745 0.7538 0.69459 0.0
H704 H 0.9596 0.77914 0.70067 0.0
C705 C 0.94193 0.66983 0.69143 0.0
C706 C 0.91477 0.67697 0.69857 0.0
C707 C 0.96464 0.69018 0.69086 0.0
C708 C 0.98103 0.771 0.6992 0.0
H709 H 0.12882 0.81048 0.70666 0.0
H710 H 0.0901 0.77601 0.70598 0.0
H711 H 0.99792 0.81368 0.70151 0.0
H712 H 0.89113 0.71223 0.71068 0.0
H713 H 0.92968 0.74652 0.7103 0.0
H714 H 0.02087 0.71103 0.69316 0.0
C715 C 0.08521 0.79788 0.70229 0.0
C716 C 1.00352 0.79146 0.69934 0.0
C717 C 0.1078 0.81807 0.7029 0.0
C718 C 0.91146 0.70536 0.70508 0.0
C719 C 0.93405 0.72556 0.70463 0.0
C720 C 0.01501 0.73327 0.69473 0.0
C721 C 0.05701 0.80575 0.6975 0.0
C722 C 0.03245 0.78353 0.69707 0.0
C723 C 0.96142 0.71877 0.69747 0.0
C724 C 0.98601 0.74115 0.69708 0.0
H725 H 0.07116 0.87762 0.69057 0.0
H726 H 0.03202 0.84283 0.68928 0.0
H727 H 0.0589 0.74601 0.69236 0.0
H728 H 0.94575 0.64839 0.68624 0.0
H729 H 0.98465 0.68321 0.68495 0.0
C730 C 0.06789 0.16454 0.94879 0.0
C731 C 0.09746 0.16988 0.94695 0.0
C732 C 0.04759 0.18694 0.9489 0.0
C733 C 0.04072 0.26923 0.95097 0.0
H734 H 0.96141 0.25148 0.94169 0.0
C735 C 0.95435 0.3606 0.95657 0.0
C736 C 0.92633 0.35694 0.94981 0.0
C737 C 0.97461 0.33816 0.95616 0.0
C738 C 0.98333 0.25754 0.94415 0.0
H739 H 0.12815 0.20417 0.94361 0.0
H740 H 0.0933 0.24287 0.94308 0.0
H741 H 0.99646 0.2141 0.94007 0.0
H742 H 0.89837 0.32569 0.93707 0.0
H743 H 0.93325 0.28732 0.93561 0.0
H744 H 0.02808 0.31288 0.95385 0.0
C745 C 0.08538 0.22131 0.94495 0.0
C746 C 1.00395 0.23535 0.94354 0.0
C747 C 0.10577 0.19881 0.94507 0.0
C748 C 0.91952 0.32969 0.94253 0.0
C749 C 0.93997 0.30727 0.94182 0.0
C750 C 0.02021 0.29152 0.95119 0.0
C751 C 0.05562 0.21607 0.94694 0.0
C752 C 0.03328 0.24042 0.94711 0.0
C753 C 0.96825 0.31076 0.94863 0.0
C754 C 0.99074 0.28643 0.94797 0.0
H755 H 0.06019 0.14279 0.9504 0.0
H756 H 0.0255 0.18103 0.95089 0.0
H757 H 0.06255 0.27495 0.95409 0.0
H758 H 0.96081 0.38101 0.96239 0.0
H759 H 0.99527 0.34275 0.96205 0.0
C760 C 0.58421 0.8494 1.01843 0.0
C761 C 0.61064 0.84322 1.00992 0.0
C762 C 0.56182 0.82887 1.01919 0.0
C763 C 0.54469 0.74908 1.00823 0.0
H764 H 0.46836 0.77335 1.02077 0.0
C765 C 0.4508 0.66378 1.01328 0.0
C766 C 0.42209 0.67277 1.01321 0.0
C767 C 0.4737 0.68389 1.01332 0.0
C768 C 0.48922 0.76563 1.01688 0.0
H769 H 0.63345 0.80958 0.99551 0.0
H770 H 0.59515 0.77475 0.99618 0.0
H771 H 0.50592 0.80814 1.01909 0.0
H772 H 0.39576 0.71087 1.01261 0.0
H773 H 0.43433 0.74497 1.01179 0.0
H774 H 0.52758 0.70681 1.00494 0.0
C775 C 0.59123 0.79514 1.00279 0.0
C776 C 0.51157 0.78614 1.01627 0.0
C777 C 0.61361 0.81559 1.00218 0.0
C778 C 0.41735 0.70264 1.01291 0.0
C779 C 0.44005 0.72262 1.0126 0.0
C780 C 0.5222 0.72865 1.00843 0.0
C781 C 0.56455 0.80103 1.01134 0.0
C782 C 0.54011 0.77859 1.01197 0.0
C783 C 0.46903 0.71402 1.01294 0.0
C784 C 0.49369 0.73622 1.01278 0.0
H785 H 0.58071 0.87026 1.02463 0.0
H786 H 0.54247 0.83515 1.02624 0.0
H787 H 0.56583 0.74118 1.00518 0.0
H788 H 0.45566 0.64112 1.0135 0.0
H789 H 0.4951 0.6754 1.01384 0.0
C790 C 0.6012 0.19367 0.76827 0.0
C791 C 0.59506 0.16652 0.76061 0.0
C792 C 0.58048 0.21578 0.76885 0.0
C793 C 0.50063 0.23114 0.75804 0.0
H794 H 0.52343 0.30822 0.77085 0.0
C795 C 0.41442 0.32335 0.76401 0.0
C796 C 0.42282 0.35235 0.76311 0.0
C797 C 0.43483 0.30086 0.76402 0.0
C798 C 0.5162 0.28709 0.76689 0.0
H799 H 0.56145 0.14224 0.74724 0.0
H800 H 0.52643 0.1801 0.74738 0.0
H801 H 0.55868 0.2712 0.76932 0.0
H802 H 0.46015 0.37966 0.76106 0.0
H803 H 0.49488 0.34155 0.76024 0.0
H804 H 0.45835 0.2476 0.75455 0.0
C805 C 0.54681 0.18479 0.75364 0.0
C806 C 0.53695 0.26506 0.76634 0.0
C807 C 0.56736 0.1626 0.75337 0.0
C808 C 0.45243 0.35782 0.762 0.0
C809 C 0.47273 0.33547 0.76169 0.0
C810 C 0.47999 0.25332 0.75819 0.0
C811 C 0.55256 0.21213 0.7615 0.0
C812 C 0.52989 0.23627 0.76197 0.0
C813 C 0.46467 0.30625 0.76282 0.0
C814 C 0.48709 0.28201 0.76266 0.0
H815 H 0.62207 0.19785 0.77411 0.0
H816 H 0.58675 0.23563 0.77539 0.0
H817 H 0.49304 0.20984 0.75488 0.0
H818 H 0.39197 0.31793 0.76488 0.0
H819 H 0.42687 0.2792 0.76522 0.0
C820 C 0.10833 0.31904 0.50665 0.0
C821 C 0.10427 0.34759 0.51259 0.0
C822 C 0.08616 0.29858 0.50695 0.0
C823 C 1.00591 0.2888 0.51931 0.0
H824 H 0.02198 0.21124 0.50352 0.0
C825 C 0.91315 0.20459 0.51302 0.0
C826 C 0.91835 0.17479 0.51335 0.0
C827 C 0.9355 0.22489 0.51306 0.0
C828 C 0.01673 0.23257 0.50828 0.0
H829 H 0.07235 0.37635 0.52357 0.0
H830 H 0.0339 0.34133 0.52438 0.0
H831 H 0.05945 0.246 0.50377 0.0
H832 H 0.95236 0.14359 0.51405 0.0
H833 H 0.99131 0.17862 0.5149 0.0
H834 H 0.96323 0.27455 0.52454 0.0
C835 C 0.0543 0.3341 0.51927 0.0
C836 C 0.03878 0.25338 0.50823 0.0
C837 C 0.0767 0.35474 0.51887 0.0
C838 C 0.94717 0.16617 0.51379 0.0
C839 C 0.96973 0.18663 0.51412 0.0
C840 C 0.98395 0.26787 0.51958 0.0
C841 C 0.0583 0.30521 0.51331 0.0
C842 C 0.03416 0.28234 0.51362 0.0
C843 C 0.96449 0.21664 0.51376 0.0
C844 C 0.98862 0.23916 0.51393 0.0
H845 H 0.12899 0.31215 0.5016 0.0
H846 H 0.0916 0.27751 0.50198 0.0
H847 H 1.00014 0.31011 0.52371 0.0
H848 H 0.89147 0.21254 0.51246 0.0
H849 H 0.92963 0.24722 0.51222 0.0
C850 C 0.06848 0.66341 0.25305 0.0
C851 C 0.0961 0.66702 0.26049 0.0
C852 C 0.04807 0.68574 0.25337 0.0
C853 C 0.03882 0.76592 0.26636 0.0
H854 H 0.96006 0.74937 0.25446 0.0
C855 C 0.95547 0.85961 0.26067 0.0
C856 C 0.92586 0.85451 0.26224 0.0
C857 C 0.97553 0.837 0.26074 0.0
C858 C 0.98177 0.75479 0.25813 0.0
H859 H 0.12309 0.69789 0.27444 0.0
H860 H 0.08798 0.73585 0.27582 0.0
H861 H 0.99439 0.71114 0.25484 0.0
H862 H 0.89479 0.82042 0.26535 0.0
H863 H 0.92925 0.78141 0.26608 0.0
H864 H 0.02572 0.80928 0.2708 0.0
C865 C 0.08171 0.71619 0.26905 0.0
C866 C 1.00217 0.73237 0.25801 0.0
C867 C 0.10228 0.69397 0.26842 0.0
C868 C 0.91724 0.82562 0.26408 0.0
C869 C 0.93737 0.80293 0.26431 0.0
C870 C 0.01833 0.78819 0.26685 0.0
C871 C 0.0539 0.71288 0.26148 0.0
C872 C 0.03147 0.73721 0.26196 0.0
C873 C 0.96716 0.80794 0.26258 0.0
C874 C 0.98922 0.78341 0.26256 0.0
H875 H 0.06255 0.6432 0.24672 0.0
H876 H 0.02775 0.68134 0.24693 0.0
H877 H 0.06062 0.77182 0.26935 0.0
H878 H 0.96335 0.88131 0.25918 0.0
H879 H 0.99773 0.84268 0.25897 0.0
C880 C 0.40744 0.03224 1.10069 0.0
C881 C 0.39559 1.00879 0.11039 0.0
C882 C 0.43494 0.03012 1.09357 0.0
C883 C 0.49151 0.99297 0.11542 0.0
H884 H 0.54007 0.04193 1.08569 0.0
C885 C 0.61029 0.98892 0.10837 0.0
C886 C 0.62218 1.01247 1.0988 0.0
C887 C 0.58299 0.99116 0.11579 0.0
C888 C 0.52656 0.02877 1.09442 0.0
H889 H 0.39678 0.9625 0.1123 0.0
H890 H 0.44507 0.95871 1.10007 0.0
H891 H 0.49078 0.03406 1.07638 0.0
H892 H 0.62134 0.05882 1.09726 0.0
H893 H 0.5733 0.06276 0.10991 0.0
H894 H 0.52733 0.98762 0.13343 0.0
C895 C 0.43443 0.97927 1.09956 0.0
C896 C 0.49857 0.02373 1.08879 0.0
C897 C 0.40673 0.98147 0.10657 0.0
C898 C 0.61132 0.03981 1.10291 0.0
C899 C 0.5838 0.04212 0.11018 0.0
C900 C 0.5195 0.99799 0.12103 0.0
C901 C 0.44986 1.00432 1.09546 0.0
C902 C 0.48078 1.00573 1.0992 0.0
C903 C 0.56826 0.01712 0.11423 0.0
C904 C 0.53731 0.01596 0.11061 0.0
H905 H 0.39868 0.05359 1.10178 0.0
H906 H 0.44582 0.04972 1.08967 0.0
H907 H 0.47801 0.97979 0.12414 0.0
H908 H 0.61881 0.96751 0.10701 0.0
H909 H 0.57202 0.97159 0.11962 0.0
C910 C 0.81281 0.68319 0.38448 0.0
C911 C 0.79929 0.65832 0.37753 0.0
C912 C 0.80824 0.70949 0.37596 0.0
C913 C 0.74511 0.73641 0.35468 0.0
H914 H 0.78367 0.80982 0.35704 0.0
C915 C 0.70504 0.84229 0.32658 0.0
C916 C 0.71916 0.86705 0.33315 0.0
C917 C 0.70932 0.81615 0.33537 0.0
C918 C 0.77251 0.78946 0.35679 0.0
H919 H 0.781 0.63999 0.35253 0.0
H920 H 0.77197 0.6861 0.338 0.0
H921 H 0.81147 0.76585 0.35919 0.0
H922 H 0.73727 0.88593 0.35805 0.0
H923 H 0.74579 0.84012 0.37309 0.0
H924 H 0.70616 0.76 0.35229 0.0
C925 C 0.7841 0.68552 0.35076 0.0
C926 C 0.78852 0.76436 0.35763 0.0
C927 C 0.78927 0.65911 0.35914 0.0
C928 C 0.72879 0.86673 0.35164 0.0
C929 C 0.73368 0.84049 0.36032 0.0
C930 C 0.7291 0.76151 0.35385 0.0
C931 C 0.79096 0.71096 0.36018 0.0
C932 C 0.77499 0.73759 0.35653 0.0
C933 C 0.72668 0.81488 0.35113 0.0
C934 C 0.74263 0.78829 0.35491 0.0
H935 H 0.82257 0.68373 0.39803 0.0
H936 H 0.81472 0.72875 0.38324 0.0
H937 H 0.73397 0.71604 0.3544 0.0
H938 H 0.69523 0.84153 0.31305 0.0
H939 H 0.7026 0.7968 0.32829 0.0
C940 C 0.07866 0.05988 0.63742 0.0
C941 C 0.10413 0.04846 0.63004 0.0
C942 C 0.05282 0.05488 0.62852 0.0
C943 C 0.01791 0.01963 0.58859 0.0
H944 H 0.97655 0.97945 0.62742 0.0
C945 C 0.92618 0.95191 0.56753 0.0
C946 C 0.90113 0.96384 0.57521 0.0
C947 C 0.95226 0.95611 0.57632 0.0
C948 C 0.98785 0.99055 0.61647 0.0
H949 H 0.12338 0.03222 0.60473 0.0
H950 H 0.07815 0.0223 0.58957 0.0
H951 H 0.01747 1.0093 0.63538 0.0
H952 H 0.88244 0.97809 0.60119 0.0
H953 H 0.92797 0.9868 0.61617 0.0
H954 H 0.98822 1.001 0.56969 0.0
C955 C 0.07795 0.03377 0.60264 0.0
C956 C 0.01103 1.00796 0.62099 0.0
C957 C 0.10393 0.03933 0.61142 0.0
C958 C 0.90168 0.97122 0.59415 0.0
C959 C 0.92787 0.97609 0.60284 0.0
C960 C 0.99469 1.00226 0.58406 0.0
C961 C 0.05223 0.03892 0.61208 0.0
C962 C 0.02621 0.02275 0.6071 0.0
C963 C 0.95336 0.9714 0.59302 0.0
C964 C 0.97951 0.98744 0.59796 0.0
H965 H 0.0776 0.06848 0.65133 0.0
H966 H 0.03318 0.06038 0.63563 0.0
H967 H 0.02924 0.03074 0.57765 0.0
H968 H 0.92689 0.9439 0.55347 0.0
H969 H 0.97169 0.95066 0.56895 0.0
C970 C 0.72798 0.36463 0.8606 0.0
C971 C 0.71859 0.36563 0.87916 0.0
C972 C 0.73328 0.33809 0.85231 0.0
C973 C 0.75552 0.27139 0.87319 0.0
H974 H 0.77066 0.24752 0.82276 0.0
C975 C 0.79513 0.16125 0.84915 0.0
C976 C 0.80456 0.16063 0.83059 0.0
C977 C 0.78964 0.18763 0.85761 0.0
C978 C 0.7671 0.25428 0.83694 0.0
H979 H 0.69492 0.34074 0.8997 0.0
H980 H 0.70241 0.29533 0.88482 0.0
H981 H 0.73997 0.28865 0.82842 0.0
H982 H 0.82867 0.18585 0.81043 0.0
H983 H 0.82075 0.23102 0.82555 0.0
H984 H 0.78264 0.23698 0.88171 0.0
C985 C 0.70934 0.31456 0.87772 0.0
C986 C 0.74916 0.27757 0.84013 0.0
C987 C 0.70479 0.341 0.88616 0.0
C988 C 0.81857 0.18535 0.8239 0.0
C989 C 0.81381 0.21164 0.83249 0.0
C990 C 0.77344 0.24808 0.86999 0.0
C991 C 0.72678 0.3128 0.86197 0.0
C992 C 0.74313 0.28632 0.85829 0.0
C993 C 0.79612 0.21308 0.84813 0.0
C994 C 0.77954 0.23939 0.85184 0.0
H995 H 0.73611 0.38365 0.85384 0.0
H996 H 0.74563 0.33754 0.83962 0.0
H997 H 0.752 0.27815 0.88737 0.0
H998 H 0.78701 0.14208 0.85576 0.0
H999 H 0.77715 0.18794 0.87025 0.0
C1000 C 0.20374 0.34235 0.82438 0.0
C1001 C 0.21772 0.36692 0.83138 0.0
C1002 C 0.20838 0.31584 0.83261 0.0
C1003 C 0.24805 0.27821 0.86969 0.0
H1004 H 0.28072 0.23743 0.82771 0.0
C1005 C 0.31613 0.18416 0.88466 0.0
C1006 C 0.30254 0.15955 0.87741 0.0
C1007 C 0.31128 0.21076 0.87663 0.0
C1008 C 0.27172 0.24856 0.83954 0.0
H1009 H 0.23606 0.38467 0.85655 0.0
H1010 H 0.24564 0.3384 0.8704 0.0
H1011 H 0.25084 0.2792 0.82245 0.0
H1012 H 0.28441 0.14211 0.85208 0.0
H1013 H 0.27445 0.18852 0.83858 0.0
H1014 H 0.26892 0.24754 0.88678 0.0
C1015 C 0.23301 0.33911 0.85786 0.0
C1016 C 0.25426 0.27223 0.83657 0.0
C1017 C 0.22768 0.36573 0.84978 0.0
C1018 C 0.29256 0.16101 0.85902 0.0
C1019 C 0.28701 0.18772 0.85114 0.0
C1020 C 0.26549 0.25451 0.87266 0.0
C1021 C 0.22611 0.31392 0.84816 0.0
C1022 C 0.24215 0.28723 0.85162 0.0
C1023 C 0.29365 0.21281 0.86104 0.0
C1024 C 0.2776 0.23951 0.85761 0.0
H1025 H 0.19355 0.34219 0.81096 0.0
H1026 H 0.2012 0.29668 0.82549 0.0
H1027 H 0.23908 0.28937 0.88151 0.0
H1028 H 0.32624 0.18417 0.89811 0.0
H1029 H 0.31826 0.22986 0.88391 0.0
C1030 C 0.23183 0.8666 0.35853 0.0
C1031 C 0.22098 0.86844 0.37672 0.0
C1032 C 0.23662 0.83967 0.35066 0.0
C1033 C 0.25394 0.77257 0.37298 0.0
H1034 H 0.27291 0.74695 0.32346 0.0
C1035 C 0.2911 0.66032 0.35162 0.0
C1036 C 0.30204 0.65882 0.33343 0.0
C1037 C 0.28597 0.68713 0.35959 0.0
C1038 C 0.26828 0.75417 0.33742 0.0
H1039 H 0.19445 0.84516 0.39657 0.0
H1040 H 0.20105 0.79911 0.38234 0.0
H1041 H 0.24352 0.78945 0.32752 0.0
H1042 H 0.32912 0.6824 0.31404 0.0
H1043 H 0.32177 0.72828 0.32836 0.0
H1044 H 0.27869 0.73727 0.38288 0.0
C1045 C 0.20947 0.81784 0.37534 0.0
C1046 C 0.25108 0.77826 0.33968 0.0
C1047 C 0.20545 0.84465 0.3834 0.0
C1048 C 0.31774 0.68271 0.32707 0.0
C1049 C 0.31335 0.70942 0.3352 0.0
C1050 C 0.27113 0.74847 0.37072 0.0
C1051 C 0.22817 0.81492 0.36029 0.0
C1052 C 0.24367 0.78768 0.35748 0.0
C1053 C 0.29435 0.71203 0.35012 0.0
C1054 C 0.2786 0.73911 0.35292 0.0
H1055 H 0.24137 0.88509 0.3519 0.0
H1056 H 0.25001 0.83827 0.33844 0.0
H1057 H 0.24935 0.7798 0.38694 0.0
H1058 H 0.28166 0.64169 0.35813 0.0
H1059 H 0.27242 0.6883 0.37174 0.0
C1060 C 0.12776 0.54406 0.6 0.0
C1061 C 0.12905 0.55464 0.58173 0.0
C1062 C 0.10129 0.54173 0.60881 0.0
C1063 C 0.02369 0.55466 0.60301 0.0
H1064 H 0.01971 0.47153 0.60204 0.0
C1065 C 0.91615 0.50389 0.60391 0.0
C1066 C 0.91406 0.48995 0.62114 0.0
C1067 C 0.94296 0.50812 0.59591 0.0
C1068 C 0.02053 0.49472 0.60229 0.0
H1069 H 0.10669 0.58294 0.5626 0.0
H1070 H 0.06169 0.58003 0.57814 0.0
H1071 H 0.06609 0.49533 0.60206 0.0
H1072 H 0.93638 0.46065 0.63953 0.0
H1073 H 0.98213 0.46688 0.62527 0.0
H1074 H 0.97812 0.55405 0.60327 0.0
C1075 C 0.08008 0.57059 0.58482 0.0
C1076 C 0.04701 0.50837 0.60268 0.0
C1077 C 0.10634 0.5722 0.57584 0.0
C1078 C 0.93718 0.47289 0.62683 0.0
C1079 C 0.96384 0.47661 0.61867 0.0
C1080 C 0.99719 0.541 0.60269 0.0
C1081 C 0.07679 0.5523 0.60004 0.0
C1082 C 0.04883 0.53847 0.60303 0.0
C1083 C 0.96732 0.49686 0.60453 0.0
C1084 C 0.99536 0.5109 0.60222 0.0
H1085 H 0.14575 0.53299 0.60604 0.0
H1086 H 0.09947 0.52872 0.62117 0.0
H1087 H 0.02456 0.57785 0.60308 0.0
H1088 H 0.89819 0.51568 0.5984 0.0
H1089 H 0.945 0.52283 0.58439 0.0
C1090 C 0.58936 0.49671 0.11167 0.0
C1091 C 0.59909 0.52229 0.11987 0.0
C1092 C 0.56249 0.49563 1.10356 0.0
C1093 C 0.49628 0.53002 0.11544 0.0
H1094 H 0.46452 0.4741 1.08149 0.0
C1095 C 0.37942 0.5145 1.09503 0.0
C1096 C 0.37372 0.48804 1.08631 0.0
C1097 C 0.40551 0.51862 1.10387 0.0
C1098 C 0.4732 0.48936 1.09133 0.0
H1099 H 0.59175 0.56795 0.12205 0.0
H1100 H 0.54474 0.56615 0.10757 0.0
H1101 H 0.51497 0.48615 1.07953 0.0
H1102 H 0.38409 0.44295 1.08663 0.0
H1103 H 0.42916 0.44971 1.1028 0.0
H1104 H 0.45432 0.53332 0.12712 0.0
C1105 C 0.5573 0.54673 0.1082 0.0
C1106 C 0.50196 0.49661 1.08995 0.0
C1107 C 0.58429 0.54782 0.11631 0.0
C1108 C 0.38893 0.4639 1.09231 0.0
C1109 C 0.41505 0.46789 1.10125 0.0
C1110 C 0.46742 0.52287 0.11674 0.0
C1111 C 0.54524 0.52017 1.10335 0.0
C1112 C 0.51394 0.51665 1.1022 0.0
C1113 C 0.42484 0.49581 0.10497 0.0
C1114 C 0.45576 0.50202 0.10495 0.0
H1115 H 0.60026 0.4766 0.11397 0.0
H1116 H 0.55398 0.47483 1.09977 0.0
H1117 H 0.50499 0.54514 0.12535 0.0
H1118 H 0.36723 0.53346 1.09163 0.0
H1119 H 0.41208 0.54031 0.10716 0.0
C1120 C 0.28629 0.31332 0.25458 0.0
C1121 C 0.26547 0.29341 0.24909 0.0
C1122 C 0.27869 0.34141 0.25865 0.0
C1123 C 0.22282 0.39305 0.24753 0.0
H1124 H 0.26386 0.44046 0.28283 0.0
C1125 C 0.21703 0.51376 0.24254 0.0
C1126 C 0.21183 0.5288 0.25901 0.0
C1127 C 0.22568 0.48533 0.24309 0.0
C1128 C 0.25205 0.42743 0.27305 0.0
H1129 H 0.22015 0.28691 0.2443 0.0
H1130 H 0.20669 0.33562 0.25235 0.0
H1131 H 0.27184 0.38883 0.28232 0.0
H1132 H 0.21286 0.52689 0.28898 0.0
H1133 H 0.22773 0.47666 0.29003 0.0
H1134 H 0.20252 0.43137 0.23853 0.0
C1135 C 0.229 0.32969 0.25305 0.0
C1136 C 0.25677 0.39795 0.27264 0.0
C1137 C 0.23667 0.30168 0.24871 0.0
C1138 C 0.21729 0.51572 0.27611 0.0
C1139 C 0.22559 0.487 0.27669 0.0
C1140 C 0.21792 0.4224 0.24806 0.0
C1141 C 0.25004 0.35002 0.25759 0.0
C1142 C 0.24262 0.38058 0.25962 0.0
C1143 C 0.22871 0.47129 0.26016 0.0
C1144 C 0.233 0.43997 0.2605 0.0
H1145 H 0.30861 0.30742 0.25522 0.0
H1146 H 0.29546 0.35663 0.26185 0.0
H1147 H 0.21179 0.38036 0.23719 0.0
H1148 H 0.21286 0.52356 0.22922 0.0
H1149 H 0.22872 0.47396 0.23014 0.0
C1150 C 0.47382 0.47968 0.48344 0.0
C1151 C 0.48971 0.49411 0.4971 0.0
C1152 C 0.44528 0.47276 0.48653 0.0
C1153 C 0.38322 0.49778 0.51199 0.0
H1154 H 0.35044 0.42546 0.49612 0.0
C1155 C 0.26302 0.4641 0.51913 0.0
C1156 C 0.25194 0.45003 0.50346 0.0
C1157 C 0.29202 0.4715 0.5198 0.0
C1158 C 0.3593 0.44581 0.50054 0.0
H1159 H 0.48845 0.51101 0.52514 0.0
H1160 H 0.43823 0.49943 0.53032 0.0
H1161 H 0.40206 0.43189 0.49547 0.0
H1162 H 0.26166 0.43506 0.47567 0.0
H1163 H 0.31181 0.4481 0.47684 0.0
H1164 H 0.3402 0.51181 0.51669 0.0
C1165 C 0.448 0.49369 0.51722 0.0
C1166 C 0.38879 0.44943 0.50021 0.0
C1167 C 0.47671 0.50027 0.51424 0.0
C1168 C 0.26969 0.44554 0.48803 0.0
C1169 C 0.29844 0.45282 0.48872 0.0
C1170 C 0.35359 0.49414 0.51233 0.0
C1171 C 0.43194 0.48035 0.50326 0.0
C1172 C 0.40099 0.4756 0.50559 0.0
C1173 C 0.31012 0.46481 0.50485 0.0
C1174 C 0.3414 0.46833 0.50619 0.0
H1175 H 0.48283 0.47517 0.46992 0.0
H1176 H 0.43327 0.46274 0.47544 0.0
H1177 H 0.39215 0.51829 0.51603 0.0
H1178 H 0.24981 0.46767 0.53125 0.0
H1179 H 0.30059 0.48089 0.53236 0.0
C1180 C 0.28311 0.72415 0.74738 0.0
C1181 C 0.25388 0.73065 0.74651 0.0
C1182 C 0.29199 0.69636 0.75125 0.0
C1183 C 0.2658 0.62512 0.76706 0.0
H1184 H 0.32845 0.59783 0.7367 0.0
C1185 C 0.30966 0.50959 0.77127 0.0
C1186 C 0.31986 0.49745 0.75475 0.0
C1187 C 0.30077 0.53812 0.77162 0.0
C1188 C 0.31068 0.60502 0.74512 0.0
H1189 H 0.2111 0.71361 0.74998 0.0
H1190 H 0.22645 0.66489 0.75563 0.0
H1191 H 0.31552 0.64799 0.73572 0.0
H1192 H 0.32698 0.50445 0.72545 0.0
H1193 H 0.31009 0.55372 0.7258 0.0
H1194 H 0.2599 0.5817 0.77555 0.0
C1195 C 0.24261 0.68127 0.75382 0.0
C1196 C 0.30364 0.63395 0.74485 0.0
C1197 C 0.23376 0.70913 0.75029 0.0
C1198 C 0.31937 0.51352 0.73838 0.0
C1199 C 0.31004 0.54179 0.73865 0.0
C1200 C 0.27256 0.59606 0.76709 0.0
C1201 C 0.2718 0.67446 0.754 0.0
C1202 C 0.2809 0.64427 0.75566 0.0
C1203 C 0.30158 0.55471 0.75539 0.0
C1204 C 0.29482 0.58565 0.75592 0.0
H1205 H 0.29918 0.74018 0.7443 0.0
H1206 H 0.31466 0.69192 0.7516 0.0
H1207 H 0.24847 0.63249 0.77578 0.0
H1208 H 0.3102 0.49766 0.78412 0.0
H1209 H 0.29456 0.54749 0.78476 0.0
C1210 C 0.05352 0.5006 1.00658 0.0
C1211 C 0.0386 0.51593 0.99302 0.0
C1212 C 0.08138 0.50839 1.0112 0.0
C1213 C 0.13335 0.56771 1.00697 0.0
H1214 H 0.19006 0.50732 1.00872 0.0
C1215 C 0.25018 0.58933 0.99196 0.0
C1216 C 0.27067 0.57875 1.00436 0.0
C1217 C 0.22188 0.58056 0.99317 0.0
C1218 C 0.17438 0.52432 1.00858 0.0
H1219 H 0.04091 0.55117 0.97351 0.0
H1220 H 0.08945 0.56463 0.98145 0.0
H1221 H 0.13946 0.49485 1.00664 0.0
H1222 H 0.27775 0.54961 1.02728 0.0
H1223 H 0.22781 0.53374 1.02914 0.0
H1224 H 0.16829 0.59715 1.00809 0.0
C1225 C 0.07955 0.54706 0.98886 0.0
C1226 C 0.14547 0.51724 1.00744 0.0
C1227 C 0.05178 0.53932 0.98428 0.0
C1228 C 0.26245 0.55809 1.0175 0.0
C1229 C 0.23395 0.5491 1.01862 0.0
C1230 C 0.16217 0.57475 1.00801 0.0
C1231 C 0.09469 0.53158 1.00228 0.0
C1232 C 0.12478 0.5389 1.00612 0.0
C1233 C 0.21339 0.56086 1.00674 0.0
C1234 C 0.18295 0.55313 1.0083 0.0
H1235 H 0.04365 0.48263 1.0136 0.0
H1236 H 0.09251 0.49627 1.02171 0.0
H1237 H 0.1178 0.58483 1.00636 0.0
H1238 H 0.25576 0.60506 0.98154 0.0
H1239 H 0.20653 0.58943 0.98357 0.0
C1240 C 0.79808 0.50744 0.93757 0.0
C1241 C 0.81657 0.49977 0.95204 0.0
C1242 C 0.78851 0.53577 0.93605 0.0
C1243 C 0.8125 0.60727 0.94603 0.0
H1244 H 0.73383 0.63146 0.95156 0.0
C1245 C 0.78326 0.71884 0.97127 0.0
C1246 C 0.75956 0.7326 0.96349 0.0
C1247 C 0.78939 0.69063 0.9666 0.0
C1248 C 0.75582 0.62502 0.94956 0.0
H1249 H 0.83809 0.51536 0.97684 0.0
H1250 H 0.82192 0.56424 0.97384 0.0
H1251 H 0.74486 0.58037 0.94875 0.0
H1252 H 0.72379 0.72804 0.94473 0.0
H1253 H 0.73464 0.67843 0.93643 0.0
H1254 H 0.82375 0.65158 0.94728 0.0
C1255 C 0.81499 0.54855 0.96369 0.0
C1256 C 0.76204 0.5959 0.94795 0.0
C1257 C 0.8241 0.52047 0.96539 0.0
C1258 C 0.74213 0.71776 0.95092 0.0
C1259 C 0.7483 0.68947 0.94621 0.0
C1260 C 0.80631 0.6363 0.94745 0.0
C1261 C 0.79773 0.55654 0.94881 0.0
C1262 C 0.79047 0.5869 0.94675 0.0
C1263 C 0.77195 0.67567 0.95405 0.0
C1264 C 0.778 0.64537 0.94983 0.0
H1265 H 0.79201 0.49197 0.92708 0.0
H1266 H 0.77496 0.54172 0.92454 0.0
H1267 H 0.8346 0.60062 0.94505 0.0
H1268 H 0.79664 0.72963 0.98135 0.0
H1269 H 0.80735 0.68031 0.97322 0.0
C1270 C 0.54702 0.54139 0.72967 0.0
C1271 C 0.53291 0.52597 0.71559 0.0
C1272 C 0.57624 0.54677 0.72844 0.0
C1273 C 0.64096 0.51642 0.70987 0.0
H1274 H 0.67271 0.59311 0.71244 0.0
C1275 C 0.7624 0.55082 0.71279 0.0
C1276 C 0.76871 0.57145 0.69924 0.0
C1277 C 0.73414 0.54159 0.7153 0.0
C1278 C 0.66406 0.57157 0.7119 0.0
H1279 H 0.53823 0.50608 0.68856 0.0
H1280 H 0.5895 0.51453 0.68688 0.0
H1281 H 0.62124 0.58617 0.71609 0.0
H1282 H 0.75143 0.59638 0.67654 0.0
H1283 H 0.70253 0.58043 0.68102 0.0
H1284 H 0.68395 0.50193 0.70551 0.0
C1285 C 0.57778 0.52217 0.69886 0.0
C1286 C 0.63479 0.56765 0.714 0.0
C1287 C 0.54847 0.5174 0.69985 0.0
C1288 C 0.74704 0.58074 0.68727 0.0
C1289 C 0.71908 0.57175 0.68984 0.0
C1290 C 0.67041 0.52031 0.70806 0.0
C1291 C 0.5919 0.53636 0.71331 0.0
C1292 C 0.623 0.54015 0.71258 0.0
C1293 C 0.71225 0.55307 0.70431 0.0
C1294 C 0.68199 0.54799 0.70862 0.0
H1295 H 0.53597 0.54793 0.74217 0.0
H1296 H 0.58683 0.55793 0.73968 0.0
H1297 H 0.63215 0.49499 0.70894 0.0
H1298 H 0.77877 0.54349 0.72222 0.0
H1299 H 0.72913 0.52698 0.72649 0.0
C1300 C 0.74283 0.29874 0.44925 0.0
C1301 C 0.74097 0.28638 0.46694 0.0
C1302 C 0.73822 0.32804 0.4469 0.0
C1303 C 0.74231 0.39492 0.47366 0.0
H1304 H 0.70114 0.42796 0.4324 0.0
C1305 C 0.69929 0.50956 0.47335 0.0
C1306 C 0.69982 0.52517 0.45677 0.0
C1307 C 0.70881 0.48133 0.47374 0.0
C1308 C 0.71317 0.41904 0.4438 0.0
H1309 H 0.73136 0.29488 0.4959 0.0
H1310 H 0.72225 0.34558 0.49165 0.0
H1311 H 0.70579 0.37597 0.43464 0.0
H1312 H 0.71174 0.52413 0.42775 0.0
H1313 H 0.72836 0.47433 0.42841 0.0
H1314 H 0.74913 0.43789 0.48305 0.0
C1315 C 0.72793 0.33277 0.47967 0.0
C1316 C 0.7157 0.38931 0.44512 0.0
C1317 C 0.73262 0.30356 0.48202 0.0
C1318 C 0.71139 0.51258 0.44075 0.0
C1319 C 0.72059 0.48408 0.44108 0.0
C1320 C 0.73973 0.42458 0.47235 0.0
C1321 C 0.73161 0.34547 0.46221 0.0
C1322 C 0.72985 0.37696 0.46025 0.0
C1323 C 0.71875 0.46803 0.45751 0.0
C1324 C 0.72473 0.43692 0.45758 0.0
H1325 H 0.74902 0.28597 0.43735 0.0
H1326 H 0.74117 0.33725 0.43327 0.0
H1327 H 0.75398 0.38602 0.48523 0.0
H1328 H 0.69045 0.51884 0.48588 0.0
H1329 H 0.70689 0.46943 0.48656 0.0
C1330 C 0.77727 0.43692 0.20517 0.0
C1331 C 0.75213 0.45307 0.20345 0.0
C1332 C 0.80361 0.45024 0.20616 0.0
C1333 C 0.84076 0.51554 0.21804 0.0
H1334 H 0.901 0.47895 0.18957 0.0
C1335 C 0.96015 0.54941 0.21996 0.0
C1336 C 0.97845 0.52637 0.22375 0.0
C1337 C 0.93153 0.54437 0.21577 0.0
C1338 C 0.88434 0.48947 0.19748 0.0
H1339 H 0.73479 0.49602 0.20229 0.0
H1340 H 0.78182 0.51978 0.204 0.0
H1341 H 0.85165 0.46411 0.18504 0.0
H1342 H 0.98115 0.48015 0.22667 0.0
H1343 H 0.93142 0.47139 0.21891 0.0
H1344 H 0.87393 0.54038 0.23081 0.0
C1345 C 0.78063 0.49662 0.20443 0.0
C1346 C 0.85619 0.48105 0.19491 0.0
C1347 C 0.75387 0.48311 0.20346 0.0
C1348 C 0.9677 0.49827 0.22337 0.0
C1349 C 0.93928 0.49325 0.219 0.0
C1350 C 0.86906 0.52417 0.22051 0.0
C1351 C 0.80568 0.48012 0.20537 0.0
C1352 C 0.83429 0.49324 0.20565 0.0
C1353 C 0.92104 0.51624 0.21513 0.0
C1354 C 0.89103 0.51049 0.21066 0.0
H1355 H 0.77679 0.41372 0.20569 0.0
H1356 H 0.82248 0.43702 0.20752 0.0
H1357 H 0.82425 0.52509 0.22655 0.0
H1358 H 0.96801 0.57125 0.22 0.0
H1359 H 0.91772 0.56233 0.21276 0.0
C1360 C 0.73834 0.80146 0.74874 0.0
C1361 C 0.76725 0.79352 0.7486 0.0
C1362 C 0.73054 0.82944 0.7531 0.0
C1363 C 0.75834 0.89822 0.77195 0.0
H1364 H 0.70202 0.93073 0.7389 0.0
C1365 C 0.71753 0.01564 0.77587 0.0
C1366 C 0.71128 0.02854 0.75882 0.0
C1367 C 0.72612 0.98698 0.7764 0.0
C1368 C 0.71798 0.92201 0.74813 0.0
H1369 H 0.81047 0.80812 0.75383 0.0
H1370 H 0.79703 0.85724 0.76052 0.0
H1371 H 0.7119 0.87983 0.73747 0.0
H1372 H 0.7112 0.02302 0.72904 0.0
H1373 H 0.72747 0.97357 0.72986 0.0
H1374 H 0.76531 0.94089 0.78192 0.0
C1375 C 0.78031 0.8418 0.7577 0.0
C1376 C 0.72326 0.89273 0.74755 0.0
C1377 C 0.78807 0.81375 0.7536 0.0
C1378 C 0.71596 0.01338 0.74232 0.0
C1379 C 0.72485 0.98502 0.74283 0.0
C1380 C 0.75322 0.92764 0.77241 0.0
C1381 C 0.75152 0.85007 0.75715 0.0
C1382 C 0.74382 0.88058 0.75926 0.0
C1383 C 0.72872 0.97115 0.75988 0.0
C1384 C 0.7334 0.93987 0.76024 0.0
H1385 H 0.72181 0.78645 0.74471 0.0
H1386 H 0.70814 0.83509 0.7528 0.0
H1387 H 0.774 0.88937 0.78133 0.0
H1388 H 0.71352 0.02688 0.78877 0.0
H1389 H 0.72892 0.97678 0.78973 0.0
C1390 C 0.76752 0.95734 1.02295 0.0
C1391 C 0.74841 0.95871 1.00807 0.0
C1392 C 0.79562 0.96634 1.02072 0.0
C1393 C 0.84707 1.00144 0.98909 0.0
H1394 H 0.89769 0.94238 1.00766 0.0
C1395 C 0.96467 0.99457 0.96736 0.0
C1396 C 0.98403 0.99238 0.98211 0.0
C1397 C 0.93564 0.99024 0.97041 0.0
C1398 C 0.88382 0.95911 1.00253 0.0
H1399 H 0.74252 0.97225 0.97972 0.0
H1400 H 0.79209 0.98777 0.9756 0.0
H1401 H 0.84686 0.93959 1.01427 0.0
H1402 H 0.98882 0.98243 1.01123 0.0
H1403 H 0.93792 0.97472 1.01659 0.0
H1404 H 0.88429 0.02064 0.97711 0.0
C1405 C 0.78528 0.98022 0.98909 0.0
C1406 C 0.85477 0.95768 1.0064 0.0
C1407 C 0.75693 0.97152 0.99143 0.0
C1408 C 0.97419 0.98427 0.99969 0.0
C1409 C 0.94517 0.97981 1.00272 0.0
C1410 C 0.87621 1.00281 0.98516 0.0
C1411 C 0.80517 0.97629 1.00344 0.0
C1412 C 0.83611 0.9789 0.99981 0.0
C1413 C 0.92562 0.98352 0.98821 0.0
C1414 C 0.89477 0.98165 0.99187 0.0
H1415 H 0.76125 0.94736 1.03589 0.0
H1416 H 0.81033 0.96375 1.03216 0.0
H1417 H 0.83319 0.01809 0.98389 0.0
H1418 H 0.97175 1.00115 0.95372 0.0
H1419 H 0.92095 0.99282 0.95896 0.0
C1420 C 0.80745 1.00815 0.27315 0.0
C1421 C 0.81438 0.99439 0.25644 0.0
C1422 C 0.79701 0.03616 0.27294 0.0
C1423 C 0.76117 0.08863 0.24433 0.0
H1424 H 0.80735 0.14613 0.26916 0.0
C1425 C 0.75124 0.20652 0.22615 0.0
C1426 C 0.75166 0.22645 0.24069 0.0
C1427 C 0.75832 0.17812 0.22942 0.0
C1428 C 0.79397 0.13028 0.26244 0.0
H1429 H 0.815 0.99808 0.22652 0.0
H1430 H 0.79577 0.0466 0.22614 0.0
H1431 H 0.81828 0.09533 0.27328 0.0
H1432 H 0.76057 0.23315 0.26979 0.0
H1433 H 0.77224 0.18292 0.27577 0.0
H1434 H 0.73682 0.12322 0.23344 0.0
C1435 C 0.79857 0.03593 0.23933 0.0
C1436 C 0.8002 0.10133 0.26481 0.0
C1437 C 0.8095 1.00829 0.23955 0.0
C1438 C 0.75998 0.21789 0.25846 0.0
C1439 C 0.76676 0.18931 0.26181 0.0
C1440 C 0.75472 0.11746 0.24213 0.0
C1441 C 0.79284 0.05025 0.25602 0.0
C1442 C 0.78412 0.0804 0.2555 0.0
C1443 C 0.76559 0.16911 0.24735 0.0
C1444 C 0.77141 0.13858 0.25084 0.0
H1445 H 0.81161 0.99793 0.28633 0.0
H1446 H 0.79271 0.047 0.28594 0.0
H1447 H 0.74849 0.07272 0.23709 0.0
H1448 H 0.7456 0.21298 0.21222 0.0
H1449 H 0.75809 0.16322 0.21789 0.0
C1450 C 0.7494 0.08828 0.49011 0.0
C1451 C 0.76888 0.07805 0.50331 0.0
C1452 C 0.72119 0.07924 0.49025 0.0
C1453 C 0.66558 0.04956 0.52011 0.0
H1454 H 0.62747 0.03835 0.47296 0.0
C1455 C 0.54903 1.00909 0.51025 0.0
C1456 C 0.53326 0.02304 0.49645 0.0
C1457 C 0.57768 0.01602 0.51303 0.0
C1458 C 0.6378 0.04164 0.48622 0.0
H1459 H 0.77406 0.04975 0.52683 0.0
H1460 H 0.72424 0.0331 0.52674 0.0
H1461 H 0.67865 0.04664 0.47358 0.0
H1462 H 0.53461 0.056 0.47527 0.0
H1463 H 0.58439 0.06838 0.48036 0.0
H1464 H 0.62431 0.04433 0.53265 0.0
C1465 C 0.73109 0.04856 0.51648 0.0
C1466 C 0.66708 0.04629 0.48659 0.0
C1467 C 0.75959 0.05783 0.51641 0.0
C1468 C 0.54613 0.04509 0.48616 0.0
C1469 C 0.57469 0.05195 0.48891 0.0
C1470 C 0.63614 0.04464 0.51974 0.0
C1471 C 0.71164 0.05938 0.50343 0.0
C1472 C 0.68122 0.0509 0.50349 0.0
C1473 C 0.59091 0.03686 0.50195 0.0
C1474 C 0.62202 0.04121 0.50274 0.0
H1475 H 0.75567 0.10398 0.47984 0.0
H1476 H 0.70665 0.08846 0.48027 0.0
H1477 H 0.67589 0.05332 0.53332 0.0
H1478 H 0.53946 0.99218 0.51845 0.0
H1479 H 0.58983 1.0041 0.52315 0.0
C1480 C 0.28253 0.22838 0.4485 0.0
C1481 C 0.28388 0.24016 0.46641 0.0
C1482 C 0.28575 0.19894 0.44582 0.0
C1483 C 0.2762 0.13171 0.47122 0.0
H1484 H 0.31952 0.09777 0.43099 0.0
C1485 C 0.31308 0.0152 0.47086 0.0
C1486 C 0.31468 1.00018 0.45402 0.0
C1487 C 0.30456 0.04372 0.47124 0.0
C1488 C 0.30684 0.10695 0.44206 0.0
H1489 H 0.29102 0.23038 0.49547 0.0
H1490 H 0.29773 0.17938 0.49065 0.0
H1491 H 0.31719 0.14984 0.43391 0.0
H1492 H 0.30736 1.00258 0.42445 0.0
H1493 H 0.29204 0.05285 0.42509 0.0
H1494 H 0.26625 0.08893 0.47959 0.0
C1495 C 0.29357 0.19281 0.47874 0.0
C1496 C 0.30567 0.13673 0.44379 0.0
C1497 C 0.29026 0.22215 0.48143 0.0
C1498 C 0.30589 0.01363 0.43764 0.0
C1499 C 0.29753 0.04242 0.43799 0.0
C1500 C 0.27733 0.102 0.46948 0.0
C1501 C 0.29044 0.18081 0.46101 0.0
C1502 C 0.29077 0.14935 0.45859 0.0
C1503 C 0.29758 0.05791 0.45474 0.0
C1504 C 0.29307 0.08929 0.45507 0.0
H1505 H 0.27781 0.24175 0.43667 0.0
H1506 H 0.28324 0.19024 0.432 0.0
H1507 H 0.26399 0.14089 0.48253 0.0
H1508 H 0.31992 1.0053 0.48367 0.0
H1509 H 0.30517 0.0551 0.48433 0.0
C1510 C 0.04735 0.04006 0.21285 0.0
C1511 C 0.03928 0.02731 0.22967 0.0
C1512 C 0.07604 0.04543 0.20911 0.0
C1513 C 0.14643 0.01838 0.22084 0.0
H1514 H 0.17382 0.08966 0.19983 0.0
C1515 C 0.26534 0.0523 0.21556 0.0
C1516 C 0.27275 0.06932 0.20032 0.0
C1517 C 0.23708 0.04311 0.21777 0.0
C1518 C 0.16641 0.06943 0.2054 0.0
H1519 H 0.05425 1.0113 0.25605 0.0
H1520 H 0.10452 0.02103 0.24959 0.0
H1521 H 0.12335 0.08432 0.20717 0.0
H1522 H 0.25795 0.08765 0.17453 0.0
H1523 H 0.20905 0.07084 0.17804 0.0
H1524 H 0.18957 1.00351 0.2191 0.0
C1525 C 0.08872 0.02655 0.23927 0.0
C1526 C 0.13759 0.06649 0.20968 0.0
C1527 C 0.06003 0.02139 0.24307 0.0
C1528 C 0.25253 0.07461 0.18645 0.0
C1529 C 0.22454 0.06526 0.18855 0.0
C1530 C 0.17531 0.02127 0.2165 0.0
C1531 C 0.09696 0.03795 0.22211 0.0
C1532 C 0.12742 0.04102 0.21751 0.0
C1533 C 0.21622 0.05078 0.20469 0.0
C1534 C 0.18555 0.04683 0.20873 0.0
H1535 H 0.03158 0.04486 0.20235 0.0
H1536 H 0.08194 0.05424 0.19576 0.0
H1537 H 0.13888 0.99835 0.22664 0.0
H1538 H 0.28063 0.04832 0.22649 0.0
H1539 H 0.23118 0.03194 0.23035 0.0
C1540 C 0.20959 1.01099 0.96912 0.0
C1541 C 0.20276 0.02551 0.95277 0.0
C1542 C 0.21574 0.98178 0.96868 0.0
C1543 C 0.22832 0.91995 0.93652 0.0
H1544 H 0.20504 0.87726 0.97999 0.0
C1545 C 0.26387 0.80459 0.94769 0.0
C1546 C 0.2499 0.7871 0.96065 0.0
C1547 C 0.25452 0.83234 0.94446 0.0
C1548 C 0.21104 0.88856 0.9675 0.0
H1549 H 0.19749 0.02151 0.9231 0.0
H1550 H 0.20681 0.9703 0.9223 0.0
H1551 H 0.19769 0.92835 0.97908 0.0
H1552 H 0.21289 0.78374 0.97863 0.0
H1553 H 0.19485 0.83132 0.97162 0.0
H1554 H 0.23955 0.87997 0.92433 0.0
C1555 C 0.20862 0.98134 0.93544 0.0
C1556 C 0.20755 0.91823 0.96719 0.0
C1557 C 0.20333 1.01078 0.93584 0.0
C1558 C 0.22429 0.79673 0.96863 0.0
C1559 C 0.2143 0.82433 0.9649 0.0
C1560 C 0.23091 0.8902 0.93657 0.0
C1561 C 0.21413 0.96627 0.95195 0.0
C1562 C 0.21684 0.93446 0.9519 0.0
C1563 C 0.23012 0.84303 0.95348 0.0
C1564 C 0.22314 0.87411 0.95227 0.0
H1565 H 0.20911 0.02204 0.98234 0.0
H1566 H 0.2209 0.97128 0.9816 0.0
H1567 H 0.2359 0.93151 0.9245 0.0
H1568 H 0.28324 0.79751 0.94087 0.0
H1569 H 0.26767 0.84579 0.93572 0.0
C1570 C 0.45843 0.04744 0.72185 0.0
C1571 C 0.47742 0.02451 0.72428 0.0
C1572 C 0.42994 0.04217 0.71748 0.0
C1573 C 0.38393 0.98971 0.69581 0.0
H1574 H 0.3235 0.01853 0.7276 0.0
C1575 C 0.27635 0.93585 0.69852 0.0
C1576 C 0.25111 0.9519 0.70039 0.0
C1577 C 0.30282 0.94889 0.6997 0.0
C1578 C 0.34005 1.01094 0.71833 0.0
H1579 H 0.48143 0.97814 0.72449 0.0
H1580 H 0.43187 0.96909 0.7163 0.0
H1581 H 0.37291 0.03351 0.73303 0.0
H1582 H 0.23402 0.99441 0.70505 0.0
H1583 H 0.28116 0.0177 0.70686 0.0
H1584 H 0.35154 0.96694 0.68117 0.0
C1585 C 0.43913 0.99105 0.71768 0.0
C1586 C 0.36823 0.01936 0.7215 0.0
C1587 C 0.46745 0.99626 0.72228 0.0
C1588 C 0.25308 0.98156 0.70348 0.0
C1589 C 0.27996 0.9948 0.70457 0.0
C1590 C 0.35584 0.98163 0.69248 0.0
C1591 C 0.42023 0.01396 0.71525 0.0
C1592 C 0.39034 1.00812 0.71058 0.0
C1593 C 0.30503 0.97848 0.70257 0.0
C1594 C 0.33374 0.99138 0.70409 0.0
H1595 H 0.46566 0.06941 0.7231 0.0
H1596 H 0.41559 0.06008 0.71556 0.0
H1597 H 0.40073 0.9811 0.68711 0.0
H1598 H 0.27591 0.91288 0.69636 0.0
H1599 H 0.32165 0.93553 0.69869 0.0
C1600 C 0.30705 0.09534 0.13641 0.0
C1601 C 0.30847 0.12152 0.14623 0.0
C1602 C 0.29201 0.09289 0.11959 0.0
C1603 C 0.25918 0.13787 1.08176 0.0
H1604 H 0.22504 0.06584 1.06665 0.0
C1605 C 0.21061 0.12558 1.00837 0.0
C1606 C 0.1869 0.10751 1.00535 0.0
C1607 C 0.22503 0.12603 1.0254 0.0
C1608 C 0.2341 0.08629 1.07064 0.0
H1609 H 0.2937 0.16541 0.14596 0.0
H1610 H 0.26713 0.16119 0.11706 0.0
H1611 H 0.24953 0.06929 1.09635 0.0
H1612 H 0.16062 0.07492 1.01826 0.0
H1613 H 0.18511 0.07634 1.04822 0.0
H1614 H 0.24284 0.15529 1.0566 0.0
C1615 C 0.27848 0.14255 0.12198 0.0
C1616 C 0.24869 0.08819 1.08772 0.0
C1617 C 0.29371 0.14503 0.13876 0.0
C1618 C 0.17834 0.08959 1.02006 0.0
C1619 C 0.19276 0.09016 1.03726 0.0
C1620 C 0.24441 0.13605 1.06486 0.0
C1621 C 0.27744 0.11648 0.11195 0.0
C1622 C 0.26156 0.11408 1.09365 0.0
C1623 C 0.21632 0.10861 1.04032 0.0
C1624 C 0.23167 0.11023 1.05883 0.0
H1625 H 0.31737 0.07642 0.14179 0.0
H1626 H 0.29219 0.07243 0.11251 0.0
H1627 H 0.26902 0.15812 1.08534 0.0
H1628 H 0.21845 0.13936 0.99743 0.0
H1629 H 0.24345 0.13992 1.02665 0.0
C1630 C 0.68878 0.42816 0.27024 0.0
C1631 C 0.67084 0.43636 0.25552 0.0
C1632 C 0.6884 0.44301 0.28738 0.0
C1633 C 0.66405 0.51284 0.30934 0.0
H1634 H 0.67458 0.47218 0.3555 0.0
C1635 C 0.66594 0.57384 0.38049 0.0
C1636 C 0.65405 0.56037 0.39619 0.0
C1637 C 0.66962 0.55886 0.36361 0.0
C1638 C 0.67132 0.48403 0.34281 0.0
H1639 H 0.63905 0.46766 0.24754 0.0
H1640 H 0.6382 0.49298 0.27694 0.0
H1641 H 0.67761 0.44629 0.32617 0.0
H1642 H 0.63766 0.51974 0.40615 0.0
H1643 H 0.64369 0.49396 0.37699 0.0
H1644 H 0.65691 0.55037 0.32591 0.0
C1645 C 0.65271 0.47511 0.27546 0.0
C1646 C 0.67348 0.46908 0.3258 0.0
C1647 C 0.65291 0.46018 0.25849 0.0
C1648 C 0.64644 0.53121 0.39442 0.0
C1649 C 0.65028 0.51619 0.3776 0.0
C1650 C 0.66186 0.52775 0.32631 0.0
C1651 C 0.67037 0.4669 0.29033 0.0
C1652 C 0.66957 0.4831 0.30868 0.0
C1653 C 0.66181 0.52969 0.36176 0.0
C1654 C 0.6652 0.51367 0.34346 0.0
H1655 H 0.70315 0.4102 0.26854 0.0
H1656 H 0.70266 0.43598 0.29822 0.0
H1657 H 0.66141 0.52487 0.29667 0.0
H1658 H 0.67247 0.59608 0.3812 0.0
H1659 H 0.67904 0.5702 0.35205 0.0
C1660 C 0.22596 0.88308 0.63811 0.0
C1661 C 0.21014 0.90631 0.64517 0.0
C1662 C 0.24189 0.88551 0.62156 0.0
C1663 C 0.27268 0.93942 0.5875 0.0
H1664 H 0.28086 0.87171 0.55691 0.0
C1665 C 0.34666 0.93701 0.52087 0.0
C1666 C 0.33865 0.91888 0.50608 0.0
C1667 C 0.33158 0.93667 0.53793 0.0
C1668 C 0.2787 0.89112 0.56501 0.0
H1669 H 0.19972 0.95086 0.64005 0.0
H1670 H 0.22679 0.95492 0.61126 0.0
H1671 H 0.25309 0.86929 0.5851 0.0
H1672 H 0.30748 0.88673 0.498 0.0
H1673 H 0.28154 0.88649 0.52689 0.0
H1674 H 0.29755 0.96145 0.56682 0.0
C1675 C 0.22709 0.93467 0.61852 0.0
C1676 C 0.26297 0.88955 0.58161 0.0
C1677 C 0.21111 0.9322 0.63507 0.0
C1678 C 0.31496 0.9007 0.50898 0.0
C1679 C 0.29995 0.90044 0.52584 0.0
C1680 C 0.28836 0.94105 0.57073 0.0
C1681 C 0.24278 0.91132 0.61134 0.0
C1682 C 0.25965 0.91356 0.59331 0.0
C1683 C 0.30794 0.91819 0.5408 0.0
C1684 C 0.29166 0.91688 0.55909 0.0
H1685 H 0.22634 0.86292 0.64549 0.0
H1686 H 0.25398 0.86707 0.617 0.0
H1687 H 0.27112 0.95849 0.59599 0.0
H1688 H 0.36425 0.95187 0.51916 0.0
H1689 H 0.33868 0.95078 0.54892 0.0
C1690 C 0.83409 0.60057 0.77111 0.0
C1691 C 0.84864 0.58949 0.75557 0.0
C1692 C 0.83463 0.58616 0.78838 0.0
C1693 C 0.85079 0.51385 0.80976 0.0
H1694 H 0.85502 0.55656 0.85573 0.0
C1695 C 0.85061 0.45476 0.88126 0.0
C1696 C 0.86596 0.46657 0.89624 0.0
C1697 C 0.84699 0.46996 0.86454 0.0
C1698 C 0.85413 0.54407 0.84309 0.0
H1699 H 0.87415 0.55353 0.74619 0.0
H1700 H 0.875 0.52881 0.77572 0.0
H1701 H 0.85156 0.58207 0.82636 0.0
H1702 H 0.88906 0.50452 0.90502 0.0
H1703 H 0.8835 0.53053 0.87598 0.0
H1704 H 0.85427 0.47594 0.82626 0.0
C1705 C 0.86326 0.5487 0.77486 0.0
C1706 C 0.85169 0.55888 0.82609 0.0
C1707 C 0.86307 0.56322 0.7578 0.0
C1708 C 0.87737 0.49434 0.89386 0.0
C1709 C 0.87383 0.50953 0.87711 0.0
C1710 C 0.85327 0.49908 0.82671 0.0
C1711 C 0.84922 0.55985 0.79059 0.0
C1712 C 0.85026 0.54409 0.80903 0.0
C1713 C 0.85862 0.49768 0.86202 0.0
C1714 C 0.85521 0.5138 0.84378 0.0
H1715 H 0.82252 0.62054 0.77 0.0
H1716 H 0.82323 0.59552 0.79996 0.0
H1717 H 0.84925 0.50135 0.79715 0.0
H1718 H 0.84103 0.43371 0.88245 0.0
H1719 H 0.83458 0.45995 0.85366 0.0
C1720 C 0.81 0.89731 0.20116 0.0
C1721 C 0.83355 0.91541 0.20441 0.0
C1722 C 0.7957 0.89731 0.18409 0.0
C1723 C 0.78653 0.9385 0.13946 0.0
H1724 H 0.75309 0.8666 0.12352 0.0
C1725 C 0.71398 0.93022 1.07341 0.0
C1726 C 0.7134 0.90436 1.06321 0.0
C1727 C 0.72892 0.9325 1.09029 0.0
C1728 C 0.76253 0.88689 0.12745 0.0
H1729 H 0.85971 0.94861 0.19197 0.0
H1730 H 0.83539 0.948 0.16199 0.0
H1731 H 0.77902 0.86881 0.15236 0.0
H1732 H 0.72941 0.86091 1.06288 0.0
H1733 H 0.75572 0.86485 1.09184 0.0
H1734 H 0.77095 0.9562 0.11398 0.0
C1735 C 0.82778 0.93378 0.17276 0.0
C1736 C 0.77712 0.88832 0.14441 0.0
C1737 C 0.84209 0.93387 0.18996 0.0
C1738 C 0.72877 0.88102 1.07037 0.0
C1739 C 0.74385 0.88333 1.08718 0.0
C1740 C 0.77211 0.93699 0.12231 0.0
C1741 C 0.8044 0.91528 0.16943 0.0
C1742 C 0.78928 0.91414 0.15088 0.0
C1743 C 0.74411 0.90904 1.09759 0.0
C1744 C 0.75977 0.9111 0.11595 0.0
H1745 H 0.80226 0.88316 0.21194 0.0
H1746 H 0.7774 0.88332 0.18258 0.0
H1747 H 0.7952 0.95894 0.14381 0.0
H1748 H 0.70304 0.94899 1.0683 0.0
H1749 H 0.72816 0.95268 1.09768 0.0
C1750 C 0.34457 0.60551 0.93669 0.0
C1751 C 0.35199 0.5909 0.95303 0.0
C1752 C 0.34429 0.59111 0.91931 0.0
C1753 C 0.34594 0.51574 0.89854 0.0
H1754 H 0.36607 0.55531 0.85335 0.0
C1755 C 0.34818 0.45432 0.82774 0.0
C1756 C 0.36665 0.46359 0.81352 0.0
C1757 C 0.34458 0.47043 0.84416 0.0
C1758 C 0.36078 0.54357 0.86579 0.0
H1759 H 0.36422 0.54884 0.96336 0.0
H1760 H 0.36451 0.52494 0.93403 0.0
H1761 H 0.36338 0.58183 0.88234 0.0
H1762 H 0.39556 0.49789 0.8058 0.0
H1763 H 0.39037 0.52507 0.83436 0.0
H1764 H 0.34485 0.47727 0.88243 0.0
C1765 C 0.3584 0.54728 0.93422 0.0
C1766 C 0.35871 0.55913 0.88256 0.0
C1767 C 0.35866 0.56145 0.95133 0.0
C1768 C 0.38135 0.48964 0.81638 0.0
C1769 C 0.37799 0.50561 0.83286 0.0
C1770 C 0.34844 0.50015 0.88188 0.0
C1771 C 0.3512 0.5616 0.91776 0.0
C1772 C 0.35156 0.5455 0.89937 0.0
C1773 C 0.35948 0.49645 0.84717 0.0
C1774 C 0.35609 0.5136 0.86509 0.0
H1775 H 0.33901 0.62799 0.93729 0.0
H1776 H 0.3383 0.60312 0.90713 0.0
H1777 H 0.33962 0.50412 0.91084 0.0
H1778 H 0.33605 0.43471 0.82611 0.0
H1779 H 0.32957 0.4625 0.85435 0.0
C1780 C 0.70969 0.12505 0.70089 0.0
C1781 C 0.68672 0.10619 0.70422 0.0
C1782 C 0.72389 0.12558 0.68374 0.0
C1783 C 0.73512 0.08432 0.63929 0.0
H1784 H 0.76466 0.15746 0.6226 0.0
C1785 C 0.8098 0.09535 0.57411 0.0
C1786 C 0.80746 0.1201 0.56302 0.0
C1787 C 0.79448 0.09264 0.59086 0.0
C1788 C 0.75638 0.13681 0.62682 0.0
H1789 H 0.66151 0.07228 0.69177 0.0
H1790 H 0.68578 0.07364 0.66165 0.0
H1791 H 0.73881 0.15464 0.65165 0.0
H1792 H 0.78634 0.16116 0.56105 0.0
H1793 H 0.76004 0.15674 0.59016 0.0
H1794 H 0.7522 0.06675 0.61404 0.0
C1795 C 0.69293 0.0881 0.67244 0.0
C1796 C 0.74178 0.13507 0.64382 0.0
C1797 C 0.67865 0.08756 0.68972 0.0
C1798 C 0.78905 0.14192 0.56921 0.0
C1799 C 0.77399 0.13938 0.58606 0.0
C1800 C 0.74974 0.08609 0.62219 0.0
C1801 C 0.71574 0.10731 0.66907 0.0
C1802 C 0.73092 0.10881 0.65049 0.0
C1803 C 0.77643 0.11473 0.59728 0.0
C1804 C 0.76065 0.11243 0.6156 0.0
H1805 H 0.71709 0.13943 0.71166 0.0
H1806 H 0.74171 0.14017 0.68216 0.0
H1807 H 0.72747 0.06358 0.64383 0.0
H1808 H 0.82323 0.07774 0.56971 0.0
H1809 H 0.79721 0.07333 0.59894 0.0
C1810 C 0.19153 0.4278 0.43949 0.0
C1811 C 0.17064 0.43308 0.45319 0.0
C1812 C 0.19129 0.44268 0.42239 0.0
C1813 C 0.14257 0.4876 0.39229 0.0
H1814 H 0.21197 0.50705 0.36589 0.0
C1815 C 0.13819 0.53753 0.31832 0.0
C1816 C 0.15833 0.55861 0.31332 0.0
C1817 C 0.14067 0.5221 0.33502 0.0
C1818 C 0.19229 0.50205 0.37309 0.0
H1819 H 0.13354 0.45924 0.4593 0.0
H1820 H 0.13332 0.48482 0.43023 0.0
H1821 H 0.21469 0.4811 0.39526 0.0
H1822 H 0.19779 0.5788 0.32207 0.0
H1823 H 0.20216 0.55204 0.35105 0.0
H1824 H 0.12017 0.50906 0.37054 0.0
C1825 C 0.14956 0.46869 0.43224 0.0
C1826 C 0.19385 0.48671 0.38995 0.0
C1827 C 0.14978 0.4539 0.44917 0.0
C1828 C 0.18144 0.56325 0.32551 0.0
C1829 C 0.18415 0.54752 0.34213 0.0
C1830 C 0.14103 0.50287 0.37552 0.0
C1831 C 0.17013 0.46335 0.41837 0.0
C1832 C 0.16897 0.47924 0.39996 0.0
C1833 C 0.16366 0.52678 0.34733 0.0
C1834 C 0.16579 0.51041 0.3655 0.0
H1835 H 0.20835 0.41245 0.44207 0.0
H1836 H 0.20759 0.43769 0.41224 0.0
H1837 H 0.12274 0.48213 0.39913 0.0
H1838 H 0.12028 0.53298 0.30931 0.0
H1839 H 0.12462 0.50609 0.33812 0.0
C1840 C 0.67891 0.5835 0.51872 0.0
C1841 C 0.68098 0.60654 0.50617 0.0
C1842 C 0.69422 0.58373 0.53566 0.0
C1843 C 0.73366 0.63461 0.56784 0.0
H1844 H 0.76262 0.56529 0.59022 0.0
C1845 C 0.78854 0.6393 0.64024 0.0
C1846 C 0.80971 0.61925 0.64503 0.0
C1847 C 0.77271 0.63663 0.62372 0.0
C1848 C 0.75505 0.58505 0.58419 0.0
H1849 H 0.70159 0.64758 0.50181 0.0
H1850 H 0.72771 0.64807 0.53071 0.0
H1851 H 0.73617 0.56257 0.56115 0.0
H1852 H 0.83002 0.58005 0.63576 0.0
H1853 H 0.80345 0.57598 0.60681 0.0
H1854 H 0.75336 0.65735 0.59013 0.0
C1855 C 0.71391 0.62995 0.52796 0.0
C1856 C 0.73933 0.58339 0.56747 0.0
C1857 C 0.69884 0.62964 0.51114 0.0
C1858 C 0.81431 0.5963 0.6326 0.0
C1859 C 0.79862 0.59374 0.61594 0.0
C1860 C 0.74951 0.6363 0.58436 0.0
C1861 C 0.71197 0.60711 0.54067 0.0
C1862 C 0.72833 0.60821 0.5589 0.0
C1863 C 0.77743 0.6139 0.61108 0.0
C1864 C 0.76054 0.61162 0.59303 0.0
H1865 H 0.66613 0.5649 0.51522 0.0
H1866 H 0.69196 0.56559 0.54486 0.0
H1867 H 0.72538 0.65434 0.56217 0.0
H1868 H 0.78367 0.65695 0.64947 0.0
H1869 H 0.75625 0.65232 0.62115 0.0
C1870 C 0.18452 0.92395 0.77084 0.0
C1871 C 0.17046 0.93526 0.75524 0.0
C1872 C 0.18421 0.93856 0.7881 0.0
C1873 C 0.16987 1.01154 0.80946 0.0
H1874 H 0.16372 0.96933 0.8554 0.0
C1875 C 0.17023 0.07131 0.88101 0.0
C1876 C 0.15444 0.05996 0.89596 0.0
C1877 C 0.17373 0.05589 0.86429 0.0
C1878 C 0.16517 0.9817 0.84277 0.0
H1879 H 0.14622 0.97188 0.74575 0.0
H1880 H 0.14583 0.99701 0.77525 0.0
H1881 H 0.16694 0.94351 0.82604 0.0
H1882 H 0.13055 0.0225 0.90468 0.0
H1883 H 0.13589 0.99616 0.87566 0.0
H1884 H 0.1672 0.04968 0.82595 0.0
C1885 C 0.15694 0.97675 0.77445 0.0
C1886 C 0.16746 0.96669 0.82578 0.0
C1887 C 0.15685 0.96201 0.7574 0.0
C1888 C 0.14251 0.0324 0.89354 0.0
C1889 C 0.14595 0.01698 0.8768 0.0
C1890 C 0.16754 0.02652 0.82641 0.0
C1891 C 0.17041 0.96533 0.79025 0.0
C1892 C 0.16956 0.98129 0.80871 0.0
C1893 C 0.16159 0.02838 0.86173 0.0
C1894 C 0.1649 1.012 0.84349 0.0
H1895 H 0.19547 0.90361 0.76978 0.0
H1896 H 0.19517 0.92896 0.79971 0.0
H1897 H 0.17195 0.0239 0.79686 0.0
H1898 H 0.18025 0.09215 0.88224 0.0
H1899 H 0.18649 0.06555 0.85346 0.0
C1900 C 0.80906 0.41229 1.00737 0.0
C1901 C 0.83846 0.4187 1.00578 0.0
C1902 C 0.795 0.41229 1.02455 0.0
C1903 C 0.80732 0.4094 1.07605 0.0
H1904 H 0.72683 0.42812 1.07741 0.0
C1905 C 0.73747 0.38724 0.14211 0.0
C1906 C 0.71362 0.40471 0.14593 0.0
C1907 C 0.75323 0.39018 0.12551 0.0
C1908 C 0.74936 0.42309 1.07756 0.0
H1909 H 0.87569 0.43081 1.02169 0.0
H1910 H 0.85118 0.43072 1.05186 0.0
H1911 H 0.75322 0.43283 1.04869 0.0
H1912 H 0.68831 0.4394 0.13481 0.0
H1913 H 0.71558 0.44482 0.10636 0.0
H1914 H 0.80362 0.40067 0.10514 0.0
C1915 C 0.83904 0.42526 1.03961 0.0
C1916 C 0.7646 0.42537 1.06078 0.0
C1917 C 0.85322 0.42541 1.02223 0.0
C1918 C 0.70624 0.42527 0.1325 0.0
C1919 C 0.72199 0.42826 0.11594 0.0
C1920 C 0.79209 0.40734 1.09292 0.0
C1921 C 0.80956 0.41874 1.04109 0.0
C1922 C 0.79383 0.41816 1.05956 0.0
C1923 C 0.74587 0.41079 0.11203 0.0
C1924 C 0.76266 0.41384 1.09402 0.0
H1925 H 0.79647 0.40737 0.9952 0.0
H1926 H 0.77258 0.40667 1.02476 0.0
H1927 H 0.82963 0.40346 1.07593 0.0
H1928 H 0.74433 0.37142 0.15209 0.0
H1929 H 0.77109 0.37594 0.12324 0.0
C1930 C 0.37982 0.99304 0.39269 0.0
C1931 C 0.36534 0.96695 0.3958 0.0
C1932 C 0.37663 1.0083 0.37596 0.0
C1933 C 0.34945 1.00013 0.32667 0.0
H1934 H 0.35965 0.08251 0.32562 0.0
C1935 C 0.36131 0.06204 0.25706 0.0
C1936 C 0.3507 0.09016 0.25535 0.0
C1937 C 0.36097 0.04756 0.27412 0.0
C1938 C 0.35639 0.05954 0.32558 0.0
H1939 H 0.33533 0.93723 0.38336 0.0
H1940 H 0.32931 0.96374 0.35467 0.0
H1941 H 0.36256 0.05702 0.35497 0.0
H1942 H 0.33068 0.12463 0.27062 0.0
H1943 H 0.33061 0.09968 0.30058 0.0
H1944 H 0.34248 1.00278 0.29736 0.0
C1945 C 0.34393 0.97224 0.36489 0.0
C1946 C 0.35853 0.04467 0.34254 0.0
C1947 C 0.3473 0.95689 0.38156 0.0
C1948 C 0.33932 0.10317 0.27136 0.0
C1949 C 0.33941 0.08879 0.28862 0.0
C1950 C 0.3472 0.015 0.30976 0.0
C1951 C 0.3586 0.99827 0.36164 0.0
C1952 C 0.35539 0.01455 0.34346 0.0
C1953 C 0.35026 0.06064 0.29034 0.0
C1954 C 0.35097 0.04499 0.30878 0.0
H1955 H 0.39372 1.00184 0.40325 0.0
H1956 H 0.38874 0.02788 0.37423 0.0
H1957 H 0.34709 0.97707 0.32638 0.0
H1958 H 0.36971 0.05092 0.24504 0.0
H1959 H 0.36973 0.02614 0.27461 0.0
C1960 C 0.34893 0.43137 0.68851 0.0
C1961 C 0.33767 0.41654 0.70389 0.0
C1962 C 0.33459 0.43121 0.6712 0.0
C1963 C 0.27602 0.39094 0.64548 0.0
H1964 H 0.28121 0.45357 0.61058 0.0
C1965 C 0.22723 0.38071 0.57148 0.0
C1966 C 0.21453 0.40487 0.56332 0.0
C1967 C 0.24252 0.38299 0.58825 0.0
C1968 C 0.27923 0.4359 0.62019 0.0
H1969 H 0.3014 0.39082 0.71276 0.0
H1970 H 0.27676 0.39128 0.6836 0.0
H1971 H 0.30659 0.45656 0.6401 0.0
H1972 H 0.2093 0.45079 0.56635 0.0
H1973 H 0.2359 0.45479 0.59535 0.0
H1974 H 0.24799 0.37069 0.62603 0.0
C1975 C 0.29713 0.40217 0.68433 0.0
C1976 C 0.29424 0.43747 0.63716 0.0
C1977 C 0.31143 0.40211 0.70138 0.0
C1978 C 0.2182 0.43151 0.57233 0.0
C1979 C 0.23387 0.43388 0.58895 0.0
C1980 C 0.26098 0.38947 0.62866 0.0
C1981 C 0.30845 0.41634 0.66873 0.0
C1982 C 0.29291 0.41499 0.65022 0.0
C1983 C 0.24617 0.40961 0.59736 0.0
C1984 C 0.26231 0.41179 0.61558 0.0
H1985 H 0.36869 0.44326 0.68985 0.0
H1986 H 0.34429 0.4425 0.65972 0.0
H1987 H 0.27451 0.37275 0.65469 0.0
H1988 H 0.2252 0.3599 0.56494 0.0
H1989 H 0.2519 0.36375 0.59391 0.0
C1990 C 0.84388 0.10535 0.43656 0.0
C1991 C 0.85066 0.09069 0.45301 0.0
C1992 C 0.84407 0.09096 0.41918 0.0
C1993 C 0.84592 0.01568 0.39819 0.0
H1994 H 0.86761 0.05561 0.35342 0.0
C1995 C 0.84967 0.95495 0.3271 0.0
C1996 C 0.86823 0.96436 0.31293 0.0
C1997 C 0.84588 0.97087 0.34358 0.0
C1998 C 0.86189 0.04375 0.36574 0.0
H1999 H 0.86202 0.04856 0.46356 0.0
H2000 H 0.86301 0.02457 0.43416 0.0
H2001 H 0.86427 0.08181 0.3825 0.0
H2002 H 0.89707 0.99878 0.30543 0.0
H2003 H 0.89162 0.02567 0.33416 0.0
H2004 H 0.84498 0.97741 0.38187 0.0
C2005 C 0.85719 0.04698 0.43428 0.0
C2006 C 0.85943 0.05913 0.38257 0.0
C2007 C 0.85704 0.06118 0.45142 0.0
C2008 C 0.88284 0.9904 0.31596 0.0
C2009 C 0.87932 1.0062 0.33254 0.0
C2010 C 0.84877 1.00026 0.38147 0.0
C2011 C 0.85076 0.06139 0.4177 0.0
C2012 C 0.85168 0.0454 0.39924 0.0
C2013 C 0.8607 0.99687 0.34679 0.0
C2014 C 0.85701 0.01382 0.3648 0.0
H2015 H 0.83857 0.12789 0.43708 0.0
H2016 H 0.83862 0.10307 0.40693 0.0
H2017 H 0.83917 1.00398 0.41036 0.0
H2018 H 0.83751 0.93538 0.32538 0.0
H2019 H 0.83077 0.96279 0.35365 0.0
C2020 C 0.17975 0.58842 0.18952 0.0
C2021 C 0.18819 0.60667 0.20413 0.0
C2022 C 0.19404 0.58889 0.17223 0.0
C2023 C 0.24393 0.63514 0.14383 0.0
H2024 H 0.25311 0.56693 0.11377 0.0
C2025 C 0.29165 0.64178 1.06931 0.0
C2026 C 0.30986 0.61979 1.06311 0.0
C2027 C 0.27642 0.63932 1.08611 0.0
C2028 C 0.25099 0.58623 0.122 0.0
H2029 H 0.21922 0.6392 0.21174 0.0
H2030 H 0.24384 0.63984 0.18222 0.0
H2031 H 0.22811 0.56398 0.14349 0.0
H2032 H 0.32516 0.57725 1.0698 0.0
H2033 H 0.29869 0.5729 1.09887 0.0
H2034 H 0.26736 0.65727 0.12273 0.0
C2035 C 0.22573 0.62558 0.18373 0.0
C2036 C 0.23622 0.58459 0.13907 0.0
C2037 C 0.21153 0.62512 0.20089 0.0
C2038 C 0.31182 0.59494 1.07415 0.0
C2039 C 0.29627 0.5923 1.09084 0.0
C2040 C 0.25864 0.63675 0.12685 0.0
C2041 C 0.21724 0.60767 0.16896 0.0
C2042 C 0.2325 0.60905 0.15038 0.0
C2043 C 0.27845 0.61457 1.09726 0.0
C2044 C 0.2625 0.6124 0.11554 0.0
H2045 H 0.16229 0.57348 0.19148 0.0
H2046 H 0.1866 0.57472 0.16137 0.0
H2047 H 0.24135 0.65468 0.15174 0.0
H2048 H 0.28922 0.6611 1.0612 0.0
H2049 H 0.26267 0.65683 1.0902 0.0
C2050 C 0.64832 0.95134 0.94855 0.0
C2051 C 0.67163 0.93408 0.95368 0.0
C2052 C 0.64798 0.96622 0.93164 0.0
C2053 C 0.69439 0.99091 0.89161 0.0
H2054 H 0.62074 1.00352 0.86881 0.0
C2055 C 0.6799 0.0652 0.82639 0.0
C2056 C 0.65823 0.05854 0.8135 0.0
C2057 C 0.6828 0.04971 0.84308 0.0
C2058 C 0.64165 1.00005 0.87471 0.0
H2059 H 0.71345 0.91995 0.94467 0.0
H2060 H 0.71255 0.94514 0.91492 0.0
H2061 H 0.62366 0.97682 0.8974 0.0
H2062 H 0.62308 0.02944 0.80829 0.0
H2063 H 0.62793 1.00272 0.83705 0.0
H2064 H 0.71235 0.01345 0.86837 0.0
C2065 C 0.69443 0.94738 0.92413 0.0
C2066 C 0.64332 0.98497 0.89153 0.0
C2067 C 0.69482 0.93251 0.9412 0.0
C2068 C 0.63981 0.03561 0.81784 0.0
C2069 C 0.64256 0.02027 0.83455 0.0
C2070 C 0.69273 1.00594 0.87465 0.0
C2071 C 0.67086 0.96445 0.91893 0.0
C2072 C 0.66965 0.98018 0.90047 0.0
C2073 C 0.664 0.02705 0.8476 0.0
C2074 C 0.66626 1.01085 0.86583 0.0
H2075 H 0.63023 0.95376 0.95777 0.0
H2076 H 0.62971 0.9796 0.92874 0.0
H2077 H 0.71516 0.98812 0.89789 0.0
H2078 H 0.69495 0.08227 0.8235 0.0
H2079 H 0.69958 0.05592 0.85257 0.0
loop_
_geom_bond_atom_site_label_1
_geom_bond_atom_site_label_2
_geom_bond_distance
_geom_bond_site_symmetry_2
_ccdc_geom_bond_type
Tb0 C9 2.764 . S
Tb0 O10 2.325 . S
Tb0 O13 2.303 . S
Tb0 O17 2.322 . S
Tb0 O18 2.349 . S
Tb0 O21 2.415 . S
Tb0 O22 2.399 . S
Tb1 O11 2.322 . S
Tb1 O12 2.349 . S
Tb1 O14 2.415 . S
Tb1 O15 2.399 . S
Tb1 O16 2.325 . S
Tb1 O19 2.303 . S
Tb1 C30 2.764 . S
C2 O18 1.261 . S
C2 O19 1.257 . S
C3 C6 1.358 . S
C3 C7 1.332 . S
C3 C9 1.504 . S
C4 C5 1.373 . S
C4 C8 1.308 . S
C5 C4 1.373 . S
C5 C6 1.429 . S
C5 H32 0.932 1_545 S
C6 C3 1.358 . S
C6 C5 1.429 . S
C6 H33 0.930 . S
C7 C3 1.332 . S
C7 C8 1.394 . S
C7 H34 0.932 . S
C8 C4 1.308 . S
C8 C7 1.394 . S
C8 H35 0.929 . S
C9 Tb0 2.764 . S
C9 C3 1.504 . S
C9 O21 1.239 . S
C9 O22 1.263 . S
O10 Tb0 2.325 . S
O10 C20 1.236 . S
O11 Tb1 2.322 . S
O11 C20 1.257 . S
O12 Tb1 2.349 . S
O12 C23 1.261 . S
O13 Tb0 2.303 . S
O13 C23 1.257 . S
O14 Tb1 2.415 . S
O14 C30 1.239 . S
O15 Tb1 2.399 . S
O15 C30 1.263 . S
O16 Tb1 2.325 . S
O16 C31 1.236 . S
O17 Tb0 2.322 . S
O17 C31 1.257 . S
O18 Tb0 2.349 . S
O18 C2 1.261 . S
O19 Tb1 2.303 . S
O19 C2 1.257 . S
C20 O10 1.236 . S
C20 O11 1.257 . S
O21 Tb0 2.415 . S
O21 C9 1.239 . S
O22 Tb0 2.399 . S
O22 C9 1.263 . S
C23 O12 1.261 . S
C23 O13 1.257 . S
C24 C27 1.358 . S
C24 C28 1.332 . S
C24 C30 1.504 . S
C25 C26 1.373 . S
C25 C29 1.308 . S
C26 C25 1.373 . S
C26 C27 1.429 . S
C26 H36 0.932 . S
C27 C24 1.358 . S
C27 C26 1.429 . S
C27 H37 0.930 . S
C28 C24 1.332 . S
C28 C29 1.394 . S
C28 H38 0.932 . S
C29 C25 1.308 . S
C29 C28 1.394 . S
C29 H39 0.929 . S
C30 Tb1 2.764 . S
C30 O14 1.239 . S
C30 O15 1.263 . S
C30 C24 1.504 . S
C31 O16 1.236 . S
C31 O17 1.257 . S
H32 C5 0.932 1_565 S
H33 C6 0.930 . S
H34 C7 0.932 . S
H35 C8 0.929 . S
H36 C26 0.932 . S
H37 C27 0.930 . S
H38 C28 0.932 . S
H39 C29 0.929 . S
Tb40 C49 2.764 . S
Tb40 O50 2.325 . S
Tb40 O53 2.303 . S
Tb40 O57 2.322 . S
Tb40 O58 2.349 . S
Tb40 O61 2.415 . S
Tb40 O62 2.399 . S
Tb41 O51 2.322 . S
Tb41 O52 2.349 . S
Tb41 O54 2.415 . S
Tb41 O55 2.399 . S
Tb41 O56 2.325 . S
Tb41 O59 2.303 . S
Tb41 C70 2.764 . S
C42 O58 1.261 . S
C42 O59 1.257 . S
C43 C46 1.358 . S
C43 C47 1.332 . S
C43 C49 1.504 . S
C44 C45 1.373 . S
C44 C48 1.308 . S
C45 C44 1.373 . S
C45 C46 1.429 . S
C45 H72 0.932 . S
C46 C43 1.358 . S
C46 C45 1.429 . S
C46 H73 0.930 . S
C47 C43 1.332 . S
C47 C48 1.394 . S
C47 H74 0.932 . S
C48 C44 1.308 . S
C48 C47 1.394 . S
C48 H75 0.929 . S
C49 Tb40 2.764 . S
C49 C43 1.504 . S
C49 O61 1.239 . S
C49 O62 1.263 . S
O50 Tb40 2.325 . S
O50 C60 1.236 . S
O51 Tb41 2.322 . S
O51 C60 1.257 . S
O52 Tb41 2.349 . S
O52 C63 1.261 . S
O53 Tb40 2.303 . S
O53 C63 1.257 . S
O54 Tb41 2.415 . S
O54 C70 1.239 . S
O55 Tb41 2.399 . S
O55 C70 1.263 . S
O56 Tb41 2.325 . S
O56 C71 1.236 . S
O57 Tb40 2.322 . S
O57 C71 1.257 . S
O58 Tb40 2.349 . S
O58 C42 1.261 . S
O59 Tb41 2.303 . S
O59 C42 1.257 . S
C60 O50 1.236 . S
C60 O51 1.257 . S
O61 Tb40 2.415 . S
O61 C49 1.239 . S
O62 Tb40 2.399 . S
O62 C49 1.263 . S
C63 O52 1.261 . S
C63 O53 1.257 . S
C64 C67 1.358 . S
C64 C68 1.332 . S
C64 C70 1.504 . S
C65 C66 1.373 . S
C65 C69 1.308 . S
C66 C65 1.373 . S
C66 C67 1.429 . S
C66 H76 0.932 . S
C67 C64 1.358 . S
C67 C66 1.429 . S
C67 H77 0.930 . S
C68 C64 1.332 . S
C68 C69 1.394 . S
C68 H78 0.932 . S
C69 C65 1.308 . S
C69 C68 1.394 . S
C69 H79 0.929 . S
C70 Tb41 2.764 . S
C70 O54 1.239 . S
C70 O55 1.263 . S
C70 C64 1.504 . S
C71 O56 1.236 . S
C71 O57 1.257 . S
H72 C45 0.932 . S
H73 C46 0.930 . S
H74 C47 0.932 . S
H75 C48 0.929 . S
H76 C66 0.932 . S
H77 C67 0.930 . S
H78 C68 0.932 . S
H79 C69 0.929 . S
Tb80 C89 2.764 . S
Tb80 O90 2.325 . S
Tb80 O93 2.303 . S
Tb80 O97 2.322 . S
Tb80 O98 2.349 . S
Tb80 O101 2.415 . S
Tb80 O102 2.399 . S
Tb81 O91 2.322 . S
Tb81 O92 2.349 . S
Tb81 O94 2.415 . S
Tb81 O95 2.399 . S
Tb81 O96 2.325 . S
Tb81 O99 2.303 . S
Tb81 C110 2.764 . S
C82 O98 1.261 . S
C82 O99 1.257 . S
C83 C86 1.358 . S
C83 C87 1.332 . S
C83 C89 1.504 . S
C84 C85 1.373 . S
C84 C88 1.308 . S
C85 C84 1.373 . S
C85 C86 1.429 . S
C85 H112 0.932 1_565 S
C86 C83 1.358 . S
C86 C85 1.429 . S
C86 H113 0.930 . S
C87 C83 1.332 . S
C87 C88 1.394 . S
C87 H114 0.932 . S
C88 C84 1.308 . S
C88 C87 1.394 . S
C88 H115 0.929 . S
C89 Tb80 2.764 . S
C89 C83 1.504 . S
C89 O101 1.239 . S
C89 O102 1.263 . S
O90 Tb80 2.325 . S
O90 C100 1.236 . S
O91 Tb81 2.322 . S
O91 C100 1.257 . S
O92 Tb81 2.349 . S
O92 C103 1.261 . S
O93 Tb80 2.303 . S
O93 C103 1.257 . S
O94 Tb81 2.415 . S
O94 C110 1.239 . S
O95 Tb81 2.399 . S
O95 C110 1.263 . S
O96 Tb81 2.325 . S
O96 C111 1.236 . S
O97 Tb80 2.322 . S
O97 C111 1.257 . S
O98 Tb80 2.349 . S
O98 C82 1.261 . S
O99 Tb81 2.303 . S
O99 C82 1.257 . S
C100 O90 1.236 . S
C100 O91 1.257 . S
O101 Tb80 2.415 . S
O101 C89 1.239 . S
O102 Tb80 2.399 . S
O102 C89 1.263 . S
C103 O92 1.261 . S
C103 O93 1.257 . S
C104 C107 1.358 . S
C104 C108 1.332 . S
C104 C110 1.504 . S
C105 C106 1.373 . S
C105 C109 1.308 . S
C106 C105 1.373 . S
C106 C107 1.429 . S
C106 H116 0.932 . S
C107 C104 1.358 . S
C107 C106 1.429 . S
C107 H117 0.930 . S
C108 C104 1.332 . S
C108 C109 1.394 . S
C108 H118 0.932 . S
C109 C105 1.308 . S
C109 C108 1.394 . S
C109 H119 0.929 . S
C110 Tb81 2.764 . S
C110 O94 1.239 . S
C110 O95 1.263 . S
C110 C104 1.504 . S
C111 O96 1.236 . S
C111 O97 1.257 . S
H112 C85 0.932 1_545 S
H113 C86 0.930 . S
H114 C87 0.932 . S
H115 C88 0.929 . S
H116 C106 0.932 . S
H117 C107 0.930 . S
H118 C108 0.932 . S
H119 C109 0.929 . S
Tb120 C129 2.764 . S
Tb120 O130 2.325 . S
Tb120 O133 2.303 . S
Tb120 O137 2.322 . S
Tb120 O138 2.349 . S
Tb120 O141 2.415 . S
Tb120 O142 2.399 . S
Tb121 O131 2.322 . S
Tb121 O132 2.349 . S
Tb121 O134 2.415 . S
Tb121 O135 2.399 . S
Tb121 O136 2.325 . S
Tb121 O139 2.303 . S
Tb121 C150 2.764 . S
C122 O138 1.261 . S
C122 O139 1.257 . S
C123 C126 1.358 . S
C123 C127 1.332 . S
C123 C129 1.504 . S
C124 C125 1.373 . S
C124 C128 1.308 . S
C125 C124 1.373 . S
C125 C126 1.429 . S
C125 H152 0.932 . S
C126 C123 1.358 . S
C126 C125 1.429 . S
C126 H153 0.930 . S
C127 C123 1.332 . S
C127 C128 1.394 . S
C127 H154 0.932 . S
C128 C124 1.308 . S
C128 C127 1.394 . S
C128 H155 0.929 . S
C129 Tb120 2.764 . S
C129 C123 1.504 . S
C129 O141 1.239 . S
C129 O142 1.263 . S
O130 Tb120 2.325 . S
O130 C140 1.236 . S
O131 Tb121 2.322 . S
O131 C140 1.257 . S
O132 Tb121 2.349 . S
O132 C143 1.261 . S
O133 Tb120 2.303 . S
O133 C143 1.257 . S
O134 Tb121 2.415 . S
O134 C150 1.239 . S
O135 Tb121 2.399 . S
O135 C150 1.263 . S
O136 Tb121 2.325 . S
O136 C151 1.236 . S
O137 Tb120 2.322 . S
O137 C151 1.257 . S
O138 Tb120 2.349 . S
O138 C122 1.261 . S
O139 Tb121 2.303 . S
O139 C122 1.257 . S
C140 O130 1.236 . S
C140 O131 1.257 . S
O141 Tb120 2.415 . S
O141 C129 1.239 . S
O142 Tb120 2.399 . S
O142 C129 1.263 . S
C143 O132 1.261 . S
C143 O133 1.257 . S
C144 C147 1.358 1_655 S
C144 C148 1.332 . S
C144 C150 1.504 . S
C145 C146 1.373 . S
C145 C149 1.308 1_455 S
C146 C145 1.373 . S
C146 C147 1.429 . S
C146 H156 0.932 . S
C147 C144 1.358 1_455 S
C147 C146 1.429 . S
C147 H157 0.930 . S
C148 C144 1.332 . S
C148 C149 1.394 . S
C148 H158 0.932 . S
C149 C145 1.308 1_655 S
C149 C148 1.394 . S
C149 H159 0.929 . S
C150 Tb121 2.764 . S
C150 O134 1.239 . S
C150 O135 1.263 . S
C150 C144 1.504 . S
C151 O136 1.236 . S
C151 O137 1.257 . S
H152 C125 0.932 . S
H153 C126 0.930 . S
H154 C127 0.932 . S
H155 C128 0.929 . S
H156 C146 0.932 . S
H157 C147 0.930 . S
H158 C148 0.932 . S
H159 C149 0.929 . S
Tb160 C169 2.764 . S
Tb160 O170 2.325 . S
Tb160 O173 2.303 . S
Tb160 O177 2.322 . S
Tb160 O178 2.349 . S
Tb160 O181 2.415 . S
Tb160 O182 2.399 . S
Tb161 O171 2.322 . S
Tb161 O172 2.349 . S
Tb161 O174 2.415 . S
Tb161 O175 2.399 . S
Tb161 O176 2.325 . S
Tb161 O179 2.303 . S
Tb161 C190 2.764 . S
C162 O178 1.261 . S
C162 O179 1.257 . S
C163 C166 1.358 . S
C163 C167 1.332 . S
C163 C169 1.504 . S
C164 C165 1.373 . S
C164 C168 1.308 . S
C165 C164 1.373 . S
C165 C166 1.429 . S
C165 H192 0.932 . S
C166 C163 1.358 . S
C166 C165 1.429 . S
C166 H193 0.930 . S
C167 C163 1.332 . S
C167 C168 1.394 . S
C167 H194 0.932 . S
C168 C164 1.308 . S
C168 C167 1.394 . S
C168 H195 0.929 . S
C169 Tb160 2.764 . S
C169 C163 1.504 . S
C169 O181 1.239 . S
C169 O182 1.263 . S
O170 Tb160 2.325 . S
O170 C180 1.236 . S
O171 Tb161 2.322 . S
O171 C180 1.257 . S
O172 Tb161 2.349 . S
O172 C183 1.261 . S
O173 Tb160 2.303 . S
O173 C183 1.257 . S
O174 Tb161 2.415 . S
O174 C190 1.239 . S
O175 Tb161 2.399 . S
O175 C190 1.263 . S
O176 Tb161 2.325 . S
O176 C191 1.236 . S
O177 Tb160 2.322 . S
O177 C191 1.257 . S
O178 Tb160 2.349 . S
O178 C162 1.261 . S
O179 Tb161 2.303 . S
O179 C162 1.257 . S
C180 O170 1.236 . S
C180 O171 1.257 . S
O181 Tb160 2.415 . S
O181 C169 1.239 . S
O182 Tb160 2.399 . S
O182 C169 1.263 . S
C183 O172 1.261 . S
C183 O173 1.257 . S
C184 C187 1.358 . S
C184 C188 1.332 . S
C184 C190 1.504 . S
C185 C186 1.373 . S
C185 C189 1.308 . S
C186 C185 1.373 . S
C186 C187 1.429 . S
C186 H196 0.932 1_565 S
C187 C184 1.358 . S
C187 C186 1.429 . S
C187 H197 0.930 . S
C188 C184 1.332 . S
C188 C189 1.394 . S
C188 H198 0.932 . S
C189 C185 1.308 . S
C189 C188 1.394 . S
C189 H199 0.929 . S
C190 Tb161 2.764 . S
C190 O174 1.239 . S
C190 O175 1.263 . S
C190 C184 1.504 . S
C191 O176 1.236 . S
C191 O177 1.257 . S
H192 C165 0.932 . S
H193 C166 0.930 . S
H194 C167 0.932 . S
H195 C168 0.929 . S
H196 C186 0.932 1_545 S
H197 C187 0.930 . S
H198 C188 0.932 . S
H199 C189 0.929 . S
Tb200 C209 2.764 . S
Tb200 O210 2.325 . S
Tb200 O213 2.303 . S
Tb200 O217 2.322 . S
Tb200 O218 2.349 . S
Tb200 O221 2.415 . S
Tb200 O222 2.399 . S
Tb201 O211 2.322 . S
Tb201 O212 2.349 . S
Tb201 O214 2.415 . S
Tb201 O215 2.399 . S
Tb201 O216 2.325 . S
Tb201 O219 2.303 . S
Tb201 C230 2.764 . S
C202 O218 1.261 . S
C202 O219 1.257 . S
C203 C206 1.358 . S
C203 C207 1.332 . S
C203 C209 1.504 . S
C204 C205 1.373 . S
C204 C208 1.308 . S
C205 C204 1.373 . S
C205 C206 1.429 . S
C205 H232 0.932 . S
C206 C203 1.358 . S
C206 C205 1.429 . S
C206 H233 0.930 . S
C207 C203 1.332 . S
C207 C208 1.394 . S
C207 H234 0.932 . S
C208 C204 1.308 . S
C208 C207 1.394 . S
C208 H235 0.929 . S
C209 Tb200 2.764 . S
C209 C203 1.504 . S
C209 O221 1.239 . S
C209 O222 1.263 . S
O210 Tb200 2.325 . S
O210 C220 1.236 . S
O211 Tb201 2.322 . S
O211 C220 1.257 . S
O212 Tb201 2.349 . S
O212 C223 1.261 . S
O213 Tb200 2.303 . S
O213 C223 1.257 . S
O214 Tb201 2.415 . S
O214 C230 1.239 . S
O215 Tb201 2.399 . S
O215 C230 1.263 . S
O216 Tb201 2.325 . S
O216 C231 1.236 . S
O217 Tb200 2.322 . S
O217 C231 1.257 . S
O218 Tb200 2.349 . S
O218 C202 1.261 . S
O219 Tb201 2.303 . S
O219 C202 1.257 . S
C220 O210 1.236 . S
C220 O211 1.257 . S
O221 Tb200 2.415 . S
O221 C209 1.239 . S
O222 Tb200 2.399 . S
O222 C209 1.263 . S
C223 O212 1.261 . S
C223 O213 1.257 . S
C224 C227 1.358 . S
C224 C228 1.332 . S
C224 C230 1.504 . S
C225 C226 1.373 . S
C225 C229 1.308 . S
C226 C225 1.373 . S
C226 C227 1.429 . S
C226 H236 0.932 . S
C227 C224 1.358 . S
C227 C226 1.429 . S
C227 H237 0.930 . S
C228 C224 1.332 . S
C228 C229 1.394 . S
C228 H238 0.932 . S
C229 C225 1.308 . S
C229 C228 1.394 . S
C229 H239 0.929 . S
C230 Tb201 2.764 . S
C230 O214 1.239 . S
C230 O215 1.263 . S
C230 C224 1.504 . S
C231 O216 1.236 . S
C231 O217 1.257 . S
H232 C205 0.932 . S
H233 C206 0.930 . S
H234 C207 0.932 . S
H235 C208 0.929 . S
H236 C226 0.932 . S
H237 C227 0.930 . S
H238 C228 0.932 . S
H239 C229 0.929 . S
Tb240 C249 2.764 . S
Tb240 O250 2.325 . S
Tb240 O253 2.303 . S
Tb240 O257 2.322 . S
Tb240 O258 2.349 . S
Tb240 O261 2.415 . S
Tb240 O262 2.399 . S
Tb241 O251 2.322 . S
Tb241 O252 2.349 . S
Tb241 O254 2.415 . S
Tb241 O255 2.399 . S
Tb241 O256 2.325 . S
Tb241 O259 2.303 . S
Tb241 C270 2.764 . S
C242 O258 1.261 . S
C242 O259 1.257 . S
C243 C246 1.358 . S
C243 C247 1.332 . S
C243 C249 1.504 . S
C244 C245 1.373 . S
C244 C248 1.308 . S
C245 C244 1.373 . S
C245 C246 1.429 . S
C245 H272 0.932 . S
C246 C243 1.358 . S
C246 C245 1.429 . S
C246 H273 0.930 . S
C247 C243 1.332 . S
C247 C248 1.394 . S
C247 H274 0.932 . S
C248 C244 1.308 . S
C248 C247 1.394 . S
C248 H275 0.929 . S
C249 Tb240 2.764 . S
C249 C243 1.504 . S
C249 O261 1.239 . S
C249 O262 1.263 . S
O250 Tb240 2.325 . S
O250 C260 1.236 . S
O251 Tb241 2.322 . S
O251 C260 1.257 . S
O252 Tb241 2.349 . S
O252 C263 1.261 . S
O253 Tb240 2.303 . S
O253 C263 1.257 . S
O254 Tb241 2.415 . S
O254 C270 1.239 . S
O255 Tb241 2.399 . S
O255 C270 1.263 . S
O256 Tb241 2.325 . S
O256 C271 1.236 . S
O257 Tb240 2.322 . S
O257 C271 1.257 . S
O258 Tb240 2.349 . S
O258 C242 1.261 . S
O259 Tb241 2.303 . S
O259 C242 1.257 . S
C260 O250 1.236 . S
C260 O251 1.257 . S
O261 Tb240 2.415 . S
O261 C249 1.239 . S
O262 Tb240 2.399 . S
O262 C249 1.263 . S
C263 O252 1.261 . S
C263 O253 1.257 . S
C264 C267 1.358 . S
C264 C268 1.332 . S
C264 C270 1.504 . S
C265 C266 1.373 . S
C265 C269 1.308 . S
C266 C265 1.373 . S
C266 C267 1.429 . S
C266 H276 0.932 1_545 S
C267 C264 1.358 . S
C267 C266 1.429 . S
C267 H277 0.930 . S
C268 C264 1.332 . S
C268 C269 1.394 . S
C268 H278 0.932 . S
C269 C265 1.308 . S
C269 C268 1.394 . S
C269 H279 0.929 . S
C270 Tb241 2.764 . S
C270 O254 1.239 . S
C270 O255 1.263 . S
C270 C264 1.504 . S
C271 O256 1.236 . S
C271 O257 1.257 . S
H272 C245 0.932 . S
H273 C246 0.930 . S
H274 C247 0.932 . S
H275 C248 0.929 . S
H276 C266 0.932 1_565 S
H277 C267 0.930 . S
H278 C268 0.932 . S
H279 C269 0.929 . S
Tb280 C289 2.764 . S
Tb280 O290 2.325 . S
Tb280 O293 2.303 . S
Tb280 O297 2.322 . S
Tb280 O298 2.349 . S
Tb280 O301 2.415 . S
Tb280 O302 2.399 . S
Tb281 O291 2.322 . S
Tb281 O292 2.349 . S
Tb281 O294 2.415 . S
Tb281 O295 2.399 . S
Tb281 O296 2.325 . S
Tb281 O299 2.303 . S
Tb281 C310 2.764 . S
C282 O298 1.261 . S
C282 O299 1.257 . S
C283 C286 1.358 1_455 S
C283 C287 1.332 . S
C283 C289 1.504 . S
C284 C285 1.373 . S
C284 C288 1.308 1_655 S
C285 C284 1.373 . S
C285 C286 1.429 . S
C285 H312 0.932 . S
C286 C283 1.358 1_655 S
C286 C285 1.429 . S
C286 H313 0.930 . S
C287 C283 1.332 . S
C287 C288 1.394 . S
C287 H314 0.932 . S
C288 C284 1.308 1_455 S
C288 C287 1.394 . S
C288 H315 0.929 . S
C289 Tb280 2.764 . S
C289 C283 1.504 . S
C289 O301 1.239 . S
C289 O302 1.263 . S
O290 Tb280 2.325 . S
O290 C300 1.236 . S
O291 Tb281 2.322 . S
O291 C300 1.257 . S
O292 Tb281 2.349 . S
O292 C303 1.261 . S
O293 Tb280 2.303 . S
O293 C303 1.257 . S
O294 Tb281 2.415 . S
O294 C310 1.239 . S
O295 Tb281 2.399 . S
O295 C310 1.263 . S
O296 Tb281 2.325 . S
O296 C311 1.236 . S
O297 Tb280 2.322 . S
O297 C311 1.257 . S
O298 Tb280 2.349 . S
O298 C282 1.261 . S
O299 Tb281 2.303 . S
O299 C282 1.257 . S
C300 O290 1.236 . S
C300 O291 1.257 . S
O301 Tb280 2.415 . S
O301 C289 1.239 . S
O302 Tb280 2.399 . S
O302 C289 1.263 . S
C303 O292 1.261 . S
C303 O293 1.257 . S
C304 C307 1.358 . S
C304 C308 1.332 . S
C304 C310 1.504 . S
C305 C306 1.373 . S
C305 C309 1.308 . S
C306 C305 1.373 . S
C306 C307 1.429 . S
C306 H316 0.932 . S
C307 C304 1.358 . S
C307 C306 1.429 . S
C307 H317 0.930 . S
C308 C304 1.332 . S
C308 C309 1.394 . S
C308 H318 0.932 . S
C309 C305 1.308 . S
C309 C308 1.394 . S
C309 H319 0.929 . S
C310 Tb281 2.764 . S
C310 O294 1.239 . S
C310 O295 1.263 . S
C310 C304 1.504 . S
C311 O296 1.236 . S
C311 O297 1.257 . S
H312 C285 0.932 . S
H313 C286 0.930 . S
H314 C287 0.932 . S
H315 C288 0.929 . S
H316 C306 0.932 . S
H317 C307 0.930 . S
H318 C308 0.932 . S
H319 C309 0.929 . S
Tb320 C329 2.764 . S
Tb320 O330 2.325 . S
Tb320 O333 2.303 . S
Tb320 O337 2.322 . S
Tb320 O338 2.349 . S
Tb320 O341 2.415 . S
Tb320 O342 2.399 . S
Tb321 O331 2.322 . S
Tb321 O332 2.349 . S
Tb321 O334 2.415 . S
Tb321 O335 2.399 . S
Tb321 O336 2.325 . S
Tb321 O339 2.303 . S
Tb321 C350 2.764 . S
C322 O338 1.261 . S
C322 O339 1.257 . S
C323 C326 1.358 . S
C323 C327 1.332 . S
C323 C329 1.504 . S
C324 C325 1.373 . S
C324 C328 1.308 . S
C325 C324 1.373 . S
C325 C326 1.429 . S
C325 H352 0.932 . S
C326 C323 1.358 . S
C326 C325 1.429 . S
C326 H353 0.930 . S
C327 C323 1.332 . S
C327 C328 1.394 . S
C327 H354 0.932 . S
C328 C324 1.308 . S
C328 C327 1.394 . S
C328 H355 0.929 . S
C329 Tb320 2.764 . S
C329 C323 1.504 . S
C329 O341 1.239 . S
C329 O342 1.263 . S
O330 Tb320 2.325 . S
O330 C340 1.236 . S
O331 Tb321 2.322 . S
O331 C340 1.257 . S
O332 Tb321 2.349 . S
O332 C343 1.261 . S
O333 Tb320 2.303 . S
O333 C343 1.257 . S
O334 Tb321 2.415 . S
O334 C350 1.239 . S
O335 Tb321 2.399 . S
O335 C350 1.263 . S
O336 Tb321 2.325 . S
O336 C351 1.236 . S
O337 Tb320 2.322 . S
O337 C351 1.257 . S
O338 Tb320 2.349 . S
O338 C322 1.261 . S
O339 Tb321 2.303 . S
O339 C322 1.257 . S
C340 O330 1.236 . S
C340 O331 1.257 . S
O341 Tb320 2.415 . S
O341 C329 1.239 . S
O342 Tb320 2.399 . S
O342 C329 1.263 . S
C343 O332 1.261 . S
C343 O333 1.257 . S
C344 C347 1.358 . S
C344 C348 1.332 . S
C344 C350 1.504 . S
C345 C346 1.373 . S
C345 C349 1.308 . S
C346 C345 1.373 . S
C346 C347 1.429 . S
C346 H356 0.932 . S
C347 C344 1.358 . S
C347 C346 1.429 . S
C347 H357 0.930 . S
C348 C344 1.332 . S
C348 C349 1.394 . S
C348 H358 0.932 . S
C349 C345 1.308 . S
C349 C348 1.394 . S
C349 H359 0.929 . S
C350 Tb321 2.764 . S
C350 O334 1.239 . S
C350 O335 1.263 . S
C350 C344 1.504 . S
C351 O336 1.236 . S
C351 O337 1.257 . S
H352 C325 0.932 . S
H353 C326 0.930 . S
H354 C327 0.932 . S
H355 C328 0.929 . S
H356 C346 0.932 . S
H357 C347 0.930 . S
H358 C348 0.932 . S
H359 C349 0.929 . S
Tb360 C369 2.764 . S
Tb360 O370 2.325 . S
Tb360 O373 2.303 . S
Tb360 O377 2.322 . S
Tb360 O378 2.349 . S
Tb360 O381 2.415 . S
Tb360 O382 2.399 . S
Tb361 O371 2.322 . S
Tb361 O372 2.349 . S
Tb361 O374 2.415 . S
Tb361 O375 2.399 . S
Tb361 O376 2.325 . S
Tb361 O379 2.303 . S
Tb361 C390 2.764 . S
C362 O378 1.261 . S
C362 O379 1.257 . S
C363 C366 1.358 . S
C363 C367 1.332 . S
C363 C369 1.504 . S
C364 C365 1.373 . S
C364 C368 1.308 . S
C365 C364 1.373 . S
C365 C366 1.429 . S
C365 H392 0.932 . S
C366 C363 1.358 . S
C366 C365 1.429 . S
C366 H393 0.930 . S
C367 C363 1.332 . S
C367 C368 1.394 . S
C367 H394 0.932 . S
C368 C364 1.308 . S
C368 C367 1.394 . S
C368 H395 0.929 . S
C369 Tb360 2.764 . S
C369 C363 1.504 . S
C369 O381 1.239 . S
C369 O382 1.263 . S
O370 Tb360 2.325 . S
O370 C380 1.236 . S
O371 Tb361 2.322 . S
O371 C380 1.257 . S
O372 Tb361 2.349 . S
O372 C383 1.261 . S
O373 Tb360 2.303 . S
O373 C383 1.257 . S
O374 Tb361 2.415 . S
O374 C390 1.239 . S
O375 Tb361 2.399 . S
O375 C390 1.263 . S
O376 Tb361 2.325 . S
O376 C391 1.236 . S
O377 Tb360 2.322 . S
O377 C391 1.257 . S
O378 Tb360 2.349 . S
O378 C362 1.261 . S
O379 Tb361 2.303 . S
O379 C362 1.257 . S
C380 O370 1.236 . S
C380 O371 1.257 . S
O381 Tb360 2.415 . S
O381 C369 1.239 . S
O382 Tb360 2.399 . S
O382 C369 1.263 . S
C383 O372 1.261 . S
C383 O373 1.257 . S
C384 C387 1.358 1_455 S
C384 C388 1.333 1_545 S
C384 C390 1.503 . S
C385 C386 1.373 . S
C385 C389 1.308 1_655 S
C386 C385 1.373 . S
C386 C387 1.429 1_565 S
C386 H396 0.932 . S
C387 C384 1.358 1_655 S
C387 C386 1.429 1_545 S
C387 H397 0.930 . S
C388 C384 1.333 1_565 S
C388 C389 1.394 . S
C388 H398 0.932 . S
C389 C385 1.308 1_455 S
C389 C388 1.394 . S
C389 H399 0.929 . S
C390 Tb361 2.764 . S
C390 O374 1.239 . S
C390 O375 1.263 . S
C390 C384 1.503 . S
C391 O376 1.236 . S
C391 O377 1.257 . S
H392 C365 0.932 . S
H393 C366 0.930 . S
H394 C367 0.932 . S
H395 C368 0.929 . S
H396 C386 0.932 . S
H397 C387 0.930 . S
H398 C388 0.932 . S
H399 C389 0.929 . S
Tb400 C409 2.764 . S
Tb400 O410 2.325 . S
Tb400 O413 2.303 . S
Tb400 O417 2.322 . S
Tb400 O418 2.349 . S
Tb400 O421 2.415 . S
Tb400 O422 2.399 . S
Tb401 O411 2.322 . S
Tb401 O412 2.349 . S
Tb401 O414 2.415 . S
Tb401 O415 2.399 . S
Tb401 O416 2.325 . S
Tb401 O419 2.303 . S
Tb401 C430 2.764 . S
C402 O418 1.261 . S
C402 O419 1.257 . S
C403 C406 1.358 . S
C403 C407 1.332 . S
C403 C409 1.504 . S
C404 C405 1.373 . S
C404 C408 1.308 . S
C405 C404 1.373 . S
C405 C406 1.429 . S
C405 H432 0.932 . S
C406 C403 1.358 . S
C406 C405 1.429 . S
C406 H433 0.930 . S
C407 C403 1.332 . S
C407 C408 1.394 . S
C407 H434 0.932 . S
C408 C404 1.308 . S
C408 C407 1.394 . S
C408 H435 0.929 . S
C409 Tb400 2.764 . S
C409 C403 1.504 . S
C409 O421 1.239 . S
C409 O422 1.263 . S
O410 Tb400 2.325 . S
O410 C420 1.236 . S
O411 Tb401 2.322 . S
O411 C420 1.257 . S
O412 Tb401 2.349 . S
O412 C423 1.261 . S
O413 Tb400 2.303 . S
O413 C423 1.257 . S
O414 Tb401 2.415 . S
O414 C430 1.239 . S
O415 Tb401 2.399 . S
O415 C430 1.263 . S
O416 Tb401 2.325 . S
O416 C431 1.236 . S
O417 Tb400 2.322 . S
O417 C431 1.257 . S
O418 Tb400 2.349 . S
O418 C402 1.261 . S
O419 Tb401 2.303 . S
O419 C402 1.257 . S
C420 O410 1.236 . S
C420 O411 1.257 . S
O421 Tb400 2.415 . S
O421 C409 1.239 . S
O422 Tb400 2.399 . S
O422 C409 1.263 . S
C423 O412 1.261 . S
C423 O413 1.257 . S
C424 C427 1.358 . S
C424 C428 1.332 . S
C424 C430 1.504 . S
C425 C426 1.373 . S
C425 C429 1.308 . S
C426 C425 1.373 . S
C426 C427 1.429 . S
C426 H436 0.932 . S
C427 C424 1.358 . S
C427 C426 1.429 . S
C427 H437 0.930 . S
C428 C424 1.332 . S
C428 C429 1.394 . S
C428 H438 0.932 . S
C429 C425 1.308 . S
C429 C428 1.394 . S
C429 H439 0.929 . S
C430 Tb401 2.764 . S
C430 O414 1.239 . S
C430 O415 1.263 . S
C430 C424 1.504 . S
C431 O416 1.236 . S
C431 O417 1.257 . S
H432 C405 0.932 . S
H433 C406 0.930 . S
H434 C407 0.932 . S
H435 C408 0.929 . S
H436 C426 0.932 . S
H437 C427 0.930 . S
H438 C428 0.932 . S
H439 C429 0.929 . S
Tb440 C449 2.764 . S
Tb440 O450 2.325 . S
Tb440 O453 2.303 . S
Tb440 O457 2.322 . S
Tb440 O458 2.349 . S
Tb440 O461 2.415 . S
Tb440 O462 2.399 . S
Tb441 O451 2.322 . S
Tb441 O452 2.349 . S
Tb441 O454 2.415 . S
Tb441 O455 2.399 . S
Tb441 O456 2.325 . S
Tb441 O459 2.303 . S
Tb441 C470 2.764 . S
C442 O458 1.261 . S
C442 O459 1.257 . S
C443 C446 1.358 . S
C443 C447 1.332 . S
C443 C449 1.504 . S
C444 C445 1.373 . S
C444 C448 1.308 . S
C445 C444 1.373 . S
C445 C446 1.429 . S
C445 H472 0.932 . S
C446 C443 1.358 . S
C446 C445 1.429 . S
C446 H473 0.930 . S
C447 C443 1.332 . S
C447 C448 1.394 . S
C447 H474 0.932 . S
C448 C444 1.308 . S
C448 C447 1.394 . S
C448 H475 0.929 . S
C449 Tb440 2.764 . S
C449 C443 1.504 . S
C449 O461 1.239 . S
C449 O462 1.263 . S
O450 Tb440 2.325 . S
O450 C460 1.236 . S
O451 Tb441 2.322 . S
O451 C460 1.257 . S
O452 Tb441 2.349 . S
O452 C463 1.261 . S
O453 Tb440 2.303 . S
O453 C463 1.257 . S
O454 Tb441 2.415 . S
O454 C470 1.239 . S
O455 Tb441 2.399 . S
O455 C470 1.263 . S
O456 Tb441 2.325 . S
O456 C471 1.236 . S
O457 Tb440 2.322 . S
O457 C471 1.257 . S
O458 Tb440 2.349 . S
O458 C442 1.261 . S
O459 Tb441 2.303 . S
O459 C442 1.257 . S
C460 O450 1.236 . S
C460 O451 1.257 . S
O461 Tb440 2.415 . S
O461 C449 1.239 . S
O462 Tb440 2.399 . S
O462 C449 1.263 . S
C463 O452 1.261 . S
C463 O453 1.257 . S
C464 C467 1.358 . S
C464 C468 1.333 1_565 S
C464 C470 1.503 . S
C465 C466 1.373 . S
C465 C469 1.308 . S
C466 C465 1.373 . S
C466 C467 1.429 1_545 S
C466 H476 0.932 . S
C467 C464 1.358 . S
C467 C466 1.429 1_565 S
C467 H477 0.930 . S
C468 C464 1.333 1_545 S
C468 C469 1.394 . S
C468 H478 0.932 . S
C469 C465 1.308 . S
C469 C468 1.394 . S
C469 H479 0.929 . S
C470 Tb441 2.764 . S
C470 O454 1.239 . S
C470 O455 1.263 . S
C470 C464 1.503 . S
C471 O456 1.236 . S
C471 O457 1.257 . S
H472 C445 0.932 . S
H473 C446 0.930 . S
H474 C447 0.932 . S
H475 C448 0.929 . S
H476 C466 0.932 . S
H477 C467 0.930 . S
H478 C468 0.932 . S
H479 C469 0.929 . S
Tb480 C489 2.764 . S
Tb480 O490 2.325 . S
Tb480 O493 2.303 . S
Tb480 O497 2.322 . S
Tb480 O498 2.349 . S
Tb480 O501 2.415 . S
Tb480 O502 2.399 . S
Tb481 O491 2.322 . S
Tb481 O492 2.349 . S
Tb481 O494 2.415 . S
Tb481 O495 2.399 . S
Tb481 O496 2.325 . S
Tb481 O499 2.303 . S
Tb481 C510 2.764 . S
C482 O498 1.261 . S
C482 O499 1.257 . S
C483 C486 1.358 . S
C483 C487 1.332 . S
C483 C489 1.504 . S
C484 C485 1.373 . S
C484 C488 1.308 . S
C485 C484 1.373 . S
C485 C486 1.429 . S
C485 H512 0.932 . S
C486 C483 1.358 . S
C486 C485 1.429 . S
C486 H513 0.930 . S
C487 C483 1.332 . S
C487 C488 1.394 . S
C487 H514 0.932 . S
C488 C484 1.308 . S
C488 C487 1.394 . S
C488 H515 0.929 . S
C489 Tb480 2.764 . S
C489 C483 1.504 . S
C489 O501 1.239 . S
C489 O502 1.263 . S
O490 Tb480 2.325 . S
O490 C500 1.236 . S
O491 Tb481 2.322 . S
O491 C500 1.257 . S
O492 Tb481 2.349 . S
O492 C503 1.261 . S
O493 Tb480 2.303 . S
O493 C503 1.257 . S
O494 Tb481 2.415 . S
O494 C510 1.239 . S
O495 Tb481 2.399 . S
O495 C510 1.263 . S
O496 Tb481 2.325 . S
O496 C511 1.236 . S
O497 Tb480 2.322 . S
O497 C511 1.257 . S
O498 Tb480 2.349 . S
O498 C482 1.261 . S
O499 Tb481 2.303 . S
O499 C482 1.257 . S
C500 O490 1.236 . S
C500 O491 1.257 . S
O501 Tb480 2.415 . S
O501 C489 1.239 . S
O502 Tb480 2.399 . S
O502 C489 1.263 . S
C503 O492 1.261 . S
C503 O493 1.257 . S
C504 C507 1.358 . S
C504 C508 1.332 . S
C504 C510 1.504 . S
C505 C506 1.373 . S
C505 C509 1.308 . S
C506 C505 1.373 . S
C506 C507 1.429 . S
C506 H516 0.932 . S
C507 C504 1.358 . S
C507 C506 1.429 . S
C507 H517 0.930 . S
C508 C504 1.332 . S
C508 C509 1.394 . S
C508 H518 0.932 . S
C509 C505 1.308 . S
C509 C508 1.394 . S
C509 H519 0.929 . S
C510 Tb481 2.764 . S
C510 O494 1.239 . S
C510 O495 1.263 . S
C510 C504 1.504 . S
C511 O496 1.236 . S
C511 O497 1.257 . S
H512 C485 0.932 . S
H513 C486 0.930 . S
H514 C487 0.932 . S
H515 C488 0.929 . S
H516 C506 0.932 . S
H517 C507 0.930 . S
H518 C508 0.932 . S
H519 C509 0.929 . S
Tb520 C529 2.764 . S
Tb520 O530 2.325 . S
Tb520 O533 2.303 . S
Tb520 O537 2.322 . S
Tb520 O538 2.349 . S
Tb520 O541 2.415 . S
Tb520 O542 2.399 . S
Tb521 O531 2.322 . S
Tb521 O532 2.349 . S
Tb521 O534 2.415 . S
Tb521 O535 2.399 . S
Tb521 O536 2.325 . S
Tb521 O539 2.303 . S
Tb521 C550 2.764 . S
C522 O538 1.261 . S
C522 O539 1.257 . S
C523 C526 1.358 1_655 S
C523 C527 1.333 1_565 S
C523 C529 1.503 . S
C524 C525 1.373 . S
C524 C528 1.308 1_455 S
C525 C524 1.373 . S
C525 C526 1.429 1_545 S
C525 H552 0.932 . S
C526 C523 1.358 1_455 S
C526 C525 1.429 1_565 S
C526 H553 0.930 . S
C527 C523 1.333 1_545 S
C527 C528 1.394 . S
C527 H554 0.932 . S
C528 C524 1.308 1_655 S
C528 C527 1.394 . S
C528 H555 0.929 . S
C529 Tb520 2.764 . S
C529 C523 1.503 . S
C529 O541 1.239 . S
C529 O542 1.263 . S
O530 Tb520 2.325 . S
O530 C540 1.236 . S
O531 Tb521 2.322 . S
O531 C540 1.257 . S
O532 Tb521 2.349 . S
O532 C543 1.261 . S
O533 Tb520 2.303 . S
O533 C543 1.257 . S
O534 Tb521 2.415 . S
O534 C550 1.239 . S
O535 Tb521 2.399 . S
O535 C550 1.263 . S
O536 Tb521 2.325 . S
O536 C551 1.236 . S
O537 Tb520 2.322 . S
O537 C551 1.257 . S
O538 Tb520 2.349 . S
O538 C522 1.261 . S
O539 Tb521 2.303 . S
O539 C522 1.257 . S
C540 O530 1.236 . S
C540 O531 1.257 . S
O541 Tb520 2.415 . S
O541 C529 1.239 . S
O542 Tb520 2.399 . S
O542 C529 1.263 . S
C543 O532 1.261 . S
C543 O533 1.257 . S
C544 C547 1.358 . S
C544 C548 1.332 . S
C544 C550 1.504 . S
C545 C546 1.373 . S
C545 C549 1.308 . S
C546 C545 1.373 . S
C546 C547 1.429 . S
C546 H556 0.932 . S
C547 C544 1.358 . S
C547 C546 1.429 . S
C547 H557 0.930 . S
C548 C544 1.332 . S
C548 C549 1.394 . S
C548 H558 0.932 . S
C549 C545 1.308 . S
C549 C548 1.394 . S
C549 H559 0.929 . S
C550 Tb521 2.764 . S
C550 O534 1.239 . S
C550 O535 1.263 . S
C550 C544 1.504 . S
C551 O536 1.236 . S
C551 O537 1.257 . S
H552 C525 0.932 . S
H553 C526 0.930 . S
H554 C527 0.932 . S
H555 C528 0.929 . S
H556 C546 0.932 . S
H557 C547 0.930 . S
H558 C548 0.932 . S
H559 C549 0.929 . S
Tb560 C569 2.764 . S
Tb560 O570 2.325 . S
Tb560 O573 2.303 . S
Tb560 O577 2.322 . S
Tb560 O578 2.349 . S
Tb560 O581 2.415 . S
Tb560 O582 2.399 . S
Tb561 O571 2.322 . S
Tb561 O572 2.349 . S
Tb561 O574 2.415 . S
Tb561 O575 2.399 . S
Tb561 O576 2.325 . S
Tb561 O579 2.303 . S
Tb561 C590 2.764 . S
C562 O578 1.261 . S
C562 O579 1.257 . S
C563 C566 1.358 . S
C563 C567 1.332 . S
C563 C569 1.504 . S
C564 C565 1.373 . S
C564 C568 1.308 . S
C565 C564 1.373 . S
C565 C566 1.429 . S
C565 H592 0.932 . S
C566 C563 1.358 . S
C566 C565 1.429 . S
C566 H593 0.930 . S
C567 C563 1.332 . S
C567 C568 1.394 . S
C567 H594 0.932 . S
C568 C564 1.308 . S
C568 C567 1.394 . S
C568 H595 0.929 . S
C569 Tb560 2.764 . S
C569 C563 1.504 . S
C569 O581 1.239 . S
C569 O582 1.263 . S
O570 Tb560 2.325 . S
O570 C580 1.236 . S
O571 Tb561 2.322 . S
O571 C580 1.257 . S
O572 Tb561 2.349 . S
O572 C583 1.261 . S
O573 Tb560 2.303 . S
O573 C583 1.257 . S
O574 Tb561 2.415 . S
O574 C590 1.239 . S
O575 Tb561 2.399 . S
O575 C590 1.263 . S
O576 Tb561 2.325 . S
O576 C591 1.236 . S
O577 Tb560 2.322 . S
O577 C591 1.257 . S
O578 Tb560 2.349 . S
O578 C562 1.261 . S
O579 Tb561 2.303 . S
O579 C562 1.257 . S
C580 O570 1.236 . S
C580 O571 1.257 . S
O581 Tb560 2.415 . S
O581 C569 1.239 . S
O582 Tb560 2.399 . S
O582 C569 1.263 . S
C583 O572 1.261 . S
C583 O573 1.257 . S
C584 C587 1.358 . S
C584 C588 1.332 . S
C584 C590 1.504 . S
C585 C586 1.373 . S
C585 C589 1.308 . S
C586 C585 1.373 . S
C586 C587 1.429 . S
C586 H596 0.932 . S
C587 C584 1.358 . S
C587 C586 1.429 . S
C587 H597 0.930 . S
C588 C584 1.332 . S
C588 C589 1.394 . S
C588 H598 0.932 . S
C589 C585 1.308 . S
C589 C588 1.394 . S
C589 H599 0.929 . S
C590 Tb561 2.764 . S
C590 O574 1.239 . S
C590 O575 1.263 . S
C590 C584 1.504 . S
C591 O576 1.236 . S
C591 O577 1.257 . S
H592 C565 0.932 . S
H593 C566 0.930 . S
H594 C567 0.932 . S
H595 C568 0.929 . S
H596 C586 0.932 . S
H597 C587 0.930 . S
H598 C588 0.932 . S
H599 C589 0.929 . S
Tb600 C609 2.764 . S
Tb600 O610 2.325 . S
Tb600 O613 2.303 . S
Tb600 O617 2.322 . S
Tb600 O618 2.349 . S
Tb600 O621 2.415 . S
Tb600 O622 2.399 . S
Tb601 O611 2.322 . S
Tb601 O612 2.349 . S
Tb601 O614 2.415 . S
Tb601 O615 2.399 . S
Tb601 O616 2.325 . S
Tb601 O619 2.303 . S
Tb601 C630 2.764 . S
C602 O618 1.261 . S
C602 O619 1.257 . S
C603 C606 1.358 . S
C603 C607 1.333 1_545 S
C603 C609 1.503 . S
C604 C605 1.373 . S
C604 C608 1.308 . S
C605 C604 1.373 . S
C605 C606 1.429 1_565 S
C605 H632 0.932 . S
C606 C603 1.358 . S
C606 C605 1.429 1_545 S
C606 H633 0.930 . S
C607 C603 1.333 1_565 S
C607 C608 1.394 . S
C607 H634 0.932 . S
C608 C604 1.308 . S
C608 C607 1.394 . S
C608 H635 0.929 . S
C609 Tb600 2.764 . S
C609 C603 1.503 . S
C609 O621 1.239 . S
C609 O622 1.263 . S
O610 Tb600 2.325 . S
O610 C620 1.236 . S
O611 Tb601 2.322 . S
O611 C620 1.257 . S
O612 Tb601 2.349 . S
O612 C623 1.261 . S
O613 Tb600 2.303 . S
O613 C623 1.257 . S
O614 Tb601 2.415 . S
O614 C630 1.239 . S
O615 Tb601 2.399 . S
O615 C630 1.263 . S
O616 Tb601 2.325 . S
O616 C631 1.236 . S
O617 Tb600 2.322 . S
O617 C631 1.257 . S
O618 Tb600 2.349 . S
O618 C602 1.261 . S
O619 Tb601 2.303 . S
O619 C602 1.257 . S
C620 O610 1.236 . S
C620 O611 1.257 . S
O621 Tb600 2.415 . S
O621 C609 1.239 . S
O622 Tb600 2.399 . S
O622 C609 1.263 . S
C623 O612 1.261 . S
C623 O613 1.257 . S
C624 C627 1.358 . S
C624 C628 1.332 . S
C624 C630 1.504 . S
C625 C626 1.373 . S
C625 C629 1.308 . S
C626 C625 1.373 . S
C626 C627 1.429 . S
C626 H636 0.932 . S
C627 C624 1.358 . S
C627 C626 1.429 . S
C627 H637 0.930 . S
C628 C624 1.332 . S
C628 C629 1.394 . S
C628 H638 0.932 . S
C629 C625 1.308 . S
C629 C628 1.394 . S
C629 H639 0.929 . S
C630 Tb601 2.764 . S
C630 O614 1.239 . S
C630 O615 1.263 . S
C630 C624 1.504 . S
C631 O616 1.236 . S
C631 O617 1.257 . S
H632 C605 0.932 . S
H633 C606 0.930 . S
H634 C607 0.932 . S
H635 C608 0.929 . S
H636 C626 0.932 . S
H637 C627 0.930 . S
H638 C628 0.932 . S
H639 C629 0.929 . S
C640 C641 1.349 . S
C640 C642 1.327 . S
C640 H665 0.950 . S
C641 C640 1.349 . S
C641 C657 1.349 . S
C642 C640 1.327 . S
C642 C661 1.429 . S
C642 H666 0.950 . S
C643 C660 1.574 . S
C643 C662 1.368 . S
C643 H667 0.949 . S
H644 C648 0.949 . S
C645 C646 1.349 . S
C645 C647 1.327 . S
C645 H668 0.950 . S
C646 C645 1.349 . S
C646 C658 1.349 . S
C647 C645 1.327 . S
C647 C663 1.429 . S
C647 H669 0.950 . S
C648 H644 0.949 . S
C648 C656 1.574 . S
C648 C664 1.368 . S
H649 C657 0.950 . S
H650 C655 0.950 . S
H651 C656 0.949 . S
H652 C658 0.950 . S
H653 C659 0.950 . S
H654 C660 0.949 . S
C655 H650 0.950 . S
C655 C657 1.327 . S
C655 C661 1.429 . S
C656 C648 1.574 . S
C656 H651 0.949 . S
C656 C662 1.368 . S
C657 C641 1.349 . S
C657 H649 0.950 . S
C657 C655 1.327 . S
C658 C646 1.349 . S
C658 H652 0.950 . S
C658 C659 1.327 . S
C659 H653 0.950 . S
C659 C658 1.327 . S
C659 C663 1.429 . S
C660 C643 1.574 . S
C660 H654 0.949 . S
C660 C664 1.368 . S
C661 C642 1.429 . S
C661 C655 1.429 . S
C661 C662 1.523 . S
C662 C643 1.368 . S
C662 C656 1.368 . S
C662 C661 1.523 . S
C663 C647 1.429 . S
C663 C659 1.429 . S
C663 C664 1.523 . S
C664 C648 1.368 . S
C664 C660 1.368 . S
C664 C663 1.523 . S
H665 C640 0.950 . S
H666 C642 0.950 . S
H667 C643 0.949 . S
H668 C645 0.950 . S
H669 C647 0.950 . S
C670 C671 1.349 . S
C670 C672 1.327 . S
C670 H695 0.950 . S
C671 C670 1.349 . S
C671 C687 1.349 . S
C672 C670 1.327 . S
C672 C691 1.429 . S
C672 H696 0.950 . S
C673 C690 1.574 . S
C673 C692 1.368 . S
C673 H697 0.949 . S
H674 C678 0.949 . S
C675 C676 1.349 . S
C675 C677 1.327 . S
C675 H698 0.950 . S
C676 C675 1.349 . S
C676 C688 1.349 . S
C677 C675 1.327 . S
C677 C693 1.429 . S
C677 H699 0.950 . S
C678 H674 0.949 . S
C678 C686 1.574 . S
C678 C694 1.368 . S
H679 C687 0.950 . S
H680 C685 0.950 . S
H681 C686 0.949 . S
H682 C688 0.950 . S
H683 C689 0.950 . S
H684 C690 0.949 . S
C685 H680 0.950 . S
C685 C687 1.327 . S
C685 C691 1.429 . S
C686 C678 1.574 . S
C686 H681 0.949 . S
C686 C692 1.368 . S
C687 C671 1.349 . S
C687 H679 0.950 . S
C687 C685 1.327 . S
C688 C676 1.349 . S
C688 H682 0.950 . S
C688 C689 1.327 . S
C689 H683 0.950 . S
C689 C688 1.327 . S
C689 C693 1.429 . S
C690 C673 1.574 . S
C690 H684 0.949 . S
C690 C694 1.368 . S
C691 C672 1.429 . S
C691 C685 1.429 . S
C691 C692 1.523 . S
C692 C673 1.368 . S
C692 C686 1.368 . S
C692 C691 1.523 . S
C693 C677 1.429 . S
C693 C689 1.429 . S
C693 C694 1.523 . S
C694 C678 1.368 . S
C694 C690 1.368 . S
C694 C693 1.523 . S
H695 C670 0.950 . S
H696 C672 0.950 . S
H697 C673 0.949 . S
H698 C675 0.950 . S
H699 C677 0.950 . S
C700 C701 1.349 . S
C700 C702 1.327 . S
C700 H725 0.950 . S
C701 C700 1.349 . S
C701 C717 1.349 . S
C702 C700 1.327 . S
C702 C721 1.429 . S
C702 H726 0.950 . S
C703 C720 1.574 1_455 S
C703 C722 1.368 . S
C703 H727 0.949 . S
H704 C708 0.949 . S
C705 C706 1.349 . S
C705 C707 1.327 . S
C705 H728 0.950 . S
C706 C705 1.349 . S
C706 C718 1.349 . S
C707 C705 1.327 . S
C707 C723 1.429 . S
C707 H729 0.950 . S
C708 H704 0.949 . S
C708 C716 1.574 1_655 S
C708 C724 1.368 . S
H709 C717 0.950 . S
H710 C715 0.950 . S
H711 C716 0.949 . S
H712 C718 0.950 . S
H713 C719 0.950 . S
H714 C720 0.949 . S
C715 H710 0.950 . S
C715 C717 1.327 . S
C715 C721 1.429 . S
C716 C708 1.574 1_455 S
C716 H711 0.949 . S
C716 C722 1.368 . S
C717 C701 1.349 . S
C717 H709 0.950 . S
C717 C715 1.327 . S
C718 C706 1.349 . S
C718 H712 0.950 . S
C718 C719 1.327 . S
C719 H713 0.950 . S
C719 C718 1.327 . S
C719 C723 1.429 . S
C720 C703 1.574 1_655 S
C720 H714 0.949 . S
C720 C724 1.368 . S
C721 C702 1.429 . S
C721 C715 1.429 . S
C721 C722 1.523 . S
C722 C703 1.368 . S
C722 C716 1.368 . S
C722 C721 1.523 . S
C723 C707 1.429 . S
C723 C719 1.429 . S
C723 C724 1.523 . S
C724 C708 1.368 . S
C724 C720 1.368 . S
C724 C723 1.523 . S
H725 C700 0.950 . S
H726 C702 0.950 . S
H727 C703 0.949 . S
H728 C705 0.950 . S
H729 C707 0.950 . S
C730 C731 1.349 . S
C730 C732 1.327 . S
C730 H755 0.950 . S
C731 C730 1.349 . S
C731 C747 1.349 . S
C732 C730 1.327 . S
C732 C751 1.429 . S
C732 H756 0.950 . S
C733 C750 1.574 . S
C733 C752 1.368 . S
C733 H757 0.949 . S
H734 C738 0.949 . S
C735 C736 1.349 . S
C735 C737 1.327 . S
C735 H758 0.950 . S
C736 C735 1.349 . S
C736 C748 1.349 . S
C737 C735 1.327 . S
C737 C753 1.429 . S
C737 H759 0.950 . S
C738 H734 0.949 . S
C738 C746 1.574 . S
C738 C754 1.368 . S
H739 C747 0.950 . S
H740 C745 0.950 . S
H741 C746 0.949 . S
H742 C748 0.950 . S
H743 C749 0.950 . S
H744 C750 0.949 . S
C745 H740 0.950 . S
C745 C747 1.327 . S
C745 C751 1.429 . S
C746 C738 1.574 . S
C746 H741 0.949 . S
C746 C752 1.368 1_655 S
C747 C731 1.349 . S
C747 H739 0.950 . S
C747 C745 1.327 . S
C748 C736 1.349 . S
C748 H742 0.950 . S
C748 C749 1.327 . S
C749 H743 0.950 . S
C749 C748 1.327 . S
C749 C753 1.429 . S
C750 C733 1.574 . S
C750 H744 0.949 . S
C750 C754 1.368 1_455 S
C751 C732 1.429 . S
C751 C745 1.429 . S
C751 C752 1.523 . S
C752 C733 1.368 . S
C752 C746 1.368 1_455 S
C752 C751 1.523 . S
C753 C737 1.429 . S
C753 C749 1.429 . S
C753 C754 1.523 . S
C754 C738 1.368 . S
C754 C750 1.368 1_655 S
C754 C753 1.523 . S
H755 C730 0.950 . S
H756 C732 0.950 . S
H757 C733 0.949 . S
H758 C735 0.950 . S
H759 C737 0.950 . S
C760 C761 1.349 . S
C760 C762 1.327 . S
C760 H785 0.950 . S
C761 C760 1.349 . S
C761 C777 1.349 . S
C762 C760 1.327 . S
C762 C781 1.429 . S
C762 H786 0.950 . S
C763 C780 1.574 . S
C763 C782 1.368 . S
C763 H787 0.949 . S
H764 C768 0.949 . S
C765 C766 1.349 . S
C765 C767 1.327 . S
C765 H788 0.950 . S
C766 C765 1.349 . S
C766 C778 1.349 . S
C767 C765 1.327 . S
C767 C783 1.429 . S
C767 H789 0.950 . S
C768 H764 0.949 . S
C768 C776 1.574 . S
C768 C784 1.368 . S
H769 C777 0.950 . S
H770 C775 0.950 . S
H771 C776 0.949 . S
H772 C778 0.950 . S
H773 C779 0.950 . S
H774 C780 0.949 . S
C775 H770 0.950 . S
C775 C777 1.327 . S
C775 C781 1.429 . S
C776 C768 1.574 . S
C776 H771 0.949 . S
C776 C782 1.368 . S
C777 C761 1.349 . S
C777 H769 0.950 . S
C777 C775 1.327 . S
C778 C766 1.349 . S
C778 H772 0.950 . S
C778 C779 1.327 . S
C779 H773 0.950 . S
C779 C778 1.327 . S
C779 C783 1.429 . S
C780 C763 1.574 . S
C780 H774 0.949 . S
C780 C784 1.368 . S
C781 C762 1.429 . S
C781 C775 1.429 . S
C781 C782 1.523 . S
C782 C763 1.368 . S
C782 C776 1.368 . S
C782 C781 1.523 . S
C783 C767 1.429 . S
C783 C779 1.429 . S
C783 C784 1.523 . S
C784 C768 1.368 . S
C784 C780 1.368 . S
C784 C783 1.523 . S
H785 C760 0.950 . S
H786 C762 0.950 . S
H787 C763 0.949 . S
H788 C765 0.950 . S
H789 C767 0.950 . S
C790 C791 1.349 . S
C790 C792 1.327 . S
C790 H815 0.950 . S
C791 C790 1.349 . S
C791 C807 1.349 . S
C792 C790 1.327 . S
C792 C811 1.429 . S
C792 H816 0.950 . S
C793 C810 1.574 . S
C793 C812 1.368 . S
C793 H817 0.949 . S
H794 C798 0.949 . S
C795 C796 1.349 . S
C795 C797 1.327 . S
C795 H818 0.950 . S
C796 C795 1.349 . S
C796 C808 1.349 . S
C797 C795 1.327 . S
C797 C813 1.429 . S
C797 H819 0.950 . S
C798 H794 0.949 . S
C798 C806 1.574 . S
C798 C814 1.368 . S
H799 C807 0.950 . S
H800 C805 0.950 . S
H801 C806 0.949 . S
H802 C808 0.950 . S
H803 C809 0.950 . S
H804 C810 0.949 . S
C805 H800 0.950 . S
C805 C807 1.327 . S
C805 C811 1.429 . S
C806 C798 1.574 . S
C806 H801 0.949 . S
C806 C812 1.368 . S
C807 C791 1.349 . S
C807 H799 0.950 . S
C807 C805 1.327 . S
C808 C796 1.349 . S
C808 H802 0.950 . S
C808 C809 1.327 . S
C809 H803 0.950 . S
C809 C808 1.327 . S
C809 C813 1.429 . S
C810 C793 1.574 . S
C810 H804 0.949 . S
C810 C814 1.368 . S
C811 C792 1.429 . S
C811 C805 1.429 . S
C811 C812 1.523 . S
C812 C793 1.368 . S
C812 C806 1.368 . S
C812 C811 1.523 . S
C813 C797 1.429 . S
C813 C809 1.429 . S
C813 C814 1.523 . S
C814 C798 1.368 . S
C814 C810 1.368 . S
C814 C813 1.523 . S
H815 C790 0.950 . S
H816 C792 0.950 . S
H817 C793 0.949 . S
H818 C795 0.950 . S
H819 C797 0.950 . S
C820 C821 1.349 . S
C820 C822 1.327 . S
C820 H845 0.950 . S
C821 C820 1.349 . S
C821 C837 1.349 . S
C822 C820 1.327 . S
C822 C841 1.429 . S
C822 H846 0.950 . S
C823 C840 1.574 1_455 S
C823 C842 1.368 . S
C823 H847 0.949 . S
H824 C828 0.949 . S
C825 C826 1.349 . S
C825 C827 1.327 . S
C825 H848 0.950 . S
C826 C825 1.349 . S
C826 C838 1.349 . S
C827 C825 1.327 . S
C827 C843 1.429 . S
C827 H849 0.950 . S
C828 H824 0.949 . S
C828 C836 1.574 1_655 S
C828 C844 1.368 . S
H829 C837 0.950 . S
H830 C835 0.950 . S
H831 C836 0.949 . S
H832 C838 0.950 . S
H833 C839 0.950 . S
H834 C840 0.949 . S
C835 H830 0.950 . S
C835 C837 1.327 . S
C835 C841 1.429 . S
C836 C828 1.574 1_455 S
C836 H831 0.949 . S
C836 C842 1.368 . S
C837 C821 1.349 . S
C837 H829 0.950 . S
C837 C835 1.327 . S
C838 C826 1.349 . S
C838 H832 0.950 . S
C838 C839 1.327 . S
C839 H833 0.950 . S
C839 C838 1.327 . S
C839 C843 1.429 . S
C840 C823 1.574 1_655 S
C840 H834 0.949 . S
C840 C844 1.368 . S
C841 C822 1.429 . S
C841 C835 1.429 . S
C841 C842 1.523 . S
C842 C823 1.368 . S
C842 C836 1.368 . S
C842 C841 1.523 . S
C843 C827 1.429 . S
C843 C839 1.429 . S
C843 C844 1.523 . S
C844 C828 1.368 . S
C844 C840 1.368 . S
C844 C843 1.523 . S
H845 C820 0.950 . S
H846 C822 0.950 . S
H847 C823 0.949 . S
H848 C825 0.950 . S
H849 C827 0.950 . S
C850 C851 1.349 . S
C850 C852 1.327 . S
C850 H875 0.950 . S
C851 C850 1.349 . S
C851 C867 1.349 . S
C852 C850 1.327 . S
C852 C871 1.429 . S
C852 H876 0.950 . S
C853 C870 1.574 . S
C853 C872 1.368 . S
C853 H877 0.949 . S
H854 C858 0.949 . S
C855 C856 1.349 . S
C855 C857 1.327 . S
C855 H878 0.950 . S
C856 C855 1.349 . S
C856 C868 1.349 . S
C857 C855 1.327 . S
C857 C873 1.429 . S
C857 H879 0.950 . S
C858 H854 0.949 . S
C858 C866 1.574 . S
C858 C874 1.368 . S
H859 C867 0.950 . S
H860 C865 0.950 . S
H861 C866 0.949 . S
H862 C868 0.950 . S
H863 C869 0.950 . S
H864 C870 0.949 . S
C865 H860 0.950 . S
C865 C867 1.327 . S
C865 C871 1.429 . S
C866 C858 1.574 . S
C866 H861 0.949 . S
C866 C872 1.368 1_655 S
C867 C851 1.349 . S
C867 H859 0.950 . S
C867 C865 1.327 . S
C868 C856 1.349 . S
C868 H862 0.950 . S
C868 C869 1.327 . S
C869 H863 0.950 . S
C869 C868 1.327 . S
C869 C873 1.429 . S
C870 C853 1.574 . S
C870 H864 0.949 . S
C870 C874 1.368 1_455 S
C871 C852 1.429 . S
C871 C865 1.429 . S
C871 C872 1.523 . S
C872 C853 1.368 . S
C872 C866 1.368 1_455 S
C872 C871 1.523 . S
C873 C857 1.429 . S
C873 C869 1.429 . S
C873 C874 1.523 . S
C874 C858 1.368 . S
C874 C870 1.368 1_655 S
C874 C873 1.523 . S
H875 C850 0.950 . S
H876 C852 0.950 . S
H877 C853 0.949 . S
H878 C855 0.950 . S
H879 C857 0.950 . S
C880 C881 1.349 . S
C880 C882 1.327 . S
C880 H905 0.950 . S
C881 C880 1.349 . S
C881 C897 1.349 1_545 S
C882 C880 1.327 . S
C882 C901 1.429 . S
C882 H906 0.950 . S
C883 C900 1.574 1_554 S
C883 C902 1.368 1_565 S
C883 H907 0.949 . S
H884 C888 0.949 . S
C885 C886 1.349 . S
C885 C887 1.327 . S
C885 H908 0.950 . S
C886 C885 1.349 . S
C886 C898 1.349 1_565 S
C887 C885 1.327 . S
C887 C903 1.429 . S
C887 H909 0.950 . S
C888 H884 0.949 . S
C888 C896 1.574 1_556 S
C888 C904 1.368 1_545 S
H889 C897 0.950 . S
H890 C895 0.950 . S
H891 C896 0.949 . S
H892 C898 0.950 . S
H893 C899 0.950 . S
H894 C900 0.949 . S
C895 H890 0.950 . S
C895 C897 1.327 . S
C895 C901 1.429 1_565 S
C896 C888 1.574 1_554 S
C896 H891 0.949 . S
C896 C902 1.368 . S
C897 C881 1.349 1_565 S
C897 H889 0.950 . S
C897 C895 1.327 . S
C898 C886 1.349 1_545 S
C898 H892 0.950 . S
C898 C899 1.327 . S
C899 H893 0.950 . S
C899 C898 1.327 . S
C899 C903 1.429 1_545 S
C900 C883 1.574 1_556 S
C900 H894 0.949 . S
C900 C904 1.368 . S
C901 C882 1.429 . S
C901 C895 1.429 1_545 S
C901 C902 1.523 . S
C902 C883 1.368 1_545 S
C902 C896 1.368 . S
C902 C901 1.523 . S
C903 C887 1.429 . S
C903 C899 1.429 1_565 S
C903 C904 1.523 . S
C904 C888 1.368 1_565 S
C904 C900 1.368 . S
C904 C903 1.523 . S
H905 C880 0.950 . S
H906 C882 0.950 . S
H907 C883 0.949 . S
H908 C885 0.950 . S
H909 C887 0.950 . S
C910 C911 1.349 . S
C910 C912 1.327 . S
C910 H935 0.950 . S
C911 C910 1.349 . S
C911 C927 1.349 . S
C912 C910 1.327 . S
C912 C931 1.429 . S
C912 H936 0.950 . S
C913 C930 1.574 . S
C913 C932 1.368 . S
C913 H937 0.949 . S
H914 C918 0.949 . S
C915 C916 1.349 . S
C915 C917 1.327 . S
C915 H938 0.950 . S
C916 C915 1.349 . S
C916 C928 1.349 . S
C917 C915 1.327 . S
C917 C933 1.429 . S
C917 H939 0.950 . S
C918 H914 0.949 . S
C918 C926 1.574 . S
C918 C934 1.368 . S
H919 C927 0.950 . S
H920 C925 0.950 . S
H921 C926 0.949 . S
H922 C928 0.950 . S
H923 C929 0.950 . S
H924 C930 0.949 . S
C925 H920 0.950 . S
C925 C927 1.327 . S
C925 C931 1.429 . S
C926 C918 1.574 . S
C926 H921 0.949 . S
C926 C932 1.368 . S
C927 C911 1.349 . S
C927 H919 0.950 . S
C927 C925 1.327 . S
C928 C916 1.349 . S
C928 H922 0.950 . S
C928 C929 1.327 . S
C929 H923 0.950 . S
C929 C928 1.327 . S
C929 C933 1.429 . S
C930 C913 1.574 . S
C930 H924 0.949 . S
C930 C934 1.368 . S
C931 C912 1.429 . S
C931 C925 1.429 . S
C931 C932 1.523 . S
C932 C913 1.368 . S
C932 C926 1.368 . S
C932 C931 1.523 . S
C933 C917 1.429 . S
C933 C929 1.429 . S
C933 C934 1.523 . S
C934 C918 1.368 . S
C934 C930 1.368 . S
C934 C933 1.523 . S
H935 C910 0.950 . S
H936 C912 0.950 . S
H937 C913 0.949 . S
H938 C915 0.950 . S
H939 C917 0.950 . S
C940 C941 1.349 . S
C940 C942 1.327 . S
C940 H965 0.950 . S
C941 C940 1.349 . S
C941 C957 1.349 1_565 S
C942 C940 1.327 . S
C942 C961 1.429 . S
C942 H966 0.950 . S
C943 C960 1.574 1_455 S
C943 C962 1.368 1_545 S
C943 H967 0.949 . S
H944 C948 0.949 . S
C945 C946 1.349 . S
C945 C947 1.327 . S
C945 H968 0.950 . S
C946 C945 1.349 . S
C946 C958 1.349 1_545 S
C947 C945 1.327 . S
C947 C963 1.429 . S
C947 H969 0.950 . S
C948 H944 0.949 . S
C948 C956 1.574 1_655 S
C948 C964 1.368 1_565 S
H949 C957 0.950 . S
H950 C955 0.950 . S
H951 C956 0.949 . S
H952 C958 0.950 . S
H953 C959 0.950 . S
H954 C960 0.949 . S
C955 H950 0.950 . S
C955 C957 1.327 . S
C955 C961 1.429 1_545 S
C956 C948 1.574 1_455 S
C956 H951 0.949 . S
C956 C962 1.368 . S
C957 C941 1.349 1_545 S
C957 H949 0.950 . S
C957 C955 1.327 . S
C958 C946 1.349 1_565 S
C958 H952 0.950 . S
C958 C959 1.327 . S
C959 H953 0.950 . S
C959 C958 1.327 . S
C959 C963 1.429 1_565 S
C960 C943 1.574 1_655 S
C960 H954 0.949 . S
C960 C964 1.368 . S
C961 C942 1.429 . S
C961 C955 1.429 1_565 S
C961 C962 1.523 . S
C962 C943 1.368 1_565 S
C962 C956 1.368 . S
C962 C961 1.523 . S
C963 C947 1.429 . S
C963 C959 1.429 1_545 S
C963 C964 1.523 . S
C964 C948 1.368 1_545 S
C964 C960 1.368 . S
C964 C963 1.523 . S
H965 C940 0.950 . S
H966 C942 0.950 . S
H967 C943 0.949 . S
H968 C945 0.950 . S
H969 C947 0.950 . S
C970 C971 1.349 . S
C970 C972 1.327 . S
C970 H995 0.950 . S
C971 C970 1.349 . S
C971 C987 1.349 . S
C972 C970 1.327 . S
C972 C991 1.429 . S
C972 H996 0.950 . S
C973 C990 1.574 . S
C973 C992 1.368 . S
C973 H997 0.949 . S
H974 C978 0.949 . S
C975 C976 1.349 . S
C975 C977 1.327 . S
C975 H998 0.950 . S
C976 C975 1.349 . S
C976 C988 1.349 . S
C977 C975 1.327 . S
C977 C993 1.429 . S
C977 H999 0.950 . S
C978 H974 0.949 . S
C978 C986 1.574 . S
C978 C994 1.368 . S
H979 C987 0.950 . S
H980 C985 0.950 . S
H981 C986 0.949 . S
H982 C988 0.950 . S
H983 C989 0.950 . S
H984 C990 0.949 . S
C985 H980 0.950 . S
C985 C987 1.327 . S
C985 C991 1.429 . S
C986 C978 1.574 . S
C986 H981 0.949 . S
C986 C992 1.368 . S
C987 C971 1.349 . S
C987 H979 0.950 . S
C987 C985 1.327 . S
C988 C976 1.349 . S
C988 H982 0.950 . S
C988 C989 1.327 . S
C989 H983 0.950 . S
C989 C988 1.327 . S
C989 C993 1.429 . S
C990 C973 1.574 . S
C990 H984 0.949 . S
C990 C994 1.368 . S
C991 C972 1.429 . S
C991 C985 1.429 . S
C991 C992 1.523 . S
C992 C973 1.368 . S
C992 C986 1.368 . S
C992 C991 1.523 . S
C993 C977 1.429 . S
C993 C989 1.429 . S
C993 C994 1.523 . S
C994 C978 1.368 . S
C994 C990 1.368 . S
C994 C993 1.523 . S
H995 C970 0.950 . S
H996 C972 0.950 . S
H997 C973 0.949 . S
H998 C975 0.950 . S
H999 C977 0.950 . S
C1000 C1001 1.349 . S
C1000 C1002 1.327 . S
C1000 H1025 0.950 . S
C1001 C1000 1.349 . S
C1001 C1017 1.349 . S
C1002 C1000 1.327 . S
C1002 C1021 1.429 . S
C1002 H1026 0.950 . S
C1003 C1020 1.574 . S
C1003 C1022 1.368 . S
C1003 H1027 0.949 . S
H1004 C1008 0.949 . S
C1005 C1006 1.349 . S
C1005 C1007 1.327 . S
C1005 H1028 0.950 . S
C1006 C1005 1.349 . S
C1006 C1018 1.349 . S
C1007 C1005 1.327 . S
C1007 C1023 1.429 . S
C1007 H1029 0.950 . S
C1008 H1004 0.949 . S
C1008 C1016 1.574 . S
C1008 C1024 1.368 . S
H1009 C1017 0.950 . S
H1010 C1015 0.950 . S
H1011 C1016 0.949 . S
H1012 C1018 0.950 . S
H1013 C1019 0.950 . S
H1014 C1020 0.949 . S
C1015 H1010 0.950 . S
C1015 C1017 1.327 . S
C1015 C1021 1.429 . S
C1016 C1008 1.574 . S
C1016 H1011 0.949 . S
C1016 C1022 1.368 . S
C1017 C1001 1.349 . S
C1017 H1009 0.950 . S
C1017 C1015 1.327 . S
C1018 C1006 1.349 . S
C1018 H1012 0.950 . S
C1018 C1019 1.327 . S
C1019 H1013 0.950 . S
C1019 C1018 1.327 . S
C1019 C1023 1.429 . S
C1020 C1003 1.574 . S
C1020 H1014 0.949 . S
C1020 C1024 1.368 . S
C1021 C1002 1.429 . S
C1021 C1015 1.429 . S
C1021 C1022 1.523 . S
C1022 C1003 1.368 . S
C1022 C1016 1.368 . S
C1022 C1021 1.523 . S
C1023 C1007 1.429 . S
C1023 C1019 1.429 . S
C1023 C1024 1.523 . S
C1024 C1008 1.368 . S
C1024 C1020 1.368 . S
C1024 C1023 1.523 . S
H1025 C1000 0.950 . S
H1026 C1002 0.950 . S
H1027 C1003 0.949 . S
H1028 C1005 0.950 . S
H1029 C1007 0.950 . S
C1030 C1031 1.349 . S
C1030 C1032 1.327 . S
C1030 H1055 0.950 . S
C1031 C1030 1.349 . S
C1031 C1047 1.349 . S
C1032 C1030 1.327 . S
C1032 C1051 1.429 . S
C1032 H1056 0.950 . S
C1033 C1050 1.574 . S
C1033 C1052 1.368 . S
C1033 H1057 0.949 . S
H1034 C1038 0.949 . S
C1035 C1036 1.349 . S
C1035 C1037 1.327 . S
C1035 H1058 0.950 . S
C1036 C1035 1.349 . S
C1036 C1048 1.349 . S
C1037 C1035 1.327 . S
C1037 C1053 1.429 . S
C1037 H1059 0.950 . S
C1038 H1034 0.949 . S
C1038 C1046 1.574 . S
C1038 C1054 1.368 . S
H1039 C1047 0.950 . S
H1040 C1045 0.950 . S
H1041 C1046 0.949 . S
H1042 C1048 0.950 . S
H1043 C1049 0.950 . S
H1044 C1050 0.949 . S
C1045 H1040 0.950 . S
C1045 C1047 1.327 . S
C1045 C1051 1.429 . S
C1046 C1038 1.574 . S
C1046 H1041 0.949 . S
C1046 C1052 1.368 . S
C1047 C1031 1.349 . S
C1047 H1039 0.950 . S
C1047 C1045 1.327 . S
C1048 C1036 1.349 . S
C1048 H1042 0.950 . S
C1048 C1049 1.327 . S
C1049 H1043 0.950 . S
C1049 C1048 1.327 . S
C1049 C1053 1.429 . S
C1050 C1033 1.574 . S
C1050 H1044 0.949 . S
C1050 C1054 1.368 . S
C1051 C1032 1.429 . S
C1051 C1045 1.429 . S
C1051 C1052 1.523 . S
C1052 C1033 1.368 . S
C1052 C1046 1.368 . S
C1052 C1051 1.523 . S
C1053 C1037 1.429 . S
C1053 C1049 1.429 . S
C1053 C1054 1.523 . S
C1054 C1038 1.368 . S
C1054 C1050 1.368 . S
C1054 C1053 1.523 . S
H1055 C1030 0.950 . S
H1056 C1032 0.950 . S
H1057 C1033 0.949 . S
H1058 C1035 0.950 . S
H1059 C1037 0.950 . S
C1060 C1061 1.349 . S
C1060 C1062 1.327 . S
C1060 H1085 0.950 . S
C1061 C1060 1.349 . S
C1061 C1077 1.349 . S
C1062 C1060 1.327 . S
C1062 C1081 1.429 . S
C1062 H1086 0.950 . S
C1063 C1080 1.574 1_455 S
C1063 C1082 1.368 . S
C1063 H1087 0.949 . S
H1064 C1068 0.949 . S
C1065 C1066 1.349 . S
C1065 C1067 1.327 . S
C1065 H1088 0.950 . S
C1066 C1065 1.349 . S
C1066 C1078 1.349 . S
C1067 C1065 1.327 . S
C1067 C1083 1.429 . S
C1067 H1089 0.950 . S
C1068 H1064 0.949 . S
C1068 C1076 1.574 1_655 S
C1068 C1084 1.368 . S
H1069 C1077 0.950 . S
H1070 C1075 0.950 . S
H1071 C1076 0.949 . S
H1072 C1078 0.950 . S
H1073 C1079 0.950 . S
H1074 C1080 0.949 . S
C1075 H1070 0.950 . S
C1075 C1077 1.327 . S
C1075 C1081 1.429 . S
C1076 C1068 1.574 1_455 S
C1076 H1071 0.949 . S
C1076 C1082 1.368 . S
C1077 C1061 1.349 . S
C1077 H1069 0.950 . S
C1077 C1075 1.327 . S
C1078 C1066 1.349 . S
C1078 H1072 0.950 . S
C1078 C1079 1.327 . S
C1079 H1073 0.950 . S
C1079 C1078 1.327 . S
C1079 C1083 1.429 . S
C1080 C1063 1.574 1_655 S
C1080 H1074 0.949 . S
C1080 C1084 1.368 . S
C1081 C1062 1.429 . S
C1081 C1075 1.429 . S
C1081 C1082 1.523 . S
C1082 C1063 1.368 . S
C1082 C1076 1.368 . S
C1082 C1081 1.523 . S
C1083 C1067 1.429 . S
C1083 C1079 1.429 . S
C1083 C1084 1.523 . S
C1084 C1068 1.368 . S
C1084 C1080 1.368 . S
C1084 C1083 1.523 . S
H1085 C1060 0.950 . S
H1086 C1062 0.950 . S
H1087 C1063 0.949 . S
H1088 C1065 0.950 . S
H1089 C1067 0.950 . S
C1090 C1091 1.349 . S
C1090 C1092 1.327 . S
C1090 H1115 0.950 . S
C1091 C1090 1.349 . S
C1091 C1107 1.349 . S
C1092 C1090 1.327 . S
C1092 C1111 1.429 . S
C1092 H1116 0.950 . S
C1093 C1110 1.574 . S
C1093 C1112 1.368 1_556 S
C1093 H1117 0.949 . S
H1094 C1098 0.949 . S
C1095 C1096 1.349 . S
C1095 C1097 1.327 . S
C1095 H1118 0.950 . S
C1096 C1095 1.349 . S
C1096 C1108 1.349 . S
C1097 C1095 1.327 . S
C1097 C1113 1.429 . S
C1097 H1119 0.950 . S
C1098 H1094 0.949 . S
C1098 C1106 1.574 . S
C1098 C1114 1.368 1_554 S
H1099 C1107 0.950 . S
H1100 C1105 0.950 . S
H1101 C1106 0.949 . S
H1102 C1108 0.950 . S
H1103 C1109 0.950 . S
H1104 C1110 0.949 . S
C1105 H1100 0.950 . S
C1105 C1107 1.327 . S
C1105 C1111 1.429 . S
C1106 C1098 1.574 . S
C1106 H1101 0.949 . S
C1106 C1112 1.368 . S
C1107 C1091 1.349 . S
C1107 H1099 0.950 . S
C1107 C1105 1.327 . S
C1108 C1096 1.349 . S
C1108 H1102 0.950 . S
C1108 C1109 1.327 . S
C1109 H1103 0.950 . S
C1109 C1108 1.327 . S
C1109 C1113 1.429 . S
C1110 C1093 1.574 . S
C1110 H1104 0.949 . S
C1110 C1114 1.368 . S
C1111 C1092 1.429 . S
C1111 C1105 1.429 . S
C1111 C1112 1.523 . S
C1112 C1093 1.368 1_554 S
C1112 C1106 1.368 . S
C1112 C1111 1.523 . S
C1113 C1097 1.429 . S
C1113 C1109 1.429 . S
C1113 C1114 1.523 . S
C1114 C1098 1.368 1_556 S
C1114 C1110 1.368 . S
C1114 C1113 1.523 . S
H1115 C1090 0.950 . S
H1116 C1092 0.950 . S
H1117 C1093 0.949 . S
H1118 C1095 0.950 . S
H1119 C1097 0.950 . S
C1120 C1121 1.349 . S
C1120 C1122 1.327 . S
C1120 H1145 0.950 . S
C1121 C1120 1.349 . S
C1121 C1137 1.349 . S
C1122 C1120 1.327 . S
C1122 C1141 1.429 . S
C1122 H1146 0.950 . S
C1123 C1140 1.574 . S
C1123 C1142 1.368 . S
C1123 H1147 0.949 . S
H1124 C1128 0.949 . S
C1125 C1126 1.349 . S
C1125 C1127 1.327 . S
C1125 H1148 0.950 . S
C1126 C1125 1.349 . S
C1126 C1138 1.349 . S
C1127 C1125 1.327 . S
C1127 C1143 1.429 . S
C1127 H1149 0.950 . S
C1128 H1124 0.949 . S
C1128 C1136 1.574 . S
C1128 C1144 1.368 . S
H1129 C1137 0.950 . S
H1130 C1135 0.950 . S
H1131 C1136 0.949 . S
H1132 C1138 0.950 . S
H1133 C1139 0.950 . S
H1134 C1140 0.949 . S
C1135 H1130 0.950 . S
C1135 C1137 1.327 . S
C1135 C1141 1.429 . S
C1136 C1128 1.574 . S
C1136 H1131 0.949 . S
C1136 C1142 1.368 . S
C1137 C1121 1.349 . S
C1137 H1129 0.950 . S
C1137 C1135 1.327 . S
C1138 C1126 1.349 . S
C1138 H1132 0.950 . S
C1138 C1139 1.327 . S
C1139 H1133 0.950 . S
C1139 C1138 1.327 . S
C1139 C1143 1.429 . S
C1140 C1123 1.574 . S
C1140 H1134 0.949 . S
C1140 C1144 1.368 . S
C1141 C1122 1.429 . S
C1141 C1135 1.429 . S
C1141 C1142 1.523 . S
C1142 C1123 1.368 . S
C1142 C1136 1.368 . S
C1142 C1141 1.523 . S
C1143 C1127 1.429 . S
C1143 C1139 1.429 . S
C1143 C1144 1.523 . S
C1144 C1128 1.368 . S
C1144 C1140 1.368 . S
C1144 C1143 1.523 . S
H1145 C1120 0.950 . S
H1146 C1122 0.950 . S
H1147 C1123 0.949 . S
H1148 C1125 0.950 . S
H1149 C1127 0.950 . S
C1150 C1151 1.349 . S
C1150 C1152 1.327 . S
C1150 H1175 0.950 . S
C1151 C1150 1.349 . S
C1151 C1167 1.349 . S
C1152 C1150 1.327 . S
C1152 C1171 1.429 . S
C1152 H1176 0.950 . S
C1153 C1170 1.574 . S
C1153 C1172 1.368 . S
C1153 H1177 0.949 . S
H1154 C1158 0.949 . S
C1155 C1156 1.349 . S
C1155 C1157 1.327 . S
C1155 H1178 0.950 . S
C1156 C1155 1.349 . S
C1156 C1168 1.349 . S
C1157 C1155 1.327 . S
C1157 C1173 1.429 . S
C1157 H1179 0.950 . S
C1158 H1154 0.949 . S
C1158 C1166 1.574 . S
C1158 C1174 1.368 . S
H1159 C1167 0.950 . S
H1160 C1165 0.950 . S
H1161 C1166 0.949 . S
H1162 C1168 0.950 . S
H1163 C1169 0.950 . S
H1164 C1170 0.949 . S
C1165 H1160 0.950 . S
C1165 C1167 1.327 . S
C1165 C1171 1.429 . S
C1166 C1158 1.574 . S
C1166 H1161 0.949 . S
C1166 C1172 1.368 . S
C1167 C1151 1.349 . S
C1167 H1159 0.950 . S
C1167 C1165 1.327 . S
C1168 C1156 1.349 . S
C1168 H1162 0.950 . S
C1168 C1169 1.327 . S
C1169 H1163 0.950 . S
C1169 C1168 1.327 . S
C1169 C1173 1.429 . S
C1170 C1153 1.574 . S
C1170 H1164 0.949 . S
C1170 C1174 1.368 . S
C1171 C1152 1.429 . S
C1171 C1165 1.429 . S
C1171 C1172 1.523 . S
C1172 C1153 1.368 . S
C1172 C1166 1.368 . S
C1172 C1171 1.523 . S
C1173 C1157 1.429 . S
C1173 C1169 1.429 . S
C1173 C1174 1.523 . S
C1174 C1158 1.368 . S
C1174 C1170 1.368 . S
C1174 C1173 1.523 . S
H1175 C1150 0.950 . S
H1176 C1152 0.950 . S
H1177 C1153 0.949 . S
H1178 C1155 0.950 . S
H1179 C1157 0.950 . S
C1180 C1181 1.349 . S
C1180 C1182 1.327 . S
C1180 H1205 0.950 . S
C1181 C1180 1.349 . S
C1181 C1197 1.349 . S
C1182 C1180 1.327 . S
C1182 C1201 1.429 . S
C1182 H1206 0.950 . S
C1183 C1200 1.574 . S
C1183 C1202 1.368 . S
C1183 H1207 0.949 . S
H1184 C1188 0.949 . S
C1185 C1186 1.349 . S
C1185 C1187 1.327 . S
C1185 H1208 0.950 . S
C1186 C1185 1.349 . S
C1186 C1198 1.349 . S
C1187 C1185 1.327 . S
C1187 C1203 1.429 . S
C1187 H1209 0.950 . S
C1188 H1184 0.949 . S
C1188 C1196 1.574 . S
C1188 C1204 1.368 . S
H1189 C1197 0.950 . S
H1190 C1195 0.950 . S
H1191 C1196 0.949 . S
H1192 C1198 0.950 . S
H1193 C1199 0.950 . S
H1194 C1200 0.949 . S
C1195 H1190 0.950 . S
C1195 C1197 1.327 . S
C1195 C1201 1.429 . S
C1196 C1188 1.574 . S
C1196 H1191 0.949 . S
C1196 C1202 1.368 . S
C1197 C1181 1.349 . S
C1197 H1189 0.950 . S
C1197 C1195 1.327 . S
C1198 C1186 1.349 . S
C1198 H1192 0.950 . S
C1198 C1199 1.327 . S
C1199 H1193 0.950 . S
C1199 C1198 1.327 . S
C1199 C1203 1.429 . S
C1200 C1183 1.574 . S
C1200 H1194 0.949 . S
C1200 C1204 1.368 . S
C1201 C1182 1.429 . S
C1201 C1195 1.429 . S
C1201 C1202 1.523 . S
C1202 C1183 1.368 . S
C1202 C1196 1.368 . S
C1202 C1201 1.523 . S
C1203 C1187 1.429 . S
C1203 C1199 1.429 . S
C1203 C1204 1.523 . S
C1204 C1188 1.368 . S
C1204 C1200 1.368 . S
C1204 C1203 1.523 . S
H1205 C1180 0.950 . S
H1206 C1182 0.950 . S
H1207 C1183 0.949 . S
H1208 C1185 0.950 . S
H1209 C1187 0.950 . S
C1210 C1211 1.349 . S
C1210 C1212 1.327 . S
C1210 H1235 0.950 . S
C1211 C1210 1.349 . S
C1211 C1227 1.349 . S
C1212 C1210 1.327 . S
C1212 C1231 1.429 . S
C1212 H1236 0.950 . S
C1213 C1230 1.574 . S
C1213 C1232 1.368 . S
C1213 H1237 0.949 . S
H1214 C1218 0.949 . S
C1215 C1216 1.349 . S
C1215 C1217 1.327 . S
C1215 H1238 0.950 . S
C1216 C1215 1.349 . S
C1216 C1228 1.349 . S
C1217 C1215 1.327 . S
C1217 C1233 1.429 . S
C1217 H1239 0.950 . S
C1218 H1214 0.949 . S
C1218 C1226 1.574 . S
C1218 C1234 1.368 . S
H1219 C1227 0.950 . S
H1220 C1225 0.950 . S
H1221 C1226 0.949 . S
H1222 C1228 0.950 . S
H1223 C1229 0.950 . S
H1224 C1230 0.949 . S
C1225 H1220 0.950 . S
C1225 C1227 1.327 . S
C1225 C1231 1.429 . S
C1226 C1218 1.574 . S
C1226 H1221 0.949 . S
C1226 C1232 1.368 . S
C1227 C1211 1.349 . S
C1227 H1219 0.950 . S
C1227 C1225 1.327 . S
C1228 C1216 1.349 . S
C1228 H1222 0.950 . S
C1228 C1229 1.327 . S
C1229 H1223 0.950 . S
C1229 C1228 1.327 . S
C1229 C1233 1.429 . S
C1230 C1213 1.574 . S
C1230 H1224 0.949 . S
C1230 C1234 1.368 . S
C1231 C1212 1.429 . S
C1231 C1225 1.429 . S
C1231 C1232 1.523 . S
C1232 C1213 1.368 . S
C1232 C1226 1.368 . S
C1232 C1231 1.523 . S
C1233 C1217 1.429 . S
C1233 C1229 1.429 . S
C1233 C1234 1.523 . S
C1234 C1218 1.368 . S
C1234 C1230 1.368 . S
C1234 C1233 1.523 . S
H1235 C1210 0.950 . S
H1236 C1212 0.950 . S
H1237 C1213 0.949 . S
H1238 C1215 0.950 . S
H1239 C1217 0.950 . S
C1240 C1241 1.349 . S
C1240 C1242 1.327 . S
C1240 H1265 0.950 . S
C1241 C1240 1.349 . S
C1241 C1257 1.349 . S
C1242 C1240 1.327 . S
C1242 C1261 1.429 . S
C1242 H1266 0.950 . S
C1243 C1260 1.574 . S
C1243 C1262 1.368 . S
C1243 H1267 0.949 . S
H1244 C1248 0.949 . S
C1245 C1246 1.349 . S
C1245 C1247 1.327 . S
C1245 H1268 0.950 . S
C1246 C1245 1.349 . S
C1246 C1258 1.349 . S
C1247 C1245 1.327 . S
C1247 C1263 1.429 . S
C1247 H1269 0.950 . S
C1248 H1244 0.949 . S
C1248 C1256 1.574 . S
C1248 C1264 1.368 . S
H1249 C1257 0.950 . S
H1250 C1255 0.950 . S
H1251 C1256 0.949 . S
H1252 C1258 0.950 . S
H1253 C1259 0.950 . S
H1254 C1260 0.949 . S
C1255 H1250 0.950 . S
C1255 C1257 1.327 . S
C1255 C1261 1.429 . S
C1256 C1248 1.574 . S
C1256 H1251 0.949 . S
C1256 C1262 1.368 . S
C1257 C1241 1.349 . S
C1257 H1249 0.950 . S
C1257 C1255 1.327 . S
C1258 C1246 1.349 . S
C1258 H1252 0.950 . S
C1258 C1259 1.327 . S
C1259 H1253 0.950 . S
C1259 C1258 1.327 . S
C1259 C1263 1.429 . S
C1260 C1243 1.574 . S
C1260 H1254 0.949 . S
C1260 C1264 1.368 . S
C1261 C1242 1.429 . S
C1261 C1255 1.429 . S
C1261 C1262 1.523 . S
C1262 C1243 1.368 . S
C1262 C1256 1.368 . S
C1262 C1261 1.523 . S
C1263 C1247 1.429 . S
C1263 C1259 1.429 . S
C1263 C1264 1.523 . S
C1264 C1248 1.368 . S
C1264 C1260 1.368 . S
C1264 C1263 1.523 . S
H1265 C1240 0.950 . S
H1266 C1242 0.950 . S
H1267 C1243 0.949 . S
H1268 C1245 0.950 . S
H1269 C1247 0.950 . S
C1270 C1271 1.349 . S
C1270 C1272 1.327 . S
C1270 H1295 0.950 . S
C1271 C1270 1.349 . S
C1271 C1287 1.349 . S
C1272 C1270 1.327 . S
C1272 C1291 1.429 . S
C1272 H1296 0.950 . S
C1273 C1290 1.574 . S
C1273 C1292 1.368 . S
C1273 H1297 0.949 . S
H1274 C1278 0.949 . S
C1275 C1276 1.349 . S
C1275 C1277 1.327 . S
C1275 H1298 0.950 . S
C1276 C1275 1.349 . S
C1276 C1288 1.349 . S
C1277 C1275 1.327 . S
C1277 C1293 1.429 . S
C1277 H1299 0.950 . S
C1278 H1274 0.949 . S
C1278 C1286 1.574 . S
C1278 C1294 1.368 . S
H1279 C1287 0.950 . S
H1280 C1285 0.950 . S
H1281 C1286 0.949 . S
H1282 C1288 0.950 . S
H1283 C1289 0.950 . S
H1284 C1290 0.949 . S
C1285 H1280 0.950 . S
C1285 C1287 1.327 . S
C1285 C1291 1.429 . S
C1286 C1278 1.574 . S
C1286 H1281 0.949 . S
C1286 C1292 1.368 . S
C1287 C1271 1.349 . S
C1287 H1279 0.950 . S
C1287 C1285 1.327 . S
C1288 C1276 1.349 . S
C1288 H1282 0.950 . S
C1288 C1289 1.327 . S
C1289 H1283 0.950 . S
C1289 C1288 1.327 . S
C1289 C1293 1.429 . S
C1290 C1273 1.574 . S
C1290 H1284 0.949 . S
C1290 C1294 1.368 . S
C1291 C1272 1.429 . S
C1291 C1285 1.429 . S
C1291 C1292 1.523 . S
C1292 C1273 1.368 . S
C1292 C1286 1.368 . S
C1292 C1291 1.523 . S
C1293 C1277 1.429 . S
C1293 C1289 1.429 . S
C1293 C1294 1.523 . S
C1294 C1278 1.368 . S
C1294 C1290 1.368 . S
C1294 C1293 1.523 . S
H1295 C1270 0.950 . S
H1296 C1272 0.950 . S
H1297 C1273 0.949 . S
H1298 C1275 0.950 . S
H1299 C1277 0.950 . S
C1300 C1301 1.349 . S
C1300 C1302 1.327 . S
C1300 H1325 0.950 . S
C1301 C1300 1.349 . S
C1301 C1317 1.349 . S
C1302 C1300 1.327 . S
C1302 C1321 1.429 . S
C1302 H1326 0.950 . S
C1303 C1320 1.574 . S
C1303 C1322 1.368 . S
C1303 H1327 0.949 . S
H1304 C1308 0.949 . S
C1305 C1306 1.349 . S
C1305 C1307 1.327 . S
C1305 H1328 0.950 . S
C1306 C1305 1.349 . S
C1306 C1318 1.349 . S
C1307 C1305 1.327 . S
C1307 C1323 1.429 . S
C1307 H1329 0.950 . S
C1308 H1304 0.949 . S
C1308 C1316 1.574 . S
C1308 C1324 1.368 . S
H1309 C1317 0.950 . S
H1310 C1315 0.950 . S
H1311 C1316 0.949 . S
H1312 C1318 0.950 . S
H1313 C1319 0.950 . S
H1314 C1320 0.949 . S
C1315 H1310 0.950 . S
C1315 C1317 1.327 . S
C1315 C1321 1.429 . S
C1316 C1308 1.574 . S
C1316 H1311 0.949 . S
C1316 C1322 1.368 . S
C1317 C1301 1.349 . S
C1317 H1309 0.950 . S
C1317 C1315 1.327 . S
C1318 C1306 1.349 . S
C1318 H1312 0.950 . S
C1318 C1319 1.327 . S
C1319 H1313 0.950 . S
C1319 C1318 1.327 . S
C1319 C1323 1.429 . S
C1320 C1303 1.574 . S
C1320 H1314 0.949 . S
C1320 C1324 1.368 . S
C1321 C1302 1.429 . S
C1321 C1315 1.429 . S
C1321 C1322 1.523 . S
C1322 C1303 1.368 . S
C1322 C1316 1.368 . S
C1322 C1321 1.523 . S
C1323 C1307 1.429 . S
C1323 C1319 1.429 . S
C1323 C1324 1.523 . S
C1324 C1308 1.368 . S
C1324 C1320 1.368 . S
C1324 C1323 1.523 . S
H1325 C1300 0.950 . S
H1326 C1302 0.950 . S
H1327 C1303 0.949 . S
H1328 C1305 0.950 . S
H1329 C1307 0.950 . S
C1330 C1331 1.349 . S
C1330 C1332 1.327 . S
C1330 H1355 0.950 . S
C1331 C1330 1.349 . S
C1331 C1347 1.349 . S
C1332 C1330 1.327 . S
C1332 C1351 1.429 . S
C1332 H1356 0.950 . S
C1333 C1350 1.574 . S
C1333 C1352 1.368 . S
C1333 H1357 0.949 . S
H1334 C1338 0.949 . S
C1335 C1336 1.349 . S
C1335 C1337 1.327 . S
C1335 H1358 0.950 . S
C1336 C1335 1.349 . S
C1336 C1348 1.349 . S
C1337 C1335 1.327 . S
C1337 C1353 1.429 . S
C1337 H1359 0.950 . S
C1338 H1334 0.949 . S
C1338 C1346 1.574 . S
C1338 C1354 1.368 . S
H1339 C1347 0.950 . S
H1340 C1345 0.950 . S
H1341 C1346 0.949 . S
H1342 C1348 0.950 . S
H1343 C1349 0.950 . S
H1344 C1350 0.949 . S
C1345 H1340 0.950 . S
C1345 C1347 1.327 . S
C1345 C1351 1.429 . S
C1346 C1338 1.574 . S
C1346 H1341 0.949 . S
C1346 C1352 1.368 . S
C1347 C1331 1.349 . S
C1347 H1339 0.950 . S
C1347 C1345 1.327 . S
C1348 C1336 1.349 . S
C1348 H1342 0.950 . S
C1348 C1349 1.327 . S
C1349 H1343 0.950 . S
C1349 C1348 1.327 . S
C1349 C1353 1.429 . S
C1350 C1333 1.574 . S
C1350 H1344 0.949 . S
C1350 C1354 1.368 . S
C1351 C1332 1.429 . S
C1351 C1345 1.429 . S
C1351 C1352 1.523 . S
C1352 C1333 1.368 . S
C1352 C1346 1.368 . S
C1352 C1351 1.523 . S
C1353 C1337 1.429 . S
C1353 C1349 1.429 . S
C1353 C1354 1.523 . S
C1354 C1338 1.368 . S
C1354 C1350 1.368 . S
C1354 C1353 1.523 . S
H1355 C1330 0.950 . S
H1356 C1332 0.950 . S
H1357 C1333 0.949 . S
H1358 C1335 0.950 . S
H1359 C1337 0.950 . S
C1360 C1361 1.349 . S
C1360 C1362 1.327 . S
C1360 H1385 0.950 . S
C1361 C1360 1.349 . S
C1361 C1377 1.349 . S
C1362 C1360 1.327 . S
C1362 C1381 1.429 . S
C1362 H1386 0.950 . S
C1363 C1380 1.574 . S
C1363 C1382 1.368 . S
C1363 H1387 0.949 . S
H1364 C1368 0.949 . S
C1365 C1366 1.354 . S
C1365 C1367 1.327 . S
C1365 H1388 0.950 1_565 S
C1366 C1365 1.354 . S
C1366 C1378 1.357 . S
C1367 C1365 1.327 . S
C1367 C1383 1.429 . S
C1367 H1389 0.950 . S
C1368 H1364 0.949 . S
C1368 C1376 1.574 . S
C1368 C1384 1.368 . S
H1369 C1377 0.950 . S
H1370 C1375 0.950 . S
H1371 C1376 0.949 . S
H1372 C1378 0.950 . S
H1373 C1379 0.950 . S
H1374 C1380 0.949 . S
C1375 H1370 0.950 . S
C1375 C1377 1.327 . S
C1375 C1381 1.429 . S
C1376 C1368 1.574 . S
C1376 H1371 0.949 . S
C1376 C1382 1.368 . S
C1377 C1361 1.349 . S
C1377 H1369 0.950 . S
C1377 C1375 1.327 . S
C1378 C1366 1.357 . S
C1378 H1372 0.950 . S
C1378 C1379 1.327 . S
C1379 H1373 0.950 . S
C1379 C1378 1.327 . S
C1379 C1383 1.429 . S
C1380 C1363 1.574 . S
C1380 H1374 0.949 . S
C1380 C1384 1.368 . S
C1381 C1362 1.429 . S
C1381 C1375 1.429 . S
C1381 C1382 1.523 . S
C1382 C1363 1.368 . S
C1382 C1376 1.368 . S
C1382 C1381 1.523 . S
C1383 C1367 1.429 . S
C1383 C1379 1.429 . S
C1383 C1384 1.523 . S
C1384 C1368 1.368 . S
C1384 C1380 1.368 . S
C1384 C1383 1.523 . S
H1385 C1360 0.950 . S
H1386 C1362 0.950 . S
H1387 C1363 0.949 . S
H1388 C1365 0.950 1_545 S
H1389 C1367 0.950 . S
C1390 C1391 1.349 . S
C1390 C1392 1.327 . S
C1390 H1415 0.950 . S
C1391 C1390 1.349 . S
C1391 C1407 1.349 . S
C1392 C1390 1.327 . S
C1392 C1411 1.429 . S
C1392 H1416 0.950 . S
C1393 C1410 1.574 . S
C1393 C1412 1.368 . S
C1393 H1417 0.949 . S
H1394 C1398 0.949 . S
C1395 C1396 1.349 . S
C1395 C1397 1.327 . S
C1395 H1418 0.950 . S
C1396 C1395 1.349 . S
C1396 C1408 1.349 . S
C1397 C1395 1.327 . S
C1397 C1413 1.429 . S
C1397 H1419 0.950 . S
C1398 H1394 0.949 . S
C1398 C1406 1.574 . S
C1398 C1414 1.368 . S
H1399 C1407 0.950 . S
H1400 C1405 0.950 . S
H1401 C1406 0.949 . S
H1402 C1408 0.950 . S
H1403 C1409 0.950 . S
H1404 C1410 0.949 . S
C1405 H1400 0.950 . S
C1405 C1407 1.327 . S
C1405 C1411 1.429 . S
C1406 C1398 1.574 . S
C1406 H1401 0.949 . S
C1406 C1412 1.368 . S
C1407 C1391 1.349 . S
C1407 H1399 0.950 . S
C1407 C1405 1.327 . S
C1408 C1396 1.349 . S
C1408 H1402 0.950 . S
C1408 C1409 1.327 . S
C1409 H1403 0.950 . S
C1409 C1408 1.327 . S
C1409 C1413 1.429 . S
C1410 C1393 1.574 . S
C1410 H1404 0.949 . S
C1410 C1414 1.368 . S
C1411 C1392 1.429 . S
C1411 C1405 1.429 . S
C1411 C1412 1.523 . S
C1412 C1393 1.368 . S
C1412 C1406 1.368 . S
C1412 C1411 1.523 . S
C1413 C1397 1.429 . S
C1413 C1409 1.429 . S
C1413 C1414 1.523 . S
C1414 C1398 1.368 . S
C1414 C1410 1.368 . S
C1414 C1413 1.523 . S
H1415 C1390 0.950 . S
H1416 C1392 0.950 . S
H1417 C1393 0.949 . S
H1418 C1395 0.950 . S
H1419 C1397 0.950 . S
C1420 C1421 1.359 . S
C1420 C1422 1.327 . S
C1420 H1445 0.950 . S
C1421 C1420 1.359 . S
C1421 C1437 1.352 . S
C1422 C1420 1.327 . S
C1422 C1441 1.429 . S
C1422 H1446 0.950 . S
C1423 C1440 1.574 . S
C1423 C1442 1.368 . S
C1423 H1447 0.949 . S
H1424 C1428 0.949 . S
C1425 C1426 1.349 . S
C1425 C1427 1.327 . S
C1425 H1448 0.950 . S
C1426 C1425 1.349 . S
C1426 C1438 1.349 . S
C1427 C1425 1.327 . S
C1427 C1443 1.429 . S
C1427 H1449 0.950 . S
C1428 H1424 0.949 . S
C1428 C1436 1.574 . S
C1428 C1444 1.368 . S
H1429 C1437 0.950 1_565 S
H1430 C1435 0.950 . S
H1431 C1436 0.949 . S
H1432 C1438 0.950 . S
H1433 C1439 0.950 . S
H1434 C1440 0.949 . S
C1435 H1430 0.950 . S
C1435 C1437 1.327 . S
C1435 C1441 1.429 . S
C1436 C1428 1.574 . S
C1436 H1431 0.949 . S
C1436 C1442 1.368 . S
C1437 C1421 1.352 . S
C1437 H1429 0.950 1_545 S
C1437 C1435 1.327 . S
C1438 C1426 1.349 . S
C1438 H1432 0.950 . S
C1438 C1439 1.327 . S
C1439 H1433 0.950 . S
C1439 C1438 1.327 . S
C1439 C1443 1.429 . S
C1440 C1423 1.574 . S
C1440 H1434 0.949 . S
C1440 C1444 1.368 . S
C1441 C1422 1.429 . S
C1441 C1435 1.429 . S
C1441 C1442 1.523 . S
C1442 C1423 1.368 . S
C1442 C1436 1.368 . S
C1442 C1441 1.523 . S
C1443 C1427 1.429 . S
C1443 C1439 1.429 . S
C1443 C1444 1.523 . S
C1444 C1428 1.368 . S
C1444 C1440 1.368 . S
C1444 C1443 1.523 . S
H1445 C1420 0.950 . S
H1446 C1422 0.950 . S
H1447 C1423 0.949 . S
H1448 C1425 0.950 . S
H1449 C1427 0.950 . S
C1450 C1451 1.349 . S
C1450 C1452 1.327 . S
C1450 H1475 0.950 . S
C1451 C1450 1.349 . S
C1451 C1467 1.349 . S
C1452 C1450 1.327 . S
C1452 C1471 1.429 . S
C1452 H1476 0.950 . S
C1453 C1470 1.574 . S
C1453 C1472 1.368 . S
C1453 H1477 0.949 . S
H1454 C1458 0.949 . S
C1455 C1456 1.349 . S
C1455 C1457 1.327 . S
C1455 H1478 0.950 . S
C1456 C1455 1.349 . S
C1456 C1468 1.349 . S
C1457 C1455 1.327 . S
C1457 C1473 1.429 . S
C1457 H1479 0.950 . S
C1458 H1454 0.949 . S
C1458 C1466 1.574 . S
C1458 C1474 1.368 . S
H1459 C1467 0.950 . S
H1460 C1465 0.950 . S
H1461 C1466 0.949 . S
H1462 C1468 0.950 . S
H1463 C1469 0.950 . S
H1464 C1470 0.949 . S
C1465 H1460 0.950 . S
C1465 C1467 1.327 . S
C1465 C1471 1.429 . S
C1466 C1458 1.574 . S
C1466 H1461 0.949 . S
C1466 C1472 1.368 . S
C1467 C1451 1.349 . S
C1467 H1459 0.950 . S
C1467 C1465 1.327 . S
C1468 C1456 1.349 . S
C1468 H1462 0.950 . S
C1468 C1469 1.327 . S
C1469 H1463 0.950 . S
C1469 C1468 1.327 . S
C1469 C1473 1.429 . S
C1470 C1453 1.574 . S
C1470 H1464 0.949 . S
C1470 C1474 1.368 . S
C1471 C1452 1.429 . S
C1471 C1465 1.429 . S
C1471 C1472 1.523 . S
C1472 C1453 1.368 . S
C1472 C1466 1.368 . S
C1472 C1471 1.523 . S
C1473 C1457 1.429 . S
C1473 C1469 1.429 . S
C1473 C1474 1.523 . S
C1474 C1458 1.368 . S
C1474 C1470 1.368 . S
C1474 C1473 1.523 . S
H1475 C1450 0.950 . S
H1476 C1452 0.950 . S
H1477 C1453 0.949 . S
H1478 C1455 0.950 . S
H1479 C1457 0.950 . S
C1480 C1481 1.349 . S
C1480 C1482 1.327 . S
C1480 H1505 0.950 . S
C1481 C1480 1.349 . S
C1481 C1497 1.349 . S
C1482 C1480 1.327 . S
C1482 C1501 1.429 . S
C1482 H1506 0.950 . S
C1483 C1500 1.574 . S
C1483 C1502 1.368 . S
C1483 H1507 0.949 . S
H1484 C1488 0.949 . S
C1485 C1486 1.352 . S
C1485 C1487 1.327 . S
C1485 H1508 0.950 1_545 S
C1486 C1485 1.352 . S
C1486 C1498 1.359 . S
C1487 C1485 1.327 . S
C1487 C1503 1.429 . S
C1487 H1509 0.950 . S
C1488 H1484 0.949 . S
C1488 C1496 1.574 . S
C1488 C1504 1.368 . S
H1489 C1497 0.950 . S
H1490 C1495 0.950 . S
H1491 C1496 0.949 . S
H1492 C1498 0.950 . S
H1493 C1499 0.950 . S
H1494 C1500 0.949 . S
C1495 H1490 0.950 . S
C1495 C1497 1.327 . S
C1495 C1501 1.429 . S
C1496 C1488 1.574 . S
C1496 H1491 0.949 . S
C1496 C1502 1.368 . S
C1497 C1481 1.349 . S
C1497 H1489 0.950 . S
C1497 C1495 1.327 . S
C1498 C1486 1.359 . S
C1498 H1492 0.950 . S
C1498 C1499 1.327 . S
C1499 H1493 0.950 . S
C1499 C1498 1.327 . S
C1499 C1503 1.429 . S
C1500 C1483 1.574 . S
C1500 H1494 0.949 . S
C1500 C1504 1.368 . S
C1501 C1482 1.429 . S
C1501 C1495 1.429 . S
C1501 C1502 1.523 . S
C1502 C1483 1.368 . S
C1502 C1496 1.368 . S
C1502 C1501 1.523 . S
C1503 C1487 1.429 . S
C1503 C1499 1.429 . S
C1503 C1504 1.523 . S
C1504 C1488 1.368 . S
C1504 C1500 1.368 . S
C1504 C1503 1.523 . S
H1505 C1480 0.950 . S
H1506 C1482 0.950 . S
H1507 C1483 0.949 . S
H1508 C1485 0.950 1_565 S
H1509 C1487 0.950 . S
C1510 C1511 1.349 . S
C1510 C1512 1.327 . S
C1510 H1535 0.950 . S
C1511 C1510 1.349 . S
C1511 C1527 1.349 . S
C1512 C1510 1.327 . S
C1512 C1531 1.429 . S
C1512 H1536 0.950 . S
C1513 C1530 1.574 . S
C1513 C1532 1.368 . S
C1513 H1537 0.949 . S
H1514 C1518 0.949 . S
C1515 C1516 1.349 . S
C1515 C1517 1.327 . S
C1515 H1538 0.950 . S
C1516 C1515 1.349 . S
C1516 C1528 1.349 . S
C1517 C1515 1.327 . S
C1517 C1533 1.429 . S
C1517 H1539 0.950 . S
C1518 H1514 0.949 . S
C1518 C1526 1.574 . S
C1518 C1534 1.368 . S
H1519 C1527 0.950 . S
H1520 C1525 0.950 . S
H1521 C1526 0.949 . S
H1522 C1528 0.950 . S
H1523 C1529 0.950 . S
H1524 C1530 0.949 . S
C1525 H1520 0.950 . S
C1525 C1527 1.327 . S
C1525 C1531 1.429 . S
C1526 C1518 1.574 . S
C1526 H1521 0.949 . S
C1526 C1532 1.368 . S
C1527 C1511 1.349 . S
C1527 H1519 0.950 . S
C1527 C1525 1.327 . S
C1528 C1516 1.349 . S
C1528 H1522 0.950 . S
C1528 C1529 1.327 . S
C1529 H1523 0.950 . S
C1529 C1528 1.327 . S
C1529 C1533 1.429 . S
C1530 C1513 1.574 . S
C1530 H1524 0.949 . S
C1530 C1534 1.368 . S
C1531 C1512 1.429 . S
C1531 C1525 1.429 . S
C1531 C1532 1.523 . S
C1532 C1513 1.368 . S
C1532 C1526 1.368 . S
C1532 C1531 1.523 . S
C1533 C1517 1.429 . S
C1533 C1529 1.429 . S
C1533 C1534 1.523 . S
C1534 C1518 1.368 . S
C1534 C1530 1.368 . S
C1534 C1533 1.523 . S
H1535 C1510 0.950 . S
H1536 C1512 0.950 . S
H1537 C1513 0.949 . S
H1538 C1515 0.950 . S
H1539 C1517 0.950 . S
C1540 C1541 1.357 . S
C1540 C1542 1.327 . S
C1540 H1565 0.950 . S
C1541 C1540 1.357 . S
C1541 C1557 1.354 . S
C1542 C1540 1.327 . S
C1542 C1561 1.429 . S
C1542 H1566 0.950 . S
C1543 C1560 1.574 . S
C1543 C1562 1.368 . S
C1543 H1567 0.949 . S
H1544 C1548 0.949 . S
C1545 C1546 1.349 . S
C1545 C1547 1.327 . S
C1545 H1568 0.950 . S
C1546 C1545 1.349 . S
C1546 C1558 1.349 . S
C1547 C1545 1.327 . S
C1547 C1563 1.429 . S
C1547 H1569 0.950 . S
C1548 H1544 0.949 . S
C1548 C1556 1.574 . S
C1548 C1564 1.368 . S
H1549 C1557 0.936 1_545 S
H1550 C1555 0.950 . S
H1551 C1556 0.949 . S
H1552 C1558 0.950 . S
H1553 C1559 0.950 . S
H1554 C1560 0.949 . S
C1555 H1550 0.950 . S
C1555 C1557 1.327 . S
C1555 C1561 1.429 . S
C1556 C1548 1.574 . S
C1556 H1551 0.949 . S
C1556 C1562 1.368 . S
C1557 C1541 1.354 . S
C1557 H1549 0.936 1_565 S
C1557 C1555 1.327 . S
C1558 C1546 1.349 . S
C1558 H1552 0.950 . S
C1558 C1559 1.327 . S
C1559 H1553 0.950 . S
C1559 C1558 1.327 . S
C1559 C1563 1.429 . S
C1560 C1543 1.574 . S
C1560 H1554 0.949 . S
C1560 C1564 1.368 . S
C1561 C1542 1.429 . S
C1561 C1555 1.429 . S
C1561 C1562 1.523 . S
C1562 C1543 1.368 . S
C1562 C1556 1.368 . S
C1562 C1561 1.523 . S
C1563 C1547 1.429 . S
C1563 C1559 1.429 . S
C1563 C1564 1.523 . S
C1564 C1548 1.368 . S
C1564 C1560 1.368 . S
C1564 C1563 1.523 . S
H1565 C1540 0.950 . S
H1566 C1542 0.950 . S
H1567 C1543 0.949 . S
H1568 C1545 0.950 . S
H1569 C1547 0.950 . S
C1570 C1571 1.349 . S
C1570 C1572 1.327 . S
C1570 H1595 0.950 . S
C1571 C1570 1.349 . S
C1571 C1587 1.349 . S
C1572 C1570 1.327 . S
C1572 C1591 1.429 . S
C1572 H1596 0.950 . S
C1573 C1590 1.574 . S
C1573 C1592 1.368 . S
C1573 H1597 0.949 . S
H1574 C1578 0.949 . S
C1575 C1576 1.349 . S
C1575 C1577 1.327 . S
C1575 H1598 0.950 . S
C1576 C1575 1.349 . S
C1576 C1588 1.349 . S
C1577 C1575 1.327 . S
C1577 C1593 1.429 . S
C1577 H1599 0.950 . S
C1578 H1574 0.949 . S
C1578 C1586 1.574 . S
C1578 C1594 1.368 . S
H1579 C1587 0.950 . S
H1580 C1585 0.950 . S
H1581 C1586 0.949 . S
H1582 C1588 0.950 . S
H1583 C1589 0.950 . S
H1584 C1590 0.949 . S
C1585 H1580 0.950 . S
C1585 C1587 1.327 . S
C1585 C1591 1.429 . S
C1586 C1578 1.574 . S
C1586 H1581 0.949 . S
C1586 C1592 1.368 . S
C1587 C1571 1.349 . S
C1587 H1579 0.950 . S
C1587 C1585 1.327 . S
C1588 C1576 1.349 . S
C1588 H1582 0.950 . S
C1588 C1589 1.327 . S
C1589 H1583 0.950 . S
C1589 C1588 1.327 . S
C1589 C1593 1.429 . S
C1590 C1573 1.574 . S
C1590 H1584 0.949 . S
C1590 C1594 1.368 . S
C1591 C1572 1.429 . S
C1591 C1585 1.429 . S
C1591 C1592 1.523 . S
C1592 C1573 1.368 . S
C1592 C1586 1.368 . S
C1592 C1591 1.523 . S
C1593 C1577 1.429 . S
C1593 C1589 1.429 . S
C1593 C1594 1.523 . S
C1594 C1578 1.368 . S
C1594 C1590 1.368 . S
C1594 C1593 1.523 . S
H1595 C1570 0.950 . S
H1596 C1572 0.950 . S
H1597 C1573 0.949 . S
H1598 C1575 0.950 . S
H1599 C1577 0.950 . S
C1600 C1601 1.349 . S
C1600 C1602 1.320 1_554 S
C1600 H1625 0.950 . S
C1601 C1600 1.349 . S
C1601 C1617 1.283 1_554 S
C1602 C1600 1.320 1_556 S
C1602 C1621 1.436 . S
C1602 H1626 0.949 1_556 S
C1603 C1620 1.574 . S
C1603 C1622 1.368 . S
C1603 H1627 0.949 . S
H1604 C1608 0.949 . S
C1605 C1606 1.349 . S
C1605 C1607 1.327 . S
C1605 H1628 0.950 . S
C1606 C1605 1.349 . S
C1606 C1618 1.349 . S
C1607 C1605 1.327 . S
C1607 C1623 1.429 . S
C1607 H1629 0.950 . S
C1608 H1604 0.949 . S
C1608 C1616 1.574 . S
C1608 C1624 1.368 . S
H1609 C1617 0.953 . S
H1610 C1615 0.950 . S
H1611 C1616 0.949 . S
H1612 C1618 0.950 . S
H1613 C1619 0.950 . S
H1614 C1620 0.949 . S
C1615 H1610 0.950 . S
C1615 C1617 1.394 . S
C1615 C1621 1.429 . S
C1616 C1608 1.574 . S
C1616 H1611 0.949 . S
C1616 C1622 1.368 . S
C1617 C1601 1.283 1_556 S
C1617 H1609 0.953 . S
C1617 C1615 1.394 . S
C1618 C1606 1.349 . S
C1618 H1612 0.950 . S
C1618 C1619 1.327 . S
C1619 H1613 0.950 . S
C1619 C1618 1.327 . S
C1619 C1623 1.429 . S
C1620 C1603 1.574 . S
C1620 H1614 0.949 . S
C1620 C1624 1.368 . S
C1621 C1602 1.436 . S
C1621 C1615 1.429 . S
C1621 C1622 1.523 . S
C1622 C1603 1.368 . S
C1622 C1616 1.368 . S
C1622 C1621 1.523 . S
C1623 C1607 1.429 . S
C1623 C1619 1.429 . S
C1623 C1624 1.523 . S
C1624 C1608 1.368 . S
C1624 C1620 1.368 . S
C1624 C1623 1.523 . S
H1625 C1600 0.950 . S
H1626 C1602 0.949 1_554 S
H1627 C1603 0.949 . S
H1628 C1605 0.950 . S
H1629 C1607 0.950 . S
C1630 C1631 1.349 . S
C1630 C1632 1.327 . S
C1630 H1655 0.950 . S
C1631 C1630 1.349 . S
C1631 C1647 1.349 . S
C1632 C1630 1.327 . S
C1632 C1651 1.429 . S
C1632 H1656 0.950 . S
C1633 C1650 1.574 . S
C1633 C1652 1.368 . S
C1633 H1657 0.949 . S
H1634 C1638 0.949 . S
C1635 C1636 1.349 . S
C1635 C1637 1.327 . S
C1635 H1658 0.950 . S
C1636 C1635 1.349 . S
C1636 C1648 1.349 . S
C1637 C1635 1.327 . S
C1637 C1653 1.429 . S
C1637 H1659 0.950 . S
C1638 H1634 0.949 . S
C1638 C1646 1.574 . S
C1638 C1654 1.368 . S
H1639 C1647 0.950 . S
H1640 C1645 0.950 . S
H1641 C1646 0.949 . S
H1642 C1648 0.950 . S
H1643 C1649 0.950 . S
H1644 C1650 0.949 . S
C1645 H1640 0.950 . S
C1645 C1647 1.327 . S
C1645 C1651 1.429 . S
C1646 C1638 1.574 . S
C1646 H1641 0.949 . S
C1646 C1652 1.368 . S
C1647 C1631 1.349 . S
C1647 H1639 0.950 . S
C1647 C1645 1.327 . S
C1648 C1636 1.349 . S
C1648 H1642 0.950 . S
C1648 C1649 1.327 . S
C1649 H1643 0.950 . S
C1649 C1648 1.327 . S
C1649 C1653 1.429 . S
C1650 C1633 1.574 . S
C1650 H1644 0.949 . S
C1650 C1654 1.368 . S
C1651 C1632 1.429 . S
C1651 C1645 1.429 . S
C1651 C1652 1.523 . S
C1652 C1633 1.368 . S
C1652 C1646 1.368 . S
C1652 C1651 1.523 . S
C1653 C1637 1.429 . S
C1653 C1649 1.429 . S
C1653 C1654 1.523 . S
C1654 C1638 1.368 . S
C1654 C1650 1.368 . S
C1654 C1653 1.523 . S
H1655 C1630 0.950 . S
H1656 C1632 0.950 . S
H1657 C1633 0.949 . S
H1658 C1635 0.950 . S
H1659 C1637 0.950 . S
C1660 C1661 1.349 . S
C1660 C1662 1.327 . S
C1660 H1685 0.950 . S
C1661 C1660 1.349 . S
C1661 C1677 1.349 . S
C1662 C1660 1.327 . S
C1662 C1681 1.429 . S
C1662 H1686 0.950 . S
C1663 C1680 1.574 . S
C1663 C1682 1.368 . S
C1663 H1687 0.949 . S
H1664 C1668 0.949 . S
C1665 C1666 1.349 . S
C1665 C1667 1.327 . S
C1665 H1688 0.950 . S
C1666 C1665 1.349 . S
C1666 C1678 1.349 . S
C1667 C1665 1.327 . S
C1667 C1683 1.429 . S
C1667 H1689 0.950 . S
C1668 H1664 0.949 . S
C1668 C1676 1.574 . S
C1668 C1684 1.368 . S
H1669 C1677 0.950 . S
H1670 C1675 0.950 . S
H1671 C1676 0.949 . S
H1672 C1678 0.950 . S
H1673 C1679 0.950 . S
H1674 C1680 0.949 . S
C1675 H1670 0.950 . S
C1675 C1677 1.327 . S
C1675 C1681 1.429 . S
C1676 C1668 1.574 . S
C1676 H1671 0.949 . S
C1676 C1682 1.368 . S
C1677 C1661 1.349 . S
C1677 H1669 0.950 . S
C1677 C1675 1.327 . S
C1678 C1666 1.349 . S
C1678 H1672 0.950 . S
C1678 C1679 1.327 . S
C1679 H1673 0.950 . S
C1679 C1678 1.327 . S
C1679 C1683 1.429 . S
C1680 C1663 1.574 . S
C1680 H1674 0.949 . S
C1680 C1684 1.368 . S
C1681 C1662 1.429 . S
C1681 C1675 1.429 . S
C1681 C1682 1.523 . S
C1682 C1663 1.368 . S
C1682 C1676 1.368 . S
C1682 C1681 1.523 . S
C1683 C1667 1.429 . S
C1683 C1679 1.429 . S
C1683 C1684 1.523 . S
C1684 C1668 1.368 . S
C1684 C1680 1.368 . S
C1684 C1683 1.523 . S
H1685 C1660 0.950 . S
H1686 C1662 0.950 . S
H1687 C1663 0.949 . S
H1688 C1665 0.950 . S
H1689 C1667 0.950 . S
C1690 C1691 1.349 . S
C1690 C1692 1.327 . S
C1690 H1715 0.950 . S
C1691 C1690 1.349 . S
C1691 C1707 1.349 . S
C1692 C1690 1.327 . S
C1692 C1711 1.429 . S
C1692 H1716 0.950 . S
C1693 C1710 1.574 . S
C1693 C1712 1.368 . S
C1693 H1717 0.949 . S
H1694 C1698 0.949 . S
C1695 C1696 1.349 . S
C1695 C1697 1.327 . S
C1695 H1718 0.950 . S
C1696 C1695 1.349 . S
C1696 C1708 1.349 . S
C1697 C1695 1.327 . S
C1697 C1713 1.429 . S
C1697 H1719 0.950 . S
C1698 H1694 0.949 . S
C1698 C1706 1.574 . S
C1698 C1714 1.368 . S
H1699 C1707 0.950 . S
H1700 C1705 0.950 . S
H1701 C1706 0.949 . S
H1702 C1708 0.950 . S
H1703 C1709 0.950 . S
H1704 C1710 0.949 . S
C1705 H1700 0.950 . S
C1705 C1707 1.327 . S
C1705 C1711 1.429 . S
C1706 C1698 1.574 . S
C1706 H1701 0.949 . S
C1706 C1712 1.368 . S
C1707 C1691 1.349 . S
C1707 H1699 0.950 . S
C1707 C1705 1.327 . S
C1708 C1696 1.349 . S
C1708 H1702 0.950 . S
C1708 C1709 1.327 . S
C1709 H1703 0.950 . S
C1709 C1708 1.327 . S
C1709 C1713 1.429 . S
C1710 C1693 1.574 . S
C1710 H1704 0.949 . S
C1710 C1714 1.368 . S
C1711 C1692 1.429 . S
C1711 C1705 1.429 . S
C1711 C1712 1.523 . S
C1712 C1693 1.368 . S
C1712 C1706 1.368 . S
C1712 C1711 1.523 . S
C1713 C1697 1.429 . S
C1713 C1709 1.429 . S
C1713 C1714 1.523 . S
C1714 C1698 1.368 . S
C1714 C1710 1.368 . S
C1714 C1713 1.523 . S
H1715 C1690 0.950 . S
H1716 C1692 0.950 . S
H1717 C1693 0.949 . S
H1718 C1695 0.950 . S
H1719 C1697 0.950 . S
C1720 C1721 1.349 . S
C1720 C1722 1.327 . S
C1720 H1745 0.950 . S
C1721 C1720 1.349 . S
C1721 C1737 1.349 . S
C1722 C1720 1.327 . S
C1722 C1741 1.429 . S
C1722 H1746 0.950 . S
C1723 C1740 1.574 . S
C1723 C1742 1.368 . S
C1723 H1747 0.949 . S
H1724 C1728 0.949 . S
C1725 C1726 1.349 . S
C1725 C1727 1.293 1_556 S
C1725 H1748 0.950 . S
C1726 C1725 1.349 . S
C1726 C1738 1.311 1_556 S
C1727 C1725 1.293 1_554 S
C1727 C1743 1.464 . S
C1727 H1749 0.949 . S
C1728 H1724 0.949 . S
C1728 C1736 1.574 . S
C1728 C1744 1.368 . S
H1729 C1737 0.950 . S
H1730 C1735 0.950 . S
H1731 C1736 0.949 . S
H1732 C1738 0.950 . S
H1733 C1739 0.950 . S
H1734 C1740 0.949 . S
C1735 H1730 0.950 . S
C1735 C1737 1.327 . S
C1735 C1741 1.429 . S
C1736 C1728 1.574 . S
C1736 H1731 0.949 . S
C1736 C1742 1.368 . S
C1737 C1721 1.349 . S
C1737 H1729 0.950 . S
C1737 C1735 1.327 . S
C1738 C1726 1.311 1_554 S
C1738 H1732 0.950 . S
C1738 C1739 1.367 . S
C1739 H1733 0.950 . S
C1739 C1738 1.367 . S
C1739 C1743 1.429 . S
C1740 C1723 1.574 . S
C1740 H1734 0.949 . S
C1740 C1744 1.368 . S
C1741 C1722 1.429 . S
C1741 C1735 1.429 . S
C1741 C1742 1.523 . S
C1742 C1723 1.368 . S
C1742 C1736 1.368 . S
C1742 C1741 1.523 . S
C1743 C1727 1.464 . S
C1743 C1739 1.429 . S
C1743 C1744 1.523 . S
C1744 C1728 1.368 . S
C1744 C1740 1.368 . S
C1744 C1743 1.523 . S
H1745 C1720 0.950 . S
H1746 C1722 0.950 . S
H1747 C1723 0.949 . S
H1748 C1725 0.950 . S
H1749 C1727 0.949 . S
C1750 C1751 1.349 . S
C1750 C1752 1.327 . S
C1750 H1775 0.950 . S
C1751 C1750 1.349 . S
C1751 C1767 1.349 . S
C1752 C1750 1.327 . S
C1752 C1771 1.429 . S
C1752 H1776 0.950 . S
C1753 C1770 1.574 . S
C1753 C1772 1.368 . S
C1753 H1777 0.949 . S
H1754 C1758 0.949 . S
C1755 C1756 1.349 . S
C1755 C1757 1.327 . S
C1755 H1778 0.950 . S
C1756 C1755 1.349 . S
C1756 C1768 1.349 . S
C1757 C1755 1.327 . S
C1757 C1773 1.429 . S
C1757 H1779 0.950 . S
C1758 H1754 0.949 . S
C1758 C1766 1.574 . S
C1758 C1774 1.368 . S
H1759 C1767 0.950 . S
H1760 C1765 0.950 . S
H1761 C1766 0.949 . S
H1762 C1768 0.950 . S
H1763 C1769 0.950 . S
H1764 C1770 0.949 . S
C1765 H1760 0.950 . S
C1765 C1767 1.327 . S
C1765 C1771 1.429 . S
C1766 C1758 1.574 . S
C1766 H1761 0.949 . S
C1766 C1772 1.368 . S
C1767 C1751 1.349 . S
C1767 H1759 0.950 . S
C1767 C1765 1.327 . S
C1768 C1756 1.349 . S
C1768 H1762 0.950 . S
C1768 C1769 1.327 . S
C1769 H1763 0.950 . S
C1769 C1768 1.327 . S
C1769 C1773 1.429 . S
C1770 C1753 1.574 . S
C1770 H1764 0.949 . S
C1770 C1774 1.368 . S
C1771 C1752 1.429 . S
C1771 C1765 1.429 . S
C1771 C1772 1.523 . S
C1772 C1753 1.368 . S
C1772 C1766 1.368 . S
C1772 C1771 1.523 . S
C1773 C1757 1.429 . S
C1773 C1769 1.429 . S
C1773 C1774 1.523 . S
C1774 C1758 1.368 . S
C1774 C1770 1.368 . S
C1774 C1773 1.523 . S
H1775 C1750 0.950 . S
H1776 C1752 0.950 . S
H1777 C1753 0.949 . S
H1778 C1755 0.950 . S
H1779 C1757 0.950 . S
C1780 C1781 1.349 . S
C1780 C1782 1.327 . S
C1780 H1805 0.950 . S
C1781 C1780 1.349 . S
C1781 C1797 1.349 . S
C1782 C1780 1.327 . S
C1782 C1801 1.429 . S
C1782 H1806 0.950 . S
C1783 C1800 1.574 . S
C1783 C1802 1.368 . S
C1783 H1807 0.949 . S
H1784 C1788 0.949 . S
C1785 C1786 1.349 . S
C1785 C1787 1.327 . S
C1785 H1808 0.950 . S
C1786 C1785 1.349 . S
C1786 C1798 1.349 . S
C1787 C1785 1.327 . S
C1787 C1803 1.429 . S
C1787 H1809 0.950 . S
C1788 H1784 0.949 . S
C1788 C1796 1.574 . S
C1788 C1804 1.368 . S
H1789 C1797 0.950 . S
H1790 C1795 0.950 . S
H1791 C1796 0.949 . S
H1792 C1798 0.950 . S
H1793 C1799 0.950 . S
H1794 C1800 0.949 . S
C1795 H1790 0.950 . S
C1795 C1797 1.327 . S
C1795 C1801 1.429 . S
C1796 C1788 1.574 . S
C1796 H1791 0.949 . S
C1796 C1802 1.368 . S
C1797 C1781 1.349 . S
C1797 H1789 0.950 . S
C1797 C1795 1.327 . S
C1798 C1786 1.349 . S
C1798 H1792 0.950 . S
C1798 C1799 1.327 . S
C1799 H1793 0.950 . S
C1799 C1798 1.327 . S
C1799 C1803 1.429 . S
C1800 C1783 1.574 . S
C1800 H1794 0.949 . S
C1800 C1804 1.368 . S
C1801 C1782 1.429 . S
C1801 C1795 1.429 . S
C1801 C1802 1.523 . S
C1802 C1783 1.368 . S
C1802 C1796 1.368 . S
C1802 C1801 1.523 . S
C1803 C1787 1.429 . S
C1803 C1799 1.429 . S
C1803 C1804 1.523 . S
C1804 C1788 1.368 . S
C1804 C1800 1.368 . S
C1804 C1803 1.523 . S
H1805 C1780 0.950 . S
H1806 C1782 0.950 . S
H1807 C1783 0.949 . S
H1808 C1785 0.950 . S
H1809 C1787 0.950 . S
C1810 C1811 1.349 . S
C1810 C1812 1.327 . S
C1810 H1835 0.950 . S
C1811 C1810 1.349 . S
C1811 C1827 1.349 . S
C1812 C1810 1.327 . S
C1812 C1831 1.429 . S
C1812 H1836 0.950 . S
C1813 C1830 1.574 . S
C1813 C1832 1.368 . S
C1813 H1837 0.949 . S
H1814 C1818 0.949 . S
C1815 C1816 1.349 . S
C1815 C1817 1.327 . S
C1815 H1838 0.950 . S
C1816 C1815 1.349 . S
C1816 C1828 1.349 . S
C1817 C1815 1.327 . S
C1817 C1833 1.429 . S
C1817 H1839 0.950 . S
C1818 H1814 0.949 . S
C1818 C1826 1.574 . S
C1818 C1834 1.368 . S
H1819 C1827 0.950 . S
H1820 C1825 0.950 . S
H1821 C1826 0.949 . S
H1822 C1828 0.950 . S
H1823 C1829 0.950 . S
H1824 C1830 0.949 . S
C1825 H1820 0.950 . S
C1825 C1827 1.327 . S
C1825 C1831 1.429 . S
C1826 C1818 1.574 . S
C1826 H1821 0.949 . S
C1826 C1832 1.368 . S
C1827 C1811 1.349 . S
C1827 H1819 0.950 . S
C1827 C1825 1.327 . S
C1828 C1816 1.349 . S
C1828 H1822 0.950 . S
C1828 C1829 1.327 . S
C1829 H1823 0.950 . S
C1829 C1828 1.327 . S
C1829 C1833 1.429 . S
C1830 C1813 1.574 . S
C1830 H1824 0.949 . S
C1830 C1834 1.368 . S
C1831 C1812 1.429 . S
C1831 C1825 1.429 . S
C1831 C1832 1.523 . S
C1832 C1813 1.368 . S
C1832 C1826 1.368 . S
C1832 C1831 1.523 . S
C1833 C1817 1.429 . S
C1833 C1829 1.429 . S
C1833 C1834 1.523 . S
C1834 C1818 1.368 . S
C1834 C1830 1.368 . S
C1834 C1833 1.523 . S
H1835 C1810 0.950 . S
H1836 C1812 0.950 . S
H1837 C1813 0.949 . S
H1838 C1815 0.950 . S
H1839 C1817 0.950 . S
C1840 C1841 1.349 . S
C1840 C1842 1.327 . S
C1840 H1865 0.950 . S
C1841 C1840 1.349 . S
C1841 C1857 1.349 . S
C1842 C1840 1.327 . S
C1842 C1861 1.429 . S
C1842 H1866 0.950 . S
C1843 C1860 1.574 . S
C1843 C1862 1.368 . S
C1843 H1867 0.949 . S
H1844 C1848 0.949 . S
C1845 C1846 1.349 . S
C1845 C1847 1.327 . S
C1845 H1868 0.950 . S
C1846 C1845 1.349 . S
C1846 C1858 1.349 . S
C1847 C1845 1.327 . S
C1847 C1863 1.429 . S
C1847 H1869 0.950 . S
C1848 H1844 0.949 . S
C1848 C1856 1.574 . S
C1848 C1864 1.368 . S
H1849 C1857 0.950 . S
H1850 C1855 0.950 . S
H1851 C1856 0.949 . S
H1852 C1858 0.950 . S
H1853 C1859 0.950 . S
H1854 C1860 0.949 . S
C1855 H1850 0.950 . S
C1855 C1857 1.327 . S
C1855 C1861 1.429 . S
C1856 C1848 1.574 . S
C1856 H1851 0.949 . S
C1856 C1862 1.368 . S
C1857 C1841 1.349 . S
C1857 H1849 0.950 . S
C1857 C1855 1.327 . S
C1858 C1846 1.349 . S
C1858 H1852 0.950 . S
C1858 C1859 1.327 . S
C1859 H1853 0.950 . S
C1859 C1858 1.327 . S
C1859 C1863 1.429 . S
C1860 C1843 1.574 . S
C1860 H1854 0.949 . S
C1860 C1864 1.368 . S
C1861 C1842 1.429 . S
C1861 C1855 1.429 . S
C1861 C1862 1.523 . S
C1862 C1843 1.368 . S
C1862 C1856 1.368 . S
C1862 C1861 1.523 . S
C1863 C1847 1.429 . S
C1863 C1859 1.429 . S
C1863 C1864 1.523 . S
C1864 C1848 1.368 . S
C1864 C1860 1.368 . S
C1864 C1863 1.523 . S
H1865 C1840 0.950 . S
H1866 C1842 0.950 . S
H1867 C1843 0.949 . S
H1868 C1845 0.950 . S
H1869 C1847 0.950 . S
C1870 C1871 1.349 . S
C1870 C1872 1.327 . S
C1870 H1895 0.950 . S
C1871 C1870 1.349 . S
C1871 C1887 1.349 . S
C1872 C1870 1.327 . S
C1872 C1891 1.429 . S
C1872 H1896 0.950 . S
C1873 C1890 1.574 . S
C1873 C1892 1.368 . S
C1873 H1897 0.949 . S
H1874 C1878 0.949 . S
C1875 C1876 1.349 . S
C1875 C1877 1.327 . S
C1875 H1898 0.950 . S
C1876 C1875 1.349 . S
C1876 C1888 1.349 1_545 S
C1877 C1875 1.327 . S
C1877 C1893 1.429 1_545 S
C1877 H1899 0.950 . S
C1878 H1874 0.949 . S
C1878 C1886 1.574 . S
C1878 C1894 1.368 . S
H1879 C1887 0.950 . S
H1880 C1885 0.950 . S
H1881 C1886 0.949 . S
H1882 C1888 0.950 . S
H1883 C1889 0.950 . S
H1884 C1890 0.949 1_545 S
C1885 H1880 0.950 . S
C1885 C1887 1.327 . S
C1885 C1891 1.429 . S
C1886 C1878 1.574 . S
C1886 H1881 0.949 . S
C1886 C1892 1.368 . S
C1887 C1871 1.349 . S
C1887 H1879 0.950 . S
C1887 C1885 1.327 . S
C1888 C1876 1.349 1_565 S
C1888 H1882 0.950 . S
C1888 C1889 1.327 . S
C1889 H1883 0.950 . S
C1889 C1888 1.327 . S
C1889 C1893 1.429 . S
C1890 C1873 1.574 . S
C1890 H1884 0.949 1_565 S
C1890 C1894 1.368 . S
C1891 C1872 1.429 . S
C1891 C1885 1.429 . S
C1891 C1892 1.523 . S
C1892 C1873 1.368 . S
C1892 C1886 1.368 . S
C1892 C1891 1.523 . S
C1893 C1877 1.429 1_565 S
C1893 C1889 1.429 . S
C1893 C1894 1.523 . S
C1894 C1878 1.368 . S
C1894 C1890 1.368 . S
C1894 C1893 1.523 . S
H1895 C1870 0.950 . S
H1896 C1872 0.950 . S
H1897 C1873 0.949 . S
H1898 C1875 0.950 . S
H1899 C1877 0.950 . S
C1900 C1901 1.349 . S
C1900 C1902 1.327 . S
C1900 H1925 0.950 . S
C1901 C1900 1.349 . S
C1901 C1917 1.349 . S
C1902 C1900 1.327 . S
C1902 C1921 1.429 . S
C1902 H1926 0.950 . S
C1903 C1920 1.574 . S
C1903 C1922 1.368 . S
C1903 H1927 0.949 . S
H1904 C1908 0.949 . S
C1905 C1906 1.349 . S
C1905 C1907 1.327 1_554 S
C1905 H1928 0.950 . S
C1906 C1905 1.349 . S
C1906 C1918 1.349 . S
C1907 C1905 1.327 1_556 S
C1907 C1923 1.429 . S
C1907 H1929 0.950 . S
C1908 H1904 0.949 . S
C1908 C1916 1.574 . S
C1908 C1924 1.368 . S
H1909 C1917 0.950 . S
H1910 C1915 0.950 . S
H1911 C1916 0.949 . S
H1912 C1918 0.950 . S
H1913 C1919 0.950 . S
H1914 C1920 0.949 . S
C1915 H1910 0.950 . S
C1915 C1917 1.327 . S
C1915 C1921 1.429 . S
C1916 C1908 1.574 . S
C1916 H1911 0.949 . S
C1916 C1922 1.368 . S
C1917 C1901 1.349 . S
C1917 H1909 0.950 . S
C1917 C1915 1.327 . S
C1918 C1906 1.349 . S
C1918 H1912 0.950 . S
C1918 C1919 1.327 1_554 S
C1919 H1913 0.950 . S
C1919 C1918 1.327 1_556 S
C1919 C1923 1.429 . S
C1920 C1903 1.574 . S
C1920 H1914 0.949 . S
C1920 C1924 1.368 . S
C1921 C1902 1.429 . S
C1921 C1915 1.429 . S
C1921 C1922 1.523 . S
C1922 C1903 1.368 . S
C1922 C1916 1.368 . S
C1922 C1921 1.523 . S
C1923 C1907 1.429 . S
C1923 C1919 1.429 . S
C1923 C1924 1.523 . S
C1924 C1908 1.368 . S
C1924 C1920 1.368 . S
C1924 C1923 1.523 . S
H1925 C1900 0.950 . S
H1926 C1902 0.950 . S
H1927 C1903 0.949 . S
H1928 C1905 0.950 . S
H1929 C1907 0.950 . S
C1930 C1931 1.349 1_545 S
C1930 C1932 1.327 . S
C1930 H1955 0.950 . S
C1931 C1930 1.349 1_565 S
C1931 C1947 1.349 . S
C1932 C1930 1.327 . S
C1932 C1951 1.429 . S
C1932 H1956 0.950 . S
C1933 C1950 1.574 . S
C1933 C1952 1.368 . S
C1933 H1957 0.949 . S
H1934 C1938 0.949 . S
C1935 C1936 1.349 . S
C1935 C1937 1.327 . S
C1935 H1958 0.950 . S
C1936 C1935 1.349 . S
C1936 C1948 1.349 . S
C1937 C1935 1.327 . S
C1937 C1953 1.429 . S
C1937 H1959 0.950 . S
C1938 H1934 0.949 . S
C1938 C1946 1.574 . S
C1938 C1954 1.368 . S
H1939 C1947 0.950 . S
H1940 C1945 0.950 . S
H1941 C1946 0.949 . S
H1942 C1948 0.950 . S
H1943 C1949 0.950 . S
H1944 C1950 0.949 . S
C1945 H1940 0.950 . S
C1945 C1947 1.327 . S
C1945 C1951 1.429 1_565 S
C1946 C1938 1.574 . S
C1946 H1941 0.949 . S
C1946 C1952 1.368 . S
C1947 C1931 1.349 . S
C1947 H1939 0.950 . S
C1947 C1945 1.327 . S
C1948 C1936 1.349 . S
C1948 H1942 0.950 . S
C1948 C1949 1.327 . S
C1949 H1943 0.950 . S
C1949 C1948 1.327 . S
C1949 C1953 1.429 . S
C1950 C1933 1.574 . S
C1950 H1944 0.949 . S
C1950 C1954 1.368 . S
C1951 C1932 1.429 . S
C1951 C1945 1.429 1_545 S
C1951 C1952 1.523 . S
C1952 C1933 1.368 . S
C1952 C1946 1.368 . S
C1952 C1951 1.523 . S
C1953 C1937 1.429 . S
C1953 C1949 1.429 . S
C1953 C1954 1.523 . S
C1954 C1938 1.368 . S
C1954 C1950 1.368 . S
C1954 C1953 1.523 . S
H1955 C1930 0.950 . S
H1956 C1932 0.950 . S
H1957 C1933 0.949 . S
H1958 C1935 0.950 . S
H1959 C1937 0.950 . S
C1960 C1961 1.349 . S
C1960 C1962 1.327 . S
C1960 H1985 0.950 . S
C1961 C1960 1.349 . S
C1961 C1977 1.349 . S
C1962 C1960 1.327 . S
C1962 C1981 1.429 . S
C1962 H1986 0.950 . S
C1963 C1980 1.574 . S
C1963 C1982 1.368 . S
C1963 H1987 0.949 . S
H1964 C1968 0.949 . S
C1965 C1966 1.349 . S
C1965 C1967 1.327 . S
C1965 H1988 0.950 . S
C1966 C1965 1.349 . S
C1966 C1978 1.349 . S
C1967 C1965 1.327 . S
C1967 C1983 1.429 . S
C1967 H1989 0.950 . S
C1968 H1964 0.949 . S
C1968 C1976 1.574 . S
C1968 C1984 1.368 . S
H1969 C1977 0.950 . S
H1970 C1975 0.950 . S
H1971 C1976 0.949 . S
H1972 C1978 0.950 . S
H1973 C1979 0.950 . S
H1974 C1980 0.949 . S
C1975 H1970 0.950 . S
C1975 C1977 1.327 . S
C1975 C1981 1.429 . S
C1976 C1968 1.574 . S
C1976 H1971 0.949 . S
C1976 C1982 1.368 . S
C1977 C1961 1.349 . S
C1977 H1969 0.950 . S
C1977 C1975 1.327 . S
C1978 C1966 1.349 . S
C1978 H1972 0.950 . S
C1978 C1979 1.327 . S
C1979 H1973 0.950 . S
C1979 C1978 1.327 . S
C1979 C1983 1.429 . S
C1980 C1963 1.574 . S
C1980 H1974 0.949 . S
C1980 C1984 1.368 . S
C1981 C1962 1.429 . S
C1981 C1975 1.429 . S
C1981 C1982 1.523 . S
C1982 C1963 1.368 . S
C1982 C1976 1.368 . S
C1982 C1981 1.523 . S
C1983 C1967 1.429 . S
C1983 C1979 1.429 . S
C1983 C1984 1.523 . S
C1984 C1968 1.368 . S
C1984 C1980 1.368 . S
C1984 C1983 1.523 . S
H1985 C1960 0.950 . S
H1986 C1962 0.950 . S
H1987 C1963 0.949 . S
H1988 C1965 0.950 . S
H1989 C1967 0.950 . S
C1990 C1991 1.349 . S
C1990 C1992 1.327 . S
C1990 H2015 0.950 . S
C1991 C1990 1.349 . S
C1991 C2007 1.349 . S
C1992 C1990 1.327 . S
C1992 C2011 1.429 . S
C1992 H2016 0.950 . S
C1993 C2010 1.574 . S
C1993 C2012 1.368 . S
C1993 H2017 0.949 . S
H1994 C1998 0.949 . S
C1995 C1996 1.349 . S
C1995 C1997 1.327 . S
C1995 H2018 0.950 . S
C1996 C1995 1.349 . S
C1996 C2008 1.349 1_565 S
C1997 C1995 1.327 . S
C1997 C2013 1.429 1_565 S
C1997 H2019 0.950 . S
C1998 H1994 0.949 . S
C1998 C2006 1.574 . S
C1998 C2014 1.368 . S
H1999 C2007 0.950 . S
H2000 C2005 0.950 . S
H2001 C2006 0.949 . S
H2002 C2008 0.950 . S
H2003 C2009 0.950 . S
H2004 C2010 0.949 . S
C2005 H2000 0.950 . S
C2005 C2007 1.327 . S
C2005 C2011 1.429 . S
C2006 C1998 1.574 . S
C2006 H2001 0.949 . S
C2006 C2012 1.368 . S
C2007 C1991 1.349 . S
C2007 H1999 0.950 . S
C2007 C2005 1.327 . S
C2008 C1996 1.349 1_545 S
C2008 H2002 0.950 . S
C2008 C2009 1.327 . S
C2009 H2003 0.950 . S
C2009 C2008 1.327 . S
C2009 C2013 1.429 . S
C2010 C1993 1.574 . S
C2010 H2004 0.949 . S
C2010 C2014 1.368 . S
C2011 C1992 1.429 . S
C2011 C2005 1.429 . S
C2011 C2012 1.523 . S
C2012 C1993 1.368 . S
C2012 C2006 1.368 . S
C2012 C2011 1.523 . S
C2013 C1997 1.429 1_545 S
C2013 C2009 1.429 . S
C2013 C2014 1.523 . S
C2014 C1998 1.368 . S
C2014 C2010 1.368 . S
C2014 C2013 1.523 . S
H2015 C1990 0.950 . S
H2016 C1992 0.950 . S
H2017 C1993 0.949 . S
H2018 C1995 0.950 . S
H2019 C1997 0.950 . S
C2020 C2021 1.349 . S
C2020 C2022 1.327 . S
C2020 H2045 0.950 . S
C2021 C2020 1.349 . S
C2021 C2037 1.349 . S
C2022 C2020 1.327 . S
C2022 C2041 1.429 . S
C2022 H2046 0.950 . S
C2023 C2040 1.574 . S
C2023 C2042 1.368 . S
C2023 H2047 0.949 . S
H2024 C2028 0.949 . S
C2025 C2026 1.312 1_554 S
C2025 C2027 1.365 . S
C2025 H2048 0.949 . S
C2026 C2025 1.312 1_556 S
C2026 C2038 1.349 . S
C2027 C2025 1.365 . S
C2027 C2043 1.429 . S
C2027 H2049 0.950 . S
C2028 H2024 0.949 . S
C2028 C2036 1.574 . S
C2028 C2044 1.368 . S
H2029 C2037 0.950 . S
H2030 C2035 0.950 . S
H2031 C2036 0.949 . S
H2032 C2038 0.950 . S
H2033 C2039 0.949 . S
H2034 C2040 0.949 . S
C2035 H2030 0.950 . S
C2035 C2037 1.327 . S
C2035 C2041 1.429 . S
C2036 C2028 1.574 . S
C2036 H2031 0.949 . S
C2036 C2042 1.368 . S
C2037 C2021 1.349 . S
C2037 H2029 0.950 . S
C2037 C2035 1.327 . S
C2038 C2026 1.349 . S
C2038 H2032 0.950 . S
C2038 C2039 1.292 1_556 S
C2039 H2033 0.949 . S
C2039 C2038 1.292 1_554 S
C2039 C2043 1.465 . S
C2040 C2023 1.574 . S
C2040 H2034 0.949 . S
C2040 C2044 1.368 . S
C2041 C2022 1.429 . S
C2041 C2035 1.429 . S
C2041 C2042 1.523 . S
C2042 C2023 1.368 . S
C2042 C2036 1.368 . S
C2042 C2041 1.523 . S
C2043 C2027 1.429 . S
C2043 C2039 1.465 . S
C2043 C2044 1.523 . S
C2044 C2028 1.368 . S
C2044 C2040 1.368 . S
C2044 C2043 1.523 . S
H2045 C2020 0.950 . S
H2046 C2022 0.950 . S
H2047 C2023 0.949 . S
H2048 C2025 0.949 . S
H2049 C2027 0.950 . S
C2050 C2051 1.349 . S
C2050 C2052 1.327 . S
C2050 H2075 0.950 . S
C2051 C2050 1.349 . S
C2051 C2067 1.349 . S
C2052 C2050 1.327 . S
C2052 C2071 1.429 . S
C2052 H2076 0.950 . S
C2053 C2070 1.574 . S
C2053 C2072 1.368 . S
C2053 H2077 0.949 . S
H2054 C2058 0.949 . S
C2055 C2056 1.349 . S
C2055 C2057 1.327 . S
C2055 H2078 0.950 . S
C2056 C2055 1.349 . S
C2056 C2068 1.349 1_545 S
C2057 C2055 1.327 . S
C2057 C2073 1.429 1_545 S
C2057 H2079 0.950 . S
C2058 H2054 0.949 . S
C2058 C2066 1.574 . S
C2058 C2074 1.368 . S
H2059 C2067 0.950 . S
H2060 C2065 0.950 . S
H2061 C2066 0.949 . S
H2062 C2068 0.950 . S
H2063 C2069 0.950 . S
H2064 C2070 0.949 . S
C2065 H2060 0.950 . S
C2065 C2067 1.327 . S
C2065 C2071 1.429 . S
C2066 C2058 1.574 . S
C2066 H2061 0.949 . S
C2066 C2072 1.368 . S
C2067 C2051 1.349 . S
C2067 H2059 0.950 . S
C2067 C2065 1.327 . S
C2068 C2056 1.349 1_565 S
C2068 H2062 0.950 . S
C2068 C2069 1.327 . S
C2069 H2063 0.950 . S
C2069 C2068 1.327 . S
C2069 C2073 1.429 . S
C2070 C2053 1.574 . S
C2070 H2064 0.949 . S
C2070 C2074 1.368 . S
C2071 C2052 1.429 . S
C2071 C2065 1.429 . S
C2071 C2072 1.523 . S
C2072 C2053 1.368 . S
C2072 C2066 1.368 . S
C2072 C2071 1.523 . S
C2073 C2057 1.429 1_565 S
C2073 C2069 1.429 . S
C2073 C2074 1.523 . S
C2074 C2058 1.368 . S
C2074 C2070 1.368 . S
C2074 C2073 1.523 . S
H2075 C2050 0.950 . S
H2076 C2052 0.950 . S
H2077 C2053 0.949 . S
H2078 C2055 0.950 . S
H2079 C2057 0.950 . S
C641 C23 2.428 . S
C646 C423 2.428 . S
C671 C63 2.428 . S
C676 C463 2.428 . S
C701 C103 2.428 . S
C706 C343 2.428 . S
C731 C383 2.428 . S
C736 C143 2.428 . S
C761 C162 2.428 . S
C766 C562 2.428 . S
C791 C602 2.428 . S
C796 C202 2.428 . S
C821 C482 2.428 . S
C826 C242 2.428 . S
C851 C282 2.428 . S
C856 C522 2.428 . S
C881 C4 0.589 . S
C886 C185 0.589 . S
C911 C44 0.589 . S
C916 C545 0.589 . S
C941 C84 0.589 . S
C946 C265 0.589 . S
C971 C124 0.589 . S
C976 C625 0.589 . S
C1001 C225 0.589 . S
C1006 C364 0.589 . S
C1031 C444 0.589 . S
C1036 C305 0.589 . S
C1061 C505 0.589 . S
C1066 C324 0.589 . S
C1091 C404 0.589 . S
C1096 C585 0.589 . S
C1121 C25 0.753 . S
C1126 C303 0.753 . S
C1151 C65 0.753 . S
C1156 C503 0.753 . S
C1181 C105 0.753 . S
C1186 C223 0.753 . S
C1211 C145 0.753 . S
C1216 C583 0.753 . S
C1241 C122 0.753 . S
C1246 C164 0.753 . S
C1271 C204 0.753 . S
C1276 C322 0.753 . S
C1301 C244 0.753 . S
C1306 C42 0.753 . S
C1331 C402 0.753 . S
C1336 C284 0.753 . S
C1361 C345 0.753 . S
C1366 C623 0.740 1_565 S
C1391 C183 0.753 . S
C1396 C385 0.753 . S
C1421 C543 0.740 1_545 S
C1426 C425 0.753 . S
C1451 C263 0.753 . S
C1456 C465 0.753 . S
C1481 C484 0.753 . S
C1486 C442 0.740 1_545 S
C1511 C524 0.753 . S
C1516 C2 0.753 . S
C1541 C362 0.740 1_565 S
C1546 C564 0.753 . S
C1571 C604 0.753 . S
C1576 C82 0.753 . S
C1601 C20 4.038 . S
C1606 C391 4.071 . S
C1631 C431 4.071 . S
C1636 C60 4.038 . S
C1661 C100 4.038 . S
C1666 C471 4.071 . S
C1691 C351 4.071 . S
C1696 C140 4.038 . S
C1721 C540 4.071 . S
C1726 C191 4.038 . S
C1751 C580 4.071 . S
C1756 C231 4.038 . S
C1781 C620 4.071 . S
C1786 C271 4.038 . S
C1811 C500 4.071 . S
C1816 C311 4.038 . S
C1841 C71 4.071 . S
C1846 C340 4.038 . S
C1871 C111 4.071 . S
C1876 C380 4.038 . S
C1901 C151 4.071 . S
C1906 C420 4.038 . S
C1931 C460 4.038 . S
C1936 C31 4.071 . S
C1961 C220 4.071 . S
C1966 C511 4.038 . S
C1991 C260 4.071 . S
C1996 C551 4.038 . S
C2021 C300 4.071 . S
C2026 C591 4.038 . S
C2051 C180 4.071 . S
C2056 C631 4.038 . S
