# Generated by pormake.
# Topology vcd, (5)-cn, num edge types: 1
# Building blocks:
#     Node 0, Type 0, BuildingBlock: BEQFEK_clean_sbu_0, # of connection points: 5
#     Node 1, Type 0, BuildingBlock: BEQFEK_clean_sbu_0, # of connection points: 5
#     Node 2, Type 0, BuildingBlock: BEQFEK_clean_sbu_0, # of connection points: 5
#     Node 3, Type 0, BuildingBlock: BEQFEK_clean_sbu_0, # of connection points: 5
#     Node 4, Type 0, BuildingBlock: BEQFEK_clean_sbu_0, # of connection points: 5
#     Node 5, Type 0, BuildingBlock: BEQFEK_clean_sbu_0, # of connection points: 5
#     Node 6, Type 0, BuildingBlock: BEQFEK_clean_sbu_0, # of connection points: 5
#     Node 7, Type 0, BuildingBlock: BEQFEK_clean_sbu_0, # of connection points: 5
#     Node 8, Type 0, BuildingBlock: BEQFEK_clean_sbu_0, # of connection points: 5
#     Node 9, Type 0, BuildingBlock: BEQFEK_clean_sbu_0, # of connection points: 5
#     Node 10, Type 0, BuildingBlock: BEQFEK_clean_sbu_0, # of connection points: 5
#     Node 11, Type 0, BuildingBlock: BEQFEK_clean_sbu_0, # of connection points: 5
#     Node 12, Type 0, BuildingBlock: BEQFEK_clean_sbu_0, # of connection points: 5
#     Node 13, Type 0, BuildingBlock: BEQFEK_clean_sbu_0, # of connection points: 5
#     Node 14, Type 0, BuildingBlock: BEQFEK_clean_sbu_0, # of connection points: 5
#     Node 15, Type 0, BuildingBlock: BEQFEK_clean_sbu_0, # of connection points: 5
#     Node 16, Type 0, BuildingBlock: BEQFEK_clean_sbu_0, # of connection points: 5
#     Node 17, Type 0, BuildingBlock: BEQFEK_clean_sbu_0, # of connection points: 5
#     Node 18, Type 0, BuildingBlock: BEQFEK_clean_sbu_0, # of connection points: 5
#     Node 19, Type 0, BuildingBlock: BEQFEK_clean_sbu_0, # of connection points: 5
#     Node 20, Type 0, BuildingBlock: BEQFEK_clean_sbu_0, # of connection points: 5
#     Node 21, Type 0, BuildingBlock: BEQFEK_clean_sbu_0, # of connection points: 5
#     Node 22, Type 0, BuildingBlock: BEQFEK_clean_sbu_0, # of connection points: 5
#     Node 23, Type 0, BuildingBlock: BEQFEK_clean_sbu_0, # of connection points: 5
#     Node 24, Type 0, BuildingBlock: BEQFEK_clean_sbu_0, # of connection points: 5
#     Node 25, Type 0, BuildingBlock: BEQFEK_clean_sbu_0, # of connection points: 5
#     Node 26, Type 0, BuildingBlock: BEQFEK_clean_sbu_0, # of connection points: 5
#     Node 27, Type 0, BuildingBlock: BEQFEK_clean_sbu_0, # of connection points: 5
#     Node 28, Type 0, BuildingBlock: BEQFEK_clean_sbu_0, # of connection points: 5
#     Node 29, Type 0, BuildingBlock: BEQFEK_clean_sbu_0, # of connection points: 5
#     Node 30, Type 0, BuildingBlock: BEQFEK_clean_sbu_0, # of connection points: 5
#     Node 31, Type 0, BuildingBlock: BEQFEK_clean_sbu_0, # of connection points: 5
#     Edge 32, Type (0, 0), BuildingBlock: AJUNOK_clean_linker_0, # of connection points: 2
#     Edge 33, Type (0, 0), BuildingBlock: AJUNOK_clean_linker_0, # of connection points: 2
#     Edge 34, Type (0, 0), BuildingBlock: AJUNOK_clean_linker_0, # of connection points: 2
#     Edge 35, Type (0, 0), BuildingBlock: AJUNOK_clean_linker_0, # of connection points: 2
#     Edge 36, Type (0, 0), BuildingBlock: AJUNOK_clean_linker_0, # of connection points: 2
#     Edge 37, Type (0, 0), BuildingBlock: AJUNOK_clean_linker_0, # of connection points: 2
#     Edge 38, Type (0, 0), BuildingBlock: AJUNOK_clean_linker_0, # of connection points: 2
#     Edge 39, Type (0, 0), BuildingBlock: AJUNOK_clean_linker_0, # of connection points: 2
#     Edge 40, Type (0, 0), BuildingBlock: AJUNOK_clean_linker_0, # of connection points: 2
#     Edge 41, Type (0, 0), BuildingBlock: AJUNOK_clean_linker_0, # of connection points: 2
#     Edge 42, Type (0, 0), BuildingBlock: AJUNOK_clean_linker_0, # of connection points: 2
#     Edge 43, Type (0, 0), BuildingBlock: AJUNOK_clean_linker_0, # of connection points: 2
#     Edge 44, Type (0, 0), BuildingBlock: AJUNOK_clean_linker_0, # of connection points: 2
#     Edge 45, Type (0, 0), BuildingBlock: AJUNOK_clean_linker_0, # of connection points: 2
#     Edge 46, Type (0, 0), BuildingBlock: AJUNOK_clean_linker_0, # of connection points: 2
#     Edge 47, Type (0, 0), BuildingBlock: AJUNOK_clean_linker_0, # of connection points: 2
#     Edge 48, Type (0, 0), BuildingBlock: AJUNOK_clean_linker_0, # of connection points: 2
#     Edge 49, Type (0, 0), BuildingBlock: AJUNOK_clean_linker_0, # of connection points: 2
#     Edge 50, Type (0, 0), BuildingBlock: AJUNOK_clean_linker_0, # of connection points: 2
#     Edge 51, Type (0, 0), BuildingBlock: AJUNOK_clean_linker_0, # of connection points: 2
#     Edge 52, Type (0, 0), BuildingBlock: AJUNOK_clean_linker_0, # of connection points: 2
#     Edge 53, Type (0, 0), BuildingBlock: AJUNOK_clean_linker_0, # of connection points: 2
#     Edge 54, Type (0, 0), BuildingBlock: AJUNOK_clean_linker_0, # of connection points: 2
#     Edge 55, Type (0, 0), BuildingBlock: AJUNOK_clean_linker_0, # of connection points: 2
#     Edge 56, Type (0, 0), BuildingBlock: AJUNOK_clean_linker_0, # of connection points: 2
#     Edge 57, Type (0, 0), BuildingBlock: AJUNOK_clean_linker_0, # of connection points: 2
#     Edge 58, Type (0, 0), BuildingBlock: AJUNOK_clean_linker_0, # of connection points: 2
#     Edge 59, Type (0, 0), BuildingBlock: AJUNOK_clean_linker_0, # of connection points: 2
#     Edge 60, Type (0, 0), BuildingBlock: AJUNOK_clean_linker_0, # of connection points: 2
#     Edge 61, Type (0, 0), BuildingBlock: AJUNOK_clean_linker_0, # of connection points: 2
#     Edge 62, Type (0, 0), BuildingBlock: AJUNOK_clean_linker_0, # of connection points: 2
#     Edge 63, Type (0, 0), BuildingBlock: AJUNOK_clean_linker_0, # of connection points: 2
#     Edge 64, Type (0, 0), BuildingBlock: AJUNOK_clean_linker_0, # of connection points: 2
#     Edge 65, Type (0, 0), BuildingBlock: AJUNOK_clean_linker_0, # of connection points: 2
#     Edge 66, Type (0, 0), BuildingBlock: AJUNOK_clean_linker_0, # of connection points: 2
#     Edge 67, Type (0, 0), BuildingBlock: AJUNOK_clean_linker_0, # of connection points: 2
#     Edge 68, Type (0, 0), BuildingBlock: AJUNOK_clean_linker_0, # of connection points: 2
#     Edge 69, Type (0, 0), BuildingBlock: AJUNOK_clean_linker_0, # of connection points: 2
#     Edge 70, Type (0, 0), BuildingBlock: AJUNOK_clean_linker_0, # of connection points: 2
#     Edge 71, Type (0, 0), BuildingBlock: AJUNOK_clean_linker_0, # of connection points: 2
#     Edge 72, Type (0, 0), BuildingBlock: AJUNOK_clean_linker_0, # of connection points: 2
#     Edge 73, Type (0, 0), BuildingBlock: AJUNOK_clean_linker_0, # of connection points: 2
#     Edge 74, Type (0, 0), BuildingBlock: AJUNOK_clean_linker_0, # of connection points: 2
#     Edge 75, Type (0, 0), BuildingBlock: AJUNOK_clean_linker_0, # of connection points: 2
#     Edge 76, Type (0, 0), BuildingBlock: AJUNOK_clean_linker_0, # of connection points: 2
#     Edge 77, Type (0, 0), BuildingBlock: AJUNOK_clean_linker_0, # of connection points: 2
#     Edge 78, Type (0, 0), BuildingBlock: AJUNOK_clean_linker_0, # of connection points: 2
#     Edge 79, Type (0, 0), BuildingBlock: AJUNOK_clean_linker_0, # of connection points: 2
#     Edge 80, Type (0, 0), BuildingBlock: AJUNOK_clean_linker_0, # of connection points: 2
#     Edge 81, Type (0, 0), BuildingBlock: AJUNOK_clean_linker_0, # of connection points: 2
#     Edge 82, Type (0, 0), BuildingBlock: AJUNOK_clean_linker_0, # of connection points: 2
#     Edge 83, Type (0, 0), BuildingBlock: AJUNOK_clean_linker_0, # of connection points: 2
#     Edge 84, Type (0, 0), BuildingBlock: AJUNOK_clean_linker_0, # of connection points: 2
#     Edge 85, Type (0, 0), BuildingBlock: AJUNOK_clean_linker_0, # of connection points: 2
#     Edge 86, Type (0, 0), BuildingBlock: AJUNOK_clean_linker_0, # of connection points: 2
#     Edge 87, Type (0, 0), BuildingBlock: AJUNOK_clean_linker_0, # of connection points: 2
#     Edge 88, Type (0, 0), BuildingBlock: AJUNOK_clean_linker_0, # of connection points: 2
#     Edge 89, Type (0, 0), BuildingBlock: AJUNOK_clean_linker_0, # of connection points: 2
#     Edge 90, Type (0, 0), BuildingBlock: AJUNOK_clean_linker_0, # of connection points: 2
#     Edge 91, Type (0, 0), BuildingBlock: AJUNOK_clean_linker_0, # of connection points: 2
#     Edge 92, Type (0, 0), BuildingBlock: AJUNOK_clean_linker_0, # of connection points: 2
#     Edge 93, Type (0, 0), BuildingBlock: AJUNOK_clean_linker_0, # of connection points: 2
#     Edge 94, Type (0, 0), BuildingBlock: AJUNOK_clean_linker_0, # of connection points: 2
#     Edge 95, Type (0, 0), BuildingBlock: AJUNOK_clean_linker_0, # of connection points: 2
#     Edge 96, Type (0, 0), BuildingBlock: AJUNOK_clean_linker_0, # of connection points: 2
#     Edge 97, Type (0, 0), BuildingBlock: AJUNOK_clean_linker_0, # of connection points: 2
#     Edge 98, Type (0, 0), BuildingBlock: AJUNOK_clean_linker_0, # of connection points: 2
#     Edge 99, Type (0, 0), BuildingBlock: AJUNOK_clean_linker_0, # of connection points: 2
#     Edge 100, Type (0, 0), BuildingBlock: AJUNOK_clean_linker_0, # of connection points: 2
#     Edge 101, Type (0, 0), BuildingBlock: AJUNOK_clean_linker_0, # of connection points: 2
#     Edge 102, Type (0, 0), BuildingBlock: AJUNOK_clean_linker_0, # of connection points: 2
#     Edge 103, Type (0, 0), BuildingBlock: AJUNOK_clean_linker_0, # of connection points: 2
#     Edge 104, Type (0, 0), BuildingBlock: AJUNOK_clean_linker_0, # of connection points: 2
#     Edge 105, Type (0, 0), BuildingBlock: AJUNOK_clean_linker_0, # of connection points: 2
#     Edge 106, Type (0, 0), BuildingBlock: AJUNOK_clean_linker_0, # of connection points: 2
#     Edge 107, Type (0, 0), BuildingBlock: AJUNOK_clean_linker_0, # of connection points: 2
#     Edge 108, Type (0, 0), BuildingBlock: AJUNOK_clean_linker_0, # of connection points: 2
#     Edge 109, Type (0, 0), BuildingBlock: AJUNOK_clean_linker_0, # of connection points: 2
#     Edge 110, Type (0, 0), BuildingBlock: AJUNOK_clean_linker_0, # of connection points: 2
#     Edge 111, Type (0, 0), BuildingBlock: AJUNOK_clean_linker_0, # of connection points: 2
# Relax obj value: 0.023
# Max RMSD: 0.071
# Mean RMSD: 0.071
data_MOF--net-vcd--node1-BEQFEK_clean_sbu_0--edge1-AJUNOK_clean_linker_0
_symmetry_space_group_name_H-M    P1
_symmetry_Int_Tables_number       1
_symmetry_cell_setting            triclinic
loop_
_symmetry_equiv_pos_as_xyz
'x, y, z'
_cell_length_a     122.1514
_cell_length_b     40.893856
_cell_length_c     16.497863
_cell_angle_alpha  89.976527
_cell_angle_beta   89.988778
_cell_angle_gamma 90.011568
loop_
_atom_site_label
_atom_site_type_symbol
_atom_site_fract_x
_atom_site_fract_y
_atom_site_fract_z
_atom_type_partial_charge
Co0 Co 0.08251 0.46372 0.12249 0.0
Co1 Co 0.0566 0.46634 0.12325 0.0
C2 C 0.06965 0.42951 -0.00386 0.0
O3 O 0.07889 0.43879 0.02363 0.0
O4 O 0.06073 0.43875 0.02903 0.0
C5 C 0.10578 0.47096 0.08072 0.0
O6 O 0.1025 0.47693 0.00633 0.0
C7 C 0.03463 0.48284 0.05732 0.0
C8 C 0.02458 0.48199 0.16867 0.0
C9 C 0.02407 0.48787 0.08614 0.0
N10 N 0.04114 0.47505 0.12043 0.0
N11 N 0.03504 0.47445 0.18663 0.0
C12 C 0.03838 0.48412 0.97091 0.0
H13 H 0.04488 0.46588 0.96008 0.0
H14 H 0.04189 0.50855 0.95776 0.0
H15 H 0.03146 0.47964 0.92873 0.0
C16 C 0.07953 0.53578 0.12828 0.0
N17 N 0.07553 0.5051 0.12519 0.0
N18 N 0.06475 0.50626 0.12655 0.0
C19 C 0.06158 0.53782 0.13093 0.0
C20 C 0.07083 0.55754 0.13224 0.0
C21 C 0.09147 0.54389 0.13068 0.0
H22 H 0.09561 0.52833 0.1764 0.0
H23 H 0.09515 0.53852 0.07067 0.0
H24 H 0.09287 0.57001 0.14572 0.0
O25 O 0.07763 0.43648 0.21351 0.0
O26 O 0.05955 0.43894 0.22019 0.0
H27 H 0.04543 0.53734 0.18147 0.0
H28 H 0.04913 0.57584 0.13464 0.0
C29 C 0.04989 0.5489 0.13039 0.0
H30 H 0.04599 0.54106 0.07316 0.0
H31 H 0.03803 0.46903 0.24432 0.0
O32 O 0.09869 0.46635 0.13595 0.0
C33 C 0.06866 0.42811 0.24648 0.0
Co34 Co 0.17621 0.79215 0.11716 0.0
Co35 Co 0.20214 0.79061 0.11829 0.0
C36 C 0.18916 0.82602 0.98929 0.0
O37 O 0.17992 0.81717 0.01805 0.0
O38 O 0.19811 0.81682 0.02177 0.0
C39 C 0.15316 0.78831 0.07046 0.0
O40 O 0.15678 0.79254 -0.00377 0.0
C41 C 0.22426 0.77709 0.05461 0.0
C42 C 0.23414 0.77609 0.16675 0.0
C43 C 0.23487 0.77264 0.0834 0.0
N44 N 0.21764 0.7831 0.11805 0.0
N45 N 0.22362 0.78266 0.18481 0.0
C46 C 0.22024 0.77271 0.96962 0.0
H47 H 0.22072 0.7964 0.93724 0.0
H48 H 0.21155 0.7648 0.96977 0.0
H49 H 0.22534 0.7546 0.93667 0.0
C50 C 0.17961 0.72046 0.12146 0.0
N51 N 0.1835 0.75127 0.12038 0.0
N52 N 0.19427 0.75045 0.12174 0.0
C53 C 0.19758 0.71898 0.12401 0.0
C54 C 0.18839 0.69895 0.12348 0.0
C55 C 0.16769 0.71206 0.12354 0.0
H56 H 0.16365 0.72592 0.17299 0.0
H57 H 0.16384 0.71957 0.0655 0.0
H58 H 0.16634 0.68553 0.13334 0.0
O59 O 0.18065 0.82009 0.20838 0.0
O60 O 0.19877 0.81859 0.21292 0.0
H61 H 0.21375 0.72001 0.17369 0.0
H62 H 0.21018 0.68147 0.12689 0.0
C63 C 0.20931 0.70838 0.1227 0.0
H64 H 0.21313 0.71655 0.06533 0.0
H65 H 0.22048 0.78642 0.2429 0.0
O66 O 0.16002 0.78686 0.12829 0.0
C67 C 0.18966 0.82918 0.23965 0.0
Co68 Co 0.08302 0.79211 0.11201 0.0
Co69 Co 0.05707 0.79133 0.12031 0.0
C70 C 0.07099 0.83025 0.23748 0.0
O71 O 0.07993 0.82016 0.20648 0.0
O72 O 0.06173 0.82052 0.21075 0.0
C73 C 0.10647 0.78947 0.14926 0.0
O74 O 0.10354 0.79536 0.22449 0.0
C75 C 0.0352 0.77639 0.19031 0.0
C76 C 0.02489 0.77632 0.08025 0.0
C77 C 0.02455 0.77122 0.16317 0.0
N78 N 0.04156 0.78354 0.12594 0.0
N79 N 0.03531 0.78364 0.06054 0.0
C80 C 0.03921 0.77642 0.27606 0.0
H81 H 0.04467 0.79769 0.28609 0.0
H82 H 0.0441 0.75401 0.28726 0.0
H83 H 0.03232 0.77746 0.31977 0.0
C84 C 0.07962 0.72081 0.12294 0.0
N85 N 0.07571 0.75157 0.11993 0.0
N86 N 0.06493 0.75084 0.12175 0.0
C87 C 0.06166 0.71934 0.12524 0.0
C88 C 0.07085 0.69935 0.12679 0.0
C89 C 0.09154 0.71247 0.12488 0.0
H90 H 0.09559 0.72669 0.17362 0.0
H91 H 0.09291 0.68601 0.13567 0.0
H92 H 0.09534 0.71962 0.06642 0.0
O93 O 0.07803 0.81659 0.01679 0.0
O94 O 0.05989 0.81629 0.01907 0.0
H95 H 0.0455 0.72254 0.07516 0.0
H96 H 0.04933 0.68195 0.10744 0.0
C97 C 0.04997 0.70838 0.12188 0.0
H98 H 0.04604 0.71281 0.1814 0.0
H99 H 0.03818 0.78839 0.00214 0.0
O100 O 0.09909 0.78639 0.09543 0.0
C101 C 0.06888 0.82493 0.98644 0.0
Co102 Co 0.17559 0.46506 0.11677 0.0
Co103 Co 0.20157 0.46448 0.1204 0.0
C104 C 0.18792 0.42843 0.24407 0.0
O105 O 0.17895 0.43846 0.21348 0.0
O106 O 0.19714 0.43707 0.21459 0.0
C107 C 0.15251 0.45377 0.13964 0.0
O108 O 0.156 0.42822 0.18028 0.0
C109 C 0.22364 0.47888 0.18589 0.0
C110 C 0.23371 0.47822 0.07463 0.0
C111 C 0.23424 0.48377 0.15733 0.0
N112 N 0.21714 0.47152 0.12256 0.0
N113 N 0.22325 0.47093 0.05641 0.0
C114 C 0.2198 0.47931 0.27207 0.0
H115 H 0.21487 0.45711 0.28448 0.0
H116 H 0.21442 0.50079 0.2818 0.0
H117 H 0.22676 0.48016 0.3152 0.0
C118 C 0.17948 0.53607 0.11956 0.0
N119 N 0.18321 0.50512 0.11909 0.0
N120 N 0.19399 0.50536 0.11944 0.0
C121 C 0.19744 0.53674 0.11938 0.0
C122 C 0.18836 0.55715 0.11953 0.0
C123 C 0.16761 0.54502 0.12343 0.0
H124 H 0.16364 0.53857 0.06507 0.0
H125 H 0.16356 0.53068 0.17202 0.0
H126 H 0.16644 0.57148 0.13542 0.0
O127 O 0.17992 0.43865 0.02259 0.0
O128 O 0.19809 0.43818 0.0225 0.0
H129 H 0.21351 0.53249 0.06846 0.0
H130 H 0.20996 0.57343 0.09962 0.0
C131 C 0.20918 0.54711 0.11497 0.0
H132 H 0.21314 0.54274 0.1744 0.0
H133 H 0.22023 0.46596 -0.00148 0.0
O134 O 0.15948 0.47285 0.10733 0.0
C135 C 0.18896 0.42932 0.99208 0.0
Co136 Co 0.92589 0.54196 0.86921 0.0
Co137 Co 0.9518 0.54022 0.86996 0.0
C138 C 0.93852 0.57759 0.99458 0.0
O139 O 0.92929 0.5681 0.96703 0.0
O140 O 0.94747 0.56826 0.96239 0.0
C141 C 0.90251 0.53655 0.90922 0.0
O142 O 0.90554 0.53779 0.98557 0.0
C143 C 0.9738 0.52538 0.93725 0.0
C144 C 0.98408 0.52927 0.82752 0.0
C145 C 0.98453 0.52289 0.90989 0.0
N146 N 0.96731 0.53269 0.87373 0.0
N147 N 0.97354 0.53498 0.80843 0.0
C148 C 0.96987 0.52244 0.02291 0.0
H149 H 0.97523 0.53691 0.0637 0.0
H150 H 0.96128 0.53074 0.02864 0.0
H151 H 0.97028 0.49655 0.04254 0.0
C152 C 0.92918 0.47016 0.86956 0.0
N153 N 0.9331 0.50094 0.86994 0.0
N154 N 0.94388 0.50004 0.86934 0.0
C155 C 0.94715 0.46854 0.86829 0.0
C156 C 0.93795 0.44856 0.86891 0.0
C157 C 0.91726 0.46184 0.86565 0.0
H158 H 0.91337 0.47571 0.81556 0.0
H159 H 0.91326 0.46935 0.9231 0.0
H160 H 0.91592 0.43531 0.8557 0.0
O161 O 0.93064 0.56844 0.77637 0.0
O162 O 0.94875 0.56642 0.7715 0.0
H163 H 0.96344 0.47017 0.82042 0.0
H164 H 0.95977 0.43107 0.86413 0.0
C165 C 0.95888 0.45791 0.86999 0.0
H166 H 0.96256 0.46539 0.92838 0.0
H167 H 0.97059 0.54058 0.75072 0.0
O168 O 0.90979 0.53715 0.85423 0.0
C169 C 0.93965 0.57659 0.74354 0.0
Co170 Co 0.83304 0.21417 0.86726 0.0
Co171 Co 0.80717 0.21599 0.8773 0.0
C172 C 0.82082 0.17957 -0.00066 0.0
O173 O 0.82972 0.18827 0.9652 0.0
O174 O 0.81154 0.18922 0.97284 0.0
C175 C 0.85605 0.21865 0.91129 0.0
O176 O 0.85244 0.21619 0.98605 0.0
C177 C 0.78513 0.23166 0.94127 0.0
C178 C 0.77542 0.23335 0.82838 0.0
C179 C 0.77469 0.23791 0.91139 0.0
N180 N 0.79171 0.22411 0.87862 0.0
N181 N 0.78581 0.22482 0.81148 0.0
C182 C 0.78904 0.23519 0.02671 0.0
H183 H 0.79797 0.24016 0.02784 0.0
H184 H 0.78456 0.25513 0.05805 0.0
H185 H 0.7875 0.21198 0.0597 0.0
C186 C 0.82984 0.28591 0.86852 0.0
N187 N 0.82588 0.25517 0.86949 0.0
N188 N 0.81511 0.25617 0.87247 0.0
C189 C 0.81189 0.28773 0.87272 0.0
C190 C 0.82111 0.30758 0.87036 0.0
C191 C 0.84178 0.29407 0.87066 0.0
H192 H 0.84565 0.28129 0.92252 0.0
H193 H 0.8432 0.32074 0.87701 0.0
H194 H 0.84573 0.28514 0.81429 0.0
O195 O 0.82814 0.18752 0.77492 0.0
O196 O 0.81003 0.18844 0.78119 0.0
H197 H 0.79562 0.28492 0.82507 0.0
H198 H 0.7995 0.32524 0.8582 0.0
C199 C 0.80021 0.29875 0.8717 0.0
H200 H 0.79645 0.29383 0.93164 0.0
H201 H 0.78895 0.22025 0.75376 0.0
O202 O 0.84917 0.21903 0.85344 0.0
C203 C 0.81884 0.17857 0.74825 0.0
Co204 Co 0.92611 0.21344 0.87427 0.0
Co205 Co 0.952 0.21525 0.87522 0.0
C206 C 0.93883 0.17728 0.75071 0.0
O207 O 0.92958 0.18684 0.77755 0.0
O208 O 0.94775 0.18682 0.78303 0.0
C209 C 0.90274 0.2146 0.83485 0.0
O210 O 0.90576 0.20617 0.76133 0.0
C211 C 0.97394 0.23108 0.809 0.0
C212 C 0.98431 0.22484 0.91757 0.0
C213 C 0.98472 0.23275 0.83597 0.0
N214 N 0.9675 0.22267 0.87193 0.0
N215 N 0.97378 0.21903 0.93657 0.0
C216 C 0.96991 0.23563 0.72408 0.0
H217 H 0.96154 0.22558 0.71694 0.0
H218 H 0.96962 0.26208 0.70955 0.0
H219 H 0.97558 0.22371 0.68061 0.0
C220 C 0.92936 0.28502 0.87093 0.0
N221 N 0.93334 0.25433 0.87226 0.0
N222 N 0.94411 0.2554 0.87435 0.0
C223 C 0.94731 0.28698 0.87515 0.0
C224 C 0.93808 0.30673 0.87276 0.0
C225 C 0.91744 0.29313 0.86511 0.0
H226 H 0.91368 0.27869 0.8155 0.0
H227 H 0.91611 0.31956 0.85347 0.0
H228 H 0.91333 0.28616 0.92256 0.0
O229 O 0.93075 0.18728 0.96822 0.0
O230 O 0.94885 0.18948 0.97396 0.0
H231 H 0.96334 0.28261 0.92695 0.0
H232 H 0.95941 0.32404 0.90226 0.0
C233 C 0.95893 0.29813 0.8826 0.0
H234 H 0.96302 0.29579 0.82294 0.0
H235 H 0.97086 0.21238 0.99371 0.0
O236 O 0.91004 0.21931 0.88845 0.0
C237 C 0.93973 0.17929 0.00163 0.0
Co238 Co 0.8328 0.54277 0.87735 0.0
Co239 Co 0.80687 0.54086 0.86637 0.0
C240 C 0.82067 0.57805 0.74625 0.0
O241 O 0.82957 0.56911 0.77982 0.0
O242 O 0.81141 0.56832 0.77272 0.0
C243 C 0.85576 0.53829 0.83251 0.0
O244 O 0.85207 0.54163 0.75821 0.0
C245 C 0.78466 0.52564 0.80112 0.0
C246 C 0.77476 0.52846 0.91294 0.0
C247 C 0.77404 0.52243 0.83055 0.0
N248 N 0.79134 0.53301 0.86354 0.0
N249 N 0.78533 0.53469 0.93004 0.0
C250 C 0.78829 0.52325 0.71464 0.0
H251 H 0.79643 0.53461 0.7062 0.0
H252 H 0.78887 0.49717 0.69684 0.0
H253 H 0.7822 0.53517 0.67434 0.0
C254 C 0.82958 0.47109 0.87573 0.0
N255 N 0.82561 0.50181 0.87414 0.0
N256 N 0.81484 0.50075 0.87093 0.0
C257 C 0.81163 0.46918 0.87136 0.0
C258 C 0.82086 0.44939 0.87381 0.0
C259 C 0.84148 0.46289 0.88218 0.0
H260 H 0.84514 0.47647 0.9337 0.0
H261 H 0.84572 0.47081 0.826 0.0
H262 H 0.84281 0.4363 0.89131 0.0
O263 O 0.82782 0.56907 0.97012 0.0
O264 O 0.8097 0.56799 0.9635 0.0
H265 H 0.79516 0.47019 0.91559 0.0
H266 H 0.79915 0.43132 0.87235 0.0
C267 C 0.79995 0.45822 0.86685 0.0
H268 H 0.79648 0.46576 0.80781 0.0
H269 H 0.78845 0.54008 0.98737 0.0
O270 O 0.84894 0.53752 0.89073 0.0
C271 C 0.8185 0.57784 -0.00319 0.0
Co272 Co 0.08341 0.96399 0.62062 0.0
Co273 Co 0.05747 0.96537 0.61497 0.0
C274 C 0.07097 0.93119 0.48745 0.0
O275 O 0.07996 0.93985 0.52032 0.0
O276 O 0.06175 0.9399 0.51693 0.0
C277 C 0.10649 0.96925 0.57707 0.0
O278 O 0.10296 0.96734 0.50204 0.0
C279 C 0.03533 0.98071 0.55225 0.0
C280 C 0.02569 0.98211 0.6655 0.0
C281 C 0.02487 0.98658 0.58247 0.0
N282 N 0.04199 0.9734 0.61467 0.0
N283 N 0.03613 0.97399 0.68204 0.0
C284 C 0.03916 0.9843 0.46662 0.0
H285 H 0.04804 0.99009 0.46517 0.0
H286 H 0.03447 0.00371 0.4349 0.0
H287 H 0.03786 0.96084 0.43423 0.0
C288 C 0.0801 0.03553 0.62525 0.0
N289 N 0.07616 0.00477 0.62344 0.0
N290 N 0.06539 0.00565 0.6217 0.0
C291 C 0.06214 0.0372 0.62268 0.0
C292 C 0.07134 0.05712 0.62492 0.0
C293 C 0.09202 0.04383 0.62179 0.0
H294 H 0.09574 0.03182 0.56822 0.0
H295 H 0.0934 0.07058 0.61756 0.0
H296 H 0.09614 0.03413 0.67667 0.0
O297 O 0.07866 0.93547 0.70963 0.0
O298 O 0.06052 0.93629 0.70877 0.0
H299 H 0.04587 0.03442 0.67042 0.0
H300 H 0.04973 0.07469 0.63626 0.0
C301 C 0.05045 0.04814 0.62346 0.0
H302 H 0.0467 0.04294 0.56368 0.0
H303 H 0.03933 0.9695 0.73964 0.0
O304 O 0.09956 0.96896 0.63459 0.0
C305 C 0.06953 0.92574 0.73753 0.0
Co306 Co 0.17557 0.29053 0.62095 0.0
Co307 Co 0.2015 0.29192 0.61747 0.0
C308 C 0.18773 0.32674 0.49231 0.0
O309 O 0.17878 0.31653 0.52293 0.0
O310 O 0.19696 0.31845 0.52204 0.0
C311 C 0.15262 0.30377 0.60805 0.0
O312 O 0.15622 0.33149 0.57796 0.0
C313 C 0.22357 0.27628 0.55363 0.0
C314 C 0.23396 0.28652 0.66023 0.0
C315 C 0.23436 0.27615 0.58039 0.0
N316 N 0.2171 0.2861 0.61507 0.0
N317 N 0.22339 0.29216 0.67855 0.0
C318 C 0.21955 0.26914 0.4698 0.0
H319 H 0.21082 0.27597 0.46326 0.0
H320 H 0.22041 0.24268 0.4568 0.0
H321 H 0.22459 0.28262 0.42484 0.0
C322 C 0.17971 0.21961 0.62202 0.0
N323 N 0.18335 0.25068 0.62098 0.0
N324 N 0.19413 0.25078 0.62129 0.0
C325 C 0.19768 0.21953 0.62372 0.0
C326 C 0.18867 0.19884 0.62396 0.0
C327 C 0.16788 0.21024 0.61757 0.0
H328 H 0.16384 0.22424 0.56835 0.0
H329 H 0.16683 0.18369 0.60622 0.0
H330 H 0.16382 0.21679 0.6755 0.0
O331 O 0.17978 0.3182 0.71331 0.0
O332 O 0.19794 0.31913 0.7135 0.0
H333 H 0.21019 0.18413 0.65332 0.0
H334 H 0.21325 0.2107 0.56941 0.0
C335 C 0.20942 0.20952 0.63021 0.0
H336 H 0.21387 0.22632 0.67135 0.0
H337 H 0.22045 0.30026 0.73445 0.0
O338 O 0.15951 0.28235 0.6307 0.0
C339 C 0.18879 0.3283 0.74283 0.0
Co340 Co 0.08266 0.29322 0.62245 0.0
Co341 Co 0.05677 0.29 0.62202 0.0
C342 C 0.06971 0.32819 0.7471 0.0
O343 O 0.07897 0.31896 0.71976 0.0
O344 O 0.0608 0.31845 0.71494 0.0
C345 C 0.10591 0.2858 0.66477 0.0
O346 O 0.10261 0.27852 0.7384 0.0
C347 C 0.03484 0.27334 0.68849 0.0
C348 C 0.02475 0.27403 0.57734 0.0
C349 C 0.02427 0.26827 0.65993 0.0
N350 N 0.04132 0.28107 0.62519 0.0
N351 N 0.03519 0.28157 0.55911 0.0
C352 C 0.03861 0.27235 0.77485 0.0
H353 H 0.04506 0.29082 0.78531 0.0
H354 H 0.04221 0.24806 0.78822 0.0
H355 H 0.03169 0.2767 0.8171 0.0
C356 C 0.07985 0.22097 0.62193 0.0
N357 N 0.07579 0.25161 0.62256 0.0
N358 N 0.06501 0.25021 0.62102 0.0
C359 C 0.0619 0.21855 0.61872 0.0
C360 C 0.07119 0.199 0.61988 0.0
C361 C 0.0918 0.213 0.61932 0.0
H362 H 0.09593 0.22876 0.57397 0.0
H363 H 0.09546 0.2181 0.6795 0.0
H364 H 0.09321 0.18695 0.6037 0.0
O365 O 0.07773 0.31938 0.52962 0.0
O366 O 0.05965 0.31654 0.52364 0.0
H367 H 0.0458 0.21956 0.56757 0.0
H368 H 0.04953 0.18042 0.61046 0.0
C369 C 0.05024 0.20727 0.61763 0.0
H370 H 0.04628 0.21409 0.67547 0.0
H371 H 0.03817 0.28694 0.50131 0.0
O372 O 0.09886 0.29113 0.60973 0.0
C373 C 0.06872 0.32718 0.49629 0.0
Co374 Co 0.17658 0.96407 0.61577 0.0
Co375 Co 0.20253 0.96505 0.6164 0.0
C376 C 0.18914 0.927 0.73924 0.0
O377 O 0.17994 0.93687 0.71208 0.0
O378 O 0.19811 0.93647 0.70761 0.0
C379 C 0.15317 0.9664 0.65573 0.0
O380 O 0.15614 0.95876 0.72988 0.0
C381 C 0.22463 0.97895 0.68331 0.0
C382 C 0.2348 0.97594 0.57283 0.0
C383 C 0.23534 0.9817 0.65543 0.0
N384 N 0.21808 0.97212 0.61986 0.0
N385 N 0.22424 0.97031 0.55413 0.0
C386 C 0.22079 0.98129 0.76931 0.0
H387 H 0.21233 0.97196 0.77562 0.0
H388 H 0.22088 0.00718 0.78906 0.0
H389 H 0.2264 0.96742 0.80963 0.0
C390 C 0.18014 0.03564 0.61969 0.0
N391 N 0.18398 0.00477 0.61865 0.0
N392 N 0.19475 0.00542 0.61777 0.0
C393 C 0.19811 0.03684 0.61784 0.0
C394 C 0.18897 0.05702 0.61963 0.0
C395 C 0.16824 0.0442 0.6161 0.0
H396 H 0.16442 0.03164 0.56368 0.0
H397 H 0.16413 0.03529 0.6719 0.0
H398 H 0.16694 0.07093 0.60991 0.0
O399 O 0.18117 0.93831 0.52119 0.0
O400 O 0.1993 0.93973 0.51701 0.0
H401 H 0.21433 0.03508 0.56879 0.0
H402 H 0.21082 0.07406 0.61374 0.0
C403 C 0.20987 0.04721 0.61899 0.0
H404 H 0.21361 0.0394 0.67691 0.0
H405 H 0.22122 0.9652 0.49632 0.0
O406 O 0.16049 0.9702 0.60184 0.0
C407 C 0.19017 0.93019 0.48822 0.0
Co408 Co 0.92633 0.04181 0.37421 0.0
Co409 Co 0.95225 0.04023 0.37347 0.0
C410 C 0.93914 0.07605 0.50153 0.0
O411 O 0.92991 0.06694 0.47315 0.0
O412 O 0.94811 0.06692 0.46911 0.0
C413 C 0.90289 0.03612 0.41437 0.0
O414 O 0.90587 0.03655 0.49089 0.0
C415 C 0.97433 0.02667 0.43857 0.0
C416 C 0.98431 0.02587 0.32688 0.0
C417 C 0.98497 0.02231 0.41026 0.0
N418 N 0.96776 0.03271 0.37482 0.0
N419 N 0.9738 0.03239 0.30836 0.0
C420 C 0.9702 0.02225 0.52329 0.0
H421 H 0.96153 0.01409 0.52253 0.0
H422 H 0.9753 0.00432 0.55681 0.0
H423 H 0.97053 0.04602 0.55543 0.0
C424 C 0.92964 0.97013 0.37089 0.0
N425 N 0.93356 1.00089 0.37187 0.0
N426 N 0.94434 1.0 0.37087 0.0
C427 C 0.94761 0.9685 0.36917 0.0
C428 C 0.9384 0.94853 0.36961 0.0
C429 C 0.91771 0.96186 0.36758 0.0
H430 H 0.91374 0.9761 0.31848 0.0
H431 H 0.9138 0.96892 0.42571 0.0
H432 H 0.91635 0.93541 0.35648 0.0
O433 O 0.93092 0.06934 0.28313 0.0
O434 O 0.94901 0.06782 0.27746 0.0
H435 H 0.96381 0.96936 0.31983 0.0
H436 H 0.96019 0.9309 0.36701 0.0
C437 C 0.95933 0.95782 0.37083 0.0
H438 H 0.96314 0.96606 0.42816 0.0
H439 H 0.97071 0.03621 0.25014 0.0
O440 O 0.91021 0.0372 0.35968 0.0
C441 C 0.93987 0.07823 0.25081 0.0
Co442 Co 0.83283 0.71409 0.36486 0.0
Co443 Co 0.80693 0.71609 0.3758 0.0
C444 C 0.82068 0.67922 0.49663 0.0
O445 O 0.82958 0.6879 0.46253 0.0
O446 O 0.81141 0.68907 0.47043 0.0
C447 C 0.85589 0.71712 0.40817 0.0
O448 O 0.85227 0.71272 0.48234 0.0
C449 C 0.78513 0.73069 0.44469 0.0
C450 C 0.77478 0.73125 0.33484 0.0
C451 C 0.77442 0.73539 0.41813 0.0
N452 N 0.79145 0.72396 0.38003 0.0
N453 N 0.7852 0.72413 0.31469 0.0
C454 C 0.78955 0.7349 0.52861 0.0
H455 H 0.79807 0.74429 0.52606 0.0
H456 H 0.78434 0.75178 0.5645 0.0
H457 H 0.78977 0.71074 0.55918 0.0
C458 C 0.82967 0.78577 0.36739 0.0
N459 N 0.82567 0.75508 0.36811 0.0
N460 N 0.8149 0.75618 0.3711 0.0
C461 C 0.81171 0.78777 0.37144 0.0
C462 C 0.82096 0.80754 0.3692 0.0
C463 C 0.84162 0.79378 0.36976 0.0
H464 H 0.84553 0.78015 0.42012 0.0
H465 H 0.84307 0.82032 0.37856 0.0
H466 H 0.8455 0.78573 0.31234 0.0
O467 O 0.82779 0.6877 0.27231 0.0
O468 O 0.80967 0.68877 0.279 0.0
H469 H 0.7954 0.78458 0.32459 0.0
H470 H 0.79935 0.82522 0.35524 0.0
C471 C 0.80004 0.79885 0.37017 0.0
H472 H 0.79631 0.7945 0.4305 0.0
H473 H 0.78807 0.71983 0.25607 0.0
O474 O 0.849 0.71914 0.3506 0.0
C475 C 0.81846 0.67888 0.24574 0.0
Co476 Co 0.92605 0.7137 0.36976 0.0
Co477 Co 0.95202 0.71502 0.37101 0.0
C478 C 0.93872 0.67866 0.24402 0.0
O479 O 0.92949 0.68821 0.27136 0.0
O480 O 0.94767 0.68766 0.2769 0.0
C481 C 0.90261 0.71655 0.33041 0.0
O482 O 0.90559 0.71122 0.25504 0.0
C483 C 0.97416 0.73115 0.30692 0.0
C484 C 0.98428 0.72499 0.41678 0.0
C485 C 0.98487 0.73315 0.3354 0.0
N486 N 0.96758 0.72238 0.36884 0.0
N487 N 0.97372 0.71874 0.43421 0.0
C488 C 0.97031 0.73587 0.22159 0.0
H489 H 0.9622 0.72439 0.21233 0.0
H490 H 0.96952 0.76237 0.20874 0.0
H491 H 0.97634 0.72546 0.17836 0.0
C492 C 0.92947 0.78521 0.37041 0.0
N493 N 0.93338 0.75443 0.37061 0.0
N494 N 0.94415 0.75526 0.37284 0.0
C495 C 0.94742 0.78677 0.37491 0.0
C496 C 0.93824 0.80672 0.37314 0.0
C497 C 0.91758 0.79359 0.36418 0.0
H498 H 0.91386 0.77972 0.3134 0.0
H499 H 0.9163 0.82014 0.3541 0.0
H500 H 0.91337 0.78608 0.42084 0.0
O501 O 0.93067 0.6863 0.46145 0.0
O502 O 0.94877 0.68806 0.46782 0.0
H503 H 0.95961 0.82349 0.40274 0.0
H504 H 0.96315 0.79545 0.32278 0.0
C505 C 0.95907 0.79766 0.38251 0.0
H506 H 0.96345 0.78191 0.42652 0.0
H507 H 0.97069 0.71193 0.4909 0.0
O508 O 0.90994 0.7192 0.38472 0.0
C509 C 0.93962 0.6776 0.49424 0.0
Co510 Co 0.83319 0.04274 0.37983 0.0
Co511 Co 0.80732 0.04093 0.36838 0.0
C512 C 0.82104 0.07831 0.24882 0.0
O513 O 0.82995 0.06947 0.28261 0.0
O514 O 0.81179 0.06831 0.27477 0.0
C515 C 0.8562 0.03888 0.33569 0.0
O516 O 0.85258 0.04315 0.26151 0.0
C517 C 0.78537 0.02676 0.30094 0.0
C518 C 0.77542 0.02361 0.4126 0.0
C519 C 0.77486 0.02039 0.32919 0.0
N520 N 0.79188 0.03274 0.36506 0.0
N521 N 0.78584 0.03111 0.43147 0.0
C522 C 0.78912 0.02884 0.21469 0.0
H523 H 0.79531 0.00957 0.2029 0.0
H524 H 0.78221 0.02631 0.17154 0.0
H525 H 0.79315 0.05278 0.20445 0.0
C526 C 0.82994 0.97098 0.37692 0.0
N527 N 0.82601 1.00175 0.37583 0.0
N528 N 0.81524 1.00079 0.3721 0.0
C529 C 0.812 0.96924 0.3713 0.0
C530 C 0.8212 0.94936 0.37397 0.0
C531 C 0.84183 0.96266 0.38382 0.0
H532 H 0.84545 0.97604 0.43581 0.0
H533 H 0.84613 0.97075 0.32805 0.0
H534 H 0.84312 0.93602 0.39244 0.0
O535 O 0.8282 0.06875 0.47312 0.0
O536 O 0.81008 0.06783 0.46574 0.0
H537 H 0.79555 0.96887 0.416 0.0
H538 H 0.79954 0.93135 0.36613 0.0
C539 C 0.80032 0.95835 0.36514 0.0
H540 H 0.79679 0.96746 0.30762 0.0
H541 H 0.78888 0.03469 0.48991 0.0
O542 O 0.84933 0.03737 0.39348 0.0
C543 C 0.81886 0.07753 0.49954 0.0
Co544 Co 0.58247 0.46295 0.6359 0.0
Co545 Co 0.55658 0.46572 0.62742 0.0
C546 C 0.57016 0.42703 0.5082 0.0
O547 O 0.57926 0.43606 0.53875 0.0
O548 O 0.56104 0.43731 0.53597 0.0
C549 C 0.60577 0.46753 0.59555 0.0
O550 O 0.60256 0.4647 0.51985 0.0
C551 C 0.53436 0.47655 0.56032 0.0
C552 C 0.52499 0.48717 0.67189 0.0
C553 C 0.52398 0.48468 0.58854 0.0
N554 N 0.54116 0.47433 0.62427 0.0
N555 N 0.53547 0.4804 0.69073 0.0
C556 C 0.53806 0.4737 0.47416 0.0
H557 H 0.54659 0.48274 0.4681 0.0
H558 H 0.53258 0.48757 0.43294 0.0
H559 H 0.53798 0.44754 0.45626 0.0
C560 C 0.57948 0.53486 0.62818 0.0
N561 N 0.57544 0.50421 0.63057 0.0
N562 N 0.56468 0.50546 0.62741 0.0
C563 C 0.56154 0.53701 0.62264 0.0
C564 C 0.5708 0.55664 0.62289 0.0
C565 C 0.5914 0.54298 0.6335 0.0
H566 H 0.5951 0.52986 0.68561 0.0
H567 H 0.59557 0.5345 0.57755 0.0
H568 H 0.59276 0.56964 0.64091 0.0
O569 O 0.57724 0.43734 0.72965 0.0
O570 O 0.55913 0.43972 0.72651 0.0
H571 H 0.54522 0.54114 0.66828 0.0
H572 H 0.5493 0.5748 0.604 0.0
C573 C 0.54992 0.54802 0.61335 0.0
H574 H 0.5462 0.53555 0.56053 0.0
H575 H 0.5388 0.48055 0.74897 0.0
O576 O 0.59859 0.46779 0.6514 0.0
C577 C 0.56794 0.42946 0.75859 0.0
Co578 Co 0.67594 0.79103 0.62847 0.0
Co579 Co 0.70189 0.79038 0.62381 0.0
C580 C 0.68858 0.82785 0.50211 0.0
O581 O 0.67961 0.81824 0.53355 0.0
O582 O 0.69781 0.81825 0.52961 0.0
C583 C 0.65316 0.78549 0.57739 0.0
O584 O 0.65712 0.7881 0.50365 0.0
C585 C 0.72427 0.77737 0.56213 0.0
C586 C 0.73352 0.7722 0.67646 0.0
C587 C 0.73463 0.77041 0.59298 0.0
N588 N 0.7174 0.78263 0.62459 0.0
N589 N 0.72302 0.77985 0.69265 0.0
C590 C 0.72069 0.77636 0.47545 0.0
H591 H 0.71178 0.77123 0.4715 0.0
H592 H 0.72533 0.7575 0.44143 0.0
H593 H 0.72227 0.80053 0.44717 0.0
C594 C 0.67945 0.71957 0.62536 0.0
N595 N 0.68329 0.75043 0.62539 0.0
N596 N 0.69407 0.74986 0.62364 0.0
C597 C 0.69741 0.7184 0.6225 0.0
C598 C 0.68826 0.69822 0.62325 0.0
C599 C 0.66757 0.7109 0.63121 0.0
H600 H 0.66374 0.72496 0.68121 0.0
H601 H 0.66342 0.71788 0.57395 0.0
H602 H 0.66636 0.68439 0.64229 0.0
O603 O 0.68032 0.81648 0.72369 0.0
O604 O 0.69847 0.8167 0.72191 0.0
H605 H 0.71367 0.71761 0.67059 0.0
H606 H 0.70998 0.68092 0.61592 0.0
C607 C 0.70913 0.70789 0.61764 0.0
H608 H 0.71285 0.71809 0.56191 0.0
H609 H 0.71963 0.78242 0.75036 0.0
O610 O 0.65975 0.78555 0.63706 0.0
C611 C 0.68942 0.82552 0.75356 0.0
Co612 Co 0.5829 0.79115 0.6059 0.0
Co613 Co 0.55699 0.78986 0.61585 0.0
C614 C 0.57115 0.82262 0.74292 0.0
O615 O 0.58004 0.81412 0.70853 0.0
O616 O 0.56185 0.8144 0.71395 0.0
C617 C 0.60614 0.78673 0.64407 0.0
O618 O 0.60288 0.79033 0.71942 0.0
C619 C 0.53523 0.77498 0.68495 0.0
C620 C 0.52474 0.77716 0.57594 0.0
C621 C 0.52445 0.77152 0.65871 0.0
N622 N 0.54152 0.78251 0.62063 0.0
N623 N 0.53518 0.78394 0.55581 0.0
C624 C 0.53974 0.7689 0.76792 0.0
H625 H 0.54819 0.75911 0.76357 0.0
H626 H 0.53448 0.75162 0.80221 0.0
H627 H 0.54016 0.79242 0.80127 0.0
C628 C 0.57947 0.71971 0.60127 0.0
N629 N 0.57556 0.75049 0.60276 0.0
N630 N 0.56479 0.74969 0.60507 0.0
C631 C 0.5615 0.71819 0.60404 0.0
C632 C 0.57069 0.69818 0.6018 0.0
C633 C 0.59138 0.7114 0.60673 0.0
H634 H 0.59509 0.7249 0.65811 0.0
H635 H 0.59272 0.68483 0.61581 0.0
H636 H 0.59555 0.7194 0.55036 0.0
O637 O 0.57771 0.82093 0.52023 0.0
O638 O 0.55955 0.81941 0.52284 0.0
H639 H 0.54901 0.68131 0.58632 0.0
H640 H 0.54631 0.71064 0.66547 0.0
C641 C 0.5498 0.70739 0.60395 0.0
H642 H 0.54502 0.72254 0.56096 0.0
H643 H 0.53801 0.78916 0.49753 0.0
O644 O 0.59899 0.78575 0.58806 0.0
C645 C 0.56846 0.83058 0.4941 0.0
Co646 Co 0.67562 0.46365 0.61998 0.0
Co647 Co 0.70158 0.46421 0.62464 0.0
C648 C 0.68798 0.4271 0.74685 0.0
O649 O 0.67898 0.4368 0.71608 0.0
O650 O 0.69718 0.43634 0.71806 0.0
C651 C 0.65269 0.46794 0.66656 0.0
O652 O 0.65646 0.46373 0.74036 0.0
C653 C 0.72362 0.47935 0.69035 0.0
C654 C 0.73363 0.47898 0.57877 0.0
C655 C 0.73418 0.48452 0.66145 0.0
N656 N 0.7171 0.47186 0.62718 0.0
N657 N 0.72318 0.47145 0.56086 0.0
C658 C 0.71982 0.47966 0.77665 0.0
H659 H 0.71458 0.45806 0.7884 0.0
H660 H 0.71478 0.50179 0.78745 0.0
H661 H 0.72682 0.47937 0.81948 0.0
C662 C 0.6792 0.53509 0.62317 0.0
N663 N 0.68302 0.5042 0.62315 0.0
N664 N 0.6938 0.50474 0.62342 0.0
C665 C 0.69717 0.53618 0.62273 0.0
C666 C 0.68804 0.55639 0.62268 0.0
C667 C 0.66731 0.54374 0.62719 0.0
H668 H 0.66345 0.53039 0.67824 0.0
H669 H 0.66605 0.57037 0.63589 0.0
H670 H 0.66323 0.53581 0.57041 0.0
O671 O 0.68028 0.43774 0.52583 0.0
O672 O 0.69843 0.43807 0.52631 0.0
H673 H 0.71318 0.5321 0.57073 0.0
H674 H 0.7096 0.57303 0.60145 0.0
C675 C 0.70888 0.54675 0.61735 0.0
H676 H 0.71293 0.54259 0.67656 0.0
H677 H 0.72015 0.4664 0.50305 0.0
O678 O 0.65945 0.46939 0.60801 0.0
C679 C 0.68938 0.42893 0.49541 0.0
Co680 Co 0.42549 0.54359 0.36085 0.0
Co681 Co 0.45103 0.53855 0.38553 0.0
C682 C 0.43781 0.57857 0.49668 0.0
O683 O 0.42904 0.57057 0.45928 0.0
O684 O 0.4471 0.56726 0.47551 0.0
C685 C 0.40234 0.53801 0.4029 0.0
O686 O 0.40568 0.53973 0.47849 0.0
C687 C 0.47358 0.52513 0.44713 0.0
C688 C 0.48135 0.50619 0.33567 0.0
C689 C 0.48333 0.51225 0.41694 0.0
N690 N 0.46622 0.52631 0.38639 0.0
N691 N 0.47097 0.51516 0.31997 0.0
C692 C 0.471 0.53386 0.53314 0.0
H693 H 0.4621 0.53153 0.54495 0.0
H694 H 0.47561 0.51798 0.57574 0.0
H695 H 0.4734 0.55966 0.54409 0.0
C696 C 0.42813 0.47214 0.34931 0.0
N697 N 0.43213 0.50221 0.3633 0.0
N698 N 0.44226 0.50007 0.38819 0.0
C699 C 0.44468 0.46843 0.40112 0.0
C700 C 0.43586 0.4489 0.3754 0.0
C701 C 0.41814 0.46731 0.29798 0.0
H702 H 0.41712 0.48842 0.25633 0.0
H703 H 0.41076 0.46648 0.33714 0.0
H704 H 0.41878 0.44473 0.26102 0.0
O705 O 0.43078 0.56787 0.26913 0.0
O706 O 0.44879 0.56542 0.2841 0.0
H707 H 0.46156 0.45414 0.40176 0.0
H708 H 0.45337 0.43552 0.48124 0.0
C709 C 0.45481 0.45813 0.44562 0.0
H710 H 0.45735 0.47767 0.48805 0.0
H711 H 0.46704 0.5131 0.26405 0.0
O712 O 0.40939 0.53916 0.3463 0.0
C713 C 0.44034 0.57551 0.24602 0.0
Co714 Co 0.33245 0.21317 0.37013 0.0
Co715 Co 0.30653 0.21579 0.37626 0.0
C716 C 0.31981 0.1794 0.50097 0.0
O717 O 0.32892 0.1877 0.46911 0.0
O718 O 0.31072 0.18915 0.47163 0.0
C719 C 0.3554 0.21803 0.41652 0.0
O720 O 0.35165 0.21548 0.49088 0.0
C721 C 0.2845 0.2322 0.43999 0.0
C722 C 0.27458 0.23157 0.32798 0.0
C723 C 0.27399 0.23728 0.41051 0.0
N724 N 0.29106 0.22434 0.37734 0.0
N725 N 0.28505 0.22388 0.3107 0.0
C726 C 0.28815 0.2327 0.52658 0.0
H727 H 0.28499 0.21051 0.55742 0.0
H728 H 0.29721 0.23304 0.53053 0.0
H729 H 0.28478 0.25413 0.55903 0.0
C730 C 0.32935 0.28513 0.36692 0.0
N731 N 0.32536 0.25443 0.36969 0.0
N732 N 0.31459 0.25563 0.37193 0.0
C733 C 0.3114 0.28721 0.37058 0.0
C734 C 0.32065 0.30691 0.36707 0.0
C735 C 0.34128 0.29323 0.3616 0.0
H736 H 0.34504 0.27921 0.31125 0.0
H737 H 0.34537 0.28572 0.41868 0.0
H738 H 0.34264 0.31973 0.35141 0.0
O739 O 0.32767 0.18605 0.27804 0.0
O740 O 0.30954 0.18797 0.28064 0.0
H741 H 0.29487 0.28757 0.32747 0.0
H742 H 0.29903 0.32534 0.37555 0.0
C743 C 0.29976 0.29834 0.37739 0.0
H744 H 0.29635 0.2897 0.43576 0.0
H745 H 0.28811 0.21853 0.25317 0.0
O746 O 0.34862 0.21806 0.35799 0.0
C747 C 0.31842 0.17745 0.24976 0.0
Co748 Co 0.42544 0.20987 0.38094 0.0
Co749 Co 0.45097 0.21495 0.35482 0.0
C750 C 0.4376 0.1751 0.24417 0.0
O751 O 0.42884 0.18306 0.28185 0.0
O752 O 0.44691 0.18628 0.26529 0.0
C753 C 0.40222 0.21783 0.34249 0.0
O754 O 0.40543 0.21939 0.26656 0.0
C755 C 0.47359 0.2274 0.29253 0.0
C756 C 0.48109 0.24941 0.40151 0.0
C757 C 0.48322 0.24135 0.32155 0.0
N758 N 0.46612 0.22749 0.35269 0.0
N759 N 0.47072 0.24047 0.41766 0.0
C760 C 0.47124 0.21646 0.20778 0.0
H761 H 0.46244 0.21974 0.19348 0.0
H762 H 0.47628 0.23027 0.16348 0.0
H763 H 0.47323 0.19008 0.20232 0.0
C764 C 0.4281 0.28142 0.39147 0.0
N765 N 0.43207 0.25129 0.37794 0.0
N766 N 0.44218 0.25333 0.35241 0.0
C767 C 0.44459 0.2849 0.33843 0.0
C768 C 0.4358 0.30455 0.36428 0.0
C769 C 0.41816 0.28644 0.44328 0.0
H770 H 0.41715 0.26541 0.48521 0.0
H771 H 0.41075 0.28728 0.40452 0.0
H772 H 0.41887 0.30908 0.47996 0.0
O773 O 0.43093 0.18555 0.47194 0.0
O774 O 0.44894 0.18815 0.4566 0.0
H775 H 0.46145 0.29942 0.3357 0.0
H776 H 0.45312 0.31722 0.25595 0.0
C777 C 0.45464 0.29493 0.2926 0.0
H778 H 0.45717 0.27503 0.25106 0.0
H779 H 0.46668 0.24382 0.47277 0.0
O780 O 0.40936 0.21401 0.3977 0.0
C781 C 0.44051 0.17801 0.49488 0.0
Co782 Co 0.33254 0.54192 0.37892 0.0
Co783 Co 0.30662 0.54046 0.3688 0.0
C784 C 0.32047 0.57823 0.24973 0.0
O785 O 0.32937 0.56886 0.28267 0.0
O786 O 0.3112 0.5685 0.27601 0.0
C787 C 0.35543 0.5371 0.33343 0.0
O788 O 0.35166 0.54006 0.25924 0.0
C789 C 0.28462 0.52438 0.30173 0.0
C790 C 0.27431 0.52998 0.41082 0.0
C791 C 0.27387 0.52219 0.32919 0.0
N792 N 0.29108 0.53291 0.36448 0.0
N793 N 0.28483 0.5362 0.42937 0.0
C794 C 0.28861 0.5201 0.21661 0.0
H795 H 0.29681 0.53119 0.20874 0.0
H796 H 0.28923 0.49367 0.20248 0.0
H797 H 0.28272 0.5312 0.17334 0.0
C798 C 0.32925 0.47031 0.37313 0.0
N799 N 0.32531 0.50107 0.37389 0.0
N800 N 0.31454 0.50017 0.37156 0.0
C801 C 0.31129 0.46863 0.37049 0.0
C802 C 0.3205 0.44871 0.37055 0.0
C803 C 0.34118 0.46208 0.37109 0.0
H804 H 0.34515 0.47134 0.42704 0.0
H805 H 0.34504 0.47455 0.31868 0.0
H806 H 0.3426 0.43539 0.36572 0.0
O807 O 0.3276 0.56771 0.4727 0.0
O808 O 0.30947 0.56694 0.46708 0.0
H809 H 0.29506 0.47285 0.4188 0.0
H810 H 0.299 0.43159 0.39301 0.0
C811 C 0.29962 0.45764 0.37468 0.0
H812 H 0.29578 0.46055 0.31429 0.0
H813 H 0.28776 0.54275 0.48653 0.0
O814 O 0.34868 0.53666 0.39211 0.0
C815 C 0.31832 0.57647 0.50024 0.0
Co816 Co 0.58377 0.95919 0.12737 0.0
Co817 Co 0.55827 0.96472 0.10178 0.0
C818 C 0.57136 0.92233 0.99533 0.0
O819 O 0.58012 0.93075 0.03206 0.0
O820 O 0.5621 0.93413 0.01534 0.0
C821 C 0.6066 0.97339 0.08882 0.0
O822 O 0.60275 0.98728 0.02294 0.0
C823 C 0.5357 0.97927 0.03894 0.0
C824 C 0.52737 0.99129 0.15403 0.0
C825 C 0.52568 0.98857 0.07145 0.0
N826 N 0.54303 0.97675 0.09981 0.0
N827 N 0.53794 0.98402 0.16824 0.0
C828 C 0.53803 0.97147 0.952 0.0
H829 H 0.54596 0.95871 0.94536 0.0
H830 H 0.53834 0.99445 0.91638 0.0
H831 H 0.53135 0.95618 0.92668 0.0
C832 C 0.58134 0.0312 0.13356 0.0
N833 N 0.57737 1.00101 0.1204 0.0
N834 N 0.56724 0.00301 0.09531 0.0
C835 C 0.56483 0.03457 0.081 0.0
C836 C 0.57362 0.05433 0.1064 0.0
C837 C 0.59121 0.03632 0.18604 0.0
H838 H 0.59234 0.01498 0.22682 0.0
H839 H 0.59864 0.03802 0.14772 0.0
H840 H 0.59032 0.05862 0.2238 0.0
O841 O 0.57839 0.93729 0.22223 0.0
O842 O 0.56038 0.93981 0.20664 0.0
H843 H 0.54791 0.04834 0.07869 0.0
H844 H 0.55617 0.06692 -0.00064 0.0
C845 C 0.55475 0.04444 0.03551 0.0
H846 H 0.55237 0.02462 0.99338 0.0
H847 H 0.54171 0.98394 0.22501 0.0
O848 O 0.59994 0.96106 0.13955 0.0
C849 C 0.5688 0.93075 0.24658 0.0
Co850 Co 0.67635 0.28973 0.1264 0.0
Co851 Co 0.70226 0.29162 0.12088 0.0
C852 C 0.68834 0.3259 -0.00371 0.0
O853 O 0.67945 0.31575 0.02809 0.0
O854 O 0.69764 0.31771 0.0251 0.0
C855 C 0.65306 0.2864 0.08581 0.0
O856 O 0.65613 0.29553 0.01292 0.0
C857 C 0.72445 0.28045 0.05545 0.0
C858 C 0.73435 0.27861 0.16749 0.0
C859 C 0.73508 0.27585 0.08395 0.0
N860 N 0.71783 0.28573 0.11931 0.0
N861 N 0.72382 0.28489 0.18596 0.0
C862 C 0.72037 0.27693 0.97037 0.0
H863 H 0.7118 0.26788 0.97045 0.0
H864 H 0.72565 0.26006 0.93506 0.0
H865 H 0.72039 0.30128 0.94067 0.0
C866 C 0.68065 0.21878 0.12699 0.0
N867 N 0.68418 0.24996 0.12638 0.0
N868 N 0.69495 0.25035 0.12452 0.0
C869 C 0.69863 0.21922 0.12402 0.0
C870 C 0.68968 0.19822 0.12502 0.0
C871 C 0.66885 0.20917 0.13264 0.0
H872 H 0.66501 0.22198 0.18459 0.0
H873 H 0.66455 0.21701 0.07671 0.0
H874 H 0.66785 0.18241 0.14089 0.0
O875 O 0.68065 0.3175 0.21773 0.0
O876 O 0.69878 0.319 0.21684 0.0
H877 H 0.71503 0.22132 0.16925 0.0
H878 H 0.71163 0.18296 0.12088 0.0
C879 C 0.71045 0.20981 0.11874 0.0
H880 H 0.71389 0.21895 0.06093 0.0
H881 H 0.72067 0.2879 0.24429 0.0
O882 O 0.66031 0.28213 0.14004 0.0
C883 C 0.68964 0.32795 0.24655 0.0
Co884 Co 0.58342 0.29436 0.12108 0.0
Co885 Co 0.55778 0.28802 0.13998 0.0
C886 C 0.57062 0.32574 0.2598 0.0
O887 O 0.57958 0.31898 0.22314 0.0
O888 O 0.56146 0.31481 0.23468 0.0
C889 C 0.60629 0.28076 0.16059 0.0
O890 O 0.60246 0.27053 0.23056 0.0
C891 C 0.53486 0.27525 0.19506 0.0
C892 C 0.52738 0.25751 0.08144 0.0
C893 C 0.52507 0.26416 0.16189 0.0
N894 N 0.54255 0.27561 0.13657 0.0
N895 N 0.53799 0.26498 0.06886 0.0
C896 C 0.53708 0.28302 0.28195 0.0
H897 H 0.54571 0.27736 0.29735 0.0
H898 H 0.5315 0.26914 0.32248 0.0
H899 H 0.53569 0.3095 0.29156 0.0
C900 C 0.58101 0.22274 0.10081 0.0
N901 N 0.57689 0.25255 0.11669 0.0
N902 N 0.56666 0.24977 0.13903 0.0
C903 C 0.56427 0.21792 0.14863 0.0
C904 C 0.57324 0.1989 0.12309 0.0
C905 C 0.5912 0.21887 0.05121 0.0
H906 H 0.59242 0.24081 0.01258 0.0
H907 H 0.59842 0.21709 0.09179 0.0
H908 H 0.59069 0.19708 0.01133 0.0
O909 O 0.57826 0.32091 0.03253 0.0
O910 O 0.56022 0.31721 0.04272 0.0
H911 H 0.54747 0.20291 0.14486 0.0
H912 H 0.55541 0.18416 0.22551 0.0
C913 C 0.55402 0.20692 0.1904 0.0
H914 H 0.55118 0.22608 0.2329 0.0
H915 H 0.54215 0.26258 0.01396 0.0
O916 O 0.59961 0.29136 0.10768 0.0
C917 C 0.56876 0.32873 0.00841 0.0
Co918 Co 0.67662 0.96495 0.12455 0.0
Co919 Co 0.70252 0.96324 0.12578 0.0
C920 C 0.68878 0.92921 0.25314 0.0
O921 O 0.6798 0.93955 0.22334 0.0
O922 O 0.69797 0.93694 0.22173 0.0
C923 C 0.65341 0.95411 0.1411 0.0
O924 O 0.65655 0.92747 0.17908 0.0
C925 C 0.7247 0.97836 0.18817 0.0
C926 C 0.73475 0.97144 0.07815 0.0
C927 C 0.73538 0.98019 0.15912 0.0
N928 N 0.71809 0.96922 0.12691 0.0
N929 N 0.72417 0.96505 0.06146 0.0
C930 C 0.7209 0.98377 0.27341 0.0
H931 H 0.713 0.97129 0.28444 0.0
H932 H 0.71969 0.01029 0.28395 0.0
H933 H 0.72714 0.97485 0.31709 0.0
C934 C 0.68087 0.03581 0.12226 0.0
N935 N 0.68444 0.00469 0.12318 0.0
N936 N 0.69522 0.00443 0.12165 0.0
C937 C 0.69882 0.03562 0.11833 0.0
C938 C 0.68985 0.05645 0.1189 0.0
C939 C 0.66907 0.04539 0.12837 0.0
H940 H 0.66504 0.03096 0.17691 0.0
H941 H 0.66811 0.07183 0.14163 0.0
H942 H 0.66492 0.03966 0.07028 0.0
O943 O 0.68072 0.9367 0.03282 0.0
O944 O 0.69887 0.93593 0.03041 0.0
H945 H 0.71135 0.07094 0.08782 0.0
H946 H 0.71461 0.04371 0.17001 0.0
C947 C 0.71057 0.04543 0.11008 0.0
H948 H 0.71482 0.0288 0.06738 0.0
H949 H 0.72109 0.95802 0.00511 0.0
O950 O 0.66064 0.97364 0.11424 0.0
C951 C 0.68967 0.92657 0.00244 0.0
Co952 Co 0.4262 0.04087 0.85866 0.0
Co953 Co 0.45211 0.03898 0.87251 0.0
C954 C 0.43797 0.07467 0.99346 0.0
O955 O 0.42914 0.06603 0.95837 0.0
O956 O 0.44731 0.06537 0.96739 0.0
C957 C 0.40299 0.03675 0.89841 0.0
O958 O 0.4063 0.0403 0.97367 0.0
C959 C 0.47449 0.02662 0.93747 0.0
C960 C 0.48359 0.01796 0.82366 0.0
C961 C 0.48476 0.0183 0.9071 0.0
N962 N 0.46755 0.03016 0.87468 0.0
N963 N 0.47309 0.02524 0.80694 0.0
C964 C 0.47139 0.03283 0.02385 0.0
H965 H 0.4665 0.05556 0.02781 0.0
H966 H 0.4662 0.01242 0.04602 0.0
H967 H 0.47871 0.03533 0.06316 0.0
C968 C 0.42943 0.96923 0.85807 0.0
N969 N 0.43337 0.99998 0.86051 0.0
N970 N 0.44412 0.99902 0.86608 0.0
C971 C 0.44735 0.96748 0.86751 0.0
C972 C 0.43816 0.94765 0.8621 0.0
C973 C 0.41755 0.96091 0.85014 0.0
H974 H 0.41402 0.97437 0.79795 0.0
H975 H 0.41317 0.96893 0.9056 0.0
H976 H 0.41628 0.93428 0.84129 0.0
O977 O 0.43152 0.06821 0.76892 0.0
O978 O 0.44964 0.06695 0.77635 0.0
H979 H 0.46385 0.96386 0.82544 0.0
H980 H 0.45953 0.92963 0.88684 0.0
C981 C 0.45893 0.95651 0.87892 0.0
H982 H 0.46242 0.96852 0.93327 0.0
H983 H 0.46965 0.02642 0.74912 0.0
O984 O 0.4101 0.0358 0.84212 0.0
C985 C 0.44089 0.07719 0.74333 0.0
Co986 Co 0.33321 0.71285 0.86715 0.0
Co987 Co 0.30734 0.71609 0.87783 0.0
C988 C 0.32069 0.67943 0.00028 0.0
O989 O 0.32963 0.68747 0.9657 0.0
O990 O 0.31147 0.68948 0.97378 0.0
C991 C 0.35615 0.71989 0.91353 0.0
O992 O 0.35234 0.72156 0.98789 0.0
C993 C 0.28514 0.73073 0.94088 0.0
C994 C 0.27584 0.73632 0.82687 0.0
C995 C 0.27481 0.73818 0.91038 0.0
N996 N 0.29193 0.7251 0.87817 0.0
N997 N 0.28628 0.72816 0.8103 0.0
C998 C 0.28876 0.73143 0.02747 0.0
H999 H 0.29767 0.73662 0.03124 0.0
H1000 H 0.28413 0.75013 0.0621 0.0
H1001 H 0.28722 0.70714 0.0552 0.0
C1002 C 0.3304 0.78486 0.86545 0.0
N1003 N 0.3263 0.75428 0.86806 0.0
N1004 N 0.31555 0.75579 0.87251 0.0
C1005 C 0.31248 0.78749 0.87284 0.0
C1006 C 0.32179 0.80691 0.86859 0.0
C1007 C 0.34232 0.79266 0.85726 0.0
H1008 H 0.34598 0.7773 0.80895 0.0
H1009 H 0.34652 0.78683 0.91509 0.0
H1010 H 0.34365 0.81884 0.84254 0.0
O1011 O 0.32821 0.68619 0.77515 0.0
O1012 O 0.3101 0.68795 0.78231 0.0
H1013 H 0.29603 0.78989 0.82901 0.0
H1014 H 0.30032 0.82598 0.88367 0.0
C1015 C 0.3009 0.79895 0.88106 0.0
H1016 H 0.29734 0.78878 0.9374 0.0
H1017 H 0.28961 0.72532 0.75248 0.0
O1018 O 0.34943 0.71674 0.85518 0.0
C1019 C 0.31884 0.67754 0.74915 0.0
Co1020 Co 0.42636 0.71298 0.88087 0.0
Co1021 Co 0.45228 0.71447 0.8699 0.0
C1022 C 0.43825 0.67916 0.74705 0.0
O1023 O 0.42936 0.68783 0.7813 0.0
O1024 O 0.44756 0.68824 0.77429 0.0
C1025 C 0.40305 0.7161 0.84257 0.0
O1026 O 0.40621 0.71 0.768 0.0
C1027 C 0.47431 0.72981 0.80424 0.0
C1028 C 0.48419 0.72994 0.91637 0.0
C1029 C 0.48485 0.73508 0.83352 0.0
N1030 N 0.46776 0.72222 0.86711 0.0
N1031 N 0.47376 0.72206 0.93377 0.0
C1032 C 0.47029 0.73417 0.71931 0.0
H1033 H 0.46138 0.73957 0.71918 0.0
H1034 H 0.47483 0.75415 0.68852 0.0
H1035 H 0.47164 0.71116 0.68515 0.0
C1036 C 0.4297 0.78449 0.87733 0.0
N1037 N 0.43364 0.75374 0.8786 0.0
N1038 N 0.44441 0.75463 0.87606 0.0
C1039 C 0.44766 0.78614 0.87426 0.0
C1040 C 0.43845 0.80607 0.87416 0.0
C1041 C 0.41776 0.79265 0.87377 0.0
H1042 H 0.41389 0.77873 0.82373 0.0
H1043 H 0.41636 0.81914 0.86385 0.0
H1044 H 0.41379 0.78502 0.93125 0.0
O1045 O 0.43153 0.68548 0.97124 0.0
O1046 O 0.44966 0.68664 0.96559 0.0
H1047 H 0.46006 0.82345 0.89048 0.0
H1048 H 0.46314 0.79249 0.81599 0.0
C1049 C 0.45936 0.79704 0.87601 0.0
H1050 H 0.46392 0.78286 0.92219 0.0
H1051 H 0.47068 0.71718 0.99152 0.0
O1052 O 0.41026 0.71878 0.89777 0.0
C1053 C 0.44084 0.67645 -0.00222 0.0
Co1054 Co 0.33312 0.04318 0.87642 0.0
Co1055 Co 0.30722 0.03906 0.87235 0.0
C1056 C 0.32027 0.07841 0.75076 0.0
O1057 O 0.32952 0.06986 0.77972 0.0
O1058 O 0.31134 0.06764 0.78048 0.0
C1059 C 0.35605 0.03869 0.82952 0.0
O1060 O 0.35225 0.04099 0.75526 0.0
C1061 C 0.28545 0.02231 0.80448 0.0
C1062 C 0.27519 0.02261 0.91481 0.0
C1063 C 0.27484 0.01699 0.8321 0.0
N1064 N 0.29181 0.03002 0.86839 0.0
N1065 N 0.28559 0.0303 0.93399 0.0
C1066 C 0.28941 0.02205 0.71857 0.0
H1067 H 0.2948 0.04337 0.70756 0.0
H1068 H 0.29434 0.99968 0.70792 0.0
H1069 H 0.28249 0.02277 0.67504 0.0
C1070 C 0.33044 0.97099 0.8717 0.0
N1071 N 0.32626 1.00149 0.8729 0.0
N1072 N 0.31549 0.99969 0.87311 0.0
C1073 C 0.3125 0.96794 0.87307 0.0
C1074 C 0.32186 0.94872 0.87189 0.0
C1075 C 0.34241 0.96357 0.86618 0.0
H1076 H 0.34593 0.97663 0.81337 0.0
H1077 H 0.34398 0.93701 0.85913 0.0
H1078 H 0.34658 0.97265 0.92152 0.0
O1079 O 0.32807 0.06894 0.97097 0.0
O1080 O 0.30996 0.06526 0.9704 0.0
H1081 H 0.29644 0.97055 0.92493 0.0
H1082 H 0.30052 0.9299 0.89535 0.0
C1083 C 0.30092 0.95616 0.87873 0.0
H1084 H 0.29683 0.95961 0.81939 0.0
H1085 H 0.28846 0.03562 0.99207 0.0
O1086 O 0.34933 0.03882 0.8884 0.0
C1087 C 0.31878 0.07626 0.00099 0.0
C1088 C 0.0764 0.61091 0.07108 0.0
C1089 C 0.07128 0.59367 0.13431 0.0
C1090 C 0.07636 0.64522 0.0695 0.0
C1091 C 0.07118 0.66326 0.13103 0.0
H1092 H 0.08026 0.59777 0.02176 0.0
H1093 H 0.08022 0.65772 0.01913 0.0
S1094 S 0.05748 0.62968 0.31328 0.0
N1095 N 0.06157 0.59708 0.26254 0.0
N1096 N 0.06137 0.66158 0.25899 0.0
C1097 C 0.06628 0.64632 0.19549 0.0
C1098 C 0.06637 0.61147 0.19734 0.0
C1099 C 0.19326 0.61056 0.18297 0.0
C1100 C 0.18819 0.59325 0.11977 0.0
C1101 C 0.19318 0.64484 0.18436 0.0
C1102 C 0.1881 0.66281 0.1222 0.0
H1103 H 0.19726 0.59748 0.23184 0.0
H1104 H 0.19712 0.65741 0.23428 0.0
S1105 S 0.17416 0.62889 0.94141 0.0
N1106 N 0.1782 0.59638 0.99277 0.0
N1107 N 0.17818 0.6609 0.99474 0.0
C1108 C 0.18306 0.64576 0.05853 0.0
C1109 C 0.18308 0.61091 0.05741 0.0
C1110 C 0.94283 0.39449 0.80826 0.0
C1111 C 0.93761 0.41241 0.86984 0.0
C1112 C 0.94293 0.36021 0.80957 0.0
C1113 C 0.93769 0.34282 0.87192 0.0
H1114 H 0.9469 0.4071 0.75896 0.0
H1115 H 0.9471 0.3472 0.76141 0.0
S1116 S 0.9231 0.37823 0.04802 0.0
N1117 N 0.92728 0.41031 0.99558 0.0
N1118 N 0.9273 0.34578 -0.00285 0.0
C1119 C 0.93237 0.36039 0.93341 0.0
C1120 C 0.93235 0.39526 0.9325 0.0
C1121 C 0.81628 0.39529 0.93533 0.0
C1122 C 0.82129 0.41329 0.87299 0.0
C1123 C 0.81635 0.36101 0.93444 0.0
C1124 C 0.82145 0.34371 0.87125 0.0
H1125 H 0.81226 0.40783 0.98494 0.0
H1126 H 0.81238 0.34792 0.98341 0.0
S1127 S 0.83542 0.37958 0.69279 0.0
N1128 N 0.83133 0.41153 0.74602 0.0
N1129 N 0.83142 0.347 0.74414 0.0
C1130 C 0.82651 0.36144 0.80878 0.0
C1131 C 0.82645 0.39631 0.80973 0.0
C1132 C 0.06685 0.11047 0.55929 0.0
C1133 C 0.0717 0.09325 0.62363 0.0
C1134 C 0.06688 0.14476 0.5577 0.0
C1135 C 0.0717 0.16286 0.62072 0.0
H1136 H 0.063 0.09732 0.50991 0.0
H1137 H 0.06306 0.15723 0.50713 0.0
S1138 S 0.08525 0.12924 0.80353 0.0
N1139 N 0.08136 0.09663 0.75197 0.0
N1140 N 0.08135 0.16116 0.74934 0.0
C1141 C 0.07664 0.14591 0.68504 0.0
C1142 C 0.07664 0.11103 0.68649 0.0
C1143 C 0.19385 0.11127 0.55986 0.0
C1144 C 0.18872 0.09316 0.62154 0.0
C1145 C 0.19387 0.14555 0.56139 0.0
C1146 C 0.18864 0.16273 0.62411 0.0
H1147 H 0.19786 0.09882 0.51006 0.0
H1148 H 0.19791 0.15873 0.51283 0.0
S1149 S 0.17439 0.12674 0.80111 0.0
N1150 N 0.17858 0.09484 0.74815 0.0
N1151 N 0.17845 0.15936 0.75018 0.0
C1152 C 0.18349 0.14495 0.68603 0.0
C1153 C 0.18355 0.1101 0.68487 0.0
C1154 C 0.94325 0.89441 0.30918 0.0
C1155 C 0.93803 0.91238 0.37067 0.0
C1156 C 0.94326 0.86013 0.31034 0.0
C1157 C 0.93795 0.84281 0.3725 0.0
H1158 H 0.94736 0.90697 0.26 0.0
H1159 H 0.94741 0.84706 0.26218 0.0
S1160 S 0.9234 0.8784 0.54856 0.0
N1161 N 0.92768 0.91042 0.49632 0.0
N1162 N 0.92753 0.84589 0.49759 0.0
C1163 C 0.93266 0.86044 0.434 0.0
C1164 C 0.93273 0.89531 0.43323 0.0
C1165 C 0.81632 0.89532 0.43443 0.0
C1166 C 0.82155 0.91325 0.37293 0.0
C1167 C 0.81623 0.86104 0.43306 0.0
C1168 C 0.82137 0.84367 0.37021 0.0
H1169 H 0.81225 0.90792 0.48373 0.0
H1170 H 0.81211 0.84801 0.48146 0.0
S1171 S 0.83583 0.87937 0.19362 0.0
N1172 N 0.83179 0.91137 0.24693 0.0
N1173 N 0.83158 0.84684 0.2441 0.0
C1174 C 0.82663 0.86134 0.30848 0.0
C1175 C 0.82674 0.89621 0.30995 0.0
C1176 C 0.56569 0.64591 0.67056 0.0
C1177 C 0.57101 0.6621 0.60654 0.0
C1178 C 0.56579 0.61172 0.676 0.0
C1179 C 0.57122 0.59268 0.61764 0.0
H1180 H 0.56146 0.6598 0.71684 0.0
H1181 H 0.56158 0.60005 0.72605 0.0
S1182 S 0.58601 0.62323 0.4368 0.0
N1183 N 0.58161 0.65665 0.4827 0.0
N1184 N 0.58182 0.59224 0.49314 0.0
C1185 C 0.57658 0.60854 0.55349 0.0
C1186 C 0.57647 0.64334 0.54786 0.0
C1187 C 0.69324 0.61003 0.68366 0.0
C1188 C 0.68784 0.59252 0.62221 0.0
C1189 C 0.69329 0.64431 0.68387 0.0
C1190 C 0.68799 0.6621 0.62246 0.0
H1191 H 0.6974 0.5971 0.73199 0.0
H1192 H 0.69748 0.65702 0.73241 0.0
S1193 S 0.67319 0.62771 0.44601 0.0
N1194 N 0.67738 0.59533 0.49724 0.0
N1195 N 0.6775 0.65986 0.49759 0.0
C1196 C 0.68262 0.64488 0.56058 0.0
C1197 C 0.68255 0.61002 0.56042 0.0
C1198 C 0.44506 0.3938 0.36749 0.0
C1199 C 0.43533 0.41208 0.373 0.0
C1200 C 0.44505 0.35965 0.37008 0.0
C1201 C 0.4353 0.34139 0.36598 0.0
H1202 H 0.45291 0.40554 0.36123 0.0
H1203 H 0.45291 0.34791 0.37538 0.0
S1204 S 0.40727 0.3768 0.37077 0.0
N1205 N 0.41547 0.40834 0.38392 0.0
N1206 N 0.41543 0.34522 0.35688 0.0
C1207 C 0.42542 0.35933 0.36493 0.0
C1208 C 0.42544 0.39418 0.37496 0.0
C1209 C 0.3263 0.36042 0.42706 0.0
C1210 C 0.32104 0.34301 0.36484 0.0
C1211 C 0.32621 0.39474 0.42819 0.0
C1212 C 0.32086 0.4126 0.36706 0.0
H1213 H 0.33032 0.34741 0.47592 0.0
H1214 H 0.33017 0.40739 0.47786 0.0
S1215 S 0.30667 0.37841 0.18762 0.0
N1216 N 0.31091 0.34598 0.23844 0.0
N1217 N 0.31073 0.41049 0.24054 0.0
C1218 C 0.31581 0.39544 0.30363 0.0
C1219 C 0.31591 0.3606 0.30246 0.0
C1220 C 0.56421 0.14355 0.11116 0.0
C1221 C 0.57388 0.16203 0.11837 0.0
C1222 C 0.56427 0.10938 0.11271 0.0
C1223 C 0.57406 0.09125 0.10885 0.0
H1224 H 0.55635 0.15513 0.1045 0.0
H1225 H 0.55642 0.09752 0.11718 0.0
S1226 S 0.60201 0.12714 0.11677 0.0
N1227 N 0.59373 0.15847 0.13039 0.0
N1228 N 0.59392 0.09552 0.10126 0.0
C1229 C 0.58389 0.10941 0.10904 0.0
C1230 C 0.5838 0.14424 0.12026 0.0
C1231 C 0.69538 0.10978 0.17984 0.0
C1232 C 0.68988 0.09255 0.11847 0.0
C1233 C 0.69527 0.14406 0.18173 0.0
C1234 C 0.68974 0.1621 0.12188 0.0
H1235 H 0.69966 0.09664 0.22727 0.0
H1236 H 0.69946 0.15656 0.2306 0.0
S1237 S 0.67471 0.12842 0.94558 0.0
N1238 N 0.67912 0.09585 0.99501 0.0
N1239 N 0.67904 0.16035 -0.00216 0.0
C1240 C 0.68436 0.14513 0.05959 0.0
C1241 C 0.6844 0.11029 0.058 0.0
C1242 C 0.43237 0.89473 0.92431 0.0
C1243 C 0.43784 0.91159 0.86209 0.0
C1244 C 0.43251 0.86045 0.9275 0.0
C1245 C 0.43807 0.84211 0.86836 0.0
H1246 H 0.42817 0.90815 0.97159 0.0
H1247 H 0.4284 0.84822 0.9772 0.0
S1248 S 0.45281 0.87484 0.68951 0.0
N1249 N 0.44844 0.90767 0.73803 0.0
N1250 N 0.44856 0.8432 0.74324 0.0
C1251 C 0.4433 0.85874 0.80476 0.0
C1252 C 0.44321 0.89354 0.80178 0.0
C1253 C 0.3169 0.86094 0.80821 0.0
C1254 C 0.32234 0.84301 0.86868 0.0
C1255 C 0.31693 0.89522 0.80904 0.0
C1256 C 0.32241 0.91261 0.8703 0.0
H1257 H 0.31255 0.84834 0.76029 0.0
H1258 H 0.3126 0.90824 0.76171 0.0
S1259 S 0.33754 0.87696 0.04373 0.0
N1260 N 0.33317 0.84495 0.99196 0.0
N1261 N 0.33319 0.90948 0.99377 0.0
C1262 C 0.32792 0.89495 0.93083 0.0
C1263 C 0.3279 0.86008 0.92992 0.0
C1264 C 1.0043 0.48014 0.05297 0.0
C1265 C 0.01411 0.49744 0.04082 0.0
C1266 C 0.99471 0.48862 0.01104 0.0
C1267 C 0.99457 0.515 0.95634 0.0
H1268 H 1.00408 0.45948 0.09408 0.0
H1269 H 0.98748 0.4738 0.01999 0.0
S1270 S 0.01782 0.57017 0.90935 0.0
N1271 N 0.02289 0.54366 0.97486 0.0
N1272 N 0.00494 0.55932 0.89519 0.0
C1273 C 1.00429 0.53283 0.94476 0.0
C1274 C 0.01403 0.52422 0.98746 0.0
C1275 C 0.25191 0.73948 0.06689 0.0
C1276 C 0.24496 0.76433 0.03795 0.0
C1277 C 0.26158 0.7312 0.0258 0.0
C1278 C 0.26472 0.74772 0.95471 0.0
H1279 H 0.24976 0.72598 0.12114 0.0
H1280 H 0.26651 0.71131 0.04912 0.0
S1281 S 0.24999 0.81702 0.85879 0.0
N1282 N 0.24234 0.80707 0.93753 0.0
N1283 N 0.2604 0.79126 0.85958 0.0
C1284 C 0.25793 0.77298 0.92595 0.0
C1285 C 0.2481 0.78143 0.96786 0.0
C1286 C 0.99507 0.76841 0.23588 0.0
C1287 C 0.99503 0.74217 0.29106 0.0
C1288 C 0.00468 0.77772 0.19535 0.0
C1289 C 0.01466 0.7615 0.20938 0.0
H1290 H 0.98769 0.78235 0.225 0.0
H1291 H 1.00434 0.79807 0.15336 0.0
S1292 S 0.0188 0.68974 0.3434 0.0
N1293 N 0.00575 0.69926 0.35508 0.0
N1294 N 0.02376 0.71656 0.27818 0.0
C1295 C 0.01472 0.73501 0.26362 0.0
C1296 C 0.00493 0.7255 0.30487 0.0
C1297 C 0.26376 0.48693 0.22932 0.0
C1298 C 0.26379 0.51338 0.28382 0.0
C1299 C 0.25415 0.47752 0.18886 0.0
C1300 C 0.24419 0.49392 0.20221 0.0
H1301 H 0.27113 0.47283 0.21922 0.0
H1302 H 0.25448 0.45689 0.14772 0.0
S1303 S 0.24012 0.5666 0.33312 0.0
N1304 N 0.25313 0.55688 0.34572 0.0
N1305 N 0.23514 0.53952 0.26869 0.0
C1306 C 0.24415 0.52081 0.2552 0.0
C1307 C 0.25392 0.53035 0.29648 0.0
C1308 C 0.7617 0.23333 0.02864 0.0
C1309 C 0.76475 0.24859 0.95573 0.0
C1310 C 0.75208 0.24241 0.06946 0.0
C1311 C 0.74514 0.26694 0.03868 0.0
H1312 H 0.76663 0.21376 0.05351 0.0
H1313 H 0.74998 0.22972 0.12498 0.0
S1314 S 0.75013 0.31682 0.85454 0.0
N1315 N 0.76045 0.29075 0.85691 0.0
N1316 N 0.74255 0.30832 0.93471 0.0
C1317 C 0.74826 0.28296 0.96695 0.0
C1318 C 0.75801 0.27359 0.92513 0.0
C1319 C 1.00448 0.27586 0.69319 0.0
C1320 C 0.01432 0.2587 0.70545 0.0
C1321 C 0.9949 0.26726 0.73503 0.0
C1322 C 0.99478 0.24088 0.78978 0.0
H1323 H 1.00424 0.29648 0.65196 0.0
H1324 H 0.98764 0.28193 0.7258 0.0
S1325 S 0.01811 0.18601 0.83688 0.0
N1326 N 0.02315 0.21263 0.77152 0.0
N1327 N 0.0052 0.19668 0.8509 0.0
C1328 C 0.00452 0.22318 0.80144 0.0
C1329 C 0.01427 0.23194 0.75885 0.0
C1330 C 0.76381 0.48777 0.73046 0.0
C1331 C 0.76389 0.51376 0.78624 0.0
C1332 C 0.75414 0.47846 0.69072 0.0
C1333 C 0.74417 0.49453 0.706 0.0
H1334 H 0.7712 0.47396 0.71877 0.0
H1335 H 0.75444 0.45818 0.64852 0.0
S1336 S 0.74021 0.56603 0.84107 0.0
N1337 N 0.75327 0.55647 0.85173 0.0
N1338 N 0.73516 0.5394 0.77579 0.0
C1339 C 0.74418 0.52098 0.76037 0.0
C1340 C 0.75401 0.53038 0.80102 0.0
C1341 C 0.01186 0.9812 0.46545 0.0
C1342 C 0.01483 0.9966 0.53837 0.0
C1343 C 1.00217 0.9897 0.42476 0.0
C1344 C 0.99506 0.01375 0.45571 0.0
H1345 H 0.01693 0.96199 0.4404 0.0
H1346 H 1.00016 0.977 0.36912 0.0
S1347 S 0.99973 0.06376 0.64002 0.0
N1348 N 0.01023 0.03836 0.63744 0.0
N1349 N 0.9922 0.05485 0.55991 0.0
C1350 C 0.99808 0.02987 0.52753 0.0
C1351 C 0.0079 0.02109 0.5692 0.0
C1352 C 0.24489 0.23775 0.49095 0.0
C1353 C 0.24442 0.26703 0.53556 0.0
C1354 C 0.25452 0.22825 0.45089 0.0
C1355 C 0.26404 0.2475 0.45486 0.0
H1356 H 0.23787 0.22165 0.48851 0.0
H1357 H 0.25457 0.20545 0.41744 0.0
S1358 S 0.26676 0.32782 0.55692 0.0
N1359 N 0.25415 0.31597 0.57781 0.0
N1360 N 0.27213 0.29848 0.50081 0.0
C1361 C 0.26362 0.27715 0.49765 0.0
C1362 C 0.25384 0.28674 0.53873 0.0
C1363 C 0.25504 0.02423 0.79933 0.0
C1364 C 0.26494 0.00753 0.78588 0.0
C1365 C 0.24547 0.01564 0.75747 0.0
C1366 C 0.24541 0.98972 0.70148 0.0
H1367 H 0.25474 0.04448 0.84161 0.0
H1368 H 0.23816 0.02999 0.76765 0.0
S1369 S 0.26893 0.93624 0.65022 0.0
N1370 N 0.27392 0.96239 0.71694 0.0
N1371 N 0.25597 0.94655 0.63731 0.0
C1372 C 0.25522 0.97253 0.68836 0.0
C1373 C 0.26496 0.98125 0.73105 0.0
C1374 C 0.74781 0.77717 0.47707 0.0
C1375 C 0.74478 0.76106 0.54898 0.0
C1376 C 0.75745 0.76878 0.43567 0.0
C1377 C 0.7645 0.74426 0.46508 0.0
H1378 H 0.7428 0.79675 0.45312 0.0
H1379 H 0.75947 0.78186 0.38053 0.0
S1380 S 0.75986 0.69295 0.64723 0.0
N1381 N 0.74936 0.7184 0.6459 0.0
N1382 N 0.76739 0.70248 0.56752 0.0
C1383 C 0.76151 0.72772 0.53635 0.0
C1384 C 0.7517 0.73624 0.57854 0.0
C1385 C 0.755 0.02621 0.29728 0.0
C1386 C 0.76502 0.01032 0.28339 0.0
C1387 C 0.74543 0.0164 0.25702 0.0
C1388 C 0.74551 0.98993 0.20253 0.0
H1389 H 0.75458 0.04664 0.33896 0.0
H1390 H 0.73799 0.03009 0.26766 0.0
S1391 S 0.76952 0.93852 0.15042 0.0
N1392 N 0.77437 0.96573 0.21506 0.0
N1393 N 0.75642 0.94734 0.13897 0.0
C1394 C 0.75548 0.97366 0.18876 0.0
C1395 C 0.76522 0.98373 0.22958 0.0
C1396 C 0.50762 0.51945 0.56052 0.0
C1397 C 0.51384 0.49146 0.54227 0.0
C1398 C 0.49778 0.52614 0.51982 0.0
C1399 C 0.4937 0.50477 0.46029 0.0
H1400 H 0.51045 0.53656 0.60608 0.0
H1401 H 0.49347 0.54848 0.53438 0.0
S1402 S 0.50651 0.4268 0.39453 0.0
N1403 N 0.51498 0.44142 0.46358 0.0
N1404 N 0.49652 0.45383 0.38697 0.0
C1405 C 0.49983 0.47654 0.4419 0.0
C1406 C 0.50987 0.46985 0.4831 0.0
C1407 C 0.50715 0.73944 0.67289 0.0
C1408 C 0.51451 0.76249 0.70526 0.0
C1409 C 0.49752 0.73082 0.71414 0.0
C1410 C 0.49485 0.74517 0.78897 0.0
H1411 H 0.50892 0.72763 0.61559 0.0
H1412 H 0.49226 0.71234 0.68789 0.0
S1413 S 0.51075 0.80941 0.89553 0.0
N1414 N 0.518 0.80141 0.81343 0.0
N1415 N 0.50004 0.78483 0.89174 0.0
C1416 C 0.50205 0.76863 0.82137 0.0
C1417 C 0.51183 0.77747 0.77924 0.0
C1418 C 0.49834 0.22442 0.22707 0.0
C1419 C 0.49364 0.24804 0.27832 0.0
C1420 C 0.50848 0.22997 0.18929 0.0
C1421 C 0.51433 0.25919 0.20201 0.0
H1422 H 0.4943 0.20117 0.21755 0.0
H1423 H 0.51188 0.21097 0.15107 0.0
S1424 S 0.50498 0.33024 0.32335 0.0
N1425 N 0.49526 0.3026 0.33551 0.0
N1426 N 0.51417 0.31319 0.26331 0.0
C1427 C 0.50957 0.28335 0.2512 0.0
C1428 C 0.49928 0.27768 0.28984 0.0
C1429 C 0.505 0.02358 0.92318 0.0
C1430 C 0.49502 0.01053 0.95098 0.0
C1431 C 0.51492 0.01609 0.96174 0.0
C1432 C 0.51523 0.99507 0.02911 0.0
H1433 H 0.50512 0.04006 0.87175 0.0
H1434 H 0.52236 0.02744 0.93973 0.0
S1435 S 0.4916 0.95157 0.12003 0.0
N1436 N 0.48622 0.97321 0.04549 0.0
N1437 N 0.50483 0.95998 0.11953 0.0
C1438 C 0.50535 0.98143 0.05672 0.0
C1439 C 0.49526 0.98884 0.01708 0.0
C1440 C 0.05902 0.39092 0.34443 0.0
C1441 C 0.06887 0.403 0.31162 0.0
C1442 C 0.05901 0.36577 0.40229 0.0
C1443 C 0.06885 0.35165 0.42974 0.0
H1444 H 0.05122 0.40081 0.32511 0.0
H1445 H 0.05122 0.35769 0.42638 0.0
S1446 S 0.09692 0.3739 0.36185 0.0
N1447 N 0.08878 0.39854 0.31073 0.0
N1448 N 0.08874 0.35127 0.41815 0.0
C1449 C 0.07876 0.3633 0.39685 0.0
C1450 C 0.07878 0.38898 0.33836 0.0
C1451 C 0.19934 0.86385 0.34238 0.0
C1452 C 0.18955 0.85483 0.30331 0.0
C1453 C 0.19956 0.88903 0.39993 0.0
C1454 C 0.18998 0.90624 0.4208 0.0
H1455 H 0.20693 0.8513 0.32876 0.0
H1456 H 0.20726 0.8945 0.42948 0.0
S1457 S 0.16231 0.8938 0.33242 0.0
N1458 N 0.17008 0.86628 0.28735 0.0
N1459 N 0.17051 0.91356 0.39488 0.0
C1460 C 0.18017 0.89797 0.38099 0.0
C1461 C 0.17994 0.87228 0.32262 0.0
C1462 C 0.05953 0.86733 0.90117 0.0
C1463 C 0.06887 0.84825 0.91762 0.0
C1464 C 0.0598 0.89244 0.84322 0.0
C1465 C 0.06943 0.89952 0.79972 0.0
H1466 H 0.05203 0.86351 0.93488 0.0
H1467 H 0.05245 0.90669 0.83337 0.0
S1468 S 0.09581 0.8544 0.81401 0.0
N1469 N 0.08778 0.83653 0.8811 0.0
N1470 N 0.08833 0.88363 0.77303 0.0
C1471 C 0.07873 0.8799 0.81382 0.0
C1472 C 0.07843 0.85428 0.87238 0.0
C1473 C 0.19838 0.3636 0.84483 0.0
C1474 C 0.18858 0.35363 0.80733 0.0
C1475 C 0.19848 0.38873 0.90261 0.0
C1476 C 0.18879 0.40499 0.92526 0.0
H1477 H 0.20607 0.35191 0.82964 0.0
H1478 H 0.20622 0.39503 0.93058 0.0
S1479 S 0.16098 0.38946 0.84209 0.0
N1480 N 0.16893 0.3629 0.7953 0.0
N1481 N 0.16915 0.41006 0.90313 0.0
C1482 C 0.17895 0.39563 0.88726 0.0
C1483 C 0.17883 0.36996 0.82873 0.0
C1484 C 0.94927 0.61638 0.65242 0.0
C1485 C 0.9395 0.60099 0.67694 0.0
C1486 C 0.94921 0.64155 0.59472 0.0
C1487 C 0.93938 0.6524 0.55911 0.0
H1488 H 0.95704 0.60933 0.67881 0.0
H1489 H 0.95696 0.65249 0.57788 0.0
S1490 S 0.91154 0.6194 0.60038 0.0
N1491 N 0.91972 0.59788 0.65926 0.0
N1492 N 0.91958 0.6452 0.55185 0.0
C1493 C 0.92955 0.63704 0.58272 0.0
C1494 C 0.92961 0.61133 0.64114 0.0
C1495 C 0.82822 0.13869 0.65734 0.0
C1496 C 0.81843 0.15359 0.6831 0.0
C1497 C 0.82819 0.11356 0.6001 0.0
C1498 C 0.81837 0.10217 0.56548 0.0
H1499 H 0.83604 0.14622 0.68204 0.0
H1500 H 0.836 0.10324 0.58243 0.0
S1501 S 0.79043 0.13296 0.61159 0.0
N1502 N 0.79859 0.15508 0.66944 0.0
N1503 N 0.79852 0.10783 0.56129 0.0
C1504 C 0.80848 0.11673 0.59069 0.0
C1505 C 0.80851 0.14244 0.64938 0.0
C1506 C 0.94943 0.14071 0.09539 0.0
C1507 C 0.93959 0.15492 0.06834 0.0
C1508 C 0.94944 0.11553 0.15303 0.0
C1509 C 0.93961 0.10348 0.18608 0.0
H1510 H 0.95722 0.14871 0.07107 0.0
H1511 H 0.95725 0.10554 0.17189 0.0
S1512 S 0.91154 0.13293 0.1373 0.0
N1513 N 0.91971 0.15554 0.08072 0.0
N1514 N 0.9197 0.10817 0.18798 0.0
C1515 C 0.92969 0.11764 0.15993 0.0
C1516 C 0.92969 0.14337 0.10157 0.0
C1517 C 0.82785 0.64146 0.14864 0.0
C1518 C 0.81801 0.65405 0.18017 0.0
C1519 C 0.82787 0.61633 0.09137 0.0
C1520 C 0.81805 0.60264 0.06244 0.0
H1521 H 0.83569 0.65083 0.16873 0.0
H1522 H 0.83572 0.60787 0.06914 0.0
S1523 S 0.78996 0.62669 0.12518 0.0
N1524 N 0.79809 0.65079 0.17815 0.0
N1525 N 0.79813 0.60356 0.06991 0.0
C1526 C 0.8081 0.61493 0.09325 0.0
C1527 C 0.80808 0.64063 0.15198 0.0
C1528 C 0.57763 0.36952 0.91761 0.0
C1529 C 0.56795 0.35407 0.94414 0.0
C1530 C 0.57742 0.39448 0.8601 0.0
C1531 C 0.56754 0.40523 0.82559 0.0
H1532 H 0.58554 0.36249 0.94161 0.0
H1533 H 0.58517 0.40512 0.84198 0.0
S1534 S 0.5398 0.3733 0.87421 0.0
N1535 N 0.54812 0.3517 0.93216 0.0
N1536 N 0.54771 0.39866 0.82276 0.0
C1537 C 0.55773 0.39032 0.85184 0.0
C1538 C 0.55795 0.36475 0.91116 0.0
C1539 C 0.69909 0.86634 0.84137 0.0
C1540 C 0.6894 0.84964 0.82077 0.0
C1541 C 0.69907 0.8915 0.89905 0.0
C1542 C 0.68937 0.90106 0.93846 0.0
H1543 H 0.70675 0.86042 0.81171 0.0
H1544 H 0.70675 0.90359 0.91252 0.0
S1545 S 0.66185 0.86379 0.91 0.0
N1546 N 0.66989 0.84356 0.84725 0.0
N1547 N 0.66983 0.8908 0.95492 0.0
C1548 C 0.67963 0.88421 0.91932 0.0
C1549 C 0.67966 0.85851 0.8609 0.0
C1550 C 0.55925 0.86117 0.38101 0.0
C1551 C 0.56813 0.85764 0.43474 0.0
C1552 C 0.5591 0.88633 0.32296 0.0
C1553 C 0.56778 0.90887 0.31749 0.0
H1554 H 0.55256 0.84377 0.38205 0.0
H1555 H 0.55242 0.88715 0.27984 0.0
S1556 S 0.59191 0.91371 0.45383 0.0
N1557 N 0.58511 0.88122 0.48517 0.0
N1558 N 0.58476 0.92849 0.37732 0.0
C1559 C 0.57631 0.90683 0.37452 0.0
C1560 C 0.57652 0.88119 0.43273 0.0
C1561 C 0.69909 0.36321 0.34937 0.0
C1562 C 0.68936 0.35344 0.31053 0.0
C1563 C 0.69909 0.38834 0.40714 0.0
C1564 C 0.68937 0.4048 0.42828 0.0
H1565 H 0.70678 0.35128 0.33541 0.0
H1566 H 0.70676 0.39444 0.43642 0.0
S1567 S 0.66179 0.39014 0.3404 0.0
N1568 N 0.66979 0.36331 0.29507 0.0
N1569 N 0.66983 0.4105 0.40279 0.0
C1570 C 0.67962 0.39574 0.38865 0.0
C1571 C 0.67961 0.37007 0.33021 0.0
C1572 C 0.43172 0.60793 0.13578 0.0
C1573 C 0.44127 0.59938 0.17866 0.0
C1574 C 0.4317 0.63315 0.07899 0.0
C1575 C 0.44126 0.65091 0.06145 0.0
H1576 H 0.42404 0.59542 0.14692 0.0
H1577 H 0.42408 0.63851 0.04822 0.0
S1578 S 0.46862 0.63771 0.15417 0.0
N1579 N 0.46068 0.61031 0.1983 0.0
N1580 N 0.4607 0.65766 0.08989 0.0
C1581 C 0.45099 0.64224 0.10218 0.0
C1582 C 0.45098 0.61647 0.16092 0.0
C1583 C 0.32806 0.11379 0.09866 0.0
C1584 C 0.31828 0.10082 0.06721 0.0
C1585 C 0.32798 0.13895 0.15596 0.0
C1586 C 0.3181 0.15233 0.18479 0.0
H1587 H 0.33593 0.10471 0.0784 0.0
H1588 H 0.33579 0.14777 0.17806 0.0
S1589 S 0.29011 0.12707 0.12252 0.0
N1590 N 0.29834 0.10327 0.06959 0.0
N1591 N 0.29819 0.15055 0.17759 0.0
C1592 C 0.30821 0.13957 0.15421 0.0
C1593 C 0.3083 0.11382 0.09564 0.0
C1594 C 0.43188 0.12087 0.66284 0.0
C1595 C 0.44139 0.10281 0.6799 0.0
C1596 C 0.43193 0.14604 0.60599 0.0
C1597 C 0.44146 0.15426 0.56247 0.0
H1598 H 0.42426 0.11576 0.69399 0.0
H1599 H 0.42428 0.15877 0.59525 0.0
S1600 S 0.46871 0.11521 0.58588 0.0
N1601 N 0.46078 0.09552 0.65069 0.0
N1602 N 0.46081 0.1428 0.54194 0.0
C1603 C 0.45114 0.13693 0.57986 0.0
C1604 C 0.45111 0.11121 0.63877 0.0
C1605 C 0.32789 0.61417 0.59565 0.0
C1606 C 0.318 0.60104 0.56646 0.0
C1607 C 0.32801 0.63931 0.6529 0.0
C1608 C 0.31825 0.65248 0.68417 0.0
H1609 H 0.33569 0.60531 0.57351 0.0
H1610 H 0.3359 0.64827 0.67303 0.0
S1611 S 0.29005 0.62656 0.62904 0.0
N1612 N 0.29809 0.60299 0.57385 0.0
N1613 N 0.29832 0.65024 0.68208 0.0
C1614 C 0.30825 0.63954 0.65602 0.0
C1615 C 0.30812 0.61383 0.59729 0.0
C1616 C 0.0792 0.36654 0.84233 0.0
C1617 C 0.06937 0.35325 0.81234 0.0
C1618 C 0.07918 0.39174 0.89975 0.0
C1619 C 0.06934 0.40473 0.93021 0.0
H1620 H 0.08704 0.35765 0.82093 0.0
H1621 H 0.08701 0.40079 0.92096 0.0
S1622 S 0.04126 0.37867 0.87167 0.0
N1623 N 0.04944 0.35533 0.81721 0.0
N1624 N 0.04941 0.4022 0.92587 0.0
C1625 C 0.05941 0.3917 0.9008 0.0
C1626 C 0.05943 0.36609 0.84194 0.0
C1627 C 0.1796 0.86296 0.89078 0.0
C1628 C 0.18945 0.85045 0.9225 0.0
C1629 C 0.17958 0.88808 0.83301 0.0
C1630 C 0.18941 0.90179 0.80417 0.0
H1631 H 0.17178 0.8536 0.91131 0.0
H1632 H 0.17176 0.89664 0.81057 0.0
S1633 S 0.21753 0.87772 0.86703 0.0
N1634 N 0.20937 0.85378 0.92017 0.0
N1635 N 0.20934 0.90071 0.81164 0.0
C1636 C 0.19935 0.88942 0.83501 0.0
C1637 C 0.19937 0.86382 0.8939 0.0
C1638 C 0.06141 0.8927 0.39286 0.0
C1639 C 0.07121 0.90726 0.4196 0.0
C1640 C 0.06145 0.86756 0.33519 0.0
C1641 C 0.07129 0.85586 0.30146 0.0
H1642 H 0.0536 0.90029 0.41766 0.0
H1643 H 0.05366 0.85726 0.3171 0.0
S1644 S 0.09924 0.8867 0.34788 0.0
N1645 N 0.09106 0.90878 0.40557 0.0
N1646 N 0.09114 0.86163 0.29752 0.0
C1647 C 0.08116 0.87054 0.32668 0.0
C1648 C 0.08112 0.89621 0.38539 0.0
C1649 C 0.19725 0.36223 0.39042 0.0
C1650 C 0.18743 0.35164 0.4266 0.0
C1651 C 0.19735 0.38758 0.33326 0.0
C1652 C 0.18764 0.40354 0.30977 0.0
H1653 H 0.20498 0.35099 0.40652 0.0
H1654 H 0.20514 0.3944 0.30673 0.0
S1655 S 0.1597 0.38583 0.38783 0.0
N1656 N 0.16769 0.35947 0.43501 0.0
N1657 N 0.16791 0.40733 0.32901 0.0
C1658 C 0.17775 0.39338 0.34591 0.0
C1659 C 0.17763 0.36737 0.40367 0.0
C1660 C 0.92904 0.6167 0.08805 0.0
C1661 C 0.93884 0.60247 0.0602 0.0
C1662 C 0.92912 0.64186 0.14562 0.0
C1663 C 0.93899 0.65391 0.17807 0.0
H1664 H 0.92121 0.60862 0.06477 0.0
H1665 H 0.92132 0.6517 0.16522 0.0
S1666 S 0.96698 0.62494 0.12595 0.0
N1667 N 0.95875 0.60228 0.07007 0.0
N1668 N 0.95889 0.64953 0.17779 0.0
C1669 C 0.94887 0.63995 0.15069 0.0
C1670 C 0.9488 0.61424 0.09215 0.0
C1671 C 0.81139 0.14156 0.09583 0.0
C1672 C 0.8212 0.15492 0.06562 0.0
C1673 C 0.81145 0.11633 0.15324 0.0
C1674 C 0.82133 0.10333 0.18338 0.0
H1675 H 0.80354 0.15034 0.0744 0.0
H1676 H 0.80364 0.10722 0.17457 0.0
S1677 S 0.84935 0.12991 0.12504 0.0
N1678 N 0.84113 0.15335 0.07105 0.0
N1679 N 0.84124 0.10602 0.17874 0.0
C1680 C 0.83122 0.11653 0.15399 0.0
C1681 C 0.83116 0.14229 0.09544 0.0
C1682 C 0.9295 0.11287 0.59973 0.0
C1683 C 0.93939 0.10066 0.56786 0.0
C1684 C 0.92941 0.13806 0.6572 0.0
C1685 C 0.9392 0.15217 0.68562 0.0
H1686 H 0.92171 0.10318 0.57962 0.0
H1687 H 0.92156 0.14632 0.67984 0.0
S1688 S 0.96737 0.12915 0.62193 0.0
N1689 N 0.95929 0.10477 0.5694 0.0
N1690 N 0.95912 0.15192 0.67735 0.0
C1691 C 0.94917 0.14017 0.65451 0.0
C1692 C 0.94926 0.11447 0.59591 0.0
C1693 C 0.81115 0.61649 0.65132 0.0
C1694 C 0.82099 0.60291 0.68048 0.0
C1695 C 0.81116 0.6417 0.59386 0.0
C1696 C 0.82101 0.65444 0.5626 0.0
H1697 H 0.80332 0.60785 0.67351 0.0
H1698 H 0.80333 0.651 0.57332 0.0
S1699 S 0.84909 0.62744 0.6185 0.0
N1700 N 0.84091 0.60417 0.67333 0.0
N1701 N 0.84093 0.65143 0.56549 0.0
C1702 C 0.83093 0.64112 0.59121 0.0
C1703 C 0.83092 0.61539 0.64984 0.0
C1704 C 0.57957 0.39531 0.39808 0.0
C1705 C 0.57014 0.40134 0.44481 0.0
C1706 C 0.57981 0.37011 0.34031 0.0
C1707 C 0.57066 0.34976 0.32751 0.0
H1708 H 0.58679 0.41038 0.40553 0.0
H1709 H 0.58716 0.36708 0.30431 0.0
S1710 S 0.54436 0.35316 0.44072 0.0
N1711 N 0.55167 0.38349 0.47814 0.0
N1712 N 0.55221 0.33601 0.37139 0.0
C1713 C 0.56132 0.35493 0.37595 0.0
C1714 C 0.56103 0.38075 0.43394 0.0
C1715 C 0.69822 0.88876 0.34328 0.0
C1716 C 0.68851 0.90479 0.31989 0.0
C1717 C 0.69812 0.86353 0.40072 0.0
C1718 C 0.68831 0.85316 0.43742 0.0
H1719 H 0.706 0.89537 0.31624 0.0
H1720 H 0.70584 0.85212 0.41642 0.0
S1721 S 0.66062 0.88785 0.39979 0.0
N1722 N 0.66881 0.90898 0.33994 0.0
N1723 N 0.6686 0.86155 0.44727 0.0
C1724 C 0.67853 0.86915 0.41513 0.0
C1725 C 0.67864 0.89496 0.35681 0.0
C1726 C 0.56183 0.88389 0.901 0.0
C1727 C 0.57171 0.89661 0.93181 0.0
C1728 C 0.56176 0.85908 0.84268 0.0
C1729 C 0.57156 0.84592 0.812 0.0
H1730 H 0.55401 0.89312 0.92192 0.0
H1731 H 0.5539 0.8507 0.82039 0.0
S1732 S 0.59971 0.86981 0.8744 0.0
N1733 N 0.5916 0.89348 0.92875 0.0
N1734 N 0.59149 0.84691 0.81893 0.0
C1735 C 0.58153 0.85795 0.84334 0.0
C1736 C 0.58159 0.88327 0.90306 0.0
C1737 C 0.69763 0.38741 0.83786 0.0
C1738 C 0.68779 0.40209 0.81227 0.0
C1739 C 0.69768 0.36222 0.89538 0.0
C1740 C 0.68789 0.35056 0.9301 0.0
H1741 H 0.70541 0.39519 0.81286 0.0
H1742 H 0.70551 0.35203 0.91311 0.0
S1743 S 0.65985 0.38089 0.88478 0.0
N1744 N 0.66794 0.40313 0.82676 0.0
N1745 N 0.66803 0.35593 0.93471 0.0
C1746 C 0.67797 0.36497 0.90502 0.0
C1747 C 0.67792 0.39069 0.84642 0.0
C1748 C 0.44733 0.61404 0.59796 0.0
C1749 C 0.43748 0.60378 0.5615 0.0
C1750 C 0.44751 0.6391 0.65557 0.0
C1751 C 0.43784 0.65498 0.67993 0.0
H1752 H 0.45505 0.60276 0.58181 0.0
H1753 H 0.45532 0.6456 0.68215 0.0
S1754 S 0.40984 0.63809 0.60193 0.0
N1755 N 0.41776 0.61202 0.55309 0.0
N1756 N 0.41809 0.65905 0.66168 0.0
C1757 C 0.42791 0.6452 0.64364 0.0
C1758 C 0.42773 0.61963 0.58461 0.0
C1759 C 0.3295 0.13875 0.58923 0.0
C1760 C 0.31976 0.15507 0.56796 0.0
C1761 C 0.32955 0.11366 0.64711 0.0
C1762 C 0.31987 0.10376 0.68626 0.0
H1763 H 0.33718 0.14498 0.56009 0.0
H1764 H 0.33728 0.10193 0.66104 0.0
S1765 S 0.29221 0.13973 0.65572 0.0
N1766 N 0.30019 0.16017 0.59301 0.0
N1767 N 0.30027 0.11322 0.70161 0.0
C1768 C 0.31007 0.12014 0.66636 0.0
C1769 C 0.31003 0.14575 0.6075 0.0
C1770 C 0.44713 0.13754 0.14804 0.0
C1771 C 0.43724 0.15001 0.17917 0.0
C1772 C 0.44725 0.11258 0.09025 0.0
C1773 C 0.43748 0.09895 0.06038 0.0
H1774 H 0.45494 0.14693 0.16871 0.0
H1775 H 0.45512 0.10435 0.06806 0.0
S1776 S 0.40928 0.12277 0.1218 0.0
N1777 N 0.41735 0.14671 0.17582 0.0
N1778 N 0.41754 0.09979 0.06681 0.0
C1779 C 0.42748 0.11106 0.09107 0.0
C1780 C 0.42737 0.13656 0.15033 0.0
C1781 C 0.31103 0.61587 0.15235 0.0
C1782 C 0.32085 0.6034 0.18469 0.0
C1783 C 0.31107 0.6411 0.09492 0.0
C1784 C 0.32092 0.65496 0.06693 0.0
H1785 H 0.3032 0.60622 0.17172 0.0
H1786 H 0.30326 0.64941 0.07153 0.0
S1787 S 0.34895 0.63173 0.13332 0.0
N1788 N 0.34076 0.60732 0.18494 0.0
N1789 N 0.34082 0.65466 0.07729 0.0
C1790 C 0.33082 0.64294 0.09915 0.0
C1791 C 0.33079 0.61719 0.15768 0.0
C1792 C 0.13677 0.47728 0.06122 0.0
C1793 C 0.1406 0.45934 0.12834 0.0
C1794 C 0.12552 0.48115 0.04663 0.0
C1795 C 0.11764 0.46779 0.09944 0.0
H1796 H 0.14251 0.48776 0.01838 0.0
H1797 H 0.12298 0.49467 0.99337 0.0
S1798 S 0.12341 0.42017 0.28661 0.0
N1799 N 0.13562 0.42901 0.24967 0.0
N1800 N 0.11453 0.43667 0.22326 0.0
C1801 C 0.12137 0.45056 0.1681 0.0
C1802 C 0.13282 0.44621 0.18223 0.0
C1803 C 0.12631 0.78675 0.18797 0.0
C1804 C 0.11827 0.78759 0.1269 0.0
C1805 C 0.1375 0.78633 0.16899 0.0
C1806 C 0.14119 0.78698 0.08803 0.0
H1807 H 0.12396 0.78661 0.25128 0.0
H1808 H 0.14331 0.786 0.21859 0.0
S1809 S 0.12349 0.7886 0.90491 0.0
N1810 N 0.1148 0.78843 0.98156 0.0
N1811 N 0.1358 0.78781 0.94601 0.0
C1812 C 0.13324 0.78736 0.02619 0.0
C1813 C 0.12181 0.78761 0.04554 0.0
C1814 C 0.8827 0.53156 0.94778 0.0
C1815 C 0.89068 0.53572 0.88714 0.0
C1816 C 0.87148 0.53193 0.92927 0.0
C1817 C 0.86774 0.53657 0.84929 0.0
H1818 H 0.8851 0.52817 0.01042 0.0
H1819 H 0.86571 0.52882 0.97852 0.0
S1820 S 0.88528 0.54847 0.66758 0.0
N1821 N 0.89402 0.54437 0.74315 0.0
N1822 N 0.87301 0.54515 0.70857 0.0
C1823 C 0.87564 0.54039 0.78777 0.0
C1824 C 0.88707 0.53994 0.8066 0.0
C1825 C 0.88292 0.21396 0.79511 0.0
C1826 C 0.89092 0.21738 0.85593 0.0
C1827 C 0.87172 0.21506 0.81347 0.0
C1828 C 0.86799 0.2194 0.89358 0.0
H1829 H 0.8853 0.21009 0.73261 0.0
H1830 H 0.86593 0.21187 0.76434 0.0
S1831 S 0.88554 0.23105 0.07515 0.0
N1832 N 0.89428 0.22648 -0.00028 0.0
N1833 N 0.87325 0.22835 0.03405 0.0
C1834 C 0.87589 0.22345 0.95492 0.0
C1835 C 0.88732 0.22252 0.93617 0.0
C1836 C 0.1333 0.96518 0.69453 0.0
C1837 C 0.14135 0.96895 0.63415 0.0
C1838 C 0.1221 0.96593 0.67563 0.0
C1839 C 0.11843 0.9703 0.59539 0.0
H1840 H 0.13563 0.96125 0.75711 0.0
H1841 H 0.11628 0.96246 0.72446 0.0
S1842 S 0.13611 0.98287 0.4148 0.0
N1843 N 0.1448 0.97845 0.49061 0.0
N1844 N 0.1238 0.97968 0.45528 0.0
C1845 C 0.12637 0.97472 0.53449 0.0
C1846 C 0.1378 0.97411 0.55378 0.0
C1847 C 0.12561 0.2734 0.69482 0.0
C1848 C 0.11776 0.28946 0.64673 0.0
C1849 C 0.13687 0.27741 0.68052 0.0
C1850 C 0.14071 0.29825 0.61876 0.0
H1851 H 0.12305 0.25756 0.74394 0.0
H1852 H 0.14261 0.26473 0.71949 0.0
S1853 S 0.12356 0.34547 0.47455 0.0
N1854 N 0.11466 0.3264 0.53322 0.0
N1855 N 0.13576 0.33443 0.5077 0.0
C1856 C 0.13295 0.31422 0.56977 0.0
C1857 C 0.1215 0.30969 0.58334 0.0
C1858 C 0.87185 0.03088 0.43246 0.0
C1859 C 0.86817 0.03699 0.35292 0.0
C1860 C 0.88305 0.03028 0.45145 0.0
C1861 C 0.89108 0.03565 0.39175 0.0
H1862 H 0.86603 0.02675 0.48098 0.0
H1863 H 0.8854 0.0257 0.51373 0.0
S1864 S 0.88585 0.05271 0.17376 0.0
N1865 N 0.87355 0.04842 0.21369 0.0
N1866 N 0.89453 0.0472 0.24916 0.0
C1867 C 0.88753 0.04141 0.31164 0.0
C1868 C 0.87611 0.0421 0.29232 0.0
C1869 C 0.87158 0.72005 0.30999 0.0
C1870 C 0.86786 0.71848 0.39077 0.0
C1871 C 0.88279 0.7198 0.29126 0.0
C1872 C 0.8908 0.7182 0.35245 0.0
H1873 H 0.86579 0.72103 0.26033 0.0
H1874 H 0.88517 0.72069 0.22805 0.0
S1875 S 0.88548 0.71447 0.57414 0.0
N1876 N 0.87319 0.71585 0.5328 0.0
N1877 N 0.89419 0.71554 0.49775 0.0
C1878 C 0.88721 0.7172 0.43368 0.0
C1879 C 0.87578 0.71729 0.45275 0.0
C1880 C 0.63677 0.46909 0.57035 0.0
C1881 C 0.64069 0.46952 0.65066 0.0
C1882 C 0.62551 0.46889 0.55331 0.0
C1883 C 0.61765 0.46925 0.61575 0.0
H1884 H 0.64243 0.46837 0.51985 0.0
H1885 H 0.62298 0.46811 0.49042 0.0
S1886 S 0.62356 0.47215 0.8367 0.0
N1887 N 0.63575 0.4715 0.79346 0.0
N1888 N 0.61465 0.47127 0.76161 0.0
C1889 C 0.62145 0.47043 0.69642 0.0
C1890 C 0.63293 0.47051 0.71379 0.0
C1891 C 0.62579 0.78624 0.68782 0.0
C1892 C 0.61804 0.78479 0.62479 0.0
C1893 C 0.63707 0.78585 0.67184 0.0
C1894 C 0.64113 0.78413 0.59202 0.0
H1895 H 0.62317 0.78804 0.75037 0.0
H1896 H 0.64264 0.78744 0.72279 0.0
S1897 S 0.62432 0.77834 0.40491 0.0
N1898 N 0.61527 0.78037 0.47904 0.0
N1899 N 0.63643 0.77979 0.44908 0.0
C1900 C 0.63348 0.78205 0.52833 0.0
C1901 C 0.62197 0.78233 0.54465 0.0
C1902 C 0.38264 0.53953 0.44581 0.0
C1903 C 0.39045 0.53611 0.38363 0.0
C1904 C 0.37138 0.53925 0.4291 0.0
C1905 C 0.36741 0.53562 0.34942 0.0
H1906 H 0.38522 0.54295 0.50804 0.0
H1907 H 0.36575 0.54249 0.47919 0.0
S1908 S 0.38439 0.52335 0.1651 0.0
N1909 N 0.39336 0.5272 0.23926 0.0
N1910 N 0.37224 0.52683 0.20801 0.0
C1911 C 0.37512 0.5314 0.28679 0.0
C1912 C 0.3866 0.5316 0.30382 0.0
C1913 C 0.38244 0.21939 0.30155 0.0
C1914 C 0.39037 0.21933 0.36347 0.0
C1915 C 0.37121 0.21947 0.31939 0.0
C1916 C 0.36738 0.21949 0.39998 0.0
H1917 H 0.3849 0.21893 0.23848 0.0
H1918 H 0.36549 0.21909 0.26922 0.0
S1919 S 0.38474 0.22131 0.58488 0.0
N1920 N 0.39356 0.22073 0.50914 0.0
N1921 N 0.3725 0.2208 0.54251 0.0
C1922 C 0.37522 0.22015 0.46261 0.0
C1923 C 0.38667 0.22008 0.44444 0.0
C1924 C 0.63372 0.94275 0.17219 0.0
C1925 C 0.64156 0.9607 0.1283 0.0
C1926 C 0.62249 0.94754 0.15997 0.0
C1927 C 0.61858 0.97023 0.1026 0.0
H1928 H 0.63626 0.92471 0.21645 0.0
H1929 H 0.61683 0.93282 0.19499 0.0
S1930 S 0.63567 0.02428 0.97337 0.0
N1931 N 0.6446 0.00282 0.0264 0.0
N1932 N 0.62348 0.01159 0.00301 0.0
C1933 C 0.62631 0.98868 0.05889 0.0
C1934 C 0.63779 0.98401 0.0719 0.0
C1935 C 0.62205 0.29083 0.06633 0.0
C1936 C 0.61826 0.28056 0.1429 0.0
C1937 C 0.63326 0.29202 0.04819 0.0
C1938 C 0.64121 0.28307 0.10578 0.0
H1939 H 0.61633 0.29835 0.0198 0.0
H1940 H 0.63569 0.30054 0.98865 0.0
S1941 S 0.63567 0.25297 0.31443 0.0
N1942 N 0.62342 0.2602 0.27614 0.0
N1943 N 0.64446 0.26244 0.24216 0.0
C1944 C 0.63755 0.27213 0.1822 0.0
C1945 C 0.6261 0.27087 0.20068 0.0
C1946 C 0.37206 0.04099 0.92457 0.0
C1947 C 0.36803 0.03666 0.84529 0.0
C1948 C 0.38332 0.04048 0.94112 0.0
C1949 C 0.39108 0.03549 0.87922 0.0
H1950 H 0.36648 0.04537 0.97442 0.0
H1951 H 0.38594 0.0445 0.00304 0.0
S1952 S 0.38483 0.02046 0.66192 0.0
N1953 N 0.37273 0.02557 0.70463 0.0
N1954 N 0.39386 0.02447 0.73564 0.0
C1955 C 0.38717 0.0303 0.79987 0.0
C1956 C 0.37568 0.03093 0.78296 0.0
C1957 C 0.38331 0.71257 0.80175 0.0
C1958 C 0.39117 0.7187 0.86226 0.0
C1959 C 0.37206 0.71349 0.81877 0.0
C1960 C 0.36814 0.7205 0.89717 0.0
H1961 H 0.38583 0.70657 0.74058 0.0
H1962 H 0.36641 0.70816 0.76996 0.0
S1963 S 0.38526 0.74029 0.07667 0.0
N1964 N 0.39419 0.73346 0.00347 0.0
N1965 N 0.37308 0.73507 0.03541 0.0
C1966 C 0.3759 0.72733 0.95806 0.0
C1967 C 0.38738 0.72647 0.94065 0.0
loop_
_geom_bond_atom_site_label_1
_geom_bond_atom_site_label_2
_geom_bond_distance
_geom_bond_site_symmetry_2
_ccdc_geom_bond_type
Co0 O3 1.970 . S
Co0 N17 1.989 . S
Co0 O25 1.967 . S
Co0 O32 1.920 . S
Co1 O4 1.966 . S
Co1 N10 2.022 . S
Co1 N18 1.993 . S
Co1 O26 1.941 . S
C2 O3 1.258 1_556 S
C2 O4 1.263 1_556 S
O3 Co0 1.970 . S
O3 C2 1.258 1_554 S
O4 Co1 1.966 . S
O4 C2 1.263 1_554 S
C5 O6 1.235 . S
C5 O32 1.289 . S
O6 C5 1.235 . S
C7 C9 1.400 . S
C7 N10 1.351 . S
C7 C12 1.501 1_554 S
C8 C9 1.387 . S
C8 N11 1.341 . S
C9 C7 1.400 . S
C9 C8 1.387 . S
N10 Co1 2.022 . S
N10 C7 1.351 . S
N10 N11 1.365 . S
N11 C8 1.341 . S
N11 N10 1.365 . S
N11 H31 0.862 . S
C12 C7 1.501 1_556 S
C12 H13 0.961 . S
C12 H14 0.961 . S
C12 H15 0.960 . S
H13 C12 0.961 . S
H14 C12 0.961 . S
H15 C12 0.960 . S
C16 N17 1.342 . S
C16 C20 1.401 . S
C16 C21 1.499 . S
N17 Co0 1.989 . S
N17 C16 1.342 . S
N17 N18 1.388 . S
N18 Co1 1.993 . S
N18 N17 1.388 . S
N18 C19 1.346 . S
C19 N18 1.346 . S
C19 C20 1.396 . S
C19 C29 1.510 . S
C20 C16 1.401 . S
C20 C19 1.396 . S
C21 C16 1.499 . S
C21 H22 0.959 . S
C21 H23 0.960 . S
C21 H24 0.961 . S
H22 C21 0.959 . S
H23 C21 0.960 . S
H24 C21 0.961 . S
O25 Co0 1.967 . S
O25 C33 1.258 . S
O26 Co1 1.941 . S
O26 C33 1.266 . S
H27 C29 0.959 . S
H28 C29 0.961 . S
C29 C19 1.510 . S
C29 H27 0.959 . S
C29 H28 0.961 . S
C29 H30 0.960 . S
H30 C29 0.960 . S
H31 N11 0.862 . S
O32 Co0 1.920 . S
O32 C5 1.289 . S
C33 O25 1.258 . S
C33 O26 1.266 . S
Co34 O37 1.970 . S
Co34 N51 1.989 . S
Co34 O59 1.967 . S
Co34 O66 1.920 . S
Co35 O38 1.966 . S
Co35 N44 2.022 . S
Co35 N52 1.993 . S
Co35 O60 1.941 . S
C36 O37 1.258 1_556 S
C36 O38 1.263 1_556 S
O37 Co34 1.970 . S
O37 C36 1.258 1_554 S
O38 Co35 1.966 . S
O38 C36 1.263 1_554 S
C39 O40 1.235 . S
C39 O66 1.289 . S
O40 C39 1.235 . S
C41 C43 1.400 . S
C41 N44 1.351 . S
C41 C46 1.501 1_554 S
C42 C43 1.387 . S
C42 N45 1.341 . S
C43 C41 1.400 . S
C43 C42 1.387 . S
N44 Co35 2.022 . S
N44 C41 1.351 . S
N44 N45 1.365 . S
N45 C42 1.341 . S
N45 N44 1.365 . S
N45 H65 0.862 . S
C46 C41 1.501 1_556 S
C46 H47 0.961 . S
C46 H48 0.961 . S
C46 H49 0.960 . S
H47 C46 0.961 . S
H48 C46 0.961 . S
H49 C46 0.960 . S
C50 N51 1.342 . S
C50 C54 1.401 . S
C50 C55 1.499 . S
N51 Co34 1.989 . S
N51 C50 1.342 . S
N51 N52 1.388 . S
N52 Co35 1.993 . S
N52 N51 1.388 . S
N52 C53 1.346 . S
C53 N52 1.346 . S
C53 C54 1.396 . S
C53 C63 1.510 . S
C54 C50 1.401 . S
C54 C53 1.396 . S
C55 C50 1.499 . S
C55 H56 0.959 . S
C55 H57 0.960 . S
C55 H58 0.961 . S
H56 C55 0.959 . S
H57 C55 0.960 . S
H58 C55 0.961 . S
O59 Co34 1.967 . S
O59 C67 1.258 . S
O60 Co35 1.941 . S
O60 C67 1.266 . S
H61 C63 0.959 . S
H62 C63 0.961 . S
C63 C53 1.510 . S
C63 H61 0.959 . S
C63 H62 0.961 . S
C63 H64 0.960 . S
H64 C63 0.960 . S
H65 N45 0.862 . S
O66 Co34 1.920 . S
O66 C39 1.289 . S
C67 O59 1.258 . S
C67 O60 1.266 . S
Co68 O71 1.970 . S
Co68 N85 1.989 . S
Co68 O93 1.967 . S
Co68 O100 1.920 . S
Co69 O72 1.966 . S
Co69 N78 2.022 . S
Co69 N86 1.993 . S
Co69 O94 1.941 . S
C70 O71 1.258 . S
C70 O72 1.263 . S
O71 Co68 1.970 . S
O71 C70 1.258 . S
O72 Co69 1.966 . S
O72 C70 1.263 . S
C73 O74 1.235 . S
C73 O100 1.289 . S
O74 C73 1.235 . S
C75 C77 1.400 . S
C75 N78 1.351 . S
C75 C80 1.501 . S
C76 C77 1.387 . S
C76 N79 1.341 . S
C77 C75 1.400 . S
C77 C76 1.387 . S
N78 Co69 2.022 . S
N78 C75 1.351 . S
N78 N79 1.365 . S
N79 C76 1.341 . S
N79 N78 1.365 . S
N79 H99 0.862 . S
C80 C75 1.501 . S
C80 H81 0.961 . S
C80 H82 0.961 . S
C80 H83 0.960 . S
H81 C80 0.961 . S
H82 C80 0.961 . S
H83 C80 0.960 . S
C84 N85 1.342 . S
C84 C88 1.401 . S
C84 C89 1.499 . S
N85 Co68 1.989 . S
N85 C84 1.342 . S
N85 N86 1.388 . S
N86 Co69 1.993 . S
N86 N85 1.388 . S
N86 C87 1.346 . S
C87 N86 1.346 . S
C87 C88 1.396 . S
C87 C97 1.510 . S
C88 C84 1.401 . S
C88 C87 1.396 . S
C89 C84 1.499 . S
C89 H90 0.959 . S
C89 H91 0.960 . S
C89 H92 0.961 . S
H90 C89 0.959 . S
H91 C89 0.960 . S
H92 C89 0.961 . S
O93 Co68 1.967 . S
O93 C101 1.258 . S
O94 Co69 1.941 . S
O94 C101 1.266 . S
H95 C97 0.959 . S
H96 C97 0.961 . S
C97 C87 1.510 . S
C97 H95 0.959 . S
C97 H96 0.961 . S
C97 H98 0.960 . S
H98 C97 0.960 . S
H99 N79 0.862 . S
O100 Co68 1.920 . S
O100 C73 1.289 . S
C101 O93 1.258 . S
C101 O94 1.266 . S
Co102 O105 1.970 . S
Co102 N119 1.989 . S
Co102 O127 1.967 . S
Co102 O134 1.920 . S
Co103 O106 1.966 . S
Co103 N112 2.022 . S
Co103 N120 1.993 . S
Co103 O128 1.941 . S
C104 O105 1.258 . S
C104 O106 1.263 . S
O105 Co102 1.970 . S
O105 C104 1.258 . S
O106 Co103 1.966 . S
O106 C104 1.263 . S
C107 O108 1.235 . S
C107 O134 1.289 . S
O108 C107 1.235 . S
C109 C111 1.400 . S
C109 N112 1.351 . S
C109 C114 1.501 . S
C110 C111 1.387 . S
C110 N113 1.341 . S
C111 C109 1.400 . S
C111 C110 1.387 . S
N112 Co103 2.022 . S
N112 C109 1.351 . S
N112 N113 1.365 . S
N113 C110 1.341 . S
N113 N112 1.365 . S
N113 H133 0.862 . S
C114 C109 1.501 . S
C114 H115 0.961 . S
C114 H116 0.961 . S
C114 H117 0.960 . S
H115 C114 0.961 . S
H116 C114 0.961 . S
H117 C114 0.960 . S
C118 N119 1.342 . S
C118 C122 1.401 . S
C118 C123 1.499 . S
N119 Co102 1.989 . S
N119 C118 1.342 . S
N119 N120 1.388 . S
N120 Co103 1.993 . S
N120 N119 1.388 . S
N120 C121 1.346 . S
C121 N120 1.346 . S
C121 C122 1.396 . S
C121 C131 1.510 . S
C122 C118 1.401 . S
C122 C121 1.396 . S
C123 C118 1.499 . S
C123 H124 0.959 . S
C123 H125 0.960 . S
C123 H126 0.961 . S
H124 C123 0.959 . S
H125 C123 0.960 . S
H126 C123 0.961 . S
O127 Co102 1.967 . S
O127 C135 1.258 . S
O128 Co103 1.941 . S
O128 C135 1.266 . S
H129 C131 0.959 . S
H130 C131 0.961 . S
C131 C121 1.510 . S
C131 H129 0.959 . S
C131 H130 0.961 . S
C131 H132 0.960 . S
H132 C131 0.960 . S
H133 N113 0.862 . S
O134 Co102 1.920 . S
O134 C107 1.289 . S
C135 O127 1.258 . S
C135 O128 1.266 . S
Co136 O139 1.970 . S
Co136 N153 1.989 . S
Co136 O161 1.967 . S
Co136 O168 1.920 . S
Co137 O140 1.966 . S
Co137 N146 2.022 . S
Co137 N154 1.993 . S
Co137 O162 1.941 . S
C138 O139 1.258 1_554 S
C138 O140 1.263 1_554 S
O139 Co136 1.970 . S
O139 C138 1.258 1_556 S
O140 Co137 1.966 . S
O140 C138 1.263 1_556 S
C141 O142 1.235 . S
C141 O168 1.289 . S
O142 C141 1.235 . S
C143 C145 1.400 . S
C143 N146 1.351 . S
C143 C148 1.501 1_556 S
C144 C145 1.387 . S
C144 N147 1.341 . S
C145 C143 1.400 . S
C145 C144 1.387 . S
N146 Co137 2.022 . S
N146 C143 1.351 . S
N146 N147 1.365 . S
N147 C144 1.341 . S
N147 N146 1.365 . S
N147 H167 0.862 . S
C148 C143 1.501 1_554 S
C148 H149 0.961 . S
C148 H150 0.961 . S
C148 H151 0.960 . S
H149 C148 0.961 . S
H150 C148 0.961 . S
H151 C148 0.960 . S
C152 N153 1.342 . S
C152 C156 1.401 . S
C152 C157 1.499 . S
N153 Co136 1.989 . S
N153 C152 1.342 . S
N153 N154 1.388 . S
N154 Co137 1.993 . S
N154 N153 1.388 . S
N154 C155 1.346 . S
C155 N154 1.346 . S
C155 C156 1.396 . S
C155 C165 1.510 . S
C156 C152 1.401 . S
C156 C155 1.396 . S
C157 C152 1.499 . S
C157 H158 0.959 . S
C157 H159 0.960 . S
C157 H160 0.961 . S
H158 C157 0.959 . S
H159 C157 0.960 . S
H160 C157 0.961 . S
O161 Co136 1.967 . S
O161 C169 1.258 . S
O162 Co137 1.941 . S
O162 C169 1.266 . S
H163 C165 0.959 . S
H164 C165 0.961 . S
C165 C155 1.510 . S
C165 H163 0.959 . S
C165 H164 0.961 . S
C165 H166 0.960 . S
H166 C165 0.960 . S
H167 N147 0.862 . S
O168 Co136 1.920 . S
O168 C141 1.289 . S
C169 O161 1.258 . S
C169 O162 1.266 . S
Co170 O173 1.970 . S
Co170 N187 1.989 . S
Co170 O195 1.967 . S
Co170 O202 1.920 . S
Co171 O174 1.966 . S
Co171 N180 2.022 . S
Co171 N188 1.993 . S
Co171 O196 1.941 . S
C172 O173 1.258 1_554 S
C172 O174 1.263 1_554 S
O173 Co170 1.970 . S
O173 C172 1.258 1_556 S
O174 Co171 1.966 . S
O174 C172 1.263 1_556 S
C175 O176 1.235 . S
C175 O202 1.289 . S
O176 C175 1.235 . S
C177 C179 1.400 . S
C177 N180 1.351 . S
C177 C182 1.501 1_556 S
C178 C179 1.387 . S
C178 N181 1.341 . S
C179 C177 1.400 . S
C179 C178 1.387 . S
N180 Co171 2.022 . S
N180 C177 1.351 . S
N180 N181 1.365 . S
N181 C178 1.341 . S
N181 N180 1.365 . S
N181 H201 0.862 . S
C182 C177 1.501 1_554 S
C182 H183 0.961 . S
C182 H184 0.961 . S
C182 H185 0.960 . S
H183 C182 0.961 . S
H184 C182 0.961 . S
H185 C182 0.960 . S
C186 N187 1.342 . S
C186 C190 1.401 . S
C186 C191 1.499 . S
N187 Co170 1.989 . S
N187 C186 1.342 . S
N187 N188 1.388 . S
N188 Co171 1.993 . S
N188 N187 1.388 . S
N188 C189 1.346 . S
C189 N188 1.346 . S
C189 C190 1.396 . S
C189 C199 1.510 . S
C190 C186 1.401 . S
C190 C189 1.396 . S
C191 C186 1.499 . S
C191 H192 0.959 . S
C191 H193 0.960 . S
C191 H194 0.961 . S
H192 C191 0.959 . S
H193 C191 0.960 . S
H194 C191 0.961 . S
O195 Co170 1.967 . S
O195 C203 1.258 . S
O196 Co171 1.941 . S
O196 C203 1.266 . S
H197 C199 0.959 . S
H198 C199 0.961 . S
C199 C189 1.510 . S
C199 H197 0.959 . S
C199 H198 0.961 . S
C199 H200 0.960 . S
H200 C199 0.960 . S
H201 N181 0.862 . S
O202 Co170 1.920 . S
O202 C175 1.289 . S
C203 O195 1.258 . S
C203 O196 1.266 . S
Co204 O207 1.970 . S
Co204 N221 1.989 . S
Co204 O229 1.967 . S
Co204 O236 1.920 . S
Co205 O208 1.966 . S
Co205 N214 2.022 . S
Co205 N222 1.993 . S
Co205 O230 1.941 . S
C206 O207 1.258 . S
C206 O208 1.263 . S
O207 Co204 1.970 . S
O207 C206 1.258 . S
O208 Co205 1.966 . S
O208 C206 1.263 . S
C209 O210 1.235 . S
C209 O236 1.289 . S
O210 C209 1.235 . S
C211 C213 1.400 . S
C211 N214 1.351 . S
C211 C216 1.501 . S
C212 C213 1.387 . S
C212 N215 1.341 . S
C213 C211 1.400 . S
C213 C212 1.387 . S
N214 Co205 2.022 . S
N214 C211 1.351 . S
N214 N215 1.365 . S
N215 C212 1.341 . S
N215 N214 1.365 . S
N215 H235 0.862 . S
C216 C211 1.501 . S
C216 H217 0.961 . S
C216 H218 0.961 . S
C216 H219 0.960 . S
H217 C216 0.961 . S
H218 C216 0.961 . S
H219 C216 0.960 . S
C220 N221 1.342 . S
C220 C224 1.401 . S
C220 C225 1.499 . S
N221 Co204 1.989 . S
N221 C220 1.342 . S
N221 N222 1.388 . S
N222 Co205 1.993 . S
N222 N221 1.388 . S
N222 C223 1.346 . S
C223 N222 1.346 . S
C223 C224 1.396 . S
C223 C233 1.510 . S
C224 C220 1.401 . S
C224 C223 1.396 . S
C225 C220 1.499 . S
C225 H226 0.959 . S
C225 H227 0.960 . S
C225 H228 0.961 . S
H226 C225 0.959 . S
H227 C225 0.960 . S
H228 C225 0.961 . S
O229 Co204 1.967 . S
O229 C237 1.258 . S
O230 Co205 1.941 . S
O230 C237 1.266 . S
H231 C233 0.959 . S
H232 C233 0.961 . S
C233 C223 1.510 . S
C233 H231 0.959 . S
C233 H232 0.961 . S
C233 H234 0.960 . S
H234 C233 0.960 . S
H235 N215 0.862 . S
O236 Co204 1.920 . S
O236 C209 1.289 . S
C237 O229 1.258 . S
C237 O230 1.266 . S
Co238 O241 1.970 . S
Co238 N255 1.989 . S
Co238 O263 1.967 . S
Co238 O270 1.920 . S
Co239 O242 1.966 . S
Co239 N248 2.022 . S
Co239 N256 1.993 . S
Co239 O264 1.941 . S
C240 O241 1.258 . S
C240 O242 1.263 . S
O241 Co238 1.970 . S
O241 C240 1.258 . S
O242 Co239 1.966 . S
O242 C240 1.263 . S
C243 O244 1.235 . S
C243 O270 1.289 . S
O244 C243 1.235 . S
C245 C247 1.400 . S
C245 N248 1.351 . S
C245 C250 1.501 . S
C246 C247 1.387 . S
C246 N249 1.341 . S
C247 C245 1.400 . S
C247 C246 1.387 . S
N248 Co239 2.022 . S
N248 C245 1.351 . S
N248 N249 1.365 . S
N249 C246 1.341 . S
N249 N248 1.365 . S
N249 H269 0.862 . S
C250 C245 1.501 . S
C250 H251 0.961 . S
C250 H252 0.961 . S
C250 H253 0.960 . S
H251 C250 0.961 . S
H252 C250 0.961 . S
H253 C250 0.960 . S
C254 N255 1.342 . S
C254 C258 1.401 . S
C254 C259 1.499 . S
N255 Co238 1.989 . S
N255 C254 1.342 . S
N255 N256 1.388 . S
N256 Co239 1.993 . S
N256 N255 1.388 . S
N256 C257 1.346 . S
C257 N256 1.346 . S
C257 C258 1.396 . S
C257 C267 1.510 . S
C258 C254 1.401 . S
C258 C257 1.396 . S
C259 C254 1.499 . S
C259 H260 0.959 . S
C259 H261 0.960 . S
C259 H262 0.961 . S
H260 C259 0.959 . S
H261 C259 0.960 . S
H262 C259 0.961 . S
O263 Co238 1.967 . S
O263 C271 1.258 . S
O264 Co239 1.941 . S
O264 C271 1.266 . S
H265 C267 0.959 . S
H266 C267 0.961 . S
C267 C257 1.510 . S
C267 H265 0.959 . S
C267 H266 0.961 . S
C267 H268 0.960 . S
H268 C267 0.960 . S
H269 N249 0.862 . S
O270 Co238 1.920 . S
O270 C243 1.289 . S
C271 O263 1.258 . S
C271 O264 1.266 . S
Co272 O275 1.970 . S
Co272 N289 1.989 1_565 S
Co272 O297 1.967 . S
Co272 O304 1.920 . S
Co273 O276 1.966 . S
Co273 N282 2.022 . S
Co273 N290 1.993 1_565 S
Co273 O298 1.941 . S
C274 O275 1.258 . S
C274 O276 1.263 . S
O275 Co272 1.970 . S
O275 C274 1.258 . S
O276 Co273 1.966 . S
O276 C274 1.263 . S
C277 O278 1.235 . S
C277 O304 1.289 . S
O278 C277 1.235 . S
C279 C281 1.400 . S
C279 N282 1.351 . S
C279 C284 1.501 . S
C280 C281 1.387 . S
C280 N283 1.341 . S
C281 C279 1.400 . S
C281 C280 1.387 . S
N282 Co273 2.022 . S
N282 C279 1.351 . S
N282 N283 1.365 . S
N283 C280 1.341 . S
N283 N282 1.365 . S
N283 H303 0.862 . S
C284 C279 1.501 . S
C284 H285 0.961 . S
C284 H286 0.961 . S
C284 H287 0.960 . S
H285 C284 0.961 . S
H286 C284 0.961 . S
H287 C284 0.960 . S
C288 N289 1.342 . S
C288 C292 1.401 . S
C288 C293 1.499 . S
N289 Co272 1.989 1_545 S
N289 C288 1.342 . S
N289 N290 1.388 . S
N290 Co273 1.993 1_545 S
N290 N289 1.388 . S
N290 C291 1.346 . S
C291 N290 1.346 . S
C291 C292 1.396 . S
C291 C301 1.510 . S
C292 C288 1.401 . S
C292 C291 1.396 . S
C293 C288 1.499 . S
C293 H294 0.959 . S
C293 H295 0.960 . S
C293 H296 0.961 . S
H294 C293 0.959 . S
H295 C293 0.960 . S
H296 C293 0.961 . S
O297 Co272 1.967 . S
O297 C305 1.258 . S
O298 Co273 1.941 . S
O298 C305 1.266 . S
H299 C301 0.959 . S
H300 C301 0.961 . S
C301 C291 1.510 . S
C301 H299 0.959 . S
C301 H300 0.961 . S
C301 H302 0.960 . S
H302 C301 0.960 . S
H303 N283 0.862 . S
O304 Co272 1.920 . S
O304 C277 1.289 . S
C305 O297 1.258 . S
C305 O298 1.266 . S
Co306 O309 1.970 . S
Co306 N323 1.989 . S
Co306 O331 1.967 . S
Co306 O338 1.920 . S
Co307 O310 1.966 . S
Co307 N316 2.022 . S
Co307 N324 1.993 . S
Co307 O332 1.941 . S
C308 O309 1.258 . S
C308 O310 1.263 . S
O309 Co306 1.970 . S
O309 C308 1.258 . S
O310 Co307 1.966 . S
O310 C308 1.263 . S
C311 O312 1.235 . S
C311 O338 1.289 . S
O312 C311 1.235 . S
C313 C315 1.400 . S
C313 N316 1.351 . S
C313 C318 1.501 . S
C314 C315 1.387 . S
C314 N317 1.341 . S
C315 C313 1.400 . S
C315 C314 1.387 . S
N316 Co307 2.022 . S
N316 C313 1.351 . S
N316 N317 1.365 . S
N317 C314 1.341 . S
N317 N316 1.365 . S
N317 H337 0.862 . S
C318 C313 1.501 . S
C318 H319 0.961 . S
C318 H320 0.961 . S
C318 H321 0.960 . S
H319 C318 0.961 . S
H320 C318 0.961 . S
H321 C318 0.960 . S
C322 N323 1.342 . S
C322 C326 1.401 . S
C322 C327 1.499 . S
N323 Co306 1.989 . S
N323 C322 1.342 . S
N323 N324 1.388 . S
N324 Co307 1.993 . S
N324 N323 1.388 . S
N324 C325 1.346 . S
C325 N324 1.346 . S
C325 C326 1.396 . S
C325 C335 1.510 . S
C326 C322 1.401 . S
C326 C325 1.396 . S
C327 C322 1.499 . S
C327 H328 0.959 . S
C327 H329 0.960 . S
C327 H330 0.961 . S
H328 C327 0.959 . S
H329 C327 0.960 . S
H330 C327 0.961 . S
O331 Co306 1.967 . S
O331 C339 1.258 . S
O332 Co307 1.941 . S
O332 C339 1.266 . S
H333 C335 0.959 . S
H334 C335 0.961 . S
C335 C325 1.510 . S
C335 H333 0.959 . S
C335 H334 0.961 . S
C335 H336 0.960 . S
H336 C335 0.960 . S
H337 N317 0.862 . S
O338 Co306 1.920 . S
O338 C311 1.289 . S
C339 O331 1.258 . S
C339 O332 1.266 . S
Co340 O343 1.970 . S
Co340 N357 1.989 . S
Co340 O365 1.967 . S
Co340 O372 1.920 . S
Co341 O344 1.966 . S
Co341 N350 2.022 . S
Co341 N358 1.993 . S
Co341 O366 1.941 . S
C342 O343 1.258 . S
C342 O344 1.263 . S
O343 Co340 1.970 . S
O343 C342 1.258 . S
O344 Co341 1.966 . S
O344 C342 1.263 . S
C345 O346 1.235 . S
C345 O372 1.289 . S
O346 C345 1.235 . S
C347 C349 1.400 . S
C347 N350 1.351 . S
C347 C352 1.501 . S
C348 C349 1.387 . S
C348 N351 1.341 . S
C349 C347 1.400 . S
C349 C348 1.387 . S
N350 Co341 2.022 . S
N350 C347 1.351 . S
N350 N351 1.365 . S
N351 C348 1.341 . S
N351 N350 1.365 . S
N351 H371 0.862 . S
C352 C347 1.501 . S
C352 H353 0.961 . S
C352 H354 0.961 . S
C352 H355 0.960 . S
H353 C352 0.961 . S
H354 C352 0.961 . S
H355 C352 0.960 . S
C356 N357 1.342 . S
C356 C360 1.401 . S
C356 C361 1.499 . S
N357 Co340 1.989 . S
N357 C356 1.342 . S
N357 N358 1.388 . S
N358 Co341 1.993 . S
N358 N357 1.388 . S
N358 C359 1.346 . S
C359 N358 1.346 . S
C359 C360 1.396 . S
C359 C369 1.510 . S
C360 C356 1.401 . S
C360 C359 1.396 . S
C361 C356 1.499 . S
C361 H362 0.959 . S
C361 H363 0.960 . S
C361 H364 0.961 . S
H362 C361 0.959 . S
H363 C361 0.960 . S
H364 C361 0.961 . S
O365 Co340 1.967 . S
O365 C373 1.258 . S
O366 Co341 1.941 . S
O366 C373 1.266 . S
H367 C369 0.959 . S
H368 C369 0.961 . S
C369 C359 1.510 . S
C369 H367 0.959 . S
C369 H368 0.961 . S
C369 H370 0.960 . S
H370 C369 0.960 . S
H371 N351 0.862 . S
O372 Co340 1.920 . S
O372 C345 1.289 . S
C373 O365 1.258 . S
C373 O366 1.266 . S
Co374 O377 1.970 . S
Co374 N391 1.989 1_565 S
Co374 O399 1.967 . S
Co374 O406 1.920 . S
Co375 O378 1.966 . S
Co375 N384 2.022 . S
Co375 N392 1.993 1_565 S
Co375 O400 1.941 . S
C376 O377 1.258 . S
C376 O378 1.263 . S
O377 Co374 1.970 . S
O377 C376 1.258 . S
O378 Co375 1.966 . S
O378 C376 1.263 . S
C379 O380 1.235 . S
C379 O406 1.289 . S
O380 C379 1.235 . S
C381 C383 1.400 . S
C381 N384 1.351 . S
C381 C386 1.501 . S
C382 C383 1.387 . S
C382 N385 1.341 . S
C383 C381 1.400 . S
C383 C382 1.387 . S
N384 Co375 2.022 . S
N384 C381 1.351 . S
N384 N385 1.365 . S
N385 C382 1.341 . S
N385 N384 1.365 . S
N385 H405 0.862 . S
C386 C381 1.501 . S
C386 H387 0.961 . S
C386 H388 0.961 . S
C386 H389 0.960 . S
H387 C386 0.961 . S
H388 C386 0.961 . S
H389 C386 0.960 . S
C390 N391 1.342 . S
C390 C394 1.401 . S
C390 C395 1.499 . S
N391 Co374 1.989 1_545 S
N391 C390 1.342 . S
N391 N392 1.388 . S
N392 Co375 1.993 1_545 S
N392 N391 1.388 . S
N392 C393 1.346 . S
C393 N392 1.346 . S
C393 C394 1.396 . S
C393 C403 1.510 . S
C394 C390 1.401 . S
C394 C393 1.396 . S
C395 C390 1.499 . S
C395 H396 0.959 . S
C395 H397 0.960 . S
C395 H398 0.961 . S
H396 C395 0.959 . S
H397 C395 0.960 . S
H398 C395 0.961 . S
O399 Co374 1.967 . S
O399 C407 1.258 . S
O400 Co375 1.941 . S
O400 C407 1.266 . S
H401 C403 0.959 . S
H402 C403 0.961 . S
C403 C393 1.510 . S
C403 H401 0.959 . S
C403 H402 0.961 . S
C403 H404 0.960 . S
H404 C403 0.960 . S
H405 N385 0.862 . S
O406 Co374 1.920 . S
O406 C379 1.289 . S
C407 O399 1.258 . S
C407 O400 1.266 . S
Co408 O411 1.970 . S
Co408 N425 1.989 1_545 S
Co408 O433 1.967 . S
Co408 O440 1.920 . S
Co409 O412 1.966 . S
Co409 N418 2.022 . S
Co409 N426 1.993 1_545 S
Co409 O434 1.941 . S
C410 O411 1.258 . S
C410 O412 1.263 . S
O411 Co408 1.970 . S
O411 C410 1.258 . S
O412 Co409 1.966 . S
O412 C410 1.263 . S
C413 O414 1.235 . S
C413 O440 1.289 . S
O414 C413 1.235 . S
C415 C417 1.400 . S
C415 N418 1.351 . S
C415 C420 1.501 . S
C416 C417 1.387 . S
C416 N419 1.341 . S
C417 C415 1.400 . S
C417 C416 1.387 . S
N418 Co409 2.022 . S
N418 C415 1.351 . S
N418 N419 1.365 . S
N419 C416 1.341 . S
N419 N418 1.365 . S
N419 H439 0.862 . S
C420 C415 1.501 . S
C420 H421 0.961 . S
C420 H422 0.961 . S
C420 H423 0.960 . S
H421 C420 0.961 . S
H422 C420 0.961 . S
H423 C420 0.960 . S
C424 N425 1.342 . S
C424 C428 1.401 . S
C424 C429 1.499 . S
N425 Co408 1.989 1_565 S
N425 C424 1.342 . S
N425 N426 1.388 . S
N426 Co409 1.993 1_565 S
N426 N425 1.388 . S
N426 C427 1.346 . S
C427 N426 1.346 . S
C427 C428 1.396 . S
C427 C437 1.510 . S
C428 C424 1.401 . S
C428 C427 1.396 . S
C429 C424 1.499 . S
C429 H430 0.959 . S
C429 H431 0.960 . S
C429 H432 0.961 . S
H430 C429 0.959 . S
H431 C429 0.960 . S
H432 C429 0.961 . S
O433 Co408 1.967 . S
O433 C441 1.258 . S
O434 Co409 1.941 . S
O434 C441 1.266 . S
H435 C437 0.959 . S
H436 C437 0.961 . S
C437 C427 1.510 . S
C437 H435 0.959 . S
C437 H436 0.961 . S
C437 H438 0.960 . S
H438 C437 0.960 . S
H439 N419 0.862 . S
O440 Co408 1.920 . S
O440 C413 1.289 . S
C441 O433 1.258 . S
C441 O434 1.266 . S
Co442 O445 1.970 . S
Co442 N459 1.989 . S
Co442 O467 1.967 . S
Co442 O474 1.920 . S
Co443 O446 1.966 . S
Co443 N452 2.022 . S
Co443 N460 1.993 . S
Co443 O468 1.941 . S
C444 O445 1.258 . S
C444 O446 1.263 . S
O445 Co442 1.970 . S
O445 C444 1.258 . S
O446 Co443 1.966 . S
O446 C444 1.263 . S
C447 O448 1.235 . S
C447 O474 1.289 . S
O448 C447 1.235 . S
C449 C451 1.400 . S
C449 N452 1.351 . S
C449 C454 1.501 . S
C450 C451 1.387 . S
C450 N453 1.341 . S
C451 C449 1.400 . S
C451 C450 1.387 . S
N452 Co443 2.022 . S
N452 C449 1.351 . S
N452 N453 1.365 . S
N453 C450 1.341 . S
N453 N452 1.365 . S
N453 H473 0.862 . S
C454 C449 1.501 . S
C454 H455 0.961 . S
C454 H456 0.961 . S
C454 H457 0.960 . S
H455 C454 0.961 . S
H456 C454 0.961 . S
H457 C454 0.960 . S
C458 N459 1.342 . S
C458 C462 1.401 . S
C458 C463 1.499 . S
N459 Co442 1.989 . S
N459 C458 1.342 . S
N459 N460 1.388 . S
N460 Co443 1.993 . S
N460 N459 1.388 . S
N460 C461 1.346 . S
C461 N460 1.346 . S
C461 C462 1.396 . S
C461 C471 1.510 . S
C462 C458 1.401 . S
C462 C461 1.396 . S
C463 C458 1.499 . S
C463 H464 0.959 . S
C463 H465 0.960 . S
C463 H466 0.961 . S
H464 C463 0.959 . S
H465 C463 0.960 . S
H466 C463 0.961 . S
O467 Co442 1.967 . S
O467 C475 1.258 . S
O468 Co443 1.941 . S
O468 C475 1.266 . S
H469 C471 0.959 . S
H470 C471 0.961 . S
C471 C461 1.510 . S
C471 H469 0.959 . S
C471 H470 0.961 . S
C471 H472 0.960 . S
H472 C471 0.960 . S
H473 N453 0.862 . S
O474 Co442 1.920 . S
O474 C447 1.289 . S
C475 O467 1.258 . S
C475 O468 1.266 . S
Co476 O479 1.970 . S
Co476 N493 1.989 . S
Co476 O501 1.967 . S
Co476 O508 1.920 . S
Co477 O480 1.966 . S
Co477 N486 2.022 . S
Co477 N494 1.993 . S
Co477 O502 1.941 . S
C478 O479 1.258 . S
C478 O480 1.263 . S
O479 Co476 1.970 . S
O479 C478 1.258 . S
O480 Co477 1.966 . S
O480 C478 1.263 . S
C481 O482 1.235 . S
C481 O508 1.289 . S
O482 C481 1.235 . S
C483 C485 1.400 . S
C483 N486 1.351 . S
C483 C488 1.501 . S
C484 C485 1.387 . S
C484 N487 1.341 . S
C485 C483 1.400 . S
C485 C484 1.387 . S
N486 Co477 2.022 . S
N486 C483 1.351 . S
N486 N487 1.365 . S
N487 C484 1.341 . S
N487 N486 1.365 . S
N487 H507 0.862 . S
C488 C483 1.501 . S
C488 H489 0.961 . S
C488 H490 0.961 . S
C488 H491 0.960 . S
H489 C488 0.961 . S
H490 C488 0.961 . S
H491 C488 0.960 . S
C492 N493 1.342 . S
C492 C496 1.401 . S
C492 C497 1.499 . S
N493 Co476 1.989 . S
N493 C492 1.342 . S
N493 N494 1.388 . S
N494 Co477 1.993 . S
N494 N493 1.388 . S
N494 C495 1.346 . S
C495 N494 1.346 . S
C495 C496 1.396 . S
C495 C505 1.510 . S
C496 C492 1.401 . S
C496 C495 1.396 . S
C497 C492 1.499 . S
C497 H498 0.959 . S
C497 H499 0.960 . S
C497 H500 0.961 . S
H498 C497 0.959 . S
H499 C497 0.960 . S
H500 C497 0.961 . S
O501 Co476 1.967 . S
O501 C509 1.258 . S
O502 Co477 1.941 . S
O502 C509 1.266 . S
H503 C505 0.959 . S
H504 C505 0.961 . S
C505 C495 1.510 . S
C505 H503 0.959 . S
C505 H504 0.961 . S
C505 H506 0.960 . S
H506 C505 0.960 . S
H507 N487 0.862 . S
O508 Co476 1.920 . S
O508 C481 1.289 . S
C509 O501 1.258 . S
C509 O502 1.266 . S
Co510 O513 1.970 . S
Co510 N527 1.989 1_545 S
Co510 O535 1.967 . S
Co510 O542 1.920 . S
Co511 O514 1.966 . S
Co511 N520 2.022 . S
Co511 N528 1.993 1_545 S
Co511 O536 1.941 . S
C512 O513 1.258 . S
C512 O514 1.263 . S
O513 Co510 1.970 . S
O513 C512 1.258 . S
O514 Co511 1.966 . S
O514 C512 1.263 . S
C515 O516 1.235 . S
C515 O542 1.289 . S
O516 C515 1.235 . S
C517 C519 1.400 . S
C517 N520 1.351 . S
C517 C522 1.501 . S
C518 C519 1.387 . S
C518 N521 1.341 . S
C519 C517 1.400 . S
C519 C518 1.387 . S
N520 Co511 2.022 . S
N520 C517 1.351 . S
N520 N521 1.365 . S
N521 C518 1.341 . S
N521 N520 1.365 . S
N521 H541 0.862 . S
C522 C517 1.501 . S
C522 H523 0.961 . S
C522 H524 0.961 . S
C522 H525 0.960 . S
H523 C522 0.961 . S
H524 C522 0.961 . S
H525 C522 0.960 . S
C526 N527 1.342 . S
C526 C530 1.401 . S
C526 C531 1.499 . S
N527 Co510 1.989 1_565 S
N527 C526 1.342 . S
N527 N528 1.388 . S
N528 Co511 1.993 1_565 S
N528 N527 1.388 . S
N528 C529 1.346 . S
C529 N528 1.346 . S
C529 C530 1.396 . S
C529 C539 1.510 . S
C530 C526 1.401 . S
C530 C529 1.396 . S
C531 C526 1.499 . S
C531 H532 0.959 . S
C531 H533 0.960 . S
C531 H534 0.961 . S
H532 C531 0.959 . S
H533 C531 0.960 . S
H534 C531 0.961 . S
O535 Co510 1.967 . S
O535 C543 1.258 . S
O536 Co511 1.941 . S
O536 C543 1.266 . S
H537 C539 0.959 . S
H538 C539 0.961 . S
C539 C529 1.510 . S
C539 H537 0.959 . S
C539 H538 0.961 . S
C539 H540 0.960 . S
H540 C539 0.960 . S
H541 N521 0.862 . S
O542 Co510 1.920 . S
O542 C515 1.289 . S
C543 O535 1.258 . S
C543 O536 1.266 . S
Co544 O547 1.970 . S
Co544 N561 1.989 . S
Co544 O569 1.967 . S
Co544 O576 1.920 . S
Co545 O548 1.966 . S
Co545 N554 2.022 . S
Co545 N562 1.993 . S
Co545 O570 1.941 . S
C546 O547 1.258 . S
C546 O548 1.263 . S
O547 Co544 1.970 . S
O547 C546 1.258 . S
O548 Co545 1.966 . S
O548 C546 1.263 . S
C549 O550 1.235 . S
C549 O576 1.289 . S
O550 C549 1.235 . S
C551 C553 1.400 . S
C551 N554 1.351 . S
C551 C556 1.501 . S
C552 C553 1.387 . S
C552 N555 1.341 . S
C553 C551 1.400 . S
C553 C552 1.387 . S
N554 Co545 2.022 . S
N554 C551 1.351 . S
N554 N555 1.365 . S
N555 C552 1.341 . S
N555 N554 1.365 . S
N555 H575 0.862 . S
C556 C551 1.501 . S
C556 H557 0.961 . S
C556 H558 0.961 . S
C556 H559 0.960 . S
H557 C556 0.961 . S
H558 C556 0.961 . S
H559 C556 0.960 . S
C560 N561 1.342 . S
C560 C564 1.401 . S
C560 C565 1.499 . S
N561 Co544 1.989 . S
N561 C560 1.342 . S
N561 N562 1.388 . S
N562 Co545 1.993 . S
N562 N561 1.388 . S
N562 C563 1.346 . S
C563 N562 1.346 . S
C563 C564 1.396 . S
C563 C573 1.510 . S
C564 C560 1.401 . S
C564 C563 1.396 . S
C565 C560 1.499 . S
C565 H566 0.959 . S
C565 H567 0.960 . S
C565 H568 0.961 . S
H566 C565 0.959 . S
H567 C565 0.960 . S
H568 C565 0.961 . S
O569 Co544 1.967 . S
O569 C577 1.258 . S
O570 Co545 1.941 . S
O570 C577 1.266 . S
H571 C573 0.959 . S
H572 C573 0.961 . S
C573 C563 1.510 . S
C573 H571 0.959 . S
C573 H572 0.961 . S
C573 H574 0.960 . S
H574 C573 0.960 . S
H575 N555 0.862 . S
O576 Co544 1.920 . S
O576 C549 1.289 . S
C577 O569 1.258 . S
C577 O570 1.266 . S
Co578 O581 1.970 . S
Co578 N595 1.989 . S
Co578 O603 1.967 . S
Co578 O610 1.920 . S
Co579 O582 1.966 . S
Co579 N588 2.022 . S
Co579 N596 1.993 . S
Co579 O604 1.941 . S
C580 O581 1.258 . S
C580 O582 1.263 . S
O581 Co578 1.970 . S
O581 C580 1.258 . S
O582 Co579 1.966 . S
O582 C580 1.263 . S
C583 O584 1.235 . S
C583 O610 1.289 . S
O584 C583 1.235 . S
C585 C587 1.400 . S
C585 N588 1.351 . S
C585 C590 1.501 . S
C586 C587 1.387 . S
C586 N589 1.341 . S
C587 C585 1.400 . S
C587 C586 1.387 . S
N588 Co579 2.022 . S
N588 C585 1.351 . S
N588 N589 1.365 . S
N589 C586 1.341 . S
N589 N588 1.365 . S
N589 H609 0.862 . S
C590 C585 1.501 . S
C590 H591 0.961 . S
C590 H592 0.961 . S
C590 H593 0.960 . S
H591 C590 0.961 . S
H592 C590 0.961 . S
H593 C590 0.960 . S
C594 N595 1.342 . S
C594 C598 1.401 . S
C594 C599 1.499 . S
N595 Co578 1.989 . S
N595 C594 1.342 . S
N595 N596 1.388 . S
N596 Co579 1.993 . S
N596 N595 1.388 . S
N596 C597 1.346 . S
C597 N596 1.346 . S
C597 C598 1.396 . S
C597 C607 1.510 . S
C598 C594 1.401 . S
C598 C597 1.396 . S
C599 C594 1.499 . S
C599 H600 0.959 . S
C599 H601 0.960 . S
C599 H602 0.961 . S
H600 C599 0.959 . S
H601 C599 0.960 . S
H602 C599 0.961 . S
O603 Co578 1.967 . S
O603 C611 1.258 . S
O604 Co579 1.941 . S
O604 C611 1.266 . S
H605 C607 0.959 . S
H606 C607 0.961 . S
C607 C597 1.510 . S
C607 H605 0.959 . S
C607 H606 0.961 . S
C607 H608 0.960 . S
H608 C607 0.960 . S
H609 N589 0.862 . S
O610 Co578 1.920 . S
O610 C583 1.289 . S
C611 O603 1.258 . S
C611 O604 1.266 . S
Co612 O615 1.970 . S
Co612 N629 1.989 . S
Co612 O637 1.967 . S
Co612 O644 1.920 . S
Co613 O616 1.966 . S
Co613 N622 2.022 . S
Co613 N630 1.993 . S
Co613 O638 1.941 . S
C614 O615 1.258 . S
C614 O616 1.263 . S
O615 Co612 1.970 . S
O615 C614 1.258 . S
O616 Co613 1.966 . S
O616 C614 1.263 . S
C617 O618 1.235 . S
C617 O644 1.289 . S
O618 C617 1.235 . S
C619 C621 1.400 . S
C619 N622 1.351 . S
C619 C624 1.501 . S
C620 C621 1.387 . S
C620 N623 1.341 . S
C621 C619 1.400 . S
C621 C620 1.387 . S
N622 Co613 2.022 . S
N622 C619 1.351 . S
N622 N623 1.365 . S
N623 C620 1.341 . S
N623 N622 1.365 . S
N623 H643 0.862 . S
C624 C619 1.501 . S
C624 H625 0.961 . S
C624 H626 0.961 . S
C624 H627 0.960 . S
H625 C624 0.961 . S
H626 C624 0.961 . S
H627 C624 0.960 . S
C628 N629 1.342 . S
C628 C632 1.401 . S
C628 C633 1.499 . S
N629 Co612 1.989 . S
N629 C628 1.342 . S
N629 N630 1.388 . S
N630 Co613 1.993 . S
N630 N629 1.388 . S
N630 C631 1.346 . S
C631 N630 1.346 . S
C631 C632 1.396 . S
C631 C641 1.510 . S
C632 C628 1.401 . S
C632 C631 1.396 . S
C633 C628 1.499 . S
C633 H634 0.959 . S
C633 H635 0.960 . S
C633 H636 0.961 . S
H634 C633 0.959 . S
H635 C633 0.960 . S
H636 C633 0.961 . S
O637 Co612 1.967 . S
O637 C645 1.258 . S
O638 Co613 1.941 . S
O638 C645 1.266 . S
H639 C641 0.959 . S
H640 C641 0.961 . S
C641 C631 1.510 . S
C641 H639 0.959 . S
C641 H640 0.961 . S
C641 H642 0.960 . S
H642 C641 0.960 . S
H643 N623 0.862 . S
O644 Co612 1.920 . S
O644 C617 1.289 . S
C645 O637 1.258 . S
C645 O638 1.266 . S
Co646 O649 1.970 . S
Co646 N663 1.989 . S
Co646 O671 1.967 . S
Co646 O678 1.920 . S
Co647 O650 1.966 . S
Co647 N656 2.022 . S
Co647 N664 1.993 . S
Co647 O672 1.941 . S
C648 O649 1.258 . S
C648 O650 1.263 . S
O649 Co646 1.970 . S
O649 C648 1.258 . S
O650 Co647 1.966 . S
O650 C648 1.263 . S
C651 O652 1.235 . S
C651 O678 1.289 . S
O652 C651 1.235 . S
C653 C655 1.400 . S
C653 N656 1.351 . S
C653 C658 1.501 . S
C654 C655 1.387 . S
C654 N657 1.341 . S
C655 C653 1.400 . S
C655 C654 1.387 . S
N656 Co647 2.022 . S
N656 C653 1.351 . S
N656 N657 1.365 . S
N657 C654 1.341 . S
N657 N656 1.365 . S
N657 H677 0.862 . S
C658 C653 1.501 . S
C658 H659 0.961 . S
C658 H660 0.961 . S
C658 H661 0.960 . S
H659 C658 0.961 . S
H660 C658 0.961 . S
H661 C658 0.960 . S
C662 N663 1.342 . S
C662 C666 1.401 . S
C662 C667 1.499 . S
N663 Co646 1.989 . S
N663 C662 1.342 . S
N663 N664 1.388 . S
N664 Co647 1.993 . S
N664 N663 1.388 . S
N664 C665 1.346 . S
C665 N664 1.346 . S
C665 C666 1.396 . S
C665 C675 1.510 . S
C666 C662 1.401 . S
C666 C665 1.396 . S
C667 C662 1.499 . S
C667 H668 0.959 . S
C667 H669 0.960 . S
C667 H670 0.961 . S
H668 C667 0.959 . S
H669 C667 0.960 . S
H670 C667 0.961 . S
O671 Co646 1.967 . S
O671 C679 1.258 . S
O672 Co647 1.941 . S
O672 C679 1.266 . S
H673 C675 0.959 . S
H674 C675 0.961 . S
C675 C665 1.510 . S
C675 H673 0.959 . S
C675 H674 0.961 . S
C675 H676 0.960 . S
H676 C675 0.960 . S
H677 N657 0.862 . S
O678 Co646 1.920 . S
O678 C651 1.289 . S
C679 O671 1.258 . S
C679 O672 1.266 . S
Co680 O683 1.970 . S
Co680 N697 1.989 . S
Co680 O705 1.967 . S
Co680 O712 1.920 . S
Co681 O684 1.966 . S
Co681 N690 2.022 . S
Co681 N698 1.993 . S
Co681 O706 1.941 . S
C682 O683 1.258 . S
C682 O684 1.263 . S
O683 Co680 1.970 . S
O683 C682 1.258 . S
O684 Co681 1.966 . S
O684 C682 1.263 . S
C685 O686 1.235 . S
C685 O712 1.289 . S
O686 C685 1.235 . S
C687 C689 1.400 . S
C687 N690 1.351 . S
C687 C692 1.501 . S
C688 C689 1.387 . S
C688 N691 1.341 . S
C689 C687 1.400 . S
C689 C688 1.387 . S
N690 Co681 2.022 . S
N690 C687 1.351 . S
N690 N691 1.365 . S
N691 C688 1.341 . S
N691 N690 1.365 . S
N691 H711 0.862 . S
C692 C687 1.501 . S
C692 H693 0.961 . S
C692 H694 0.961 . S
C692 H695 0.960 . S
H693 C692 0.961 . S
H694 C692 0.961 . S
H695 C692 0.960 . S
C696 N697 1.342 . S
C696 C700 1.401 . S
C696 C701 1.499 . S
N697 Co680 1.989 . S
N697 C696 1.342 . S
N697 N698 1.388 . S
N698 Co681 1.993 . S
N698 N697 1.388 . S
N698 C699 1.346 . S
C699 N698 1.346 . S
C699 C700 1.396 . S
C699 C709 1.510 . S
C700 C696 1.401 . S
C700 C699 1.396 . S
C701 C696 1.499 . S
C701 H702 0.959 . S
C701 H703 0.960 . S
C701 H704 0.961 . S
H702 C701 0.959 . S
H703 C701 0.960 . S
H704 C701 0.961 . S
O705 Co680 1.967 . S
O705 C713 1.258 . S
O706 Co681 1.941 . S
O706 C713 1.266 . S
H707 C709 0.959 . S
H708 C709 0.961 . S
C709 C699 1.510 . S
C709 H707 0.959 . S
C709 H708 0.961 . S
C709 H710 0.960 . S
H710 C709 0.960 . S
H711 N691 0.862 . S
O712 Co680 1.920 . S
O712 C685 1.289 . S
C713 O705 1.258 . S
C713 O706 1.266 . S
Co714 O717 1.970 . S
Co714 N731 1.989 . S
Co714 O739 1.967 . S
Co714 O746 1.920 . S
Co715 O718 1.966 . S
Co715 N724 2.022 . S
Co715 N732 1.993 . S
Co715 O740 1.941 . S
C716 O717 1.258 . S
C716 O718 1.263 . S
O717 Co714 1.970 . S
O717 C716 1.258 . S
O718 Co715 1.966 . S
O718 C716 1.263 . S
C719 O720 1.235 . S
C719 O746 1.289 . S
O720 C719 1.235 . S
C721 C723 1.400 . S
C721 N724 1.351 . S
C721 C726 1.501 . S
C722 C723 1.387 . S
C722 N725 1.341 . S
C723 C721 1.400 . S
C723 C722 1.387 . S
N724 Co715 2.022 . S
N724 C721 1.351 . S
N724 N725 1.365 . S
N725 C722 1.341 . S
N725 N724 1.365 . S
N725 H745 0.862 . S
C726 C721 1.501 . S
C726 H727 0.961 . S
C726 H728 0.961 . S
C726 H729 0.960 . S
H727 C726 0.961 . S
H728 C726 0.961 . S
H729 C726 0.960 . S
C730 N731 1.342 . S
C730 C734 1.401 . S
C730 C735 1.499 . S
N731 Co714 1.989 . S
N731 C730 1.342 . S
N731 N732 1.388 . S
N732 Co715 1.993 . S
N732 N731 1.388 . S
N732 C733 1.346 . S
C733 N732 1.346 . S
C733 C734 1.396 . S
C733 C743 1.510 . S
C734 C730 1.401 . S
C734 C733 1.396 . S
C735 C730 1.499 . S
C735 H736 0.959 . S
C735 H737 0.960 . S
C735 H738 0.961 . S
H736 C735 0.959 . S
H737 C735 0.960 . S
H738 C735 0.961 . S
O739 Co714 1.967 . S
O739 C747 1.258 . S
O740 Co715 1.941 . S
O740 C747 1.266 . S
H741 C743 0.959 . S
H742 C743 0.961 . S
C743 C733 1.510 . S
C743 H741 0.959 . S
C743 H742 0.961 . S
C743 H744 0.960 . S
H744 C743 0.960 . S
H745 N725 0.862 . S
O746 Co714 1.920 . S
O746 C719 1.289 . S
C747 O739 1.258 . S
C747 O740 1.266 . S
Co748 O751 1.970 . S
Co748 N765 1.989 . S
Co748 O773 1.967 . S
Co748 O780 1.920 . S
Co749 O752 1.966 . S
Co749 N758 2.022 . S
Co749 N766 1.993 . S
Co749 O774 1.941 . S
C750 O751 1.258 . S
C750 O752 1.263 . S
O751 Co748 1.970 . S
O751 C750 1.258 . S
O752 Co749 1.966 . S
O752 C750 1.263 . S
C753 O754 1.235 . S
C753 O780 1.289 . S
O754 C753 1.235 . S
C755 C757 1.400 . S
C755 N758 1.351 . S
C755 C760 1.501 . S
C756 C757 1.387 . S
C756 N759 1.341 . S
C757 C755 1.400 . S
C757 C756 1.387 . S
N758 Co749 2.022 . S
N758 C755 1.351 . S
N758 N759 1.365 . S
N759 C756 1.341 . S
N759 N758 1.365 . S
N759 H779 0.862 . S
C760 C755 1.501 . S
C760 H761 0.961 . S
C760 H762 0.961 . S
C760 H763 0.960 . S
H761 C760 0.961 . S
H762 C760 0.961 . S
H763 C760 0.960 . S
C764 N765 1.342 . S
C764 C768 1.401 . S
C764 C769 1.499 . S
N765 Co748 1.989 . S
N765 C764 1.342 . S
N765 N766 1.388 . S
N766 Co749 1.993 . S
N766 N765 1.388 . S
N766 C767 1.346 . S
C767 N766 1.346 . S
C767 C768 1.396 . S
C767 C777 1.510 . S
C768 C764 1.401 . S
C768 C767 1.396 . S
C769 C764 1.499 . S
C769 H770 0.959 . S
C769 H771 0.960 . S
C769 H772 0.961 . S
H770 C769 0.959 . S
H771 C769 0.960 . S
H772 C769 0.961 . S
O773 Co748 1.967 . S
O773 C781 1.258 . S
O774 Co749 1.941 . S
O774 C781 1.266 . S
H775 C777 0.959 . S
H776 C777 0.961 . S
C777 C767 1.510 . S
C777 H775 0.959 . S
C777 H776 0.961 . S
C777 H778 0.960 . S
H778 C777 0.960 . S
H779 N759 0.862 . S
O780 Co748 1.920 . S
O780 C753 1.289 . S
C781 O773 1.258 . S
C781 O774 1.266 . S
Co782 O785 1.970 . S
Co782 N799 1.989 . S
Co782 O807 1.967 . S
Co782 O814 1.920 . S
Co783 O786 1.966 . S
Co783 N792 2.022 . S
Co783 N800 1.993 . S
Co783 O808 1.941 . S
C784 O785 1.258 . S
C784 O786 1.263 . S
O785 Co782 1.970 . S
O785 C784 1.258 . S
O786 Co783 1.966 . S
O786 C784 1.263 . S
C787 O788 1.235 . S
C787 O814 1.289 . S
O788 C787 1.235 . S
C789 C791 1.400 . S
C789 N792 1.351 . S
C789 C794 1.501 . S
C790 C791 1.387 . S
C790 N793 1.341 . S
C791 C789 1.400 . S
C791 C790 1.387 . S
N792 Co783 2.022 . S
N792 C789 1.351 . S
N792 N793 1.365 . S
N793 C790 1.341 . S
N793 N792 1.365 . S
N793 H813 0.862 . S
C794 C789 1.501 . S
C794 H795 0.961 . S
C794 H796 0.961 . S
C794 H797 0.960 . S
H795 C794 0.961 . S
H796 C794 0.961 . S
H797 C794 0.960 . S
C798 N799 1.342 . S
C798 C802 1.401 . S
C798 C803 1.499 . S
N799 Co782 1.989 . S
N799 C798 1.342 . S
N799 N800 1.388 . S
N800 Co783 1.993 . S
N800 N799 1.388 . S
N800 C801 1.346 . S
C801 N800 1.346 . S
C801 C802 1.396 . S
C801 C811 1.510 . S
C802 C798 1.401 . S
C802 C801 1.396 . S
C803 C798 1.499 . S
C803 H804 0.959 . S
C803 H805 0.960 . S
C803 H806 0.961 . S
H804 C803 0.959 . S
H805 C803 0.960 . S
H806 C803 0.961 . S
O807 Co782 1.967 . S
O807 C815 1.258 . S
O808 Co783 1.941 . S
O808 C815 1.266 . S
H809 C811 0.959 . S
H810 C811 0.961 . S
C811 C801 1.510 . S
C811 H809 0.959 . S
C811 H810 0.961 . S
C811 H812 0.960 . S
H812 C811 0.960 . S
H813 N793 0.862 . S
O814 Co782 1.920 . S
O814 C787 1.289 . S
C815 O807 1.258 . S
C815 O808 1.266 . S
Co816 O819 1.970 . S
Co816 N833 1.989 1_565 S
Co816 O841 1.967 . S
Co816 O848 1.920 . S
Co817 O820 1.966 . S
Co817 N826 2.022 . S
Co817 N834 1.993 1_565 S
Co817 O842 1.941 . S
C818 O819 1.258 1_556 S
C818 O820 1.263 1_556 S
O819 Co816 1.970 . S
O819 C818 1.258 1_554 S
O820 Co817 1.966 . S
O820 C818 1.263 1_554 S
C821 O822 1.235 . S
C821 O848 1.289 . S
O822 C821 1.235 . S
C823 C825 1.400 . S
C823 N826 1.351 . S
C823 C828 1.501 1_554 S
C824 C825 1.387 . S
C824 N827 1.341 . S
C825 C823 1.400 . S
C825 C824 1.387 . S
N826 Co817 2.022 . S
N826 C823 1.351 . S
N826 N827 1.365 . S
N827 C824 1.341 . S
N827 N826 1.365 . S
N827 H847 0.862 . S
C828 C823 1.501 1_556 S
C828 H829 0.961 . S
C828 H830 0.961 . S
C828 H831 0.960 . S
H829 C828 0.961 . S
H830 C828 0.961 . S
H831 C828 0.960 . S
C832 N833 1.342 . S
C832 C836 1.401 . S
C832 C837 1.499 . S
N833 Co816 1.989 1_545 S
N833 C832 1.342 . S
N833 N834 1.388 . S
N834 Co817 1.993 1_545 S
N834 N833 1.388 . S
N834 C835 1.346 . S
C835 N834 1.346 . S
C835 C836 1.396 . S
C835 C845 1.510 . S
C836 C832 1.401 . S
C836 C835 1.396 . S
C837 C832 1.499 . S
C837 H838 0.959 . S
C837 H839 0.960 . S
C837 H840 0.961 . S
H838 C837 0.959 . S
H839 C837 0.960 . S
H840 C837 0.961 . S
O841 Co816 1.967 . S
O841 C849 1.258 . S
O842 Co817 1.941 . S
O842 C849 1.266 . S
H843 C845 0.959 . S
H844 C845 0.961 . S
C845 C835 1.510 . S
C845 H843 0.959 . S
C845 H844 0.961 . S
C845 H846 0.960 . S
H846 C845 0.960 . S
H847 N827 0.862 . S
O848 Co816 1.920 . S
O848 C821 1.289 . S
C849 O841 1.258 . S
C849 O842 1.266 . S
Co850 O853 1.970 . S
Co850 N867 1.989 . S
Co850 O875 1.967 . S
Co850 O882 1.920 . S
Co851 O854 1.966 . S
Co851 N860 2.022 . S
Co851 N868 1.993 . S
Co851 O876 1.941 . S
C852 O853 1.258 1_556 S
C852 O854 1.263 1_556 S
O853 Co850 1.970 . S
O853 C852 1.258 1_554 S
O854 Co851 1.966 . S
O854 C852 1.263 1_554 S
C855 O856 1.235 . S
C855 O882 1.289 . S
O856 C855 1.235 . S
C857 C859 1.400 . S
C857 N860 1.351 . S
C857 C862 1.501 1_554 S
C858 C859 1.387 . S
C858 N861 1.341 . S
C859 C857 1.400 . S
C859 C858 1.387 . S
N860 Co851 2.022 . S
N860 C857 1.351 . S
N860 N861 1.365 . S
N861 C858 1.341 . S
N861 N860 1.365 . S
N861 H881 0.862 . S
C862 C857 1.501 1_556 S
C862 H863 0.961 . S
C862 H864 0.961 . S
C862 H865 0.960 . S
H863 C862 0.961 . S
H864 C862 0.961 . S
H865 C862 0.960 . S
C866 N867 1.342 . S
C866 C870 1.401 . S
C866 C871 1.499 . S
N867 Co850 1.989 . S
N867 C866 1.342 . S
N867 N868 1.388 . S
N868 Co851 1.993 . S
N868 N867 1.388 . S
N868 C869 1.346 . S
C869 N868 1.346 . S
C869 C870 1.396 . S
C869 C879 1.510 . S
C870 C866 1.401 . S
C870 C869 1.396 . S
C871 C866 1.499 . S
C871 H872 0.959 . S
C871 H873 0.960 . S
C871 H874 0.961 . S
H872 C871 0.959 . S
H873 C871 0.960 . S
H874 C871 0.961 . S
O875 Co850 1.967 . S
O875 C883 1.258 . S
O876 Co851 1.941 . S
O876 C883 1.266 . S
H877 C879 0.959 . S
H878 C879 0.961 . S
C879 C869 1.510 . S
C879 H877 0.959 . S
C879 H878 0.961 . S
C879 H880 0.960 . S
H880 C879 0.960 . S
H881 N861 0.862 . S
O882 Co850 1.920 . S
O882 C855 1.289 . S
C883 O875 1.258 . S
C883 O876 1.266 . S
Co884 O887 1.970 . S
Co884 N901 1.989 . S
Co884 O909 1.967 . S
Co884 O916 1.920 . S
Co885 O888 1.966 . S
Co885 N894 2.022 . S
Co885 N902 1.993 . S
Co885 O910 1.941 . S
C886 O887 1.258 . S
C886 O888 1.263 . S
O887 Co884 1.970 . S
O887 C886 1.258 . S
O888 Co885 1.966 . S
O888 C886 1.263 . S
C889 O890 1.235 . S
C889 O916 1.289 . S
O890 C889 1.235 . S
C891 C893 1.400 . S
C891 N894 1.351 . S
C891 C896 1.501 . S
C892 C893 1.387 . S
C892 N895 1.341 . S
C893 C891 1.400 . S
C893 C892 1.387 . S
N894 Co885 2.022 . S
N894 C891 1.351 . S
N894 N895 1.365 . S
N895 C892 1.341 . S
N895 N894 1.365 . S
N895 H915 0.862 . S
C896 C891 1.501 . S
C896 H897 0.961 . S
C896 H898 0.961 . S
C896 H899 0.960 . S
H897 C896 0.961 . S
H898 C896 0.961 . S
H899 C896 0.960 . S
C900 N901 1.342 . S
C900 C904 1.401 . S
C900 C905 1.499 . S
N901 Co884 1.989 . S
N901 C900 1.342 . S
N901 N902 1.388 . S
N902 Co885 1.993 . S
N902 N901 1.388 . S
N902 C903 1.346 . S
C903 N902 1.346 . S
C903 C904 1.396 . S
C903 C913 1.510 . S
C904 C900 1.401 . S
C904 C903 1.396 . S
C905 C900 1.499 . S
C905 H906 0.959 . S
C905 H907 0.960 . S
C905 H908 0.961 . S
H906 C905 0.959 . S
H907 C905 0.960 . S
H908 C905 0.961 . S
O909 Co884 1.967 . S
O909 C917 1.258 . S
O910 Co885 1.941 . S
O910 C917 1.266 . S
H911 C913 0.959 . S
H912 C913 0.961 . S
C913 C903 1.510 . S
C913 H911 0.959 . S
C913 H912 0.961 . S
C913 H914 0.960 . S
H914 C913 0.960 . S
H915 N895 0.862 . S
O916 Co884 1.920 . S
O916 C889 1.289 . S
C917 O909 1.258 . S
C917 O910 1.266 . S
Co918 O921 1.970 . S
Co918 N935 1.989 1_565 S
Co918 O943 1.967 . S
Co918 O950 1.920 . S
Co919 O922 1.966 . S
Co919 N928 2.022 . S
Co919 N936 1.993 1_565 S
Co919 O944 1.941 . S
C920 O921 1.258 . S
C920 O922 1.263 . S
O921 Co918 1.970 . S
O921 C920 1.258 . S
O922 Co919 1.966 . S
O922 C920 1.263 . S
C923 O924 1.235 . S
C923 O950 1.289 . S
O924 C923 1.235 . S
C925 C927 1.400 . S
C925 N928 1.351 . S
C925 C930 1.501 . S
C926 C927 1.387 . S
C926 N929 1.341 . S
C927 C925 1.400 . S
C927 C926 1.387 . S
N928 Co919 2.022 . S
N928 C925 1.351 . S
N928 N929 1.365 . S
N929 C926 1.341 . S
N929 N928 1.365 . S
N929 H949 0.862 . S
C930 C925 1.501 . S
C930 H931 0.961 . S
C930 H932 0.961 . S
C930 H933 0.960 . S
H931 C930 0.961 . S
H932 C930 0.961 . S
H933 C930 0.960 . S
C934 N935 1.342 . S
C934 C938 1.401 . S
C934 C939 1.499 . S
N935 Co918 1.989 1_545 S
N935 C934 1.342 . S
N935 N936 1.388 . S
N936 Co919 1.993 1_545 S
N936 N935 1.388 . S
N936 C937 1.346 . S
C937 N936 1.346 . S
C937 C938 1.396 . S
C937 C947 1.510 . S
C938 C934 1.401 . S
C938 C937 1.396 . S
C939 C934 1.499 . S
C939 H940 0.959 . S
C939 H941 0.960 . S
C939 H942 0.961 . S
H940 C939 0.959 . S
H941 C939 0.960 . S
H942 C939 0.961 . S
O943 Co918 1.967 . S
O943 C951 1.258 . S
O944 Co919 1.941 . S
O944 C951 1.266 . S
H945 C947 0.959 . S
H946 C947 0.961 . S
C947 C937 1.510 . S
C947 H945 0.959 . S
C947 H946 0.961 . S
C947 H948 0.960 . S
H948 C947 0.960 . S
H949 N929 0.862 . S
O950 Co918 1.920 . S
O950 C923 1.289 . S
C951 O943 1.258 . S
C951 O944 1.266 . S
Co952 O955 1.970 . S
Co952 N969 1.989 1_545 S
Co952 O977 1.967 . S
Co952 O984 1.920 . S
Co953 O956 1.966 . S
Co953 N962 2.022 . S
Co953 N970 1.993 1_545 S
Co953 O978 1.941 . S
C954 O955 1.258 1_554 S
C954 O956 1.263 1_554 S
O955 Co952 1.970 . S
O955 C954 1.258 1_556 S
O956 Co953 1.966 . S
O956 C954 1.263 1_556 S
C957 O958 1.235 . S
C957 O984 1.289 . S
O958 C957 1.235 . S
C959 C961 1.400 . S
C959 N962 1.351 . S
C959 C964 1.501 1_556 S
C960 C961 1.387 . S
C960 N963 1.341 . S
C961 C959 1.400 . S
C961 C960 1.387 . S
N962 Co953 2.022 . S
N962 C959 1.351 . S
N962 N963 1.365 . S
N963 C960 1.341 . S
N963 N962 1.365 . S
N963 H983 0.862 . S
C964 C959 1.501 1_554 S
C964 H965 0.961 . S
C964 H966 0.961 . S
C964 H967 0.960 . S
H965 C964 0.961 . S
H966 C964 0.961 . S
H967 C964 0.960 . S
C968 N969 1.342 . S
C968 C972 1.401 . S
C968 C973 1.499 . S
N969 Co952 1.989 1_565 S
N969 C968 1.342 . S
N969 N970 1.388 . S
N970 Co953 1.993 1_565 S
N970 N969 1.388 . S
N970 C971 1.346 . S
C971 N970 1.346 . S
C971 C972 1.396 . S
C971 C981 1.510 . S
C972 C968 1.401 . S
C972 C971 1.396 . S
C973 C968 1.499 . S
C973 H974 0.959 . S
C973 H975 0.960 . S
C973 H976 0.961 . S
H974 C973 0.959 . S
H975 C973 0.960 . S
H976 C973 0.961 . S
O977 Co952 1.967 . S
O977 C985 1.258 . S
O978 Co953 1.941 . S
O978 C985 1.266 . S
H979 C981 0.959 . S
H980 C981 0.961 . S
C981 C971 1.510 . S
C981 H979 0.959 . S
C981 H980 0.961 . S
C981 H982 0.960 . S
H982 C981 0.960 . S
H983 N963 0.862 . S
O984 Co952 1.920 . S
O984 C957 1.289 . S
C985 O977 1.258 . S
C985 O978 1.266 . S
Co986 O989 1.970 . S
Co986 N1003 1.989 . S
Co986 O1011 1.967 . S
Co986 O1018 1.920 . S
Co987 O990 1.966 . S
Co987 N996 2.022 . S
Co987 N1004 1.993 . S
Co987 O1012 1.941 . S
C988 O989 1.258 1_554 S
C988 O990 1.263 1_554 S
O989 Co986 1.970 . S
O989 C988 1.258 1_556 S
O990 Co987 1.966 . S
O990 C988 1.263 1_556 S
C991 O992 1.235 . S
C991 O1018 1.289 . S
O992 C991 1.235 . S
C993 C995 1.400 . S
C993 N996 1.351 . S
C993 C998 1.501 1_556 S
C994 C995 1.387 . S
C994 N997 1.341 . S
C995 C993 1.400 . S
C995 C994 1.387 . S
N996 Co987 2.022 . S
N996 C993 1.351 . S
N996 N997 1.365 . S
N997 C994 1.341 . S
N997 N996 1.365 . S
N997 H1017 0.862 . S
C998 C993 1.501 1_554 S
C998 H999 0.961 . S
C998 H1000 0.961 . S
C998 H1001 0.960 . S
H999 C998 0.961 . S
H1000 C998 0.961 . S
H1001 C998 0.960 . S
C1002 N1003 1.342 . S
C1002 C1006 1.401 . S
C1002 C1007 1.499 . S
N1003 Co986 1.989 . S
N1003 C1002 1.342 . S
N1003 N1004 1.388 . S
N1004 Co987 1.993 . S
N1004 N1003 1.388 . S
N1004 C1005 1.346 . S
C1005 N1004 1.346 . S
C1005 C1006 1.396 . S
C1005 C1015 1.510 . S
C1006 C1002 1.401 . S
C1006 C1005 1.396 . S
C1007 C1002 1.499 . S
C1007 H1008 0.959 . S
C1007 H1009 0.960 . S
C1007 H1010 0.961 . S
H1008 C1007 0.959 . S
H1009 C1007 0.960 . S
H1010 C1007 0.961 . S
O1011 Co986 1.967 . S
O1011 C1019 1.258 . S
O1012 Co987 1.941 . S
O1012 C1019 1.266 . S
H1013 C1015 0.959 . S
H1014 C1015 0.961 . S
C1015 C1005 1.510 . S
C1015 H1013 0.959 . S
C1015 H1014 0.961 . S
C1015 H1016 0.960 . S
H1016 C1015 0.960 . S
H1017 N997 0.862 . S
O1018 Co986 1.920 . S
O1018 C991 1.289 . S
C1019 O1011 1.258 . S
C1019 O1012 1.266 . S
Co1020 O1023 1.970 . S
Co1020 N1037 1.989 . S
Co1020 O1045 1.967 . S
Co1020 O1052 1.920 . S
Co1021 O1024 1.966 . S
Co1021 N1030 2.022 . S
Co1021 N1038 1.993 . S
Co1021 O1046 1.941 . S
C1022 O1023 1.258 . S
C1022 O1024 1.263 . S
O1023 Co1020 1.970 . S
O1023 C1022 1.258 . S
O1024 Co1021 1.966 . S
O1024 C1022 1.263 . S
C1025 O1026 1.235 . S
C1025 O1052 1.289 . S
O1026 C1025 1.235 . S
C1027 C1029 1.400 . S
C1027 N1030 1.351 . S
C1027 C1032 1.501 . S
C1028 C1029 1.387 . S
C1028 N1031 1.341 . S
C1029 C1027 1.400 . S
C1029 C1028 1.387 . S
N1030 Co1021 2.022 . S
N1030 C1027 1.351 . S
N1030 N1031 1.365 . S
N1031 C1028 1.341 . S
N1031 N1030 1.365 . S
N1031 H1051 0.862 . S
C1032 C1027 1.501 . S
C1032 H1033 0.961 . S
C1032 H1034 0.961 . S
C1032 H1035 0.960 . S
H1033 C1032 0.961 . S
H1034 C1032 0.961 . S
H1035 C1032 0.960 . S
C1036 N1037 1.342 . S
C1036 C1040 1.401 . S
C1036 C1041 1.499 . S
N1037 Co1020 1.989 . S
N1037 C1036 1.342 . S
N1037 N1038 1.388 . S
N1038 Co1021 1.993 . S
N1038 N1037 1.388 . S
N1038 C1039 1.346 . S
C1039 N1038 1.346 . S
C1039 C1040 1.396 . S
C1039 C1049 1.510 . S
C1040 C1036 1.401 . S
C1040 C1039 1.396 . S
C1041 C1036 1.499 . S
C1041 H1042 0.959 . S
C1041 H1043 0.960 . S
C1041 H1044 0.961 . S
H1042 C1041 0.959 . S
H1043 C1041 0.960 . S
H1044 C1041 0.961 . S
O1045 Co1020 1.967 . S
O1045 C1053 1.258 . S
O1046 Co1021 1.941 . S
O1046 C1053 1.266 . S
H1047 C1049 0.959 . S
H1048 C1049 0.961 . S
C1049 C1039 1.510 . S
C1049 H1047 0.959 . S
C1049 H1048 0.961 . S
C1049 H1050 0.960 . S
H1050 C1049 0.960 . S
H1051 N1031 0.862 . S
O1052 Co1020 1.920 . S
O1052 C1025 1.289 . S
C1053 O1045 1.258 . S
C1053 O1046 1.266 . S
Co1054 O1057 1.970 . S
Co1054 N1071 1.989 1_545 S
Co1054 O1079 1.967 . S
Co1054 O1086 1.920 . S
Co1055 O1058 1.966 . S
Co1055 N1064 2.022 . S
Co1055 N1072 1.993 1_545 S
Co1055 O1080 1.941 . S
C1056 O1057 1.258 . S
C1056 O1058 1.263 . S
O1057 Co1054 1.970 . S
O1057 C1056 1.258 . S
O1058 Co1055 1.966 . S
O1058 C1056 1.263 . S
C1059 O1060 1.235 . S
C1059 O1086 1.289 . S
O1060 C1059 1.235 . S
C1061 C1063 1.400 . S
C1061 N1064 1.351 . S
C1061 C1066 1.501 . S
C1062 C1063 1.387 . S
C1062 N1065 1.341 . S
C1063 C1061 1.400 . S
C1063 C1062 1.387 . S
N1064 Co1055 2.022 . S
N1064 C1061 1.351 . S
N1064 N1065 1.365 . S
N1065 C1062 1.341 . S
N1065 N1064 1.365 . S
N1065 H1085 0.862 . S
C1066 C1061 1.501 . S
C1066 H1067 0.961 . S
C1066 H1068 0.961 . S
C1066 H1069 0.960 . S
H1067 C1066 0.961 . S
H1068 C1066 0.961 . S
H1069 C1066 0.960 . S
C1070 N1071 1.342 . S
C1070 C1074 1.401 . S
C1070 C1075 1.499 . S
N1071 Co1054 1.989 1_565 S
N1071 C1070 1.342 . S
N1071 N1072 1.388 . S
N1072 Co1055 1.993 1_565 S
N1072 N1071 1.388 . S
N1072 C1073 1.346 . S
C1073 N1072 1.346 . S
C1073 C1074 1.396 . S
C1073 C1083 1.510 . S
C1074 C1070 1.401 . S
C1074 C1073 1.396 . S
C1075 C1070 1.499 . S
C1075 H1076 0.959 . S
C1075 H1077 0.960 . S
C1075 H1078 0.961 . S
H1076 C1075 0.959 . S
H1077 C1075 0.960 . S
H1078 C1075 0.961 . S
O1079 Co1054 1.967 . S
O1079 C1087 1.258 . S
O1080 Co1055 1.941 . S
O1080 C1087 1.266 . S
H1081 C1083 0.959 . S
H1082 C1083 0.961 . S
C1083 C1073 1.510 . S
C1083 H1081 0.959 . S
C1083 H1082 0.961 . S
C1083 H1084 0.960 . S
H1084 C1083 0.960 . S
H1085 N1065 0.862 . S
O1086 Co1054 1.920 . S
O1086 C1059 1.289 . S
C1087 O1079 1.258 . S
C1087 O1080 1.266 . S
C1088 C1089 1.369 . S
C1088 C1090 1.419 . S
C1088 H1092 0.930 . S
C1089 C1088 1.369 . S
C1089 C1098 1.429 . S
C1090 C1088 1.419 . S
C1090 C1091 1.363 . S
C1090 H1093 0.929 . S
C1091 C1090 1.363 . S
C1091 C1097 1.428 . S
H1092 C1088 0.930 . S
H1093 C1090 0.929 . S
S1094 N1095 1.613 . S
S1094 N1096 1.610 . S
N1095 S1094 1.613 . S
N1095 C1098 1.350 . S
N1096 S1094 1.610 . S
N1096 C1097 1.351 . S
C1097 C1091 1.428 . S
C1097 N1096 1.351 . S
C1097 C1098 1.434 . S
C1098 C1089 1.429 . S
C1098 N1095 1.350 . S
C1098 C1097 1.434 . S
C1099 C1100 1.369 . S
C1099 C1101 1.419 . S
C1099 H1103 0.930 . S
C1100 C1099 1.369 . S
C1100 C1109 1.429 . S
C1101 C1099 1.419 . S
C1101 C1102 1.363 . S
C1101 H1104 0.929 . S
C1102 C1101 1.363 . S
C1102 C1108 1.428 . S
H1103 C1099 0.930 . S
H1104 C1101 0.929 . S
S1105 N1106 1.613 . S
S1105 N1107 1.610 . S
N1106 S1105 1.613 . S
N1106 C1109 1.350 1_556 S
N1107 S1105 1.610 . S
N1107 C1108 1.351 1_556 S
C1108 C1102 1.428 . S
C1108 N1107 1.351 1_554 S
C1108 C1109 1.434 . S
C1109 C1100 1.429 . S
C1109 N1106 1.350 1_554 S
C1109 C1108 1.434 . S
C1110 C1111 1.369 . S
C1110 C1112 1.419 . S
C1110 H1114 0.930 . S
C1111 C1110 1.369 . S
C1111 C1120 1.429 . S
C1112 C1110 1.419 . S
C1112 C1113 1.363 . S
C1112 H1115 0.929 . S
C1113 C1112 1.363 . S
C1113 C1119 1.428 . S
H1114 C1110 0.930 . S
H1115 C1112 0.929 . S
S1116 N1117 1.613 . S
S1116 N1118 1.610 . S
N1117 S1116 1.613 . S
N1117 C1120 1.350 1_554 S
N1118 S1116 1.610 . S
N1118 C1119 1.351 1_554 S
C1119 C1113 1.428 . S
C1119 N1118 1.351 1_556 S
C1119 C1120 1.434 . S
C1120 C1111 1.429 . S
C1120 N1117 1.350 1_556 S
C1120 C1119 1.434 . S
C1121 C1122 1.369 . S
C1121 C1123 1.419 . S
C1121 H1125 0.930 . S
C1122 C1121 1.369 . S
C1122 C1131 1.429 . S
C1123 C1121 1.419 . S
C1123 C1124 1.363 . S
C1123 H1126 0.929 . S
C1124 C1123 1.363 . S
C1124 C1130 1.428 . S
H1125 C1121 0.930 . S
H1126 C1123 0.929 . S
S1127 N1128 1.613 . S
S1127 N1129 1.610 . S
N1128 S1127 1.613 . S
N1128 C1131 1.350 . S
N1129 S1127 1.610 . S
N1129 C1130 1.351 . S
C1130 C1124 1.428 . S
C1130 N1129 1.351 . S
C1130 C1131 1.434 . S
C1131 C1122 1.429 . S
C1131 N1128 1.350 . S
C1131 C1130 1.434 . S
C1132 C1133 1.369 . S
C1132 C1134 1.419 . S
C1132 H1136 0.930 . S
C1133 C1132 1.369 . S
C1133 C1142 1.429 . S
C1134 C1132 1.419 . S
C1134 C1135 1.363 . S
C1134 H1137 0.929 . S
C1135 C1134 1.363 . S
C1135 C1141 1.428 . S
H1136 C1132 0.930 . S
H1137 C1134 0.929 . S
S1138 N1139 1.613 . S
S1138 N1140 1.610 . S
N1139 S1138 1.613 . S
N1139 C1142 1.350 . S
N1140 S1138 1.610 . S
N1140 C1141 1.351 . S
C1141 C1135 1.428 . S
C1141 N1140 1.351 . S
C1141 C1142 1.434 . S
C1142 C1133 1.429 . S
C1142 N1139 1.350 . S
C1142 C1141 1.434 . S
C1143 C1144 1.369 . S
C1143 C1145 1.419 . S
C1143 H1147 0.930 . S
C1144 C1143 1.369 . S
C1144 C1153 1.429 . S
C1145 C1143 1.419 . S
C1145 C1146 1.363 . S
C1145 H1148 0.929 . S
C1146 C1145 1.363 . S
C1146 C1152 1.428 . S
H1147 C1143 0.930 . S
H1148 C1145 0.929 . S
S1149 N1150 1.613 . S
S1149 N1151 1.610 . S
N1150 S1149 1.613 . S
N1150 C1153 1.350 . S
N1151 S1149 1.610 . S
N1151 C1152 1.351 . S
C1152 C1146 1.428 . S
C1152 N1151 1.351 . S
C1152 C1153 1.434 . S
C1153 C1144 1.429 . S
C1153 N1150 1.350 . S
C1153 C1152 1.434 . S
C1154 C1155 1.369 . S
C1154 C1156 1.419 . S
C1154 H1158 0.930 . S
C1155 C1154 1.369 . S
C1155 C1164 1.429 . S
C1156 C1154 1.419 . S
C1156 C1157 1.363 . S
C1156 H1159 0.929 . S
C1157 C1156 1.363 . S
C1157 C1163 1.428 . S
H1158 C1154 0.930 . S
H1159 C1156 0.929 . S
S1160 N1161 1.613 . S
S1160 N1162 1.610 . S
N1161 S1160 1.613 . S
N1161 C1164 1.350 . S
N1162 S1160 1.610 . S
N1162 C1163 1.351 . S
C1163 C1157 1.428 . S
C1163 N1162 1.351 . S
C1163 C1164 1.434 . S
C1164 C1155 1.429 . S
C1164 N1161 1.350 . S
C1164 C1163 1.434 . S
C1165 C1166 1.369 . S
C1165 C1167 1.419 . S
C1165 H1169 0.930 . S
C1166 C1165 1.369 . S
C1166 C1175 1.429 . S
C1167 C1165 1.419 . S
C1167 C1168 1.363 . S
C1167 H1170 0.929 . S
C1168 C1167 1.363 . S
C1168 C1174 1.428 . S
H1169 C1165 0.930 . S
H1170 C1167 0.929 . S
S1171 N1172 1.613 . S
S1171 N1173 1.610 . S
N1172 S1171 1.613 . S
N1172 C1175 1.350 . S
N1173 S1171 1.610 . S
N1173 C1174 1.351 . S
C1174 C1168 1.428 . S
C1174 N1173 1.351 . S
C1174 C1175 1.434 . S
C1175 C1166 1.429 . S
C1175 N1172 1.350 . S
C1175 C1174 1.434 . S
C1176 C1177 1.369 . S
C1176 C1178 1.419 . S
C1176 H1180 0.930 . S
C1177 C1176 1.369 . S
C1177 C1186 1.429 . S
C1178 C1176 1.419 . S
C1178 C1179 1.363 . S
C1178 H1181 0.929 . S
C1179 C1178 1.363 . S
C1179 C1185 1.428 . S
H1180 C1176 0.930 . S
H1181 C1178 0.929 . S
S1182 N1183 1.613 . S
S1182 N1184 1.610 . S
N1183 S1182 1.613 . S
N1183 C1186 1.350 . S
N1184 S1182 1.610 . S
N1184 C1185 1.351 . S
C1185 C1179 1.428 . S
C1185 N1184 1.351 . S
C1185 C1186 1.434 . S
C1186 C1177 1.429 . S
C1186 N1183 1.350 . S
C1186 C1185 1.434 . S
C1187 C1188 1.369 . S
C1187 C1189 1.419 . S
C1187 H1191 0.930 . S
C1188 C1187 1.369 . S
C1188 C1197 1.429 . S
C1189 C1187 1.419 . S
C1189 C1190 1.363 . S
C1189 H1192 0.929 . S
C1190 C1189 1.363 . S
C1190 C1196 1.428 . S
H1191 C1187 0.930 . S
H1192 C1189 0.929 . S
S1193 N1194 1.613 . S
S1193 N1195 1.610 . S
N1194 S1193 1.613 . S
N1194 C1197 1.350 . S
N1195 S1193 1.610 . S
N1195 C1196 1.351 . S
C1196 C1190 1.428 . S
C1196 N1195 1.351 . S
C1196 C1197 1.434 . S
C1197 C1188 1.429 . S
C1197 N1194 1.350 . S
C1197 C1196 1.434 . S
C1198 C1199 1.369 . S
C1198 C1200 1.419 . S
C1198 H1202 0.930 . S
C1199 C1198 1.369 . S
C1199 C1208 1.429 . S
C1200 C1198 1.419 . S
C1200 C1201 1.363 . S
C1200 H1203 0.929 . S
C1201 C1200 1.363 . S
C1201 C1207 1.428 . S
H1202 C1198 0.930 . S
H1203 C1200 0.929 . S
S1204 N1205 1.613 . S
S1204 N1206 1.610 . S
N1205 S1204 1.613 . S
N1205 C1208 1.350 . S
N1206 S1204 1.610 . S
N1206 C1207 1.351 . S
C1207 C1201 1.428 . S
C1207 N1206 1.351 . S
C1207 C1208 1.434 . S
C1208 C1199 1.429 . S
C1208 N1205 1.350 . S
C1208 C1207 1.434 . S
C1209 C1210 1.369 . S
C1209 C1211 1.419 . S
C1209 H1213 0.930 . S
C1210 C1209 1.369 . S
C1210 C1219 1.429 . S
C1211 C1209 1.419 . S
C1211 C1212 1.363 . S
C1211 H1214 0.929 . S
C1212 C1211 1.363 . S
C1212 C1218 1.428 . S
H1213 C1209 0.930 . S
H1214 C1211 0.929 . S
S1215 N1216 1.613 . S
S1215 N1217 1.610 . S
N1216 S1215 1.613 . S
N1216 C1219 1.350 . S
N1217 S1215 1.610 . S
N1217 C1218 1.351 . S
C1218 C1212 1.428 . S
C1218 N1217 1.351 . S
C1218 C1219 1.434 . S
C1219 C1210 1.429 . S
C1219 N1216 1.350 . S
C1219 C1218 1.434 . S
C1220 C1221 1.369 . S
C1220 C1222 1.419 . S
C1220 H1224 0.930 . S
C1221 C1220 1.369 . S
C1221 C1230 1.429 . S
C1222 C1220 1.419 . S
C1222 C1223 1.363 . S
C1222 H1225 0.929 . S
C1223 C1222 1.363 . S
C1223 C1229 1.428 . S
H1224 C1220 0.930 . S
H1225 C1222 0.929 . S
S1226 N1227 1.613 . S
S1226 N1228 1.610 . S
N1227 S1226 1.613 . S
N1227 C1230 1.350 . S
N1228 S1226 1.610 . S
N1228 C1229 1.351 . S
C1229 C1223 1.428 . S
C1229 N1228 1.351 . S
C1229 C1230 1.434 . S
C1230 C1221 1.429 . S
C1230 N1227 1.350 . S
C1230 C1229 1.434 . S
C1231 C1232 1.369 . S
C1231 C1233 1.419 . S
C1231 H1235 0.930 . S
C1232 C1231 1.369 . S
C1232 C1241 1.429 . S
C1233 C1231 1.419 . S
C1233 C1234 1.363 . S
C1233 H1236 0.929 . S
C1234 C1233 1.363 . S
C1234 C1240 1.428 . S
H1235 C1231 0.930 . S
H1236 C1233 0.929 . S
S1237 N1238 1.613 1_556 S
S1237 N1239 1.610 1_556 S
N1238 S1237 1.613 1_554 S
N1238 C1241 1.350 . S
N1239 S1237 1.610 1_554 S
N1239 C1240 1.351 . S
C1240 C1234 1.428 . S
C1240 N1239 1.351 . S
C1240 C1241 1.434 . S
C1241 C1232 1.429 . S
C1241 N1238 1.350 . S
C1241 C1240 1.434 . S
C1242 C1243 1.369 . S
C1242 C1244 1.419 . S
C1242 H1246 0.930 . S
C1243 C1242 1.369 . S
C1243 C1252 1.429 . S
C1244 C1242 1.419 . S
C1244 C1245 1.363 . S
C1244 H1247 0.929 . S
C1245 C1244 1.363 . S
C1245 C1251 1.428 . S
H1246 C1242 0.930 . S
H1247 C1244 0.929 . S
S1248 N1249 1.613 . S
S1248 N1250 1.610 . S
N1249 S1248 1.613 . S
N1249 C1252 1.350 . S
N1250 S1248 1.610 . S
N1250 C1251 1.351 . S
C1251 C1245 1.428 . S
C1251 N1250 1.351 . S
C1251 C1252 1.434 . S
C1252 C1243 1.429 . S
C1252 N1249 1.350 . S
C1252 C1251 1.434 . S
C1253 C1254 1.369 . S
C1253 C1255 1.419 . S
C1253 H1257 0.930 . S
C1254 C1253 1.369 . S
C1254 C1263 1.429 . S
C1255 C1253 1.419 . S
C1255 C1256 1.363 . S
C1255 H1258 0.929 . S
C1256 C1255 1.363 . S
C1256 C1262 1.428 . S
H1257 C1253 0.930 . S
H1258 C1255 0.929 . S
S1259 N1260 1.613 1_554 S
S1259 N1261 1.610 1_554 S
N1260 S1259 1.613 1_556 S
N1260 C1263 1.350 . S
N1261 S1259 1.610 1_556 S
N1261 C1262 1.351 . S
C1262 C1256 1.428 . S
C1262 N1261 1.351 . S
C1262 C1263 1.434 . S
C1263 C1254 1.429 . S
C1263 N1260 1.350 . S
C1263 C1262 1.434 . S
C1264 C1265 1.369 . S
C1264 C1266 1.419 1_455 S
C1264 H1268 0.930 . S
C1265 C1264 1.369 . S
C1265 C1274 1.429 1_554 S
C1266 C1264 1.419 1_655 S
C1266 C1267 1.363 1_554 S
C1266 H1269 0.929 . S
C1267 C1266 1.363 1_556 S
C1267 C1273 1.428 . S
H1268 C1264 0.930 . S
H1269 C1266 0.929 . S
S1270 N1271 1.613 . S
S1270 N1272 1.610 1_455 S
N1271 S1270 1.613 . S
N1271 C1274 1.350 . S
N1272 S1270 1.610 1_655 S
N1272 C1273 1.351 . S
C1273 C1267 1.428 . S
C1273 N1272 1.351 . S
C1273 C1274 1.434 1_655 S
C1274 C1265 1.429 1_556 S
C1274 N1271 1.350 . S
C1274 C1273 1.434 1_455 S
C1275 C1276 1.369 1_556 S
C1275 C1277 1.419 . S
C1275 H1279 0.930 . S
C1276 C1275 1.369 1_554 S
C1276 C1285 1.429 . S
C1277 C1275 1.419 . S
C1277 C1278 1.363 . S
C1277 H1280 0.929 . S
C1278 C1277 1.363 . S
C1278 C1284 1.428 1_556 S
H1279 C1275 0.930 . S
H1280 C1277 0.929 . S
S1281 N1282 1.613 . S
S1281 N1283 1.610 . S
N1282 S1281 1.613 . S
N1282 C1285 1.350 . S
N1283 S1281 1.610 . S
N1283 C1284 1.351 . S
C1284 C1278 1.428 1_554 S
C1284 N1283 1.351 . S
C1284 C1285 1.434 . S
C1285 C1276 1.429 . S
C1285 N1282 1.350 . S
C1285 C1284 1.434 . S
C1286 C1287 1.369 . S
C1286 C1288 1.419 1_655 S
C1286 H1290 0.930 . S
C1287 C1286 1.369 . S
C1287 C1296 1.429 . S
C1288 C1286 1.419 1_455 S
C1288 C1289 1.363 . S
C1288 H1291 0.929 . S
C1289 C1288 1.363 . S
C1289 C1295 1.428 . S
H1290 C1286 0.930 . S
H1291 C1288 0.929 . S
S1292 N1293 1.613 1_455 S
S1292 N1294 1.610 . S
N1293 S1292 1.613 1_655 S
N1293 C1296 1.350 . S
N1294 S1292 1.610 . S
N1294 C1295 1.351 . S
C1295 C1289 1.428 . S
C1295 N1294 1.351 . S
C1295 C1296 1.434 1_455 S
C1296 C1287 1.429 . S
C1296 N1293 1.350 . S
C1296 C1295 1.434 1_655 S
C1297 C1298 1.369 . S
C1297 C1299 1.419 . S
C1297 H1301 0.930 . S
C1298 C1297 1.369 . S
C1298 C1307 1.429 . S
C1299 C1297 1.419 . S
C1299 C1300 1.363 . S
C1299 H1302 0.929 . S
C1300 C1299 1.363 . S
C1300 C1306 1.428 . S
H1301 C1297 0.930 . S
H1302 C1299 0.929 . S
S1303 N1304 1.613 . S
S1303 N1305 1.610 . S
N1304 S1303 1.613 . S
N1304 C1307 1.350 . S
N1305 S1303 1.610 . S
N1305 C1306 1.351 . S
C1306 C1300 1.428 . S
C1306 N1305 1.351 . S
C1306 C1307 1.434 . S
C1307 C1298 1.429 . S
C1307 N1304 1.350 . S
C1307 C1306 1.434 . S
C1308 C1309 1.369 . S
C1308 C1310 1.420 . S
C1308 H1312 0.930 . S
C1309 C1308 1.369 . S
C1309 C1318 1.429 1_556 S
C1310 C1308 1.420 . S
C1310 C1311 1.361 1_556 S
C1310 H1313 0.929 . S
C1311 C1310 1.361 1_554 S
C1311 C1317 1.428 . S
H1312 C1308 0.930 . S
H1313 C1310 0.929 . S
S1314 N1315 1.613 . S
S1314 N1316 1.610 . S
N1315 S1314 1.613 . S
N1315 C1318 1.350 . S
N1316 S1314 1.610 . S
N1316 C1317 1.351 . S
C1317 C1311 1.428 . S
C1317 N1316 1.351 . S
C1317 C1318 1.434 . S
C1318 C1309 1.429 1_554 S
C1318 N1315 1.350 . S
C1318 C1317 1.434 . S
C1319 C1320 1.369 . S
C1319 C1321 1.419 1_455 S
C1319 H1323 0.930 . S
C1320 C1319 1.369 . S
C1320 C1329 1.429 . S
C1321 C1319 1.419 1_655 S
C1321 C1322 1.363 . S
C1321 H1324 0.929 . S
C1322 C1321 1.363 . S
C1322 C1328 1.428 . S
H1323 C1319 0.930 . S
H1324 C1321 0.929 . S
S1325 N1326 1.613 . S
S1325 N1327 1.610 1_455 S
N1326 S1325 1.613 . S
N1326 C1329 1.350 . S
N1327 S1325 1.610 1_655 S
N1327 C1328 1.351 . S
C1328 C1322 1.428 . S
C1328 N1327 1.351 . S
C1328 C1329 1.434 1_655 S
C1329 C1320 1.429 . S
C1329 N1326 1.350 . S
C1329 C1328 1.434 1_455 S
C1330 C1331 1.369 . S
C1330 C1332 1.419 . S
C1330 H1334 0.930 . S
C1331 C1330 1.369 . S
C1331 C1340 1.429 . S
C1332 C1330 1.419 . S
C1332 C1333 1.363 . S
C1332 H1335 0.929 . S
C1333 C1332 1.363 . S
C1333 C1339 1.428 . S
H1334 C1330 0.930 . S
H1335 C1332 0.929 . S
S1336 N1337 1.613 . S
S1336 N1338 1.610 . S
N1337 S1336 1.613 . S
N1337 C1340 1.350 . S
N1338 S1336 1.610 . S
N1338 C1339 1.351 . S
C1339 C1333 1.428 . S
C1339 N1338 1.351 . S
C1339 C1340 1.434 . S
C1340 C1331 1.429 . S
C1340 N1337 1.350 . S
C1340 C1339 1.434 . S
C1341 C1342 1.369 . S
C1341 C1343 1.419 1_455 S
C1341 H1345 0.930 . S
C1342 C1341 1.369 . S
C1342 C1351 1.429 1_565 S
C1343 C1341 1.419 1_655 S
C1343 C1344 1.363 1_565 S
C1343 H1346 0.929 . S
C1344 C1343 1.363 1_545 S
C1344 C1350 1.428 . S
H1345 C1341 0.930 . S
H1346 C1343 0.929 . S
S1347 N1348 1.613 . S
S1347 N1349 1.610 1_455 S
N1348 S1347 1.613 . S
N1348 C1351 1.350 . S
N1349 S1347 1.610 1_655 S
N1349 C1350 1.351 . S
C1350 C1344 1.428 . S
C1350 N1349 1.351 . S
C1350 C1351 1.434 1_655 S
C1351 C1342 1.429 1_545 S
C1351 N1348 1.350 . S
C1351 C1350 1.434 1_455 S
C1352 C1353 1.369 . S
C1352 C1354 1.419 . S
C1352 H1356 0.930 . S
C1353 C1352 1.369 . S
C1353 C1362 1.429 . S
C1354 C1352 1.419 . S
C1354 C1355 1.363 . S
C1354 H1357 0.929 . S
C1355 C1354 1.363 . S
C1355 C1361 1.428 . S
H1356 C1352 0.930 . S
H1357 C1354 0.929 . S
S1358 N1359 1.613 . S
S1358 N1360 1.610 . S
N1359 S1358 1.613 . S
N1359 C1362 1.350 . S
N1360 S1358 1.610 . S
N1360 C1361 1.351 . S
C1361 C1355 1.428 . S
C1361 N1360 1.351 . S
C1361 C1362 1.434 . S
C1362 C1353 1.429 . S
C1362 N1359 1.350 . S
C1362 C1361 1.434 . S
C1363 C1364 1.369 . S
C1363 C1365 1.419 . S
C1363 H1367 0.930 . S
C1364 C1363 1.369 . S
C1364 C1373 1.429 1_545 S
C1365 C1363 1.419 . S
C1365 C1366 1.363 1_545 S
C1365 H1368 0.929 . S
C1366 C1365 1.363 1_565 S
C1366 C1372 1.428 . S
H1367 C1363 0.930 . S
H1368 C1365 0.929 . S
S1369 N1370 1.613 . S
S1369 N1371 1.610 . S
N1370 S1369 1.613 . S
N1370 C1373 1.350 . S
N1371 S1369 1.610 . S
N1371 C1372 1.351 . S
C1372 C1366 1.428 . S
C1372 N1371 1.351 . S
C1372 C1373 1.434 . S
C1373 C1364 1.429 1_565 S
C1373 N1370 1.350 . S
C1373 C1372 1.434 . S
C1374 C1375 1.369 . S
C1374 C1376 1.419 . S
C1374 H1378 0.930 . S
C1375 C1374 1.369 . S
C1375 C1384 1.429 . S
C1376 C1374 1.419 . S
C1376 C1377 1.363 . S
C1376 H1379 0.929 . S
C1377 C1376 1.363 . S
C1377 C1383 1.428 . S
H1378 C1374 0.930 . S
H1379 C1376 0.929 . S
S1380 N1381 1.613 . S
S1380 N1382 1.610 . S
N1381 S1380 1.613 . S
N1381 C1384 1.350 . S
N1382 S1380 1.610 . S
N1382 C1383 1.351 . S
C1383 C1377 1.428 . S
C1383 N1382 1.351 . S
C1383 C1384 1.434 . S
C1384 C1375 1.429 . S
C1384 N1381 1.350 . S
C1384 C1383 1.434 . S
C1385 C1386 1.369 . S
C1385 C1387 1.419 . S
C1385 H1389 0.930 . S
C1386 C1385 1.369 . S
C1386 C1395 1.429 1_545 S
C1387 C1385 1.419 . S
C1387 C1388 1.363 1_545 S
C1387 H1390 0.929 . S
C1388 C1387 1.363 1_565 S
C1388 C1394 1.428 . S
H1389 C1385 0.930 . S
H1390 C1387 0.929 . S
S1391 N1392 1.613 . S
S1391 N1393 1.610 . S
N1392 S1391 1.613 . S
N1392 C1395 1.350 . S
N1393 S1391 1.610 . S
N1393 C1394 1.351 . S
C1394 C1388 1.428 . S
C1394 N1393 1.351 . S
C1394 C1395 1.434 . S
C1395 C1386 1.429 1_565 S
C1395 N1392 1.350 . S
C1395 C1394 1.434 . S
C1396 C1397 1.369 . S
C1396 C1398 1.419 . S
C1396 H1400 0.930 . S
C1397 C1396 1.369 . S
C1397 C1406 1.429 . S
C1398 C1396 1.419 . S
C1398 C1399 1.363 . S
C1398 H1401 0.929 . S
C1399 C1398 1.363 . S
C1399 C1405 1.428 . S
H1400 C1396 0.930 . S
H1401 C1398 0.929 . S
S1402 N1403 1.613 . S
S1402 N1404 1.610 . S
N1403 S1402 1.613 . S
N1403 C1406 1.350 . S
N1404 S1402 1.610 . S
N1404 C1405 1.351 . S
C1405 C1399 1.428 . S
C1405 N1404 1.351 . S
C1405 C1406 1.434 . S
C1406 C1397 1.429 . S
C1406 N1403 1.350 . S
C1406 C1405 1.434 . S
C1407 C1408 1.369 . S
C1407 C1409 1.419 . S
C1407 H1411 0.930 . S
C1408 C1407 1.369 . S
C1408 C1417 1.429 . S
C1409 C1407 1.419 . S
C1409 C1410 1.363 . S
C1409 H1412 0.929 . S
C1410 C1409 1.363 . S
C1410 C1416 1.428 . S
H1411 C1407 0.930 . S
H1412 C1409 0.929 . S
S1413 N1414 1.613 . S
S1413 N1415 1.610 . S
N1414 S1413 1.613 . S
N1414 C1417 1.350 . S
N1415 S1413 1.610 . S
N1415 C1416 1.351 . S
C1416 C1410 1.428 . S
C1416 N1415 1.351 . S
C1416 C1417 1.434 . S
C1417 C1408 1.429 . S
C1417 N1414 1.350 . S
C1417 C1416 1.434 . S
C1418 C1419 1.369 . S
C1418 C1420 1.419 . S
C1418 H1422 0.930 . S
C1419 C1418 1.369 . S
C1419 C1428 1.429 . S
C1420 C1418 1.419 . S
C1420 C1421 1.363 . S
C1420 H1423 0.929 . S
C1421 C1420 1.363 . S
C1421 C1427 1.428 . S
H1422 C1418 0.930 . S
H1423 C1420 0.929 . S
S1424 N1425 1.613 . S
S1424 N1426 1.610 . S
N1425 S1424 1.613 . S
N1425 C1428 1.350 . S
N1426 S1424 1.610 . S
N1426 C1427 1.351 . S
C1427 C1421 1.428 . S
C1427 N1426 1.351 . S
C1427 C1428 1.434 . S
C1428 C1419 1.429 . S
C1428 N1425 1.350 . S
C1428 C1427 1.434 . S
C1429 C1430 1.369 . S
C1429 C1431 1.419 . S
C1429 H1433 0.930 . S
C1430 C1429 1.369 . S
C1430 C1439 1.429 1_546 S
C1431 C1429 1.419 . S
C1431 C1432 1.363 1_546 S
C1431 H1434 0.929 . S
C1432 C1431 1.363 1_564 S
C1432 C1438 1.428 . S
H1433 C1429 0.930 . S
H1434 C1431 0.929 . S
S1435 N1436 1.613 . S
S1435 N1437 1.610 . S
N1436 S1435 1.613 . S
N1436 C1439 1.350 . S
N1437 S1435 1.610 . S
N1437 C1438 1.351 . S
C1438 C1432 1.428 . S
C1438 N1437 1.351 . S
C1438 C1439 1.434 . S
C1439 C1430 1.429 1_564 S
C1439 N1436 1.350 . S
C1439 C1438 1.434 . S
C1440 C1441 1.369 . S
C1440 C1442 1.419 . S
C1440 H1444 0.930 . S
C1441 C1440 1.369 . S
C1441 C1450 1.429 . S
C1442 C1440 1.419 . S
C1442 C1443 1.363 . S
C1442 H1445 0.929 . S
C1443 C1442 1.363 . S
C1443 C1449 1.428 . S
H1444 C1440 0.930 . S
H1445 C1442 0.929 . S
S1446 N1447 1.613 . S
S1446 N1448 1.610 . S
N1447 S1446 1.613 . S
N1447 C1450 1.350 . S
N1448 S1446 1.610 . S
N1448 C1449 1.351 . S
C1449 C1443 1.428 . S
C1449 N1448 1.351 . S
C1449 C1450 1.434 . S
C1450 C1441 1.429 . S
C1450 N1447 1.350 . S
C1450 C1449 1.434 . S
C1451 C1452 1.369 . S
C1451 C1453 1.419 . S
C1451 H1455 0.930 . S
C1452 C1451 1.369 . S
C1452 C1461 1.429 . S
C1453 C1451 1.419 . S
C1453 C1454 1.363 . S
C1453 H1456 0.929 . S
C1454 C1453 1.363 . S
C1454 C1460 1.428 . S
H1455 C1451 0.930 . S
H1456 C1453 0.929 . S
S1457 N1458 1.613 . S
S1457 N1459 1.610 . S
N1458 S1457 1.613 . S
N1458 C1461 1.350 . S
N1459 S1457 1.610 . S
N1459 C1460 1.351 . S
C1460 C1454 1.428 . S
C1460 N1459 1.351 . S
C1460 C1461 1.434 . S
C1461 C1452 1.429 . S
C1461 N1458 1.350 . S
C1461 C1460 1.434 . S
C1462 C1463 1.369 . S
C1462 C1464 1.419 . S
C1462 H1466 0.930 1_556 S
C1463 C1462 1.369 . S
C1463 C1472 1.429 . S
C1464 C1462 1.419 . S
C1464 C1465 1.363 . S
C1464 H1467 0.929 . S
C1465 C1464 1.363 . S
C1465 C1471 1.428 . S
H1466 C1462 0.930 1_554 S
H1467 C1464 0.929 . S
S1468 N1469 1.613 . S
S1468 N1470 1.610 . S
N1469 S1468 1.613 . S
N1469 C1472 1.350 . S
N1470 S1468 1.610 . S
N1470 C1471 1.351 . S
C1471 C1465 1.428 . S
C1471 N1470 1.351 . S
C1471 C1472 1.434 . S
C1472 C1463 1.429 . S
C1472 N1469 1.350 . S
C1472 C1471 1.434 . S
C1473 C1474 1.369 . S
C1473 C1475 1.419 . S
C1473 H1477 0.930 . S
C1474 C1473 1.369 . S
C1474 C1483 1.429 . S
C1475 C1473 1.419 . S
C1475 C1476 1.363 . S
C1475 H1478 0.929 . S
C1476 C1475 1.363 . S
C1476 C1482 1.428 . S
H1477 C1473 0.930 . S
H1478 C1475 0.929 . S
S1479 N1480 1.613 . S
S1479 N1481 1.610 . S
N1480 S1479 1.613 . S
N1480 C1483 1.350 . S
N1481 S1479 1.610 . S
N1481 C1482 1.351 . S
C1482 C1476 1.428 . S
C1482 N1481 1.351 . S
C1482 C1483 1.434 . S
C1483 C1474 1.429 . S
C1483 N1480 1.350 . S
C1483 C1482 1.434 . S
C1484 C1485 1.369 . S
C1484 C1486 1.419 . S
C1484 H1488 0.930 . S
C1485 C1484 1.369 . S
C1485 C1494 1.429 . S
C1486 C1484 1.419 . S
C1486 C1487 1.363 . S
C1486 H1489 0.929 . S
C1487 C1486 1.363 . S
C1487 C1493 1.428 . S
H1488 C1484 0.930 . S
H1489 C1486 0.929 . S
S1490 N1491 1.613 . S
S1490 N1492 1.610 . S
N1491 S1490 1.613 . S
N1491 C1494 1.350 . S
N1492 S1490 1.610 . S
N1492 C1493 1.351 . S
C1493 C1487 1.428 . S
C1493 N1492 1.351 . S
C1493 C1494 1.434 . S
C1494 C1485 1.429 . S
C1494 N1491 1.350 . S
C1494 C1493 1.434 . S
C1495 C1496 1.369 . S
C1495 C1497 1.419 . S
C1495 H1499 0.930 . S
C1496 C1495 1.369 . S
C1496 C1505 1.429 . S
C1497 C1495 1.419 . S
C1497 C1498 1.363 . S
C1497 H1500 0.929 . S
C1498 C1497 1.363 . S
C1498 C1504 1.428 . S
H1499 C1495 0.930 . S
H1500 C1497 0.929 . S
S1501 N1502 1.613 . S
S1501 N1503 1.610 . S
N1502 S1501 1.613 . S
N1502 C1505 1.350 . S
N1503 S1501 1.610 . S
N1503 C1504 1.351 . S
C1504 C1498 1.428 . S
C1504 N1503 1.351 . S
C1504 C1505 1.434 . S
C1505 C1496 1.429 . S
C1505 N1502 1.350 . S
C1505 C1504 1.434 . S
C1506 C1507 1.369 . S
C1506 C1508 1.419 . S
C1506 H1510 0.930 . S
C1507 C1506 1.369 . S
C1507 C1516 1.429 . S
C1508 C1506 1.419 . S
C1508 C1509 1.363 . S
C1508 H1511 0.929 . S
C1509 C1508 1.363 . S
C1509 C1515 1.428 . S
H1510 C1506 0.930 . S
H1511 C1508 0.929 . S
S1512 N1513 1.613 . S
S1512 N1514 1.610 . S
N1513 S1512 1.613 . S
N1513 C1516 1.350 . S
N1514 S1512 1.610 . S
N1514 C1515 1.351 . S
C1515 C1509 1.428 . S
C1515 N1514 1.351 . S
C1515 C1516 1.434 . S
C1516 C1507 1.429 . S
C1516 N1513 1.350 . S
C1516 C1515 1.434 . S
C1517 C1518 1.369 . S
C1517 C1519 1.419 . S
C1517 H1521 0.930 . S
C1518 C1517 1.369 . S
C1518 C1527 1.429 . S
C1519 C1517 1.419 . S
C1519 C1520 1.363 . S
C1519 H1522 0.929 . S
C1520 C1519 1.363 . S
C1520 C1526 1.428 . S
H1521 C1517 0.930 . S
H1522 C1519 0.929 . S
S1523 N1524 1.613 . S
S1523 N1525 1.610 . S
N1524 S1523 1.613 . S
N1524 C1527 1.350 . S
N1525 S1523 1.610 . S
N1525 C1526 1.351 . S
C1526 C1520 1.428 . S
C1526 N1525 1.351 . S
C1526 C1527 1.434 . S
C1527 C1518 1.429 . S
C1527 N1524 1.350 . S
C1527 C1526 1.434 . S
C1528 C1529 1.369 . S
C1528 C1530 1.419 . S
C1528 H1532 0.930 1_556 S
C1529 C1528 1.369 . S
C1529 C1538 1.429 . S
C1530 C1528 1.419 . S
C1530 C1531 1.363 . S
C1530 H1533 0.929 . S
C1531 C1530 1.363 . S
C1531 C1537 1.428 . S
H1532 C1528 0.930 1_554 S
H1533 C1530 0.929 . S
S1534 N1535 1.613 . S
S1534 N1536 1.610 . S
N1535 S1534 1.613 . S
N1535 C1538 1.350 . S
N1536 S1534 1.610 . S
N1536 C1537 1.351 . S
C1537 C1531 1.428 . S
C1537 N1536 1.351 . S
C1537 C1538 1.434 . S
C1538 C1529 1.429 . S
C1538 N1535 1.350 . S
C1538 C1537 1.434 . S
C1539 C1540 1.369 . S
C1539 C1541 1.419 . S
C1539 H1543 0.930 . S
C1540 C1539 1.369 . S
C1540 C1549 1.429 . S
C1541 C1539 1.419 . S
C1541 C1542 1.363 . S
C1541 H1544 0.929 . S
C1542 C1541 1.363 . S
C1542 C1548 1.428 . S
H1543 C1539 0.930 . S
H1544 C1541 0.929 . S
S1545 N1546 1.613 . S
S1545 N1547 1.610 . S
N1546 S1545 1.613 . S
N1546 C1549 1.350 . S
N1547 S1545 1.610 . S
N1547 C1548 1.351 . S
C1548 C1542 1.428 . S
C1548 N1547 1.351 . S
C1548 C1549 1.434 . S
C1549 C1540 1.429 . S
C1549 N1546 1.350 . S
C1549 C1548 1.434 . S
C1550 C1551 1.369 . S
C1550 C1552 1.419 . S
C1550 H1554 0.930 . S
C1551 C1550 1.369 . S
C1551 C1560 1.429 . S
C1552 C1550 1.419 . S
C1552 C1553 1.363 . S
C1552 H1555 0.929 . S
C1553 C1552 1.363 . S
C1553 C1559 1.428 . S
H1554 C1550 0.930 . S
H1555 C1552 0.929 . S
S1556 N1557 1.613 . S
S1556 N1558 1.610 . S
N1557 S1556 1.613 . S
N1557 C1560 1.350 . S
N1558 S1556 1.610 . S
N1558 C1559 1.351 . S
C1559 C1553 1.428 . S
C1559 N1558 1.351 . S
C1559 C1560 1.434 . S
C1560 C1551 1.429 . S
C1560 N1557 1.350 . S
C1560 C1559 1.434 . S
C1561 C1562 1.369 . S
C1561 C1563 1.419 . S
C1561 H1565 0.930 . S
C1562 C1561 1.369 . S
C1562 C1571 1.429 . S
C1563 C1561 1.419 . S
C1563 C1564 1.363 . S
C1563 H1566 0.929 . S
C1564 C1563 1.363 . S
C1564 C1570 1.428 . S
H1565 C1561 0.930 . S
H1566 C1563 0.929 . S
S1567 N1568 1.613 . S
S1567 N1569 1.610 . S
N1568 S1567 1.613 . S
N1568 C1571 1.350 . S
N1569 S1567 1.610 . S
N1569 C1570 1.351 . S
C1570 C1564 1.428 . S
C1570 N1569 1.351 . S
C1570 C1571 1.434 . S
C1571 C1562 1.429 . S
C1571 N1568 1.350 . S
C1571 C1570 1.434 . S
C1572 C1573 1.369 . S
C1572 C1574 1.419 . S
C1572 H1576 0.930 . S
C1573 C1572 1.369 . S
C1573 C1582 1.429 . S
C1574 C1572 1.419 . S
C1574 C1575 1.363 . S
C1574 H1577 0.929 . S
C1575 C1574 1.363 . S
C1575 C1581 1.428 . S
H1576 C1572 0.930 . S
H1577 C1574 0.929 . S
S1578 N1579 1.613 . S
S1578 N1580 1.610 . S
N1579 S1578 1.613 . S
N1579 C1582 1.350 . S
N1580 S1578 1.610 . S
N1580 C1581 1.351 . S
C1581 C1575 1.428 . S
C1581 N1580 1.351 . S
C1581 C1582 1.434 . S
C1582 C1573 1.429 . S
C1582 N1579 1.350 . S
C1582 C1581 1.434 . S
C1583 C1584 1.369 . S
C1583 C1585 1.419 . S
C1583 H1587 0.930 . S
C1584 C1583 1.369 . S
C1584 C1593 1.429 . S
C1585 C1583 1.419 . S
C1585 C1586 1.363 . S
C1585 H1588 0.929 . S
C1586 C1585 1.363 . S
C1586 C1592 1.428 . S
H1587 C1583 0.930 . S
H1588 C1585 0.929 . S
S1589 N1590 1.613 . S
S1589 N1591 1.610 . S
N1590 S1589 1.613 . S
N1590 C1593 1.350 . S
N1591 S1589 1.610 . S
N1591 C1592 1.351 . S
C1592 C1586 1.428 . S
C1592 N1591 1.351 . S
C1592 C1593 1.434 . S
C1593 C1584 1.429 . S
C1593 N1590 1.350 . S
C1593 C1592 1.434 . S
C1594 C1595 1.369 . S
C1594 C1596 1.419 . S
C1594 H1598 0.930 . S
C1595 C1594 1.369 . S
C1595 C1604 1.429 . S
C1596 C1594 1.419 . S
C1596 C1597 1.363 . S
C1596 H1599 0.929 . S
C1597 C1596 1.363 . S
C1597 C1603 1.428 . S
H1598 C1594 0.930 . S
H1599 C1596 0.929 . S
S1600 N1601 1.613 . S
S1600 N1602 1.610 . S
N1601 S1600 1.613 . S
N1601 C1604 1.350 . S
N1602 S1600 1.610 . S
N1602 C1603 1.351 . S
C1603 C1597 1.428 . S
C1603 N1602 1.351 . S
C1603 C1604 1.434 . S
C1604 C1595 1.429 . S
C1604 N1601 1.350 . S
C1604 C1603 1.434 . S
C1605 C1606 1.369 . S
C1605 C1607 1.419 . S
C1605 H1609 0.930 . S
C1606 C1605 1.369 . S
C1606 C1615 1.429 . S
C1607 C1605 1.419 . S
C1607 C1608 1.363 . S
C1607 H1610 0.929 . S
C1608 C1607 1.363 . S
C1608 C1614 1.428 . S
H1609 C1605 0.930 . S
H1610 C1607 0.929 . S
S1611 N1612 1.613 . S
S1611 N1613 1.610 . S
N1612 S1611 1.613 . S
N1612 C1615 1.350 . S
N1613 S1611 1.610 . S
N1613 C1614 1.351 . S
C1614 C1608 1.428 . S
C1614 N1613 1.351 . S
C1614 C1615 1.434 . S
C1615 C1606 1.429 . S
C1615 N1612 1.350 . S
C1615 C1614 1.434 . S
C1616 C1617 1.369 . S
C1616 C1618 1.419 . S
C1616 H1620 0.930 . S
C1617 C1616 1.369 . S
C1617 C1626 1.429 . S
C1618 C1616 1.419 . S
C1618 C1619 1.363 . S
C1618 H1621 0.929 . S
C1619 C1618 1.363 . S
C1619 C1625 1.428 . S
H1620 C1616 0.930 . S
H1621 C1618 0.929 . S
S1622 N1623 1.613 . S
S1622 N1624 1.610 . S
N1623 S1622 1.613 . S
N1623 C1626 1.350 . S
N1624 S1622 1.610 . S
N1624 C1625 1.351 . S
C1625 C1619 1.428 . S
C1625 N1624 1.351 . S
C1625 C1626 1.434 . S
C1626 C1617 1.429 . S
C1626 N1623 1.350 . S
C1626 C1625 1.434 . S
C1627 C1628 1.369 . S
C1627 C1629 1.419 . S
C1627 H1631 0.942 . S
C1628 C1627 1.369 . S
C1628 C1637 1.429 . S
C1629 C1627 1.419 . S
C1629 C1630 1.363 . S
C1629 H1632 0.929 . S
C1630 C1629 1.363 . S
C1630 C1636 1.428 . S
H1631 C1627 0.942 . S
H1632 C1629 0.929 . S
S1633 N1634 1.613 . S
S1633 N1635 1.610 . S
N1634 S1633 1.613 . S
N1634 C1637 1.350 . S
N1635 S1633 1.610 . S
N1635 C1636 1.351 . S
C1636 C1630 1.428 . S
C1636 N1635 1.351 . S
C1636 C1637 1.434 . S
C1637 C1628 1.429 . S
C1637 N1634 1.350 . S
C1637 C1636 1.434 . S
C1638 C1639 1.369 . S
C1638 C1640 1.419 . S
C1638 H1642 0.930 . S
C1639 C1638 1.369 . S
C1639 C1648 1.429 . S
C1640 C1638 1.419 . S
C1640 C1641 1.363 . S
C1640 H1643 0.929 . S
C1641 C1640 1.363 . S
C1641 C1647 1.428 . S
H1642 C1638 0.930 . S
H1643 C1640 0.929 . S
S1644 N1645 1.613 . S
S1644 N1646 1.610 . S
N1645 S1644 1.613 . S
N1645 C1648 1.350 . S
N1646 S1644 1.610 . S
N1646 C1647 1.351 . S
C1647 C1641 1.428 . S
C1647 N1646 1.351 . S
C1647 C1648 1.434 . S
C1648 C1639 1.429 . S
C1648 N1645 1.350 . S
C1648 C1647 1.434 . S
C1649 C1650 1.369 . S
C1649 C1651 1.419 . S
C1649 H1653 0.930 . S
C1650 C1649 1.369 . S
C1650 C1659 1.429 . S
C1651 C1649 1.419 . S
C1651 C1652 1.363 . S
C1651 H1654 0.929 . S
C1652 C1651 1.363 . S
C1652 C1658 1.428 . S
H1653 C1649 0.930 . S
H1654 C1651 0.929 . S
S1655 N1656 1.613 . S
S1655 N1657 1.610 . S
N1656 S1655 1.613 . S
N1656 C1659 1.350 . S
N1657 S1655 1.610 . S
N1657 C1658 1.351 . S
C1658 C1652 1.428 . S
C1658 N1657 1.351 . S
C1658 C1659 1.434 . S
C1659 C1650 1.429 . S
C1659 N1656 1.350 . S
C1659 C1658 1.434 . S
C1660 C1661 1.369 . S
C1660 C1662 1.419 . S
C1660 H1664 0.930 . S
C1661 C1660 1.369 . S
C1661 C1670 1.429 . S
C1662 C1660 1.419 . S
C1662 C1663 1.363 . S
C1662 H1665 0.929 . S
C1663 C1662 1.363 . S
C1663 C1669 1.428 . S
H1664 C1660 0.930 . S
H1665 C1662 0.929 . S
S1666 N1667 1.613 . S
S1666 N1668 1.610 . S
N1667 S1666 1.613 . S
N1667 C1670 1.350 . S
N1668 S1666 1.610 . S
N1668 C1669 1.351 . S
C1669 C1663 1.428 . S
C1669 N1668 1.351 . S
C1669 C1670 1.434 . S
C1670 C1661 1.429 . S
C1670 N1667 1.350 . S
C1670 C1669 1.434 . S
C1671 C1672 1.369 . S
C1671 C1673 1.419 . S
C1671 H1675 0.930 . S
C1672 C1671 1.369 . S
C1672 C1681 1.429 . S
C1673 C1671 1.419 . S
C1673 C1674 1.363 . S
C1673 H1676 0.929 . S
C1674 C1673 1.363 . S
C1674 C1680 1.428 . S
H1675 C1671 0.930 . S
H1676 C1673 0.929 . S
S1677 N1678 1.613 . S
S1677 N1679 1.610 . S
N1678 S1677 1.613 . S
N1678 C1681 1.350 . S
N1679 S1677 1.610 . S
N1679 C1680 1.351 . S
C1680 C1674 1.428 . S
C1680 N1679 1.351 . S
C1680 C1681 1.434 . S
C1681 C1672 1.429 . S
C1681 N1678 1.350 . S
C1681 C1680 1.434 . S
C1682 C1683 1.369 . S
C1682 C1684 1.419 . S
C1682 H1686 0.930 . S
C1683 C1682 1.369 . S
C1683 C1692 1.429 . S
C1684 C1682 1.419 . S
C1684 C1685 1.363 . S
C1684 H1687 0.929 . S
C1685 C1684 1.363 . S
C1685 C1691 1.428 . S
H1686 C1682 0.930 . S
H1687 C1684 0.929 . S
S1688 N1689 1.613 . S
S1688 N1690 1.610 . S
N1689 S1688 1.613 . S
N1689 C1692 1.350 . S
N1690 S1688 1.610 . S
N1690 C1691 1.351 . S
C1691 C1685 1.428 . S
C1691 N1690 1.351 . S
C1691 C1692 1.434 . S
C1692 C1683 1.429 . S
C1692 N1689 1.350 . S
C1692 C1691 1.434 . S
C1693 C1694 1.369 . S
C1693 C1695 1.419 . S
C1693 H1697 0.930 . S
C1694 C1693 1.369 . S
C1694 C1703 1.429 . S
C1695 C1693 1.419 . S
C1695 C1696 1.363 . S
C1695 H1698 0.929 . S
C1696 C1695 1.363 . S
C1696 C1702 1.428 . S
H1697 C1693 0.930 . S
H1698 C1695 0.929 . S
S1699 N1700 1.613 . S
S1699 N1701 1.610 . S
N1700 S1699 1.613 . S
N1700 C1703 1.350 . S
N1701 S1699 1.610 . S
N1701 C1702 1.351 . S
C1702 C1696 1.428 . S
C1702 N1701 1.351 . S
C1702 C1703 1.434 . S
C1703 C1694 1.429 . S
C1703 N1700 1.350 . S
C1703 C1702 1.434 . S
C1704 C1705 1.369 . S
C1704 C1706 1.419 . S
C1704 H1708 0.930 . S
C1705 C1704 1.369 . S
C1705 C1714 1.429 . S
C1706 C1704 1.419 . S
C1706 C1707 1.363 . S
C1706 H1709 0.929 . S
C1707 C1706 1.363 . S
C1707 C1713 1.428 . S
H1708 C1704 0.930 . S
H1709 C1706 0.929 . S
S1710 N1711 1.613 . S
S1710 N1712 1.610 . S
N1711 S1710 1.613 . S
N1711 C1714 1.350 . S
N1712 S1710 1.610 . S
N1712 C1713 1.351 . S
C1713 C1707 1.428 . S
C1713 N1712 1.351 . S
C1713 C1714 1.434 . S
C1714 C1705 1.429 . S
C1714 N1711 1.350 . S
C1714 C1713 1.434 . S
C1715 C1716 1.369 . S
C1715 C1717 1.419 . S
C1715 H1719 0.930 . S
C1716 C1715 1.369 . S
C1716 C1725 1.429 . S
C1717 C1715 1.419 . S
C1717 C1718 1.363 . S
C1717 H1720 0.929 . S
C1718 C1717 1.363 . S
C1718 C1724 1.428 . S
H1719 C1715 0.930 . S
H1720 C1717 0.929 . S
S1721 N1722 1.613 . S
S1721 N1723 1.610 . S
N1722 S1721 1.613 . S
N1722 C1725 1.350 . S
N1723 S1721 1.610 . S
N1723 C1724 1.351 . S
C1724 C1718 1.428 . S
C1724 N1723 1.351 . S
C1724 C1725 1.434 . S
C1725 C1716 1.429 . S
C1725 N1722 1.350 . S
C1725 C1724 1.434 . S
C1726 C1727 1.369 . S
C1726 C1728 1.419 . S
C1726 H1730 0.930 . S
C1727 C1726 1.369 . S
C1727 C1736 1.429 . S
C1728 C1726 1.419 . S
C1728 C1729 1.363 . S
C1728 H1731 0.929 . S
C1729 C1728 1.363 . S
C1729 C1735 1.428 . S
H1730 C1726 0.930 . S
H1731 C1728 0.929 . S
S1732 N1733 1.613 . S
S1732 N1734 1.610 . S
N1733 S1732 1.613 . S
N1733 C1736 1.350 . S
N1734 S1732 1.610 . S
N1734 C1735 1.351 . S
C1735 C1729 1.428 . S
C1735 N1734 1.351 . S
C1735 C1736 1.434 . S
C1736 C1727 1.429 . S
C1736 N1733 1.350 . S
C1736 C1735 1.434 . S
C1737 C1738 1.369 . S
C1737 C1739 1.419 . S
C1737 H1741 0.930 . S
C1738 C1737 1.369 . S
C1738 C1747 1.429 . S
C1739 C1737 1.419 . S
C1739 C1740 1.363 . S
C1739 H1742 0.929 . S
C1740 C1739 1.363 . S
C1740 C1746 1.428 . S
H1741 C1737 0.930 . S
H1742 C1739 0.929 . S
S1743 N1744 1.613 . S
S1743 N1745 1.610 1_556 S
N1744 S1743 1.613 . S
N1744 C1747 1.350 . S
N1745 S1743 1.610 1_554 S
N1745 C1746 1.351 1_554 S
C1746 C1740 1.428 . S
C1746 N1745 1.351 1_556 S
C1746 C1747 1.434 . S
C1747 C1738 1.429 . S
C1747 N1744 1.350 . S
C1747 C1746 1.434 . S
C1748 C1749 1.369 . S
C1748 C1750 1.419 . S
C1748 H1752 0.930 . S
C1749 C1748 1.369 . S
C1749 C1758 1.429 . S
C1750 C1748 1.419 . S
C1750 C1751 1.363 . S
C1750 H1753 0.929 . S
C1751 C1750 1.363 . S
C1751 C1757 1.428 . S
H1752 C1748 0.930 . S
H1753 C1750 0.929 . S
S1754 N1755 1.613 . S
S1754 N1756 1.610 . S
N1755 S1754 1.613 . S
N1755 C1758 1.350 . S
N1756 S1754 1.610 . S
N1756 C1757 1.351 . S
C1757 C1751 1.428 . S
C1757 N1756 1.351 . S
C1757 C1758 1.434 . S
C1758 C1749 1.429 . S
C1758 N1755 1.350 . S
C1758 C1757 1.434 . S
C1759 C1760 1.369 . S
C1759 C1761 1.419 . S
C1759 H1763 0.930 . S
C1760 C1759 1.369 . S
C1760 C1769 1.429 . S
C1761 C1759 1.419 . S
C1761 C1762 1.363 . S
C1761 H1764 0.929 . S
C1762 C1761 1.363 . S
C1762 C1768 1.428 . S
H1763 C1759 0.930 . S
H1764 C1761 0.929 . S
S1765 N1766 1.613 . S
S1765 N1767 1.610 . S
N1766 S1765 1.613 . S
N1766 C1769 1.350 . S
N1767 S1765 1.610 . S
N1767 C1768 1.351 . S
C1768 C1762 1.428 . S
C1768 N1767 1.351 . S
C1768 C1769 1.434 . S
C1769 C1760 1.429 . S
C1769 N1766 1.350 . S
C1769 C1768 1.434 . S
C1770 C1771 1.369 . S
C1770 C1772 1.419 . S
C1770 H1774 0.930 . S
C1771 C1770 1.369 . S
C1771 C1780 1.429 . S
C1772 C1770 1.419 . S
C1772 C1773 1.363 . S
C1772 H1775 0.929 . S
C1773 C1772 1.363 . S
C1773 C1779 1.428 . S
H1774 C1770 0.930 . S
H1775 C1772 0.929 . S
S1776 N1777 1.613 1_556 S
S1776 N1778 1.610 . S
N1777 S1776 1.613 1_554 S
N1777 C1780 1.350 . S
N1778 S1776 1.610 . S
N1778 C1779 1.351 1_556 S
C1779 C1773 1.428 . S
C1779 N1778 1.351 1_554 S
C1779 C1780 1.434 . S
C1780 C1771 1.429 . S
C1780 N1777 1.350 . S
C1780 C1779 1.434 . S
C1781 C1782 1.369 . S
C1781 C1783 1.419 . S
C1781 H1785 0.930 . S
C1782 C1781 1.369 . S
C1782 C1791 1.429 . S
C1783 C1781 1.419 . S
C1783 C1784 1.363 . S
C1783 H1786 0.929 . S
C1784 C1783 1.363 . S
C1784 C1790 1.428 . S
H1785 C1781 0.930 . S
H1786 C1783 0.929 . S
S1787 N1788 1.613 . S
S1787 N1789 1.610 . S
N1788 S1787 1.613 . S
N1788 C1791 1.350 . S
N1789 S1787 1.610 . S
N1789 C1790 1.351 . S
C1790 C1784 1.428 . S
C1790 N1789 1.351 . S
C1790 C1791 1.434 . S
C1791 C1782 1.429 . S
C1791 N1788 1.350 . S
C1791 C1790 1.434 . S
C1792 C1793 1.369 . S
C1792 C1794 1.419 . S
C1792 H1796 0.930 . S
C1793 C1792 1.369 . S
C1793 C1802 1.429 . S
C1794 C1792 1.419 . S
C1794 C1795 1.363 . S
C1794 H1797 0.929 . S
C1795 C1794 1.363 . S
C1795 C1801 1.428 . S
H1796 C1792 0.930 . S
H1797 C1794 0.929 . S
S1798 N1799 1.613 . S
S1798 N1800 1.610 . S
N1799 S1798 1.613 . S
N1799 C1802 1.350 . S
N1800 S1798 1.610 . S
N1800 C1801 1.351 . S
C1801 C1795 1.428 . S
C1801 N1800 1.351 . S
C1801 C1802 1.434 . S
C1802 C1793 1.429 . S
C1802 N1799 1.350 . S
C1802 C1801 1.434 . S
C1803 C1804 1.369 . S
C1803 C1805 1.419 . S
C1803 H1807 0.930 . S
C1804 C1803 1.369 . S
C1804 C1813 1.429 . S
C1805 C1803 1.419 . S
C1805 C1806 1.363 . S
C1805 H1808 0.929 . S
C1806 C1805 1.363 . S
C1806 C1812 1.428 . S
H1807 C1803 0.930 . S
H1808 C1805 0.929 . S
S1809 N1810 1.613 1_556 S
S1809 N1811 1.610 . S
N1810 S1809 1.613 1_554 S
N1810 C1813 1.350 . S
N1811 S1809 1.610 . S
N1811 C1812 1.351 1_556 S
C1812 C1806 1.428 . S
C1812 N1811 1.351 1_554 S
C1812 C1813 1.434 . S
C1813 C1804 1.429 . S
C1813 N1810 1.350 . S
C1813 C1812 1.434 . S
C1814 C1815 1.369 . S
C1814 C1816 1.419 . S
C1814 H1818 0.930 . S
C1815 C1814 1.369 . S
C1815 C1824 1.429 . S
C1816 C1814 1.419 . S
C1816 C1817 1.363 . S
C1816 H1819 0.929 . S
C1817 C1816 1.363 . S
C1817 C1823 1.428 . S
H1818 C1814 0.930 . S
H1819 C1816 0.929 . S
S1820 N1821 1.613 . S
S1820 N1822 1.610 . S
N1821 S1820 1.613 . S
N1821 C1824 1.350 . S
N1822 S1820 1.610 . S
N1822 C1823 1.351 . S
C1823 C1817 1.428 . S
C1823 N1822 1.351 . S
C1823 C1824 1.434 . S
C1824 C1815 1.429 . S
C1824 N1821 1.350 . S
C1824 C1823 1.434 . S
C1825 C1826 1.369 . S
C1825 C1827 1.419 . S
C1825 H1829 0.930 . S
C1826 C1825 1.369 . S
C1826 C1835 1.429 . S
C1827 C1825 1.419 . S
C1827 C1828 1.363 . S
C1827 H1830 0.929 . S
C1828 C1827 1.363 . S
C1828 C1834 1.428 . S
H1829 C1825 0.930 . S
H1830 C1827 0.929 . S
S1831 N1832 1.613 1_554 S
S1831 N1833 1.610 1_554 S
N1832 S1831 1.613 1_556 S
N1832 C1835 1.350 . S
N1833 S1831 1.610 1_556 S
N1833 C1834 1.351 . S
C1834 C1828 1.428 . S
C1834 N1833 1.351 . S
C1834 C1835 1.434 . S
C1835 C1826 1.429 . S
C1835 N1832 1.350 . S
C1835 C1834 1.434 . S
C1836 C1837 1.369 . S
C1836 C1838 1.419 . S
C1836 H1840 0.930 . S
C1837 C1836 1.369 . S
C1837 C1846 1.429 . S
C1838 C1836 1.419 . S
C1838 C1839 1.363 . S
C1838 H1841 0.929 . S
C1839 C1838 1.363 . S
C1839 C1845 1.428 . S
H1840 C1836 0.930 . S
H1841 C1838 0.929 . S
S1842 N1843 1.613 . S
S1842 N1844 1.610 . S
N1843 S1842 1.613 . S
N1843 C1846 1.350 1_545 S
N1844 S1842 1.610 . S
N1844 C1845 1.351 1_545 S
C1845 C1839 1.428 . S
C1845 N1844 1.351 1_565 S
C1845 C1846 1.434 . S
C1846 C1837 1.429 . S
C1846 N1843 1.350 1_565 S
C1846 C1845 1.434 . S
C1847 C1848 1.369 . S
C1847 C1849 1.419 . S
C1847 H1851 0.930 . S
C1848 C1847 1.369 . S
C1848 C1857 1.429 . S
C1849 C1847 1.419 . S
C1849 C1850 1.363 . S
C1849 H1852 0.929 . S
C1850 C1849 1.363 . S
C1850 C1856 1.428 . S
H1851 C1847 0.930 . S
H1852 C1849 0.929 . S
S1853 N1854 1.613 . S
S1853 N1855 1.610 . S
N1854 S1853 1.613 . S
N1854 C1857 1.350 . S
N1855 S1853 1.610 . S
N1855 C1856 1.351 . S
C1856 C1850 1.428 . S
C1856 N1855 1.351 . S
C1856 C1857 1.434 . S
C1857 C1848 1.429 . S
C1857 N1854 1.350 . S
C1857 C1856 1.434 . S
C1858 C1859 1.369 . S
C1858 C1860 1.419 . S
C1858 H1862 0.930 1_545 S
C1859 C1858 1.369 . S
C1859 C1868 1.429 . S
C1860 C1858 1.419 . S
C1860 C1861 1.363 . S
C1860 H1863 0.929 1_545 S
C1861 C1860 1.363 . S
C1861 C1867 1.428 . S
H1862 C1858 0.930 1_565 S
H1863 C1860 0.929 1_565 S
S1864 N1865 1.613 . S
S1864 N1866 1.610 . S
N1865 S1864 1.613 . S
N1865 C1868 1.350 . S
N1866 S1864 1.610 . S
N1866 C1867 1.351 . S
C1867 C1861 1.428 . S
C1867 N1866 1.351 . S
C1867 C1868 1.434 . S
C1868 C1859 1.429 . S
C1868 N1865 1.350 . S
C1868 C1867 1.434 . S
C1869 C1870 1.369 . S
C1869 C1871 1.419 . S
C1869 H1873 0.930 . S
C1870 C1869 1.369 . S
C1870 C1879 1.429 . S
C1871 C1869 1.419 . S
C1871 C1872 1.363 . S
C1871 H1874 0.929 . S
C1872 C1871 1.363 . S
C1872 C1878 1.428 . S
H1873 C1869 0.930 . S
H1874 C1871 0.929 . S
S1875 N1876 1.613 . S
S1875 N1877 1.610 . S
N1876 S1875 1.613 . S
N1876 C1879 1.350 . S
N1877 S1875 1.610 . S
N1877 C1878 1.351 . S
C1878 C1872 1.428 . S
C1878 N1877 1.351 . S
C1878 C1879 1.434 . S
C1879 C1870 1.429 . S
C1879 N1876 1.350 . S
C1879 C1878 1.434 . S
C1880 C1881 1.369 . S
C1880 C1882 1.419 . S
C1880 H1884 0.930 . S
C1881 C1880 1.369 . S
C1881 C1890 1.429 . S
C1882 C1880 1.419 . S
C1882 C1883 1.363 . S
C1882 H1885 0.929 . S
C1883 C1882 1.363 . S
C1883 C1889 1.428 . S
H1884 C1880 0.930 . S
H1885 C1882 0.929 . S
S1886 N1887 1.613 . S
S1886 N1888 1.610 . S
N1887 S1886 1.613 . S
N1887 C1890 1.350 . S
N1888 S1886 1.610 . S
N1888 C1889 1.351 . S
C1889 C1883 1.428 . S
C1889 N1888 1.351 . S
C1889 C1890 1.434 . S
C1890 C1881 1.429 . S
C1890 N1887 1.350 . S
C1890 C1889 1.434 . S
C1891 C1892 1.369 . S
C1891 C1893 1.419 . S
C1891 H1895 0.930 . S
C1892 C1891 1.369 . S
C1892 C1901 1.429 . S
C1893 C1891 1.419 . S
C1893 C1894 1.363 . S
C1893 H1896 0.929 . S
C1894 C1893 1.363 . S
C1894 C1900 1.428 . S
H1895 C1891 0.930 . S
H1896 C1893 0.929 . S
S1897 N1898 1.613 . S
S1897 N1899 1.610 . S
N1898 S1897 1.613 . S
N1898 C1901 1.350 . S
N1899 S1897 1.610 . S
N1899 C1900 1.351 . S
C1900 C1894 1.428 . S
C1900 N1899 1.351 . S
C1900 C1901 1.434 . S
C1901 C1892 1.429 . S
C1901 N1898 1.350 . S
C1901 C1900 1.434 . S
C1902 C1903 1.369 . S
C1902 C1904 1.419 . S
C1902 H1906 0.930 . S
C1903 C1902 1.369 . S
C1903 C1912 1.429 . S
C1904 C1902 1.419 . S
C1904 C1905 1.363 . S
C1904 H1907 0.929 . S
C1905 C1904 1.363 . S
C1905 C1911 1.428 . S
H1906 C1902 0.930 . S
H1907 C1904 0.929 . S
S1908 N1909 1.613 . S
S1908 N1910 1.610 . S
N1909 S1908 1.613 . S
N1909 C1912 1.350 . S
N1910 S1908 1.610 . S
N1910 C1911 1.351 . S
C1911 C1905 1.428 . S
C1911 N1910 1.351 . S
C1911 C1912 1.434 . S
C1912 C1903 1.429 . S
C1912 N1909 1.350 . S
C1912 C1911 1.434 . S
C1913 C1914 1.369 . S
C1913 C1915 1.419 . S
C1913 H1917 0.930 . S
C1914 C1913 1.369 . S
C1914 C1923 1.429 . S
C1915 C1913 1.419 . S
C1915 C1916 1.363 . S
C1915 H1918 0.929 . S
C1916 C1915 1.363 . S
C1916 C1922 1.428 . S
H1917 C1913 0.930 . S
H1918 C1915 0.929 . S
S1919 N1920 1.613 . S
S1919 N1921 1.610 . S
N1920 S1919 1.613 . S
N1920 C1923 1.350 . S
N1921 S1919 1.610 . S
N1921 C1922 1.351 . S
C1922 C1916 1.428 . S
C1922 N1921 1.351 . S
C1922 C1923 1.434 . S
C1923 C1914 1.429 . S
C1923 N1920 1.350 . S
C1923 C1922 1.434 . S
C1924 C1925 1.369 . S
C1924 C1926 1.419 . S
C1924 H1928 0.930 . S
C1925 C1924 1.369 . S
C1925 C1934 1.429 . S
C1926 C1924 1.419 . S
C1926 C1927 1.363 . S
C1926 H1929 0.929 . S
C1927 C1926 1.363 . S
C1927 C1933 1.428 . S
H1928 C1924 0.930 . S
H1929 C1926 0.929 . S
S1930 N1931 1.613 1_556 S
S1930 N1932 1.610 1_556 S
N1931 S1930 1.613 1_554 S
N1931 C1934 1.350 1_545 S
N1932 S1930 1.610 1_554 S
N1932 C1933 1.351 1_545 S
C1933 C1927 1.428 . S
C1933 N1932 1.351 1_565 S
C1933 C1934 1.434 . S
C1934 C1925 1.429 . S
C1934 N1931 1.350 1_565 S
C1934 C1933 1.434 . S
C1935 C1936 1.369 . S
C1935 C1937 1.419 . S
C1935 H1939 0.930 . S
C1936 C1935 1.369 . S
C1936 C1945 1.429 . S
C1937 C1935 1.419 . S
C1937 C1938 1.363 . S
C1937 H1940 0.929 1_554 S
C1938 C1937 1.363 . S
C1938 C1944 1.428 . S
H1939 C1935 0.930 . S
H1940 C1937 0.929 1_556 S
S1941 N1942 1.613 . S
S1941 N1943 1.610 . S
N1942 S1941 1.613 . S
N1942 C1945 1.350 . S
N1943 S1941 1.610 . S
N1943 C1944 1.351 . S
C1944 C1938 1.428 . S
C1944 N1943 1.351 . S
C1944 C1945 1.434 . S
C1945 C1936 1.429 . S
C1945 N1942 1.350 . S
C1945 C1944 1.434 . S
C1946 C1947 1.369 . S
C1946 C1948 1.419 . S
C1946 H1950 0.930 . S
C1947 C1946 1.369 . S
C1947 C1956 1.443 . S
C1948 C1946 1.419 . S
C1948 C1949 1.363 . S
C1948 H1951 0.929 . S
C1949 C1948 1.363 . S
C1949 C1955 1.446 . S
H1950 C1946 0.930 . S
H1951 C1948 0.929 . S
S1952 N1953 1.613 . S
S1952 N1954 1.610 . S
N1953 S1952 1.613 . S
N1953 C1956 1.334 1_565 S
N1954 S1952 1.610 . S
N1954 C1955 1.332 1_565 S
C1955 C1949 1.446 . S
C1955 N1954 1.332 1_545 S
C1955 C1956 1.434 . S
C1956 C1947 1.443 . S
C1956 N1953 1.334 1_545 S
C1956 C1955 1.434 . S
C1957 C1958 1.369 . S
C1957 C1959 1.419 . S
C1957 H1961 0.930 . S
C1958 C1957 1.369 . S
C1958 C1967 1.429 . S
C1959 C1957 1.419 . S
C1959 C1960 1.363 . S
C1959 H1962 0.929 . S
C1960 C1959 1.363 . S
C1960 C1966 1.428 . S
H1961 C1957 0.930 . S
H1962 C1959 0.929 . S
S1963 N1964 1.613 1_554 S
S1963 N1965 1.610 1_554 S
N1964 S1963 1.613 1_556 S
N1964 C1967 1.350 . S
N1965 S1963 1.610 1_556 S
N1965 C1966 1.351 . S
C1966 C1960 1.428 . S
C1966 N1965 1.351 . S
C1966 C1967 1.434 . S
C1967 C1958 1.429 . S
C1967 N1964 1.350 . S
C1967 C1966 1.434 . S
C1089 C20 1.412 . S
C1091 C88 1.409 . S
C1100 C122 1.413 . S
C1102 C54 1.408 . S
C1111 C156 1.408 . S
C1113 C224 1.413 . S
C1122 C258 1.407 . S
C1124 C190 1.412 . S
C1133 C292 1.413 . S
C1135 C360 1.408 . S
C1144 C394 1.410 . S
C1146 C326 1.410 . S
C1155 C428 1.408 . S
C1157 C496 1.412 . S
C1166 C530 1.407 . S
C1168 C462 1.412 . S
C1177 C632 1.413 . S
C1179 C564 1.408 . S
C1188 C666 1.413 . S
C1190 C598 1.408 . S
C1199 C700 1.409 . S
C1201 C768 1.411 . S
C1210 C734 1.413 . S
C1212 C802 1.408 . S
C1221 C904 1.411 . S
C1223 C836 1.410 . S
C1232 C938 1.413 . S
C1234 C870 1.408 . S
C1243 C972 1.413 . S
C1245 C1040 1.408 . S
C1254 C1006 1.408 . S
C1256 C1074 1.412 . S
C1265 C9 1.423 . S
C1267 C145 1.417 . S
C1276 C43 1.421 . S
C1278 C995 1.420 . S
C1287 C485 1.414 . S
C1289 C77 1.424 . S
C1298 C791 1.415 . S
C1300 C111 1.424 . S
C1309 C179 1.423 . S
C1311 C859 1.418 . S
C1320 C349 1.425 . S
C1322 C213 1.416 . S
C1331 C247 1.415 . S
C1333 C655 1.424 . S
C1342 C281 1.418 . S
C1344 C417 1.421 . S
C1353 C315 1.416 . S
C1355 C723 1.423 . S
C1364 C1063 1.426 . S
C1366 C383 1.416 . S
C1375 C587 1.417 . S
C1377 C451 1.422 . S
C1386 C519 1.424 . S
C1388 C927 1.418 . S
C1397 C553 1.423 . S
C1399 C689 1.417 . S
C1408 C621 1.423 . S
C1410 C1029 1.418 . S
C1419 C757 1.422 . S
C1421 C893 1.419 . S
C1430 C961 1.425 . S
C1432 C825 1.416 . S
C1441 C33 1.643 . S
C1443 C373 1.644 . S
C1452 C67 1.642 . S
C1454 C407 1.645 . S
C1463 C101 1.645 1_556 S
C1465 C305 1.642 . S
C1474 C339 1.643 . S
C1476 C135 1.645 1_556 S
C1485 C169 1.645 . S
C1487 C509 1.642 . S
C1496 C203 1.645 . S
C1498 C543 1.642 . S
C1507 C237 1.644 1_554 S
C1509 C441 1.643 . S
C1518 C475 1.642 . S
C1520 C271 1.644 1_554 S
C1529 C917 1.645 1_556 S
C1531 C577 1.642 . S
C1540 C611 1.644 . S
C1542 C951 1.644 1_556 S
C1551 C645 1.642 . S
C1553 C849 1.645 . S
C1562 C883 1.643 . S
C1564 C679 1.645 . S
C1573 C713 1.642 . S
C1575 C1053 1.644 1_554 S
C1584 C1087 1.642 1_554 S
C1586 C747 1.644 . S
C1595 C985 1.643 . S
C1597 C781 1.643 . S
C1606 C815 1.644 . S
C1608 C1019 1.643 . S
C1617 C342 1.373 . S
C1619 C2 1.373 . S
C1628 C36 1.373 . S
C1630 C376 1.373 . S
C1639 C274 1.373 . S
C1641 C70 1.373 . S
C1650 C308 1.373 . S
C1652 C104 1.373 . S
C1661 C138 1.373 . S
C1663 C478 1.373 . S
C1672 C172 1.373 . S
C1674 C512 1.373 . S
C1683 C410 1.373 . S
C1685 C206 1.373 . S
C1694 C240 1.372 . S
C1696 C444 1.373 . S
C1705 C546 1.373 . S
C1707 C886 1.373 . S
C1716 C920 1.373 . S
C1718 C580 1.373 . S
C1727 C818 1.373 . S
C1729 C614 1.373 . S
C1738 C648 1.373 . S
C1740 C852 1.373 . S
C1749 C682 1.373 . S
C1751 C1022 1.373 . S
C1760 C716 1.373 . S
C1762 C1056 1.373 . S
C1771 C750 1.373 . S
C1773 C954 1.373 . S
C1782 C784 1.373 . S
C1784 C988 1.373 . S
C1793 C107 1.522 . S
C1795 C5 1.522 . S
C1804 C73 1.522 . S
C1806 C39 1.522 . S
C1815 C141 1.522 . S
C1817 C243 1.522 . S
C1826 C209 1.522 . S
C1828 C175 1.522 . S
C1837 C379 1.521 . S
C1839 C277 1.521 . S
C1848 C345 1.523 . S
C1850 C311 1.522 . S
C1859 C515 1.522 . S
C1861 C413 1.522 . S
C1870 C447 1.522 . S
C1872 C481 1.522 . S
C1881 C651 1.522 . S
C1883 C549 1.522 . S
C1892 C617 1.522 . S
C1894 C583 1.522 . S
C1903 C685 1.522 . S
C1905 C787 1.522 . S
C1914 C753 1.522 . S
C1916 C719 1.522 . S
C1925 C923 1.521 . S
C1927 C821 1.521 . S
C1936 C889 1.522 . S
C1938 C855 1.522 . S
C1947 C1059 1.522 . S
C1949 C957 1.522 . S
C1958 C1025 1.522 . S
C1960 C991 1.521 . S
