# Generated by pormake.
# Topology wjf, (4)-cn, num edge types: 1
# Building blocks:
#     Node 0, Type 0, BuildingBlock: QUQFOY_clean_sbu_1, # of connection points: 4
#     Node 1, Type 0, BuildingBlock: QUQFOY_clean_sbu_1, # of connection points: 4
#     Node 2, Type 0, BuildingBlock: QUQFOY_clean_sbu_1, # of connection points: 4
#     Node 3, Type 0, BuildingBlock: QUQFOY_clean_sbu_1, # of connection points: 4
#     Node 4, Type 0, BuildingBlock: QUQFOY_clean_sbu_1, # of connection points: 4
#     Node 5, Type 0, BuildingBlock: QUQFOY_clean_sbu_1, # of connection points: 4
#     Node 6, Type 0, BuildingBlock: QUQFOY_clean_sbu_1, # of connection points: 4
#     Node 7, Type 0, BuildingBlock: QUQFOY_clean_sbu_1, # of connection points: 4
#     Node 8, Type 0, BuildingBlock: QUQFOY_clean_sbu_1, # of connection points: 4
#     Node 9, Type 0, BuildingBlock: QUQFOY_clean_sbu_1, # of connection points: 4
#     Node 10, Type 0, BuildingBlock: QUQFOY_clean_sbu_1, # of connection points: 4
#     Node 11, Type 0, BuildingBlock: QUQFOY_clean_sbu_1, # of connection points: 4
#     Edge 12, Type (0, 0), BuildingBlock: EZIPEK_clean_linker_0, # of connection points: 2
#     Edge 13, Type (0, 0), BuildingBlock: EZIPEK_clean_linker_0, # of connection points: 2
#     Edge 14, Type (0, 0), BuildingBlock: EZIPEK_clean_linker_0, # of connection points: 2
#     Edge 15, Type (0, 0), BuildingBlock: EZIPEK_clean_linker_0, # of connection points: 2
#     Edge 16, Type (0, 0), BuildingBlock: EZIPEK_clean_linker_0, # of connection points: 2
#     Edge 17, Type (0, 0), BuildingBlock: EZIPEK_clean_linker_0, # of connection points: 2
#     Edge 18, Type (0, 0), BuildingBlock: EZIPEK_clean_linker_0, # of connection points: 2
#     Edge 19, Type (0, 0), BuildingBlock: EZIPEK_clean_linker_0, # of connection points: 2
#     Edge 20, Type (0, 0), BuildingBlock: EZIPEK_clean_linker_0, # of connection points: 2
#     Edge 21, Type (0, 0), BuildingBlock: EZIPEK_clean_linker_0, # of connection points: 2
#     Edge 22, Type (0, 0), BuildingBlock: EZIPEK_clean_linker_0, # of connection points: 2
#     Edge 23, Type (0, 0), BuildingBlock: EZIPEK_clean_linker_0, # of connection points: 2
#     Edge 24, Type (0, 0), BuildingBlock: EZIPEK_clean_linker_0, # of connection points: 2
#     Edge 25, Type (0, 0), BuildingBlock: EZIPEK_clean_linker_0, # of connection points: 2
#     Edge 26, Type (0, 0), BuildingBlock: EZIPEK_clean_linker_0, # of connection points: 2
#     Edge 27, Type (0, 0), BuildingBlock: EZIPEK_clean_linker_0, # of connection points: 2
#     Edge 28, Type (0, 0), BuildingBlock: EZIPEK_clean_linker_0, # of connection points: 2
#     Edge 29, Type (0, 0), BuildingBlock: EZIPEK_clean_linker_0, # of connection points: 2
#     Edge 30, Type (0, 0), BuildingBlock: EZIPEK_clean_linker_0, # of connection points: 2
#     Edge 31, Type (0, 0), BuildingBlock: EZIPEK_clean_linker_0, # of connection points: 2
#     Edge 32, Type (0, 0), BuildingBlock: EZIPEK_clean_linker_0, # of connection points: 2
#     Edge 33, Type (0, 0), BuildingBlock: EZIPEK_clean_linker_0, # of connection points: 2
#     Edge 34, Type (0, 0), BuildingBlock: EZIPEK_clean_linker_0, # of connection points: 2
#     Edge 35, Type (0, 0), BuildingBlock: EZIPEK_clean_linker_0, # of connection points: 2
# Relax obj value: 0.016
# Max RMSD: 0.063
# Mean RMSD: 0.063
data_MOF--net-wjf--node1-QUQFOY_clean_sbu_1--edge1-EZIPEK_clean_linker_0
_symmetry_space_group_name_H-M    P1
_symmetry_Int_Tables_number       1
_symmetry_cell_setting            triclinic
loop_
_symmetry_equiv_pos_as_xyz
'x, y, z'
_cell_length_a     40.102805
_cell_length_b     40.211886
_cell_length_c     21.119424
_cell_angle_alpha  90.180743
_cell_angle_beta   89.776777
_cell_angle_gamma 120.00783
loop_
_atom_site_label
_atom_site_type_symbol
_atom_site_fract_x
_atom_site_fract_y
_atom_site_fract_z
_atom_type_partial_charge
O0 O 0.34284 0.38644 0.97224 0.0
Cd1 Cd 0.34907 0.42478 0.04141 0.0
Cd2 Cd 0.35669 0.36983 0.10981 0.0
O3 O 0.32873 0.33581 0.03081 0.0
O4 O 0.32667 0.45341 0.99833 0.0
O5 O 0.30069 0.41747 0.08339 0.0
C6 C 0.2982 0.43733 0.03748 0.0
C7 C 0.34416 0.34803 0.21472 0.0
C8 C 0.33117 0.35083 0.97675 0.0
C9 C 0.42702 0.44904 0.08709 0.0
O10 O 0.41346 0.41358 0.09907 0.0
O11 O 0.40511 0.46172 0.06953 0.0
O12 O 0.36128 0.33665 0.17586 0.0
O13 O 0.33123 0.36941 0.19291 0.0
O14 O 0.95538 0.34788 0.31713 0.0
Cd15 Cd 0.92598 0.34673 0.39701 0.0
Cd16 Cd 0.99619 0.36176 0.4423 0.0
O17 O 1.00238 0.34074 0.3561 0.0
O18 O 0.87349 0.3283 0.36064 0.0
O19 O 0.88639 0.29382 0.42692 0.0
C20 C 0.86253 0.29601 0.38856 0.0
C21 C 0.00909 0.34829 0.54328 0.0
C22 C 0.98366 0.34244 0.30896 0.0
C23 C 0.97888 0.42596 0.44142 0.0
O24 O 1.00487 0.41674 0.43832 0.0
O25 O 0.9434 0.40048 0.43625 0.0
O26 O 0.03621 0.36485 0.50182 0.0
O27 O 0.97394 0.33505 0.52491 0.0
O28 O 0.62455 0.9571 0.66241 0.0
Cd29 Cd 0.58698 0.92255 0.7307 0.0
Cd30 Cd 0.64024 0.98512 0.799 0.0
O31 O 0.67476 0.99781 0.71919 0.0
O32 O 0.55546 0.87301 0.68405 0.0
O33 O 0.59502 0.87989 0.76209 0.0
C34 C 0.57238 0.85893 0.71716 0.0
C35 C 0.65904 0.98691 0.90381 0.0
C36 C 0.65929 0.98402 0.66584 0.0
C37 C 0.56074 0.97444 0.77971 0.0
O38 O 0.59614 0.9973 0.79095 0.0
O39 O 0.54902 0.94 0.7623 0.0
O40 O 0.67079 0.01808 0.87178 0.0
O41 O 0.63952 0.95445 0.87463 0.0
O42 O 0.67487 0.61842 0.99134 0.0
Cd43 Cd 0.67226 0.57889 0.05452 0.0
Cd44 Cd 0.65837 0.62842 0.13088 0.0
O45 O 0.67816 0.66462 0.05268 0.0
O46 O 0.69423 0.55246 1.00278 0.0
O47 O 0.72237 0.58647 0.08876 0.0
C48 C 0.72359 0.56765 0.0399 0.0
C49 C 0.6729 0.64734 0.23702 0.0
C50 C 0.67906 0.65164 0.99798 0.0
C51 C 0.59248 0.54771 0.10122 0.0
O52 O 0.60362 0.58173 0.12002 0.0
O53 O 0.61636 0.53838 0.07942 0.0
O54 O 0.65155 0.65636 0.20423 0.0
O55 O 0.68881 0.63037 0.20825 0.0
O56 O 0.06613 0.67411 0.31388 0.0
Cd57 Cd 0.09317 0.66869 0.39133 0.0
Cd58 Cd 0.0265 0.66021 0.44126 0.0
O59 O 0.01767 0.67852 0.35447 0.0
O60 O 0.14535 0.68543 0.35475 0.0
O61 O 0.13454 0.71936 0.42598 0.0
C62 C 0.15759 0.71717 0.38541 0.0
C63 C 0.02506 0.68162 0.54215 0.0
C64 C 0.03741 0.67892 0.30686 0.0
C65 C 0.03535 0.59003 0.43644 0.0
O66 O 0.0131 0.60371 0.44362 0.0
O67 O 0.07076 0.61201 0.42225 0.0
O68 O 0.99374 0.66264 0.50996 0.0
O69 O 0.05768 0.69274 0.51395 0.0
O70 O 0.40578 0.06477 0.64956 0.0
Cd71 Cd 0.43442 0.09247 0.72999 0.0
Cd72 Cd 0.37855 0.023 0.77424 0.0
O73 O 0.35169 0.01723 0.688 0.0
O74 O 0.46776 0.14583 0.69711 0.0
O75 O 0.41984 0.13024 0.76452 0.0
C76 C 0.44563 0.15529 0.72691 0.0
C77 C 0.35221 0.01067 0.87548 0.0
C78 C 0.3721 0.03658 0.64109 0.0
C79 C 0.45985 0.03853 0.77206 0.0
O80 O 0.42433 0.01337 0.77045 0.0
O81 O 0.47086 0.07409 0.76569 0.0
O82 O 0.34151 0.98342 0.83434 0.0
O83 O 0.37423 0.04564 0.85669 0.0
O84 O 0.61157 0.67005 0.73414 0.0
Cd85 Cd 0.58034 0.66466 0.65458 0.0
Cd86 Cd 0.63457 0.64583 0.61114 0.0
O87 O 0.66057 0.66465 0.69922 0.0
O88 O 0.54662 0.68413 0.6886 0.0
O89 O 0.59228 0.7157 0.61766 0.0
C90 C 0.56731 0.7152 0.65708 0.0
C91 C 0.66061 0.65964 0.50924 0.0
C92 C 0.64262 0.6699 0.7446 0.0
C93 C 0.5519 0.58289 0.61706 0.0
O94 O 0.58708 0.59208 0.61427 0.0
O95 O 0.54216 0.60828 0.62597 0.0
O96 O 0.66876 0.64008 0.54824 0.0
O97 O 0.64119 0.67513 0.53036 0.0
O98 O 0.95604 0.6199 0.04268 0.0
Cd99 Cd 0.92924 0.58577 0.96656 0.0
Cd100 Cd 0.9963 0.64382 0.91456 0.0
O101 O 1.00445 0.67189 1.00063 0.0
O102 O 0.87682 0.55267 1.00382 0.0
O103 O 0.88856 0.59379 0.9258 0.0
C104 C 0.86507 0.57064 0.96809 0.0
C105 C 1.00376 0.66962 0.8138 0.0
C106 C 0.98462 0.65352 0.04867 0.0
C107 C 0.98732 0.56448 0.92418 0.0
O108 O 0.00915 0.60019 0.91475 0.0
O109 O 0.95201 0.55113 0.93919 0.0
O110 O 0.03302 0.67974 0.85026 0.0
O111 O 0.96971 0.64765 0.83678 0.0
O112 O 0.34646 0.95475 0.38043 0.0
Cd113 Cd 0.34703 0.92225 0.30637 0.0
Cd114 Cd 0.35882 0.98822 0.25056 0.0
O115 O 0.33931 0.99989 0.33397 0.0
O116 O 0.32944 0.87169 0.34933 0.0
O117 O 0.29502 0.88035 0.27675 0.0
C118 C 0.29746 0.85854 0.3191 0.0
C119 C 0.33953 0.98829 0.14717 0.0
C120 C 0.34098 0.98318 0.38391 0.0
C121 C 0.42611 0.97507 0.26156 0.0
O122 O 0.41475 0.99926 0.25606 0.0
O123 O 0.40212 0.93979 0.27249 0.0
O124 O 0.35923 0.02004 0.17796 0.0
O125 O 0.32719 0.95626 0.17738 0.0
O126 O 0.38608 0.33705 0.72936 0.0
Cd127 Cd 0.42297 0.34139 0.65839 0.0
Cd128 Cd 0.36828 0.349 0.59409 0.0
O129 O 0.33413 0.32127 0.67278 0.0
O130 O 0.45646 0.3246 0.70173 0.0
O131 O 0.41523 0.29086 0.62613 0.0
C132 C 0.43906 0.29326 0.66939 0.0
C133 C 0.35256 0.33462 0.48742 0.0
C134 C 0.35022 0.32503 0.72629 0.0
C135 C 0.44614 0.41883 0.61276 0.0
O136 O 0.41023 0.40586 0.60649 0.0
O137 O 0.45896 0.39624 0.62452 0.0
O138 O 0.33808 0.35133 0.52068 0.0
O139 O 0.37268 0.32233 0.51641 0.0
O140 O 0.06518 0.40036 0.04344 0.0
Cd141 Cd 0.09606 0.42967 0.96517 0.0
Cd142 Cd 0.02843 0.37599 0.91787 0.0
O143 O 0.01828 0.34685 1.00251 0.0
O144 O 0.14866 0.46097 1.00305 0.0
O145 O 0.13429 0.41528 0.9319 0.0
C146 C 0.1586 0.4397 0.97187 0.0
C147 C 0.02927 0.35632 0.8152 0.0
C148 C 0.03646 0.36685 0.05044 0.0
C149 C 0.04412 0.45678 0.92034 0.0
O150 O 0.01852 0.42149 0.92182 0.0
O151 O 0.0796 0.46697 0.92685 0.0
O152 O 0.9971 0.34405 0.84527 0.0
O153 O 0.06114 0.37614 0.84604 0.0
O154 O 0.67755 0.06548 0.39842 0.0
Cd155 Cd 0.67203 0.09139 0.31915 0.0
Cd156 Cd 0.65475 0.01841 0.27754 0.0
O157 O 0.67318 0.01139 0.36542 0.0
O158 O 0.68977 0.1437 0.35542 0.0
O159 O 0.72306 0.13224 0.28379 0.0
C160 C 0.72135 0.15552 0.32426 0.0
C161 C 0.6703 0.00802 0.17612 0.0
C162 C 0.67788 0.03472 0.41002 0.0
C163 C 0.5907 0.03635 0.27992 0.0
O164 O 0.60051 0.01088 0.27962 0.0
O165 O 0.61559 0.07173 0.28808 0.0
O166 O 0.65056 0.97966 0.21409 0.0
O167 O 0.68494 0.04258 0.19813 0.0
C168 C 0.3819 0.36198 0.31507 0.0
C169 C 0.34568 0.34242 0.28409 0.0
C170 C 0.31363 0.31614 0.38629 0.0
C171 C 0.35012 0.33431 0.41686 0.0
N172 N 0.4197 0.37091 0.40916 0.0
N173 N 0.27772 0.29733 0.28731 0.0
C174 C 0.38444 0.3558 0.38076 0.0
C175 C 0.31166 0.31856 0.31897 0.0
N176 N 0.41371 0.38848 0.28244 0.0
N177 N 0.28087 0.29671 0.42181 0.0
H178 H 0.27546 0.29881 0.23832 0.0
H179 H 0.25242 0.2764 0.30845 0.0
H180 H 0.2813 0.2918 0.47019 0.0
H181 H 0.25326 0.28673 0.40424 0.0
H182 H 0.43978 0.40755 0.30377 0.0
H183 H 0.41345 0.39398 0.23431 0.0
H184 H 0.44544 0.38176 0.38406 0.0
H185 H 0.42364 0.37082 0.45779 0.0
C186 C 1.00328 0.31532 0.64794 0.0
C187 C 0.01836 0.34967 0.61185 0.0
C188 C 0.04333 0.38814 0.70901 0.0
C189 C 0.02915 0.35385 0.74494 0.0
N190 N 1.00135 0.2853 0.74895 0.0
N191 N 0.05785 0.41906 0.60683 0.0
C192 C 0.01073 0.31753 0.7144 0.0
C193 C 0.04035 0.38606 0.64193 0.0
N194 N 0.98163 0.28065 0.61864 0.0
N195 N 0.05684 0.42275 0.7391 0.0
H196 H 0.05297 0.42047 0.55886 0.0
H197 H 0.07911 0.44531 0.62481 0.0
H198 H 0.05993 0.42634 0.78796 0.0
H199 H 0.06204 0.44782 0.71628 0.0
H200 H 0.96594 0.25478 0.6427 0.0
H201 H 0.97802 0.27785 0.56965 0.0
H202 H 0.99098 0.25814 0.72933 0.0
H203 H 1.00689 0.28628 0.79736 0.0
C204 C 0.69858 1.00393 1.00398 0.0
C205 C 0.66215 0.98883 0.974 0.0
C206 C 0.63229 0.98842 0.0759 0.0
C207 C 0.66812 1.00108 0.10669 0.0
N208 N 0.7344 0.01701 0.10258 0.0
N209 N 0.59322 0.96199 0.98211 0.0
C210 C 0.70108 0.00781 0.07139 0.0
C211 C 0.62866 0.97932 1.01032 0.0
N212 N 0.73076 0.01498 0.9678 0.0
N213 N 0.60223 0.98746 0.1085 0.0
H214 H 0.58907 0.95737 0.93351 0.0
H215 H 0.56744 0.94972 1.00738 0.0
H216 H 0.60351 0.99435 0.15636 0.0
H217 H 0.57709 0.98334 0.08711 0.0
H218 H 0.75869 0.03008 0.98539 0.0
H219 H 0.72958 0.01061 0.91894 0.0
H220 H 0.75853 0.01872 0.08082 0.0
H221 H 0.73703 0.02045 0.15164 0.0
C222 C 0.65214 0.61741 0.34428 0.0
C223 C 0.6738 0.65102 0.30731 0.0
C224 C 0.69052 0.69063 0.40406 0.0
C225 C 0.66619 0.65729 0.43989 0.0
N226 N 0.61753 0.59008 0.44194 0.0
N227 N 0.71112 0.71996 0.30005 0.0
C228 C 0.64556 0.62093 0.40953 0.0
C229 C 0.69228 0.68779 0.3367 0.0
N230 N 0.63724 0.58189 0.31701 0.0
N231 N 0.71268 0.72471 0.43469 0.0
H232 H 0.71469 0.71876 0.25129 0.0
H233 H 0.7215 0.74771 0.31713 0.0
H234 H 0.71175 0.72757 0.4837 0.0
H235 H 0.73387 0.74941 0.41255 0.0
H236 H 0.62565 0.55653 0.34301 0.0
H237 H 0.63883 0.57756 0.2687 0.0
H238 H 0.59824 0.56413 0.42052 0.0
H239 H 0.61073 0.59128 0.48924 0.0
C240 C 1.0052 0.70228 0.71093 0.0
C241 C 0.00979 0.67434 0.74442 0.0
C242 C 0.02989 0.65594 0.64683 0.0
C243 C 0.02275 0.68201 0.61222 0.0
N244 N 1.00042 0.7275 0.60879 0.0
N245 N 0.01965 0.61982 0.74339 0.0
C246 C 0.00944 0.7045 0.64359 0.0
C247 C 0.02052 0.65006 0.71219 0.0
N248 N 0.99757 0.72708 0.74375 0.0
N249 N 0.04531 0.63635 0.61722 0.0
H250 H 0.0128 0.61415 0.79124 0.0
H251 H 0.02228 0.59815 0.72096 0.0
H252 H 0.04974 0.63685 0.56854 0.0
H253 H 0.05619 0.62132 0.64143 0.0
H254 H 0.99747 0.75056 0.72342 0.0
H255 H 0.99361 0.72547 0.79276 0.0
H256 H 0.98674 0.74157 0.62739 0.0
H257 H 1.00499 0.73103 0.56 0.0
C258 C 0.35875 0.97618 0.04036 0.0
C259 C 0.33758 0.98911 0.0769 0.0
C260 C 0.32465 0.01538 0.9809 0.0
C261 C 0.34497 1.00156 0.9442 0.0
N262 N 0.37794 0.96499 0.9375 0.0
N263 N 0.29557 0.01556 0.08232 0.0
C264 C 0.36052 0.98042 0.97342 0.0
C265 C 0.31916 0.00721 0.04718 0.0
N266 N 0.37984 0.96255 0.06996 0.0
N267 N 0.31092 0.03659 0.95237 0.0
H268 H 0.29081 0.00947 0.1306 0.0
H269 H 0.27841 0.02565 0.06332 0.0
H270 H 0.31226 0.04096 0.90355 0.0
H271 H 0.29974 0.05132 0.97693 0.0
H272 H 0.40035 0.9581 0.04719 0.0
H273 H 0.37937 0.95828 0.11861 0.0
H274 H 0.38396 0.94422 0.95417 0.0
H275 H 0.38509 0.97138 0.88994 0.0
C276 C 0.23078 0.47379 0.98678 0.0
C277 C 0.19451 0.43947 0.98871 0.0
C278 C 0.22613 0.40359 0.02183 0.0
C279 C 0.26209 0.43842 0.02532 0.0
N280 N 0.2969 0.50766 0.02361 0.0
N281 N 0.15682 0.37395 0.02539 0.0
C282 C 0.26392 0.47386 1.0113 0.0
C283 C 0.19192 0.40501 1.0112 0.0
N284 N 0.23383 0.50601 0.95968 0.0
N285 N 0.22445 0.36883 0.02527 0.0
H286 H 0.13091 0.37384 0.02056 0.0
H287 H 0.15374 0.3497 0.04849 0.0
H288 H 0.24843 0.36568 0.03167 0.0
H289 H 0.19953 0.34294 1.01532 0.0
H290 H 0.2601 0.53075 0.95094 0.0
H291 H 0.21029 0.50683 0.94063 0.0
H292 H 0.29885 0.53441 1.02019 0.0
H293 H 0.32122 0.50882 0.04357 0.0
C294 C 0.81544 0.25058 0.30755 0.0
C295 C 0.82508 0.26141 0.37214 0.0
C296 C 0.76821 0.20136 0.40492 0.0
C297 C 0.75617 0.1928 0.34061 0.0
N298 N 0.76469 0.21383 0.23202 0.0
N299 N 0.80567 0.25087 0.4818 0.0
C300 C 0.77868 0.21884 0.29229 0.0
C301 C 0.79991 0.23796 0.42069 0.0
N302 N 0.8421 0.26889 0.26078 0.0
N303 N 0.75118 0.17387 0.4507 0.0
H304 H 0.82805 0.27789 0.49497 0.0
H305 H 0.78593 0.23646 0.51801 0.0
H306 H 0.72956 0.1458 0.44139 0.0
H307 H 0.76157 0.17764 0.49686 0.0
H308 H 0.83768 0.25946 0.21394 0.0
H309 H 0.87018 0.29076 0.26949 0.0
H310 H 0.7783 0.23412 0.19635 0.0
H311 H 0.73758 0.19136 0.21937 0.0
C312 C 0.57223 0.81179 0.63726 0.0
C313 C 0.56811 0.82086 0.70107 0.0
C314 C 0.56665 0.76217 0.73603 0.0
C315 C 0.56578 0.75071 0.67184 0.0
N316 N 0.55886 0.7613 0.56151 0.0
N317 N 0.55149 0.7992 0.80904 0.0
C318 C 0.56579 0.77448 0.62244 0.0
C319 C 0.56218 0.79432 0.7498 0.0
N320 N 0.58475 0.8393 0.59122 0.0
N321 N 0.5744 0.74427 0.78395 0.0
H322 H 0.54656 0.82164 0.82047 0.0
H323 H 0.54338 0.77861 0.84457 0.0
H324 H 0.58112 0.72266 0.77651 0.0
H325 H 0.57886 0.75415 0.83055 0.0
H326 H 0.59172 0.8349 0.54555 0.0
H327 H 0.5925 0.86777 0.60006 0.0
H328 H 0.55498 0.77621 0.52466 0.0
H329 H 0.55289 0.73374 0.5491 0.0
C330 C 0.75948 0.53293 1.01102 0.0
C331 C 0.75959 0.56787 0.0218 0.0
C332 C 0.82894 0.60413 1.00007 0.0
C333 C 0.82823 0.56956 0.98298 0.0
N334 N 0.79169 0.50148 0.96314 0.0
N335 N 0.79259 0.63694 1.01029 0.0
C336 C 0.79312 0.534 0.98594 0.0
C337 C 0.79378 0.60354 1.01167 0.0
N338 N 0.72772 0.49881 0.02681 0.0
N339 N 0.86323 0.63733 1.00883 0.0
H340 H 0.76734 0.63802 1.01649 0.0
H341 H 0.81595 0.6631 0.99624 0.0
H342 H 0.88997 0.6392 1.00358 0.0
H343 H 0.86512 0.66213 0.02801 0.0
H344 H 0.72717 0.47265 0.0262 0.0
H345 H 0.70287 0.49706 0.04595 0.0
H346 H 0.7662 0.47538 0.95813 0.0
H347 H 0.81565 0.50144 0.94381 0.0
C348 C 0.20426 0.76286 0.30402 0.0
C349 C 0.19512 0.75166 0.36861 0.0
C350 C 0.25196 0.8119 0.40094 0.0
C351 C 0.26343 0.82082 0.33638 0.0
N352 N 0.25472 0.79934 0.22782 0.0
N353 N 0.21555 0.76183 0.47761 0.0
C354 C 0.24091 0.79457 0.28833 0.0
C355 C 0.22065 0.77503 0.4168 0.0
N356 N 0.17722 0.74518 0.25773 0.0
N357 N 0.26904 0.83928 0.44695 0.0
H358 H 0.19352 0.73459 0.49066 0.0
H359 H 0.23552 0.77626 0.51339 0.0
H360 H 0.29027 0.8675 0.43766 0.0
H361 H 0.25902 0.83515 0.49348 0.0
H362 H 0.18153 0.75498 0.21114 0.0
H363 H 0.14898 0.72374 0.26672 0.0
H364 H 0.24092 0.7789 0.19237 0.0
H365 H 0.28193 0.82155 0.21484 0.0
C366 C 0.44725 0.21602 0.76254 0.0
C367 C 0.44692 0.1922 0.71268 0.0
C368 C 0.44946 0.23901 0.6354 0.0
C369 C 0.44404 0.2598 0.68478 0.0
N370 N 0.42945 0.2626 0.79559 0.0
N371 N 0.43836 0.17707 0.60062 0.0
C372 C 0.44089 0.24701 0.74858 0.0
C373 C 0.44567 0.20265 0.64872 0.0
N374 N 0.45448 0.20967 0.82314 0.0
N375 N 0.45916 0.25429 0.57596 0.0
H376 H 0.43282 0.14914 0.60783 0.0
H377 H 0.43338 0.18211 0.55418 0.0
H378 H 0.4635 0.28143 0.56481 0.0
H379 H 0.46702 0.24187 0.53976 0.0
H380 H 0.45884 0.22851 0.86032 0.0
H381 H 0.46012 0.18779 0.83495 0.0
H382 H 0.42284 0.2514 0.84129 0.0
H383 H 0.42245 0.28392 0.78784 0.0
C384 C 0.33782 0.29676 0.8339 0.0
C385 C 0.32883 0.31636 0.78733 0.0
C386 C 0.30083 0.33726 0.87044 0.0
C387 C 0.32077 0.32833 0.91665 0.0
N388 N 0.35655 0.29633 0.9424 0.0
N389 N 0.2985 0.35357 0.76112 0.0
C390 C 0.33781 0.30607 0.8989 0.0
C391 C 0.30829 0.33518 0.80516 0.0
N392 N 0.34718 0.2699 0.81533 0.0
N393 N 0.27539 0.34846 0.88956 0.0
H394 H 0.30208 0.35188 0.71265 0.0
H395 H 0.28828 0.37204 0.77306 0.0
H396 H 0.26925 0.34941 0.93734 0.0
H397 H 0.25767 0.3526 0.85851 0.0
H398 H 0.35107 0.25231 0.84697 0.0
H399 H 0.34702 0.2627 0.76771 0.0
H400 H 0.37379 0.28473 0.92997 0.0
H401 H 0.35647 0.30133 0.99071 0.0
C402 C 1.00682 0.38144 0.21152 0.0
C403 C 0.99937 0.34761 0.244 0.0
C404 C 0.01646 0.32462 0.14815 0.0
C405 C 0.01956 0.35659 0.11463 0.0
N406 N 1.00671 0.40922 0.11073 0.0
N407 N 0.99243 0.28452 0.24214 0.0
C408 C 0.01129 0.38304 0.14525 0.0
C409 C 1.00294 0.31839 0.21212 0.0
N410 N 0.01112 0.41276 0.24428 0.0
N411 N 0.02748 0.3011 0.11969 0.0
H412 H 0.98291 0.27944 0.28902 0.0
H413 H 0.99071 0.2607 0.21938 0.0
H414 H 0.03683 0.3047 0.07273 0.0
H415 H 0.02966 0.27968 0.14368 0.0
H416 H 0.02007 0.43927 0.223 0.0
H417 H 0.01018 0.41367 0.29361 0.0
H418 H 0.9972 0.42679 0.13055 0.0
H419 H 1.00812 0.41034 0.06137 0.0
C420 C 0.69406 0.99298 0.56242 0.0
C421 C 0.67622 0.00555 0.60694 0.0
C422 C 0.65797 0.03422 0.52297 0.0
C423 C 0.67833 0.0246 0.47777 0.0
N424 N 0.72397 1.00294 0.45883 0.0
N425 N 0.65319 0.04893 0.63231 0.0
C426 C 0.699 0.00641 0.49868 0.0
C427 C 0.66302 0.03049 0.58802 0.0
N428 N 0.70532 0.96758 0.58067 0.0
N429 N 0.63076 0.0432 0.50447 0.0
H430 H 0.65611 0.04625 0.68081 0.0
H431 H 0.64606 0.06977 0.62043 0.0
H432 H 0.62168 0.04131 0.45785 0.0
H433 H 0.61319 0.04715 0.53651 0.0
H434 H 0.71459 0.95402 0.54885 0.0
H435 H 0.7035 0.95886 0.6277 0.0
H436 H 0.7419 0.99264 0.47347 0.0
H437 H 0.7296 0.01397 0.41298 0.0
C438 C 0.62461 0.6493 0.85771 0.0
C439 C 0.65398 0.67047 0.81202 0.0
C440 C 0.70261 0.68743 0.89521 0.0
C441 C 0.67279 0.66848 0.94043 0.0
N442 N 0.60595 0.64212 0.96784 0.0
N443 N 0.72064 0.71744 0.79164 0.0
C444 C 0.63407 0.65381 0.92265 0.0
C445 C 0.69303 0.69201 0.832 0.0
N446 N 0.58838 0.62197 0.83949 0.0
N447 N 0.73983 0.70003 0.91231 0.0
H448 H 0.71441 0.72255 0.74604 0.0
H449 H 0.74891 0.73608 0.80556 0.0
H450 H 0.74748 0.69849 0.95898 0.0
H451 H 0.76247 0.71017 0.87992 0.0
H452 H 0.56745 0.60342 0.87136 0.0
H453 H 0.58051 0.614 0.79263 0.0
H454 H 0.57751 0.63403 0.9572 0.0
H455 H 0.61188 0.64446 1.0162 0.0
C456 C 0.01689 0.70219 0.21078 0.0
C457 C 0.02182 0.67369 0.24194 0.0
C458 C 0.01011 0.63816 0.14309 0.0
C459 C 1.00107 0.66408 0.11297 0.0
N460 N 0.99202 0.71882 0.11835 0.0
N461 N 0.01304 0.60959 0.24095 0.0
C462 C 1.00346 0.69575 0.14677 0.0
C463 C 0.01545 0.64025 0.20896 0.0
N464 N 0.02603 0.73557 0.24156 0.0
N465 N 0.01443 0.61178 0.10837 0.0
H466 H 0.0162 0.60939 0.28977 0.0
H467 H 1.00395 0.58292 0.21998 0.0
H468 H 0.01069 0.60907 0.05954 0.0
H469 H 0.02541 0.59526 0.12707 0.0
H470 H 0.02663 0.75901 0.21961 0.0
H471 H 0.03539 0.74063 0.28846 0.0
H472 H 0.98941 0.74009 0.14224 0.0
H473 H 0.98295 0.71502 0.0713 0.0
C474 C 0.319 1.00294 0.48257 0.0
C475 C 0.3485 1.00239 0.44614 0.0
C476 C 0.38875 0.01747 0.53962 0.0
C477 C 0.36138 0.0221 0.57549 0.0
N478 N 0.30254 0.02458 0.57932 0.0
N479 N 0.41553 0.0209 0.43602 0.0
C480 C 0.32693 0.01634 0.54656 0.0
C481 C 0.38475 0.01369 0.47348 0.0
N482 N 0.28343 0.98977 0.45672 0.0
N483 N 0.41748 0.01448 0.56902 0.0
H484 H 0.4139 0.01949 0.38668 0.0
H485 H 0.44341 0.03232 0.45358 0.0
H486 H 0.41967 0.01385 0.61815 0.0
H487 H 0.43609 0.0078 0.54485 0.0
H488 H 0.25957 0.98566 0.4828 0.0
H489 H 0.27747 0.98097 0.40956 0.0
H490 H 0.27888 0.0244 0.55879 0.0
H491 H 0.30761 0.0343 0.62605 0.0
C492 C 0.48766 0.4853 0.15064 0.0
C493 C 0.46929 0.47514 0.09069 0.0
C494 C 0.5318 0.51301 0.03771 0.0
C495 C 0.55046 0.52048 0.0974 0.0
N496 N 0.54725 0.51024 0.21002 0.0
N497 N 0.4738 0.47413 0.97685 0.0
C498 C 0.52865 0.50561 0.15376 0.0
C499 C 0.49135 0.48758 0.03409 0.0
N500 N 0.46582 0.47667 0.20444 0.0
N501 N 0.55246 0.53153 0.98476 0.0
H502 H 0.44416 0.45601 0.97204 0.0
H503 H 0.48888 0.4785 0.93456 0.0
H504 H 0.58218 0.55011 0.98501 0.0
H505 H 0.5398 0.53094 0.94148 0.0
H506 H 0.47722 0.48641 0.24933 0.0
H507 H 0.43578 0.46231 0.2036 0.0
H508 H 0.53332 0.49696 0.25198 0.0
H509 H 0.57721 0.52498 0.21369 0.0
C510 C 0.9906 0.52287 0.39671 0.0
C511 C 0.01892 0.54764 0.44107 0.0
C512 C 0.01466 0.49106 0.49342 0.0
C513 C 0.99073 0.46736 0.44371 0.0
N514 N 0.96313 0.46257 0.34027 0.0
N515 N 0.05946 0.55552 0.53058 0.0
C516 C 0.9805 0.4837 0.39337 0.0
C517 C 0.03158 0.53178 0.48898 0.0
N518 N 0.97275 0.53627 0.35793 0.0
N519 N 0.01987 0.47447 0.54601 0.0
H520 H 0.07057 0.58514 0.53167 0.0
H521 H 0.07306 0.54613 0.56176 0.0
H522 H 1.00672 0.44477 0.55146 0.0
H523 H 0.03405 0.48971 0.58654 0.0
H524 H 0.94915 0.51831 0.32988 0.0
H525 H 0.9784 0.56442 0.35838 0.0
H526 H 0.95937 0.47454 0.29913 0.0
H527 H 0.95611 0.43404 0.33444 0.0
C528 C 0.53419 0.01068 0.72322 0.0
C529 C 0.53437 0.99026 0.77788 0.0
C530 C 0.49063 0.00722 0.83214 0.0
C531 C 0.48827 0.02523 0.77593 0.0
N532 N 0.5037 0.04029 0.66539 0.0
N533 N 0.51057 0.96551 0.88205 0.0
C534 C 0.50918 0.02621 0.72088 0.0
C535 C 0.51191 0.98749 0.83176 0.0
N536 N 0.55833 0.01559 0.67368 0.0
N537 N 0.47341 0.01009 0.8863 0.0
H538 H 0.52637 0.95134 0.88344 0.0
H539 H 0.49199 0.95907 0.92041 0.0
H540 H 0.45819 0.02486 0.88811 0.0
H541 H 0.47661 1.00066 0.93047 0.0
H542 H 0.5634 0.03428 0.63617 0.0
H543 H 0.57519 1.00255 0.6716 0.0
H544 H 0.51401 0.03726 0.62171 0.0
H545 H 0.4866 0.05298 0.6619 0.0
C546 C 0.49953 0.52428 0.56266 0.0
C547 C 0.52262 0.54144 0.61695 0.0
C548 C 0.49262 0.47882 0.67012 0.0
C549 C 0.47257 0.461 0.61357 0.0
N550 N 0.45929 0.46563 0.50372 0.0
N551 N 0.54506 0.53472 0.71958 0.0
C552 C 0.47641 0.48346 0.55925 0.0
C553 C 0.52032 0.51858 0.6698 0.0
N554 N 0.49985 0.54702 0.51439 0.0
N555 N 0.48379 0.45818 0.72515 0.0
H556 H 0.56459 0.56402 0.72299 0.0
H557 H 0.54815 0.51873 0.75541 0.0
H558 H 0.4631 0.42913 0.72803 0.0
H559 H 0.4942 0.47058 0.76931 0.0
H560 H 0.48083 0.53683 0.47642 0.0
H561 H 0.51754 0.57681 0.51442 0.0
H562 H 0.46414 0.47983 0.46063 0.0
H563 H 0.44229 0.4359 0.49955 0.0
C564 C 0.98948 0.50838 0.87407 0.0
C565 C 1.00389 0.53856 0.91943 0.0
C566 C 0.04343 0.51413 0.96617 0.0
C567 C 0.03167 0.48597 0.91786 0.0
N568 N 0.99849 0.4603 0.81911 0.0
N569 N 0.05333 0.57607 0.99688 0.0
C570 C 1.00597 0.48414 0.86991 0.0
C571 C 0.0337 0.54342 0.96153 0.0
N572 N 0.96034 0.50309 0.83448 0.0
N573 N 0.06176 0.51168 1.01896 0.0
H574 H 0.04838 0.59901 0.99478 0.0
H575 H 0.07773 0.58226 0.02312 0.0
H576 H 0.06791 0.4897 0.02644 0.0
H577 H 0.06691 0.52899 0.05873 0.0
H578 H 0.9453 0.47887 0.80604 0.0
H579 H 0.94978 0.52206 0.83223 0.0
H580 H 0.98335 0.46049 0.77932 0.0
H581 H 0.01036 0.44257 0.81407 0.0
C582 C 0.53306 0.02755 0.21904 0.0
C583 C 0.54901 0.02326 0.27616 0.0
C584 C 0.48453 0.98841 0.32396 0.0
C585 C 0.46818 0.98973 0.26515 0.0
N586 N 0.47584 0.007 0.15481 0.0
N587 N 0.54018 0.9959 0.38072 0.0
C588 C 0.49222 0.00856 0.21218 0.0
C589 C 0.52477 1.00255 0.32788 0.0
N590 N 0.55702 0.04972 0.17144 0.0
N591 N 0.46196 0.97554 0.37711 0.0
H592 H 0.5697 0.00776 0.38749 0.0
H593 H 0.52367 0.9767 0.4162 0.0
H594 H 0.43232 0.96479 0.37689 0.0
H595 H 0.47296 0.97852 0.42266 0.0
H596 H 0.54765 0.05733 0.13103 0.0
H597 H 0.58693 0.06283 0.17417 0.0
H598 H 0.49123 0.01664 0.11266 0.0
H599 H 0.44614 0.99326 0.1484 0.0
loop_
_geom_bond_atom_site_label_1
_geom_bond_atom_site_label_2
_geom_bond_distance
_geom_bond_site_symmetry_2
_ccdc_geom_bond_type
O0 Cd1 2.223 1_556 S
O0 C8 1.315 . S
Cd1 O0 2.223 1_554 S
Cd1 O4 2.297 1_554 S
Cd1 O5 2.439 . S
Cd1 O11 2.240 . S
Cd2 O3 2.240 1_554 S
Cd2 O10 2.223 . S
Cd2 O12 2.297 . S
Cd2 O13 2.439 . S
O3 Cd2 2.240 1_556 S
O3 C8 1.279 . S
O4 Cd1 2.297 1_556 S
O4 C6 1.247 1_556 S
O5 Cd1 2.439 . S
O5 C6 1.208 . S
C6 O4 1.247 1_554 S
C6 O5 1.208 . S
C7 O12 1.247 . S
C7 O13 1.208 . S
C8 O0 1.315 . S
C8 O3 1.279 . S
C9 O10 1.315 . S
C9 O11 1.279 . S
O10 Cd2 2.223 . S
O10 C9 1.315 . S
O11 Cd1 2.240 . S
O11 C9 1.279 . S
O12 Cd2 2.297 . S
O12 C7 1.247 . S
O13 Cd2 2.439 . S
O13 C7 1.208 . S
O14 Cd15 2.223 . S
O14 C22 1.315 . S
Cd15 O14 2.223 . S
Cd15 O18 2.297 . S
Cd15 O19 2.439 . S
Cd15 O25 2.240 . S
Cd16 O17 2.240 1_455 S
Cd16 O24 2.223 . S
Cd16 O26 2.297 . S
Cd16 O27 2.439 1_455 S
O17 Cd16 2.240 1_655 S
O17 C22 1.279 . S
O18 Cd15 2.297 . S
O18 C20 1.247 . S
O19 Cd15 2.439 . S
O19 C20 1.208 . S
C20 O18 1.247 . S
C20 O19 1.208 . S
C21 O26 1.247 1_655 S
C21 O27 1.208 . S
C22 O14 1.315 . S
C22 O17 1.279 . S
C23 O24 1.315 1_655 S
C23 O25 1.279 . S
O24 Cd16 2.223 . S
O24 C23 1.315 1_455 S
O25 Cd15 2.240 . S
O25 C23 1.279 . S
O26 Cd16 2.297 . S
O26 C21 1.247 1_455 S
O27 Cd16 2.439 1_655 S
O27 C21 1.208 . S
O28 Cd29 2.223 . S
O28 C36 1.315 . S
Cd29 O28 2.223 . S
Cd29 O32 2.297 . S
Cd29 O33 2.439 . S
Cd29 O39 2.240 . S
Cd30 O31 2.240 1_545 S
Cd30 O38 2.223 . S
Cd30 O40 2.297 . S
Cd30 O41 2.439 1_545 S
O31 Cd30 2.240 1_565 S
O31 C36 1.279 . S
O32 Cd29 2.297 . S
O32 C34 1.247 . S
O33 Cd29 2.439 . S
O33 C34 1.208 . S
C34 O32 1.247 . S
C34 O33 1.208 . S
C35 O40 1.247 1_565 S
C35 O41 1.208 . S
C36 O28 1.315 . S
C36 O31 1.279 . S
C37 O38 1.315 1_565 S
C37 O39 1.279 . S
O38 Cd30 2.223 . S
O38 C37 1.315 1_545 S
O39 Cd29 2.240 . S
O39 C37 1.279 . S
O40 Cd30 2.297 . S
O40 C35 1.247 1_545 S
O41 Cd30 2.439 1_565 S
O41 C35 1.208 . S
O42 Cd43 2.223 1_556 S
O42 C50 1.315 . S
Cd43 O42 2.223 1_554 S
Cd43 O46 2.297 1_554 S
Cd43 O47 2.439 . S
Cd43 O53 2.240 . S
Cd44 O45 2.240 1_554 S
Cd44 O52 2.223 . S
Cd44 O54 2.297 . S
Cd44 O55 2.439 . S
O45 Cd44 2.240 1_556 S
O45 C50 1.279 . S
O46 Cd43 2.297 1_556 S
O46 C48 1.247 1_556 S
O47 Cd43 2.439 . S
O47 C48 1.208 . S
C48 O46 1.247 1_554 S
C48 O47 1.208 . S
C49 O54 1.247 . S
C49 O55 1.208 . S
C50 O42 1.315 . S
C50 O45 1.279 . S
C51 O52 1.315 . S
C51 O53 1.279 . S
O52 Cd44 2.223 . S
O52 C51 1.315 . S
O53 Cd43 2.240 . S
O53 C51 1.279 . S
O54 Cd44 2.297 . S
O54 C49 1.247 . S
O55 Cd44 2.439 . S
O55 C49 1.208 . S
O56 Cd57 2.223 . S
O56 C64 1.315 . S
Cd57 O56 2.223 . S
Cd57 O60 2.297 . S
Cd57 O61 2.439 . S
Cd57 O67 2.240 . S
Cd58 O59 2.240 1_655 S
Cd58 O66 2.223 . S
Cd58 O68 2.297 . S
Cd58 O69 2.439 1_655 S
O59 Cd58 2.240 1_455 S
O59 C64 1.279 . S
O60 Cd57 2.297 . S
O60 C62 1.247 . S
O61 Cd57 2.439 . S
O61 C62 1.208 . S
C62 O60 1.247 . S
C62 O61 1.208 . S
C63 O68 1.247 1_455 S
C63 O69 1.208 . S
C64 O56 1.315 . S
C64 O59 1.279 . S
C65 O66 1.315 1_455 S
C65 O67 1.279 . S
O66 Cd58 2.223 . S
O66 C65 1.315 1_655 S
O67 Cd57 2.240 . S
O67 C65 1.279 . S
O68 Cd58 2.297 . S
O68 C63 1.247 1_655 S
O69 Cd58 2.439 1_455 S
O69 C63 1.208 . S
O70 Cd71 2.223 . S
O70 C78 1.315 . S
Cd71 O70 2.223 . S
Cd71 O74 2.297 . S
Cd71 O75 2.439 . S
Cd71 O81 2.240 . S
Cd72 O73 2.240 1_565 S
Cd72 O80 2.223 . S
Cd72 O82 2.297 . S
Cd72 O83 2.439 1_565 S
O73 Cd72 2.240 1_545 S
O73 C78 1.279 . S
O74 Cd71 2.297 . S
O74 C76 1.247 . S
O75 Cd71 2.439 . S
O75 C76 1.208 . S
C76 O74 1.247 . S
C76 O75 1.208 . S
C77 O82 1.247 1_545 S
C77 O83 1.208 . S
C78 O70 1.315 . S
C78 O73 1.279 . S
C79 O80 1.315 1_545 S
C79 O81 1.279 . S
O80 Cd72 2.223 . S
O80 C79 1.315 1_565 S
O81 Cd71 2.240 . S
O81 C79 1.279 . S
O82 Cd72 2.297 . S
O82 C77 1.247 1_565 S
O83 Cd72 2.439 1_545 S
O83 C77 1.208 . S
O84 Cd85 2.223 . S
O84 C92 1.315 . S
Cd85 O84 2.223 . S
Cd85 O88 2.297 . S
Cd85 O89 2.439 . S
Cd85 O95 2.240 . S
Cd86 O87 2.240 . S
Cd86 O94 2.223 . S
Cd86 O96 2.297 . S
Cd86 O97 2.439 . S
O87 Cd86 2.240 . S
O87 C92 1.279 . S
O88 Cd85 2.297 . S
O88 C90 1.247 . S
O89 Cd85 2.439 . S
O89 C90 1.208 . S
C90 O88 1.247 . S
C90 O89 1.208 . S
C91 O96 1.247 . S
C91 O97 1.208 . S
C92 O84 1.315 . S
C92 O87 1.279 . S
C93 O94 1.315 . S
C93 O95 1.279 . S
O94 Cd86 2.223 . S
O94 C93 1.315 . S
O95 Cd85 2.240 . S
O95 C93 1.279 . S
O96 Cd86 2.297 . S
O96 C91 1.247 . S
O97 Cd86 2.439 . S
O97 C91 1.208 . S
O98 Cd99 2.223 1_554 S
O98 C106 1.315 . S
Cd99 O98 2.223 1_556 S
Cd99 O102 2.297 1_556 S
Cd99 O103 2.439 . S
Cd99 O109 2.240 . S
Cd100 O101 2.240 1_456 S
Cd100 O108 2.223 . S
Cd100 O110 2.297 . S
Cd100 O111 2.439 1_455 S
O101 Cd100 2.240 1_654 S
O101 C106 1.279 . S
O102 Cd99 2.297 1_554 S
O102 C104 1.247 1_554 S
O103 Cd99 2.439 . S
O103 C104 1.208 . S
C104 O102 1.247 1_556 S
C104 O103 1.208 . S
C105 O110 1.247 1_655 S
C105 O111 1.208 . S
C106 O98 1.315 . S
C106 O101 1.279 . S
C107 O108 1.315 1_655 S
C107 O109 1.279 . S
O108 Cd100 2.223 . S
O108 C107 1.315 1_455 S
O109 Cd99 2.240 . S
O109 C107 1.279 . S
O110 Cd100 2.297 . S
O110 C105 1.247 1_455 S
O111 Cd100 2.439 1_655 S
O111 C105 1.208 . S
O112 Cd113 2.223 . S
O112 C120 1.315 . S
Cd113 O112 2.223 . S
Cd113 O116 2.297 . S
Cd113 O117 2.439 . S
Cd113 O123 2.240 . S
Cd114 O115 2.240 1_545 S
Cd114 O122 2.223 . S
Cd114 O124 2.297 . S
Cd114 O125 2.439 1_545 S
O115 Cd114 2.240 1_565 S
O115 C120 1.279 . S
O116 Cd113 2.297 . S
O116 C118 1.247 . S
O117 Cd113 2.439 . S
O117 C118 1.208 . S
C118 O116 1.247 . S
C118 O117 1.208 . S
C119 O124 1.247 1_565 S
C119 O125 1.208 . S
C120 O112 1.315 . S
C120 O115 1.279 . S
C121 O122 1.315 1_565 S
C121 O123 1.279 . S
O122 Cd114 2.223 . S
O122 C121 1.315 1_545 S
O123 Cd113 2.240 . S
O123 C121 1.279 . S
O124 Cd114 2.297 . S
O124 C119 1.247 1_545 S
O125 Cd114 2.439 1_565 S
O125 C119 1.208 . S
O126 Cd127 2.223 . S
O126 C134 1.315 . S
Cd127 O126 2.223 . S
Cd127 O130 2.297 . S
Cd127 O131 2.439 . S
Cd127 O137 2.240 . S
Cd128 O129 2.240 . S
Cd128 O136 2.223 . S
Cd128 O138 2.297 . S
Cd128 O139 2.439 . S
O129 Cd128 2.240 . S
O129 C134 1.279 . S
O130 Cd127 2.297 . S
O130 C132 1.247 . S
O131 Cd127 2.439 . S
O131 C132 1.208 . S
C132 O130 1.247 . S
C132 O131 1.208 . S
C133 O138 1.247 . S
C133 O139 1.208 . S
C134 O126 1.315 . S
C134 O129 1.279 . S
C135 O136 1.315 . S
C135 O137 1.279 . S
O136 Cd128 2.223 . S
O136 C135 1.315 . S
O137 Cd127 2.240 . S
O137 C135 1.279 . S
O138 Cd128 2.297 . S
O138 C133 1.247 . S
O139 Cd128 2.439 . S
O139 C133 1.208 . S
O140 Cd141 2.223 1_554 S
O140 C148 1.315 . S
Cd141 O140 2.223 1_556 S
Cd141 O144 2.297 1_556 S
Cd141 O145 2.439 . S
Cd141 O151 2.240 . S
Cd142 O143 2.240 1_656 S
Cd142 O150 2.223 . S
Cd142 O152 2.297 . S
Cd142 O153 2.439 1_655 S
O143 Cd142 2.240 1_454 S
O143 C148 1.279 . S
O144 Cd141 2.297 1_554 S
O144 C146 1.247 1_554 S
O145 Cd141 2.439 . S
O145 C146 1.208 . S
C146 O144 1.247 1_556 S
C146 O145 1.208 . S
C147 O152 1.247 1_455 S
C147 O153 1.208 . S
C148 O140 1.315 . S
C148 O143 1.279 . S
C149 O150 1.315 1_455 S
C149 O151 1.279 . S
O150 Cd142 2.223 . S
O150 C149 1.315 1_655 S
O151 Cd141 2.240 . S
O151 C149 1.279 . S
O152 Cd142 2.297 . S
O152 C147 1.247 1_655 S
O153 Cd142 2.439 1_455 S
O153 C147 1.208 . S
O154 Cd155 2.223 . S
O154 C162 1.315 . S
Cd155 O154 2.223 . S
Cd155 O158 2.297 . S
Cd155 O159 2.439 . S
Cd155 O165 2.240 . S
Cd156 O157 2.240 1_565 S
Cd156 O164 2.223 . S
Cd156 O166 2.297 . S
Cd156 O167 2.439 1_565 S
O157 Cd156 2.240 1_545 S
O157 C162 1.279 . S
O158 Cd155 2.297 . S
O158 C160 1.247 . S
O159 Cd155 2.439 . S
O159 C160 1.208 . S
C160 O158 1.247 . S
C160 O159 1.208 . S
C161 O166 1.247 1_545 S
C161 O167 1.208 . S
C162 O154 1.315 . S
C162 O157 1.279 . S
C163 O164 1.315 1_545 S
C163 O165 1.279 . S
O164 Cd156 2.223 . S
O164 C163 1.315 1_565 S
O165 Cd155 2.240 . S
O165 C163 1.279 . S
O166 Cd156 2.297 . S
O166 C161 1.247 1_565 S
O167 Cd156 2.439 1_545 S
O167 C161 1.208 . S
C168 C169 1.363 . S
C168 C174 1.379 . S
C168 N176 1.356 . S
C169 C168 1.363 . S
C169 C175 1.363 . S
C170 C171 1.363 . S
C170 C175 1.379 . S
C170 N177 1.356 . S
C171 C170 1.363 . S
C171 C174 1.363 . S
N172 C174 1.356 . S
N172 H184 0.984 . S
N172 H185 0.985 . S
N173 C175 1.356 . S
N173 H178 0.984 . S
N173 H179 0.985 . S
C174 C168 1.379 . S
C174 C171 1.363 . S
C174 N172 1.356 . S
C175 C169 1.363 . S
C175 C170 1.379 . S
C175 N173 1.356 . S
N176 C168 1.356 . S
N176 H182 0.984 . S
N176 H183 0.984 . S
N177 C170 1.356 . S
N177 H180 0.984 . S
N177 H181 0.985 . S
H178 N173 0.984 . S
H179 N173 0.985 . S
H180 N177 0.984 . S
H181 N177 0.985 . S
H182 N176 0.984 . S
H183 N176 0.984 . S
H184 N172 0.984 . S
H185 N172 0.985 . S
C186 C187 1.363 . S
C186 C192 1.379 . S
C186 N194 1.356 . S
C187 C186 1.363 . S
C187 C193 1.363 1_655 S
C188 C189 1.363 . S
C188 C193 1.379 . S
C188 N195 1.356 . S
C189 C188 1.363 . S
C189 C192 1.363 1_455 S
N190 C192 1.356 . S
N190 H202 0.984 . S
N190 H203 0.985 . S
N191 C193 1.356 . S
N191 H196 0.984 . S
N191 H197 0.985 . S
C192 C186 1.379 . S
C192 C189 1.363 1_655 S
C192 N190 1.356 . S
C193 C187 1.363 1_455 S
C193 C188 1.379 . S
C193 N191 1.356 . S
N194 C186 1.356 . S
N194 H200 0.984 . S
N194 H201 0.984 . S
N195 C188 1.356 . S
N195 H198 0.984 . S
N195 H199 0.985 . S
H196 N191 0.984 . S
H197 N191 0.985 . S
H198 N195 0.984 . S
H199 N195 0.985 . S
H200 N194 0.984 . S
H201 N194 0.984 . S
H202 N190 0.984 . S
H203 N190 0.985 . S
C204 C205 1.363 1_545 S
C204 C210 1.379 1_556 S
C204 N212 1.356 . S
C205 C204 1.363 1_565 S
C205 C211 1.363 . S
C206 C207 1.363 1_565 S
C206 C211 1.379 1_554 S
C206 N213 1.356 . S
C207 C206 1.363 1_545 S
C207 C210 1.363 . S
N208 C210 1.356 . S
N208 H220 0.984 . S
N208 H221 0.985 . S
N209 C211 1.356 . S
N209 H214 0.984 . S
N209 H215 0.985 . S
C210 C204 1.379 1_554 S
C210 C207 1.363 . S
C210 N208 1.356 . S
C211 C205 1.363 . S
C211 C206 1.379 1_556 S
C211 N209 1.356 . S
N212 C204 1.356 . S
N212 H218 0.984 . S
N212 H219 0.984 . S
N213 C206 1.356 . S
N213 H216 0.984 . S
N213 H217 0.985 . S
H214 N209 0.984 . S
H215 N209 0.985 . S
H216 N213 0.984 . S
H217 N213 0.985 . S
H218 N212 0.984 . S
H219 N212 0.984 . S
H220 N208 0.984 . S
H221 N208 0.985 . S
C222 C223 1.363 . S
C222 C228 1.379 . S
C222 N230 1.356 . S
C223 C222 1.363 . S
C223 C229 1.363 . S
C224 C225 1.363 . S
C224 C229 1.379 . S
C224 N231 1.356 . S
C225 C224 1.363 . S
C225 C228 1.363 . S
N226 C228 1.356 . S
N226 H238 0.984 . S
N226 H239 0.985 . S
N227 C229 1.356 . S
N227 H232 0.984 . S
N227 H233 0.985 . S
C228 C222 1.379 . S
C228 C225 1.363 . S
C228 N226 1.356 . S
C229 C223 1.363 . S
C229 C224 1.379 . S
C229 N227 1.356 . S
N230 C222 1.356 . S
N230 H236 0.984 . S
N230 H237 0.984 . S
N231 C224 1.356 . S
N231 H234 0.984 . S
N231 H235 0.985 . S
H232 N227 0.984 . S
H233 N227 0.985 . S
H234 N231 0.984 . S
H235 N231 0.985 . S
H236 N230 0.984 . S
H237 N230 0.984 . S
H238 N226 0.984 . S
H239 N226 0.985 . S
C240 C241 1.363 . S
C240 C246 1.379 . S
C240 N248 1.356 . S
C241 C240 1.363 . S
C241 C247 1.364 1_655 S
C242 C243 1.363 . S
C242 C247 1.379 . S
C242 N249 1.356 . S
C243 C242 1.363 . S
C243 C246 1.364 1_455 S
N244 C246 1.356 1_455 S
N244 H256 0.984 1_455 S
N244 H257 0.985 . S
N245 C247 1.356 1_655 S
N245 H250 0.984 . S
N245 H251 0.985 1_655 S
C246 C240 1.379 . S
C246 C243 1.364 1_655 S
C246 N244 1.356 1_655 S
C247 C241 1.364 1_455 S
C247 C242 1.379 . S
C247 N245 1.356 1_455 S
N248 C240 1.356 . S
N248 H254 0.984 . S
N248 H255 0.984 . S
N249 C242 1.356 . S
N249 H252 0.984 . S
N249 H253 0.985 . S
H250 N245 0.984 . S
H251 N245 0.985 1_455 S
H252 N249 0.984 . S
H253 N249 0.985 . S
H254 N248 0.984 . S
H255 N248 0.984 . S
H256 N244 0.984 1_655 S
H257 N244 0.985 . S
C258 C259 1.363 . S
C258 C264 1.379 1_554 S
C258 N266 1.356 . S
C259 C258 1.363 . S
C259 C265 1.363 1_565 S
C260 C261 1.363 . S
C260 C265 1.379 1_556 S
C260 N267 1.356 . S
C261 C260 1.363 . S
C261 C264 1.363 1_545 S
N262 C264 1.356 . S
N262 H274 0.984 . S
N262 H275 0.985 . S
N263 C265 1.356 . S
N263 H268 0.984 . S
N263 H269 0.985 . S
C264 C258 1.379 1_556 S
C264 C261 1.363 1_565 S
C264 N262 1.356 . S
C265 C259 1.363 1_545 S
C265 C260 1.379 1_554 S
C265 N263 1.356 . S
N266 C258 1.356 . S
N266 H272 0.984 . S
N266 H273 0.984 . S
N267 C260 1.356 . S
N267 H270 0.984 . S
N267 H271 0.985 . S
H268 N263 0.984 . S
H269 N263 0.985 . S
H270 N267 0.984 . S
H271 N267 0.985 . S
H272 N266 0.984 . S
H273 N266 0.984 . S
H274 N262 0.984 . S
H275 N262 0.985 . S
C276 C277 1.363 . S
C276 C282 1.379 . S
C276 N284 1.356 . S
C277 C276 1.363 . S
C277 C283 1.363 1_556 S
C278 C279 1.363 . S
C278 C283 1.379 . S
C278 N285 1.356 . S
C279 C278 1.363 . S
C279 C282 1.363 1_554 S
N280 C282 1.356 . S
N280 H292 0.984 . S
N280 H293 0.985 . S
N281 C283 1.356 . S
N281 H286 0.984 . S
N281 H287 0.985 . S
C282 C276 1.379 . S
C282 C279 1.363 1_556 S
C282 N280 1.356 . S
C283 C277 1.363 1_554 S
C283 C278 1.379 . S
C283 N281 1.356 . S
N284 C276 1.356 . S
N284 H290 0.984 . S
N284 H291 0.984 . S
N285 C278 1.356 . S
N285 H288 0.984 . S
N285 H289 0.985 . S
H286 N281 0.984 . S
H287 N281 0.985 . S
H288 N285 0.984 . S
H289 N285 0.985 . S
H290 N284 0.984 . S
H291 N284 0.984 . S
H292 N280 0.984 . S
H293 N280 0.985 . S
C294 C295 1.363 . S
C294 C300 1.379 . S
C294 N302 1.356 . S
C295 C294 1.363 . S
C295 C301 1.363 . S
C296 C297 1.363 . S
C296 C301 1.379 . S
C296 N303 1.356 . S
C297 C296 1.363 . S
C297 C300 1.363 . S
N298 C300 1.356 . S
N298 H310 0.984 . S
N298 H311 0.985 . S
N299 C301 1.356 . S
N299 H304 0.984 . S
N299 H305 0.985 . S
C300 C294 1.379 . S
C300 C297 1.363 . S
C300 N298 1.356 . S
C301 C295 1.363 . S
C301 C296 1.379 . S
C301 N299 1.356 . S
N302 C294 1.356 . S
N302 H308 0.984 . S
N302 H309 0.984 . S
N303 C296 1.356 . S
N303 H306 0.984 . S
N303 H307 0.985 . S
H304 N299 0.984 . S
H305 N299 0.985 . S
H306 N303 0.984 . S
H307 N303 0.985 . S
H308 N302 0.984 . S
H309 N302 0.984 . S
H310 N298 0.984 . S
H311 N298 0.985 . S
C312 C313 1.363 . S
C312 C318 1.379 . S
C312 N320 1.356 . S
C313 C312 1.363 . S
C313 C319 1.363 . S
C314 C315 1.363 . S
C314 C319 1.379 . S
C314 N321 1.356 . S
C315 C314 1.363 . S
C315 C318 1.363 . S
N316 C318 1.356 . S
N316 H328 0.984 . S
N316 H329 0.985 . S
N317 C319 1.356 . S
N317 H322 0.984 . S
N317 H323 0.985 . S
C318 C312 1.379 . S
C318 C315 1.363 . S
C318 N316 1.356 . S
C319 C313 1.363 . S
C319 C314 1.379 . S
C319 N317 1.356 . S
N320 C312 1.356 . S
N320 H326 0.984 . S
N320 H327 0.984 . S
N321 C314 1.356 . S
N321 H324 0.984 . S
N321 H325 0.985 . S
H322 N317 0.984 . S
H323 N317 0.985 . S
H324 N321 0.984 . S
H325 N321 0.985 . S
H326 N320 0.984 . S
H327 N320 0.984 . S
H328 N316 0.984 . S
H329 N316 0.985 . S
C330 C331 1.363 . S
C330 C336 1.379 . S
C330 N338 1.356 . S
C331 C330 1.363 . S
C331 C337 1.363 1_554 S
C332 C333 1.363 . S
C332 C337 1.379 . S
C332 N339 1.356 . S
C333 C332 1.363 . S
C333 C336 1.363 1_556 S
N334 C336 1.356 . S
N334 H346 0.984 . S
N334 H347 0.985 . S
N335 C337 1.356 . S
N335 H340 0.984 . S
N335 H341 0.985 . S
C336 C330 1.379 . S
C336 C333 1.363 1_554 S
C336 N334 1.356 . S
C337 C331 1.363 1_556 S
C337 C332 1.379 . S
C337 N335 1.356 . S
N338 C330 1.356 . S
N338 H344 0.984 . S
N338 H345 0.984 . S
N339 C332 1.356 . S
N339 H342 0.984 . S
N339 H343 0.985 . S
H340 N335 0.984 . S
H341 N335 0.985 . S
H342 N339 0.984 . S
H343 N339 0.985 . S
H344 N338 0.984 . S
H345 N338 0.984 . S
H346 N334 0.984 . S
H347 N334 0.985 . S
C348 C349 1.363 . S
C348 C354 1.379 . S
C348 N356 1.356 . S
C349 C348 1.363 . S
C349 C355 1.363 . S
C350 C351 1.363 . S
C350 C355 1.379 . S
C350 N357 1.356 . S
C351 C350 1.363 . S
C351 C354 1.363 . S
N352 C354 1.356 . S
N352 H364 0.984 . S
N352 H365 0.985 . S
N353 C355 1.356 . S
N353 H358 0.984 . S
N353 H359 0.985 . S
C354 C348 1.379 . S
C354 C351 1.363 . S
C354 N352 1.356 . S
C355 C349 1.363 . S
C355 C350 1.379 . S
C355 N353 1.356 . S
N356 C348 1.356 . S
N356 H362 0.984 . S
N356 H363 0.984 . S
N357 C350 1.356 . S
N357 H360 0.984 . S
N357 H361 0.985 . S
H358 N353 0.984 . S
H359 N353 0.985 . S
H360 N357 0.984 . S
H361 N357 0.985 . S
H362 N356 0.984 . S
H363 N356 0.984 . S
H364 N352 0.984 . S
H365 N352 0.985 . S
C366 C367 1.363 . S
C366 C372 1.379 . S
C366 N374 1.356 . S
C367 C366 1.363 . S
C367 C373 1.363 . S
C368 C369 1.363 . S
C368 C373 1.379 . S
C368 N375 1.356 . S
C369 C368 1.363 . S
C369 C372 1.363 . S
N370 C372 1.356 . S
N370 H382 0.984 . S
N370 H383 0.985 . S
N371 C373 1.356 . S
N371 H376 0.984 . S
N371 H377 0.985 . S
C372 C366 1.379 . S
C372 C369 1.363 . S
C372 N370 1.356 . S
C373 C367 1.363 . S
C373 C368 1.379 . S
C373 N371 1.356 . S
N374 C366 1.356 . S
N374 H380 0.984 . S
N374 H381 0.984 . S
N375 C368 1.356 . S
N375 H378 0.984 . S
N375 H379 0.985 . S
H376 N371 0.984 . S
H377 N371 0.985 . S
H378 N375 0.984 . S
H379 N375 0.985 . S
H380 N374 0.984 . S
H381 N374 0.984 . S
H382 N370 0.984 . S
H383 N370 0.985 . S
C384 C385 1.363 . S
C384 C390 1.379 . S
C384 N392 1.356 . S
C385 C384 1.363 . S
C385 C391 1.363 . S
C386 C387 1.363 . S
C386 C391 1.379 . S
C386 N393 1.356 . S
C387 C386 1.363 . S
C387 C390 1.363 . S
N388 C390 1.356 . S
N388 H400 0.984 . S
N388 H401 0.985 . S
N389 C391 1.356 . S
N389 H394 0.984 . S
N389 H395 0.985 . S
C390 C384 1.379 . S
C390 C387 1.363 . S
C390 N388 1.356 . S
C391 C385 1.363 . S
C391 C386 1.379 . S
C391 N389 1.356 . S
N392 C384 1.356 . S
N392 H398 0.984 . S
N392 H399 0.984 . S
N393 C386 1.356 . S
N393 H396 0.984 . S
N393 H397 0.985 . S
H394 N389 0.984 . S
H395 N389 0.985 . S
H396 N393 0.984 . S
H397 N393 0.985 . S
H398 N392 0.984 . S
H399 N392 0.984 . S
H400 N388 0.984 . S
H401 N388 0.985 . S
C402 C403 1.363 . S
C402 C408 1.377 1_655 S
C402 N410 1.356 . S
C403 C402 1.363 . S
C403 C409 1.372 . S
C404 C405 1.363 . S
C404 C409 1.377 1_455 S
C404 N411 1.356 . S
C405 C404 1.363 . S
C405 C408 1.372 . S
N406 C408 1.352 . S
N406 H418 0.981 1_455 S
N406 H419 0.985 . S
N407 C409 1.352 . S
N407 H412 0.984 . S
N407 H413 0.981 1_655 S
C408 C402 1.377 1_455 S
C408 C405 1.372 . S
C408 N406 1.352 . S
C409 C403 1.372 . S
C409 C404 1.377 1_655 S
C409 N407 1.352 . S
N410 C402 1.356 . S
N410 H416 0.984 . S
N410 H417 0.984 . S
N411 C404 1.356 . S
N411 H414 0.984 . S
N411 H415 0.985 . S
H412 N407 0.984 . S
H413 N407 0.981 1_455 S
H414 N411 0.984 . S
H415 N411 0.985 . S
H416 N410 0.984 . S
H417 N410 0.984 . S
H418 N406 0.981 1_655 S
H419 N406 0.985 . S
C420 C421 1.363 . S
C420 C426 1.379 . S
C420 N428 1.356 . S
C421 C420 1.363 . S
C421 C427 1.363 1_565 S
C422 C423 1.363 . S
C422 C427 1.379 . S
C422 N429 1.356 . S
C423 C422 1.363 . S
C423 C426 1.363 1_545 S
N424 C426 1.356 . S
N424 H436 0.984 . S
N424 H437 0.985 . S
N425 C427 1.356 . S
N425 H430 0.984 . S
N425 H431 0.985 . S
C426 C420 1.379 . S
C426 C423 1.363 1_565 S
C426 N424 1.356 . S
C427 C421 1.363 1_545 S
C427 C422 1.379 . S
C427 N425 1.356 . S
N428 C420 1.356 . S
N428 H434 0.984 . S
N428 H435 0.984 . S
N429 C422 1.356 . S
N429 H432 0.984 . S
N429 H433 0.985 . S
H430 N425 0.984 . S
H431 N425 0.985 . S
H432 N429 0.984 . S
H433 N429 0.985 . S
H434 N428 0.984 . S
H435 N428 0.984 . S
H436 N424 0.984 . S
H437 N424 0.985 . S
C438 C439 1.363 . S
C438 C444 1.379 . S
C438 N446 1.356 . S
C439 C438 1.363 . S
C439 C445 1.363 . S
C440 C441 1.363 . S
C440 C445 1.379 . S
C440 N447 1.356 . S
C441 C440 1.363 . S
C441 C444 1.363 . S
N442 C444 1.356 . S
N442 H454 0.984 . S
N442 H455 0.985 . S
N443 C445 1.356 . S
N443 H448 0.984 . S
N443 H449 0.985 . S
C444 C438 1.379 . S
C444 C441 1.363 . S
C444 N442 1.356 . S
C445 C439 1.363 . S
C445 C440 1.379 . S
C445 N443 1.356 . S
N446 C438 1.356 . S
N446 H452 0.984 . S
N446 H453 0.984 . S
N447 C440 1.356 . S
N447 H450 0.984 . S
N447 H451 0.985 . S
H448 N443 0.984 . S
H449 N443 0.985 . S
H450 N447 0.984 . S
H451 N447 0.985 . S
H452 N446 0.984 . S
H453 N446 0.984 . S
H454 N442 0.984 . S
H455 N442 0.985 . S
C456 C457 1.363 1_655 S
C456 C462 1.379 . S
C456 N464 1.356 . S
C457 C456 1.363 1_455 S
C457 C463 1.363 . S
C458 C459 1.363 1_455 S
C458 C463 1.379 . S
C458 N465 1.356 . S
C459 C458 1.363 1_655 S
C459 C462 1.363 . S
N460 C462 1.356 . S
N460 H472 0.984 . S
N460 H473 0.985 . S
N461 C463 1.356 . S
N461 H466 0.984 . S
N461 H467 0.985 . S
C462 C456 1.379 . S
C462 C459 1.363 . S
C462 N460 1.356 . S
C463 C457 1.363 . S
C463 C458 1.379 . S
C463 N461 1.356 . S
N464 C456 1.356 . S
N464 H470 0.984 . S
N464 H471 0.984 1_655 S
N465 C458 1.356 . S
N465 H468 0.984 1_455 S
N465 H469 0.985 . S
H466 N461 0.984 . S
H467 N461 0.985 . S
H468 N465 0.984 1_655 S
H469 N465 0.985 . S
H470 N464 0.984 . S
H471 N464 0.984 1_455 S
H472 N460 0.984 . S
H473 N460 0.985 . S
C474 C475 1.363 . S
C474 C480 1.379 . S
C474 N482 1.356 . S
C475 C474 1.363 . S
C475 C481 1.363 1_565 S
C476 C477 1.363 . S
C476 C481 1.379 . S
C476 N483 1.356 . S
C477 C476 1.363 . S
C477 C480 1.363 1_545 S
N478 C480 1.356 . S
N478 H490 0.984 . S
N478 H491 0.985 . S
N479 C481 1.356 . S
N479 H484 0.984 . S
N479 H485 0.985 . S
C480 C474 1.379 . S
C480 C477 1.363 1_565 S
C480 N478 1.356 . S
C481 C475 1.363 1_545 S
C481 C476 1.379 . S
C481 N479 1.356 . S
N482 C474 1.356 . S
N482 H488 0.984 . S
N482 H489 0.984 . S
N483 C476 1.356 . S
N483 H486 0.984 . S
N483 H487 0.985 . S
H484 N479 0.984 . S
H485 N479 0.985 . S
H486 N483 0.984 . S
H487 N483 0.985 . S
H488 N482 0.984 . S
H489 N482 0.984 . S
H490 N478 0.984 . S
H491 N478 0.985 . S
C492 C493 1.363 . S
C492 C498 1.379 . S
C492 N500 1.356 . S
C493 C492 1.363 . S
C493 C499 1.363 . S
C494 C495 1.363 . S
C494 C499 1.379 . S
C494 N501 1.356 1_554 S
C495 C494 1.363 . S
C495 C498 1.363 . S
N496 C498 1.356 . S
N496 H508 0.984 . S
N496 H509 0.985 . S
N497 C499 1.356 1_556 S
N497 H502 0.984 . S
N497 H503 0.985 . S
C498 C492 1.379 . S
C498 C495 1.363 . S
C498 N496 1.356 . S
C499 C493 1.363 . S
C499 C494 1.379 . S
C499 N497 1.356 1_554 S
N500 C492 1.356 . S
N500 H506 0.984 . S
N500 H507 0.984 . S
N501 C494 1.356 1_556 S
N501 H504 0.984 . S
N501 H505 0.985 . S
H502 N497 0.984 . S
H503 N497 0.985 . S
H504 N501 0.984 . S
H505 N501 0.985 . S
H506 N500 0.984 . S
H507 N500 0.984 . S
H508 N496 0.984 . S
H509 N496 0.985 . S
C510 C511 1.363 1_655 S
C510 C516 1.379 . S
C510 N518 1.356 . S
C511 C510 1.363 1_455 S
C511 C517 1.363 . S
C512 C513 1.363 1_455 S
C512 C517 1.379 . S
C512 N519 1.356 . S
C513 C512 1.363 1_655 S
C513 C516 1.363 . S
N514 C516 1.356 . S
N514 H526 0.984 . S
N514 H527 0.985 . S
N515 C517 1.356 . S
N515 H520 0.984 . S
N515 H521 0.985 . S
C516 C510 1.379 . S
C516 C513 1.363 . S
C516 N514 1.356 . S
C517 C511 1.363 . S
C517 C512 1.379 . S
C517 N515 1.356 . S
N518 C510 1.356 . S
N518 H524 0.984 . S
N518 H525 0.984 . S
N519 C512 1.356 . S
N519 H522 0.984 . S
N519 H523 0.985 . S
H520 N515 0.984 . S
H521 N515 0.985 . S
H522 N519 0.984 . S
H523 N519 0.985 . S
H524 N518 0.984 . S
H525 N518 0.984 . S
H526 N514 0.984 . S
H527 N514 0.985 . S
C528 C529 1.363 1_545 S
C528 C534 1.379 . S
C528 N536 1.356 . S
C529 C528 1.363 1_565 S
C529 C535 1.363 . S
C530 C531 1.363 1_565 S
C530 C535 1.379 . S
C530 N537 1.356 . S
C531 C530 1.363 1_545 S
C531 C534 1.363 . S
N532 C534 1.356 . S
N532 H544 0.984 . S
N532 H545 0.985 . S
N533 C535 1.356 . S
N533 H538 0.984 . S
N533 H539 0.985 . S
C534 C528 1.379 . S
C534 C531 1.363 . S
C534 N532 1.356 . S
C535 C529 1.363 . S
C535 C530 1.379 . S
C535 N533 1.356 . S
N536 C528 1.356 . S
N536 H542 0.984 . S
N536 H543 0.984 . S
N537 C530 1.356 . S
N537 H540 0.984 . S
N537 H541 0.985 . S
H538 N533 0.984 . S
H539 N533 0.985 . S
H540 N537 0.984 . S
H541 N537 0.985 . S
H542 N536 0.984 . S
H543 N536 0.984 . S
H544 N532 0.984 . S
H545 N532 0.985 . S
C546 C547 1.363 . S
C546 C552 1.379 . S
C546 N554 1.356 . S
C547 C546 1.363 . S
C547 C553 1.363 . S
C548 C549 1.363 . S
C548 C553 1.379 . S
C548 N555 1.356 . S
C549 C548 1.363 . S
C549 C552 1.363 . S
N550 C552 1.356 . S
N550 H562 0.984 . S
N550 H563 0.985 . S
N551 C553 1.356 . S
N551 H556 0.984 . S
N551 H557 0.985 . S
C552 C546 1.379 . S
C552 C549 1.363 . S
C552 N550 1.356 . S
C553 C547 1.363 . S
C553 C548 1.379 . S
C553 N551 1.356 . S
N554 C546 1.356 . S
N554 H560 0.984 . S
N554 H561 0.984 . S
N555 C548 1.356 . S
N555 H558 0.984 . S
N555 H559 0.985 . S
H556 N551 0.984 . S
H557 N551 0.985 . S
H558 N555 0.984 . S
H559 N555 0.985 . S
H560 N554 0.984 . S
H561 N554 0.984 . S
H562 N550 0.984 . S
H563 N550 0.985 . S
C564 C565 1.363 . S
C564 C570 1.379 . S
C564 N572 1.356 . S
C565 C564 1.363 . S
C565 C571 1.363 1_655 S
C566 C567 1.363 . S
C566 C571 1.379 . S
C566 N573 1.356 1_556 S
C567 C566 1.363 . S
C567 C570 1.363 1_455 S
N568 C570 1.356 . S
N568 H580 0.984 . S
N568 H581 0.985 . S
N569 C571 1.356 1_554 S
N569 H574 0.984 . S
N569 H575 0.985 . S
C570 C564 1.379 . S
C570 C567 1.363 1_655 S
C570 N568 1.356 . S
C571 C565 1.363 1_455 S
C571 C566 1.379 . S
C571 N569 1.356 1_556 S
N572 C564 1.356 . S
N572 H578 0.984 . S
N572 H579 0.984 . S
N573 C566 1.356 1_554 S
N573 H576 0.984 . S
N573 H577 0.985 . S
H574 N569 0.984 . S
H575 N569 0.985 . S
H576 N573 0.984 . S
H577 N573 0.985 . S
H578 N572 0.984 . S
H579 N572 0.984 . S
H580 N568 0.984 . S
H581 N568 0.985 . S
C582 C583 1.363 . S
C582 C588 1.379 . S
C582 N590 1.356 . S
C583 C582 1.363 . S
C583 C589 1.363 1_545 S
C584 C585 1.363 . S
C584 C589 1.379 . S
C584 N591 1.356 . S
C585 C584 1.363 . S
C585 C588 1.363 1_565 S
N586 C588 1.356 . S
N586 H598 0.984 . S
N586 H599 0.985 . S
N587 C589 1.356 . S
N587 H592 0.984 . S
N587 H593 0.985 . S
C588 C582 1.379 . S
C588 C585 1.363 1_545 S
C588 N586 1.356 . S
C589 C583 1.363 1_565 S
C589 C584 1.379 . S
C589 N587 1.356 . S
N590 C582 1.356 . S
N590 H596 0.984 . S
N590 H597 0.984 . S
N591 C584 1.356 . S
N591 H594 0.984 . S
N591 H595 0.985 . S
H592 N587 0.984 . S
H593 N587 0.985 . S
H594 N591 0.984 . S
H595 N591 0.985 . S
H596 N590 0.984 . S
H597 N590 0.984 . S
H598 N586 0.984 . S
H599 N586 0.985 . S
C169 C7 1.478 . S
C171 C133 1.478 . S
C187 C21 1.478 . S
C189 C147 1.478 . S
C205 C35 1.478 . S
C207 C161 1.478 . S
C223 C49 1.478 . S
C225 C91 1.478 . S
C241 C105 1.478 . S
C243 C63 1.478 . S
C259 C119 1.478 . S
C261 C77 1.478 . S
C277 C146 1.481 . S
C279 C6 1.481 . S
C295 C20 1.481 . S
C297 C160 1.481 . S
C313 C34 1.481 . S
C315 C90 1.481 . S
C331 C48 1.481 . S
C333 C104 1.481 . S
C349 C62 1.481 . S
C351 C118 1.481 . S
C367 C76 1.481 . S
C369 C132 1.481 . S
C385 C134 1.290 . S
C387 C8 1.290 . S
C403 C22 1.290 . S
C405 C148 1.290 . S
C421 C36 1.290 . S
C423 C162 1.290 . S
C439 C92 1.290 . S
C441 C50 1.290 . S
C457 C64 1.290 . S
C459 C106 1.290 . S
C475 C120 1.290 . S
C477 C78 1.290 . S
C493 C9 1.490 . S
C495 C51 1.490 . S
C511 C65 1.490 . S
C513 C23 1.490 . S
C529 C37 1.490 . S
C531 C79 1.490 . S
C547 C93 1.490 . S
C549 C135 1.490 . S
C565 C107 1.490 . S
C567 C149 1.490 . S
C583 C163 1.490 . S
C585 C121 1.490 . S
