# Generated by pormake.
# Topology uke, (4)-cn, num edge types: 1
# Building blocks:
#     Node 0, Type 0, BuildingBlock: QUQFOY_clean_sbu_3, # of connection points: 4
#     Node 1, Type 0, BuildingBlock: QUQFOY_clean_sbu_3, # of connection points: 4
#     Node 2, Type 0, BuildingBlock: QUQFOY_clean_sbu_3, # of connection points: 4
#     Node 3, Type 0, BuildingBlock: QUQFOY_clean_sbu_3, # of connection points: 4
#     Node 4, Type 0, BuildingBlock: QUQFOY_clean_sbu_3, # of connection points: 4
#     Node 5, Type 0, BuildingBlock: QUQFOY_clean_sbu_3, # of connection points: 4
#     Node 6, Type 0, BuildingBlock: QUQFOY_clean_sbu_3, # of connection points: 4
#     Node 7, Type 0, BuildingBlock: QUQFOY_clean_sbu_3, # of connection points: 4
#     Node 8, Type 0, BuildingBlock: QUQFOY_clean_sbu_3, # of connection points: 4
#     Node 9, Type 0, BuildingBlock: QUQFOY_clean_sbu_3, # of connection points: 4
#     Node 10, Type 0, BuildingBlock: QUQFOY_clean_sbu_3, # of connection points: 4
#     Node 11, Type 0, BuildingBlock: QUQFOY_clean_sbu_3, # of connection points: 4
#     Node 12, Type 0, BuildingBlock: QUQFOY_clean_sbu_3, # of connection points: 4
#     Node 13, Type 0, BuildingBlock: QUQFOY_clean_sbu_3, # of connection points: 4
#     Node 14, Type 0, BuildingBlock: QUQFOY_clean_sbu_3, # of connection points: 4
#     Node 15, Type 0, BuildingBlock: QUQFOY_clean_sbu_3, # of connection points: 4
#     Node 16, Type 0, BuildingBlock: QUQFOY_clean_sbu_3, # of connection points: 4
#     Node 17, Type 0, BuildingBlock: QUQFOY_clean_sbu_3, # of connection points: 4
#     Node 18, Type 0, BuildingBlock: QUQFOY_clean_sbu_3, # of connection points: 4
#     Node 19, Type 0, BuildingBlock: QUQFOY_clean_sbu_3, # of connection points: 4
#     Node 20, Type 0, BuildingBlock: QUQFOY_clean_sbu_3, # of connection points: 4
#     Node 21, Type 0, BuildingBlock: QUQFOY_clean_sbu_3, # of connection points: 4
#     Node 22, Type 0, BuildingBlock: QUQFOY_clean_sbu_3, # of connection points: 4
#     Node 23, Type 0, BuildingBlock: QUQFOY_clean_sbu_3, # of connection points: 4
#     Node 24, Type 0, BuildingBlock: QUQFOY_clean_sbu_3, # of connection points: 4
#     Node 25, Type 0, BuildingBlock: QUQFOY_clean_sbu_3, # of connection points: 4
#     Node 26, Type 0, BuildingBlock: QUQFOY_clean_sbu_3, # of connection points: 4
#     Node 27, Type 0, BuildingBlock: QUQFOY_clean_sbu_3, # of connection points: 4
#     Node 28, Type 0, BuildingBlock: QUQFOY_clean_sbu_3, # of connection points: 4
#     Node 29, Type 0, BuildingBlock: QUQFOY_clean_sbu_3, # of connection points: 4
#     Node 30, Type 0, BuildingBlock: QUQFOY_clean_sbu_3, # of connection points: 4
#     Node 31, Type 0, BuildingBlock: QUQFOY_clean_sbu_3, # of connection points: 4
#     Edge 32, Type (0, 0), BuildingBlock: OJICUG_clean_linker_0, # of connection points: 2
#     Edge 33, Type (0, 0), BuildingBlock: OJICUG_clean_linker_0, # of connection points: 2
#     Edge 34, Type (0, 0), BuildingBlock: OJICUG_clean_linker_0, # of connection points: 2
#     Edge 35, Type (0, 0), BuildingBlock: OJICUG_clean_linker_0, # of connection points: 2
#     Edge 36, Type (0, 0), BuildingBlock: OJICUG_clean_linker_0, # of connection points: 2
#     Edge 37, Type (0, 0), BuildingBlock: OJICUG_clean_linker_0, # of connection points: 2
#     Edge 38, Type (0, 0), BuildingBlock: OJICUG_clean_linker_0, # of connection points: 2
#     Edge 39, Type (0, 0), BuildingBlock: OJICUG_clean_linker_0, # of connection points: 2
#     Edge 40, Type (0, 0), BuildingBlock: OJICUG_clean_linker_0, # of connection points: 2
#     Edge 41, Type (0, 0), BuildingBlock: OJICUG_clean_linker_0, # of connection points: 2
#     Edge 42, Type (0, 0), BuildingBlock: OJICUG_clean_linker_0, # of connection points: 2
#     Edge 43, Type (0, 0), BuildingBlock: OJICUG_clean_linker_0, # of connection points: 2
#     Edge 44, Type (0, 0), BuildingBlock: OJICUG_clean_linker_0, # of connection points: 2
#     Edge 45, Type (0, 0), BuildingBlock: OJICUG_clean_linker_0, # of connection points: 2
#     Edge 46, Type (0, 0), BuildingBlock: OJICUG_clean_linker_0, # of connection points: 2
#     Edge 47, Type (0, 0), BuildingBlock: OJICUG_clean_linker_0, # of connection points: 2
#     Edge 48, Type (0, 0), BuildingBlock: OJICUG_clean_linker_0, # of connection points: 2
#     Edge 49, Type (0, 0), BuildingBlock: OJICUG_clean_linker_0, # of connection points: 2
#     Edge 50, Type (0, 0), BuildingBlock: OJICUG_clean_linker_0, # of connection points: 2
#     Edge 51, Type (0, 0), BuildingBlock: OJICUG_clean_linker_0, # of connection points: 2
#     Edge 52, Type (0, 0), BuildingBlock: OJICUG_clean_linker_0, # of connection points: 2
#     Edge 53, Type (0, 0), BuildingBlock: OJICUG_clean_linker_0, # of connection points: 2
#     Edge 54, Type (0, 0), BuildingBlock: OJICUG_clean_linker_0, # of connection points: 2
#     Edge 55, Type (0, 0), BuildingBlock: OJICUG_clean_linker_0, # of connection points: 2
#     Edge 56, Type (0, 0), BuildingBlock: OJICUG_clean_linker_0, # of connection points: 2
#     Edge 57, Type (0, 0), BuildingBlock: OJICUG_clean_linker_0, # of connection points: 2
#     Edge 58, Type (0, 0), BuildingBlock: OJICUG_clean_linker_0, # of connection points: 2
#     Edge 59, Type (0, 0), BuildingBlock: OJICUG_clean_linker_0, # of connection points: 2
#     Edge 60, Type (0, 0), BuildingBlock: OJICUG_clean_linker_0, # of connection points: 2
#     Edge 61, Type (0, 0), BuildingBlock: OJICUG_clean_linker_0, # of connection points: 2
#     Edge 62, Type (0, 0), BuildingBlock: OJICUG_clean_linker_0, # of connection points: 2
#     Edge 63, Type (0, 0), BuildingBlock: OJICUG_clean_linker_0, # of connection points: 2
#     Edge 64, Type (0, 0), BuildingBlock: OJICUG_clean_linker_0, # of connection points: 2
#     Edge 65, Type (0, 0), BuildingBlock: OJICUG_clean_linker_0, # of connection points: 2
#     Edge 66, Type (0, 0), BuildingBlock: OJICUG_clean_linker_0, # of connection points: 2
#     Edge 67, Type (0, 0), BuildingBlock: OJICUG_clean_linker_0, # of connection points: 2
#     Edge 68, Type (0, 0), BuildingBlock: OJICUG_clean_linker_0, # of connection points: 2
#     Edge 69, Type (0, 0), BuildingBlock: OJICUG_clean_linker_0, # of connection points: 2
#     Edge 70, Type (0, 0), BuildingBlock: OJICUG_clean_linker_0, # of connection points: 2
#     Edge 71, Type (0, 0), BuildingBlock: OJICUG_clean_linker_0, # of connection points: 2
#     Edge 72, Type (0, 0), BuildingBlock: OJICUG_clean_linker_0, # of connection points: 2
#     Edge 73, Type (0, 0), BuildingBlock: OJICUG_clean_linker_0, # of connection points: 2
#     Edge 74, Type (0, 0), BuildingBlock: OJICUG_clean_linker_0, # of connection points: 2
#     Edge 75, Type (0, 0), BuildingBlock: OJICUG_clean_linker_0, # of connection points: 2
#     Edge 76, Type (0, 0), BuildingBlock: OJICUG_clean_linker_0, # of connection points: 2
#     Edge 77, Type (0, 0), BuildingBlock: OJICUG_clean_linker_0, # of connection points: 2
#     Edge 78, Type (0, 0), BuildingBlock: OJICUG_clean_linker_0, # of connection points: 2
#     Edge 79, Type (0, 0), BuildingBlock: OJICUG_clean_linker_0, # of connection points: 2
#     Edge 80, Type (0, 0), BuildingBlock: OJICUG_clean_linker_0, # of connection points: 2
#     Edge 81, Type (0, 0), BuildingBlock: OJICUG_clean_linker_0, # of connection points: 2
#     Edge 82, Type (0, 0), BuildingBlock: OJICUG_clean_linker_0, # of connection points: 2
#     Edge 83, Type (0, 0), BuildingBlock: OJICUG_clean_linker_0, # of connection points: 2
#     Edge 84, Type (0, 0), BuildingBlock: OJICUG_clean_linker_0, # of connection points: 2
#     Edge 85, Type (0, 0), BuildingBlock: OJICUG_clean_linker_0, # of connection points: 2
#     Edge 86, Type (0, 0), BuildingBlock: OJICUG_clean_linker_0, # of connection points: 2
#     Edge 87, Type (0, 0), BuildingBlock: OJICUG_clean_linker_0, # of connection points: 2
#     Edge 88, Type (0, 0), BuildingBlock: OJICUG_clean_linker_0, # of connection points: 2
#     Edge 89, Type (0, 0), BuildingBlock: OJICUG_clean_linker_0, # of connection points: 2
#     Edge 90, Type (0, 0), BuildingBlock: OJICUG_clean_linker_0, # of connection points: 2
#     Edge 91, Type (0, 0), BuildingBlock: OJICUG_clean_linker_0, # of connection points: 2
#     Edge 92, Type (0, 0), BuildingBlock: OJICUG_clean_linker_0, # of connection points: 2
#     Edge 93, Type (0, 0), BuildingBlock: OJICUG_clean_linker_0, # of connection points: 2
#     Edge 94, Type (0, 0), BuildingBlock: OJICUG_clean_linker_0, # of connection points: 2
#     Edge 95, Type (0, 0), BuildingBlock: OJICUG_clean_linker_0, # of connection points: 2
# Relax obj value: 0.079
# Max RMSD: 0.177
# Mean RMSD: 0.177
data_MOF--net-uke--node1-QUQFOY_clean_sbu_3--edge1-OJICUG_clean_linker_0
_symmetry_space_group_name_H-M    P1
_symmetry_Int_Tables_number       1
_symmetry_cell_setting            triclinic
loop_
_symmetry_equiv_pos_as_xyz
'x, y, z'
_cell_length_a     17.619534
_cell_length_b     85.543124
_cell_length_c     41.552954
_cell_angle_alpha  90.004101
_cell_angle_beta   90.066396
_cell_angle_gamma 90.027284
loop_
_atom_site_label
_atom_site_type_symbol
_atom_site_fract_x
_atom_site_fract_y
_atom_site_fract_z
_atom_type_partial_charge
C0 C 0.16341 -0.00194 0.24393 0.0
O1 O 0.21686 0.00792 0.24698 0.0
Cd2 Cd 0.18968 0.03549 0.23919 0.0
O3 O 0.09502 0.00263 0.24321 0.0
Cd4 Cd 0.01912 0.02598 0.24981 0.0
C5 C 0.0778 0.02981 0.1725 0.0
O6 O 0.09478 0.04698 0.27338 0.0
O7 O -0.00843 0.05306 0.24712 0.0
O8 O -0.0123 0.01602 0.30193 0.0
C9 C 0.04783 0.05742 0.26401 0.0
O10 O 0.14 0.0343 0.18509 0.0
C11 C 0.9164 0.01552 0.2976 0.0
O12 O 0.0217 0.02559 0.19005 0.0
O13 O 0.89174 0.01917 0.26966 0.0
C14 C -0.02394 0.18295 0.24749 0.0
O15 O 0.92251 0.17312 0.25068 0.0
Cd16 Cd -0.05089 0.14546 0.24358 0.0
O17 O 0.04444 0.17836 0.24716 0.0
Cd18 Cd 0.1203 0.15506 0.2545 0.0
C19 C 0.06142 0.15118 0.17713 0.0
O20 O 0.04484 0.13385 0.27721 0.0
O21 O 0.14857 0.12808 0.25108 0.0
O22 O 0.15185 0.16469 0.30697 0.0
C23 C 0.09191 0.12352 0.26746 0.0
O24 O -0.00069 0.14665 0.18968 0.0
C25 C 0.22308 0.16532 0.30254 0.0
O26 O 0.11754 0.15545 0.19468 0.0
O27 O 0.24748 0.16192 0.27444 0.0
C28 C 0.16146 0.18315 0.96853 0.0
O29 O 0.21504 0.17339 0.96483 0.0
Cd30 Cd 0.18828 0.14573 0.97152 0.0
O31 O 0.09316 0.1785 0.96894 0.0
Cd32 Cd 0.0185 0.15505 0.96078 0.0
C33 C 0.07641 0.15107 0.03812 0.0
O34 O 0.09397 0.13403 0.9372 0.0
O35 O -0.00893 0.12799 0.96369 0.0
O36 O -0.01224 0.16504 0.90854 0.0
C37 C 0.04694 0.12361 0.94665 0.0
O38 O 0.13862 0.14664 0.02553 0.0
C39 C 0.91637 0.16542 0.91261 0.0
O40 O 0.02028 0.1553 0.02057 0.0
O41 O 0.89141 0.16175 0.94048 0.0
C42 C -0.02751 -0.00186 0.96528 0.0
O43 O 0.91893 0.00793 0.96166 0.0
Cd44 Cd -0.05369 0.03564 0.96761 0.0
O45 O 0.04088 0.00272 0.96504 0.0
Cd46 Cd 0.1165 0.02591 0.95589 0.0
C47 C 0.06073 0.03001 0.03352 0.0
O48 O 0.04109 0.04718 0.93344 0.0
O49 O 0.14593 0.05284 0.95903 0.0
O50 O 0.14477 0.01605 0.90323 0.0
C51 C 0.08889 0.05746 0.94292 0.0
O52 O -0.00163 0.03457 0.0212 0.0
C53 C 0.21618 0.0153 0.90713 0.0
O54 O 0.11621 0.02567 0.01575 0.0
O55 O 0.2421 0.01873 0.93499 0.0
C56 C 0.72574 0.93264 0.7197 0.0
O57 O 0.67272 0.92269 0.71649 0.0
Cd58 Cd 0.7014 0.89521 0.72443 0.0
O59 O 0.79429 0.92818 0.72054 0.0
Cd60 Cd 0.87157 0.90502 0.71406 0.0
C61 C 0.81226 0.90134 0.79128 0.0
O62 O 0.79703 0.88391 0.69031 0.0
O63 O 0.89995 0.87795 0.71689 0.0
O64 O 0.90274 0.91509 0.66201 0.0
C65 C 0.84424 0.87353 0.69974 0.0
O66 O 0.75046 0.89667 0.77862 0.0
C67 C -0.02597 0.91566 0.66632 0.0
O68 O 0.86842 0.90559 0.7738 0.0
O69 O -0.0012 0.91201 0.69425 0.0
C70 C 0.91932 0.74808 0.71508 0.0
O71 O -0.02723 0.75795 0.71213 0.0
Cd72 Cd -0.0548 0.78561 0.7186 0.0
O73 O 0.85083 0.75259 0.71468 0.0
Cd74 Cd 0.77477 0.77577 0.70617 0.0
C75 C 0.82963 0.7798 0.78402 0.0
O76 O 0.85049 0.79716 0.68438 0.0
O77 O 0.74525 0.80267 0.70966 0.0
O78 O 0.74583 0.76628 0.65324 0.0
C79 C 0.8026 0.80738 0.69392 0.0
O80 O 0.89217 0.78439 0.77196 0.0
C81 C 0.67448 0.76545 0.65722 0.0
O82 O 0.77444 0.77544 0.76603 0.0
O83 O 0.64893 0.76867 0.68521 0.0
C84 C 0.72363 0.74843 -0.00595 0.0
O85 O 0.66985 0.75821 -0.00302 0.0
Cd86 Cd 0.69719 0.78577 -0.01082 0.0
O87 O 0.79185 0.75312 -0.00643 0.0
Cd88 Cd 0.86666 0.77661 0.0005 0.0
C89 C 0.80973 0.78015 0.92291 0.0
O90 O 0.79063 0.79763 0.02382 0.0
O91 O 0.89376 0.80369 -0.00248 0.0
O92 O 0.89802 0.76679 0.0528 0.0
C93 C 0.83779 0.80805 0.01451 0.0
O94 O 0.74722 0.78461 0.93518 0.0
C95 C -0.03067 0.76632 0.04856 0.0
O96 O 0.86556 0.77605 0.94077 0.0
O97 O -0.006 0.76994 0.02062 0.0
C98 C 0.91308 0.93375 -0.00086 0.0
O99 O -0.03332 0.92399 0.00295 0.0
Cd100 Cd 0.94009 0.89626 -0.00341 0.0
O101 O 0.84476 0.92912 -0.001 0.0
Cd102 Cd 0.76987 0.90581 0.00777 0.0
C103 C 0.82706 0.90184 0.9303 0.0
O104 O 0.84477 0.88441 0.03002 0.0
O105 O 0.74034 0.87894 0.00393 0.0
O106 O 0.74133 0.91537 0.0606 0.0
C107 C 0.79707 0.87421 0.0201 0.0
O108 O 0.88927 0.89734 0.94281 0.0
C109 C 0.66992 0.91612 0.05666 0.0
O110 O 0.77114 0.90614 0.94789 0.0
O111 O 0.64412 0.91285 0.0287 0.0
C112 C 0.16201 0.49817 0.74192 0.0
O113 O 0.21589 0.50792 0.74521 0.0
Cd114 Cd 0.18971 0.53557 0.73817 0.0
O115 O 0.09381 0.50286 0.7416 0.0
Cd116 Cd 0.01947 0.52633 0.74946 0.0
C117 C 0.07612 0.53021 0.67193 0.0
O118 O 0.09611 0.54728 0.77268 0.0
O119 O -0.00755 0.55342 0.74676 0.0
O120 O -0.01002 0.51638 0.80181 0.0
C121 C 0.04916 0.55775 0.76343 0.0
O122 O 0.13871 0.53459 0.68432 0.0
C123 C 0.91852 0.51591 0.79794 0.0
O124 O 0.02024 0.52604 0.68966 0.0
O125 O 0.89287 0.51958 0.77017 0.0
C126 C -0.02072 0.6834 0.74636 0.0
O127 O 0.92567 0.6736 0.74977 0.0
Cd128 Cd -0.04798 0.64593 0.74288 0.0
O129 O 0.04763 0.67879 0.74618 0.0
Cd130 Cd 0.12277 0.65543 0.75433 0.0
C131 C 0.06546 0.65174 0.67678 0.0
O132 O 0.04701 0.63418 0.77661 0.0
O133 O 0.15098 0.62845 0.7506 0.0
O134 O 0.15205 0.66498 0.8071 0.0
C135 C 0.09415 0.62386 0.76683 0.0
O136 O 0.0032 0.64722 0.6892 0.0
C137 C 0.22348 0.66559 0.80322 0.0
O138 O 0.12146 0.65595 0.69448 0.0
O139 O 0.24905 0.66224 0.77529 0.0
C140 C 0.16409 0.68361 0.46634 0.0
O141 O 0.21736 0.67375 0.46293 0.0
Cd142 Cd 0.18991 0.6462 0.47072 0.0
O143 O 0.0957 0.67904 0.46726 0.0
Cd144 Cd 0.02007 0.65559 0.46062 0.0
C145 C 0.07998 0.65188 0.53777 0.0
O146 O 0.0947 0.63447 0.43685 0.0
O147 O -0.00739 0.62854 0.46398 0.0
O148 O -0.01359 0.66539 0.40856 0.0
C149 C 0.04778 0.6241 0.44661 0.0
O150 O 0.14187 0.64737 0.52504 0.0
C151 C 0.91525 0.66576 0.41329 0.0
O152 O 0.02357 0.65608 0.52035 0.0
O153 O 0.8918 0.66217 0.44142 0.0
C154 C -0.03055 0.49864 0.46355 0.0
O155 O 0.91606 0.50849 0.46026 0.0
Cd156 Cd 0.94424 0.53614 0.4669 0.0
O157 O 0.03791 0.50318 0.46355 0.0
Cd158 Cd 0.11449 0.52631 0.45541 0.0
C159 C 0.05783 0.53031 0.53298 0.0
O160 O 0.03959 0.54767 0.43292 0.0
O161 O 0.14431 0.55322 0.45869 0.0
O162 O 0.14466 0.51653 0.40287 0.0
C163 C 0.0875 0.5579 0.44252 0.0
O164 O -0.00441 0.53493 0.52064 0.0
C165 C 0.21589 0.51569 0.40726 0.0
O166 O 0.11333 0.52596 0.51522 0.0
O167 O 0.24081 0.51908 0.4353 0.0
C168 C 0.72842 0.43246 0.21672 0.0
O169 O 0.67533 0.42256 0.21303 0.0
Cd170 Cd 0.70314 0.39494 0.21983 0.0
O171 O 0.79697 0.42799 0.21723 0.0
Cd172 Cd 0.87399 0.40487 0.20943 0.0
C173 C 0.81471 0.40079 0.28661 0.0
O174 O 0.79944 0.38371 0.18607 0.0
O175 O 0.90313 0.37787 0.21224 0.0
O176 O 0.9037 0.41498 0.15724 0.0
C177 C 0.84673 0.37336 0.19559 0.0
O178 O 0.75295 0.39616 0.27385 0.0
C179 C -0.02494 0.41564 0.16133 0.0
O180 O 0.87087 0.40516 0.26924 0.0
O181 O 0.00046 0.41204 0.18918 0.0
C182 C 0.9163 0.24787 0.21836 0.0
O183 O -0.03004 0.25767 0.21516 0.0
Cd184 Cd 0.94358 0.28536 0.22149 0.0
O185 O 0.84794 0.25247 0.21835 0.0
Cd186 Cd 0.77284 0.27585 0.21027 0.0
C187 C 0.83012 0.28019 0.28773 0.0
O188 O 0.84919 0.29679 0.18691 0.0
O189 O 0.7456 0.30292 0.21278 0.0
O190 O 0.74088 0.26591 0.15806 0.0
C191 C 0.80225 0.30725 0.19616 0.0
O192 O 0.89255 0.2846 0.27529 0.0
C193 C 0.6696 0.26549 0.16246 0.0
O194 O 0.77433 0.27585 0.27008 0.0
O195 O 0.64536 0.26913 0.19044 0.0
C196 C 0.72625 0.24857 0.49621 0.0
O197 O 0.67231 0.25829 0.49955 0.0
Cd198 Cd 0.69865 0.28599 0.49279 0.0
O199 O 0.79442 0.2533 0.49608 0.0
Cd200 Cd 0.86884 0.27674 0.50428 0.0
C201 C 0.81216 0.28062 0.42669 0.0
O202 O 0.7926 0.29782 0.52713 0.0
O203 O 0.8966 0.30377 0.50133 0.0
O204 O 0.89864 0.2669 0.55674 0.0
C205 C 0.83983 0.30821 0.51775 0.0
O206 O 0.74962 0.28503 0.439 0.0
C207 C -0.02997 0.26632 0.55274 0.0
O208 O 0.86797 0.27643 0.44448 0.0
O209 O -0.00462 0.26989 0.52489 0.0
C210 C 0.90954 0.43396 0.4949 0.0
O211 O -0.03673 0.42425 0.49899 0.0
Cd212 Cd 0.93792 0.3965 0.49281 0.0
O213 O 0.84134 0.42925 0.49433 0.0
Cd214 Cd 0.76745 0.40572 0.50272 0.0
C215 C 0.82713 0.4014 0.42568 0.0
O216 O 0.84289 0.38476 0.52657 0.0
O217 O 0.74021 0.37868 0.49984 0.0
O218 O 0.73596 0.41572 0.55484 0.0
C219 C 0.79616 0.37432 0.51691 0.0
O220 O 0.88919 0.39709 0.43861 0.0
C221 C 0.66461 0.41605 0.55053 0.0
O222 O 0.77058 0.40569 0.44291 0.0
O223 O 0.64007 0.41236 0.52258 0.0
C224 C 0.6623 -0.00214 0.74393 0.0
O225 O 0.7154 0.0078 0.74702 0.0
Cd226 Cd 0.68759 0.03531 0.73908 0.0
O227 O 0.59375 0.00232 0.74314 0.0
Cd228 Cd 0.51675 0.02554 0.74959 0.0
C229 C 0.57599 0.02928 0.67235 0.0
O230 O 0.59182 0.04665 0.77298 0.0
O231 O 0.48861 0.0526 0.7466 0.0
O232 O 0.48562 0.01563 0.80179 0.0
C233 C 0.54483 0.05704 0.76343 0.0
O234 O 0.63791 0.03388 0.68501 0.0
C235 C 0.41432 0.01507 0.7975 0.0
O236 O 0.51981 0.02502 0.68983 0.0
O237 O 0.38953 0.01863 0.76953 0.0
C238 C 0.47311 0.18247 0.74582 0.0
O239 O 0.41963 0.17259 0.74847 0.0
Cd240 Cd 0.44735 0.14499 0.74127 0.0
O241 O 0.54159 0.17795 0.74603 0.0
Cd242 Cd 0.61799 0.15475 0.75379 0.0
C243 C 0.56304 0.15104 0.67591 0.0
O244 O 0.54172 0.1335 0.77572 0.0
O245 O 0.64674 0.12777 0.75051 0.0
O246 O 0.6469 0.16433 0.80661 0.0
C247 C 0.58929 0.12318 0.76635 0.0
O248 O 0.50046 0.14643 0.68789 0.0
C249 C 0.71828 0.1651 0.80272 0.0
O250 O 0.61827 0.1553 0.69397 0.0
O251 O 0.74399 0.16178 0.77479 0.0
C252 C 0.66913 0.18354 0.46706 0.0
O253 O 0.72304 0.17383 0.46367 0.0
Cd254 Cd 0.69612 0.14618 0.47078 0.0
O255 O 0.60102 0.17879 0.46738 0.0
Cd256 Cd 0.52753 0.1552 0.45943 0.0
C257 C 0.58361 0.15141 0.53704 0.0
O258 O 0.60312 0.13398 0.43637 0.0
O259 O 0.49981 0.12822 0.4629 0.0
O260 O 0.49607 0.16484 0.40693 0.0
C261 C 0.55555 0.12368 0.44596 0.0
O262 O 0.64625 0.14703 0.52478 0.0
C263 C 0.42478 0.16534 0.41127 0.0
O264 O 0.52788 0.15557 0.51918 0.0
O265 O 0.40032 0.16184 0.4393 0.0
C266 C 0.47463 -0.00223 0.46432 0.0
O267 O 0.42112 0.00753 0.46031 0.0
Cd268 Cd 0.44881 0.0352 0.46694 0.0
O269 O 0.54292 0.00241 0.46464 0.0
Cd270 Cd 0.61772 0.02573 0.45587 0.0
C271 C 0.56089 0.02946 0.53335 0.0
O272 O 0.5436 0.04725 0.43338 0.0
O273 O 0.64761 0.05258 0.45994 0.0
O274 O 0.64635 0.01611 0.4031 0.0
C275 C 0.59166 0.05738 0.44336 0.0
O276 O 0.49875 0.03404 0.52087 0.0
C277 C 0.71774 0.01534 0.40707 0.0
O278 O 0.61676 0.02522 0.5157 0.0
O279 O 0.74348 0.01865 0.43502 0.0
C280 C 0.22434 0.93272 0.21989 0.0
O281 O 0.17098 0.92284 0.21674 0.0
Cd282 Cd 0.19903 0.89531 0.22443 0.0
O283 O 0.29275 0.92817 0.2206 0.0
Cd284 Cd 0.36904 0.90489 0.21387 0.0
C285 C 0.3105 0.90104 0.29118 0.0
O286 O 0.29388 0.88388 0.19003 0.0
O287 O 0.39705 0.87782 0.21636 0.0
O288 O 0.40025 0.91504 0.16188 0.0
C289 C 0.3411 0.87346 0.19928 0.0
O290 O 0.2484 0.8965 0.2786 0.0
C291 C 0.47154 0.91557 0.1662 0.0
O292 O 0.36652 0.90529 0.27362 0.0
O293 O 0.4963 0.91185 0.19408 0.0
C294 C 0.41132 0.74745 0.21526 0.0
O295 O 0.46539 0.75711 0.21148 0.0
Cd296 Cd 0.44072 0.78491 0.21775 0.0
O297 O 0.34325 0.75222 0.21545 0.0
Cd298 Cd 0.27039 0.77582 0.2067 0.0
C299 C 0.32808 0.7799 0.28414 0.0
O300 O 0.3463 0.79705 0.18422 0.0
O301 O 0.24252 0.80274 0.21049 0.0
O302 O 0.24036 0.76635 0.15394 0.0
C303 C 0.29914 0.80735 0.19415 0.0
O304 O 0.39054 0.78421 0.27159 0.0
C305 C 0.16896 0.7658 0.15798 0.0
O306 O 0.27192 0.77566 0.26657 0.0
O307 O 0.1438 0.76915 0.18599 0.0
C308 C 0.2265 0.74866 0.49328 0.0
O309 O 0.17328 0.75853 0.49669 0.0
Cd310 Cd 0.20132 0.78612 0.48983 0.0
O311 O 0.295 0.75318 0.49285 0.0
Cd312 Cd 0.37157 0.77643 0.50039 0.0
C313 C 0.31287 0.78053 0.42313 0.0
O314 O 0.29645 0.79737 0.52439 0.0
O315 O 0.39935 0.80353 0.49807 0.0
O316 O 0.40347 0.76616 0.55227 0.0
C317 C 0.34348 0.80783 0.51519 0.0
O318 O 0.25091 0.78508 0.43575 0.0
C319 C 0.47475 0.76574 0.54789 0.0
O320 O 0.36891 0.7762 0.44065 0.0
O321 O 0.49911 0.76954 0.52001 0.0
C322 C 0.41528 0.93338 0.49828 0.0
O323 O 0.46895 0.92362 0.50191 0.0
Cd324 Cd 0.44245 0.89587 0.49604 0.0
O325 O 0.34693 0.92876 0.49852 0.0
Cd326 Cd 0.27201 0.90548 0.5078 0.0
C327 C 0.32768 0.90129 0.43016 0.0
O328 O 0.34784 0.88422 0.53008 0.0
O329 O 0.24298 0.87854 0.50453 0.0
O330 O 0.24365 0.91519 0.56057 0.0
C331 C 0.30022 0.87393 0.52052 0.0
O332 O 0.39017 0.89681 0.44249 0.0
C333 C 0.17221 0.91589 0.5567 0.0
O334 O 0.27214 0.90562 0.44792 0.0
O335 O 0.14632 0.91251 0.5288 0.0
C336 C 0.66524 0.49732 0.24511 0.0
O337 O 0.71835 0.5072 0.24885 0.0
Cd338 Cd 0.69017 0.53473 0.2411 0.0
O339 O 0.59681 0.50185 0.24412 0.0
Cd340 Cd 0.52119 0.52523 0.25117 0.0
C341 C 0.5804 0.52889 0.17401 0.0
O342 O 0.59503 0.54657 0.27477 0.0
O343 O 0.49267 0.55221 0.24745 0.0
O344 O 0.4888 0.51546 0.30339 0.0
C345 C 0.54761 0.55682 0.26484 0.0
O346 O 0.64224 0.53348 0.18674 0.0
C347 C 0.41759 0.51495 0.29878 0.0
O348 O 0.5241 0.52467 0.19143 0.0
O349 O 0.39358 0.51845 0.27066 0.0
C350 C 0.4683 0.68276 0.24751 0.0
O351 O 0.4145 0.67299 0.25073 0.0
Cd352 Cd 0.44215 0.64532 0.24405 0.0
O353 O 0.53654 0.6781 0.24773 0.0
Cd354 Cd 0.61127 0.65476 0.25631 0.0
C355 C 0.55661 0.65102 0.17845 0.0
O356 O 0.53586 0.63328 0.27828 0.0
O357 O 0.6406 0.62789 0.25246 0.0
O358 O 0.64134 0.66426 0.30915 0.0
C359 C 0.58396 0.62312 0.26859 0.0
O360 O 0.49395 0.64647 0.19045 0.0
C361 C 0.71259 0.66508 0.30489 0.0
O362 O 0.61184 0.65526 0.19652 0.0
O363 O 0.73753 0.6618 0.27682 0.0
C364 C 0.66564 0.68304 0.969 0.0
O365 O 0.71947 0.67326 0.96626 0.0
Cd366 Cd 0.69256 0.64566 0.97383 0.0
O367 O 0.59739 0.67837 0.96919 0.0
Cd368 Cd 0.52257 0.6549 0.96187 0.0
C369 C 0.5781 0.65123 0.03961 0.0
O370 O 0.59931 0.63387 0.93912 0.0
O371 O 0.49538 0.62783 0.96486 0.0
O372 O 0.49247 0.66462 0.90934 0.0
C373 C 0.55215 0.62344 0.94838 0.0
O374 O 0.64085 0.64681 0.02751 0.0
C375 C 0.42108 0.66515 0.91331 0.0
O376 O 0.52255 0.65537 0.02163 0.0
O377 O 0.39578 0.6616 0.94118 0.0
C378 C 0.47836 0.49783 0.96466 0.0
O379 O 0.42504 0.50769 0.96132 0.0
Cd380 Cd 0.45247 0.53529 0.96886 0.0
O381 O 0.54682 0.50237 0.96508 0.0
Cd382 Cd 0.62292 0.52563 0.95746 0.0
C383 C 0.56571 0.52909 0.03499 0.0
O384 O 0.54787 0.54704 0.93537 0.0
O385 O 0.65207 0.55258 0.9615 0.0
O386 O 0.65119 0.51617 0.90458 0.0
C387 C 0.59535 0.55727 0.94529 0.0
O388 O 0.50358 0.53371 0.02258 0.0
C389 C 0.72263 0.51544 0.90836 0.0
O390 O 0.62163 0.5249 0.0173 0.0
O391 O 0.74872 0.51868 0.93629 0.0
C392 C 0.22027 0.43298 0.71503 0.0
O393 O 0.16666 0.42315 0.71204 0.0
Cd394 Cd 0.1944 0.39557 0.71988 0.0
O395 O 0.28857 0.42837 0.71545 0.0
Cd396 Cd 0.36422 0.40507 0.70834 0.0
C397 C 0.3075 0.40159 0.78599 0.0
O398 O 0.28909 0.38363 0.68613 0.0
O399 O 0.3935 0.37817 0.7122 0.0
O400 O 0.39379 0.41454 0.65558 0.0
C401 C 0.33692 0.37344 0.69592 0.0
O402 O 0.2451 0.397 0.77373 0.0
C403 C 0.46507 0.41541 0.65974 0.0
O404 O 0.36316 0.40576 0.76814 0.0
O405 O 0.49044 0.41215 0.68777 0.0
C406 C 0.41309 0.24752 0.71808 0.0
O407 O 0.46665 0.25733 0.71484 0.0
Cd408 Cd 0.43945 0.28492 0.72243 0.0
O409 O 0.34478 0.25213 0.71857 0.0
Cd410 Cd 0.27018 0.27562 0.71114 0.0
C411 C 0.32698 0.2792 0.78869 0.0
O412 O 0.34548 0.29689 0.68834 0.0
O413 O 0.2422 0.30259 0.71489 0.0
O414 O 0.23983 0.26608 0.65849 0.0
C415 C 0.29808 0.30717 0.69807 0.0
O416 O 0.38935 0.2837 0.77635 0.0
C417 C 0.16845 0.26556 0.66253 0.0
O418 O 0.27109 0.27503 0.77092 0.0
O419 O 0.14335 0.26894 0.69052 0.0
C420 C 0.22182 0.24803 -0.00202 0.0
O421 O 0.16843 0.25788 0.00115 0.0
Cd422 Cd 0.19642 0.28546 -0.0063 0.0
O423 O 0.29024 0.25259 -0.00229 0.0
Cd424 Cd 0.36631 0.27587 0.00523 0.0
C425 C 0.30934 0.27941 0.92762 0.0
O426 O 0.29138 0.29728 0.02756 0.0
O427 O 0.39535 0.3028 0.00133 0.0
O428 O 0.39695 0.26636 0.05793 0.0
C429 C 0.33902 0.3075 0.01773 0.0
O430 O 0.24711 0.28403 0.9399 0.0
C431 C 0.4682 0.26561 0.05363 0.0
O432 O 0.36506 0.2752 0.94545 0.0
O433 O 0.49298 0.26891 0.02555 0.0
C434 C 0.41677 0.43304 -0.0057 0.0
O435 O 0.47002 0.42316 -0.00244 0.0
Cd436 Cd 0.44136 0.39558 -0.00927 0.0
O437 O 0.34824 0.42853 -0.0057 0.0
Cd438 Cd 0.27209 0.40533 0.00261 0.0
C439 C 0.32701 0.40146 0.9249 0.0
O440 O 0.34731 0.38405 0.02532 0.0
O441 O 0.24289 0.37835 -0.00052 0.0
O442 O 0.24352 0.41517 0.05522 0.0
C443 C 0.29939 0.37377 0.01597 0.0
O444 O 0.38942 0.39685 0.93708 0.0
C445 C 0.1721 0.41585 0.05136 0.0
O446 O 0.27171 0.40576 0.94281 0.0
O447 O 0.14622 0.4124 0.02351 0.0
C448 C -0.0009 0.02926 0.08768 0.0
C449 C 0.06594 0.0294 0.06904 0.0
H450 H -0.04979 0.02907 0.1349 0.0
C451 C 0.13636 0.02919 0.08472 0.0
H452 H 0.94376 0.02926 0.0763 0.0
C453 C 0.13984 0.02926 0.11834 0.0
C454 C 0.07297 0.02929 0.13697 0.0
H455 H 0.1887 0.02928 0.07107 0.0
H456 H 0.19515 0.02929 0.12974 0.0
C457 C 0.00258 0.02908 0.12127 0.0
C458 C 0.00176 0.15186 0.08947 0.0
C459 C 0.07193 0.15163 0.07366 0.0
H460 H 0.94363 0.15178 0.13456 0.0
C461 C 0.13906 0.15173 0.09217 0.0
H462 H -0.0508 0.15181 0.07591 0.0
C463 C 0.13609 0.1519 0.12578 0.0
C464 C 0.06592 0.15172 0.14159 0.0
H465 H 0.19422 0.1517 0.08069 0.0
H466 H 0.18865 0.15187 0.13934 0.0
C467 C -0.00121 0.15178 0.12307 0.0
C468 C 0.75221 0.90231 0.87887 0.0
C469 C 0.82238 0.90236 0.89476 0.0
H470 H 0.69418 0.9018 0.83369 0.0
C471 C 0.88951 0.90259 0.87632 0.0
H472 H 0.69967 0.90215 0.89238 0.0
C473 C 0.88659 0.90257 0.84272 0.0
C474 C 0.81648 0.90207 0.82682 0.0
H475 H -0.05534 0.90279 0.88787 0.0
H476 H 0.93918 0.90264 0.82925 0.0
C477 C 0.7493 0.90204 0.84525 0.0
C478 C 0.88597 0.77917 0.87204 0.0
C479 C 0.81526 0.77949 0.88741 0.0
H480 H -0.05429 0.77913 0.82734 0.0
C481 C 0.74878 0.77939 0.86847 0.0
H482 H 0.93806 0.77922 0.88591 0.0
C483 C 0.75294 0.77915 0.83487 0.0
C484 C 0.82369 0.77927 0.81952 0.0
H485 H 0.69323 0.77948 0.87962 0.0
H486 H 0.7009 0.7792 0.82097 0.0
C487 C 0.89014 0.77919 0.83847 0.0
C488 C 0.00023 0.52958 0.62083 0.0
C489 C 0.07078 0.52968 0.63641 0.0
H490 H 0.94103 0.52984 0.57593 0.0
C491 C 0.13747 0.5295 0.61767 0.0
H492 H -0.052 0.5297 0.63455 0.0
C493 C 0.13369 0.52939 0.58407 0.0
C494 C 0.06315 0.52972 0.5685 0.0
H495 H 0.19289 0.52942 0.62898 0.0
H496 H 0.18592 0.52936 0.57035 0.0
C497 C -0.00354 0.52973 0.58723 0.0
C498 C 0.0029 0.65266 0.62278 0.0
C499 C 0.07007 0.65241 0.64126 0.0
H500 H -0.04686 0.65288 0.57568 0.0
C501 C 0.14021 0.6525 0.62542 0.0
H502 H -0.05223 0.65274 0.63429 0.0
C503 C 0.14307 0.6524 0.59179 0.0
C504 C 0.07585 0.65246 0.57332 0.0
H505 H 0.19279 0.65233 0.63895 0.0
H506 H 0.19817 0.65228 0.58026 0.0
C507 C 0.00576 0.65281 0.58918 0.0
C508 C 0.7534 0.40172 0.37401 0.0
C509 C 0.82327 0.40175 0.39012 0.0
H510 H 0.69612 0.40126 0.32867 0.0
C511 C 0.89075 0.40189 0.37189 0.0
H512 H 0.70059 0.40163 0.38733 0.0
C513 C 0.8884 0.40186 0.33827 0.0
C514 C 0.81854 0.40143 0.32216 0.0
H515 H -0.05432 0.40205 0.38362 0.0
H516 H 0.94121 0.40189 0.32495 0.0
C517 C 0.75106 0.40144 0.34039 0.0
C518 C 0.7544 0.27963 0.33881 0.0
C519 C 0.8249 0.27982 0.32326 0.0
H520 H 0.69529 0.27988 0.38367 0.0
C521 C 0.89164 0.27985 0.34204 0.0
H522 H 0.70213 0.27959 0.32506 0.0
C523 C 0.88794 0.27983 0.37564 0.0
C524 C 0.81743 0.28004 0.39117 0.0
H525 H -0.05296 0.27986 0.33076 0.0
H526 H 0.94021 0.27994 0.38939 0.0
C527 C 0.7507 0.27987 0.3724 0.0
C528 C 0.63873 0.02868 0.61835 0.0
C529 C 0.5716 0.02868 0.63681 0.0
H530 H 0.68827 0.02873 0.57121 0.0
C531 C 0.50143 0.0284 0.62093 0.0
H532 H 0.69389 0.02875 0.6299 0.0
C533 C 0.49843 0.02858 0.58733 0.0
C534 C 0.56554 0.02878 0.56887 0.0
H535 H 0.44887 0.02837 0.63443 0.0
H536 H 0.44326 0.02856 0.5758 0.0
C537 C 0.63574 0.0286 0.58473 0.0
C538 C 0.63988 0.15201 0.62513 0.0
C539 C 0.56906 0.15173 0.64042 0.0
H540 H 0.69982 0.15199 0.58044 0.0
C541 C 0.5027 0.15184 0.62142 0.0
H542 H 0.69187 0.15195 0.63907 0.0
C543 C 0.50703 0.15204 0.58785 0.0
C544 C 0.57783 0.15189 0.57254 0.0
H545 H 0.44708 0.15177 0.6325 0.0
H546 H 0.45502 0.15201 0.57393 0.0
C547 C 0.64421 0.15196 0.59154 0.0
C548 C 0.38919 0.90199 0.37599 0.0
C549 C 0.32237 0.90179 0.39464 0.0
H550 H 0.43805 0.9021 0.32877 0.0
C551 C 0.25193 0.9018 0.37897 0.0
H552 H 0.44454 0.90212 0.38736 0.0
C553 C 0.24843 0.9016 0.34535 0.0
C554 C 0.3153 0.90164 0.32671 0.0
H555 H 0.19962 0.90167 0.39264 0.0
H556 H 0.19312 0.90144 0.33395 0.0
C557 C 0.38568 0.90204 0.3424 0.0
C558 C 0.3874 0.77938 0.37181 0.0
C559 C 0.31725 0.77991 0.3876 0.0
H560 H 0.44561 0.77907 0.32675 0.0
C561 C 0.25013 0.77999 0.36906 0.0
H562 H 0.43995 0.77928 0.38537 0.0
C563 C 0.25314 0.77967 0.33545 0.0
C564 C 0.32335 0.77953 0.31967 0.0
H565 H 0.19497 0.78025 0.38053 0.0
H566 H 0.20063 0.77983 0.32187 0.0
C567 C 0.39043 0.77932 0.33821 0.0
C568 C 0.64049 0.52821 0.08641 0.0
C569 C 0.57033 0.52833 0.07052 0.0
H570 H 0.6985 0.52843 0.13162 0.0
C571 C 0.50318 0.52807 0.08894 0.0
H572 H 0.69305 0.52839 0.07292 0.0
C573 C 0.50608 0.52791 0.12254 0.0
C574 C 0.57619 0.52827 0.13846 0.0
H575 H 0.44804 0.528 0.07739 0.0
H576 H 0.45348 0.52784 0.13601 0.0
C577 C 0.64339 0.52831 0.12004 0.0
C578 C 0.49654 0.65173 0.1239 0.0
C579 C 0.56279 0.65166 0.14297 0.0
H580 H 0.44918 0.65186 0.07634 0.0
C581 C 0.63369 0.65195 0.12776 0.0
H582 H 0.44085 0.65166 0.13491 0.0
C583 C 0.63826 0.65188 0.09418 0.0
C584 C 0.572 0.65177 0.07511 0.0
H585 H 0.6856 0.65191 0.14176 0.0
H586 H 0.69394 0.65191 0.08316 0.0
C587 C 0.5011 0.65192 0.09033 0.0
C588 C 0.38376 0.40239 0.83697 0.0
C589 C 0.31308 0.40222 0.8215 0.0
H590 H 0.44336 0.40215 0.88177 0.0
C591 C 0.24655 0.40233 0.84034 0.0
H592 H 0.43587 0.40233 0.82316 0.0
C593 C 0.25062 0.40241 0.87393 0.0
C594 C 0.32131 0.40213 0.8894 0.0
H595 H 0.19103 0.40235 0.82911 0.0
H596 H 0.19852 0.40238 0.88775 0.0
C597 C 0.38783 0.40222 0.87055 0.0
C598 C 0.38859 0.27847 0.84295 0.0
C599 C 0.32182 0.27859 0.82421 0.0
H600 H 0.43726 0.27844 0.89029 0.0
C601 C 0.25134 0.27844 0.83977 0.0
H602 H 0.44396 0.27844 0.83166 0.0
C603 C 0.24772 0.27862 0.87337 0.0
C604 C 0.31449 0.27871 0.89212 0.0
H605 H 0.19904 0.27851 0.82604 0.0
H606 H 0.19234 0.2787 0.88467 0.0
C607 C 0.38496 0.2784 0.87655 0.0
C608 C 0.26847 0.96016 0.22908 0.0
C609 C 0.20821 0.9495 0.22507 0.0
H610 H 0.30185 -0.01621 0.23856 0.0
C611 C 0.13342 0.9549 0.22802 0.0
H612 H 0.32695 0.95639 0.22712 0.0
C613 C 0.1192 -0.02939 0.23483 0.0
C614 C 0.17946 -0.01872 0.23881 0.0
H615 H 0.08582 0.94698 0.22534 0.0
H616 H 0.06072 -0.02561 0.23678 0.0
C617 C 0.25425 -0.02413 0.23588 0.0
C618 C 0.87165 0.22057 0.22899 0.0
C619 C 0.93208 0.23117 0.22481 0.0
H620 H 0.83783 0.19712 0.23988 0.0
C621 C 0.0067 0.22585 0.22901 0.0
H622 H 0.8133 0.2243 0.22612 0.0
C623 C 0.02058 0.21027 0.23719 0.0
C624 C -0.03983 0.19966 0.24131 0.0
H625 H 0.05442 0.23372 0.22628 0.0
H626 H 0.07895 0.20655 0.24004 0.0
C627 C 0.88554 0.20499 0.23717 0.0
C628 C 0.11699 0.21042 0.97953 0.0
C629 C 0.17734 0.19984 0.97506 0.0
H630 H 0.08339 0.23385 -0.00928 0.0
C631 C 0.25203 0.20517 0.97905 0.0
H632 H 0.05858 0.20668 0.97683 0.0
C633 C 0.26607 0.22073 -0.01269 0.0
C634 C 0.20574 0.23132 -0.00828 0.0
H635 H 0.2997 0.19731 0.97608 0.0
H636 H 0.32449 0.22446 -0.01001 0.0
C637 C 0.13104 0.22599 -0.01222 0.0
C638 C 0.01714 -0.02899 0.97752 0.0
C639 C -0.04333 -0.01845 0.97279 0.0
H640 H 0.05114 0.94777 -0.00997 0.0
C641 C 0.88214 -0.02369 0.97768 0.0
H642 H 0.07544 -0.02532 0.97415 0.0
C643 C 0.8684 0.96089 -0.01291 0.0
C644 C 0.92887 0.95036 -0.00821 0.0
H645 H 0.8344 -0.01586 0.97458 0.0
H646 H 0.8101 0.95722 -0.00955 0.0
C647 C 0.0034 0.9556 -0.01307 0.0
C648 C 0.61915 -0.02966 0.73471 0.0
C649 C 0.67899 -0.0189 0.73878 0.0
H650 H 0.58669 0.94668 0.7251 0.0
C651 C 0.75399 -0.02418 0.73584 0.0
H652 H 0.56053 -0.02597 0.73666 0.0
C653 C 0.76883 0.96015 0.72896 0.0
C654 C 0.70899 0.94939 0.72488 0.0
H655 H 0.80129 -0.01619 0.73857 0.0
H656 H 0.82745 0.95646 0.72701 0.0
C657 C 0.63398 0.95467 0.72783 0.0
C658 C 0.02379 0.71068 0.73544 0.0
C659 C -0.03659 0.70007 0.73961 0.0
H660 H 0.05756 0.73408 0.72398 0.0
C661 C 0.88884 0.70531 0.73489 0.0
H662 H 0.08212 0.70701 0.73871 0.0
C663 C 0.87495 0.72081 0.72613 0.0
C664 C 0.93532 0.73143 0.72195 0.0
H665 H 0.84116 0.69743 0.7376 0.0
H666 H 0.81662 0.72447 0.72285 0.0
C667 C 0.0099 0.72619 0.7267 0.0
C668 C 0.62026 0.7104 0.97812 0.0
C669 C 0.68099 0.69984 0.97443 0.0
H670 H 0.5858 0.73395 -0.01238 0.0
C671 C 0.7555 0.70535 0.97798 0.0
H672 H 0.56199 0.70654 0.97571 0.0
C673 C 0.76897 0.72106 -0.01494 0.0
C674 C 0.70825 0.73163 -0.01127 0.0
H675 H 0.80344 0.69752 0.97556 0.0
H676 H 0.82725 0.72493 -0.01254 0.0
C677 C 0.63374 0.72612 -0.01479 0.0
C678 C 0.25184 0.47597 0.7322 0.0
C679 C 0.17734 0.48142 0.73597 0.0
H680 H 0.32365 0.45651 0.72208 0.0
C681 C 0.11664 0.47086 0.73196 0.0
H682 H 0.29976 0.48381 0.73483 0.0
C683 C 0.13016 0.4552 0.7244 0.0
C684 C 0.20468 0.44975 0.72069 0.0
H685 H 0.05836 0.47468 0.73452 0.0
H686 H 0.08227 0.44735 0.72179 0.0
C687 C 0.26535 0.46032 0.72462 0.0
C688 C 0.27003 0.72129 0.48274 0.0
C689 C 0.21003 0.73195 0.48728 0.0
H690 H 0.30286 0.69776 0.47214 0.0
C691 C 0.1351 0.72664 0.484 0.0
H692 H 0.3286 0.72501 0.48489 0.0
C693 C 0.12051 0.71102 0.47643 0.0
C694 C 0.18051 0.70035 0.47197 0.0
H695 H 0.08768 0.73455 0.48705 0.0
H696 H 0.06195 0.7073 0.4743 0.0
C697 C 0.25544 0.70567 0.47516 0.0
C698 C 0.86482 0.46115 0.48322 0.0
C699 C 0.92525 0.45061 0.48797 0.0
H700 H 0.83105 0.4845 0.47135 0.0
C701 C -0.00012 0.45593 0.48379 0.0
H702 H 0.80645 0.45742 0.48606 0.0
C703 C 0.01379 0.47142 0.47504 0.0
C704 C -0.0466 0.48198 0.47034 0.0
H705 H 0.04761 0.4481 0.48695 0.0
H706 H 0.07218 0.47514 0.47221 0.0
C707 C 0.87874 0.47666 0.4745 0.0
C708 C 0.75684 0.47536 0.23589 0.0
C709 C 0.68186 0.48062 0.23912 0.0
H710 H 0.83023 0.45614 0.22577 0.0
C711 C 0.62198 0.46994 0.2343 0.0
H712 H 0.80418 0.48329 0.23917 0.0
C713 C 0.63676 0.45437 0.22634 0.0
C714 C 0.71174 0.44913 0.22304 0.0
H715 H 0.56338 0.47361 0.23644 0.0
H716 H 0.58943 0.44645 0.22304 0.0
C717 C 0.77162 0.4598 0.22793 0.0
C718 C 0.77196 0.22137 0.48546 0.0
C719 C 0.71109 0.23185 0.4898 0.0
H720 H 0.80676 0.198 0.47445 0.0
C721 C 0.63667 0.22635 0.48581 0.0
H722 H 0.83018 0.22523 0.48818 0.0
C723 C 0.62343 0.21075 0.47766 0.0
C724 C 0.68429 0.20028 0.47335 0.0
H725 H 0.58863 0.23412 0.48868 0.0
H726 H 0.56521 0.20689 0.47496 0.0
C727 C 0.75871 0.20577 0.47731 0.0
C728 C 0.50359 0.22545 0.72808 0.0
C729 C 0.42895 0.23078 0.72401 0.0
H730 H 0.5759 0.20611 0.73871 0.0
C731 C 0.36856 0.22014 0.72787 0.0
H732 H 0.55127 0.23335 0.72556 0.0
C733 C 0.3825 0.20452 0.73568 0.0
C734 C 0.45714 0.19919 0.73978 0.0
H735 H 0.3102 0.22387 0.72506 0.0
H736 H 0.33483 0.19662 0.7382 0.0
C737 C 0.51752 0.20984 0.7359 0.0
C738 C 0.38424 -0.0241 0.47639 0.0
C739 C 0.4588 -0.01884 0.47169 0.0
H740 H 0.31219 0.9568 0.48906 0.0
C741 C 0.51928 -0.02935 0.47656 0.0
H742 H 0.33649 -0.01629 0.47315 0.0
C743 C 0.50554 0.95523 0.48598 0.0
C744 C 0.431 0.94997 0.49072 0.0
H745 H 0.5776 -0.02567 0.47333 0.0
H746 H 0.55331 0.94742 0.48923 0.0
C747 C 0.3705 0.96048 0.48581 0.0
C748 C 0.51386 0.7099 0.23603 0.0
C749 C 0.45301 0.69943 0.2405 0.0
H750 H 0.54876 0.73316 0.22408 0.0
C751 C 0.37865 0.70482 0.23584 0.0
H752 H 0.57205 0.70612 0.23924 0.0
C753 C 0.36547 0.72032 0.22687 0.0
C754 C 0.42636 0.73078 0.22236 0.0
H755 H 0.33062 0.69704 0.23878 0.0
H756 H 0.30731 0.72411 0.22365 0.0
C757 C 0.5007 0.72539 0.22703 0.0
C758 C 0.37297 0.46036 -0.01656 0.0
C759 C 0.4331 0.4497 -0.01226 0.0
H760 H 0.33979 0.48382 0.97232 0.0
C761 C 0.50786 0.45494 -0.01648 0.0
H762 H 0.31451 0.4567 -0.01369 0.0
C763 C 0.52217 0.47048 0.97521 0.0
C764 C 0.46204 0.48114 0.97096 0.0
H765 H 0.55535 0.44702 -0.01365 0.0
H766 H 0.58063 0.47414 0.97235 0.0
C767 C 0.38728 0.4759 0.97512 0.0
C768 C 0.14278 0.09656 0.27358 0.0
C769 C 0.07997 0.1067 0.27262 0.0
H770 H 0.18166 0.07282 0.27246 0.0
C771 C 0.00651 0.10044 0.27279 0.0
H772 H 0.20008 0.10117 0.27361 0.0
C773 C -0.00386 0.08426 0.27143 0.0
C774 C 0.05904 0.07415 0.2707 0.0
H775 H -0.04268 0.10802 0.27193 0.0
H776 H 0.93891 0.07968 0.26985 0.0
C777 C 0.13237 0.08038 0.27304 0.0
C778 C -0.00571 0.09683 0.93922 0.0
C779 C 0.05753 0.10688 0.93982 0.0
H780 H -0.04529 0.07312 0.93877 0.0
C781 C 0.1306 0.10056 0.93726 0.0
H782 H 0.93724 0.10148 0.94095 0.0
C783 C 0.14049 0.08437 0.93666 0.0
C784 C 0.07739 0.0743 0.93777 0.0
H785 H 0.18014 0.10807 0.93774 0.0
H786 H 0.19764 0.0797 0.93647 0.0
C787 C 0.00413 0.08065 0.93779 0.0
C788 C 0.76116 0.85049 0.68916 0.0
C789 C 0.83407 0.85681 0.69264 0.0
H790 H 0.69422 0.82963 0.68703 0.0
C791 C 0.89735 0.84679 0.6924 0.0
H792 H 0.71158 0.85798 0.68932 0.0
C793 C 0.88762 0.83061 0.69037 0.0
C794 C 0.81439 0.82425 0.68937 0.0
H795 H -0.04571 0.85143 0.69483 0.0
H796 H 0.93698 0.82308 0.69163 0.0
C797 C 0.75134 0.83431 0.68795 0.0
C798 C 0.74505 0.84731 0.0257 0.0
C799 C 0.80832 0.85733 0.02481 0.0
H800 H 0.70494 0.82365 0.02397 0.0
C801 C 0.88147 0.85093 0.02446 0.0
H802 H 0.68798 0.85202 0.02612 0.0
C803 C 0.89099 0.83475 0.02251 0.0
C804 C 0.82756 0.82476 0.0217 0.0
H805 H 0.931 0.85843 0.02362 0.0
H806 H -0.05206 0.83008 0.02054 0.0
C807 C 0.75463 0.83111 0.02457 0.0
C808 C 0.13422 0.58068 0.77205 0.0
C809 C 0.06077 0.57448 0.77003 0.0
H810 H 0.2022 0.60143 0.77237 0.0
C811 C -0.00199 0.58463 0.771 0.0
H812 H 0.1834 0.57309 0.77127 0.0
C813 C 0.00861 0.6008 0.77232 0.0
C814 C 0.08215 0.60702 0.77187 0.0
H815 H 0.9407 0.58008 0.76967 0.0
H816 H -0.04051 0.60841 0.77168 0.0
C817 C 0.14484 0.59685 0.77255 0.0
C818 C 0.13049 0.60094 0.43683 0.0
C819 C 0.05768 0.60736 0.4397 0.0
H820 H 0.19682 0.57999 0.4357 0.0
C821 C -0.00589 0.5974 0.43931 0.0
H822 H 0.18027 0.60838 0.43714 0.0
C823 C 0.00338 0.5812 0.43777 0.0
C824 C 0.07643 0.57475 0.43743 0.0
H825 H 0.93726 0.60212 0.4413 0.0
H826 H -0.04625 0.57374 0.43892 0.0
C827 C 0.13983 0.58474 0.43612 0.0
C828 C 0.75138 0.33414 0.18866 0.0
C829 C 0.81415 0.324 0.18998 0.0
H830 H 0.71264 0.35789 0.18852 0.0
C831 C 0.88764 0.33024 0.18905 0.0
H832 H 0.69405 0.32955 0.18918 0.0
C833 C 0.89812 0.34642 0.18934 0.0
C834 C 0.83529 0.35656 0.18976 0.0
H835 H 0.93681 0.32266 0.19014 0.0
H836 H -0.0446 0.35101 0.19039 0.0
C837 C 0.76188 0.35032 0.18814 0.0
C838 C 0.75483 0.33126 0.52454 0.0
C839 C 0.82823 0.325 0.52365 0.0
H840 H 0.68731 0.35205 0.52283 0.0
C841 C 0.89113 0.33512 0.52472 0.0
H842 H 0.70554 0.32369 0.52365 0.0
C843 C 0.88083 0.35131 0.52493 0.0
C844 C 0.80749 0.35757 0.52324 0.0
H845 H -0.0516 0.33052 0.52423 0.0
H846 H 0.93014 0.35887 0.52434 0.0
C847 C 0.74454 0.34745 0.52393 0.0
C848 C 0.4932 0.08393 0.77018 0.0
C849 C 0.55605 0.0738 0.76979 0.0
H850 H 0.45453 0.1077 0.77031 0.0
C851 C 0.62938 0.08002 0.77225 0.0
H852 H 0.43597 0.07936 0.7685 0.0
C853 C 0.63989 0.0962 0.77264 0.0
C854 C 0.57717 0.10635 0.7714 0.0
H855 H 0.67863 0.07245 0.77193 0.0
H856 H 0.69722 0.10079 0.77283 0.0
C857 C 0.50366 0.10011 0.77138 0.0
C858 C 0.63766 0.10031 0.43754 0.0
C859 C 0.56505 0.10691 0.43927 0.0
H860 H 0.7028 0.07919 0.43774 0.0
C861 C 0.50097 0.09711 0.43814 0.0
H862 H 0.68782 0.10763 0.43845 0.0
C863 C 0.50939 0.08088 0.43704 0.0
C864 C 0.58203 0.07425 0.43789 0.0
H865 H 0.44427 0.10198 0.43925 0.0
H866 H 0.45924 0.07355 0.43761 0.0
C867 C 0.64609 0.08407 0.43727 0.0
C868 C 0.25765 0.85044 0.18908 0.0
C869 C 0.33068 0.85676 0.19211 0.0
H870 H 0.19061 0.82958 0.18755 0.0
C871 C 0.39392 0.84672 0.19151 0.0
H872 H 0.20811 0.85793 0.18952 0.0
C873 C 0.3841 0.83054 0.18966 0.0
C874 C 0.31082 0.82419 0.1892 0.0
H875 H 0.45094 0.85136 0.19359 0.0
H876 H 0.43347 0.82301 0.1907 0.0
C877 C 0.24776 0.83425 0.18805 0.0
C878 C 0.24942 0.84695 0.52648 0.0
C879 C 0.31226 0.85708 0.52531 0.0
H880 H 0.21023 0.82322 0.52502 0.0
C881 C 0.38565 0.8508 0.52476 0.0
H882 H 0.19217 0.85156 0.52706 0.0
C883 C 0.39579 0.83463 0.52289 0.0
C884 C 0.33276 0.82453 0.52235 0.0
H885 H 0.43487 0.85838 0.52371 0.0
H886 H 0.45289 0.83005 0.52077 0.0
C887 C 0.25963 0.83077 0.52542 0.0
C888 C 0.63752 0.59642 0.27533 0.0
C889 C 0.57364 0.60625 0.27379 0.0
H890 H 0.67919 0.57287 0.27457 0.0
C891 C 0.50093 0.59963 0.27329 0.0
H892 H 0.69426 0.6013 0.27587 0.0
C893 C 0.4925 0.58341 0.27183 0.0
C894 C 0.55658 0.57359 0.27167 0.0
H895 H 0.45094 0.60698 0.27196 0.0
H896 H 0.43591 0.57855 0.26972 0.0
C897 C 0.62901 0.58019 0.2747 0.0
C898 C 0.63677 0.60042 0.94028 0.0
C899 C 0.56345 0.6067 0.94194 0.0
H900 H 0.70417 0.57961 0.94031 0.0
C901 C 0.50044 0.59661 0.94075 0.0
H902 H 0.68613 0.60797 0.94125 0.0
C903 C 0.51061 0.58043 0.93953 0.0
C904 C 0.58395 0.57413 0.94031 0.0
H905 H 0.44323 0.60122 0.94181 0.0
H906 H 0.46125 0.57287 0.93996 0.0
C907 C 0.64695 0.58424 0.93988 0.0
C908 C 0.39003 0.34667 0.68957 0.0
C909 C 0.32641 0.35659 0.69053 0.0
H910 H 0.4308 0.32306 0.69033 0.0
C911 C 0.25347 0.35008 0.69 0.0
H912 H 0.44696 0.35147 0.6898 0.0
C913 C 0.24439 0.33387 0.691 0.0
C914 C 0.30808 0.32396 0.69171 0.0
H915 H 0.20366 0.35749 0.69084 0.0
H916 H 0.18752 0.32908 0.6923 0.0
C917 C 0.38092 0.33045 0.68974 0.0
C918 C 0.38269 0.35052 0.02382 0.0
C919 C 0.30973 0.35697 0.02219 0.0
H920 H 0.44896 0.32955 0.02342 0.0
C921 C 0.24617 0.34702 0.02311 0.0
H922 H 0.43247 0.35795 0.02306 0.0
C923 C 0.25546 0.33081 0.02401 0.0
C924 C 0.32846 0.32435 0.02316 0.0
H925 H 0.18922 0.35177 0.02207 0.0
H926 H 0.20571 0.32337 0.02335 0.0
C927 C 0.39199 0.33431 0.02389 0.0
C928 C 0.7861 0.01251 0.32102 0.0
C929 C 0.86511 0.0126 0.32514 0.0
H930 H 0.67743 0.01299 0.34381 0.0
C931 C 0.89506 0.01158 0.35652 0.0
H932 H 0.76131 0.0132 0.2972 0.0
C933 C 0.84712 0.01163 0.3833 0.0
C934 C 0.76823 0.01252 0.37923 0.0
H935 H -0.0442 0.01156 0.36056 0.0
H936 H 0.87201 0.01164 0.40715 0.0
C937 C 0.73812 0.01238 0.3478 0.0
C938 C 0.35364 0.16861 0.32563 0.0
C939 C 0.27477 0.16813 0.33004 0.0
H940 H 0.46296 0.16842 0.34797 0.0
C941 C 0.24559 0.16869 0.36158 0.0
H942 H 0.37784 0.16827 0.30169 0.0
C943 C 0.29428 0.1686 0.38816 0.0
C944 C 0.37314 0.16813 0.38375 0.0
H945 H 0.18497 0.1684 0.36583 0.0
H946 H 0.27007 0.16825 0.4121 0.0
C947 C 0.40234 0.1687 0.35222 0.0
C948 C 0.84765 0.16885 0.82667 0.0
C949 C 0.76872 0.168 0.8306 0.0
H950 H -0.04378 0.16903 0.84964 0.0
C951 C 0.73845 0.1683 0.86196 0.0
H952 H 0.87267 0.16872 0.80287 0.0
C953 C 0.78627 0.16831 0.88884 0.0
C954 C 0.86531 0.1682 0.88488 0.0
H955 H 0.67773 0.16772 0.86584 0.0
H956 H 0.76133 0.16773 0.91262 0.0
C957 C 0.89545 0.16904 0.85354 0.0
C958 C 0.23624 0.0121 0.84788 0.0
C959 C 0.2665 0.01235 0.87928 0.0
H960 H 0.2592 0.01275 0.79725 0.0
C961 C 0.34541 0.01145 0.88329 0.0
H962 H 0.17554 0.01272 0.84394 0.0
C963 C 0.39322 0.01129 0.85648 0.0
C964 C 0.36313 0.01221 0.82511 0.0
H965 H 0.37041 0.01153 0.90712 0.0
H966 H 0.45398 0.01127 0.86046 0.0
C967 C 0.2841 0.01212 0.82106 0.0
C968 C 0.15211 0.91887 0.61599 0.0
C969 C 0.12186 0.91872 0.58459 0.0
H970 H 0.12914 0.91803 0.66662 0.0
C971 C 0.04294 0.9196 0.58059 0.0
H972 H 0.21282 0.91826 0.61992 0.0
C973 C -0.00488 0.91964 0.6074 0.0
C974 C 0.02521 0.91862 0.63876 0.0
H975 H 0.01795 0.91959 0.55676 0.0
H976 H 0.93436 0.91966 0.60341 0.0
C977 C 0.10424 0.91873 0.64281 0.0
C978 C 0.6536 0.76265 0.59792 0.0
C979 C 0.6238 0.76266 0.62937 0.0
H980 H 0.62989 0.7636 0.54734 0.0
C981 C 0.54496 0.76165 0.63348 0.0
H982 H 0.71423 0.76335 0.5939 0.0
C983 C 0.49676 0.76162 0.60674 0.0
C984 C 0.52637 0.76277 0.57535 0.0
H985 H 0.5203 0.76155 0.65735 0.0
H986 H 0.43605 0.76151 0.61082 0.0
C987 C 0.60535 0.76279 0.57118 0.0
C988 C 0.03905 0.76252 0.1343 0.0
C989 C 0.11797 0.76315 0.13018 0.0
H990 H 0.93018 0.76271 0.1116 0.0
C991 C 0.1478 0.76289 0.09874 0.0
H992 H 0.01437 0.76262 0.15816 0.0
C993 C 0.09961 0.76312 0.07198 0.0
C994 C 0.02065 0.76342 0.07614 0.0
H995 H 0.20849 0.76332 0.09471 0.0
H996 H 0.12425 0.76369 0.04814 0.0
C997 C -0.00911 0.76256 0.10754 0.0
C998 C 0.64968 0.91894 0.11597 0.0
C999 C 0.61949 0.91888 0.08456 0.0
H1000 H 0.62662 0.91795 0.16657 0.0
C1001 C 0.54058 0.91975 0.08053 0.0
H1002 H 0.71038 0.91833 0.11992 0.0
C1003 C 0.49271 0.91971 0.10733 0.0
C1004 C 0.52274 0.91861 0.13868 0.0
H1005 H 0.51564 0.91981 0.0567 0.0
H1006 H 0.43196 0.91973 0.10332 0.0
C1007 C 0.60176 0.91872 0.14277 0.0
C1008 C 0.89897 0.51208 0.85703 0.0
C1009 C 0.86815 0.51297 0.82578 0.0
H1010 H 0.87721 0.51216 0.90776 0.0
C1011 C 0.78906 0.51268 0.82203 0.0
H1012 H -0.04018 0.51222 0.86077 0.0
C1013 C 0.74179 0.51246 0.84903 0.0
C1014 C 0.77267 0.51272 0.88032 0.0
H1015 H 0.76361 0.51326 0.79832 0.0
H1016 H 0.68097 0.51291 0.84531 0.0
C1017 C 0.85172 0.51205 0.88403 0.0
C1018 C 0.24364 0.66863 0.8625 0.0
C1019 C 0.27403 0.66828 0.83116 0.0
H1020 H 0.26623 0.66792 0.91317 0.0
C1021 C 0.35305 0.66884 0.8273 0.0
H1022 H 0.18287 0.66827 0.86633 0.0
C1023 C 0.40072 0.66881 0.85421 0.0
C1024 C 0.37036 0.66804 0.88553 0.0
H1025 H 0.37816 0.66866 0.80352 0.0
H1026 H 0.4615 0.6686 0.85036 0.0
C1027 C 0.29133 0.66842 0.88941 0.0
C1028 C 0.7839 0.66828 0.39055 0.0
C1029 C 0.86277 0.66843 0.38599 0.0
H1030 H 0.67445 0.66738 0.36836 0.0
C1031 C 0.8915 0.66942 0.35443 0.0
H1032 H 0.76003 0.66758 0.41452 0.0
C1033 C 0.84259 0.66913 0.32793 0.0
C1034 C 0.76392 0.66803 0.33245 0.0
H1035 H -0.04792 0.66962 0.35006 0.0
H1036 H 0.86661 0.66914 0.30395 0.0
C1037 C 0.73494 0.66817 0.36403 0.0
C1038 C 0.39465 0.51148 0.35774 0.0
C1039 C 0.36558 0.51224 0.32618 0.0
H1040 H 0.37018 0.51198 0.40823 0.0
C1041 C 0.28668 0.51212 0.32167 0.0
H1042 H 0.45528 0.51149 0.36207 0.0
C1043 C 0.23795 0.51224 0.34821 0.0
C1044 C 0.26718 0.51265 0.37977 0.0
H1045 H 0.26255 0.51263 0.29771 0.0
H1046 H 0.17738 0.51283 0.34389 0.0
C1047 C 0.34595 0.51178 0.38427 0.0
C1048 C 0.10478 0.41896 0.13751 0.0
C1049 C 0.02572 0.41863 0.1336 0.0
H1050 H 0.21313 0.41865 0.11445 0.0
C1051 C -0.00474 0.41945 0.10228 0.0
H1052 H 0.12995 0.41842 0.16128 0.0
C1053 C 0.04282 0.4194 0.07538 0.0
C1054 C 0.12182 0.41873 0.07926 0.0
H1055 H 0.93446 0.41929 0.09841 0.0
H1056 H 0.0176 0.41922 0.05159 0.0
C1057 C 0.15236 0.41909 0.1106 0.0
C1058 C 0.53889 0.26247 0.13937 0.0
C1059 C 0.6178 0.26268 0.13499 0.0
H1060 H 0.42965 0.26294 0.11697 0.0
C1061 C 0.647 0.26187 0.10349 0.0
H1062 H 0.51465 0.26301 0.16329 0.0
C1063 C 0.59839 0.26201 0.07687 0.0
C1064 C 0.51956 0.26276 0.08123 0.0
H1065 H 0.70765 0.26195 0.09925 0.0
H1066 H 0.62267 0.26216 0.05294 0.0
C1067 C 0.49025 0.26243 0.11276 0.0
C1068 C 0.09973 0.26277 0.57648 0.0
C1069 C 0.02077 0.26334 0.58048 0.0
H1070 H 0.20837 0.2627 0.5994 0.0
C1071 C -0.00939 0.26267 0.61184 0.0
H1072 H 0.12466 0.26319 0.55268 0.0
C1073 C 0.0385 0.26255 0.63869 0.0
C1074 C 0.11751 0.26293 0.63471 0.0
H1075 H 0.92988 0.26302 0.61577 0.0
H1076 H 0.0136 0.26282 0.6625 0.0
C1077 C 0.14762 0.26247 0.60332 0.0
C1078 C 0.48597 0.41869 0.60059 0.0
C1079 C 0.51584 0.41838 0.63205 0.0
H1080 H 0.50954 0.41822 0.55 0.0
C1081 C 0.59469 0.41932 0.63625 0.0
H1082 H 0.42533 0.41805 0.5965 0.0
C1083 C 0.64283 0.4196 0.60954 0.0
C1084 C 0.61313 0.41876 0.57809 0.0
H1085 H 0.61938 0.4192 0.66014 0.0
H1086 H 0.70355 0.41966 0.61365 0.0
C1087 C 0.53415 0.41879 0.57388 0.0
loop_
_geom_bond_atom_site_label_1
_geom_bond_atom_site_label_2
_geom_bond_distance
_geom_bond_site_symmetry_2
_ccdc_geom_bond_type
C0 O1 1.306 . S
C0 O3 1.160 . S
O1 C0 1.306 . S
O1 Cd2 2.228 . S
Cd2 O1 2.228 . S
Cd2 O6 2.273 . S
Cd2 O10 2.277 . S
O3 C0 1.160 . S
O3 Cd4 2.203 . S
Cd4 O3 2.203 . S
Cd4 O6 2.411 . S
Cd4 O7 2.333 . S
Cd4 O8 2.352 . S
Cd4 O12 2.277 . S
Cd4 O13 2.356 1_455 S
C5 O10 1.209 . S
C5 O12 1.226 . S
O6 Cd2 2.273 . S
O6 Cd4 2.411 . S
O6 C9 1.320 . S
O7 Cd4 2.333 . S
O7 C9 1.214 . S
O8 Cd4 2.352 . S
O8 C11 1.258 1_455 S
C9 O6 1.320 . S
C9 O7 1.214 . S
O10 Cd2 2.277 . S
O10 C5 1.209 . S
C11 O8 1.258 1_655 S
C11 O13 1.282 . S
O12 Cd4 2.277 . S
O12 C5 1.226 . S
O13 Cd4 2.356 1_655 S
O13 C11 1.282 . S
C14 O15 1.306 . S
C14 O17 1.160 . S
O15 C14 1.306 . S
O15 Cd16 2.228 1_455 S
Cd16 O15 2.228 1_655 S
Cd16 O20 2.273 1_655 S
Cd16 O24 2.277 1_655 S
O17 C14 1.160 . S
O17 Cd18 2.203 . S
Cd18 O17 2.203 . S
Cd18 O20 2.411 . S
Cd18 O21 2.333 . S
Cd18 O22 2.352 . S
Cd18 O26 2.277 . S
Cd18 O27 2.356 . S
C19 O24 1.209 . S
C19 O26 1.226 . S
O20 Cd16 2.273 1_455 S
O20 Cd18 2.411 . S
O20 C23 1.320 . S
O21 Cd18 2.333 . S
O21 C23 1.214 . S
O22 Cd18 2.352 . S
O22 C25 1.258 . S
C23 O20 1.320 . S
C23 O21 1.214 . S
O24 Cd16 2.277 1_455 S
O24 C19 1.209 . S
C25 O22 1.258 . S
C25 O27 1.282 . S
O26 Cd18 2.277 . S
O26 C19 1.226 . S
O27 Cd18 2.356 . S
O27 C25 1.282 . S
C28 O29 1.306 . S
C28 O31 1.160 . S
O29 C28 1.306 . S
O29 Cd30 2.228 1_556 S
Cd30 O29 2.228 1_554 S
Cd30 O34 2.273 1_554 S
Cd30 O38 2.277 . S
O31 C28 1.160 . S
O31 Cd32 2.203 . S
Cd32 O31 2.203 . S
Cd32 O34 2.411 . S
Cd32 O35 2.333 . S
Cd32 O36 2.352 . S
Cd32 O40 2.277 1_556 S
Cd32 O41 2.356 1_455 S
C33 O38 1.209 . S
C33 O40 1.226 . S
O34 Cd30 2.273 1_556 S
O34 Cd32 2.411 . S
O34 C37 1.320 . S
O35 Cd32 2.333 . S
O35 C37 1.214 . S
O36 Cd32 2.352 . S
O36 C39 1.258 1_455 S
C37 O34 1.320 . S
C37 O35 1.214 . S
O38 Cd30 2.277 . S
O38 C33 1.209 . S
C39 O36 1.258 1_655 S
C39 O41 1.282 . S
O40 Cd32 2.277 1_554 S
O40 C33 1.226 . S
O41 Cd32 2.356 1_655 S
O41 C39 1.282 . S
C42 O43 1.306 . S
C42 O45 1.160 . S
O43 C42 1.306 . S
O43 Cd44 2.228 1_456 S
Cd44 O43 2.228 1_654 S
Cd44 O48 2.273 1_654 S
Cd44 O52 2.277 1_655 S
O45 C42 1.160 . S
O45 Cd46 2.203 . S
Cd46 O45 2.203 . S
Cd46 O48 2.411 . S
Cd46 O49 2.333 . S
Cd46 O50 2.352 . S
Cd46 O54 2.277 1_556 S
Cd46 O55 2.356 . S
C47 O52 1.209 . S
C47 O54 1.226 . S
O48 Cd44 2.273 1_456 S
O48 Cd46 2.411 . S
O48 C51 1.320 . S
O49 Cd46 2.333 . S
O49 C51 1.214 . S
O50 Cd46 2.352 . S
O50 C53 1.258 . S
C51 O48 1.320 . S
C51 O49 1.214 . S
O52 Cd44 2.277 1_455 S
O52 C47 1.209 . S
C53 O50 1.258 . S
C53 O55 1.282 . S
O54 Cd46 2.277 1_554 S
O54 C47 1.226 . S
O55 Cd46 2.356 . S
O55 C53 1.282 . S
C56 O57 1.306 . S
C56 O59 1.160 . S
O57 C56 1.306 . S
O57 Cd58 2.228 . S
Cd58 O57 2.228 . S
Cd58 O62 2.273 . S
Cd58 O66 2.277 . S
O59 C56 1.160 . S
O59 Cd60 2.203 . S
Cd60 O59 2.203 . S
Cd60 O62 2.411 . S
Cd60 O63 2.333 . S
Cd60 O64 2.352 . S
Cd60 O68 2.277 . S
Cd60 O69 2.356 1_655 S
C61 O66 1.209 . S
C61 O68 1.226 . S
O62 Cd58 2.273 . S
O62 Cd60 2.411 . S
O62 C65 1.320 . S
O63 Cd60 2.333 . S
O63 C65 1.214 . S
O64 Cd60 2.352 . S
O64 C67 1.258 1_655 S
C65 O62 1.320 . S
C65 O63 1.214 . S
O66 Cd58 2.277 . S
O66 C61 1.209 . S
C67 O64 1.258 1_455 S
C67 O69 1.282 . S
O68 Cd60 2.277 . S
O68 C61 1.226 . S
O69 Cd60 2.356 1_455 S
O69 C67 1.282 . S
C70 O71 1.306 . S
C70 O73 1.160 . S
O71 C70 1.306 . S
O71 Cd72 2.228 1_655 S
Cd72 O71 2.228 1_455 S
Cd72 O76 2.273 1_455 S
Cd72 O80 2.277 1_455 S
O73 C70 1.160 . S
O73 Cd74 2.203 . S
Cd74 O73 2.203 . S
Cd74 O76 2.411 . S
Cd74 O77 2.333 . S
Cd74 O78 2.352 . S
Cd74 O82 2.277 . S
Cd74 O83 2.356 . S
C75 O80 1.209 . S
C75 O82 1.226 . S
O76 Cd72 2.273 1_655 S
O76 Cd74 2.411 . S
O76 C79 1.320 . S
O77 Cd74 2.333 . S
O77 C79 1.214 . S
O78 Cd74 2.352 . S
O78 C81 1.258 . S
C79 O76 1.320 . S
C79 O77 1.214 . S
O80 Cd72 2.277 1_655 S
O80 C75 1.209 . S
C81 O78 1.258 . S
C81 O83 1.282 . S
O82 Cd74 2.277 . S
O82 C75 1.226 . S
O83 Cd74 2.356 . S
O83 C81 1.282 . S
C84 O85 1.306 . S
C84 O87 1.160 . S
O85 C84 1.306 . S
O85 Cd86 2.228 1_554 S
Cd86 O85 2.228 1_556 S
Cd86 O90 2.273 1_556 S
Cd86 O94 2.277 . S
O87 C84 1.160 . S
O87 Cd88 2.203 . S
Cd88 O87 2.203 . S
Cd88 O90 2.411 . S
Cd88 O91 2.333 . S
Cd88 O92 2.352 . S
Cd88 O96 2.277 1_554 S
Cd88 O97 2.356 1_655 S
C89 O94 1.209 . S
C89 O96 1.226 . S
O90 Cd86 2.273 1_554 S
O90 Cd88 2.411 . S
O90 C93 1.320 . S
O91 Cd88 2.333 . S
O91 C93 1.214 . S
O92 Cd88 2.352 . S
O92 C95 1.258 1_655 S
C93 O90 1.320 . S
C93 O91 1.214 . S
O94 Cd86 2.277 . S
O94 C89 1.209 . S
C95 O92 1.258 1_455 S
C95 O97 1.282 . S
O96 Cd88 2.277 1_556 S
O96 C89 1.226 . S
O97 Cd88 2.356 1_455 S
O97 C95 1.282 . S
C98 O99 1.306 . S
C98 O101 1.160 . S
O99 C98 1.306 . S
O99 Cd100 2.228 1_654 S
Cd100 O99 2.228 1_456 S
Cd100 O104 2.273 1_456 S
Cd100 O108 2.277 1_455 S
O101 C98 1.160 . S
O101 Cd102 2.203 . S
Cd102 O101 2.203 . S
Cd102 O104 2.411 . S
Cd102 O105 2.333 . S
Cd102 O106 2.352 . S
Cd102 O110 2.277 1_554 S
Cd102 O111 2.356 . S
C103 O108 1.209 . S
C103 O110 1.226 . S
O104 Cd100 2.273 1_654 S
O104 Cd102 2.411 . S
O104 C107 1.320 . S
O105 Cd102 2.333 . S
O105 C107 1.214 . S
O106 Cd102 2.352 . S
O106 C109 1.258 . S
C107 O104 1.320 . S
C107 O105 1.214 . S
O108 Cd100 2.277 1_655 S
O108 C103 1.209 . S
C109 O106 1.258 . S
C109 O111 1.282 . S
O110 Cd102 2.277 1_556 S
O110 C103 1.226 . S
O111 Cd102 2.356 . S
O111 C109 1.282 . S
C112 O113 1.306 . S
C112 O115 1.160 . S
O113 C112 1.306 . S
O113 Cd114 2.228 . S
Cd114 O113 2.228 . S
Cd114 O118 2.273 . S
Cd114 O122 2.277 . S
O115 C112 1.160 . S
O115 Cd116 2.203 . S
Cd116 O115 2.203 . S
Cd116 O118 2.411 . S
Cd116 O119 2.333 . S
Cd116 O120 2.352 . S
Cd116 O124 2.277 . S
Cd116 O125 2.356 1_455 S
C117 O122 1.209 . S
C117 O124 1.226 . S
O118 Cd114 2.273 . S
O118 Cd116 2.411 . S
O118 C121 1.320 . S
O119 Cd116 2.333 . S
O119 C121 1.214 . S
O120 Cd116 2.352 . S
O120 C123 1.258 1_455 S
C121 O118 1.320 . S
C121 O119 1.214 . S
O122 Cd114 2.277 . S
O122 C117 1.209 . S
C123 O120 1.258 1_655 S
C123 O125 1.282 . S
O124 Cd116 2.277 . S
O124 C117 1.226 . S
O125 Cd116 2.356 1_655 S
O125 C123 1.282 . S
C126 O127 1.306 . S
C126 O129 1.160 . S
O127 C126 1.306 . S
O127 Cd128 2.228 1_455 S
Cd128 O127 2.228 1_655 S
Cd128 O132 2.273 1_655 S
Cd128 O136 2.277 1_655 S
O129 C126 1.160 . S
O129 Cd130 2.203 . S
Cd130 O129 2.203 . S
Cd130 O132 2.411 . S
Cd130 O133 2.333 . S
Cd130 O134 2.352 . S
Cd130 O138 2.277 . S
Cd130 O139 2.356 . S
C131 O136 1.209 . S
C131 O138 1.226 . S
O132 Cd128 2.273 1_455 S
O132 Cd130 2.411 . S
O132 C135 1.320 . S
O133 Cd130 2.333 . S
O133 C135 1.214 . S
O134 Cd130 2.352 . S
O134 C137 1.258 . S
C135 O132 1.320 . S
C135 O133 1.214 . S
O136 Cd128 2.277 1_455 S
O136 C131 1.209 . S
C137 O134 1.258 . S
C137 O139 1.282 . S
O138 Cd130 2.277 . S
O138 C131 1.226 . S
O139 Cd130 2.356 . S
O139 C137 1.282 . S
C140 O141 1.306 . S
C140 O143 1.160 . S
O141 C140 1.306 . S
O141 Cd142 2.228 . S
Cd142 O141 2.228 . S
Cd142 O146 2.273 . S
Cd142 O150 2.277 . S
O143 C140 1.160 . S
O143 Cd144 2.203 . S
Cd144 O143 2.203 . S
Cd144 O146 2.411 . S
Cd144 O147 2.333 . S
Cd144 O148 2.352 . S
Cd144 O152 2.277 . S
Cd144 O153 2.356 1_455 S
C145 O150 1.209 . S
C145 O152 1.226 . S
O146 Cd142 2.273 . S
O146 Cd144 2.411 . S
O146 C149 1.320 . S
O147 Cd144 2.333 . S
O147 C149 1.214 . S
O148 Cd144 2.352 . S
O148 C151 1.258 1_455 S
C149 O146 1.320 . S
C149 O147 1.214 . S
O150 Cd142 2.277 . S
O150 C145 1.209 . S
C151 O148 1.258 1_655 S
C151 O153 1.282 . S
O152 Cd144 2.277 . S
O152 C145 1.226 . S
O153 Cd144 2.356 1_655 S
O153 C151 1.282 . S
C154 O155 1.306 . S
C154 O157 1.160 . S
O155 C154 1.306 . S
O155 Cd156 2.228 1_455 S
Cd156 O155 2.228 1_655 S
Cd156 O160 2.273 1_655 S
Cd156 O164 2.277 1_655 S
O157 C154 1.160 . S
O157 Cd158 2.203 . S
Cd158 O157 2.203 . S
Cd158 O160 2.411 . S
Cd158 O161 2.333 . S
Cd158 O162 2.352 . S
Cd158 O166 2.277 . S
Cd158 O167 2.356 . S
C159 O164 1.209 . S
C159 O166 1.226 . S
O160 Cd156 2.273 1_455 S
O160 Cd158 2.411 . S
O160 C163 1.320 . S
O161 Cd158 2.333 . S
O161 C163 1.214 . S
O162 Cd158 2.352 . S
O162 C165 1.258 . S
C163 O160 1.320 . S
C163 O161 1.214 . S
O164 Cd156 2.277 1_455 S
O164 C159 1.209 . S
C165 O162 1.258 . S
C165 O167 1.282 . S
O166 Cd158 2.277 . S
O166 C159 1.226 . S
O167 Cd158 2.356 . S
O167 C165 1.282 . S
C168 O169 1.306 . S
C168 O171 1.160 . S
O169 C168 1.306 . S
O169 Cd170 2.228 . S
Cd170 O169 2.228 . S
Cd170 O174 2.273 . S
Cd170 O178 2.277 . S
O171 C168 1.160 . S
O171 Cd172 2.203 . S
Cd172 O171 2.203 . S
Cd172 O174 2.411 . S
Cd172 O175 2.333 . S
Cd172 O176 2.352 . S
Cd172 O180 2.277 . S
Cd172 O181 2.356 1_655 S
C173 O178 1.209 . S
C173 O180 1.226 . S
O174 Cd170 2.273 . S
O174 Cd172 2.411 . S
O174 C177 1.320 . S
O175 Cd172 2.333 . S
O175 C177 1.214 . S
O176 Cd172 2.352 . S
O176 C179 1.258 1_655 S
C177 O174 1.320 . S
C177 O175 1.214 . S
O178 Cd170 2.277 . S
O178 C173 1.209 . S
C179 O176 1.258 1_455 S
C179 O181 1.282 . S
O180 Cd172 2.277 . S
O180 C173 1.226 . S
O181 Cd172 2.356 1_455 S
O181 C179 1.282 . S
C182 O183 1.306 . S
C182 O185 1.160 . S
O183 C182 1.306 . S
O183 Cd184 2.228 1_655 S
Cd184 O183 2.228 1_455 S
Cd184 O188 2.273 1_455 S
Cd184 O192 2.277 1_455 S
O185 C182 1.160 . S
O185 Cd186 2.203 . S
Cd186 O185 2.203 . S
Cd186 O188 2.411 . S
Cd186 O189 2.333 . S
Cd186 O190 2.352 . S
Cd186 O194 2.277 . S
Cd186 O195 2.356 . S
C187 O192 1.209 . S
C187 O194 1.226 . S
O188 Cd184 2.273 1_655 S
O188 Cd186 2.411 . S
O188 C191 1.320 . S
O189 Cd186 2.333 . S
O189 C191 1.214 . S
O190 Cd186 2.352 . S
O190 C193 1.258 . S
C191 O188 1.320 . S
C191 O189 1.214 . S
O192 Cd184 2.277 1_655 S
O192 C187 1.209 . S
C193 O190 1.258 . S
C193 O195 1.282 . S
O194 Cd186 2.277 . S
O194 C187 1.226 . S
O195 Cd186 2.356 . S
O195 C193 1.282 . S
C196 O197 1.306 . S
C196 O199 1.160 . S
O197 C196 1.306 . S
O197 Cd198 2.228 . S
Cd198 O197 2.228 . S
Cd198 O202 2.273 . S
Cd198 O206 2.277 . S
O199 C196 1.160 . S
O199 Cd200 2.203 . S
Cd200 O199 2.203 . S
Cd200 O202 2.411 . S
Cd200 O203 2.333 . S
Cd200 O204 2.352 . S
Cd200 O208 2.277 . S
Cd200 O209 2.356 1_655 S
C201 O206 1.209 . S
C201 O208 1.226 . S
O202 Cd198 2.273 . S
O202 Cd200 2.411 . S
O202 C205 1.320 . S
O203 Cd200 2.333 . S
O203 C205 1.214 . S
O204 Cd200 2.352 . S
O204 C207 1.258 1_655 S
C205 O202 1.320 . S
C205 O203 1.214 . S
O206 Cd198 2.277 . S
O206 C201 1.209 . S
C207 O204 1.258 1_455 S
C207 O209 1.282 . S
O208 Cd200 2.277 . S
O208 C201 1.226 . S
O209 Cd200 2.356 1_455 S
O209 C207 1.282 . S
C210 O211 1.306 . S
C210 O213 1.160 . S
O211 C210 1.306 . S
O211 Cd212 2.228 1_655 S
Cd212 O211 2.228 1_455 S
Cd212 O216 2.273 1_455 S
Cd212 O220 2.277 1_455 S
O213 C210 1.160 . S
O213 Cd214 2.203 . S
Cd214 O213 2.203 . S
Cd214 O216 2.411 . S
Cd214 O217 2.333 . S
Cd214 O218 2.352 . S
Cd214 O222 2.277 . S
Cd214 O223 2.356 . S
C215 O220 1.209 . S
C215 O222 1.226 . S
O216 Cd212 2.273 1_655 S
O216 Cd214 2.411 . S
O216 C219 1.320 . S
O217 Cd214 2.333 . S
O217 C219 1.214 . S
O218 Cd214 2.352 . S
O218 C221 1.258 . S
C219 O216 1.320 . S
C219 O217 1.214 . S
O220 Cd212 2.277 1_655 S
O220 C215 1.209 . S
C221 O218 1.258 . S
C221 O223 1.282 . S
O222 Cd214 2.277 . S
O222 C215 1.226 . S
O223 Cd214 2.356 . S
O223 C221 1.282 . S
C224 O225 1.306 . S
C224 O227 1.160 . S
O225 C224 1.306 . S
O225 Cd226 2.228 . S
Cd226 O225 2.228 . S
Cd226 O230 2.273 . S
Cd226 O234 2.277 . S
O227 C224 1.160 . S
O227 Cd228 2.203 . S
Cd228 O227 2.203 . S
Cd228 O230 2.411 . S
Cd228 O231 2.333 . S
Cd228 O232 2.352 . S
Cd228 O236 2.277 . S
Cd228 O237 2.356 . S
C229 O234 1.209 . S
C229 O236 1.226 . S
O230 Cd226 2.273 . S
O230 Cd228 2.411 . S
O230 C233 1.320 . S
O231 Cd228 2.333 . S
O231 C233 1.214 . S
O232 Cd228 2.352 . S
O232 C235 1.258 . S
C233 O230 1.320 . S
C233 O231 1.214 . S
O234 Cd226 2.277 . S
O234 C229 1.209 . S
C235 O232 1.258 . S
C235 O237 1.282 . S
O236 Cd228 2.277 . S
O236 C229 1.226 . S
O237 Cd228 2.356 . S
O237 C235 1.282 . S
C238 O239 1.306 . S
C238 O241 1.160 . S
O239 C238 1.306 . S
O239 Cd240 2.228 . S
Cd240 O239 2.228 . S
Cd240 O244 2.273 . S
Cd240 O248 2.277 . S
O241 C238 1.160 . S
O241 Cd242 2.203 . S
Cd242 O241 2.203 . S
Cd242 O244 2.411 . S
Cd242 O245 2.333 . S
Cd242 O246 2.352 . S
Cd242 O250 2.277 . S
Cd242 O251 2.356 . S
C243 O248 1.209 . S
C243 O250 1.226 . S
O244 Cd240 2.273 . S
O244 Cd242 2.411 . S
O244 C247 1.320 . S
O245 Cd242 2.333 . S
O245 C247 1.214 . S
O246 Cd242 2.352 . S
O246 C249 1.258 . S
C247 O244 1.320 . S
C247 O245 1.214 . S
O248 Cd240 2.277 . S
O248 C243 1.209 . S
C249 O246 1.258 . S
C249 O251 1.282 . S
O250 Cd242 2.277 . S
O250 C243 1.226 . S
O251 Cd242 2.356 . S
O251 C249 1.282 . S
C252 O253 1.306 . S
C252 O255 1.160 . S
O253 C252 1.306 . S
O253 Cd254 2.228 . S
Cd254 O253 2.228 . S
Cd254 O258 2.273 . S
Cd254 O262 2.277 . S
O255 C252 1.160 . S
O255 Cd256 2.203 . S
Cd256 O255 2.203 . S
Cd256 O258 2.411 . S
Cd256 O259 2.333 . S
Cd256 O260 2.352 . S
Cd256 O264 2.277 . S
Cd256 O265 2.356 . S
C257 O262 1.209 . S
C257 O264 1.226 . S
O258 Cd254 2.273 . S
O258 Cd256 2.411 . S
O258 C261 1.320 . S
O259 Cd256 2.333 . S
O259 C261 1.214 . S
O260 Cd256 2.352 . S
O260 C263 1.258 . S
C261 O258 1.320 . S
C261 O259 1.214 . S
O262 Cd254 2.277 . S
O262 C257 1.209 . S
C263 O260 1.258 . S
C263 O265 1.282 . S
O264 Cd256 2.277 . S
O264 C257 1.226 . S
O265 Cd256 2.356 . S
O265 C263 1.282 . S
C266 O267 1.306 . S
C266 O269 1.160 . S
O267 C266 1.306 . S
O267 Cd268 2.228 . S
Cd268 O267 2.228 . S
Cd268 O272 2.273 . S
Cd268 O276 2.277 . S
O269 C266 1.160 . S
O269 Cd270 2.203 . S
Cd270 O269 2.203 . S
Cd270 O272 2.411 . S
Cd270 O273 2.333 . S
Cd270 O274 2.352 . S
Cd270 O278 2.277 . S
Cd270 O279 2.356 . S
C271 O276 1.209 . S
C271 O278 1.226 . S
O272 Cd268 2.273 . S
O272 Cd270 2.411 . S
O272 C275 1.320 . S
O273 Cd270 2.333 . S
O273 C275 1.214 . S
O274 Cd270 2.352 . S
O274 C277 1.258 . S
C275 O272 1.320 . S
C275 O273 1.214 . S
O276 Cd268 2.277 . S
O276 C271 1.209 . S
C277 O274 1.258 . S
C277 O279 1.282 . S
O278 Cd270 2.277 . S
O278 C271 1.226 . S
O279 Cd270 2.356 . S
O279 C277 1.282 . S
C280 O281 1.306 . S
C280 O283 1.160 . S
O281 C280 1.306 . S
O281 Cd282 2.228 . S
Cd282 O281 2.228 . S
Cd282 O286 2.273 . S
Cd282 O290 2.277 . S
O283 C280 1.160 . S
O283 Cd284 2.203 . S
Cd284 O283 2.203 . S
Cd284 O286 2.411 . S
Cd284 O287 2.333 . S
Cd284 O288 2.352 . S
Cd284 O292 2.277 . S
Cd284 O293 2.356 . S
C285 O290 1.209 . S
C285 O292 1.226 . S
O286 Cd282 2.273 . S
O286 Cd284 2.411 . S
O286 C289 1.320 . S
O287 Cd284 2.333 . S
O287 C289 1.214 . S
O288 Cd284 2.352 . S
O288 C291 1.258 . S
C289 O286 1.320 . S
C289 O287 1.214 . S
O290 Cd282 2.277 . S
O290 C285 1.209 . S
C291 O288 1.258 . S
C291 O293 1.282 . S
O292 Cd284 2.277 . S
O292 C285 1.226 . S
O293 Cd284 2.356 . S
O293 C291 1.282 . S
C294 O295 1.306 . S
C294 O297 1.160 . S
O295 C294 1.306 . S
O295 Cd296 2.228 . S
Cd296 O295 2.228 . S
Cd296 O300 2.273 . S
Cd296 O304 2.277 . S
O297 C294 1.160 . S
O297 Cd298 2.203 . S
Cd298 O297 2.203 . S
Cd298 O300 2.411 . S
Cd298 O301 2.333 . S
Cd298 O302 2.352 . S
Cd298 O306 2.277 . S
Cd298 O307 2.356 . S
C299 O304 1.209 . S
C299 O306 1.226 . S
O300 Cd296 2.273 . S
O300 Cd298 2.411 . S
O300 C303 1.320 . S
O301 Cd298 2.333 . S
O301 C303 1.214 . S
O302 Cd298 2.352 . S
O302 C305 1.258 . S
C303 O300 1.320 . S
C303 O301 1.214 . S
O304 Cd296 2.277 . S
O304 C299 1.209 . S
C305 O302 1.258 . S
C305 O307 1.282 . S
O306 Cd298 2.277 . S
O306 C299 1.226 . S
O307 Cd298 2.356 . S
O307 C305 1.282 . S
C308 O309 1.306 . S
C308 O311 1.160 . S
O309 C308 1.306 . S
O309 Cd310 2.228 . S
Cd310 O309 2.228 . S
Cd310 O314 2.273 . S
Cd310 O318 2.277 . S
O311 C308 1.160 . S
O311 Cd312 2.203 . S
Cd312 O311 2.203 . S
Cd312 O314 2.411 . S
Cd312 O315 2.333 . S
Cd312 O316 2.352 . S
Cd312 O320 2.277 . S
Cd312 O321 2.356 . S
C313 O318 1.209 . S
C313 O320 1.226 . S
O314 Cd310 2.273 . S
O314 Cd312 2.411 . S
O314 C317 1.320 . S
O315 Cd312 2.333 . S
O315 C317 1.214 . S
O316 Cd312 2.352 . S
O316 C319 1.258 . S
C317 O314 1.320 . S
C317 O315 1.214 . S
O318 Cd310 2.277 . S
O318 C313 1.209 . S
C319 O316 1.258 . S
C319 O321 1.282 . S
O320 Cd312 2.277 . S
O320 C313 1.226 . S
O321 Cd312 2.356 . S
O321 C319 1.282 . S
C322 O323 1.306 . S
C322 O325 1.160 . S
O323 C322 1.306 . S
O323 Cd324 2.228 . S
Cd324 O323 2.228 . S
Cd324 O328 2.273 . S
Cd324 O332 2.277 . S
O325 C322 1.160 . S
O325 Cd326 2.203 . S
Cd326 O325 2.203 . S
Cd326 O328 2.411 . S
Cd326 O329 2.333 . S
Cd326 O330 2.352 . S
Cd326 O334 2.277 . S
Cd326 O335 2.356 . S
C327 O332 1.209 . S
C327 O334 1.226 . S
O328 Cd324 2.273 . S
O328 Cd326 2.411 . S
O328 C331 1.320 . S
O329 Cd326 2.333 . S
O329 C331 1.214 . S
O330 Cd326 2.352 . S
O330 C333 1.258 . S
C331 O328 1.320 . S
C331 O329 1.214 . S
O332 Cd324 2.277 . S
O332 C327 1.209 . S
C333 O330 1.258 . S
C333 O335 1.282 . S
O334 Cd326 2.277 . S
O334 C327 1.226 . S
O335 Cd326 2.356 . S
O335 C333 1.282 . S
C336 O337 1.306 . S
C336 O339 1.160 . S
O337 C336 1.306 . S
O337 Cd338 2.228 . S
Cd338 O337 2.228 . S
Cd338 O342 2.273 . S
Cd338 O346 2.277 . S
O339 C336 1.160 . S
O339 Cd340 2.203 . S
Cd340 O339 2.203 . S
Cd340 O342 2.411 . S
Cd340 O343 2.333 . S
Cd340 O344 2.352 . S
Cd340 O348 2.277 . S
Cd340 O349 2.356 . S
C341 O346 1.209 . S
C341 O348 1.226 . S
O342 Cd338 2.273 . S
O342 Cd340 2.411 . S
O342 C345 1.320 . S
O343 Cd340 2.333 . S
O343 C345 1.214 . S
O344 Cd340 2.352 . S
O344 C347 1.258 . S
C345 O342 1.320 . S
C345 O343 1.214 . S
O346 Cd338 2.277 . S
O346 C341 1.209 . S
C347 O344 1.258 . S
C347 O349 1.282 . S
O348 Cd340 2.277 . S
O348 C341 1.226 . S
O349 Cd340 2.356 . S
O349 C347 1.282 . S
C350 O351 1.306 . S
C350 O353 1.160 . S
O351 C350 1.306 . S
O351 Cd352 2.228 . S
Cd352 O351 2.228 . S
Cd352 O356 2.273 . S
Cd352 O360 2.277 . S
O353 C350 1.160 . S
O353 Cd354 2.203 . S
Cd354 O353 2.203 . S
Cd354 O356 2.411 . S
Cd354 O357 2.333 . S
Cd354 O358 2.352 . S
Cd354 O362 2.277 . S
Cd354 O363 2.356 . S
C355 O360 1.209 . S
C355 O362 1.226 . S
O356 Cd352 2.273 . S
O356 Cd354 2.411 . S
O356 C359 1.320 . S
O357 Cd354 2.333 . S
O357 C359 1.214 . S
O358 Cd354 2.352 . S
O358 C361 1.258 . S
C359 O356 1.320 . S
C359 O357 1.214 . S
O360 Cd352 2.277 . S
O360 C355 1.209 . S
C361 O358 1.258 . S
C361 O363 1.282 . S
O362 Cd354 2.277 . S
O362 C355 1.226 . S
O363 Cd354 2.356 . S
O363 C361 1.282 . S
C364 O365 1.306 . S
C364 O367 1.160 . S
O365 C364 1.306 . S
O365 Cd366 2.228 1_556 S
Cd366 O365 2.228 1_554 S
Cd366 O370 2.273 1_554 S
Cd366 O374 2.277 . S
O367 C364 1.160 . S
O367 Cd368 2.203 . S
Cd368 O367 2.203 . S
Cd368 O370 2.411 . S
Cd368 O371 2.333 . S
Cd368 O372 2.352 . S
Cd368 O376 2.277 1_556 S
Cd368 O377 2.356 . S
C369 O374 1.209 . S
C369 O376 1.226 . S
O370 Cd366 2.273 1_556 S
O370 Cd368 2.411 . S
O370 C373 1.320 . S
O371 Cd368 2.333 . S
O371 C373 1.214 . S
O372 Cd368 2.352 . S
O372 C375 1.258 . S
C373 O370 1.320 . S
C373 O371 1.214 . S
O374 Cd366 2.277 . S
O374 C369 1.209 . S
C375 O372 1.258 . S
C375 O377 1.282 . S
O376 Cd368 2.277 1_554 S
O376 C369 1.226 . S
O377 Cd368 2.356 . S
O377 C375 1.282 . S
C378 O379 1.306 . S
C378 O381 1.160 . S
O379 C378 1.306 . S
O379 Cd380 2.228 1_556 S
Cd380 O379 2.228 1_554 S
Cd380 O384 2.273 1_554 S
Cd380 O388 2.277 . S
O381 C378 1.160 . S
O381 Cd382 2.203 . S
Cd382 O381 2.203 . S
Cd382 O384 2.411 . S
Cd382 O385 2.333 . S
Cd382 O386 2.352 . S
Cd382 O390 2.277 1_556 S
Cd382 O391 2.356 . S
C383 O388 1.209 . S
C383 O390 1.226 . S
O384 Cd380 2.273 1_556 S
O384 Cd382 2.411 . S
O384 C387 1.320 . S
O385 Cd382 2.333 . S
O385 C387 1.214 . S
O386 Cd382 2.352 . S
O386 C389 1.258 . S
C387 O384 1.320 . S
C387 O385 1.214 . S
O388 Cd380 2.277 . S
O388 C383 1.209 . S
C389 O386 1.258 . S
C389 O391 1.282 . S
O390 Cd382 2.277 1_554 S
O390 C383 1.226 . S
O391 Cd382 2.356 . S
O391 C389 1.282 . S
C392 O393 1.306 . S
C392 O395 1.160 . S
O393 C392 1.306 . S
O393 Cd394 2.228 . S
Cd394 O393 2.228 . S
Cd394 O398 2.273 . S
Cd394 O402 2.277 . S
O395 C392 1.160 . S
O395 Cd396 2.203 . S
Cd396 O395 2.203 . S
Cd396 O398 2.411 . S
Cd396 O399 2.333 . S
Cd396 O400 2.352 . S
Cd396 O404 2.277 . S
Cd396 O405 2.356 . S
C397 O402 1.209 . S
C397 O404 1.226 . S
O398 Cd394 2.273 . S
O398 Cd396 2.411 . S
O398 C401 1.320 . S
O399 Cd396 2.333 . S
O399 C401 1.214 . S
O400 Cd396 2.352 . S
O400 C403 1.258 . S
C401 O398 1.320 . S
C401 O399 1.214 . S
O402 Cd394 2.277 . S
O402 C397 1.209 . S
C403 O400 1.258 . S
C403 O405 1.282 . S
O404 Cd396 2.277 . S
O404 C397 1.226 . S
O405 Cd396 2.356 . S
O405 C403 1.282 . S
C406 O407 1.306 . S
C406 O409 1.160 . S
O407 C406 1.306 . S
O407 Cd408 2.228 . S
Cd408 O407 2.228 . S
Cd408 O412 2.273 . S
Cd408 O416 2.277 . S
O409 C406 1.160 . S
O409 Cd410 2.203 . S
Cd410 O409 2.203 . S
Cd410 O412 2.411 . S
Cd410 O413 2.333 . S
Cd410 O414 2.352 . S
Cd410 O418 2.277 . S
Cd410 O419 2.356 . S
C411 O416 1.209 . S
C411 O418 1.226 . S
O412 Cd408 2.273 . S
O412 Cd410 2.411 . S
O412 C415 1.320 . S
O413 Cd410 2.333 . S
O413 C415 1.214 . S
O414 Cd410 2.352 . S
O414 C417 1.258 . S
C415 O412 1.320 . S
C415 O413 1.214 . S
O416 Cd408 2.277 . S
O416 C411 1.209 . S
C417 O414 1.258 . S
C417 O419 1.282 . S
O418 Cd410 2.277 . S
O418 C411 1.226 . S
O419 Cd410 2.356 . S
O419 C417 1.282 . S
C420 O421 1.306 . S
C420 O423 1.160 . S
O421 C420 1.306 . S
O421 Cd422 2.228 1_554 S
Cd422 O421 2.228 1_556 S
Cd422 O426 2.273 1_556 S
Cd422 O430 2.277 . S
O423 C420 1.160 . S
O423 Cd424 2.203 . S
Cd424 O423 2.203 . S
Cd424 O426 2.411 . S
Cd424 O427 2.333 . S
Cd424 O428 2.352 . S
Cd424 O432 2.277 1_554 S
Cd424 O433 2.356 . S
C425 O430 1.209 . S
C425 O432 1.226 . S
O426 Cd422 2.273 1_554 S
O426 Cd424 2.411 . S
O426 C429 1.320 . S
O427 Cd424 2.333 . S
O427 C429 1.214 . S
O428 Cd424 2.352 . S
O428 C431 1.258 . S
C429 O426 1.320 . S
C429 O427 1.214 . S
O430 Cd422 2.277 . S
O430 C425 1.209 . S
C431 O428 1.258 . S
C431 O433 1.282 . S
O432 Cd424 2.277 1_556 S
O432 C425 1.226 . S
O433 Cd424 2.356 . S
O433 C431 1.282 . S
C434 O435 1.306 . S
C434 O437 1.160 . S
O435 C434 1.306 . S
O435 Cd436 2.228 1_554 S
Cd436 O435 2.228 1_556 S
Cd436 O440 2.273 1_556 S
Cd436 O444 2.277 . S
O437 C434 1.160 . S
O437 Cd438 2.203 . S
Cd438 O437 2.203 . S
Cd438 O440 2.411 . S
Cd438 O441 2.333 . S
Cd438 O442 2.352 . S
Cd438 O446 2.277 1_554 S
Cd438 O447 2.356 . S
C439 O444 1.209 . S
C439 O446 1.226 . S
O440 Cd436 2.273 1_554 S
O440 Cd438 2.411 . S
O440 C443 1.320 . S
O441 Cd438 2.333 . S
O441 C443 1.214 . S
O442 Cd438 2.352 . S
O442 C445 1.258 . S
C443 O440 1.320 . S
C443 O441 1.214 . S
O444 Cd436 2.277 . S
O444 C439 1.209 . S
C445 O442 1.258 . S
C445 O447 1.282 . S
O446 Cd438 2.277 1_556 S
O446 C439 1.226 . S
O447 Cd438 2.356 . S
O447 C445 1.282 . S
C448 C449 1.387 . S
C448 H452 0.950 . S
C448 C457 1.390 . S
C449 C448 1.387 . S
C449 C451 1.387 . S
H450 C457 0.950 . S
C451 C449 1.387 . S
C451 C453 1.390 . S
C451 H455 0.950 . S
H452 C448 0.950 . S
C453 C451 1.390 . S
C453 C454 1.387 . S
C453 H456 0.950 . S
C454 C453 1.387 . S
C454 C457 1.387 . S
H455 C451 0.950 . S
H456 C453 0.950 . S
C457 C448 1.390 . S
C457 H450 0.950 . S
C457 C454 1.387 . S
C458 C459 1.387 . S
C458 H462 0.950 . S
C458 C467 1.390 . S
C459 C458 1.387 . S
C459 C461 1.387 . S
H460 C467 0.950 . S
C461 C459 1.387 . S
C461 C463 1.390 . S
C461 H465 0.950 . S
H462 C458 0.950 . S
C463 C461 1.390 . S
C463 C464 1.387 . S
C463 H466 0.950 . S
C464 C463 1.387 . S
C464 C467 1.387 . S
H465 C461 0.950 . S
H466 C463 0.950 . S
C467 C458 1.390 . S
C467 H460 0.950 . S
C467 C464 1.387 . S
C468 C469 1.387 . S
C468 H472 0.950 . S
C468 C477 1.390 . S
C469 C468 1.387 . S
C469 C471 1.387 . S
H470 C477 0.950 . S
C471 C469 1.387 . S
C471 C473 1.390 . S
C471 H475 0.950 . S
H472 C468 0.950 . S
C473 C471 1.390 . S
C473 C474 1.387 . S
C473 H476 0.950 . S
C474 C473 1.387 . S
C474 C477 1.387 . S
H475 C471 0.950 . S
H476 C473 0.950 . S
C477 C468 1.390 . S
C477 H470 0.950 . S
C477 C474 1.387 . S
C478 C479 1.387 . S
C478 H482 0.950 . S
C478 C487 1.390 . S
C479 C478 1.387 . S
C479 C481 1.387 . S
H480 C487 0.950 . S
C481 C479 1.387 . S
C481 C483 1.390 . S
C481 H485 0.950 . S
H482 C478 0.950 . S
C483 C481 1.390 . S
C483 C484 1.387 . S
C483 H486 0.950 . S
C484 C483 1.387 . S
C484 C487 1.387 . S
H485 C481 0.950 . S
H486 C483 0.950 . S
C487 C478 1.390 . S
C487 H480 0.950 . S
C487 C484 1.387 . S
C488 C489 1.387 . S
C488 H492 0.950 . S
C488 C497 1.390 . S
C489 C488 1.387 . S
C489 C491 1.387 . S
H490 C497 0.950 . S
C491 C489 1.387 . S
C491 C493 1.390 . S
C491 H495 0.950 . S
H492 C488 0.950 . S
C493 C491 1.390 . S
C493 C494 1.387 . S
C493 H496 0.950 . S
C494 C493 1.387 . S
C494 C497 1.387 . S
H495 C491 0.950 . S
H496 C493 0.950 . S
C497 C488 1.390 . S
C497 H490 0.950 . S
C497 C494 1.387 . S
C498 C499 1.387 . S
C498 H502 0.950 . S
C498 C507 1.390 . S
C499 C498 1.387 . S
C499 C501 1.387 . S
H500 C507 0.950 . S
C501 C499 1.387 . S
C501 C503 1.390 . S
C501 H505 0.950 . S
H502 C498 0.950 . S
C503 C501 1.390 . S
C503 C504 1.387 . S
C503 H506 0.950 . S
C504 C503 1.387 . S
C504 C507 1.387 . S
H505 C501 0.950 . S
H506 C503 0.950 . S
C507 C498 1.390 . S
C507 H500 0.950 . S
C507 C504 1.387 . S
C508 C509 1.387 . S
C508 H512 0.950 . S
C508 C517 1.390 . S
C509 C508 1.387 . S
C509 C511 1.387 . S
H510 C517 0.950 . S
C511 C509 1.387 . S
C511 C513 1.390 . S
C511 H515 0.950 . S
H512 C508 0.950 . S
C513 C511 1.390 . S
C513 C514 1.387 . S
C513 H516 0.950 . S
C514 C513 1.387 . S
C514 C517 1.387 . S
H515 C511 0.950 . S
H516 C513 0.950 . S
C517 C508 1.390 . S
C517 H510 0.950 . S
C517 C514 1.387 . S
C518 C519 1.387 . S
C518 H522 0.950 . S
C518 C527 1.390 . S
C519 C518 1.387 . S
C519 C521 1.387 . S
H520 C527 0.950 . S
C521 C519 1.387 . S
C521 C523 1.390 . S
C521 H525 0.950 . S
H522 C518 0.950 . S
C523 C521 1.390 . S
C523 C524 1.387 . S
C523 H526 0.950 . S
C524 C523 1.387 . S
C524 C527 1.387 . S
H525 C521 0.950 . S
H526 C523 0.950 . S
C527 C518 1.390 . S
C527 H520 0.950 . S
C527 C524 1.387 . S
C528 C529 1.387 . S
C528 H532 0.950 . S
C528 C537 1.390 . S
C529 C528 1.387 . S
C529 C531 1.387 . S
H530 C537 0.950 . S
C531 C529 1.387 . S
C531 C533 1.390 . S
C531 H535 0.950 . S
H532 C528 0.950 . S
C533 C531 1.390 . S
C533 C534 1.387 . S
C533 H536 0.950 . S
C534 C533 1.387 . S
C534 C537 1.387 . S
H535 C531 0.950 . S
H536 C533 0.950 . S
C537 C528 1.390 . S
C537 H530 0.950 . S
C537 C534 1.387 . S
C538 C539 1.387 . S
C538 H542 0.950 . S
C538 C547 1.390 . S
C539 C538 1.387 . S
C539 C541 1.387 . S
H540 C547 0.950 . S
C541 C539 1.387 . S
C541 C543 1.390 . S
C541 H545 0.950 . S
H542 C538 0.950 . S
C543 C541 1.390 . S
C543 C544 1.387 . S
C543 H546 0.950 . S
C544 C543 1.387 . S
C544 C547 1.387 . S
H545 C541 0.950 . S
H546 C543 0.950 . S
C547 C538 1.390 . S
C547 H540 0.950 . S
C547 C544 1.387 . S
C548 C549 1.387 . S
C548 H552 0.950 . S
C548 C557 1.390 . S
C549 C548 1.387 . S
C549 C551 1.387 . S
H550 C557 0.950 . S
C551 C549 1.387 . S
C551 C553 1.390 . S
C551 H555 0.950 . S
H552 C548 0.950 . S
C553 C551 1.390 . S
C553 C554 1.387 . S
C553 H556 0.950 . S
C554 C553 1.387 . S
C554 C557 1.387 . S
H555 C551 0.950 . S
H556 C553 0.950 . S
C557 C548 1.390 . S
C557 H550 0.950 . S
C557 C554 1.387 . S
C558 C559 1.387 . S
C558 H562 0.950 . S
C558 C567 1.390 . S
C559 C558 1.387 . S
C559 C561 1.387 . S
H560 C567 0.950 . S
C561 C559 1.387 . S
C561 C563 1.390 . S
C561 H565 0.950 . S
H562 C558 0.950 . S
C563 C561 1.390 . S
C563 C564 1.387 . S
C563 H566 0.950 . S
C564 C563 1.387 . S
C564 C567 1.387 . S
H565 C561 0.950 . S
H566 C563 0.950 . S
C567 C558 1.390 . S
C567 H560 0.950 . S
C567 C564 1.387 . S
C568 C569 1.387 . S
C568 H572 0.950 . S
C568 C577 1.390 . S
C569 C568 1.387 . S
C569 C571 1.387 . S
H570 C577 0.950 . S
C571 C569 1.387 . S
C571 C573 1.390 . S
C571 H575 0.950 . S
H572 C568 0.950 . S
C573 C571 1.390 . S
C573 C574 1.387 . S
C573 H576 0.950 . S
C574 C573 1.387 . S
C574 C577 1.387 . S
H575 C571 0.950 . S
H576 C573 0.950 . S
C577 C568 1.390 . S
C577 H570 0.950 . S
C577 C574 1.387 . S
C578 C579 1.387 . S
C578 H582 0.950 . S
C578 C587 1.390 . S
C579 C578 1.387 . S
C579 C581 1.387 . S
H580 C587 0.950 . S
C581 C579 1.387 . S
C581 C583 1.390 . S
C581 H585 0.950 . S
H582 C578 0.950 . S
C583 C581 1.390 . S
C583 C584 1.387 . S
C583 H586 0.950 . S
C584 C583 1.387 . S
C584 C587 1.387 . S
H585 C581 0.950 . S
H586 C583 0.950 . S
C587 C578 1.390 . S
C587 H580 0.950 . S
C587 C584 1.387 . S
C588 C589 1.387 . S
C588 H592 0.950 . S
C588 C597 1.390 . S
C589 C588 1.387 . S
C589 C591 1.387 . S
H590 C597 0.950 . S
C591 C589 1.387 . S
C591 C593 1.390 . S
C591 H595 0.950 . S
H592 C588 0.950 . S
C593 C591 1.390 . S
C593 C594 1.387 . S
C593 H596 0.950 . S
C594 C593 1.387 . S
C594 C597 1.387 . S
H595 C591 0.950 . S
H596 C593 0.950 . S
C597 C588 1.390 . S
C597 H590 0.950 . S
C597 C594 1.387 . S
C598 C599 1.387 . S
C598 H602 0.950 . S
C598 C607 1.390 . S
C599 C598 1.387 . S
C599 C601 1.387 . S
H600 C607 0.950 . S
C601 C599 1.387 . S
C601 C603 1.390 . S
C601 H605 0.950 . S
H602 C598 0.950 . S
C603 C601 1.390 . S
C603 C604 1.387 . S
C603 H606 0.950 . S
C604 C603 1.387 . S
C604 C607 1.387 . S
H605 C601 0.950 . S
H606 C603 0.950 . S
C607 C598 1.390 . S
C607 H600 0.950 . S
C607 C604 1.387 . S
C608 C609 1.387 . S
C608 H612 0.950 . S
C608 C617 1.390 1_565 S
C609 C608 1.387 . S
C609 C611 1.387 . S
H610 C617 0.950 . S
C611 C609 1.387 . S
C611 C613 1.390 1_565 S
C611 H615 0.950 . S
H612 C608 0.950 . S
C613 C611 1.390 1_545 S
C613 C614 1.387 . S
C613 H616 0.950 . S
C614 C613 1.387 . S
C614 C617 1.387 . S
H615 C611 0.950 . S
H616 C613 0.950 . S
C617 C608 1.390 1_545 S
C617 H610 0.950 . S
C617 C614 1.387 . S
C618 C619 1.387 . S
C618 H622 0.950 . S
C618 C627 1.390 1_655 S
C619 C618 1.387 . S
C619 C621 1.387 . S
H620 C627 0.950 . S
C621 C619 1.387 . S
C621 C623 1.390 1_655 S
C621 H625 0.950 . S
H622 C618 0.950 . S
C623 C621 1.390 1_455 S
C623 C624 1.387 . S
C623 H626 0.950 . S
C624 C623 1.387 . S
C624 C627 1.387 . S
H625 C621 0.950 . S
H626 C623 0.950 . S
C627 C618 1.390 1_455 S
C627 H620 0.950 . S
C627 C624 1.387 . S
C628 C629 1.387 . S
C628 H632 0.950 . S
C628 C637 1.390 . S
C629 C628 1.387 . S
C629 C631 1.387 1_556 S
H630 C637 0.950 . S
C631 C629 1.387 1_554 S
C631 C633 1.390 . S
C631 H635 0.950 . S
H632 C628 0.950 . S
C633 C631 1.390 . S
C633 C634 1.387 . S
C633 H636 0.950 . S
C634 C633 1.387 . S
C634 C637 1.387 1_554 S
H635 C631 0.950 . S
H636 C633 0.950 . S
C637 C628 1.390 . S
C637 H630 0.950 . S
C637 C634 1.387 1_556 S
C638 C639 1.387 . S
C638 H642 0.950 . S
C638 C647 1.390 1_445 S
C639 C638 1.387 . S
C639 C641 1.387 1_556 S
H640 C647 0.950 . S
C641 C639 1.387 1_554 S
C641 C643 1.390 1_445 S
C641 H645 0.950 . S
H642 C638 0.950 . S
C643 C641 1.390 1_665 S
C643 C644 1.387 . S
C643 H646 0.950 . S
C644 C643 1.387 . S
C644 C647 1.387 1_554 S
H645 C641 0.950 . S
H646 C643 0.950 . S
C647 C638 1.390 1_665 S
C647 H640 0.950 . S
C647 C644 1.387 1_556 S
C648 C649 1.387 . S
C648 H652 0.950 . S
C648 C657 1.390 1_545 S
C649 C648 1.387 . S
C649 C651 1.387 . S
H650 C657 0.950 . S
C651 C649 1.387 . S
C651 C653 1.390 1_545 S
C651 H655 0.950 . S
H652 C648 0.950 . S
C653 C651 1.390 1_565 S
C653 C654 1.387 . S
C653 H656 0.950 . S
C654 C653 1.387 . S
C654 C657 1.387 . S
H655 C651 0.950 . S
H656 C653 0.950 . S
C657 C648 1.390 1_565 S
C657 H650 0.950 . S
C657 C654 1.387 . S
C658 C659 1.387 . S
C658 H662 0.950 . S
C658 C667 1.390 . S
C659 C658 1.387 . S
C659 C661 1.387 1_455 S
H660 C667 0.950 . S
C661 C659 1.387 1_655 S
C661 C663 1.390 . S
C661 H665 0.950 . S
H662 C658 0.950 . S
C663 C661 1.390 . S
C663 C664 1.387 . S
C663 H666 0.950 . S
C664 C663 1.387 . S
C664 C667 1.387 1_655 S
H665 C661 0.950 . S
H666 C663 0.950 . S
C667 C658 1.390 . S
C667 H660 0.950 . S
C667 C664 1.387 1_455 S
C668 C669 1.387 . S
C668 H672 0.950 . S
C668 C677 1.390 . S
C669 C668 1.387 . S
C669 C671 1.387 1_556 S
H670 C677 0.950 . S
C671 C669 1.387 1_554 S
C671 C673 1.390 . S
C671 H675 0.950 . S
H672 C668 0.950 . S
C673 C671 1.390 . S
C673 C674 1.387 . S
C673 H676 0.950 . S
C674 C673 1.387 . S
C674 C677 1.387 1_554 S
H675 C671 0.950 . S
H676 C673 0.950 . S
C677 C668 1.390 . S
C677 H670 0.950 . S
C677 C674 1.387 1_556 S
C678 C679 1.387 . S
C678 H682 0.950 . S
C678 C687 1.390 . S
C679 C678 1.387 . S
C679 C681 1.387 . S
H680 C687 0.950 . S
C681 C679 1.387 . S
C681 C683 1.390 . S
C681 H685 0.950 . S
H682 C678 0.950 . S
C683 C681 1.390 . S
C683 C684 1.387 . S
C683 H686 0.950 . S
C684 C683 1.387 . S
C684 C687 1.387 . S
H685 C681 0.950 . S
H686 C683 0.950 . S
C687 C678 1.390 . S
C687 H680 0.950 . S
C687 C684 1.387 . S
C688 C689 1.387 . S
C688 H692 0.950 . S
C688 C697 1.390 . S
C689 C688 1.387 . S
C689 C691 1.387 . S
H690 C697 0.950 . S
C691 C689 1.387 . S
C691 C693 1.390 . S
C691 H695 0.950 . S
H692 C688 0.950 . S
C693 C691 1.390 . S
C693 C694 1.387 . S
C693 H696 0.950 . S
C694 C693 1.387 . S
C694 C697 1.387 . S
H695 C691 0.950 . S
H696 C693 0.950 . S
C697 C688 1.390 . S
C697 H690 0.950 . S
C697 C694 1.387 . S
C698 C699 1.387 . S
C698 H702 0.950 . S
C698 C707 1.390 . S
C699 C698 1.387 . S
C699 C701 1.387 1_655 S
H700 C707 0.950 . S
C701 C699 1.387 1_455 S
C701 C703 1.390 . S
C701 H705 0.950 . S
H702 C698 0.950 . S
C703 C701 1.390 . S
C703 C704 1.387 . S
C703 H706 0.950 . S
C704 C703 1.387 . S
C704 C707 1.387 1_455 S
H705 C701 0.950 . S
H706 C703 0.950 . S
C707 C698 1.390 . S
C707 H700 0.950 . S
C707 C704 1.387 1_655 S
C708 C709 1.387 . S
C708 H712 0.950 . S
C708 C717 1.390 . S
C709 C708 1.387 . S
C709 C711 1.387 . S
H710 C717 0.950 . S
C711 C709 1.387 . S
C711 C713 1.390 . S
C711 H715 0.950 . S
H712 C708 0.950 . S
C713 C711 1.390 . S
C713 C714 1.387 . S
C713 H716 0.950 . S
C714 C713 1.387 . S
C714 C717 1.387 . S
H715 C711 0.950 . S
H716 C713 0.950 . S
C717 C708 1.390 . S
C717 H710 0.950 . S
C717 C714 1.387 . S
C718 C719 1.387 . S
C718 H722 0.950 . S
C718 C727 1.390 . S
C719 C718 1.387 . S
C719 C721 1.387 . S
H720 C727 0.950 . S
C721 C719 1.387 . S
C721 C723 1.390 . S
C721 H725 0.950 . S
H722 C718 0.950 . S
C723 C721 1.390 . S
C723 C724 1.387 . S
C723 H726 0.950 . S
C724 C723 1.387 . S
C724 C727 1.387 . S
H725 C721 0.950 . S
H726 C723 0.950 . S
C727 C718 1.390 . S
C727 H720 0.950 . S
C727 C724 1.387 . S
C728 C729 1.387 . S
C728 H732 0.950 . S
C728 C737 1.390 . S
C729 C728 1.387 . S
C729 C731 1.387 . S
H730 C737 0.950 . S
C731 C729 1.387 . S
C731 C733 1.390 . S
C731 H735 0.950 . S
H732 C728 0.950 . S
C733 C731 1.390 . S
C733 C734 1.387 . S
C733 H736 0.950 . S
C734 C733 1.387 . S
C734 C737 1.387 . S
H735 C731 0.950 . S
H736 C733 0.950 . S
C737 C728 1.390 . S
C737 H730 0.950 . S
C737 C734 1.387 . S
C738 C739 1.387 . S
C738 H742 0.950 . S
C738 C747 1.390 1_545 S
C739 C738 1.387 . S
C739 C741 1.387 . S
H740 C747 0.950 . S
C741 C739 1.387 . S
C741 C743 1.390 1_545 S
C741 H745 0.950 . S
H742 C738 0.950 . S
C743 C741 1.390 1_565 S
C743 C744 1.387 . S
C743 H746 0.950 . S
C744 C743 1.387 . S
C744 C747 1.387 . S
H745 C741 0.950 . S
H746 C743 0.950 . S
C747 C738 1.390 1_565 S
C747 H740 0.950 . S
C747 C744 1.387 . S
C748 C749 1.387 . S
C748 H752 0.950 . S
C748 C757 1.390 . S
C749 C748 1.387 . S
C749 C751 1.387 . S
H750 C757 0.950 . S
C751 C749 1.387 . S
C751 C753 1.390 . S
C751 H755 0.950 . S
H752 C748 0.950 . S
C753 C751 1.390 . S
C753 C754 1.387 . S
C753 H756 0.950 . S
C754 C753 1.387 . S
C754 C757 1.387 . S
H755 C751 0.950 . S
H756 C753 0.950 . S
C757 C748 1.390 . S
C757 H750 0.950 . S
C757 C754 1.387 . S
C758 C759 1.387 . S
C758 H762 0.950 . S
C758 C767 1.390 . S
C759 C758 1.387 . S
C759 C761 1.387 1_554 S
H760 C767 0.950 . S
C761 C759 1.387 1_556 S
C761 C763 1.390 . S
C761 H765 0.950 . S
H762 C758 0.950 . S
C763 C761 1.390 . S
C763 C764 1.387 . S
C763 H766 0.950 . S
C764 C763 1.387 . S
C764 C767 1.387 1_556 S
H765 C761 0.950 . S
H766 C763 0.950 . S
C767 C758 1.390 . S
C767 H760 0.950 . S
C767 C764 1.387 1_554 S
C768 C769 1.387 . S
C768 H772 0.950 . S
C768 C777 1.390 . S
C769 C768 1.387 . S
C769 C771 1.387 . S
H770 C777 0.950 . S
C771 C769 1.387 . S
C771 C773 1.390 . S
C771 H775 0.950 . S
H772 C768 0.950 . S
C773 C771 1.390 . S
C773 C774 1.387 . S
C773 H776 0.950 . S
C774 C773 1.387 . S
C774 C777 1.387 . S
H775 C771 0.950 . S
H776 C773 0.950 . S
C777 C768 1.390 . S
C777 H770 0.950 . S
C777 C774 1.387 . S
C778 C779 1.387 1_554 S
C778 H782 0.950 . S
C778 C787 1.390 . S
C779 C778 1.387 1_556 S
C779 C781 1.387 . S
H780 C787 0.950 . S
C781 C779 1.387 . S
C781 C783 1.390 . S
C781 H785 0.950 . S
H782 C778 0.950 . S
C783 C781 1.390 . S
C783 C784 1.387 . S
C783 H786 0.950 . S
C784 C783 1.387 . S
C784 C787 1.387 1_556 S
H785 C781 0.950 . S
H786 C783 0.950 . S
C787 C778 1.390 . S
C787 H780 0.950 . S
C787 C784 1.387 1_554 S
C788 C789 1.387 . S
C788 H792 0.950 . S
C788 C797 1.390 . S
C789 C788 1.387 . S
C789 C791 1.387 . S
H790 C797 0.950 . S
C791 C789 1.387 . S
C791 C793 1.390 . S
C791 H795 0.950 . S
H792 C788 0.950 . S
C793 C791 1.390 . S
C793 C794 1.387 . S
C793 H796 0.950 . S
C794 C793 1.387 . S
C794 C797 1.387 . S
H795 C791 0.950 . S
H796 C793 0.950 . S
C797 C788 1.390 . S
C797 H790 0.950 . S
C797 C794 1.387 . S
C798 C799 1.387 . S
C798 H802 0.950 . S
C798 C807 1.390 . S
C799 C798 1.387 . S
C799 C801 1.387 1_554 S
H800 C807 0.950 . S
C801 C799 1.387 1_556 S
C801 C803 1.390 . S
C801 H805 0.950 . S
H802 C798 0.950 . S
C803 C801 1.390 . S
C803 C804 1.387 1_556 S
C803 H806 0.950 . S
C804 C803 1.387 1_554 S
C804 C807 1.387 . S
H805 C801 0.950 . S
H806 C803 0.950 . S
C807 C798 1.390 . S
C807 H800 0.950 . S
C807 C804 1.387 . S
C808 C809 1.387 . S
C808 H812 0.950 . S
C808 C817 1.390 . S
C809 C808 1.387 . S
C809 C811 1.387 . S
H810 C817 0.950 . S
C811 C809 1.387 . S
C811 C813 1.390 . S
C811 H815 0.950 . S
H812 C808 0.950 . S
C813 C811 1.390 . S
C813 C814 1.387 . S
C813 H816 0.950 . S
C814 C813 1.387 . S
C814 C817 1.387 . S
H815 C811 0.950 . S
H816 C813 0.950 . S
C817 C808 1.390 . S
C817 H810 0.950 . S
C817 C814 1.387 . S
C818 C819 1.387 . S
C818 H822 0.950 . S
C818 C827 1.390 . S
C819 C818 1.387 . S
C819 C821 1.387 . S
H820 C827 0.950 . S
C821 C819 1.387 . S
C821 C823 1.390 . S
C821 H825 0.950 . S
H822 C818 0.950 . S
C823 C821 1.390 . S
C823 C824 1.387 . S
C823 H826 0.950 . S
C824 C823 1.387 . S
C824 C827 1.387 . S
H825 C821 0.950 . S
H826 C823 0.950 . S
C827 C818 1.390 . S
C827 H820 0.950 . S
C827 C824 1.387 . S
C828 C829 1.387 . S
C828 H832 0.950 . S
C828 C837 1.390 . S
C829 C828 1.387 . S
C829 C831 1.387 . S
H830 C837 0.950 . S
C831 C829 1.387 . S
C831 C833 1.390 . S
C831 H835 0.950 . S
H832 C828 0.950 . S
C833 C831 1.390 . S
C833 C834 1.387 . S
C833 H836 0.950 . S
C834 C833 1.387 . S
C834 C837 1.387 . S
H835 C831 0.950 . S
H836 C833 0.950 . S
C837 C828 1.390 . S
C837 H830 0.950 . S
C837 C834 1.387 . S
C838 C839 1.387 . S
C838 H842 0.950 . S
C838 C847 1.390 . S
C839 C838 1.387 . S
C839 C841 1.387 . S
H840 C847 0.950 . S
C841 C839 1.387 . S
C841 C843 1.390 . S
C841 H845 0.950 . S
H842 C838 0.950 . S
C843 C841 1.390 . S
C843 C844 1.387 . S
C843 H846 0.950 . S
C844 C843 1.387 . S
C844 C847 1.387 . S
H845 C841 0.950 . S
H846 C843 0.950 . S
C847 C838 1.390 . S
C847 H840 0.950 . S
C847 C844 1.387 . S
C848 C849 1.387 . S
C848 H852 0.950 . S
C848 C857 1.390 . S
C849 C848 1.387 . S
C849 C851 1.387 . S
H850 C857 0.950 . S
C851 C849 1.387 . S
C851 C853 1.390 . S
C851 H855 0.950 . S
H852 C848 0.950 . S
C853 C851 1.390 . S
C853 C854 1.387 . S
C853 H856 0.950 . S
C854 C853 1.387 . S
C854 C857 1.387 . S
H855 C851 0.950 . S
H856 C853 0.950 . S
C857 C848 1.390 . S
C857 H850 0.950 . S
C857 C854 1.387 . S
C858 C859 1.387 . S
C858 H862 0.950 . S
C858 C867 1.390 . S
C859 C858 1.387 . S
C859 C861 1.387 . S
H860 C867 0.950 . S
C861 C859 1.387 . S
C861 C863 1.390 . S
C861 H865 0.950 . S
H862 C858 0.950 . S
C863 C861 1.390 . S
C863 C864 1.387 . S
C863 H866 0.950 . S
C864 C863 1.387 . S
C864 C867 1.387 . S
H865 C861 0.950 . S
H866 C863 0.950 . S
C867 C858 1.390 . S
C867 H860 0.950 . S
C867 C864 1.387 . S
C868 C869 1.387 . S
C868 H872 0.950 . S
C868 C877 1.390 . S
C869 C868 1.387 . S
C869 C871 1.387 . S
H870 C877 0.950 . S
C871 C869 1.387 . S
C871 C873 1.390 . S
C871 H875 0.950 . S
H872 C868 0.950 . S
C873 C871 1.390 . S
C873 C874 1.387 . S
C873 H876 0.950 . S
C874 C873 1.387 . S
C874 C877 1.387 . S
H875 C871 0.950 . S
H876 C873 0.950 . S
C877 C868 1.390 . S
C877 H870 0.950 . S
C877 C874 1.387 . S
C878 C879 1.387 . S
C878 H882 0.950 . S
C878 C887 1.390 . S
C879 C878 1.387 . S
C879 C881 1.387 . S
H880 C887 0.950 . S
C881 C879 1.387 . S
C881 C883 1.390 . S
C881 H885 0.950 . S
H882 C878 0.950 . S
C883 C881 1.390 . S
C883 C884 1.387 . S
C883 H886 0.950 . S
C884 C883 1.387 . S
C884 C887 1.387 . S
H885 C881 0.950 . S
H886 C883 0.950 . S
C887 C878 1.390 . S
C887 H880 0.950 . S
C887 C884 1.387 . S
C888 C889 1.387 . S
C888 H892 0.950 . S
C888 C897 1.390 . S
C889 C888 1.387 . S
C889 C891 1.387 . S
H890 C897 0.950 . S
C891 C889 1.387 . S
C891 C893 1.390 . S
C891 H895 0.950 . S
H892 C888 0.950 . S
C893 C891 1.390 . S
C893 C894 1.387 . S
C893 H896 0.950 . S
C894 C893 1.387 . S
C894 C897 1.387 . S
H895 C891 0.950 . S
H896 C893 0.950 . S
C897 C888 1.390 . S
C897 H890 0.950 . S
C897 C894 1.387 . S
C898 C899 1.387 1_554 S
C898 H902 0.950 . S
C898 C907 1.390 . S
C899 C898 1.387 1_556 S
C899 C901 1.387 . S
H900 C907 0.950 . S
C901 C899 1.387 . S
C901 C903 1.390 . S
C901 H905 0.950 . S
H902 C898 0.950 . S
C903 C901 1.390 . S
C903 C904 1.387 . S
C903 H906 0.950 . S
C904 C903 1.387 . S
C904 C907 1.387 1_556 S
H905 C901 0.950 . S
H906 C903 0.950 . S
C907 C898 1.390 . S
C907 H900 0.950 . S
C907 C904 1.387 1_554 S
C908 C909 1.387 . S
C908 H912 0.950 . S
C908 C917 1.390 . S
C909 C908 1.387 . S
C909 C911 1.387 . S
H910 C917 0.950 . S
C911 C909 1.387 . S
C911 C913 1.390 . S
C911 H915 0.950 . S
H912 C908 0.950 . S
C913 C911 1.390 . S
C913 C914 1.387 . S
C913 H916 0.950 . S
C914 C913 1.387 . S
C914 C917 1.387 . S
H915 C911 0.950 . S
H916 C913 0.950 . S
C917 C908 1.390 . S
C917 H910 0.950 . S
C917 C914 1.387 . S
C918 C919 1.387 . S
C918 H922 0.950 . S
C918 C927 1.390 . S
C919 C918 1.387 . S
C919 C921 1.387 1_554 S
H920 C927 0.950 . S
C921 C919 1.387 1_556 S
C921 C923 1.390 . S
C921 H925 0.950 . S
H922 C918 0.950 . S
C923 C921 1.390 . S
C923 C924 1.387 1_556 S
C923 H926 0.950 . S
C924 C923 1.387 1_554 S
C924 C927 1.387 . S
H925 C921 0.950 . S
H926 C923 0.950 . S
C927 C918 1.390 . S
C927 H920 0.950 . S
C927 C924 1.387 . S
C928 C929 1.387 . S
C928 H932 0.950 . S
C928 C937 1.390 . S
C929 C928 1.387 . S
C929 C931 1.387 . S
H930 C937 0.950 . S
C931 C929 1.387 . S
C931 C933 1.390 . S
C931 H935 0.950 . S
H932 C928 0.950 . S
C933 C931 1.390 . S
C933 C934 1.387 . S
C933 H936 0.950 . S
C934 C933 1.387 . S
C934 C937 1.387 . S
H935 C931 0.950 . S
H936 C933 0.950 . S
C937 C928 1.390 . S
C937 H930 0.950 . S
C937 C934 1.387 . S
C938 C939 1.387 . S
C938 H942 0.950 . S
C938 C947 1.390 . S
C939 C938 1.387 . S
C939 C941 1.387 . S
H940 C947 0.950 . S
C941 C939 1.387 . S
C941 C943 1.390 . S
C941 H945 0.950 . S
H942 C938 0.950 . S
C943 C941 1.390 . S
C943 C944 1.387 . S
C943 H946 0.950 . S
C944 C943 1.387 . S
C944 C947 1.387 . S
H945 C941 0.950 . S
H946 C943 0.950 . S
C947 C938 1.390 . S
C947 H940 0.950 . S
C947 C944 1.387 . S
C948 C949 1.387 . S
C948 H952 0.950 . S
C948 C957 1.390 . S
C949 C948 1.387 . S
C949 C951 1.387 . S
H950 C957 0.950 . S
C951 C949 1.387 . S
C951 C953 1.390 . S
C951 H955 0.950 . S
H952 C948 0.950 . S
C953 C951 1.390 . S
C953 C954 1.387 . S
C953 H956 0.950 . S
C954 C953 1.387 . S
C954 C957 1.387 . S
H955 C951 0.950 . S
H956 C953 0.950 . S
C957 C948 1.390 . S
C957 H950 0.950 . S
C957 C954 1.387 . S
C958 C959 1.387 . S
C958 H962 0.950 . S
C958 C967 1.390 . S
C959 C958 1.387 . S
C959 C961 1.387 . S
H960 C967 0.950 . S
C961 C959 1.387 . S
C961 C963 1.390 . S
C961 H965 0.950 . S
H962 C958 0.950 . S
C963 C961 1.390 . S
C963 C964 1.387 . S
C963 H966 0.950 . S
C964 C963 1.387 . S
C964 C967 1.387 . S
H965 C961 0.950 . S
H966 C963 0.950 . S
C967 C958 1.390 . S
C967 H960 0.950 . S
C967 C964 1.387 . S
C968 C969 1.387 . S
C968 H972 0.950 . S
C968 C977 1.390 . S
C969 C968 1.387 . S
C969 C971 1.387 . S
H970 C977 0.950 . S
C971 C969 1.387 . S
C971 C973 1.390 . S
C971 H975 0.950 . S
H972 C968 0.950 . S
C973 C971 1.390 . S
C973 C974 1.387 . S
C973 H976 0.950 . S
C974 C973 1.387 . S
C974 C977 1.387 . S
H975 C971 0.950 . S
H976 C973 0.950 . S
C977 C968 1.390 . S
C977 H970 0.950 . S
C977 C974 1.387 . S
C978 C979 1.387 . S
C978 H982 0.950 . S
C978 C987 1.390 . S
C979 C978 1.387 . S
C979 C981 1.387 . S
H980 C987 0.950 . S
C981 C979 1.387 . S
C981 C983 1.390 . S
C981 H985 0.950 . S
H982 C978 0.950 . S
C983 C981 1.390 . S
C983 C984 1.387 . S
C983 H986 0.950 . S
C984 C983 1.387 . S
C984 C987 1.387 . S
H985 C981 0.950 . S
H986 C983 0.950 . S
C987 C978 1.390 . S
C987 H980 0.950 . S
C987 C984 1.387 . S
C988 C989 1.387 . S
C988 H992 0.950 . S
C988 C997 1.390 . S
C989 C988 1.387 . S
C989 C991 1.387 . S
H990 C997 0.950 . S
C991 C989 1.387 . S
C991 C993 1.390 . S
C991 H995 0.950 . S
H992 C988 0.950 . S
C993 C991 1.390 . S
C993 C994 1.387 . S
C993 H996 0.950 . S
C994 C993 1.387 . S
C994 C997 1.387 . S
H995 C991 0.950 . S
H996 C993 0.950 . S
C997 C988 1.390 . S
C997 H990 0.950 . S
C997 C994 1.387 . S
C998 C999 1.387 . S
C998 H1002 0.950 . S
C998 C1007 1.390 . S
C999 C998 1.387 . S
C999 C1001 1.387 . S
H1000 C1007 0.950 . S
C1001 C999 1.387 . S
C1001 C1003 1.390 . S
C1001 H1005 0.950 . S
H1002 C998 0.950 . S
C1003 C1001 1.390 . S
C1003 C1004 1.387 . S
C1003 H1006 0.950 . S
C1004 C1003 1.387 . S
C1004 C1007 1.387 . S
H1005 C1001 0.950 . S
H1006 C1003 0.950 . S
C1007 C998 1.390 . S
C1007 H1000 0.950 . S
C1007 C1004 1.387 . S
C1008 C1009 1.387 . S
C1008 H1012 0.950 . S
C1008 C1017 1.390 . S
C1009 C1008 1.387 . S
C1009 C1011 1.387 . S
H1010 C1017 0.950 . S
C1011 C1009 1.387 . S
C1011 C1013 1.390 . S
C1011 H1015 0.950 . S
H1012 C1008 0.950 . S
C1013 C1011 1.390 . S
C1013 C1014 1.387 . S
C1013 H1016 0.950 . S
C1014 C1013 1.387 . S
C1014 C1017 1.387 . S
H1015 C1011 0.950 . S
H1016 C1013 0.950 . S
C1017 C1008 1.390 . S
C1017 H1010 0.950 . S
C1017 C1014 1.387 . S
C1018 C1019 1.387 . S
C1018 H1022 0.950 . S
C1018 C1027 1.390 . S
C1019 C1018 1.387 . S
C1019 C1021 1.387 . S
H1020 C1027 0.950 . S
C1021 C1019 1.387 . S
C1021 C1023 1.390 . S
C1021 H1025 0.950 . S
H1022 C1018 0.950 . S
C1023 C1021 1.390 . S
C1023 C1024 1.387 . S
C1023 H1026 0.950 . S
C1024 C1023 1.387 . S
C1024 C1027 1.387 . S
H1025 C1021 0.950 . S
H1026 C1023 0.950 . S
C1027 C1018 1.390 . S
C1027 H1020 0.950 . S
C1027 C1024 1.387 . S
C1028 C1029 1.387 . S
C1028 H1032 0.950 . S
C1028 C1037 1.390 . S
C1029 C1028 1.387 . S
C1029 C1031 1.387 . S
H1030 C1037 0.950 . S
C1031 C1029 1.387 . S
C1031 C1033 1.390 . S
C1031 H1035 0.950 . S
H1032 C1028 0.950 . S
C1033 C1031 1.390 . S
C1033 C1034 1.387 . S
C1033 H1036 0.950 . S
C1034 C1033 1.387 . S
C1034 C1037 1.387 . S
H1035 C1031 0.950 . S
H1036 C1033 0.950 . S
C1037 C1028 1.390 . S
C1037 H1030 0.950 . S
C1037 C1034 1.387 . S
C1038 C1039 1.387 . S
C1038 H1042 0.950 . S
C1038 C1047 1.390 . S
C1039 C1038 1.387 . S
C1039 C1041 1.387 . S
H1040 C1047 0.950 . S
C1041 C1039 1.387 . S
C1041 C1043 1.390 . S
C1041 H1045 0.950 . S
H1042 C1038 0.950 . S
C1043 C1041 1.390 . S
C1043 C1044 1.387 . S
C1043 H1046 0.950 . S
C1044 C1043 1.387 . S
C1044 C1047 1.387 . S
H1045 C1041 0.950 . S
H1046 C1043 0.950 . S
C1047 C1038 1.390 . S
C1047 H1040 0.950 . S
C1047 C1044 1.387 . S
C1048 C1049 1.387 . S
C1048 H1052 0.950 . S
C1048 C1057 1.390 . S
C1049 C1048 1.387 . S
C1049 C1051 1.387 . S
H1050 C1057 0.950 . S
C1051 C1049 1.387 . S
C1051 C1053 1.390 . S
C1051 H1055 0.950 . S
H1052 C1048 0.950 . S
C1053 C1051 1.390 . S
C1053 C1054 1.387 . S
C1053 H1056 0.950 . S
C1054 C1053 1.387 . S
C1054 C1057 1.387 . S
H1055 C1051 0.950 . S
H1056 C1053 0.950 . S
C1057 C1048 1.390 . S
C1057 H1050 0.950 . S
C1057 C1054 1.387 . S
C1058 C1059 1.387 . S
C1058 H1062 0.950 . S
C1058 C1067 1.390 . S
C1059 C1058 1.387 . S
C1059 C1061 1.387 . S
H1060 C1067 0.950 . S
C1061 C1059 1.387 . S
C1061 C1063 1.390 . S
C1061 H1065 0.950 . S
H1062 C1058 0.950 . S
C1063 C1061 1.390 . S
C1063 C1064 1.387 . S
C1063 H1066 0.950 . S
C1064 C1063 1.387 . S
C1064 C1067 1.387 . S
H1065 C1061 0.950 . S
H1066 C1063 0.950 . S
C1067 C1058 1.390 . S
C1067 H1060 0.950 . S
C1067 C1064 1.387 . S
C1068 C1069 1.387 . S
C1068 H1072 0.950 . S
C1068 C1077 1.390 . S
C1069 C1068 1.387 . S
C1069 C1071 1.387 . S
H1070 C1077 0.950 . S
C1071 C1069 1.387 . S
C1071 C1073 1.390 . S
C1071 H1075 0.950 . S
H1072 C1068 0.950 . S
C1073 C1071 1.390 . S
C1073 C1074 1.387 . S
C1073 H1076 0.950 . S
C1074 C1073 1.387 . S
C1074 C1077 1.387 . S
H1075 C1071 0.950 . S
H1076 C1073 0.950 . S
C1077 C1068 1.390 . S
C1077 H1070 0.950 . S
C1077 C1074 1.387 . S
C1078 C1079 1.387 . S
C1078 H1082 0.950 . S
C1078 C1087 1.390 . S
C1079 C1078 1.387 . S
C1079 C1081 1.387 . S
H1080 C1087 0.950 . S
C1081 C1079 1.387 . S
C1081 C1083 1.390 . S
C1081 H1085 0.950 . S
H1082 C1078 0.950 . S
C1083 C1081 1.390 . S
C1083 C1084 1.387 . S
C1083 H1086 0.950 . S
C1084 C1083 1.387 . S
C1084 C1087 1.387 . S
H1085 C1081 0.950 . S
H1086 C1083 0.950 . S
C1087 C1078 1.390 . S
C1087 H1080 0.950 . S
C1087 C1084 1.387 . S
C449 C47 1.243 . S
C454 C5 1.243 . S
C459 C33 1.247 . S
C464 C19 1.247 . S
C469 C103 1.243 . S
C474 C61 1.243 . S
C479 C89 1.243 . S
C484 C75 1.243 . S
C489 C117 1.247 . S
C494 C159 1.247 . S
C499 C131 1.243 . S
C504 C145 1.243 . S
C509 C215 1.243 . S
C514 C173 1.243 . S
C519 C187 1.247 . S
C524 C201 1.247 . S
C529 C229 1.247 . S
C534 C271 1.247 . S
C539 C243 1.243 . S
C544 C257 1.243 . S
C549 C327 1.247 . S
C554 C285 1.247 . S
C559 C313 1.243 . S
C564 C299 1.243 . S
C569 C383 1.247 . S
C574 C341 1.247 . S
C579 C355 1.247 . S
C584 C369 1.247 . S
C589 C397 1.247 . S
C594 C439 1.247 . S
C599 C411 1.243 . S
C604 C425 1.243 . S
C609 C280 1.388 . S
C614 C0 1.388 . S
C619 C182 1.386 . S
C624 C14 1.386 . S
C629 C28 1.388 . S
C634 C420 1.388 . S
C639 C42 1.388 . S
C644 C98 1.388 . S
C649 C224 1.387 . S
C654 C56 1.387 . S
C659 C126 1.389 . S
C664 C70 1.389 . S
C669 C364 1.388 . S
C674 C84 1.388 . S
C679 C112 1.386 . S
C684 C392 1.386 . S
C689 C308 1.387 . S
C694 C140 1.387 . S
C699 C210 1.385 . S
C704 C154 1.385 . S
C709 C336 1.387 . S
C714 C168 1.387 . S
C719 C196 1.386 . S
C724 C252 1.386 . S
C729 C406 1.388 . S
C734 C238 1.388 . S
C739 C266 1.386 . S
C744 C322 1.386 . S
C749 C350 1.388 . S
C754 C294 1.388 . S
C759 C434 1.386 . S
C764 C378 1.386 . S
C769 C23 1.384 . S
C774 C9 1.384 . S
C779 C37 1.387 . S
C784 C51 1.387 . S
C789 C65 1.387 . S
C794 C79 1.387 . S
C799 C107 1.388 . S
C804 C93 1.388 . S
C809 C121 1.388 . S
C814 C135 1.388 . S
C819 C149 1.384 . S
C824 C163 1.384 . S
C829 C191 1.388 . S
C834 C177 1.388 . S
C839 C205 1.388 . S
C844 C219 1.388 . S
C849 C233 1.388 . S
C854 C247 1.388 . S
C859 C261 1.388 . S
C864 C275 1.388 . S
C869 C289 1.388 . S
C874 C303 1.388 . S
C879 C331 1.388 . S
C884 C317 1.388 . S
C889 C359 1.384 . S
C894 C345 1.384 . S
C899 C373 1.388 . S
C904 C387 1.388 . S
C909 C401 1.387 . S
C914 C415 1.387 . S
C919 C443 1.388 . S
C924 C429 1.388 . S
C929 C11 1.549 . S
C934 C277 1.549 . S
C939 C25 1.549 . S
C944 C263 1.549 . S
C949 C249 1.549 . S
C954 C39 1.549 . S
C959 C53 1.549 . S
C964 C235 1.549 . S
C969 C333 1.551 . S
C974 C67 1.551 . S
C979 C81 1.551 . S
C984 C319 1.551 . S
C989 C305 1.551 . S
C994 C95 1.551 . S
C999 C109 1.551 . S
C1004 C291 1.551 . S
C1009 C123 1.551 . S
C1014 C389 1.551 . S
C1019 C137 1.549 . S
C1024 C375 1.549 . S
C1029 C151 1.549 . S
C1034 C361 1.549 . S
C1039 C347 1.551 . S
C1044 C165 1.551 . S
C1049 C179 1.551 . S
C1054 C445 1.551 . S
C1059 C193 1.551 . S
C1064 C431 1.551 . S
C1069 C207 1.549 . S
C1074 C417 1.549 . S
C1079 C403 1.551 . S
C1084 C221 1.551 . S
