# Generated by pormake.
# Topology xfd, (7)-cn, num edge types: 1
# Building blocks:
#     Node 0, Type 0, BuildingBlock: HICVOG_clean_sbu_0, # of connection points: 7
#     Node 1, Type 0, BuildingBlock: HICVOG_clean_sbu_0, # of connection points: 7
#     Node 2, Type 0, BuildingBlock: HICVOG_clean_sbu_0, # of connection points: 7
#     Node 3, Type 0, BuildingBlock: HICVOG_clean_sbu_0, # of connection points: 7
#     Node 4, Type 0, BuildingBlock: HICVOG_clean_sbu_0, # of connection points: 7
#     Node 5, Type 0, BuildingBlock: HICVOG_clean_sbu_0, # of connection points: 7
#     Node 6, Type 0, BuildingBlock: HICVOG_clean_sbu_0, # of connection points: 7
#     Node 7, Type 0, BuildingBlock: HICVOG_clean_sbu_0, # of connection points: 7
#     Node 8, Type 0, BuildingBlock: HICVOG_clean_sbu_0, # of connection points: 7
#     Node 9, Type 0, BuildingBlock: HICVOG_clean_sbu_0, # of connection points: 7
#     Node 10, Type 0, BuildingBlock: HICVOG_clean_sbu_0, # of connection points: 7
#     Node 11, Type 0, BuildingBlock: HICVOG_clean_sbu_0, # of connection points: 7
#     Node 12, Type 0, BuildingBlock: HICVOG_clean_sbu_0, # of connection points: 7
#     Node 13, Type 0, BuildingBlock: HICVOG_clean_sbu_0, # of connection points: 7
#     Node 14, Type 0, BuildingBlock: HICVOG_clean_sbu_0, # of connection points: 7
#     Node 15, Type 0, BuildingBlock: HICVOG_clean_sbu_0, # of connection points: 7
#     Edge 16, Type (0, 0), BuildingBlock: OJICUG_clean_linker_0, # of connection points: 2
#     Edge 17, Type (0, 0), BuildingBlock: OJICUG_clean_linker_0, # of connection points: 2
#     Edge 18, Type (0, 0), BuildingBlock: OJICUG_clean_linker_0, # of connection points: 2
#     Edge 19, Type (0, 0), BuildingBlock: OJICUG_clean_linker_0, # of connection points: 2
#     Edge 20, Type (0, 0), BuildingBlock: OJICUG_clean_linker_0, # of connection points: 2
#     Edge 21, Type (0, 0), BuildingBlock: OJICUG_clean_linker_0, # of connection points: 2
#     Edge 22, Type (0, 0), BuildingBlock: OJICUG_clean_linker_0, # of connection points: 2
#     Edge 23, Type (0, 0), BuildingBlock: OJICUG_clean_linker_0, # of connection points: 2
#     Edge 24, Type (0, 0), BuildingBlock: OJICUG_clean_linker_0, # of connection points: 2
#     Edge 25, Type (0, 0), BuildingBlock: OJICUG_clean_linker_0, # of connection points: 2
#     Edge 26, Type (0, 0), BuildingBlock: OJICUG_clean_linker_0, # of connection points: 2
#     Edge 27, Type (0, 0), BuildingBlock: OJICUG_clean_linker_0, # of connection points: 2
#     Edge 28, Type (0, 0), BuildingBlock: OJICUG_clean_linker_0, # of connection points: 2
#     Edge 29, Type (0, 0), BuildingBlock: OJICUG_clean_linker_0, # of connection points: 2
#     Edge 30, Type (0, 0), BuildingBlock: OJICUG_clean_linker_0, # of connection points: 2
#     Edge 31, Type (0, 0), BuildingBlock: OJICUG_clean_linker_0, # of connection points: 2
#     Edge 32, Type (0, 0), BuildingBlock: OJICUG_clean_linker_0, # of connection points: 2
#     Edge 33, Type (0, 0), BuildingBlock: OJICUG_clean_linker_0, # of connection points: 2
#     Edge 34, Type (0, 0), BuildingBlock: OJICUG_clean_linker_0, # of connection points: 2
#     Edge 35, Type (0, 0), BuildingBlock: OJICUG_clean_linker_0, # of connection points: 2
#     Edge 36, Type (0, 0), BuildingBlock: OJICUG_clean_linker_0, # of connection points: 2
#     Edge 37, Type (0, 0), BuildingBlock: OJICUG_clean_linker_0, # of connection points: 2
#     Edge 38, Type (0, 0), BuildingBlock: OJICUG_clean_linker_0, # of connection points: 2
#     Edge 39, Type (0, 0), BuildingBlock: OJICUG_clean_linker_0, # of connection points: 2
#     Edge 40, Type (0, 0), BuildingBlock: OJICUG_clean_linker_0, # of connection points: 2
#     Edge 41, Type (0, 0), BuildingBlock: OJICUG_clean_linker_0, # of connection points: 2
#     Edge 42, Type (0, 0), BuildingBlock: OJICUG_clean_linker_0, # of connection points: 2
#     Edge 43, Type (0, 0), BuildingBlock: OJICUG_clean_linker_0, # of connection points: 2
#     Edge 44, Type (0, 0), BuildingBlock: OJICUG_clean_linker_0, # of connection points: 2
#     Edge 45, Type (0, 0), BuildingBlock: OJICUG_clean_linker_0, # of connection points: 2
#     Edge 46, Type (0, 0), BuildingBlock: OJICUG_clean_linker_0, # of connection points: 2
#     Edge 47, Type (0, 0), BuildingBlock: OJICUG_clean_linker_0, # of connection points: 2
#     Edge 48, Type (0, 0), BuildingBlock: OJICUG_clean_linker_0, # of connection points: 2
#     Edge 49, Type (0, 0), BuildingBlock: OJICUG_clean_linker_0, # of connection points: 2
#     Edge 50, Type (0, 0), BuildingBlock: OJICUG_clean_linker_0, # of connection points: 2
#     Edge 51, Type (0, 0), BuildingBlock: OJICUG_clean_linker_0, # of connection points: 2
#     Edge 52, Type (0, 0), BuildingBlock: OJICUG_clean_linker_0, # of connection points: 2
#     Edge 53, Type (0, 0), BuildingBlock: OJICUG_clean_linker_0, # of connection points: 2
#     Edge 54, Type (0, 0), BuildingBlock: OJICUG_clean_linker_0, # of connection points: 2
#     Edge 55, Type (0, 0), BuildingBlock: OJICUG_clean_linker_0, # of connection points: 2
#     Edge 56, Type (0, 0), BuildingBlock: OJICUG_clean_linker_0, # of connection points: 2
#     Edge 57, Type (0, 0), BuildingBlock: OJICUG_clean_linker_0, # of connection points: 2
#     Edge 58, Type (0, 0), BuildingBlock: OJICUG_clean_linker_0, # of connection points: 2
#     Edge 59, Type (0, 0), BuildingBlock: OJICUG_clean_linker_0, # of connection points: 2
#     Edge 60, Type (0, 0), BuildingBlock: OJICUG_clean_linker_0, # of connection points: 2
#     Edge 61, Type (0, 0), BuildingBlock: OJICUG_clean_linker_0, # of connection points: 2
#     Edge 62, Type (0, 0), BuildingBlock: OJICUG_clean_linker_0, # of connection points: 2
#     Edge 63, Type (0, 0), BuildingBlock: OJICUG_clean_linker_0, # of connection points: 2
#     Edge 64, Type (0, 0), BuildingBlock: OJICUG_clean_linker_0, # of connection points: 2
#     Edge 65, Type (0, 0), BuildingBlock: OJICUG_clean_linker_0, # of connection points: 2
#     Edge 66, Type (0, 0), BuildingBlock: OJICUG_clean_linker_0, # of connection points: 2
#     Edge 67, Type (0, 0), BuildingBlock: OJICUG_clean_linker_0, # of connection points: 2
#     Edge 68, Type (0, 0), BuildingBlock: OJICUG_clean_linker_0, # of connection points: 2
#     Edge 69, Type (0, 0), BuildingBlock: OJICUG_clean_linker_0, # of connection points: 2
#     Edge 70, Type (0, 0), BuildingBlock: OJICUG_clean_linker_0, # of connection points: 2
#     Edge 71, Type (0, 0), BuildingBlock: OJICUG_clean_linker_0, # of connection points: 2
# Relax obj value: 0.534
# Max RMSD: 0.270
# Mean RMSD: 0.270
data_MOF--net-xfd--node1-HICVOG_clean_sbu_0--edge1-OJICUG_clean_linker_0
_symmetry_space_group_name_H-M    P1
_symmetry_Int_Tables_number       1
_symmetry_cell_setting            triclinic
loop_
_symmetry_equiv_pos_as_xyz
'x, y, z'
_cell_length_a     31.899718
_cell_length_b     32.062818
_cell_length_c     15.560167
_cell_angle_alpha  90.156241
_cell_angle_beta   89.933935
_cell_angle_gamma 89.909646
loop_
_atom_site_label
_atom_site_type_symbol
_atom_site_fract_x
_atom_site_fract_y
_atom_site_fract_z
_atom_type_partial_charge
Zn0 Zn 0.98331 0.6045 0.38105 0.0
C1 C 0.0826 0.51543 0.43396 0.0
N2 N 0.05865 0.49315 0.38017 0.0
C3 C 1.02252 0.51421 0.3664 0.0
N4 N 1.02188 0.55191 0.40734 0.0
N5 N 0.05782 0.55357 0.45133 0.0
C6 C 0.09301 0.63944 0.30391 0.0
O7 O 0.07615 0.60253 0.29261 0.0
O8 O 0.9283 0.61929 0.45698 0.0
Zn9 Zn 0.06654 0.62067 0.50167 0.0
N10 N 0.9675 0.59446 0.26508 0.0
C11 C 0.98998 0.59324 0.11994 0.0
C12 C 0.99293 0.6094 0.20236 0.0
C13 C 0.936 0.56765 0.24735 0.0
N14 N 0.9599 0.56476 0.10284 0.0
C15 C 0.93192 0.55171 0.16355 0.0
O16 O 1.01836 0.66396 0.50764 0.0
C17 C 1.01594 0.68534 0.43914 0.0
O18 O 1.01026 0.66452 0.37049 0.0
H19 H 1.01607 0.63277 0.21673 0.0
H20 H 0.91544 0.55847 0.29907 0.0
C21 C 0.12349 0.62738 0.66661 0.0
C22 C 0.13918 0.62275 0.75153 0.0
C23 C 0.06888 0.63964 0.79264 0.0
C24 C 0.05583 0.64191 0.70531 0.0
N25 N 0.08348 0.63297 0.64055 0.0
N26 N 0.10967 0.62997 0.81343 0.0
H27 H 0.14245 0.62896 0.61866 0.0
C28 C 0.90511 0.64901 0.42752 0.0
O29 O 0.91449 0.66349 0.35096 0.0
O30 O 0.09472 0.65366 0.38268 0.0
H31 H 1.02336 0.6482 0.69033 0.0
H32 H 1.01085 0.60361 0.06952 0.0
H33 H 0.04638 0.64538 0.84341 0.0
Zn34 Zn 0.7112 0.72653 0.65515 0.0
C35 C 0.80407 0.81881 0.70852 0.0
N36 N 0.82497 0.79373 0.65437 0.0
C37 C 0.8017 0.75936 0.64014 0.0
N38 N 0.76402 0.76164 0.68138 0.0
N39 N 0.76419 0.79763 0.72508 0.0
C40 C 0.68006 0.83549 0.58548 0.0
O41 O 0.71753 0.8196 0.57388 0.0
O42 O 0.69418 0.67409 0.73 0.0
Zn43 Zn 0.69925 0.81228 0.78419 0.0
N44 N 0.72274 0.70691 0.54124 0.0
C45 C 0.73073 0.71901 0.3918 0.0
C46 C 0.71654 0.73185 0.4721 0.0
C47 C 0.74076 0.66884 0.53321 0.0
N48 N 0.74795 0.68055 0.38337 0.0
C49 C 0.7529 0.65437 0.45165 0.0
O50 O 0.65265 0.76628 0.78888 0.0
C51 C 0.63145 0.7621 0.71959 0.0
O52 O 0.65212 0.75542 0.65042 0.0
H53 H 0.70107 0.76142 0.47933 0.0
H54 H 0.74507 0.65053 0.59057 0.0
C55 C 0.70427 0.87544 0.96745 0.0
C56 C 0.6799 0.89991 0.0255 0.0
C57 C 0.64689 0.83345 0.05142 0.0
C58 C 0.66298 0.81672 0.9739 0.0
N59 N 0.68879 0.84029 0.92332 0.0
N60 N 0.6533 0.87482 0.07069 0.0
H61 H 0.73475 0.87074 0.99668 0.0
C62 C 0.66297 0.6545 0.69649 0.0
O63 O 0.64991 0.66679 0.62061 0.0
O64 O 0.66597 0.83761 0.66403 0.0
H65 H 0.65298 0.78622 0.95253 0.0
H66 H 0.72686 0.73877 0.33611 0.0
H67 H 0.62583 0.81509 0.09051 0.0
Zn68 Zn 0.59194 0.45983 0.88577 0.0
C69 C 0.48685 0.53874 0.93927 0.0
N70 N 0.51041 0.56296 0.88857 0.0
C71 C 0.54755 0.54395 0.87561 0.0
N72 N 0.54909 0.50598 0.91328 0.0
N73 N 0.51235 0.50106 0.95271 0.0
C74 C 0.4817 0.40998 0.79007 0.0
O75 O 0.50142 0.4451 0.77492 0.0
O76 O 0.64051 0.4377 0.97221 0.0
Zn77 Zn 0.50551 0.43192 0.99062 0.0
N78 N 0.61819 0.48075 0.78494 0.0
C79 C 0.62378 0.49091 0.63466 0.0
C80 C 0.60082 0.47759 0.70558 0.0
C81 C 0.65615 0.49833 0.79657 0.0
N82 N 0.66446 0.50208 0.64581 0.0
C83 C 0.68233 0.50423 0.72546 0.0
O84 O 0.55877 0.39704 0.98767 0.0
C85 C 0.56201 0.37814 0.91612 0.0
O86 O 0.56802 0.40126 0.85085 0.0
H87 H 0.56978 0.46483 0.69756 0.0
H88 H 0.66786 0.50151 0.86107 0.0
C89 C 0.44894 0.41932 0.15539 0.0
C90 C 0.4345 0.42012 0.24167 0.0
C91 C 0.50347 0.39511 0.27329 0.0
C92 C 0.51605 0.39864 0.18579 0.0
N93 N 0.4884 0.41276 0.12547 0.0
N94 N 0.46381 0.40657 0.29906 0.0
H95 H 0.42884 0.42046 0.10976 0.0
C96 C 0.67556 0.44497 1.01079 0.0
O97 O 0.69147 0.4827 1.00862 0.0
O98 O 0.4782 0.39848 0.87038 0.0
H99 H 0.54811 0.39188 0.1677 0.0
H100 H 0.61066 0.48886 0.57081 0.0
H101 H 0.5256 0.38393 0.32057 0.0
Zn102 Zn 0.86165 0.333 0.12722 0.0
C103 C 0.77776 0.23534 0.17981 0.0
N104 N 0.75118 0.26686 0.16155 0.0
C105 C 0.77186 0.30299 0.15477 0.0
N106 N 0.81326 0.29713 0.1728 0.0
N107 N 0.81758 0.25694 0.19534 0.0
C108 C 0.90931 0.22069 0.05347 0.0
O109 O 0.87684 0.24444 0.03917 0.0
O110 O 0.87836 0.38881 0.19485 0.0
Zn111 Zn 0.884 0.2451 0.24551 0.0
N112 N 0.84043 0.34292 1.01201 0.0
C113 C 0.801 0.31577 0.894 0.0
C114 C 0.81977 0.31057 0.97372 0.0
C115 C 0.84107 0.38104 0.97474 0.0
N116 N 0.80238 0.3536 0.85618 0.0
C117 C 0.82119 0.38655 0.89529 0.0
O118 O 0.92292 0.2956 0.25029 0.0
C119 C 0.94384 0.2994 0.18131 0.0
O120 O 0.92264 0.30655 0.11336 0.0
H121 H 0.81584 0.28125 1.00599 0.0
H122 H 0.85631 0.40679 1.00702 0.0
C123 C 0.89004 0.18684 0.40911 0.0
C124 C 0.88383 0.17087 0.49384 0.0
C125 C 0.90003 0.24077 0.53692 0.0
C126 C 0.903 0.25428 0.4501 0.0
N127 N 0.89503 0.22706 0.38436 0.0
N128 N 0.89015 0.20013 0.55638 0.0
H129 H 0.8914 0.16864 0.35998 0.0
C130 C 0.91101 0.40761 0.16555 0.0
O131 O 0.9269 0.3939 0.09282 0.0
O132 O 0.91975 0.21508 0.13347 0.0
H133 H 0.90879 0.2868 0.43619 0.0
H134 H 0.78479 0.29018 0.86314 0.0
H135 H 0.90512 0.26289 0.58846 0.0
Zn136 Zn 0.06851 0.43157 0.53706 0.0
C137 C 1.022 0.53825 0.66602 0.0
N138 N 0.05763 0.55984 0.65301 0.0
C139 C 0.0829 0.53738 0.60212 0.0
N140 N 0.05923 0.49878 0.58509 0.0
N141 N 1.02279 0.50034 0.62628 0.0
C142 C 0.9127 0.39914 0.5938 0.0
O143 O 0.92086 0.38781 0.67312 0.0
O144 O 0.09808 0.39943 0.65547 0.0
Zn145 Zn 0.98548 0.44797 0.64577 0.0
N146 N 0.08518 0.41934 0.39792 0.0
C147 C 0.07161 0.40881 0.24642 0.0
C148 C 0.05792 0.40897 0.33362 0.0
C149 C 0.12519 0.42506 0.37173 0.0
N150 N 0.1123 0.41866 0.22527 0.0
C151 C 0.14134 0.42803 0.28669 0.0
O152 O 1.0121 0.38918 0.67355 0.0
C153 C 1.01807 0.36714 0.6064 0.0
O154 O 1.02105 0.38728 0.53622 0.0
H155 H 1.0254 0.40282 0.34866 0.0
H156 H 0.14389 0.42394 0.41998 0.0
C157 C 0.9232 0.48703 0.72919 0.0
C158 C 0.89564 0.49573 0.79622 0.0
C159 C 0.94551 0.46714 0.89439 0.0
C160 C 0.97044 0.45463 0.82594 0.0
N161 N 0.95798 0.46438 0.74523 0.0
N162 N 0.90819 0.48574 0.87746 0.0
H163 H 0.91491 0.49372 0.66321 0.0
C164 C 0.09276 0.41079 0.73557 0.0
O165 O 0.06969 0.44403 0.75 0.0
O166 O 0.93579 0.42815 0.56098 0.0
H167 H 0.99887 0.43709 0.83653 0.0
H168 H 0.04968 0.40104 0.19593 0.0
H169 H 0.95427 0.45994 0.95983 0.0
Zn170 Zn 0.86165 0.7159 0.92375 0.0
C171 C 0.78017 0.81866 0.87713 0.0
N172 N 0.75388 0.7939 0.92157 0.0
C173 C 0.77299 0.75674 0.93366 0.0
N174 N 0.81235 0.75631 0.89866 0.0
N175 N 0.81748 0.79323 0.86059 0.0
C176 C 0.90745 0.82329 1.00364 0.0
O177 O 0.8731 0.80194 1.01797 0.0
O178 O 0.88013 0.66828 0.83515 0.0
Zn179 Zn 0.8849 0.79954 0.80918 0.0
N180 N 0.84245 0.68847 0.02553 0.0
C181 C 0.82204 0.68561 0.17204 0.0
C182 C 0.83728 0.70815 0.10223 0.0
C183 C 0.8316 0.64806 1.01496 0.0
N184 N 0.81571 0.64393 0.16324 0.0
C185 C 0.82089 0.62393 0.08646 0.0
O186 O 0.92261 0.74804 0.80849 0.0
C187 C 0.94396 0.7459 0.87729 0.0
O188 O 0.92282 0.74043 0.94624 0.0
H189 H 0.84423 0.74095 0.10872 0.0
H190 H 0.83307 0.63497 0.95127 0.0
C191 C 0.89527 0.85698 0.64309 0.0
C192 C 0.88894 0.87158 0.55729 0.0
C193 C 0.90665 0.80141 0.51894 0.0
C194 C 0.90796 0.78887 0.60661 0.0
N195 N 0.89927 0.81696 0.67051 0.0
N196 N 0.89633 0.84162 0.49668 0.0
H197 H 0.89742 0.87631 0.69062 0.0
C198 C 0.90964 0.64468 0.86439 0.0
O199 O 0.92162 0.65045 0.94432 0.0
O200 O 0.91951 0.82748 0.92406 0.0
H201 H 0.91317 0.75643 0.62241 0.0
H202 H 0.81726 0.70058 0.23369 0.0
H203 H 0.91302 0.77881 0.4689 0.0
Zn204 Zn 0.50464 0.61682 0.05229 0.0
C205 C 0.54592 0.50534 0.17366 0.0
N206 N 0.50908 0.48615 0.15829 0.0
C207 C 0.48636 0.51015 0.10537 0.0
N208 N 0.51197 0.54785 0.09296 0.0
N209 N 0.54802 0.54326 0.13567 0.0
C210 C 0.66414 0.63952 0.12248 0.0
O211 O 0.65529 0.65063 0.20182 0.0
O212 O 0.47559 0.65126 0.16926 0.0
Zn213 Zn 0.59024 0.58975 0.17005 0.0
N214 N 0.48782 0.63578 0.91668 0.0
C215 C 0.5033 0.64879 0.76697 0.0
C216 C 0.51573 0.64773 0.85477 0.0
C217 C 0.448 0.63035 0.88826 0.0
N218 N 0.46317 0.63829 0.7429 0.0
C219 C 0.43333 0.62775 0.80191 0.0
O220 O 0.56477 0.64801 0.19615 0.0
C221 C 0.56017 0.67031 0.12932 0.0
O222 O 0.55824 0.65087 0.0581 0.0
H223 H 0.54802 0.65373 0.87186 0.0
H224 H 0.42859 0.62947 0.93549 0.0
C225 C 0.65176 0.55754 0.28247 0.0
C226 C 0.66772 0.54169 0.36013 0.0
C227 C 0.59956 0.54735 0.42132 0.0
C228 C 0.58501 0.56563 0.34625 0.0
N229 N 0.6113 0.56996 0.27812 0.0
N230 N 0.64049 0.53644 0.42688 0.0
H231 H 0.67096 0.56152 0.22607 0.0
C232 C 0.47769 0.63921 0.24928 0.0
O233 O 0.49551 0.60315 0.26413 0.0
O234 O 0.64238 0.60946 0.08982 0.0
H235 H 0.5527 0.57461 0.34153 0.0
H236 H 0.5259 0.65729 0.71822 0.0
H237 H 0.57879 0.54284 0.47548 0.0
Zn238 Zn 0.69812 0.23988 0.25329 0.0
C239 C 0.79828 0.28841 0.41164 0.0
N240 N 0.82089 0.25338 0.39758 0.0
C241 C 0.79892 0.22827 0.34553 0.0
N242 N 0.75984 0.25085 0.3291 0.0
N243 N 0.76028 0.28699 0.37182 0.0
C244 C 0.65969 0.39544 0.35927 0.0
O245 O 0.64406 0.37979 0.43033 0.0
O246 O 0.66362 0.21194 0.37626 0.0
Zn247 Zn 0.70601 0.32169 0.3945 0.0
N248 N 0.70063 0.21682 0.10082 0.0
C249 C 0.72131 0.19962 0.95292 0.0
C250 C 0.71752 0.2285 0.02262 0.0
C251 C 0.68357 0.17946 0.09829 0.0
N252 N 0.70775 0.15912 0.95991 0.0
C253 C 0.68864 0.14566 0.0327 0.0
O254 O 0.64712 0.29315 0.38345 0.0
C255 C 0.62649 0.28597 0.31496 0.0
O256 O 0.64745 0.2816 0.24542 0.0
H257 H 0.73011 0.25934 1.01275 0.0
H258 H 0.66865 0.18259 0.1577 0.0
C259 C 0.72973 0.36525 0.54777 0.0
C260 C 0.7276 0.37407 0.63618 0.0
C261 C 0.68184 0.31644 0.65505 0.0
C262 C 0.68176 0.3099 0.56703 0.0
N263 N 0.70682 0.33331 0.51558 0.0
N264 N 0.70427 0.34856 0.68722 0.0
H265 H 0.74774 0.384 0.5037 0.0
C266 C 0.67684 0.21483 0.45617 0.0
O267 O 0.71242 0.23408 0.4692 0.0
O268 O 0.6925 0.37768 0.32769 0.0
H269 H 0.66128 0.28675 0.54013 0.0
H270 H 0.73589 0.20968 0.89369 0.0
H271 H 0.66276 0.29749 0.69712 0.0
Zn272 Zn 0.36296 0.21682 0.40727 0.0
C273 C 0.27582 0.31662 0.35159 0.0
N274 N 0.25216 0.29154 0.40016 0.0
C275 C 0.27315 0.25551 0.4136 0.0
N276 N 0.31152 0.25564 0.3751 0.0
N277 N 0.31407 0.2922 0.33406 0.0
C278 C 0.40445 0.33 0.47659 0.0
O279 O 0.36749 0.31363 0.49071 0.0
O280 O 0.37843 0.15797 0.34662 0.0
Zn281 Zn 0.38093 0.30176 0.28082 0.0
N282 N 0.34999 0.20015 0.52437 0.0
C283 C 0.34264 0.21285 0.67441 0.0
C284 C 0.35418 0.22624 0.59271 0.0
C285 C 0.33602 0.16058 0.53512 0.0
N286 N 0.32983 0.17294 0.68533 0.0
C287 C 0.32662 0.14581 0.61811 0.0
O288 O 0.41984 0.25131 0.2741 0.0
C289 C 0.44312 0.24875 0.33994 0.0
O290 O 0.42421 0.24343 0.41152 0.0
H291 H 0.36658 0.25691 0.58454 0.0
H292 H 0.33392 0.14094 0.4791 0.0
C293 C 0.38595 0.35837 0.11187 0.0
C294 C 0.38406 0.37341 0.02619 0.0
C295 C 0.40669 0.30446 0.99022 0.0
C296 C 0.40495 0.29161 0.07785 0.0
N297 N 0.39278 0.31899 0.14061 0.0
N298 N 0.39588 0.3444 0.96663 0.0
H299 H 0.38645 0.37814 0.15784 0.0
C300 C 0.39336 0.1468 0.27323 0.0
O301 O 0.39431 0.17421 0.21079 0.0
O302 O 0.41716 0.33084 0.3966 0.0
H303 H 0.41208 0.25963 0.09443 0.0
H304 H 0.34532 0.23349 0.72926 0.0
H305 H 0.4162 0.28235 0.94129 0.0
Zn306 Zn 0.18899 0.74487 0.79375 0.0
C307 C 0.29525 0.79151 0.92586 0.0
N308 N 0.31797 0.75663 0.91078 0.0
C309 C 0.29516 0.73155 0.85992 0.0
N310 N 0.25597 0.75467 0.84433 0.0
N311 N 0.25716 0.79038 0.88793 0.0
C312 C 0.15705 0.90053 0.8709 0.0
O313 O 0.14047 0.88996 0.94505 0.0
O314 O 0.15466 0.71223 0.9056 0.0
Zn315 Zn 0.20629 0.82709 0.92278 0.0
N316 N 0.17821 0.73041 0.65324 0.0
C317 C 0.16972 0.74601 0.50218 0.0
C318 C 0.16881 0.75847 0.59012 0.0
C319 C 0.1837 0.69076 0.62518 0.0
N320 N 0.17968 0.70574 0.47901 0.0
C321 C 0.1881 0.67593 0.53902 0.0
O322 O 0.14677 0.79918 0.9378 0.0
C323 C 0.12521 0.79363 0.8697 0.0
O324 O 0.14569 0.79281 0.7993 0.0
H325 H 0.16274 0.7907 0.60677 0.0
H326 H 0.18281 0.67161 0.67308 0.0
C327 C 0.2273 0.88777 0.04794 0.0
C328 C 0.24201 0.90309 0.12697 0.0
C329 C 0.24623 0.83382 0.17907 0.0
C330 C 0.23195 0.81899 0.10031 0.0
N331 N 0.22228 0.84629 0.03643 0.0
N332 N 0.25044 0.87544 0.19086 0.0
H333 H 0.21953 0.9081 0.99542 0.0
C334 C 0.16663 0.71549 0.98549 0.0
O335 O 0.20155 0.73563 0.9996 0.0
O336 O 0.18897 0.87938 0.84426 0.0
H337 H 0.23005 0.78601 0.0902 0.0
H338 H 0.16276 0.7686 0.4527 0.0
H339 H 0.254 0.81248 0.23041 0.0
Zn340 Zn 0.20528 0.22171 0.11715 0.0
C341 C 0.2966 0.31576 0.18191 0.0
N342 N 0.31867 0.29047 0.12969 0.0
C343 C 0.29546 0.25592 0.11463 0.0
N344 N 0.25753 0.25748 0.15407 0.0
N345 N 0.25711 0.29331 0.19823 0.0
C346 C 0.17223 0.33816 0.05218 0.0
O347 O 0.21094 0.32564 0.04028 0.0
O348 O 0.1834 0.16706 0.1835 0.0
Zn349 Zn 0.19053 0.30548 0.24791 0.0
N350 N 0.21854 0.20702 0.99971 0.0
C351 C 0.23281 0.23275 0.85949 0.0
C352 C 0.21651 0.23831 0.9414 0.0
C353 C 0.23272 0.16868 0.97684 0.0
N354 N 0.24743 0.19472 0.8367 0.0
C355 C 0.24719 0.16202 0.89233 0.0
O356 O 0.14746 0.2575 0.2467 0.0
C357 C 0.12618 0.25683 0.17751 0.0
O358 O 0.14691 0.25216 0.10797 0.0
H359 H 0.20205 0.26714 0.95814 0.0
H360 H 0.23166 0.1439 0.02374 0.0
C361 C 0.18517 0.36199 0.41541 0.0
C362 C 0.18962 0.37782 0.50082 0.0
C363 C 0.1713 0.30819 0.54089 0.0
C364 C 0.16924 0.29512 0.4534 0.0
N365 N 0.17912 0.32221 0.38876 0.0
N366 N 0.18153 0.34861 0.56224 0.0
H367 H 0.18461 0.38053 0.36713 0.0
C368 C 0.19109 0.1325 0.22221 0.0
O369 O 0.23022 0.12138 0.23493 0.0
O370 O 0.15762 0.3367 0.13082 0.0
H371 H 0.16174 0.26312 0.43832 0.0
H372 H 0.23241 0.25791 0.81331 0.0
H373 H 0.16471 0.28601 0.59137 0.0
Zn374 Zn 0.38031 0.74547 0.7618 0.0
C375 C 0.27509 0.79335 0.6228 0.0
N376 N 0.25274 0.75826 0.63766 0.0
C377 C 0.27473 0.73364 0.6908 0.0
N378 N 0.31374 0.75689 0.70811 0.0
N379 N 0.31324 0.79242 0.66262 0.0
C380 C 0.3946 0.90081 0.75089 0.0
O381 O 0.39327 0.87468 0.81558 0.0
O382 O 0.41447 0.71633 0.64388 0.0
Zn383 Zn 0.3675 0.82719 0.62795 0.0
N384 N 0.39163 0.72752 0.90176 0.0
C385 C 0.40896 0.74193 0.05069 0.0
C386 C 0.40619 0.75449 0.96299 0.0
C387 C 0.38258 0.68888 0.93229 0.0
N388 N 0.39703 0.70259 0.07587 0.0
C389 C 0.38258 0.67409 1.01787 0.0
O390 O 0.42809 0.80032 0.63365 0.0
C391 C 0.44691 0.79555 0.70501 0.0
O392 O 0.42363 0.79311 0.77104 0.0
H393 H 0.41483 0.7859 0.94515 0.0
H394 H 0.3826 0.66826 0.88812 0.0
C395 C 0.33682 0.86663 0.47788 0.0
C396 C 0.33172 0.87307 0.38912 0.0
C397 C 0.37546 0.81449 0.36179 0.0
C398 C 0.38249 0.81028 0.44947 0.0
N399 N 0.36137 0.835 0.50583 0.0
N400 N 0.35069 0.84594 0.33378 0.0
H401 H 0.32337 0.8872 0.52541 0.0
C402 C 0.40074 0.71711 0.56467 0.0
O403 O 0.36396 0.7344 0.5518 0.0
O404 O 0.38147 0.88845 0.67696 0.0
H405 H 0.40507 0.78797 0.47211 0.0
H406 H 0.42044 0.76373 0.09832 0.0
H407 H 0.39117 0.79433 0.31607 0.0
Zn408 Zn 0.48011 0.1205 0.83669 0.0
C409 C 0.57654 0.03751 0.879 0.0
N410 N 0.55182 1.01399 0.82909 0.0
C411 C 0.51454 0.03293 0.82564 0.0
N412 N 0.51515 0.06974 0.87009 0.0
N413 N 0.55293 0.07281 0.90664 0.0
C414 C 0.59659 0.14991 0.7812 0.0
O415 O 0.56872 0.12075 0.76725 0.0
O416 O 0.42695 0.13828 0.90917 0.0
Zn417 Zn 0.56169 0.13251 0.97029 0.0
N418 N 0.46063 0.10315 0.72605 0.0
C419 C 0.46856 0.08295 0.57999 0.0
C420 C 0.48151 0.10672 0.65054 0.0
C421 C 0.42731 0.07782 0.73379 0.0
N422 N 0.43467 0.05748 0.58774 0.0
C423 C 0.41324 0.05402 0.66341 0.0
O424 O 0.51595 0.17729 0.96349 0.0
C425 C 0.51626 0.19869 0.89479 0.0
O426 O 0.51024 0.17892 0.82454 0.0
H427 H 0.50849 0.12666 0.64621 0.0
H428 H 0.41313 0.0755 0.79643 0.0
C429 C 0.61035 0.14234 0.13933 0.0
C430 C 0.63431 0.1238 0.21301 0.0
C431 C 0.56453 0.11288 0.26617 0.0
C432 C 0.54616 0.12121 0.18416 0.0
N433 N 0.57088 0.1329 0.11708 0.0
N434 N 0.60744 0.11171 0.27651 0.0
H435 H 0.61778 0.16025 0.08475 0.0
C436 C 0.39433 0.12596 0.94994 0.0
O437 O 0.3875 0.08584 0.95935 0.0
O438 O 0.60252 0.1612 0.86142 0.0
H439 H 0.51302 0.11657 0.17416 0.0
H440 H 0.48523 0.08482 0.51958 0.0
H441 H 0.54465 0.10385 0.31922 0.0
Zn442 Zn 0.08888 0.94812 0.37603 0.0
C443 C 0.99015 0.03406 0.43706 0.0
N444 N 1.01563 0.05805 0.38895 0.0
C445 C 0.05186 0.03705 0.37563 0.0
N446 N 0.05088 0.99844 0.41178 0.0
N447 N 1.01423 0.99566 0.45292 0.0
C448 C 0.97898 0.90641 0.31424 0.0
O449 O 0.99611 0.9429 0.30056 0.0
O450 O 0.14375 0.93233 0.45133 0.0
Zn451 Zn 1.00733 0.92889 0.50467 0.0
N452 N 0.10586 0.96573 0.26253 0.0
C453 C 0.09302 0.99119 0.12132 0.0
C454 C 0.08016 0.96856 0.19321 0.0
C455 C 0.14387 0.98372 0.26202 0.0
N456 N 0.13137 1.00955 0.12118 0.0
C457 C 0.15755 1.00669 0.1901 0.0
O458 O 0.05805 0.88887 0.50166 0.0
C459 C 0.0592 0.8671 0.43313 0.0
O460 O 0.06318 0.88754 0.36328 0.0
H461 H 0.04959 0.95477 0.19443 0.0
H462 H 0.16224 0.98105 0.31986 0.0
C463 C 0.95513 0.92315 0.67851 0.0
C464 C 0.94298 0.92437 0.76614 0.0
C465 C 1.01374 0.90365 0.79236 0.0
C466 C 1.02352 0.90465 0.70308 0.0
N467 N 0.99372 0.91591 0.64445 0.0
N468 N 0.9742 0.91343 0.82151 0.0
H469 H 0.93328 0.92282 0.6361 0.0
C470 C 0.16679 0.90282 0.42009 0.0
O471 O 0.15717 0.88895 0.34305 0.0
O472 O 0.97754 0.8935 0.39341 0.0
H473 H 0.05513 0.898 0.68183 0.0
H474 H 0.07267 0.99421 0.06612 0.0
H475 H 0.03774 0.89496 0.83803 0.0
Zn476 Zn 0.5661 0.91104 0.07487 0.0
C477 C 0.51341 1.01348 0.20753 0.0
N478 N 0.55041 0.03285 0.20596 0.0
C479 C 0.57655 1.00885 0.15993 0.0
N480 N 0.55425 0.97272 0.13303 0.0
N481 N 0.51559 0.97634 0.165 0.0
C482 C 0.39959 0.92169 0.06634 0.0
O483 O 0.39492 0.96152 0.04933 0.0
O484 O 0.60057 0.8848 0.19012 0.0
Zn485 Zn 0.47905 0.92766 0.1941 0.0
N486 N 0.5846 0.90492 0.9315 0.0
C487 C 0.57265 0.93225 0.78889 0.0
C488 C 0.55718 0.91882 0.87025 0.0
C489 C 0.62339 0.89519 0.89667 0.0
N490 N 0.61506 0.93656 0.77551 0.0
C491 C 0.64323 0.92195 0.83401 0.0
O492 O 0.50732 0.86915 0.21403 0.0
C493 C 0.51517 0.8492 0.14468 0.0
O494 O 0.5174 0.87039 0.07599 0.0
H495 H 0.52444 0.92323 0.88618 0.0
H496 H 0.62402 0.86373 0.87229 0.0
C497 C 0.41762 0.96895 0.27343 0.0
C498 C 0.39058 0.98495 0.33603 0.0
C499 C 0.44126 0.96611 0.44156 0.0
C500 C 0.46557 0.9464 0.37858 0.0
N501 N 0.4523 0.94757 0.29586 0.0
N502 N 0.4038 0.98344 0.41933 0.0
H503 H 0.41054 0.97197 0.20639 0.0
C504 C 0.59318 0.89589 0.26922 0.0
O505 O 0.56458 0.92461 0.28265 0.0
O506 O 0.42979 0.90967 0.11423 0.0
H507 H 0.49475 0.93121 0.39496 0.0
H508 H 0.55117 0.94253 0.73992 0.0
H509 H 0.45128 0.96639 0.50775 0.0
Zn510 Zn 1.00234 0.11797 0.54149 0.0
C511 C 0.05082 1.01188 0.67137 0.0
N512 N 1.01542 0.99022 0.65775 0.0
C513 C 0.99038 1.01252 0.6066 0.0
N514 N 1.0134 0.0514 0.59022 0.0
N515 N 0.04971 0.05004 0.63272 0.0
C516 C 0.14395 0.13792 0.51583 0.0
O517 O 0.11202 0.13642 0.46305 0.0
O518 O 0.97289 0.14986 0.65848 0.0
Zn519 Zn 0.0862 0.10223 0.66207 0.0
N520 N 0.9871 0.13119 0.40131 0.0
C521 C 1.00499 0.15095 0.25549 0.0
C522 C 1.01543 0.147 0.3441 0.0
C523 C 0.94928 0.12153 0.36601 0.0
N524 N 0.96619 0.13934 0.2254 0.0
C525 C 0.93639 0.1236 0.27911 0.0
O526 O 0.05923 0.1625 0.68226 0.0
C527 C 0.05212 0.18358 0.61416 0.0
O528 O 0.04819 0.16276 0.54502 0.0
H529 H 0.04631 0.15587 0.36584 0.0
H530 H 0.92726 0.12027 0.40752 0.0
C531 C 0.14659 0.06323 0.75058 0.0
C532 C 0.17211 0.05013 0.81828 0.0
C533 C 0.11861 0.07165 0.91605 0.0
C534 C 0.09565 0.0885 0.848 0.0
N535 N 0.11074 0.08421 0.76687 0.0
N536 N 0.15673 0.05413 0.89994 0.0
H537 H 0.15614 0.05912 0.6845 0.0
C538 C 0.97785 0.13757 0.73768 0.0
O539 O 0.99955 0.10331 0.75018 0.0
O540 O 0.14022 0.12125 0.59017 0.0
H541 H 0.0662 0.10425 0.85947 0.0
H542 H 0.02789 0.1634 0.21113 0.0
H543 H 0.10723 0.07421 0.98137 0.0
C544 C 0.15164 0.71517 0.14799 0.0
C545 C 0.14388 0.69792 0.06491 0.0
H546 H 0.14226 0.71214 0.28599 0.0
C547 C 0.11782 0.66258 0.06268 0.0
H548 H 0.1714 0.74242 0.15408 0.0
C549 C 0.10173 0.64465 0.13962 0.0
C550 C 0.10989 0.66153 0.22291 0.0
H551 H 0.11104 0.64772 1.00172 0.0
H552 H 0.08312 0.61665 0.13337 0.0
C553 C 0.13483 0.69772 0.22486 0.0
C554 C 0.67422 0.84426 0.422 0.0
C555 C 0.65637 0.85003 0.50519 0.0
H556 H 0.66917 0.8525 0.28434 0.0
C557 C 0.61687 0.86959 0.50807 0.0
H558 H 0.7047 0.82973 0.41529 0.0
C559 C 0.59674 0.88334 0.43173 0.0
C560 C 0.61473 0.87772 0.34869 0.0
H561 H 0.60163 0.87478 0.56941 0.0
H562 H 0.56668 0.89876 0.43817 0.0
C563 C 0.65376 0.85735 0.34563 0.0
C564 C 0.43084 0.35755 0.71601 0.0
C565 C 0.46417 0.38618 0.71123 0.0
H566 H 0.38633 0.31914 0.64947 0.0
C567 C 0.47937 0.39465 0.62669 0.0
H568 H 0.41755 0.34992 0.77805 0.0
C569 C 0.46183 0.37606 0.55116 0.0
C570 C 0.4275 0.34845 0.5558 0.0
H571 H 0.50502 0.41635 0.61841 0.0
H572 H 0.47457 0.3843 0.48896 0.0
C573 C 0.41281 0.33967 0.64059 0.0
C574 C 0.91999 0.2153 0.89037 0.0
C575 C 0.93009 0.20064 0.97427 0.0
H576 H 0.92632 0.20848 0.7524 0.0
C577 C 0.95706 0.16592 0.97803 0.0
H578 H 0.89947 0.24199 0.88304 0.0
C579 C 0.97217 0.14632 0.90179 0.0
C580 C 0.9615 0.16059 0.81788 0.0
H581 H 0.96574 0.15314 0.03982 0.0
H582 H 0.99221 0.1193 0.90913 0.0
C583 C 0.93541 0.19596 0.81422 0.0
C584 C 0.16623 0.3479 0.88836 0.0
C585 C 0.14902 0.35475 0.97199 0.0
H586 H 0.1628 0.35799 0.75092 0.0
C587 C 0.11175 0.37838 0.97472 0.0
H588 H 0.19501 0.33038 0.8812 0.0
C589 C 0.09367 0.39525 0.89835 0.0
C590 C 0.11123 0.38866 0.81497 0.0
H591 H 0.09703 0.38487 0.03607 0.0
H592 H 0.06568 0.4141 0.90511 0.0
C593 C 0.14764 0.36389 0.81205 0.0
C594 C 0.92101 0.82715 0.16599 0.0
C595 C 0.92936 0.84239 0.08183 0.0
H596 H 0.92978 0.8337 0.30351 0.0
C597 C 0.95554 0.87747 0.07629 0.0
H598 H 0.90109 0.80013 0.1742 0.0
C599 C 0.9712 0.89729 0.15128 0.0
C600 C 0.96248 0.88255 0.23565 0.0
H601 H 0.96283 0.89065 1.01406 0.0
H602 H 0.98985 0.92502 0.14237 0.0
C603 C 0.93749 0.84649 0.24112 0.0
C604 C 0.46002 0.67448 0.48744 0.0
C605 C 0.42308 0.69867 0.48464 0.0
H606 H 0.50549 0.63748 0.41789 0.0
C607 C 0.40573 0.70483 0.40108 0.0
H608 H 0.47483 0.66839 0.54874 0.0
C609 C 0.42408 0.68812 0.32487 0.0
C610 C 0.46023 0.66298 0.32792 0.0
H611 H 0.377 0.72244 0.39397 0.0
H612 H 0.40879 0.69357 0.26384 0.0
C613 C 0.47776 0.65673 0.41123 0.0
C614 C 0.65331 0.19365 0.69967 0.0
C615 C 0.61735 0.16834 0.69955 0.0
H616 H 0.70024 0.22582 0.6265 0.0
C617 C 0.60114 0.15823 0.61633 0.0
H618 H 0.6678 0.20206 0.76017 0.0
C619 C 0.61886 0.17324 0.53812 0.0
C620 C 0.65494 0.19827 0.5382 0.0
H621 H 0.57445 0.1379 0.61061 0.0
H622 H 0.60464 0.16445 0.47757 0.0
C623 C 0.67191 0.20749 0.6213 0.0
C624 C 0.82523 0.50152 0.85154 0.0
C625 C 0.85003 0.4985 0.77744 0.0
H626 H 0.80516 0.46525 0.96066 0.0
C627 C 0.83858 0.46549 0.72293 0.0
H628 H 0.81967 0.53119 0.88151 0.0
C629 C 0.83053 0.42731 0.76223 0.0
C630 C 0.82283 0.42643 0.85115 0.0
H631 H 0.8473 0.46559 0.65565 0.0
H632 H 0.83119 0.39906 0.72448 0.0
C633 C 0.81642 0.46439 0.89505 0.0
C634 C 0.32731 0.07042 0.57009 0.0
C635 C 0.32312 0.10049 0.63632 0.0
H636 H 0.36153 1.01526 0.53546 0.0
C637 C 0.32902 0.08626 0.72159 0.0
H638 H 0.31855 0.07683 0.50446 0.0
C639 C 0.34603 0.0466 0.73457 0.0
C640 C 0.3713 0.03283 0.66651 0.0
H641 H 0.32672 0.10691 0.77639 0.0
H642 H 0.35318 0.03724 0.79977 0.0
C643 C 0.35053 0.03423 0.58766 0.0
C644 C 0.74791 0.57918 0.49453 0.0
C645 C 0.7606 0.60941 0.43447 0.0
H646 H 0.70728 0.52729 0.51277 0.0
C647 C 0.76333 0.59689 0.34826 0.0
H648 H 0.74907 0.58489 0.56289 0.0
C649 C 0.74027 0.56247 0.32044 0.0
C650 C 0.71338 0.54283 0.379 0.0
H651 H 0.77603 0.61775 0.30052 0.0
H652 H 0.73698 0.55746 0.25212 0.0
C653 C 0.72446 0.54516 0.46592 0.0
C654 C 0.21819 1.01596 0.09954 0.0
C655 C 0.20225 1.02028 0.18285 0.0
H656 H 0.24433 0.97013 1.01365 0.0
C657 C 0.22835 1.00367 0.24647 0.0
H658 H 0.20582 0.03507 0.04838 0.0
C659 C 0.24041 0.96254 0.23101 0.0
C660 C 0.24288 0.94827 0.14544 0.0
H661 H 0.22482 1.01363 0.31264 0.0
H662 H 0.24328 0.94164 0.28496 0.0
C663 C 0.23798 0.97805 0.07966 0.0
C664 C 0.8542 0.56053 0.02227 0.0
C665 C 0.82788 0.57804 0.08568 0.0
H666 H 0.91126 0.52926 1.00239 0.0
C667 C 0.82541 0.55666 0.1642 0.0
H668 H 0.85726 0.57375 0.95902 0.0
C669 C 0.85824 0.53041 0.18839 0.0
C670 C 0.89362 0.52927 0.1348 0.0
H671 H 0.80416 0.56671 0.21294 0.0
H672 H 0.86008 0.52086 0.25491 0.0
C673 C 0.88582 0.53329 0.047 0.0
C674 C 0.24437 0.11319 0.76918 0.0
C675 C 0.25242 0.11966 0.85717 0.0
H676 H 0.22504 0.06962 0.67364 0.0
C677 C 0.25673 0.08425 0.90998 0.0
H678 H 0.24513 0.13851 0.7237 0.0
C679 C 0.24213 0.04586 0.87896 0.0
C680 C 0.21826 0.04605 0.8036 0.0
H681 H 0.26709 0.08667 0.97599 0.0
H682 H 0.23984 1.0199 0.92165 0.0
C683 C 0.23325 0.0735 0.74066 0.0
C684 C 0.73448 0.46125 0.79346 0.0
C685 C 0.72761 0.49348 0.73426 0.0
H686 H 0.73091 0.3952 0.80602 0.0
C687 C 0.74922 0.48877 0.65646 0.0
H688 H 0.72763 0.46549 0.86087 0.0
C689 C 0.75322 0.44855 0.62199 0.0
C690 C 0.74193 0.41399 0.67322 0.0
H691 H 0.75484 0.51541 0.61646 0.0
H692 H 0.76186 0.44551 0.55516 0.0
C693 C 0.73627 0.4207 0.76189 0.0
C694 C 0.30626 0.94708 0.41026 0.0
C695 C 0.31664 0.91341 0.355 0.0
H696 H 0.314 1.01316 0.42907 0.0
C697 C 0.32511 0.92313 0.26815 0.0
H698 H 0.29329 0.94254 0.47372 0.0
C699 C 0.33259 0.96477 0.24633 0.0
C700 C 0.34499 0.99071 0.31457 0.0
H701 H 0.32962 0.8992 0.21988 0.0
H702 H 0.34115 0.97214 0.18085 0.0
C703 C 0.31814 0.98738 0.38553 0.0
C704 C 0.16423 0.4395 0.5835 0.0
C705 C 0.1927 0.42651 0.52494 0.0
H706 H 0.11795 0.47235 0.62217 0.0
C707 C 0.2017 0.46261 0.47242 0.0
H708 H 0.16577 0.42521 0.64633 0.0
C709 C 0.16925 0.49272 0.4436 0.0
C710 C 0.12705 0.49182 0.47806 0.0
H711 H 0.23441 0.46994 0.46284 0.0
H712 H 0.17704 0.51512 0.39427 0.0
C713 C 0.13294 0.469 0.56159 0.0
C714 C 0.85286 0.86606 0.83321 0.0
C715 C 0.82909 0.86161 0.75138 0.0
H716 H 0.89969 0.89687 0.91453 0.0
C717 C 0.82821 0.90339 0.71729 0.0
H718 H 0.84913 0.85011 0.89189 0.0
C719 C 0.85878 0.93532 0.74485 0.0
C720 C 0.89517 0.92576 0.79544 0.0
H721 H 0.80509 0.91117 0.6692 0.0
H722 H 0.85265 0.96784 0.73249 0.0
C723 C 0.88367 0.8964 0.85343 0.0
C724 C 0.40119 0.56107 0.95326 0.0
C725 C 0.44322 0.56075 0.98752 0.0
H726 H 0.33652 0.58585 0.97134 0.0
C727 C 0.43862 0.58203 0.07272 0.0
H728 H 0.39334 0.53969 0.90191 0.0
C729 C 0.40778 0.61151 0.09762 0.0
C730 C 0.37912 0.62565 0.0405 0.0
H731 H 0.4556 0.57867 0.13061 0.0
H732 H 0.40726 0.62543 0.16092 0.0
C733 C 0.36928 0.59113 0.9846 0.0
C734 C 0.72412 0.11721 0.18414 0.0
C735 C 0.68546 0.12418 0.23414 0.0
H736 H 0.7792 0.14398 0.11755 0.0
C737 C 0.69875 0.14752 0.30186 0.0
H738 H 0.73807 0.08664 0.18845 0.0
C739 C 0.73179 0.17726 0.29257 0.0
C740 C 0.75497 0.18831 0.2116 0.0
H741 H 0.68315 0.14256 0.36275 0.0
H742 H 0.73849 0.18683 0.35637 0.0
C743 C 0.7556 0.14958 0.16622 0.0
C744 C 0.20096 0.59127 0.56335 0.0
C745 C 0.191 0.62765 0.51274 0.0
H746 H 0.17731 0.53801 0.64053 0.0
C747 C 0.16217 0.61513 0.4547 0.0
H748 H 0.23382 0.58467 0.57304 0.0
C749 C 0.13173 0.5847 0.4759 0.0
C750 C 0.1268 0.56136 0.55838 0.0
H751 H 0.16341 0.62989 0.39241 0.0
H752 H 0.117 0.58033 0.41603 0.0
C753 C 0.16907 0.56064 0.59198 0.0
C754 C 0.7378 0.87176 0.75303 0.0
C755 C 0.76019 0.86386 0.83533 0.0
H756 H 0.68864 0.90483 0.68263 0.0
C757 C 0.76396 0.90504 0.87021 0.0
H758 H 0.74604 0.86226 0.68964 0.0
C759 C 0.72966 0.93433 0.85664 0.0
C760 C 0.69176 0.92168 0.81153 0.0
H761 H 0.78872 0.91287 0.91487 0.0
H762 H 0.73838 0.96676 0.85697 0.0
C763 C 0.70398 0.89918 0.74341 0.0
C764 C 0.36961 0.4569 0.05661 0.0
C765 C 0.38068 0.42187 1.00272 0.0
H766 H 0.39218 0.50918 0.13861 0.0
C767 C 0.40967 0.43583 0.94601 0.0
H768 H 0.33672 0.46156 0.06984 0.0
C769 C 0.43949 0.46637 0.97029 0.0
C770 C 0.44319 0.48812 0.05527 0.0
H771 H 0.40974 0.4215 0.8831 0.0
H772 H 0.45648 0.47019 0.9122 0.0
C773 C 0.40077 0.48765 0.08794 0.0
C774 C 0.87544 0.14988 0.19401 0.0
C775 C 0.88825 0.12096 0.25172 0.0
H776 H 0.84193 0.1971 0.15824 0.0
C777 C 0.85249 0.11135 0.3045 0.0
H778 H 0.88973 0.14875 0.13103 0.0
C779 C 0.82196 0.14324 0.33343 0.0
C780 C 0.82291 0.18529 0.30025 0.0
H781 H 0.84643 0.07873 0.31558 0.0
H782 H 0.79937 0.13533 0.38259 0.0
C783 C 0.84587 0.18099 0.21705 0.0
C784 C 0.9603 0.5842 0.85253 0.0
C785 C 0.93318 0.61279 0.81149 0.0
H786 H 1.00954 0.53867 0.83931 0.0
C787 C 0.93306 0.61306 0.72125 0.0
H788 H 0.96217 0.58326 0.92193 0.0
C789 C 0.9591 0.58574 0.67357 0.0
C790 C 0.98672 0.5579 0.71498 0.0
H791 H 0.91502 0.63638 0.68807 0.0
H792 H 0.9598 0.58837 0.60426 0.0
C793 C 0.98723 0.55797 0.80519 0.0
C794 C 0.18535 0.17804 0.40586 0.0
C795 C 0.18193 0.16312 0.49042 0.0
H796 H 0.21915 0.21487 0.31444 0.0
C797 C 0.21211 0.17704 0.55008 0.0
H798 H 0.16047 0.1724 0.36051 0.0
C799 C 0.24419 0.20514 0.52527 0.0
C800 C 0.24858 0.21781 0.43898 0.0
H801 H 0.20893 0.16885 0.61697 0.0
H802 H 0.264 0.21859 0.57431 0.0
C803 C 0.21886 0.20325 0.37977 0.0
C804 C 0.56854 0.46796 0.30626 0.0
C805 C 0.57922 0.48443 0.22589 0.0
H806 H 0.5853 0.42878 0.4111 0.0
C807 C 0.61904 0.47465 0.19203 0.0
H808 H 0.53819 0.47485 0.33433 0.0
C809 C 0.64661 0.4473 0.23607 0.0
C810 C 0.63475 0.42906 0.31469 0.0
H811 H 0.62812 0.48723 0.13043 0.0
H812 H 0.67668 0.4398 0.20819 0.0
C813 C 0.59585 0.44127 0.35023 0.0
C814 C 0.33764 0.89978 0.97355 0.0
C815 C 0.36764 0.89054 0.03739 0.0
H816 H 0.29149 0.87523 0.88583 0.0
C817 C 0.36689 0.85057 0.07439 0.0
H818 H 0.33531 0.93079 0.94693 0.0
C819 C 0.33959 0.81989 0.04364 0.0
C820 C 0.31367 0.82751 0.97272 0.0
H821 H 0.38788 0.84264 0.12655 0.0
H822 H 0.3399 0.78938 0.07312 0.0
C823 C 0.31169 0.86823 0.93982 0.0
C824 C 0.92292 0.4564 0.29532 0.0
C825 C 0.9353 0.44053 0.21457 0.0
H826 H 0.94061 0.49194 0.40813 0.0
C827 C 0.97386 0.45478 0.18102 0.0
H828 H 0.89252 0.44844 0.32081 0.0
C829 C 1.00011 0.48147 0.22817 0.0
C830 C 0.98917 0.49512 0.31102 0.0
H831 H 0.98478 0.44422 0.11874 0.0
H832 H 0.03014 0.49011 0.20095 0.0
C833 C 0.94996 0.48244 0.34408 0.0
C834 C 0.33632 0.2286 0.98899 0.0
C835 C 0.31279 0.22032 0.06338 0.0
H836 H 0.38112 0.20625 0.89666 0.0
C837 C 0.31238 0.17921 0.09469 0.0
H838 H 0.33591 0.25953 0.96139 0.0
C839 C 0.33684 0.14785 0.05495 0.0
C840 C 0.36386 0.15737 0.98573 0.0
H841 H 0.29453 0.1717 0.15182 0.0
H842 H 0.33608 0.11666 0.08132 0.0
C843 C 0.36209 0.19794 0.95169 0.0
C844 C 0.60453 0.60162 0.69803 0.0
C845 C 0.63791 0.62128 0.74182 0.0
H846 H 0.55022 0.56222 0.70572 0.0
C847 C 0.64368 0.61124 0.82896 0.0
H848 H 0.5986 0.60824 0.63092 0.0
C849 C 0.61612 0.58357 0.87156 0.0
C850 C 0.58201 0.56537 0.82794 0.0
H851 H 0.66837 0.62614 0.86468 0.0
H852 H 0.62034 0.57779 0.93946 0.0
C853 C 0.57673 0.57478 0.74066 0.0
C854 C 0.24507 0.81692 0.48216 0.0
C855 C 0.25705 0.82714 0.56648 0.0
H856 H 0.20871 0.83215 0.37133 0.0
C857 C 0.24227 0.86545 0.60031 0.0
H858 H 0.2551 0.78758 0.45412 0.0
C859 C 0.21497 0.89161 0.55205 0.0
C860 C 0.20075 0.87973 0.46973 0.0
H861 H 0.25015 0.87423 0.66557 0.0
H862 H 0.20423 0.92066 0.57963 0.0
C863 C 0.2179 0.8427 0.4347 0.0
C864 C 0.65684 1.01221 0.91721 0.0
C865 C 0.61202 1.0111 0.92383 0.0
H866 H 0.71612 0.98894 0.97163 0.0
C867 C 0.59817 0.98149 0.98195 0.0
H868 H 0.67158 0.03632 0.87927 0.0
C869 C 0.62603 0.95686 0.03393 0.0
C870 C 0.66622 0.94785 1.01148 0.0
H871 H 0.56467 0.9795 0.98948 0.0
H872 H 0.61803 0.94314 0.09358 0.0
C873 C 0.6831 0.98258 0.96493 0.0
C874 C 0.31884 0.40187 0.19043 0.0
C875 C 0.32084 0.35978 0.2239 0.0
H876 H 0.3422 0.46662 0.20721 0.0
C877 C 0.34462 0.36549 0.30601 0.0
H878 H 0.29567 0.40953 0.14229 0.0
C879 C 0.37382 0.39679 0.32757 0.0
C880 C 0.38625 0.42472 0.26849 0.0
H881 H 0.34211 0.35044 0.36579 0.0
H882 H 0.38879 0.39844 0.38978 0.0
C883 C 0.34942 0.43414 0.21772 0.0
C884 C 0.90307 0.05438 0.44279 0.0
C885 C 0.94495 0.05622 0.47872 0.0
H886 H 0.83832 0.08034 0.45079 0.0
C887 C 0.93858 0.07976 0.56063 0.0
H888 H 0.89601 0.03158 0.39355 0.0
C889 C 0.90774 0.11007 0.57901 0.0
C890 C 0.8804 0.12243 0.51805 0.0
H891 H 0.9527 0.07616 0.62177 0.0
H892 H 0.90549 0.12525 0.64101 0.0
C893 C 0.87074 0.08571 0.46706 0.0
C894 C 0.22784 0.68131 0.8134 0.0
C895 C 0.25104 0.68876 0.73064 0.0
H896 H 0.1855 0.64607 0.89724 0.0
C897 C 0.25317 0.64741 0.69339 0.0
H898 H 0.22994 0.69558 0.87453 0.0
C899 C 0.22418 0.61385 0.72062 0.0
C900 C 0.18798 0.62086 0.77455 0.0
H901 H 0.27598 0.64101 0.64358 0.0
H902 H 0.23266 0.58171 0.70879 0.0
C903 C 0.19996 0.64871 0.83453 0.0
C904 C 0.68489 0.06184 0.08289 0.0
C905 C 0.66975 0.09846 0.03872 0.0
H906 H 0.67085 1.00855 0.16732 0.0
C907 C 0.62969 0.09047 1.00954 0.0
H908 H 0.71801 0.05496 0.08144 0.0
C909 C 0.60105 0.06402 0.05638 0.0
C910 C 0.61307 0.03451 0.11665 0.0
H911 H 0.62015 0.10928 0.95761 0.0
H912 H 0.56779 0.06583 0.04683 0.0
C913 C 0.65735 0.03285 0.12792 0.0
C914 C 0.2301 0.36833 0.22867 0.0
C915 C 0.25312 0.36163 0.31102 0.0
H916 H 0.18846 0.40333 0.14283 0.0
C917 C 0.25543 0.40335 0.34666 0.0
H918 H 0.2335 0.35387 0.16897 0.0
C919 C 0.22658 0.43692 0.31791 0.0
C920 C 0.19035 0.42967 0.26401 0.0
H921 H 0.27819 0.41007 0.39624 0.0
H922 H 0.23536 0.46909 0.32782 0.0
C923 C 0.20235 0.40088 0.20586 0.0
C924 C 0.905 0.9886 0.60327 0.0
C925 C 0.94642 0.98842 0.56594 0.0
H926 H 0.84126 0.96123 0.59608 0.0
C927 C 0.94093 0.96418 0.48497 0.0
H928 H 0.89729 1.01164 0.65167 0.0
C929 C 0.91144 0.93224 0.46865 0.0
C930 C 0.88447 0.91957 0.53037 0.0
H931 H 0.95375 0.96949 0.42326 0.0
H932 H 0.90906 0.91693 0.4069 0.0
C933 C 0.8738 0.95631 0.58006 0.0
C934 C 0.34273 0.68225 0.73564 0.0
C935 C 0.31875 0.68745 0.81724 0.0
H936 H 0.38733 0.64905 0.65267 0.0
C937 C 0.31644 0.64514 0.84969 0.0
H938 H 0.3384 0.69647 0.67541 0.0
C939 C 0.34774 0.61322 0.82328 0.0
C940 C 0.38509 0.62348 0.77449 0.0
H941 H 0.29306 0.63724 0.89729 0.0
H942 H 0.34131 0.58065 0.83447 0.0
C943 C 0.37277 0.65141 0.71521 0.0
C944 C 0.44042 0.08818 0.32872 0.0
C945 C 0.41695 0.10603 0.26141 0.0
H946 H 0.48943 0.04516 0.36465 0.0
C947 C 0.42149 0.08797 0.17907 0.0
H948 H 0.43856 0.10138 0.3927 0.0
C949 C 0.44935 0.05447 0.16356 0.0
C950 C 0.47482 0.03851 0.22957 0.0
H951 H 0.40494 0.10113 0.1253 0.0
H952 H 0.45342 0.04334 0.09826 0.0
C953 C 0.46956 0.05568 0.31263 0.0
C954 C 0.72952 0.73502 0.05996 0.0
C955 C 0.75104 0.72308 0.98488 0.0
H956 H 0.6864 0.7192 0.15962 0.0
C957 C 0.74453 0.68191 0.95473 0.0
H958 H 0.73279 0.76647 0.08471 0.0
C959 C 0.71748 0.65382 0.9992 0.0
C960 C 0.69504 0.66661 0.07313 0.0
H961 H 0.75965 0.67167 0.896 0.0
H962 H 0.71421 0.62218 0.9759 0.0
C963 C 0.70249 0.70756 0.10308 0.0
C964 C 0.14272 0.94115 0.73184 0.0
C965 C 0.13575 0.9348 0.82016 0.0
H966 H 0.12219 0.97144 0.61522 0.0
C967 C 0.1042 0.95919 0.85979 0.0
H968 H 0.16583 0.92239 0.69911 0.0
C969 C 0.07902 0.98685 0.81229 0.0
C970 C 0.08519 0.99252 0.72369 0.0
H971 H 0.09736 0.95545 0.92748 0.0
H972 H 0.05327 1.00251 0.84442 0.0
C973 C 0.11773 0.96946 0.68409 0.0
C974 C 0.84075 0.35491 0.41506 0.0
C975 C 0.81764 0.32419 0.45949 0.0
H976 H 0.8894 0.40161 0.42157 0.0
C977 C 0.82475 0.32028 0.54809 0.0
H978 H 0.83792 0.35731 0.34589 0.0
C979 C 0.85425 0.34555 0.59067 0.0
C980 C 0.87827 0.3758 0.54651 0.0
H981 H 0.80922 0.2958 0.58383 0.0
H982 H 0.85957 0.33969 0.65825 0.0
C983 C 0.87056 0.38028 0.45806 0.0
C984 C 0.47844 0.98514 0.71963 0.0
C985 C 0.47723 1.00738 0.79817 0.0
H986 H 0.45349 0.93489 0.64286 0.0
C987 C 0.44545 0.99676 0.8569 0.0
H988 H 0.5029 0.99176 0.67331 0.0
C989 C 0.41703 0.96408 0.8388 0.0
C990 C 0.41913 0.94087 0.76174 0.0
H991 H 0.44407 1.01206 0.91899 0.0
H992 H 0.39418 0.95593 0.8866 0.0
C993 C 0.44977 0.9527 0.70151 0.0
C994 C 0.8322 0.68645 0.61288 0.0
C995 C 0.81811 0.72541 0.58162 0.0
H996 H 0.86742 0.62989 0.58665 0.0
C997 C 0.82912 0.73584 0.49693 0.0
H998 H 0.82474 0.67729 0.67805 0.0
C999 C 0.85513 0.70984 0.44693 0.0
C1000 C 0.87181 0.67216 0.47943 0.0
H1001 H 0.81946 0.7656 0.47065 0.0
H1002 H 0.86386 0.72069 0.38356 0.0
C1003 C 0.85784 0.65978 0.56158 0.0
C1004 C 0.11574 0.10548 0.2213 0.0
C1005 C 0.15588 0.10621 0.25899 0.0
H1006 H 0.05295 0.08086 0.22469 0.0
C1007 C 0.16188 0.08189 0.33374 0.0
H1008 H 0.10966 0.12339 0.16373 0.0
C1009 C 0.12872 0.05863 0.37056 0.0
C1010 C 0.08877 0.05762 0.33214 0.0
H1011 H 0.19205 0.08183 0.36554 0.0
H1012 H 0.13426 0.04177 0.42971 0.0
C1013 C 0.08306 0.08117 0.2566 0.0
C1014 C 0.70665 0.33667 0.09348 0.0
C1015 C 0.74875 0.34133 0.12128 0.0
H1016 H 0.65162 0.36385 0.03743 0.0
C1017 C 0.76566 0.38184 0.11719 0.0
H1018 H 0.69097 0.30691 0.09804 0.0
C1019 C 0.74207 0.41547 0.08232 0.0
C1020 C 0.7006 0.40983 0.05127 0.0
H1021 H 0.79702 0.38762 0.14061 0.0
H1022 H 0.75648 0.44597 0.07952 0.0
C1023 C 0.68339 0.3698 0.05863 0.0
C1024 C 0.04174 0.79731 0.35803 0.0
C1025 C 0.04848 0.8204 0.4344 0.0
H1026 H 0.02632 0.73825 0.29904 0.0
C1027 C 0.04393 0.79821 0.51247 0.0
H1028 H 0.04455 0.81261 0.29634 0.0
C1029 C 0.03343 0.75511 0.51407 0.0
C1030 C 0.02659 0.73204 0.43767 0.0
H1031 H 0.04859 0.81421 0.5731 0.0
H1032 H 0.03063 0.73982 0.57578 0.0
C1033 C 0.03099 0.75426 0.35963 0.0
C1034 C 0.51871 0.78233 0.63438 0.0
C1035 C 0.49426 0.78729 0.70962 0.0
H1036 H 0.57937 0.77051 0.57804 0.0
C1037 C 0.51581 0.78353 0.78881 0.0
H1038 H 0.50397 0.78467 0.57192 0.0
C1039 C 0.55971 0.77555 0.79241 0.0
C1040 C 0.58406 0.7704 0.71697 0.0
H1041 H 0.4987 0.7869 0.84857 0.0
H1042 H 0.57456 0.77327 0.85478 0.0
C1043 C 0.5624 0.77394 0.63797 0.0
C1044 C 0.54216 0.30833 0.98299 0.0
C1045 C 0.55032 0.33218 0.90868 0.0
H1046 H 0.52535 0.24907 0.03709 0.0
C1047 C 0.54642 0.31153 0.82861 0.0
H1048 H 0.5445 0.32257 0.046 0.0
C1049 C 0.53498 0.26876 0.82339 0.0
C1050 C 0.52718 0.24493 0.89806 0.0
H1051 H 0.55211 0.32847 0.76963 0.0
H1052 H 0.53261 0.25427 0.76065 0.0
C1053 C 0.531 0.26577 0.97781 0.0
C1054 C 0.05697 0.27539 0.1009 0.0
C1055 C 0.0794 0.26759 0.17768 0.0
H1056 H 0.99804 0.29153 0.04106 0.0
C1057 C 0.05644 0.2708 0.25521 0.0
H1058 H 0.07301 0.27359 0.03962 0.0
C1059 C 1.01316 0.28104 0.25598 0.0
C1060 C 0.99069 0.28895 0.17933 0.0
H1061 H 0.07194 0.2652 0.316 0.0
H1062 H 0.99723 0.28278 0.3174 0.0
C1063 C 1.01364 0.28594 0.10172 0.0
C1064 C 0.0312 0.29625 0.53385 0.0
C1065 C 0.02645 0.32004 0.60989 0.0
H1066 H 0.04259 0.23636 0.47533 0.0
C1067 C 0.03081 0.29811 0.68836 0.0
H1068 H 0.02835 0.31127 0.47185 0.0
C1069 C 0.03953 0.2545 0.69047 0.0
C1070 C 0.04407 0.23078 0.61417 0.0
H1071 H 0.0277 0.31476 0.74869 0.0
H1072 H 0.04237 0.23929 0.75224 0.0
C1073 C 0.03956 0.2528 0.53593 0.0
C1074 C 0.05697 0.77538 0.95113 0.0
C1075 C 0.07866 0.7817 0.87273 0.0
H1076 H 0.99892 0.75926 1.01494 0.0
C1077 C 0.05527 0.77554 0.79661 0.0
H1078 H 0.07333 0.77943 1.01151 0.0
C1079 C 1.01237 0.76391 0.79865 0.0
C1080 C 0.9906 0.75754 0.87688 0.0
H1081 H 0.07016 0.77977 0.73465 0.0
H1082 H 0.99617 0.75988 0.73807 0.0
C1083 C 1.01396 0.76351 0.95317 0.0
C1084 C 0.54226 0.73661 0.21431 0.0
C1085 C 0.54871 0.71613 0.13478 0.0
H1086 H 0.52645 0.7938 0.28055 0.0
C1087 C 0.54348 0.73998 0.05956 0.0
H1088 H 0.54574 0.71954 0.27385 0.0
C1089 C 0.53253 0.78255 0.06348 0.0
C1090 C 0.52603 0.80316 0.14276 0.0
H1091 H 0.548 0.72576 0.997 0.0
H1092 H 0.52921 0.79942 1.00367 0.0
C1093 C 0.53098 0.77935 0.21823 0.0
C1094 C 0.55878 0.27323 0.40059 0.0
C1095 C 0.57933 0.27697 0.32013 0.0
H1096 H 0.50149 0.26142 0.47045 0.0
C1097 C 0.55416 0.27112 0.24638 0.0
H1098 H 0.57644 0.27719 0.45945 0.0
C1099 C 0.51058 0.2622 0.25293 0.0
C1100 C 0.49016 0.25816 0.3335 0.0
H1101 H 0.56811 0.27355 0.18313 0.0
H1102 H 0.49282 0.25826 0.19421 0.0
C1103 C 0.51537 0.2639 0.40713 0.0
loop_
_geom_bond_atom_site_label_1
_geom_bond_atom_site_label_2
_geom_bond_distance
_geom_bond_site_symmetry_2
_ccdc_geom_bond_type
Zn0 N4 2.020 . S
Zn0 O8 2.019 . S
Zn0 N10 2.119 . S
Zn0 O18 1.975 . S
C1 N2 1.334 . S
C1 N5 1.336 . S
N2 C1 1.334 . S
N2 C3 1.334 1_455 S
C3 N2 1.334 1_655 S
C3 N4 1.336 . S
N4 Zn0 2.020 . S
N4 C3 1.336 . S
N4 N5 1.354 1_655 S
N5 C1 1.336 . S
N5 N4 1.354 1_455 S
N5 Zn9 2.020 . S
C6 O7 1.244 . S
C6 O30 1.257 . S
O7 C6 1.244 . S
O8 Zn0 2.019 . S
O8 C28 1.257 . S
Zn9 N5 2.020 . S
Zn9 O16 1.975 . S
Zn9 N25 2.119 . S
Zn9 O30 2.019 . S
N10 Zn0 2.119 . S
N10 C12 1.334 . S
N10 C13 1.328 . S
C11 C12 1.391 . S
C11 N14 1.329 . S
C11 H32 0.930 . S
C12 N10 1.334 . S
C12 C11 1.391 . S
C12 H19 0.930 . S
C13 N10 1.328 . S
C13 C15 1.392 . S
C13 H20 0.930 . S
N14 C11 1.329 . S
N14 C15 1.331 . S
C15 C13 1.392 . S
C15 N14 1.331 . S
O16 Zn9 1.975 . S
O16 C17 1.252 . S
C17 O16 1.252 . S
C17 O18 1.252 1_455 S
O18 Zn0 1.975 . S
O18 C17 1.252 1_655 S
H19 C12 0.930 . S
H20 C13 0.930 . S
C21 C22 1.392 . S
C21 N25 1.328 . S
C21 H27 0.930 . S
C22 C21 1.392 . S
C22 N26 1.331 . S
C23 C24 1.391 . S
C23 N26 1.329 . S
C23 H33 0.930 . S
C24 C23 1.391 . S
C24 N25 1.334 . S
C24 H31 0.930 . S
N25 Zn9 2.119 . S
N25 C21 1.328 . S
N25 C24 1.334 . S
N26 C22 1.331 . S
N26 C23 1.329 . S
H27 C21 0.930 . S
C28 O8 1.257 . S
C28 O29 1.244 . S
O29 C28 1.244 . S
O30 C6 1.257 . S
O30 Zn9 2.019 . S
H31 C24 0.930 . S
H32 C11 0.930 . S
H33 C23 0.930 . S
Zn34 N38 2.020 . S
Zn34 O42 2.019 . S
Zn34 N44 2.119 . S
Zn34 O52 1.975 . S
C35 N36 1.334 . S
C35 N39 1.336 . S
N36 C35 1.334 . S
N36 C37 1.334 . S
C37 N36 1.334 . S
C37 N38 1.336 . S
N38 Zn34 2.020 . S
N38 C37 1.336 . S
N38 N39 1.354 . S
N39 C35 1.336 . S
N39 N38 1.354 . S
N39 Zn43 2.020 . S
C40 O41 1.244 . S
C40 O64 1.257 . S
O41 C40 1.244 . S
O42 Zn34 2.019 . S
O42 C62 1.257 . S
Zn43 N39 2.020 . S
Zn43 O50 1.975 . S
Zn43 N59 2.119 . S
Zn43 O64 2.019 . S
N44 Zn34 2.119 . S
N44 C46 1.334 . S
N44 C47 1.328 . S
C45 C46 1.391 . S
C45 N48 1.329 . S
C45 H66 0.930 . S
C46 N44 1.334 . S
C46 C45 1.391 . S
C46 H53 0.930 . S
C47 N44 1.328 . S
C47 C49 1.392 . S
C47 H54 0.930 . S
N48 C45 1.329 . S
N48 C49 1.331 . S
C49 C47 1.392 . S
C49 N48 1.331 . S
O50 Zn43 1.975 . S
O50 C51 1.252 . S
C51 O50 1.252 . S
C51 O52 1.252 . S
O52 Zn34 1.975 . S
O52 C51 1.252 . S
H53 C46 0.930 . S
H54 C47 0.930 . S
C55 C56 1.392 . S
C55 N59 1.328 . S
C55 H61 0.930 . S
C56 C55 1.392 . S
C56 N60 1.331 . S
C57 C58 1.391 . S
C57 N60 1.329 . S
C57 H67 0.930 . S
C58 C57 1.391 . S
C58 N59 1.334 . S
C58 H65 0.930 . S
N59 Zn43 2.119 . S
N59 C55 1.328 . S
N59 C58 1.334 . S
N60 C56 1.331 . S
N60 C57 1.329 . S
H61 C55 0.930 . S
C62 O42 1.257 . S
C62 O63 1.244 . S
O63 C62 1.244 . S
O64 C40 1.257 . S
O64 Zn43 2.019 . S
H65 C58 0.930 . S
H66 C45 0.930 . S
H67 C57 0.930 . S
Zn68 N72 2.020 . S
Zn68 O76 2.021 . S
Zn68 N78 2.119 . S
Zn68 O86 1.975 . S
C69 N70 1.334 . S
C69 N73 1.336 . S
N70 C69 1.334 . S
N70 C71 1.334 . S
C71 N70 1.334 . S
C71 N72 1.336 . S
N72 Zn68 2.020 . S
N72 C71 1.336 . S
N72 N73 1.354 . S
N73 C69 1.336 . S
N73 N72 1.354 . S
N73 Zn77 2.020 . S
C74 O75 1.244 . S
C74 O98 1.257 . S
O75 C74 1.244 . S
O76 Zn68 2.021 . S
O76 C96 1.251 1_556 S
Zn77 N73 2.020 . S
Zn77 O84 1.975 . S
Zn77 N93 2.119 1_556 S
Zn77 O98 2.019 . S
N78 Zn68 2.119 . S
N78 C80 1.334 . S
N78 C81 1.328 . S
C79 C80 1.391 . S
C79 N82 1.329 . S
C79 H100 0.930 . S
C80 N78 1.334 . S
C80 C79 1.391 . S
C80 H87 0.930 . S
C81 N78 1.328 . S
C81 C83 1.392 . S
C81 H88 0.930 . S
N82 C79 1.329 . S
N82 C83 1.331 . S
C83 C81 1.392 . S
C83 N82 1.331 . S
O84 Zn77 1.975 . S
O84 C85 1.252 . S
C85 O84 1.252 . S
C85 O86 1.252 . S
O86 Zn68 1.975 . S
O86 C85 1.252 . S
H87 C80 0.930 . S
H88 C81 0.930 . S
C89 C90 1.392 . S
C89 N93 1.328 . S
C89 H95 0.930 . S
C90 C89 1.392 . S
C90 N94 1.331 . S
C91 C92 1.391 . S
C91 N94 1.329 . S
C91 H101 0.930 . S
C92 C91 1.391 . S
C92 N93 1.334 . S
C92 H99 0.930 . S
N93 Zn77 2.119 1_554 S
N93 C89 1.328 . S
N93 C92 1.334 . S
N94 C90 1.331 . S
N94 C91 1.329 . S
H95 C89 0.930 . S
C96 O76 1.251 1_554 S
C96 O97 1.244 . S
O97 C96 1.244 . S
O98 C74 1.257 . S
O98 Zn77 2.019 . S
H99 C92 0.930 . S
H100 C79 0.930 . S
H101 C91 0.930 . S
Zn102 N106 2.020 . S
Zn102 O110 2.019 . S
Zn102 N112 2.119 . S
Zn102 O120 1.975 . S
C103 N104 1.334 . S
C103 N107 1.336 . S
N104 C103 1.334 . S
N104 C105 1.334 . S
C105 N104 1.334 . S
C105 N106 1.336 . S
N106 Zn102 2.020 . S
N106 C105 1.336 . S
N106 N107 1.354 . S
N107 C103 1.336 . S
N107 N106 1.354 . S
N107 Zn111 2.020 . S
C108 O109 1.244 . S
C108 O132 1.257 . S
O109 C108 1.244 . S
O110 Zn102 2.019 . S
O110 C130 1.257 . S
Zn111 N107 2.020 . S
Zn111 O118 1.975 . S
Zn111 N127 2.119 . S
Zn111 O132 2.019 . S
N112 Zn102 2.119 . S
N112 C114 1.334 . S
N112 C115 1.328 . S
C113 C114 1.391 1_556 S
C113 N116 1.329 . S
C113 H134 0.930 . S
C114 N112 1.334 . S
C114 C113 1.391 1_554 S
C114 H121 0.930 . S
C115 N112 1.328 . S
C115 C117 1.392 1_554 S
C115 H122 0.930 . S
N116 C113 1.329 . S
N116 C117 1.331 . S
C117 C115 1.392 1_556 S
C117 N116 1.331 . S
O118 Zn111 1.975 . S
O118 C119 1.252 . S
C119 O118 1.252 . S
C119 O120 1.252 . S
O120 Zn102 1.975 . S
O120 C119 1.252 . S
H121 C114 0.930 . S
H122 C115 0.930 . S
C123 C124 1.392 . S
C123 N127 1.328 . S
C123 H129 0.930 . S
C124 C123 1.392 . S
C124 N128 1.331 . S
C125 C126 1.391 . S
C125 N128 1.329 . S
C125 H135 0.930 . S
C126 C125 1.391 . S
C126 N127 1.334 . S
C126 H133 0.930 . S
N127 Zn111 2.119 . S
N127 C123 1.328 . S
N127 C126 1.334 . S
N128 C124 1.331 . S
N128 C125 1.329 . S
H129 C123 0.930 . S
C130 O110 1.257 . S
C130 O131 1.244 . S
O131 C130 1.244 . S
O132 C108 1.257 . S
O132 Zn111 2.019 . S
H133 C126 0.930 . S
H134 C113 0.930 . S
H135 C125 0.930 . S
Zn136 N140 2.020 . S
Zn136 O144 2.019 . S
Zn136 N146 2.119 . S
Zn136 O154 1.975 . S
C137 N138 1.334 1_655 S
C137 N141 1.336 . S
N138 C137 1.334 1_455 S
N138 C139 1.334 . S
C139 N138 1.334 . S
C139 N140 1.336 . S
N140 Zn136 2.020 . S
N140 C139 1.336 . S
N140 N141 1.354 1_455 S
N141 C137 1.336 . S
N141 N140 1.354 1_655 S
N141 Zn145 2.020 . S
C142 O143 1.244 . S
C142 O166 1.257 . S
O143 C142 1.244 . S
O144 Zn136 2.019 . S
O144 C164 1.257 . S
Zn145 N141 2.020 . S
Zn145 O152 1.975 . S
Zn145 N161 2.119 . S
Zn145 O166 2.019 . S
N146 Zn136 2.119 . S
N146 C148 1.334 . S
N146 C149 1.328 . S
C147 C148 1.391 . S
C147 N150 1.329 . S
C147 H168 0.930 . S
C148 N146 1.334 . S
C148 C147 1.391 . S
C148 H155 0.930 . S
C149 N146 1.328 . S
C149 C151 1.392 . S
C149 H156 0.930 . S
N150 C147 1.329 . S
N150 C151 1.331 . S
C151 C149 1.392 . S
C151 N150 1.331 . S
O152 Zn145 1.975 . S
O152 C153 1.252 1_655 S
C153 O152 1.252 1_455 S
C153 O154 1.252 . S
O154 Zn136 1.975 . S
O154 C153 1.252 . S
H155 C148 0.930 . S
H156 C149 0.930 . S
C157 C158 1.392 . S
C157 N161 1.328 . S
C157 H163 0.930 . S
C158 C157 1.392 . S
C158 N162 1.331 . S
C159 C160 1.391 . S
C159 N162 1.329 . S
C159 H169 0.930 . S
C160 C159 1.391 . S
C160 N161 1.334 . S
C160 H167 0.930 . S
N161 Zn145 2.119 . S
N161 C157 1.328 . S
N161 C160 1.334 . S
N162 C158 1.331 . S
N162 C159 1.329 . S
H163 C157 0.930 . S
C164 O144 1.257 . S
C164 O165 1.244 . S
O165 C164 1.244 . S
O166 C142 1.257 . S
O166 Zn145 2.019 . S
H167 C160 0.930 . S
H168 C147 0.930 . S
H169 C159 0.930 . S
Zn170 N174 2.020 . S
Zn170 O178 2.019 . S
Zn170 N180 2.119 . S
Zn170 O188 1.975 . S
C171 N172 1.334 . S
C171 N175 1.336 . S
N172 C171 1.334 . S
N172 C173 1.334 . S
C173 N172 1.334 . S
C173 N174 1.336 . S
N174 Zn170 2.020 . S
N174 C173 1.336 . S
N174 N175 1.354 . S
N175 C171 1.336 . S
N175 N174 1.354 . S
N175 Zn179 2.020 . S
C176 O177 1.244 . S
C176 O200 1.257 . S
O177 C176 1.244 . S
O178 Zn170 2.019 . S
O178 C198 1.257 . S
Zn179 N175 2.020 . S
Zn179 O186 1.975 . S
Zn179 N195 2.119 . S
Zn179 O200 2.019 . S
N180 Zn170 2.119 . S
N180 C182 1.334 . S
N180 C183 1.328 . S
C181 C182 1.391 1_554 S
C181 N184 1.329 . S
C181 H202 0.930 . S
C182 N180 1.334 . S
C182 C181 1.391 1_556 S
C182 H189 0.930 . S
C183 N180 1.328 . S
C183 C185 1.392 1_556 S
C183 H190 0.930 . S
N184 C181 1.329 . S
N184 C185 1.331 . S
C185 C183 1.392 1_554 S
C185 N184 1.331 . S
O186 Zn179 1.975 . S
O186 C187 1.252 . S
C187 O186 1.252 . S
C187 O188 1.252 . S
O188 Zn170 1.975 . S
O188 C187 1.252 . S
H189 C182 0.930 . S
H190 C183 0.930 . S
C191 C192 1.392 . S
C191 N195 1.328 . S
C191 H197 0.930 . S
C192 C191 1.392 . S
C192 N196 1.331 . S
C193 C194 1.391 . S
C193 N196 1.329 . S
C193 H203 0.930 . S
C194 C193 1.391 . S
C194 N195 1.334 . S
C194 H201 0.930 . S
N195 Zn179 2.119 . S
N195 C191 1.328 . S
N195 C194 1.334 . S
N196 C192 1.331 . S
N196 C193 1.329 . S
H197 C191 0.930 . S
C198 O178 1.257 . S
C198 O199 1.244 . S
O199 C198 1.244 . S
O200 C176 1.257 . S
O200 Zn179 2.019 . S
H201 C194 0.930 . S
H202 C181 0.930 . S
H203 C193 0.930 . S
Zn204 N208 2.020 . S
Zn204 O212 2.019 . S
Zn204 N214 2.119 1_554 S
Zn204 O222 1.975 . S
C205 N206 1.334 . S
C205 N209 1.336 . S
N206 C205 1.334 . S
N206 C207 1.334 . S
C207 N206 1.334 . S
C207 N208 1.336 . S
N208 Zn204 2.020 . S
N208 C207 1.336 . S
N208 N209 1.354 . S
N209 C205 1.336 . S
N209 N208 1.354 . S
N209 Zn213 2.020 . S
C210 O211 1.244 . S
C210 O234 1.251 1_556 S
O211 C210 1.244 . S
O212 Zn204 2.019 . S
O212 C232 1.257 . S
Zn213 N209 2.020 . S
Zn213 O220 1.975 . S
Zn213 N229 2.119 . S
Zn213 O234 2.021 . S
N214 Zn204 2.119 1_556 S
N214 C216 1.334 . S
N214 C217 1.328 . S
C215 C216 1.391 . S
C215 N218 1.329 . S
C215 H236 0.930 . S
C216 N214 1.334 . S
C216 C215 1.391 . S
C216 H223 0.930 . S
C217 N214 1.328 . S
C217 C219 1.392 . S
C217 H224 0.930 . S
N218 C215 1.329 . S
N218 C219 1.331 . S
C219 C217 1.392 . S
C219 N218 1.331 . S
O220 Zn213 1.975 . S
O220 C221 1.252 . S
C221 O220 1.252 . S
C221 O222 1.252 . S
O222 Zn204 1.975 . S
O222 C221 1.252 . S
H223 C216 0.930 . S
H224 C217 0.930 . S
C225 C226 1.392 . S
C225 N229 1.328 . S
C225 H231 0.930 . S
C226 C225 1.392 . S
C226 N230 1.331 . S
C227 C228 1.391 . S
C227 N230 1.329 . S
C227 H237 0.930 . S
C228 C227 1.391 . S
C228 N229 1.334 . S
C228 H235 0.930 . S
N229 Zn213 2.119 . S
N229 C225 1.328 . S
N229 C228 1.334 . S
N230 C226 1.331 . S
N230 C227 1.329 . S
H231 C225 0.930 . S
C232 O212 1.257 . S
C232 O233 1.244 . S
O233 C232 1.244 . S
O234 C210 1.251 1_554 S
O234 Zn213 2.021 . S
H235 C228 0.930 . S
H236 C215 0.930 . S
H237 C227 0.930 . S
Zn238 N242 2.020 . S
Zn238 O246 2.019 . S
Zn238 N248 2.119 . S
Zn238 O256 1.975 . S
C239 N240 1.334 . S
C239 N243 1.336 . S
N240 C239 1.334 . S
N240 C241 1.334 . S
C241 N240 1.334 . S
C241 N242 1.336 . S
N242 Zn238 2.020 . S
N242 C241 1.336 . S
N242 N243 1.354 . S
N243 C239 1.336 . S
N243 N242 1.354 . S
N243 Zn247 2.020 . S
C244 O245 1.244 . S
C244 O268 1.257 . S
O245 C244 1.244 . S
O246 Zn238 2.019 . S
O246 C266 1.257 . S
Zn247 N243 2.020 . S
Zn247 O254 1.975 . S
Zn247 N263 2.119 . S
Zn247 O268 2.019 . S
N248 Zn238 2.119 . S
N248 C250 1.334 . S
N248 C251 1.328 . S
C249 C250 1.391 . S
C249 N252 1.329 . S
C249 H270 0.930 . S
C250 N248 1.334 . S
C250 C249 1.391 . S
C250 H257 0.930 . S
C251 N248 1.328 . S
C251 C253 1.392 . S
C251 H258 0.930 . S
N252 C249 1.329 . S
N252 C253 1.331 . S
C253 C251 1.392 . S
C253 N252 1.331 . S
O254 Zn247 1.975 . S
O254 C255 1.252 . S
C255 O254 1.252 . S
C255 O256 1.252 . S
O256 Zn238 1.975 . S
O256 C255 1.252 . S
H257 C250 0.930 . S
H258 C251 0.930 . S
C259 C260 1.392 . S
C259 N263 1.328 . S
C259 H265 0.930 . S
C260 C259 1.392 . S
C260 N264 1.331 . S
C261 C262 1.391 . S
C261 N264 1.329 . S
C261 H271 0.930 . S
C262 C261 1.391 . S
C262 N263 1.334 . S
C262 H269 0.930 . S
N263 Zn247 2.119 . S
N263 C259 1.328 . S
N263 C262 1.334 . S
N264 C260 1.331 . S
N264 C261 1.329 . S
H265 C259 0.930 . S
C266 O246 1.257 . S
C266 O267 1.244 . S
O267 C266 1.244 . S
O268 C244 1.257 . S
O268 Zn247 2.019 . S
H269 C262 0.930 . S
H270 C249 0.930 . S
H271 C261 0.930 . S
Zn272 N276 2.020 . S
Zn272 O280 2.019 . S
Zn272 N282 2.119 . S
Zn272 O290 1.975 . S
C273 N274 1.334 . S
C273 N277 1.336 . S
N274 C273 1.334 . S
N274 C275 1.334 . S
C275 N274 1.334 . S
C275 N276 1.336 . S
N276 Zn272 2.020 . S
N276 C275 1.336 . S
N276 N277 1.354 . S
N277 C273 1.336 . S
N277 N276 1.354 . S
N277 Zn281 2.020 . S
C278 O279 1.244 . S
C278 O302 1.257 . S
O279 C278 1.244 . S
O280 Zn272 2.019 . S
O280 C300 1.257 . S
Zn281 N277 2.020 . S
Zn281 O288 1.975 . S
Zn281 N297 2.119 . S
Zn281 O302 2.019 . S
N282 Zn272 2.119 . S
N282 C284 1.334 . S
N282 C285 1.328 . S
C283 C284 1.391 . S
C283 N286 1.329 . S
C283 H304 0.930 . S
C284 N282 1.334 . S
C284 C283 1.391 . S
C284 H291 0.930 . S
C285 N282 1.328 . S
C285 C287 1.392 . S
C285 H292 0.930 . S
N286 C283 1.329 . S
N286 C287 1.331 . S
C287 C285 1.392 . S
C287 N286 1.331 . S
O288 Zn281 1.975 . S
O288 C289 1.252 . S
C289 O288 1.252 . S
C289 O290 1.252 . S
O290 Zn272 1.975 . S
O290 C289 1.252 . S
H291 C284 0.930 . S
H292 C285 0.930 . S
C293 C294 1.392 . S
C293 N297 1.328 . S
C293 H299 0.930 . S
C294 C293 1.392 . S
C294 N298 1.331 . S
C295 C296 1.391 . S
C295 N298 1.329 . S
C295 H305 0.930 . S
C296 C295 1.391 . S
C296 N297 1.334 . S
C296 H303 0.930 . S
N297 Zn281 2.119 . S
N297 C293 1.328 . S
N297 C296 1.334 . S
N298 C294 1.331 . S
N298 C295 1.329 . S
H299 C293 0.930 . S
C300 O280 1.257 . S
C300 O301 1.244 . S
O301 C300 1.244 . S
O302 C278 1.257 . S
O302 Zn281 2.019 . S
H303 C296 0.930 . S
H304 C283 0.930 . S
H305 C295 0.930 . S
Zn306 N310 2.020 . S
Zn306 O314 2.019 . S
Zn306 N316 2.119 . S
Zn306 O324 1.975 . S
C307 N308 1.334 . S
C307 N311 1.336 . S
N308 C307 1.334 . S
N308 C309 1.334 . S
C309 N308 1.334 . S
C309 N310 1.336 . S
N310 Zn306 2.020 . S
N310 C309 1.336 . S
N310 N311 1.354 . S
N311 C307 1.336 . S
N311 N310 1.354 . S
N311 Zn315 2.020 . S
C312 O313 1.244 . S
C312 O336 1.257 . S
O313 C312 1.244 . S
O314 Zn306 2.019 . S
O314 C334 1.257 . S
Zn315 N311 2.020 . S
Zn315 O322 1.975 . S
Zn315 N331 2.119 . S
Zn315 O336 2.019 . S
N316 Zn306 2.119 . S
N316 C318 1.334 . S
N316 C319 1.328 . S
C317 C318 1.391 . S
C317 N320 1.329 . S
C317 H338 0.930 . S
C318 N316 1.334 . S
C318 C317 1.391 . S
C318 H325 0.930 . S
C319 N316 1.328 . S
C319 C321 1.392 . S
C319 H326 0.930 . S
N320 C317 1.329 . S
N320 C321 1.331 . S
C321 C319 1.392 . S
C321 N320 1.331 . S
O322 Zn315 1.975 . S
O322 C323 1.252 . S
C323 O322 1.252 . S
C323 O324 1.252 . S
O324 Zn306 1.975 . S
O324 C323 1.252 . S
H325 C318 0.930 . S
H326 C319 0.930 . S
C327 C328 1.392 1_556 S
C327 N331 1.328 . S
C327 H333 0.930 . S
C328 C327 1.392 1_554 S
C328 N332 1.331 . S
C329 C330 1.391 1_554 S
C329 N332 1.329 . S
C329 H339 0.930 . S
C330 C329 1.391 1_556 S
C330 N331 1.334 . S
C330 H337 0.930 . S
N331 Zn315 2.119 . S
N331 C327 1.328 . S
N331 C330 1.334 . S
N332 C328 1.331 . S
N332 C329 1.329 . S
H333 C327 0.930 . S
C334 O314 1.257 . S
C334 O335 1.244 . S
O335 C334 1.244 . S
O336 C312 1.257 . S
O336 Zn315 2.019 . S
H337 C330 0.930 . S
H338 C317 0.930 . S
H339 C329 0.930 . S
Zn340 N344 2.020 . S
Zn340 O348 2.019 . S
Zn340 N350 2.119 . S
Zn340 O358 1.975 . S
C341 N342 1.334 . S
C341 N345 1.336 . S
N342 C341 1.334 . S
N342 C343 1.334 . S
C343 N342 1.334 . S
C343 N344 1.336 . S
N344 Zn340 2.020 . S
N344 C343 1.336 . S
N344 N345 1.354 . S
N345 C341 1.336 . S
N345 N344 1.354 . S
N345 Zn349 2.020 . S
C346 O347 1.244 . S
C346 O370 1.257 . S
O347 C346 1.244 . S
O348 Zn340 2.019 . S
O348 C368 1.257 . S
Zn349 N345 2.020 . S
Zn349 O356 1.975 . S
Zn349 N365 2.119 . S
Zn349 O370 2.019 . S
N350 Zn340 2.119 . S
N350 C352 1.334 . S
N350 C353 1.328 . S
C351 C352 1.391 1_556 S
C351 N354 1.329 . S
C351 H372 0.930 . S
C352 N350 1.334 . S
C352 C351 1.391 1_554 S
C352 H359 0.930 . S
C353 N350 1.328 . S
C353 C355 1.392 1_554 S
C353 H360 0.930 . S
N354 C351 1.329 . S
N354 C355 1.331 . S
C355 C353 1.392 1_556 S
C355 N354 1.331 . S
O356 Zn349 1.975 . S
O356 C357 1.252 . S
C357 O356 1.252 . S
C357 O358 1.252 . S
O358 Zn340 1.975 . S
O358 C357 1.252 . S
H359 C352 0.930 . S
H360 C353 0.930 . S
C361 C362 1.392 . S
C361 N365 1.328 . S
C361 H367 0.930 . S
C362 C361 1.392 . S
C362 N366 1.331 . S
C363 C364 1.391 . S
C363 N366 1.329 . S
C363 H373 0.930 . S
C364 C363 1.391 . S
C364 N365 1.334 . S
C364 H371 0.930 . S
N365 Zn349 2.119 . S
N365 C361 1.328 . S
N365 C364 1.334 . S
N366 C362 1.331 . S
N366 C363 1.329 . S
H367 C361 0.930 . S
C368 O348 1.257 . S
C368 O369 1.244 . S
O369 C368 1.244 . S
O370 C346 1.257 . S
O370 Zn349 2.019 . S
H371 C364 0.930 . S
H372 C351 0.930 . S
H373 C363 0.930 . S
Zn374 N378 2.020 . S
Zn374 O382 2.019 . S
Zn374 N384 2.119 . S
Zn374 O392 1.975 . S
C375 N376 1.334 . S
C375 N379 1.336 . S
N376 C375 1.334 . S
N376 C377 1.334 . S
C377 N376 1.334 . S
C377 N378 1.336 . S
N378 Zn374 2.020 . S
N378 C377 1.336 . S
N378 N379 1.354 . S
N379 C375 1.336 . S
N379 N378 1.354 . S
N379 Zn383 2.020 . S
C380 O381 1.244 . S
C380 O404 1.257 . S
O381 C380 1.244 . S
O382 Zn374 2.019 . S
O382 C402 1.257 . S
Zn383 N379 2.020 . S
Zn383 O390 1.975 . S
Zn383 N399 2.119 . S
Zn383 O404 2.019 . S
N384 Zn374 2.119 . S
N384 C386 1.334 . S
N384 C387 1.328 . S
C385 C386 1.391 . S
C385 N388 1.329 . S
C385 H406 0.930 . S
C386 N384 1.334 . S
C386 C385 1.391 . S
C386 H393 0.930 . S
C387 N384 1.328 . S
C387 C389 1.392 . S
C387 H394 0.930 . S
N388 C385 1.329 . S
N388 C389 1.331 . S
C389 C387 1.392 . S
C389 N388 1.331 . S
O390 Zn383 1.975 . S
O390 C391 1.252 . S
C391 O390 1.252 . S
C391 O392 1.252 . S
O392 Zn374 1.975 . S
O392 C391 1.252 . S
H393 C386 0.930 . S
H394 C387 0.930 . S
C395 C396 1.392 . S
C395 N399 1.328 . S
C395 H401 0.930 . S
C396 C395 1.392 . S
C396 N400 1.331 . S
C397 C398 1.391 . S
C397 N400 1.329 . S
C397 H407 0.930 . S
C398 C397 1.391 . S
C398 N399 1.334 . S
C398 H405 0.930 . S
N399 Zn383 2.119 . S
N399 C395 1.328 . S
N399 C398 1.334 . S
N400 C396 1.331 . S
N400 C397 1.329 . S
H401 C395 0.930 . S
C402 O382 1.257 . S
C402 O403 1.244 . S
O403 C402 1.244 . S
O404 C380 1.257 . S
O404 Zn383 2.019 . S
H405 C398 0.930 . S
H406 C385 0.930 . S
H407 C397 0.930 . S
Zn408 N412 2.020 . S
Zn408 O416 2.021 . S
Zn408 N418 2.119 . S
Zn408 O426 1.975 . S
C409 N410 1.334 1_545 S
C409 N413 1.336 . S
N410 C409 1.334 1_565 S
N410 C411 1.334 1_565 S
C411 N410 1.334 1_545 S
C411 N412 1.336 . S
N412 Zn408 2.020 . S
N412 C411 1.336 . S
N412 N413 1.354 . S
N413 C409 1.336 . S
N413 N412 1.354 . S
N413 Zn417 2.020 . S
C414 O415 1.244 . S
C414 O438 1.257 . S
O415 C414 1.244 . S
O416 Zn408 2.021 . S
O416 C436 1.251 1_556 S
Zn417 N413 2.020 . S
Zn417 O424 1.975 . S
Zn417 N433 2.119 1_556 S
Zn417 O438 2.019 . S
N418 Zn408 2.119 . S
N418 C420 1.334 . S
N418 C421 1.328 . S
C419 C420 1.391 . S
C419 N422 1.329 . S
C419 H440 0.930 . S
C420 N418 1.334 . S
C420 C419 1.391 . S
C420 H427 0.930 . S
C421 N418 1.328 . S
C421 C423 1.392 . S
C421 H428 0.930 . S
N422 C419 1.329 . S
N422 C423 1.331 . S
C423 C421 1.392 . S
C423 N422 1.331 . S
O424 Zn417 1.975 . S
O424 C425 1.252 . S
C425 O424 1.252 . S
C425 O426 1.252 . S
O426 Zn408 1.975 . S
O426 C425 1.252 . S
H427 C420 0.930 . S
H428 C421 0.930 . S
C429 C430 1.392 . S
C429 N433 1.328 . S
C429 H435 0.930 . S
C430 C429 1.392 . S
C430 N434 1.331 . S
C431 C432 1.391 . S
C431 N434 1.329 . S
C431 H441 0.930 . S
C432 C431 1.391 . S
C432 N433 1.334 . S
C432 H439 0.930 . S
N433 Zn417 2.119 1_554 S
N433 C429 1.328 . S
N433 C432 1.334 . S
N434 C430 1.331 . S
N434 C431 1.329 . S
H435 C429 0.930 . S
C436 O416 1.251 1_554 S
C436 O437 1.244 . S
O437 C436 1.244 . S
O438 C414 1.257 . S
O438 Zn417 2.019 . S
H439 C432 0.930 . S
H440 C419 0.930 . S
H441 C431 0.930 . S
Zn442 N446 2.020 . S
Zn442 O450 2.019 . S
Zn442 N452 2.119 . S
Zn442 O460 1.975 . S
C443 N444 1.334 1_665 S
C443 N447 1.336 . S
N444 C443 1.334 1_445 S
N444 C445 1.334 1_545 S
C445 N444 1.334 1_565 S
C445 N446 1.336 . S
N446 Zn442 2.020 . S
N446 C445 1.336 . S
N446 N447 1.354 1_455 S
N447 C443 1.336 . S
N447 N446 1.354 1_655 S
N447 Zn451 2.020 . S
C448 O449 1.244 . S
C448 O472 1.257 . S
O449 C448 1.244 . S
O450 Zn442 2.019 . S
O450 C470 1.257 . S
Zn451 N447 2.020 . S
Zn451 O458 1.975 . S
Zn451 N467 2.119 . S
Zn451 O472 2.019 . S
N452 Zn442 2.119 . S
N452 C454 1.334 . S
N452 C455 1.328 . S
C453 C454 1.391 . S
C453 N456 1.329 . S
C453 H474 0.930 . S
C454 N452 1.334 . S
C454 C453 1.391 . S
C454 H461 0.930 . S
C455 N452 1.328 . S
C455 C457 1.392 . S
C455 H462 0.930 . S
N456 C453 1.329 . S
N456 C457 1.331 . S
C457 C455 1.392 . S
C457 N456 1.331 . S
O458 Zn451 1.975 . S
O458 C459 1.252 1_655 S
C459 O458 1.252 1_455 S
C459 O460 1.252 . S
O460 Zn442 1.975 . S
O460 C459 1.252 . S
H461 C454 0.930 . S
H462 C455 0.930 . S
C463 C464 1.392 . S
C463 N467 1.328 . S
C463 H469 0.930 . S
C464 C463 1.392 . S
C464 N468 1.331 . S
C465 C466 1.391 . S
C465 N468 1.329 . S
C465 H475 0.930 . S
C466 C465 1.391 . S
C466 N467 1.334 . S
C466 H473 0.930 . S
N467 Zn451 2.119 . S
N467 C463 1.328 . S
N467 C466 1.334 . S
N468 C464 1.331 . S
N468 C465 1.329 . S
H469 C463 0.930 . S
C470 O450 1.257 . S
C470 O471 1.244 . S
O471 C470 1.244 . S
O472 C448 1.257 . S
O472 Zn451 2.019 . S
H473 C466 0.930 . S
H474 C453 0.930 . S
H475 C465 0.930 . S
Zn476 N480 2.020 . S
Zn476 O484 2.019 . S
Zn476 N486 2.119 1_554 S
Zn476 O494 1.975 . S
C477 N478 1.334 1_565 S
C477 N481 1.336 . S
N478 C477 1.334 1_545 S
N478 C479 1.334 1_545 S
C479 N478 1.334 1_565 S
C479 N480 1.336 . S
N480 Zn476 2.020 . S
N480 C479 1.336 . S
N480 N481 1.354 . S
N481 C477 1.336 . S
N481 N480 1.354 . S
N481 Zn485 2.020 . S
C482 O483 1.244 . S
C482 O506 1.251 1_556 S
O483 C482 1.244 . S
O484 Zn476 2.019 . S
O484 C504 1.257 . S
Zn485 N481 2.020 . S
Zn485 O492 1.975 . S
Zn485 N501 2.119 . S
Zn485 O506 2.021 . S
N486 Zn476 2.119 1_556 S
N486 C488 1.334 . S
N486 C489 1.328 . S
C487 C488 1.391 . S
C487 N490 1.329 . S
C487 H508 0.930 . S
C488 N486 1.334 . S
C488 C487 1.391 . S
C488 H495 0.930 . S
C489 N486 1.328 . S
C489 C491 1.392 . S
C489 H496 0.930 . S
N490 C487 1.329 . S
N490 C491 1.331 . S
C491 C489 1.392 . S
C491 N490 1.331 . S
O492 Zn485 1.975 . S
O492 C493 1.252 . S
C493 O492 1.252 . S
C493 O494 1.252 . S
O494 Zn476 1.975 . S
O494 C493 1.252 . S
H495 C488 0.930 . S
H496 C489 0.930 . S
C497 C498 1.392 . S
C497 N501 1.328 . S
C497 H503 0.930 . S
C498 C497 1.392 . S
C498 N502 1.331 . S
C499 C500 1.391 . S
C499 N502 1.329 . S
C499 H509 0.930 . S
C500 C499 1.391 . S
C500 N501 1.334 . S
C500 H507 0.930 . S
N501 Zn485 2.119 . S
N501 C497 1.328 . S
N501 C500 1.334 . S
N502 C498 1.331 . S
N502 C499 1.329 . S
H503 C497 0.930 . S
C504 O484 1.257 . S
C504 O505 1.244 . S
O505 C504 1.244 . S
O506 C482 1.251 1_554 S
O506 Zn485 2.021 . S
H507 C500 0.930 . S
H508 C487 0.930 . S
H509 C499 0.930 . S
Zn510 N514 2.020 . S
Zn510 O518 2.019 . S
Zn510 N520 2.119 . S
Zn510 O528 1.975 . S
C511 N512 1.334 1_545 S
C511 N515 1.336 . S
N512 C511 1.334 1_565 S
N512 C513 1.334 1_465 S
C513 N512 1.334 1_645 S
C513 N514 1.336 . S
N514 Zn510 2.020 . S
N514 C513 1.336 . S
N514 N515 1.354 1_655 S
N515 C511 1.336 . S
N515 N514 1.354 1_455 S
N515 Zn519 2.020 . S
C516 O517 1.244 . S
C516 O540 1.257 . S
O517 C516 1.244 . S
O518 Zn510 2.019 . S
O518 C538 1.257 . S
Zn519 N515 2.020 . S
Zn519 O526 1.975 . S
Zn519 N535 2.119 . S
Zn519 O540 2.019 . S
N520 Zn510 2.119 . S
N520 C522 1.334 . S
N520 C523 1.328 . S
C521 C522 1.391 . S
C521 N524 1.329 . S
C521 H542 0.930 . S
C522 N520 1.334 . S
C522 C521 1.391 . S
C522 H529 0.930 . S
C523 N520 1.328 . S
C523 C525 1.392 . S
C523 H530 0.930 . S
N524 C521 1.329 . S
N524 C525 1.331 . S
C525 C523 1.392 . S
C525 N524 1.331 . S
O526 Zn519 1.975 . S
O526 C527 1.252 . S
C527 O526 1.252 . S
C527 O528 1.252 1_455 S
O528 Zn510 1.975 . S
O528 C527 1.252 1_655 S
H529 C522 0.930 . S
H530 C523 0.930 . S
C531 C532 1.392 . S
C531 N535 1.328 . S
C531 H537 0.930 . S
C532 C531 1.392 . S
C532 N536 1.331 . S
C533 C534 1.391 . S
C533 N536 1.329 . S
C533 H543 0.930 . S
C534 C533 1.391 . S
C534 N535 1.334 . S
C534 H541 0.930 . S
N535 Zn519 2.119 . S
N535 C531 1.328 . S
N535 C534 1.334 . S
N536 C532 1.331 . S
N536 C533 1.329 . S
H537 C531 0.930 . S
C538 O518 1.257 . S
C538 O539 1.244 . S
O539 C538 1.244 . S
O540 C516 1.257 . S
O540 Zn519 2.019 . S
H541 C534 0.930 . S
H542 C521 0.930 . S
H543 C533 0.930 . S
C544 C545 1.387 . S
C544 H548 0.950 . S
C544 C553 1.390 . S
C545 C544 1.387 . S
C545 C547 1.387 . S
H546 C553 0.950 . S
C547 C545 1.387 . S
C547 C549 1.390 . S
C547 H551 0.950 . S
H548 C544 0.950 . S
C549 C547 1.390 . S
C549 C550 1.387 . S
C549 H552 0.950 . S
C550 C549 1.387 . S
C550 C553 1.387 . S
H551 C547 0.950 . S
H552 C549 0.950 . S
C553 C544 1.390 . S
C553 H546 0.950 . S
C553 C550 1.387 . S
C554 C555 1.387 . S
C554 H558 0.950 . S
C554 C563 1.390 . S
C555 C554 1.387 . S
C555 C557 1.387 . S
H556 C563 0.950 . S
C557 C555 1.387 . S
C557 C559 1.390 . S
C557 H561 0.950 . S
H558 C554 0.950 . S
C559 C557 1.390 . S
C559 C560 1.387 . S
C559 H562 0.950 . S
C560 C559 1.387 . S
C560 C563 1.387 . S
H561 C557 0.950 . S
H562 C559 0.950 . S
C563 C554 1.390 . S
C563 H556 0.950 . S
C563 C560 1.387 . S
C564 C565 1.387 . S
C564 H568 0.950 . S
C564 C573 1.390 . S
C565 C564 1.387 . S
C565 C567 1.387 . S
H566 C573 0.950 . S
C567 C565 1.387 . S
C567 C569 1.390 . S
C567 H571 0.950 . S
H568 C564 0.950 . S
C569 C567 1.390 . S
C569 C570 1.387 . S
C569 H572 0.950 . S
C570 C569 1.387 . S
C570 C573 1.387 . S
H571 C567 0.950 . S
H572 C569 0.950 . S
C573 C564 1.390 . S
C573 H566 0.950 . S
C573 C570 1.387 . S
C574 C575 1.387 . S
C574 H578 0.950 . S
C574 C583 1.390 . S
C575 C574 1.387 . S
C575 C577 1.387 . S
H576 C583 0.950 . S
C577 C575 1.387 . S
C577 C579 1.390 . S
C577 H581 0.950 . S
H578 C574 0.950 . S
C579 C577 1.390 . S
C579 C580 1.387 . S
C579 H582 0.950 . S
C580 C579 1.387 . S
C580 C583 1.387 . S
H581 C577 0.950 . S
H582 C579 0.950 . S
C583 C574 1.390 . S
C583 H576 0.950 . S
C583 C580 1.387 . S
C584 C585 1.387 . S
C584 H588 0.950 . S
C584 C593 1.390 . S
C585 C584 1.387 . S
C585 C587 1.387 . S
H586 C593 0.950 . S
C587 C585 1.387 . S
C587 C589 1.390 . S
C587 H591 0.950 . S
H588 C584 0.950 . S
C589 C587 1.390 . S
C589 C590 1.387 . S
C589 H592 0.950 . S
C590 C589 1.387 . S
C590 C593 1.387 . S
H591 C587 0.950 . S
H592 C589 0.950 . S
C593 C584 1.390 . S
C593 H586 0.950 . S
C593 C590 1.387 . S
C594 C595 1.387 . S
C594 H598 0.950 . S
C594 C603 1.390 . S
C595 C594 1.387 . S
C595 C597 1.387 . S
H596 C603 0.950 . S
C597 C595 1.387 . S
C597 C599 1.390 . S
C597 H601 0.950 . S
H598 C594 0.950 . S
C599 C597 1.390 . S
C599 C600 1.387 . S
C599 H602 0.950 . S
C600 C599 1.387 . S
C600 C603 1.387 . S
H601 C597 0.950 . S
H602 C599 0.950 . S
C603 C594 1.390 . S
C603 H596 0.950 . S
C603 C600 1.387 . S
C604 C605 1.387 . S
C604 H608 0.950 . S
C604 C613 1.390 . S
C605 C604 1.387 . S
C605 C607 1.387 . S
H606 C613 0.950 . S
C607 C605 1.387 . S
C607 C609 1.390 . S
C607 H611 0.950 . S
H608 C604 0.950 . S
C609 C607 1.390 . S
C609 C610 1.387 . S
C609 H612 0.950 . S
C610 C609 1.387 . S
C610 C613 1.387 . S
H611 C607 0.950 . S
H612 C609 0.950 . S
C613 C604 1.390 . S
C613 H606 0.950 . S
C613 C610 1.387 . S
C614 C615 1.387 . S
C614 H618 0.950 . S
C614 C623 1.390 . S
C615 C614 1.387 . S
C615 C617 1.387 . S
H616 C623 0.950 . S
C617 C615 1.387 . S
C617 C619 1.390 . S
C617 H621 0.950 . S
H618 C614 0.950 . S
C619 C617 1.390 . S
C619 C620 1.387 . S
C619 H622 0.950 . S
C620 C619 1.387 . S
C620 C623 1.387 . S
H621 C617 0.950 . S
H622 C619 0.950 . S
C623 C614 1.390 . S
C623 H616 0.950 . S
C623 C620 1.387 . S
C624 C625 1.387 . S
C624 H628 0.950 . S
C624 C633 1.390 . S
C625 C624 1.387 . S
C625 C627 1.387 . S
H626 C633 0.950 . S
C627 C625 1.387 . S
C627 C629 1.390 . S
C627 H631 0.950 . S
H628 C624 0.950 . S
C629 C627 1.390 . S
C629 C630 1.387 . S
C629 H632 0.950 . S
C630 C629 1.387 . S
C630 C633 1.387 . S
H631 C627 0.950 . S
H632 C629 0.950 . S
C633 C624 1.390 . S
C633 H626 0.950 . S
C633 C630 1.387 . S
C634 C635 1.387 . S
C634 H638 0.950 . S
C634 C643 1.390 . S
C635 C634 1.387 . S
C635 C637 1.387 . S
H636 C643 0.950 . S
C637 C635 1.387 . S
C637 C639 1.390 . S
C637 H641 0.950 . S
H638 C634 0.950 . S
C639 C637 1.390 . S
C639 C640 1.387 . S
C639 H642 0.950 . S
C640 C639 1.387 . S
C640 C643 1.387 . S
H641 C637 0.950 . S
H642 C639 0.950 . S
C643 C634 1.390 . S
C643 H636 0.950 . S
C643 C640 1.387 . S
C644 C645 1.387 . S
C644 H648 0.950 . S
C644 C653 1.390 . S
C645 C644 1.387 . S
C645 C647 1.387 . S
H646 C653 0.950 . S
C647 C645 1.387 . S
C647 C649 1.390 . S
C647 H651 0.950 . S
H648 C644 0.950 . S
C649 C647 1.390 . S
C649 C650 1.387 . S
C649 H652 0.950 . S
C650 C649 1.387 . S
C650 C653 1.387 . S
H651 C647 0.950 . S
H652 C649 0.950 . S
C653 C644 1.390 . S
C653 H646 0.950 . S
C653 C650 1.387 . S
C654 C655 1.387 . S
C654 H658 0.950 . S
C654 C663 1.390 . S
C655 C654 1.387 . S
C655 C657 1.387 . S
H656 C663 0.950 . S
C657 C655 1.387 . S
C657 C659 1.390 . S
C657 H661 0.950 . S
H658 C654 0.950 . S
C659 C657 1.390 . S
C659 C660 1.387 . S
C659 H662 0.950 . S
C660 C659 1.387 . S
C660 C663 1.387 . S
H661 C657 0.950 . S
H662 C659 0.950 . S
C663 C654 1.390 . S
C663 H656 0.950 . S
C663 C660 1.387 . S
C664 C665 1.387 . S
C664 H668 0.950 . S
C664 C673 1.390 . S
C665 C664 1.387 . S
C665 C667 1.387 . S
H666 C673 0.950 . S
C667 C665 1.387 . S
C667 C669 1.390 . S
C667 H671 0.950 . S
H668 C664 0.950 . S
C669 C667 1.390 . S
C669 C670 1.387 . S
C669 H672 0.950 . S
C670 C669 1.387 . S
C670 C673 1.387 . S
H671 C667 0.950 . S
H672 C669 0.950 . S
C673 C664 1.390 . S
C673 H666 0.950 . S
C673 C670 1.387 . S
C674 C675 1.387 . S
C674 H678 0.950 . S
C674 C683 1.390 . S
C675 C674 1.387 . S
C675 C677 1.387 . S
H676 C683 0.950 . S
C677 C675 1.387 . S
C677 C679 1.390 . S
C677 H681 0.950 . S
H678 C674 0.950 . S
C679 C677 1.390 . S
C679 C680 1.387 . S
C679 H682 0.950 . S
C680 C679 1.387 . S
C680 C683 1.387 . S
H681 C677 0.950 . S
H682 C679 0.950 . S
C683 C674 1.390 . S
C683 H676 0.950 . S
C683 C680 1.387 . S
C684 C685 1.387 . S
C684 H688 0.950 . S
C684 C693 1.390 . S
C685 C684 1.387 . S
C685 C687 1.387 . S
H686 C693 0.950 . S
C687 C685 1.387 . S
C687 C689 1.390 . S
C687 H691 0.950 . S
H688 C684 0.950 . S
C689 C687 1.390 . S
C689 C690 1.387 . S
C689 H692 0.950 . S
C690 C689 1.387 . S
C690 C693 1.387 . S
H691 C687 0.950 . S
H692 C689 0.950 . S
C693 C684 1.390 . S
C693 H686 0.950 . S
C693 C690 1.387 . S
C694 C695 1.387 . S
C694 H698 0.950 . S
C694 C703 1.390 . S
C695 C694 1.387 . S
C695 C697 1.387 . S
H696 C703 0.950 . S
C697 C695 1.387 . S
C697 C699 1.390 . S
C697 H701 0.950 . S
H698 C694 0.950 . S
C699 C697 1.390 . S
C699 C700 1.387 . S
C699 H702 0.950 . S
C700 C699 1.387 . S
C700 C703 1.387 . S
H701 C697 0.950 . S
H702 C699 0.950 . S
C703 C694 1.390 . S
C703 H696 0.950 . S
C703 C700 1.387 . S
C704 C705 1.387 . S
C704 H708 0.950 . S
C704 C713 1.390 . S
C705 C704 1.387 . S
C705 C707 1.387 . S
H706 C713 0.950 . S
C707 C705 1.387 . S
C707 C709 1.390 . S
C707 H711 0.950 . S
H708 C704 0.950 . S
C709 C707 1.390 . S
C709 C710 1.387 . S
C709 H712 0.950 . S
C710 C709 1.387 . S
C710 C713 1.387 . S
H711 C707 0.950 . S
H712 C709 0.950 . S
C713 C704 1.390 . S
C713 H706 0.950 . S
C713 C710 1.387 . S
C714 C715 1.387 . S
C714 H718 0.950 . S
C714 C723 1.390 . S
C715 C714 1.387 . S
C715 C717 1.387 . S
H716 C723 0.950 . S
C717 C715 1.387 . S
C717 C719 1.390 . S
C717 H721 0.950 . S
H718 C714 0.950 . S
C719 C717 1.390 . S
C719 C720 1.387 . S
C719 H722 0.950 . S
C720 C719 1.387 . S
C720 C723 1.387 . S
H721 C717 0.950 . S
H722 C719 0.950 . S
C723 C714 1.390 . S
C723 H716 0.950 . S
C723 C720 1.387 . S
C724 C725 1.387 . S
C724 H728 0.950 . S
C724 C733 1.390 . S
C725 C724 1.387 . S
C725 C727 1.387 . S
H726 C733 0.950 . S
C727 C725 1.387 . S
C727 C729 1.390 . S
C727 H731 0.950 1_556 S
H728 C724 0.950 . S
C729 C727 1.390 . S
C729 C730 1.387 . S
C729 H732 0.950 1_556 S
C730 C729 1.387 . S
C730 C733 1.387 . S
H731 C727 0.950 1_554 S
H732 C729 0.950 1_554 S
C733 C724 1.390 . S
C733 H726 0.950 . S
C733 C730 1.387 . S
C734 C735 1.387 . S
C734 H738 0.950 . S
C734 C743 1.390 . S
C735 C734 1.387 . S
C735 C737 1.387 . S
H736 C743 0.950 . S
C737 C735 1.387 . S
C737 C739 1.390 . S
C737 H741 0.950 . S
H738 C734 0.950 . S
C739 C737 1.390 . S
C739 C740 1.387 . S
C739 H742 0.950 . S
C740 C739 1.387 . S
C740 C743 1.387 . S
H741 C737 0.950 . S
H742 C739 0.950 . S
C743 C734 1.390 . S
C743 H736 0.950 . S
C743 C740 1.387 . S
C744 C745 1.387 . S
C744 H748 0.950 . S
C744 C753 1.390 . S
C745 C744 1.387 . S
C745 C747 1.387 . S
H746 C753 0.950 . S
C747 C745 1.387 . S
C747 C749 1.390 . S
C747 H751 0.950 . S
H748 C744 0.950 . S
C749 C747 1.390 . S
C749 C750 1.387 . S
C749 H752 0.950 . S
C750 C749 1.387 . S
C750 C753 1.387 . S
H751 C747 0.950 . S
H752 C749 0.950 . S
C753 C744 1.390 . S
C753 H746 0.950 . S
C753 C750 1.387 . S
C754 C755 1.387 . S
C754 H758 0.950 . S
C754 C763 1.390 . S
C755 C754 1.387 . S
C755 C757 1.387 . S
H756 C763 0.950 . S
C757 C755 1.387 . S
C757 C759 1.390 . S
C757 H761 0.950 . S
H758 C754 0.950 . S
C759 C757 1.390 . S
C759 C760 1.387 . S
C759 H762 0.950 . S
C760 C759 1.387 . S
C760 C763 1.387 . S
H761 C757 0.950 . S
H762 C759 0.950 . S
C763 C754 1.390 . S
C763 H756 0.950 . S
C763 C760 1.387 . S
C764 C765 1.387 . S
C764 H768 0.950 . S
C764 C773 1.390 . S
C765 C764 1.387 . S
C765 C767 1.387 . S
H766 C773 0.950 . S
C767 C765 1.387 . S
C767 C769 1.390 . S
C767 H771 0.950 1_554 S
H768 C764 0.950 . S
C769 C767 1.390 . S
C769 C770 1.387 . S
C769 H772 0.950 1_554 S
C770 C769 1.387 . S
C770 C773 1.387 . S
H771 C767 0.950 1_556 S
H772 C769 0.950 1_556 S
C773 C764 1.390 . S
C773 H766 0.950 . S
C773 C770 1.387 . S
C774 C775 1.387 . S
C774 H778 0.950 . S
C774 C783 1.390 . S
C775 C774 1.387 . S
C775 C777 1.387 . S
H776 C783 0.950 . S
C777 C775 1.387 . S
C777 C779 1.390 . S
C777 H781 0.950 . S
H778 C774 0.950 . S
C779 C777 1.390 . S
C779 C780 1.387 . S
C779 H782 0.950 . S
C780 C779 1.387 . S
C780 C783 1.387 . S
H781 C777 0.950 . S
H782 C779 0.950 . S
C783 C774 1.390 . S
C783 H776 0.950 . S
C783 C780 1.387 . S
C784 C785 1.387 . S
C784 H788 0.950 . S
C784 C793 1.390 . S
C785 C784 1.387 . S
C785 C787 1.387 . S
H786 C793 0.950 . S
C787 C785 1.387 . S
C787 C789 1.390 . S
C787 H791 0.950 . S
H788 C784 0.950 . S
C789 C787 1.390 . S
C789 C790 1.387 . S
C789 H792 0.950 . S
C790 C789 1.387 . S
C790 C793 1.387 . S
H791 C787 0.950 . S
H792 C789 0.950 . S
C793 C784 1.390 . S
C793 H786 0.950 . S
C793 C790 1.387 . S
C794 C795 1.387 . S
C794 H798 0.950 . S
C794 C803 1.390 . S
C795 C794 1.387 . S
C795 C797 1.387 . S
H796 C803 0.950 . S
C797 C795 1.387 . S
C797 C799 1.390 . S
C797 H801 0.950 . S
H798 C794 0.950 . S
C799 C797 1.390 . S
C799 C800 1.387 . S
C799 H802 0.950 . S
C800 C799 1.387 . S
C800 C803 1.387 . S
H801 C797 0.950 . S
H802 C799 0.950 . S
C803 C794 1.390 . S
C803 H796 0.950 . S
C803 C800 1.387 . S
C804 C805 1.387 . S
C804 H808 0.950 . S
C804 C813 1.390 . S
C805 C804 1.387 . S
C805 C807 1.387 . S
H806 C813 0.950 . S
C807 C805 1.387 . S
C807 C809 1.390 . S
C807 H811 0.950 1_554 S
H808 C804 0.950 . S
C809 C807 1.390 . S
C809 C810 1.387 . S
C809 H812 0.950 . S
C810 C809 1.387 . S
C810 C813 1.387 . S
H811 C807 0.950 1_556 S
H812 C809 0.950 . S
C813 C804 1.390 . S
C813 H806 0.950 . S
C813 C810 1.387 . S
C814 C815 1.387 . S
C814 H818 0.950 . S
C814 C823 1.390 . S
C815 C814 1.387 . S
C815 C817 1.387 . S
H816 C823 0.950 . S
C817 C815 1.387 . S
C817 C819 1.390 . S
C817 H821 0.950 . S
H818 C814 0.950 . S
C819 C817 1.390 . S
C819 C820 1.387 . S
C819 H822 0.950 . S
C820 C819 1.387 . S
C820 C823 1.387 . S
H821 C817 0.950 . S
H822 C819 0.950 . S
C823 C814 1.390 . S
C823 H816 0.950 . S
C823 C820 1.387 . S
C824 C825 1.387 . S
C824 H828 0.950 . S
C824 C833 1.390 . S
C825 C824 1.387 . S
C825 C827 1.387 . S
H826 C833 0.950 . S
C827 C825 1.387 . S
C827 C829 1.390 . S
C827 H831 0.950 . S
H828 C824 0.950 . S
C829 C827 1.390 . S
C829 C830 1.387 . S
C829 H832 0.950 . S
C830 C829 1.387 . S
C830 C833 1.387 . S
H831 C827 0.950 . S
H832 C829 0.950 . S
C833 C824 1.390 . S
C833 H826 0.950 . S
C833 C830 1.387 . S
C834 C835 1.387 . S
C834 H838 0.950 . S
C834 C843 1.390 . S
C835 C834 1.387 . S
C835 C837 1.387 . S
H836 C843 0.950 . S
C837 C835 1.387 . S
C837 C839 1.390 . S
C837 H841 0.950 . S
H838 C834 0.950 . S
C839 C837 1.390 . S
C839 C840 1.387 . S
C839 H842 0.950 . S
C840 C839 1.387 . S
C840 C843 1.387 . S
H841 C837 0.950 . S
H842 C839 0.950 . S
C843 C834 1.390 . S
C843 H836 0.950 . S
C843 C840 1.387 . S
C844 C845 1.387 . S
C844 H848 0.950 . S
C844 C853 1.390 . S
C845 C844 1.387 . S
C845 C847 1.387 . S
H846 C853 0.950 . S
C847 C845 1.387 . S
C847 C849 1.390 . S
C847 H851 0.950 . S
H848 C844 0.950 . S
C849 C847 1.390 . S
C849 C850 1.387 . S
C849 H852 0.950 1_556 S
C850 C849 1.387 . S
C850 C853 1.387 . S
H851 C847 0.950 . S
H852 C849 0.950 1_554 S
C853 C844 1.390 . S
C853 H846 0.950 . S
C853 C850 1.387 . S
C854 C855 1.387 . S
C854 H858 0.950 . S
C854 C863 1.390 . S
C855 C854 1.387 . S
C855 C857 1.387 . S
H856 C863 0.950 . S
C857 C855 1.387 . S
C857 C859 1.390 . S
C857 H861 0.950 . S
H858 C854 0.950 . S
C859 C857 1.390 . S
C859 C860 1.387 . S
C859 H862 0.950 . S
C860 C859 1.387 . S
C860 C863 1.387 . S
H861 C857 0.950 . S
H862 C859 0.950 . S
C863 C854 1.390 . S
C863 H856 0.950 . S
C863 C860 1.387 . S
C864 C865 1.387 . S
C864 H868 0.950 . S
C864 C873 1.390 . S
C865 C864 1.387 . S
C865 C867 1.387 . S
H866 C873 0.950 . S
C867 C865 1.387 . S
C867 C869 1.390 . S
C867 H871 0.950 1_556 S
H868 C864 0.950 . S
C869 C867 1.390 . S
C869 C870 1.387 . S
C869 H872 0.950 1_556 S
C870 C869 1.387 . S
C870 C873 1.387 . S
H871 C867 0.950 1_554 S
H872 C869 0.950 1_554 S
C873 C864 1.390 . S
C873 H866 0.950 . S
C873 C870 1.387 . S
C874 C875 1.387 . S
C874 H878 0.950 . S
C874 C883 1.390 . S
C875 C874 1.387 . S
C875 C877 1.387 . S
H876 C883 0.950 . S
C877 C875 1.387 . S
C877 C879 1.390 . S
C877 H881 0.950 . S
H878 C874 0.950 . S
C879 C877 1.390 . S
C879 C880 1.387 . S
C879 H882 0.950 . S
C880 C879 1.387 . S
C880 C883 1.387 . S
H881 C877 0.950 . S
H882 C879 0.950 . S
C883 C874 1.390 . S
C883 H876 0.950 . S
C883 C880 1.387 . S
C884 C885 1.387 . S
C884 H888 0.950 . S
C884 C893 1.390 . S
C885 C884 1.387 . S
C885 C887 1.387 . S
H886 C893 0.950 . S
C887 C885 1.387 . S
C887 C889 1.390 . S
C887 H891 0.950 . S
H888 C884 0.950 . S
C889 C887 1.390 . S
C889 C890 1.387 . S
C889 H892 0.950 . S
C890 C889 1.387 . S
C890 C893 1.387 . S
H891 C887 0.950 . S
H892 C889 0.950 . S
C893 C884 1.390 . S
C893 H886 0.950 . S
C893 C890 1.387 . S
C894 C895 1.387 . S
C894 H898 0.950 . S
C894 C903 1.390 . S
C895 C894 1.387 . S
C895 C897 1.387 . S
H896 C903 0.950 . S
C897 C895 1.387 . S
C897 C899 1.390 . S
C897 H901 0.950 . S
H898 C894 0.950 . S
C899 C897 1.390 . S
C899 C900 1.387 . S
C899 H902 0.950 . S
C900 C899 1.387 . S
C900 C903 1.387 . S
H901 C897 0.950 . S
H902 C899 0.950 . S
C903 C894 1.390 . S
C903 H896 0.950 . S
C903 C900 1.387 . S
C904 C905 1.387 . S
C904 H908 0.950 . S
C904 C913 1.390 . S
C905 C904 1.387 . S
C905 C907 1.387 . S
H906 C913 0.950 . S
C907 C905 1.387 . S
C907 C909 1.390 . S
C907 H911 0.950 1_554 S
H908 C904 0.950 . S
C909 C907 1.390 . S
C909 C910 1.387 . S
C909 H912 0.950 1_554 S
C910 C909 1.387 . S
C910 C913 1.387 . S
H911 C907 0.950 1_556 S
H912 C909 0.950 1_556 S
C913 C904 1.390 . S
C913 H906 0.950 . S
C913 C910 1.387 . S
C914 C915 1.387 . S
C914 H918 0.950 . S
C914 C923 1.390 . S
C915 C914 1.387 . S
C915 C917 1.387 . S
H916 C923 0.950 . S
C917 C915 1.387 . S
C917 C919 1.390 . S
C917 H921 0.950 . S
H918 C914 0.950 . S
C919 C917 1.390 . S
C919 C920 1.387 . S
C919 H922 0.950 . S
C920 C919 1.387 . S
C920 C923 1.387 . S
H921 C917 0.950 . S
H922 C919 0.950 . S
C923 C914 1.390 . S
C923 H916 0.950 . S
C923 C920 1.387 . S
C924 C925 1.387 . S
C924 H928 0.950 . S
C924 C933 1.390 . S
C925 C924 1.387 . S
C925 C927 1.387 . S
H926 C933 0.950 . S
C927 C925 1.387 . S
C927 C929 1.390 . S
C927 H931 0.950 . S
H928 C924 0.950 . S
C929 C927 1.390 . S
C929 C930 1.387 . S
C929 H932 0.950 . S
C930 C929 1.387 . S
C930 C933 1.387 . S
H931 C927 0.950 . S
H932 C929 0.950 . S
C933 C924 1.390 . S
C933 H926 0.950 . S
C933 C930 1.387 . S
C934 C935 1.387 . S
C934 H938 0.950 . S
C934 C943 1.390 . S
C935 C934 1.387 . S
C935 C937 1.387 . S
H936 C943 0.950 . S
C937 C935 1.387 . S
C937 C939 1.390 . S
C937 H941 0.950 . S
H938 C934 0.950 . S
C939 C937 1.390 . S
C939 C940 1.387 . S
C939 H942 0.950 . S
C940 C939 1.387 . S
C940 C943 1.387 . S
H941 C937 0.950 . S
H942 C939 0.950 . S
C943 C934 1.390 . S
C943 H936 0.950 . S
C943 C940 1.387 . S
C944 C945 1.387 . S
C944 H948 0.950 . S
C944 C953 1.390 . S
C945 C944 1.387 . S
C945 C947 1.387 . S
H946 C953 0.950 1_565 S
C947 C945 1.387 . S
C947 C949 1.390 . S
C947 H951 0.950 . S
H948 C944 0.950 . S
C949 C947 1.390 . S
C949 C950 1.387 . S
C949 H952 0.950 . S
C950 C949 1.387 . S
C950 C953 1.387 . S
H951 C947 0.950 . S
H952 C949 0.950 . S
C953 C944 1.390 . S
C953 H946 0.950 1_545 S
C953 C950 1.387 . S
C954 C955 1.387 . S
C954 H958 0.950 . S
C954 C963 1.390 . S
C955 C954 1.387 . S
C955 C957 1.387 . S
H956 C963 0.950 . S
C957 C955 1.387 . S
C957 C959 1.390 . S
C957 H961 0.950 . S
H958 C954 0.950 . S
C959 C957 1.390 . S
C959 C960 1.387 . S
C959 H962 0.950 . S
C960 C959 1.387 . S
C960 C963 1.387 . S
H961 C957 0.950 . S
H962 C959 0.950 . S
C963 C954 1.390 . S
C963 H956 0.950 . S
C963 C960 1.387 . S
C964 C965 1.387 . S
C964 H968 0.950 . S
C964 C973 1.390 . S
C965 C964 1.387 . S
C965 C967 1.387 . S
H966 C973 0.950 . S
C967 C965 1.387 . S
C967 C969 1.390 . S
C967 H971 0.950 . S
H968 C964 0.950 . S
C969 C967 1.390 . S
C969 C970 1.387 . S
C969 H972 0.950 . S
C970 C969 1.387 . S
C970 C973 1.387 . S
H971 C967 0.950 . S
H972 C969 0.950 . S
C973 C964 1.390 . S
C973 H966 0.950 . S
C973 C970 1.387 . S
C974 C975 1.387 . S
C974 H978 0.950 . S
C974 C983 1.390 . S
C975 C974 1.387 . S
C975 C977 1.387 . S
H976 C983 0.950 . S
C977 C975 1.387 . S
C977 C979 1.390 . S
C977 H981 0.950 . S
H978 C974 0.950 . S
C979 C977 1.390 . S
C979 C980 1.387 . S
C979 H982 0.950 . S
C980 C979 1.387 . S
C980 C983 1.387 . S
H981 C977 0.950 . S
H982 C979 0.950 . S
C983 C974 1.390 . S
C983 H976 0.950 . S
C983 C980 1.387 . S
C984 C985 1.387 . S
C984 H988 0.950 . S
C984 C993 1.390 . S
C985 C984 1.387 . S
C985 C987 1.387 . S
H986 C993 0.950 . S
C987 C985 1.387 . S
C987 C989 1.390 . S
C987 H991 0.950 1_556 S
H988 C984 0.950 . S
C989 C987 1.390 . S
C989 C990 1.387 . S
C989 H992 0.950 . S
C990 C989 1.387 . S
C990 C993 1.387 . S
H991 C987 0.950 1_554 S
H992 C989 0.950 . S
C993 C984 1.390 . S
C993 H986 0.950 . S
C993 C990 1.387 . S
C994 C995 1.387 . S
C994 H998 0.950 . S
C994 C1003 1.390 . S
C995 C994 1.387 . S
C995 C997 1.387 . S
H996 C1003 0.950 . S
C997 C995 1.387 . S
C997 C999 1.390 . S
C997 H1001 0.950 . S
H998 C994 0.950 . S
C999 C997 1.390 . S
C999 C1000 1.387 . S
C999 H1002 0.950 . S
C1000 C999 1.387 . S
C1000 C1003 1.387 . S
H1001 C997 0.950 . S
H1002 C999 0.950 . S
C1003 C994 1.390 . S
C1003 H996 0.950 . S
C1003 C1000 1.387 . S
C1004 C1005 1.387 . S
C1004 H1008 0.950 . S
C1004 C1013 1.390 . S
C1005 C1004 1.387 . S
C1005 C1007 1.387 . S
H1006 C1013 0.950 . S
C1007 C1005 1.387 . S
C1007 C1009 1.390 . S
C1007 H1011 0.950 . S
H1008 C1004 0.950 . S
C1009 C1007 1.390 . S
C1009 C1010 1.387 . S
C1009 H1012 0.950 . S
C1010 C1009 1.387 . S
C1010 C1013 1.387 . S
H1011 C1007 0.950 . S
H1012 C1009 0.950 . S
C1013 C1004 1.390 . S
C1013 H1006 0.950 . S
C1013 C1010 1.387 . S
C1014 C1015 1.387 . S
C1014 H1018 0.950 . S
C1014 C1023 1.390 . S
C1015 C1014 1.387 . S
C1015 C1017 1.387 . S
H1016 C1023 0.950 . S
C1017 C1015 1.387 . S
C1017 C1019 1.390 . S
C1017 H1021 0.950 . S
H1018 C1014 0.950 . S
C1019 C1017 1.390 . S
C1019 C1020 1.387 . S
C1019 H1022 0.950 . S
C1020 C1019 1.387 . S
C1020 C1023 1.387 . S
H1021 C1017 0.950 . S
H1022 C1019 0.950 . S
C1023 C1014 1.390 . S
C1023 H1016 0.950 . S
C1023 C1020 1.387 . S
C1024 C1025 1.387 . S
C1024 H1028 0.950 . S
C1024 C1033 1.390 . S
C1025 C1024 1.387 . S
C1025 C1027 1.387 . S
H1026 C1033 0.950 . S
C1027 C1025 1.387 . S
C1027 C1029 1.390 . S
C1027 H1031 0.950 . S
H1028 C1024 0.950 . S
C1029 C1027 1.390 . S
C1029 C1030 1.387 . S
C1029 H1032 0.950 . S
C1030 C1029 1.387 . S
C1030 C1033 1.387 . S
H1031 C1027 0.950 . S
H1032 C1029 0.950 . S
C1033 C1024 1.390 . S
C1033 H1026 0.950 . S
C1033 C1030 1.387 . S
C1034 C1035 1.387 . S
C1034 H1038 0.950 . S
C1034 C1043 1.390 . S
C1035 C1034 1.387 . S
C1035 C1037 1.387 . S
H1036 C1043 0.950 . S
C1037 C1035 1.387 . S
C1037 C1039 1.390 . S
C1037 H1041 0.950 . S
H1038 C1034 0.950 . S
C1039 C1037 1.390 . S
C1039 C1040 1.387 . S
C1039 H1042 0.950 . S
C1040 C1039 1.387 . S
C1040 C1043 1.387 . S
H1041 C1037 0.950 . S
H1042 C1039 0.950 . S
C1043 C1034 1.390 . S
C1043 H1036 0.950 . S
C1043 C1040 1.387 . S
C1044 C1045 1.387 1_554 S
C1044 H1048 0.950 . S
C1044 C1053 1.390 . S
C1045 C1044 1.387 1_556 S
C1045 C1047 1.387 . S
H1046 C1053 0.950 . S
C1047 C1045 1.387 . S
C1047 C1049 1.390 . S
C1047 H1051 0.950 . S
H1048 C1044 0.950 . S
C1049 C1047 1.390 . S
C1049 C1050 1.387 . S
C1049 H1052 0.950 . S
C1050 C1049 1.387 . S
C1050 C1053 1.387 1_556 S
H1051 C1047 0.950 . S
H1052 C1049 0.950 . S
C1053 C1044 1.390 . S
C1053 H1046 0.950 . S
C1053 C1050 1.387 1_554 S
C1054 C1055 1.387 . S
C1054 H1058 0.950 . S
C1054 C1063 1.390 1_455 S
C1055 C1054 1.387 . S
C1055 C1057 1.387 . S
H1056 C1063 0.950 . S
C1057 C1055 1.387 . S
C1057 C1059 1.390 1_455 S
C1057 H1061 0.950 . S
H1058 C1054 0.950 . S
C1059 C1057 1.390 1_655 S
C1059 C1060 1.387 . S
C1059 H1062 0.950 . S
C1060 C1059 1.387 . S
C1060 C1063 1.387 . S
H1061 C1057 0.950 . S
H1062 C1059 0.950 . S
C1063 C1054 1.390 1_655 S
C1063 H1056 0.950 . S
C1063 C1060 1.387 . S
C1064 C1065 1.387 . S
C1064 H1068 0.950 . S
C1064 C1073 1.390 . S
C1065 C1064 1.387 . S
C1065 C1067 1.387 . S
H1066 C1073 0.950 . S
C1067 C1065 1.387 . S
C1067 C1069 1.390 . S
C1067 H1071 0.950 . S
H1068 C1064 0.950 . S
C1069 C1067 1.390 . S
C1069 C1070 1.387 . S
C1069 H1072 0.950 . S
C1070 C1069 1.387 . S
C1070 C1073 1.387 . S
H1071 C1067 0.950 . S
H1072 C1069 0.950 . S
C1073 C1064 1.390 . S
C1073 H1066 0.950 . S
C1073 C1070 1.387 . S
C1074 C1075 1.387 . S
C1074 H1078 0.950 . S
C1074 C1083 1.390 1_455 S
C1075 C1074 1.387 . S
C1075 C1077 1.387 . S
H1076 C1083 0.950 . S
C1077 C1075 1.387 . S
C1077 C1079 1.390 1_455 S
C1077 H1081 0.950 . S
H1078 C1074 0.950 . S
C1079 C1077 1.390 1_655 S
C1079 C1080 1.387 . S
C1079 H1082 0.950 . S
C1080 C1079 1.387 . S
C1080 C1083 1.387 . S
H1081 C1077 0.950 . S
H1082 C1079 0.950 . S
C1083 C1074 1.390 1_655 S
C1083 H1076 0.950 . S
C1083 C1080 1.387 . S
C1084 C1085 1.387 . S
C1084 H1088 0.950 . S
C1084 C1093 1.390 . S
C1085 C1084 1.387 . S
C1085 C1087 1.387 1_554 S
H1086 C1093 0.950 . S
C1087 C1085 1.387 1_556 S
C1087 C1089 1.390 . S
C1087 H1091 0.950 . S
H1088 C1084 0.950 . S
C1089 C1087 1.390 . S
C1089 C1090 1.387 1_556 S
C1089 H1092 0.950 . S
C1090 C1089 1.387 1_554 S
C1090 C1093 1.387 . S
H1091 C1087 0.950 . S
H1092 C1089 0.950 . S
C1093 C1084 1.390 . S
C1093 H1086 0.950 . S
C1093 C1090 1.387 . S
C1094 C1095 1.387 . S
C1094 H1098 0.950 . S
C1094 C1103 1.390 . S
C1095 C1094 1.387 . S
C1095 C1097 1.387 . S
H1096 C1103 0.950 . S
C1097 C1095 1.387 . S
C1097 C1099 1.390 . S
C1097 H1101 0.950 . S
H1098 C1094 0.950 . S
C1099 C1097 1.390 . S
C1099 C1100 1.387 . S
C1099 H1102 0.950 . S
C1100 C1099 1.387 . S
C1100 C1103 1.387 . S
H1101 C1097 0.950 . S
H1102 C1099 0.950 . S
C1103 C1094 1.390 . S
C1103 H1096 0.950 . S
C1103 C1100 1.387 . S
C545 C334 1.711 1_554 S
C550 C6 1.711 . S
C555 C40 1.712 . S
C560 C504 1.711 . S
C565 C74 1.711 . S
C570 C278 1.713 . S
C575 C108 1.712 1_556 S
C580 C538 1.711 . S
C585 C346 1.712 1_556 S
C590 C164 1.711 . S
C595 C176 1.712 1_554 S
C600 C448 1.711 . S
C605 C402 1.713 . S
C610 C232 1.715 . S
C615 C414 1.711 . S
C620 C266 1.713 . S
C625 C158 0.824 . S
C630 C117 0.825 . S
C635 C287 0.826 . S
C640 C423 0.823 . S
C645 C49 0.830 . S
C650 C226 0.824 . S
C655 C457 0.823 . S
C660 C328 0.827 . S
C665 C185 0.834 . S
C670 C15 0.830 . S
C675 C355 0.829 . S
C680 C532 0.834 . S
C685 C83 0.834 . S
C690 C260 0.828 . S
C695 C396 0.825 . S
C700 C498 0.823 . S
C705 C362 1.623 . S
C710 C1 1.733 . S
C715 C35 1.733 . S
C720 C464 1.623 . S
C725 C69 1.731 . S
C730 C389 1.627 . S
C735 C430 1.626 . S
C740 C103 1.731 . S
C745 C321 1.627 . S
C750 C139 1.731 . S
C755 C171 1.733 . S
C760 C491 1.623 . S
C765 C294 1.627 . S
C770 C207 1.731 . S
C775 C525 1.623 . S
C780 C241 1.733 . S
C785 C198 2.030 . S
C790 C137 2.081 . S
C795 C516 2.032 . S
C800 C275 2.078 . S
C805 C205 2.081 . S
C810 C244 2.029 . S
C815 C482 2.031 . S
C820 C307 2.079 . S
C825 C130 2.032 . S
C830 C3 2.078 . S
C835 C343 2.081 . S
C840 C436 2.030 . S
C845 C62 2.029 . S
C850 C71 2.081 . S
C855 C375 2.080 . S
C860 C470 2.029 . S
C865 C409 1.731 1_565 S
C870 C56 1.627 . S
C875 C341 1.731 . S
C880 C90 1.627 . S
C885 C443 1.731 1_545 S
C890 C124 1.627 . S
C895 C377 1.733 . S
C900 C22 1.623 . S
C905 C253 1.627 . S
C910 C479 1.731 1_545 S
C915 C273 1.733 . S
C920 C151 1.623 . S
C925 C513 1.731 1_565 S
C930 C192 1.627 . S
C935 C309 1.733 . S
C940 C219 1.623 . S
C945 C300 2.030 . S
C950 C477 2.081 1_545 S
C955 C173 2.080 . S
C960 C210 2.030 . S
C965 C312 2.032 . S
C970 C511 2.078 1_565 S
C975 C239 2.079 . S
C980 C142 2.032 . S
C985 C411 2.081 1_565 S
C990 C380 2.029 . S
C995 C37 2.079 . S
C1000 C28 2.032 . S
C1005 C368 2.030 . S
C1010 C445 2.081 1_545 S
C1015 C105 2.080 . S
C1020 C96 2.030 . S
C1025 C459 1.931 . S
C1030 C17 1.931 . S
C1035 C391 1.931 . S
C1040 C51 1.931 . S
C1045 C85 1.931 . S
C1050 C425 1.931 . S
C1055 C357 1.931 . S
C1060 C119 1.931 . S
C1065 C153 1.931 . S
C1070 C527 1.931 . S
C1075 C323 1.931 . S
C1080 C187 1.931 . S
C1085 C221 1.931 . S
C1090 C493 1.931 . S
C1095 C255 1.931 . S
C1100 C289 1.931 . S
