# Generated by pormake.
# Topology yfs, (5)-cn, num edge types: 1
# Building blocks:
#     Node 0, Type 0, BuildingBlock: XOMCOT_clean_sbu_1, # of connection points: 5
#     Node 1, Type 0, BuildingBlock: XOMCOT_clean_sbu_1, # of connection points: 5
#     Node 2, Type 0, BuildingBlock: XOMCOT_clean_sbu_1, # of connection points: 5
#     Node 3, Type 0, BuildingBlock: XOMCOT_clean_sbu_1, # of connection points: 5
#     Node 4, Type 0, BuildingBlock: XOMCOT_clean_sbu_1, # of connection points: 5
#     Node 5, Type 0, BuildingBlock: XOMCOT_clean_sbu_1, # of connection points: 5
#     Node 6, Type 0, BuildingBlock: XOMCOT_clean_sbu_1, # of connection points: 5
#     Node 7, Type 0, BuildingBlock: XOMCOT_clean_sbu_1, # of connection points: 5
#     Node 8, Type 0, BuildingBlock: XOMCOT_clean_sbu_1, # of connection points: 5
#     Node 9, Type 0, BuildingBlock: XOMCOT_clean_sbu_1, # of connection points: 5
#     Node 10, Type 0, BuildingBlock: XOMCOT_clean_sbu_1, # of connection points: 5
#     Node 11, Type 0, BuildingBlock: XOMCOT_clean_sbu_1, # of connection points: 5
#     Node 12, Type 0, BuildingBlock: XOMCOT_clean_sbu_1, # of connection points: 5
#     Node 13, Type 0, BuildingBlock: XOMCOT_clean_sbu_1, # of connection points: 5
#     Node 14, Type 0, BuildingBlock: XOMCOT_clean_sbu_1, # of connection points: 5
#     Node 15, Type 0, BuildingBlock: XOMCOT_clean_sbu_1, # of connection points: 5
#     Node 16, Type 0, BuildingBlock: XOMCOT_clean_sbu_1, # of connection points: 5
#     Node 17, Type 0, BuildingBlock: XOMCOT_clean_sbu_1, # of connection points: 5
#     Node 18, Type 0, BuildingBlock: XOMCOT_clean_sbu_1, # of connection points: 5
#     Node 19, Type 0, BuildingBlock: XOMCOT_clean_sbu_1, # of connection points: 5
#     Node 20, Type 0, BuildingBlock: XOMCOT_clean_sbu_1, # of connection points: 5
#     Node 21, Type 0, BuildingBlock: XOMCOT_clean_sbu_1, # of connection points: 5
#     Node 22, Type 0, BuildingBlock: XOMCOT_clean_sbu_1, # of connection points: 5
#     Node 23, Type 0, BuildingBlock: XOMCOT_clean_sbu_1, # of connection points: 5
#     Node 24, Type 0, BuildingBlock: XOMCOT_clean_sbu_1, # of connection points: 5
#     Node 25, Type 0, BuildingBlock: XOMCOT_clean_sbu_1, # of connection points: 5
#     Node 26, Type 0, BuildingBlock: XOMCOT_clean_sbu_1, # of connection points: 5
#     Node 27, Type 0, BuildingBlock: XOMCOT_clean_sbu_1, # of connection points: 5
#     Node 28, Type 0, BuildingBlock: XOMCOT_clean_sbu_1, # of connection points: 5
#     Node 29, Type 0, BuildingBlock: XOMCOT_clean_sbu_1, # of connection points: 5
#     Node 30, Type 0, BuildingBlock: XOMCOT_clean_sbu_1, # of connection points: 5
#     Node 31, Type 0, BuildingBlock: XOMCOT_clean_sbu_1, # of connection points: 5
#     Edge 32, Type (0, 0), BuildingBlock: ZUJKAS_clean_linker_0, # of connection points: 2
#     Edge 33, Type (0, 0), BuildingBlock: ZUJKAS_clean_linker_0, # of connection points: 2
#     Edge 34, Type (0, 0), BuildingBlock: ZUJKAS_clean_linker_0, # of connection points: 2
#     Edge 35, Type (0, 0), BuildingBlock: ZUJKAS_clean_linker_0, # of connection points: 2
#     Edge 36, Type (0, 0), BuildingBlock: ZUJKAS_clean_linker_0, # of connection points: 2
#     Edge 37, Type (0, 0), BuildingBlock: ZUJKAS_clean_linker_0, # of connection points: 2
#     Edge 38, Type (0, 0), BuildingBlock: ZUJKAS_clean_linker_0, # of connection points: 2
#     Edge 39, Type (0, 0), BuildingBlock: ZUJKAS_clean_linker_0, # of connection points: 2
#     Edge 40, Type (0, 0), BuildingBlock: ZUJKAS_clean_linker_0, # of connection points: 2
#     Edge 41, Type (0, 0), BuildingBlock: ZUJKAS_clean_linker_0, # of connection points: 2
#     Edge 42, Type (0, 0), BuildingBlock: ZUJKAS_clean_linker_0, # of connection points: 2
#     Edge 43, Type (0, 0), BuildingBlock: ZUJKAS_clean_linker_0, # of connection points: 2
#     Edge 44, Type (0, 0), BuildingBlock: ZUJKAS_clean_linker_0, # of connection points: 2
#     Edge 45, Type (0, 0), BuildingBlock: ZUJKAS_clean_linker_0, # of connection points: 2
#     Edge 46, Type (0, 0), BuildingBlock: ZUJKAS_clean_linker_0, # of connection points: 2
#     Edge 47, Type (0, 0), BuildingBlock: ZUJKAS_clean_linker_0, # of connection points: 2
#     Edge 48, Type (0, 0), BuildingBlock: ZUJKAS_clean_linker_0, # of connection points: 2
#     Edge 49, Type (0, 0), BuildingBlock: ZUJKAS_clean_linker_0, # of connection points: 2
#     Edge 50, Type (0, 0), BuildingBlock: ZUJKAS_clean_linker_0, # of connection points: 2
#     Edge 51, Type (0, 0), BuildingBlock: ZUJKAS_clean_linker_0, # of connection points: 2
#     Edge 52, Type (0, 0), BuildingBlock: ZUJKAS_clean_linker_0, # of connection points: 2
#     Edge 53, Type (0, 0), BuildingBlock: ZUJKAS_clean_linker_0, # of connection points: 2
#     Edge 54, Type (0, 0), BuildingBlock: ZUJKAS_clean_linker_0, # of connection points: 2
#     Edge 55, Type (0, 0), BuildingBlock: ZUJKAS_clean_linker_0, # of connection points: 2
#     Edge 56, Type (0, 0), BuildingBlock: ZUJKAS_clean_linker_0, # of connection points: 2
#     Edge 57, Type (0, 0), BuildingBlock: ZUJKAS_clean_linker_0, # of connection points: 2
#     Edge 58, Type (0, 0), BuildingBlock: ZUJKAS_clean_linker_0, # of connection points: 2
#     Edge 59, Type (0, 0), BuildingBlock: ZUJKAS_clean_linker_0, # of connection points: 2
#     Edge 60, Type (0, 0), BuildingBlock: ZUJKAS_clean_linker_0, # of connection points: 2
#     Edge 61, Type (0, 0), BuildingBlock: ZUJKAS_clean_linker_0, # of connection points: 2
#     Edge 62, Type (0, 0), BuildingBlock: ZUJKAS_clean_linker_0, # of connection points: 2
#     Edge 63, Type (0, 0), BuildingBlock: ZUJKAS_clean_linker_0, # of connection points: 2
#     Edge 64, Type (0, 0), BuildingBlock: ZUJKAS_clean_linker_0, # of connection points: 2
#     Edge 65, Type (0, 0), BuildingBlock: ZUJKAS_clean_linker_0, # of connection points: 2
#     Edge 66, Type (0, 0), BuildingBlock: ZUJKAS_clean_linker_0, # of connection points: 2
#     Edge 67, Type (0, 0), BuildingBlock: ZUJKAS_clean_linker_0, # of connection points: 2
#     Edge 68, Type (0, 0), BuildingBlock: ZUJKAS_clean_linker_0, # of connection points: 2
#     Edge 69, Type (0, 0), BuildingBlock: ZUJKAS_clean_linker_0, # of connection points: 2
#     Edge 70, Type (0, 0), BuildingBlock: ZUJKAS_clean_linker_0, # of connection points: 2
#     Edge 71, Type (0, 0), BuildingBlock: ZUJKAS_clean_linker_0, # of connection points: 2
#     Edge 72, Type (0, 0), BuildingBlock: ZUJKAS_clean_linker_0, # of connection points: 2
#     Edge 73, Type (0, 0), BuildingBlock: ZUJKAS_clean_linker_0, # of connection points: 2
#     Edge 74, Type (0, 0), BuildingBlock: ZUJKAS_clean_linker_0, # of connection points: 2
#     Edge 75, Type (0, 0), BuildingBlock: ZUJKAS_clean_linker_0, # of connection points: 2
#     Edge 76, Type (0, 0), BuildingBlock: ZUJKAS_clean_linker_0, # of connection points: 2
#     Edge 77, Type (0, 0), BuildingBlock: ZUJKAS_clean_linker_0, # of connection points: 2
#     Edge 78, Type (0, 0), BuildingBlock: ZUJKAS_clean_linker_0, # of connection points: 2
#     Edge 79, Type (0, 0), BuildingBlock: ZUJKAS_clean_linker_0, # of connection points: 2
#     Edge 80, Type (0, 0), BuildingBlock: ZUJKAS_clean_linker_0, # of connection points: 2
#     Edge 81, Type (0, 0), BuildingBlock: ZUJKAS_clean_linker_0, # of connection points: 2
#     Edge 82, Type (0, 0), BuildingBlock: ZUJKAS_clean_linker_0, # of connection points: 2
#     Edge 83, Type (0, 0), BuildingBlock: ZUJKAS_clean_linker_0, # of connection points: 2
#     Edge 84, Type (0, 0), BuildingBlock: ZUJKAS_clean_linker_0, # of connection points: 2
#     Edge 85, Type (0, 0), BuildingBlock: ZUJKAS_clean_linker_0, # of connection points: 2
#     Edge 86, Type (0, 0), BuildingBlock: ZUJKAS_clean_linker_0, # of connection points: 2
#     Edge 87, Type (0, 0), BuildingBlock: ZUJKAS_clean_linker_0, # of connection points: 2
#     Edge 88, Type (0, 0), BuildingBlock: ZUJKAS_clean_linker_0, # of connection points: 2
#     Edge 89, Type (0, 0), BuildingBlock: ZUJKAS_clean_linker_0, # of connection points: 2
#     Edge 90, Type (0, 0), BuildingBlock: ZUJKAS_clean_linker_0, # of connection points: 2
#     Edge 91, Type (0, 0), BuildingBlock: ZUJKAS_clean_linker_0, # of connection points: 2
#     Edge 92, Type (0, 0), BuildingBlock: ZUJKAS_clean_linker_0, # of connection points: 2
#     Edge 93, Type (0, 0), BuildingBlock: ZUJKAS_clean_linker_0, # of connection points: 2
#     Edge 94, Type (0, 0), BuildingBlock: ZUJKAS_clean_linker_0, # of connection points: 2
#     Edge 95, Type (0, 0), BuildingBlock: ZUJKAS_clean_linker_0, # of connection points: 2
#     Edge 96, Type (0, 0), BuildingBlock: ZUJKAS_clean_linker_0, # of connection points: 2
#     Edge 97, Type (0, 0), BuildingBlock: ZUJKAS_clean_linker_0, # of connection points: 2
#     Edge 98, Type (0, 0), BuildingBlock: ZUJKAS_clean_linker_0, # of connection points: 2
#     Edge 99, Type (0, 0), BuildingBlock: ZUJKAS_clean_linker_0, # of connection points: 2
#     Edge 100, Type (0, 0), BuildingBlock: ZUJKAS_clean_linker_0, # of connection points: 2
#     Edge 101, Type (0, 0), BuildingBlock: ZUJKAS_clean_linker_0, # of connection points: 2
#     Edge 102, Type (0, 0), BuildingBlock: ZUJKAS_clean_linker_0, # of connection points: 2
#     Edge 103, Type (0, 0), BuildingBlock: ZUJKAS_clean_linker_0, # of connection points: 2
#     Edge 104, Type (0, 0), BuildingBlock: ZUJKAS_clean_linker_0, # of connection points: 2
#     Edge 105, Type (0, 0), BuildingBlock: ZUJKAS_clean_linker_0, # of connection points: 2
#     Edge 106, Type (0, 0), BuildingBlock: ZUJKAS_clean_linker_0, # of connection points: 2
#     Edge 107, Type (0, 0), BuildingBlock: ZUJKAS_clean_linker_0, # of connection points: 2
#     Edge 108, Type (0, 0), BuildingBlock: ZUJKAS_clean_linker_0, # of connection points: 2
#     Edge 109, Type (0, 0), BuildingBlock: ZUJKAS_clean_linker_0, # of connection points: 2
#     Edge 110, Type (0, 0), BuildingBlock: ZUJKAS_clean_linker_0, # of connection points: 2
#     Edge 111, Type (0, 0), BuildingBlock: ZUJKAS_clean_linker_0, # of connection points: 2
# Relax obj value: 0.526
# Max RMSD: 0.267
# Mean RMSD: 0.267
data_MOF--net-yfs--node1-XOMCOT_clean_sbu_1--edge1-ZUJKAS_clean_linker_0
_symmetry_space_group_name_H-M    P1
_symmetry_Int_Tables_number       1
_symmetry_cell_setting            triclinic
loop_
_symmetry_equiv_pos_as_xyz
'x, y, z'
_cell_length_a     53.841335
_cell_length_b     53.914586
_cell_length_c     107.03436
_cell_angle_alpha  89.91384
_cell_angle_beta   89.89936
_cell_angle_gamma 90.111836
loop_
_atom_site_label
_atom_site_type_symbol
_atom_site_fract_x
_atom_site_fract_y
_atom_site_fract_z
_atom_type_partial_charge
C0 C 0.38015 0.07153 0.21062 0.0
C1 C 0.40109 0.06588 0.20382 0.0
N2 N 0.40349 0.08253 0.1945 0.0
N3 N 0.36905 0.09162 0.20564 0.0
C4 C 0.38378 0.09792 0.1958 0.0
H5 H 0.37403 0.06205 0.21897 0.0
Co6 Co 0.34179 0.10847 0.21283 0.0
C7 C 0.32827 0.11902 0.18516 0.0
O8 O 0.33068 0.09691 0.18018 0.0
N9 N 0.31457 0.12565 0.21974 0.0
C10 C 0.27651 0.1411 0.22139 0.0
C11 C 0.2917 0.12567 0.21466 0.0
C12 C 0.3127 0.14099 0.22971 0.0
N13 N 0.28968 0.15089 0.2309 0.0
O14 O 0.3216 0.07875 0.21187 0.0
H15 H 0.28651 0.11549 0.20636 0.0
H16 H 0.32799 0.14496 0.23589 0.0
O17 O 0.33225 0.12203 0.19677 0.0
C18 C 0.32331 0.07095 0.22318 0.0
O19 O 0.33642 0.08395 0.23116 0.0
N20 N 0.36205 0.13526 0.2156 0.0
C21 C 0.39557 0.17025 0.22372 0.0
C22 C 0.38493 0.1725 0.21185 0.0
C23 C 0.36788 0.15469 0.20793 0.0
C24 C 0.37284 0.13271 0.227 0.0
C25 C 0.38936 0.15027 0.23137 0.0
H26 H 0.36013 0.1563 0.19871 0.0
H27 H 0.36852 0.11686 0.23277 0.0
H28 H 0.38083 0.1142 0.19007 0.0
H29 H 0.41379 0.05082 0.20575 0.0
H30 H 0.2574 0.14519 0.21912 0.0
H31 H 0.38995 0.18767 0.20569 0.0
H32 H 0.39782 0.14786 0.24047 0.0
C33 C 0.17532 0.12146 0.4538 0.0
C34 C 0.18389 0.1375 0.44474 0.0
N35 N 0.16461 0.14437 0.43752 0.0
N36 N 0.15066 0.11805 0.45236 0.0
C37 C 0.14495 0.13156 0.44207 0.0
H38 H 0.18604 0.11518 0.4617 0.0
Co39 Co 0.12776 0.10869 0.46497 0.0
C40 C 0.0863 0.08069 0.45143 0.0
O41 O 0.07405 0.07661 0.4618 0.0
N42 N 0.10514 0.1001 0.47803 0.0
C43 C 0.07834 0.1034 0.49382 0.0
C44 C 0.09214 0.1162 0.48516 0.0
C45 C 0.09965 0.07754 0.48303 0.0
N46 N 0.08285 0.07904 0.49241 0.0
O47 O 0.14733 0.07984 0.46911 0.0
H48 H 0.09252 0.13615 0.48424 0.0
H49 H 0.10718 0.06026 0.47957 0.0
O50 O 0.10746 0.09173 0.45179 0.0
C51 C 0.16 0.08801 0.47838 0.0
O52 O 0.15692 0.1112 0.48181 0.0
N53 N 0.11125 0.13836 0.46227 0.0
C54 C 0.09144 0.18564 0.4625 0.0
C55 C 0.07796 0.16578 0.45738 0.0
C56 C 0.08821 0.14212 0.45738 0.0
C57 C 0.12519 0.15774 0.46648 0.0
C58 C 0.11581 0.18166 0.46647 0.0
H59 H 0.07695 0.12696 0.45417 0.0
H60 H 0.14346 0.15438 0.47029 0.0
H61 H 0.12611 0.1341 0.43883 0.0
H62 H 0.20233 0.1455 0.4444 0.0
H63 H 0.06546 0.11141 0.50045 0.0
H64 H 0.05885 0.16797 0.45443 0.0
H65 H 0.1268 0.19655 0.47043 0.0
C66 C 0.11166 0.9147 0.7112 0.0
C67 C 0.09166 0.92126 0.70403 0.0
N68 N 0.0932 0.90934 0.69301 0.0
N69 N 0.12615 0.89873 0.70484 0.0
C70 C 0.11445 0.89591 0.6937 0.0
H71 H 0.1145 0.9202 0.72079 0.0
Co72 Co 0.15255 0.88184 0.71262 0.0
C73 C 0.17769 0.85042 0.69371 0.0
O74 O 0.1819 0.83486 0.70289 0.0
N75 N 0.17922 0.86551 0.72109 0.0
C76 C 0.21812 0.85786 0.72707 0.0
C77 C 0.20331 0.87205 0.7195 0.0
C78 C 0.18006 0.84705 0.72974 0.0
N79 N 0.20351 0.8421 0.73349 0.0
O80 O 0.17128 0.91226 0.71333 0.0
H81 H 0.20985 0.88609 0.71307 0.0
H82 H 0.16401 0.83731 0.7333 0.0
O83 O 0.16635 0.87101 0.69594 0.0
C84 C 0.16709 0.91939 0.72454 0.0
O85 O 0.15299 0.90557 0.73177 0.0
N86 N 0.13242 0.85417 0.71347 0.0
C87 C 0.09299 0.82205 0.71708 0.0
C88 C 0.10402 0.82421 0.7053 0.0
C89 C 0.12361 0.84064 0.70366 0.0
C90 C 0.12138 0.85269 0.72489 0.0
C91 C 0.10192 0.83638 0.72699 0.0
H92 H 0.13025 0.84347 0.69434 0.0
H93 H 0.12744 0.86469 0.73236 0.0
H94 H 0.12083 0.88353 0.68645 0.0
H95 H 0.07633 0.93271 0.70708 0.0
H96 H 0.23818 0.85868 0.72762 0.0
H97 H 0.09705 0.81394 0.69735 0.0
H98 H 0.09392 0.8351 0.73626 0.0
C99 C 0.32873 0.85837 0.9621 0.0
C100 C 0.32356 0.83719 0.95545 0.0
N101 N 0.33765 0.83716 0.94505 0.0
N102 N 0.34608 0.87178 0.95599 0.0
C103 C 0.3511 0.85838 0.94555 0.0
H104 H 0.32129 0.86295 0.97119 0.0
Co105 Co 0.36274 0.89902 0.96306 0.0
C106 C 0.37349 0.91632 0.93596 0.0
O107 O 0.351 0.91968 0.93155 0.0
N108 N 0.37972 0.9263 0.96993 0.0
C109 C 0.39285 0.96512 0.97244 0.0
C110 C 0.37756 0.94979 0.96568 0.0
C111 C 0.39648 0.92785 0.9793 0.0
N112 N 0.40481 0.95125 0.98098 0.0
O113 O 0.33286 0.91884 0.96199 0.0
H114 H 0.36581 0.95538 0.95799 0.0
H115 H 0.40249 0.91228 0.98487 0.0
O116 O 0.37647 0.90884 0.94713 0.0
C117 C 0.32493 0.9171 0.97327 0.0
O118 O 0.33813 0.90456 0.98139 0.0
N119 N 0.3895 0.87873 0.96592 0.0
C120 C 0.4205 0.84111 0.97362 0.0
C121 C 0.42388 0.85192 0.96182 0.0
C122 C 0.40779 0.8708 0.95803 0.0
C123 C 0.3866 0.86859 0.97746 0.0
C124 C 0.40209 0.85001 0.98158 0.0
H125 H 0.4092 0.87779 0.94863 0.0
H126 H 0.37167 0.87457 0.98345 0.0
H127 H 0.36552 0.86311 0.93891 0.0
H128 H 0.31094 0.82252 0.95823 0.0
H129 H 0.3954 0.98483 0.97099 0.0
H130 H 0.43781 0.84495 0.95542 0.0
H131 H 0.3991 0.84198 0.99075 0.0
C132 C 0.38332 0.91808 0.33955 0.0
C133 C 0.40265 0.92487 0.34716 0.0
N134 N 0.40433 0.90829 0.35653 0.0
N135 N 0.37239 0.89736 0.34406 0.0
C136 C 0.38575 0.89181 0.35446 0.0
H137 H 0.37816 0.9275 0.33105 0.0
Co138 Co 0.34614 0.88041 0.33591 0.0
C139 C 0.32388 0.84545 0.35427 0.0
O140 O 0.31999 0.83062 0.34476 0.0
N141 N 0.31944 0.86415 0.3275 0.0
C142 C 0.28017 0.85437 0.32322 0.0
C143 C 0.29546 0.86863 0.33048 0.0
C144 C 0.31807 0.84718 0.31817 0.0
N145 N 0.29433 0.84079 0.31545 0.0
O146 O 0.32608 0.91033 0.33607 0.0
H147 H 0.28939 0.88096 0.33783 0.0
H148 H 0.33403 0.83944 0.31349 0.0
O149 O 0.33393 0.86691 0.35241 0.0
C150 C 0.32981 0.91841 0.32491 0.0
O151 O 0.34524 0.9063 0.31767 0.0
N152 N 0.3671 0.85357 0.33377 0.0
C153 C 0.40489 0.82194 0.32665 0.0
C154 C 0.39528 0.82076 0.3388 0.0
C155 C 0.37653 0.83717 0.34228 0.0
C156 C 0.37674 0.85504 0.32205 0.0
C157 C 0.39533 0.8392 0.31822 0.0
H158 H 0.37066 0.83722 0.35188 0.0
H159 H 0.36997 0.86874 0.31557 0.0
H160 H 0.38213 0.87595 0.36036 0.0
H161 H 0.41515 0.94034 0.34565 0.0
H162 H 0.26014 0.85354 0.32396 0.0
H163 H 0.4027 0.80786 0.3456 0.0
H164 H 0.40212 0.84047 0.30871 0.0
C165 C 0.33789 0.14078 0.58046 0.0
C166 C 0.333 0.16171 0.58739 0.0
N167 N 0.34241 0.15853 0.59892 0.0
N168 N 0.35059 0.12437 0.5875 0.0
C169 C 0.35277 0.13566 0.5988 0.0
H170 H 0.33398 0.13846 0.57063 0.0
Co171 Co 0.36735 0.09656 0.58064 0.0
C172 C 0.38276 0.07883 0.60639 0.0
O173 O 0.36245 0.06605 0.60865 0.0
N174 N 0.38465 0.06856 0.57407 0.0
C175 C 0.39737 0.02944 0.57225 0.0
C176 C 0.38144 0.04521 0.57833 0.0
C177 C 0.40304 0.06635 0.56544 0.0
N178 N 0.41109 0.04269 0.56406 0.0
O179 O 0.33881 0.07587 0.5842 0.0
H180 H 0.36861 0.03987 0.58563 0.0
H181 H 0.41082 0.08181 0.56041 0.0
O182 O 0.38495 0.0908 0.59618 0.0
C183 C 0.32804 0.07762 0.57353 0.0
O184 O 0.33886 0.09059 0.56469 0.0
N185 N 0.39181 0.11789 0.57527 0.0
C186 C 0.4027 0.16438 0.56597 0.0
C187 C 0.40942 0.15803 0.57825 0.0
C188 C 0.40383 0.13441 0.58278 0.0
C189 C 0.38755 0.12312 0.563 0.0
C190 C 0.39301 0.14624 0.55811 0.0
H191 H 0.40619 0.13075 0.59262 0.0
H192 H 0.37735 0.11024 0.55725 0.0
H193 H 0.36351 0.12829 0.60648 0.0
H194 H 0.32407 0.17843 0.58405 0.0
H195 H 0.39876 0.00974 0.57398 0.0
H196 H 0.4175 0.17163 0.58449 0.0
H197 H 0.38771 0.15045 0.54859 0.0
C198 C 0.10451 0.07498 0.84016 0.0
C199 C 0.08516 0.06856 0.84788 0.0
N200 N 0.08625 0.08271 0.85821 0.0
N201 N 0.11819 0.09305 0.84552 0.0
C202 C 0.10655 0.09732 0.8566 0.0
H203 H 0.10759 0.06755 0.83094 0.0
Co204 Co 0.1444 0.10945 0.83703 0.0
C205 C 0.16829 0.14384 0.85469 0.0
O206 O 0.17076 0.15873 0.84506 0.0
N207 N 0.17112 0.1252 0.82808 0.0
C208 C 0.21038 0.13406 0.82308 0.0
C209 C 0.19517 0.11988 0.8305 0.0
C210 C 0.1724 0.1427 0.81893 0.0
N211 N 0.19609 0.14853 0.8158 0.0
O212 O 0.16356 0.07929 0.83702 0.0
H213 H 0.20141 0.10703 0.83759 0.0
H214 H 0.15649 0.15142 0.81471 0.0
O215 O 0.15817 0.12234 0.85322 0.0
C216 C 0.15903 0.07105 0.82603 0.0
O217 O 0.14405 0.0837 0.81877 0.0
N218 N 0.12404 0.13678 0.83545 0.0
C219 C 0.08797 0.17148 0.82966 0.0
C220 C 0.09667 0.1692 0.84195 0.0
C221 C 0.1147 0.15158 0.84468 0.0
C222 C 0.11446 0.13763 0.82374 0.0
C223 C 0.0971 0.15534 0.82051 0.0
H224 H 0.1203 0.14945 0.85426 0.0
H225 H 0.12072 0.12464 0.81674 0.0
H226 H 0.11242 0.11121 0.86323 0.0
H227 H 0.07061 0.05538 0.84572 0.0
H228 H 0.23046 0.1343 0.8234 0.0
H229 H 0.0894 0.18061 0.84942 0.0
H230 H 0.09124 0.15643 0.81086 0.0
C231 C 0.16392 0.85072 0.08394 0.0
C232 C 0.17101 0.831 0.09121 0.0
N233 N 0.15647 0.83033 0.10145 0.0
N234 N 0.14501 0.86277 0.08952 0.0
C235 C 0.14087 0.84989 0.10022 0.0
H236 H 0.17154 0.85527 0.07488 0.0
Co237 Co 0.12776 0.8891 0.08201 0.0
C238 C 0.09107 0.90748 0.10026 0.0
O239 O 0.07613 0.90988 0.09067 0.0
N240 N 0.11098 0.91617 0.07421 0.0
C241 C 0.10014 0.95557 0.07122 0.0
C242 C 0.11535 0.93988 0.07769 0.0
C243 C 0.09295 0.91813 0.0654 0.0
N244 N 0.08577 0.94196 0.06357 0.0
O245 O 0.15709 0.90984 0.0833 0.0
H246 H 0.12827 0.94549 0.08488 0.0
H247 H 0.0843 0.90245 0.06088 0.0
O248 O 0.11325 0.89915 0.09858 0.0
C249 C 0.16611 0.90778 0.07225 0.0
O250 O 0.15446 0.89374 0.06415 0.0
N251 N 0.10179 0.86725 0.0789 0.0
C252 C 0.07525 0.82585 0.07093 0.0
C253 C 0.07253 0.83475 0.0832 0.0
C254 C 0.0865 0.85517 0.08712 0.0
C255 C 0.10458 0.85874 0.06703 0.0
C256 C 0.09175 0.83808 0.0629 0.0
H257 H 0.08582 0.86023 0.09685 0.0
H258 H 0.11775 0.86746 0.06083 0.0
H259 H 0.12635 0.85437 0.10682 0.0
H260 H 0.18505 0.81748 0.08879 0.0
H261 H 0.09957 0.97552 0.07223 0.0
H262 H 0.0601 0.82585 0.08979 0.0
H263 H 0.09538 0.83146 0.05353 0.0
C264 C 0.59924 0.91257 0.83429 0.0
C265 C 0.58189 0.92433 0.84165 0.0
N266 N 0.58553 0.91754 0.85363 0.0
N267 N 0.61387 0.89825 0.84153 0.0
C268 C 0.60573 0.90262 0.85334 0.0
H269 H 0.59928 0.91232 0.82419 0.0
Co270 Co 0.63401 0.87189 0.83547 0.0
C271 C 0.63079 0.84608 0.86062 0.0
O272 O 0.60939 0.83624 0.85769 0.0
N273 N 0.65495 0.84529 0.82989 0.0
C274 C 0.66926 0.80666 0.82834 0.0
C275 C 0.6548 0.82244 0.83514 0.0
C276 C 0.66998 0.84267 0.81975 0.0
N277 N 0.67856 0.8192 0.81856 0.0
O278 O 0.66168 0.89448 0.83459 0.0
H279 H 0.64325 0.81664 0.84281 0.0
H280 H 0.67288 0.85691 0.81278 0.0
O281 O 0.642 0.86061 0.85292 0.0
C282 C 0.65847 0.90202 0.8233 0.0
O283 O 0.64053 0.89206 0.81667 0.0
N284 N 0.60483 0.85191 0.83322 0.0
C285 C 0.56013 0.84226 0.82081 0.0
C286 C 0.55999 0.85161 0.83299 0.0
C287 C 0.58246 0.85607 0.83905 0.0
C288 C 0.60473 0.84117 0.82164 0.0
C289 C 0.58285 0.83552 0.81554 0.0
H290 H 0.58134 0.86471 0.84806 0.0
H291 H 0.62132 0.83924 0.81616 0.0
H292 H 0.61242 0.89276 0.86144 0.0
H293 H 0.56612 0.93476 0.83825 0.0
H294 H 0.6715 0.78698 0.83003 0.0
H295 H 0.54283 0.85675 0.83758 0.0
H296 H 0.58401 0.82713 0.80637 0.0
C297 C 0.83187 0.8499 0.58411 0.0
C298 C 0.82512 0.8299 0.59132 0.0
N299 N 0.83741 0.83105 0.60227 0.0
N300 N 0.84831 0.86402 0.59039 0.0
C301 C 0.85094 0.85228 0.60157 0.0
H302 H 0.82616 0.85308 0.57458 0.0
Co303 Co 0.86645 0.88995 0.58257 0.0
C304 C 0.90363 0.90723 0.60046 0.0
O305 O 0.91893 0.90753 0.59091 0.0
N306 N 0.88424 0.91654 0.57451 0.0
C307 C 0.89641 0.95558 0.57119 0.0
C308 C 0.88053 0.94049 0.57774 0.0
C309 C 0.90263 0.9178 0.56578 0.0
N310 N 0.9105 0.94133 0.56371 0.0
O311 O 0.83769 0.91117 0.58368 0.0
H312 H 0.86756 0.94669 0.5848 0.0
H313 H 0.91122 0.90188 0.5615 0.0
O314 O 0.88094 0.90031 0.59894 0.0
C315 C 0.8285 0.90842 0.57272 0.0
O316 O 0.84019 0.89417 0.56472 0.0
N317 N 0.89177 0.86742 0.57976 0.0
C318 C 0.90936 0.82064 0.57329 0.0
C319 C 0.91098 0.8292 0.58569 0.0
C320 C 0.90254 0.85288 0.58868 0.0
C321 C 0.89078 0.85974 0.56769 0.0
C322 C 0.9003 0.83698 0.56417 0.0
H323 H 0.90229 0.85816 0.59839 0.0
H324 H 0.88095 0.87063 0.56082 0.0
H325 H 0.86388 0.85816 0.60869 0.0
H326 H 0.81272 0.81516 0.58846 0.0
H327 H 0.89763 0.97555 0.57201 0.0
H328 H 0.9174 0.81746 0.59321 0.0
H329 H 0.89957 0.83213 0.55439 0.0
C330 C 0.88322 0.07714 0.33669 0.0
C331 C 0.904 0.07165 0.34355 0.0
N332 N 0.90481 0.08687 0.35351 0.0
N333 N 0.87057 0.09567 0.34225 0.0
C334 C 0.88418 0.10113 0.35256 0.0
H335 H 0.87832 0.0687 0.32789 0.0
Co336 Co 0.84337 0.11188 0.33477 0.0
C337 C 0.82143 0.14572 0.35377 0.0
O338 O 0.81489 0.16027 0.34452 0.0
N339 N 0.81596 0.12766 0.32684 0.0
C340 C 0.77686 0.13751 0.32218 0.0
C341 C 0.79184 0.12228 0.32917 0.0
C342 C 0.815 0.14607 0.31821 0.0
N343 N 0.79149 0.15255 0.31533 0.0
O344 O 0.82392 0.08166 0.33574 0.0
H345 H 0.78543 0.10858 0.33583 0.0
H346 H 0.83107 0.15547 0.31448 0.0
O347 O 0.83258 0.1251 0.35146 0.0
C348 C 0.82664 0.07313 0.32464 0.0
O349 O 0.84029 0.08569 0.31667 0.0
N350 N 0.86375 0.13896 0.33199 0.0
C351 C 0.90248 0.16902 0.32435 0.0
C352 C 0.89251 0.1717 0.33637 0.0
C353 C 0.87322 0.15604 0.34013 0.0
C354 C 0.87328 0.13657 0.32028 0.0
C355 C 0.89233 0.15168 0.31619 0.0
H356 H 0.86735 0.15674 0.34972 0.0
H357 H 0.86632 0.12244 0.3141 0.0
H358 H 0.87983 0.11612 0.35886 0.0
H359 H 0.91771 0.05775 0.34122 0.0
H360 H 0.75676 0.13755 0.32221 0.0
H361 H 0.90051 0.18465 0.34297 0.0
H362 H 0.89965 0.14922 0.30683 0.0
C363 C 0.6643 0.13602 0.0847 0.0
C364 C 0.67078 0.15693 0.09129 0.0
N365 N 0.65652 0.15826 0.10163 0.0
N366 N 0.64604 0.12385 0.09079 0.0
C367 C 0.64185 0.13779 0.10116 0.0
H368 H 0.67175 0.13069 0.07572 0.0
Co369 Co 0.62823 0.09675 0.08394 0.0
C370 C 0.61488 0.08178 0.11104 0.0
O371 O 0.63688 0.07522 0.11515 0.0
N372 N 0.61024 0.06951 0.07746 0.0
C373 C 0.59671 0.03058 0.07591 0.0
C374 C 0.61156 0.04657 0.08251 0.0
C375 C 0.59423 0.06695 0.0678 0.0
N376 N 0.58578 0.04344 0.06666 0.0
O377 O 0.65702 0.07546 0.08597 0.0
H378 H 0.62261 0.04174 0.09058 0.0
H379 H 0.58891 0.08181 0.0616 0.0
O380 O 0.61247 0.08954 0.09987 0.0
C381 C 0.66558 0.07658 0.07475 0.0
O382 O 0.6534 0.08961 0.06643 0.0
N383 N 0.60306 0.11838 0.07993 0.0
C384 C 0.58538 0.16389 0.07221 0.0
C385 C 0.58002 0.15514 0.08429 0.0
C386 C 0.5891 0.13207 0.08802 0.0
C387 C 0.6064 0.12581 0.06789 0.0
C388 C 0.59757 0.14842 0.06379 0.0
H389 H 0.58709 0.12669 0.09767 0.0
H390 H 0.61796 0.11523 0.06166 0.0
H391 H 0.62732 0.13388 0.10787 0.0
H392 H 0.68464 0.1704 0.08849 0.0
H393 H 0.59381 0.01111 0.07792 0.0
H394 H 0.57022 0.1666 0.09097 0.0
H395 H 0.60214 0.15453 0.05441 0.0
C396 C 0.60278 0.07708 0.71391 0.0
C397 C 0.58254 0.0695 0.70707 0.0
N398 N 0.58482 0.07813 0.69526 0.0
N399 N 0.61808 0.09044 0.70657 0.0
C400 C 0.60688 0.09035 0.69521 0.0
H401 H 0.6052 0.07454 0.72385 0.0
Co402 Co 0.64393 0.11078 0.71256 0.0
C403 C 0.66655 0.11653 0.68485 0.0
O404 O 0.67475 0.09657 0.67917 0.0
N405 N 0.66994 0.13126 0.71849 0.0
C406 C 0.70841 0.14545 0.72113 0.0
C407 C 0.69352 0.12998 0.71425 0.0
C408 C 0.67108 0.14764 0.72809 0.0
N409 N 0.69433 0.15653 0.72989 0.0
O410 O 0.66358 0.08171 0.71669 0.0
H411 H 0.69977 0.11791 0.70683 0.0
H412 H 0.65554 0.15223 0.73404 0.0
O413 O 0.65757 0.11428 0.69585 0.0
C414 C 0.66005 0.07949 0.72849 0.0
O415 O 0.64558 0.09568 0.73404 0.0
N416 N 0.62341 0.13763 0.7104 0.0
C417 C 0.5791 0.16326 0.71135 0.0
C418 C 0.59155 0.16057 0.69994 0.0
C419 C 0.61383 0.14731 0.69963 0.0
C420 C 0.61206 0.14144 0.72156 0.0
C421 C 0.59015 0.15447 0.72229 0.0
H422 H 0.62178 0.14296 0.69068 0.0
H423 H 0.6189 0.13248 0.72987 0.0
H424 H 0.61408 0.10042 0.68727 0.0
H425 H 0.56665 0.05977 0.71086 0.0
H426 H 0.72816 0.14816 0.71982 0.0
H427 H 0.58348 0.16737 0.69133 0.0
H428 H 0.58146 0.15684 0.73135 0.0
C429 C 0.68162 0.86785 0.45449 0.0
C430 C 0.69092 0.8507 0.44622 0.0
N431 N 0.67371 0.84629 0.43734 0.0
N432 N 0.65862 0.87459 0.45091 0.0
C433 C 0.65467 0.86166 0.44024 0.0
H434 H 0.69006 0.87268 0.46329 0.0
Co435 Co 0.63364 0.88753 0.4614 0.0
C436 C 0.60593 0.92313 0.44445 0.0
O437 O 0.60586 0.94152 0.45246 0.0
N438 N 0.60781 0.89979 0.47232 0.0
C439 C 0.57438 0.90078 0.48476 0.0
C440 C 0.58879 0.88631 0.47721 0.0
C441 C 0.60449 0.92264 0.47746 0.0
N442 N 0.58421 0.92355 0.4849 0.0
O443 O 0.65433 0.91556 0.46561 0.0
H444 H 0.58521 0.86694 0.4757 0.0
H445 H 0.6167 0.9383 0.47589 0.0
O446 O 0.6179 0.90332 0.44695 0.0
C447 C 0.6639 0.90865 0.476 0.0
O448 O 0.65747 0.88696 0.4806 0.0
N449 N 0.61565 0.85896 0.4586 0.0
C450 C 0.58431 0.81966 0.46275 0.0
C451 C 0.57976 0.83595 0.45279 0.0
C452 C 0.59546 0.85607 0.45105 0.0
C453 C 0.62295 0.84056 0.46648 0.0
C454 C 0.60728 0.82063 0.46885 0.0
H455 H 0.58988 0.87017 0.44455 0.0
H456 H 0.63947 0.84298 0.47208 0.0
H457 H 0.63706 0.86173 0.43544 0.0
H458 H 0.70797 0.84044 0.44749 0.0
H459 H 0.5579 0.89504 0.48982 0.0
H460 H 0.56267 0.835 0.44748 0.0
H461 H 0.61175 0.80818 0.47646 0.0
C462 C 0.88665 0.9184 0.2133 0.0
C463 C 0.90633 0.92417 0.20564 0.0
N464 N 0.90656 0.90815 0.196 0.0
N465 N 0.87413 0.89887 0.20857 0.0
C466 C 0.88674 0.89307 0.19797 0.0
H467 H 0.88261 0.92732 0.22209 0.0
Co468 Co 0.84813 0.88211 0.21705 0.0
C469 C 0.83129 0.84195 0.20032 0.0
O470 O 0.82976 0.82806 0.21035 0.0
N471 N 0.82163 0.86544 0.22579 0.0
C472 C 0.78292 0.85431 0.23092 0.0
C473 C 0.79722 0.87013 0.22387 0.0
C474 C 0.82143 0.8463 0.2341 0.0
N475 N 0.79818 0.83918 0.23724 0.0
O476 O 0.82639 0.91016 0.2144 0.0
H477 H 0.78999 0.88353 0.21731 0.0
H478 H 0.83778 0.83661 0.23728 0.0
O479 O 0.83857 0.86461 0.20125 0.0
C480 C 0.82941 0.92145 0.22483 0.0
O481 O 0.84468 0.91194 0.23306 0.0
N482 N 0.87072 0.85803 0.22145 0.0
C483 C 0.91237 0.83519 0.23115 0.0
C484 C 0.90512 0.83064 0.21876 0.0
C485 C 0.8842 0.84256 0.21399 0.0
C486 C 0.87776 0.8625 0.23345 0.0
C487 C 0.89833 0.85111 0.23854 0.0
H488 H 0.8798 0.8403 0.20423 0.0
H489 H 0.86754 0.87544 0.23913 0.0
H490 H 0.88199 0.87764 0.192 0.0
H491 H 0.92016 0.93831 0.20743 0.0
H492 H 0.76285 0.85304 0.23087 0.0
H493 H 0.91571 0.81836 0.21279 0.0
H494 H 0.90359 0.85532 0.24807 0.0
C495 C 0.82098 0.14057 0.96334 0.0
C496 C 0.81577 0.16081 0.95597 0.0
N497 N 0.83261 0.16197 0.94666 0.0
N498 N 0.84102 0.12866 0.95876 0.0
C499 C 0.8476 0.14214 0.94852 0.0
H500 H 0.81108 0.13545 0.97174 0.0
Co501 Co 0.85743 0.10168 0.96659 0.0
C502 C 0.87344 0.08516 0.94032 0.0
O503 O 0.85169 0.07791 0.93615 0.0
N504 N 0.87435 0.07434 0.97395 0.0
C505 C 0.88677 0.03513 0.97585 0.0
C506 C 0.87113 0.05097 0.96971 0.0
C507 C 0.89254 0.0721 0.98266 0.0
N508 N 0.90046 0.04837 0.98396 0.0
O509 O 0.82887 0.08037 0.96374 0.0
H510 H 0.85862 0.04567 0.96229 0.0
H511 H 0.90065 0.08754 0.98761 0.0
O512 O 0.87532 0.09389 0.95133 0.0
C513 C 0.81838 0.08271 0.97448 0.0
O514 O 0.82845 0.09768 0.98267 0.0
N515 N 0.88212 0.12314 0.9714 0.0
C516 C 0.90985 0.16077 0.98189 0.0
C517 C 0.9139 0.15379 0.96942 0.0
C518 C 0.89964 0.13476 0.96427 0.0
C519 C 0.87803 0.13002 0.98346 0.0
C520 C 0.89186 0.1486 0.98895 0.0
H521 H 0.90205 0.13019 0.95454 0.0
H522 H 0.86386 0.12105 0.98894 0.0
H523 H 0.86377 0.13823 0.94286 0.0
H524 H 0.80082 0.17387 0.95749 0.0
H525 H 0.88799 0.01534 0.97433 0.0
H526 H 0.9278 0.16302 0.96373 0.0
H527 H 0.88817 0.15373 0.99856 0.0
C528 C 0.89385 0.58399 0.71722 0.0
C529 C 0.91475 0.57908 0.71025 0.0
N530 N 0.9117 0.58884 0.69877 0.0
N531 N 0.87743 0.59683 0.71024 0.0
C532 C 0.88884 0.59929 0.69896 0.0
H533 H 0.89156 0.5798 0.72703 0.0
Co534 Co 0.84911 0.61298 0.71702 0.0
C535 C 0.83338 0.62786 0.69051 0.0
O536 O 0.82412 0.60643 0.687 0.0
N537 N 0.82064 0.62963 0.72348 0.0
C538 C 0.78086 0.64034 0.72568 0.0
C539 C 0.79715 0.62466 0.71978 0.0
C540 C 0.81799 0.64902 0.73145 0.0
N541 N 0.79401 0.65568 0.73303 0.0
O542 O 0.82902 0.5838 0.71395 0.0
H543 H 0.79202 0.61083 0.71295 0.0
H544 H 0.83315 0.65843 0.73601 0.0
O545 O 0.84271 0.63014 0.70137 0.0
C546 C 0.83191 0.57349 0.72469 0.0
O547 O 0.84601 0.58452 0.73297 0.0
N548 N 0.86967 0.63809 0.72209 0.0
C549 C 0.91382 0.65487 0.73187 0.0
C550 C 0.90798 0.65953 0.71929 0.0
C551 C 0.8855 0.65097 0.71452 0.0
C552 C 0.87453 0.63508 0.73449 0.0
C553 C 0.8964 0.64366 0.73964 0.0
H554 H 0.8822 0.65235 0.7046 0.0
H555 H 0.86215 0.6243 0.74029 0.0
H556 H 0.88151 0.61014 0.69132 0.0
H557 H 0.93128 0.56974 0.71353 0.0
H558 H 0.76094 0.64083 0.72439 0.0
H559 H 0.92116 0.6686 0.71312 0.0
H560 H 0.90038 0.64001 0.74939 0.0
C561 C 0.6687 0.63161 0.9661 0.0
C562 C 0.67506 0.65237 0.95934 0.0
N563 N 0.66098 0.65309 0.94895 0.0
N564 N 0.65078 0.61904 0.96003 0.0
C565 C 0.64641 0.63262 0.94959 0.0
H566 H 0.67606 0.6265 0.97513 0.0
Co567 Co 0.63447 0.59129 0.96671 0.0
C568 C 0.62138 0.57725 0.93948 0.0
O569 O 0.64374 0.57316 0.93502 0.0
N570 N 0.61766 0.56313 0.97326 0.0
C571 C 0.60643 0.52366 0.97596 0.0
C572 C 0.62166 0.53959 0.96944 0.0
C573 C 0.59948 0.56096 0.98199 0.0
N574 N 0.59243 0.53719 0.98381 0.0
O575 O 0.66407 0.57171 0.96404 0.0
H576 H 0.63472 0.53428 0.96225 0.0
H577 H 0.59145 0.57631 0.98702 0.0
O578 O 0.61871 0.58377 0.95084 0.0
C579 C 0.6732 0.57149 0.97512 0.0
O580 O 0.66038 0.5816 0.98421 0.0
N581 N 0.60852 0.61154 0.97105 0.0
C582 C 0.57622 0.64578 0.98098 0.0
C583 C 0.57385 0.63852 0.96849 0.0
C584 C 0.59043 0.62126 0.96361 0.0
C585 C 0.61146 0.61931 0.98306 0.0
C586 C 0.59511 0.63608 0.98834 0.0
H587 H 0.58925 0.61666 0.95385 0.0
H588 H 0.62659 0.61226 0.98862 0.0
H589 H 0.63198 0.62837 0.94291 0.0
H590 H 0.68875 0.66611 0.96199 0.0
H591 H 0.60534 0.50374 0.97483 0.0
H592 H 0.55961 0.64642 0.96256 0.0
H593 H 0.59757 0.64191 0.99794 0.0
C594 C 0.60989 0.41315 0.21363 0.0
C595 C 0.58882 0.41942 0.20713 0.0
N596 N 0.5876 0.40555 0.19665 0.0
N597 N 0.6223 0.39546 0.20737 0.0
C598 C 0.60821 0.39106 0.19709 0.0
H599 H 0.61529 0.42037 0.22264 0.0
Co600 Co 0.65066 0.37942 0.21367 0.0
C601 C 0.66464 0.36784 0.18601 0.0
O602 O 0.66844 0.39026 0.18159 0.0
N603 N 0.67919 0.36298 0.21972 0.0
C604 C 0.71834 0.35015 0.22104 0.0
C605 C 0.70205 0.36508 0.21464 0.0
C606 C 0.68214 0.34668 0.22922 0.0
N607 N 0.70575 0.33847 0.23023 0.0
O608 O 0.66987 0.40992 0.21185 0.0
H609 H 0.70656 0.37665 0.20668 0.0
H610 H 0.66721 0.34041 0.23515 0.0
O611 O 0.65826 0.36498 0.1974 0.0
C612 C 0.67009 0.41758 0.22324 0.0
O613 O 0.65998 0.40354 0.23187 0.0
N614 N 0.63117 0.35255 0.21759 0.0
C615 C 0.59922 0.31831 0.22822 0.0
C616 C 0.60668 0.31577 0.21569 0.0
C617 C 0.62273 0.33338 0.21046 0.0
C618 C 0.62346 0.35544 0.22959 0.0
C619 C 0.60826 0.33815 0.23522 0.0
H620 H 0.62732 0.33214 0.20069 0.0
H621 H 0.62952 0.37119 0.23496 0.0
H622 H 0.61268 0.37707 0.19023 0.0
H623 H 0.57501 0.43257 0.21024 0.0
H624 H 0.73794 0.3482 0.21905 0.0
H625 H 0.59935 0.30108 0.20987 0.0
H626 H 0.60314 0.34074 0.24492 0.0
C627 C 0.82451 0.35705 0.46262 0.0
C628 C 0.81735 0.33816 0.45478 0.0
N629 N 0.83456 0.33583 0.44573 0.0
N630 N 0.8461 0.36695 0.45853 0.0
C631 C 0.85169 0.35357 0.44815 0.0
H632 H 0.81486 0.36254 0.47101 0.0
Co633 Co 0.86454 0.3918 0.4669 0.0
C634 C 0.90599 0.40535 0.45016 0.0
O635 O 0.91986 0.40587 0.46022 0.0
N636 N 0.88284 0.41738 0.47527 0.0
C637 C 0.89699 0.45572 0.4785 0.0
C638 C 0.88149 0.44126 0.47146 0.0
C639 C 0.89965 0.41795 0.48475 0.0
N640 N 0.90851 0.44112 0.48686 0.0
O641 O 0.83782 0.41528 0.46418 0.0
H642 H 0.87058 0.44778 0.46365 0.0
H643 H 0.90581 0.40178 0.48984 0.0
O644 O 0.88279 0.39983 0.45106 0.0
C645 C 0.82673 0.41332 0.47477 0.0
O646 O 0.83552 0.39771 0.48304 0.0
N647 N 0.88712 0.36765 0.47151 0.0
C648 C 0.90263 0.32204 0.48063 0.0
C649 C 0.9094 0.32981 0.46853 0.0
C650 C 0.90113 0.35266 0.46405 0.0
C651 C 0.88131 0.36065 0.48339 0.0
C652 C 0.8887 0.33796 0.48811 0.0
H653 H 0.90473 0.35733 0.45442 0.0
H654 H 0.8697 0.3722 0.48913 0.0
H655 H 0.86819 0.35641 0.44257 0.0
H656 H 0.80127 0.32629 0.45597 0.0
H657 H 0.90027 0.47537 0.47722 0.0
H658 H 0.92064 0.31823 0.46251 0.0
H659 H 0.88293 0.33272 0.49745 0.0
C660 C 0.88764 0.41588 0.83259 0.0
C661 C 0.90803 0.4226 0.83955 0.0
N662 N 0.90919 0.4079 0.84974 0.0
N663 N 0.87562 0.39705 0.8383 0.0
C664 C 0.88923 0.39265 0.84875 0.0
H665 H 0.88256 0.42367 0.82365 0.0
Co666 Co 0.84853 0.37922 0.83136 0.0
C667 C 0.83427 0.36441 0.85803 0.0
O668 O 0.82592 0.38615 0.86161 0.0
N669 N 0.82119 0.36106 0.82486 0.0
C670 C 0.78222 0.34725 0.82385 0.0
C671 C 0.7984 0.36241 0.83011 0.0
C672 C 0.81832 0.3445 0.81541 0.0
N673 N 0.79472 0.33594 0.81458 0.0
O674 O 0.82666 0.40719 0.83443 0.0
H675 H 0.79382 0.37355 0.83818 0.0
H676 H 0.83305 0.33873 0.80922 0.0
O677 O 0.8428 0.36172 0.84701 0.0
C678 C 0.82781 0.41709 0.8235 0.0
O679 O 0.84144 0.40636 0.81493 0.0
N680 N 0.87058 0.35528 0.8263 0.0
C681 C 0.91613 0.34095 0.81686 0.0
C682 C 0.90916 0.33433 0.82911 0.0
C683 C 0.88609 0.34182 0.83372 0.0
C684 C 0.87633 0.35981 0.81412 0.0
C685 C 0.89899 0.3529 0.80921 0.0
H686 H 0.88193 0.33888 0.84348 0.0
H687 H 0.86417 0.37076 0.80837 0.0
H688 H 0.88505 0.37805 0.85536 0.0
H689 H 0.92157 0.43655 0.83696 0.0
H690 H 0.76285 0.34433 0.82615 0.0
H691 H 0.92179 0.32448 0.83521 0.0
H692 H 0.90357 0.35839 0.79975 0.0
C693 C 0.82493 0.61969 0.09587 0.0
C694 C 0.81573 0.63531 0.105 0.0
N695 N 0.83502 0.64639 0.11086 0.0
N696 N 0.84992 0.62093 0.09599 0.0
C697 C 0.85543 0.63671 0.10537 0.0
H698 H 0.81408 0.60967 0.08904 0.0
Co699 Co 0.87421 0.61085 0.08466 0.0
C700 C 0.90665 0.59889 0.10162 0.0
O701 O 0.91264 0.62125 0.09775 0.0
N702 N 0.89995 0.60124 0.07382 0.0
C703 C 0.93434 0.60492 0.06251 0.0
C704 C 0.91797 0.61707 0.07016 0.0
C705 C 0.90606 0.5793 0.0685 0.0
N706 N 0.92686 0.58117 0.06143 0.0
O707 O 0.85204 0.58694 0.07728 0.0
H708 H 0.91903 0.63632 0.07291 0.0
H709 H 0.89538 0.56243 0.06966 0.0
O710 O 0.88738 0.58845 0.09703 0.0
C711 C 0.84075 0.56656 0.07532 0.0
O712 O 0.84583 0.54706 0.08222 0.0
N713 N 0.86263 0.63405 0.07262 0.0
C714 C 0.87429 0.67173 0.05656 0.0
C715 C 0.86225 0.67729 0.0678 0.0
C716 C 0.85811 0.65796 0.07614 0.0
C717 C 0.86539 0.62875 0.06018 0.0
C718 C 0.87209 0.64761 0.05189 0.0
H719 H 0.85485 0.66291 0.08571 0.0
H720 H 0.8672 0.60976 0.05709 0.0
H721 H 0.87411 0.64315 0.10707 0.0
H722 H 0.7963 0.63913 0.10666 0.0
H723 H 0.95071 0.61288 0.05819 0.0
H724 H 0.86232 0.6961 0.07137 0.0
H725 H 0.88001 0.64266 0.04293 0.0
C726 C 0.60201 0.57549 0.33239 0.0
C727 C 0.58279 0.56729 0.33983 0.0
N728 N 0.58574 0.57657 0.35144 0.0
N729 N 0.61739 0.58995 0.33914 0.0
C730 C 0.60725 0.58971 0.35081 0.0
H731 H 0.60323 0.57295 0.3224 0.0
Co732 Co 0.6413 0.61225 0.33211 0.0
C733 C 0.639 0.64439 0.35571 0.0
O734 O 0.62035 0.65728 0.35141 0.0
N735 N 0.66533 0.6355 0.32561 0.0
C736 C 0.68494 0.67171 0.32338 0.0
C737 C 0.66716 0.65906 0.32985 0.0
C738 C 0.68196 0.63478 0.31602 0.0
N739 N 0.69425 0.65659 0.31463 0.0
O740 O 0.66688 0.58713 0.33334 0.0
H741 H 0.65522 0.66755 0.33663 0.0
H742 H 0.68425 0.61913 0.30985 0.0
O743 O 0.6485 0.62678 0.34916 0.0
C744 C 0.66354 0.577 0.32258 0.0
O745 O 0.64625 0.586 0.31525 0.0
N746 N 0.61532 0.63352 0.32754 0.0
C747 C 0.57535 0.65114 0.31353 0.0
C748 C 0.57299 0.64724 0.32648 0.0
C749 C 0.59282 0.63729 0.33319 0.0
C750 C 0.61733 0.63667 0.31491 0.0
C751 C 0.5978 0.64524 0.30779 0.0
H752 H 0.58944 0.63171 0.34271 0.0
H753 H 0.6335 0.63048 0.30989 0.0
H754 H 0.61431 0.60061 0.35846 0.0
H755 H 0.56676 0.55707 0.33657 0.0
H756 H 0.68947 0.69118 0.32443 0.0
H757 H 0.55592 0.65128 0.33141 0.0
H758 H 0.60024 0.64637 0.29777 0.0
C759 C 0.66565 0.35158 0.58796 0.0
C760 C 0.67251 0.33193 0.59533 0.0
N761 N 0.66014 0.33331 0.60626 0.0
N762 N 0.64903 0.36575 0.59409 0.0
C763 C 0.64602 0.35409 0.60527 0.0
H764 H 0.67174 0.35459 0.57847 0.0
Co765 Co 0.63277 0.39267 0.58623 0.0
C766 C 0.60082 0.41731 0.60511 0.0
O767 O 0.58567 0.42202 0.59582 0.0
N768 N 0.61708 0.41995 0.57783 0.0
C769 C 0.60903 0.45931 0.57283 0.0
C770 C 0.62337 0.44386 0.58001 0.0
C771 C 0.59888 0.42157 0.56907 0.0
N772 N 0.59353 0.4453 0.56595 0.0
O773 O 0.66372 0.41098 0.58558 0.0
H774 H 0.6371 0.44982 0.58673 0.0
H775 H 0.58948 0.40587 0.56502 0.0
O776 O 0.62157 0.40613 0.60292 0.0
C777 C 0.6708 0.40683 0.57432 0.0
O778 O 0.65684 0.39279 0.56718 0.0
N779 N 0.60463 0.3732 0.58513 0.0
C780 C 0.56636 0.34074 0.5797 0.0
C781 C 0.56997 0.34893 0.59197 0.0
C782 C 0.5896 0.36491 0.59455 0.0
C783 C 0.6026 0.36364 0.57344 0.0
C784 C 0.58318 0.34797 0.5704 0.0
H785 H 0.59292 0.36985 0.60412 0.0
H786 H 0.61579 0.36889 0.5663 0.0
H787 H 0.63333 0.36034 0.61242 0.0
H788 H 0.6848 0.31709 0.59253 0.0
H789 H 0.60954 0.47937 0.57297 0.0
H790 H 0.55803 0.34275 0.59952 0.0
H791 H 0.5812 0.34198 0.5608 0.0
C792 C 0.10995 0.41706 0.33599 0.0
C793 C 0.09014 0.42263 0.34355 0.0
N794 N 0.09017 0.40702 0.35339 0.0
N795 N 0.12283 0.39804 0.34096 0.0
C796 C 0.11025 0.39226 0.35158 0.0
H797 H 0.11404 0.42587 0.32716 0.0
Co798 Co 0.14983 0.38263 0.33284 0.0
C799 C 0.16893 0.34367 0.34989 0.0
O800 O 0.17339 0.33025 0.33993 0.0
N801 N 0.17738 0.36745 0.32437 0.0
C802 C 0.21663 0.35739 0.32008 0.0
C803 C 0.20142 0.3723 0.32708 0.0
C804 C 0.17873 0.34938 0.31553 0.0
N805 N 0.20238 0.34269 0.31288 0.0
O806 O 0.17021 0.41147 0.33588 0.0
H807 H 0.20769 0.38527 0.3341 0.0
H808 H 0.16279 0.33998 0.31173 0.0
O809 O 0.1594 0.36542 0.34873 0.0
C810 C 0.16775 0.42274 0.32541 0.0
O811 O 0.15368 0.41269 0.31679 0.0
N812 N 0.12871 0.3574 0.3282 0.0
C813 C 0.09447 0.32625 0.31736 0.0
C814 C 0.1006 0.32329 0.32998 0.0
C815 C 0.11772 0.33948 0.33535 0.0
C816 C 0.1214 0.3613 0.31618 0.0
C817 C 0.10465 0.34556 0.31045 0.0
H818 H 0.1215 0.33791 0.3452 0.0
H819 H 0.1292 0.37639 0.31084 0.0
H820 H 0.1154 0.37721 0.35772 0.0
H821 H 0.07618 0.43651 0.3416 0.0
H822 H 0.2367 0.35721 0.32051 0.0
H823 H 0.09212 0.30881 0.33558 0.0
H824 H 0.09964 0.34847 0.30076 0.0
C825 C 0.32407 0.35924 0.09032 0.0
C826 C 0.31799 0.33891 0.09737 0.0
N827 N 0.33614 0.33495 0.10576 0.0
N828 N 0.34594 0.36872 0.09421 0.0
C829 C 0.35288 0.35343 0.10371 0.0
H830 H 0.31321 0.36612 0.08262 0.0
Co831 Co 0.36196 0.39578 0.08618 0.0
C832 C 0.39246 0.42287 0.10576 0.0
O833 O 0.40262 0.43668 0.09706 0.0
N834 N 0.37753 0.42304 0.07761 0.0
C835 C 0.38431 0.46143 0.0705 0.0
C836 C 0.36962 0.44687 0.07802 0.0
C837 C 0.3972 0.42386 0.06965 0.0
N838 N 0.40168 0.44693 0.06523 0.0
O839 O 0.33134 0.41477 0.08676 0.0
H840 H 0.35451 0.45362 0.08372 0.0
H841 H 0.40816 0.408 0.06702 0.0
O842 O 0.37512 0.40738 0.10286 0.0
C843 C 0.32319 0.41184 0.07558 0.0
O844 O 0.33569 0.39749 0.06794 0.0
N845 N 0.38962 0.37623 0.08368 0.0
C846 C 0.43091 0.35314 0.07357 0.0
C847 C 0.43108 0.36141 0.08602 0.0
C848 C 0.41015 0.37303 0.09092 0.0
C849 C 0.38806 0.36554 0.07221 0.0
C850 C 0.40869 0.35457 0.0668 0.0
H851 H 0.41085 0.37955 0.10038 0.0
H852 H 0.37133 0.3675 0.06677 0.0
H853 H 0.37024 0.35524 0.10869 0.0
H854 H 0.3014 0.32776 0.09628 0.0
H855 H 0.38265 0.48128 0.06927 0.0
H856 H 0.44725 0.35923 0.09191 0.0
H857 H 0.40735 0.34842 0.05721 0.0
C858 C 0.39594 0.57897 0.83596 0.0
C859 C 0.41501 0.5719 0.84367 0.0
N860 N 0.4137 0.58524 0.85428 0.0
N861 N 0.38225 0.59665 0.84159 0.0
C862 C 0.39358 0.60006 0.8528 0.0
H863 H 0.39297 0.57221 0.82659 0.0
Co864 Co 0.35606 0.61354 0.83346 0.0
C865 C 0.33455 0.64871 0.85159 0.0
O866 O 0.33193 0.6638 0.84206 0.0
N867 N 0.32923 0.62993 0.82501 0.0
C868 C 0.28979 0.63827 0.82017 0.0
C869 C 0.30521 0.62427 0.82751 0.0
C870 C 0.32769 0.64785 0.81608 0.0
N871 N 0.30391 0.65316 0.81302 0.0
O872 O 0.33618 0.58345 0.83363 0.0
H873 H 0.29912 0.61106 0.83448 0.0
H874 H 0.34345 0.65715 0.81193 0.0
O875 O 0.34371 0.62689 0.84987 0.0
C876 C 0.34015 0.57528 0.82254 0.0
O877 O 0.35502 0.5879 0.81517 0.0
N878 N 0.3772 0.64027 0.8314 0.0
C879 C 0.41719 0.67007 0.82478 0.0
C880 C 0.40857 0.66963 0.83717 0.0
C881 C 0.38857 0.65435 0.84033 0.0
C882 C 0.38596 0.64 0.81949 0.0
C883 C 0.40544 0.65511 0.81591 0.0
H884 H 0.38324 0.65306 0.85001 0.0
H885 H 0.37783 0.62773 0.81268 0.0
H886 H 0.38757 0.61348 0.85965 0.0
H887 H 0.42947 0.55876 0.84136 0.0
H888 H 0.26969 0.63805 0.82034 0.0
H889 H 0.41747 0.68055 0.84438 0.0
H890 H 0.41098 0.65514 0.80618 0.0
C891 C 0.17562 0.62379 0.59337 0.0
C892 C 0.18483 0.63991 0.60221 0.0
N893 N 0.16591 0.64762 0.60949 0.0
N894 N 0.15092 0.62111 0.59502 0.0
C895 C 0.1458 0.63521 0.60519 0.0
H896 H 0.18596 0.61689 0.58547 0.0
Co897 Co 0.12741 0.61154 0.5828 0.0
C898 C 0.08815 0.58183 0.59738 0.0
O899 O 0.07919 0.57094 0.58744 0.0
N900 N 0.10379 0.60275 0.57007 0.0
C901 C 0.07537 0.60619 0.55503 0.0
C902 C 0.08969 0.61882 0.56345 0.0
C903 C 0.09843 0.58038 0.56483 0.0
N904 N 0.08065 0.58189 0.55591 0.0
O905 O 0.14627 0.58203 0.57887 0.0
H906 H 0.08966 0.63872 0.56446 0.0
H907 H 0.10705 0.56317 0.5677 0.0
O908 O 0.10718 0.59607 0.59642 0.0
C909 C 0.1587 0.58912 0.56926 0.0
O910 O 0.15608 0.61208 0.56536 0.0
N911 N 0.1116 0.64156 0.58524 0.0
C912 C 0.08962 0.68709 0.58161 0.0
C913 C 0.07718 0.66853 0.58843 0.0
C914 C 0.08854 0.6456 0.59011 0.0
C915 C 0.12503 0.66041 0.58007 0.0
C916 C 0.11443 0.68354 0.57825 0.0
H917 H 0.07788 0.63071 0.59419 0.0
H918 H 0.14338 0.6568 0.57639 0.0
H919 H 0.12711 0.63833 0.60854 0.0
H920 H 0.20351 0.64736 0.60235 0.0
H921 H 0.06169 0.6144 0.54889 0.0
H922 H 0.05786 0.67058 0.59107 0.0
H923 H 0.12455 0.69755 0.57305 0.0
C924 C 0.1108 0.57516 0.21284 0.0
C925 C 0.0918 0.56707 0.20535 0.0
N926 N 0.09427 0.57776 0.19404 0.0
N927 N 0.12551 0.59085 0.20635 0.0
C928 C 0.11502 0.59193 0.19486 0.0
H929 H 0.11285 0.57087 0.22264 0.0
Co930 Co 0.15092 0.60947 0.21391 0.0
C931 C 0.17027 0.64457 0.19533 0.0
O932 O 0.17123 0.66031 0.20466 0.0
N933 N 0.17702 0.62754 0.22191 0.0
C934 C 0.21595 0.63943 0.22566 0.0
C935 C 0.20106 0.62421 0.21867 0.0
C936 C 0.17797 0.64486 0.2311 0.0
N937 N 0.20146 0.65248 0.2335 0.0
O938 O 0.17198 0.5807 0.21406 0.0
H939 H 0.2074 0.6119 0.21137 0.0
H940 H 0.16193 0.65197 0.23595 0.0
O941 O 0.16264 0.62221 0.19728 0.0
C942 C 0.16807 0.57297 0.22522 0.0
O943 O 0.15285 0.58547 0.23243 0.0
N944 N 0.12858 0.63534 0.21536 0.0
C945 C 0.08602 0.66236 0.22039 0.0
C946 C 0.09512 0.66079 0.20815 0.0
C947 C 0.1164 0.64694 0.2058 0.0
C948 C 0.11952 0.63629 0.2272 0.0
C949 C 0.09873 0.65022 0.23 0.0
H950 H 0.12185 0.64436 0.19622 0.0
H951 H 0.12803 0.62542 0.23451 0.0
H952 H 0.12184 0.6036 0.18739 0.0
H953 H 0.07647 0.5554 0.20828 0.0
H954 H 0.23588 0.64119 0.22473 0.0
H955 H 0.08545 0.6694 0.20042 0.0
H956 H 0.0926 0.65117 0.23963 0.0
C957 C 0.16552 0.35765 0.96199 0.0
C958 C 0.17317 0.33786 0.95491 0.0
N959 N 0.16051 0.33808 0.94409 0.0
N960 N 0.1482 0.37067 0.95569 0.0
C961 C 0.14567 0.3583 0.94472 0.0
H962 H 0.17128 0.36135 0.97146 0.0
Co963 Co 0.12966 0.39637 0.96313 0.0
C964 C 0.09612 0.41708 0.94397 0.0
O965 O 0.07998 0.41919 0.95311 0.0
N966 N 0.1117 0.4225 0.97104 0.0
C967 C 0.10044 0.46132 0.97531 0.0
C968 C 0.11607 0.44666 0.96842 0.0
C969 C 0.09336 0.42311 0.97978 0.0
N970 N 0.08604 0.44652 0.98242 0.0
O971 O 0.15925 0.41681 0.96381 0.0
H972 H 0.12952 0.45327 0.96168 0.0
H973 H 0.08484 0.40688 0.98385 0.0
O974 O 0.11799 0.40843 0.94626 0.0
C975 C 0.16619 0.41336 0.97515 0.0
O976 O 0.15258 0.39914 0.9824 0.0
N977 N 0.10321 0.37458 0.96427 0.0
C978 C 0.07993 0.3296 0.96866 0.0
C979 C 0.07928 0.34025 0.95673 0.0
C980 C 0.09119 0.36285 0.9547 0.0
C981 C 0.1032 0.3647 0.97595 0.0
C982 C 0.09127 0.34255 0.97842 0.0
H983 H 0.09249 0.36939 0.94524 0.0
H984 H 0.11381 0.37336 0.9833 0.0
H985 H 0.13257 0.36338 0.93753 0.0
H986 H 0.1859 0.32349 0.95787 0.0
H987 H 0.0998 0.48137 0.97509 0.0
H988 H 0.07077 0.33067 0.94894 0.0
H989 H 0.09155 0.33537 0.98788 0.0
C990 C 0.38723 0.41406 0.71325 0.0
C991 C 0.40695 0.4208 0.70582 0.0
N992 N 0.40838 0.40481 0.6962 0.0
N993 N 0.37587 0.39398 0.70837 0.0
C994 C 0.38926 0.38878 0.69792 0.0
H995 H 0.38205 0.42297 0.7219 0.0
Co996 Co 0.34901 0.37714 0.71609 0.0
C997 C 0.33502 0.33622 0.69917 0.0
O998 O 0.33305 0.323 0.70944 0.0
N999 N 0.32139 0.36065 0.72382 0.0
C1000 C 0.28191 0.34899 0.72621 0.0
C1001 C 0.29804 0.36331 0.71939 0.0
C1002 C 0.31877 0.34437 0.73345 0.0
N1003 N 0.29492 0.33697 0.73504 0.0
O1004 O 0.32774 0.40564 0.71313 0.0
H1005 H 0.29307 0.37441 0.71135 0.0
H1006 H 0.3339 0.3375 0.73905 0.0
O1007 O 0.34121 0.3593 0.69996 0.0
C1008 C 0.3295 0.41591 0.72393 0.0
O1009 O 0.34342 0.40533 0.73243 0.0
N1010 N 0.37112 0.35285 0.72113 0.0
C1011 C 0.41297 0.33135 0.73148 0.0
C1012 C 0.40704 0.32726 0.71888 0.0
C1013 C 0.38605 0.33847 0.7138 0.0
C1014 C 0.37674 0.35664 0.73339 0.0
C1015 C 0.39733 0.34581 0.73881 0.0
H1016 H 0.38287 0.33675 0.70389 0.0
H1017 H 0.36566 0.36897 0.73899 0.0
H1018 H 0.38534 0.37339 0.69177 0.0
H1019 H 0.41988 0.43576 0.70764 0.0
H1020 H 0.26222 0.34685 0.72447 0.0
H1021 H 0.4188 0.31599 0.71295 0.0
H1022 H 0.4015 0.34953 0.74853 0.0
C1023 C 0.32782 0.63398 0.46487 0.0
C1024 C 0.32077 0.65432 0.45798 0.0
N1025 N 0.33421 0.655 0.44732 0.0
N1026 N 0.34567 0.62155 0.45869 0.0
C1027 C 0.34904 0.63469 0.44798 0.0
H1028 H 0.32127 0.62937 0.47413 0.0
Co1029 Co 0.36433 0.59549 0.4658 0.0
C1030 C 0.38164 0.57757 0.44002 0.0
O1031 O 0.36234 0.56332 0.43779 0.0
N1032 N 0.38334 0.56904 0.47268 0.0
C1033 C 0.39721 0.53033 0.47479 0.0
C1034 C 0.38219 0.54579 0.46801 0.0
C1035 C 0.39969 0.56717 0.48229 0.0
N1036 N 0.40823 0.54375 0.4838 0.0
O1037 O 0.33701 0.57262 0.46282 0.0
H1038 H 0.37101 0.54025 0.46012 0.0
H1039 H 0.40517 0.58242 0.4882 0.0
O1040 O 0.38251 0.59007 0.45013 0.0
C1041 C 0.3273 0.57302 0.47381 0.0
O1042 O 0.3379 0.58662 0.48243 0.0
N1043 N 0.38738 0.61872 0.47077 0.0
C1044 C 0.40096 0.66488 0.47973 0.0
C1045 C 0.40709 0.65787 0.46746 0.0
C1046 C 0.39997 0.63456 0.4631 0.0
C1047 C 0.38284 0.62478 0.48292 0.0
C1048 C 0.38952 0.64772 0.48761 0.0
H1049 H 0.40241 0.63048 0.45332 0.0
H1050 H 0.37219 0.61253 0.48882 0.0
H1051 H 0.36291 0.63005 0.44107 0.0
H1052 H 0.30764 0.66821 0.46102 0.0
H1053 H 0.40008 0.51076 0.47309 0.0
H1054 H 0.41648 0.67059 0.46118 0.0
H1055 H 0.38457 0.65242 0.49713 0.0
H1056 H 0.24192 0.16564 0.23526 0.0
H1057 H 0.22786 0.19801 0.24924 0.0
H1058 H 0.30295 0.20934 0.26194 0.0
H1059 H 0.31762 0.17799 0.24738 0.0
H1060 H 0.22846 0.20235 0.27365 0.0
H1061 H 0.28458 0.27906 0.2536 0.0
H1062 H 0.282 0.24926 0.24609 0.0
H1063 H 0.3032 0.25361 0.25889 0.0
C1064 C 0.2557 0.17512 0.24081 0.0
C1065 C 0.28113 0.16915 0.23988 0.0
C1066 C 0.24749 0.19362 0.24894 0.0
C1067 C 0.26436 0.20658 0.25647 0.0
C1068 C 0.28961 0.20016 0.25596 0.0
H1069 H 0.24756 0.31987 0.31304 0.0
H1070 H 0.26164 0.28658 0.29949 0.0
C1071 C 0.29795 0.18184 0.24769 0.0
C1072 C 0.2553 0.22654 0.26492 0.0
H1073 H 0.26304 0.28766 0.27247 0.0
C1074 C 0.23596 0.22103 0.27334 0.0
C1075 C 0.26498 0.25099 0.2645 0.0
C1076 C 0.28465 0.25869 0.2552 0.0
C1077 C 0.22631 0.23914 0.28142 0.0
C1078 C 0.23621 0.26342 0.28108 0.0
C1079 C 0.25555 0.26897 0.27272 0.0
C1080 C 0.22705 0.28336 0.28942 0.0
C1081 C 0.20589 0.23208 0.29042 0.0
C1082 C 0.20291 0.2928 0.28819 0.0
C1083 C 0.19479 0.31225 0.29583 0.0
C1084 C 0.21065 0.32263 0.3049 0.0
C1085 C 0.23482 0.31287 0.30609 0.0
C1086 C 0.24293 0.29361 0.2984 0.0
H1087 H 0.20379 0.21164 0.29128 0.0
H1088 H 0.20954 0.23994 0.29983 0.0
H1089 H 0.18802 0.2398 0.28704 0.0
H1090 H 0.19048 0.28539 0.28117 0.0
H1091 H 0.17621 0.31931 0.29447 0.0
H1092 H 0.9393 0.98203 0.56712 0.0
H1093 H 0.97189 -0.00233 0.55337 0.0
H1094 H 0.96131 0.93525 0.52882 0.0
H1095 H 0.92801 0.91964 0.54248 0.0
H1096 H 0.01702 0.97365 0.54527 0.0
H1097 H 0.95388 -0.00272 0.50582 0.0
H1098 H 0.94239 0.99184 0.52144 0.0
H1099 H 0.95249 0.96627 0.51203 0.0
C1100 C 0.94366 0.97167 0.55875 0.0
C1101 C 0.93071 0.94972 0.55583 0.0
C1102 C 0.9625 0.98055 0.55095 0.0
C1103 C 0.96886 0.96781 0.54 0.0
C1104 C 0.95648 0.94556 0.53715 0.0
H1105 H 0.06889 0.03413 0.4832 0.0
H1106 H 0.0435 0.00263 0.49399 0.0
C1107 C 0.93759 0.93656 0.54502 0.0
C1108 C 0.98816 0.97844 0.53159 0.0
H1109 H 0.99558 0.00963 0.504 0.0
C1110 C 0.01243 0.98119 0.53617 0.0
C1111 C 0.98222 0.98811 0.51967 0.0
C1112 C 0.95633 0.98594 0.5144 0.0
C1113 C 0.03065 0.99415 0.52935 0.0
C1114 C 0.0243 0.00515 0.51778 0.0
C1115 C 0.00042 0.00126 0.51289 0.0
C1116 C 0.04121 0.02298 0.51137 0.0
C1117 C 0.05644 -0.00368 0.53472 0.0
C1118 C 0.04837 0.0448 0.51753 0.0
C1119 C 0.06278 0.06265 0.51143 0.0
C1120 C 0.07036 0.05921 0.49898 0.0
C1121 C 0.06365 0.03711 0.49285 0.0
C1122 C 0.049 0.01922 0.49897 0.0
H1123 H 0.0606 0.98061 0.54111 0.0
H1124 H 0.07073 -0.00315 0.52723 0.0
H1125 H 0.05783 0.01371 0.5402 0.0
H1126 H 0.04223 0.04838 0.527 0.0
H1127 H 0.06771 0.07942 0.5164 0.0
H1128 H 0.32236 0.69934 0.80906 0.0
H1129 H 0.30424 0.73173 0.79573 0.0
H1130 H 0.24723 0.68054 0.78396 0.0
H1131 H 0.2648 0.6486 0.79755 0.0
H1132 H 0.29664 0.73482 0.77114 0.0
H1133 H 0.20492 0.7374 0.79466 0.0
H1134 H 0.23102 0.72089 0.80113 0.0
H1135 H 0.21262 0.70718 0.78891 0.0
C1136 C 0.30605 0.69506 0.80355 0.0
C1137 C 0.29483 0.67157 0.8044 0.0
C1138 C 0.29562 0.71356 0.796 0.0
C1139 C 0.27391 0.70883 0.78909 0.0
C1140 C 0.26339 0.685 0.78953 0.0
H1141 H 0.18468 0.79584 0.73685 0.0
H1142 H 0.20167 0.76316 0.75039 0.0
C1143 C 0.27356 0.66668 0.79721 0.0
C1144 C 0.26257 0.72861 0.78122 0.0
H1145 H 0.20839 0.75966 0.77554 0.0
C1146 C 0.27739 0.74035 0.77216 0.0
C1147 C 0.23736 0.73578 0.78249 0.0
C1148 C 0.22062 0.72483 0.7924 0.0
C1149 C 0.26768 0.75869 0.76422 0.0
C1150 C 0.24251 0.7659 0.76552 0.0
C1151 C 0.22764 0.75411 0.77453 0.0
C1152 C 0.23142 0.78592 0.75775 0.0
C1153 C 0.28441 0.76973 0.75434 0.0
C1154 C 0.24193 0.80976 0.75768 0.0
C1155 C 0.23241 0.82826 0.7499 0.0
C1156 C 0.21183 0.82351 0.74221 0.0
C1157 C 0.2005 0.80001 0.74271 0.0
C1158 C 0.21026 0.78135 0.7504 0.0
H1159 H 0.30022 0.75726 0.75211 0.0
H1160 H 0.27403 0.77358 0.74559 0.0
H1161 H 0.29225 0.78746 0.75783 0.0
H1162 H 0.25768 0.81404 0.76358 0.0
H1163 H 0.24117 0.84634 0.74988 0.0
H1164 H 0.44384 0.92517 0.99006 0.0
H1165 H 0.47526 0.93988 1.00488 0.0
H1166 H 0.43924 0.01117 1.00633 0.0
H1167 H 0.4076 -0.0035 0.99173 0.0
H1168 H 0.50776 0.98241 1.00216 0.0
H1169 H 0.44544 0.9894 0.0434 0.0
H1170 H 0.43769 0.97134 0.02975 0.0
H1171 H 0.4341 0.00446 0.02955 0.0
C1172 C 0.44246 0.94387 0.99366 0.0
C1173 C 0.42317 0.95966 0.98979 0.0
C1174 C 0.4605 0.95228 1.00204 0.0
C1175 C 0.45937 0.97649 1.00678 0.0
C1176 C 0.44024 0.99231 1.00289 0.0
H1177 H 0.54798 0.06834 0.05565 0.0
H1178 H 0.51773 0.05161 0.04076 0.0
C1179 C 0.4223 0.98398 0.99448 0.0
C1180 C 0.47831 0.98544 1.01569 0.0
H1181 H 0.48556 0.00749 0.04535 0.0
C1182 C 0.503 0.98773 1.01163 0.0
C1183 C 0.47195 0.99231 0.02803 0.0
C1184 C 0.44591 0.98908 0.03302 0.0
C1185 C 0.52143 -0.00264 1.01952 0.0
C1186 C 0.51497 0.00461 0.03179 0.0
C1187 C 0.49035 0.00206 0.03589 0.0
C1188 C 0.53357 0.01478 0.04053 0.0
C1189 C 0.54758 0.00029 1.01464 0.0
C1190 C 0.55234 -0.00046 0.04532 0.0
C1191 C 0.56959 0.00902 0.05381 0.0
C1192 C 0.56838 0.03394 0.05764 0.0
C1193 C 0.54959 0.04919 0.05276 0.0
C1194 C 0.53223 0.03963 0.04433 0.0
H1195 H 0.54857 -0.00194 1.00434 0.0
H1196 H 0.55515 0.0188 1.01717 0.0
H1197 H 0.55964 0.98604 1.019 0.0
H1198 H 0.55351 0.98024 0.04257 0.0
H1199 H 0.58396 -0.00313 0.05731 0.0
H1200 H 0.24724 0.65684 0.24381 0.0
H1201 H 0.26208 0.68954 0.25759 0.0
H1202 H 0.18963 0.72339 0.25715 0.0
H1203 H 0.17461 0.69089 0.24307 0.0
H1204 H 0.26242 0.7415 0.25273 0.0
H1205 H 0.20673 0.71686 0.29477 0.0
H1206 H 0.21119 0.69569 0.28191 0.0
H1207 H 0.18944 0.72074 0.28055 0.0
C1208 C 0.2344 0.67126 0.24654 0.0
C1209 C 0.2097 0.67118 0.24224 0.0
C1210 C 0.24293 0.6899 0.25448 0.0
C1211 C 0.22694 0.70878 0.25845 0.0
C1212 C 0.20219 0.70876 0.25433 0.0
H1213 H 0.24839 0.83796 0.30509 0.0
H1214 H 0.23255 0.80586 0.29125 0.0
C1215 C 0.19362 0.69011 0.2463 0.0
C1216 C 0.23652 0.72869 0.26668 0.0
H1217 H 0.23106 0.75341 0.29591 0.0
C1218 C 0.2556 0.74411 0.26218 0.0
C1219 C 0.22759 0.73199 0.279 0.0
C1220 C 0.20775 0.71536 0.28443 0.0
C1221 C 0.26584 0.76293 0.26964 0.0
C1222 C 0.25702 0.76614 0.28197 0.0
C1223 C 0.23783 0.75082 0.28645 0.0
C1224 C 0.26711 0.78564 0.2903 0.0
C1225 C 0.28567 0.77957 0.2642 0.0
C1226 C 0.29186 0.7849 0.29438 0.0
C1227 C 0.30101 0.80317 0.30246 0.0
C1228 C 0.28553 0.82251 0.30661 0.0
C1229 C 0.26081 0.82322 0.30232 0.0
C1230 C 0.25168 0.80492 0.29434 0.0
H1231 H 0.2865 0.77826 0.25385 0.0
H1232 H 0.28236 0.79921 0.26683 0.0
H1233 H 0.30402 0.77403 0.26798 0.0
H1234 H 0.30399 0.76996 0.29149 0.0
H1235 H 0.32 0.80176 0.30566 0.0
H1236 H 0.55215 0.95713 0.47607 0.0
H1237 H 0.52512 0.98373 0.48884 0.0
H1238 H 0.56378 0.95981 0.522 0.0
H1239 H 0.5908 0.93355 0.50914 0.0
H1240 H 0.494 0.9642 0.50632 0.0
H1241 H 0.55538 0.03354 0.52875 0.0
H1242 H 0.56469 0.01602 0.51516 0.0
H1243 H 0.56635 0.0023 0.53047 0.0
C1244 C 0.55551 0.95861 0.48602 0.0
C1245 C 0.57385 0.94398 0.49166 0.0
C1246 C 0.53995 0.97351 0.49332 0.0
C1247 C 0.54254 0.974 0.50639 0.0
C1248 C 0.56176 0.96027 0.51194 0.0
H1249 H 0.42581 0.99452 0.56067 0.0
H1250 H 0.4576 0.97922 0.54665 0.0
C1251 C 0.57725 0.94535 0.50462 0.0
C1252 C 0.52339 0.98622 0.51429 0.0
H1253 H 0.51525 0.02772 0.53804 0.0
C1254 C 0.49862 0.9783 0.51316 0.0
C1255 C 0.52934 0.0047 0.52317 0.0
C1256 C 0.55535 0.01484 0.5244 0.0
C1257 C 0.47979 0.98787 0.52085 0.0
C1258 C 0.48594 0.00552 0.53013 0.0
C1259 C 0.51057 0.01399 0.53103 0.0
C1260 C 0.46707 0.0152 0.53905 0.0
C1261 C 0.45346 0.97905 0.51888 0.0
C1262 C 0.4623 0.04071 0.53983 0.0
C1263 C 0.44416 0.04976 0.54803 0.0
C1264 C 0.43033 0.03349 0.55572 0.0
C1265 C 0.43565 0.0079 0.55501 0.0
C1266 C 0.45385 -0.00105 0.54686 0.0
H1267 H 0.45073 0.9717 0.50929 0.0
H1268 H 0.44933 0.96382 0.52556 0.0
H1269 H 0.43992 0.99423 0.52049 0.0
H1270 H 0.47241 0.05365 0.53396 0.0
H1271 H 0.44112 0.06954 0.54822 0.0
H1272 H 0.24043 0.14973 0.80377 0.0
H1273 H 0.25653 0.18262 0.79034 0.0
H1274 H 0.18785 0.22278 0.79432 0.0
H1275 H 0.17164 0.19006 0.80805 0.0
H1276 H 0.20731 0.21877 0.76896 0.0
H1277 H 0.27801 0.25257 0.80264 0.0
H1278 H 0.27834 0.2197 0.79989 0.0
H1279 H 0.25189 0.23362 0.80733 0.0
C1280 C 0.22875 0.16561 0.80192 0.0
C1281 C 0.20479 0.16728 0.80715 0.0
C1282 C 0.23801 0.18441 0.79422 0.0
C1283 C 0.22357 0.20534 0.79153 0.0
C1284 C 0.19936 0.20682 0.79637 0.0
H1285 H 0.24858 0.33533 0.7448 0.0
H1286 H 0.23108 0.3034 0.75841 0.0
C1287 C 0.19006 0.18801 0.80415 0.0
C1288 C 0.23384 0.22547 0.78357 0.0
H1289 H 0.2803 0.26864 0.78206 0.0
C1290 C 0.22315 0.22982 0.77184 0.0
C1291 C 0.25461 0.23972 0.78734 0.0
C1292 C 0.26632 0.23639 0.80003 0.0
C1293 C 0.23305 0.24767 0.76362 0.0
C1294 C 0.25385 0.26195 0.76739 0.0
C1295 C 0.26443 0.25766 0.77917 0.0
C1296 C 0.26474 0.28162 0.75931 0.0
C1297 C 0.22155 0.25055 0.75086 0.0
C1298 C 0.2898 0.28058 0.75566 0.0
C1299 C 0.29995 0.29898 0.74791 0.0
C1300 C 0.2852 0.3188 0.74369 0.0
C1301 C 0.2603 0.32008 0.74766 0.0
C1302 C 0.25023 0.30178 0.75542 0.0
H1303 H 0.21074 0.23382 0.74815 0.0
H1304 H 0.20863 0.26655 0.75096 0.0
H1305 H 0.23596 0.25406 0.74363 0.0
H1306 H 0.3014 0.26528 0.75863 0.0
H1307 H 0.3191 0.29731 0.74496 0.0
H1308 H 0.05918 0.98401 0.06717 0.0
H1309 H 0.02754 0.00141 0.05358 0.0
H1310 H 0.0347 0.93881 0.02883 0.0
H1311 H 0.06691 0.92125 0.04241 0.0
H1312 H 0.03319 0.01495 0.0286 0.0
H1313 H 0.95927 0.94384 0.03458 0.0
H1314 H 0.98541 0.94633 0.04506 0.0
H1315 H 0.9891 0.93192 0.03005 0.0
C1316 C 0.05426 0.97391 0.05881 0.0
C1317 C 0.06592 0.95131 0.05582 0.0
C1318 C 0.03599 0.98387 0.05108 0.0
C1319 C 0.02867 0.9714 0.04022 0.0
C1320 C 0.03983 0.94859 0.03727 0.0
H1321 H 0.9274 0.00641 0.98042 0.0
H1322 H 0.95858 0.98887 0.99423 0.0
C1323 C 0.05824 0.93857 0.04503 0.0
C1324 C 0.01003 0.98296 0.03184 0.0
H1325 H 0.95218 0.97508 1.01943 0.0
C1326 C 0.01543 0.00628 0.02661 0.0
C1327 C 0.98687 0.97165 0.02931 0.0
C1328 C 0.97962 0.94715 0.03511 0.0
C1329 C -0.00153 0.0184 1.01874 0.0
C1330 C 0.97534 0.00706 1.01618 0.0
C1331 C 0.96992 0.98375 1.02142 0.0
C1332 C 0.9568 0.01858 1.00773 0.0
C1333 C 0.00567 0.04295 1.01299 0.0
C1334 C 0.94539 0.04124 1.01071 0.0
C1335 C 0.92721 0.05133 1.00284 0.0
C1336 C 0.92003 0.03886 0.99187 0.0
C1337 C 0.93192 0.01636 0.98888 0.0
C1338 C 0.94994 0.00631 0.99674 0.0
H1339 H 0.02597 0.04645 1.01365 0.0
H1340 H 0.00013 0.04372 1.00301 0.0
H1341 H 0.99591 0.0581 1.01798 0.0
H1342 H 0.95017 0.05087 1.01925 0.0
H1343 H 0.91836 0.06854 1.00551 0.0
H1344 H 0.71795 0.83689 0.80536 0.0
H1345 H 0.7406 0.8147 0.78867 0.0
H1346 H 0.68867 0.75394 0.79156 0.0
H1347 H 0.66627 0.77584 0.80796 0.0
H1348 H 0.7616 0.76393 0.79169 0.0
H1349 H 0.69213 0.76973 0.75363 0.0
H1350 H 0.69252 0.79103 0.76665 0.0
H1351 H 0.67944 0.76052 0.76846 0.0
C1352 C 0.7113 0.81898 0.80223 0.0
C1353 C 0.69056 0.80794 0.80798 0.0
C1354 C 0.72422 0.80631 0.79279 0.0
C1355 C 0.71616 0.78276 0.78885 0.0
C1356 C 0.69504 0.77218 0.79436 0.0
H1357 H 0.74914 0.65685 0.74438 0.0
H1358 H 0.73237 0.68987 0.75748 0.0
C1359 C 0.68238 0.78463 0.80379 0.0
C1360 C 0.73019 0.7682 0.77949 0.0
H1361 H 0.72281 0.73787 0.75179 0.0
C1362 C 0.75345 0.7586 0.78283 0.0
C1363 C 0.71929 0.76109 0.76804 0.0
C1364 C 0.69455 0.77128 0.7639 0.0
C1365 C 0.76553 0.74097 0.7753 0.0
C1366 C 0.75425 0.73328 0.764 0.0
C1367 C 0.73143 0.74371 0.76046 0.0
C1368 C 0.76492 0.71335 0.75607 0.0
C1369 C 0.78952 0.72974 0.77987 0.0
C1370 C 0.78877 0.71556 0.75085 0.0
C1371 C 0.79846 0.69658 0.74338 0.0
C1372 C 0.78433 0.67519 0.74086 0.0
C1373 C 0.76038 0.67318 0.74602 0.0
C1374 C 0.75081 0.69202 0.75354 0.0
H1375 H 0.79241 0.73305 0.79001 0.0
H1376 H 0.78989 0.70944 0.77815 0.0
H1377 H 0.8053 0.73828 0.77475 0.0
H1378 H 0.79979 0.73209 0.75242 0.0
H1379 H 0.8168 0.69889 0.73938 0.0
H1380 H 0.81646 0.17082 0.29529 0.0
H1381 H 0.80307 0.20413 0.28131 0.0
H1382 H 0.73525 0.21181 0.30242 0.0
H1383 H 0.74877 0.17903 0.31664 0.0
H1384 H 0.75931 0.20413 0.26675 0.0
H1385 H 0.76126 0.28351 0.29974 0.0
H1386 H 0.77693 0.2546 0.30291 0.0
H1387 H 0.74393 0.25706 0.30512 0.0
C1388 C 0.79887 0.17982 0.29707 0.0
C1389 C 0.7837 0.17224 0.30709 0.0
C1390 C 0.7912 0.19877 0.28904 0.0
C1391 C 0.76834 0.21062 0.29094 0.0
C1392 C 0.75316 0.20317 0.30093 0.0
H1393 H 0.68463 0.3237 0.2522 0.0
H1394 H 0.69984 0.29208 0.2665 0.0
C1395 C 0.76078 0.1842 0.30895 0.0
C1396 C 0.75977 0.22989 0.28209 0.0
H1397 H 0.74259 0.29065 0.28 0.0
C1398 C 0.7558 0.2231 0.26961 0.0
C1399 C 0.75506 0.25453 0.2859 0.0
C1400 C 0.7597 0.263 0.29912 0.0
C1401 C 0.74674 0.2402 0.26085 0.0
C1402 C 0.74212 0.26491 0.26463 0.0
C1403 C 0.74616 0.2717 0.27712 0.0
C1404 C 0.73294 0.284 0.2558 0.0
C1405 C 0.74156 0.23142 0.24772 0.0
C1406 C 0.74665 0.29021 0.24508 0.0
C1407 C 0.73781 0.30806 0.23673 0.0
C1408 C 0.71519 0.32036 0.23899 0.0
C1409 C 0.70183 0.31441 0.24993 0.0
C1410 C 0.7106 0.29642 0.25822 0.0
H1411 H 0.73929 0.21094 0.24732 0.0
H1412 H 0.72454 0.24019 0.24391 0.0
H1413 H 0.75744 0.2365 0.24161 0.0
H1414 H 0.76425 0.28128 0.24318 0.0
H1415 H 0.74865 0.31191 0.22844 0.0
H1416 H 0.81888 0.29778 0.80329 0.0
H1417 H 0.80084 0.26688 0.7891 0.0
H1418 H 0.72948 0.30244 0.79234 0.0
H1419 H 0.74741 0.33356 0.8062 0.0
H1420 H 0.76052 0.23379 0.7939 0.0
H1421 H 0.73964 0.29743 0.75449 0.0
H1422 H 0.76055 0.30568 0.76698 0.0
H1423 H 0.72753 0.30731 0.76931 0.0
C1424 C 0.79945 0.29921 0.80083 0.0
C1425 C 0.78461 0.31818 0.80587 0.0
C1426 C 0.78912 0.28145 0.7928 0.0
C1427 C 0.76387 0.28253 0.78956 0.0
C1428 C 0.74907 0.30145 0.79456 0.0
H1429 H 0.66805 0.19318 0.74125 0.0
H1430 H 0.68369 0.22311 0.75664 0.0
C1431 C 0.75932 0.3191 0.80259 0.0
C1432 C 0.75276 0.26367 0.78114 0.0
H1433 H 0.72308 0.25671 0.75317 0.0
C1434 C 0.75243 0.23876 0.78497 0.0
C1435 C 0.74202 0.27024 0.76954 0.0
C1436 C 0.74259 0.29657 0.76475 0.0
C1437 C 0.74143 0.22026 0.77756 0.0
C1438 C 0.73089 0.2268 0.7659 0.0
C1439 C 0.73105 0.25174 0.76213 0.0
C1440 C 0.72084 0.20788 0.75718 0.0
C1441 C 0.74084 0.19394 0.78236 0.0
C1442 C 0.73648 0.18944 0.75238 0.0
C1443 C 0.72761 0.17237 0.74365 0.0
C1444 C 0.7029 0.17343 0.73942 0.0
C1445 C 0.6871 0.19173 0.74437 0.0
C1446 C 0.69605 0.20891 0.75311 0.0
H1447 H 0.74287 0.19322 0.79268 0.0
H1448 H 0.72325 0.18451 0.77973 0.0
H1449 H 0.7565 0.18345 0.77819 0.0
H1450 H 0.75576 0.18851 0.75521 0.0
H1451 H 0.7402 0.15835 0.74019 0.0
H1452 H 0.81649 0.79273 0.23525 0.0
H1453 H 0.80078 0.75539 0.24582 0.0
H1454 H 0.74807 0.80028 0.26609 0.0
H1455 H 0.7628 0.83717 0.25493 0.0
H1456 H 0.79948 0.73987 0.26823 0.0
H1457 H 0.70164 0.74954 0.25391 0.0
H1458 H 0.72582 0.76888 0.24746 0.0
H1459 H 0.71138 0.77669 0.26217 0.0
C1460 C 0.8016 0.79448 0.24201 0.0
C1461 C 0.79073 0.81769 0.24429 0.0
C1462 C 0.79254 0.77318 0.248 0.0
C1463 C 0.77266 0.77477 0.25652 0.0
C1464 C 0.76264 0.79825 0.2592 0.0
H1465 H 0.7357 0.68313 0.31777 0.0
H1466 H 0.75688 0.70765 0.30186 0.0
C1467 C 0.77126 0.81939 0.25297 0.0
C1468 C 0.76289 0.75209 0.26288 0.0
H1469 H 0.70916 0.72306 0.2717 0.0
C1470 C 0.77973 0.73603 0.26879 0.0
C1471 C 0.73717 0.74643 0.2634 0.0
C1472 C 0.71804 0.76117 0.25626 0.0
C1473 C 0.77154 0.71541 0.27573 0.0
C1474 C 0.74573 0.71116 0.2772 0.0
C1475 C 0.72895 0.72638 0.27073 0.0
C1476 C 0.73566 0.6929 0.28638 0.0
C1477 C 0.79071 0.69851 0.28145 0.0
C1478 C 0.71668 0.67612 0.28307 0.0
C1479 C 0.70439 0.66211 0.29228 0.0
C1480 C 0.71077 0.66488 0.30491 0.0
C1481 C 0.7307 0.68049 0.30807 0.0
C1482 C 0.74288 0.69444 0.29895 0.0
H1483 H 0.80773 0.69782 0.27558 0.0
H1484 H 0.79618 0.70587 0.29073 0.0
H1485 H 0.78352 0.67934 0.28266 0.0
H1486 H 0.71061 0.67473 0.27345 0.0
H1487 H 0.68875 0.6506 0.28965 0.0
H1488 H 0.54897 0.55944 0.98979 0.0
H1489 H 0.51657 0.54326 1.00382 0.0
H1490 H 0.56093 0.47828 1.01087 0.0
H1491 H 0.59327 0.49427 0.99682 0.0
H1492 H 0.49316 0.49012 1.00132 0.0
H1493 H 0.54055 0.51193 0.04622 0.0
H1494 H 0.5467 0.52902 0.032 0.0
H1495 H 0.55883 0.49831 0.03389 0.0
C1496 C 0.55185 0.54181 0.99441 0.0
C1497 C 0.57361 0.52808 0.99223 0.0
C1498 C 0.53332 0.53256 1.00235 0.0
C1499 C 0.53648 0.50966 1.00838 0.0
C1500 C 0.55824 0.49602 1.00631 0.0
H1501 H 0.44701 0.42572 0.06181 0.0
H1502 H 0.47996 0.4399 0.04763 0.0
C1503 C 0.5766 0.5051 0.99825 0.0
C1504 C 0.51689 0.49977 1.01673 0.0
H1505 H 0.50284 0.48959 0.04743 0.0
C1506 C 0.49519 0.49004 1.0114 0.0
C1507 C 0.51979 0.49957 0.02984 0.0
C1508 C 0.54263 0.51036 0.03592 0.0
C1509 C 0.47627 0.47993 1.0189 0.0
C1510 C 0.47903 0.47996 0.03204 0.0
C1511 C 0.50084 0.48954 0.03735 0.0
C1512 C 0.45903 0.47097 0.04043 0.0
C1513 C 0.4536 0.46895 1.01274 0.0
C1514 C 0.43645 0.4838 0.04107 0.0
C1515 C 0.41763 0.47575 0.04911 0.0
C1516 C 0.42101 0.45472 0.05671 0.0
C1517 C 0.44367 0.44181 0.056 0.0
C1518 C 0.46258 0.44997 0.04797 0.0
H1519 H 0.45671 0.46539 1.00264 0.0
H1520 H 0.44817 0.45129 1.01736 0.0
H1521 H 0.43785 0.48208 1.01366 0.0
H1522 H 0.43345 0.5002 0.03541 0.0
H1523 H 0.40035 0.48595 0.0493 0.0
H1524 H 0.07431 0.53374 0.56324 0.0
H1525 H 0.04988 0.50172 0.55246 0.0
H1526 H 0.03314 0.55378 0.52306 0.0
H1527 H 0.05815 0.58516 0.53336 0.0
H1528 H 0.00029 0.50214 0.54678 0.0
H1529 H 0.05387 0.49453 0.50293 0.0
H1530 H 0.06624 0.5095 0.51667 0.0
H1531 H 0.04611 0.52618 0.50617 0.0
C1532 C 0.06593 0.53815 0.55433 0.0
C1533 C 0.06827 0.56212 0.5492 0.0
C1534 C 0.05179 0.51988 0.54823 0.0
C1535 C 0.03995 0.52516 0.53682 0.0
C1536 C 0.04253 0.54896 0.53167 0.0
H1537 H 0.91124 0.48555 0.4983 0.0
H1538 H 0.94497 0.50124 0.51131 0.0
C1539 C 0.05664 0.56708 0.53769 0.0
C1540 C 0.02361 0.50661 0.53055 0.0
H1541 H 0.0106 0.48192 0.50186 0.0
C1542 C 0.00287 0.49729 0.53704 0.0
C1543 C 0.02701 0.49992 0.51785 0.0
C1544 C 0.04967 0.50786 0.51055 0.0
C1545 C 0.98466 0.48301 0.53094 0.0
C1546 C 0.98716 0.47803 0.51804 0.0
C1547 C 0.00863 0.48591 0.51174 0.0
C1548 C 0.96636 0.46739 0.51069 0.0
C1549 C 0.96234 0.47399 0.53817 0.0
C1550 C 0.96714 0.44303 0.50606 0.0
C1551 C 0.94769 0.4339 0.49861 0.0
C1552 C 0.92741 0.44917 0.49553 0.0
C1553 C 0.92666 0.47339 0.50039 0.0
C1554 C 0.94588 0.48237 0.50788 0.0
H1555 H 0.96519 0.47535 0.54842 0.0
H1556 H 0.94595 0.48538 0.53562 0.0
H1557 H 0.95808 0.45442 0.53572 0.0
H1558 H 0.98288 0.43122 0.50809 0.0
H1559 H 0.94893 0.41527 0.4949 0.0
H1560 H 0.06953 0.42324 1.00344 0.0
H1561 H 0.03747 0.43818 1.01795 0.0
H1562 H 0.02682 0.50292 0.99489 0.0
H1563 H 0.05808 0.48793 0.98031 0.0
H1564 H 0.03808 0.48275 0.03132 0.0
H1565 H 0.95585 0.4792 1.00054 0.0
H1566 H 0.98421 0.46278 0.997 0.0
H1567 H 0.9813 0.49525 0.9933 0.0
C1568 C 0.06003 0.44043 1.00137 0.0
C1569 C 0.06645 0.45443 0.99073 0.0
C1570 C 0.04181 0.44899 1.00969 0.0
C1571 C 0.02947 0.47148 1.0074 0.0
C1572 C 0.0357 0.48528 0.99673 0.0
H1573 H 0.95022 0.58787 0.03943 0.0
H1574 H 0.97327 0.55706 0.02742 0.0
C1575 C 0.05387 0.47682 0.98847 0.0
C1576 C 0.01122 0.48165 1.01645 0.0
H1577 H 0.95345 0.50753 1.01801 0.0
C1578 C 0.01935 0.48762 0.02854 0.0
C1579 C 0.98676 0.48793 1.01282 0.0
C1580 C 0.97643 0.48072 1.00024 0.0
C1581 C 0.00424 0.50123 0.03677 0.0
C1582 C 0.98041 0.50886 0.03281 0.0
C1583 C 0.97178 0.5017 1.021 0.0
C1584 C 0.9655 0.52679 0.04012 0.0
C1585 C 0.01434 0.50872 0.04934 0.0
C1586 C 0.95312 0.51984 0.05115 0.0
C1587 C 0.93975 0.5375 0.05804 0.0
C1588 C 0.93885 0.56235 0.05403 0.0
C1589 C 0.95089 0.56898 0.04284 0.0
C1590 C 0.96396 0.55138 0.03594 0.0
H1591 H 0.03381 0.50251 0.05073 0.0
H1592 H 0.0136 0.5292 0.05036 0.0
H1593 H 0.00263 0.50054 0.05684 0.0
H1594 H 0.95399 0.50087 0.05446 0.0
H1595 H 0.93074 0.53194 0.06665 0.0
H1596 H 0.55062 0.42202 0.5592 0.0
H1597 H 0.51848 0.43792 0.54513 0.0
H1598 H 0.56085 0.50505 0.53982 0.0
H1599 H 0.59333 0.48901 0.55341 0.0
H1600 H 0.48967 0.48025 0.54719 0.0
H1601 H 0.54676 0.48449 0.50415 0.0
H1602 H 0.5564 0.46765 0.51789 0.0
H1603 H 0.56069 0.50071 0.51698 0.0
C1604 C 0.55331 0.43998 0.55487 0.0
C1605 C 0.5747 0.45417 0.55743 0.0
C1606 C 0.5348 0.44913 0.54691 0.0
C1607 C 0.5374 0.47254 0.54127 0.0
C1608 C 0.55863 0.48675 0.54386 0.0
H1609 H 0.4472 0.5683 0.49412 0.0
H1610 H 0.47806 0.55119 0.50866 0.0
C1611 C 0.5771 0.47763 0.55177 0.0
C1612 C 0.51778 0.48252 0.53289 0.0
H1613 H 0.50817 0.50619 0.50365 0.0
C1614 C 0.49366 0.48574 0.53765 0.0
C1615 C 0.52297 0.48963 0.52041 0.0
C1616 C 0.54804 0.48522 0.5145 0.0
C1617 C 0.47481 0.4965 0.53036 0.0
C1618 C 0.4802 0.5041 0.51799 0.0
C1619 C 0.5042 0.50064 0.5132 0.0
C1620 C 0.46094 0.5149 0.50973 0.0
C1621 C 0.44937 0.50012 0.53598 0.0
C1622 C 0.44115 0.50019 0.50555 0.0
C1623 C 0.42365 0.50987 0.49726 0.0
C1624 C 0.42553 0.53449 0.49296 0.0
C1625 C 0.44513 0.54937 0.49735 0.0
C1626 C 0.46281 0.53958 0.50558 0.0
H1627 H 0.44956 0.49808 0.54631 0.0
H1628 H 0.44196 0.51873 0.53357 0.0
H1629 H 0.43647 0.48602 0.53211 0.0
H1630 H 0.43949 0.48105 0.50853 0.0
H1631 H 0.40863 0.49802 0.49416 0.0
H1632 H 0.31587 0.16609 0.19249 0.0
H1633 H 0.31721 0.2042 0.18003 0.0
H1634 H 0.33638 0.16175 0.14736 0.0
H1635 H 0.33535 0.12343 0.15978 0.0
H1636 H 0.369 0.20755 0.15488 0.0
H1637 H 0.2675 0.22518 0.15028 0.0
H1638 H 0.27952 0.21539 0.1652 0.0
H1639 H 0.2797 0.19423 0.15231 0.0
C1640 C 0.32015 0.16475 0.18262 0.0
C1641 C 0.32567 0.14159 0.17717 0.0
C1642 C 0.3209 0.18662 0.17552 0.0
C1643 C 0.327 0.18586 0.16278 0.0
C1644 C 0.33174 0.16277 0.1572 0.0
H1645 H 0.31559 0.2895 0.10264 0.0
H1646 H 0.31447 0.25534 0.11744 0.0
C1647 C 0.33095 0.14084 0.16429 0.0
C1648 C 0.32911 0.2092 0.15536 0.0
H1649 H 0.29461 0.25415 0.14107 0.0
C1650 C 0.35277 0.21785 0.15189 0.0
C1651 C 0.30793 0.22265 0.15154 0.0
C1652 C 0.28213 0.21401 0.15494 0.0
C1653 C 0.35579 0.23933 0.1445 0.0
C1654 C 0.33456 0.25261 0.1405 0.0
C1655 C 0.31091 0.24411 0.14417 0.0
C1656 C 0.33618 0.27395 0.13158 0.0
C1657 C 0.38164 0.24713 0.14069 0.0
C1658 C 0.34896 0.29604 0.13449 0.0
C1659 C 0.3496 0.31594 0.12594 0.0
C1660 C 0.33725 0.31419 0.11438 0.0
C1661 C 0.32487 0.29187 0.11151 0.0
C1662 C 0.32427 0.27215 0.11998 0.0
H1663 H 0.39549 0.23227 0.14242 0.0
H1664 H 0.38222 0.25224 0.13064 0.0
H1665 H 0.3872 0.26366 0.14619 0.0
H1666 H 0.35802 0.29809 0.14345 0.0
H1667 H 0.35913 0.33288 0.1285 0.0
H1668 H 0.95326 0.07503 0.34997 0.0
H1669 H 0.9863 0.07466 0.36554 0.0
H1670 H 0.93535 0.10234 0.39326 0.0
H1671 H 0.90177 0.1024 0.37768 0.0
H1672 H 0.98932 0.12574 0.39057 0.0
H1673 H 0.98365 0.0233 0.39668 0.0
H1674 H 0.98253 0.03552 0.38101 0.0
H1675 H 0.95742 0.04154 0.3916 0.0
C1676 C 0.94891 0.08091 0.35938 0.0
C1677 C 0.92465 0.08837 0.3626 0.0
C1678 C 0.96793 0.08085 0.36825 0.0
C1679 C 0.96325 0.08829 0.38056 0.0
C1680 C 0.93933 0.09654 0.38378 0.0
H1681 H 0.04183 0.05777 0.4481 0.0
H1682 H 0.01431 0.06032 0.43025 0.0
C1683 C 0.92019 0.0966 0.37487 0.0
C1684 C 0.98317 0.08636 0.39011 0.0
H1685 H 0.01533 0.04413 0.40748 0.0
C1686 C 0.99507 0.10795 0.39431 0.0
C1687 C 0.99059 0.06312 0.39491 0.0
C1688 C 0.9779 0.03946 0.39092 0.0
C1689 C 0.01407 0.10693 0.40335 0.0
C1690 C 0.02164 0.08358 0.40816 0.0
C1691 C 0.00979 0.06201 0.40378 0.0
C1692 C 0.03987 0.0811 0.41861 0.0
C1693 C 0.02519 0.13094 0.40795 0.0
C1694 C 0.06399 0.09123 0.41801 0.0
C1695 C 0.07993 0.09006 0.42841 0.0
C1696 C 0.07212 0.07841 0.43953 0.0
C1697 C 0.04855 0.06703 0.43976 0.0
C1698 C 0.03267 0.06847 0.4295 0.0
H1699 H 0.01338 0.14714 0.40556 0.0
H1700 H 0.02787 0.13052 0.41823 0.0
H1701 H 0.04358 0.13376 0.40346 0.0
H1702 H 0.07037 0.10042 0.4096 0.0
H1703 H 0.09792 0.09902 0.42788 0.0
H1704 H 0.1438 0.85064 0.67429 0.0
H1705 H 0.1409 0.81763 0.65863 0.0
H1706 H 0.21427 0.79262 0.66857 0.0
H1707 H 0.21643 0.82426 0.6848 0.0
H1708 H 0.16403 0.79941 0.63854 0.0
H1709 H 0.17517 0.7319 0.67704 0.0
H1710 H 0.17162 0.76465 0.67985 0.0
H1711 H 0.20159 0.75201 0.67587 0.0
C1712 C 0.15955 0.83851 0.67294 0.0
C1713 C 0.18012 0.83969 0.68101 0.0
C1714 C 0.15782 0.81949 0.664 0.0
C1715 C 0.17688 0.8018 0.66282 0.0
C1716 C 0.19883 0.80527 0.66967 0.0
H1717 H 0.20527 0.66618 0.62229 0.0
H1718 H 0.2066 0.70419 0.63472 0.0
C1719 C 0.20029 0.82377 0.67877 0.0
C1720 C 0.17342 0.7789 0.65514 0.0
H1721 H 0.17785 0.7156 0.65642 0.0
C1722 C 0.16688 0.78109 0.64248 0.0
C1723 C 0.17666 0.75482 0.66029 0.0
C1724 C 0.18136 0.75067 0.67404 0.0
C1725 C 0.16457 0.76005 0.63475 0.0
C1726 C 0.16891 0.73615 0.63981 0.0
C1727 C 0.17487 0.73392 0.6525 0.0
C1728 C 0.16783 0.71316 0.6321 0.0
C1729 C 0.15815 0.76357 0.62116 0.0
C1730 C 0.14547 0.70523 0.62668 0.0
C1731 C 0.14464 0.68346 0.61953 0.0
C1732 C 0.16617 0.66901 0.6177 0.0
C1733 C 0.1884 0.67684 0.62338 0.0
C1734 C 0.18919 0.69859 0.63052 0.0
H1735 H 0.16009 0.78322 0.61818 0.0
H1736 H 0.17018 0.75185 0.61516 0.0
H1737 H 0.13859 0.75781 0.61961 0.0
H1738 H 0.12863 0.71588 0.62796 0.0
H1739 H 0.12721 0.67841 0.61521 0.0
H1740 H 0.57458 0.88309 0.8715 0.0
H1741 H 0.54003 0.88418 0.88637 0.0
H1742 H 0.51923 0.95649 0.8728 0.0
H1743 H 0.554 0.95566 0.85796 0.0
H1744 H 0.51797 0.95092 0.89974 0.0
H1745 H 0.46634 0.87623 0.8751 0.0
H1746 H 0.49798 0.86935 0.87919 0.0
H1747 H 0.49158 0.89311 0.86788 0.0
C1748 C 0.56304 0.89949 0.87183 0.0
C1749 C 0.56718 0.91939 0.86351 0.0
C1750 C 0.54306 0.89993 0.88026 0.0
C1751 C 0.52678 0.92025 0.88058 0.0
C1752 C 0.53144 0.94054 0.87267 0.0
H1753 H 0.3759 0.92209 0.9104 0.0
H1754 H 0.41326 0.92457 0.89731 0.0
C1755 C 0.55131 0.94005 0.86419 0.0
C1756 C 0.50451 0.92018 0.8889 0.0
H1757 H 0.44866 0.89141 0.89373 0.0
C1758 C 0.50279 0.93792 0.89845 0.0
C1759 C 0.4846 0.90338 0.88712 0.0
C1760 C 0.48497 0.88452 0.87672 0.0
C1761 C 0.48177 0.93929 0.90628 0.0
C1762 C 0.46194 0.92222 0.90463 0.0
C1763 C 0.46372 0.90453 0.89503 0.0
C1764 C 0.4392 0.92225 0.9127 0.0
C1765 C 0.48092 0.95944 0.91604 0.0
C1766 C 0.44113 0.92031 0.92575 0.0
C1767 C 0.41981 0.91943 0.93324 0.0
C1768 C 0.3959 0.91962 0.92789 0.0
C1769 C 0.39394 0.92183 0.91484 0.0
C1770 C 0.41535 0.92311 0.90734 0.0
H1771 H 0.49318 0.97528 0.91351 0.0
H1772 H 0.46175 0.96651 0.91739 0.0
H1773 H 0.48762 0.95185 0.92507 0.0
H1774 H 0.45915 0.91902 0.93017 0.0
H1775 H 0.42216 0.91827 0.94327 0.0
H1776 H 0.35747 0.84763 0.37368 0.0
H1777 H 0.36145 0.81639 0.3903 0.0
H1778 H 0.29152 0.78413 0.3793 0.0
H1779 H 0.28792 0.81463 0.36252 0.0
H1780 H 0.3346 0.79988 0.41055 0.0
H1781 H 0.33801 0.72596 0.37478 0.0
H1782 H 0.33971 0.75845 0.37079 0.0
H1783 H 0.31012 0.74398 0.3738 0.0
C1784 C 0.34258 0.8344 0.37508 0.0
C1785 C 0.32241 0.83356 0.36675 0.0
C1786 C 0.345 0.81633 0.3845 0.0
C1787 C 0.32722 0.79728 0.38577 0.0
C1788 C 0.30591 0.79804 0.37825 0.0
H1789 H 0.29934 0.69113 0.44409 0.0
H1790 H 0.30041 0.72564 0.42947 0.0
C1791 C 0.30365 0.81581 0.3688 0.0
C1792 C 0.3312 0.77605 0.39454 0.0
H1793 H 0.33265 0.71258 0.39592 0.0
C1794 C 0.33436 0.78082 0.40733 0.0
C1795 C 0.33145 0.75107 0.39035 0.0
C1796 C 0.32991 0.74453 0.37667 0.0
C1797 C 0.33663 0.76138 0.41606 0.0
C1798 C 0.33539 0.73644 0.41195 0.0
C1799 C 0.33329 0.73166 0.39911 0.0
C1800 C 0.33516 0.71514 0.42087 0.0
C1801 C 0.34035 0.76768 0.42965 0.0
C1802 C 0.35404 0.69718 0.42074 0.0
C1803 C 0.35369 0.67731 0.42926 0.0
C1804 C 0.33423 0.67475 0.43803 0.0
C1805 C 0.315 0.6925 0.4378 0.0
C1806 C 0.31552 0.7124 0.42939 0.0
H1807 H 0.34751 0.78687 0.43085 0.0
H1808 H 0.32228 0.76628 0.4346 0.0
H1809 H 0.3535 0.75455 0.43413 0.0
H1810 H 0.36928 0.69876 0.41416 0.0
H1811 H 0.36892 0.66429 0.42905 0.0
H1812 H 0.42913 0.09904 0.60324 0.0
H1813 H 0.46391 0.09894 0.61783 0.0
H1814 H 0.4197 0.05832 0.64454 0.0
H1815 H 0.38457 0.05843 0.62998 0.0
H1816 H 0.46675 0.11797 0.64244 0.0
H1817 H 0.48338 0.01643 0.64146 0.0
H1818 H 0.46479 0.03209 0.62986 0.0
H1819 H 0.452 0.02528 0.64501 0.0
C1820 C 0.4266 0.09024 0.61225 0.0
C1821 C 0.40385 0.07886 0.61543 0.0
C1822 C 0.44664 0.09013 0.62057 0.0
C1823 C 0.44458 0.0784 0.63224 0.0
C1824 C 0.42189 0.06715 0.6355 0.0
H1825 H 0.54144 0.05158 0.69506 0.0
H1826 H 0.50853 0.05311 0.67967 0.0
C1827 C 0.40176 0.06732 0.62718 0.0
C1828 C 0.46613 0.07819 0.64099 0.0
H1829 H 0.50618 0.0396 0.65629 0.0
C1830 C 0.47545 0.10086 0.64546 0.0
C1831 C 0.47757 0.05587 0.64487 0.0
C1832 C 0.46913 0.03101 0.63999 0.0
C1833 C 0.4953 0.10178 0.65401 0.0
C1834 C 0.50667 0.0794 0.65798 0.0
C1835 C 0.49754 0.05677 0.65332 0.0
C1836 C 0.52734 0.07881 0.66732 0.0
C1837 C 0.50323 0.12673 0.65901 0.0
C1838 C 0.54937 0.09242 0.66554 0.0
C1839 C 0.56832 0.09199 0.67454 0.0
C1840 C 0.56596 0.07759 0.68551 0.0
C1841 C 0.54415 0.06331 0.68698 0.0
C1842 C 0.52516 0.06401 0.67807 0.0
H1843 H 0.48838 0.14084 0.6579 0.0
H1844 H 0.50821 0.12556 0.66906 0.0
H1845 H 0.51973 0.1333 0.65373 0.0
H1846 H 0.55199 0.1034 0.65716 0.0
H1847 H 0.58462 0.10323 0.67285 0.0
H1848 H 0.19964 0.31013 0.93709 0.0
H1849 H 0.19933 0.27439 0.92306 0.0
H1850 H 0.12097 0.28487 0.91668 0.0
H1851 H 0.12134 0.321 0.93059 0.0
H1852 H 0.17433 0.23103 0.92512 0.0
H1853 H 0.14647 0.27904 0.88139 0.0
H1854 H 0.15607 0.29572 0.89516 0.0
H1855 H 0.12521 0.28308 0.89415 0.0
C1856 C 0.18239 0.30495 0.93261 0.0
C1857 C 0.16057 0.31851 0.93489 0.0
C1858 C 0.18221 0.28446 0.92461 0.0
C1859 C 0.16018 0.27695 0.91871 0.0
C1860 C 0.13833 0.29055 0.9209 0.0
H1861 H 0.13942 0.13852 0.87587 0.0
H1862 H 0.1367 0.16909 0.89289 0.0
C1863 C 0.13855 0.31126 0.92883 0.0
C1864 C 0.16029 0.25464 0.91048 0.0
H1865 H 0.15019 0.23539 0.88049 0.0
C1866 C 0.16887 0.23197 0.91538 0.0
C1867 C 0.15335 0.25584 0.89774 0.0
C1868 C 0.14497 0.27975 0.89173 0.0
C1869 C 0.17092 0.21066 0.90787 0.0
C1870 C 0.16408 0.21196 0.89517 0.0
C1871 C 0.15518 0.23444 0.89029 0.0
C1872 C 0.16802 0.1909 0.88647 0.0
C1873 C 0.18119 0.18706 0.91336 0.0
C1874 C 0.18718 0.19242 0.87765 0.0
C1875 C 0.18892 0.17495 0.86809 0.0
C1876 C 0.17139 0.15566 0.86706 0.0
C1877 C 0.15339 0.15292 0.8765 0.0
C1878 C 0.15166 0.17054 0.88614 0.0
H1879 H 0.18689 0.18935 0.92326 0.0
H1880 H 0.16693 0.1722 0.91283 0.0
H1881 H 0.1975 0.18085 0.90782 0.0
H1882 H 0.20005 0.2079 0.87777 0.0
H1883 H 0.20292 0.17763 0.86093 0.0
H1884 H 0.93526 0.94556 0.18712 0.0
H1885 H 0.96943 0.94268 0.1722 0.0
H1886 H 0.956 0.86422 0.16828 0.0
H1887 H 0.92165 0.86697 0.18331 0.0
H1888 H 0.01283 0.91526 0.17353 0.0
H1889 H 0.95696 0.88805 0.1321 0.0
H1890 H 0.94294 0.8998 0.14623 0.0
H1891 H 0.95351 0.86824 0.14551 0.0
C1892 C 0.93953 0.92764 0.18312 0.0
C1893 C 0.92562 0.9065 0.18647 0.0
C1894 C 0.95912 0.92603 0.17456 0.0
C1895 C 0.96531 0.90328 0.16905 0.0
C1896 C 0.95138 0.88209 0.17226 0.0
H1897 H 0.09813 0.87901 0.12146 0.0
H1898 H 0.06955 0.87676 0.13947 0.0
C1899 C 0.93166 0.88369 0.18084 0.0
C1900 C 0.98637 0.90204 0.15999 0.0
H1901 H 0.00033 0.89089 0.12933 0.0
C1902 C 0.01014 0.90968 0.16389 0.0
C1903 C 0.98287 0.89499 0.14738 0.0
C1904 C 0.95769 0.88749 0.14247 0.0
C1905 C 0.03032 0.91075 0.15551 0.0
C1906 C 0.02671 0.90392 0.14291 0.0
C1907 C 0.0031 0.8959 0.13904 0.0
C1908 C 0.04642 0.90718 0.13328 0.0
C1909 C 0.05516 0.9201 0.15998 0.0
C1910 C 0.04344 0.92554 0.12414 0.0
C1911 C 0.05976 0.927 0.11403 0.0
C1912 C 0.07942 0.91003 0.11275 0.0
C1913 C 0.08346 0.89261 0.12232 0.0
C1914 C 0.06699 0.89116 0.13253 0.0
H1915 H 0.05447 0.92661 0.16982 0.0
H1916 H 0.06907 0.90501 0.15927 0.0
H1917 H 0.0616 0.9356 0.15394 0.0
H1918 H 0.02781 0.93815 0.12456 0.0
H1919 H 0.05609 0.94056 0.10679 0.0
H1920 H 0.67109 0.70174 0.95267 0.0
H1921 H 0.67045 0.73502 0.93723 0.0
H1922 H 0.64959 0.68259 0.9087 0.0
H1923 H 0.64973 0.64911 0.92427 0.0
H1924 H 0.69669 0.74308 0.9163 0.0
H1925 H 0.59675 0.73413 0.90426 0.0
H1926 H 0.61031 0.71795 0.91732 0.0
H1927 H 0.61454 0.70651 0.90168 0.0
C1928 C 0.66647 0.6972 0.94311 0.0
C1929 C 0.66044 0.67271 0.93972 0.0
C1930 C 0.66609 0.71631 0.93427 0.0
C1931 C 0.65971 0.71149 0.9218 0.0
C1932 C 0.65402 0.68696 0.91831 0.0
H1933 H 0.67484 0.82084 0.86102 0.0
H1934 H 0.68511 0.78835 0.87621 0.0
C1935 C 0.65414 0.66781 0.92721 0.0
C1936 C 0.65883 0.73236 0.91263 0.0
H1937 H 0.61996 0.76379 0.89304 0.0
C1938 C 0.67991 0.7476 0.91119 0.0
C1939 C 0.63692 0.73838 0.90599 0.0
C1940 C 0.61327 0.72355 0.90744 0.0
C1941 C 0.67956 0.76882 0.9035 0.0
C1942 C 0.65763 0.77483 0.89691 0.0
C1943 C 0.63676 0.75929 0.89814 0.0
C1944 C 0.65526 0.79749 0.88899 0.0
C1945 C 0.70239 0.78502 0.90281 0.0
C1946 C 0.63573 0.8141 0.89129 0.0
C1947 C 0.62979 0.83248 0.8826 0.0
C1948 C 0.64338 0.83486 0.87146 0.0
C1949 C 0.6644 0.81983 0.86967 0.0
C1950 C 0.67018 0.8011 0.87833 0.0
H1951 H 0.71519 0.78151 0.91075 0.0
H1952 H 0.71256 0.78097 0.89403 0.0
H1953 H 0.6973 0.80497 0.90277 0.0
H1954 H 0.62399 0.8118 0.89945 0.0
H1955 H 0.61323 0.8435 0.88408 0.0
H1956 H 0.05883 0.94487 0.68837 0.0
H1957 H 0.024 0.94266 0.67392 0.0
H1958 H 0.04901 0.87113 0.66121 0.0
H1959 H 0.08382 0.87286 0.67595 0.0
H1960 H 0.03553 0.90489 0.64178 0.0
H1961 H 0.96183 0.89777 0.67786 0.0
H1962 H 0.98296 0.92317 0.6802 0.0
H1963 H 0.99417 0.89184 0.68117 0.0
C1964 C 0.05692 0.92851 0.68261 0.0
C1965 C 0.07409 0.90889 0.6835 0.0
C1966 C 0.0369 0.92729 0.67435 0.0
C1967 C 0.03354 0.90649 0.6667 0.0
C1968 C 0.0511 0.88725 0.66714 0.0
H1969 H 0.90182 0.87621 0.62077 0.0
H1970 H 0.93263 0.87541 0.63771 0.0
C1971 C 0.07114 0.88837 0.67551 0.0
C1972 C 0.01199 0.90533 0.65803 0.0
H1973 H 0.94848 0.90699 0.65712 0.0
C1974 C 0.0165 0.90513 0.64513 0.0
C1975 C 0.98714 0.90535 0.66241 0.0
C1976 C 0.98114 0.9043 0.67617 0.0
C1977 C 0.99689 0.9058 0.63649 0.0
C1978 C 0.97204 0.9071 0.64086 0.0
C1979 C 0.96749 0.90636 0.65377 0.0
C1980 C 0.95073 0.90957 0.63211 0.0
C1981 C 0.00304 0.90504 0.62273 0.0
C1982 C 0.94964 0.9298 0.62387 0.0
C1983 C 0.93214 0.93026 0.61427 0.0
C1984 C 0.91501 0.91078 0.61285 0.0
C1985 C 0.91449 0.89169 0.6218 0.0
C1986 C 0.93229 0.89109 0.63138 0.0
H1987 H 0.02171 0.89693 0.62103 0.0
H1988 H 0.98907 0.89406 0.61748 0.0
H1989 H 0.00314 0.92422 0.61896 0.0
H1990 H 0.96323 0.94459 0.62445 0.0
H1991 H 0.93307 0.94505 0.60741 0.0
H1992 H 0.85738 0.14365 0.37207 0.0
H1993 H 0.86211 0.17326 0.38936 0.0
H1994 H 0.79077 0.20484 0.38058 0.0
H1995 H 0.78616 0.17576 0.36327 0.0
H1996 H 0.85898 0.22896 0.38428 0.0
H1997 H 0.79144 0.19498 0.4197 0.0
H1998 H 0.80525 0.17485 0.40813 0.0
H1999 H 0.78069 0.19559 0.4038 0.0
C2000 C 0.84234 0.15627 0.37411 0.0
C2001 C 0.82131 0.15724 0.36634 0.0
C2002 C 0.84519 0.1734 0.3839 0.0
C2003 C 0.8268 0.1913 0.38624 0.0
C2004 C 0.80511 0.19111 0.37902 0.0
H2005 H 0.79557 0.31673 0.4332 0.0
H2006 H 0.79586 0.28195 0.41857 0.0
C2007 C 0.80243 0.17434 0.36918 0.0
C2008 C 0.83073 0.21148 0.39549 0.0
H2009 H 0.80692 0.23582 0.42237 0.0
C2010 C 0.8479 0.23037 0.39273 0.0
C2011 C 0.81597 0.21344 0.40636 0.0
C2012 C 0.79738 0.19359 0.40978 0.0
C2013 C 0.85003 0.25163 0.4003 0.0
C2014 C 0.83508 0.25372 0.41118 0.0
C2015 C 0.81838 0.23441 0.41406 0.0
C2016 C 0.8356 0.27604 0.41948 0.0
C2017 C 0.86737 0.27211 0.39619 0.0
C2018 C 0.85784 0.28473 0.42484 0.0
C2019 C 0.85771 0.30503 0.43305 0.0
C2020 C 0.83526 0.31667 0.43632 0.0
C2021 C 0.81311 0.30806 0.4309 0.0
C2022 C 0.81329 0.28813 0.42255 0.0
H2023 H 0.87152 0.27103 0.38603 0.0
H2024 H 0.85942 0.29067 0.39822 0.0
H2025 H 0.8852 0.27033 0.40129 0.0
H2026 H 0.87524 0.27543 0.42296 0.0
H2027 H 0.875 0.31097 0.43725 0.0
H2028 H 0.56614 0.08922 0.10459 0.0
H2029 H 0.52986 0.09089 0.11826 0.0
H2030 H 0.57592 0.07298 0.1499 0.0
H2031 H 0.61262 0.0723 0.13633 0.0
H2032 H 0.50715 0.0575 0.13281 0.0
H2033 H 0.54144 0.13386 0.16273 0.0
H2034 H 0.55647 0.12545 0.14828 0.0
H2035 H 0.56236 0.10803 0.16233 0.0
C2036 C 0.56873 0.08595 0.11449 0.0
C2037 C 0.59257 0.08118 0.11937 0.0
C2038 C 0.54781 0.08673 0.1223 0.0
C2039 C 0.55007 0.08267 0.13521 0.0
C2040 C 0.57368 0.07695 0.14005 0.0
H2041 H 0.45126 0.06871 0.19831 0.0
H2042 H 0.48549 0.06975 0.18333 0.0
C2043 C 0.59469 0.07633 0.13224 0.0
C2044 C 0.52773 0.08432 0.14354 0.0
H2045 H 0.50544 0.11235 0.16996 0.0
C2046 C 0.50674 0.06966 0.14087 0.0
C2047 C 0.5269 0.10038 0.15402 0.0
C2048 C 0.54788 0.11802 0.15695 0.0
C2049 C 0.48548 0.06997 0.1486 0.0
C2050 C 0.48504 0.08545 0.15926 0.0
C2051 C 0.50579 0.10041 0.16182 0.0
C2052 C 0.46382 0.08536 0.16828 0.0
C2053 C 0.4639 0.05319 0.14552 0.0
C2054 C 0.44016 0.09416 0.16491 0.0
C2055 C 0.42041 0.09367 0.17354 0.0
C2056 C 0.42389 0.08417 0.18567 0.0
C2057 C 0.44772 0.07574 0.18901 0.0
C2058 C 0.46742 0.07646 0.18046 0.0
H2059 H 0.4687 0.03943 0.13819 0.0
H2060 H 0.45752 0.04313 0.154 0.0
H2061 H 0.44816 0.06457 0.14208 0.0
H2062 H 0.43698 0.10142 0.15561 0.0
H2063 H 0.40233 0.10026 0.17064 0.0
H2064 H 0.62422 0.32293 0.62362 0.0
H2065 H 0.62463 0.28935 0.63915 0.0
H2066 H 0.69719 0.26715 0.62633 0.0
H2067 H 0.69745 0.30107 0.61137 0.0
H2068 H 0.62637 0.24015 0.63582 0.0
H2069 H 0.70912 0.26708 0.66306 0.0
H2070 H 0.69468 0.28783 0.65202 0.0
H2071 H 0.71629 0.26458 0.64676 0.0
C2072 C 0.64049 0.31127 0.6243 0.0
C2073 C 0.66078 0.31485 0.61616 0.0
C2074 C 0.64063 0.2919 0.63314 0.0
C2075 C 0.66112 0.27579 0.63411 0.0
C2076 C 0.6814 0.27954 0.62606 0.0
H2077 H 0.66683 0.12413 0.65968 0.0
H2078 H 0.66481 0.16339 0.6483 0.0
C2079 C 0.68134 0.29887 0.61732 0.0
C2080 C 0.66096 0.25427 0.64299 0.0
H2081 H 0.69592 0.22453 0.66512 0.0
C2082 C 0.64145 0.23694 0.64232 0.0
C2083 C 0.68043 0.25003 0.65165 0.0
C2084 C 0.70116 0.26852 0.65352 0.0
C2085 C 0.64141 0.21519 0.64964 0.0
C2086 C 0.66162 0.21025 0.65773 0.0
C2087 C 0.68059 0.22804 0.65881 0.0
C2088 C 0.66369 0.18641 0.66483 0.0
C2089 C 0.61964 0.19764 0.64866 0.0
C2090 C 0.66472 0.18614 0.67796 0.0
C2091 C 0.66609 0.16357 0.68454 0.0
C2092 C 0.66646 0.14079 0.6781 0.0
C2093 C 0.66634 0.14125 0.66496 0.0
C2094 C 0.66495 0.16373 0.65842 0.0
H2095 H 0.60293 0.20706 0.64486 0.0
H2096 H 0.62451 0.18225 0.64224 0.0
H2097 H 0.61493 0.18955 0.65791 0.0
H2098 H 0.66406 0.20337 0.68314 0.0
H2099 H 0.66658 0.16393 0.69465 0.0
H2100 H 0.42635 0.86799 0.36711 0.0
H2101 H 0.46128 0.86824 0.38198 0.0
H2102 H 0.46044 0.94814 0.3822 0.0
H2103 H 0.42573 0.94802 0.36746 0.0
H2104 H 0.51152 0.90991 0.37667 0.0
H2105 H 0.45698 0.90807 0.42094 0.0
H2106 H 0.44656 0.89164 0.4072 0.0
H2107 H 0.44537 0.92482 0.40756 0.0
C2108 C 0.43341 0.88556 0.37048 0.0
C2109 C 0.4233 0.908 0.36608 0.0
C2110 C 0.45345 0.88569 0.37889 0.0
C2111 C 0.46351 0.90823 0.38313 0.0
C2112 C 0.45307 0.93056 0.37899 0.0
H2113 H 0.56662 0.95457 0.44057 0.0
H2114 H 0.53318 0.95033 0.42528 0.0
C2115 C 0.43325 0.93045 0.37055 0.0
C2116 C 0.48513 0.90884 0.39176 0.0
H2117 H 0.50032 0.91328 0.42265 0.0
C2118 C 0.50918 0.91039 0.38674 0.0
C2119 C 0.48194 0.90983 0.40484 0.0
C2120 C 0.45637 0.90848 0.41057 0.0
C2121 C 0.53014 0.91333 0.39447 0.0
C2122 C 0.52702 0.91433 0.40762 0.0
C2123 C 0.50286 0.91252 0.4126 0.0
C2124 C 0.54841 0.91769 0.41638 0.0
C2125 C 0.55531 0.91624 0.38841 0.0
C2126 C 0.56848 0.90105 0.41643 0.0
C2127 C 0.58793 0.90373 0.42502 0.0
C2128 C 0.58757 0.9228 0.434 0.0
C2129 C 0.56773 0.93977 0.43376 0.0
C2130 C 0.54839 0.93721 0.42509 0.0
H2131 H 0.55373 0.92234 0.37853 0.0
H2132 H 0.56694 0.92988 0.39353 0.0
H2133 H 0.56499 0.8981 0.3885 0.0
H2134 H 0.56882 0.88552 0.41003 0.0
H2135 H 0.60286 0.8903 0.4249 0.0
H2136 H 0.79804 0.80623 0.19503 0.0
H2137 H 0.79973 0.77649 0.1779 0.0
H2138 H 0.86067 0.81697 0.16143 0.0
H2139 H 0.85902 0.84712 0.17873 0.0
H2140 H 0.81996 0.79473 0.14398 0.0
H2141 H 0.86331 0.72908 0.17744 0.0
H2142 H 0.83564 0.74412 0.18299 0.0
H2143 H 0.86303 0.76222 0.17991 0.0
C2144 C 0.81133 0.80928 0.18757 0.0
C2145 C 0.82836 0.82905 0.18821 0.0
C2146 C 0.81236 0.79217 0.17783 0.0
C2147 C 0.83055 0.7943 0.16851 0.0
C2148 C 0.84651 0.815 0.16857 0.0
H2149 H 0.87307 0.66431 0.12507 0.0
H2150 H 0.87323 0.70156 0.13782 0.0
C2151 C 0.84542 0.83234 0.17837 0.0
C2152 C 0.83389 0.77363 0.1595 0.0
H2153 H 0.84913 0.71221 0.15831 0.0
C2154 C 0.82659 0.77674 0.14703 0.0
C2155 C 0.8428 0.75025 0.16349 0.0
C2156 C 0.85187 0.74614 0.17666 0.0
C2157 C 0.82722 0.75681 0.13853 0.0
C2158 C 0.83489 0.73303 0.1427 0.0
C2159 C 0.84299 0.73027 0.15509 0.0
C2160 C 0.8347 0.71069 0.13447 0.0
C2161 C 0.81985 0.76155 0.12515 0.0
C2162 C 0.81287 0.70293 0.12845 0.0
C2163 C 0.81277 0.68168 0.12091 0.0
C2164 C 0.83446 0.6674 0.11933 0.0
C2165 C 0.85608 0.67488 0.12574 0.0
C2166 C 0.85621 0.69625 0.13315 0.0
H2167 H 0.82212 0.78142 0.12261 0.0
H2168 H 0.83104 0.75018 0.11859 0.0
H2169 H 0.79998 0.75666 0.12392 0.0
H2170 H 0.79578 0.71323 0.12962 0.0
H2171 H 0.79572 0.67677 0.1162 0.0
H2172 H 0.92183 0.09371 0.94707 0.0
H2173 H 0.9586 0.09487 0.93376 0.0
H2174 H 0.91401 0.07388 0.90206 0.0
H2175 H 0.87676 0.07382 0.91526 0.0
H2176 H 0.9817 0.06022 0.92046 0.0
H2177 H 0.94942 0.13362 0.88808 0.0
H2178 H 0.93355 0.12658 0.90252 0.0
H2179 H 0.92863 0.10763 0.88892 0.0
C2180 C 0.91964 0.08973 0.93723 0.0
C2181 C 0.89606 0.08426 0.93222 0.0
C2182 C 0.94084 0.0902 0.92962 0.0
C2183 C 0.93916 0.08505 0.91679 0.0
C2184 C 0.9158 0.07869 0.91183 0.0
H2185 H 0.05828 0.04444 0.86657 0.0
H2186 H 0.02367 0.04612 0.8813 0.0
C2187 C 0.89448 0.07842 0.91943 0.0
C2188 C 0.96192 0.08598 0.90874 0.0
H2189 H 0.98631 0.11219 0.88225 0.0
C2190 C 0.98268 0.07167 0.91214 0.0
C2191 C 0.96358 0.10128 0.89798 0.0
C2192 C 0.94272 0.11835 0.89421 0.0
C2193 C 0.00459 0.07172 0.90493 0.0
C2194 C 0.0058 0.08614 0.89388 0.0
C2195 C 0.98536 0.10097 0.89065 0.0
C2196 C 0.02768 0.08523 0.8853 0.0
C2197 C 0.02641 0.05647 0.90928 0.0
C2198 C 0.04152 0.10672 0.88251 0.0
C2199 C 0.06144 0.10581 0.874 0.0
C2200 C 0.06766 0.08345 0.86799 0.0
C2201 C 0.05394 0.06198 0.87097 0.0
C2202 C 0.03421 0.06287 0.87948 0.0
H2203 H 0.02522 0.05224 0.91942 0.0
H2204 H 0.02663 0.03861 0.90414 0.0
H2205 H 0.04422 0.06623 0.9074 0.0
H2206 H 0.03677 0.12423 0.88683 0.0
H2207 H 0.07138 0.12274 0.87181 0.0
H2208 H 0.84955 0.83577 0.62694 0.0
H2209 H 0.85106 0.80257 0.64271 0.0
H2210 H 0.82868 0.74938 0.61489 0.0
H2211 H 0.82782 0.78189 0.59917 0.0
H2212 H 0.81317 0.77065 0.65098 0.0
H2213 H 0.88939 0.71615 0.6299 0.0
H2214 H 0.88276 0.74764 0.62525 0.0
H2215 H 0.86481 0.72231 0.61904 0.0
C2216 C 0.84517 0.81697 0.62416 0.0
C2217 C 0.83841 0.81172 0.61173 0.0
C2218 C 0.84595 0.798 0.63321 0.0
C2219 C 0.84033 0.77332 0.62998 0.0
C2220 C 0.83355 0.76811 0.61761 0.0
H2221 H 0.82251 0.62917 0.66537 0.0
H2222 H 0.82416 0.66504 0.65125 0.0
C2223 C 0.83271 0.78695 0.60862 0.0
C2224 C 0.84072 0.75295 0.63948 0.0
H2225 H 0.86475 0.69534 0.6453 0.0
C2226 C 0.82467 0.75431 0.64982 0.0
C2227 C 0.85567 0.73153 0.638 0.0
C2228 C 0.87431 0.72937 0.62751 0.0
C2229 C 0.82248 0.73456 0.65841 0.0
C2230 C 0.83701 0.7129 0.65675 0.0
C2231 C 0.85341 0.71176 0.64654 0.0
C2232 C 0.83553 0.6912 0.66546 0.0
C2233 C 0.80401 0.73675 0.66896 0.0
C2234 C 0.84159 0.69378 0.67815 0.0
C2235 C 0.84068 0.6733 0.68623 0.0
C2236 C 0.83381 0.64962 0.68183 0.0
C2237 C 0.82778 0.64707 0.66911 0.0
C2238 C 0.82877 0.66759 0.66101 0.0
H2239 H 0.78991 0.7513 0.66708 0.0
H2240 H 0.7943 0.71886 0.67062 0.0
H2241 H 0.81399 0.7419 0.67765 0.0
H2242 H 0.84733 0.71161 0.68179 0.0
H2243 H 0.8454 0.6761 0.69596 0.0
H2244 H 0.42729 0.62336 0.8696 0.0
H2245 H 0.46073 0.623 0.88521 0.0
H2246 H 0.47503 0.54608 0.87699 0.0
H2247 H 0.44139 0.54615 0.86176 0.0
H2248 H 0.47648 0.55463 0.90185 0.0
H2249 H 0.53459 0.62435 0.87713 0.0
H2250 H 0.50389 0.63473 0.88109 0.0
H2251 H 0.50783 0.61005 0.86999 0.0
C2252 C 0.43734 0.6063 0.87126 0.0
C2253 C 0.43176 0.58484 0.86431 0.0
C2254 C 0.4567 0.60619 0.88007 0.0
C2255 C 0.47087 0.58464 0.88212 0.0
C2256 C 0.46462 0.56301 0.87554 0.0
H2257 H 0.61948 0.57319 0.91383 0.0
H2258 H 0.58266 0.57433 0.9004 0.0
C2259 C 0.44541 0.56312 0.86676 0.0
C2260 C 0.49236 0.58428 0.89098 0.0
H2261 H 0.54968 0.60954 0.89643 0.0
C2262 C 0.49246 0.56669 0.90068 0.0
C2263 C 0.51344 0.59974 0.88938 0.0
C2264 C 0.51517 0.61815 0.87878 0.0
C2265 C 0.51294 0.56401 0.90874 0.0
C2266 C 0.5339 0.57978 0.9073 0.0
C2267 C 0.53372 0.59746 0.89761 0.0
C2268 C 0.55629 0.57812 0.91558 0.0
C2269 C 0.5121 0.5437 0.91845 0.0
C2270 C 0.55399 0.57974 0.92863 0.0
C2271 C 0.57499 0.57854 0.93633 0.0
C2272 C 0.59904 0.57649 0.9312 0.0
C2273 C 0.60135 0.57479 0.91814 0.0
C2274 C 0.58024 0.5756 0.91043 0.0
H2275 H 0.49896 0.52872 0.91577 0.0
H2276 H 0.53071 0.53538 0.91993 0.0
H2277 H 0.50555 0.55157 0.92745 0.0
H2278 H 0.53594 0.58226 0.93291 0.0
H2279 H 0.57229 0.57943 0.94634 0.0
H2280 H 0.64233 0.15663 0.12613 0.0
H2281 H 0.64253 0.19115 0.14116 0.0
H2282 H 0.66948 0.24038 0.11242 0.0
H2283 H 0.66903 0.2064 0.09743 0.0
H2284 H 0.68545 0.2224 0.14792 0.0
H2285 H 0.60861 0.27724 0.12736 0.0
H2286 H 0.61296 0.24468 0.12406 0.0
H2287 H 0.63198 0.26755 0.11641 0.0
C2288 C 0.64808 0.17485 0.12299 0.0
C2289 C 0.65583 0.17855 0.11054 0.0
C2290 C 0.64829 0.19456 0.13161 0.0
C2291 C 0.65584 0.21848 0.12791 0.0
C2292 C 0.66332 0.22223 0.11549 0.0
H2293 H 0.66791 0.36623 0.16032 0.0
H2294 H 0.66717 0.32961 0.1468 0.0
C2295 C 0.6633 0.2026 0.10693 0.0
C2296 C 0.65673 0.23952 0.137 0.0
H2297 H 0.63329 0.29736 0.14261 0.0
C2298 C 0.67392 0.23873 0.14684 0.0
C2299 C 0.64186 0.26094 0.13554 0.0
C2300 C 0.62264 0.2627 0.12534 0.0
C2301 C 0.67729 0.25906 0.15497 0.0
C2302 C 0.66241 0.28064 0.15352 0.0
C2303 C 0.64489 0.28111 0.14377 0.0
C2304 C 0.66455 0.30293 0.16191 0.0
C2305 C 0.69753 0.25737 0.16467 0.0
C2306 C 0.66361 0.30051 0.17499 0.0
C2307 C 0.66478 0.32144 0.18273 0.0
C2308 C 0.66584 0.34558 0.17767 0.0
C2309 C 0.66699 0.34803 0.16459 0.0
C2310 C 0.6664 0.32701 0.15683 0.0
H2311 H 0.71228 0.24417 0.16179 0.0
H2312 H 0.70626 0.27571 0.16641 0.0
H2313 H 0.68948 0.25037 0.17355 0.0
H2314 H 0.66154 0.28244 0.17927 0.0
H2315 H 0.66461 0.31862 0.19274 0.0
H2316 H 0.9419 0.43834 0.44456 0.0
H2317 H 0.97068 0.43728 0.42693 0.0
H2318 H 0.9304 0.37543 0.41133 0.0
H2319 H 0.90095 0.37701 0.42891 0.0
H2320 H 0.00126 0.39962 0.42195 0.0
H2321 H 0.94198 0.41721 0.38049 0.0
H2322 H 0.93143 0.42305 0.39622 0.0
H2323 H 0.93176 0.39196 0.39019 0.0
C2324 C 0.93869 0.42503 0.43715 0.0
C2325 C 0.919 0.40797 0.43802 0.0
C2326 C 0.9553 0.42429 0.42713 0.0
C2327 C 0.95284 0.40629 0.41775 0.0
C2328 C 0.93251 0.38981 0.4183 0.0
H2329 H 0.07813 0.36735 0.36817 0.0
H2330 H 0.04482 0.36523 0.38382 0.0
C2331 C 0.91559 0.39077 0.42832 0.0
C2332 C 0.97269 0.40395 0.40805 0.0
H2333 H 0.98398 0.40655 0.3766 0.0
C2334 C -0.00259 0.40101 0.41203 0.0
C2335 C 0.9678 0.4059 0.39509 0.0
C2336 C 0.94185 0.40992 0.3902 0.0
C2337 C 0.01728 0.40029 0.40349 0.0
C2338 C 0.01237 0.40218 0.39056 0.0
C2339 C 0.98769 0.40486 0.38653 0.0
C2340 C 0.03279 0.40313 0.38116 0.0
C2341 C 0.04349 0.39843 0.40836 0.0
C2342 C 0.03719 0.42512 0.37452 0.0
C2343 C 0.05633 0.42648 0.36569 0.0
C2344 C 0.07145 0.40577 0.36314 0.0
C2345 C 0.06713 0.38375 0.36993 0.0
C2346 C 0.04798 0.38246 0.37884 0.0
H2347 H 0.04443 0.40106 0.41864 0.0
H2348 H 0.05109 0.37984 0.40611 0.0
H2349 H 0.05557 0.4125 0.40378 0.0
H2350 H 0.02589 0.44137 0.37623 0.0
H2351 H 0.05927 0.44391 0.3609 0.0
H2352 H 0.85241 0.15865 0.92322 0.0
H2353 H 0.85499 0.19184 0.90745 0.0
H2354 H 0.82023 0.24253 0.93316 0.0
H2355 H 0.81794 0.20989 0.94889 0.0
H2356 H 0.81451 0.22068 0.89709 0.0
H2357 H 0.88286 0.28035 0.92145 0.0
H2358 H 0.87828 0.24808 0.92541 0.0
H2359 H 0.857 0.27119 0.93104 0.0
C2360 C 0.84555 0.17693 0.92555 0.0
C2361 C 0.83487 0.18147 0.93735 0.0
C2362 C 0.84693 0.19586 0.9165 0.0
C2363 C 0.83804 0.21981 0.91915 0.0
C2364 C 0.82752 0.22436 0.93093 0.0
H2365 H 0.82161 0.36315 0.88297 0.0
H2366 H 0.82235 0.32742 0.89716 0.0
C2367 C 0.82598 0.2055 0.93989 0.0
C2368 C 0.83896 0.24006 0.90961 0.0
H2369 H 0.8609 0.29883 0.90457 0.0
C2370 C 0.82486 0.23768 0.89864 0.0
C2371 C 0.85237 0.2623 0.91164 0.0
C2372 C 0.86868 0.26564 0.92296 0.0
C2373 C 0.82306 0.25722 0.88992 0.0
C2374 C 0.83618 0.27968 0.89206 0.0
C2375 C 0.85067 0.2818 0.90292 0.0
C2376 C 0.8351 0.30126 0.88324 0.0
C2377 C 0.80638 0.2539 0.87873 0.0
C2378 C 0.84218 0.29869 0.87068 0.0
C2379 C 0.84163 0.31907 0.86253 0.0
C2380 C 0.8343 0.34272 0.86675 0.0
C2381 C 0.82732 0.3453 0.87936 0.0
C2382 C 0.82779 0.32484 0.8875 0.0
H2383 H 0.79233 0.2391 0.88033 0.0
H2384 H 0.79657 0.27138 0.87639 0.0
H2385 H 0.8178 0.24839 0.87056 0.0
H2386 H 0.84846 0.28095 0.86717 0.0
H2387 H 0.84704 0.31622 0.85289 0.0
H2388 H 0.89637 0.57964 0.1248 0.0
H2389 H 0.92734 0.57054 0.14113 0.0
H2390 H 0.9863 0.5837 0.11459 0.0
H2391 H 0.95562 0.59271 0.09843 0.0
H2392 H 0.99577 0.54367 0.13103 0.0
H2393 H 0.96729 0.62978 0.15577 0.0
H2394 H 0.94316 0.60739 0.15293 0.0
H2395 H 0.95768 0.62297 0.14 0.0
C2396 C 0.91592 0.57963 0.12241 0.0
C2397 C 0.92371 0.58661 0.11039 0.0
C2398 C 0.93359 0.5748 0.13175 0.0
C2399 C 0.95914 0.57685 0.12911 0.0
C2400 C 0.96674 0.58206 0.11685 0.0
H2401 H 0.08424 0.61334 0.17669 0.0
H2402 H 0.05156 0.61218 0.16077 0.0
C2403 C 0.94921 0.58708 0.10762 0.0
C2404 C 0.97818 0.57564 0.13913 0.0
H2405 H 0.00059 0.60731 0.16438 0.0
C2406 C 0.9967 0.55741 0.13841 0.0
C2407 C 0.97971 0.594 0.14855 0.0
C2408 C 0.96107 0.61481 0.14938 0.0
C2409 C 0.01668 0.55699 0.14685 0.0
C2410 C 0.01802 0.57512 0.15638 0.0
C2411 C -0.00051 0.59337 0.1571 0.0
C2412 C 0.03848 0.57546 0.1657 0.0
C2413 C 0.03658 0.53759 0.14524 0.0
C2414 C 0.04205 0.55522 0.17375 0.0
C2415 C 0.06083 0.55574 0.18274 0.0
C2416 C 0.07638 0.5766 0.184 0.0
C2417 C 0.07291 0.59682 0.17586 0.0
C2418 C 0.05407 0.59628 0.16683 0.0
H2419 H 0.03648 0.52961 0.13567 0.0
H2420 H 0.05529 0.54543 0.14712 0.0
H2421 H 0.03322 0.52224 0.15196 0.0
H2422 H 0.03002 0.53914 0.17321 0.0
H2423 H 0.06304 0.53981 0.18879 0.0
H2424 H 0.71315 0.81862 0.42947 0.0
H2425 H 0.71208 0.78141 0.41651 0.0
H2426 H 0.63295 0.7891 0.41228 0.0
H2427 H 0.63349 0.82577 0.42549 0.0
H2428 H 0.68175 0.73594 0.42093 0.0
H2429 H 0.66172 0.78324 0.37588 0.0
H2430 H 0.67436 0.79943 0.38921 0.0
H2431 H 0.64198 0.79151 0.38879 0.0
C2432 C 0.69544 0.8125 0.42587 0.0
C2433 C 0.67343 0.82554 0.42868 0.0
C2434 C 0.69491 0.79115 0.41841 0.0
C2435 C 0.67247 0.7825 0.4134 0.0
C2436 C 0.65054 0.79557 0.41596 0.0
H2437 H 0.62049 0.64912 0.37899 0.0
H2438 H 0.63268 0.68097 0.39407 0.0
C2439 C 0.65097 0.81678 0.42351 0.0
C2440 C 0.6719 0.75973 0.40555 0.0
H2441 H 0.65957 0.73927 0.37599 0.0
C2442 C 0.67708 0.73666 0.41109 0.0
C2443 C 0.66596 0.7607 0.39269 0.0
C2444 C 0.66086 0.78503 0.38621 0.0
C2445 C 0.67576 0.71449 0.40416 0.0
C2446 C 0.66921 0.71542 0.39139 0.0
C2447 C 0.66469 0.73856 0.38579 0.0
C2448 C 0.66532 0.69261 0.3838 0.0
C2449 C 0.68124 0.69016 0.41053 0.0
C2450 C 0.6802 0.68779 0.37328 0.0
C2451 C 0.67358 0.66907 0.36481 0.0
C2452 C 0.65171 0.65522 0.36662 0.0
C2453 C 0.63782 0.659 0.37757 0.0
C2454 C 0.64464 0.67739 0.38613 0.0
H2455 H 0.69097 0.69286 0.41957 0.0
H2456 H 0.66352 0.68025 0.41238 0.0
H2457 H 0.6928 0.67817 0.40442 0.0
H2458 H 0.69613 0.69944 0.37125 0.0
H2459 H 0.68421 0.6671 0.35627 0.0
H2460 H 0.56951 0.45263 0.61334 0.0
H2461 H 0.53926 0.44844 0.63018 0.0
H2462 H 0.57369 0.37995 0.64163 0.0
H2463 H 0.60459 0.3845 0.62491 0.0
H2464 H 0.50607 0.41024 0.63075 0.0
H2465 H 0.55951 0.41269 0.67508 0.0
H2466 H 0.57238 0.42329 0.66042 0.0
H2467 H 0.57043 0.39068 0.66376 0.0
C2468 C 0.57133 0.43719 0.61977 0.0
C2469 C 0.5895 0.41889 0.61774 0.0
C2470 C 0.55378 0.43465 0.62931 0.0
C2471 C 0.55392 0.41376 0.63714 0.0
C2472 C 0.57325 0.39638 0.63581 0.0
H2473 H 0.4292 0.36432 0.68522 0.0
H2474 H 0.46462 0.36404 0.6706 0.0
C2475 C 0.59107 0.39906 0.62626 0.0
C2476 C 0.53257 0.40943 0.64582 0.0
H2477 H 0.51657 0.4033 0.67664 0.0
C2478 C 0.50845 0.4086 0.64077 0.0
C2479 C 0.53554 0.40724 0.65891 0.0
C2480 C 0.56081 0.40871 0.66492 0.0
C2481 C 0.48736 0.40602 0.64845 0.0
C2482 C 0.49034 0.40418 0.66151 0.0
C2483 C 0.51438 0.40453 0.66658 0.0
C2484 C 0.46854 0.40396 0.67006 0.0
C2485 C 0.46186 0.40584 0.64264 0.0
C2486 C 0.45883 0.42644 0.67442 0.0
C2487 C 0.4387 0.42664 0.6827 0.0
C2488 C 0.42771 0.40435 0.68679 0.0
C2489 C 0.43708 0.38179 0.68216 0.0
C2490 C 0.45742 0.3816 0.6739 0.0
H2491 H 0.46264 0.40594 0.63226 0.0
H2492 H 0.45141 0.38919 0.64579 0.0
H2493 H 0.45137 0.4224 0.64581 0.0
H2494 H 0.46699 0.44389 0.67148 0.0
H2495 H 0.43176 0.44431 0.68598 0.0
H2496 H 0.12518 0.17437 0.43212 0.0
H2497 H 0.12521 0.21102 0.41864 0.0
H2498 H 0.20297 0.20021 0.41087 0.0
H2499 H 0.20307 0.16312 0.42408 0.0
H2500 H 0.15974 0.25608 0.42052 0.0
H2501 H 0.16589 0.20333 0.37599 0.0
H2502 H 0.15394 0.18977 0.39023 0.0
H2503 H 0.18675 0.19418 0.38827 0.0
C2504 C 0.14224 0.17941 0.42739 0.0
C2505 C 0.16411 0.16541 0.42908 0.0
C2506 C 0.14226 0.20064 0.41982 0.0
C2507 C 0.16406 0.2083 0.41374 0.0
C2508 C 0.1859 0.19454 0.41543 0.0
H2509 H 0.20571 0.31329 0.3572 0.0
H2510 H 0.20417 0.28254 0.37392 0.0
C2511 C 0.18593 0.17334 0.423 0.0
C2512 C 0.16399 0.23028 0.40535 0.0
H2513 H 0.16994 0.24681 0.37471 0.0
C2514 C 0.16184 0.25414 0.41049 0.0
C2515 C 0.16667 0.22765 0.39229 0.0
C2516 C 0.16828 0.20239 0.38628 0.0
C2517 C 0.16318 0.27553 0.40291 0.0
C2518 C 0.16621 0.2729 0.38983 0.0
C2519 C 0.16778 0.24892 0.38473 0.0
C2520 C 0.16865 0.29452 0.38119 0.0
C2521 C 0.1622 0.3007 0.40901 0.0
C2522 C 0.14968 0.31232 0.37998 0.0
C2523 C 0.15083 0.33041 0.37051 0.0
C2524 C 0.17077 0.33067 0.36202 0.0
C2525 C 0.19027 0.31372 0.3637 0.0
C2526 C 0.18928 0.29595 0.37319 0.0
H2527 H 0.16652 0.29964 0.41915 0.0
H2528 H 0.17545 0.31376 0.40451 0.0
H2529 H 0.14321 0.30841 0.40801 0.0
H2530 H 0.13332 0.31136 0.38585 0.0
H2531 H 0.13524 0.3428 0.36924 0.0
H2532 H 0.5773 0.37055 0.17877 0.0
H2533 H 0.54281 0.37077 0.16386 0.0
H2534 H 0.51752 0.44045 0.17874 0.0
H2535 H 0.55205 0.44097 0.19333 0.0
H2536 H 0.47931 0.3993 0.17583 0.0
H2537 H 0.53466 0.42147 0.13323 0.0
H2538 H 0.54592 0.3975 0.14351 0.0
H2539 H 0.54544 0.42906 0.14874 0.0
C2540 C 0.56464 0.38609 0.17885 0.0
C2541 C 0.56767 0.40565 0.18747 0.0
C2542 C 0.54479 0.3861 0.17032 0.0
C2543 C 0.52747 0.40557 0.17023 0.0
C2544 C 0.53049 0.42511 0.17871 0.0
H2545 H 0.42333 0.45743 0.11564 0.0
H2546 H 0.45457 0.45152 0.13178 0.0
C2547 C 0.55035 0.42526 0.18713 0.0
C2548 C 0.50621 0.40592 0.16131 0.0
H2549 H 0.49152 0.41691 0.13075 0.0
C2550 C 0.48194 0.40291 0.16594 0.0
C2551 C 0.50966 0.41092 0.14846 0.0
C2552 C 0.53526 0.41508 0.1431 0.0
C2553 C 0.46103 0.405 0.15809 0.0
C2554 C 0.46445 0.4101 0.14522 0.0
C2555 C 0.4888 0.41287 0.14059 0.0
C2556 C 0.44317 0.41418 0.13648 0.0
C2557 C 0.43544 0.4026 0.16372 0.0
C2558 C 0.42551 0.39551 0.13401 0.0
C2559 C 0.40718 0.39899 0.1248 0.0
C2560 C 0.40646 0.42106 0.11775 0.0
C2561 C 0.42329 0.44015 0.12082 0.0
C2562 C 0.44138 0.43673 0.13 0.0
H2563 H 0.4358 0.40447 0.17405 0.0
H2564 H 0.42271 0.41683 0.15983 0.0
H2565 H 0.42776 0.38405 0.16143 0.0
H2566 H 0.42658 0.37782 0.13877 0.0
H2567 H 0.39473 0.3838 0.12264 0.0
H2568 H 0.33796 0.78817 0.95015 0.0
H2569 H 0.33907 0.75392 0.93523 0.0
H2570 H 0.34153 0.8064 0.90477 0.0
H2571 H 0.34156 0.84078 0.91985 0.0
H2572 H 0.30692 0.74084 0.91852 0.0
H2573 H 0.39496 0.76097 0.89353 0.0
H2574 H 0.38632 0.77693 0.90769 0.0
H2575 H 0.37336 0.7862 0.8929 0.0
C2576 C 0.33896 0.79237 0.94027 0.0
C2577 C 0.33966 0.81713 0.93615 0.0
C2578 C 0.3396 0.77277 0.93173 0.0
C2579 C 0.34067 0.77736 0.91881 0.0
C2580 C 0.34142 0.80218 0.91466 0.0
H2581 H 0.29794 0.67925 0.85912 0.0
H2582 H 0.29942 0.70853 0.8765 0.0
C2583 C 0.34128 0.82186 0.92326 0.0
C2584 C 0.33975 0.75608 0.90984 0.0
H2585 H 0.36892 0.72976 0.88469 0.0
C2586 C 0.32064 0.7384 0.9112 0.0
C2587 C 0.35769 0.75259 0.90028 0.0
C2588 C 0.37937 0.77004 0.89857 0.0
C2589 C 0.31877 0.71775 0.90323 0.0
C2590 C 0.33624 0.71469 0.89349 0.0
C2591 C 0.35556 0.73207 0.89219 0.0
C2592 C 0.33384 0.69448 0.88408 0.0
C2593 C 0.29813 0.69924 0.90532 0.0
C2594 C 0.35233 0.67626 0.88273 0.0
C2595 C 0.35123 0.65904 0.87289 0.0
C2596 C 0.33189 0.66017 0.8641 0.0
C2597 C 0.31284 0.67764 0.86588 0.0
C2598 C 0.31375 0.69452 0.87576 0.0
H2599 H 0.29007 0.70079 0.91485 0.0
H2600 H 0.2831 0.70268 0.89845 0.0
H2601 H 0.30492 0.68 0.90394 0.0
H2602 H 0.36805 0.67593 0.88903 0.0
H2603 H 0.36646 0.64621 0.87163 0.0
H2604 H 0.04176 0.56234 0.60039 0.0
H2605 H 0.01443 0.56514 0.61836 0.0
H2606 H 0.07203 0.60239 0.63914 0.0
H2607 H 0.09933 0.60083 0.62075 0.0
H2608 H 0.01494 0.54714 0.64046 0.0
H2609 H 0.01726 0.64956 0.64556 0.0
H2610 H 0.031 0.63405 0.63235 0.0
H2611 H 0.04716 0.63531 0.64705 0.0
C2612 C 0.04882 0.57111 0.60876 0.0
C2613 C 0.07288 0.58143 0.60904 0.0
C2614 C 0.03303 0.57271 0.6191 0.0
C2615 C 0.04077 0.58444 0.63013 0.0
C2616 C 0.06517 0.59394 0.63066 0.0
H2617 H 0.9616 0.59273 0.70151 0.0
H2618 H 0.99316 0.59245 0.685 0.0
C2619 C 0.08094 0.59274 0.62017 0.0
C2620 C 0.02304 0.58631 0.64092 0.0
H2621 H 0.99439 0.62713 0.66078 0.0
C2622 C 0.0105 0.56471 0.64484 0.0
C2623 C 0.01702 0.60919 0.64673 0.0
C2624 C 0.02862 0.63338 0.64264 0.0
C2625 C 0.99216 0.56536 0.65421 0.0
C2626 C 0.98618 0.58815 0.65996 0.0
C2627 C -0.00103 0.60969 0.65631 0.0
C2628 C 0.9668 0.58973 0.66987 0.0
C2629 C 0.97919 0.54166 0.65796 0.0
C2630 C 0.94142 0.58868 0.66684 0.0
C2631 C 0.92327 0.58897 0.67628 0.0
C2632 C 0.93018 0.58995 0.68894 0.0
C2633 C 0.95564 0.59148 0.69189 0.0
C2634 C 0.97372 0.59151 0.68245 0.0
H2635 H 0.98784 0.52506 0.65364 0.0
H2636 H 0.97947 0.5395 0.66828 0.0
H2637 H 0.95945 0.54253 0.65501 0.0
H2638 H 0.93568 0.58735 0.65716 0.0
H2639 H 0.90386 0.58774 0.67371 0.0
H2640 H 0.20293 0.67951 0.18809 0.0
H2641 H 0.19787 0.70846 0.17074 0.0
H2642 H 0.13583 0.66567 0.1572 0.0
H2643 H 0.14089 0.63637 0.17466 0.0
H2644 H 0.1703 0.68707 0.13798 0.0
H2645 H 0.13574 0.75572 0.17241 0.0
H2646 H 0.16505 0.742 0.17643 0.0
H2647 H 0.13766 0.72294 0.1758 0.0
C2648 C 0.18876 0.67572 0.18116 0.0
C2649 C 0.17231 0.65566 0.18273 0.0
C2650 C 0.18571 0.69247 0.17135 0.0
C2651 C 0.16608 0.68957 0.1629 0.0
C2652 C 0.15095 0.66834 0.16372 0.0
H2653 H 0.11767 0.81495 0.11598 0.0
H2654 H 0.11752 0.78 0.13071 0.0
C2655 C 0.15406 0.65142 0.1736 0.0
C2656 C 0.16073 0.70967 0.1538 0.0
H2657 H 0.14595 0.77124 0.15216 0.0
C2658 C 0.1647 0.70539 0.14104 0.0
C2659 C 0.15305 0.73349 0.1578 0.0
C2660 C 0.14738 0.73885 0.17135 0.0
C2661 C 0.16231 0.72464 0.13224 0.0
C2662 C 0.15609 0.74884 0.13634 0.0
C2663 C 0.15095 0.75279 0.14903 0.0
C2664 C 0.1561 0.77049 0.1277 0.0
C2665 C 0.16666 0.7189 0.11862 0.0
C2666 C 0.17801 0.77731 0.12148 0.0
C2667 C 0.17821 0.79733 0.11318 0.0
C2668 C 0.1565 0.81113 0.11091 0.0
C2669 C 0.13474 0.80485 0.11752 0.0
C2670 C 0.13458 0.78475 0.12587 0.0
H2671 H 0.16382 0.69888 0.11662 0.0
H2672 H 0.15411 0.7299 0.11255 0.0
H2673 H 0.18613 0.72365 0.11616 0.0
H2674 H 0.19504 0.7671 0.12303 0.0
H2675 H 0.19545 0.80196 0.10851 0.0
H2676 H 0.92332 0.36941 0.86482 0.0
H2677 H 0.95759 0.36914 0.87992 0.0
H2678 H 0.97446 0.44513 0.87075 0.0
H2679 H 0.94004 0.44588 0.85595 0.0
H2680 H 0.01731 0.40514 0.87097 0.0
H2681 H 0.95943 0.4139 0.91395 0.0
H2682 H 0.94979 0.39283 0.9018 0.0
H2683 H 0.94897 0.42559 0.89903 0.0
C2684 C 0.93407 0.38618 0.8661 0.0
C2685 C 0.92879 0.40766 0.85905 0.0
C2686 C 0.9538 0.38592 0.87469 0.0
C2687 C 0.96869 0.40708 0.8764 0.0
C2688 C 0.96338 0.42852 0.8695 0.0
H2689 H 0.06567 0.45288 0.93556 0.0
H2690 H 0.03664 0.44964 0.91816 0.0
C2691 C 0.94367 0.42886 0.86098 0.0
C2692 C 0.98968 0.40719 0.88547 0.0
H2693 H 0.00272 0.41326 0.91653 0.0
C2694 C 0.0142 0.40671 0.88095 0.0
C2695 C 0.98555 0.40943 0.89845 0.0
C2696 C 0.95957 0.41056 0.90371 0.0
C2697 C 0.03471 0.40877 0.88908 0.0
C2698 C 0.0306 0.41126 0.90209 0.0
C2699 C 0.00599 0.41137 0.90658 0.0
C2700 C 0.05128 0.41493 0.91124 0.0
C2701 C 0.06054 0.40909 0.88361 0.0
C2702 C 0.0702 0.39719 0.91285 0.0
C2703 C 0.0874 0.39941 0.92268 0.0
C2704 C 0.08561 0.41914 0.93121 0.0
C2705 C 0.06774 0.43764 0.92905 0.0
C2706 C 0.05087 0.4356 0.9192 0.0
H2707 H 0.06033 0.41335 0.87345 0.0
H2708 H 0.07244 0.42295 0.8884 0.0
H2709 H 0.06908 0.39054 0.88485 0.0
H2710 H 0.0708 0.38085 0.90699 0.0
H2711 H 0.10059 0.38459 0.92421 0.0
H2712 H 0.33425 0.15227 0.62373 0.0
H2713 H 0.33337 0.1848 0.63982 0.0
H2714 H 0.35464 0.23911 0.61213 0.0
H2715 H 0.35408 0.20693 0.59605 0.0
H2716 H 0.36528 0.21445 0.64968 0.0
H2717 H 0.29704 0.27467 0.62584 0.0
H2718 H 0.30422 0.24398 0.62028 0.0
H2719 H 0.3241 0.26985 0.61641 0.0
C2720 C 0.33864 0.1712 0.62113 0.0
C2721 C 0.34378 0.17716 0.60861 0.0
C2722 C 0.33814 0.18983 0.63031 0.0
C2723 C 0.34313 0.21479 0.62721 0.0
C2724 C 0.34959 0.22038 0.61478 0.0
H2725 H 0.35703 0.34691 0.67624 0.0
H2726 H 0.35988 0.31874 0.6581 0.0
C2727 C 0.3495 0.20191 0.60557 0.0
C2728 C 0.34194 0.23478 0.63696 0.0
H2729 H 0.31727 0.29197 0.64353 0.0
C2730 C 0.35471 0.23133 0.64829 0.0
C2731 C 0.32812 0.257 0.63529 0.0
C2732 C 0.3124 0.2615 0.62386 0.0
C2733 C 0.35412 0.24926 0.65785 0.0
C2734 C 0.34053 0.27145 0.6561 0.0
C2735 C 0.32801 0.27515 0.64478 0.0
C2736 C 0.33731 0.2898 0.66641 0.0
C2737 C 0.36791 0.24425 0.66985 0.0
C2738 C 0.3229 0.28336 0.67683 0.0
C2739 C 0.32104 0.29939 0.68702 0.0
C2740 C 0.33356 0.32238 0.68714 0.0
C2741 C 0.34699 0.32949 0.67642 0.0
C2742 C 0.3488 0.31331 0.66611 0.0
H2743 H 0.38178 0.22917 0.66876 0.0
H2744 H 0.37753 0.26125 0.67315 0.0
H2745 H 0.35442 0.23854 0.67716 0.0
H2746 H 0.31354 0.26557 0.6772 0.0
H2747 H 0.31037 0.2933 0.69506 0.0
H2748 H 0.38686 0.55364 0.41744 0.0
H2749 H 0.42282 0.55375 0.4034 0.0
H2750 H 0.46137 0.60334 0.42831 0.0
H2751 H 0.4262 0.60223 0.44264 0.0
H2752 H 0.44436 0.58898 0.39034 0.0
H2753 H 0.51478 0.55374 0.42353 0.0
H2754 H 0.48208 0.55375 0.42718 0.0
H2755 H 0.50027 0.58161 0.42894 0.0
C2756 C 0.40302 0.56449 0.41999 0.0
C2757 C 0.40333 0.57809 0.43121 0.0
C2758 C 0.42366 0.56456 0.41191 0.0
C2759 C 0.44523 0.5782 0.41481 0.0
C2760 C 0.44541 0.59208 0.42592 0.0
H2761 H 0.58098 0.60892 0.37111 0.0
H2762 H 0.54765 0.6099 0.3867 0.0
C2763 C 0.42492 0.59178 0.43406 0.0
C2764 C 0.46705 0.57848 0.40602 0.0
H2765 H 0.52997 0.56907 0.40409 0.0
C2766 C 0.46301 0.58447 0.39339 0.0
C2767 C 0.49164 0.57277 0.40989 0.0
C2768 C 0.49745 0.56487 0.42309 0.0
C2769 C 0.48259 0.58497 0.38463 0.0
C2770 C 0.50705 0.57922 0.3885 0.0
C2771 C 0.51127 0.57358 0.40112 0.0
C2772 C 0.52818 0.57797 0.37941 0.0
C2773 C 0.47702 0.59186 0.37127 0.0
C2774 C 0.52881 0.5593 0.3703 0.0
C2775 C 0.54806 0.5584 0.36146 0.0
C2776 C 0.56723 0.57628 0.3614 0.0
C2777 C 0.56687 0.59464 0.3708 0.0
C2778 C 0.54765 0.59536 0.37973 0.0
H2779 H 0.45855 0.60082 0.37031 0.0
H2780 H 0.49145 0.60463 0.36753 0.0
H2781 H 0.47711 0.57484 0.36545 0.0
H2782 H 0.51427 0.5454 0.36997 0.0
H2783 H 0.54774 0.54369 0.35461 0.0
H2784 H 0.56072 0.3327 0.24287 0.0
H2785 H 0.52653 0.30752 0.25043 0.0
H2786 H 0.55853 0.24304 0.23288 0.0
H2787 H 0.59392 0.268 0.22579 0.0
H2788 H 0.49867 0.28789 0.23183 0.0
H2789 H 0.52726 0.21441 0.26503 0.0
H2790 H 0.54497 0.24258 0.26266 0.0
H2791 H 0.5478 0.21722 0.25185 0.0
C2792 C 0.56116 0.31295 0.24106 0.0
C2793 C 0.58 0.30224 0.23373 0.0
C2794 C 0.54159 0.29863 0.24542 0.0
C2795 C 0.54031 0.27349 0.24236 0.0
C2796 C 0.55963 0.26236 0.23558 0.0
H2797 H 0.4399 0.17799 0.21281 0.0
H2798 H 0.4738 0.20399 0.22069 0.0
C2799 C 0.57949 0.27668 0.23131 0.0
C2800 C 0.51649 0.26065 0.24356 0.0
H2801 H 0.49041 0.20595 0.25258 0.0
C2802 C 0.49655 0.27037 0.23672 0.0
C2803 C 0.514 0.23787 0.24993 0.0
C2804 C 0.5346 0.22751 0.25789 0.0
C2805 C 0.47472 0.25688 0.23526 0.0
C2806 C 0.473 0.23325 0.24079 0.0
C2807 C 0.49211 0.2242 0.24839 0.0
C2808 C 0.45334 0.2164 0.23694 0.0
C2809 C 0.4544 0.26696 0.22699 0.0
C2810 C 0.43096 0.21527 0.24355 0.0
C2811 C 0.41168 0.20057 0.23906 0.0
C2812 C 0.41476 0.18734 0.22788 0.0
C2813 C 0.43719 0.18856 0.2213 0.0
C2814 C 0.4565 0.20298 0.22586 0.0
H2815 H 0.45728 0.28686 0.22469 0.0
H2816 H 0.45393 0.25628 0.21813 0.0
H2817 H 0.43604 0.26474 0.23161 0.0
H2818 H 0.42839 0.22589 0.25204 0.0
H2819 H 0.39441 0.1995 0.24425 0.0
H2820 H 0.90683 0.27734 0.46869 0.0
H2821 H 0.93571 0.24483 0.47468 0.0
H2822 H 0.94657 0.27995 0.51041 0.0
H2823 H 0.91866 0.31296 0.50439 0.0
H2824 H 0.98139 0.29155 0.49106 0.0
H2825 H 0.96926 0.18983 0.4961 0.0
H2826 H 0.94808 0.20387 0.48524 0.0
H2827 H 0.94635 0.21192 0.50151 0.0
C2828 C 0.91469 0.27764 0.478 0.0
C2829 C 0.9117 0.29836 0.48578 0.0
C2830 C 0.93065 0.25865 0.48157 0.0
C2831 C 0.94378 0.26058 0.49283 0.0
C2832 C 0.93669 0.27838 0.50164 0.0
H2833 H 0.09465 0.20818 0.48507 0.0
H2834 H 0.06181 0.23254 0.49461 0.0
C2835 C 0.92093 0.29749 0.49806 0.0
C2836 C 0.96991 0.25318 0.4925 0.0
H2837 H 0.00668 0.20396 0.48556 0.0
C2838 C 0.98721 0.27234 0.49036 0.0
C2839 C 0.97715 0.22824 0.49132 0.0
C2840 C 0.95927 0.20725 0.49377 0.0
C2841 C 0.01104 0.26718 0.48599 0.0
C2842 C 0.01762 0.24236 0.48399 0.0
C2843 C 0.00116 0.22307 0.48709 0.0
C2844 C 0.0406 0.23582 0.4776 0.0
C2845 C 0.02837 0.28816 0.48261 0.0
C2846 C 0.04005 0.23148 0.46471 0.0
C2847 C 0.05887 0.21769 0.45915 0.0
C2848 C 0.07805 0.208 0.46654 0.0
C2849 C 0.08014 0.21542 0.47911 0.0
C2850 C 0.06133 0.22917 0.48464 0.0
H2851 H 0.02119 0.30643 0.48574 0.0
H2852 H 0.04691 0.285 0.48685 0.0
H2853 H 0.03088 0.28868 0.47231 0.0
H2854 H 0.02401 0.23675 0.45922 0.0
H2855 H 0.0571 0.2125 0.44941 0.0
H2856 H 0.9586 0.64209 0.72229 0.0
H2857 H -0.00226 0.66315 0.72677 0.0
H2858 H 0.96283 0.70257 0.75708 0.0
H2859 H 0.92371 0.68142 0.75274 0.0
H2860 H 0.97051 0.71646 0.72472 0.0
H2861 H 0.04659 0.70546 0.75964 0.0
H2862 H 0.03316 0.67852 0.75218 0.0
H2863 H 0.01511 0.69593 0.76314 0.0
C2864 C 0.95967 0.65447 0.73024 0.0
C2865 C 0.93823 0.66129 0.73682 0.0
C2866 C 0.98211 0.66593 0.73301 0.0
C2867 C 0.98273 0.68469 0.74204 0.0
C2868 C 0.96249 0.68808 0.75007 0.0
H2869 H 0.05066 0.82923 0.73062 0.0
H2870 H 0.02087 0.79717 0.73699 0.0
C2871 C 0.94008 0.67643 0.74741 0.0
C2872 C -0.00282 0.70668 0.73894 0.0
H2873 H 0.04962 0.73915 0.74543 0.0
C2874 C 0.98778 0.72156 0.72927 0.0
C2875 C 0.01924 0.71311 0.74511 0.0
C2876 C 0.02928 0.69754 0.75563 0.0
C2877 C 0.00056 0.74252 0.72525 0.0
C2878 C 0.02308 0.7485 0.73112 0.0
C2879 C 0.03215 0.73416 0.74107 0.0
C2880 C 0.03868 0.76825 0.72627 0.0
C2881 C 0.99053 0.75765 0.71452 0.0
C2882 C 0.0576 0.76227 0.71787 0.0
C2883 C 0.07465 0.78026 0.71433 0.0
C2884 C 0.07279 0.80432 0.7192 0.0
C2885 C 0.05272 0.8106 0.72699 0.0
C2886 C 0.03574 0.7925 0.73058 0.0
H2887 H 0.97201 0.75103 0.71139 0.0
H2888 H 0.98901 0.77742 0.71732 0.0
H2889 H 0.00363 0.7567 0.70651 0.0
H2890 H 0.05973 0.74347 0.71446 0.0
H2891 H 0.08999 0.77498 0.70834 0.0
H2892 H 0.54046 0.63907 0.99845 0.0
H2893 H 0.50939 0.66991 1.00505 0.0
H2894 H 0.54527 0.72499 0.9819 0.0
H2895 H 0.57577 0.6942 0.9751 0.0
H2896 H 0.51968 0.73697 1.01008 0.0
H2897 H 0.46648 0.69353 0.97105 0.0
H2898 H 0.48378 0.67508 0.98209 0.0
H2899 H 0.49993 0.693 0.97052 0.0
C2900 C 0.54181 0.65796 0.99505 0.0
C2901 C 0.55983 0.66453 0.98616 0.0
C2902 C 0.52441 0.67546 0.9989 0.0
C2903 C 0.52539 0.6995 0.99398 0.0
C2904 C 0.5446 0.70647 0.98585 0.0
H2905 H 0.47055 0.83592 0.97592 0.0
H2906 H 0.49244 0.79957 0.98427 0.0
C2907 C 0.56169 0.68896 0.98186 0.0
C2908 C 0.50403 0.71594 0.99491 0.0
H2909 H 0.45615 0.73442 0.97655 0.0
C2910 C 0.50518 0.73617 1.00306 0.0
C2911 C 0.48525 0.71446 0.98577 0.0
C2912 C 0.48356 0.69285 0.97685 0.0
C2913 C 0.48894 0.75618 1.0016 0.0
C2914 C 0.47199 0.75586 0.99154 0.0
C2915 C 0.4694 0.73458 0.98418 0.0
C2916 C 0.45885 0.7782 0.98747 0.0
C2917 C 0.49076 0.77786 1.01043 0.0
C2918 C 0.43304 0.77754 0.98606 0.0
C2919 C 0.42077 0.79787 0.98109 0.0
C2920 C 0.43417 0.81906 0.97748 0.0
C2921 C 0.46004 0.81961 0.97863 0.0
C2922 C 0.47237 0.79918 0.98361 0.0
H2923 H 0.49755 0.77186 1.01975 0.0
H2924 H 0.50421 0.79156 1.00663 0.0
H2925 H 0.47251 0.78717 1.01159 0.0
H2926 H 0.42246 0.76126 0.98874 0.0
H2927 H 0.40074 0.79719 0.98016 0.0
H2928 H 0.44649 0.83407 0.31368 0.0
H2929 H 0.47461 0.8054 0.30311 0.0
H2930 H 0.43591 0.74348 0.31984 0.0
H2931 H 0.40698 0.77204 0.32999 0.0
H2932 H 0.50517 0.77182 0.31262 0.0
H2933 H 0.43569 0.72479 0.28308 0.0
H2934 H 0.42943 0.75365 0.29105 0.0
H2935 H 0.42645 0.72452 0.29919 0.0
C2936 C 0.44402 0.8143 0.31506 0.0
C2937 C 0.4244 0.80508 0.3224 0.0
C2938 C 0.45994 0.79806 0.309 0.0
C2939 C 0.45648 0.77247 0.3103 0.0
C2940 C 0.43805 0.76324 0.31834 0.0
H2941 H 0.52491 0.64661 0.3171 0.0
H2942 H 0.49395 0.67547 0.30931 0.0
C2943 C 0.42195 0.77949 0.32433 0.0
C2944 C 0.47322 0.75526 0.30394 0.0
H2945 H 0.47324 0.70101 0.28772 0.0
C2946 C 0.49846 0.75674 0.30683 0.0
C2947 C 0.4642 0.73599 0.29624 0.0
C2948 C 0.43747 0.73481 0.2921 0.0
C2949 C 0.51464 0.73779 0.30341 0.0
C2950 C 0.50511 0.71717 0.29673 0.0
C2951 C 0.48033 0.71689 0.29281 0.0
C2952 C 0.51911 0.69396 0.29651 0.0
C2953 C 0.5411 0.73889 0.30813 0.0
C2954 C 0.5426 0.69345 0.29099 0.0
C2955 C 0.56074 0.67807 0.29595 0.0
C2956 C 0.5551 0.66226 0.30609 0.0
C2957 C 0.53022 0.65957 0.30983 0.0
C2958 C 0.5123 0.67556 0.30513 0.0
H2959 H 0.54456 0.75528 0.31416 0.0
H2960 H 0.54553 0.72196 0.3136 0.0
H2961 H 0.5541 0.73993 0.30009 0.0
H2962 H 0.54788 0.70736 0.28416 0.0
H2963 H 0.57957 0.68065 0.29265 0.0
H2964 H 0.51882 0.34448 0.58831 0.0
H2965 H 0.48307 0.31955 0.58191 0.0
H2966 H 0.52985 0.27836 0.55659 0.0
H2967 H 0.56589 0.30166 0.56363 0.0
H2968 H 0.46157 0.31375 0.55895 0.0
H2969 H 0.49825 0.22449 0.57692 0.0
H2970 H 0.51236 0.25385 0.5807 0.0
H2971 H 0.51917 0.23886 0.56606 0.0
C2972 C 0.52154 0.32973 0.58159 0.0
C2973 C 0.54508 0.32497 0.57645 0.0
C2974 C 0.5011 0.31584 0.57781 0.0
C2975 C 0.50401 0.29722 0.56883 0.0
C2976 C 0.52741 0.29253 0.56365 0.0
H2977 H 0.42049 0.18012 0.54348 0.0
H2978 H 0.4344 0.22202 0.53863 0.0
C2979 C 0.54789 0.306 0.56759 0.0
C2980 C 0.48274 0.28205 0.56511 0.0
H2981 H 0.46297 0.22235 0.56395 0.0
C2982 C 0.46174 0.29374 0.56001 0.0
C2983 C 0.48319 0.25607 0.56667 0.0
C2984 C 0.50434 0.24263 0.57301 0.0
C2985 C 0.44098 0.27984 0.55637 0.0
C2986 C 0.44181 0.25393 0.55769 0.0
C2987 C 0.46289 0.24233 0.56266 0.0
C2988 C 0.42033 0.23785 0.55577 0.0
C2989 C 0.41825 0.29263 0.55135 0.0
C2990 C 0.4054 0.2338 0.56632 0.0
C2991 C 0.39797 0.20978 0.56928 0.0
C2992 C 0.40489 0.19004 0.56149 0.0
C2993 C 0.41551 0.19503 0.54977 0.0
C2994 C 0.42292 0.21907 0.54683 0.0
H2995 H 0.42162 0.31265 0.54953 0.0
H2996 H 0.41213 0.28356 0.54256 0.0
H2997 H 0.40288 0.2908 0.55822 0.0
H2998 H 0.4031 0.24823 0.57326 0.0
H2999 H 0.38873 0.20639 0.57812 0.0
H3000 H 0.08479 0.21843 0.83918 0.0
H3001 H 0.05889 0.25209 0.83159 0.0
H3002 H 0.02795 0.20359 0.80354 0.0
H3003 H 0.05114 0.16907 0.81211 0.0
H3004 H 0.0607 0.2738 0.80993 0.0
H3005 H 0.96669 0.23304 0.81627 0.0
H3006 H 0.99401 0.21865 0.82261 0.0
H3007 H 0.98593 0.21439 0.80641 0.0
C3008 C 0.07179 0.21463 0.83171 0.0
C3009 C 0.07029 0.1911 0.82615 0.0
C3010 C 0.05735 0.23402 0.82723 0.0
C3011 C 0.04165 0.2303 0.81697 0.0
C3012 C 0.03969 0.20676 0.81158 0.0
H3013 H 0.92878 0.3255 0.79343 0.0
H3014 H 0.9684 0.30821 0.78709 0.0
C3015 C 0.05335 0.18715 0.81636 0.0
C3016 C 0.02767 0.25126 0.81183 0.0
H3017 H 0.96912 0.27094 0.80579 0.0
C3018 C 0.04066 0.2732 0.80893 0.0
C3019 C 0.00161 0.25022 0.81043 0.0
C3020 C 0.98625 0.2279 0.81421 0.0
C3021 C 0.02799 0.29469 0.80539 0.0
C3022 C 0.00197 0.29376 0.80441 0.0
C3023 C 0.98925 0.27133 0.80633 0.0
C3024 C 0.98658 0.31606 0.80462 0.0
C3025 C 0.04223 0.31845 0.80339 0.0
C3026 C 0.98467 0.32832 0.81613 0.0
C3027 C 0.96195 0.33804 0.81986 0.0
C3028 C 0.94119 0.33575 0.81204 0.0
C3029 C 0.94437 0.32717 0.79975 0.0
C3030 C 0.96716 0.31769 0.79599 0.0
H3031 H 0.06176 0.31472 0.80061 0.0
H3032 H 0.03326 0.33014 0.79614 0.0
H3033 H 0.04254 0.32908 0.81226 0.0
H3034 H -0.00047 0.32721 0.82292 0.0
H3035 H 0.9602 0.34562 0.82919 0.0
H3036 H 0.90932 0.68321 0.07346 0.0
H3037 H 0.94926 0.7024 0.07007 0.0
H3038 H 0.9341 0.7079 0.03059 0.0
H3039 H 0.89309 0.68819 0.03396 0.0
H3040 H 0.99043 0.68895 0.05336 0.0
H3041 H 0.94516 0.78051 0.04478 0.0
H3042 H 0.92858 0.75516 0.052 0.0
H3043 H 0.93561 0.75416 0.03563 0.0
C3044 C 0.9141 0.68882 0.06403 0.0
C3045 C 0.89763 0.68516 0.05399 0.0
C3046 C 0.93722 0.69929 0.0621 0.0
C3047 C 0.94451 0.70642 0.05011 0.0
C3048 C 0.92858 0.70238 0.03993 0.0
H3049 H 0.05731 0.81853 0.04738 0.0
H3050 H 0.03204 0.78463 0.03986 0.0
C3051 C 0.90521 0.6915 0.04185 0.0
C3052 C 0.96765 0.72062 0.04896 0.0
H3053 H 0.98727 0.7805 0.04945 0.0
C3054 C 0.99009 0.70892 0.05211 0.0
C3055 C 0.96677 0.74661 0.04762 0.0
C3056 C 0.94279 0.76003 0.04487 0.0
C3057 C 0.0116 0.72284 0.05446 0.0
C3058 C 0.01033 0.74895 0.05369 0.0
C3059 C 0.9882 0.76042 0.04992 0.0
C3060 C 0.03081 0.76534 0.05757 0.0
C3061 C 0.03514 0.70957 0.05811 0.0
C3062 C 0.03917 0.7653 0.06999 0.0
C3063 C 0.05437 0.78447 0.0743 0.0
C3064 C 0.06092 0.80421 0.06632 0.0
C3065 C 0.05315 0.80353 0.05378 0.0
C3066 C 0.03856 0.78415 0.04943 0.0
H3067 H 0.03539 0.6903 0.05443 0.0
H3068 H 0.05183 0.71958 0.05464 0.0
H3069 H 0.0362 0.70849 0.06845 0.0
H3070 H 0.03293 0.75121 0.0765 0.0
H3071 H 0.06044 0.7841 0.08394 0.0
H3072 H 0.45358 0.66213 0.80728 0.0
H3073 H 0.47593 0.69445 0.7959 0.0
H3074 H 0.44931 0.74896 0.82218 0.0
H3075 H 0.42501 0.71737 0.83283 0.0
H3076 H 0.43717 0.75999 0.79767 0.0
H3077 H 0.53753 0.73525 0.80193 0.0
H3078 H 0.51636 0.71234 0.79597 0.0
H3079 H 0.51446 0.72156 0.81205 0.0
C3080 C 0.45261 0.68102 0.81066 0.0
C3081 C 0.43677 0.68741 0.82065 0.0
C3082 C 0.46562 0.69936 0.80422 0.0
C3083 C 0.46371 0.72406 0.80804 0.0
C3084 C 0.45044 0.72995 0.81894 0.0
H3085 H 0.51415 0.82889 0.8296 0.0
H3086 H 0.4822 0.80888 0.8174 0.0
C3087 C 0.43688 0.7118 0.82515 0.0
C3088 C 0.47367 0.74444 0.80042 0.0
H3089 H 0.52774 0.77532 0.79562 0.0
C3090 C 0.45701 0.76317 0.79684 0.0
C3091 C 0.49945 0.74801 0.79887 0.0
C3092 C 0.5181 0.72834 0.80241 0.0
C3093 C 0.4656 0.78696 0.79401 0.0
C3094 C 0.49126 0.79156 0.79452 0.0
C3095 C 0.50793 0.7716 0.79545 0.0
C3096 C 0.50043 0.81505 0.79959 0.0
C3097 C 0.44727 0.80774 0.79236 0.0
C3098 C 0.51962 0.82754 0.79344 0.0
C3099 C 0.53761 0.83983 0.80042 0.0
C3100 C 0.53703 0.83857 0.81359 0.0
C3101 C 0.51551 0.8298 0.81952 0.0
C3102 C 0.49701 0.81849 0.81249 0.0
H3103 H 0.42995 0.80094 0.78789 0.0
H3104 H 0.44233 0.81532 0.80168 0.0
H3105 H 0.45533 0.82297 0.78664 0.0
H3106 H 0.5224 0.82519 0.78348 0.0
H3107 H 0.55333 0.84785 0.79555 0.0
H3108 H 0.89374 0.79178 0.55332 0.0
H3109 H 0.91723 0.75793 0.544 0.0
H3110 H 0.96395 0.75503 0.5766 0.0
H3111 H 0.94351 0.79073 0.58518 0.0
H3112 H 0.97553 0.77607 0.54512 0.0
H3113 H 0.95433 0.67986 0.55913 0.0
H3114 H 0.93054 0.70294 0.55626 0.0
H3115 H 0.94627 0.70182 0.57109 0.0
C3116 C 0.90917 0.78419 0.55852 0.0
C3117 C 0.91771 0.79535 0.56967 0.0
C3118 C 0.92198 0.76429 0.55329 0.0
C3119 C 0.94232 0.75436 0.55958 0.0
C3120 C 0.9481 0.76259 0.57165 0.0
H3121 H 0.05465 0.71825 0.59128 0.0
H3122 H 0.02025 0.73578 0.57927 0.0
C3123 C 0.93629 0.78324 0.57656 0.0
C3124 C 0.9621 0.74159 0.55281 0.0
H3125 H -0.00171 0.69308 0.56125 0.0
C3126 C 0.9805 0.75735 0.54789 0.0
C3127 C 0.9682 0.71718 0.55623 0.0
C3128 C 0.94867 0.69937 0.56086 0.0
C3129 C 0.00561 0.75139 0.54926 0.0
C3130 C 0.01175 0.72865 0.55489 0.0
C3131 C 0.99325 0.71083 0.55719 0.0
C3132 C 0.03546 0.72531 0.56129 0.0
C3133 C 0.02513 0.77074 0.54655 0.0
C3134 C 0.05584 0.71545 0.55497 0.0
C3135 C 0.07561 0.70587 0.56179 0.0
C3136 C 0.07478 0.70569 0.57495 0.0
C3137 C 0.05561 0.71817 0.58116 0.0
C3138 C 0.03602 0.72802 0.57433 0.0
H3139 H 0.01788 0.78583 0.5405 0.0
H3140 H 0.03148 0.77901 0.5555 0.0
H3141 H 0.0415 0.76216 0.54196 0.0
H3142 H 0.05552 0.71329 0.54491 0.0
H3143 H 0.09009 0.69611 0.55677 0.0
H3144 H 0.9445 0.14927 0.31497 0.0
H3145 H 0.98073 0.17154 0.30691 0.0
H3146 H 0.94682 0.24116 0.31707 0.0
H3147 H 0.91011 0.21889 0.32492 0.0
H3148 H 0.96866 0.23867 0.29202 0.0
H3149 H 0.03095 0.20629 0.33033 0.0
H3150 H 0.01436 0.18284 0.32179 0.0
H3151 H -0.00241 0.2043 0.33142 0.0
C3152 C 0.94482 0.16935 0.31542 0.0
C3153 C 0.92472 0.18256 0.32048 0.0
C3154 C 0.96541 0.18194 0.31085 0.0
C3155 C 0.96617 0.20781 0.3114 0.0
C3156 C 0.94624 0.22109 0.31653 0.0
H3157 H 0.04467 0.32917 0.3181 0.0
H3158 H 0.01526 0.29831 0.31018 0.0
C3159 C 0.92556 0.20848 0.32112 0.0
C3160 C 0.98828 0.22113 0.30718 0.0
H3161 H 0.04697 0.2353 0.3163 0.0
C3162 C 0.98601 0.23767 0.29713 0.0
C3163 C 0.01079 0.21934 0.31384 0.0
C3164 C 0.01369 0.20239 0.325 0.0
C3165 C 0.00533 0.254 0.29417 0.0
C3166 C 0.02708 0.25345 0.30144 0.0
C3167 C 0.03019 0.23532 0.31069 0.0
C3168 C 0.04369 0.27481 0.30212 0.0
C3169 C 0.00184 0.2728 0.28389 0.0
C3170 C 0.06917 0.27177 0.29997 0.0
C3171 C 0.08585 0.28928 0.30453 0.0
C3172 C 0.07702 0.30952 0.3114 0.0
C3173 C 0.05154 0.3134 0.31287 0.0
C3174 C 0.03487 0.29611 0.30817 0.0
H3175 H 0.98787 0.26642 0.27697 0.0
H3176 H 0.99516 0.29046 0.28801 0.0
H3177 H 0.01969 0.27657 0.27902 0.0
H3178 H 0.07614 0.25513 0.29553 0.0
H3179 H 0.10562 0.28641 0.30329 0.0
H3180 H 0.5935 0.20563 0.08589 0.0
H3181 H 0.57986 0.2477 0.08078 0.0
H3182 H 0.55363 0.22226 0.04497 0.0
H3183 H 0.56648 0.18013 0.0501 0.0
H3184 H 0.57476 0.2831 0.05264 0.0
H3185 H 0.49656 0.23278 0.07613 0.0
H3186 H 0.5282 0.22712 0.08072 0.0
H3187 H 0.51724 0.21625 0.0659 0.0
C3188 C 0.58511 0.20914 0.07687 0.0
C3189 C 0.58008 0.18961 0.06857 0.0
C3190 C 0.57807 0.23322 0.07383 0.0
C3191 C 0.56592 0.23783 0.06251 0.0
C3192 C 0.56338 0.21892 0.05366 0.0
H3193 H 0.43368 0.31668 0.05576 0.0
H3194 H 0.47038 0.29522 0.04871 0.0
C3195 C 0.57029 0.19484 0.05671 0.0
C3196 C 0.54879 0.25869 0.06183 0.0
H3197 H 0.48939 0.27299 0.06949 0.0
C3198 C 0.55603 0.28111 0.05625 0.0
C3199 C 0.52455 0.25562 0.06661 0.0
C3200 C 0.51601 0.23172 0.0727 0.0
C3201 C 0.53911 0.30081 0.05525 0.0
C3202 C 0.51482 0.29755 0.05997 0.0
C3203 C 0.50795 0.27515 0.06566 0.0
C3204 C 0.49583 0.31697 0.05984 0.0
C3205 C 0.54708 0.32472 0.04913 0.0
C3206 C 0.49833 0.33741 0.06778 0.0
C3207 C 0.47729 0.35039 0.07159 0.0
C3208 C 0.45351 0.34255 0.06779 0.0
C3209 C 0.45152 0.32349 0.05889 0.0
C3210 C 0.47258 0.31116 0.05477 0.0
H3211 H 0.56411 0.32225 0.04339 0.0
H3212 H 0.53204 0.33221 0.04313 0.0
H3213 H 0.55112 0.33865 0.05648 0.0
H3214 H 0.51613 0.34196 0.0719 0.0
H3215 H 0.47961 0.36565 0.07805 0.0
H3216 H 0.41624 0.30689 0.75364 0.0
H3217 H 0.44981 0.27922 0.75991 0.0
H3218 H 0.4929 0.30335 0.72806 0.0
H3219 H 0.45966 0.33115 0.72189 0.0
H3220 H 0.45165 0.24587 0.74092 0.0
H3221 H 0.54681 0.27702 0.75087 0.0
H3222 H 0.51991 0.29557 0.75479 0.0
H3223 H 0.53338 0.29703 0.73935 0.0
C3224 C 0.43338 0.30709 0.74833 0.0
C3225 C 0.43519 0.32023 0.73703 0.0
C3226 C 0.45264 0.29156 0.75203 0.0
C3227 C 0.47363 0.28908 0.74439 0.0
C3228 C 0.47693 0.30512 0.73416 0.0
H3229 H 0.56621 0.20787 0.70151 0.0
H3230 H 0.53482 0.23511 0.71057 0.0
C3231 C 0.45769 0.32054 0.73045 0.0
C3232 C 0.48637 0.26512 0.74379 0.0
H3233 H 0.5429 0.24319 0.73527 0.0
C3234 C 0.4717 0.24483 0.74008 0.0
C3235 C 0.51239 0.26385 0.74282 0.0
C3236 C 0.52897 0.28454 0.74731 0.0
C3237 C 0.48211 0.22496 0.73358 0.0
C3238 C 0.5079 0.22516 0.73131 0.0
C3239 C 0.52292 0.24371 0.7366 0.0
C3240 C 0.51998 0.2071 0.72307 0.0
C3241 C 0.46516 0.20525 0.72831 0.0
C3242 C 0.52 0.18192 0.72623 0.0
C3243 C 0.53717 0.1662 0.72068 0.0
C3244 C 0.5551 0.17587 0.71242 0.0
C3245 C 0.55272 0.20014 0.70796 0.0
C3246 C 0.53505 0.21572 0.71325 0.0
H3247 H 0.44546 0.21135 0.72815 0.0
H3248 H 0.47075 0.20012 0.71866 0.0
H3249 H 0.46626 0.1884 0.73424 0.0
H3250 H 0.50857 0.17492 0.73378 0.0
H3251 H 0.53842 0.14724 0.724 0.0
H3252 H 0.53738 0.83689 0.46564 0.0
H3253 H 0.50269 0.81649 0.47571 0.0
H3254 H 0.54965 0.75441 0.48513 0.0
H3255 H 0.58433 0.77394 0.47405 0.0
H3256 H 0.51103 0.74073 0.47281 0.0
H3257 H 0.47831 0.80309 0.51018 0.0
H3258 H 0.48111 0.81968 0.49574 0.0
H3259 H 0.50842 0.80663 0.5029 0.0
C3260 C 0.54032 0.81867 0.46963 0.0
C3261 C 0.56339 0.80658 0.46867 0.0
C3262 C 0.52065 0.80747 0.47581 0.0
C3263 C 0.52382 0.78431 0.48145 0.0
C3264 C 0.54706 0.77255 0.48097 0.0
H3265 H 0.42097 0.67654 0.50228 0.0
H3266 H 0.44366 0.71439 0.50695 0.0
C3267 C 0.56671 0.78355 0.47455 0.0
C3268 C 0.50178 0.77041 0.48544 0.0
H3269 H 0.44693 0.77517 0.50132 0.0
C3270 C 0.49733 0.74799 0.47929 0.0
C3271 C 0.48384 0.78018 0.49377 0.0
C3272 C 0.48833 0.80362 0.5011 0.0
C3273 C 0.47503 0.73542 0.48081 0.0
C3274 C 0.45649 0.74585 0.48857 0.0
C3275 C 0.46111 0.76774 0.49518 0.0
C3276 C 0.43279 0.73296 0.48993 0.0
C3277 C 0.47128 0.71135 0.47379 0.0
C3278 C 0.41703 0.73238 0.47953 0.0
C3279 C 0.40439 0.71058 0.47668 0.0
C3280 C 0.40719 0.68972 0.48441 0.0
C3281 C 0.41895 0.69224 0.49605 0.0
C3282 C 0.43161 0.71402 0.49885 0.0
H3283 H 0.48878 0.70447 0.46952 0.0
H3284 H 0.46399 0.69671 0.4801 0.0
H3285 H 0.45762 0.7142 0.46618 0.0
H3286 H 0.41768 0.74709 0.47262 0.0
H3287 H 0.39455 0.70927 0.46789 0.0
H3288 H 0.91608 0.81315 0.2539 0.0
H3289 H 0.9501 0.78719 0.2613 0.0
H3290 H 0.99172 0.80433 0.22786 0.0
H3291 H 0.95803 0.83067 0.22054 0.0
H3292 H 0.95579 0.74848 0.24481 0.0
H3293 H 0.04673 0.79227 0.25351 0.0
H3294 H 0.01771 0.8087 0.25554 0.0
H3295 H 0.0318 0.80624 0.24031 0.0
C3296 C 0.93291 0.81212 0.24837 0.0
C3297 C 0.93434 0.82323 0.23651 0.0
C3298 C 0.95237 0.79755 0.25268 0.0
C3299 C 0.97334 0.79404 0.24516 0.0
C3300 C 0.97583 0.80722 0.23391 0.0
H3301 H 0.07295 0.70687 0.21029 0.0
H3302 H 0.04217 0.7355 0.2185 0.0
C3303 C 0.95637 0.82173 0.22958 0.0
C3304 C 0.98827 0.77164 0.24671 0.0
H3305 H 0.04759 0.75251 0.24226 0.0
C3306 C 0.97594 0.74904 0.24469 0.0
C3307 C 0.01438 0.77265 0.24661 0.0
C3308 C 0.02838 0.7963 0.24924 0.0
C3309 C 0.98896 0.7281 0.24076 0.0
C3310 C 0.01496 0.72986 0.23941 0.0
C3311 C 0.02751 0.75155 0.24303 0.0
C3312 C 0.02945 0.71064 0.2331 0.0
C3313 C 0.97459 0.70524 0.23696 0.0
C3314 C 0.03105 0.68672 0.23809 0.0
C3315 C 0.04794 0.66998 0.2331 0.0
C3316 C 0.06404 0.67737 0.2234 0.0
C3317 C 0.0609 0.70066 0.21778 0.0
C3318 C 0.04356 0.71713 0.22256 0.0
H3319 H 0.95437 0.70895 0.23609 0.0
H3320 H 0.98146 0.69793 0.2279 0.0
H3321 H 0.97708 0.69061 0.24414 0.0
H3322 H 0.02029 0.68143 0.24622 0.0
H3323 H 0.0494 0.65178 0.23732 0.0
H3324 H 0.93392 0.15874 1.00408 0.0
H3325 H 0.96361 0.18914 1.01216 0.0
H3326 H 0.9478 0.23716 0.98085 0.0
H3327 H 0.91822 0.20693 0.97279 0.0
H3328 H 0.00213 0.19552 0.99516 0.0
H3329 H 0.9648 0.2867 1.00856 0.0
H3330 H 0.94703 0.25832 1.01023 0.0
H3331 H 0.94794 0.27459 0.9955 0.0
C3332 C 0.93626 0.1762 0.99919 0.0
C3333 C 0.92448 0.18048 0.98769 0.0
C3334 C 0.95291 0.19357 1.00389 0.0
C3335 C 0.95759 0.21536 0.99718 0.0
C3336 C 0.94398 0.22063 0.98631 0.0
H3337 H 0.03566 0.31275 0.95983 0.0
H3338 H 0.01094 0.27966 0.9691 0.0
C3339 C 0.92757 0.20319 0.98155 0.0
C3340 C 0.981 0.22864 0.99893 0.0
H3341 H 0.00195 0.28739 0.99483 0.0
C3342 C 0.00258 0.21563 0.99559 0.0
C3343 C 0.98138 0.25468 0.99968 0.0
C3344 C 0.95902 0.26931 1.00382 0.0
C3345 C 0.0232 0.2282 0.99079 0.0
C3346 C 0.02214 0.25423 0.98991 0.0
C3347 C 0.00218 0.26727 0.9952 0.0
C3348 C 0.03949 0.26836 0.98216 0.0
C3349 C 0.0446 0.21357 0.98545 0.0
C3350 C 0.06425 0.27117 0.98575 0.0
C3351 C 0.07867 0.28949 0.98016 0.0
C3352 C 0.06805 0.30564 0.97132 0.0
C3353 C 0.04421 0.30076 0.96671 0.0
C3354 C 0.03002 0.28205 0.97208 0.0
H3355 H 0.04099 0.19327 0.98558 0.0
H3356 H 0.04837 0.2194 0.97568 0.0
H3357 H 0.06157 0.21725 0.99101 0.0
H3358 H 0.07181 0.26063 0.99347 0.0
H3359 H 0.09742 0.29238 0.98351 0.0
H3360 H 0.34717 0.96478 0.32154 0.0
H3361 H 0.3374 0.99026 0.30332 0.0
H3362 H 0.27564 0.94222 0.29478 0.0
H3363 H 0.28577 0.91651 0.31296 0.0
H3364 H 0.30713 0.94608 0.27527 0.0
H3365 H 0.2868 0.0406 0.29247 0.0
H3366 H 0.31545 0.02871 0.29852 0.0
H3367 H 0.28659 0.01387 0.30265 0.0
C3368 C 0.33049 0.96066 0.31627 0.0
C3369 C 0.31664 0.93921 0.319 0.0
C3370 C 0.32509 0.97507 0.30571 0.0
C3371 C 0.30564 0.96835 0.29763 0.0
C3372 C 0.29062 0.94795 0.30087 0.0
H3373 H 0.27803 0.06522 0.23374 0.0
H3374 H 0.2699 0.03661 0.25107 0.0
C3375 C 0.29605 0.93356 0.31146 0.0
C3376 C 0.30299 0.98063 0.28516 0.0
H3377 H 0.29824 0.03714 0.27089 0.0
C3378 C 0.30477 0.96597 0.27432 0.0
C3379 C 0.29993 0.00656 0.28383 0.0
C3380 C 0.29684 0.02332 0.29499 0.0
C3381 C 0.30416 0.97653 0.26227 0.0
C3382 C 0.3021 0.0026 0.26095 0.0
C3383 C 0.29974 0.01716 0.2718 0.0
C3384 C 0.3037 0.0155 0.24857 0.0
C3385 C 0.30571 0.95954 0.25112 0.0
C3386 C 0.32459 0.01235 0.24083 0.0
C3387 C 0.32877 0.02823 0.23066 0.0
C3388 C 0.31239 0.04785 0.22809 0.0
C3389 C 0.29046 0.04969 0.23515 0.0
C3390 C 0.28612 0.03365 0.24527 0.0
H3391 H 0.29838 0.94078 0.25337 0.0
H3392 H 0.29523 0.96706 0.24303 0.0
H3393 H 0.32546 0.9574 0.24835 0.0
H3394 H 0.33883 -0.00094 0.24327 0.0
H3395 H 0.34631 0.02696 0.22573 0.0
H3396 H 0.31819 0.03093 0.56538 0.0
H3397 H 0.28601 0.02186 0.54984 0.0
H3398 H 0.25365 0.09381 0.55635 0.0
H3399 H 0.28489 0.10216 0.57226 0.0
H3400 H 0.21862 0.06385 0.54967 0.0
H3401 H 0.29664 0.05209 0.51636 0.0
H3402 H 0.29637 0.02902 0.52844 0.0
H3403 H 0.30138 0.06112 0.53236 0.0
C3404 C 0.30318 0.04404 0.56409 0.0
C3405 C 0.30371 0.06701 0.57028 0.0
C3406 C 0.28521 0.0392 0.5549 0.0
C3407 C 0.26789 0.05753 0.5515 0.0
C3408 C 0.26682 0.07936 0.55866 0.0
H3409 H 0.20835 0.09855 0.481 0.0
H3410 H 0.23443 0.08644 0.49853 0.0
C3411 C 0.28448 0.08398 0.56796 0.0
C3412 C 0.25249 0.05534 0.5399 0.0
H3413 H 0.25637 0.04799 0.50817 0.0
C3414 C 0.22686 0.06011 0.54062 0.0
C3415 C 0.26325 0.05119 0.52795 0.0
C3416 C 0.29093 0.04834 0.52617 0.0
C3417 C 0.21189 0.06128 0.52985 0.0
C3418 C 0.22251 0.05639 0.51797 0.0
C3419 C 0.24804 0.05116 0.51726 0.0
C3420 C 0.20829 0.05977 0.50608 0.0
C3421 C 0.18517 0.06927 0.53128 0.0
C3422 C 0.18542 0.04774 0.50392 0.0
C3423 C 0.1704 0.05466 0.49375 0.0
C3424 C 0.17827 0.07339 0.48551 0.0
C3425 C 0.20205 0.08367 0.48706 0.0
C3426 C 0.21691 0.07691 0.49718 0.0
H3427 H 0.18171 0.07818 0.54047 0.0
H3428 H 0.17986 0.08255 0.52382 0.0
H3429 H 0.17291 0.05277 0.53061 0.0
H3430 H 0.17857 0.03398 0.51045 0.0
H3431 H 0.15188 0.04693 0.49297 0.0
H3432 H 0.14555 0.96388 0.72767 0.0
H3433 H 0.15368 0.99106 0.74545 0.0
H3434 H 0.21971 0.94924 0.75401 0.0
H3435 H 0.21126 0.92182 0.73628 0.0
H3436 H 0.18723 0.94991 0.7733 0.0
H3437 H 0.20016 0.04596 0.75611 0.0
H3438 H 0.17283 0.03148 0.7499 0.0
H3439 H 0.20297 0.01933 0.746 0.0
C3440 C 0.16268 0.96156 0.73285 0.0
C3441 C 0.17827 0.94133 0.73034 0.0
C3442 C 0.1672 0.97695 0.74312 0.0
C3443 C 0.18743 0.97236 0.75106 0.0
C3444 C 0.20412 0.95331 0.74796 0.0
H3445 H 0.20522 0.06861 0.81614 0.0
H3446 H 0.21641 0.04169 0.79856 0.0
C3447 C 0.19957 0.93793 0.73768 0.0
C3448 C 0.18895 0.98478 0.76345 0.0
H3449 H 0.18853 0.04141 0.77769 0.0
C3450 C 0.18799 0.96993 0.77426 0.0
C3451 C 0.18984 0.01087 0.76475 0.0
C3452 C 0.19174 0.02783 0.75357 0.0
C3453 C 0.18718 0.98042 0.78626 0.0
C3454 C 0.18703 0.00653 0.78754 0.0
C3455 C 0.18873 0.02138 0.77675 0.0
C3456 C 0.18332 0.01896 0.79983 0.0
C3457 C 0.18631 0.96337 0.79744 0.0
C3458 C 0.16162 0.01445 0.80678 0.0
C3459 C 0.15555 0.02947 0.81697 0.0
C3460 C 0.17097 0.04935 0.8204 0.0
C3461 C 0.19356 0.05275 0.81405 0.0
C3462 C 0.19969 0.03768 0.80383 0.0
H3463 H 0.1949 0.94514 0.79531 0.0
H3464 H 0.19596 0.97162 0.8056 0.0
H3465 H 0.16663 0.95993 0.80005 0.0
H3466 H 0.14832 0.00064 0.80373 0.0
H3467 H 0.13752 0.02717 0.82136 0.0
H3468 H 0.16657 0.95316 0.06158 0.0
H3469 H 0.19395 0.96387 0.04407 0.0
H3470 H 0.23991 0.9007 0.05258 0.0
H3471 H 0.21275 0.89029 0.07017 0.0
H3472 H 0.26723 0.93954 0.04266 0.0
H3473 H 0.18444 0.91897 1.01365 0.0
H3474 H 0.18007 0.94396 0.02451 0.0
H3475 H 0.18539 0.91305 0.03023 0.0
C3476 C 0.18345 0.94258 0.06022 0.0
C3477 C 0.18786 0.92124 0.06744 0.0
C3478 C 0.19875 0.94831 0.05 0.0
C3479 C 0.21859 0.93266 0.04676 0.0
C3480 C 0.22466 0.913 0.05482 0.0
H3481 H 0.28188 0.89246 0.97615 0.0
H3482 H 0.25396 0.89944 0.99379 0.0
C3483 C 0.20938 0.90731 0.06505 0.0
C3484 C 0.23119 0.93491 0.03438 0.0
H3485 H 0.22077 0.93097 1.0029 0.0
C3486 C 0.25706 0.93795 0.03396 0.0
C3487 C 0.21801 0.932 1.02301 0.0
C3488 C 0.19049 0.92655 1.0228 0.0
C3489 C 0.27009 0.93827 1.02254 0.0
C3490 C 0.25681 0.93627 1.01112 0.0
C3491 C 0.23092 0.93313 1.01157 0.0
C3492 C 0.26971 0.93506 0.99875 0.0
C3493 C 0.2981 0.93953 1.02289 0.0
C3494 C 0.28655 0.9536 0.99496 0.0
C3495 C 0.30246 0.94963 0.98476 0.0
C3496 C 0.30145 0.92731 0.97802 0.0
C3497 C 0.28257 0.91019 0.9809 0.0
C3498 C 0.26687 0.91399 0.99117 0.0
H3499 H 0.30551 0.93447 0.03223 0.0
H3500 H 0.30645 0.92695 1.01584 0.0
H3501 H 0.30419 0.95876 1.02078 0.0
H3502 H 0.28865 0.97035 1.00043 0.0
H3503 H 0.31731 0.96279 0.98302 0.0
H3504 H 0.65334 0.95177 0.82614 0.0
H3505 H 0.66131 0.98212 0.80942 0.0
H3506 H 0.69992 0.92625 0.78827 0.0
H3507 H 0.69213 0.89606 0.80493 0.0
H3508 H 0.71667 0.98886 0.7911 0.0
H3509 H 0.62597 0.95723 0.77169 0.0
H3510 H 0.63072 0.9588 0.78837 0.0
H3511 H 0.64648 0.93564 0.77939 0.0
C3512 C 0.6649 0.94644 0.8183 0.0
C3513 C 0.67288 0.92175 0.81706 0.0
C3514 C 0.66902 0.96364 0.80863 0.0
C3515 C 0.68109 0.95637 0.79758 0.0
C3516 C 0.69072 0.93229 0.79675 0.0
H3517 H 0.66516 0.02908 0.72411 0.0
H3518 H 0.67384 -0.00273 0.74014 0.0
C3519 C 0.68662 0.91515 0.80638 0.0
C3520 C 0.68133 0.97286 0.78642 0.0
H3521 H 0.64715 0.98854 0.7607 0.0
C3522 C 0.70154 0.9888 0.78442 0.0
C3523 C 0.66178 0.97239 0.77761 0.0
C3524 C 0.63991 0.95515 0.77926 0.0
C3525 C 0.70253 0.00461 0.77394 0.0
C3526 C 0.6825 0.00489 0.76532 0.0
C3527 C 0.66257 0.9884 0.76721 0.0
C3528 C 0.68073 0.02362 0.75503 0.0
C3529 C 0.72525 0.02068 0.77219 0.0
C3530 C 0.68215 0.04894 0.75791 0.0
C3531 C 0.6777 0.06686 0.74879 0.0
C3532 C 0.67125 0.06011 0.73653 0.0
C3533 C 0.67071 0.03483 0.73339 0.0
C3534 C 0.67532 0.01669 0.7426 0.0
H3535 H 0.74192 0.01188 0.77638 0.0
H3536 H 0.72902 0.0244 0.76216 0.0
H3537 H 0.72233 0.03864 0.77703 0.0
H3538 H 0.68545 0.05497 0.76741 0.0
H3539 H 0.67791 0.08621 0.75154 0.0
H3540 H 0.71183 0.89615 0.47864 0.0
H3541 H 0.73809 0.90715 0.49626 0.0
H3542 H 0.68471 0.96225 0.50769 0.0
H3543 H 0.65774 0.95032 0.49016 0.0
H3544 H 0.76165 0.94462 0.50613 0.0
H3545 H 0.68412 0.91776 0.53765 0.0
H3546 H 0.68269 0.91361 0.52097 0.0
H3547 H 0.67726 0.94368 0.52771 0.0
C3548 C 0.70616 0.91136 0.48458 0.0
C3549 C 0.68293 0.92267 0.4829 0.0
C3550 C 0.72112 0.9175 0.49477 0.0
C3551 C 0.71315 0.93507 0.50357 0.0
C3552 C 0.69101 0.94816 0.50124 0.0
H3553 H 0.82145 0.95575 0.56461 0.0
H3554 H 0.79067 0.96745 0.54875 0.0
C3555 C 0.67585 0.9418 0.49104 0.0
C3556 C 0.72704 0.93763 0.51558 0.0
H3557 H 0.7216 0.92931 0.54718 0.0
C3558 C 0.75283 0.94161 0.51513 0.0
C3559 C 0.71569 0.93302 0.52734 0.0
C3560 C 0.68849 0.92652 0.5285 0.0
C3561 C 0.76761 0.94046 0.52595 0.0
C3562 C 0.7562 0.93633 0.53773 0.0
C3563 C 0.73033 0.93298 0.53822 0.0
C3564 C 0.77103 0.93236 0.54936 0.0
C3565 C 0.79547 0.94208 0.52447 0.0
C3566 C 0.76881 0.90981 0.55586 0.0
C3567 C 0.78578 0.90358 0.56523 0.0
C3568 C 0.80529 0.91975 0.56832 0.0
C3569 C 0.80613 0.94327 0.56269 0.0
C3570 C 0.78893 0.94966 0.55338 0.0
H3571 H 0.80139 0.93905 0.51464 0.0
H3572 H 0.80186 0.96083 0.52729 0.0
H3573 H 0.80494 0.92817 0.53045 0.0
H3574 H 0.75519 0.89612 0.55303 0.0
H3575 H 0.78518 0.88503 0.56914 0.0
H3576 H 0.84825 0.02887 0.32102 0.0
H3577 H 0.8387 0.00238 0.30317 0.0
H3578 H 0.77012 0.042 0.29754 0.0
H3579 H 0.78018 0.06906 0.31522 0.0
H3580 H 0.80404 0.97194 0.29392 0.0
H3581 H 0.80738 0.05841 0.26582 0.0
H3582 H 0.81529 0.05761 0.28216 0.0
H3583 H 0.78326 0.05824 0.2774 0.0
C3584 C 0.83042 0.03094 0.31645 0.0
C3585 C 0.81471 0.05069 0.31969 0.0
C3586 C 0.82515 0.01605 0.30607 0.0
C3587 C 0.80406 0.02067 0.29873 0.0
C3588 C 0.78684 0.03847 0.30286 0.0
H3589 H 0.78285 0.92179 0.23446 0.0
H3590 H 0.77174 0.94845 0.25211 0.0
C3591 C 0.79223 0.05349 0.3132 0.0
C3592 C 0.80168 0.0087 0.2862 0.0
H3593 H 0.79956 0.02138 0.25486 0.0
C3594 C 0.80274 0.98274 0.28539 0.0
C3595 C 0.80082 0.02281 0.275 0.0
C3596 C 0.80189 0.0508 0.27507 0.0
C3597 C 0.80307 0.97053 0.27377 0.0
C3598 C 0.80136 0.9846 0.26258 0.0
C3599 C 0.80021 0.01055 0.2634 0.0
C3600 C 0.80347 0.97282 0.25 0.0
C3601 C 0.80663 0.94275 0.27363 0.0
C3602 C 0.82333 0.97926 0.2421 0.0
C3603 C 0.82911 0.96455 0.23174 0.0
C3604 C 0.81526 0.94308 0.22911 0.0
C3605 C 0.79351 0.93856 0.23603 0.0
C3606 C 0.78759 0.9534 0.24637 0.0
H3607 H 0.81372 0.9357 0.28271 0.0
H3608 H 0.78854 0.93359 0.2718 0.0
H3609 H 0.81985 0.93719 0.26617 0.0
H3610 H 0.83579 0.99426 0.2446 0.0
H3611 H 0.84635 0.9681 0.22679 0.0
H3612 H 0.82013 0.03775 0.98549 0.0
H3613 H 0.7938 0.02702 1.00337 0.0
H3614 H 0.74483 0.08747 0.99415 0.0
H3615 H 0.77091 0.09781 0.97623 0.0
H3616 H 0.78963 0.05861 1.02251 0.0
H3617 H 0.69494 0.03718 1.00577 0.0
H3618 H 0.72155 0.03711 0.99548 0.0
H3619 H 0.70647 0.06582 0.99947 0.0
C3620 C 0.80272 0.04751 0.98672 0.0
C3621 C 0.79719 0.06813 0.97916 0.0
C3622 C 0.78796 0.04177 0.99716 0.0
C3623 C 0.76721 0.05639 1.00021 0.0
C3624 C 0.76033 0.07548 0.99195 0.0
H3625 H 0.70997 0.09881 0.07218 0.0
H3626 H 0.73736 0.0909 0.0545 0.0
C3627 C 0.77509 0.08118 0.98152 0.0
C3628 C 0.75497 0.05402 1.01274 0.0
H3629 H 0.6985 0.04959 0.02723 0.0
C3630 C 0.76973 0.0562 1.02353 0.0
C3631 C 0.72901 0.05093 1.01419 0.0
C3632 C 0.71211 0.04739 1.00311 0.0
C3633 C 0.75927 0.05595 0.03562 0.0
C3634 C 0.73318 0.05389 0.03705 0.0
C3635 C 0.7185 0.05112 0.02626 0.0
C3636 C 0.72042 0.05584 0.04949 0.0
C3637 C 0.77645 0.05785 0.0467 0.0
C3638 C 0.70213 0.03848 0.05302 0.0
C3639 C 0.6864 0.04306 0.06324 0.0
C3640 C 0.68863 0.06505 0.07018 0.0
C3641 C 0.70845 0.08117 0.06739 0.0
C3642 C 0.72399 0.07678 0.0571 0.0
H3643 H 0.79515 0.05039 0.04445 0.0
H3644 H 0.77878 0.07767 0.04924 0.0
H3645 H 0.76897 0.0477 0.05492 0.0
H3646 H 0.69883 0.02222 0.04732 0.0
H3647 H 0.67071 0.03081 0.06478 0.0
H3648 H 0.85174 0.52813 0.72716 0.0
H3649 H 0.84218 0.50098 0.74476 0.0
H3650 H 0.77576 0.54304 0.75216 0.0
H3651 H 0.78583 0.57065 0.73467 0.0
H3652 H 0.80439 0.54146 0.77232 0.0
H3653 H 0.79686 0.44567 0.75437 0.0
H3654 H 0.82505 0.4604 0.74938 0.0
H3655 H 0.79558 0.47233 0.74417 0.0
C3656 C 0.83416 0.53049 0.73197 0.0
C3657 C 0.8191 0.55105 0.72921 0.0
C3658 C 0.82886 0.51512 0.74221 0.0
C3659 C 0.80813 0.51975 0.74987 0.0
C3660 C 0.79181 0.53892 0.74641 0.0
H3661 H 0.78258 0.41957 0.81281 0.0
H3662 H 0.77392 0.44765 0.79538 0.0
C3663 C 0.79721 0.55436 0.73618 0.0
C3664 C 0.80541 0.5069 0.76223 0.0
H3665 H 0.80551 0.44989 0.77627 0.0
C3666 C 0.8042 0.52141 0.77314 0.0
C3667 C 0.80527 0.48074 0.76344 0.0
C3668 C 0.80552 0.4639 0.7522 0.0
C3669 C 0.80339 0.51058 0.78514 0.0
C3670 C 0.80416 0.48444 0.78636 0.0
C3671 C 0.80484 0.46993 0.77543 0.0
C3672 C 0.8055 0.47157 0.79877 0.0
C3673 C 0.80169 0.52735 0.79637 0.0
C3674 C 0.82514 0.47646 0.80706 0.0
C3675 C 0.82962 0.46076 0.81727 0.0
C3676 C 0.81482 0.43962 0.81934 0.0
C3677 C 0.79374 0.43621 0.8118 0.0
C3678 C 0.78917 0.45195 0.8016 0.0
H3679 H 0.79299 0.54539 0.79393 0.0
H3680 H 0.7908 0.51861 0.80402 0.0
H3681 H 0.82068 0.53126 0.79987 0.0
H3682 H 0.83841 0.49103 0.80501 0.0
H3683 H 0.8466 0.46331 0.82255 0.0
H3684 H 0.82014 0.60455 0.06191 0.0
H3685 H 0.79543 0.60199 0.04283 0.0
H3686 H 0.79632 0.52222 0.04517 0.0
H3687 H 0.82202 0.52457 0.06408 0.0
H3688 H 0.81028 0.57202 1.01941 0.0
H3689 H 0.72032 0.54625 0.04164 0.0
H3690 H 0.74462 0.56221 0.05004 0.0
H3691 H 0.74766 0.52981 0.04664 0.0
C3692 C 0.81544 0.58641 0.05831 0.0
C3693 C 0.82362 0.56475 0.06442 0.0
C3694 C 0.80112 0.58502 0.04743 0.0
C3695 C 0.79414 0.56193 0.04254 0.0
C3696 C 0.80153 0.54024 0.0488 0.0
H3697 H 0.68756 0.52707 0.98437 0.0
H3698 H 0.72109 0.52245 0.9996 0.0
C3699 C 0.81615 0.54162 0.05963 0.0
C3700 C 0.77937 0.56061 0.03082 0.0
H3701 H 0.72132 0.54814 1.01972 0.0
C3702 C 0.79084 0.56667 1.01943 0.0
C3703 C 0.75407 0.55371 0.03089 0.0
C3704 C 0.74074 0.54774 0.04293 0.0
C3705 C 0.77777 0.56561 1.00804 0.0
C3706 C 0.75228 0.55889 1.00807 0.0
C3707 C 0.74089 0.55293 1.01956 0.0
C3708 C 0.7365 0.5591 0.99655 0.0
C3709 C 0.79168 0.57127 0.99613 0.0
C3710 C 0.73483 0.58051 0.98908 0.0
C3711 C 0.71629 0.58264 0.97997 0.0
C3712 C 0.69858 0.56374 0.97834 0.0
C3713 C 0.70147 0.54156 0.98506 0.0
C3714 C 0.72034 0.53918 0.994 0.0
H3715 H 0.81176 0.56694 0.99708 0.0
H3716 H 0.78413 0.56066 0.9881 0.0
H3717 H 0.79012 0.59138 0.99405 0.0
H3718 H 0.74639 0.5965 0.99099 0.0
H3719 H 0.714 0.60031 0.97528 0.0
H3720 H 0.65104 0.52859 0.32163 0.0
H3721 H 0.66041 0.50213 0.30368 0.0
H3722 H 0.71537 0.55482 0.29121 0.0
H3723 H 0.70638 0.581 0.30932 0.0
H3724 H 0.67597 0.54578 0.27385 0.0
H3725 H 0.71752 0.45756 0.29035 0.0
H3726 H 0.69087 0.4679 0.29904 0.0
H3727 H 0.71896 0.4859 0.29931 0.0
C3728 C 0.6664 0.53365 0.31557 0.0
C3729 C 0.67838 0.55666 0.31714 0.0
C3730 C 0.67144 0.51869 0.30514 0.0
C3731 C 0.68854 0.52647 0.296 0.0
C3732 C 0.70213 0.54834 0.29812 0.0
H3733 H 0.71601 0.43059 0.23145 0.0
H3734 H 0.723 0.46069 0.24822 0.0
C3735 C 0.69728 0.56313 0.30864 0.0
C3736 C 0.68973 0.51369 0.28359 0.0
H3737 H 0.70177 0.45801 0.26964 0.0
C3738 C 0.68193 0.52667 0.27289 0.0
C3739 C 0.69749 0.4888 0.28228 0.0
C3740 C 0.70689 0.4742 0.29332 0.0
C3741 C 0.68122 0.51537 0.26102 0.0
C3742 C 0.68817 0.49011 0.25974 0.0
C3743 C 0.69648 0.47734 0.27045 0.0
C3744 C 0.68591 0.47609 0.24764 0.0
C3745 C 0.67316 0.53086 0.25 0.0
C3746 C 0.66328 0.4755 0.24108 0.0
C3747 C 0.65974 0.45905 0.23109 0.0
C3748 C 0.67842 0.44222 0.22757 0.0
C3749 C 0.7016 0.44398 0.23353 0.0
C3750 C 0.70536 0.46081 0.24338 0.0
H3751 H 0.67745 0.5508 0.25151 0.0
H3752 H 0.68226 0.52478 0.24122 0.0
H3753 H 0.65273 0.52922 0.24889 0.0
H3754 H 0.64759 0.48627 0.24428 0.0
H3755 H 0.64132 0.45748 0.2271 0.0
H3756 H 0.82812 0.45755 0.48647 0.0
H3757 H 0.80057 0.46649 0.5041 0.0
H3758 H 0.75135 0.40802 0.4922 0.0
H3759 H 0.77866 0.39946 0.47448 0.0
H3760 H 0.72603 0.44561 0.5044 0.0
H3761 H 0.80777 0.41442 0.5317 0.0
H3762 H 0.81338 0.44152 0.52234 0.0
H3763 H 0.80646 0.41243 0.51491 0.0
C3764 C 0.81051 0.44786 0.48709 0.0
C3765 C 0.80538 0.42806 0.47895 0.0
C3766 C 0.79508 0.4525 0.49739 0.0
C3767 C 0.77431 0.43736 0.49974 0.0
C3768 C 0.76737 0.41985 0.49068 0.0
H3769 H 0.71159 0.38176 0.56757 0.0
H3770 H 0.73825 0.39258 0.54992 0.0
C3771 C 0.78276 0.41529 0.48036 0.0
C3772 C 0.76183 0.43735 0.51221 0.0
H3773 H 0.7721 0.42519 0.54317 0.0
C3774 C 0.73612 0.44145 0.51291 0.0
C3775 C 0.77487 0.43111 0.52328 0.0
C3776 C 0.80208 0.42436 0.52307 0.0
C3777 C 0.72313 0.43947 0.52431 0.0
C3778 C 0.73631 0.43396 0.53545 0.0
C3779 C 0.76204 0.42996 0.53473 0.0
C3780 C 0.72343 0.42962 0.54766 0.0
C3781 C 0.69522 0.44208 0.52416 0.0
C3782 C 0.70734 0.44735 0.55291 0.0
C3783 C 0.69215 0.44116 0.56315 0.0
C3784 C 0.6932 0.41733 0.56844 0.0
C3785 C 0.71097 0.40052 0.56393 0.0
C3786 C 0.72597 0.4066 0.55369 0.0
H3787 H 0.68755 0.44003 0.51458 0.0
H3788 H 0.68629 0.42802 0.53029 0.0
H3789 H 0.69009 0.46077 0.52761 0.0
H3790 H 0.70545 0.46547 0.54865 0.0
H3791 H 0.67804 0.45417 0.56615 0.0
H3792 H 0.14746 0.52864 0.22986 0.0
H3793 H 0.15763 0.50334 0.24808 0.0
H3794 H 0.22488 0.54564 0.25335 0.0
H3795 H 0.21417 0.5715 0.23527 0.0
H3796 H 0.19333 0.47451 0.25729 0.0
H3797 H 0.18711 0.56114 0.28502 0.0
H3798 H 0.1792 0.55983 0.26868 0.0
H3799 H 0.2112 0.56168 0.27341 0.0
C3800 C 0.16513 0.53157 0.23447 0.0
C3801 C 0.18034 0.5516 0.23099 0.0
C3802 C 0.17075 0.51738 0.24503 0.0
C3803 C 0.19166 0.52303 0.25232 0.0
C3804 C 0.20832 0.5413 0.24805 0.0
H3805 H 0.2148 0.42518 0.3166 0.0
H3806 H 0.22591 0.45279 0.29928 0.0
C3807 C 0.20258 0.55564 0.2375 0.0
C3808 C 0.19447 0.51139 0.26488 0.0
H3809 H 0.19586 0.52448 0.29616 0.0
C3810 C 0.19422 0.48543 0.26578 0.0
C3811 C 0.19479 0.52567 0.27601 0.0
C3812 C 0.19283 0.5536 0.2758 0.0
C3813 C 0.19409 0.47335 0.27743 0.0
C3814 C 0.19528 0.4876 0.28855 0.0
C3815 C 0.19566 0.51357 0.28766 0.0
C3816 C 0.19326 0.47585 0.30113 0.0
C3817 C 0.19126 0.44547 0.27767 0.0
C3818 C 0.17281 0.48136 0.3088 0.0
C3819 C 0.16698 0.46611 0.31897 0.0
C3820 C 0.18139 0.44505 0.3216 0.0
C3821 C 0.20369 0.44161 0.315 0.0
C3822 C 0.20966 0.457 0.30486 0.0
H3823 H 0.18453 0.43812 0.26859 0.0
H3824 H 0.20954 0.43687 0.27963 0.0
H3825 H 0.17803 0.43959 0.28508 0.0
H3826 H 0.15996 0.49592 0.30621 0.0
H3827 H 0.14937 0.46882 0.3237 0.0
H3828 H 0.32388 0.45528 0.06312 0.0
H3829 H 0.29647 0.46471 0.04556 0.0
H3830 H 0.24879 0.40393 0.05625 0.0
H3831 H 0.27616 0.39469 0.07385 0.0
H3832 H 0.29146 0.43078 0.027 0.0
H3833 H 0.19817 0.45496 0.04499 0.0
H3834 H 0.22563 0.4562 0.05464 0.0
H3835 H 0.21033 0.42706 0.05178 0.0
C3836 C 0.30665 0.44505 0.06224 0.0
C3837 C 0.30173 0.42478 0.07015 0.0
C3838 C 0.29121 0.45012 0.05203 0.0
C3839 C 0.27045 0.4351 0.04954 0.0
C3840 C 0.26434 0.41617 0.05806 0.0
H3841 H 0.20849 0.3887 0.97954 0.0
H3842 H 0.23614 0.39694 0.99706 0.0
C3843 C 0.27984 0.41107 0.06826 0.0
C3844 C 0.25751 0.43684 0.03723 0.0
H3845 H 0.20035 0.44176 1.02365 0.0
C3846 C 0.27157 0.43359 0.02627 0.0
C3847 C 0.23159 0.4405 0.0362 0.0
C3848 C 0.21556 0.44511 0.04752 0.0
C3849 C 0.26042 0.43326 1.01439 0.0
C3850 C 0.23432 0.43587 1.01338 0.0
C3851 C 0.22035 0.43979 0.02433 0.0
C3852 C 0.22087 0.43313 1.00124 0.0
C3853 C 0.27683 0.43011 1.00306 0.0
C3854 C 0.20325 0.45085 0.99743 0.0
C3855 C 0.18736 0.44608 0.98732 0.0
C3856 C 0.1889 0.42358 0.98078 0.0
C3857 C 0.20765 0.40668 0.98403 0.0
C3858 C 0.22336 0.41131 0.99417 0.0
H3859 H 0.29588 0.4372 1.00485 0.0
H3860 H 0.27839 0.41007 1.00085 0.0
H3861 H 0.26915 0.43987 0.99479 0.0
H3862 H 0.20075 0.46773 1.00276 0.0
H3863 H 0.17236 0.4589 0.98541 0.0
H3864 H 0.36248 0.53205 0.81737 0.0
H3865 H 0.35168 0.50545 0.79976 0.0
H3866 H 0.28189 0.5438 0.79589 0.0
H3867 H 0.29324 0.57108 0.81334 0.0
H3868 H 0.31738 0.47396 0.79229 0.0
H3869 H 0.31264 0.55801 0.76245 0.0
H3870 H 0.32282 0.55903 0.77847 0.0
H3871 H 0.29021 0.55774 0.77486 0.0
C3872 C 0.34425 0.53393 0.8132 0.0
C3873 C 0.32842 0.55321 0.81697 0.0
C3874 C 0.33823 0.51896 0.80296 0.0
C3875 C 0.31627 0.52301 0.79618 0.0
C3876 C 0.29927 0.54068 0.80071 0.0
H3877 H 0.28491 0.41862 0.73539 0.0
H3878 H 0.27751 0.44718 0.75276 0.0
C3879 C 0.30541 0.55582 0.81094 0.0
C3880 C 0.31237 0.50996 0.78399 0.0
H3881 H 0.30473 0.51971 0.75256 0.0
C3882 C 0.31434 0.48399 0.78363 0.0
C3883 C 0.30913 0.523 0.77256 0.0
C3884 C 0.30883 0.55098 0.77203 0.0
C3885 C 0.31323 0.47078 0.7723 0.0
C3886 C 0.30918 0.48375 0.76094 0.0
C3887 C 0.30722 0.5097 0.76126 0.0
C3888 C 0.30906 0.47071 0.7486 0.0
C3889 C 0.31761 0.44313 0.77258 0.0
C3890 C 0.32764 0.47583 0.73972 0.0
C3891 C 0.33137 0.45989 0.72954 0.0
C3892 C 0.31664 0.43853 0.72805 0.0
C3893 C 0.29612 0.43529 0.73603 0.0
C3894 C 0.29232 0.45125 0.74621 0.0
H3895 H 0.32638 0.43707 0.78146 0.0
H3896 H 0.29957 0.43333 0.77168 0.0
H3897 H 0.32973 0.43732 0.7647 0.0
H3898 H 0.34073 0.49079 0.74128 0.0
H3899 H 0.3478 0.46248 0.72381 0.0
H3900 H 0.1472 0.55387 0.55202 0.0
H3901 H 0.17406 0.54208 0.53445 0.0
H3902 H 0.23541 0.5805 0.55161 0.0
H3903 H 0.20857 0.5924 0.56902 0.0
H3904 H 0.22504 0.59766 0.5281 0.0
H3905 H 0.23269 0.49511 0.52742 0.0
H3906 H 0.20157 0.50675 0.52904 0.0
H3907 H 0.22382 0.51222 0.54121 0.0
C3908 C 0.16678 0.55849 0.55238 0.0
C3909 C 0.176 0.57336 0.56211 0.0
C3910 C 0.1821 0.55199 0.54225 0.0
C3911 C 0.20687 0.56032 0.54167 0.0
C3912 C 0.21645 0.57372 0.55183 0.0
H3913 H 0.32581 0.5345 0.48964 0.0
H3914 H 0.29346 0.52967 0.50542 0.0
C3915 C 0.20119 0.5802 0.5619 0.0
C3916 C 0.2218 0.55805 0.52993 0.0
H3917 H 0.24751 0.51656 0.50952 0.0
C3918 C 0.22994 0.57991 0.52403 0.0
C3919 C 0.22841 0.53494 0.52466 0.0
C3920 C 0.22141 0.51087 0.53093 0.0
C3921 C 0.24458 0.57937 0.51313 0.0
C3922 C 0.25066 0.55622 0.50759 0.0
C3923 C 0.2425 0.53432 0.51353 0.0
C3924 C 0.26742 0.55442 0.4964 0.0
C3925 C 0.2542 0.6037 0.50802 0.0
C3926 C 0.26298 0.56822 0.48544 0.0
C3927 C 0.28168 0.57101 0.47634 0.0
C3928 C 0.30487 0.55951 0.47789 0.0
C3929 C 0.3079 0.54305 0.48798 0.0
C3930 C 0.28948 0.54063 0.49717 0.0
H3931 H 0.25349 0.61867 0.51514 0.0
H3932 H 0.27367 0.60194 0.50472 0.0
H3933 H 0.24247 0.60957 0.50004 0.0
H3934 H 0.24581 0.57839 0.48435 0.0
H3935 H 0.27898 0.58435 0.46889 0.0
loop_
_geom_bond_atom_site_label_1
_geom_bond_atom_site_label_2
_geom_bond_distance
_geom_bond_site_symmetry_2
_ccdc_geom_bond_type
C0 C1 1.351 . S
C0 N3 1.368 . S
C0 H5 0.931 . S
C1 C0 1.351 . S
C1 N2 1.373 . S
C1 H29 0.930 . S
N2 C1 1.373 . S
N2 C4 1.340 . S
N3 C0 1.368 . S
N3 C4 1.321 . S
N3 Co6 2.135 . S
C4 N2 1.340 . S
C4 N3 1.321 . S
C4 H28 0.930 . S
H5 C0 0.931 . S
Co6 N3 2.135 . S
Co6 N9 2.121 . S
Co6 O14 2.055 . S
Co6 O17 2.039 . S
Co6 N20 2.140 . S
C7 O8 1.227 . S
C7 O17 1.265 . S
O8 C7 1.227 . S
N9 Co6 2.121 . S
N9 C11 1.375 . S
N9 C12 1.313 . S
C10 C11 1.338 . S
C10 N13 1.377 . S
C10 H30 0.930 . S
C11 N9 1.375 . S
C11 C10 1.338 . S
C11 H15 0.931 . S
C12 N9 1.313 . S
C12 N13 1.344 . S
C12 H16 0.930 . S
N13 C10 1.377 . S
N13 C12 1.344 . S
O14 Co6 2.055 . S
O14 C18 1.253 . S
H15 C11 0.931 . S
H16 C12 0.930 . S
O17 Co6 2.039 . S
O17 C7 1.265 . S
C18 O14 1.253 . S
C18 O19 1.227 . S
O19 C18 1.227 . S
N20 Co6 2.140 . S
N20 C23 1.346 . S
N20 C24 1.345 . S
C21 C22 1.387 . S
C21 C25 1.391 . S
C22 C21 1.387 . S
C22 C23 1.369 . S
C22 H31 0.929 . S
C23 N20 1.346 . S
C23 C22 1.369 . S
C23 H26 0.928 . S
C24 N20 1.345 . S
C24 C25 1.371 . S
C24 H27 0.931 . S
C25 C21 1.391 . S
C25 C24 1.371 . S
C25 H32 0.930 . S
H26 C23 0.928 . S
H27 C24 0.931 . S
H28 C4 0.930 . S
H29 C1 0.930 . S
H30 C10 0.930 . S
H31 C22 0.929 . S
H32 C25 0.930 . S
C33 C34 1.351 . S
C33 N36 1.368 . S
C33 H38 0.931 . S
C34 C33 1.351 . S
C34 N35 1.373 . S
C34 H62 0.930 . S
N35 C34 1.373 . S
N35 C37 1.340 . S
N36 C33 1.368 . S
N36 C37 1.321 . S
N36 Co39 2.135 . S
C37 N35 1.340 . S
C37 N36 1.321 . S
C37 H61 0.930 . S
H38 C33 0.931 . S
Co39 N36 2.135 . S
Co39 N42 2.121 . S
Co39 O47 2.055 . S
Co39 O50 2.039 . S
Co39 N53 2.140 . S
C40 O41 1.227 . S
C40 O50 1.265 . S
O41 C40 1.227 . S
N42 Co39 2.121 . S
N42 C44 1.375 . S
N42 C45 1.313 . S
C43 C44 1.338 . S
C43 N46 1.377 . S
C43 H63 0.930 . S
C44 N42 1.375 . S
C44 C43 1.338 . S
C44 H48 0.931 . S
C45 N42 1.313 . S
C45 N46 1.344 . S
C45 H49 0.930 . S
N46 C43 1.377 . S
N46 C45 1.344 . S
O47 Co39 2.055 . S
O47 C51 1.253 . S
H48 C44 0.931 . S
H49 C45 0.930 . S
O50 Co39 2.039 . S
O50 C40 1.265 . S
C51 O47 1.253 . S
C51 O52 1.227 . S
O52 C51 1.227 . S
N53 Co39 2.140 . S
N53 C56 1.346 . S
N53 C57 1.345 . S
C54 C55 1.387 . S
C54 C58 1.391 . S
C55 C54 1.387 . S
C55 C56 1.369 . S
C55 H64 0.929 . S
C56 N53 1.346 . S
C56 C55 1.369 . S
C56 H59 0.928 . S
C57 N53 1.345 . S
C57 C58 1.371 . S
C57 H60 0.931 . S
C58 C54 1.391 . S
C58 C57 1.371 . S
C58 H65 0.930 . S
H59 C56 0.928 . S
H60 C57 0.931 . S
H61 C37 0.930 . S
H62 C34 0.930 . S
H63 C43 0.930 . S
H64 C55 0.929 . S
H65 C58 0.930 . S
C66 C67 1.351 . S
C66 N69 1.368 . S
C66 H71 0.931 . S
C67 C66 1.351 . S
C67 N68 1.373 . S
C67 H95 0.930 . S
N68 C67 1.373 . S
N68 C70 1.340 . S
N69 C66 1.368 . S
N69 C70 1.321 . S
N69 Co72 2.135 . S
C70 N68 1.340 . S
C70 N69 1.321 . S
C70 H94 0.930 . S
H71 C66 0.931 . S
Co72 N69 2.135 . S
Co72 N75 2.121 . S
Co72 O80 2.055 . S
Co72 O83 2.039 . S
Co72 N86 2.140 . S
C73 O74 1.227 . S
C73 O83 1.265 . S
O74 C73 1.227 . S
N75 Co72 2.121 . S
N75 C77 1.375 . S
N75 C78 1.313 . S
C76 C77 1.338 . S
C76 N79 1.377 . S
C76 H96 0.930 . S
C77 N75 1.375 . S
C77 C76 1.338 . S
C77 H81 0.931 . S
C78 N75 1.313 . S
C78 N79 1.344 . S
C78 H82 0.930 . S
N79 C76 1.377 . S
N79 C78 1.344 . S
O80 Co72 2.055 . S
O80 C84 1.253 . S
H81 C77 0.931 . S
H82 C78 0.930 . S
O83 Co72 2.039 . S
O83 C73 1.265 . S
C84 O80 1.253 . S
C84 O85 1.227 . S
O85 C84 1.227 . S
N86 Co72 2.140 . S
N86 C89 1.346 . S
N86 C90 1.345 . S
C87 C88 1.387 . S
C87 C91 1.391 . S
C88 C87 1.387 . S
C88 C89 1.369 . S
C88 H97 0.929 . S
C89 N86 1.346 . S
C89 C88 1.369 . S
C89 H92 0.928 . S
C90 N86 1.345 . S
C90 C91 1.371 . S
C90 H93 0.931 . S
C91 C87 1.391 . S
C91 C90 1.371 . S
C91 H98 0.930 . S
H92 C89 0.928 . S
H93 C90 0.931 . S
H94 C70 0.930 . S
H95 C67 0.930 . S
H96 C76 0.930 . S
H97 C88 0.929 . S
H98 C91 0.930 . S
C99 C100 1.351 . S
C99 N102 1.368 . S
C99 H104 0.931 . S
C100 C99 1.351 . S
C100 N101 1.373 . S
C100 H128 0.930 . S
N101 C100 1.373 . S
N101 C103 1.340 . S
N102 C99 1.368 . S
N102 C103 1.321 . S
N102 Co105 2.135 . S
C103 N101 1.340 . S
C103 N102 1.321 . S
C103 H127 0.930 . S
H104 C99 0.931 . S
Co105 N102 2.135 . S
Co105 N108 2.121 . S
Co105 O113 2.055 . S
Co105 O116 2.039 . S
Co105 N119 2.140 . S
C106 O107 1.227 . S
C106 O116 1.265 . S
O107 C106 1.227 . S
N108 Co105 2.121 . S
N108 C110 1.375 . S
N108 C111 1.313 . S
C109 C110 1.338 . S
C109 N112 1.377 . S
C109 H129 0.930 . S
C110 N108 1.375 . S
C110 C109 1.338 . S
C110 H114 0.931 . S
C111 N108 1.313 . S
C111 N112 1.344 . S
C111 H115 0.930 . S
N112 C109 1.377 . S
N112 C111 1.344 . S
O113 Co105 2.055 . S
O113 C117 1.253 . S
H114 C110 0.931 . S
H115 C111 0.930 . S
O116 Co105 2.039 . S
O116 C106 1.265 . S
C117 O113 1.253 . S
C117 O118 1.227 . S
O118 C117 1.227 . S
N119 Co105 2.140 . S
N119 C122 1.346 . S
N119 C123 1.345 . S
C120 C121 1.387 . S
C120 C124 1.391 . S
C121 C120 1.387 . S
C121 C122 1.369 . S
C121 H130 0.929 . S
C122 N119 1.346 . S
C122 C121 1.369 . S
C122 H125 0.928 . S
C123 N119 1.345 . S
C123 C124 1.371 . S
C123 H126 0.931 . S
C124 C120 1.391 . S
C124 C123 1.371 . S
C124 H131 0.930 . S
H125 C122 0.928 . S
H126 C123 0.931 . S
H127 C103 0.930 . S
H128 C100 0.930 . S
H129 C109 0.930 . S
H130 C121 0.929 . S
H131 C124 0.930 . S
C132 C133 1.351 . S
C132 N135 1.368 . S
C132 H137 0.931 . S
C133 C132 1.351 . S
C133 N134 1.373 . S
C133 H161 0.930 . S
N134 C133 1.373 . S
N134 C136 1.340 . S
N135 C132 1.368 . S
N135 C136 1.321 . S
N135 Co138 2.135 . S
C136 N134 1.340 . S
C136 N135 1.321 . S
C136 H160 0.930 . S
H137 C132 0.931 . S
Co138 N135 2.135 . S
Co138 N141 2.121 . S
Co138 O146 2.055 . S
Co138 O149 2.039 . S
Co138 N152 2.140 . S
C139 O140 1.227 . S
C139 O149 1.265 . S
O140 C139 1.227 . S
N141 Co138 2.121 . S
N141 C143 1.375 . S
N141 C144 1.313 . S
C142 C143 1.338 . S
C142 N145 1.377 . S
C142 H162 0.930 . S
C143 N141 1.375 . S
C143 C142 1.338 . S
C143 H147 0.931 . S
C144 N141 1.313 . S
C144 N145 1.344 . S
C144 H148 0.930 . S
N145 C142 1.377 . S
N145 C144 1.344 . S
O146 Co138 2.055 . S
O146 C150 1.253 . S
H147 C143 0.931 . S
H148 C144 0.930 . S
O149 Co138 2.039 . S
O149 C139 1.265 . S
C150 O146 1.253 . S
C150 O151 1.227 . S
O151 C150 1.227 . S
N152 Co138 2.140 . S
N152 C155 1.346 . S
N152 C156 1.345 . S
C153 C154 1.387 . S
C153 C157 1.391 . S
C154 C153 1.387 . S
C154 C155 1.369 . S
C154 H163 0.929 . S
C155 N152 1.346 . S
C155 C154 1.369 . S
C155 H158 0.928 . S
C156 N152 1.345 . S
C156 C157 1.371 . S
C156 H159 0.931 . S
C157 C153 1.391 . S
C157 C156 1.371 . S
C157 H164 0.930 . S
H158 C155 0.928 . S
H159 C156 0.931 . S
H160 C136 0.930 . S
H161 C133 0.930 . S
H162 C142 0.930 . S
H163 C154 0.929 . S
H164 C157 0.930 . S
C165 C166 1.351 . S
C165 N168 1.368 . S
C165 H170 0.931 . S
C166 C165 1.351 . S
C166 N167 1.373 . S
C166 H194 0.930 . S
N167 C166 1.373 . S
N167 C169 1.340 . S
N168 C165 1.368 . S
N168 C169 1.321 . S
N168 Co171 2.135 . S
C169 N167 1.340 . S
C169 N168 1.321 . S
C169 H193 0.930 . S
H170 C165 0.931 . S
Co171 N168 2.135 . S
Co171 N174 2.121 . S
Co171 O179 2.055 . S
Co171 O182 2.039 . S
Co171 N185 2.140 . S
C172 O173 1.227 . S
C172 O182 1.265 . S
O173 C172 1.227 . S
N174 Co171 2.121 . S
N174 C176 1.375 . S
N174 C177 1.313 . S
C175 C176 1.338 . S
C175 N178 1.377 . S
C175 H195 0.930 . S
C176 N174 1.375 . S
C176 C175 1.338 . S
C176 H180 0.931 . S
C177 N174 1.313 . S
C177 N178 1.344 . S
C177 H181 0.930 . S
N178 C175 1.377 . S
N178 C177 1.344 . S
O179 Co171 2.055 . S
O179 C183 1.253 . S
H180 C176 0.931 . S
H181 C177 0.930 . S
O182 Co171 2.039 . S
O182 C172 1.265 . S
C183 O179 1.253 . S
C183 O184 1.227 . S
O184 C183 1.227 . S
N185 Co171 2.140 . S
N185 C188 1.346 . S
N185 C189 1.345 . S
C186 C187 1.387 . S
C186 C190 1.391 . S
C187 C186 1.387 . S
C187 C188 1.369 . S
C187 H196 0.929 . S
C188 N185 1.346 . S
C188 C187 1.369 . S
C188 H191 0.928 . S
C189 N185 1.345 . S
C189 C190 1.371 . S
C189 H192 0.931 . S
C190 C186 1.391 . S
C190 C189 1.371 . S
C190 H197 0.930 . S
H191 C188 0.928 . S
H192 C189 0.931 . S
H193 C169 0.930 . S
H194 C166 0.930 . S
H195 C175 0.930 . S
H196 C187 0.929 . S
H197 C190 0.930 . S
C198 C199 1.351 . S
C198 N201 1.368 . S
C198 H203 0.931 . S
C199 C198 1.351 . S
C199 N200 1.373 . S
C199 H227 0.930 . S
N200 C199 1.373 . S
N200 C202 1.340 . S
N201 C198 1.368 . S
N201 C202 1.321 . S
N201 Co204 2.135 . S
C202 N200 1.340 . S
C202 N201 1.321 . S
C202 H226 0.930 . S
H203 C198 0.931 . S
Co204 N201 2.135 . S
Co204 N207 2.121 . S
Co204 O212 2.055 . S
Co204 O215 2.039 . S
Co204 N218 2.140 . S
C205 O206 1.227 . S
C205 O215 1.265 . S
O206 C205 1.227 . S
N207 Co204 2.121 . S
N207 C209 1.375 . S
N207 C210 1.313 . S
C208 C209 1.338 . S
C208 N211 1.377 . S
C208 H228 0.930 . S
C209 N207 1.375 . S
C209 C208 1.338 . S
C209 H213 0.931 . S
C210 N207 1.313 . S
C210 N211 1.344 . S
C210 H214 0.930 . S
N211 C208 1.377 . S
N211 C210 1.344 . S
O212 Co204 2.055 . S
O212 C216 1.253 . S
H213 C209 0.931 . S
H214 C210 0.930 . S
O215 Co204 2.039 . S
O215 C205 1.265 . S
C216 O212 1.253 . S
C216 O217 1.227 . S
O217 C216 1.227 . S
N218 Co204 2.140 . S
N218 C221 1.346 . S
N218 C222 1.345 . S
C219 C220 1.387 . S
C219 C223 1.391 . S
C220 C219 1.387 . S
C220 C221 1.369 . S
C220 H229 0.929 . S
C221 N218 1.346 . S
C221 C220 1.369 . S
C221 H224 0.928 . S
C222 N218 1.345 . S
C222 C223 1.371 . S
C222 H225 0.931 . S
C223 C219 1.391 . S
C223 C222 1.371 . S
C223 H230 0.930 . S
H224 C221 0.928 . S
H225 C222 0.931 . S
H226 C202 0.930 . S
H227 C199 0.930 . S
H228 C208 0.930 . S
H229 C220 0.929 . S
H230 C223 0.930 . S
C231 C232 1.351 . S
C231 N234 1.368 . S
C231 H236 0.931 . S
C232 C231 1.351 . S
C232 N233 1.373 . S
C232 H260 0.930 . S
N233 C232 1.373 . S
N233 C235 1.340 . S
N234 C231 1.368 . S
N234 C235 1.321 . S
N234 Co237 2.135 . S
C235 N233 1.340 . S
C235 N234 1.321 . S
C235 H259 0.930 . S
H236 C231 0.931 . S
Co237 N234 2.135 . S
Co237 N240 2.121 . S
Co237 O245 2.055 . S
Co237 O248 2.039 . S
Co237 N251 2.140 . S
C238 O239 1.227 . S
C238 O248 1.265 . S
O239 C238 1.227 . S
N240 Co237 2.121 . S
N240 C242 1.375 . S
N240 C243 1.313 . S
C241 C242 1.338 . S
C241 N244 1.377 . S
C241 H261 0.930 . S
C242 N240 1.375 . S
C242 C241 1.338 . S
C242 H246 0.931 . S
C243 N240 1.313 . S
C243 N244 1.344 . S
C243 H247 0.930 . S
N244 C241 1.377 . S
N244 C243 1.344 . S
O245 Co237 2.055 . S
O245 C249 1.253 . S
H246 C242 0.931 . S
H247 C243 0.930 . S
O248 Co237 2.039 . S
O248 C238 1.265 . S
C249 O245 1.253 . S
C249 O250 1.227 . S
O250 C249 1.227 . S
N251 Co237 2.140 . S
N251 C254 1.346 . S
N251 C255 1.345 . S
C252 C253 1.387 . S
C252 C256 1.391 . S
C253 C252 1.387 . S
C253 C254 1.369 . S
C253 H262 0.929 . S
C254 N251 1.346 . S
C254 C253 1.369 . S
C254 H257 0.928 . S
C255 N251 1.345 . S
C255 C256 1.371 . S
C255 H258 0.931 . S
C256 C252 1.391 . S
C256 C255 1.371 . S
C256 H263 0.930 . S
H257 C254 0.928 . S
H258 C255 0.931 . S
H259 C235 0.930 . S
H260 C232 0.930 . S
H261 C241 0.930 . S
H262 C253 0.929 . S
H263 C256 0.930 . S
C264 C265 1.351 . S
C264 N267 1.368 . S
C264 H269 0.931 . S
C265 C264 1.351 . S
C265 N266 1.373 . S
C265 H293 0.930 . S
N266 C265 1.373 . S
N266 C268 1.340 . S
N267 C264 1.368 . S
N267 C268 1.321 . S
N267 Co270 2.135 . S
C268 N266 1.340 . S
C268 N267 1.321 . S
C268 H292 0.930 . S
H269 C264 0.931 . S
Co270 N267 2.135 . S
Co270 N273 2.121 . S
Co270 O278 2.055 . S
Co270 O281 2.039 . S
Co270 N284 2.140 . S
C271 O272 1.227 . S
C271 O281 1.265 . S
O272 C271 1.227 . S
N273 Co270 2.121 . S
N273 C275 1.375 . S
N273 C276 1.313 . S
C274 C275 1.338 . S
C274 N277 1.377 . S
C274 H294 0.930 . S
C275 N273 1.375 . S
C275 C274 1.338 . S
C275 H279 0.931 . S
C276 N273 1.313 . S
C276 N277 1.344 . S
C276 H280 0.930 . S
N277 C274 1.377 . S
N277 C276 1.344 . S
O278 Co270 2.055 . S
O278 C282 1.253 . S
H279 C275 0.931 . S
H280 C276 0.930 . S
O281 Co270 2.039 . S
O281 C271 1.265 . S
C282 O278 1.253 . S
C282 O283 1.227 . S
O283 C282 1.227 . S
N284 Co270 2.140 . S
N284 C287 1.346 . S
N284 C288 1.345 . S
C285 C286 1.387 . S
C285 C289 1.391 . S
C286 C285 1.387 . S
C286 C287 1.369 . S
C286 H295 0.929 . S
C287 N284 1.346 . S
C287 C286 1.369 . S
C287 H290 0.928 . S
C288 N284 1.345 . S
C288 C289 1.371 . S
C288 H291 0.931 . S
C289 C285 1.391 . S
C289 C288 1.371 . S
C289 H296 0.930 . S
H290 C287 0.928 . S
H291 C288 0.931 . S
H292 C268 0.930 . S
H293 C265 0.930 . S
H294 C274 0.930 . S
H295 C286 0.929 . S
H296 C289 0.930 . S
C297 C298 1.351 . S
C297 N300 1.368 . S
C297 H302 0.931 . S
C298 C297 1.351 . S
C298 N299 1.373 . S
C298 H326 0.930 . S
N299 C298 1.373 . S
N299 C301 1.340 . S
N300 C297 1.368 . S
N300 C301 1.321 . S
N300 Co303 2.135 . S
C301 N299 1.340 . S
C301 N300 1.321 . S
C301 H325 0.930 . S
H302 C297 0.931 . S
Co303 N300 2.135 . S
Co303 N306 2.121 . S
Co303 O311 2.055 . S
Co303 O314 2.039 . S
Co303 N317 2.140 . S
C304 O305 1.227 . S
C304 O314 1.265 . S
O305 C304 1.227 . S
N306 Co303 2.121 . S
N306 C308 1.375 . S
N306 C309 1.313 . S
C307 C308 1.338 . S
C307 N310 1.377 . S
C307 H327 0.930 . S
C308 N306 1.375 . S
C308 C307 1.338 . S
C308 H312 0.931 . S
C309 N306 1.313 . S
C309 N310 1.344 . S
C309 H313 0.930 . S
N310 C307 1.377 . S
N310 C309 1.344 . S
O311 Co303 2.055 . S
O311 C315 1.253 . S
H312 C308 0.931 . S
H313 C309 0.930 . S
O314 Co303 2.039 . S
O314 C304 1.265 . S
C315 O311 1.253 . S
C315 O316 1.227 . S
O316 C315 1.227 . S
N317 Co303 2.140 . S
N317 C320 1.346 . S
N317 C321 1.345 . S
C318 C319 1.387 . S
C318 C322 1.391 . S
C319 C318 1.387 . S
C319 C320 1.369 . S
C319 H328 0.929 . S
C320 N317 1.346 . S
C320 C319 1.369 . S
C320 H323 0.928 . S
C321 N317 1.345 . S
C321 C322 1.371 . S
C321 H324 0.931 . S
C322 C318 1.391 . S
C322 C321 1.371 . S
C322 H329 0.930 . S
H323 C320 0.928 . S
H324 C321 0.931 . S
H325 C301 0.930 . S
H326 C298 0.930 . S
H327 C307 0.930 . S
H328 C319 0.929 . S
H329 C322 0.930 . S
C330 C331 1.351 . S
C330 N333 1.368 . S
C330 H335 0.931 . S
C331 C330 1.351 . S
C331 N332 1.373 . S
C331 H359 0.930 . S
N332 C331 1.373 . S
N332 C334 1.340 . S
N333 C330 1.368 . S
N333 C334 1.321 . S
N333 Co336 2.135 . S
C334 N332 1.340 . S
C334 N333 1.321 . S
C334 H358 0.930 . S
H335 C330 0.931 . S
Co336 N333 2.135 . S
Co336 N339 2.121 . S
Co336 O344 2.055 . S
Co336 O347 2.039 . S
Co336 N350 2.140 . S
C337 O338 1.227 . S
C337 O347 1.265 . S
O338 C337 1.227 . S
N339 Co336 2.121 . S
N339 C341 1.375 . S
N339 C342 1.313 . S
C340 C341 1.338 . S
C340 N343 1.377 . S
C340 H360 0.930 . S
C341 N339 1.375 . S
C341 C340 1.338 . S
C341 H345 0.931 . S
C342 N339 1.313 . S
C342 N343 1.344 . S
C342 H346 0.930 . S
N343 C340 1.377 . S
N343 C342 1.344 . S
O344 Co336 2.055 . S
O344 C348 1.253 . S
H345 C341 0.931 . S
H346 C342 0.930 . S
O347 Co336 2.039 . S
O347 C337 1.265 . S
C348 O344 1.253 . S
C348 O349 1.227 . S
O349 C348 1.227 . S
N350 Co336 2.140 . S
N350 C353 1.346 . S
N350 C354 1.345 . S
C351 C352 1.387 . S
C351 C355 1.391 . S
C352 C351 1.387 . S
C352 C353 1.369 . S
C352 H361 0.929 . S
C353 N350 1.346 . S
C353 C352 1.369 . S
C353 H356 0.928 . S
C354 N350 1.345 . S
C354 C355 1.371 . S
C354 H357 0.931 . S
C355 C351 1.391 . S
C355 C354 1.371 . S
C355 H362 0.930 . S
H356 C353 0.928 . S
H357 C354 0.931 . S
H358 C334 0.930 . S
H359 C331 0.930 . S
H360 C340 0.930 . S
H361 C352 0.929 . S
H362 C355 0.930 . S
C363 C364 1.351 . S
C363 N366 1.368 . S
C363 H368 0.931 . S
C364 C363 1.351 . S
C364 N365 1.373 . S
C364 H392 0.930 . S
N365 C364 1.373 . S
N365 C367 1.340 . S
N366 C363 1.368 . S
N366 C367 1.321 . S
N366 Co369 2.135 . S
C367 N365 1.340 . S
C367 N366 1.321 . S
C367 H391 0.930 . S
H368 C363 0.931 . S
Co369 N366 2.135 . S
Co369 N372 2.121 . S
Co369 O377 2.055 . S
Co369 O380 2.039 . S
Co369 N383 2.140 . S
C370 O371 1.227 . S
C370 O380 1.265 . S
O371 C370 1.227 . S
N372 Co369 2.121 . S
N372 C374 1.375 . S
N372 C375 1.313 . S
C373 C374 1.338 . S
C373 N376 1.377 . S
C373 H393 0.930 . S
C374 N372 1.375 . S
C374 C373 1.338 . S
C374 H378 0.931 . S
C375 N372 1.313 . S
C375 N376 1.344 . S
C375 H379 0.930 . S
N376 C373 1.377 . S
N376 C375 1.344 . S
O377 Co369 2.055 . S
O377 C381 1.253 . S
H378 C374 0.931 . S
H379 C375 0.930 . S
O380 Co369 2.039 . S
O380 C370 1.265 . S
C381 O377 1.253 . S
C381 O382 1.227 . S
O382 C381 1.227 . S
N383 Co369 2.140 . S
N383 C386 1.346 . S
N383 C387 1.345 . S
C384 C385 1.387 . S
C384 C388 1.391 . S
C385 C384 1.387 . S
C385 C386 1.369 . S
C385 H394 0.929 . S
C386 N383 1.346 . S
C386 C385 1.369 . S
C386 H389 0.928 . S
C387 N383 1.345 . S
C387 C388 1.371 . S
C387 H390 0.931 . S
C388 C384 1.391 . S
C388 C387 1.371 . S
C388 H395 0.930 . S
H389 C386 0.928 . S
H390 C387 0.931 . S
H391 C367 0.930 . S
H392 C364 0.930 . S
H393 C373 0.930 . S
H394 C385 0.929 . S
H395 C388 0.930 . S
C396 C397 1.351 . S
C396 N399 1.368 . S
C396 H401 0.931 . S
C397 C396 1.351 . S
C397 N398 1.373 . S
C397 H425 0.930 . S
N398 C397 1.373 . S
N398 C400 1.340 . S
N399 C396 1.368 . S
N399 C400 1.321 . S
N399 Co402 2.135 . S
C400 N398 1.340 . S
C400 N399 1.321 . S
C400 H424 0.930 . S
H401 C396 0.931 . S
Co402 N399 2.135 . S
Co402 N405 2.121 . S
Co402 O410 2.055 . S
Co402 O413 2.039 . S
Co402 N416 2.140 . S
C403 O404 1.227 . S
C403 O413 1.265 . S
O404 C403 1.227 . S
N405 Co402 2.121 . S
N405 C407 1.375 . S
N405 C408 1.313 . S
C406 C407 1.338 . S
C406 N409 1.377 . S
C406 H426 0.930 . S
C407 N405 1.375 . S
C407 C406 1.338 . S
C407 H411 0.931 . S
C408 N405 1.313 . S
C408 N409 1.344 . S
C408 H412 0.930 . S
N409 C406 1.377 . S
N409 C408 1.344 . S
O410 Co402 2.055 . S
O410 C414 1.253 . S
H411 C407 0.931 . S
H412 C408 0.930 . S
O413 Co402 2.039 . S
O413 C403 1.265 . S
C414 O410 1.253 . S
C414 O415 1.227 . S
O415 C414 1.227 . S
N416 Co402 2.140 . S
N416 C419 1.346 . S
N416 C420 1.345 . S
C417 C418 1.387 . S
C417 C421 1.391 . S
C418 C417 1.387 . S
C418 C419 1.369 . S
C418 H427 0.929 . S
C419 N416 1.346 . S
C419 C418 1.369 . S
C419 H422 0.928 . S
C420 N416 1.345 . S
C420 C421 1.371 . S
C420 H423 0.931 . S
C421 C417 1.391 . S
C421 C420 1.371 . S
C421 H428 0.930 . S
H422 C419 0.928 . S
H423 C420 0.931 . S
H424 C400 0.930 . S
H425 C397 0.930 . S
H426 C406 0.930 . S
H427 C418 0.929 . S
H428 C421 0.930 . S
C429 C430 1.351 . S
C429 N432 1.368 . S
C429 H434 0.931 . S
C430 C429 1.351 . S
C430 N431 1.373 . S
C430 H458 0.930 . S
N431 C430 1.373 . S
N431 C433 1.340 . S
N432 C429 1.368 . S
N432 C433 1.321 . S
N432 Co435 2.135 . S
C433 N431 1.340 . S
C433 N432 1.321 . S
C433 H457 0.930 . S
H434 C429 0.931 . S
Co435 N432 2.135 . S
Co435 N438 2.121 . S
Co435 O443 2.055 . S
Co435 O446 2.039 . S
Co435 N449 2.140 . S
C436 O437 1.227 . S
C436 O446 1.265 . S
O437 C436 1.227 . S
N438 Co435 2.121 . S
N438 C440 1.375 . S
N438 C441 1.313 . S
C439 C440 1.338 . S
C439 N442 1.377 . S
C439 H459 0.930 . S
C440 N438 1.375 . S
C440 C439 1.338 . S
C440 H444 0.931 . S
C441 N438 1.313 . S
C441 N442 1.344 . S
C441 H445 0.930 . S
N442 C439 1.377 . S
N442 C441 1.344 . S
O443 Co435 2.055 . S
O443 C447 1.253 . S
H444 C440 0.931 . S
H445 C441 0.930 . S
O446 Co435 2.039 . S
O446 C436 1.265 . S
C447 O443 1.253 . S
C447 O448 1.227 . S
O448 C447 1.227 . S
N449 Co435 2.140 . S
N449 C452 1.346 . S
N449 C453 1.345 . S
C450 C451 1.387 . S
C450 C454 1.391 . S
C451 C450 1.387 . S
C451 C452 1.369 . S
C451 H460 0.929 . S
C452 N449 1.346 . S
C452 C451 1.369 . S
C452 H455 0.928 . S
C453 N449 1.345 . S
C453 C454 1.371 . S
C453 H456 0.931 . S
C454 C450 1.391 . S
C454 C453 1.371 . S
C454 H461 0.930 . S
H455 C452 0.928 . S
H456 C453 0.931 . S
H457 C433 0.930 . S
H458 C430 0.930 . S
H459 C439 0.930 . S
H460 C451 0.929 . S
H461 C454 0.930 . S
C462 C463 1.351 . S
C462 N465 1.368 . S
C462 H467 0.931 . S
C463 C462 1.351 . S
C463 N464 1.373 . S
C463 H491 0.930 . S
N464 C463 1.373 . S
N464 C466 1.340 . S
N465 C462 1.368 . S
N465 C466 1.321 . S
N465 Co468 2.135 . S
C466 N464 1.340 . S
C466 N465 1.321 . S
C466 H490 0.930 . S
H467 C462 0.931 . S
Co468 N465 2.135 . S
Co468 N471 2.121 . S
Co468 O476 2.055 . S
Co468 O479 2.039 . S
Co468 N482 2.140 . S
C469 O470 1.227 . S
C469 O479 1.265 . S
O470 C469 1.227 . S
N471 Co468 2.121 . S
N471 C473 1.375 . S
N471 C474 1.313 . S
C472 C473 1.338 . S
C472 N475 1.377 . S
C472 H492 0.930 . S
C473 N471 1.375 . S
C473 C472 1.338 . S
C473 H477 0.931 . S
C474 N471 1.313 . S
C474 N475 1.344 . S
C474 H478 0.930 . S
N475 C472 1.377 . S
N475 C474 1.344 . S
O476 Co468 2.055 . S
O476 C480 1.253 . S
H477 C473 0.931 . S
H478 C474 0.930 . S
O479 Co468 2.039 . S
O479 C469 1.265 . S
C480 O476 1.253 . S
C480 O481 1.227 . S
O481 C480 1.227 . S
N482 Co468 2.140 . S
N482 C485 1.346 . S
N482 C486 1.345 . S
C483 C484 1.387 . S
C483 C487 1.391 . S
C484 C483 1.387 . S
C484 C485 1.369 . S
C484 H493 0.929 . S
C485 N482 1.346 . S
C485 C484 1.369 . S
C485 H488 0.928 . S
C486 N482 1.345 . S
C486 C487 1.371 . S
C486 H489 0.931 . S
C487 C483 1.391 . S
C487 C486 1.371 . S
C487 H494 0.930 . S
H488 C485 0.928 . S
H489 C486 0.931 . S
H490 C466 0.930 . S
H491 C463 0.930 . S
H492 C472 0.930 . S
H493 C484 0.929 . S
H494 C487 0.930 . S
C495 C496 1.351 . S
C495 N498 1.368 . S
C495 H500 0.931 . S
C496 C495 1.351 . S
C496 N497 1.373 . S
C496 H524 0.930 . S
N497 C496 1.373 . S
N497 C499 1.340 . S
N498 C495 1.368 . S
N498 C499 1.321 . S
N498 Co501 2.135 . S
C499 N497 1.340 . S
C499 N498 1.321 . S
C499 H523 0.930 . S
H500 C495 0.931 . S
Co501 N498 2.135 . S
Co501 N504 2.121 . S
Co501 O509 2.055 . S
Co501 O512 2.039 . S
Co501 N515 2.140 . S
C502 O503 1.227 . S
C502 O512 1.265 . S
O503 C502 1.227 . S
N504 Co501 2.121 . S
N504 C506 1.375 . S
N504 C507 1.313 . S
C505 C506 1.338 . S
C505 N508 1.377 . S
C505 H525 0.930 . S
C506 N504 1.375 . S
C506 C505 1.338 . S
C506 H510 0.931 . S
C507 N504 1.313 . S
C507 N508 1.344 . S
C507 H511 0.930 . S
N508 C505 1.377 . S
N508 C507 1.344 . S
O509 Co501 2.055 . S
O509 C513 1.253 . S
H510 C506 0.931 . S
H511 C507 0.930 . S
O512 Co501 2.039 . S
O512 C502 1.265 . S
C513 O509 1.253 . S
C513 O514 1.227 . S
O514 C513 1.227 . S
N515 Co501 2.140 . S
N515 C518 1.346 . S
N515 C519 1.345 . S
C516 C517 1.387 . S
C516 C520 1.391 . S
C517 C516 1.387 . S
C517 C518 1.369 . S
C517 H526 0.929 . S
C518 N515 1.346 . S
C518 C517 1.369 . S
C518 H521 0.928 . S
C519 N515 1.345 . S
C519 C520 1.371 . S
C519 H522 0.931 . S
C520 C516 1.391 . S
C520 C519 1.371 . S
C520 H527 0.930 . S
H521 C518 0.928 . S
H522 C519 0.931 . S
H523 C499 0.930 . S
H524 C496 0.930 . S
H525 C505 0.930 . S
H526 C517 0.929 . S
H527 C520 0.930 . S
C528 C529 1.351 . S
C528 N531 1.368 . S
C528 H533 0.931 . S
C529 C528 1.351 . S
C529 N530 1.373 . S
C529 H557 0.930 . S
N530 C529 1.373 . S
N530 C532 1.340 . S
N531 C528 1.368 . S
N531 C532 1.321 . S
N531 Co534 2.135 . S
C532 N530 1.340 . S
C532 N531 1.321 . S
C532 H556 0.930 . S
H533 C528 0.931 . S
Co534 N531 2.135 . S
Co534 N537 2.121 . S
Co534 O542 2.055 . S
Co534 O545 2.039 . S
Co534 N548 2.140 . S
C535 O536 1.227 . S
C535 O545 1.265 . S
O536 C535 1.227 . S
N537 Co534 2.121 . S
N537 C539 1.375 . S
N537 C540 1.313 . S
C538 C539 1.338 . S
C538 N541 1.377 . S
C538 H558 0.930 . S
C539 N537 1.375 . S
C539 C538 1.338 . S
C539 H543 0.931 . S
C540 N537 1.313 . S
C540 N541 1.344 . S
C540 H544 0.930 . S
N541 C538 1.377 . S
N541 C540 1.344 . S
O542 Co534 2.055 . S
O542 C546 1.253 . S
H543 C539 0.931 . S
H544 C540 0.930 . S
O545 Co534 2.039 . S
O545 C535 1.265 . S
C546 O542 1.253 . S
C546 O547 1.227 . S
O547 C546 1.227 . S
N548 Co534 2.140 . S
N548 C551 1.346 . S
N548 C552 1.345 . S
C549 C550 1.387 . S
C549 C553 1.391 . S
C550 C549 1.387 . S
C550 C551 1.369 . S
C550 H559 0.929 . S
C551 N548 1.346 . S
C551 C550 1.369 . S
C551 H554 0.928 . S
C552 N548 1.345 . S
C552 C553 1.371 . S
C552 H555 0.931 . S
C553 C549 1.391 . S
C553 C552 1.371 . S
C553 H560 0.930 . S
H554 C551 0.928 . S
H555 C552 0.931 . S
H556 C532 0.930 . S
H557 C529 0.930 . S
H558 C538 0.930 . S
H559 C550 0.929 . S
H560 C553 0.930 . S
C561 C562 1.351 . S
C561 N564 1.368 . S
C561 H566 0.931 . S
C562 C561 1.351 . S
C562 N563 1.373 . S
C562 H590 0.930 . S
N563 C562 1.373 . S
N563 C565 1.340 . S
N564 C561 1.368 . S
N564 C565 1.321 . S
N564 Co567 2.135 . S
C565 N563 1.340 . S
C565 N564 1.321 . S
C565 H589 0.930 . S
H566 C561 0.931 . S
Co567 N564 2.135 . S
Co567 N570 2.121 . S
Co567 O575 2.055 . S
Co567 O578 2.039 . S
Co567 N581 2.140 . S
C568 O569 1.227 . S
C568 O578 1.265 . S
O569 C568 1.227 . S
N570 Co567 2.121 . S
N570 C572 1.375 . S
N570 C573 1.313 . S
C571 C572 1.338 . S
C571 N574 1.377 . S
C571 H591 0.930 . S
C572 N570 1.375 . S
C572 C571 1.338 . S
C572 H576 0.931 . S
C573 N570 1.313 . S
C573 N574 1.344 . S
C573 H577 0.930 . S
N574 C571 1.377 . S
N574 C573 1.344 . S
O575 Co567 2.055 . S
O575 C579 1.253 . S
H576 C572 0.931 . S
H577 C573 0.930 . S
O578 Co567 2.039 . S
O578 C568 1.265 . S
C579 O575 1.253 . S
C579 O580 1.227 . S
O580 C579 1.227 . S
N581 Co567 2.140 . S
N581 C584 1.346 . S
N581 C585 1.345 . S
C582 C583 1.387 . S
C582 C586 1.391 . S
C583 C582 1.387 . S
C583 C584 1.369 . S
C583 H592 0.929 . S
C584 N581 1.346 . S
C584 C583 1.369 . S
C584 H587 0.928 . S
C585 N581 1.345 . S
C585 C586 1.371 . S
C585 H588 0.931 . S
C586 C582 1.391 . S
C586 C585 1.371 . S
C586 H593 0.930 . S
H587 C584 0.928 . S
H588 C585 0.931 . S
H589 C565 0.930 . S
H590 C562 0.930 . S
H591 C571 0.930 . S
H592 C583 0.929 . S
H593 C586 0.930 . S
C594 C595 1.351 . S
C594 N597 1.368 . S
C594 H599 0.931 . S
C595 C594 1.351 . S
C595 N596 1.373 . S
C595 H623 0.930 . S
N596 C595 1.373 . S
N596 C598 1.340 . S
N597 C594 1.368 . S
N597 C598 1.321 . S
N597 Co600 2.135 . S
C598 N596 1.340 . S
C598 N597 1.321 . S
C598 H622 0.930 . S
H599 C594 0.931 . S
Co600 N597 2.135 . S
Co600 N603 2.121 . S
Co600 O608 2.055 . S
Co600 O611 2.039 . S
Co600 N614 2.140 . S
C601 O602 1.227 . S
C601 O611 1.265 . S
O602 C601 1.227 . S
N603 Co600 2.121 . S
N603 C605 1.375 . S
N603 C606 1.313 . S
C604 C605 1.338 . S
C604 N607 1.377 . S
C604 H624 0.930 . S
C605 N603 1.375 . S
C605 C604 1.338 . S
C605 H609 0.931 . S
C606 N603 1.313 . S
C606 N607 1.344 . S
C606 H610 0.930 . S
N607 C604 1.377 . S
N607 C606 1.344 . S
O608 Co600 2.055 . S
O608 C612 1.253 . S
H609 C605 0.931 . S
H610 C606 0.930 . S
O611 Co600 2.039 . S
O611 C601 1.265 . S
C612 O608 1.253 . S
C612 O613 1.227 . S
O613 C612 1.227 . S
N614 Co600 2.140 . S
N614 C617 1.346 . S
N614 C618 1.345 . S
C615 C616 1.387 . S
C615 C619 1.391 . S
C616 C615 1.387 . S
C616 C617 1.369 . S
C616 H625 0.929 . S
C617 N614 1.346 . S
C617 C616 1.369 . S
C617 H620 0.928 . S
C618 N614 1.345 . S
C618 C619 1.371 . S
C618 H621 0.931 . S
C619 C615 1.391 . S
C619 C618 1.371 . S
C619 H626 0.930 . S
H620 C617 0.928 . S
H621 C618 0.931 . S
H622 C598 0.930 . S
H623 C595 0.930 . S
H624 C604 0.930 . S
H625 C616 0.929 . S
H626 C619 0.930 . S
C627 C628 1.351 . S
C627 N630 1.368 . S
C627 H632 0.931 . S
C628 C627 1.351 . S
C628 N629 1.373 . S
C628 H656 0.930 . S
N629 C628 1.373 . S
N629 C631 1.340 . S
N630 C627 1.368 . S
N630 C631 1.321 . S
N630 Co633 2.135 . S
C631 N629 1.340 . S
C631 N630 1.321 . S
C631 H655 0.930 . S
H632 C627 0.931 . S
Co633 N630 2.135 . S
Co633 N636 2.121 . S
Co633 O641 2.055 . S
Co633 O644 2.039 . S
Co633 N647 2.140 . S
C634 O635 1.227 . S
C634 O644 1.265 . S
O635 C634 1.227 . S
N636 Co633 2.121 . S
N636 C638 1.375 . S
N636 C639 1.313 . S
C637 C638 1.338 . S
C637 N640 1.377 . S
C637 H657 0.930 . S
C638 N636 1.375 . S
C638 C637 1.338 . S
C638 H642 0.931 . S
C639 N636 1.313 . S
C639 N640 1.344 . S
C639 H643 0.930 . S
N640 C637 1.377 . S
N640 C639 1.344 . S
O641 Co633 2.055 . S
O641 C645 1.253 . S
H642 C638 0.931 . S
H643 C639 0.930 . S
O644 Co633 2.039 . S
O644 C634 1.265 . S
C645 O641 1.253 . S
C645 O646 1.227 . S
O646 C645 1.227 . S
N647 Co633 2.140 . S
N647 C650 1.346 . S
N647 C651 1.345 . S
C648 C649 1.387 . S
C648 C652 1.391 . S
C649 C648 1.387 . S
C649 C650 1.369 . S
C649 H658 0.929 . S
C650 N647 1.346 . S
C650 C649 1.369 . S
C650 H653 0.928 . S
C651 N647 1.345 . S
C651 C652 1.371 . S
C651 H654 0.931 . S
C652 C648 1.391 . S
C652 C651 1.371 . S
C652 H659 0.930 . S
H653 C650 0.928 . S
H654 C651 0.931 . S
H655 C631 0.930 . S
H656 C628 0.930 . S
H657 C637 0.930 . S
H658 C649 0.929 . S
H659 C652 0.930 . S
C660 C661 1.351 . S
C660 N663 1.368 . S
C660 H665 0.931 . S
C661 C660 1.351 . S
C661 N662 1.373 . S
C661 H689 0.930 . S
N662 C661 1.373 . S
N662 C664 1.340 . S
N663 C660 1.368 . S
N663 C664 1.321 . S
N663 Co666 2.135 . S
C664 N662 1.340 . S
C664 N663 1.321 . S
C664 H688 0.930 . S
H665 C660 0.931 . S
Co666 N663 2.135 . S
Co666 N669 2.121 . S
Co666 O674 2.055 . S
Co666 O677 2.039 . S
Co666 N680 2.140 . S
C667 O668 1.227 . S
C667 O677 1.265 . S
O668 C667 1.227 . S
N669 Co666 2.121 . S
N669 C671 1.375 . S
N669 C672 1.313 . S
C670 C671 1.338 . S
C670 N673 1.377 . S
C670 H690 0.930 . S
C671 N669 1.375 . S
C671 C670 1.338 . S
C671 H675 0.931 . S
C672 N669 1.313 . S
C672 N673 1.344 . S
C672 H676 0.930 . S
N673 C670 1.377 . S
N673 C672 1.344 . S
O674 Co666 2.055 . S
O674 C678 1.253 . S
H675 C671 0.931 . S
H676 C672 0.930 . S
O677 Co666 2.039 . S
O677 C667 1.265 . S
C678 O674 1.253 . S
C678 O679 1.227 . S
O679 C678 1.227 . S
N680 Co666 2.140 . S
N680 C683 1.346 . S
N680 C684 1.345 . S
C681 C682 1.387 . S
C681 C685 1.391 . S
C682 C681 1.387 . S
C682 C683 1.369 . S
C682 H691 0.929 . S
C683 N680 1.346 . S
C683 C682 1.369 . S
C683 H686 0.928 . S
C684 N680 1.345 . S
C684 C685 1.371 . S
C684 H687 0.931 . S
C685 C681 1.391 . S
C685 C684 1.371 . S
C685 H692 0.930 . S
H686 C683 0.928 . S
H687 C684 0.931 . S
H688 C664 0.930 . S
H689 C661 0.930 . S
H690 C670 0.930 . S
H691 C682 0.929 . S
H692 C685 0.930 . S
C693 C694 1.351 . S
C693 N696 1.368 . S
C693 H698 0.931 . S
C694 C693 1.351 . S
C694 N695 1.373 . S
C694 H722 0.930 . S
N695 C694 1.373 . S
N695 C697 1.340 . S
N696 C693 1.368 . S
N696 C697 1.321 . S
N696 Co699 2.135 . S
C697 N695 1.340 . S
C697 N696 1.321 . S
C697 H721 0.930 . S
H698 C693 0.931 . S
Co699 N696 2.135 . S
Co699 N702 2.121 . S
Co699 O707 2.055 . S
Co699 O710 2.039 . S
Co699 N713 2.140 . S
C700 O701 1.227 . S
C700 O710 1.265 . S
O701 C700 1.227 . S
N702 Co699 2.121 . S
N702 C704 1.375 . S
N702 C705 1.313 . S
C703 C704 1.338 . S
C703 N706 1.377 . S
C703 H723 0.930 . S
C704 N702 1.375 . S
C704 C703 1.338 . S
C704 H708 0.931 . S
C705 N702 1.313 . S
C705 N706 1.344 . S
C705 H709 0.930 . S
N706 C703 1.377 . S
N706 C705 1.344 . S
O707 Co699 2.055 . S
O707 C711 1.253 . S
H708 C704 0.931 . S
H709 C705 0.930 . S
O710 Co699 2.039 . S
O710 C700 1.265 . S
C711 O707 1.253 . S
C711 O712 1.227 . S
O712 C711 1.227 . S
N713 Co699 2.140 . S
N713 C716 1.346 . S
N713 C717 1.345 . S
C714 C715 1.387 . S
C714 C718 1.391 . S
C715 C714 1.387 . S
C715 C716 1.369 . S
C715 H724 0.929 . S
C716 N713 1.346 . S
C716 C715 1.369 . S
C716 H719 0.928 . S
C717 N713 1.345 . S
C717 C718 1.371 . S
C717 H720 0.931 . S
C718 C714 1.391 . S
C718 C717 1.371 . S
C718 H725 0.930 . S
H719 C716 0.928 . S
H720 C717 0.931 . S
H721 C697 0.930 . S
H722 C694 0.930 . S
H723 C703 0.930 . S
H724 C715 0.929 . S
H725 C718 0.930 . S
C726 C727 1.351 . S
C726 N729 1.368 . S
C726 H731 0.931 . S
C727 C726 1.351 . S
C727 N728 1.373 . S
C727 H755 0.930 . S
N728 C727 1.373 . S
N728 C730 1.340 . S
N729 C726 1.368 . S
N729 C730 1.321 . S
N729 Co732 2.135 . S
C730 N728 1.340 . S
C730 N729 1.321 . S
C730 H754 0.930 . S
H731 C726 0.931 . S
Co732 N729 2.135 . S
Co732 N735 2.121 . S
Co732 O740 2.055 . S
Co732 O743 2.039 . S
Co732 N746 2.140 . S
C733 O734 1.227 . S
C733 O743 1.265 . S
O734 C733 1.227 . S
N735 Co732 2.121 . S
N735 C737 1.375 . S
N735 C738 1.313 . S
C736 C737 1.338 . S
C736 N739 1.377 . S
C736 H756 0.930 . S
C737 N735 1.375 . S
C737 C736 1.338 . S
C737 H741 0.931 . S
C738 N735 1.313 . S
C738 N739 1.344 . S
C738 H742 0.930 . S
N739 C736 1.377 . S
N739 C738 1.344 . S
O740 Co732 2.055 . S
O740 C744 1.253 . S
H741 C737 0.931 . S
H742 C738 0.930 . S
O743 Co732 2.039 . S
O743 C733 1.265 . S
C744 O740 1.253 . S
C744 O745 1.227 . S
O745 C744 1.227 . S
N746 Co732 2.140 . S
N746 C749 1.346 . S
N746 C750 1.345 . S
C747 C748 1.387 . S
C747 C751 1.391 . S
C748 C747 1.387 . S
C748 C749 1.369 . S
C748 H757 0.929 . S
C749 N746 1.346 . S
C749 C748 1.369 . S
C749 H752 0.928 . S
C750 N746 1.345 . S
C750 C751 1.371 . S
C750 H753 0.931 . S
C751 C747 1.391 . S
C751 C750 1.371 . S
C751 H758 0.930 . S
H752 C749 0.928 . S
H753 C750 0.931 . S
H754 C730 0.930 . S
H755 C727 0.930 . S
H756 C736 0.930 . S
H757 C748 0.929 . S
H758 C751 0.930 . S
C759 C760 1.351 . S
C759 N762 1.368 . S
C759 H764 0.931 . S
C760 C759 1.351 . S
C760 N761 1.373 . S
C760 H788 0.930 . S
N761 C760 1.373 . S
N761 C763 1.340 . S
N762 C759 1.368 . S
N762 C763 1.321 . S
N762 Co765 2.135 . S
C763 N761 1.340 . S
C763 N762 1.321 . S
C763 H787 0.930 . S
H764 C759 0.931 . S
Co765 N762 2.135 . S
Co765 N768 2.121 . S
Co765 O773 2.055 . S
Co765 O776 2.039 . S
Co765 N779 2.140 . S
C766 O767 1.227 . S
C766 O776 1.265 . S
O767 C766 1.227 . S
N768 Co765 2.121 . S
N768 C770 1.375 . S
N768 C771 1.313 . S
C769 C770 1.338 . S
C769 N772 1.377 . S
C769 H789 0.930 . S
C770 N768 1.375 . S
C770 C769 1.338 . S
C770 H774 0.931 . S
C771 N768 1.313 . S
C771 N772 1.344 . S
C771 H775 0.930 . S
N772 C769 1.377 . S
N772 C771 1.344 . S
O773 Co765 2.055 . S
O773 C777 1.253 . S
H774 C770 0.931 . S
H775 C771 0.930 . S
O776 Co765 2.039 . S
O776 C766 1.265 . S
C777 O773 1.253 . S
C777 O778 1.227 . S
O778 C777 1.227 . S
N779 Co765 2.140 . S
N779 C782 1.346 . S
N779 C783 1.345 . S
C780 C781 1.387 . S
C780 C784 1.391 . S
C781 C780 1.387 . S
C781 C782 1.369 . S
C781 H790 0.929 . S
C782 N779 1.346 . S
C782 C781 1.369 . S
C782 H785 0.928 . S
C783 N779 1.345 . S
C783 C784 1.371 . S
C783 H786 0.931 . S
C784 C780 1.391 . S
C784 C783 1.371 . S
C784 H791 0.930 . S
H785 C782 0.928 . S
H786 C783 0.931 . S
H787 C763 0.930 . S
H788 C760 0.930 . S
H789 C769 0.930 . S
H790 C781 0.929 . S
H791 C784 0.930 . S
C792 C793 1.351 . S
C792 N795 1.368 . S
C792 H797 0.931 . S
C793 C792 1.351 . S
C793 N794 1.373 . S
C793 H821 0.930 . S
N794 C793 1.373 . S
N794 C796 1.340 . S
N795 C792 1.368 . S
N795 C796 1.321 . S
N795 Co798 2.135 . S
C796 N794 1.340 . S
C796 N795 1.321 . S
C796 H820 0.930 . S
H797 C792 0.931 . S
Co798 N795 2.135 . S
Co798 N801 2.121 . S
Co798 O806 2.055 . S
Co798 O809 2.039 . S
Co798 N812 2.140 . S
C799 O800 1.227 . S
C799 O809 1.265 . S
O800 C799 1.227 . S
N801 Co798 2.121 . S
N801 C803 1.375 . S
N801 C804 1.313 . S
C802 C803 1.338 . S
C802 N805 1.377 . S
C802 H822 0.930 . S
C803 N801 1.375 . S
C803 C802 1.338 . S
C803 H807 0.931 . S
C804 N801 1.313 . S
C804 N805 1.344 . S
C804 H808 0.930 . S
N805 C802 1.377 . S
N805 C804 1.344 . S
O806 Co798 2.055 . S
O806 C810 1.253 . S
H807 C803 0.931 . S
H808 C804 0.930 . S
O809 Co798 2.039 . S
O809 C799 1.265 . S
C810 O806 1.253 . S
C810 O811 1.227 . S
O811 C810 1.227 . S
N812 Co798 2.140 . S
N812 C815 1.346 . S
N812 C816 1.345 . S
C813 C814 1.387 . S
C813 C817 1.391 . S
C814 C813 1.387 . S
C814 C815 1.369 . S
C814 H823 0.929 . S
C815 N812 1.346 . S
C815 C814 1.369 . S
C815 H818 0.928 . S
C816 N812 1.345 . S
C816 C817 1.371 . S
C816 H819 0.931 . S
C817 C813 1.391 . S
C817 C816 1.371 . S
C817 H824 0.930 . S
H818 C815 0.928 . S
H819 C816 0.931 . S
H820 C796 0.930 . S
H821 C793 0.930 . S
H822 C802 0.930 . S
H823 C814 0.929 . S
H824 C817 0.930 . S
C825 C826 1.351 . S
C825 N828 1.368 . S
C825 H830 0.931 . S
C826 C825 1.351 . S
C826 N827 1.373 . S
C826 H854 0.930 . S
N827 C826 1.373 . S
N827 C829 1.340 . S
N828 C825 1.368 . S
N828 C829 1.321 . S
N828 Co831 2.135 . S
C829 N827 1.340 . S
C829 N828 1.321 . S
C829 H853 0.930 . S
H830 C825 0.931 . S
Co831 N828 2.135 . S
Co831 N834 2.121 . S
Co831 O839 2.055 . S
Co831 O842 2.039 . S
Co831 N845 2.140 . S
C832 O833 1.227 . S
C832 O842 1.265 . S
O833 C832 1.227 . S
N834 Co831 2.121 . S
N834 C836 1.375 . S
N834 C837 1.313 . S
C835 C836 1.338 . S
C835 N838 1.377 . S
C835 H855 0.930 . S
C836 N834 1.375 . S
C836 C835 1.338 . S
C836 H840 0.931 . S
C837 N834 1.313 . S
C837 N838 1.344 . S
C837 H841 0.930 . S
N838 C835 1.377 . S
N838 C837 1.344 . S
O839 Co831 2.055 . S
O839 C843 1.253 . S
H840 C836 0.931 . S
H841 C837 0.930 . S
O842 Co831 2.039 . S
O842 C832 1.265 . S
C843 O839 1.253 . S
C843 O844 1.227 . S
O844 C843 1.227 . S
N845 Co831 2.140 . S
N845 C848 1.346 . S
N845 C849 1.345 . S
C846 C847 1.387 . S
C846 C850 1.391 . S
C847 C846 1.387 . S
C847 C848 1.369 . S
C847 H856 0.929 . S
C848 N845 1.346 . S
C848 C847 1.369 . S
C848 H851 0.928 . S
C849 N845 1.345 . S
C849 C850 1.371 . S
C849 H852 0.931 . S
C850 C846 1.391 . S
C850 C849 1.371 . S
C850 H857 0.930 . S
H851 C848 0.928 . S
H852 C849 0.931 . S
H853 C829 0.930 . S
H854 C826 0.930 . S
H855 C835 0.930 . S
H856 C847 0.929 . S
H857 C850 0.930 . S
C858 C859 1.351 . S
C858 N861 1.368 . S
C858 H863 0.931 . S
C859 C858 1.351 . S
C859 N860 1.373 . S
C859 H887 0.930 . S
N860 C859 1.373 . S
N860 C862 1.340 . S
N861 C858 1.368 . S
N861 C862 1.321 . S
N861 Co864 2.135 . S
C862 N860 1.340 . S
C862 N861 1.321 . S
C862 H886 0.930 . S
H863 C858 0.931 . S
Co864 N861 2.135 . S
Co864 N867 2.121 . S
Co864 O872 2.055 . S
Co864 O875 2.039 . S
Co864 N878 2.140 . S
C865 O866 1.227 . S
C865 O875 1.265 . S
O866 C865 1.227 . S
N867 Co864 2.121 . S
N867 C869 1.375 . S
N867 C870 1.313 . S
C868 C869 1.338 . S
C868 N871 1.377 . S
C868 H888 0.930 . S
C869 N867 1.375 . S
C869 C868 1.338 . S
C869 H873 0.931 . S
C870 N867 1.313 . S
C870 N871 1.344 . S
C870 H874 0.930 . S
N871 C868 1.377 . S
N871 C870 1.344 . S
O872 Co864 2.055 . S
O872 C876 1.253 . S
H873 C869 0.931 . S
H874 C870 0.930 . S
O875 Co864 2.039 . S
O875 C865 1.265 . S
C876 O872 1.253 . S
C876 O877 1.227 . S
O877 C876 1.227 . S
N878 Co864 2.140 . S
N878 C881 1.346 . S
N878 C882 1.345 . S
C879 C880 1.387 . S
C879 C883 1.391 . S
C880 C879 1.387 . S
C880 C881 1.369 . S
C880 H889 0.929 . S
C881 N878 1.346 . S
C881 C880 1.369 . S
C881 H884 0.928 . S
C882 N878 1.345 . S
C882 C883 1.371 . S
C882 H885 0.931 . S
C883 C879 1.391 . S
C883 C882 1.371 . S
C883 H890 0.930 . S
H884 C881 0.928 . S
H885 C882 0.931 . S
H886 C862 0.930 . S
H887 C859 0.930 . S
H888 C868 0.930 . S
H889 C880 0.929 . S
H890 C883 0.930 . S
C891 C892 1.351 . S
C891 N894 1.368 . S
C891 H896 0.931 . S
C892 C891 1.351 . S
C892 N893 1.373 . S
C892 H920 0.930 . S
N893 C892 1.373 . S
N893 C895 1.340 . S
N894 C891 1.368 . S
N894 C895 1.321 . S
N894 Co897 2.135 . S
C895 N893 1.340 . S
C895 N894 1.321 . S
C895 H919 0.930 . S
H896 C891 0.931 . S
Co897 N894 2.135 . S
Co897 N900 2.121 . S
Co897 O905 2.055 . S
Co897 O908 2.039 . S
Co897 N911 2.140 . S
C898 O899 1.227 . S
C898 O908 1.265 . S
O899 C898 1.227 . S
N900 Co897 2.121 . S
N900 C902 1.375 . S
N900 C903 1.313 . S
C901 C902 1.338 . S
C901 N904 1.377 . S
C901 H921 0.930 . S
C902 N900 1.375 . S
C902 C901 1.338 . S
C902 H906 0.931 . S
C903 N900 1.313 . S
C903 N904 1.344 . S
C903 H907 0.930 . S
N904 C901 1.377 . S
N904 C903 1.344 . S
O905 Co897 2.055 . S
O905 C909 1.253 . S
H906 C902 0.931 . S
H907 C903 0.930 . S
O908 Co897 2.039 . S
O908 C898 1.265 . S
C909 O905 1.253 . S
C909 O910 1.227 . S
O910 C909 1.227 . S
N911 Co897 2.140 . S
N911 C914 1.346 . S
N911 C915 1.345 . S
C912 C913 1.387 . S
C912 C916 1.391 . S
C913 C912 1.387 . S
C913 C914 1.369 . S
C913 H922 0.929 . S
C914 N911 1.346 . S
C914 C913 1.369 . S
C914 H917 0.928 . S
C915 N911 1.345 . S
C915 C916 1.371 . S
C915 H918 0.931 . S
C916 C912 1.391 . S
C916 C915 1.371 . S
C916 H923 0.930 . S
H917 C914 0.928 . S
H918 C915 0.931 . S
H919 C895 0.930 . S
H920 C892 0.930 . S
H921 C901 0.930 . S
H922 C913 0.929 . S
H923 C916 0.930 . S
C924 C925 1.351 . S
C924 N927 1.368 . S
C924 H929 0.931 . S
C925 C924 1.351 . S
C925 N926 1.373 . S
C925 H953 0.930 . S
N926 C925 1.373 . S
N926 C928 1.340 . S
N927 C924 1.368 . S
N927 C928 1.321 . S
N927 Co930 2.135 . S
C928 N926 1.340 . S
C928 N927 1.321 . S
C928 H952 0.930 . S
H929 C924 0.931 . S
Co930 N927 2.135 . S
Co930 N933 2.121 . S
Co930 O938 2.055 . S
Co930 O941 2.039 . S
Co930 N944 2.140 . S
C931 O932 1.227 . S
C931 O941 1.265 . S
O932 C931 1.227 . S
N933 Co930 2.121 . S
N933 C935 1.375 . S
N933 C936 1.313 . S
C934 C935 1.338 . S
C934 N937 1.377 . S
C934 H954 0.930 . S
C935 N933 1.375 . S
C935 C934 1.338 . S
C935 H939 0.931 . S
C936 N933 1.313 . S
C936 N937 1.344 . S
C936 H940 0.930 . S
N937 C934 1.377 . S
N937 C936 1.344 . S
O938 Co930 2.055 . S
O938 C942 1.253 . S
H939 C935 0.931 . S
H940 C936 0.930 . S
O941 Co930 2.039 . S
O941 C931 1.265 . S
C942 O938 1.253 . S
C942 O943 1.227 . S
O943 C942 1.227 . S
N944 Co930 2.140 . S
N944 C947 1.346 . S
N944 C948 1.345 . S
C945 C946 1.387 . S
C945 C949 1.391 . S
C946 C945 1.387 . S
C946 C947 1.369 . S
C946 H955 0.929 . S
C947 N944 1.346 . S
C947 C946 1.369 . S
C947 H950 0.928 . S
C948 N944 1.345 . S
C948 C949 1.371 . S
C948 H951 0.931 . S
C949 C945 1.391 . S
C949 C948 1.371 . S
C949 H956 0.930 . S
H950 C947 0.928 . S
H951 C948 0.931 . S
H952 C928 0.930 . S
H953 C925 0.930 . S
H954 C934 0.930 . S
H955 C946 0.929 . S
H956 C949 0.930 . S
C957 C958 1.351 . S
C957 N960 1.368 . S
C957 H962 0.931 . S
C958 C957 1.351 . S
C958 N959 1.373 . S
C958 H986 0.930 . S
N959 C958 1.373 . S
N959 C961 1.340 . S
N960 C957 1.368 . S
N960 C961 1.321 . S
N960 Co963 2.135 . S
C961 N959 1.340 . S
C961 N960 1.321 . S
C961 H985 0.930 . S
H962 C957 0.931 . S
Co963 N960 2.135 . S
Co963 N966 2.121 . S
Co963 O971 2.055 . S
Co963 O974 2.039 . S
Co963 N977 2.140 . S
C964 O965 1.227 . S
C964 O974 1.265 . S
O965 C964 1.227 . S
N966 Co963 2.121 . S
N966 C968 1.375 . S
N966 C969 1.313 . S
C967 C968 1.338 . S
C967 N970 1.377 . S
C967 H987 0.930 . S
C968 N966 1.375 . S
C968 C967 1.338 . S
C968 H972 0.931 . S
C969 N966 1.313 . S
C969 N970 1.344 . S
C969 H973 0.930 . S
N970 C967 1.377 . S
N970 C969 1.344 . S
O971 Co963 2.055 . S
O971 C975 1.253 . S
H972 C968 0.931 . S
H973 C969 0.930 . S
O974 Co963 2.039 . S
O974 C964 1.265 . S
C975 O971 1.253 . S
C975 O976 1.227 . S
O976 C975 1.227 . S
N977 Co963 2.140 . S
N977 C980 1.346 . S
N977 C981 1.345 . S
C978 C979 1.387 . S
C978 C982 1.391 . S
C979 C978 1.387 . S
C979 C980 1.369 . S
C979 H988 0.929 . S
C980 N977 1.346 . S
C980 C979 1.369 . S
C980 H983 0.928 . S
C981 N977 1.345 . S
C981 C982 1.371 . S
C981 H984 0.931 . S
C982 C978 1.391 . S
C982 C981 1.371 . S
C982 H989 0.930 . S
H983 C980 0.928 . S
H984 C981 0.931 . S
H985 C961 0.930 . S
H986 C958 0.930 . S
H987 C967 0.930 . S
H988 C979 0.929 . S
H989 C982 0.930 . S
C990 C991 1.351 . S
C990 N993 1.368 . S
C990 H995 0.931 . S
C991 C990 1.351 . S
C991 N992 1.373 . S
C991 H1019 0.930 . S
N992 C991 1.373 . S
N992 C994 1.340 . S
N993 C990 1.368 . S
N993 C994 1.321 . S
N993 Co996 2.135 . S
C994 N992 1.340 . S
C994 N993 1.321 . S
C994 H1018 0.930 . S
H995 C990 0.931 . S
Co996 N993 2.135 . S
Co996 N999 2.121 . S
Co996 O1004 2.055 . S
Co996 O1007 2.039 . S
Co996 N1010 2.140 . S
C997 O998 1.227 . S
C997 O1007 1.265 . S
O998 C997 1.227 . S
N999 Co996 2.121 . S
N999 C1001 1.375 . S
N999 C1002 1.313 . S
C1000 C1001 1.338 . S
C1000 N1003 1.377 . S
C1000 H1020 0.930 . S
C1001 N999 1.375 . S
C1001 C1000 1.338 . S
C1001 H1005 0.931 . S
C1002 N999 1.313 . S
C1002 N1003 1.344 . S
C1002 H1006 0.930 . S
N1003 C1000 1.377 . S
N1003 C1002 1.344 . S
O1004 Co996 2.055 . S
O1004 C1008 1.253 . S
H1005 C1001 0.931 . S
H1006 C1002 0.930 . S
O1007 Co996 2.039 . S
O1007 C997 1.265 . S
C1008 O1004 1.253 . S
C1008 O1009 1.227 . S
O1009 C1008 1.227 . S
N1010 Co996 2.140 . S
N1010 C1013 1.346 . S
N1010 C1014 1.345 . S
C1011 C1012 1.387 . S
C1011 C1015 1.391 . S
C1012 C1011 1.387 . S
C1012 C1013 1.369 . S
C1012 H1021 0.929 . S
C1013 N1010 1.346 . S
C1013 C1012 1.369 . S
C1013 H1016 0.928 . S
C1014 N1010 1.345 . S
C1014 C1015 1.371 . S
C1014 H1017 0.931 . S
C1015 C1011 1.391 . S
C1015 C1014 1.371 . S
C1015 H1022 0.930 . S
H1016 C1013 0.928 . S
H1017 C1014 0.931 . S
H1018 C994 0.930 . S
H1019 C991 0.930 . S
H1020 C1000 0.930 . S
H1021 C1012 0.929 . S
H1022 C1015 0.930 . S
C1023 C1024 1.351 . S
C1023 N1026 1.368 . S
C1023 H1028 0.931 . S
C1024 C1023 1.351 . S
C1024 N1025 1.373 . S
C1024 H1052 0.930 . S
N1025 C1024 1.373 . S
N1025 C1027 1.340 . S
N1026 C1023 1.368 . S
N1026 C1027 1.321 . S
N1026 Co1029 2.135 . S
C1027 N1025 1.340 . S
C1027 N1026 1.321 . S
C1027 H1051 0.930 . S
H1028 C1023 0.931 . S
Co1029 N1026 2.135 . S
Co1029 N1032 2.121 . S
Co1029 O1037 2.055 . S
Co1029 O1040 2.039 . S
Co1029 N1043 2.140 . S
C1030 O1031 1.227 . S
C1030 O1040 1.265 . S
O1031 C1030 1.227 . S
N1032 Co1029 2.121 . S
N1032 C1034 1.375 . S
N1032 C1035 1.313 . S
C1033 C1034 1.338 . S
C1033 N1036 1.377 . S
C1033 H1053 0.930 . S
C1034 N1032 1.375 . S
C1034 C1033 1.338 . S
C1034 H1038 0.931 . S
C1035 N1032 1.313 . S
C1035 N1036 1.344 . S
C1035 H1039 0.930 . S
N1036 C1033 1.377 . S
N1036 C1035 1.344 . S
O1037 Co1029 2.055 . S
O1037 C1041 1.253 . S
H1038 C1034 0.931 . S
H1039 C1035 0.930 . S
O1040 Co1029 2.039 . S
O1040 C1030 1.265 . S
C1041 O1037 1.253 . S
C1041 O1042 1.227 . S
O1042 C1041 1.227 . S
N1043 Co1029 2.140 . S
N1043 C1046 1.346 . S
N1043 C1047 1.345 . S
C1044 C1045 1.387 . S
C1044 C1048 1.391 . S
C1045 C1044 1.387 . S
C1045 C1046 1.369 . S
C1045 H1054 0.929 . S
C1046 N1043 1.346 . S
C1046 C1045 1.369 . S
C1046 H1049 0.928 . S
C1047 N1043 1.345 . S
C1047 C1048 1.371 . S
C1047 H1050 0.931 . S
C1048 C1044 1.391 . S
C1048 C1047 1.371 . S
C1048 H1055 0.930 . S
H1049 C1046 0.928 . S
H1050 C1047 0.931 . S
H1051 C1027 0.930 . S
H1052 C1024 0.930 . S
H1053 C1033 0.930 . S
H1054 C1045 0.929 . S
H1055 C1048 0.930 . S
H1056 C1064 0.929 . S
H1057 C1066 0.930 . S
H1058 C1068 0.930 . S
H1059 C1071 0.929 . S
H1060 C1074 0.930 . S
H1061 C1076 0.960 . S
H1062 C1076 0.960 . S
H1063 C1076 0.960 . S
C1064 H1056 0.929 . S
C1064 C1065 1.377 . S
C1064 C1066 1.384 . S
C1065 C1064 1.377 . S
C1065 C1071 1.390 . S
C1066 H1057 0.930 . S
C1066 C1064 1.384 . S
C1066 C1067 1.372 . S
C1067 C1066 1.372 . S
C1067 C1068 1.400 . S
C1067 C1072 1.490 . S
C1068 H1058 0.930 . S
C1068 C1067 1.400 . S
C1068 C1071 1.386 . S
H1069 C1085 0.930 . S
H1070 C1086 0.931 . S
C1071 H1059 0.929 . S
C1071 C1065 1.390 . S
C1071 C1068 1.386 . S
C1072 C1067 1.490 . S
C1072 C1074 1.395 . S
C1072 C1075 1.403 . S
H1073 C1079 0.930 . S
C1074 H1060 0.930 . S
C1074 C1072 1.395 . S
C1074 C1077 1.403 . S
C1075 C1072 1.403 . S
C1075 C1076 1.524 . S
C1075 C1079 1.400 . S
C1076 H1061 0.960 . S
C1076 H1062 0.960 . S
C1076 H1063 0.960 . S
C1076 C1075 1.524 . S
C1077 C1074 1.403 . S
C1077 C1078 1.392 . S
C1077 C1081 1.495 . S
C1078 C1077 1.392 . S
C1078 C1079 1.385 . S
C1078 C1080 1.478 . S
C1079 H1073 0.930 . S
C1079 C1075 1.400 . S
C1079 C1078 1.385 . S
C1080 C1078 1.478 . S
C1080 C1082 1.381 . S
C1080 C1086 1.383 . S
C1081 C1077 1.495 . S
C1081 H1087 0.959 . S
C1081 H1088 0.961 . S
C1081 H1089 0.960 . S
C1082 C1080 1.381 . S
C1082 C1083 1.394 . S
C1082 H1090 0.930 . S
C1083 C1082 1.394 . S
C1083 C1084 1.383 . S
C1083 H1091 0.929 . S
C1084 C1083 1.383 . S
C1084 C1085 1.377 . S
C1085 H1069 0.930 . S
C1085 C1084 1.377 . S
C1085 C1086 1.379 . S
C1086 H1070 0.931 . S
C1086 C1080 1.383 . S
C1086 C1085 1.379 . S
H1087 C1081 0.959 . S
H1088 C1081 0.961 . S
H1089 C1081 0.960 . S
H1090 C1082 0.930 . S
H1091 C1083 0.929 . S
H1092 C1100 0.929 . S
H1093 C1102 0.930 . S
H1094 C1104 0.930 . S
H1095 C1107 0.929 . S
H1096 C1110 0.930 . S
H1097 C1112 0.960 1_545 S
H1098 C1112 0.960 1_545 S
H1099 C1112 0.960 . S
C1100 H1092 0.929 . S
C1100 C1101 1.377 . S
C1100 C1102 1.384 . S
C1101 C1100 1.377 . S
C1101 C1107 1.390 . S
C1102 H1093 0.930 . S
C1102 C1100 1.384 . S
C1102 C1103 1.372 . S
C1103 C1102 1.372 . S
C1103 C1104 1.400 . S
C1103 C1108 1.490 . S
C1104 H1094 0.930 . S
C1104 C1103 1.400 . S
C1104 C1107 1.386 . S
H1105 C1121 0.930 . S
H1106 C1122 0.910 1_565 S
C1107 H1095 0.929 . S
C1107 C1101 1.390 . S
C1107 C1104 1.386 . S
C1108 C1103 1.490 . S
C1108 C1110 1.395 1_655 S
C1108 C1111 1.403 . S
H1109 C1115 0.930 . S
C1110 H1096 0.930 . S
C1110 C1108 1.395 1_455 S
C1110 C1113 1.403 1_565 S
C1111 C1108 1.403 . S
C1111 C1112 1.524 . S
C1111 C1115 1.400 1_565 S
C1112 H1097 0.960 1_565 S
C1112 H1098 0.960 1_565 S
C1112 H1099 0.960 . S
C1112 C1111 1.524 . S
C1113 C1110 1.403 1_545 S
C1113 C1114 1.392 . S
C1113 C1117 1.495 . S
C1114 C1113 1.392 . S
C1114 C1115 1.385 1_455 S
C1114 C1116 1.478 . S
C1115 H1109 0.930 . S
C1115 C1111 1.400 1_545 S
C1115 C1114 1.385 1_655 S
C1116 C1114 1.478 . S
C1116 C1118 1.381 . S
C1116 C1122 1.383 . S
C1117 C1113 1.495 . S
C1117 H1123 0.959 1_545 S
C1117 H1124 0.961 1_545 S
C1117 H1125 0.960 . S
C1118 C1116 1.381 . S
C1118 C1119 1.394 . S
C1118 H1126 0.930 . S
C1119 C1118 1.394 . S
C1119 C1120 1.383 . S
C1119 H1127 0.929 . S
C1120 C1119 1.383 . S
C1120 C1121 1.377 . S
C1121 H1105 0.930 . S
C1121 C1120 1.377 . S
C1121 C1122 1.379 . S
C1122 H1106 0.910 1_545 S
C1122 C1116 1.383 . S
C1122 C1121 1.379 . S
H1123 C1117 0.959 1_565 S
H1124 C1117 0.961 1_565 S
H1125 C1117 0.960 . S
H1126 C1118 0.930 . S
H1127 C1119 0.929 . S
H1128 C1136 0.929 . S
H1129 C1138 0.930 . S
H1130 C1140 0.930 . S
H1131 C1143 0.929 . S
H1132 C1146 0.930 . S
H1133 C1148 0.960 . S
H1134 C1148 0.960 . S
H1135 C1148 0.960 . S
C1136 H1128 0.929 . S
C1136 C1137 1.377 . S
C1136 C1138 1.384 . S
C1137 C1136 1.377 . S
C1137 C1143 1.390 . S
C1138 H1129 0.930 . S
C1138 C1136 1.384 . S
C1138 C1139 1.372 . S
C1139 C1138 1.372 . S
C1139 C1140 1.400 . S
C1139 C1144 1.490 . S
C1140 H1130 0.930 . S
C1140 C1139 1.400 . S
C1140 C1143 1.386 . S
H1141 C1157 0.930 . S
H1142 C1158 0.931 . S
C1143 H1131 0.929 . S
C1143 C1137 1.390 . S
C1143 C1140 1.386 . S
C1144 C1139 1.490 . S
C1144 C1146 1.395 . S
C1144 C1147 1.403 . S
H1145 C1151 0.930 . S
C1146 H1132 0.930 . S
C1146 C1144 1.395 . S
C1146 C1149 1.403 . S
C1147 C1144 1.403 . S
C1147 C1148 1.524 . S
C1147 C1151 1.400 . S
C1148 H1133 0.960 . S
C1148 H1134 0.960 . S
C1148 H1135 0.960 . S
C1148 C1147 1.524 . S
C1149 C1146 1.403 . S
C1149 C1150 1.392 . S
C1149 C1153 1.495 . S
C1150 C1149 1.392 . S
C1150 C1151 1.385 . S
C1150 C1152 1.478 . S
C1151 H1145 0.930 . S
C1151 C1147 1.400 . S
C1151 C1150 1.385 . S
C1152 C1150 1.478 . S
C1152 C1154 1.381 . S
C1152 C1158 1.383 . S
C1153 C1149 1.495 . S
C1153 H1159 0.959 . S
C1153 H1160 0.961 . S
C1153 H1161 0.960 . S
C1154 C1152 1.381 . S
C1154 C1155 1.394 . S
C1154 H1162 0.930 . S
C1155 C1154 1.394 . S
C1155 C1156 1.383 . S
C1155 H1163 0.929 . S
C1156 C1155 1.383 . S
C1156 C1157 1.377 . S
C1157 H1141 0.930 . S
C1157 C1156 1.377 . S
C1157 C1158 1.379 . S
C1158 H1142 0.931 . S
C1158 C1152 1.383 . S
C1158 C1157 1.379 . S
H1159 C1153 0.959 . S
H1160 C1153 0.961 . S
H1161 C1153 0.960 . S
H1162 C1154 0.930 . S
H1163 C1155 0.929 . S
H1164 C1172 0.929 . S
H1165 C1174 0.930 . S
H1166 C1176 0.930 . S
H1167 C1179 0.929 . S
H1168 C1182 0.930 . S
H1169 C1184 0.960 . S
H1170 C1184 0.960 . S
H1171 C1184 0.960 . S
C1172 H1164 0.929 . S
C1172 C1173 1.377 . S
C1172 C1174 1.384 . S
C1173 C1172 1.377 . S
C1173 C1179 1.390 . S
C1174 H1165 0.930 . S
C1174 C1172 1.384 . S
C1174 C1175 1.372 . S
C1175 C1174 1.372 . S
C1175 C1176 1.400 . S
C1175 C1180 1.490 . S
C1176 H1166 0.930 . S
C1176 C1175 1.400 . S
C1176 C1179 1.386 . S
H1177 C1193 0.930 . S
H1178 C1194 0.931 . S
C1179 H1167 0.929 . S
C1179 C1173 1.390 . S
C1179 C1176 1.386 . S
C1180 C1175 1.490 . S
C1180 C1182 1.395 . S
C1180 C1183 1.403 1_556 S
H1181 C1187 0.930 . S
C1182 H1168 0.930 . S
C1182 C1180 1.395 . S
C1182 C1185 1.403 1_565 S
C1183 C1180 1.403 1_554 S
C1183 C1184 1.524 . S
C1183 C1187 1.400 1_565 S
C1184 H1169 0.960 . S
C1184 H1170 0.960 . S
C1184 H1171 0.960 . S
C1184 C1183 1.524 . S
C1185 C1182 1.403 1_545 S
C1185 C1186 1.392 1_556 S
C1185 C1189 1.495 . S
C1186 C1185 1.392 1_554 S
C1186 C1187 1.385 . S
C1186 C1188 1.478 . S
C1187 H1181 0.930 . S
C1187 C1183 1.400 1_545 S
C1187 C1186 1.385 . S
C1188 C1186 1.478 . S
C1188 C1190 1.381 . S
C1188 C1194 1.383 . S
C1189 C1185 1.495 . S
C1189 H1195 0.959 . S
C1189 H1196 0.961 . S
C1189 H1197 0.960 . S
C1190 C1188 1.381 . S
C1190 C1191 1.394 . S
C1190 H1198 0.930 . S
C1191 C1190 1.394 . S
C1191 C1192 1.383 . S
C1191 H1199 0.929 . S
C1192 C1191 1.383 . S
C1192 C1193 1.377 . S
C1193 H1177 0.930 . S
C1193 C1192 1.377 . S
C1193 C1194 1.379 . S
C1194 H1178 0.931 . S
C1194 C1188 1.383 . S
C1194 C1193 1.379 . S
H1195 C1189 0.959 . S
H1196 C1189 0.961 . S
H1197 C1189 0.960 . S
H1198 C1190 0.930 . S
H1199 C1191 0.929 . S
H1200 C1208 0.929 . S
H1201 C1210 0.930 . S
H1202 C1212 0.930 . S
H1203 C1215 0.929 . S
H1204 C1218 0.930 . S
H1205 C1220 0.960 . S
H1206 C1220 0.960 . S
H1207 C1220 0.960 . S
C1208 H1200 0.929 . S
C1208 C1209 1.377 . S
C1208 C1210 1.384 . S
C1209 C1208 1.377 . S
C1209 C1215 1.390 . S
C1210 H1201 0.930 . S
C1210 C1208 1.384 . S
C1210 C1211 1.372 . S
C1211 C1210 1.372 . S
C1211 C1212 1.400 . S
C1211 C1216 1.490 . S
C1212 H1202 0.930 . S
C1212 C1211 1.400 . S
C1212 C1215 1.386 . S
H1213 C1229 0.930 . S
H1214 C1230 0.931 . S
C1215 H1203 0.929 . S
C1215 C1209 1.390 . S
C1215 C1212 1.386 . S
C1216 C1211 1.490 . S
C1216 C1218 1.395 . S
C1216 C1219 1.403 . S
H1217 C1223 0.930 . S
C1218 H1204 0.930 . S
C1218 C1216 1.395 . S
C1218 C1221 1.403 . S
C1219 C1216 1.403 . S
C1219 C1220 1.524 . S
C1219 C1223 1.400 . S
C1220 H1205 0.960 . S
C1220 H1206 0.960 . S
C1220 H1207 0.960 . S
C1220 C1219 1.524 . S
C1221 C1218 1.403 . S
C1221 C1222 1.392 . S
C1221 C1225 1.495 . S
C1222 C1221 1.392 . S
C1222 C1223 1.385 . S
C1222 C1224 1.478 . S
C1223 H1217 0.930 . S
C1223 C1219 1.400 . S
C1223 C1222 1.385 . S
C1224 C1222 1.478 . S
C1224 C1226 1.381 . S
C1224 C1230 1.383 . S
C1225 C1221 1.495 . S
C1225 H1231 0.959 . S
C1225 H1232 0.961 . S
C1225 H1233 0.960 . S
C1226 C1224 1.381 . S
C1226 C1227 1.394 . S
C1226 H1234 0.930 . S
C1227 C1226 1.394 . S
C1227 C1228 1.383 . S
C1227 H1235 0.929 . S
C1228 C1227 1.383 . S
C1228 C1229 1.377 . S
C1229 H1213 0.930 . S
C1229 C1228 1.377 . S
C1229 C1230 1.379 . S
C1230 H1214 0.931 . S
C1230 C1224 1.383 . S
C1230 C1229 1.379 . S
H1231 C1225 0.959 . S
H1232 C1225 0.961 . S
H1233 C1225 0.960 . S
H1234 C1226 0.930 . S
H1235 C1227 0.929 . S
H1236 C1244 0.929 . S
H1237 C1246 0.930 . S
H1238 C1248 0.930 . S
H1239 C1251 0.929 . S
H1240 C1254 0.930 . S
H1241 C1256 0.960 . S
H1242 C1256 0.960 . S
H1243 C1256 0.960 . S
C1244 H1236 0.929 . S
C1244 C1245 1.377 . S
C1244 C1246 1.384 . S
C1245 C1244 1.377 . S
C1245 C1251 1.390 . S
C1246 H1237 0.930 . S
C1246 C1244 1.384 . S
C1246 C1247 1.372 . S
C1247 C1246 1.372 . S
C1247 C1248 1.400 . S
C1247 C1252 1.490 . S
C1248 H1238 0.930 . S
C1248 C1247 1.400 . S
C1248 C1251 1.386 . S
H1249 C1265 0.930 . S
H1250 C1266 0.931 . S
C1251 H1239 0.929 . S
C1251 C1245 1.390 . S
C1251 C1248 1.386 . S
C1252 C1247 1.490 . S
C1252 C1254 1.395 . S
C1252 C1255 1.403 1_565 S
H1253 C1259 0.930 . S
C1254 H1240 0.930 . S
C1254 C1252 1.395 . S
C1254 C1257 1.403 . S
C1255 C1252 1.403 1_545 S
C1255 C1256 1.524 . S
C1255 C1259 1.400 . S
C1256 H1241 0.960 . S
C1256 H1242 0.960 . S
C1256 H1243 0.960 . S
C1256 C1255 1.524 . S
C1257 C1254 1.403 . S
C1257 C1258 1.392 1_565 S
C1257 C1261 1.495 . S
C1258 C1257 1.392 1_545 S
C1258 C1259 1.385 . S
C1258 C1260 1.478 . S
C1259 H1253 0.930 . S
C1259 C1255 1.400 . S
C1259 C1258 1.385 . S
C1260 C1258 1.478 . S
C1260 C1262 1.381 . S
C1260 C1266 1.383 . S
C1261 C1257 1.495 . S
C1261 H1267 0.959 . S
C1261 H1268 0.961 . S
C1261 H1269 0.960 . S
C1262 C1260 1.381 . S
C1262 C1263 1.394 . S
C1262 H1270 0.930 . S
C1263 C1262 1.394 . S
C1263 C1264 1.383 . S
C1263 H1271 0.929 . S
C1264 C1263 1.383 . S
C1264 C1265 1.377 . S
C1265 H1249 0.930 . S
C1265 C1264 1.377 . S
C1265 C1266 1.379 . S
C1266 H1250 0.931 . S
C1266 C1260 1.383 . S
C1266 C1265 1.379 . S
H1267 C1261 0.959 . S
H1268 C1261 0.961 . S
H1269 C1261 0.960 . S
H1270 C1262 0.930 . S
H1271 C1263 0.929 . S
H1272 C1280 0.929 . S
H1273 C1282 0.930 . S
H1274 C1284 0.930 . S
H1275 C1287 0.929 . S
H1276 C1290 0.930 . S
H1277 C1292 0.960 . S
H1278 C1292 0.960 . S
H1279 C1292 0.960 . S
C1280 H1272 0.929 . S
C1280 C1281 1.377 . S
C1280 C1282 1.384 . S
C1281 C1280 1.377 . S
C1281 C1287 1.390 . S
C1282 H1273 0.930 . S
C1282 C1280 1.384 . S
C1282 C1283 1.372 . S
C1283 C1282 1.372 . S
C1283 C1284 1.400 . S
C1283 C1288 1.490 . S
C1284 H1274 0.930 . S
C1284 C1283 1.400 . S
C1284 C1287 1.386 . S
H1285 C1301 0.930 . S
H1286 C1302 0.931 . S
C1287 H1275 0.929 . S
C1287 C1281 1.390 . S
C1287 C1284 1.386 . S
C1288 C1283 1.490 . S
C1288 C1290 1.395 . S
C1288 C1291 1.403 . S
H1289 C1295 0.930 . S
C1290 H1276 0.930 . S
C1290 C1288 1.395 . S
C1290 C1293 1.403 . S
C1291 C1288 1.403 . S
C1291 C1292 1.524 . S
C1291 C1295 1.400 . S
C1292 H1277 0.960 . S
C1292 H1278 0.960 . S
C1292 H1279 0.960 . S
C1292 C1291 1.524 . S
C1293 C1290 1.403 . S
C1293 C1294 1.392 . S
C1293 C1297 1.495 . S
C1294 C1293 1.392 . S
C1294 C1295 1.385 . S
C1294 C1296 1.478 . S
C1295 H1289 0.930 . S
C1295 C1291 1.400 . S
C1295 C1294 1.385 . S
C1296 C1294 1.478 . S
C1296 C1298 1.381 . S
C1296 C1302 1.383 . S
C1297 C1293 1.495 . S
C1297 H1303 0.959 . S
C1297 H1304 0.961 . S
C1297 H1305 0.960 . S
C1298 C1296 1.381 . S
C1298 C1299 1.394 . S
C1298 H1306 0.930 . S
C1299 C1298 1.394 . S
C1299 C1300 1.383 . S
C1299 H1307 0.929 . S
C1300 C1299 1.383 . S
C1300 C1301 1.377 . S
C1301 H1285 0.930 . S
C1301 C1300 1.377 . S
C1301 C1302 1.379 . S
C1302 H1286 0.931 . S
C1302 C1296 1.383 . S
C1302 C1301 1.379 . S
H1303 C1297 0.959 . S
H1304 C1297 0.961 . S
H1305 C1297 0.960 . S
H1306 C1298 0.930 . S
H1307 C1299 0.929 . S
H1308 C1316 0.929 . S
H1309 C1318 0.956 . S
H1310 C1320 0.930 . S
H1311 C1323 0.929 . S
H1312 C1326 0.930 . S
H1313 C1328 0.960 . S
H1314 C1328 0.960 . S
H1315 C1328 0.960 . S
C1316 H1308 0.929 . S
C1316 C1317 1.377 . S
C1316 C1318 1.384 . S
C1317 C1316 1.377 . S
C1317 C1323 1.390 . S
C1318 H1309 0.956 . S
C1318 C1316 1.384 . S
C1318 C1319 1.372 . S
C1319 C1318 1.372 . S
C1319 C1320 1.400 . S
C1319 C1324 1.490 . S
C1320 H1310 0.930 . S
C1320 C1319 1.400 . S
C1320 C1323 1.386 . S
H1321 C1337 0.930 . S
H1322 C1338 0.931 . S
C1323 H1311 0.929 . S
C1323 C1317 1.390 . S
C1323 C1320 1.386 . S
C1324 C1319 1.490 . S
C1324 C1326 1.395 1_565 S
C1324 C1327 1.403 1_455 S
H1325 C1331 0.930 . S
C1326 H1312 0.930 . S
C1326 C1324 1.395 1_545 S
C1326 C1329 1.403 1_554 S
C1327 C1324 1.403 1_655 S
C1327 C1328 1.524 . S
C1327 C1331 1.400 1_554 S
C1328 H1313 0.960 . S
C1328 H1314 0.960 . S
C1328 H1315 0.960 . S
C1328 C1327 1.524 . S
C1329 C1326 1.403 1_556 S
C1329 C1330 1.392 1_455 S
C1329 C1333 1.495 . S
C1330 C1329 1.392 1_655 S
C1330 C1331 1.385 1_545 S
C1330 C1332 1.478 . S
C1331 H1325 0.930 . S
C1331 C1327 1.400 1_556 S
C1331 C1330 1.385 1_565 S
C1332 C1330 1.478 . S
C1332 C1334 1.381 . S
C1332 C1338 1.383 . S
C1333 C1329 1.495 . S
C1333 H1339 0.959 . S
C1333 H1340 0.961 . S
C1333 H1341 0.960 . S
C1334 C1332 1.381 . S
C1334 C1335 1.394 . S
C1334 H1342 0.930 . S
C1335 C1334 1.394 . S
C1335 C1336 1.383 . S
C1335 H1343 0.929 . S
C1336 C1335 1.383 . S
C1336 C1337 1.377 . S
C1337 H1321 0.930 . S
C1337 C1336 1.377 . S
C1337 C1338 1.379 . S
C1338 H1322 0.931 . S
C1338 C1332 1.383 . S
C1338 C1337 1.379 . S
H1339 C1333 0.959 . S
H1340 C1333 0.961 . S
H1341 C1333 0.960 . S
H1342 C1334 0.930 . S
H1343 C1335 0.929 . S
H1344 C1352 0.929 . S
H1345 C1354 0.930 . S
H1346 C1356 0.930 . S
H1347 C1359 0.929 . S
H1348 C1362 0.930 . S
H1349 C1364 0.960 . S
H1350 C1364 0.960 . S
H1351 C1364 0.960 . S
C1352 H1344 0.929 . S
C1352 C1353 1.377 . S
C1352 C1354 1.384 . S
C1353 C1352 1.377 . S
C1353 C1359 1.390 . S
C1354 H1345 0.930 . S
C1354 C1352 1.384 . S
C1354 C1355 1.372 . S
C1355 C1354 1.372 . S
C1355 C1356 1.400 . S
C1355 C1360 1.490 . S
C1356 H1346 0.930 . S
C1356 C1355 1.400 . S
C1356 C1359 1.386 . S
H1357 C1373 0.930 . S
H1358 C1374 0.931 . S
C1359 H1347 0.929 . S
C1359 C1353 1.390 . S
C1359 C1356 1.386 . S
C1360 C1355 1.490 . S
C1360 C1362 1.395 . S
C1360 C1363 1.403 . S
H1361 C1367 0.930 . S
C1362 H1348 0.930 . S
C1362 C1360 1.395 . S
C1362 C1365 1.403 . S
C1363 C1360 1.403 . S
C1363 C1364 1.524 . S
C1363 C1367 1.400 . S
C1364 H1349 0.960 . S
C1364 H1350 0.960 . S
C1364 H1351 0.960 . S
C1364 C1363 1.524 . S
C1365 C1362 1.403 . S
C1365 C1366 1.392 . S
C1365 C1369 1.495 . S
C1366 C1365 1.392 . S
C1366 C1367 1.385 . S
C1366 C1368 1.478 . S
C1367 H1361 0.930 . S
C1367 C1363 1.400 . S
C1367 C1366 1.385 . S
C1368 C1366 1.478 . S
C1368 C1370 1.381 . S
C1368 C1374 1.383 . S
C1369 C1365 1.495 . S
C1369 H1375 0.959 . S
C1369 H1376 0.961 . S
C1369 H1377 0.960 . S
C1370 C1368 1.381 . S
C1370 C1371 1.394 . S
C1370 H1378 0.930 . S
C1371 C1370 1.394 . S
C1371 C1372 1.383 . S
C1371 H1379 0.929 . S
C1372 C1371 1.383 . S
C1372 C1373 1.377 . S
C1373 H1357 0.930 . S
C1373 C1372 1.377 . S
C1373 C1374 1.379 . S
C1374 H1358 0.931 . S
C1374 C1368 1.383 . S
C1374 C1373 1.379 . S
H1375 C1369 0.959 . S
H1376 C1369 0.961 . S
H1377 C1369 0.960 . S
H1378 C1370 0.930 . S
H1379 C1371 0.929 . S
H1380 C1388 0.929 . S
H1381 C1390 0.930 . S
H1382 C1392 0.930 . S
H1383 C1395 0.929 . S
H1384 C1398 0.930 . S
H1385 C1400 0.960 . S
H1386 C1400 0.960 . S
H1387 C1400 0.960 . S
C1388 H1380 0.929 . S
C1388 C1389 1.377 . S
C1388 C1390 1.384 . S
C1389 C1388 1.377 . S
C1389 C1395 1.390 . S
C1390 H1381 0.930 . S
C1390 C1388 1.384 . S
C1390 C1391 1.372 . S
C1391 C1390 1.372 . S
C1391 C1392 1.400 . S
C1391 C1396 1.490 . S
C1392 H1382 0.930 . S
C1392 C1391 1.400 . S
C1392 C1395 1.386 . S
H1393 C1409 0.930 . S
H1394 C1410 0.931 . S
C1395 H1383 0.929 . S
C1395 C1389 1.390 . S
C1395 C1392 1.386 . S
C1396 C1391 1.490 . S
C1396 C1398 1.395 . S
C1396 C1399 1.403 . S
H1397 C1403 0.930 . S
C1398 H1384 0.930 . S
C1398 C1396 1.395 . S
C1398 C1401 1.403 . S
C1399 C1396 1.403 . S
C1399 C1400 1.524 . S
C1399 C1403 1.400 . S
C1400 H1385 0.960 . S
C1400 H1386 0.960 . S
C1400 H1387 0.960 . S
C1400 C1399 1.524 . S
C1401 C1398 1.403 . S
C1401 C1402 1.392 . S
C1401 C1405 1.495 . S
C1402 C1401 1.392 . S
C1402 C1403 1.385 . S
C1402 C1404 1.478 . S
C1403 H1397 0.930 . S
C1403 C1399 1.400 . S
C1403 C1402 1.385 . S
C1404 C1402 1.478 . S
C1404 C1406 1.381 . S
C1404 C1410 1.383 . S
C1405 C1401 1.495 . S
C1405 H1411 0.959 . S
C1405 H1412 0.961 . S
C1405 H1413 0.960 . S
C1406 C1404 1.381 . S
C1406 C1407 1.394 . S
C1406 H1414 0.930 . S
C1407 C1406 1.394 . S
C1407 C1408 1.383 . S
C1407 H1415 0.929 . S
C1408 C1407 1.383 . S
C1408 C1409 1.377 . S
C1409 H1393 0.930 . S
C1409 C1408 1.377 . S
C1409 C1410 1.379 . S
C1410 H1394 0.931 . S
C1410 C1404 1.383 . S
C1410 C1409 1.379 . S
H1411 C1405 0.959 . S
H1412 C1405 0.961 . S
H1413 C1405 0.960 . S
H1414 C1406 0.930 . S
H1415 C1407 0.929 . S
H1416 C1424 0.929 . S
H1417 C1426 0.930 . S
H1418 C1428 0.930 . S
H1419 C1431 0.929 . S
H1420 C1434 0.930 . S
H1421 C1436 0.960 . S
H1422 C1436 0.960 . S
H1423 C1436 0.960 . S
C1424 H1416 0.929 . S
C1424 C1425 1.377 . S
C1424 C1426 1.384 . S
C1425 C1424 1.377 . S
C1425 C1431 1.390 . S
C1426 H1417 0.930 . S
C1426 C1424 1.384 . S
C1426 C1427 1.372 . S
C1427 C1426 1.372 . S
C1427 C1428 1.400 . S
C1427 C1432 1.490 . S
C1428 H1418 0.930 . S
C1428 C1427 1.400 . S
C1428 C1431 1.386 . S
H1429 C1445 0.930 . S
H1430 C1446 0.931 . S
C1431 H1419 0.929 . S
C1431 C1425 1.390 . S
C1431 C1428 1.386 . S
C1432 C1427 1.490 . S
C1432 C1434 1.395 . S
C1432 C1435 1.403 . S
H1433 C1439 0.930 . S
C1434 H1420 0.930 . S
C1434 C1432 1.395 . S
C1434 C1437 1.403 . S
C1435 C1432 1.403 . S
C1435 C1436 1.524 . S
C1435 C1439 1.400 . S
C1436 H1421 0.960 . S
C1436 H1422 0.960 . S
C1436 H1423 0.960 . S
C1436 C1435 1.524 . S
C1437 C1434 1.403 . S
C1437 C1438 1.392 . S
C1437 C1441 1.495 . S
C1438 C1437 1.392 . S
C1438 C1439 1.385 . S
C1438 C1440 1.478 . S
C1439 H1433 0.930 . S
C1439 C1435 1.400 . S
C1439 C1438 1.385 . S
C1440 C1438 1.478 . S
C1440 C1442 1.381 . S
C1440 C1446 1.383 . S
C1441 C1437 1.495 . S
C1441 H1447 0.959 . S
C1441 H1448 0.961 . S
C1441 H1449 0.960 . S
C1442 C1440 1.381 . S
C1442 C1443 1.394 . S
C1442 H1450 0.930 . S
C1443 C1442 1.394 . S
C1443 C1444 1.383 . S
C1443 H1451 0.929 . S
C1444 C1443 1.383 . S
C1444 C1445 1.377 . S
C1445 H1429 0.930 . S
C1445 C1444 1.377 . S
C1445 C1446 1.379 . S
C1446 H1430 0.931 . S
C1446 C1440 1.383 . S
C1446 C1445 1.379 . S
H1447 C1441 0.959 . S
H1448 C1441 0.961 . S
H1449 C1441 0.960 . S
H1450 C1442 0.930 . S
H1451 C1443 0.929 . S
H1452 C1460 0.929 . S
H1453 C1462 0.930 . S
H1454 C1464 0.930 . S
H1455 C1467 0.929 . S
H1456 C1470 0.930 . S
H1457 C1472 0.960 . S
H1458 C1472 0.960 . S
H1459 C1472 0.960 . S
C1460 H1452 0.929 . S
C1460 C1461 1.377 . S
C1460 C1462 1.384 . S
C1461 C1460 1.377 . S
C1461 C1467 1.390 . S
C1462 H1453 0.930 . S
C1462 C1460 1.384 . S
C1462 C1463 1.372 . S
C1463 C1462 1.372 . S
C1463 C1464 1.400 . S
C1463 C1468 1.490 . S
C1464 H1454 0.930 . S
C1464 C1463 1.400 . S
C1464 C1467 1.386 . S
H1465 C1481 0.930 . S
H1466 C1482 0.931 . S
C1467 H1455 0.929 . S
C1467 C1461 1.390 . S
C1467 C1464 1.386 . S
C1468 C1463 1.490 . S
C1468 C1470 1.395 . S
C1468 C1471 1.403 . S
H1469 C1475 0.930 . S
C1470 H1456 0.930 . S
C1470 C1468 1.395 . S
C1470 C1473 1.403 . S
C1471 C1468 1.403 . S
C1471 C1472 1.524 . S
C1471 C1475 1.400 . S
C1472 H1457 0.960 . S
C1472 H1458 0.960 . S
C1472 H1459 0.960 . S
C1472 C1471 1.524 . S
C1473 C1470 1.403 . S
C1473 C1474 1.392 . S
C1473 C1477 1.495 . S
C1474 C1473 1.392 . S
C1474 C1475 1.385 . S
C1474 C1476 1.478 . S
C1475 H1469 0.930 . S
C1475 C1471 1.400 . S
C1475 C1474 1.385 . S
C1476 C1474 1.478 . S
C1476 C1478 1.381 . S
C1476 C1482 1.383 . S
C1477 C1473 1.495 . S
C1477 H1483 0.959 . S
C1477 H1484 0.961 . S
C1477 H1485 0.960 . S
C1478 C1476 1.381 . S
C1478 C1479 1.394 . S
C1478 H1486 0.930 . S
C1479 C1478 1.394 . S
C1479 C1480 1.383 . S
C1479 H1487 0.929 . S
C1480 C1479 1.383 . S
C1480 C1481 1.377 . S
C1481 H1465 0.930 . S
C1481 C1480 1.377 . S
C1481 C1482 1.379 . S
C1482 H1466 0.931 . S
C1482 C1476 1.383 . S
C1482 C1481 1.379 . S
H1483 C1477 0.959 . S
H1484 C1477 0.961 . S
H1485 C1477 0.960 . S
H1486 C1478 0.930 . S
H1487 C1479 0.929 . S
H1488 C1496 0.929 . S
H1489 C1498 0.930 . S
H1490 C1500 0.930 . S
H1491 C1503 0.929 . S
H1492 C1506 0.930 . S
H1493 C1508 0.960 . S
H1494 C1508 0.960 . S
H1495 C1508 0.960 . S
C1496 H1488 0.929 . S
C1496 C1497 1.377 . S
C1496 C1498 1.384 . S
C1497 C1496 1.377 . S
C1497 C1503 1.390 . S
C1498 H1489 0.930 . S
C1498 C1496 1.384 . S
C1498 C1499 1.372 . S
C1499 C1498 1.372 . S
C1499 C1500 1.400 . S
C1499 C1504 1.490 . S
C1500 H1490 0.930 . S
C1500 C1499 1.400 . S
C1500 C1503 1.386 . S
H1501 C1517 0.930 . S
H1502 C1518 0.931 . S
C1503 H1491 0.929 . S
C1503 C1497 1.390 . S
C1503 C1500 1.386 . S
C1504 C1499 1.490 . S
C1504 C1506 1.395 . S
C1504 C1507 1.403 1_556 S
H1505 C1511 0.930 . S
C1506 H1492 0.930 . S
C1506 C1504 1.395 . S
C1506 C1509 1.403 . S
C1507 C1504 1.403 1_554 S
C1507 C1508 1.524 . S
C1507 C1511 1.400 . S
C1508 H1493 0.960 . S
C1508 H1494 0.960 . S
C1508 H1495 0.960 . S
C1508 C1507 1.524 . S
C1509 C1506 1.403 . S
C1509 C1510 1.392 1_556 S
C1509 C1513 1.495 . S
C1510 C1509 1.392 1_554 S
C1510 C1511 1.385 . S
C1510 C1512 1.478 . S
C1511 H1505 0.930 . S
C1511 C1507 1.400 . S
C1511 C1510 1.385 . S
C1512 C1510 1.478 . S
C1512 C1514 1.381 . S
C1512 C1518 1.383 . S
C1513 C1509 1.495 . S
C1513 H1519 0.959 . S
C1513 H1520 0.961 . S
C1513 H1521 0.960 . S
C1514 C1512 1.381 . S
C1514 C1515 1.394 . S
C1514 H1522 0.930 . S
C1515 C1514 1.394 . S
C1515 C1516 1.383 . S
C1515 H1523 0.929 . S
C1516 C1515 1.383 . S
C1516 C1517 1.377 . S
C1517 H1501 0.930 . S
C1517 C1516 1.377 . S
C1517 C1518 1.379 . S
C1518 H1502 0.931 . S
C1518 C1512 1.383 . S
C1518 C1517 1.379 . S
H1519 C1513 0.959 . S
H1520 C1513 0.961 . S
H1521 C1513 0.960 . S
H1522 C1514 0.930 . S
H1523 C1515 0.929 . S
H1524 C1532 0.929 . S
H1525 C1534 0.930 . S
H1526 C1536 0.930 . S
H1527 C1539 0.929 . S
H1528 C1542 0.930 . S
H1529 C1544 0.960 . S
H1530 C1544 0.960 . S
H1531 C1544 0.960 . S
C1532 H1524 0.929 . S
C1532 C1533 1.377 . S
C1532 C1534 1.384 . S
C1533 C1532 1.377 . S
C1533 C1539 1.390 . S
C1534 H1525 0.930 . S
C1534 C1532 1.384 . S
C1534 C1535 1.372 . S
C1535 C1534 1.372 . S
C1535 C1536 1.400 . S
C1535 C1540 1.490 . S
C1536 H1526 0.930 . S
C1536 C1535 1.400 . S
C1536 C1539 1.386 . S
H1537 C1553 0.930 . S
H1538 C1554 0.931 . S
C1539 H1527 0.929 . S
C1539 C1533 1.390 . S
C1539 C1536 1.386 . S
C1540 C1535 1.490 . S
C1540 C1542 1.395 1_455 S
C1540 C1543 1.403 . S
H1541 C1547 0.930 . S
C1542 H1528 0.930 . S
C1542 C1540 1.395 1_655 S
C1542 C1545 1.403 . S
C1543 C1540 1.403 . S
C1543 C1544 1.524 . S
C1543 C1547 1.375 1_455 S
C1544 H1529 0.960 . S
C1544 H1530 0.960 . S
C1544 H1531 0.960 . S
C1544 C1543 1.524 . S
C1545 C1542 1.403 . S
C1545 C1546 1.392 . S
C1545 C1549 1.495 . S
C1546 C1545 1.392 . S
C1546 C1547 1.411 . S
C1546 C1548 1.478 . S
C1547 H1541 0.930 . S
C1547 C1543 1.375 1_655 S
C1547 C1546 1.411 . S
C1548 C1546 1.478 . S
C1548 C1550 1.381 . S
C1548 C1554 1.383 . S
C1549 C1545 1.495 . S
C1549 H1555 0.959 . S
C1549 H1556 0.961 . S
C1549 H1557 0.960 . S
C1550 C1548 1.381 . S
C1550 C1551 1.394 . S
C1550 H1558 0.930 . S
C1551 C1550 1.394 . S
C1551 C1552 1.383 . S
C1551 H1559 0.929 . S
C1552 C1551 1.383 . S
C1552 C1553 1.377 . S
C1553 H1537 0.930 . S
C1553 C1552 1.377 . S
C1553 C1554 1.379 . S
C1554 H1538 0.931 . S
C1554 C1548 1.383 . S
C1554 C1553 1.379 . S
H1555 C1549 0.959 . S
H1556 C1549 0.961 . S
H1557 C1549 0.960 . S
H1558 C1550 0.930 . S
H1559 C1551 0.929 . S
H1560 C1568 0.929 . S
H1561 C1570 0.930 . S
H1562 C1572 0.930 . S
H1563 C1575 0.929 . S
H1564 C1578 0.930 . S
H1565 C1580 0.960 . S
H1566 C1580 0.960 . S
H1567 C1580 0.960 . S
C1568 H1560 0.929 . S
C1568 C1569 1.377 . S
C1568 C1570 1.384 . S
C1569 C1568 1.377 . S
C1569 C1575 1.390 . S
C1570 H1561 0.930 . S
C1570 C1568 1.384 . S
C1570 C1571 1.372 . S
C1571 C1570 1.372 . S
C1571 C1572 1.400 . S
C1571 C1576 1.490 . S
C1572 H1562 0.930 . S
C1572 C1571 1.400 . S
C1572 C1575 1.386 . S
H1573 C1589 0.930 . S
H1574 C1590 0.931 . S
C1575 H1563 0.929 . S
C1575 C1569 1.390 . S
C1575 C1572 1.386 . S
C1576 C1571 1.490 . S
C1576 C1578 1.395 1_556 S
C1576 C1579 1.403 1_455 S
H1577 C1583 0.930 . S
C1578 H1564 0.930 . S
C1578 C1576 1.395 1_554 S
C1578 C1581 1.403 . S
C1579 C1576 1.403 1_655 S
C1579 C1580 1.524 . S
C1579 C1583 1.400 . S
C1580 H1565 0.960 . S
C1580 H1566 0.960 . S
C1580 H1567 0.960 . S
C1580 C1579 1.524 . S
C1581 C1578 1.403 . S
C1581 C1582 1.392 1_455 S
C1581 C1585 1.495 . S
C1582 C1581 1.392 1_655 S
C1582 C1583 1.385 1_554 S
C1582 C1584 1.478 . S
C1583 H1577 0.930 . S
C1583 C1579 1.400 . S
C1583 C1582 1.385 1_556 S
C1584 C1582 1.478 . S
C1584 C1586 1.381 . S
C1584 C1590 1.383 . S
C1585 C1581 1.495 . S
C1585 H1591 0.959 . S
C1585 H1592 0.961 . S
C1585 H1593 0.960 . S
C1586 C1584 1.381 . S
C1586 C1587 1.394 . S
C1586 H1594 0.930 . S
C1587 C1586 1.394 . S
C1587 C1588 1.383 . S
C1587 H1595 0.929 . S
C1588 C1587 1.383 . S
C1588 C1589 1.377 . S
C1589 H1573 0.930 . S
C1589 C1588 1.377 . S
C1589 C1590 1.379 . S
C1590 H1574 0.931 . S
C1590 C1584 1.383 . S
C1590 C1589 1.379 . S
H1591 C1585 0.959 . S
H1592 C1585 0.961 . S
H1593 C1585 0.960 . S
H1594 C1586 0.930 . S
H1595 C1587 0.929 . S
H1596 C1604 0.929 . S
H1597 C1606 0.930 . S
H1598 C1608 0.930 . S
H1599 C1611 0.929 . S
H1600 C1614 0.930 . S
H1601 C1616 0.960 . S
H1602 C1616 0.960 . S
H1603 C1616 0.960 . S
C1604 H1596 0.929 . S
C1604 C1605 1.377 . S
C1604 C1606 1.384 . S
C1605 C1604 1.377 . S
C1605 C1611 1.390 . S
C1606 H1597 0.930 . S
C1606 C1604 1.384 . S
C1606 C1607 1.372 . S
C1607 C1606 1.372 . S
C1607 C1608 1.400 . S
C1607 C1612 1.490 . S
C1608 H1598 0.930 . S
C1608 C1607 1.400 . S
C1608 C1611 1.386 . S
H1609 C1625 0.930 . S
H1610 C1626 0.931 . S
C1611 H1599 0.929 . S
C1611 C1605 1.390 . S
C1611 C1608 1.386 . S
C1612 C1607 1.490 . S
C1612 C1614 1.395 . S
C1612 C1615 1.403 . S
H1613 C1619 0.930 . S
C1614 H1600 0.930 . S
C1614 C1612 1.395 . S
C1614 C1617 1.403 . S
C1615 C1612 1.403 . S
C1615 C1616 1.524 . S
C1615 C1619 1.400 . S
C1616 H1601 0.960 . S
C1616 H1602 0.960 . S
C1616 H1603 0.960 . S
C1616 C1615 1.524 . S
C1617 C1614 1.403 . S
C1617 C1618 1.392 . S
C1617 C1621 1.495 . S
C1618 C1617 1.392 . S
C1618 C1619 1.385 . S
C1618 C1620 1.478 . S
C1619 H1613 0.930 . S
C1619 C1615 1.400 . S
C1619 C1618 1.385 . S
C1620 C1618 1.478 . S
C1620 C1622 1.381 . S
C1620 C1626 1.383 . S
C1621 C1617 1.495 . S
C1621 H1627 0.959 . S
C1621 H1628 0.961 . S
C1621 H1629 0.960 . S
C1622 C1620 1.381 . S
C1622 C1623 1.394 . S
C1622 H1630 0.930 . S
C1623 C1622 1.394 . S
C1623 C1624 1.383 . S
C1623 H1631 0.929 . S
C1624 C1623 1.383 . S
C1624 C1625 1.377 . S
C1625 H1609 0.930 . S
C1625 C1624 1.377 . S
C1625 C1626 1.379 . S
C1626 H1610 0.931 . S
C1626 C1620 1.383 . S
C1626 C1625 1.379 . S
H1627 C1621 0.959 . S
H1628 C1621 0.961 . S
H1629 C1621 0.960 . S
H1630 C1622 0.930 . S
H1631 C1623 0.929 . S
H1632 C1640 0.929 . S
H1633 C1642 0.930 . S
H1634 C1644 0.930 . S
H1635 C1647 0.929 . S
H1636 C1650 0.930 . S
H1637 C1652 0.960 . S
H1638 C1652 0.960 . S
H1639 C1652 0.960 . S
C1640 H1632 0.929 . S
C1640 C1641 1.377 . S
C1640 C1642 1.384 . S
C1641 C1640 1.377 . S
C1641 C1647 1.390 . S
C1642 H1633 0.930 . S
C1642 C1640 1.384 . S
C1642 C1643 1.372 . S
C1643 C1642 1.372 . S
C1643 C1644 1.400 . S
C1643 C1648 1.490 . S
C1644 H1634 0.930 . S
C1644 C1643 1.400 . S
C1644 C1647 1.386 . S
H1645 C1661 0.930 . S
H1646 C1662 0.931 . S
C1647 H1635 0.929 . S
C1647 C1641 1.390 . S
C1647 C1644 1.386 . S
C1648 C1643 1.490 . S
C1648 C1650 1.395 . S
C1648 C1651 1.403 . S
H1649 C1655 0.930 . S
C1650 H1636 0.930 . S
C1650 C1648 1.395 . S
C1650 C1653 1.403 . S
C1651 C1648 1.403 . S
C1651 C1652 1.524 . S
C1651 C1655 1.400 . S
C1652 H1637 0.960 . S
C1652 H1638 0.960 . S
C1652 H1639 0.960 . S
C1652 C1651 1.524 . S
C1653 C1650 1.403 . S
C1653 C1654 1.392 . S
C1653 C1657 1.495 . S
C1654 C1653 1.392 . S
C1654 C1655 1.385 . S
C1654 C1656 1.478 . S
C1655 H1649 0.930 . S
C1655 C1651 1.400 . S
C1655 C1654 1.385 . S
C1656 C1654 1.478 . S
C1656 C1658 1.381 . S
C1656 C1662 1.383 . S
C1657 C1653 1.495 . S
C1657 H1663 0.959 . S
C1657 H1664 0.961 . S
C1657 H1665 0.960 . S
C1658 C1656 1.381 . S
C1658 C1659 1.394 . S
C1658 H1666 0.930 . S
C1659 C1658 1.394 . S
C1659 C1660 1.383 . S
C1659 H1667 0.929 . S
C1660 C1659 1.383 . S
C1660 C1661 1.377 . S
C1661 H1645 0.930 . S
C1661 C1660 1.377 . S
C1661 C1662 1.379 . S
C1662 H1646 0.931 . S
C1662 C1656 1.383 . S
C1662 C1661 1.379 . S
H1663 C1657 0.959 . S
H1664 C1657 0.961 . S
H1665 C1657 0.960 . S
H1666 C1658 0.930 . S
H1667 C1659 0.929 . S
H1668 C1676 0.929 . S
H1669 C1678 0.930 . S
H1670 C1680 0.930 . S
H1671 C1683 0.929 . S
H1672 C1686 0.941 . S
H1673 C1688 0.960 . S
H1674 C1688 0.960 . S
H1675 C1688 0.960 . S
C1676 H1668 0.929 . S
C1676 C1677 1.377 . S
C1676 C1678 1.384 . S
C1677 C1676 1.377 . S
C1677 C1683 1.390 . S
C1678 H1669 0.930 . S
C1678 C1676 1.384 . S
C1678 C1679 1.372 . S
C1679 C1678 1.372 . S
C1679 C1680 1.400 . S
C1679 C1684 1.490 . S
C1680 H1670 0.930 . S
C1680 C1679 1.400 . S
C1680 C1683 1.386 . S
H1681 C1697 0.930 . S
H1682 C1698 0.931 . S
C1683 H1671 0.929 . S
C1683 C1677 1.390 . S
C1683 C1680 1.386 . S
C1684 C1679 1.490 . S
C1684 C1686 1.419 . S
C1684 C1687 1.403 . S
H1685 C1691 0.930 . S
C1686 H1672 0.941 . S
C1686 C1684 1.419 . S
C1686 C1689 1.370 1_655 S
C1687 C1684 1.403 . S
C1687 C1688 1.524 . S
C1687 C1691 1.400 1_655 S
C1688 H1673 0.960 . S
C1688 H1674 0.960 . S
C1688 H1675 0.960 . S
C1688 C1687 1.524 . S
C1689 C1686 1.370 1_455 S
C1689 C1690 1.392 . S
C1689 C1693 1.495 . S
C1690 C1689 1.392 . S
C1690 C1691 1.385 . S
C1690 C1692 1.478 . S
C1691 H1685 0.930 . S
C1691 C1687 1.400 1_455 S
C1691 C1690 1.385 . S
C1692 C1690 1.478 . S
C1692 C1694 1.381 . S
C1692 C1698 1.383 . S
C1693 C1689 1.495 . S
C1693 H1699 0.959 . S
C1693 H1700 0.961 . S
C1693 H1701 0.960 . S
C1694 C1692 1.381 . S
C1694 C1695 1.394 . S
C1694 H1702 0.930 . S
C1695 C1694 1.394 . S
C1695 C1696 1.383 . S
C1695 H1703 0.929 . S
C1696 C1695 1.383 . S
C1696 C1697 1.377 . S
C1697 H1681 0.930 . S
C1697 C1696 1.377 . S
C1697 C1698 1.379 . S
C1698 H1682 0.931 . S
C1698 C1692 1.383 . S
C1698 C1697 1.379 . S
H1699 C1693 0.959 . S
H1700 C1693 0.961 . S
H1701 C1693 0.960 . S
H1702 C1694 0.930 . S
H1703 C1695 0.929 . S
H1704 C1712 0.929 . S
H1705 C1714 0.930 . S
H1706 C1716 0.930 . S
H1707 C1719 0.929 . S
H1708 C1722 0.930 . S
H1709 C1724 0.960 . S
H1710 C1724 0.960 . S
H1711 C1724 0.960 . S
C1712 H1704 0.929 . S
C1712 C1713 1.377 . S
C1712 C1714 1.384 . S
C1713 C1712 1.377 . S
C1713 C1719 1.390 . S
C1714 H1705 0.930 . S
C1714 C1712 1.384 . S
C1714 C1715 1.372 . S
C1715 C1714 1.372 . S
C1715 C1716 1.400 . S
C1715 C1720 1.490 . S
C1716 H1706 0.930 . S
C1716 C1715 1.400 . S
C1716 C1719 1.386 . S
H1717 C1733 0.930 . S
H1718 C1734 0.931 . S
C1719 H1707 0.929 . S
C1719 C1713 1.390 . S
C1719 C1716 1.386 . S
C1720 C1715 1.490 . S
C1720 C1722 1.395 . S
C1720 C1723 1.403 . S
H1721 C1727 0.930 . S
C1722 H1708 0.930 . S
C1722 C1720 1.395 . S
C1722 C1725 1.403 . S
C1723 C1720 1.403 . S
C1723 C1724 1.524 . S
C1723 C1727 1.400 . S
C1724 H1709 0.960 . S
C1724 H1710 0.960 . S
C1724 H1711 0.960 . S
C1724 C1723 1.524 . S
C1725 C1722 1.403 . S
C1725 C1726 1.392 . S
C1725 C1729 1.495 . S
C1726 C1725 1.392 . S
C1726 C1727 1.385 . S
C1726 C1728 1.478 . S
C1727 H1721 0.930 . S
C1727 C1723 1.400 . S
C1727 C1726 1.385 . S
C1728 C1726 1.478 . S
C1728 C1730 1.381 . S
C1728 C1734 1.383 . S
C1729 C1725 1.495 . S
C1729 H1735 0.959 . S
C1729 H1736 0.961 . S
C1729 H1737 0.960 . S
C1730 C1728 1.381 . S
C1730 C1731 1.394 . S
C1730 H1738 0.930 . S
C1731 C1730 1.394 . S
C1731 C1732 1.383 . S
C1731 H1739 0.929 . S
C1732 C1731 1.383 . S
C1732 C1733 1.377 . S
C1733 H1717 0.930 . S
C1733 C1732 1.377 . S
C1733 C1734 1.379 . S
C1734 H1718 0.931 . S
C1734 C1728 1.383 . S
C1734 C1733 1.379 . S
H1735 C1729 0.959 . S
H1736 C1729 0.961 . S
H1737 C1729 0.960 . S
H1738 C1730 0.930 . S
H1739 C1731 0.929 . S
H1740 C1748 0.929 . S
H1741 C1750 0.930 . S
H1742 C1752 0.930 . S
H1743 C1755 0.929 . S
H1744 C1758 0.930 . S
H1745 C1760 0.960 . S
H1746 C1760 0.960 . S
H1747 C1760 0.960 . S
C1748 H1740 0.929 . S
C1748 C1749 1.377 . S
C1748 C1750 1.384 . S
C1749 C1748 1.377 . S
C1749 C1755 1.390 . S
C1750 H1741 0.930 . S
C1750 C1748 1.384 . S
C1750 C1751 1.372 . S
C1751 C1750 1.372 . S
C1751 C1752 1.400 . S
C1751 C1756 1.490 . S
C1752 H1742 0.930 . S
C1752 C1751 1.400 . S
C1752 C1755 1.386 . S
H1753 C1769 0.930 . S
H1754 C1770 0.931 . S
C1755 H1743 0.929 . S
C1755 C1749 1.390 . S
C1755 C1752 1.386 . S
C1756 C1751 1.490 . S
C1756 C1758 1.395 . S
C1756 C1759 1.403 . S
H1757 C1763 0.930 . S
C1758 H1744 0.930 . S
C1758 C1756 1.395 . S
C1758 C1761 1.403 . S
C1759 C1756 1.403 . S
C1759 C1760 1.524 . S
C1759 C1763 1.400 . S
C1760 H1745 0.960 . S
C1760 H1746 0.960 . S
C1760 H1747 0.960 . S
C1760 C1759 1.524 . S
C1761 C1758 1.403 . S
C1761 C1762 1.392 . S
C1761 C1765 1.495 . S
C1762 C1761 1.392 . S
C1762 C1763 1.385 . S
C1762 C1764 1.478 . S
C1763 H1757 0.930 . S
C1763 C1759 1.400 . S
C1763 C1762 1.385 . S
C1764 C1762 1.478 . S
C1764 C1766 1.381 . S
C1764 C1770 1.383 . S
C1765 C1761 1.495 . S
C1765 H1771 0.959 . S
C1765 H1772 0.961 . S
C1765 H1773 0.960 . S
C1766 C1764 1.381 . S
C1766 C1767 1.394 . S
C1766 H1774 0.930 . S
C1767 C1766 1.394 . S
C1767 C1768 1.383 . S
C1767 H1775 0.929 . S
C1768 C1767 1.383 . S
C1768 C1769 1.377 . S
C1769 H1753 0.930 . S
C1769 C1768 1.377 . S
C1769 C1770 1.379 . S
C1770 H1754 0.931 . S
C1770 C1764 1.383 . S
C1770 C1769 1.379 . S
H1771 C1765 0.959 . S
H1772 C1765 0.961 . S
H1773 C1765 0.960 . S
H1774 C1766 0.930 . S
H1775 C1767 0.929 . S
H1776 C1784 0.929 . S
H1777 C1786 0.930 . S
H1778 C1788 0.930 . S
H1779 C1791 0.929 . S
H1780 C1794 0.930 . S
H1781 C1796 0.960 . S
H1782 C1796 0.960 . S
H1783 C1796 0.960 . S
C1784 H1776 0.929 . S
C1784 C1785 1.377 . S
C1784 C1786 1.384 . S
C1785 C1784 1.377 . S
C1785 C1791 1.390 . S
C1786 H1777 0.930 . S
C1786 C1784 1.384 . S
C1786 C1787 1.372 . S
C1787 C1786 1.372 . S
C1787 C1788 1.400 . S
C1787 C1792 1.490 . S
C1788 H1778 0.930 . S
C1788 C1787 1.400 . S
C1788 C1791 1.386 . S
H1789 C1805 0.930 . S
H1790 C1806 0.931 . S
C1791 H1779 0.929 . S
C1791 C1785 1.390 . S
C1791 C1788 1.386 . S
C1792 C1787 1.490 . S
C1792 C1794 1.395 . S
C1792 C1795 1.403 . S
H1793 C1799 0.930 . S
C1794 H1780 0.930 . S
C1794 C1792 1.395 . S
C1794 C1797 1.403 . S
C1795 C1792 1.403 . S
C1795 C1796 1.524 . S
C1795 C1799 1.400 . S
C1796 H1781 0.960 . S
C1796 H1782 0.960 . S
C1796 H1783 0.960 . S
C1796 C1795 1.524 . S
C1797 C1794 1.403 . S
C1797 C1798 1.392 . S
C1797 C1801 1.495 . S
C1798 C1797 1.392 . S
C1798 C1799 1.385 . S
C1798 C1800 1.478 . S
C1799 H1793 0.930 . S
C1799 C1795 1.400 . S
C1799 C1798 1.385 . S
C1800 C1798 1.478 . S
C1800 C1802 1.381 . S
C1800 C1806 1.383 . S
C1801 C1797 1.495 . S
C1801 H1807 0.959 . S
C1801 H1808 0.961 . S
C1801 H1809 0.960 . S
C1802 C1800 1.381 . S
C1802 C1803 1.394 . S
C1802 H1810 0.930 . S
C1803 C1802 1.394 . S
C1803 C1804 1.383 . S
C1803 H1811 0.929 . S
C1804 C1803 1.383 . S
C1804 C1805 1.377 . S
C1805 H1789 0.930 . S
C1805 C1804 1.377 . S
C1805 C1806 1.379 . S
C1806 H1790 0.931 . S
C1806 C1800 1.383 . S
C1806 C1805 1.379 . S
H1807 C1801 0.959 . S
H1808 C1801 0.961 . S
H1809 C1801 0.960 . S
H1810 C1802 0.930 . S
H1811 C1803 0.929 . S
H1812 C1820 0.929 . S
H1813 C1822 0.930 . S
H1814 C1824 0.930 . S
H1815 C1827 0.929 . S
H1816 C1830 0.930 . S
H1817 C1832 0.960 . S
H1818 C1832 0.960 . S
H1819 C1832 0.960 . S
C1820 H1812 0.929 . S
C1820 C1821 1.377 . S
C1820 C1822 1.384 . S
C1821 C1820 1.377 . S
C1821 C1827 1.390 . S
C1822 H1813 0.930 . S
C1822 C1820 1.384 . S
C1822 C1823 1.372 . S
C1823 C1822 1.372 . S
C1823 C1824 1.400 . S
C1823 C1828 1.490 . S
C1824 H1814 0.930 . S
C1824 C1823 1.400 . S
C1824 C1827 1.386 . S
H1825 C1841 0.930 . S
H1826 C1842 0.931 . S
C1827 H1815 0.929 . S
C1827 C1821 1.390 . S
C1827 C1824 1.386 . S
C1828 C1823 1.490 . S
C1828 C1830 1.395 . S
C1828 C1831 1.403 . S
H1829 C1835 0.930 . S
C1830 H1816 0.930 . S
C1830 C1828 1.395 . S
C1830 C1833 1.403 . S
C1831 C1828 1.403 . S
C1831 C1832 1.524 . S
C1831 C1835 1.400 . S
C1832 H1817 0.960 . S
C1832 H1818 0.960 . S
C1832 H1819 0.960 . S
C1832 C1831 1.524 . S
C1833 C1830 1.403 . S
C1833 C1834 1.392 . S
C1833 C1837 1.495 . S
C1834 C1833 1.392 . S
C1834 C1835 1.385 . S
C1834 C1836 1.478 . S
C1835 H1829 0.930 . S
C1835 C1831 1.400 . S
C1835 C1834 1.385 . S
C1836 C1834 1.478 . S
C1836 C1838 1.381 . S
C1836 C1842 1.383 . S
C1837 C1833 1.495 . S
C1837 H1843 0.959 . S
C1837 H1844 0.961 . S
C1837 H1845 0.960 . S
C1838 C1836 1.381 . S
C1838 C1839 1.394 . S
C1838 H1846 0.930 . S
C1839 C1838 1.394 . S
C1839 C1840 1.383 . S
C1839 H1847 0.929 . S
C1840 C1839 1.383 . S
C1840 C1841 1.377 . S
C1841 H1825 0.930 . S
C1841 C1840 1.377 . S
C1841 C1842 1.379 . S
C1842 H1826 0.931 . S
C1842 C1836 1.383 . S
C1842 C1841 1.379 . S
H1843 C1837 0.959 . S
H1844 C1837 0.961 . S
H1845 C1837 0.960 . S
H1846 C1838 0.930 . S
H1847 C1839 0.929 . S
H1848 C1856 0.929 . S
H1849 C1858 0.930 . S
H1850 C1860 0.930 . S
H1851 C1863 0.929 . S
H1852 C1866 0.930 . S
H1853 C1868 0.960 . S
H1854 C1868 0.960 . S
H1855 C1868 0.960 . S
C1856 H1848 0.929 . S
C1856 C1857 1.377 . S
C1856 C1858 1.384 . S
C1857 C1856 1.377 . S
C1857 C1863 1.390 . S
C1858 H1849 0.930 . S
C1858 C1856 1.384 . S
C1858 C1859 1.372 . S
C1859 C1858 1.372 . S
C1859 C1860 1.400 . S
C1859 C1864 1.490 . S
C1860 H1850 0.930 . S
C1860 C1859 1.400 . S
C1860 C1863 1.386 . S
H1861 C1877 0.930 . S
H1862 C1878 0.931 . S
C1863 H1851 0.929 . S
C1863 C1857 1.390 . S
C1863 C1860 1.386 . S
C1864 C1859 1.490 . S
C1864 C1866 1.395 . S
C1864 C1867 1.403 . S
H1865 C1871 0.930 . S
C1866 H1852 0.930 . S
C1866 C1864 1.395 . S
C1866 C1869 1.403 . S
C1867 C1864 1.403 . S
C1867 C1868 1.524 . S
C1867 C1871 1.400 . S
C1868 H1853 0.960 . S
C1868 H1854 0.960 . S
C1868 H1855 0.960 . S
C1868 C1867 1.524 . S
C1869 C1866 1.403 . S
C1869 C1870 1.392 . S
C1869 C1873 1.495 . S
C1870 C1869 1.392 . S
C1870 C1871 1.385 . S
C1870 C1872 1.478 . S
C1871 H1865 0.930 . S
C1871 C1867 1.400 . S
C1871 C1870 1.385 . S
C1872 C1870 1.478 . S
C1872 C1874 1.381 . S
C1872 C1878 1.383 . S
C1873 C1869 1.495 . S
C1873 H1879 0.959 . S
C1873 H1880 0.961 . S
C1873 H1881 0.960 . S
C1874 C1872 1.381 . S
C1874 C1875 1.394 . S
C1874 H1882 0.930 . S
C1875 C1874 1.394 . S
C1875 C1876 1.383 . S
C1875 H1883 0.929 . S
C1876 C1875 1.383 . S
C1876 C1877 1.377 . S
C1877 H1861 0.930 . S
C1877 C1876 1.377 . S
C1877 C1878 1.379 . S
C1878 H1862 0.931 . S
C1878 C1872 1.383 . S
C1878 C1877 1.379 . S
H1879 C1873 0.959 . S
H1880 C1873 0.961 . S
H1881 C1873 0.960 . S
H1882 C1874 0.930 . S
H1883 C1875 0.929 . S
H1884 C1892 0.929 . S
H1885 C1894 0.930 . S
H1886 C1896 0.930 . S
H1887 C1899 0.929 . S
H1888 C1902 0.930 . S
H1889 C1904 0.960 . S
H1890 C1904 0.960 . S
H1891 C1904 0.960 . S
C1892 H1884 0.929 . S
C1892 C1893 1.377 . S
C1892 C1894 1.384 . S
C1893 C1892 1.377 . S
C1893 C1899 1.390 . S
C1894 H1885 0.930 . S
C1894 C1892 1.384 . S
C1894 C1895 1.372 . S
C1895 C1894 1.372 . S
C1895 C1896 1.400 . S
C1895 C1900 1.490 . S
C1896 H1886 0.930 . S
C1896 C1895 1.400 . S
C1896 C1899 1.386 . S
H1897 C1913 0.930 . S
H1898 C1914 0.931 . S
C1899 H1887 0.929 . S
C1899 C1893 1.390 . S
C1899 C1896 1.386 . S
C1900 C1895 1.490 . S
C1900 C1902 1.395 1_655 S
C1900 C1903 1.403 . S
H1901 C1907 0.930 . S
C1902 H1888 0.930 . S
C1902 C1900 1.395 1_455 S
C1902 C1905 1.403 . S
C1903 C1900 1.403 . S
C1903 C1904 1.524 . S
C1903 C1907 1.400 1_655 S
C1904 H1889 0.960 . S
C1904 H1890 0.960 . S
C1904 H1891 0.960 . S
C1904 C1903 1.524 . S
C1905 C1902 1.403 . S
C1905 C1906 1.392 . S
C1905 C1909 1.495 . S
C1906 C1905 1.392 . S
C1906 C1907 1.385 . S
C1906 C1908 1.478 . S
C1907 H1901 0.930 . S
C1907 C1903 1.400 1_455 S
C1907 C1906 1.385 . S
C1908 C1906 1.478 . S
C1908 C1910 1.381 . S
C1908 C1914 1.383 . S
C1909 C1905 1.495 . S
C1909 H1915 0.959 . S
C1909 H1916 0.961 . S
C1909 H1917 0.960 . S
C1910 C1908 1.381 . S
C1910 C1911 1.394 . S
C1910 H1918 0.930 . S
C1911 C1910 1.394 . S
C1911 C1912 1.383 . S
C1911 H1919 0.929 . S
C1912 C1911 1.383 . S
C1912 C1913 1.377 . S
C1913 H1897 0.930 . S
C1913 C1912 1.377 . S
C1913 C1914 1.379 . S
C1914 H1898 0.931 . S
C1914 C1908 1.383 . S
C1914 C1913 1.379 . S
H1915 C1909 0.959 . S
H1916 C1909 0.961 . S
H1917 C1909 0.960 . S
H1918 C1910 0.930 . S
H1919 C1911 0.929 . S
H1920 C1928 0.929 . S
H1921 C1930 0.930 . S
H1922 C1932 0.930 . S
H1923 C1935 0.929 . S
H1924 C1938 0.930 . S
H1925 C1940 0.960 . S
H1926 C1940 0.960 . S
H1927 C1940 0.960 . S
C1928 H1920 0.929 . S
C1928 C1929 1.377 . S
C1928 C1930 1.384 . S
C1929 C1928 1.377 . S
C1929 C1935 1.390 . S
C1930 H1921 0.930 . S
C1930 C1928 1.384 . S
C1930 C1931 1.372 . S
C1931 C1930 1.372 . S
C1931 C1932 1.400 . S
C1931 C1936 1.490 . S
C1932 H1922 0.930 . S
C1932 C1931 1.400 . S
C1932 C1935 1.386 . S
H1933 C1949 0.930 . S
H1934 C1950 0.931 . S
C1935 H1923 0.929 . S
C1935 C1929 1.390 . S
C1935 C1932 1.386 . S
C1936 C1931 1.490 . S
C1936 C1938 1.395 . S
C1936 C1939 1.403 . S
H1937 C1943 0.930 . S
C1938 H1924 0.930 . S
C1938 C1936 1.395 . S
C1938 C1941 1.403 . S
C1939 C1936 1.403 . S
C1939 C1940 1.524 . S
C1939 C1943 1.400 . S
C1940 H1925 0.960 . S
C1940 H1926 0.960 . S
C1940 H1927 0.960 . S
C1940 C1939 1.524 . S
C1941 C1938 1.403 . S
C1941 C1942 1.392 . S
C1941 C1945 1.495 . S
C1942 C1941 1.392 . S
C1942 C1943 1.385 . S
C1942 C1944 1.478 . S
C1943 H1937 0.930 . S
C1943 C1939 1.400 . S
C1943 C1942 1.385 . S
C1944 C1942 1.478 . S
C1944 C1946 1.381 . S
C1944 C1950 1.383 . S
C1945 C1941 1.495 . S
C1945 H1951 0.959 . S
C1945 H1952 0.961 . S
C1945 H1953 0.960 . S
C1946 C1944 1.381 . S
C1946 C1947 1.394 . S
C1946 H1954 0.930 . S
C1947 C1946 1.394 . S
C1947 C1948 1.383 . S
C1947 H1955 0.929 . S
C1948 C1947 1.383 . S
C1948 C1949 1.377 . S
C1949 H1933 0.930 . S
C1949 C1948 1.377 . S
C1949 C1950 1.379 . S
C1950 H1934 0.931 . S
C1950 C1944 1.383 . S
C1950 C1949 1.379 . S
H1951 C1945 0.959 . S
H1952 C1945 0.961 . S
H1953 C1945 0.960 . S
H1954 C1946 0.930 . S
H1955 C1947 0.929 . S
H1956 C1964 0.929 . S
H1957 C1966 0.930 . S
H1958 C1968 0.930 . S
H1959 C1971 0.929 . S
H1960 C1974 0.930 . S
H1961 C1976 0.960 . S
H1962 C1976 0.960 . S
H1963 C1976 0.960 . S
C1964 H1956 0.929 . S
C1964 C1965 1.377 . S
C1964 C1966 1.384 . S
C1965 C1964 1.377 . S
C1965 C1971 1.390 . S
C1966 H1957 0.930 . S
C1966 C1964 1.384 . S
C1966 C1967 1.372 . S
C1967 C1966 1.372 . S
C1967 C1968 1.400 . S
C1967 C1972 1.490 . S
C1968 H1958 0.930 . S
C1968 C1967 1.400 . S
C1968 C1971 1.386 . S
H1969 C1985 0.930 . S
H1970 C1986 0.931 . S
C1971 H1959 0.929 . S
C1971 C1965 1.390 . S
C1971 C1968 1.386 . S
C1972 C1967 1.490 . S
C1972 C1974 1.395 . S
C1972 C1975 1.403 1_455 S
H1973 C1979 0.930 . S
C1974 H1960 0.930 . S
C1974 C1972 1.395 . S
C1974 C1977 1.403 . S
C1975 C1972 1.403 1_655 S
C1975 C1976 1.524 . S
C1975 C1979 1.400 . S
C1976 H1961 0.960 . S
C1976 H1962 0.960 . S
C1976 H1963 0.960 . S
C1976 C1975 1.524 . S
C1977 C1974 1.403 . S
C1977 C1978 1.392 1_455 S
C1977 C1981 1.495 . S
C1978 C1977 1.392 1_655 S
C1978 C1979 1.385 . S
C1978 C1980 1.478 . S
C1979 H1973 0.930 . S
C1979 C1975 1.400 . S
C1979 C1978 1.385 . S
C1980 C1978 1.478 . S
C1980 C1982 1.381 . S
C1980 C1986 1.383 . S
C1981 C1977 1.495 . S
C1981 H1987 0.959 . S
C1981 H1988 0.961 . S
C1981 H1989 0.960 . S
C1982 C1980 1.381 . S
C1982 C1983 1.394 . S
C1982 H1990 0.930 . S
C1983 C1982 1.394 . S
C1983 C1984 1.383 . S
C1983 H1991 0.929 . S
C1984 C1983 1.383 . S
C1984 C1985 1.377 . S
C1985 H1969 0.930 . S
C1985 C1984 1.377 . S
C1985 C1986 1.379 . S
C1986 H1970 0.931 . S
C1986 C1980 1.383 . S
C1986 C1985 1.379 . S
H1987 C1981 0.959 . S
H1988 C1981 0.961 . S
H1989 C1981 0.960 . S
H1990 C1982 0.930 . S
H1991 C1983 0.929 . S
H1992 C2000 0.929 . S
H1993 C2002 0.930 . S
H1994 C2004 0.930 . S
H1995 C2007 0.929 . S
H1996 C2010 0.930 . S
H1997 C2012 0.960 . S
H1998 C2012 0.960 . S
H1999 C2012 0.960 . S
C2000 H1992 0.929 . S
C2000 C2001 1.377 . S
C2000 C2002 1.384 . S
C2001 C2000 1.377 . S
C2001 C2007 1.390 . S
C2002 H1993 0.930 . S
C2002 C2000 1.384 . S
C2002 C2003 1.372 . S
C2003 C2002 1.372 . S
C2003 C2004 1.400 . S
C2003 C2008 1.490 . S
C2004 H1994 0.930 . S
C2004 C2003 1.400 . S
C2004 C2007 1.386 . S
H2005 C2021 0.930 . S
H2006 C2022 0.931 . S
C2007 H1995 0.929 . S
C2007 C2001 1.390 . S
C2007 C2004 1.386 . S
C2008 C2003 1.490 . S
C2008 C2010 1.395 . S
C2008 C2011 1.403 . S
H2009 C2015 0.930 . S
C2010 H1996 0.930 . S
C2010 C2008 1.395 . S
C2010 C2013 1.403 . S
C2011 C2008 1.403 . S
C2011 C2012 1.524 . S
C2011 C2015 1.400 . S
C2012 H1997 0.960 . S
C2012 H1998 0.960 . S
C2012 H1999 0.960 . S
C2012 C2011 1.524 . S
C2013 C2010 1.403 . S
C2013 C2014 1.392 . S
C2013 C2017 1.495 . S
C2014 C2013 1.392 . S
C2014 C2015 1.385 . S
C2014 C2016 1.478 . S
C2015 H2009 0.930 . S
C2015 C2011 1.400 . S
C2015 C2014 1.385 . S
C2016 C2014 1.478 . S
C2016 C2018 1.381 . S
C2016 C2022 1.383 . S
C2017 C2013 1.495 . S
C2017 H2023 0.959 . S
C2017 H2024 0.961 . S
C2017 H2025 0.960 . S
C2018 C2016 1.381 . S
C2018 C2019 1.394 . S
C2018 H2026 0.930 . S
C2019 C2018 1.394 . S
C2019 C2020 1.383 . S
C2019 H2027 0.929 . S
C2020 C2019 1.383 . S
C2020 C2021 1.377 . S
C2021 H2005 0.930 . S
C2021 C2020 1.377 . S
C2021 C2022 1.379 . S
C2022 H2006 0.931 . S
C2022 C2016 1.383 . S
C2022 C2021 1.379 . S
H2023 C2017 0.959 . S
H2024 C2017 0.961 . S
H2025 C2017 0.960 . S
H2026 C2018 0.930 . S
H2027 C2019 0.929 . S
H2028 C2036 0.929 . S
H2029 C2038 0.930 . S
H2030 C2040 0.930 . S
H2031 C2043 0.929 . S
H2032 C2046 0.930 . S
H2033 C2048 0.960 . S
H2034 C2048 0.960 . S
H2035 C2048 0.960 . S
C2036 H2028 0.929 . S
C2036 C2037 1.377 . S
C2036 C2038 1.384 . S
C2037 C2036 1.377 . S
C2037 C2043 1.390 . S
C2038 H2029 0.930 . S
C2038 C2036 1.384 . S
C2038 C2039 1.372 . S
C2039 C2038 1.372 . S
C2039 C2040 1.400 . S
C2039 C2044 1.490 . S
C2040 H2030 0.930 . S
C2040 C2039 1.400 . S
C2040 C2043 1.386 . S
H2041 C2057 0.930 . S
H2042 C2058 0.931 . S
C2043 H2031 0.929 . S
C2043 C2037 1.390 . S
C2043 C2040 1.386 . S
C2044 C2039 1.490 . S
C2044 C2046 1.395 . S
C2044 C2047 1.403 . S
H2045 C2051 0.930 . S
C2046 H2032 0.930 . S
C2046 C2044 1.395 . S
C2046 C2049 1.403 . S
C2047 C2044 1.403 . S
C2047 C2048 1.524 . S
C2047 C2051 1.400 . S
C2048 H2033 0.960 . S
C2048 H2034 0.960 . S
C2048 H2035 0.960 . S
C2048 C2047 1.524 . S
C2049 C2046 1.403 . S
C2049 C2050 1.392 . S
C2049 C2053 1.495 . S
C2050 C2049 1.392 . S
C2050 C2051 1.385 . S
C2050 C2052 1.478 . S
C2051 H2045 0.930 . S
C2051 C2047 1.400 . S
C2051 C2050 1.385 . S
C2052 C2050 1.478 . S
C2052 C2054 1.381 . S
C2052 C2058 1.383 . S
C2053 C2049 1.495 . S
C2053 H2059 0.959 . S
C2053 H2060 0.961 . S
C2053 H2061 0.960 . S
C2054 C2052 1.381 . S
C2054 C2055 1.394 . S
C2054 H2062 0.930 . S
C2055 C2054 1.394 . S
C2055 C2056 1.383 . S
C2055 H2063 0.929 . S
C2056 C2055 1.383 . S
C2056 C2057 1.377 . S
C2057 H2041 0.930 . S
C2057 C2056 1.377 . S
C2057 C2058 1.379 . S
C2058 H2042 0.931 . S
C2058 C2052 1.383 . S
C2058 C2057 1.379 . S
H2059 C2053 0.959 . S
H2060 C2053 0.961 . S
H2061 C2053 0.960 . S
H2062 C2054 0.930 . S
H2063 C2055 0.929 . S
H2064 C2072 0.929 . S
H2065 C2074 0.930 . S
H2066 C2076 0.930 . S
H2067 C2079 0.929 . S
H2068 C2082 0.930 . S
H2069 C2084 0.960 . S
H2070 C2084 0.960 . S
H2071 C2084 0.960 . S
C2072 H2064 0.929 . S
C2072 C2073 1.377 . S
C2072 C2074 1.384 . S
C2073 C2072 1.377 . S
C2073 C2079 1.390 . S
C2074 H2065 0.930 . S
C2074 C2072 1.384 . S
C2074 C2075 1.372 . S
C2075 C2074 1.372 . S
C2075 C2076 1.400 . S
C2075 C2080 1.490 . S
C2076 H2066 0.930 . S
C2076 C2075 1.400 . S
C2076 C2079 1.386 . S
H2077 C2093 0.930 . S
H2078 C2094 0.931 . S
C2079 H2067 0.929 . S
C2079 C2073 1.390 . S
C2079 C2076 1.386 . S
C2080 C2075 1.490 . S
C2080 C2082 1.395 . S
C2080 C2083 1.403 . S
H2081 C2087 0.930 . S
C2082 H2068 0.930 . S
C2082 C2080 1.395 . S
C2082 C2085 1.403 . S
C2083 C2080 1.403 . S
C2083 C2084 1.524 . S
C2083 C2087 1.400 . S
C2084 H2069 0.960 . S
C2084 H2070 0.960 . S
C2084 H2071 0.960 . S
C2084 C2083 1.524 . S
C2085 C2082 1.403 . S
C2085 C2086 1.392 . S
C2085 C2089 1.495 . S
C2086 C2085 1.392 . S
C2086 C2087 1.385 . S
C2086 C2088 1.478 . S
C2087 H2081 0.930 . S
C2087 C2083 1.400 . S
C2087 C2086 1.385 . S
C2088 C2086 1.478 . S
C2088 C2090 1.381 . S
C2088 C2094 1.383 . S
C2089 C2085 1.495 . S
C2089 H2095 0.959 . S
C2089 H2096 0.961 . S
C2089 H2097 0.960 . S
C2090 C2088 1.381 . S
C2090 C2091 1.394 . S
C2090 H2098 0.930 . S
C2091 C2090 1.394 . S
C2091 C2092 1.383 . S
C2091 H2099 0.929 . S
C2092 C2091 1.383 . S
C2092 C2093 1.377 . S
C2093 H2077 0.930 . S
C2093 C2092 1.377 . S
C2093 C2094 1.379 . S
C2094 H2078 0.931 . S
C2094 C2088 1.383 . S
C2094 C2093 1.379 . S
H2095 C2089 0.959 . S
H2096 C2089 0.961 . S
H2097 C2089 0.960 . S
H2098 C2090 0.930 . S
H2099 C2091 0.929 . S
H2100 C2108 0.929 . S
H2101 C2110 0.930 . S
H2102 C2112 0.930 . S
H2103 C2115 0.929 . S
H2104 C2118 0.930 . S
H2105 C2120 0.960 . S
H2106 C2120 0.960 . S
H2107 C2120 0.960 . S
C2108 H2100 0.929 . S
C2108 C2109 1.377 . S
C2108 C2110 1.384 . S
C2109 C2108 1.377 . S
C2109 C2115 1.390 . S
C2110 H2101 0.930 . S
C2110 C2108 1.384 . S
C2110 C2111 1.372 . S
C2111 C2110 1.372 . S
C2111 C2112 1.400 . S
C2111 C2116 1.490 . S
C2112 H2102 0.930 . S
C2112 C2111 1.400 . S
C2112 C2115 1.386 . S
H2113 C2129 0.930 . S
H2114 C2130 0.931 . S
C2115 H2103 0.929 . S
C2115 C2109 1.390 . S
C2115 C2112 1.386 . S
C2116 C2111 1.490 . S
C2116 C2118 1.395 . S
C2116 C2119 1.403 . S
H2117 C2123 0.930 . S
C2118 H2104 0.930 . S
C2118 C2116 1.395 . S
C2118 C2121 1.403 . S
C2119 C2116 1.403 . S
C2119 C2120 1.524 . S
C2119 C2123 1.400 . S
C2120 H2105 0.960 . S
C2120 H2106 0.960 . S
C2120 H2107 0.960 . S
C2120 C2119 1.524 . S
C2121 C2118 1.403 . S
C2121 C2122 1.392 . S
C2121 C2125 1.495 . S
C2122 C2121 1.392 . S
C2122 C2123 1.385 . S
C2122 C2124 1.478 . S
C2123 H2117 0.930 . S
C2123 C2119 1.400 . S
C2123 C2122 1.385 . S
C2124 C2122 1.478 . S
C2124 C2126 1.381 . S
C2124 C2130 1.383 . S
C2125 C2121 1.495 . S
C2125 H2131 0.959 . S
C2125 H2132 0.961 . S
C2125 H2133 0.960 . S
C2126 C2124 1.381 . S
C2126 C2127 1.394 . S
C2126 H2134 0.930 . S
C2127 C2126 1.394 . S
C2127 C2128 1.383 . S
C2127 H2135 0.929 . S
C2128 C2127 1.383 . S
C2128 C2129 1.377 . S
C2129 H2113 0.930 . S
C2129 C2128 1.377 . S
C2129 C2130 1.379 . S
C2130 H2114 0.931 . S
C2130 C2124 1.383 . S
C2130 C2129 1.379 . S
H2131 C2125 0.959 . S
H2132 C2125 0.961 . S
H2133 C2125 0.960 . S
H2134 C2126 0.930 . S
H2135 C2127 0.929 . S
H2136 C2144 0.929 . S
H2137 C2146 0.930 . S
H2138 C2148 0.930 . S
H2139 C2151 0.929 . S
H2140 C2154 0.930 . S
H2141 C2156 0.960 . S
H2142 C2156 0.960 . S
H2143 C2156 0.960 . S
C2144 H2136 0.929 . S
C2144 C2145 1.377 . S
C2144 C2146 1.384 . S
C2145 C2144 1.377 . S
C2145 C2151 1.390 . S
C2146 H2137 0.930 . S
C2146 C2144 1.384 . S
C2146 C2147 1.372 . S
C2147 C2146 1.372 . S
C2147 C2148 1.400 . S
C2147 C2152 1.490 . S
C2148 H2138 0.930 . S
C2148 C2147 1.400 . S
C2148 C2151 1.386 . S
H2149 C2165 0.930 . S
H2150 C2166 0.931 . S
C2151 H2139 0.929 . S
C2151 C2145 1.390 . S
C2151 C2148 1.386 . S
C2152 C2147 1.490 . S
C2152 C2154 1.395 . S
C2152 C2155 1.403 . S
H2153 C2159 0.930 . S
C2154 H2140 0.930 . S
C2154 C2152 1.395 . S
C2154 C2157 1.403 . S
C2155 C2152 1.403 . S
C2155 C2156 1.524 . S
C2155 C2159 1.400 . S
C2156 H2141 0.960 . S
C2156 H2142 0.960 . S
C2156 H2143 0.960 . S
C2156 C2155 1.524 . S
C2157 C2154 1.403 . S
C2157 C2158 1.392 . S
C2157 C2161 1.495 . S
C2158 C2157 1.392 . S
C2158 C2159 1.385 . S
C2158 C2160 1.478 . S
C2159 H2153 0.930 . S
C2159 C2155 1.400 . S
C2159 C2158 1.385 . S
C2160 C2158 1.478 . S
C2160 C2162 1.381 . S
C2160 C2166 1.383 . S
C2161 C2157 1.495 . S
C2161 H2167 0.959 . S
C2161 H2168 0.961 . S
C2161 H2169 0.960 . S
C2162 C2160 1.381 . S
C2162 C2163 1.394 . S
C2162 H2170 0.930 . S
C2163 C2162 1.394 . S
C2163 C2164 1.383 . S
C2163 H2171 0.929 . S
C2164 C2163 1.383 . S
C2164 C2165 1.377 . S
C2165 H2149 0.930 . S
C2165 C2164 1.377 . S
C2165 C2166 1.379 . S
C2166 H2150 0.931 . S
C2166 C2160 1.383 . S
C2166 C2165 1.379 . S
H2167 C2161 0.959 . S
H2168 C2161 0.961 . S
H2169 C2161 0.960 . S
H2170 C2162 0.930 . S
H2171 C2163 0.929 . S
H2172 C2180 0.929 . S
H2173 C2182 0.930 . S
H2174 C2184 0.930 . S
H2175 C2187 0.929 . S
H2176 C2190 0.933 . S
H2177 C2192 0.960 . S
H2178 C2192 0.960 . S
H2179 C2192 0.960 . S
C2180 H2172 0.929 . S
C2180 C2181 1.377 . S
C2180 C2182 1.384 . S
C2181 C2180 1.377 . S
C2181 C2187 1.390 . S
C2182 H2173 0.930 . S
C2182 C2180 1.384 . S
C2182 C2183 1.372 . S
C2183 C2182 1.372 . S
C2183 C2184 1.400 . S
C2183 C2188 1.490 . S
C2184 H2174 0.930 . S
C2184 C2183 1.400 . S
C2184 C2187 1.386 . S
H2185 C2201 0.930 . S
H2186 C2202 0.931 . S
C2187 H2175 0.929 . S
C2187 C2181 1.390 . S
C2187 C2184 1.386 . S
C2188 C2183 1.490 . S
C2188 C2190 1.361 1_655 S
C2188 C2191 1.403 . S
H2189 C2195 0.930 . S
C2190 H2176 0.933 . S
C2190 C2188 1.361 1_455 S
C2190 C2193 1.435 . S
C2191 C2188 1.403 . S
C2191 C2192 1.524 . S
C2191 C2195 1.400 . S
C2192 H2177 0.960 . S
C2192 H2178 0.960 . S
C2192 H2179 0.960 . S
C2192 C2191 1.524 . S
C2193 C2190 1.435 . S
C2193 C2194 1.392 . S
C2193 C2197 1.495 . S
C2194 C2193 1.392 . S
C2194 C2195 1.385 1_455 S
C2194 C2196 1.478 . S
C2195 H2189 0.930 . S
C2195 C2191 1.400 . S
C2195 C2194 1.385 1_655 S
C2196 C2194 1.478 . S
C2196 C2198 1.381 . S
C2196 C2202 1.383 . S
C2197 C2193 1.495 . S
C2197 H2203 0.959 . S
C2197 H2204 0.961 . S
C2197 H2205 0.960 . S
C2198 C2196 1.381 . S
C2198 C2199 1.394 . S
C2198 H2206 0.930 . S
C2199 C2198 1.394 . S
C2199 C2200 1.383 . S
C2199 H2207 0.929 . S
C2200 C2199 1.383 . S
C2200 C2201 1.377 . S
C2201 H2185 0.930 . S
C2201 C2200 1.377 . S
C2201 C2202 1.379 . S
C2202 H2186 0.931 . S
C2202 C2196 1.383 . S
C2202 C2201 1.379 . S
H2203 C2197 0.959 . S
H2204 C2197 0.961 . S
H2205 C2197 0.960 . S
H2206 C2198 0.930 . S
H2207 C2199 0.929 . S
H2208 C2216 0.929 . S
H2209 C2218 0.930 . S
H2210 C2220 0.930 . S
H2211 C2223 0.929 . S
H2212 C2226 0.930 . S
H2213 C2228 0.960 . S
H2214 C2228 0.960 . S
H2215 C2228 0.960 . S
C2216 H2208 0.929 . S
C2216 C2217 1.377 . S
C2216 C2218 1.384 . S
C2217 C2216 1.377 . S
C2217 C2223 1.390 . S
C2218 H2209 0.930 . S
C2218 C2216 1.384 . S
C2218 C2219 1.372 . S
C2219 C2218 1.372 . S
C2219 C2220 1.400 . S
C2219 C2224 1.490 . S
C2220 H2210 0.930 . S
C2220 C2219 1.400 . S
C2220 C2223 1.386 . S
H2221 C2237 0.930 . S
H2222 C2238 0.931 . S
C2223 H2211 0.929 . S
C2223 C2217 1.390 . S
C2223 C2220 1.386 . S
C2224 C2219 1.490 . S
C2224 C2226 1.395 . S
C2224 C2227 1.403 . S
H2225 C2231 0.930 . S
C2226 H2212 0.930 . S
C2226 C2224 1.395 . S
C2226 C2229 1.403 . S
C2227 C2224 1.403 . S
C2227 C2228 1.524 . S
C2227 C2231 1.400 . S
C2228 H2213 0.960 . S
C2228 H2214 0.960 . S
C2228 H2215 0.960 . S
C2228 C2227 1.524 . S
C2229 C2226 1.403 . S
C2229 C2230 1.392 . S
C2229 C2233 1.495 . S
C2230 C2229 1.392 . S
C2230 C2231 1.385 . S
C2230 C2232 1.478 . S
C2231 H2225 0.930 . S
C2231 C2227 1.400 . S
C2231 C2230 1.385 . S
C2232 C2230 1.478 . S
C2232 C2234 1.381 . S
C2232 C2238 1.383 . S
C2233 C2229 1.495 . S
C2233 H2239 0.959 . S
C2233 H2240 0.961 . S
C2233 H2241 0.960 . S
C2234 C2232 1.381 . S
C2234 C2235 1.394 . S
C2234 H2242 0.930 . S
C2235 C2234 1.394 . S
C2235 C2236 1.383 . S
C2235 H2243 0.929 . S
C2236 C2235 1.383 . S
C2236 C2237 1.377 . S
C2237 H2221 0.930 . S
C2237 C2236 1.377 . S
C2237 C2238 1.379 . S
C2238 H2222 0.931 . S
C2238 C2232 1.383 . S
C2238 C2237 1.379 . S
H2239 C2233 0.959 . S
H2240 C2233 0.961 . S
H2241 C2233 0.960 . S
H2242 C2234 0.930 . S
H2243 C2235 0.929 . S
H2244 C2252 0.929 . S
H2245 C2254 0.930 . S
H2246 C2256 0.930 . S
H2247 C2259 0.929 . S
H2248 C2262 0.930 . S
H2249 C2264 0.960 . S
H2250 C2264 0.960 . S
H2251 C2264 0.960 . S
C2252 H2244 0.929 . S
C2252 C2253 1.377 . S
C2252 C2254 1.384 . S
C2253 C2252 1.377 . S
C2253 C2259 1.390 . S
C2254 H2245 0.930 . S
C2254 C2252 1.384 . S
C2254 C2255 1.372 . S
C2255 C2254 1.372 . S
C2255 C2256 1.400 . S
C2255 C2260 1.490 . S
C2256 H2246 0.930 . S
C2256 C2255 1.400 . S
C2256 C2259 1.386 . S
H2257 C2273 0.930 . S
H2258 C2274 0.931 . S
C2259 H2247 0.929 . S
C2259 C2253 1.390 . S
C2259 C2256 1.386 . S
C2260 C2255 1.490 . S
C2260 C2262 1.395 . S
C2260 C2263 1.403 . S
H2261 C2267 0.930 . S
C2262 H2248 0.930 . S
C2262 C2260 1.395 . S
C2262 C2265 1.403 . S
C2263 C2260 1.403 . S
C2263 C2264 1.524 . S
C2263 C2267 1.400 . S
C2264 H2249 0.960 . S
C2264 H2250 0.960 . S
C2264 H2251 0.960 . S
C2264 C2263 1.524 . S
C2265 C2262 1.403 . S
C2265 C2266 1.392 . S
C2265 C2269 1.495 . S
C2266 C2265 1.392 . S
C2266 C2267 1.385 . S
C2266 C2268 1.478 . S
C2267 H2261 0.930 . S
C2267 C2263 1.400 . S
C2267 C2266 1.385 . S
C2268 C2266 1.478 . S
C2268 C2270 1.381 . S
C2268 C2274 1.383 . S
C2269 C2265 1.495 . S
C2269 H2275 0.959 . S
C2269 H2276 0.961 . S
C2269 H2277 0.960 . S
C2270 C2268 1.381 . S
C2270 C2271 1.394 . S
C2270 H2278 0.930 . S
C2271 C2270 1.394 . S
C2271 C2272 1.383 . S
C2271 H2279 0.929 . S
C2272 C2271 1.383 . S
C2272 C2273 1.377 . S
C2273 H2257 0.930 . S
C2273 C2272 1.377 . S
C2273 C2274 1.379 . S
C2274 H2258 0.931 . S
C2274 C2268 1.383 . S
C2274 C2273 1.379 . S
H2275 C2269 0.959 . S
H2276 C2269 0.961 . S
H2277 C2269 0.960 . S
H2278 C2270 0.930 . S
H2279 C2271 0.929 . S
H2280 C2288 0.929 . S
H2281 C2290 0.930 . S
H2282 C2292 0.930 . S
H2283 C2295 0.929 . S
H2284 C2298 0.930 . S
H2285 C2300 0.960 . S
H2286 C2300 0.960 . S
H2287 C2300 0.960 . S
C2288 H2280 0.929 . S
C2288 C2289 1.377 . S
C2288 C2290 1.384 . S
C2289 C2288 1.377 . S
C2289 C2295 1.390 . S
C2290 H2281 0.930 . S
C2290 C2288 1.384 . S
C2290 C2291 1.372 . S
C2291 C2290 1.372 . S
C2291 C2292 1.400 . S
C2291 C2296 1.490 . S
C2292 H2282 0.930 . S
C2292 C2291 1.400 . S
C2292 C2295 1.386 . S
H2293 C2309 0.930 . S
H2294 C2310 0.931 . S
C2295 H2283 0.929 . S
C2295 C2289 1.390 . S
C2295 C2292 1.386 . S
C2296 C2291 1.490 . S
C2296 C2298 1.395 . S
C2296 C2299 1.403 . S
H2297 C2303 0.930 . S
C2298 H2284 0.930 . S
C2298 C2296 1.395 . S
C2298 C2301 1.403 . S
C2299 C2296 1.403 . S
C2299 C2300 1.524 . S
C2299 C2303 1.400 . S
C2300 H2285 0.960 . S
C2300 H2286 0.960 . S
C2300 H2287 0.960 . S
C2300 C2299 1.524 . S
C2301 C2298 1.403 . S
C2301 C2302 1.392 . S
C2301 C2305 1.495 . S
C2302 C2301 1.392 . S
C2302 C2303 1.385 . S
C2302 C2304 1.478 . S
C2303 H2297 0.930 . S
C2303 C2299 1.400 . S
C2303 C2302 1.385 . S
C2304 C2302 1.478 . S
C2304 C2306 1.381 . S
C2304 C2310 1.383 . S
C2305 C2301 1.495 . S
C2305 H2311 0.959 . S
C2305 H2312 0.961 . S
C2305 H2313 0.960 . S
C2306 C2304 1.381 . S
C2306 C2307 1.394 . S
C2306 H2314 0.930 . S
C2307 C2306 1.394 . S
C2307 C2308 1.383 . S
C2307 H2315 0.929 . S
C2308 C2307 1.383 . S
C2308 C2309 1.377 . S
C2309 H2293 0.930 . S
C2309 C2308 1.377 . S
C2309 C2310 1.379 . S
C2310 H2294 0.931 . S
C2310 C2304 1.383 . S
C2310 C2309 1.379 . S
H2311 C2305 0.959 . S
H2312 C2305 0.961 . S
H2313 C2305 0.960 . S
H2314 C2306 0.930 . S
H2315 C2307 0.929 . S
H2316 C2324 0.929 . S
H2317 C2326 0.930 . S
H2318 C2328 0.930 . S
H2319 C2331 0.929 . S
H2320 C2334 0.930 . S
H2321 C2336 0.960 . S
H2322 C2336 0.960 . S
H2323 C2336 0.960 . S
C2324 H2316 0.929 . S
C2324 C2325 1.377 . S
C2324 C2326 1.384 . S
C2325 C2324 1.377 . S
C2325 C2331 1.390 . S
C2326 H2317 0.930 . S
C2326 C2324 1.384 . S
C2326 C2327 1.372 . S
C2327 C2326 1.372 . S
C2327 C2328 1.400 . S
C2327 C2332 1.490 . S
C2328 H2318 0.930 . S
C2328 C2327 1.400 . S
C2328 C2331 1.386 . S
H2329 C2345 0.930 . S
H2330 C2346 0.931 . S
C2331 H2319 0.929 . S
C2331 C2325 1.390 . S
C2331 C2328 1.386 . S
C2332 C2327 1.490 . S
C2332 C2334 1.395 1_655 S
C2332 C2335 1.403 . S
H2333 C2339 0.930 . S
C2334 H2320 0.930 . S
C2334 C2332 1.395 1_455 S
C2334 C2337 1.403 . S
C2335 C2332 1.403 . S
C2335 C2336 1.524 . S
C2335 C2339 1.400 . S
C2336 H2321 0.960 . S
C2336 H2322 0.960 . S
C2336 H2323 0.960 . S
C2336 C2335 1.524 . S
C2337 C2334 1.403 . S
C2337 C2338 1.392 . S
C2337 C2341 1.495 . S
C2338 C2337 1.392 . S
C2338 C2339 1.385 1_455 S
C2338 C2340 1.478 . S
C2339 H2333 0.930 . S
C2339 C2335 1.400 . S
C2339 C2338 1.385 1_655 S
C2340 C2338 1.478 . S
C2340 C2342 1.381 . S
C2340 C2346 1.383 . S
C2341 C2337 1.495 . S
C2341 H2347 0.959 . S
C2341 H2348 0.961 . S
C2341 H2349 0.960 . S
C2342 C2340 1.381 . S
C2342 C2343 1.394 . S
C2342 H2350 0.930 . S
C2343 C2342 1.394 . S
C2343 C2344 1.383 . S
C2343 H2351 0.929 . S
C2344 C2343 1.383 . S
C2344 C2345 1.377 . S
C2345 H2329 0.930 . S
C2345 C2344 1.377 . S
C2345 C2346 1.379 . S
C2346 H2330 0.931 . S
C2346 C2340 1.383 . S
C2346 C2345 1.379 . S
H2347 C2341 0.959 . S
H2348 C2341 0.961 . S
H2349 C2341 0.960 . S
H2350 C2342 0.930 . S
H2351 C2343 0.929 . S
H2352 C2360 0.929 . S
H2353 C2362 0.930 . S
H2354 C2364 0.930 . S
H2355 C2367 0.929 . S
H2356 C2370 0.930 . S
H2357 C2372 0.960 . S
H2358 C2372 0.960 . S
H2359 C2372 0.960 . S
C2360 H2352 0.929 . S
C2360 C2361 1.377 . S
C2360 C2362 1.384 . S
C2361 C2360 1.377 . S
C2361 C2367 1.390 . S
C2362 H2353 0.930 . S
C2362 C2360 1.384 . S
C2362 C2363 1.372 . S
C2363 C2362 1.372 . S
C2363 C2364 1.400 . S
C2363 C2368 1.490 . S
C2364 H2354 0.930 . S
C2364 C2363 1.400 . S
C2364 C2367 1.386 . S
H2365 C2381 0.930 . S
H2366 C2382 0.931 . S
C2367 H2355 0.929 . S
C2367 C2361 1.390 . S
C2367 C2364 1.386 . S
C2368 C2363 1.490 . S
C2368 C2370 1.395 . S
C2368 C2371 1.403 . S
H2369 C2375 0.930 . S
C2370 H2356 0.930 . S
C2370 C2368 1.395 . S
C2370 C2373 1.403 . S
C2371 C2368 1.403 . S
C2371 C2372 1.524 . S
C2371 C2375 1.400 . S
C2372 H2357 0.960 . S
C2372 H2358 0.960 . S
C2372 H2359 0.960 . S
C2372 C2371 1.524 . S
C2373 C2370 1.403 . S
C2373 C2374 1.392 . S
C2373 C2377 1.495 . S
C2374 C2373 1.392 . S
C2374 C2375 1.385 . S
C2374 C2376 1.478 . S
C2375 H2369 0.930 . S
C2375 C2371 1.400 . S
C2375 C2374 1.385 . S
C2376 C2374 1.478 . S
C2376 C2378 1.381 . S
C2376 C2382 1.383 . S
C2377 C2373 1.495 . S
C2377 H2383 0.959 . S
C2377 H2384 0.961 . S
C2377 H2385 0.960 . S
C2378 C2376 1.381 . S
C2378 C2379 1.394 . S
C2378 H2386 0.930 . S
C2379 C2378 1.394 . S
C2379 C2380 1.383 . S
C2379 H2387 0.929 . S
C2380 C2379 1.383 . S
C2380 C2381 1.377 . S
C2381 H2365 0.930 . S
C2381 C2380 1.377 . S
C2381 C2382 1.379 . S
C2382 H2366 0.931 . S
C2382 C2376 1.383 . S
C2382 C2381 1.379 . S
H2383 C2377 0.959 . S
H2384 C2377 0.961 . S
H2385 C2377 0.960 . S
H2386 C2378 0.930 . S
H2387 C2379 0.929 . S
H2388 C2396 0.929 . S
H2389 C2398 0.930 . S
H2390 C2400 0.930 . S
H2391 C2403 0.929 . S
H2392 C2406 0.930 . S
H2393 C2408 0.960 . S
H2394 C2408 0.960 . S
H2395 C2408 0.960 . S
C2396 H2388 0.929 . S
C2396 C2397 1.377 . S
C2396 C2398 1.384 . S
C2397 C2396 1.377 . S
C2397 C2403 1.390 . S
C2398 H2389 0.930 . S
C2398 C2396 1.384 . S
C2398 C2399 1.372 . S
C2399 C2398 1.372 . S
C2399 C2400 1.400 . S
C2399 C2404 1.490 . S
C2400 H2390 0.930 . S
C2400 C2399 1.400 . S
C2400 C2403 1.386 . S
H2401 C2417 0.930 . S
H2402 C2418 0.931 . S
C2403 H2391 0.929 . S
C2403 C2397 1.390 . S
C2403 C2400 1.386 . S
C2404 C2399 1.490 . S
C2404 C2406 1.395 . S
C2404 C2407 1.403 . S
H2405 C2411 0.938 . S
C2406 H2392 0.930 . S
C2406 C2404 1.395 . S
C2406 C2409 1.403 1_655 S
C2407 C2404 1.403 . S
C2407 C2408 1.524 . S
C2407 C2411 1.364 1_655 S
C2408 H2393 0.960 . S
C2408 H2394 0.960 . S
C2408 H2395 0.960 . S
C2408 C2407 1.524 . S
C2409 C2406 1.403 1_455 S
C2409 C2410 1.392 . S
C2409 C2413 1.495 . S
C2410 C2409 1.392 . S
C2410 C2411 1.415 . S
C2410 C2412 1.478 . S
C2411 H2405 0.938 . S
C2411 C2407 1.364 1_455 S
C2411 C2410 1.415 . S
C2412 C2410 1.478 . S
C2412 C2414 1.381 . S
C2412 C2418 1.383 . S
C2413 C2409 1.495 . S
C2413 H2419 0.959 . S
C2413 H2420 0.961 . S
C2413 H2421 0.960 . S
C2414 C2412 1.381 . S
C2414 C2415 1.394 . S
C2414 H2422 0.930 . S
C2415 C2414 1.394 . S
C2415 C2416 1.383 . S
C2415 H2423 0.929 . S
C2416 C2415 1.383 . S
C2416 C2417 1.377 . S
C2417 H2401 0.930 . S
C2417 C2416 1.377 . S
C2417 C2418 1.379 . S
C2418 H2402 0.931 . S
C2418 C2412 1.383 . S
C2418 C2417 1.379 . S
H2419 C2413 0.959 . S
H2420 C2413 0.961 . S
H2421 C2413 0.960 . S
H2422 C2414 0.930 . S
H2423 C2415 0.929 . S
H2424 C2432 0.929 . S
H2425 C2434 0.930 . S
H2426 C2436 0.930 . S
H2427 C2439 0.929 . S
H2428 C2442 0.930 . S
H2429 C2444 0.960 . S
H2430 C2444 0.960 . S
H2431 C2444 0.960 . S
C2432 H2424 0.929 . S
C2432 C2433 1.377 . S
C2432 C2434 1.384 . S
C2433 C2432 1.377 . S
C2433 C2439 1.390 . S
C2434 H2425 0.930 . S
C2434 C2432 1.384 . S
C2434 C2435 1.372 . S
C2435 C2434 1.372 . S
C2435 C2436 1.400 . S
C2435 C2440 1.490 . S
C2436 H2426 0.930 . S
C2436 C2435 1.400 . S
C2436 C2439 1.386 . S
H2437 C2453 0.930 . S
H2438 C2454 0.931 . S
C2439 H2427 0.929 . S
C2439 C2433 1.390 . S
C2439 C2436 1.386 . S
C2440 C2435 1.490 . S
C2440 C2442 1.395 . S
C2440 C2443 1.403 . S
H2441 C2447 0.930 . S
C2442 H2428 0.930 . S
C2442 C2440 1.395 . S
C2442 C2445 1.403 . S
C2443 C2440 1.403 . S
C2443 C2444 1.524 . S
C2443 C2447 1.400 . S
C2444 H2429 0.960 . S
C2444 H2430 0.960 . S
C2444 H2431 0.960 . S
C2444 C2443 1.524 . S
C2445 C2442 1.403 . S
C2445 C2446 1.392 . S
C2445 C2449 1.495 . S
C2446 C2445 1.392 . S
C2446 C2447 1.385 . S
C2446 C2448 1.478 . S
C2447 H2441 0.930 . S
C2447 C2443 1.400 . S
C2447 C2446 1.385 . S
C2448 C2446 1.478 . S
C2448 C2450 1.381 . S
C2448 C2454 1.383 . S
C2449 C2445 1.495 . S
C2449 H2455 0.959 . S
C2449 H2456 0.961 . S
C2449 H2457 0.960 . S
C2450 C2448 1.381 . S
C2450 C2451 1.394 . S
C2450 H2458 0.930 . S
C2451 C2450 1.394 . S
C2451 C2452 1.383 . S
C2451 H2459 0.929 . S
C2452 C2451 1.383 . S
C2452 C2453 1.377 . S
C2453 H2437 0.930 . S
C2453 C2452 1.377 . S
C2453 C2454 1.379 . S
C2454 H2438 0.931 . S
C2454 C2448 1.383 . S
C2454 C2453 1.379 . S
H2455 C2449 0.959 . S
H2456 C2449 0.961 . S
H2457 C2449 0.960 . S
H2458 C2450 0.930 . S
H2459 C2451 0.929 . S
H2460 C2468 0.929 . S
H2461 C2470 0.930 . S
H2462 C2472 0.930 . S
H2463 C2475 0.929 . S
H2464 C2478 0.930 . S
H2465 C2480 0.960 . S
H2466 C2480 0.960 . S
H2467 C2480 0.960 . S
C2468 H2460 0.929 . S
C2468 C2469 1.377 . S
C2468 C2470 1.384 . S
C2469 C2468 1.377 . S
C2469 C2475 1.390 . S
C2470 H2461 0.930 . S
C2470 C2468 1.384 . S
C2470 C2471 1.372 . S
C2471 C2470 1.372 . S
C2471 C2472 1.400 . S
C2471 C2476 1.490 . S
C2472 H2462 0.930 . S
C2472 C2471 1.400 . S
C2472 C2475 1.386 . S
H2473 C2489 0.930 . S
H2474 C2490 0.931 . S
C2475 H2463 0.929 . S
C2475 C2469 1.390 . S
C2475 C2472 1.386 . S
C2476 C2471 1.490 . S
C2476 C2478 1.395 . S
C2476 C2479 1.403 . S
H2477 C2483 0.930 . S
C2478 H2464 0.930 . S
C2478 C2476 1.395 . S
C2478 C2481 1.403 . S
C2479 C2476 1.403 . S
C2479 C2480 1.524 . S
C2479 C2483 1.400 . S
C2480 H2465 0.960 . S
C2480 H2466 0.960 . S
C2480 H2467 0.960 . S
C2480 C2479 1.524 . S
C2481 C2478 1.403 . S
C2481 C2482 1.392 . S
C2481 C2485 1.495 . S
C2482 C2481 1.392 . S
C2482 C2483 1.385 . S
C2482 C2484 1.478 . S
C2483 H2477 0.930 . S
C2483 C2479 1.400 . S
C2483 C2482 1.385 . S
C2484 C2482 1.478 . S
C2484 C2486 1.381 . S
C2484 C2490 1.383 . S
C2485 C2481 1.495 . S
C2485 H2491 0.959 . S
C2485 H2492 0.961 . S
C2485 H2493 0.960 . S
C2486 C2484 1.381 . S
C2486 C2487 1.394 . S
C2486 H2494 0.930 . S
C2487 C2486 1.394 . S
C2487 C2488 1.383 . S
C2487 H2495 0.929 . S
C2488 C2487 1.383 . S
C2488 C2489 1.377 . S
C2489 H2473 0.930 . S
C2489 C2488 1.377 . S
C2489 C2490 1.379 . S
C2490 H2474 0.931 . S
C2490 C2484 1.383 . S
C2490 C2489 1.379 . S
H2491 C2485 0.959 . S
H2492 C2485 0.961 . S
H2493 C2485 0.960 . S
H2494 C2486 0.930 . S
H2495 C2487 0.929 . S
H2496 C2504 0.929 . S
H2497 C2506 0.930 . S
H2498 C2508 0.930 . S
H2499 C2511 0.929 . S
H2500 C2514 0.930 . S
H2501 C2516 0.960 . S
H2502 C2516 0.960 . S
H2503 C2516 0.960 . S
C2504 H2496 0.929 . S
C2504 C2505 1.377 . S
C2504 C2506 1.384 . S
C2505 C2504 1.377 . S
C2505 C2511 1.390 . S
C2506 H2497 0.930 . S
C2506 C2504 1.384 . S
C2506 C2507 1.372 . S
C2507 C2506 1.372 . S
C2507 C2508 1.400 . S
C2507 C2512 1.490 . S
C2508 H2498 0.930 . S
C2508 C2507 1.400 . S
C2508 C2511 1.386 . S
H2509 C2525 0.930 . S
H2510 C2526 0.931 . S
C2511 H2499 0.929 . S
C2511 C2505 1.390 . S
C2511 C2508 1.386 . S
C2512 C2507 1.490 . S
C2512 C2514 1.395 . S
C2512 C2515 1.403 . S
H2513 C2519 0.930 . S
C2514 H2500 0.930 . S
C2514 C2512 1.395 . S
C2514 C2517 1.403 . S
C2515 C2512 1.403 . S
C2515 C2516 1.524 . S
C2515 C2519 1.400 . S
C2516 H2501 0.960 . S
C2516 H2502 0.960 . S
C2516 H2503 0.960 . S
C2516 C2515 1.524 . S
C2517 C2514 1.403 . S
C2517 C2518 1.392 . S
C2517 C2521 1.495 . S
C2518 C2517 1.392 . S
C2518 C2519 1.385 . S
C2518 C2520 1.478 . S
C2519 H2513 0.930 . S
C2519 C2515 1.400 . S
C2519 C2518 1.385 . S
C2520 C2518 1.478 . S
C2520 C2522 1.381 . S
C2520 C2526 1.383 . S
C2521 C2517 1.495 . S
C2521 H2527 0.959 . S
C2521 H2528 0.961 . S
C2521 H2529 0.960 . S
C2522 C2520 1.381 . S
C2522 C2523 1.394 . S
C2522 H2530 0.930 . S
C2523 C2522 1.394 . S
C2523 C2524 1.383 . S
C2523 H2531 0.929 . S
C2524 C2523 1.383 . S
C2524 C2525 1.377 . S
C2525 H2509 0.930 . S
C2525 C2524 1.377 . S
C2525 C2526 1.379 . S
C2526 H2510 0.931 . S
C2526 C2520 1.383 . S
C2526 C2525 1.379 . S
H2527 C2521 0.959 . S
H2528 C2521 0.961 . S
H2529 C2521 0.960 . S
H2530 C2522 0.930 . S
H2531 C2523 0.929 . S
H2532 C2540 0.929 . S
H2533 C2542 0.930 . S
H2534 C2544 0.930 . S
H2535 C2547 0.929 . S
H2536 C2550 0.930 . S
H2537 C2552 0.960 . S
H2538 C2552 0.960 . S
H2539 C2552 0.960 . S
C2540 H2532 0.929 . S
C2540 C2541 1.377 . S
C2540 C2542 1.384 . S
C2541 C2540 1.377 . S
C2541 C2547 1.390 . S
C2542 H2533 0.930 . S
C2542 C2540 1.384 . S
C2542 C2543 1.372 . S
C2543 C2542 1.372 . S
C2543 C2544 1.400 . S
C2543 C2548 1.490 . S
C2544 H2534 0.930 . S
C2544 C2543 1.400 . S
C2544 C2547 1.386 . S
H2545 C2561 0.930 . S
H2546 C2562 0.931 . S
C2547 H2535 0.929 . S
C2547 C2541 1.390 . S
C2547 C2544 1.386 . S
C2548 C2543 1.490 . S
C2548 C2550 1.395 . S
C2548 C2551 1.403 . S
H2549 C2555 0.930 . S
C2550 H2536 0.930 . S
C2550 C2548 1.395 . S
C2550 C2553 1.403 . S
C2551 C2548 1.403 . S
C2551 C2552 1.524 . S
C2551 C2555 1.400 . S
C2552 H2537 0.960 . S
C2552 H2538 0.960 . S
C2552 H2539 0.960 . S
C2552 C2551 1.524 . S
C2553 C2550 1.403 . S
C2553 C2554 1.392 . S
C2553 C2557 1.495 . S
C2554 C2553 1.392 . S
C2554 C2555 1.385 . S
C2554 C2556 1.478 . S
C2555 H2549 0.930 . S
C2555 C2551 1.400 . S
C2555 C2554 1.385 . S
C2556 C2554 1.478 . S
C2556 C2558 1.381 . S
C2556 C2562 1.383 . S
C2557 C2553 1.495 . S
C2557 H2563 0.959 . S
C2557 H2564 0.961 . S
C2557 H2565 0.960 . S
C2558 C2556 1.381 . S
C2558 C2559 1.394 . S
C2558 H2566 0.930 . S
C2559 C2558 1.394 . S
C2559 C2560 1.383 . S
C2559 H2567 0.929 . S
C2560 C2559 1.383 . S
C2560 C2561 1.377 . S
C2561 H2545 0.930 . S
C2561 C2560 1.377 . S
C2561 C2562 1.379 . S
C2562 H2546 0.931 . S
C2562 C2556 1.383 . S
C2562 C2561 1.379 . S
H2563 C2557 0.959 . S
H2564 C2557 0.961 . S
H2565 C2557 0.960 . S
H2566 C2558 0.930 . S
H2567 C2559 0.929 . S
H2568 C2576 0.929 . S
H2569 C2578 0.930 . S
H2570 C2580 0.930 . S
H2571 C2583 0.929 . S
H2572 C2586 0.930 . S
H2573 C2588 0.960 . S
H2574 C2588 0.960 . S
H2575 C2588 0.960 . S
C2576 H2568 0.929 . S
C2576 C2577 1.377 . S
C2576 C2578 1.384 . S
C2577 C2576 1.377 . S
C2577 C2583 1.390 . S
C2578 H2569 0.930 . S
C2578 C2576 1.384 . S
C2578 C2579 1.372 . S
C2579 C2578 1.372 . S
C2579 C2580 1.400 . S
C2579 C2584 1.490 . S
C2580 H2570 0.930 . S
C2580 C2579 1.400 . S
C2580 C2583 1.386 . S
H2581 C2597 0.930 . S
H2582 C2598 0.931 . S
C2583 H2571 0.929 . S
C2583 C2577 1.390 . S
C2583 C2580 1.386 . S
C2584 C2579 1.490 . S
C2584 C2586 1.395 . S
C2584 C2587 1.403 . S
H2585 C2591 0.930 . S
C2586 H2572 0.930 . S
C2586 C2584 1.395 . S
C2586 C2589 1.403 . S
C2587 C2584 1.403 . S
C2587 C2588 1.524 . S
C2587 C2591 1.400 . S
C2588 H2573 0.960 . S
C2588 H2574 0.960 . S
C2588 H2575 0.960 . S
C2588 C2587 1.524 . S
C2589 C2586 1.403 . S
C2589 C2590 1.392 . S
C2589 C2593 1.495 . S
C2590 C2589 1.392 . S
C2590 C2591 1.385 . S
C2590 C2592 1.478 . S
C2591 H2585 0.930 . S
C2591 C2587 1.400 . S
C2591 C2590 1.385 . S
C2592 C2590 1.478 . S
C2592 C2594 1.381 . S
C2592 C2598 1.383 . S
C2593 C2589 1.495 . S
C2593 H2599 0.959 . S
C2593 H2600 0.961 . S
C2593 H2601 0.960 . S
C2594 C2592 1.381 . S
C2594 C2595 1.394 . S
C2594 H2602 0.930 . S
C2595 C2594 1.394 . S
C2595 C2596 1.383 . S
C2595 H2603 0.929 . S
C2596 C2595 1.383 . S
C2596 C2597 1.377 . S
C2597 H2581 0.930 . S
C2597 C2596 1.377 . S
C2597 C2598 1.379 . S
C2598 H2582 0.931 . S
C2598 C2592 1.383 . S
C2598 C2597 1.379 . S
H2599 C2593 0.959 . S
H2600 C2593 0.961 . S
H2601 C2593 0.960 . S
H2602 C2594 0.930 . S
H2603 C2595 0.929 . S
H2604 C2612 0.929 . S
H2605 C2614 0.930 . S
H2606 C2616 0.930 . S
H2607 C2619 0.929 . S
H2608 C2622 0.930 . S
H2609 C2624 0.960 . S
H2610 C2624 0.960 . S
H2611 C2624 0.960 . S
C2612 H2604 0.929 . S
C2612 C2613 1.377 . S
C2612 C2614 1.384 . S
C2613 C2612 1.377 . S
C2613 C2619 1.390 . S
C2614 H2605 0.930 . S
C2614 C2612 1.384 . S
C2614 C2615 1.372 . S
C2615 C2614 1.372 . S
C2615 C2616 1.400 . S
C2615 C2620 1.490 . S
C2616 H2606 0.930 . S
C2616 C2615 1.400 . S
C2616 C2619 1.386 . S
H2617 C2633 0.930 . S
H2618 C2634 0.931 . S
C2619 H2607 0.929 . S
C2619 C2613 1.390 . S
C2619 C2616 1.386 . S
C2620 C2615 1.490 . S
C2620 C2622 1.395 . S
C2620 C2623 1.403 . S
H2621 C2627 0.930 . S
C2622 H2608 0.930 . S
C2622 C2620 1.395 . S
C2622 C2625 1.403 1_455 S
C2623 C2620 1.403 . S
C2623 C2624 1.524 . S
C2623 C2627 1.400 1_455 S
C2624 H2609 0.960 . S
C2624 H2610 0.960 . S
C2624 H2611 0.960 . S
C2624 C2623 1.524 . S
C2625 C2622 1.403 1_655 S
C2625 C2626 1.392 . S
C2625 C2629 1.495 . S
C2626 C2625 1.392 . S
C2626 C2627 1.385 . S
C2626 C2628 1.478 . S
C2627 H2621 0.930 . S
C2627 C2623 1.400 1_655 S
C2627 C2626 1.385 . S
C2628 C2626 1.478 . S
C2628 C2630 1.381 . S
C2628 C2634 1.383 . S
C2629 C2625 1.495 . S
C2629 H2635 0.959 . S
C2629 H2636 0.961 . S
C2629 H2637 0.960 . S
C2630 C2628 1.381 . S
C2630 C2631 1.394 . S
C2630 H2638 0.930 . S
C2631 C2630 1.394 . S
C2631 C2632 1.383 . S
C2631 H2639 0.929 . S
C2632 C2631 1.383 . S
C2632 C2633 1.377 . S
C2633 H2617 0.930 . S
C2633 C2632 1.377 . S
C2633 C2634 1.379 . S
C2634 H2618 0.931 . S
C2634 C2628 1.383 . S
C2634 C2633 1.379 . S
H2635 C2629 0.959 . S
H2636 C2629 0.961 . S
H2637 C2629 0.960 . S
H2638 C2630 0.930 . S
H2639 C2631 0.929 . S
H2640 C2648 0.929 . S
H2641 C2650 0.930 . S
H2642 C2652 0.930 . S
H2643 C2655 0.929 . S
H2644 C2658 0.930 . S
H2645 C2660 0.960 . S
H2646 C2660 0.960 . S
H2647 C2660 0.960 . S
C2648 H2640 0.929 . S
C2648 C2649 1.377 . S
C2648 C2650 1.384 . S
C2649 C2648 1.377 . S
C2649 C2655 1.390 . S
C2650 H2641 0.930 . S
C2650 C2648 1.384 . S
C2650 C2651 1.372 . S
C2651 C2650 1.372 . S
C2651 C2652 1.400 . S
C2651 C2656 1.490 . S
C2652 H2642 0.930 . S
C2652 C2651 1.400 . S
C2652 C2655 1.386 . S
H2653 C2669 0.930 . S
H2654 C2670 0.931 . S
C2655 H2643 0.929 . S
C2655 C2649 1.390 . S
C2655 C2652 1.386 . S
C2656 C2651 1.490 . S
C2656 C2658 1.395 . S
C2656 C2659 1.403 . S
H2657 C2663 0.930 . S
C2658 H2644 0.930 . S
C2658 C2656 1.395 . S
C2658 C2661 1.403 . S
C2659 C2656 1.403 . S
C2659 C2660 1.524 . S
C2659 C2663 1.400 . S
C2660 H2645 0.960 . S
C2660 H2646 0.960 . S
C2660 H2647 0.960 . S
C2660 C2659 1.524 . S
C2661 C2658 1.403 . S
C2661 C2662 1.392 . S
C2661 C2665 1.495 . S
C2662 C2661 1.392 . S
C2662 C2663 1.385 . S
C2662 C2664 1.478 . S
C2663 H2657 0.930 . S
C2663 C2659 1.400 . S
C2663 C2662 1.385 . S
C2664 C2662 1.478 . S
C2664 C2666 1.381 . S
C2664 C2670 1.383 . S
C2665 C2661 1.495 . S
C2665 H2671 0.959 . S
C2665 H2672 0.961 . S
C2665 H2673 0.960 . S
C2666 C2664 1.381 . S
C2666 C2667 1.394 . S
C2666 H2674 0.930 . S
C2667 C2666 1.394 . S
C2667 C2668 1.383 . S
C2667 H2675 0.929 . S
C2668 C2667 1.383 . S
C2668 C2669 1.377 . S
C2669 H2653 0.930 . S
C2669 C2668 1.377 . S
C2669 C2670 1.379 . S
C2670 H2654 0.931 . S
C2670 C2664 1.383 . S
C2670 C2669 1.379 . S
H2671 C2665 0.959 . S
H2672 C2665 0.961 . S
H2673 C2665 0.960 . S
H2674 C2666 0.930 . S
H2675 C2667 0.929 . S
H2676 C2684 0.929 . S
H2677 C2686 0.930 . S
H2678 C2688 0.930 . S
H2679 C2691 0.929 . S
H2680 C2694 0.930 . S
H2681 C2696 0.960 . S
H2682 C2696 0.960 . S
H2683 C2696 0.960 . S
C2684 H2676 0.929 . S
C2684 C2685 1.377 . S
C2684 C2686 1.384 . S
C2685 C2684 1.377 . S
C2685 C2691 1.390 . S
C2686 H2677 0.930 . S
C2686 C2684 1.384 . S
C2686 C2687 1.372 . S
C2687 C2686 1.372 . S
C2687 C2688 1.400 . S
C2687 C2692 1.490 . S
C2688 H2678 0.930 . S
C2688 C2687 1.400 . S
C2688 C2691 1.386 . S
H2689 C2705 0.930 . S
H2690 C2706 0.931 . S
C2691 H2679 0.929 . S
C2691 C2685 1.390 . S
C2691 C2688 1.386 . S
C2692 C2687 1.490 . S
C2692 C2694 1.395 1_655 S
C2692 C2695 1.403 . S
H2693 C2699 0.930 . S
C2694 H2680 0.930 . S
C2694 C2692 1.395 1_455 S
C2694 C2697 1.403 . S
C2695 C2692 1.403 . S
C2695 C2696 1.524 . S
C2695 C2699 1.400 1_655 S
C2696 H2681 0.960 . S
C2696 H2682 0.960 . S
C2696 H2683 0.960 . S
C2696 C2695 1.524 . S
C2697 C2694 1.403 . S
C2697 C2698 1.392 . S
C2697 C2701 1.495 . S
C2698 C2697 1.392 . S
C2698 C2699 1.385 . S
C2698 C2700 1.478 . S
C2699 H2693 0.930 . S
C2699 C2695 1.400 1_455 S
C2699 C2698 1.385 . S
C2700 C2698 1.478 . S
C2700 C2702 1.381 . S
C2700 C2706 1.383 . S
C2701 C2697 1.495 . S
C2701 H2707 0.959 . S
C2701 H2708 0.961 . S
C2701 H2709 0.960 . S
C2702 C2700 1.381 . S
C2702 C2703 1.394 . S
C2702 H2710 0.930 . S
C2703 C2702 1.394 . S
C2703 C2704 1.383 . S
C2703 H2711 0.929 . S
C2704 C2703 1.383 . S
C2704 C2705 1.377 . S
C2705 H2689 0.930 . S
C2705 C2704 1.377 . S
C2705 C2706 1.379 . S
C2706 H2690 0.931 . S
C2706 C2700 1.383 . S
C2706 C2705 1.379 . S
H2707 C2701 0.959 . S
H2708 C2701 0.961 . S
H2709 C2701 0.960 . S
H2710 C2702 0.930 . S
H2711 C2703 0.929 . S
H2712 C2720 0.929 . S
H2713 C2722 0.930 . S
H2714 C2724 0.930 . S
H2715 C2727 0.929 . S
H2716 C2730 0.930 . S
H2717 C2732 0.960 . S
H2718 C2732 0.960 . S
H2719 C2732 0.960 . S
C2720 H2712 0.929 . S
C2720 C2721 1.377 . S
C2720 C2722 1.384 . S
C2721 C2720 1.377 . S
C2721 C2727 1.390 . S
C2722 H2713 0.930 . S
C2722 C2720 1.384 . S
C2722 C2723 1.372 . S
C2723 C2722 1.372 . S
C2723 C2724 1.400 . S
C2723 C2728 1.490 . S
C2724 H2714 0.930 . S
C2724 C2723 1.400 . S
C2724 C2727 1.386 . S
H2725 C2741 0.930 . S
H2726 C2742 0.931 . S
C2727 H2715 0.929 . S
C2727 C2721 1.390 . S
C2727 C2724 1.386 . S
C2728 C2723 1.490 . S
C2728 C2730 1.395 . S
C2728 C2731 1.403 . S
H2729 C2735 0.930 . S
C2730 H2716 0.930 . S
C2730 C2728 1.395 . S
C2730 C2733 1.403 . S
C2731 C2728 1.403 . S
C2731 C2732 1.524 . S
C2731 C2735 1.400 . S
C2732 H2717 0.960 . S
C2732 H2718 0.960 . S
C2732 H2719 0.960 . S
C2732 C2731 1.524 . S
C2733 C2730 1.403 . S
C2733 C2734 1.392 . S
C2733 C2737 1.495 . S
C2734 C2733 1.392 . S
C2734 C2735 1.385 . S
C2734 C2736 1.478 . S
C2735 H2729 0.930 . S
C2735 C2731 1.400 . S
C2735 C2734 1.385 . S
C2736 C2734 1.478 . S
C2736 C2738 1.381 . S
C2736 C2742 1.383 . S
C2737 C2733 1.495 . S
C2737 H2743 0.959 . S
C2737 H2744 0.961 . S
C2737 H2745 0.960 . S
C2738 C2736 1.381 . S
C2738 C2739 1.394 . S
C2738 H2746 0.930 . S
C2739 C2738 1.394 . S
C2739 C2740 1.383 . S
C2739 H2747 0.929 . S
C2740 C2739 1.383 . S
C2740 C2741 1.377 . S
C2741 H2725 0.930 . S
C2741 C2740 1.377 . S
C2741 C2742 1.379 . S
C2742 H2726 0.931 . S
C2742 C2736 1.383 . S
C2742 C2741 1.379 . S
H2743 C2737 0.959 . S
H2744 C2737 0.961 . S
H2745 C2737 0.960 . S
H2746 C2738 0.930 . S
H2747 C2739 0.929 . S
H2748 C2756 0.929 . S
H2749 C2758 0.930 . S
H2750 C2760 0.930 . S
H2751 C2763 0.929 . S
H2752 C2766 0.930 . S
H2753 C2768 0.960 . S
H2754 C2768 0.960 . S
H2755 C2768 0.960 . S
C2756 H2748 0.929 . S
C2756 C2757 1.377 . S
C2756 C2758 1.384 . S
C2757 C2756 1.377 . S
C2757 C2763 1.390 . S
C2758 H2749 0.930 . S
C2758 C2756 1.384 . S
C2758 C2759 1.372 . S
C2759 C2758 1.372 . S
C2759 C2760 1.400 . S
C2759 C2764 1.490 . S
C2760 H2750 0.930 . S
C2760 C2759 1.400 . S
C2760 C2763 1.386 . S
H2761 C2777 0.930 . S
H2762 C2778 0.931 . S
C2763 H2751 0.929 . S
C2763 C2757 1.390 . S
C2763 C2760 1.386 . S
C2764 C2759 1.490 . S
C2764 C2766 1.395 . S
C2764 C2767 1.403 . S
H2765 C2771 0.930 . S
C2766 H2752 0.930 . S
C2766 C2764 1.395 . S
C2766 C2769 1.403 . S
C2767 C2764 1.403 . S
C2767 C2768 1.524 . S
C2767 C2771 1.400 . S
C2768 H2753 0.960 . S
C2768 H2754 0.960 . S
C2768 H2755 0.960 . S
C2768 C2767 1.524 . S
C2769 C2766 1.403 . S
C2769 C2770 1.392 . S
C2769 C2773 1.495 . S
C2770 C2769 1.392 . S
C2770 C2771 1.385 . S
C2770 C2772 1.478 . S
C2771 H2765 0.930 . S
C2771 C2767 1.400 . S
C2771 C2770 1.385 . S
C2772 C2770 1.478 . S
C2772 C2774 1.381 . S
C2772 C2778 1.383 . S
C2773 C2769 1.495 . S
C2773 H2779 0.959 . S
C2773 H2780 0.961 . S
C2773 H2781 0.960 . S
C2774 C2772 1.381 . S
C2774 C2775 1.394 . S
C2774 H2782 0.930 . S
C2775 C2774 1.394 . S
C2775 C2776 1.383 . S
C2775 H2783 0.929 . S
C2776 C2775 1.383 . S
C2776 C2777 1.377 . S
C2777 H2761 0.930 . S
C2777 C2776 1.377 . S
C2777 C2778 1.379 . S
C2778 H2762 0.931 . S
C2778 C2772 1.383 . S
C2778 C2777 1.379 . S
H2779 C2773 0.959 . S
H2780 C2773 0.961 . S
H2781 C2773 0.960 . S
H2782 C2774 0.930 . S
H2783 C2775 0.929 . S
H2784 C2792 0.929 . S
H2785 C2794 0.930 . S
H2786 C2796 0.930 . S
H2787 C2799 0.929 . S
H2788 C2802 0.930 . S
H2789 C2804 0.960 . S
H2790 C2804 0.960 . S
H2791 C2804 0.960 . S
C2792 H2784 0.929 . S
C2792 C2793 1.377 . S
C2792 C2794 1.384 . S
C2793 C2792 1.377 . S
C2793 C2799 1.390 . S
C2794 H2785 0.930 . S
C2794 C2792 1.384 . S
C2794 C2795 1.372 . S
C2795 C2794 1.372 . S
C2795 C2796 1.400 . S
C2795 C2800 1.490 . S
C2796 H2786 0.930 . S
C2796 C2795 1.400 . S
C2796 C2799 1.386 . S
H2797 C2813 0.930 . S
H2798 C2814 0.931 . S
C2799 H2787 0.929 . S
C2799 C2793 1.390 . S
C2799 C2796 1.386 . S
C2800 C2795 1.490 . S
C2800 C2802 1.395 . S
C2800 C2803 1.403 . S
H2801 C2807 0.930 . S
C2802 H2788 0.930 . S
C2802 C2800 1.395 . S
C2802 C2805 1.403 . S
C2803 C2800 1.403 . S
C2803 C2804 1.524 . S
C2803 C2807 1.400 . S
C2804 H2789 0.960 . S
C2804 H2790 0.960 . S
C2804 H2791 0.960 . S
C2804 C2803 1.524 . S
C2805 C2802 1.403 . S
C2805 C2806 1.392 . S
C2805 C2809 1.495 . S
C2806 C2805 1.392 . S
C2806 C2807 1.385 . S
C2806 C2808 1.478 . S
C2807 H2801 0.930 . S
C2807 C2803 1.400 . S
C2807 C2806 1.385 . S
C2808 C2806 1.478 . S
C2808 C2810 1.381 . S
C2808 C2814 1.383 . S
C2809 C2805 1.495 . S
C2809 H2815 0.959 . S
C2809 H2816 0.961 . S
C2809 H2817 0.960 . S
C2810 C2808 1.381 . S
C2810 C2811 1.394 . S
C2810 H2818 0.930 . S
C2811 C2810 1.394 . S
C2811 C2812 1.383 . S
C2811 H2819 0.929 . S
C2812 C2811 1.383 . S
C2812 C2813 1.377 . S
C2813 H2797 0.930 . S
C2813 C2812 1.377 . S
C2813 C2814 1.379 . S
C2814 H2798 0.931 . S
C2814 C2808 1.383 . S
C2814 C2813 1.379 . S
H2815 C2809 0.959 . S
H2816 C2809 0.961 . S
H2817 C2809 0.960 . S
H2818 C2810 0.930 . S
H2819 C2811 0.929 . S
H2820 C2828 0.929 . S
H2821 C2830 0.930 . S
H2822 C2832 0.930 . S
H2823 C2835 0.929 . S
H2824 C2838 0.930 . S
H2825 C2840 0.960 . S
H2826 C2840 0.960 . S
H2827 C2840 0.960 . S
C2828 H2820 0.929 . S
C2828 C2829 1.377 . S
C2828 C2830 1.384 . S
C2829 C2828 1.377 . S
C2829 C2835 1.390 . S
C2830 H2821 0.930 . S
C2830 C2828 1.384 . S
C2830 C2831 1.372 . S
C2831 C2830 1.372 . S
C2831 C2832 1.400 . S
C2831 C2836 1.490 . S
C2832 H2822 0.930 . S
C2832 C2831 1.400 . S
C2832 C2835 1.386 . S
H2833 C2849 0.930 . S
H2834 C2850 0.931 . S
C2835 H2823 0.929 . S
C2835 C2829 1.390 . S
C2835 C2832 1.386 . S
C2836 C2831 1.490 . S
C2836 C2838 1.395 1_655 S
C2836 C2839 1.403 . S
H2837 C2843 0.931 . S
C2838 H2824 0.930 . S
C2838 C2836 1.395 1_455 S
C2838 C2841 1.403 . S
C2839 C2836 1.403 . S
C2839 C2840 1.524 . S
C2839 C2843 1.409 . S
C2840 H2825 0.960 . S
C2840 H2826 0.960 . S
C2840 H2827 0.960 . S
C2840 C2839 1.524 . S
C2841 C2838 1.403 . S
C2841 C2842 1.392 . S
C2841 C2845 1.495 . S
C2842 C2841 1.392 . S
C2842 C2843 1.376 1_455 S
C2842 C2844 1.478 . S
C2843 H2837 0.931 . S
C2843 C2839 1.409 . S
C2843 C2842 1.376 1_655 S
C2844 C2842 1.478 . S
C2844 C2846 1.381 . S
C2844 C2850 1.383 . S
C2845 C2841 1.495 . S
C2845 H2851 0.959 . S
C2845 H2852 0.961 . S
C2845 H2853 0.960 . S
C2846 C2844 1.381 . S
C2846 C2847 1.394 . S
C2846 H2854 0.930 . S
C2847 C2846 1.394 . S
C2847 C2848 1.383 . S
C2847 H2855 0.929 . S
C2848 C2847 1.383 . S
C2848 C2849 1.377 . S
C2849 H2833 0.930 . S
C2849 C2848 1.377 . S
C2849 C2850 1.379 . S
C2850 H2834 0.931 . S
C2850 C2844 1.383 . S
C2850 C2849 1.379 . S
H2851 C2845 0.959 . S
H2852 C2845 0.961 . S
H2853 C2845 0.960 . S
H2854 C2846 0.930 . S
H2855 C2847 0.929 . S
H2856 C2864 0.929 . S
H2857 C2866 0.930 . S
H2858 C2868 0.930 . S
H2859 C2871 0.929 . S
H2860 C2874 0.930 . S
H2861 C2876 0.960 . S
H2862 C2876 0.960 . S
H2863 C2876 0.960 1_655 S
C2864 H2856 0.929 . S
C2864 C2865 1.377 . S
C2864 C2866 1.384 . S
C2865 C2864 1.377 . S
C2865 C2871 1.390 . S
C2866 H2857 0.930 . S
C2866 C2864 1.384 . S
C2866 C2867 1.372 . S
C2867 C2866 1.372 . S
C2867 C2868 1.400 . S
C2867 C2872 1.490 . S
C2868 H2858 0.930 . S
C2868 C2867 1.400 . S
C2868 C2871 1.386 . S
H2869 C2885 0.930 . S
H2870 C2886 0.931 . S
C2871 H2859 0.929 . S
C2871 C2865 1.390 . S
C2871 C2868 1.386 . S
C2872 C2867 1.490 . S
C2872 C2874 1.395 . S
C2872 C2875 1.384 1_655 S
H2873 C2879 0.930 . S
C2874 H2860 0.930 . S
C2874 C2872 1.395 . S
C2874 C2877 1.432 . S
C2875 C2872 1.384 1_455 S
C2875 C2876 1.526 . S
C2875 C2879 1.417 . S
C2876 H2861 0.960 . S
C2876 H2862 0.960 . S
C2876 H2863 0.960 1_455 S
C2876 C2875 1.526 . S
C2877 C2874 1.432 . S
C2877 C2878 1.363 1_655 S
C2877 C2881 1.498 . S
C2878 C2877 1.363 1_455 S
C2878 C2879 1.385 . S
C2878 C2880 1.478 . S
C2879 H2873 0.930 . S
C2879 C2875 1.417 . S
C2879 C2878 1.385 . S
C2880 C2878 1.478 . S
C2880 C2882 1.381 . S
C2880 C2886 1.383 . S
C2881 C2877 1.498 . S
C2881 H2887 0.959 . S
C2881 H2888 0.961 . S
C2881 H2889 0.960 1_655 S
C2882 C2880 1.381 . S
C2882 C2883 1.394 . S
C2882 H2890 0.930 . S
C2883 C2882 1.394 . S
C2883 C2884 1.383 . S
C2883 H2891 0.929 . S
C2884 C2883 1.383 . S
C2884 C2885 1.377 . S
C2885 H2869 0.930 . S
C2885 C2884 1.377 . S
C2885 C2886 1.379 . S
C2886 H2870 0.931 . S
C2886 C2880 1.383 . S
C2886 C2885 1.379 . S
H2887 C2881 0.959 . S
H2888 C2881 0.961 . S
H2889 C2881 0.960 1_455 S
H2890 C2882 0.930 . S
H2891 C2883 0.929 . S
H2892 C2900 0.929 . S
H2893 C2902 0.930 . S
H2894 C2904 0.930 . S
H2895 C2907 0.929 . S
H2896 C2910 0.930 . S
H2897 C2912 0.960 . S
H2898 C2912 0.960 . S
H2899 C2912 0.960 . S
C2900 H2892 0.929 . S
C2900 C2901 1.377 . S
C2900 C2902 1.384 . S
C2901 C2900 1.377 . S
C2901 C2907 1.390 . S
C2902 H2893 0.930 . S
C2902 C2900 1.384 . S
C2902 C2903 1.372 . S
C2903 C2902 1.372 . S
C2903 C2904 1.400 . S
C2903 C2908 1.490 . S
C2904 H2894 0.930 . S
C2904 C2903 1.400 . S
C2904 C2907 1.386 . S
H2905 C2921 0.930 . S
H2906 C2922 0.931 . S
C2907 H2895 0.929 . S
C2907 C2901 1.390 . S
C2907 C2904 1.386 . S
C2908 C2903 1.490 . S
C2908 C2910 1.395 . S
C2908 C2911 1.403 . S
H2909 C2915 0.930 . S
C2910 H2896 0.930 . S
C2910 C2908 1.395 . S
C2910 C2913 1.403 . S
C2911 C2908 1.403 . S
C2911 C2912 1.524 . S
C2911 C2915 1.400 . S
C2912 H2897 0.960 . S
C2912 H2898 0.960 . S
C2912 H2899 0.960 . S
C2912 C2911 1.524 . S
C2913 C2910 1.403 . S
C2913 C2914 1.392 . S
C2913 C2917 1.495 . S
C2914 C2913 1.392 . S
C2914 C2915 1.385 . S
C2914 C2916 1.478 . S
C2915 H2909 0.930 . S
C2915 C2911 1.400 . S
C2915 C2914 1.385 . S
C2916 C2914 1.478 . S
C2916 C2918 1.381 . S
C2916 C2922 1.383 . S
C2917 C2913 1.495 . S
C2917 H2923 0.959 . S
C2917 H2924 0.961 . S
C2917 H2925 0.960 . S
C2918 C2916 1.381 . S
C2918 C2919 1.394 . S
C2918 H2926 0.930 . S
C2919 C2918 1.394 . S
C2919 C2920 1.383 . S
C2919 H2927 0.929 . S
C2920 C2919 1.383 . S
C2920 C2921 1.377 . S
C2921 H2905 0.930 . S
C2921 C2920 1.377 . S
C2921 C2922 1.379 . S
C2922 H2906 0.931 . S
C2922 C2916 1.383 . S
C2922 C2921 1.379 . S
H2923 C2917 0.959 . S
H2924 C2917 0.961 . S
H2925 C2917 0.960 . S
H2926 C2918 0.930 . S
H2927 C2919 0.929 . S
H2928 C2936 0.929 . S
H2929 C2938 0.930 . S
H2930 C2940 0.930 . S
H2931 C2943 0.929 . S
H2932 C2946 0.930 . S
H2933 C2948 0.960 . S
H2934 C2948 0.960 . S
H2935 C2948 0.960 . S
C2936 H2928 0.929 . S
C2936 C2937 1.377 . S
C2936 C2938 1.384 . S
C2937 C2936 1.377 . S
C2937 C2943 1.390 . S
C2938 H2929 0.930 . S
C2938 C2936 1.384 . S
C2938 C2939 1.372 . S
C2939 C2938 1.372 . S
C2939 C2940 1.400 . S
C2939 C2944 1.490 . S
C2940 H2930 0.930 . S
C2940 C2939 1.400 . S
C2940 C2943 1.386 . S
H2941 C2957 0.930 . S
H2942 C2958 0.931 . S
C2943 H2931 0.929 . S
C2943 C2937 1.390 . S
C2943 C2940 1.386 . S
C2944 C2939 1.490 . S
C2944 C2946 1.395 . S
C2944 C2947 1.403 . S
H2945 C2951 0.930 . S
C2946 H2932 0.930 . S
C2946 C2944 1.395 . S
C2946 C2949 1.403 . S
C2947 C2944 1.403 . S
C2947 C2948 1.524 . S
C2947 C2951 1.400 . S
C2948 H2933 0.960 . S
C2948 H2934 0.960 . S
C2948 H2935 0.960 . S
C2948 C2947 1.524 . S
C2949 C2946 1.403 . S
C2949 C2950 1.392 . S
C2949 C2953 1.495 . S
C2950 C2949 1.392 . S
C2950 C2951 1.385 . S
C2950 C2952 1.478 . S
C2951 H2945 0.930 . S
C2951 C2947 1.400 . S
C2951 C2950 1.385 . S
C2952 C2950 1.478 . S
C2952 C2954 1.381 . S
C2952 C2958 1.383 . S
C2953 C2949 1.495 . S
C2953 H2959 0.959 . S
C2953 H2960 0.961 . S
C2953 H2961 0.960 . S
C2954 C2952 1.381 . S
C2954 C2955 1.394 . S
C2954 H2962 0.930 . S
C2955 C2954 1.394 . S
C2955 C2956 1.383 . S
C2955 H2963 0.929 . S
C2956 C2955 1.383 . S
C2956 C2957 1.377 . S
C2957 H2941 0.930 . S
C2957 C2956 1.377 . S
C2957 C2958 1.379 . S
C2958 H2942 0.931 . S
C2958 C2952 1.383 . S
C2958 C2957 1.379 . S
H2959 C2953 0.959 . S
H2960 C2953 0.961 . S
H2961 C2953 0.960 . S
H2962 C2954 0.930 . S
H2963 C2955 0.929 . S
H2964 C2972 0.929 . S
H2965 C2974 0.930 . S
H2966 C2976 0.930 . S
H2967 C2979 0.929 . S
H2968 C2982 0.930 . S
H2969 C2984 0.960 . S
H2970 C2984 0.960 . S
H2971 C2984 0.960 . S
C2972 H2964 0.929 . S
C2972 C2973 1.377 . S
C2972 C2974 1.384 . S
C2973 C2972 1.377 . S
C2973 C2979 1.390 . S
C2974 H2965 0.930 . S
C2974 C2972 1.384 . S
C2974 C2975 1.372 . S
C2975 C2974 1.372 . S
C2975 C2976 1.400 . S
C2975 C2980 1.490 . S
C2976 H2966 0.930 . S
C2976 C2975 1.400 . S
C2976 C2979 1.386 . S
H2977 C2993 0.930 . S
H2978 C2994 0.931 . S
C2979 H2967 0.929 . S
C2979 C2973 1.390 . S
C2979 C2976 1.386 . S
C2980 C2975 1.490 . S
C2980 C2982 1.395 . S
C2980 C2983 1.403 . S
H2981 C2987 0.930 . S
C2982 H2968 0.930 . S
C2982 C2980 1.395 . S
C2982 C2985 1.403 . S
C2983 C2980 1.403 . S
C2983 C2984 1.524 . S
C2983 C2987 1.400 . S
C2984 H2969 0.960 . S
C2984 H2970 0.960 . S
C2984 H2971 0.960 . S
C2984 C2983 1.524 . S
C2985 C2982 1.403 . S
C2985 C2986 1.392 . S
C2985 C2989 1.495 . S
C2986 C2985 1.392 . S
C2986 C2987 1.385 . S
C2986 C2988 1.478 . S
C2987 H2981 0.930 . S
C2987 C2983 1.400 . S
C2987 C2986 1.385 . S
C2988 C2986 1.478 . S
C2988 C2990 1.381 . S
C2988 C2994 1.383 . S
C2989 C2985 1.495 . S
C2989 H2995 0.959 . S
C2989 H2996 0.961 . S
C2989 H2997 0.960 . S
C2990 C2988 1.381 . S
C2990 C2991 1.394 . S
C2990 H2998 0.930 . S
C2991 C2990 1.394 . S
C2991 C2992 1.383 . S
C2991 H2999 0.929 . S
C2992 C2991 1.383 . S
C2992 C2993 1.377 . S
C2993 H2977 0.930 . S
C2993 C2992 1.377 . S
C2993 C2994 1.379 . S
C2994 H2978 0.931 . S
C2994 C2988 1.383 . S
C2994 C2993 1.379 . S
H2995 C2989 0.959 . S
H2996 C2989 0.961 . S
H2997 C2989 0.960 . S
H2998 C2990 0.930 . S
H2999 C2991 0.929 . S
H3000 C3008 0.929 . S
H3001 C3010 0.930 . S
H3002 C3012 0.930 . S
H3003 C3015 0.929 . S
H3004 C3018 0.930 . S
H3005 C3020 0.960 . S
H3006 C3020 0.960 . S
H3007 C3020 0.960 . S
C3008 H3000 0.929 . S
C3008 C3009 1.377 . S
C3008 C3010 1.384 . S
C3009 C3008 1.377 . S
C3009 C3015 1.390 . S
C3010 H3001 0.930 . S
C3010 C3008 1.384 . S
C3010 C3011 1.372 . S
C3011 C3010 1.372 . S
C3011 C3012 1.400 . S
C3011 C3016 1.490 . S
C3012 H3002 0.930 . S
C3012 C3011 1.400 . S
C3012 C3015 1.386 . S
H3013 C3029 0.930 . S
H3014 C3030 0.931 . S
C3015 H3003 0.929 . S
C3015 C3009 1.390 . S
C3015 C3012 1.386 . S
C3016 C3011 1.490 . S
C3016 C3018 1.395 . S
C3016 C3019 1.403 1_455 S
H3017 C3023 0.930 . S
C3018 H3004 0.930 . S
C3018 C3016 1.395 . S
C3018 C3021 1.403 . S
C3019 C3016 1.403 1_655 S
C3019 C3020 1.524 . S
C3019 C3023 1.400 . S
C3020 H3005 0.960 . S
C3020 H3006 0.960 . S
C3020 H3007 0.960 . S
C3020 C3019 1.524 . S
C3021 C3018 1.403 . S
C3021 C3022 1.392 1_455 S
C3021 C3025 1.495 . S
C3022 C3021 1.392 1_655 S
C3022 C3023 1.385 . S
C3022 C3024 1.478 . S
C3023 H3017 0.930 . S
C3023 C3019 1.400 . S
C3023 C3022 1.385 . S
C3024 C3022 1.478 . S
C3024 C3026 1.381 . S
C3024 C3030 1.383 . S
C3025 C3021 1.495 . S
C3025 H3031 0.959 . S
C3025 H3032 0.961 . S
C3025 H3033 0.960 . S
C3026 C3024 1.381 . S
C3026 C3027 1.394 . S
C3026 H3034 0.930 . S
C3027 C3026 1.394 . S
C3027 C3028 1.383 . S
C3027 H3035 0.929 . S
C3028 C3027 1.383 . S
C3028 C3029 1.377 . S
C3029 H3013 0.930 . S
C3029 C3028 1.377 . S
C3029 C3030 1.379 . S
C3030 H3014 0.931 . S
C3030 C3024 1.383 . S
C3030 C3029 1.379 . S
H3031 C3025 0.959 . S
H3032 C3025 0.961 . S
H3033 C3025 0.960 . S
H3034 C3026 0.930 . S
H3035 C3027 0.929 . S
H3036 C3044 0.929 . S
H3037 C3046 0.930 . S
H3038 C3048 0.930 . S
H3039 C3051 0.929 . S
H3040 C3054 0.930 . S
H3041 C3056 0.960 . S
H3042 C3056 0.960 . S
H3043 C3056 0.960 . S
C3044 H3036 0.929 . S
C3044 C3045 1.377 . S
C3044 C3046 1.384 . S
C3045 C3044 1.377 . S
C3045 C3051 1.390 . S
C3046 H3037 0.930 . S
C3046 C3044 1.384 . S
C3046 C3047 1.372 . S
C3047 C3046 1.372 . S
C3047 C3048 1.400 . S
C3047 C3052 1.490 . S
C3048 H3038 0.930 . S
C3048 C3047 1.400 . S
C3048 C3051 1.386 . S
H3049 C3065 0.930 . S
H3050 C3066 0.931 . S
C3051 H3039 0.929 . S
C3051 C3045 1.390 . S
C3051 C3048 1.386 . S
C3052 C3047 1.490 . S
C3052 C3054 1.395 1_655 S
C3052 C3055 1.403 . S
H3053 C3059 0.930 . S
C3054 H3040 0.930 . S
C3054 C3052 1.395 1_455 S
C3054 C3057 1.403 . S
C3055 C3052 1.403 . S
C3055 C3056 1.524 . S
C3055 C3059 1.400 . S
C3056 H3041 0.960 . S
C3056 H3042 0.960 . S
C3056 H3043 0.960 . S
C3056 C3055 1.524 . S
C3057 C3054 1.403 . S
C3057 C3058 1.392 . S
C3057 C3061 1.495 . S
C3058 C3057 1.392 . S
C3058 C3059 1.385 1_455 S
C3058 C3060 1.478 . S
C3059 H3053 0.930 . S
C3059 C3055 1.400 . S
C3059 C3058 1.385 1_655 S
C3060 C3058 1.478 . S
C3060 C3062 1.381 . S
C3060 C3066 1.383 . S
C3061 C3057 1.495 . S
C3061 H3067 0.959 . S
C3061 H3068 0.961 . S
C3061 H3069 0.960 . S
C3062 C3060 1.381 . S
C3062 C3063 1.394 . S
C3062 H3070 0.930 . S
C3063 C3062 1.394 . S
C3063 C3064 1.383 . S
C3063 H3071 0.929 . S
C3064 C3063 1.383 . S
C3064 C3065 1.377 . S
C3065 H3049 0.930 . S
C3065 C3064 1.377 . S
C3065 C3066 1.379 . S
C3066 H3050 0.931 . S
C3066 C3060 1.383 . S
C3066 C3065 1.379 . S
H3067 C3061 0.959 . S
H3068 C3061 0.961 . S
H3069 C3061 0.960 . S
H3070 C3062 0.930 . S
H3071 C3063 0.929 . S
H3072 C3080 0.929 . S
H3073 C3082 0.930 . S
H3074 C3084 0.930 . S
H3075 C3087 0.929 . S
H3076 C3090 0.930 . S
H3077 C3092 0.960 . S
H3078 C3092 0.960 . S
H3079 C3092 0.960 . S
C3080 H3072 0.929 . S
C3080 C3081 1.377 . S
C3080 C3082 1.384 . S
C3081 C3080 1.377 . S
C3081 C3087 1.390 . S
C3082 H3073 0.930 . S
C3082 C3080 1.384 . S
C3082 C3083 1.372 . S
C3083 C3082 1.372 . S
C3083 C3084 1.400 . S
C3083 C3088 1.490 . S
C3084 H3074 0.930 . S
C3084 C3083 1.400 . S
C3084 C3087 1.386 . S
H3085 C3101 0.930 . S
H3086 C3102 0.931 . S
C3087 H3075 0.929 . S
C3087 C3081 1.390 . S
C3087 C3084 1.386 . S
C3088 C3083 1.490 . S
C3088 C3090 1.395 . S
C3088 C3091 1.403 . S
H3089 C3095 0.930 . S
C3090 H3076 0.930 . S
C3090 C3088 1.395 . S
C3090 C3093 1.403 . S
C3091 C3088 1.403 . S
C3091 C3092 1.524 . S
C3091 C3095 1.400 . S
C3092 H3077 0.960 . S
C3092 H3078 0.960 . S
C3092 H3079 0.960 . S
C3092 C3091 1.524 . S
C3093 C3090 1.403 . S
C3093 C3094 1.392 . S
C3093 C3097 1.495 . S
C3094 C3093 1.392 . S
C3094 C3095 1.385 . S
C3094 C3096 1.478 . S
C3095 H3089 0.930 . S
C3095 C3091 1.400 . S
C3095 C3094 1.385 . S
C3096 C3094 1.478 . S
C3096 C3098 1.381 . S
C3096 C3102 1.383 . S
C3097 C3093 1.495 . S
C3097 H3103 0.959 . S
C3097 H3104 0.961 . S
C3097 H3105 0.960 . S
C3098 C3096 1.381 . S
C3098 C3099 1.394 . S
C3098 H3106 0.930 . S
C3099 C3098 1.394 . S
C3099 C3100 1.383 . S
C3099 H3107 0.929 . S
C3100 C3099 1.383 . S
C3100 C3101 1.377 . S
C3101 H3085 0.930 . S
C3101 C3100 1.377 . S
C3101 C3102 1.379 . S
C3102 H3086 0.931 . S
C3102 C3096 1.383 . S
C3102 C3101 1.379 . S
H3103 C3097 0.959 . S
H3104 C3097 0.961 . S
H3105 C3097 0.960 . S
H3106 C3098 0.930 . S
H3107 C3099 0.929 . S
H3108 C3116 0.929 . S
H3109 C3118 0.930 . S
H3110 C3120 0.930 . S
H3111 C3123 0.929 . S
H3112 C3126 0.930 . S
H3113 C3128 0.960 . S
H3114 C3128 0.960 . S
H3115 C3128 0.960 . S
C3116 H3108 0.929 . S
C3116 C3117 1.377 . S
C3116 C3118 1.384 . S
C3117 C3116 1.377 . S
C3117 C3123 1.390 . S
C3118 H3109 0.930 . S
C3118 C3116 1.384 . S
C3118 C3119 1.372 . S
C3119 C3118 1.372 . S
C3119 C3120 1.400 . S
C3119 C3124 1.490 . S
C3120 H3110 0.930 . S
C3120 C3119 1.400 . S
C3120 C3123 1.386 . S
H3121 C3137 0.930 . S
H3122 C3138 0.931 . S
C3123 H3111 0.929 . S
C3123 C3117 1.390 . S
C3123 C3120 1.386 . S
C3124 C3119 1.490 . S
C3124 C3126 1.395 1_655 S
C3124 C3127 1.403 . S
H3125 C3131 0.930 . S
C3126 H3112 0.930 . S
C3126 C3124 1.395 1_455 S
C3126 C3129 1.403 . S
C3127 C3124 1.403 . S
C3127 C3128 1.524 . S
C3127 C3131 1.400 . S
C3128 H3113 0.960 . S
C3128 H3114 0.960 . S
C3128 H3115 0.960 . S
C3128 C3127 1.524 . S
C3129 C3126 1.403 . S
C3129 C3130 1.392 . S
C3129 C3133 1.495 . S
C3130 C3129 1.392 . S
C3130 C3131 1.385 1_455 S
C3130 C3132 1.478 . S
C3131 H3125 0.930 . S
C3131 C3127 1.400 . S
C3131 C3130 1.385 1_655 S
C3132 C3130 1.478 . S
C3132 C3134 1.381 . S
C3132 C3138 1.383 . S
C3133 C3129 1.495 . S
C3133 H3139 0.959 . S
C3133 H3140 0.961 . S
C3133 H3141 0.960 . S
C3134 C3132 1.381 . S
C3134 C3135 1.394 . S
C3134 H3142 0.930 . S
C3135 C3134 1.394 . S
C3135 C3136 1.383 . S
C3135 H3143 0.929 . S
C3136 C3135 1.383 . S
C3136 C3137 1.377 . S
C3137 H3121 0.930 . S
C3137 C3136 1.377 . S
C3137 C3138 1.379 . S
C3138 H3122 0.931 . S
C3138 C3132 1.383 . S
C3138 C3137 1.379 . S
H3139 C3133 0.959 . S
H3140 C3133 0.961 . S
H3141 C3133 0.960 . S
H3142 C3134 0.930 . S
H3143 C3135 0.929 . S
H3144 C3152 0.929 . S
H3145 C3154 0.930 . S
H3146 C3156 0.930 . S
H3147 C3159 0.929 . S
H3148 C3162 0.930 . S
H3149 C3164 0.960 . S
H3150 C3164 0.960 . S
H3151 C3164 0.960 . S
C3152 H3144 0.929 . S
C3152 C3153 1.377 . S
C3152 C3154 1.384 . S
C3153 C3152 1.377 . S
C3153 C3159 1.390 . S
C3154 H3145 0.930 . S
C3154 C3152 1.384 . S
C3154 C3155 1.372 . S
C3155 C3154 1.372 . S
C3155 C3156 1.400 . S
C3155 C3160 1.490 . S
C3156 H3146 0.930 . S
C3156 C3155 1.400 . S
C3156 C3159 1.386 . S
H3157 C3173 0.930 . S
H3158 C3174 0.931 . S
C3159 H3147 0.929 . S
C3159 C3153 1.390 . S
C3159 C3156 1.386 . S
C3160 C3155 1.490 . S
C3160 C3162 1.395 . S
C3160 C3163 1.403 . S
H3161 C3167 0.930 . S
C3162 H3148 0.930 . S
C3162 C3160 1.395 . S
C3162 C3165 1.403 1_655 S
C3163 C3160 1.403 . S
C3163 C3164 1.524 . S
C3163 C3167 1.400 1_655 S
C3164 H3149 0.960 . S
C3164 H3150 0.960 . S
C3164 H3151 0.960 . S
C3164 C3163 1.524 . S
C3165 C3162 1.403 1_455 S
C3165 C3166 1.392 . S
C3165 C3169 1.495 . S
C3166 C3165 1.392 . S
C3166 C3167 1.385 . S
C3166 C3168 1.478 . S
C3167 H3161 0.930 . S
C3167 C3163 1.400 1_455 S
C3167 C3166 1.385 . S
C3168 C3166 1.478 . S
C3168 C3170 1.381 . S
C3168 C3174 1.383 . S
C3169 C3165 1.495 . S
C3169 H3175 0.959 . S
C3169 H3176 0.961 . S
C3169 H3177 0.960 . S
C3170 C3168 1.381 . S
C3170 C3171 1.394 . S
C3170 H3178 0.930 . S
C3171 C3170 1.394 . S
C3171 C3172 1.383 . S
C3171 H3179 0.929 . S
C3172 C3171 1.383 . S
C3172 C3173 1.377 . S
C3173 H3157 0.930 . S
C3173 C3172 1.377 . S
C3173 C3174 1.379 . S
C3174 H3158 0.931 . S
C3174 C3168 1.383 . S
C3174 C3173 1.379 . S
H3175 C3169 0.959 . S
H3176 C3169 0.961 . S
H3177 C3169 0.960 . S
H3178 C3170 0.930 . S
H3179 C3171 0.929 . S
H3180 C3188 0.929 . S
H3181 C3190 0.930 . S
H3182 C3192 0.930 . S
H3183 C3195 0.929 . S
H3184 C3198 0.930 . S
H3185 C3200 0.960 . S
H3186 C3200 0.960 . S
H3187 C3200 0.960 . S
C3188 H3180 0.929 . S
C3188 C3189 1.377 . S
C3188 C3190 1.384 . S
C3189 C3188 1.377 . S
C3189 C3195 1.390 . S
C3190 H3181 0.930 . S
C3190 C3188 1.384 . S
C3190 C3191 1.372 . S
C3191 C3190 1.372 . S
C3191 C3192 1.400 . S
C3191 C3196 1.490 . S
C3192 H3182 0.930 . S
C3192 C3191 1.400 . S
C3192 C3195 1.386 . S
H3193 C3209 0.930 . S
H3194 C3210 0.931 . S
C3195 H3183 0.929 . S
C3195 C3189 1.390 . S
C3195 C3192 1.386 . S
C3196 C3191 1.490 . S
C3196 C3198 1.395 . S
C3196 C3199 1.403 . S
H3197 C3203 0.930 . S
C3198 H3184 0.930 . S
C3198 C3196 1.395 . S
C3198 C3201 1.403 . S
C3199 C3196 1.403 . S
C3199 C3200 1.524 . S
C3199 C3203 1.400 . S
C3200 H3185 0.960 . S
C3200 H3186 0.960 . S
C3200 H3187 0.960 . S
C3200 C3199 1.524 . S
C3201 C3198 1.403 . S
C3201 C3202 1.392 . S
C3201 C3205 1.495 . S
C3202 C3201 1.392 . S
C3202 C3203 1.385 . S
C3202 C3204 1.478 . S
C3203 H3197 0.930 . S
C3203 C3199 1.400 . S
C3203 C3202 1.385 . S
C3204 C3202 1.478 . S
C3204 C3206 1.381 . S
C3204 C3210 1.383 . S
C3205 C3201 1.495 . S
C3205 H3211 0.959 . S
C3205 H3212 0.961 . S
C3205 H3213 0.960 . S
C3206 C3204 1.381 . S
C3206 C3207 1.394 . S
C3206 H3214 0.930 . S
C3207 C3206 1.394 . S
C3207 C3208 1.383 . S
C3207 H3215 0.929 . S
C3208 C3207 1.383 . S
C3208 C3209 1.377 . S
C3209 H3193 0.930 . S
C3209 C3208 1.377 . S
C3209 C3210 1.379 . S
C3210 H3194 0.931 . S
C3210 C3204 1.383 . S
C3210 C3209 1.379 . S
H3211 C3205 0.959 . S
H3212 C3205 0.961 . S
H3213 C3205 0.960 . S
H3214 C3206 0.930 . S
H3215 C3207 0.929 . S
H3216 C3224 0.929 . S
H3217 C3226 0.930 . S
H3218 C3228 0.930 . S
H3219 C3231 0.929 . S
H3220 C3234 0.930 . S
H3221 C3236 0.960 . S
H3222 C3236 0.960 . S
H3223 C3236 0.960 . S
C3224 H3216 0.929 . S
C3224 C3225 1.377 . S
C3224 C3226 1.384 . S
C3225 C3224 1.377 . S
C3225 C3231 1.390 . S
C3226 H3217 0.930 . S
C3226 C3224 1.384 . S
C3226 C3227 1.372 . S
C3227 C3226 1.372 . S
C3227 C3228 1.400 . S
C3227 C3232 1.490 . S
C3228 H3218 0.930 . S
C3228 C3227 1.400 . S
C3228 C3231 1.386 . S
H3229 C3245 0.930 . S
H3230 C3246 0.931 . S
C3231 H3219 0.929 . S
C3231 C3225 1.390 . S
C3231 C3228 1.386 . S
C3232 C3227 1.490 . S
C3232 C3234 1.395 . S
C3232 C3235 1.403 . S
H3233 C3239 0.930 . S
C3234 H3220 0.930 . S
C3234 C3232 1.395 . S
C3234 C3237 1.403 . S
C3235 C3232 1.403 . S
C3235 C3236 1.524 . S
C3235 C3239 1.400 . S
C3236 H3221 0.960 . S
C3236 H3222 0.960 . S
C3236 H3223 0.960 . S
C3236 C3235 1.524 . S
C3237 C3234 1.403 . S
C3237 C3238 1.392 . S
C3237 C3241 1.495 . S
C3238 C3237 1.392 . S
C3238 C3239 1.385 . S
C3238 C3240 1.478 . S
C3239 H3233 0.930 . S
C3239 C3235 1.400 . S
C3239 C3238 1.385 . S
C3240 C3238 1.478 . S
C3240 C3242 1.381 . S
C3240 C3246 1.383 . S
C3241 C3237 1.495 . S
C3241 H3247 0.959 . S
C3241 H3248 0.961 . S
C3241 H3249 0.960 . S
C3242 C3240 1.381 . S
C3242 C3243 1.394 . S
C3242 H3250 0.930 . S
C3243 C3242 1.394 . S
C3243 C3244 1.383 . S
C3243 H3251 0.929 . S
C3244 C3243 1.383 . S
C3244 C3245 1.377 . S
C3245 H3229 0.930 . S
C3245 C3244 1.377 . S
C3245 C3246 1.379 . S
C3246 H3230 0.931 . S
C3246 C3240 1.383 . S
C3246 C3245 1.379 . S
H3247 C3241 0.959 . S
H3248 C3241 0.961 . S
H3249 C3241 0.960 . S
H3250 C3242 0.930 . S
H3251 C3243 0.929 . S
H3252 C3260 0.929 . S
H3253 C3262 0.930 . S
H3254 C3264 0.930 . S
H3255 C3267 0.929 . S
H3256 C3270 0.930 . S
H3257 C3272 0.960 . S
H3258 C3272 0.960 . S
H3259 C3272 0.960 . S
C3260 H3252 0.929 . S
C3260 C3261 1.377 . S
C3260 C3262 1.384 . S
C3261 C3260 1.377 . S
C3261 C3267 1.390 . S
C3262 H3253 0.930 . S
C3262 C3260 1.384 . S
C3262 C3263 1.372 . S
C3263 C3262 1.372 . S
C3263 C3264 1.400 . S
C3263 C3268 1.490 . S
C3264 H3254 0.930 . S
C3264 C3263 1.400 . S
C3264 C3267 1.386 . S
H3265 C3281 0.930 . S
H3266 C3282 0.931 . S
C3267 H3255 0.929 . S
C3267 C3261 1.390 . S
C3267 C3264 1.386 . S
C3268 C3263 1.490 . S
C3268 C3270 1.395 . S
C3268 C3271 1.403 . S
H3269 C3275 0.930 . S
C3270 H3256 0.930 . S
C3270 C3268 1.395 . S
C3270 C3273 1.403 . S
C3271 C3268 1.403 . S
C3271 C3272 1.524 . S
C3271 C3275 1.400 . S
C3272 H3257 0.960 . S
C3272 H3258 0.960 . S
C3272 H3259 0.960 . S
C3272 C3271 1.524 . S
C3273 C3270 1.403 . S
C3273 C3274 1.392 . S
C3273 C3277 1.495 . S
C3274 C3273 1.392 . S
C3274 C3275 1.385 . S
C3274 C3276 1.478 . S
C3275 H3269 0.930 . S
C3275 C3271 1.400 . S
C3275 C3274 1.385 . S
C3276 C3274 1.478 . S
C3276 C3278 1.381 . S
C3276 C3282 1.383 . S
C3277 C3273 1.495 . S
C3277 H3283 0.959 . S
C3277 H3284 0.961 . S
C3277 H3285 0.960 . S
C3278 C3276 1.381 . S
C3278 C3279 1.394 . S
C3278 H3286 0.930 . S
C3279 C3278 1.394 . S
C3279 C3280 1.383 . S
C3279 H3287 0.929 . S
C3280 C3279 1.383 . S
C3280 C3281 1.377 . S
C3281 H3265 0.930 . S
C3281 C3280 1.377 . S
C3281 C3282 1.379 . S
C3282 H3266 0.931 . S
C3282 C3276 1.383 . S
C3282 C3281 1.379 . S
H3283 C3277 0.959 . S
H3284 C3277 0.961 . S
H3285 C3277 0.960 . S
H3286 C3278 0.930 . S
H3287 C3279 0.929 . S
H3288 C3296 0.929 . S
H3289 C3298 0.930 . S
H3290 C3300 0.930 . S
H3291 C3303 0.929 . S
H3292 C3306 0.930 . S
H3293 C3308 0.960 . S
H3294 C3308 0.960 . S
H3295 C3308 0.960 . S
C3296 H3288 0.929 . S
C3296 C3297 1.377 . S
C3296 C3298 1.384 . S
C3297 C3296 1.377 . S
C3297 C3303 1.390 . S
C3298 H3289 0.930 . S
C3298 C3296 1.384 . S
C3298 C3299 1.372 . S
C3299 C3298 1.372 . S
C3299 C3300 1.400 . S
C3299 C3304 1.490 . S
C3300 H3290 0.930 . S
C3300 C3299 1.400 . S
C3300 C3303 1.386 . S
H3301 C3317 0.930 . S
H3302 C3318 0.931 . S
C3303 H3291 0.929 . S
C3303 C3297 1.390 . S
C3303 C3300 1.386 . S
C3304 C3299 1.490 . S
C3304 C3306 1.395 . S
C3304 C3307 1.403 1_655 S
H3305 C3311 0.930 . S
C3306 H3292 0.930 . S
C3306 C3304 1.395 . S
C3306 C3309 1.403 . S
C3307 C3304 1.403 1_455 S
C3307 C3308 1.524 . S
C3307 C3311 1.400 . S
C3308 H3293 0.960 . S
C3308 H3294 0.960 . S
C3308 H3295 0.960 . S
C3308 C3307 1.524 . S
C3309 C3306 1.403 . S
C3309 C3310 1.392 1_655 S
C3309 C3313 1.495 . S
C3310 C3309 1.392 1_455 S
C3310 C3311 1.385 . S
C3310 C3312 1.478 . S
C3311 H3305 0.930 . S
C3311 C3307 1.400 . S
C3311 C3310 1.385 . S
C3312 C3310 1.478 . S
C3312 C3314 1.381 . S
C3312 C3318 1.383 . S
C3313 C3309 1.495 . S
C3313 H3319 0.959 . S
C3313 H3320 0.961 . S
C3313 H3321 0.960 . S
C3314 C3312 1.381 . S
C3314 C3315 1.394 . S
C3314 H3322 0.930 . S
C3315 C3314 1.394 . S
C3315 C3316 1.383 . S
C3315 H3323 0.929 . S
C3316 C3315 1.383 . S
C3316 C3317 1.377 . S
C3317 H3301 0.930 . S
C3317 C3316 1.377 . S
C3317 C3318 1.379 . S
C3318 H3302 0.931 . S
C3318 C3312 1.383 . S
C3318 C3317 1.379 . S
H3319 C3313 0.959 . S
H3320 C3313 0.961 . S
H3321 C3313 0.960 . S
H3322 C3314 0.930 . S
H3323 C3315 0.929 . S
H3324 C3332 0.929 . S
H3325 C3334 0.930 . S
H3326 C3336 0.930 . S
H3327 C3339 0.929 . S
H3328 C3342 0.930 . S
H3329 C3344 0.960 . S
H3330 C3344 0.960 . S
H3331 C3344 0.960 . S
C3332 H3324 0.929 . S
C3332 C3333 1.377 . S
C3332 C3334 1.384 . S
C3333 C3332 1.377 . S
C3333 C3339 1.390 . S
C3334 H3325 0.930 . S
C3334 C3332 1.384 . S
C3334 C3335 1.372 . S
C3335 C3334 1.372 . S
C3335 C3336 1.400 . S
C3335 C3340 1.490 . S
C3336 H3326 0.930 . S
C3336 C3335 1.400 . S
C3336 C3339 1.386 . S
H3337 C3353 0.930 . S
H3338 C3354 0.931 . S
C3339 H3327 0.929 . S
C3339 C3333 1.390 . S
C3339 C3336 1.386 . S
C3340 C3335 1.490 . S
C3340 C3342 1.395 1_655 S
C3340 C3343 1.403 . S
H3341 C3347 0.930 . S
C3342 H3328 0.930 . S
C3342 C3340 1.395 1_455 S
C3342 C3345 1.403 . S
C3343 C3340 1.403 . S
C3343 C3344 1.524 . S
C3343 C3347 1.400 . S
C3344 H3329 0.960 . S
C3344 H3330 0.960 . S
C3344 H3331 0.960 . S
C3344 C3343 1.524 . S
C3345 C3342 1.403 . S
C3345 C3346 1.392 . S
C3345 C3349 1.495 . S
C3346 C3345 1.392 . S
C3346 C3347 1.385 1_455 S
C3346 C3348 1.478 . S
C3347 H3341 0.930 . S
C3347 C3343 1.400 . S
C3347 C3346 1.385 1_655 S
C3348 C3346 1.478 . S
C3348 C3350 1.381 . S
C3348 C3354 1.383 . S
C3349 C3345 1.495 . S
C3349 H3355 0.959 . S
C3349 H3356 0.961 . S
C3349 H3357 0.960 . S
C3350 C3348 1.381 . S
C3350 C3351 1.394 . S
C3350 H3358 0.930 . S
C3351 C3350 1.394 . S
C3351 C3352 1.383 . S
C3351 H3359 0.929 . S
C3352 C3351 1.383 . S
C3352 C3353 1.377 . S
C3353 H3337 0.930 . S
C3353 C3352 1.377 . S
C3353 C3354 1.379 . S
C3354 H3338 0.931 . S
C3354 C3348 1.383 . S
C3354 C3353 1.379 . S
H3355 C3349 0.959 . S
H3356 C3349 0.961 . S
H3357 C3349 0.960 . S
H3358 C3350 0.930 . S
H3359 C3351 0.929 . S
H3360 C3368 0.929 . S
H3361 C3370 0.930 . S
H3362 C3372 0.930 . S
H3363 C3375 0.929 . S
H3364 C3378 0.930 . S
H3365 C3380 0.960 . S
H3366 C3380 0.960 . S
H3367 C3380 0.960 . S
C3368 H3360 0.929 . S
C3368 C3369 1.377 . S
C3368 C3370 1.384 . S
C3369 C3368 1.377 . S
C3369 C3375 1.390 . S
C3370 H3361 0.930 . S
C3370 C3368 1.384 . S
C3370 C3371 1.372 . S
C3371 C3370 1.372 . S
C3371 C3372 1.400 . S
C3371 C3376 1.490 . S
C3372 H3362 0.930 . S
C3372 C3371 1.400 . S
C3372 C3375 1.386 . S
H3373 C3389 0.930 . S
H3374 C3390 0.931 . S
C3375 H3363 0.929 . S
C3375 C3369 1.390 . S
C3375 C3372 1.386 . S
C3376 C3371 1.490 . S
C3376 C3378 1.395 . S
C3376 C3379 1.403 1_565 S
H3377 C3383 0.930 . S
C3378 H3364 0.930 . S
C3378 C3376 1.395 . S
C3378 C3381 1.403 . S
C3379 C3376 1.403 1_545 S
C3379 C3380 1.524 . S
C3379 C3383 1.400 . S
C3380 H3365 0.960 . S
C3380 H3366 0.960 . S
C3380 H3367 0.960 . S
C3380 C3379 1.524 . S
C3381 C3378 1.403 . S
C3381 C3382 1.392 1_565 S
C3381 C3385 1.495 . S
C3382 C3381 1.392 1_545 S
C3382 C3383 1.385 . S
C3382 C3384 1.478 . S
C3383 H3377 0.930 . S
C3383 C3379 1.400 . S
C3383 C3382 1.385 . S
C3384 C3382 1.478 . S
C3384 C3386 1.381 . S
C3384 C3390 1.383 . S
C3385 C3381 1.495 . S
C3385 H3391 0.959 . S
C3385 H3392 0.961 . S
C3385 H3393 0.960 . S
C3386 C3384 1.381 . S
C3386 C3387 1.394 . S
C3386 H3394 0.930 . S
C3387 C3386 1.394 . S
C3387 C3388 1.383 . S
C3387 H3395 0.929 . S
C3388 C3387 1.383 . S
C3388 C3389 1.377 . S
C3389 H3373 0.930 . S
C3389 C3388 1.377 . S
C3389 C3390 1.379 . S
C3390 H3374 0.931 . S
C3390 C3384 1.383 . S
C3390 C3389 1.379 . S
H3391 C3385 0.959 . S
H3392 C3385 0.961 . S
H3393 C3385 0.960 . S
H3394 C3386 0.930 . S
H3395 C3387 0.929 . S
H3396 C3404 0.929 . S
H3397 C3406 0.930 . S
H3398 C3408 0.930 . S
H3399 C3411 0.929 . S
H3400 C3414 0.930 . S
H3401 C3416 0.960 . S
H3402 C3416 0.960 . S
H3403 C3416 0.960 . S
C3404 H3396 0.929 . S
C3404 C3405 1.377 . S
C3404 C3406 1.384 . S
C3405 C3404 1.377 . S
C3405 C3411 1.390 . S
C3406 H3397 0.930 . S
C3406 C3404 1.384 . S
C3406 C3407 1.372 . S
C3407 C3406 1.372 . S
C3407 C3408 1.400 . S
C3407 C3412 1.490 . S
C3408 H3398 0.930 . S
C3408 C3407 1.400 . S
C3408 C3411 1.386 . S
H3409 C3425 0.930 . S
H3410 C3426 0.931 . S
C3411 H3399 0.929 . S
C3411 C3405 1.390 . S
C3411 C3408 1.386 . S
C3412 C3407 1.490 . S
C3412 C3414 1.395 . S
C3412 C3415 1.403 . S
H3413 C3419 0.930 . S
C3414 H3400 0.930 . S
C3414 C3412 1.395 . S
C3414 C3417 1.403 . S
C3415 C3412 1.403 . S
C3415 C3416 1.524 . S
C3415 C3419 1.400 . S
C3416 H3401 0.960 . S
C3416 H3402 0.960 . S
C3416 H3403 0.960 . S
C3416 C3415 1.524 . S
C3417 C3414 1.403 . S
C3417 C3418 1.392 . S
C3417 C3421 1.495 . S
C3418 C3417 1.392 . S
C3418 C3419 1.385 . S
C3418 C3420 1.478 . S
C3419 H3413 0.930 . S
C3419 C3415 1.400 . S
C3419 C3418 1.385 . S
C3420 C3418 1.478 . S
C3420 C3422 1.381 . S
C3420 C3426 1.383 . S
C3421 C3417 1.495 . S
C3421 H3427 0.959 . S
C3421 H3428 0.961 . S
C3421 H3429 0.960 . S
C3422 C3420 1.381 . S
C3422 C3423 1.394 . S
C3422 H3430 0.930 . S
C3423 C3422 1.394 . S
C3423 C3424 1.383 . S
C3423 H3431 0.929 . S
C3424 C3423 1.383 . S
C3424 C3425 1.377 . S
C3425 H3409 0.930 . S
C3425 C3424 1.377 . S
C3425 C3426 1.379 . S
C3426 H3410 0.931 . S
C3426 C3420 1.383 . S
C3426 C3425 1.379 . S
H3427 C3421 0.959 . S
H3428 C3421 0.961 . S
H3429 C3421 0.960 . S
H3430 C3422 0.930 . S
H3431 C3423 0.929 . S
H3432 C3440 0.929 . S
H3433 C3442 0.930 . S
H3434 C3444 0.930 . S
H3435 C3447 0.929 . S
H3436 C3450 0.930 . S
H3437 C3452 0.960 . S
H3438 C3452 0.960 . S
H3439 C3452 0.960 . S
C3440 H3432 0.929 . S
C3440 C3441 1.377 . S
C3440 C3442 1.384 . S
C3441 C3440 1.377 . S
C3441 C3447 1.390 . S
C3442 H3433 0.930 . S
C3442 C3440 1.384 . S
C3442 C3443 1.372 . S
C3443 C3442 1.372 . S
C3443 C3444 1.400 . S
C3443 C3448 1.490 . S
C3444 H3434 0.930 . S
C3444 C3443 1.400 . S
C3444 C3447 1.386 . S
H3445 C3461 0.930 . S
H3446 C3462 0.931 . S
C3447 H3435 0.929 . S
C3447 C3441 1.390 . S
C3447 C3444 1.386 . S
C3448 C3443 1.490 . S
C3448 C3450 1.395 . S
C3448 C3451 1.403 1_565 S
H3449 C3455 0.930 . S
C3450 H3436 0.930 . S
C3450 C3448 1.395 . S
C3450 C3453 1.403 . S
C3451 C3448 1.403 1_545 S
C3451 C3452 1.524 . S
C3451 C3455 1.400 . S
C3452 H3437 0.960 . S
C3452 H3438 0.960 . S
C3452 H3439 0.960 . S
C3452 C3451 1.524 . S
C3453 C3450 1.403 . S
C3453 C3454 1.392 1_565 S
C3453 C3457 1.495 . S
C3454 C3453 1.392 1_545 S
C3454 C3455 1.385 . S
C3454 C3456 1.478 . S
C3455 H3449 0.930 . S
C3455 C3451 1.400 . S
C3455 C3454 1.385 . S
C3456 C3454 1.478 . S
C3456 C3458 1.381 . S
C3456 C3462 1.383 . S
C3457 C3453 1.495 . S
C3457 H3463 0.959 . S
C3457 H3464 0.961 . S
C3457 H3465 0.960 . S
C3458 C3456 1.381 . S
C3458 C3459 1.394 . S
C3458 H3466 0.930 . S
C3459 C3458 1.394 . S
C3459 C3460 1.383 . S
C3459 H3467 0.929 . S
C3460 C3459 1.383 . S
C3460 C3461 1.377 . S
C3461 H3445 0.930 . S
C3461 C3460 1.377 . S
C3461 C3462 1.379 . S
C3462 H3446 0.931 . S
C3462 C3456 1.383 . S
C3462 C3461 1.379 . S
H3463 C3457 0.959 . S
H3464 C3457 0.961 . S
H3465 C3457 0.960 . S
H3466 C3458 0.930 . S
H3467 C3459 0.929 . S
H3468 C3476 0.929 . S
H3469 C3478 0.930 . S
H3470 C3480 0.930 . S
H3471 C3483 0.929 . S
H3472 C3486 0.930 . S
H3473 C3488 0.960 . S
H3474 C3488 0.960 . S
H3475 C3488 0.931 1_554 S
C3476 H3468 0.929 . S
C3476 C3477 1.377 . S
C3476 C3478 1.384 . S
C3477 C3476 1.377 . S
C3477 C3483 1.390 . S
C3478 H3469 0.930 . S
C3478 C3476 1.384 . S
C3478 C3479 1.372 . S
C3479 C3478 1.372 . S
C3479 C3480 1.400 . S
C3479 C3484 1.490 . S
C3480 H3470 0.930 . S
C3480 C3479 1.400 . S
C3480 C3483 1.386 . S
H3481 C3497 0.930 . S
H3482 C3498 0.931 . S
C3483 H3471 0.929 . S
C3483 C3477 1.390 . S
C3483 C3480 1.386 . S
C3484 C3479 1.490 . S
C3484 C3486 1.395 . S
C3484 C3487 1.403 1_554 S
H3485 C3491 0.930 . S
C3486 H3472 0.930 . S
C3486 C3484 1.395 . S
C3486 C3489 1.403 . S
C3487 C3484 1.403 1_556 S
C3487 C3488 1.524 . S
C3487 C3491 1.400 . S
C3488 H3473 0.960 . S
C3488 H3474 0.960 . S
C3488 H3475 0.931 1_556 S
C3488 C3487 1.524 . S
C3489 C3486 1.403 . S
C3489 C3490 1.392 1_554 S
C3489 C3493 1.495 . S
C3490 C3489 1.392 1_556 S
C3490 C3491 1.385 . S
C3490 C3492 1.478 . S
C3491 H3485 0.930 . S
C3491 C3487 1.400 . S
C3491 C3490 1.385 . S
C3492 C3490 1.478 . S
C3492 C3494 1.381 . S
C3492 C3498 1.383 . S
C3493 C3489 1.495 . S
C3493 H3499 0.959 . S
C3493 H3500 0.961 . S
C3493 H3501 0.959 . S
C3494 C3492 1.381 . S
C3494 C3495 1.394 . S
C3494 H3502 0.930 . S
C3495 C3494 1.394 . S
C3495 C3496 1.383 . S
C3495 H3503 0.929 . S
C3496 C3495 1.383 . S
C3496 C3497 1.377 . S
C3497 H3481 0.930 . S
C3497 C3496 1.377 . S
C3497 C3498 1.379 . S
C3498 H3482 0.931 . S
C3498 C3492 1.383 . S
C3498 C3497 1.379 . S
H3499 C3493 0.959 . S
H3500 C3493 0.961 . S
H3501 C3493 0.959 . S
H3502 C3494 0.930 . S
H3503 C3495 0.929 . S
H3504 C3512 0.929 . S
H3505 C3514 0.930 . S
H3506 C3516 0.930 . S
H3507 C3519 0.929 . S
H3508 C3522 0.930 . S
H3509 C3524 0.960 . S
H3510 C3524 0.960 . S
H3511 C3524 0.960 . S
C3512 H3504 0.929 . S
C3512 C3513 1.377 . S
C3512 C3514 1.384 . S
C3513 C3512 1.377 . S
C3513 C3519 1.390 . S
C3514 H3505 0.930 . S
C3514 C3512 1.384 . S
C3514 C3515 1.372 . S
C3515 C3514 1.372 . S
C3515 C3516 1.400 . S
C3515 C3520 1.490 . S
C3516 H3506 0.930 . S
C3516 C3515 1.400 . S
C3516 C3519 1.386 . S
H3517 C3533 0.930 . S
H3518 C3534 0.931 . S
C3519 H3507 0.929 . S
C3519 C3513 1.390 . S
C3519 C3516 1.386 . S
C3520 C3515 1.490 . S
C3520 C3522 1.395 1_565 S
C3520 C3523 1.403 . S
H3521 C3527 0.930 . S
C3522 H3508 0.930 . S
C3522 C3520 1.395 1_545 S
C3522 C3525 1.403 . S
C3523 C3520 1.403 . S
C3523 C3524 1.524 . S
C3523 C3527 1.400 1_565 S
C3524 H3509 0.960 . S
C3524 H3510 0.960 . S
C3524 H3511 0.960 . S
C3524 C3523 1.524 . S
C3525 C3522 1.403 . S
C3525 C3526 1.392 . S
C3525 C3529 1.495 . S
C3526 C3525 1.392 . S
C3526 C3527 1.385 . S
C3526 C3528 1.478 . S
C3527 H3521 0.930 . S
C3527 C3523 1.400 1_545 S
C3527 C3526 1.385 . S
C3528 C3526 1.478 . S
C3528 C3530 1.381 . S
C3528 C3534 1.383 . S
C3529 C3525 1.495 . S
C3529 H3535 0.959 . S
C3529 H3536 0.961 . S
C3529 H3537 0.960 . S
C3530 C3528 1.381 . S
C3530 C3531 1.394 . S
C3530 H3538 0.930 . S
C3531 C3530 1.394 . S
C3531 C3532 1.383 . S
C3531 H3539 0.929 . S
C3532 C3531 1.383 . S
C3532 C3533 1.377 . S
C3533 H3517 0.930 . S
C3533 C3532 1.377 . S
C3533 C3534 1.379 . S
C3534 H3518 0.931 . S
C3534 C3528 1.383 . S
C3534 C3533 1.379 . S
H3535 C3529 0.959 . S
H3536 C3529 0.961 . S
H3537 C3529 0.960 . S
H3538 C3530 0.930 . S
H3539 C3531 0.929 . S
H3540 C3548 0.929 . S
H3541 C3550 0.930 . S
H3542 C3552 0.930 . S
H3543 C3555 0.929 . S
H3544 C3558 0.930 . S
H3545 C3560 0.960 . S
H3546 C3560 0.960 . S
H3547 C3560 0.960 . S
C3548 H3540 0.929 . S
C3548 C3549 1.377 . S
C3548 C3550 1.384 . S
C3549 C3548 1.377 . S
C3549 C3555 1.390 . S
C3550 H3541 0.930 . S
C3550 C3548 1.384 . S
C3550 C3551 1.372 . S
C3551 C3550 1.372 . S
C3551 C3552 1.400 . S
C3551 C3556 1.490 . S
C3552 H3542 0.930 . S
C3552 C3551 1.400 . S
C3552 C3555 1.386 . S
H3553 C3569 0.930 . S
H3554 C3570 0.931 . S
C3555 H3543 0.929 . S
C3555 C3549 1.390 . S
C3555 C3552 1.386 . S
C3556 C3551 1.490 . S
C3556 C3558 1.395 . S
C3556 C3559 1.403 . S
H3557 C3563 0.930 . S
C3558 H3544 0.930 . S
C3558 C3556 1.395 . S
C3558 C3561 1.403 . S
C3559 C3556 1.403 . S
C3559 C3560 1.524 . S
C3559 C3563 1.400 . S
C3560 H3545 0.960 . S
C3560 H3546 0.960 . S
C3560 H3547 0.960 . S
C3560 C3559 1.524 . S
C3561 C3558 1.403 . S
C3561 C3562 1.392 . S
C3561 C3565 1.495 . S
C3562 C3561 1.392 . S
C3562 C3563 1.385 . S
C3562 C3564 1.478 . S
C3563 H3557 0.930 . S
C3563 C3559 1.400 . S
C3563 C3562 1.385 . S
C3564 C3562 1.478 . S
C3564 C3566 1.381 . S
C3564 C3570 1.383 . S
C3565 C3561 1.495 . S
C3565 H3571 0.959 . S
C3565 H3572 0.961 . S
C3565 H3573 0.960 . S
C3566 C3564 1.381 . S
C3566 C3567 1.394 . S
C3566 H3574 0.930 . S
C3567 C3566 1.394 . S
C3567 C3568 1.383 . S
C3567 H3575 0.929 . S
C3568 C3567 1.383 . S
C3568 C3569 1.377 . S
C3569 H3553 0.930 . S
C3569 C3568 1.377 . S
C3569 C3570 1.379 . S
C3570 H3554 0.931 . S
C3570 C3564 1.383 . S
C3570 C3569 1.379 . S
H3571 C3565 0.959 . S
H3572 C3565 0.961 . S
H3573 C3565 0.960 . S
H3574 C3566 0.930 . S
H3575 C3567 0.929 . S
H3576 C3584 0.929 . S
H3577 C3586 0.930 . S
H3578 C3588 0.930 . S
H3579 C3591 0.929 . S
H3580 C3594 0.930 . S
H3581 C3596 0.960 . S
H3582 C3596 0.960 . S
H3583 C3596 0.960 . S
C3584 H3576 0.929 . S
C3584 C3585 1.377 . S
C3584 C3586 1.384 . S
C3585 C3584 1.377 . S
C3585 C3591 1.390 . S
C3586 H3577 0.930 . S
C3586 C3584 1.384 . S
C3586 C3587 1.372 . S
C3587 C3586 1.372 . S
C3587 C3588 1.400 . S
C3587 C3592 1.490 . S
C3588 H3578 0.930 . S
C3588 C3587 1.400 . S
C3588 C3591 1.386 . S
H3589 C3605 0.930 . S
H3590 C3606 0.931 . S
C3591 H3579 0.929 . S
C3591 C3585 1.390 . S
C3591 C3588 1.386 . S
C3592 C3587 1.490 . S
C3592 C3594 1.395 1_545 S
C3592 C3595 1.403 . S
H3593 C3599 0.930 . S
C3594 H3580 0.930 . S
C3594 C3592 1.395 1_565 S
C3594 C3597 1.403 . S
C3595 C3592 1.403 . S
C3595 C3596 1.524 . S
C3595 C3599 1.400 . S
C3596 H3581 0.960 . S
C3596 H3582 0.960 . S
C3596 H3583 0.960 . S
C3596 C3595 1.524 . S
C3597 C3594 1.403 . S
C3597 C3598 1.392 . S
C3597 C3601 1.495 . S
C3598 C3597 1.392 . S
C3598 C3599 1.385 1_565 S
C3598 C3600 1.478 . S
C3599 H3593 0.930 . S
C3599 C3595 1.400 . S
C3599 C3598 1.385 1_545 S
C3600 C3598 1.478 . S
C3600 C3602 1.381 . S
C3600 C3606 1.383 . S
C3601 C3597 1.495 . S
C3601 H3607 0.959 . S
C3601 H3608 0.961 . S
C3601 H3609 0.960 . S
C3602 C3600 1.381 . S
C3602 C3603 1.394 . S
C3602 H3610 0.930 . S
C3603 C3602 1.394 . S
C3603 C3604 1.383 . S
C3603 H3611 0.929 . S
C3604 C3603 1.383 . S
C3604 C3605 1.377 . S
C3605 H3589 0.930 . S
C3605 C3604 1.377 . S
C3605 C3606 1.379 . S
C3606 H3590 0.931 . S
C3606 C3600 1.383 . S
C3606 C3605 1.379 . S
H3607 C3601 0.959 . S
H3608 C3601 0.961 . S
H3609 C3601 0.960 . S
H3610 C3602 0.930 . S
H3611 C3603 0.929 . S
H3612 C3620 0.929 . S
H3613 C3622 0.930 . S
H3614 C3624 0.930 . S
H3615 C3627 0.929 . S
H3616 C3630 0.930 . S
H3617 C3632 0.960 . S
H3618 C3632 0.960 . S
H3619 C3632 0.960 . S
C3620 H3612 0.929 . S
C3620 C3621 1.377 . S
C3620 C3622 1.384 . S
C3621 C3620 1.377 . S
C3621 C3627 1.390 . S
C3622 H3613 0.930 . S
C3622 C3620 1.384 . S
C3622 C3623 1.372 . S
C3623 C3622 1.372 . S
C3623 C3624 1.400 . S
C3623 C3628 1.490 . S
C3624 H3614 0.930 . S
C3624 C3623 1.400 . S
C3624 C3627 1.386 . S
H3625 C3641 0.930 . S
H3626 C3642 0.931 . S
C3627 H3615 0.929 . S
C3627 C3621 1.390 . S
C3627 C3624 1.386 . S
C3628 C3623 1.490 . S
C3628 C3630 1.395 1_556 S
C3628 C3631 1.403 . S
H3629 C3635 0.926 . S
C3630 H3616 0.930 . S
C3630 C3628 1.395 1_554 S
C3630 C3633 1.403 . S
C3631 C3628 1.403 . S
C3631 C3632 1.524 . S
C3631 C3635 1.397 . S
C3632 H3617 0.960 . S
C3632 H3618 0.960 . S
C3632 H3619 0.960 . S
C3632 C3631 1.524 . S
C3633 C3630 1.403 . S
C3633 C3634 1.392 . S
C3633 C3637 1.495 . S
C3634 C3633 1.392 . S
C3634 C3635 1.388 1_554 S
C3634 C3636 1.478 . S
C3635 H3629 0.926 . S
C3635 C3631 1.397 . S
C3635 C3634 1.388 1_556 S
C3636 C3634 1.478 . S
C3636 C3638 1.381 . S
C3636 C3642 1.383 . S
C3637 C3633 1.495 . S
C3637 H3643 0.959 . S
C3637 H3644 0.961 . S
C3637 H3645 0.960 . S
C3638 C3636 1.381 . S
C3638 C3639 1.394 . S
C3638 H3646 0.930 . S
C3639 C3638 1.394 . S
C3639 C3640 1.383 . S
C3639 H3647 0.929 . S
C3640 C3639 1.383 . S
C3640 C3641 1.377 . S
C3641 H3625 0.930 . S
C3641 C3640 1.377 . S
C3641 C3642 1.379 . S
C3642 H3626 0.931 . S
C3642 C3636 1.383 . S
C3642 C3641 1.379 . S
H3643 C3637 0.959 . S
H3644 C3637 0.961 . S
H3645 C3637 0.960 . S
H3646 C3638 0.930 . S
H3647 C3639 0.929 . S
H3648 C3656 0.929 . S
H3649 C3658 0.930 . S
H3650 C3660 0.930 . S
H3651 C3663 0.929 . S
H3652 C3666 0.930 . S
H3653 C3668 0.960 . S
H3654 C3668 0.960 . S
H3655 C3668 0.960 . S
C3656 H3648 0.929 . S
C3656 C3657 1.377 . S
C3656 C3658 1.384 . S
C3657 C3656 1.377 . S
C3657 C3663 1.390 . S
C3658 H3649 0.930 . S
C3658 C3656 1.384 . S
C3658 C3659 1.372 . S
C3659 C3658 1.372 . S
C3659 C3660 1.400 . S
C3659 C3664 1.490 . S
C3660 H3650 0.930 . S
C3660 C3659 1.400 . S
C3660 C3663 1.386 . S
H3661 C3677 0.930 . S
H3662 C3678 0.931 . S
C3663 H3651 0.929 . S
C3663 C3657 1.390 . S
C3663 C3660 1.386 . S
C3664 C3659 1.490 . S
C3664 C3666 1.395 . S
C3664 C3667 1.403 . S
H3665 C3671 0.930 . S
C3666 H3652 0.930 . S
C3666 C3664 1.395 . S
C3666 C3669 1.403 . S
C3667 C3664 1.403 . S
C3667 C3668 1.524 . S
C3667 C3671 1.400 . S
C3668 H3653 0.960 . S
C3668 H3654 0.960 . S
C3668 H3655 0.960 . S
C3668 C3667 1.524 . S
C3669 C3666 1.403 . S
C3669 C3670 1.392 . S
C3669 C3673 1.495 . S
C3670 C3669 1.392 . S
C3670 C3671 1.385 . S
C3670 C3672 1.478 . S
C3671 H3665 0.930 . S
C3671 C3667 1.400 . S
C3671 C3670 1.385 . S
C3672 C3670 1.478 . S
C3672 C3674 1.381 . S
C3672 C3678 1.383 . S
C3673 C3669 1.495 . S
C3673 H3679 0.959 . S
C3673 H3680 0.961 . S
C3673 H3681 0.960 . S
C3674 C3672 1.381 . S
C3674 C3675 1.394 . S
C3674 H3682 0.930 . S
C3675 C3674 1.394 . S
C3675 C3676 1.383 . S
C3675 H3683 0.929 . S
C3676 C3675 1.383 . S
C3676 C3677 1.377 . S
C3677 H3661 0.930 . S
C3677 C3676 1.377 . S
C3677 C3678 1.379 . S
C3678 H3662 0.931 . S
C3678 C3672 1.383 . S
C3678 C3677 1.379 . S
H3679 C3673 0.959 . S
H3680 C3673 0.961 . S
H3681 C3673 0.960 . S
H3682 C3674 0.930 . S
H3683 C3675 0.929 . S
H3684 C3692 0.929 . S
H3685 C3694 0.930 . S
H3686 C3696 0.930 . S
H3687 C3699 0.929 . S
H3688 C3702 0.930 . S
H3689 C3704 0.960 . S
H3690 C3704 0.960 . S
H3691 C3704 0.960 . S
C3692 H3684 0.929 . S
C3692 C3693 1.377 . S
C3692 C3694 1.384 . S
C3693 C3692 1.377 . S
C3693 C3699 1.390 . S
C3694 H3685 0.930 . S
C3694 C3692 1.384 . S
C3694 C3695 1.372 . S
C3695 C3694 1.372 . S
C3695 C3696 1.400 . S
C3695 C3700 1.490 . S
C3696 H3686 0.930 . S
C3696 C3695 1.400 . S
C3696 C3699 1.386 . S
H3697 C3713 0.930 . S
H3698 C3714 0.931 . S
C3699 H3687 0.929 . S
C3699 C3693 1.390 . S
C3699 C3696 1.386 . S
C3700 C3695 1.490 . S
C3700 C3702 1.395 1_554 S
C3700 C3703 1.403 . S
H3701 C3707 0.929 1_554 S
C3702 H3688 0.930 . S
C3702 C3700 1.395 1_556 S
C3702 C3705 1.403 . S
C3703 C3700 1.403 . S
C3703 C3704 1.524 . S
C3703 C3707 1.405 1_554 S
C3704 H3689 0.960 . S
C3704 H3690 0.960 . S
C3704 H3691 0.960 . S
C3704 C3703 1.524 . S
C3705 C3702 1.403 . S
C3705 C3706 1.392 . S
C3705 C3709 1.495 . S
C3706 C3705 1.392 . S
C3706 C3707 1.379 . S
C3706 C3708 1.478 . S
C3707 H3701 0.929 1_556 S
C3707 C3703 1.405 1_556 S
C3707 C3706 1.379 . S
C3708 C3706 1.478 . S
C3708 C3710 1.381 . S
C3708 C3714 1.383 . S
C3709 C3705 1.495 . S
C3709 H3715 0.959 . S
C3709 H3716 0.961 . S
C3709 H3717 0.960 . S
C3710 C3708 1.381 . S
C3710 C3711 1.394 . S
C3710 H3718 0.930 . S
C3711 C3710 1.394 . S
C3711 C3712 1.383 . S
C3711 H3719 0.929 . S
C3712 C3711 1.383 . S
C3712 C3713 1.377 . S
C3713 H3697 0.930 . S
C3713 C3712 1.377 . S
C3713 C3714 1.379 . S
C3714 H3698 0.931 . S
C3714 C3708 1.383 . S
C3714 C3713 1.379 . S
H3715 C3709 0.959 . S
H3716 C3709 0.961 . S
H3717 C3709 0.960 . S
H3718 C3710 0.930 . S
H3719 C3711 0.929 . S
H3720 C3728 0.929 . S
H3721 C3730 0.930 . S
H3722 C3732 0.930 . S
H3723 C3735 0.929 . S
H3724 C3738 0.930 . S
H3725 C3740 0.960 . S
H3726 C3740 0.960 . S
H3727 C3740 0.960 . S
C3728 H3720 0.929 . S
C3728 C3729 1.377 . S
C3728 C3730 1.384 . S
C3729 C3728 1.377 . S
C3729 C3735 1.390 . S
C3730 H3721 0.930 . S
C3730 C3728 1.384 . S
C3730 C3731 1.372 . S
C3731 C3730 1.372 . S
C3731 C3732 1.400 . S
C3731 C3736 1.490 . S
C3732 H3722 0.930 . S
C3732 C3731 1.400 . S
C3732 C3735 1.386 . S
H3733 C3749 0.930 . S
H3734 C3750 0.931 . S
C3735 H3723 0.929 . S
C3735 C3729 1.390 . S
C3735 C3732 1.386 . S
C3736 C3731 1.490 . S
C3736 C3738 1.395 . S
C3736 C3739 1.403 . S
H3737 C3743 0.930 . S
C3738 H3724 0.930 . S
C3738 C3736 1.395 . S
C3738 C3741 1.403 . S
C3739 C3736 1.403 . S
C3739 C3740 1.524 . S
C3739 C3743 1.400 . S
C3740 H3725 0.960 . S
C3740 H3726 0.960 . S
C3740 H3727 0.960 . S
C3740 C3739 1.524 . S
C3741 C3738 1.403 . S
C3741 C3742 1.392 . S
C3741 C3745 1.495 . S
C3742 C3741 1.392 . S
C3742 C3743 1.385 . S
C3742 C3744 1.478 . S
C3743 H3737 0.930 . S
C3743 C3739 1.400 . S
C3743 C3742 1.385 . S
C3744 C3742 1.478 . S
C3744 C3746 1.381 . S
C3744 C3750 1.383 . S
C3745 C3741 1.495 . S
C3745 H3751 0.959 . S
C3745 H3752 0.961 . S
C3745 H3753 0.960 . S
C3746 C3744 1.381 . S
C3746 C3747 1.394 . S
C3746 H3754 0.930 . S
C3747 C3746 1.394 . S
C3747 C3748 1.383 . S
C3747 H3755 0.929 . S
C3748 C3747 1.383 . S
C3748 C3749 1.377 . S
C3749 H3733 0.930 . S
C3749 C3748 1.377 . S
C3749 C3750 1.379 . S
C3750 H3734 0.931 . S
C3750 C3744 1.383 . S
C3750 C3749 1.379 . S
H3751 C3745 0.959 . S
H3752 C3745 0.961 . S
H3753 C3745 0.960 . S
H3754 C3746 0.930 . S
H3755 C3747 0.929 . S
H3756 C3764 0.929 . S
H3757 C3766 0.930 . S
H3758 C3768 0.930 . S
H3759 C3771 0.929 . S
H3760 C3774 0.930 . S
H3761 C3776 0.960 . S
H3762 C3776 0.960 . S
H3763 C3776 0.960 . S
C3764 H3756 0.929 . S
C3764 C3765 1.377 . S
C3764 C3766 1.384 . S
C3765 C3764 1.377 . S
C3765 C3771 1.390 . S
C3766 H3757 0.930 . S
C3766 C3764 1.384 . S
C3766 C3767 1.372 . S
C3767 C3766 1.372 . S
C3767 C3768 1.400 . S
C3767 C3772 1.490 . S
C3768 H3758 0.930 . S
C3768 C3767 1.400 . S
C3768 C3771 1.386 . S
H3769 C3785 0.930 . S
H3770 C3786 0.931 . S
C3771 H3759 0.929 . S
C3771 C3765 1.390 . S
C3771 C3768 1.386 . S
C3772 C3767 1.490 . S
C3772 C3774 1.395 . S
C3772 C3775 1.403 . S
H3773 C3779 0.930 . S
C3774 H3760 0.930 . S
C3774 C3772 1.395 . S
C3774 C3777 1.403 . S
C3775 C3772 1.403 . S
C3775 C3776 1.524 . S
C3775 C3779 1.400 . S
C3776 H3761 0.960 . S
C3776 H3762 0.960 . S
C3776 H3763 0.960 . S
C3776 C3775 1.524 . S
C3777 C3774 1.403 . S
C3777 C3778 1.392 . S
C3777 C3781 1.495 . S
C3778 C3777 1.392 . S
C3778 C3779 1.385 . S
C3778 C3780 1.478 . S
C3779 H3773 0.930 . S
C3779 C3775 1.400 . S
C3779 C3778 1.385 . S
C3780 C3778 1.478 . S
C3780 C3782 1.381 . S
C3780 C3786 1.383 . S
C3781 C3777 1.495 . S
C3781 H3787 0.959 . S
C3781 H3788 0.961 . S
C3781 H3789 0.960 . S
C3782 C3780 1.381 . S
C3782 C3783 1.394 . S
C3782 H3790 0.930 . S
C3783 C3782 1.394 . S
C3783 C3784 1.383 . S
C3783 H3791 0.929 . S
C3784 C3783 1.383 . S
C3784 C3785 1.377 . S
C3785 H3769 0.930 . S
C3785 C3784 1.377 . S
C3785 C3786 1.379 . S
C3786 H3770 0.931 . S
C3786 C3780 1.383 . S
C3786 C3785 1.379 . S
H3787 C3781 0.959 . S
H3788 C3781 0.961 . S
H3789 C3781 0.960 . S
H3790 C3782 0.930 . S
H3791 C3783 0.929 . S
H3792 C3800 0.929 . S
H3793 C3802 0.930 . S
H3794 C3804 0.930 . S
H3795 C3807 0.929 . S
H3796 C3810 0.930 . S
H3797 C3812 0.960 . S
H3798 C3812 0.960 . S
H3799 C3812 0.960 . S
C3800 H3792 0.929 . S
C3800 C3801 1.377 . S
C3800 C3802 1.384 . S
C3801 C3800 1.377 . S
C3801 C3807 1.390 . S
C3802 H3793 0.930 . S
C3802 C3800 1.384 . S
C3802 C3803 1.372 . S
C3803 C3802 1.372 . S
C3803 C3804 1.400 . S
C3803 C3808 1.490 . S
C3804 H3794 0.930 . S
C3804 C3803 1.400 . S
C3804 C3807 1.386 . S
H3805 C3821 0.930 . S
H3806 C3822 0.931 . S
C3807 H3795 0.929 . S
C3807 C3801 1.390 . S
C3807 C3804 1.386 . S
C3808 C3803 1.490 . S
C3808 C3810 1.395 . S
C3808 C3811 1.403 . S
H3809 C3815 0.930 . S
C3810 H3796 0.930 . S
C3810 C3808 1.395 . S
C3810 C3813 1.403 . S
C3811 C3808 1.403 . S
C3811 C3812 1.524 . S
C3811 C3815 1.400 . S
C3812 H3797 0.960 . S
C3812 H3798 0.960 . S
C3812 H3799 0.960 . S
C3812 C3811 1.524 . S
C3813 C3810 1.403 . S
C3813 C3814 1.392 . S
C3813 C3817 1.495 . S
C3814 C3813 1.392 . S
C3814 C3815 1.385 . S
C3814 C3816 1.478 . S
C3815 H3809 0.930 . S
C3815 C3811 1.400 . S
C3815 C3814 1.385 . S
C3816 C3814 1.478 . S
C3816 C3818 1.381 . S
C3816 C3822 1.383 . S
C3817 C3813 1.495 . S
C3817 H3823 0.959 . S
C3817 H3824 0.961 . S
C3817 H3825 0.960 . S
C3818 C3816 1.381 . S
C3818 C3819 1.394 . S
C3818 H3826 0.930 . S
C3819 C3818 1.394 . S
C3819 C3820 1.383 . S
C3819 H3827 0.929 . S
C3820 C3819 1.383 . S
C3820 C3821 1.377 . S
C3821 H3805 0.930 . S
C3821 C3820 1.377 . S
C3821 C3822 1.379 . S
C3822 H3806 0.931 . S
C3822 C3816 1.383 . S
C3822 C3821 1.379 . S
H3823 C3817 0.959 . S
H3824 C3817 0.961 . S
H3825 C3817 0.960 . S
H3826 C3818 0.930 . S
H3827 C3819 0.929 . S
H3828 C3836 0.929 . S
H3829 C3838 0.930 . S
H3830 C3840 0.930 . S
H3831 C3843 0.929 . S
H3832 C3846 0.930 . S
H3833 C3848 0.960 . S
H3834 C3848 0.960 . S
H3835 C3848 0.960 . S
C3836 H3828 0.929 . S
C3836 C3837 1.377 . S
C3836 C3838 1.384 . S
C3837 C3836 1.377 . S
C3837 C3843 1.390 . S
C3838 H3829 0.930 . S
C3838 C3836 1.384 . S
C3838 C3839 1.372 . S
C3839 C3838 1.372 . S
C3839 C3840 1.400 . S
C3839 C3844 1.490 . S
C3840 H3830 0.930 . S
C3840 C3839 1.400 . S
C3840 C3843 1.386 . S
H3841 C3857 0.930 . S
H3842 C3858 0.931 . S
C3843 H3831 0.929 . S
C3843 C3837 1.390 . S
C3843 C3840 1.386 . S
C3844 C3839 1.490 . S
C3844 C3846 1.395 1_554 S
C3844 C3847 1.403 . S
H3845 C3851 0.928 1_554 S
C3846 H3832 0.930 . S
C3846 C3844 1.395 1_556 S
C3846 C3849 1.403 . S
C3847 C3844 1.403 . S
C3847 C3848 1.524 . S
C3847 C3851 1.387 1_554 S
C3848 H3833 0.960 . S
C3848 H3834 0.960 . S
C3848 H3835 0.960 . S
C3848 C3847 1.524 . S
C3849 C3846 1.403 . S
C3849 C3850 1.392 . S
C3849 C3853 1.495 . S
C3850 C3849 1.392 . S
C3850 C3851 1.399 . S
C3850 C3852 1.478 . S
C3851 H3845 0.928 1_556 S
C3851 C3847 1.387 1_556 S
C3851 C3850 1.399 . S
C3852 C3850 1.478 . S
C3852 C3854 1.381 . S
C3852 C3858 1.383 . S
C3853 C3849 1.495 . S
C3853 H3859 0.959 . S
C3853 H3860 0.961 . S
C3853 H3861 0.960 . S
C3854 C3852 1.381 . S
C3854 C3855 1.394 . S
C3854 H3862 0.930 . S
C3855 C3854 1.394 . S
C3855 C3856 1.383 . S
C3855 H3863 0.929 . S
C3856 C3855 1.383 . S
C3856 C3857 1.377 . S
C3857 H3841 0.930 . S
C3857 C3856 1.377 . S
C3857 C3858 1.379 . S
C3858 H3842 0.931 . S
C3858 C3852 1.383 . S
C3858 C3857 1.379 . S
H3859 C3853 0.959 . S
H3860 C3853 0.961 . S
H3861 C3853 0.960 . S
H3862 C3854 0.930 . S
H3863 C3855 0.929 . S
H3864 C3872 0.929 . S
H3865 C3874 0.930 . S
H3866 C3876 0.930 . S
H3867 C3879 0.929 . S
H3868 C3882 0.930 . S
H3869 C3884 0.960 . S
H3870 C3884 0.960 . S
H3871 C3884 0.960 . S
C3872 H3864 0.929 . S
C3872 C3873 1.377 . S
C3872 C3874 1.384 . S
C3873 C3872 1.377 . S
C3873 C3879 1.390 . S
C3874 H3865 0.930 . S
C3874 C3872 1.384 . S
C3874 C3875 1.372 . S
C3875 C3874 1.372 . S
C3875 C3876 1.400 . S
C3875 C3880 1.490 . S
C3876 H3866 0.930 . S
C3876 C3875 1.400 . S
C3876 C3879 1.386 . S
H3877 C3893 0.930 . S
H3878 C3894 0.931 . S
C3879 H3867 0.929 . S
C3879 C3873 1.390 . S
C3879 C3876 1.386 . S
C3880 C3875 1.490 . S
C3880 C3882 1.395 . S
C3880 C3883 1.403 . S
H3881 C3887 0.930 . S
C3882 H3868 0.930 . S
C3882 C3880 1.395 . S
C3882 C3885 1.403 . S
C3883 C3880 1.403 . S
C3883 C3884 1.524 . S
C3883 C3887 1.400 . S
C3884 H3869 0.960 . S
C3884 H3870 0.960 . S
C3884 H3871 0.960 . S
C3884 C3883 1.524 . S
C3885 C3882 1.403 . S
C3885 C3886 1.392 . S
C3885 C3889 1.495 . S
C3886 C3885 1.392 . S
C3886 C3887 1.385 . S
C3886 C3888 1.478 . S
C3887 H3881 0.930 . S
C3887 C3883 1.400 . S
C3887 C3886 1.385 . S
C3888 C3886 1.478 . S
C3888 C3890 1.381 . S
C3888 C3894 1.383 . S
C3889 C3885 1.495 . S
C3889 H3895 0.959 . S
C3889 H3896 0.961 . S
C3889 H3897 0.960 . S
C3890 C3888 1.381 . S
C3890 C3891 1.394 . S
C3890 H3898 0.930 . S
C3891 C3890 1.394 . S
C3891 C3892 1.383 . S
C3891 H3899 0.929 . S
C3892 C3891 1.383 . S
C3892 C3893 1.377 . S
C3893 H3877 0.930 . S
C3893 C3892 1.377 . S
C3893 C3894 1.379 . S
C3894 H3878 0.931 . S
C3894 C3888 1.383 . S
C3894 C3893 1.379 . S
H3895 C3889 0.959 . S
H3896 C3889 0.961 . S
H3897 C3889 0.960 . S
H3898 C3890 0.930 . S
H3899 C3891 0.929 . S
H3900 C3908 0.929 . S
H3901 C3910 0.930 . S
H3902 C3912 0.930 . S
H3903 C3915 0.929 . S
H3904 C3918 0.930 . S
H3905 C3920 0.960 . S
H3906 C3920 0.960 . S
H3907 C3920 0.960 . S
C3908 H3900 0.929 . S
C3908 C3909 1.377 . S
C3908 C3910 1.384 . S
C3909 C3908 1.377 . S
C3909 C3915 1.390 . S
C3910 H3901 0.930 . S
C3910 C3908 1.384 . S
C3910 C3911 1.372 . S
C3911 C3910 1.372 . S
C3911 C3912 1.400 . S
C3911 C3916 1.490 . S
C3912 H3902 0.930 . S
C3912 C3911 1.400 . S
C3912 C3915 1.386 . S
H3913 C3929 0.930 . S
H3914 C3930 0.931 . S
C3915 H3903 0.929 . S
C3915 C3909 1.390 . S
C3915 C3912 1.386 . S
C3916 C3911 1.490 . S
C3916 C3918 1.395 . S
C3916 C3919 1.403 . S
H3917 C3923 0.930 . S
C3918 H3904 0.930 . S
C3918 C3916 1.395 . S
C3918 C3921 1.403 . S
C3919 C3916 1.403 . S
C3919 C3920 1.524 . S
C3919 C3923 1.400 . S
C3920 H3905 0.960 . S
C3920 H3906 0.960 . S
C3920 H3907 0.960 . S
C3920 C3919 1.524 . S
C3921 C3918 1.403 . S
C3921 C3922 1.392 . S
C3921 C3925 1.495 . S
C3922 C3921 1.392 . S
C3922 C3923 1.385 . S
C3922 C3924 1.478 . S
C3923 H3917 0.930 . S
C3923 C3919 1.400 . S
C3923 C3922 1.385 . S
C3924 C3922 1.478 . S
C3924 C3926 1.381 . S
C3924 C3930 1.383 . S
C3925 C3921 1.495 . S
C3925 H3931 0.959 . S
C3925 H3932 0.961 . S
C3925 H3933 0.960 . S
C3926 C3924 1.381 . S
C3926 C3927 1.394 . S
C3926 H3934 0.930 . S
C3927 C3926 1.394 . S
C3927 C3928 1.383 . S
C3927 H3935 0.929 . S
C3928 C3927 1.383 . S
C3928 C3929 1.377 . S
C3929 H3913 0.930 . S
C3929 C3928 1.377 . S
C3929 C3930 1.379 . S
C3930 H3914 0.931 . S
C3930 C3924 1.383 . S
C3930 C3929 1.379 . S
H3931 C3925 0.959 . S
H3932 C3925 0.961 . S
H3933 C3925 0.960 . S
H3934 C3926 0.930 . S
H3935 C3927 0.929 . S
C1065 N13 1.488 . S
C1084 N805 1.460 . S
C1101 N310 1.497 . S
C1120 N46 1.524 . S
C1137 N871 1.489 . S
C1156 N79 1.501 . S
C1173 N112 1.493 . S
C1192 N376 1.519 . S
C1209 N937 1.500 . S
C1228 N145 1.518 . S
C1245 N442 1.493 . S
C1264 N178 1.518 . S
C1281 N211 1.497 . S
C1300 N1003 1.475 . S
C1317 N244 1.487 . S
C1336 N508 1.467 . S
C1353 N277 1.500 . S
C1372 N541 1.497 . S
C1389 N343 1.491 . S
C1408 N607 1.457 . S
C1425 N673 1.495 . S
C1444 N409 1.522 . S
C1461 N475 1.489 . S
C1480 N739 1.503 . S
C1497 N574 1.492 . S
C1516 N838 1.514 . S
C1533 N904 1.500 . S
C1552 N640 1.519 . S
C1569 N970 1.490 . S
C1588 N706 1.457 . S
C1605 N772 1.494 . S
C1624 N1036 1.520 . S
C1641 C7 0.817 . S
C1660 N827 0.835 . S
C1677 N332 0.836 . S
C1696 C40 0.768 . S
C1713 C73 0.808 . S
C1732 N893 0.814 . S
C1749 N266 0.842 . S
C1768 C106 0.832 . S
C1785 C139 0.807 . S
C1804 N1025 0.812 . S
C1821 C172 0.818 . S
C1840 N398 0.837 . S
C1857 N959 0.846 . S
C1876 C205 0.875 . S
C1893 N464 0.846 . S
C1912 C238 0.871 . S
C1929 N563 0.837 . S
C1948 C271 0.884 . S
C1965 N68 0.837 . S
C1984 C304 0.798 . S
C2001 C337 0.822 . S
C2020 N629 0.863 . S
C2037 C370 0.806 . S
C2056 N2 0.858 . S
C2073 N761 0.847 . S
C2092 C403 0.779 . S
C2109 N134 0.843 . S
C2128 C436 0.859 . S
C2145 C469 0.824 . S
C2164 N695 0.810 . S
C2181 C502 0.807 . S
C2200 N200 0.866 . S
C2217 N299 0.843 . S
C2236 C535 0.845 . S
C2253 N860 0.842 . S
C2272 C568 0.830 . S
C2289 N365 0.843 . S
C2308 C601 0.839 . S
C2325 C634 0.833 . S
C2344 N794 0.871 . S
C2361 N497 0.843 . S
C2380 C667 0.841 . S
C2397 C700 0.827 . S
C2416 N926 0.858 . S
C2433 N431 0.846 . S
C2452 C733 0.868 . S
C2469 C766 0.833 . S
C2488 N992 0.870 . S
C2505 N35 0.843 . S
C2524 C799 0.856 . S
C2541 N596 0.846 . S
C2560 C832 0.826 . S
C2577 N101 0.840 . S
C2596 C865 0.880 . S
C2613 C898 0.807 . S
C2632 N530 0.845 . S
C2649 C931 0.824 . S
C2668 N233 0.810 . S
C2685 N662 0.845 . S
C2704 C964 0.839 . S
C2721 N167 0.841 . S
C2740 C997 0.763 . S
C2757 C1030 0.829 . S
C2776 N728 0.809 . S
C2793 C615 0.772 . S
C2812 C21 0.743 . S
C2829 C648 0.764 . S
C2848 C54 0.777 . S
C2865 C549 0.767 . S
C2884 C87 0.762 . S
C2901 C582 0.759 . S
C2920 C120 0.803 . S
C2937 C153 0.770 . S
C2956 C747 0.752 . S
C2973 C780 0.758 . S
C2992 C186 0.802 . S
C3009 C219 0.761 . S
C3028 C681 0.791 . S
C3045 C714 0.762 . S
C3064 C252 0.787 . S
C3081 C879 0.771 . S
C3100 C285 0.803 . S
C3117 C318 0.772 . S
C3136 C912 0.795 . S
C3153 C351 0.764 . S
C3172 C813 0.806 . S
C3189 C384 0.757 . S
C3208 C846 0.765 . S
C3225 C1011 0.772 . S
C3244 C417 0.790 . S
C3261 C450 0.759 . S
C3280 C1044 0.743 . S
C3297 C483 0.772 . S
C3316 C945 0.792 . S
C3333 C516 0.772 . S
C3352 C978 0.792 . S
C3369 C150 1.807 . S
C3388 C18 1.814 . S
C3405 C183 1.808 . S
C3424 C51 1.785 . S
C3441 C84 1.807 . S
C3460 C216 1.816 . S
C3477 C249 1.805 . S
C3496 C117 1.793 . S
C3513 C282 1.806 . S
C3532 C414 1.803 . S
C3549 C447 1.803 . S
C3568 C315 1.788 . S
C3585 C348 1.803 . S
C3604 C480 1.786 . S
C3621 C513 1.809 . S
C3640 C381 1.814 . S
C3657 C546 1.805 . S
C3676 C678 1.819 . S
C3693 C711 1.807 . S
C3712 C579 1.814 . S
C3729 C744 1.809 . S
C3748 C612 1.803 . S
C3765 C645 1.805 . S
C3784 C777 1.795 . S
C3801 C942 1.803 . S
C3820 C810 1.787 . S
C3837 C843 1.809 . S
C3856 C975 1.812 . S
C3873 C876 1.803 . S
C3892 C1008 1.785 . S
C3909 C909 1.806 . S
C3928 C1041 1.798 . S
