# Generated by pormake.
# Topology sxb, (6)-cn, num edge types: 1
# Building blocks:
#     Node 0, Type 0, BuildingBlock: KUMBOL_clean_sbu_1, # of connection points: 6
#     Node 1, Type 0, BuildingBlock: KUMBOL_clean_sbu_1, # of connection points: 6
#     Node 2, Type 0, BuildingBlock: KUMBOL_clean_sbu_1, # of connection points: 6
#     Node 3, Type 0, BuildingBlock: KUMBOL_clean_sbu_1, # of connection points: 6
#     Edge 4, Type (0, 0), BuildingBlock: XUDNAN_clean_linker_2, # of connection points: 2
#     Edge 5, Type (0, 0), BuildingBlock: XUDNAN_clean_linker_2, # of connection points: 2
#     Edge 6, Type (0, 0), BuildingBlock: XUDNAN_clean_linker_2, # of connection points: 2
#     Edge 7, Type (0, 0), BuildingBlock: XUDNAN_clean_linker_2, # of connection points: 2
#     Edge 8, Type (0, 0), BuildingBlock: XUDNAN_clean_linker_2, # of connection points: 2
#     Edge 9, Type (0, 0), BuildingBlock: XUDNAN_clean_linker_2, # of connection points: 2
#     Edge 10, Type (0, 0), BuildingBlock: XUDNAN_clean_linker_2, # of connection points: 2
#     Edge 11, Type (0, 0), BuildingBlock: XUDNAN_clean_linker_2, # of connection points: 2
#     Edge 12, Type (0, 0), BuildingBlock: XUDNAN_clean_linker_2, # of connection points: 2
#     Edge 13, Type (0, 0), BuildingBlock: XUDNAN_clean_linker_2, # of connection points: 2
#     Edge 14, Type (0, 0), BuildingBlock: XUDNAN_clean_linker_2, # of connection points: 2
#     Edge 15, Type (0, 0), BuildingBlock: XUDNAN_clean_linker_2, # of connection points: 2
# Relax obj value: 0.015
# Max RMSD: 0.059
# Mean RMSD: 0.059
data_MOF--net-sxb--node1-KUMBOL_clean_sbu_1--edge1-XUDNAN_clean_linker_2
_symmetry_space_group_name_H-M    P1
_symmetry_Int_Tables_number       1
_symmetry_cell_setting            triclinic
loop_
_symmetry_equiv_pos_as_xyz
'x, y, z'
_cell_length_a     14.965885
_cell_length_b     47.306887
_cell_length_c     29.52237
_cell_angle_alpha  114.19831
_cell_angle_beta   89.993835
_cell_angle_gamma 90.081793
loop_
_atom_site_label
_atom_site_type_symbol
_atom_site_fract_x
_atom_site_fract_y
_atom_site_fract_z
_atom_type_partial_charge
C0 C 0.17302 0.09116 0.11834 0.0
C1 C 0.30666 0.10201 0.08168 0.0
C2 C 0.22121 0.08855 0.07674 0.0
C3 C 0.34463 0.11697 0.12915 0.0
C4 C 0.20953 0.10706 0.16617 0.0
C5 C 0.29632 0.11938 0.17129 0.0
N6 N 0.08865 0.0796 0.11214 0.0
C7 C 1.0351 0.08476 0.15216 0.0
C8 C 0.15675 0.11081 0.20742 0.0
C9 C 0.06875 0.09994 0.20037 0.0
Gd10 Gd 1.02962 0.95696 0.97294 0.0
Gd11 Gd 0.0406 0.05221 0.02992 0.0
N12 N 0.18266 0.07384 0.03136 0.0
C13 C 0.35025 0.10071 0.03888 0.0
C14 C 0.2221 0.07429 0.98984 0.0
C15 C 0.30726 0.08717 0.99286 0.0
H16 H 0.18862 0.06387 0.95434 0.0
H17 H 0.33957 0.08671 0.95978 0.0
H18 H 0.96793 0.96231 0.0877 0.0
H19 H 0.96656 0.07678 0.14679 0.0
H20 H 0.82967 0.96019 0.13077 0.0
H21 H 0.41603 0.11079 0.04112 0.0
H22 H 0.41061 0.12724 0.13373 0.0
H23 H 0.98001 0.92894 0.85275 0.0
H24 H 0.18243 0.12278 0.24482 0.0
H25 H 1.02671 0.10337 0.23202 0.0
H26 H 0.60961 0.92459 0.00173 0.0
H27 H 0.3258 0.13149 0.20772 0.0
H28 H 0.70556 0.90039 0.8351 0.0
H29 H 0.84931 0.90626 0.79838 0.0
N30 N 0.91005 0.93572 0.91895 0.0
C31 C 0.8326 0.93198 0.93994 0.0
C32 C 0.91735 0.92637 0.86887 0.0
C33 C 0.76273 0.91011 0.85899 0.0
C34 C 0.8437 0.91349 0.83811 0.0
C35 C 0.75632 0.9194 0.91045 0.0
H36 H 0.6163 0.90786 0.91123 0.0
N37 N 0.90401 0.95357 0.01887 0.0
C38 C 0.82895 0.94173 0.9913 0.0
C39 C 0.74828 0.94677 0.06516 0.0
C40 C 0.74863 0.93863 0.01397 0.0
C41 C 0.90599 0.9582 0.06763 0.0
C42 C 0.82787 0.95584 0.09184 0.0
O43 O 0.17647 0.02833 0.01565 0.0
O44 O 0.17072 0.97417 0.97517 0.0
O45 O 0.04654 0.91692 0.99048 0.0
O46 O 0.08556 0.91391 0.91847 0.0
O47 O 0.04874 0.02724 0.94574 0.0
O48 O 0.07852 0.97376 0.9158 0.0
O49 O 0.92443 0.98653 0.957 0.0
O50 O 0.91099 0.02792 0.03132 0.0
O51 O 0.97746 0.07476 0.98672 0.0
O52 O 0.98124 0.0979 0.06649 0.0
O53 O 0.08533 0.98318 0.05005 0.0
O54 O 0.9948 0.02518 0.07294 0.0
C55 C 0.21406 1.00079 0.99406 0.0
C56 C 0.07108 1.00009 0.91017 0.0
C57 C 0.16628 0.88354 0.95196 0.0
C58 C 0.23597 0.8392 0.96126 0.0
C59 C 0.32758 0.88072 0.95696 0.0
C60 C 0.25115 0.89625 0.95239 0.0
C61 C 0.32031 0.85244 0.96125 0.0
C62 C 0.15903 0.85515 0.95665 0.0
C63 C 0.08449 0.90004 0.94851 0.0
C64 C 0.67198 0.92679 0.9848 0.0
C65 C 0.6759 0.9171 0.93321 0.0
H66 H 0.688 0.94475 0.08395 0.0
C67 C 0.87463 1.00779 0.99041 0.0
C68 C 0.05356 1.00874 0.0845 0.0
C69 C 0.99062 0.12959 0.02232 0.0
C70 C 0.95966 0.17457 0.00357 0.0
C71 C 0.10619 0.16802 0.03355 0.0
C72 C 0.0776 0.14083 0.03657 0.0
C73 C 0.04798 0.18474 0.01705 0.0
C74 C 0.93118 0.14677 0.00627 0.0
C75 C 0.96186 0.10045 0.0254 0.0
H76 H 0.3929 0.8906 0.95703 0.0
H77 H 0.25839 0.91818 0.94932 0.0
H78 H 0.38102 0.84076 0.96381 0.0
H79 H 0.09318 0.84581 0.95744 0.0
H80 H 0.17355 0.17637 0.04461 0.0
H81 H 0.12336 0.12891 0.05077 0.0
H82 H 0.07154 0.20613 0.01601 0.0
H83 H 0.86346 0.13852 0.99581 0.0
C84 C 0.13047 0.94817 0.36391 0.0
C85 C 0.27456 0.93191 0.38212 0.0
C86 C 0.19084 0.94612 0.39792 0.0
C87 C 0.29854 0.92141 0.33184 0.0
C88 C 0.15251 0.93646 0.31309 0.0
C89 C 0.2377 0.92375 0.2974 0.0
N90 N 0.04828 0.96001 0.38018 0.0
C91 C 0.98301 0.95926 0.34746 0.0
C92 C 0.08726 0.937 0.27945 0.0
C93 C 1.00169 0.94796 0.29666 0.0
Gd94 Gd 1.01632 0.0751 0.54775 0.0
Gd95 Gd 1.02501 0.98079 0.46617 0.0
N96 N 0.1656 0.9566 0.44621 0.0
C97 C 0.33038 0.92784 0.41704 0.0
C98 C 0.21728 0.95096 0.47983 0.0
C99 C 0.30112 0.93706 0.46598 0.0
H100 H 0.1947 0.95824 0.51765 0.0
H101 H 0.34306 0.93345 0.493 0.0
H102 H 0.9572 0.08338 0.44179 0.0
H103 H 0.9168 0.96778 0.36078 0.0
H104 H 0.81961 0.08968 0.40177 0.0
H105 H 0.39515 0.91692 0.40634 0.0
H106 H 0.36305 0.91076 0.31903 0.0
H107 H 0.96703 0.0954 0.66669 0.0
H108 H 0.10148 0.92823 0.24007 0.0
H109 H 0.95005 0.94762 0.27084 0.0
H110 H 0.5969 0.11269 0.52834 0.0
H111 H 0.25624 0.91488 0.25856 0.0
H112 H 0.69199 0.12259 0.68919 0.0
H113 H 0.83617 0.11375 0.72234 0.0
N114 N 0.89706 0.09374 0.60315 0.0
C115 C 0.8194 0.09924 0.5844 0.0
C116 C 0.90426 0.09917 0.65206 0.0
C117 C 0.74927 0.11472 0.66477 0.0
C118 C 0.83046 0.10966 0.6836 0.0
C119 C 0.74293 0.10958 0.61465 0.0
H120 H 0.60277 0.12146 0.61634 0.0
N121 N 0.8917 0.08453 0.50655 0.0
C122 C 0.81615 0.09396 0.53453 0.0
C123 C 0.73675 0.09631 0.46489 0.0
C124 C 0.73617 0.09944 0.51407 0.0
C125 C 0.89477 0.08524 0.4608 0.0
C126 C 0.81704 0.09004 0.43863 0.0
O127 O 0.16179 1.00453 0.48089 0.0
O128 O 0.1541 0.05486 0.54361 0.0
O129 O 0.04553 0.11795 0.53981 0.0
O130 O 0.07214 0.11494 0.6093 0.0
O131 O 0.05061 0.99783 0.54879 0.0
O132 O 0.05587 0.05147 0.59801 0.0
O133 O 0.90981 0.04231 0.55393 0.0
O134 O 0.89486 1.00672 0.47403 0.0
O135 O 0.96583 0.95566 0.50648 0.0
O136 O 0.96413 0.93564 0.42642 0.0
O137 O 0.0706 0.05542 0.46921 0.0
O138 O 0.97469 0.01507 0.43809 0.0
C139 C 0.19848 0.02996 0.51435 0.0
C140 C 0.06112 0.02207 0.59174 0.0
C141 C 0.17228 0.14491 0.58397 0.0
C142 C 0.26898 0.18088 0.56553 0.0
C143 C 0.33246 0.14526 0.59749 0.0
C144 C 0.2479 0.13318 0.59863 0.0
C145 C 0.34308 0.16886 0.58115 0.0
C146 C 0.18318 0.16898 0.56769 0.0
C147 C 0.08285 0.13118 0.5832 0.0
C148 C 0.6591 0.10879 0.54367 0.0
C149 C 0.66255 0.11395 0.59386 0.0
H150 H 0.67677 0.10027 0.44778 0.0
C151 C 0.85945 0.0235 0.51749 0.0
C152 C 1.03449 0.03291 0.43097 0.0
C153 C 0.97838 0.90099 0.46508 0.0
C154 C 0.95322 0.85521 0.48257 0.0
C155 C 0.09144 0.86079 0.44359 0.0
C156 C 0.06172 0.88888 0.44443 0.0
C157 C 1.03794 0.84409 0.4626 0.0
C158 C 0.92366 0.88387 0.48373 0.0
C159 C 0.94829 0.93107 0.46624 0.0
H160 H 0.39026 0.13609 0.60897 0.0
H161 H 0.24196 0.11448 0.61066 0.0
H162 H 0.40969 0.17774 0.58078 0.0
H163 H 0.1254 0.1777 0.55535 0.0
H164 H 0.15591 0.85174 0.42763 0.0
H165 H 0.1036 0.90089 0.42829 0.0
H166 H 0.06209 0.82204 0.46061 0.0
H167 H 0.85877 0.89286 0.49923 0.0
C168 C 0.65439 0.58585 0.14886 0.0
C169 C 0.79809 0.6029 0.13137 0.0
C170 C 0.71404 0.58892 0.11537 0.0
C171 C 0.82315 0.61211 0.18127 0.0
C172 C 0.67728 0.59645 0.19944 0.0
C173 C 0.76287 0.60886 0.21525 0.0
N174 N 0.57188 0.5743 0.13243 0.0
C175 C 0.5069 0.57445 0.16491 0.0
C176 C 0.61241 0.59516 0.23275 0.0
C177 C 0.52638 0.58464 0.2155 0.0
Gd178 Gd 0.53903 0.4601 0.96258 0.0
Gd179 Gd 0.54883 0.55443 0.04647 0.0
N180 N 0.6876 0.57978 0.06753 0.0
C181 C 0.85301 0.60807 0.09706 0.0
C182 C 0.73771 0.58684 0.03481 0.0
C183 C 0.82206 0.60044 0.04877 0.0
H184 H 0.71387 0.58064 0.99738 0.0
H185 H 0.86314 0.605 0.02232 0.0
H186 H 0.50345 0.44461 0.06425 0.0
H187 H 0.44044 0.56622 0.15152 0.0
H188 H 0.37619 0.43442 0.10782 0.0
H189 H 0.91817 0.61874 0.10786 0.0
H190 H 0.88795 0.62255 0.19422 0.0
H191 H 0.46796 0.44588 0.84867 0.0
H192 H 0.62722 0.60308 0.27196 0.0
H193 H 0.47504 0.58448 0.24115 0.0
H194 H 0.12898 0.42083 0.99782 0.0
H195 H 0.78213 0.61684 0.2539 0.0
H196 H 0.19192 0.4197 0.8379 0.0
H197 H 0.32844 0.42991 0.79961 0.0
N198 N 0.41038 0.44462 0.91356 0.0
C199 C 0.3372 0.43821 0.93486 0.0
C200 C 0.40868 0.44128 0.86543 0.0
C201 C 0.25305 0.42644 0.85936 0.0
C202 C 0.32993 0.43224 0.83764 0.0
C203 C 0.25602 0.42932 0.9085 0.0
H204 H 0.11726 0.41745 0.91265 0.0
N205 N 0.42412 0.44814 0.00685 0.0
C206 C 0.34376 0.44063 0.98321 0.0
C207 C 0.28035 0.43287 0.05252 0.0
C208 C 0.26921 0.43351 0.00594 0.0
C209 C 0.43731 0.44387 0.04941 0.0
C210 C 0.36543 0.43713 0.07359 0.0
O211 O 0.68553 0.53145 0.02793 0.0
O212 O 0.67891 0.47958 0.97022 0.0
O213 O 0.57481 0.41523 0.9628 0.0
O214 O 0.58863 0.42291 0.89516 0.0
O215 O 0.57663 0.5378 0.9644 0.0
O216 O 0.57778 0.48447 0.91386 0.0
O217 O 0.43355 0.49431 0.95992 0.0
O218 O 0.41861 0.52888 0.04047 0.0
O219 O 0.4839 0.57697 0.00434 0.0
O220 O 0.49893 0.60156 0.0838 0.0
O221 O 0.59538 0.47908 0.04063 0.0
O222 O 0.50015 0.5196 0.07429 0.0
C223 C 0.72258 0.50524 0.99739 0.0
C224 C 0.58554 0.51387 0.92109 0.0
C225 C 0.63108 0.3717 0.88916 0.0
C226 C 0.68784 0.32267 0.88778 0.0
C227 C 0.67795 0.33043 0.81138 0.0
C228 C 0.64408 0.36015 0.83759 0.0
C229 C 0.69992 0.31186 0.83616 0.0
C230 C 0.65233 0.35267 0.91415 0.0
C231 C 0.59768 0.40378 0.91627 0.0
C232 C 0.18715 0.42593 0.98063 0.0
C233 C 0.1806 0.42381 0.932 0.0
H234 H 0.22493 0.42738 0.07115 0.0
C235 C 0.38274 0.51196 0.9972 0.0
C236 C 0.55911 0.50091 0.07975 0.0
C237 C 0.3775 0.61565 0.04587 0.0
C238 C 0.27782 0.6518 0.03042 0.0
C239 C 0.21925 0.61592 0.06329 0.0
C240 C 0.30459 0.60387 0.06246 0.0
C241 C 0.20568 0.63955 0.04718 0.0
C242 C 0.36412 0.63981 0.03026 0.0
C243 C 0.46731 0.6024 0.04325 0.0
H244 H 0.68749 0.32176 0.77162 0.0
H245 H 0.62822 0.37412 0.81737 0.0
H246 H 0.72573 0.28881 0.81474 0.0
H247 H 0.64343 0.36141 0.954 0.0
H248 H 0.16332 0.6069 0.0764 0.0
H249 H 0.3137 0.58536 0.07464 0.0
H250 H 0.13869 0.64843 0.04821 0.0
H251 H 0.42037 0.6487 0.01693 0.0
C252 C 0.63143 0.43755 0.37329 0.0
C253 C 0.78548 0.42618 0.38402 0.0
C254 C 0.70214 0.4391 0.40414 0.0
C255 C 0.79831 0.41415 0.33236 0.0
C256 C 0.64181 0.42357 0.3213 0.0
C257 C 0.72653 0.41291 0.30101 0.0
N258 N 0.55052 0.44741 0.39424 0.0
C259 C 0.47537 0.44168 0.36561 0.0
C260 C 0.566 0.41961 0.29148 0.0
C261 C 0.4821 0.42811 0.31377 0.0
Gd262 Gd 0.54837 0.56987 0.52909 0.0
Gd263 Gd 0.54728 0.47506 0.4809 0.0
N264 N 0.6865 0.45039 0.45364 0.0
C265 C 0.85161 0.4243 0.41621 0.0
C266 C 0.74749 0.44575 0.48444 0.0
C267 C 0.8318 0.4335 0.4665 0.0
H268 H 0.73215 0.45275 0.52337 0.0
H269 H 0.88128 0.43109 0.49141 0.0
H270 H 0.57499 0.57782 0.42074 0.0
H271 H 0.41073 0.44875 0.38295 0.0
H272 H 0.48034 0.58342 0.35691 0.0
H273 H 0.91658 0.41452 0.40228 0.0
H274 H 0.86233 0.40461 0.3162 0.0
H275 H 0.43326 0.60106 0.63405 0.0
H276 H 0.57108 0.40909 0.25134 0.0
H277 H 0.42279 0.42442 0.29108 0.0
H278 H 0.18519 0.59813 0.42657 0.0
H279 H 0.73634 0.40251 0.26115 0.0
H280 H 0.16618 0.61873 0.59947 0.0
H281 H 0.27897 0.61943 0.66135 0.0
N282 N 0.40633 0.59007 0.5581 0.0
C283 C 0.34728 0.5913 0.5242 0.0
C284 C 0.38422 0.60116 0.60721 0.0
C285 C 0.23362 0.6109 0.58753 0.0
C286 C 0.29718 0.61142 0.62261 0.0
C287 C 0.25874 0.60127 0.53772 0.0
H288 H 0.13063 0.60935 0.51092 0.0
N289 N 0.46562 0.57769 0.46692 0.0
C290 C 0.37772 0.58449 0.47674 0.0
C291 C 0.35761 0.58617 0.39673 0.0
C292 C 0.32074 0.58819 0.44151 0.0
C293 C 0.50338 0.57924 0.42585 0.0
C294 C 0.44992 0.58278 0.3897 0.0
O295 O 0.67456 0.50143 0.51731 0.0
O296 O 0.68259 0.54586 0.50239 0.0
O297 O 0.57395 0.61678 0.53432 0.0
O298 O 0.62706 0.60238 0.59034 0.0
O299 O 0.57552 0.50138 0.56336 0.0
O300 O 0.56219 0.55545 0.59261 0.0
O301 O 0.4368 0.54213 0.54571 0.0
O302 O 0.4183 0.49826 0.47508 0.0
O303 O 0.45576 0.46244 0.52653 0.0
O304 O 0.52383 0.42641 0.4659 0.0
O305 O 0.60728 0.54009 0.4544 0.0
O306 O 0.5073 0.5009 0.43438 0.0
C307 C 0.72057 0.52343 0.51124 0.0
C308 C 0.5738 0.52973 0.59929 0.0
C309 C 0.66104 0.65529 0.60166 0.0
C310 C 0.71547 0.70492 0.60436 0.0
C311 C 0.729 0.69304 0.67688 0.0
C312 C 0.68912 0.66423 0.651 0.0
C313 C 0.7423 0.71322 0.65385 0.0
C314 C 0.6736 0.6759 0.57854 0.0
C315 C 0.62003 0.62435 0.57485 0.0
C316 C 0.23047 0.59581 0.45347 0.0
C317 C 0.19948 0.60232 0.50156 0.0
H318 H 0.31643 0.58911 0.3688 0.0
C319 C 0.38388 0.52168 0.51268 0.0
C320 C 0.568 0.5158 0.42088 0.0
C321 C 0.38552 0.41315 0.49211 0.0
C322 C 0.31301 0.3665 0.49182 0.0
C323 C 0.22622 0.40529 0.47661 0.0
C324 C 0.30301 0.42319 0.48164 0.0
C325 C 0.23089 0.37725 0.48192 0.0
C326 C 0.39022 0.38472 0.49679 0.0
C327 C 0.46625 0.43275 0.50168 0.0
H328 H 0.74994 0.69976 0.71499 0.0
H329 H 0.67995 0.64896 0.66974 0.0
H330 H 0.77316 0.7355 0.675 0.0
H331 H 0.65316 0.66906 0.54028 0.0
H332 H 0.16268 0.41323 0.46873 0.0
H333 H 0.29777 0.44502 0.47801 0.0
H334 H 0.17048 0.36373 0.47747 0.0
H335 H 0.45382 0.37716 0.50548 0.0
H336 H 0.36881 0.707 0.05469 0.0
H337 H 0.14913 0.65249 0.9654 0.0
H338 H 0.11573 0.69397 0.93755 0.0
H339 H 0.25828 0.78051 0.09507 0.0
H340 H 0.35723 0.80173 0.09307 0.0
H341 H 0.36675 0.76724 0.10442 0.0
H342 H 0.47502 0.74345 0.02987 0.0
H343 H 0.46603 0.77793 0.01841 0.0
H344 H 0.44082 0.7406 0.96959 0.0
H345 H 0.10484 0.74154 0.9199 0.0
H346 H 0.11668 0.79189 0.91396 0.0
H347 H 0.33949 0.81691 0.0174 0.0
C348 C 0.31441 0.70369 0.02881 0.0
C349 C 0.26158 0.67645 0.01216 0.0
C350 C 0.19007 0.67321 0.9789 0.0
C351 C 0.17076 0.69661 0.96275 0.0
C352 C 0.22321 0.72332 0.98033 0.0
C353 C 0.29353 0.72705 0.01267 0.0
C354 C 0.33754 0.7585 0.02706 0.0
C355 C 0.32943 0.77815 0.08324 0.0
C356 C 0.43567 0.75489 0.01022 0.0
C357 C 0.28115 0.77178 0.99767 0.0
C358 C 0.21577 0.75105 0.97088 0.0
C359 C 0.15557 0.75802 0.94091 0.0
C360 C 0.16239 0.78688 0.93812 0.0
C361 C 0.22868 0.80871 0.96532 0.0
C362 C 0.28862 0.80081 0.99556 0.0
H363 H 0.84117 0.28879 0.87516 0.0
H364 H 0.59217 0.31033 0.95738 0.0
H365 H 0.63061 0.27306 0.99383 0.0
H366 H 0.84354 0.20771 0.84579 0.0
H367 H 0.96267 0.20604 0.85327 0.0
H368 H 0.91591 0.23468 0.83463 0.0
H369 H 0.9933 0.27846 0.90907 0.0
H370 H 0.04117 0.24992 0.92756 0.0
H371 H 0.97506 0.28105 0.97102 0.0
H372 H 0.69602 0.2312 0.01869 0.0
H373 H 0.78877 0.19341 0.03625 0.0
H374 H 0.9938 0.20026 0.9375 0.0
C375 C 0.79457 0.28568 0.90082 0.0
C376 C 0.71329 0.30234 0.91317 0.0
C377 C 0.65498 0.29795 0.94758 0.0
C378 C 0.676 0.27665 0.96814 0.0
C379 C 0.75591 0.26009 0.95421 0.0
C380 C 0.8147 0.26474 0.92178 0.0
C381 C 0.89706 0.24467 0.91335 0.0
C382 C 0.90522 0.22193 0.8585 0.0
C383 C 0.98163 0.26473 0.93134 0.0
C384 C 0.87564 0.22783 0.94593 0.0
C385 C 0.7937 0.23676 0.96897 0.0
C386 C 0.76031 0.22414 0.00086 0.0
C387 C 0.81303 0.2025 0.01031 0.0
C388 C 0.89847 0.19392 0.9883 0.0
C389 C 0.92898 0.20648 0.9551 0.0
H390 H 0.17218 0.23466 0.58482 0.0
H391 H 0.39908 0.18175 0.50128 0.0
H392 H 0.43292 0.22285 0.47295 0.0
H393 H 0.10555 0.26566 0.49435 0.0
H394 H 0.07454 0.30294 0.54139 0.0
H395 H 0.06557 0.2688 0.55385 0.0
H396 H 0.16563 0.29477 0.63162 0.0
H397 H 0.17533 0.32889 0.61923 0.0
H398 H 0.27447 0.30911 0.62524 0.0
H399 H 0.44784 0.27058 0.45684 0.0
H400 H 0.43789 0.32096 0.45061 0.0
H401 H 0.20026 0.34338 0.54288 0.0
C402 C 0.22811 0.23154 0.55997 0.0
C403 C 0.28339 0.20498 0.54566 0.0
C404 C 0.35655 0.20202 0.51347 0.0
C405 C 0.37616 0.22521 0.49694 0.0
C406 C 0.32181 0.25134 0.51257 0.0
C407 C 0.24883 0.25461 0.54302 0.0
C408 C 0.20256 0.28544 0.55495 0.0
C409 C 0.10634 0.2804 0.53493 0.0
C410 C 0.20466 0.30575 0.6111 0.0
C411 C 0.26127 0.29894 0.52668 0.0
C412 C 0.32978 0.27887 0.50263 0.0
C413 C 0.39419 0.28644 0.4753 0.0
C414 C 0.38835 0.31521 0.47224 0.0
C415 C 0.3184 0.33618 0.49617 0.0
C416 C 0.25396 0.32775 0.52366 0.0
H417 H 1.00337 0.82694 0.54291 0.0
H418 H 0.77621 0.83945 0.46195 0.0
H419 H 0.68874 0.80225 0.48389 0.0
H420 H 0.97819 0.74652 0.50709 0.0
H421 H 1.01127 0.74732 0.56631 0.0
H422 H 0.05325 0.77619 0.54671 0.0
H423 H 0.99235 0.81984 0.62718 0.0
H424 H 0.95103 0.7911 0.64731 0.0
H425 H 0.87605 0.81968 0.64301 0.0
H426 H 0.6303 0.7602 0.51051 0.0
H427 H 0.60221 0.72156 0.54574 0.0
H428 H 0.86893 0.73751 0.60876 0.0
C429 C 0.9349 0.82208 0.53016 0.0
C430 C 0.89656 0.83606 0.50066 0.0
C431 C 0.80659 0.82925 0.48501 0.0
C432 C 0.75671 0.80797 0.49699 0.0
C433 C 0.79754 0.79396 0.52506 0.0
C434 C 0.88431 0.80114 0.542 0.0
C435 C 0.91355 0.7829 0.5712 0.0
C436 C 0.9938 0.762 0.54633 0.0
C437 C 0.93445 0.80468 0.62539 0.0
C438 C 0.83022 0.76396 0.56765 0.0
C439 C 0.76391 0.77048 0.54079 0.0
C440 C 0.68167 0.75515 0.5319 0.0
C441 C 0.6665 0.73307 0.55171 0.0
C442 C 0.73304 0.72665 0.58033 0.0
C443 C 0.8161 0.7422 0.58775 0.0
H444 H 0.35038 0.02714 0.06216 0.0
H445 H 0.29811 0.97191 0.9061 0.0
H446 H 0.45982 0.97062 0.88828 0.0
H447 H 0.53593 0.0719 0.04967 0.0
H448 H 0.60073 0.0698 0.09964 0.0
H449 H 0.48064 0.06777 0.10091 0.0
H450 H 0.48923 0.01568 0.10948 0.0
H451 H 0.60951 0.01747 0.10888 0.0
H452 H 0.55203 0.98409 0.06462 0.0
H453 H 0.62554 0.977 0.88641 0.0
H454 H 0.78757 0.98401 0.90175 0.0
H455 H 0.73849 0.03055 0.06016 0.0
C456 C 0.37342 0.01487 0.02431 0.0
C457 C 0.31189 0.99975 0.9853 0.0
C458 C 0.34423 0.98356 0.93639 0.0
C459 C 0.43587 0.98285 0.92591 0.0
C460 C 0.49499 0.99792 0.96494 0.0
C461 C 0.46556 1.01308 0.01335 0.0
C462 C 0.54455 0.02539 0.04861 0.0
C463 C 0.54017 0.06084 0.07633 0.0
C464 C 0.54907 1.00973 0.08505 0.0
C465 C 0.62247 0.01545 0.01231 0.0
C466 C 0.59187 0.99992 0.96422 0.0
C467 C 0.65025 0.98884 0.92398 0.0
C468 C 0.74238 0.99291 0.93311 0.0
C469 C 0.77618 1.00737 0.98214 0.0
C470 C 0.71495 0.01936 0.02223 0.0
H471 H 0.33554 1.00865 0.44495 0.0
H472 H 0.28258 0.05175 0.60323 0.0
H473 H 0.44404 0.05208 0.62037 0.0
H474 H 0.52188 0.96092 0.44651 0.0
H475 H 0.58686 0.96794 0.40074 0.0
H476 H 0.46671 0.96973 0.39952 0.0
H477 H 0.474 0.02539 0.40404 0.0
H478 H 0.5943 0.0238 0.40437 0.0
H479 H 0.53638 0.05466 0.45335 0.0
H480 H 0.60977 0.04627 0.62109 0.0
H481 H 0.77193 0.04081 0.60562 0.0
H482 H 0.72359 1.00587 0.44703 0.0
C483 C 0.35828 0.018 0.48314 0.0
C484 C 0.29641 0.03001 0.52287 0.0
C485 C 0.32868 0.0425 0.57231 0.0
C486 C 0.42029 0.04265 0.58241 0.0
C487 C 0.47962 0.03073 0.54268 0.0
C488 C 0.45041 0.01915 0.49398 0.0
C489 C 0.52963 1.00974 0.45848 0.0
C490 C 0.52602 0.97501 0.4243 0.0
C491 C 0.53379 0.02957 0.42827 0.0
C492 C 0.60737 0.01715 0.49483 0.0
C493 C 0.57652 0.029 0.54316 0.0
C494 C 0.6347 0.03728 0.58339 0.0
C495 C 0.72691 0.03413 0.57421 0.0
C496 C 0.76095 0.02336 0.52523 0.0
C497 C 0.6999 0.01422 0.48494 0.0
H498 H 0.85852 0.52404 0.06728 0.0
H499 H 0.80678 0.48674 0.90896 0.0
H500 H 0.96859 0.48775 0.89282 0.0
H501 H 0.04016 0.57349 0.07134 0.0
H502 H 0.10894 0.56526 0.11468 0.0
H503 H 0.989 0.56233 0.11671 0.0
H504 H 0.99659 0.50572 0.10588 0.0
H505 H 0.11683 0.50791 0.10644 0.0
H506 H 0.0601 0.47799 0.05534 0.0
H507 H 0.13444 0.49425 0.89355 0.0
H508 H 0.29647 0.49904 0.9098 0.0
H509 H 0.2464 0.52741 0.06707 0.0
C510 C 0.88169 0.51612 0.02931 0.0
C511 C 0.82034 0.50538 0.98923 0.0
C512 C 0.85281 0.49491 0.94004 0.0
C513 C 0.9445 0.49556 0.93057 0.0
C514 C 1.00346 0.50619 0.97067 0.0
C515 C 0.97381 0.51567 0.01902 0.0
C516 C 0.05246 0.52416 0.05487 0.0
C517 C 0.04743 0.55835 0.09161 0.0
C518 C 0.05673 0.50266 0.08225 0.0
C519 C 0.13063 0.51835 0.01915 0.0
C520 C 0.10032 0.50835 0.97085 0.0
C521 C 0.15896 0.50171 0.93117 0.0
C522 C 0.25108 0.50439 0.94076 0.0
C523 C 0.28452 0.51293 0.98946 0.0
C524 C 0.22307 0.52068 0.02935 0.0
H525 H 0.24643 0.50397 0.44357 0.0
H526 H 0.29785 0.54193 0.60191 0.0
H527 H 0.13538 0.54613 0.61823 0.0
H528 H 0.05626 0.55229 0.4495 0.0
H529 H 0.99614 0.52223 0.40026 0.0
H530 H 0.11651 0.52162 0.40139 0.0
H531 H 0.11121 0.466 0.39862 0.0
H532 H 0.99087 0.46694 0.39775 0.0
H533 H 0.04806 0.45905 0.44506 0.0
H534 H 0.96632 0.54592 0.61777 0.0
H535 H 0.8037 0.54292 0.6004 0.0
H536 H 0.85822 0.50674 0.44263 0.0
C537 C 0.22327 0.5129 0.48163 0.0
C538 C 0.28524 0.52277 0.52156 0.0
C539 C 0.25206 0.53453 0.57078 0.0
C540 C 0.15966 0.53688 0.58039 0.0
C541 C 0.10034 0.5274 0.54041 0.0
C542 C 0.13069 0.51567 0.49194 0.0
C543 C 0.0523 0.50774 0.45585 0.0
C544 C 0.05553 0.52712 0.42492 0.0
C545 C 0.05053 0.47285 0.42234 0.0
C546 C 0.97331 0.51697 0.49155 0.0
C547 C 1.00277 0.52801 0.54017 0.0
C548 C 0.94271 0.53746 0.57984 0.0
C549 C 0.85047 0.53571 0.56971 0.0
C550 C 0.8186 0.52499 0.52039 0.0
C551 C 0.88097 0.51543 0.48077 0.0
H552 H 0.91814 0.03277 0.35954 0.0
H553 H 0.19898 0.02565 0.3887 0.0
H554 H 0.2358 0.01948 0.30316 0.0
H555 H 0.91107 0.97981 0.22886 0.0
H556 H 0.8339 1.00443 0.21532 0.0
H557 H 0.83629 1.00469 0.27643 0.0
H558 H 0.8581 0.06474 0.3094 0.0
H559 H 0.86506 0.06285 0.24729 0.0
H560 H 0.95531 0.07969 0.29046 0.0
H561 H 0.23984 1.01134 0.21275 0.0
H562 H 0.21241 1.00542 0.12649 0.0
H563 H 0.93087 0.02362 0.15968 0.0
C564 C 0.98731 0.02999 0.34778 0.0
C565 C 0.05602 0.0296 0.38028 0.0
C566 C 0.14581 0.02612 0.36411 0.0
C567 C 0.16711 0.02253 0.31568 0.0
C568 C 0.09789 0.02331 0.28452 0.0
C569 C 1.0099 0.02737 0.30015 0.0
C570 C 0.94861 0.02894 0.26035 0.0
C571 C 0.87836 1.00291 0.24436 0.0
C572 C 0.90417 0.06096 0.27793 0.0
C573 C 1.01532 0.02409 0.21924 0.0
C574 C 0.10106 0.02075 0.23382 0.0
C575 C 0.17319 0.01432 0.2012 0.0
C576 C 0.15708 1.01093 0.15236 0.0
C577 C 0.06995 0.01447 0.13691 0.0
C578 C 0.99845 0.02145 0.17098 0.0
H579 H 0.04636 0.04684 0.87773 0.0
H580 H 0.12564 0.95032 0.82662 0.0
H581 H 0.13957 0.94694 0.7415 0.0
H582 H 0.9138 0.03779 0.77301 0.0
H583 H 0.9462 0.07412 0.77152 0.0
H584 H 0.94716 0.06987 0.82941 0.0
H585 H 0.11339 0.08643 0.84245 0.0
H586 H 0.11297 0.09083 0.78462 0.0
H587 H 0.19382 0.06585 0.79489 0.0
H588 H 0.135 0.95251 0.6613 0.0
H589 H 0.11547 0.96673 0.59092 0.0
H590 H 0.04424 0.06039 0.69238 0.0
C591 C 0.06763 0.02504 0.84883 0.0
C592 C 0.08466 0.99879 0.85929 0.0
C593 C 0.11182 0.97076 0.81997 0.0
C594 C 0.12018 0.9686 0.77134 0.0
C595 C 0.10182 0.99471 0.76231 0.0
C596 C 0.07655 0.02247 0.79989 0.0
C597 C 0.05813 0.04671 0.77957 0.0
C598 C 0.96053 0.05776 0.78894 0.0
C599 C 0.12349 0.07408 0.8017 0.0
C600 C 0.07577 0.02804 0.72457 0.0
C601 C 0.101 0.99814 0.71569 0.0
C602 C 0.1165 0.97598 0.66787 0.0
C603 C 0.10523 0.9844 0.62796 0.0
C604 C 0.0792 0.01489 0.63564 0.0
C605 C 0.06539 0.03707 0.68495 0.0
H606 H 0.44418 0.5039 0.34659 0.0
H607 H 0.72822 0.51404 0.37754 0.0
H608 H 0.75744 0.50892 0.29204 0.0
H609 H 0.46319 0.44869 0.21356 0.0
H610 H 0.36953 0.46617 0.19633 0.0
H611 H 0.37473 0.46656 0.25747 0.0
H612 H 0.35703 0.52656 0.29478 0.0
H613 H 0.35381 0.52535 0.23303 0.0
H614 H 0.43521 0.54915 0.27689 0.0
H615 H 0.75558 0.50488 0.20457 0.0
H616 H 0.72203 0.50341 0.1214 0.0
H617 H 0.43867 0.50045 0.14932 0.0
C618 C 0.51251 0.50425 0.33474 0.0
C619 C 0.5843 0.50891 0.3681 0.0
C620 C 0.67267 0.51025 0.35216 0.0
C621 C 0.6898 0.50736 0.30376 0.0
C622 C 0.6176 0.50354 0.27197 0.0
C623 C 0.53063 0.50201 0.28672 0.0
C624 C 0.46493 0.49955 0.2461 0.0
C625 C 0.41526 0.46836 0.22721 0.0
C626 C 0.39884 0.52678 0.26382 0.0
C627 C 0.52834 0.5011 0.20705 0.0
C628 C 0.61623 0.50266 0.22229 0.0
C629 C 0.68704 0.50366 0.19223 0.0
C630 C 0.66756 0.50285 0.1452 0.0
C631 C 0.57811 0.50194 0.12941 0.0
C632 C 0.50767 0.50131 0.16086 0.0
H633 H 0.57797 0.4835 0.63363 0.0
H634 H 0.599 0.58336 0.68268 0.0
H635 H 0.61573 0.58921 0.76899 0.0
H636 H 0.44733 0.48498 0.73422 0.0
H637 H 0.50073 0.45214 0.73884 0.0
H638 H 0.49727 0.45524 0.68009 0.0
H639 H 0.6697 0.45059 0.6737 0.0
H640 H 0.67376 0.44745 0.73249 0.0
H641 H 0.73769 0.47704 0.72346 0.0
H642 H 0.62301 0.58491 0.85002 0.0
H643 H 0.6147 0.57111 0.92142 0.0
H644 H 0.588 0.47386 0.82128 0.0
C645 C 0.58721 0.5066 0.66238 0.0
C646 C 0.58743 0.53296 0.65105 0.0
C647 C 0.59859 0.56275 0.69009 0.0
C648 C 0.60852 0.56635 0.73936 0.0
C649 C 0.60737 0.53996 0.74919 0.0
C650 C 0.59694 0.51065 0.71192 0.0
C651 C 0.59382 0.48632 0.7331 0.0
C652 C 0.50447 0.46864 0.72084 0.0
C653 C 0.67349 0.46403 0.71458 0.0
C654 C 0.60194 0.50667 0.78819 0.0
C655 C 0.61081 0.53747 0.79642 0.0
C656 C 0.61669 0.56085 0.84406 0.0
C657 C 0.61187 0.55266 0.88449 0.0
C658 C 0.60062 0.5213 0.87734 0.0
C659 C 0.59711 0.498 0.82828 0.0
loop_
_geom_bond_atom_site_label_1
_geom_bond_atom_site_label_2
_geom_bond_distance
_geom_bond_site_symmetry_2
_ccdc_geom_bond_type
C0 C2 1.422 . S
C0 C4 1.415 . S
C0 N6 1.369 . S
C1 C2 1.421 . S
C1 C3 1.417 . S
C1 C13 1.440 . S
C2 C0 1.422 . S
C2 C1 1.421 . S
C2 N12 1.359 . S
C3 C1 1.417 . S
C3 C5 1.329 . S
C3 H22 0.930 . S
C4 C0 1.415 . S
C4 C5 1.437 . S
C4 C8 1.413 . S
C5 C3 1.329 . S
C5 C4 1.437 . S
C5 H27 0.929 . S
N6 C0 1.369 . S
N6 C7 1.338 . S
N6 Gd11 2.622 . S
C7 N6 1.338 . S
C7 C9 1.378 . S
C7 H19 0.929 . S
C8 C4 1.413 . S
C8 C9 1.348 . S
C8 H24 0.931 . S
C9 C7 1.378 . S
C9 C8 1.348 . S
C9 H25 0.930 . S
Gd10 N30 2.622 . S
Gd10 N37 2.570 . S
Gd10 O44 2.353 1_655 S
Gd10 O45 2.468 1_655 S
Gd10 O46 2.427 1_655 S
Gd10 O48 2.388 1_655 S
Gd10 O49 2.386 . S
Gd10 O53 2.307 1_556 S
Gd10 C63 2.805 1_655 S
Gd11 N6 2.622 . S
Gd11 N12 2.570 . S
Gd11 O43 2.386 . S
Gd11 O47 2.307 1_554 S
Gd11 O50 2.353 1_455 S
Gd11 O51 2.468 1_455 S
Gd11 O52 2.427 1_455 S
Gd11 O54 2.388 1_455 S
Gd11 C75 2.805 1_455 S
N12 C2 1.359 . S
N12 Gd11 2.570 . S
N12 C14 1.343 1_554 S
C13 C1 1.440 . S
C13 C15 1.311 1_554 S
C13 H21 0.923 1_554 S
C14 N12 1.343 1_556 S
C14 C15 1.390 . S
C14 H16 0.931 . S
C15 C13 1.311 1_556 S
C15 C14 1.390 . S
C15 H17 0.930 . S
H16 C14 0.931 . S
H17 C15 0.930 . S
H18 C41 0.931 . S
H19 C7 0.929 . S
H20 C42 0.930 . S
H21 C13 0.923 1_556 S
H22 C3 0.930 . S
H23 C32 0.929 . S
H24 C8 0.931 . S
H25 C9 0.930 . S
H26 C64 0.930 . S
H27 C5 0.929 . S
H28 C33 0.931 . S
H29 C34 0.930 . S
N30 Gd10 2.622 . S
N30 C31 1.369 . S
N30 C32 1.338 . S
C31 N30 1.369 . S
C31 C35 1.415 . S
C31 C38 1.422 . S
C32 H23 0.929 . S
C32 N30 1.338 . S
C32 C34 1.378 . S
C33 H28 0.931 . S
C33 C34 1.348 . S
C33 C35 1.413 . S
C34 H29 0.930 . S
C34 C32 1.378 . S
C34 C33 1.348 . S
C35 C31 1.415 . S
C35 C33 1.413 . S
C35 C65 1.437 . S
H36 C65 0.929 . S
N37 Gd10 2.570 . S
N37 C38 1.359 . S
N37 C41 1.343 1_556 S
C38 C31 1.422 . S
C38 N37 1.359 . S
C38 C40 1.421 . S
C39 C40 1.434 . S
C39 C42 1.315 1_556 S
C39 H66 0.926 1_556 S
C40 C38 1.421 . S
C40 C39 1.434 . S
C40 C64 1.417 . S
C41 H18 0.931 . S
C41 N37 1.343 1_554 S
C41 C42 1.390 . S
C42 H20 0.930 . S
C42 C39 1.315 1_554 S
C42 C41 1.390 . S
O43 Gd11 2.386 . S
O43 C55 1.265 1_545 S
O44 Gd10 2.353 1_455 S
O44 C55 1.242 1_556 S
O45 Gd10 2.468 1_455 S
O45 C63 1.263 . S
O46 Gd10 2.427 1_455 S
O46 C63 1.252 . S
O47 Gd11 2.307 1_556 S
O47 C56 1.261 1_545 S
O48 Gd10 2.388 1_455 S
O48 C56 1.252 . S
O49 Gd10 2.386 . S
O49 C67 1.265 1_565 S
O50 Gd11 2.353 1_655 S
O50 C67 1.242 1_554 S
O51 Gd11 2.468 1_655 S
O51 C75 1.263 . S
O52 Gd11 2.427 1_655 S
O52 C75 1.252 . S
O53 Gd10 2.307 1_554 S
O53 C68 1.261 1_565 S
O54 Gd11 2.388 1_655 S
O54 C68 1.252 . S
C55 O43 1.265 1_565 S
C55 O44 1.242 1_554 S
C56 O47 1.261 1_565 S
C56 O48 1.252 . S
C57 C60 1.394 . S
C57 C62 1.370 . S
C57 C63 1.500 . S
C58 C61 1.383 . S
C58 C62 1.395 . S
C59 C60 1.396 . S
C59 C61 1.365 . S
C59 H76 0.929 . S
C60 C57 1.394 . S
C60 C59 1.396 . S
C60 H77 0.930 . S
C61 C58 1.383 . S
C61 C59 1.365 . S
C61 H78 0.931 . S
C62 C57 1.370 . S
C62 C58 1.395 . S
C62 H79 0.930 1_556 S
C63 Gd10 2.805 1_455 S
C63 O45 1.263 . S
C63 O46 1.252 . S
C63 C57 1.500 . S
C64 H26 0.930 . S
C64 C40 1.417 . S
C64 C65 1.329 . S
C65 C35 1.437 . S
C65 H36 0.929 . S
C65 C64 1.329 . S
H66 C39 0.926 1_554 S
C67 O49 1.265 1_545 S
C67 O50 1.242 1_556 S
C68 O53 1.261 1_545 S
C68 O54 1.252 . S
C69 C72 1.394 . S
C69 C74 1.370 . S
C69 C75 1.500 . S
C70 C73 1.383 . S
C70 C74 1.395 . S
C71 C72 1.396 . S
C71 C73 1.365 . S
C71 H80 0.929 . S
C72 C69 1.394 . S
C72 C71 1.396 . S
C72 H81 0.930 . S
C73 C70 1.383 . S
C73 C71 1.365 . S
C73 H82 0.931 . S
C74 C69 1.370 . S
C74 C70 1.395 . S
C74 H83 0.930 1_554 S
C75 Gd11 2.805 1_655 S
C75 O51 1.263 . S
C75 O52 1.252 . S
C75 C69 1.500 . S
H76 C59 0.929 . S
H77 C60 0.930 . S
H78 C61 0.931 . S
H79 C62 0.930 1_554 S
H80 C71 0.929 . S
H81 C72 0.930 . S
H82 C73 0.931 . S
H83 C74 0.930 1_556 S
C84 C86 1.422 . S
C84 C88 1.415 . S
C84 N90 1.369 . S
C85 C86 1.421 . S
C85 C87 1.417 . S
C85 C97 1.422 . S
C86 C84 1.422 . S
C86 C85 1.421 . S
C86 N96 1.359 . S
C87 C85 1.417 . S
C87 C89 1.329 . S
C87 H106 0.930 . S
C88 C84 1.415 . S
C88 C89 1.437 . S
C88 C92 1.413 . S
C89 C87 1.329 . S
C89 C88 1.437 . S
C89 H111 0.929 . S
N90 C84 1.369 . S
N90 C91 1.338 . S
N90 Gd95 2.622 . S
C91 N90 1.338 . S
C91 C93 1.378 . S
C91 H103 0.929 . S
C92 C88 1.413 . S
C92 C93 1.348 . S
C92 H108 0.931 . S
C93 C91 1.378 . S
C93 C92 1.348 . S
C93 H109 0.930 . S
Gd94 N114 2.622 . S
Gd94 N121 2.570 . S
Gd94 O128 2.353 1_655 S
Gd94 O129 2.468 1_655 S
Gd94 O130 2.427 1_655 S
Gd94 O132 2.388 1_655 S
Gd94 O133 2.386 . S
Gd94 O137 2.307 . S
Gd94 C147 2.805 1_655 S
Gd95 N90 2.622 . S
Gd95 N96 2.570 . S
Gd95 O127 2.386 . S
Gd95 O131 2.307 . S
Gd95 O134 2.353 1_455 S
Gd95 O135 2.468 1_455 S
Gd95 O136 2.427 1_455 S
Gd95 O138 2.388 1_455 S
Gd95 C159 2.805 1_455 S
N96 C86 1.359 . S
N96 Gd95 2.570 . S
N96 C98 1.343 . S
C97 C85 1.422 . S
C97 C99 1.321 . S
C97 H105 0.931 . S
C98 N96 1.343 . S
C98 C99 1.390 . S
C98 H100 0.931 . S
C99 C97 1.321 . S
C99 C98 1.390 . S
C99 H101 0.930 . S
H100 C98 0.931 . S
H101 C99 0.930 . S
H102 C125 0.931 . S
H103 C91 0.929 . S
H104 C126 0.930 . S
H105 C97 0.931 . S
H106 C87 0.930 . S
H107 C116 0.929 . S
H108 C92 0.931 . S
H109 C93 0.930 . S
H110 C148 0.930 . S
H111 C89 0.929 . S
H112 C117 0.931 . S
H113 C118 0.930 . S
N114 Gd94 2.622 . S
N114 C115 1.369 . S
N114 C116 1.338 . S
C115 N114 1.369 . S
C115 C119 1.415 . S
C115 C122 1.422 . S
C116 H107 0.929 . S
C116 N114 1.338 . S
C116 C118 1.378 . S
C117 H112 0.931 . S
C117 C118 1.348 . S
C117 C119 1.413 . S
C118 H113 0.930 . S
C118 C116 1.378 . S
C118 C117 1.348 . S
C119 C115 1.415 . S
C119 C117 1.413 . S
C119 C149 1.437 . S
H120 C149 0.929 . S
N121 Gd94 2.570 . S
N121 C122 1.359 . S
N121 C125 1.343 . S
C122 C115 1.422 . S
C122 N121 1.359 . S
C122 C124 1.421 . S
C123 C124 1.422 . S
C123 C126 1.321 . S
C123 H150 0.931 . S
C124 C122 1.421 . S
C124 C123 1.422 . S
C124 C148 1.417 . S
C125 H102 0.931 . S
C125 N121 1.343 . S
C125 C126 1.390 . S
C126 H104 0.930 . S
C126 C123 1.321 . S
C126 C125 1.390 . S
O127 Gd95 2.386 . S
O127 C139 1.265 1_565 S
O128 Gd94 2.353 1_455 S
O128 C139 1.242 . S
O129 Gd94 2.468 1_455 S
O129 C147 1.263 . S
O130 Gd94 2.427 1_455 S
O130 C147 1.252 . S
O131 Gd95 2.307 . S
O131 C140 1.261 1_565 S
O132 Gd94 2.388 1_455 S
O132 C140 1.252 . S
O133 Gd94 2.386 . S
O133 C151 1.265 1_545 S
O134 Gd95 2.353 1_655 S
O134 C151 1.242 . S
O135 Gd95 2.468 1_655 S
O135 C159 1.263 . S
O136 Gd95 2.427 1_655 S
O136 C159 1.252 . S
O137 Gd94 2.307 . S
O137 C152 1.261 1_545 S
O138 Gd95 2.388 1_655 S
O138 C152 1.252 . S
C139 O127 1.265 1_545 S
C139 O128 1.242 . S
C140 O131 1.261 1_545 S
C140 O132 1.252 . S
C141 C144 1.394 . S
C141 C146 1.370 . S
C141 C147 1.500 . S
C142 C145 1.383 . S
C142 C146 1.395 . S
C143 C144 1.396 . S
C143 C145 1.365 . S
C143 H160 0.929 . S
C144 C141 1.394 . S
C144 C143 1.396 . S
C144 H161 0.930 . S
C145 C142 1.383 . S
C145 C143 1.365 . S
C145 H162 0.931 . S
C146 C141 1.370 . S
C146 C142 1.395 . S
C146 H163 0.930 . S
C147 Gd94 2.805 1_455 S
C147 O129 1.263 . S
C147 O130 1.252 . S
C147 C141 1.500 . S
C148 H110 0.930 . S
C148 C124 1.417 . S
C148 C149 1.329 . S
C149 C119 1.437 . S
C149 H120 0.929 . S
C149 C148 1.329 . S
H150 C123 0.931 . S
C151 O133 1.265 1_565 S
C151 O134 1.242 . S
C152 O137 1.261 1_565 S
C152 O138 1.252 . S
C153 C156 1.394 . S
C153 C158 1.370 . S
C153 C159 1.500 . S
C154 C157 1.383 . S
C154 C158 1.395 . S
C155 C156 1.396 . S
C155 C157 1.365 . S
C155 H164 0.929 . S
C156 C153 1.394 . S
C156 C155 1.396 . S
C156 H165 0.930 . S
C157 C154 1.383 . S
C157 C155 1.365 . S
C157 H166 0.931 . S
C158 C153 1.370 . S
C158 C154 1.395 . S
C158 H167 0.930 . S
C159 Gd95 2.805 1_655 S
C159 O135 1.263 . S
C159 O136 1.252 . S
C159 C153 1.500 . S
H160 C143 0.929 . S
H161 C144 0.930 . S
H162 C145 0.931 . S
H163 C146 0.930 . S
H164 C155 0.929 . S
H165 C156 0.930 . S
H166 C157 0.931 . S
H167 C158 0.930 . S
C168 C170 1.422 . S
C168 C172 1.415 . S
C168 N174 1.369 . S
C169 C170 1.421 . S
C169 C171 1.417 . S
C169 C181 1.440 . S
C170 C168 1.422 . S
C170 C169 1.421 . S
C170 N180 1.359 . S
C171 C169 1.417 . S
C171 C173 1.329 . S
C171 H190 0.930 . S
C172 C168 1.415 . S
C172 C173 1.437 . S
C172 C176 1.413 . S
C173 C171 1.329 . S
C173 C172 1.437 . S
C173 H195 0.929 . S
N174 C168 1.369 . S
N174 C175 1.338 . S
N174 Gd179 2.622 . S
C175 N174 1.338 . S
C175 C177 1.378 . S
C175 H187 0.929 . S
C176 C172 1.413 . S
C176 C177 1.348 . S
C176 H192 0.931 . S
C177 C175 1.378 . S
C177 C176 1.348 . S
C177 H193 0.930 . S
Gd178 N198 2.622 . S
Gd178 N205 2.570 . S
Gd178 O212 2.353 . S
Gd178 O213 2.468 . S
Gd178 O214 2.427 . S
Gd178 O216 2.388 . S
Gd178 O217 2.386 . S
Gd178 O221 2.307 1_556 S
Gd178 C231 2.805 . S
Gd179 N174 2.622 . S
Gd179 N180 2.570 . S
Gd179 O211 2.386 . S
Gd179 O215 2.307 1_554 S
Gd179 O218 2.353 . S
Gd179 O219 2.468 . S
Gd179 O220 2.427 . S
Gd179 O222 2.388 . S
Gd179 C243 2.805 . S
N180 C170 1.359 . S
N180 Gd179 2.570 . S
N180 C182 1.343 1_554 S
C181 C169 1.440 . S
C181 C183 1.311 1_554 S
C181 H189 0.923 1_554 S
C182 N180 1.343 1_556 S
C182 C183 1.390 . S
C182 H184 0.931 . S
C183 C181 1.311 1_556 S
C183 C182 1.390 . S
C183 H185 0.930 . S
H184 C182 0.931 . S
H185 C183 0.930 . S
H186 C209 0.931 . S
H187 C175 0.929 . S
H188 C210 0.930 . S
H189 C181 0.923 1_556 S
H190 C171 0.930 . S
H191 C200 0.929 . S
H192 C176 0.931 . S
H193 C177 0.930 . S
H194 C232 0.930 . S
H195 C173 0.929 . S
H196 C201 0.931 . S
H197 C202 0.930 . S
N198 Gd178 2.622 . S
N198 C199 1.369 . S
N198 C200 1.338 . S
C199 N198 1.369 . S
C199 C203 1.415 . S
C199 C206 1.422 . S
C200 H191 0.929 . S
C200 N198 1.338 . S
C200 C202 1.378 . S
C201 H196 0.931 . S
C201 C202 1.348 . S
C201 C203 1.413 . S
C202 H197 0.930 . S
C202 C200 1.378 . S
C202 C201 1.348 . S
C203 C199 1.415 . S
C203 C201 1.413 . S
C203 C233 1.437 . S
H204 C233 0.929 . S
N205 Gd178 2.570 . S
N205 C206 1.359 . S
N205 C209 1.343 1_556 S
C206 C199 1.422 . S
C206 N205 1.359 . S
C206 C208 1.421 . S
C207 C208 1.434 . S
C207 C210 1.315 1_556 S
C207 H234 0.926 1_556 S
C208 C206 1.421 . S
C208 C207 1.434 . S
C208 C232 1.417 . S
C209 H186 0.931 . S
C209 N205 1.343 1_554 S
C209 C210 1.390 . S
C210 H188 0.930 . S
C210 C207 1.315 1_554 S
C210 C209 1.390 . S
O211 Gd179 2.386 . S
O211 C223 1.265 . S
O212 Gd178 2.353 . S
O212 C223 1.242 1_556 S
O213 Gd178 2.468 . S
O213 C231 1.263 . S
O214 Gd178 2.427 . S
O214 C231 1.252 . S
O215 Gd179 2.307 1_556 S
O215 C224 1.261 . S
O216 Gd178 2.388 . S
O216 C224 1.252 . S
O217 Gd178 2.386 . S
O217 C235 1.265 . S
O218 Gd179 2.353 . S
O218 C235 1.242 1_554 S
O219 Gd179 2.468 . S
O219 C243 1.263 . S
O220 Gd179 2.427 . S
O220 C243 1.252 . S
O221 Gd178 2.307 1_554 S
O221 C236 1.261 . S
O222 Gd179 2.388 . S
O222 C236 1.252 . S
C223 O211 1.265 . S
C223 O212 1.242 1_554 S
C224 O215 1.261 . S
C224 O216 1.252 . S
C225 C228 1.394 . S
C225 C230 1.370 . S
C225 C231 1.500 . S
C226 C229 1.383 . S
C226 C230 1.395 . S
C227 C228 1.396 . S
C227 C229 1.365 . S
C227 H244 0.929 . S
C228 C225 1.394 . S
C228 C227 1.396 . S
C228 H245 0.930 . S
C229 C226 1.383 . S
C229 C227 1.365 . S
C229 H246 0.931 . S
C230 C225 1.370 . S
C230 C226 1.395 . S
C230 H247 0.930 1_556 S
C231 Gd178 2.805 . S
C231 O213 1.263 . S
C231 O214 1.252 . S
C231 C225 1.500 . S
C232 H194 0.930 . S
C232 C208 1.417 . S
C232 C233 1.329 . S
C233 C203 1.437 . S
C233 H204 0.929 . S
C233 C232 1.329 . S
H234 C207 0.926 1_554 S
C235 O217 1.265 . S
C235 O218 1.242 1_556 S
C236 O221 1.261 . S
C236 O222 1.252 . S
C237 C240 1.394 . S
C237 C242 1.370 . S
C237 C243 1.500 . S
C238 C241 1.383 . S
C238 C242 1.395 . S
C239 C240 1.396 . S
C239 C241 1.365 . S
C239 H248 0.929 . S
C240 C237 1.394 . S
C240 C239 1.396 . S
C240 H249 0.930 . S
C241 C238 1.383 . S
C241 C239 1.365 . S
C241 H250 0.931 . S
C242 C237 1.370 . S
C242 C238 1.395 . S
C242 H251 0.930 1_554 S
C243 Gd179 2.805 . S
C243 O219 1.263 . S
C243 O220 1.252 . S
C243 C237 1.500 . S
H244 C227 0.929 . S
H245 C228 0.930 . S
H246 C229 0.931 . S
H247 C230 0.930 1_554 S
H248 C239 0.929 . S
H249 C240 0.930 . S
H250 C241 0.931 . S
H251 C242 0.930 1_556 S
C252 C254 1.422 . S
C252 C256 1.415 . S
C252 N258 1.369 . S
C253 C254 1.421 . S
C253 C255 1.417 . S
C253 C265 1.422 . S
C254 C252 1.422 . S
C254 C253 1.421 . S
C254 N264 1.359 . S
C255 C253 1.417 . S
C255 C257 1.329 . S
C255 H274 0.930 . S
C256 C252 1.415 . S
C256 C257 1.437 . S
C256 C260 1.413 . S
C257 C255 1.329 . S
C257 C256 1.437 . S
C257 H279 0.929 . S
N258 C252 1.369 . S
N258 C259 1.338 . S
N258 Gd263 2.622 . S
C259 N258 1.338 . S
C259 C261 1.378 . S
C259 H271 0.929 . S
C260 C256 1.413 . S
C260 C261 1.348 . S
C260 H276 0.931 . S
C261 C259 1.378 . S
C261 C260 1.348 . S
C261 H277 0.930 . S
Gd262 N282 2.622 . S
Gd262 N289 2.570 . S
Gd262 O296 2.353 . S
Gd262 O297 2.468 . S
Gd262 O298 2.427 . S
Gd262 O300 2.388 . S
Gd262 O301 2.386 . S
Gd262 O305 2.307 . S
Gd262 C315 2.805 . S
Gd263 N258 2.622 . S
Gd263 N264 2.570 . S
Gd263 O295 2.386 . S
Gd263 O299 2.307 . S
Gd263 O302 2.353 . S
Gd263 O303 2.468 . S
Gd263 O304 2.427 . S
Gd263 O306 2.388 . S
Gd263 C327 2.805 . S
N264 C254 1.359 . S
N264 Gd263 2.570 . S
N264 C266 1.343 . S
C265 C253 1.422 . S
C265 C267 1.321 . S
C265 H273 0.931 . S
C266 N264 1.343 . S
C266 C267 1.390 . S
C266 H268 0.931 . S
C267 C265 1.321 . S
C267 C266 1.390 . S
C267 H269 0.930 . S
H268 C266 0.931 . S
H269 C267 0.930 . S
H270 C293 0.931 . S
H271 C259 0.929 . S
H272 C294 0.930 . S
H273 C265 0.931 . S
H274 C255 0.930 . S
H275 C284 0.929 . S
H276 C260 0.931 . S
H277 C261 0.930 . S
H278 C316 0.930 . S
H279 C257 0.929 . S
H280 C285 0.931 . S
H281 C286 0.930 . S
N282 Gd262 2.622 . S
N282 C283 1.369 . S
N282 C284 1.338 . S
C283 N282 1.369 . S
C283 C287 1.415 . S
C283 C290 1.422 . S
C284 H275 0.929 . S
C284 N282 1.338 . S
C284 C286 1.378 . S
C285 H280 0.931 . S
C285 C286 1.348 . S
C285 C287 1.413 . S
C286 H281 0.930 . S
C286 C284 1.378 . S
C286 C285 1.348 . S
C287 C283 1.415 . S
C287 C285 1.413 . S
C287 C317 1.437 . S
H288 C317 0.929 . S
N289 Gd262 2.570 . S
N289 C290 1.359 . S
N289 C293 1.343 . S
C290 C283 1.422 . S
C290 N289 1.359 . S
C290 C292 1.421 . S
C291 C292 1.422 . S
C291 C294 1.321 . S
C291 H318 0.931 . S
C292 C290 1.421 . S
C292 C291 1.422 . S
C292 C316 1.417 . S
C293 H270 0.931 . S
C293 N289 1.343 . S
C293 C294 1.390 . S
C294 H272 0.930 . S
C294 C291 1.321 . S
C294 C293 1.390 . S
O295 Gd263 2.386 . S
O295 C307 1.265 . S
O296 Gd262 2.353 . S
O296 C307 1.242 . S
O297 Gd262 2.468 . S
O297 C315 1.263 . S
O298 Gd262 2.427 . S
O298 C315 1.252 . S
O299 Gd263 2.307 . S
O299 C308 1.261 . S
O300 Gd262 2.388 . S
O300 C308 1.252 . S
O301 Gd262 2.386 . S
O301 C319 1.265 . S
O302 Gd263 2.353 . S
O302 C319 1.242 . S
O303 Gd263 2.468 . S
O303 C327 1.263 . S
O304 Gd263 2.427 . S
O304 C327 1.252 . S
O305 Gd262 2.307 . S
O305 C320 1.261 . S
O306 Gd263 2.388 . S
O306 C320 1.252 . S
C307 O295 1.265 . S
C307 O296 1.242 . S
C308 O299 1.261 . S
C308 O300 1.252 . S
C309 C312 1.394 . S
C309 C314 1.370 . S
C309 C315 1.500 . S
C310 C313 1.383 . S
C310 C314 1.395 . S
C311 C312 1.396 . S
C311 C313 1.365 . S
C311 H328 0.929 . S
C312 C309 1.394 . S
C312 C311 1.396 . S
C312 H329 0.930 . S
C313 C310 1.383 . S
C313 C311 1.365 . S
C313 H330 0.931 . S
C314 C309 1.370 . S
C314 C310 1.395 . S
C314 H331 0.930 . S
C315 Gd262 2.805 . S
C315 O297 1.263 . S
C315 O298 1.252 . S
C315 C309 1.500 . S
C316 H278 0.930 . S
C316 C292 1.417 . S
C316 C317 1.329 . S
C317 C287 1.437 . S
C317 H288 0.929 . S
C317 C316 1.329 . S
H318 C291 0.931 . S
C319 O301 1.265 . S
C319 O302 1.242 . S
C320 O305 1.261 . S
C320 O306 1.252 . S
C321 C324 1.394 . S
C321 C326 1.370 . S
C321 C327 1.500 . S
C322 C325 1.383 . S
C322 C326 1.395 . S
C323 C324 1.396 . S
C323 C325 1.365 . S
C323 H332 0.929 . S
C324 C321 1.394 . S
C324 C323 1.396 . S
C324 H333 0.930 . S
C325 C322 1.383 . S
C325 C323 1.365 . S
C325 H334 0.931 . S
C326 C321 1.370 . S
C326 C322 1.395 . S
C326 H335 0.930 . S
C327 Gd263 2.805 . S
C327 O303 1.263 . S
C327 O304 1.252 . S
C327 C321 1.500 . S
H328 C311 0.929 . S
H329 C312 0.930 . S
H330 C313 0.931 . S
H331 C314 0.930 . S
H332 C323 0.929 . S
H333 C324 0.930 . S
H334 C325 0.931 . S
H335 C326 0.930 . S
H336 C348 0.930 . S
H337 C350 0.930 . S
H338 C351 0.930 . S
H339 C355 0.959 . S
H340 C355 0.959 . S
H341 C355 0.961 . S
H342 C356 0.960 . S
H343 C356 0.961 . S
H344 C356 0.959 . S
H345 C359 0.929 . S
H346 C360 0.931 . S
H347 C362 0.930 . S
C348 H336 0.930 . S
C348 C349 1.399 1_554 S
C348 C353 1.399 . S
C349 C348 1.399 1_556 S
C349 C350 1.376 . S
C350 H337 0.930 . S
C350 C349 1.376 . S
C350 C351 1.388 . S
C351 H338 0.930 . S
C351 C350 1.388 . S
C351 C352 1.390 . S
C352 C351 1.390 . S
C352 C353 1.394 1_556 S
C352 C358 1.465 . S
C353 C348 1.399 . S
C353 C352 1.394 1_554 S
C353 C354 1.516 . S
C354 C353 1.516 . S
C354 C355 1.502 . S
C354 C356 1.561 . S
C354 C357 1.526 . S
C355 H339 0.959 . S
C355 H340 0.959 . S
C355 H341 0.961 . S
C355 C354 1.502 . S
C356 H342 0.960 . S
C356 H343 0.961 . S
C356 H344 0.959 . S
C356 C354 1.561 . S
C357 C354 1.526 . S
C357 C358 1.396 1_554 S
C357 C362 1.390 . S
C358 C352 1.465 . S
C358 C357 1.396 1_556 S
C358 C359 1.399 . S
C359 H345 0.929 . S
C359 C358 1.399 . S
C359 C360 1.385 . S
C360 H346 0.931 . S
C360 C359 1.385 . S
C360 C361 1.389 . S
C361 C360 1.389 . S
C361 C362 1.387 1_556 S
C362 H347 0.930 . S
C362 C357 1.390 . S
C362 C361 1.387 1_554 S
H363 C375 0.930 . S
H364 C377 0.930 . S
H365 C378 0.930 . S
H366 C382 0.959 . S
H367 C382 0.959 . S
H368 C382 0.961 . S
H369 C383 0.960 . S
H370 C383 0.961 . S
H371 C383 0.959 1_554 S
H372 C386 0.929 . S
H373 C387 0.931 . S
H374 C389 0.930 . S
C375 H363 0.930 . S
C375 C376 1.399 1_556 S
C375 C380 1.399 . S
C376 C375 1.399 1_554 S
C376 C377 1.376 . S
C377 H364 0.930 . S
C377 C376 1.376 . S
C377 C378 1.388 . S
C378 H365 0.930 . S
C378 C377 1.388 . S
C378 C379 1.390 . S
C379 C378 1.390 . S
C379 C380 1.394 1_554 S
C379 C385 1.465 . S
C380 C375 1.399 . S
C380 C379 1.394 1_556 S
C380 C381 1.516 . S
C381 C380 1.516 . S
C381 C382 1.502 . S
C381 C383 1.561 . S
C381 C384 1.526 . S
C382 H366 0.959 . S
C382 H367 0.959 . S
C382 H368 0.961 . S
C382 C381 1.502 . S
C383 H369 0.960 . S
C383 H370 0.961 . S
C383 H371 0.959 1_556 S
C383 C381 1.561 . S
C384 C381 1.526 . S
C384 C385 1.396 1_556 S
C384 C389 1.390 . S
C385 C379 1.465 . S
C385 C384 1.396 1_554 S
C385 C386 1.399 . S
C386 H372 0.929 . S
C386 C385 1.399 . S
C386 C387 1.385 . S
C387 H373 0.931 . S
C387 C386 1.385 . S
C387 C388 1.389 . S
C388 C387 1.389 . S
C388 C389 1.387 1_554 S
C389 H374 0.930 . S
C389 C384 1.390 . S
C389 C388 1.387 1_556 S
H390 C402 0.930 . S
H391 C404 0.930 . S
H392 C405 0.930 . S
H393 C409 0.959 . S
H394 C409 0.959 . S
H395 C409 0.961 . S
H396 C410 0.960 . S
H397 C410 0.961 . S
H398 C410 0.959 . S
H399 C413 0.929 . S
H400 C414 0.931 . S
H401 C416 0.930 . S
C402 H390 0.930 . S
C402 C403 1.399 . S
C402 C407 1.399 . S
C403 C402 1.399 . S
C403 C404 1.376 . S
C404 H391 0.930 . S
C404 C403 1.376 . S
C404 C405 1.388 . S
C405 H392 0.930 . S
C405 C404 1.388 . S
C405 C406 1.390 . S
C406 C405 1.390 . S
C406 C407 1.394 . S
C406 C412 1.465 . S
C407 C402 1.399 . S
C407 C406 1.394 . S
C407 C408 1.516 . S
C408 C407 1.516 . S
C408 C409 1.502 . S
C408 C410 1.561 . S
C408 C411 1.526 . S
C409 H393 0.959 . S
C409 H394 0.959 . S
C409 H395 0.961 . S
C409 C408 1.502 . S
C410 H396 0.960 . S
C410 H397 0.961 . S
C410 H398 0.959 . S
C410 C408 1.561 . S
C411 C408 1.526 . S
C411 C412 1.396 . S
C411 C416 1.390 . S
C412 C406 1.465 . S
C412 C411 1.396 . S
C412 C413 1.399 . S
C413 H399 0.929 . S
C413 C412 1.399 . S
C413 C414 1.385 . S
C414 H400 0.931 . S
C414 C413 1.385 . S
C414 C415 1.389 . S
C415 C414 1.389 . S
C415 C416 1.387 . S
C416 H401 0.930 . S
C416 C411 1.390 . S
C416 C415 1.387 . S
H417 C429 0.930 . S
H418 C431 0.930 . S
H419 C432 0.930 . S
H420 C436 0.959 . S
H421 C436 0.959 . S
H422 C436 0.961 . S
H423 C437 0.960 . S
H424 C437 0.961 . S
H425 C437 0.959 . S
H426 C440 0.929 . S
H427 C441 0.931 . S
H428 C443 0.930 . S
C429 H417 0.930 . S
C429 C430 1.399 . S
C429 C434 1.399 . S
C430 C429 1.399 . S
C430 C431 1.376 . S
C431 H418 0.930 . S
C431 C430 1.376 . S
C431 C432 1.388 . S
C432 H419 0.930 . S
C432 C431 1.388 . S
C432 C433 1.390 . S
C433 C432 1.390 . S
C433 C434 1.394 . S
C433 C439 1.465 . S
C434 C429 1.399 . S
C434 C433 1.394 . S
C434 C435 1.516 . S
C435 C434 1.516 . S
C435 C436 1.502 . S
C435 C437 1.561 . S
C435 C438 1.526 . S
C436 H420 0.959 . S
C436 H421 0.959 . S
C436 H422 0.961 . S
C436 C435 1.502 . S
C437 H423 0.960 . S
C437 H424 0.961 . S
C437 H425 0.959 . S
C437 C435 1.561 . S
C438 C435 1.526 . S
C438 C439 1.396 . S
C438 C443 1.390 . S
C439 C433 1.465 . S
C439 C438 1.396 . S
C439 C440 1.399 . S
C440 H426 0.929 . S
C440 C439 1.399 . S
C440 C441 1.385 . S
C441 H427 0.931 . S
C441 C440 1.385 . S
C441 C442 1.389 . S
C442 C441 1.389 . S
C442 C443 1.387 . S
C443 H428 0.930 . S
C443 C438 1.390 . S
C443 C442 1.387 . S
H444 C456 0.930 . S
H445 C458 0.930 . S
H446 C459 0.930 . S
H447 C463 0.959 . S
H448 C463 0.959 . S
H449 C463 0.961 . S
H450 C464 0.960 . S
H451 C464 0.961 . S
H452 C464 0.959 1_565 S
H453 C467 0.929 . S
H454 C468 0.931 . S
H455 C470 0.930 . S
C456 H444 0.930 . S
C456 C457 1.399 1_544 S
C456 C461 1.399 . S
C457 C456 1.399 1_566 S
C457 C458 1.376 . S
C458 H445 0.930 . S
C458 C457 1.376 . S
C458 C459 1.388 . S
C459 H446 0.930 . S
C459 C458 1.388 . S
C459 C460 1.390 . S
C460 C459 1.390 . S
C460 C461 1.394 1_566 S
C460 C466 1.465 . S
C461 C456 1.399 . S
C461 C460 1.394 1_544 S
C461 C462 1.516 . S
C462 C461 1.516 . S
C462 C463 1.502 . S
C462 C464 1.561 . S
C462 C465 1.526 . S
C463 H447 0.959 . S
C463 H448 0.959 . S
C463 H449 0.961 . S
C463 C462 1.502 . S
C464 H450 0.960 . S
C464 H451 0.961 . S
C464 H452 0.959 1_545 S
C464 C462 1.561 . S
C465 C462 1.526 . S
C465 C466 1.396 1_544 S
C465 C470 1.390 . S
C466 C460 1.465 . S
C466 C465 1.396 1_566 S
C466 C467 1.399 . S
C467 H453 0.929 . S
C467 C466 1.399 . S
C467 C468 1.385 . S
C468 H454 0.931 . S
C468 C467 1.385 . S
C468 C469 1.389 1_565 S
C469 C468 1.389 1_545 S
C469 C470 1.387 1_556 S
C470 H455 0.930 . S
C470 C465 1.390 . S
C470 C469 1.387 1_554 S
H471 C483 0.930 . S
H472 C485 0.930 . S
H473 C486 0.930 . S
H474 C490 0.959 . S
H475 C490 0.959 . S
H476 C490 0.961 . S
H477 C491 0.958 . S
H478 C491 0.965 . S
H479 C491 0.925 1_545 S
H480 C494 0.929 . S
H481 C495 0.931 . S
H482 C497 0.930 . S
C483 H471 0.930 . S
C483 C484 1.399 1_565 S
C483 C488 1.399 . S
C484 C483 1.399 1_545 S
C484 C485 1.376 . S
C485 H472 0.930 . S
C485 C484 1.376 . S
C485 C486 1.388 . S
C486 H473 0.930 . S
C486 C485 1.388 . S
C486 C487 1.390 . S
C487 C486 1.390 . S
C487 C488 1.394 1_545 S
C487 C493 1.465 . S
C488 C483 1.399 . S
C488 C487 1.394 1_565 S
C488 C489 1.516 . S
C489 C488 1.516 . S
C489 C490 1.502 . S
C489 C491 1.595 . S
C489 C492 1.526 . S
C490 H474 0.959 . S
C490 H475 0.959 . S
C490 H476 0.961 . S
C490 C489 1.502 . S
C491 H477 0.958 . S
C491 H478 0.965 . S
C491 H479 0.925 1_565 S
C491 C489 1.595 . S
C492 C489 1.526 . S
C492 C493 1.396 1_565 S
C492 C497 1.390 . S
C493 C487 1.465 . S
C493 C492 1.396 1_545 S
C493 C494 1.399 . S
C494 H480 0.929 . S
C494 C493 1.399 . S
C494 C495 1.385 . S
C495 H481 0.931 . S
C495 C494 1.385 . S
C495 C496 1.389 1_545 S
C496 C495 1.389 1_565 S
C496 C497 1.387 . S
C497 H482 0.930 . S
C497 C492 1.390 . S
C497 C496 1.387 . S
H498 C510 0.930 . S
H499 C512 0.930 . S
H500 C513 0.930 . S
H501 C517 0.960 . S
H502 C517 0.959 1_455 S
H503 C517 0.961 . S
H504 C518 0.960 1_655 S
H505 C518 0.961 . S
H506 C518 0.959 . S
H507 C521 0.929 . S
H508 C522 0.931 . S
H509 C524 0.930 . S
C510 H498 0.930 . S
C510 C511 1.399 1_554 S
C510 C515 1.399 . S
C511 C510 1.399 1_556 S
C511 C512 1.376 . S
C512 H499 0.930 . S
C512 C511 1.376 . S
C512 C513 1.388 . S
C513 H500 0.930 . S
C513 C512 1.388 . S
C513 C514 1.390 . S
C514 C513 1.390 . S
C514 C515 1.394 1_556 S
C514 C520 1.465 1_655 S
C515 C510 1.399 . S
C515 C514 1.394 1_554 S
C515 C516 1.517 . S
C516 C515 1.517 . S
C516 C517 1.502 . S
C516 C518 1.561 1_655 S
C516 C519 1.524 1_655 S
C517 H501 0.960 . S
C517 H502 0.959 1_655 S
C517 H503 0.961 . S
C517 C516 1.502 . S
C518 H504 0.960 1_455 S
C518 H505 0.961 . S
C518 H506 0.959 . S
C518 C516 1.561 1_455 S
C519 C516 1.524 1_455 S
C519 C520 1.396 1_554 S
C519 C524 1.390 . S
C520 C514 1.465 1_455 S
C520 C519 1.396 1_556 S
C520 C521 1.399 . S
C521 H507 0.929 . S
C521 C520 1.399 . S
C521 C522 1.385 . S
C522 H508 0.931 . S
C522 C521 1.385 . S
C522 C523 1.389 . S
C523 C522 1.389 . S
C523 C524 1.387 1_556 S
C524 H509 0.930 . S
C524 C519 1.390 . S
C524 C523 1.387 1_554 S
H525 C537 0.930 . S
H526 C539 0.930 . S
H527 C540 0.930 . S
H528 C544 0.959 1_655 S
H529 C544 0.959 1_655 S
H530 C544 0.961 . S
H531 C545 0.960 1_455 S
H532 C545 0.961 . S
H533 C545 0.959 . S
H534 C548 0.929 . S
H535 C549 0.931 . S
H536 C551 0.930 . S
C537 H525 0.930 . S
C537 C538 1.399 . S
C537 C542 1.399 . S
C538 C537 1.399 . S
C538 C539 1.376 . S
C539 H526 0.930 . S
C539 C538 1.376 . S
C539 C540 1.388 . S
C540 H527 0.930 . S
C540 C539 1.388 . S
C540 C541 1.390 . S
C541 C540 1.390 . S
C541 C542 1.394 . S
C541 C547 1.465 1_455 S
C542 C537 1.399 . S
C542 C541 1.394 . S
C542 C543 1.513 1_455 S
C543 C542 1.513 1_655 S
C543 C544 1.502 1_655 S
C543 C545 1.561 . S
C543 C546 1.528 . S
C544 H528 0.959 1_455 S
C544 H529 0.959 1_455 S
C544 H530 0.961 . S
C544 C543 1.502 1_455 S
C545 H531 0.960 1_655 S
C545 H532 0.961 . S
C545 H533 0.959 . S
C545 C543 1.561 . S
C546 C543 1.528 . S
C546 C547 1.396 . S
C546 C551 1.390 . S
C547 C541 1.465 1_655 S
C547 C546 1.396 . S
C547 C548 1.399 . S
C548 H534 0.929 . S
C548 C547 1.399 . S
C548 C549 1.385 . S
C549 H535 0.931 . S
C549 C548 1.385 . S
C549 C550 1.389 . S
C550 C549 1.389 . S
C550 C551 1.387 . S
C551 H536 0.930 . S
C551 C546 1.390 . S
C551 C550 1.387 . S
H552 C564 0.930 . S
H553 C566 0.930 . S
H554 C567 0.930 . S
H555 C571 0.959 . S
H556 C571 0.959 . S
H557 C571 0.961 . S
H558 C572 0.960 . S
H559 C572 0.961 . S
H560 C572 0.959 . S
H561 C575 0.929 . S
H562 C576 0.931 . S
H563 C578 0.930 . S
C564 H552 0.930 . S
C564 C565 1.399 1_655 S
C564 C569 1.399 . S
C565 C564 1.399 1_455 S
C565 C566 1.376 1_545 S
C566 H553 0.930 . S
C566 C565 1.376 1_565 S
C566 C567 1.388 . S
C567 H554 0.930 . S
C567 C566 1.388 . S
C567 C568 1.375 1_565 S
C568 C567 1.375 1_545 S
C568 C569 1.394 1_455 S
C568 C574 1.482 . S
C569 C564 1.399 . S
C569 C568 1.394 1_655 S
C569 C570 1.516 . S
C570 C569 1.516 . S
C570 C571 1.502 1_545 S
C570 C572 1.561 . S
C570 C573 1.526 . S
C571 H555 0.959 . S
C571 H556 0.959 . S
C571 H557 0.961 . S
C571 C570 1.502 1_565 S
C572 H558 0.960 . S
C572 H559 0.961 . S
C572 H560 0.959 . S
C572 C570 1.561 . S
C573 C570 1.526 . S
C573 C574 1.396 1_655 S
C573 C578 1.390 . S
C574 C568 1.482 . S
C574 C573 1.396 1_455 S
C574 C575 1.399 1_545 S
C575 H561 0.929 . S
C575 C574 1.399 1_565 S
C575 C576 1.385 . S
C576 H562 0.931 . S
C576 C575 1.385 . S
C576 C577 1.395 . S
C577 C576 1.395 . S
C577 C578 1.389 1_465 S
C578 H563 0.930 . S
C578 C573 1.390 . S
C578 C577 1.389 1_645 S
H579 C591 0.930 . S
H580 C593 0.930 . S
H581 C594 0.930 . S
H582 C598 0.959 . S
H583 C598 0.959 . S
H584 C598 0.961 . S
H585 C599 0.960 . S
H586 C599 0.961 . S
H587 C599 0.959 . S
H588 C602 0.929 . S
H589 C603 0.931 . S
H590 C605 0.930 . S
C591 H579 0.930 . S
C591 C592 1.399 1_645 S
C591 C596 1.399 . S
C592 C591 1.399 1_465 S
C592 C593 1.376 . S
C593 H580 0.930 . S
C593 C592 1.376 . S
C593 C594 1.388 . S
C594 H581 0.930 . S
C594 C593 1.388 . S
C594 C595 1.390 . S
C595 C594 1.390 . S
C595 C596 1.394 1_465 S
C595 C601 1.465 . S
C596 C591 1.399 . S
C596 C595 1.394 1_645 S
C596 C597 1.516 . S
C597 C596 1.516 . S
C597 C598 1.502 . S
C597 C599 1.561 1_655 S
C597 C600 1.526 . S
C598 H582 0.959 . S
C598 H583 0.959 . S
C598 H584 0.961 . S
C598 C597 1.502 . S
C599 H585 0.960 . S
C599 H586 0.961 . S
C599 H587 0.959 . S
C599 C597 1.561 1_455 S
C600 C597 1.526 . S
C600 C601 1.396 1_645 S
C600 C605 1.390 . S
C601 C595 1.465 . S
C601 C600 1.396 1_465 S
C601 C602 1.399 . S
C602 H588 0.929 . S
C602 C601 1.399 . S
C602 C603 1.385 . S
C603 H589 0.931 . S
C603 C602 1.385 . S
C603 C604 1.389 . S
C604 C603 1.389 . S
C604 C605 1.387 1_465 S
C605 H590 0.930 . S
C605 C600 1.390 . S
C605 C604 1.387 1_645 S
H606 C618 0.930 . S
H607 C620 0.930 . S
H608 C621 0.930 . S
H609 C625 0.959 . S
H610 C625 0.959 . S
H611 C625 0.961 . S
H612 C626 0.960 . S
H613 C626 0.961 . S
H614 C626 0.959 . S
H615 C629 0.929 . S
H616 C630 0.931 . S
H617 C632 0.930 . S
C618 H606 0.930 . S
C618 C619 1.399 . S
C618 C623 1.399 . S
C619 C618 1.399 . S
C619 C620 1.376 . S
C620 H607 0.930 . S
C620 C619 1.376 . S
C620 C621 1.388 . S
C621 H608 0.930 . S
C621 C620 1.388 . S
C621 C622 1.390 . S
C622 C621 1.390 . S
C622 C623 1.394 . S
C622 C628 1.465 . S
C623 C618 1.399 . S
C623 C622 1.394 . S
C623 C624 1.516 . S
C624 C623 1.516 . S
C624 C625 1.502 . S
C624 C626 1.561 . S
C624 C627 1.526 . S
C625 H609 0.959 . S
C625 H610 0.959 . S
C625 H611 0.961 . S
C625 C624 1.502 . S
C626 H612 0.960 . S
C626 H613 0.961 . S
C626 H614 0.959 . S
C626 C624 1.561 . S
C627 C624 1.526 . S
C627 C628 1.396 . S
C627 C632 1.390 . S
C628 C622 1.465 . S
C628 C627 1.396 . S
C628 C629 1.399 . S
C629 H615 0.929 . S
C629 C628 1.399 . S
C629 C630 1.385 . S
C630 H616 0.931 . S
C630 C629 1.385 . S
C630 C631 1.389 . S
C631 C630 1.389 . S
C631 C632 1.387 . S
C632 H617 0.930 . S
C632 C627 1.390 . S
C632 C631 1.387 . S
H633 C645 0.930 . S
H634 C647 0.930 . S
H635 C648 0.930 . S
H636 C652 0.959 . S
H637 C652 0.959 . S
H638 C652 0.961 . S
H639 C653 0.960 . S
H640 C653 0.961 . S
H641 C653 0.959 . S
H642 C656 0.929 . S
H643 C657 0.931 . S
H644 C659 0.930 . S
C645 H633 0.930 . S
C645 C646 1.399 . S
C645 C650 1.399 . S
C646 C645 1.399 . S
C646 C647 1.376 . S
C647 H634 0.930 . S
C647 C646 1.376 . S
C647 C648 1.388 . S
C648 H635 0.930 . S
C648 C647 1.388 . S
C648 C649 1.390 . S
C649 C648 1.390 . S
C649 C650 1.394 . S
C649 C655 1.465 . S
C650 C645 1.399 . S
C650 C649 1.394 . S
C650 C651 1.516 . S
C651 C650 1.516 . S
C651 C652 1.502 . S
C651 C653 1.561 . S
C651 C654 1.526 . S
C652 H636 0.959 . S
C652 H637 0.959 . S
C652 H638 0.961 . S
C652 C651 1.502 . S
C653 H639 0.960 . S
C653 H640 0.961 . S
C653 H641 0.959 . S
C653 C651 1.561 . S
C654 C651 1.526 . S
C654 C655 1.396 . S
C654 C659 1.390 . S
C655 C649 1.465 . S
C655 C654 1.396 . S
C655 C656 1.399 . S
C656 H642 0.929 . S
C656 C655 1.399 . S
C656 C657 1.385 . S
C657 H643 0.931 . S
C657 C656 1.385 . S
C657 C658 1.389 . S
C658 C657 1.389 . S
C658 C659 1.387 . S
C659 H644 0.930 . S
C659 C654 1.390 . S
C659 C658 1.387 . S
C349 C238 1.461 1_556 S
C361 C58 1.343 . S
C376 C226 1.458 1_554 S
C388 C70 1.349 . S
C403 C142 1.453 . S
C415 C322 1.336 . S
C430 C154 1.374 . S
C442 C310 1.446 . S
C457 C55 1.974 1_556 S
C469 C67 1.959 . S
C484 C139 1.975 . S
C496 C151 1.959 . S
C511 C223 1.975 1_556 S
C523 C235 1.959 . S
C538 C319 1.962 . S
C550 C307 1.974 . S
C565 C152 1.493 1_445 S
C577 C68 1.477 1_465 S
C592 C56 1.448 . S
C604 C140 1.485 1_565 S
C619 C320 1.472 . S
C631 C236 1.493 . S
C646 C308 1.497 . S
C658 C224 1.468 . S
