# Generated by pormake.
# Topology upd, (4)-cn, num edge types: 1
# Building blocks:
#     Node 0, Type 0, BuildingBlock: ESEHIV_clean_sbu_0, # of connection points: 4
#     Node 1, Type 0, BuildingBlock: ESEHIV_clean_sbu_0, # of connection points: 4
#     Node 2, Type 0, BuildingBlock: ESEHIV_clean_sbu_0, # of connection points: 4
#     Node 3, Type 0, BuildingBlock: ESEHIV_clean_sbu_0, # of connection points: 4
#     Node 4, Type 0, BuildingBlock: ESEHIV_clean_sbu_0, # of connection points: 4
#     Node 5, Type 0, BuildingBlock: ESEHIV_clean_sbu_0, # of connection points: 4
#     Node 6, Type 0, BuildingBlock: ESEHIV_clean_sbu_0, # of connection points: 4
#     Node 7, Type 0, BuildingBlock: ESEHIV_clean_sbu_0, # of connection points: 4
#     Node 8, Type 0, BuildingBlock: ESEHIV_clean_sbu_0, # of connection points: 4
#     Node 9, Type 0, BuildingBlock: ESEHIV_clean_sbu_0, # of connection points: 4
#     Node 10, Type 0, BuildingBlock: ESEHIV_clean_sbu_0, # of connection points: 4
#     Node 11, Type 0, BuildingBlock: ESEHIV_clean_sbu_0, # of connection points: 4
#     Node 12, Type 0, BuildingBlock: ESEHIV_clean_sbu_0, # of connection points: 4
#     Node 13, Type 0, BuildingBlock: ESEHIV_clean_sbu_0, # of connection points: 4
#     Node 14, Type 0, BuildingBlock: ESEHIV_clean_sbu_0, # of connection points: 4
#     Node 15, Type 0, BuildingBlock: ESEHIV_clean_sbu_0, # of connection points: 4
#     Node 16, Type 0, BuildingBlock: ESEHIV_clean_sbu_0, # of connection points: 4
#     Node 17, Type 0, BuildingBlock: ESEHIV_clean_sbu_0, # of connection points: 4
#     Node 18, Type 0, BuildingBlock: ESEHIV_clean_sbu_0, # of connection points: 4
#     Node 19, Type 0, BuildingBlock: ESEHIV_clean_sbu_0, # of connection points: 4
#     Node 20, Type 0, BuildingBlock: ESEHIV_clean_sbu_0, # of connection points: 4
#     Node 21, Type 0, BuildingBlock: ESEHIV_clean_sbu_0, # of connection points: 4
#     Node 22, Type 0, BuildingBlock: ESEHIV_clean_sbu_0, # of connection points: 4
#     Node 23, Type 0, BuildingBlock: ESEHIV_clean_sbu_0, # of connection points: 4
#     Node 24, Type 0, BuildingBlock: ESEHIV_clean_sbu_0, # of connection points: 4
#     Node 25, Type 0, BuildingBlock: ESEHIV_clean_sbu_0, # of connection points: 4
#     Node 26, Type 0, BuildingBlock: ESEHIV_clean_sbu_0, # of connection points: 4
#     Node 27, Type 0, BuildingBlock: ESEHIV_clean_sbu_0, # of connection points: 4
#     Node 28, Type 0, BuildingBlock: ESEHIV_clean_sbu_0, # of connection points: 4
#     Node 29, Type 0, BuildingBlock: ESEHIV_clean_sbu_0, # of connection points: 4
#     Node 30, Type 0, BuildingBlock: ESEHIV_clean_sbu_0, # of connection points: 4
#     Node 31, Type 0, BuildingBlock: ESEHIV_clean_sbu_0, # of connection points: 4
#     Edge 32, Type (0, 0), BuildingBlock: OJICUG_clean_linker_0, # of connection points: 2
#     Edge 33, Type (0, 0), BuildingBlock: OJICUG_clean_linker_0, # of connection points: 2
#     Edge 34, Type (0, 0), BuildingBlock: OJICUG_clean_linker_0, # of connection points: 2
#     Edge 35, Type (0, 0), BuildingBlock: OJICUG_clean_linker_0, # of connection points: 2
#     Edge 36, Type (0, 0), BuildingBlock: OJICUG_clean_linker_0, # of connection points: 2
#     Edge 37, Type (0, 0), BuildingBlock: OJICUG_clean_linker_0, # of connection points: 2
#     Edge 38, Type (0, 0), BuildingBlock: OJICUG_clean_linker_0, # of connection points: 2
#     Edge 39, Type (0, 0), BuildingBlock: OJICUG_clean_linker_0, # of connection points: 2
#     Edge 40, Type (0, 0), BuildingBlock: OJICUG_clean_linker_0, # of connection points: 2
#     Edge 41, Type (0, 0), BuildingBlock: OJICUG_clean_linker_0, # of connection points: 2
#     Edge 42, Type (0, 0), BuildingBlock: OJICUG_clean_linker_0, # of connection points: 2
#     Edge 43, Type (0, 0), BuildingBlock: OJICUG_clean_linker_0, # of connection points: 2
#     Edge 44, Type (0, 0), BuildingBlock: OJICUG_clean_linker_0, # of connection points: 2
#     Edge 45, Type (0, 0), BuildingBlock: OJICUG_clean_linker_0, # of connection points: 2
#     Edge 46, Type (0, 0), BuildingBlock: OJICUG_clean_linker_0, # of connection points: 2
#     Edge 47, Type (0, 0), BuildingBlock: OJICUG_clean_linker_0, # of connection points: 2
#     Edge 48, Type (0, 0), BuildingBlock: OJICUG_clean_linker_0, # of connection points: 2
#     Edge 49, Type (0, 0), BuildingBlock: OJICUG_clean_linker_0, # of connection points: 2
#     Edge 50, Type (0, 0), BuildingBlock: OJICUG_clean_linker_0, # of connection points: 2
#     Edge 51, Type (0, 0), BuildingBlock: OJICUG_clean_linker_0, # of connection points: 2
#     Edge 52, Type (0, 0), BuildingBlock: OJICUG_clean_linker_0, # of connection points: 2
#     Edge 53, Type (0, 0), BuildingBlock: OJICUG_clean_linker_0, # of connection points: 2
#     Edge 54, Type (0, 0), BuildingBlock: OJICUG_clean_linker_0, # of connection points: 2
#     Edge 55, Type (0, 0), BuildingBlock: OJICUG_clean_linker_0, # of connection points: 2
#     Edge 56, Type (0, 0), BuildingBlock: OJICUG_clean_linker_0, # of connection points: 2
#     Edge 57, Type (0, 0), BuildingBlock: OJICUG_clean_linker_0, # of connection points: 2
#     Edge 58, Type (0, 0), BuildingBlock: OJICUG_clean_linker_0, # of connection points: 2
#     Edge 59, Type (0, 0), BuildingBlock: OJICUG_clean_linker_0, # of connection points: 2
#     Edge 60, Type (0, 0), BuildingBlock: OJICUG_clean_linker_0, # of connection points: 2
#     Edge 61, Type (0, 0), BuildingBlock: OJICUG_clean_linker_0, # of connection points: 2
#     Edge 62, Type (0, 0), BuildingBlock: OJICUG_clean_linker_0, # of connection points: 2
#     Edge 63, Type (0, 0), BuildingBlock: OJICUG_clean_linker_0, # of connection points: 2
#     Edge 64, Type (0, 0), BuildingBlock: OJICUG_clean_linker_0, # of connection points: 2
#     Edge 65, Type (0, 0), BuildingBlock: OJICUG_clean_linker_0, # of connection points: 2
#     Edge 66, Type (0, 0), BuildingBlock: OJICUG_clean_linker_0, # of connection points: 2
#     Edge 67, Type (0, 0), BuildingBlock: OJICUG_clean_linker_0, # of connection points: 2
#     Edge 68, Type (0, 0), BuildingBlock: OJICUG_clean_linker_0, # of connection points: 2
#     Edge 69, Type (0, 0), BuildingBlock: OJICUG_clean_linker_0, # of connection points: 2
#     Edge 70, Type (0, 0), BuildingBlock: OJICUG_clean_linker_0, # of connection points: 2
#     Edge 71, Type (0, 0), BuildingBlock: OJICUG_clean_linker_0, # of connection points: 2
#     Edge 72, Type (0, 0), BuildingBlock: OJICUG_clean_linker_0, # of connection points: 2
#     Edge 73, Type (0, 0), BuildingBlock: OJICUG_clean_linker_0, # of connection points: 2
#     Edge 74, Type (0, 0), BuildingBlock: OJICUG_clean_linker_0, # of connection points: 2
#     Edge 75, Type (0, 0), BuildingBlock: OJICUG_clean_linker_0, # of connection points: 2
#     Edge 76, Type (0, 0), BuildingBlock: OJICUG_clean_linker_0, # of connection points: 2
#     Edge 77, Type (0, 0), BuildingBlock: OJICUG_clean_linker_0, # of connection points: 2
#     Edge 78, Type (0, 0), BuildingBlock: OJICUG_clean_linker_0, # of connection points: 2
#     Edge 79, Type (0, 0), BuildingBlock: OJICUG_clean_linker_0, # of connection points: 2
#     Edge 80, Type (0, 0), BuildingBlock: OJICUG_clean_linker_0, # of connection points: 2
#     Edge 81, Type (0, 0), BuildingBlock: OJICUG_clean_linker_0, # of connection points: 2
#     Edge 82, Type (0, 0), BuildingBlock: OJICUG_clean_linker_0, # of connection points: 2
#     Edge 83, Type (0, 0), BuildingBlock: OJICUG_clean_linker_0, # of connection points: 2
#     Edge 84, Type (0, 0), BuildingBlock: OJICUG_clean_linker_0, # of connection points: 2
#     Edge 85, Type (0, 0), BuildingBlock: OJICUG_clean_linker_0, # of connection points: 2
#     Edge 86, Type (0, 0), BuildingBlock: OJICUG_clean_linker_0, # of connection points: 2
#     Edge 87, Type (0, 0), BuildingBlock: OJICUG_clean_linker_0, # of connection points: 2
#     Edge 88, Type (0, 0), BuildingBlock: OJICUG_clean_linker_0, # of connection points: 2
#     Edge 89, Type (0, 0), BuildingBlock: OJICUG_clean_linker_0, # of connection points: 2
#     Edge 90, Type (0, 0), BuildingBlock: OJICUG_clean_linker_0, # of connection points: 2
#     Edge 91, Type (0, 0), BuildingBlock: OJICUG_clean_linker_0, # of connection points: 2
#     Edge 92, Type (0, 0), BuildingBlock: OJICUG_clean_linker_0, # of connection points: 2
#     Edge 93, Type (0, 0), BuildingBlock: OJICUG_clean_linker_0, # of connection points: 2
#     Edge 94, Type (0, 0), BuildingBlock: OJICUG_clean_linker_0, # of connection points: 2
#     Edge 95, Type (0, 0), BuildingBlock: OJICUG_clean_linker_0, # of connection points: 2
# Relax obj value: 0.063
# Max RMSD: 0.068
# Mean RMSD: 0.068
data_MOF--net-upd--node1-ESEHIV_clean_sbu_0--edge1-OJICUG_clean_linker_0
_symmetry_space_group_name_H-M    P1
_symmetry_Int_Tables_number       1
_symmetry_cell_setting            triclinic
loop_
_symmetry_equiv_pos_as_xyz
'x, y, z'
_cell_length_a     30.131482
_cell_length_b     30.02537
_cell_length_c     64.763144
_cell_angle_alpha  89.734467
_cell_angle_beta   89.63865
_cell_angle_gamma 89.677459
loop_
_atom_site_label
_atom_site_type_symbol
_atom_site_fract_x
_atom_site_fract_y
_atom_site_fract_z
_atom_type_partial_charge
Cu0 Cu 0.16321 0.12017 0.35644 0.0
N1 N 0.22348 0.12937 0.35008 0.0
N2 N 0.28628 0.15803 0.33684 0.0
C3 C 0.24209 0.16403 0.33989 0.0
C4 C 0.29541 0.11781 0.34532 0.0
C5 C 0.25679 0.10028 0.35333 0.0
O6 O 0.13549 0.09074 0.33301 0.0
C7 C 0.15338 0.19913 0.37847 0.0
O8 O 0.19634 0.19399 0.38084 0.0
H9 H 0.22348 0.19298 0.33483 0.0
H10 H 0.25304 0.06799 0.36058 0.0
N11 N 0.15478 0.08348 0.37939 0.0
N12 N 0.11394 0.05434 0.40501 0.0
C13 C 0.11391 0.07194 0.3858 0.0
C14 C 0.18211 0.07266 0.39497 0.0
C15 C 0.15702 0.05433 0.41076 0.0
C16 C 0.14014 0.04854 0.33168 0.0
O17 O 0.1629 0.02743 0.34596 0.0
H18 H 0.08445 0.07918 0.37692 0.0
H19 H 0.21701 0.08073 0.39553 0.0
O20 O 0.13327 0.17419 0.36574 0.0
H21 H 0.32748 0.10146 0.34527 0.0
H22 H 0.16916 0.04525 0.42591 0.0
Cu23 Cu 0.16287 0.83992 0.60466 0.0
N24 N 0.12287 0.85866 0.58425 0.0
N25 N 0.08496 0.90689 0.56452 0.0
C26 C 0.10763 0.90076 0.58223 0.0
C27 C 0.08546 0.86684 0.55513 0.0
C28 C 0.10918 0.83726 0.56724 0.0
O29 O 0.2219 0.85515 0.59425 0.0
C30 C 0.10258 0.85409 0.6353 0.0
O31 O 0.07973 0.83314 0.62115 0.0
H32 H 0.11453 0.92685 0.59321 0.0
H33 H 0.11795 0.80341 0.56329 0.0
N34 N 0.16399 0.7786 0.60964 0.0
N35 N 0.17721 0.71803 0.62906 0.0
C36 C 0.1851 0.76184 0.62618 0.0
C37 C 0.14174 0.7442 0.60151 0.0
C38 C 0.14988 0.70672 0.61347 0.0
C39 C 0.23111 0.89328 0.58676 0.0
O40 O 0.2034 0.92649 0.58995 0.0
H41 H 0.20321 0.7826 0.6368 0.0
H42 H 0.11929 0.7465 0.58861 0.0
O43 O 0.14286 0.86413 0.63121 0.0
H44 H 0.07207 0.86011 0.54 0.0
H45 H 0.13522 0.67429 0.6113 0.0
Cu46 Cu 0.41116 0.89966 0.84268 0.0
N47 N 0.3952 0.85329 0.82523 0.0
N48 N 0.35149 0.80747 0.80747 0.0
C49 C 0.35345 0.83919 0.82215 0.0
C50 C 0.39395 0.80098 0.8013 0.0
C51 C 0.42084 0.82938 0.81227 0.0
O52 O 0.40219 0.95592 0.82791 0.0
C53 C 0.3879 0.90993 0.88537 0.0
O54 O 0.41531 0.94381 0.88497 0.0
H55 H 0.32501 0.85254 0.83035 0.0
H56 H 0.45633 0.83325 0.81052 0.0
N57 N 0.4712 0.89594 0.84964 0.0
N58 N 0.52693 0.89406 0.8723 0.0
C59 C 0.48606 0.87908 0.86758 0.0
C60 C 0.50457 0.92113 0.84222 0.0
C61 C 0.53916 0.91984 0.85615 0.0
C62 C 0.36789 0.96563 0.81735 0.0
O63 O 0.33319 0.93943 0.81829 0.0
H64 H 0.46547 0.85972 0.87796 0.0
H65 H 0.50212 0.94264 0.82883 0.0
O66 O 0.37789 0.89115 0.86842 0.0
H67 H 0.40468 0.77865 0.78916 0.0
H68 H 0.56878 0.94006 0.85549 0.0
Cu69 Cu 0.43189 0.13855 0.09917 0.0
N70 N 0.47993 0.12971 0.08125 0.0
N71 N 0.5224 0.08697 0.06086 0.0
C72 C 0.48073 0.09748 0.06688 0.0
C73 C 0.54885 0.11527 0.07119 0.0
C74 C 0.52253 0.14147 0.08387 0.0
O75 O 0.37822 0.13467 0.08272 0.0
C76 C 0.46657 0.06486 0.12234 0.0
O77 O 0.48189 0.04869 0.10491 0.0
H78 H 0.45173 0.07869 0.06266 0.0
H79 H 0.53398 0.16393 0.09568 0.0
N80 N 0.43354 0.19387 0.1124 0.0
N81 N 0.4295 0.24169 0.13891 0.0
C82 C 0.42502 0.19903 0.13269 0.0
C83 C 0.44359 0.23478 0.10531 0.0
C84 C 0.44101 0.2644 0.12162 0.0
C85 C 0.36166 0.09853 0.07615 0.0
O86 O 0.37778 0.0603 0.08272 0.0
H87 H 0.41573 0.17164 0.14268 0.0
H88 H 0.45292 0.2424 0.08953 0.0
O89 O 0.43769 0.09607 0.1219 0.0
H90 H 0.58475 0.1139 0.07128 0.0
H91 H 0.44864 0.29954 0.12088 0.0
Cu92 Cu 0.13202 0.87364 0.23409 0.0
N93 N 0.19173 0.86242 0.23961 0.0
N94 N 0.2471 0.83325 0.25824 0.0
C95 C 0.20628 0.85194 0.25863 0.0
C96 C 0.25908 0.83279 0.23809 0.0
C97 C 0.22477 0.8508 0.22661 0.0
O98 O 0.10881 0.90555 0.2581 0.0
C99 C 0.12379 0.77956 0.22826 0.0
O100 O 0.15734 0.77433 0.24088 0.0
H101 H 0.18522 0.85347 0.27222 0.0
H102 H 0.22257 0.85174 0.20995 0.0
N103 N 0.12251 0.90709 0.21019 0.0
N104 N 0.08406 0.93116 0.18282 0.0
C105 C 0.08264 0.90914 0.20103 0.0
C106 C 0.15056 0.92879 0.19751 0.0
C107 C 0.12686 0.94382 0.1806 0.0
C108 C 0.1071 0.94807 0.25803 0.0
O109 O 0.11457 0.96962 0.24069 0.0
H110 H 0.05341 0.89358 0.20753 0.0
H111 H 0.18585 0.93204 0.19999 0.0
O112 O 0.10404 0.81719 0.22734 0.0
H113 H 0.28923 0.81811 0.23195 0.0
H114 H 0.14065 0.96081 0.16728 0.0
Cu115 Cu 0.40765 0.89081 0.48396 0.0
N116 N 0.45955 0.92176 0.49088 0.0
N117 N 0.50505 0.97283 0.50408 0.0
C118 C 0.46247 0.96101 0.50086 0.0
C119 C 0.5299 0.9401 0.49565 0.0
C120 C 0.50185 0.90886 0.48745 0.0
O121 O 0.37428 0.87953 0.5096 0.0
C122 C 0.36649 0.94049 0.44807 0.0
O123 O 0.33386 0.96728 0.44273 0.0
H124 H 0.43409 0.98025 0.50598 0.0
H125 H 0.51181 0.87906 0.47935 0.0
N126 N 0.42272 0.83678 0.47071 0.0
N127 N 0.43615 0.78889 0.44478 0.0
C128 C 0.41057 0.82298 0.45179 0.0
C129 C 0.45521 0.80853 0.47648 0.0
C130 C 0.4638 0.77937 0.46055 0.0
C131 C 0.35341 0.91211 0.51783 0.0
O132 O 0.3549 0.95117 0.50865 0.0
H133 H 0.38527 0.83946 0.44287 0.0
H134 H 0.47359 0.81091 0.49072 0.0
O135 O 0.36979 0.92968 0.46709 0.0
H136 H 0.56582 0.93918 0.49519 0.0
H137 H 0.49005 0.75467 0.46036 0.0
Cu138 Cu 0.41914 0.18012 0.73575 0.0
N139 N 0.41606 0.22443 0.75576 0.0
N140 N 0.3788 0.26016 0.78074 0.0
C141 C 0.39142 0.2203 0.77303 0.0
C142 C 0.39833 0.29063 0.76827 0.0
C143 C 0.42112 0.26847 0.75283 0.0
O144 O 0.41037 0.12319 0.74994 0.0
C145 C 0.34096 0.2195 0.71846 0.0
O146 O 0.32839 0.22513 0.73772 0.0
H147 H 0.37907 0.18865 0.77844 0.0
H148 H 0.43557 0.28336 0.73913 0.0
N149 N 0.47453 0.17977 0.72255 0.0
N150 N 0.5244 0.17503 0.69683 0.0
C151 C 0.48113 0.17199 0.70232 0.0
C152 C 0.51497 0.18801 0.73029 0.0
C153 C 0.54585 0.18502 0.71446 0.0
C154 C 0.37322 0.10855 0.75649 0.0
O155 O 0.33658 0.12988 0.75157 0.0
H156 H 0.45443 0.16432 0.69184 0.0
H157 H 0.52144 0.19629 0.74622 0.0
O158 O 0.37568 0.19636 0.71461 0.0
H159 H 0.39256 0.32621 0.76884 0.0
H160 H 0.58109 0.19107 0.71574 0.0
Cu161 Cu 0.16018 0.15739 0.99288 0.0
N162 N 0.11923 0.13495 1.01211 0.0
N163 N 0.07969 0.08348 1.02904 0.0
C164 C 0.10382 0.0929 1.012 0.0
C165 C 0.07933 0.1213 1.04023 0.0
C166 C 0.1041 0.15292 1.02982 0.0
O167 O 0.21897 0.14149 1.00306 0.0
C168 C 0.10275 0.14803 0.96145 0.0
O169 O 0.07943 0.16848 0.97581 0.0
H170 H 0.11162 0.06914 0.99997 0.0
H171 H 0.11235 0.18576 1.03531 0.0
N172 N 0.15947 0.21944 0.99009 0.0
N173 N 0.17195 0.28384 0.97343 0.0
C174 C 0.18216 0.24009 0.97491 0.0
C175 C 0.13379 0.25118 0.99872 0.0
C176 C 0.14145 0.29099 0.98848 0.0
C177 C 0.22782 0.10476 1.01214 0.0
O178 O 0.19965 0.07171 1.01088 0.0
H179 H 0.20323 0.22228 0.96412 0.0
H180 H 0.10935 0.24547 1.01071 0.0
O181 O 0.14262 0.13665 0.9656 0.0
H182 H 0.06438 0.12503 0.05537 0.0
H183 H 0.12441 0.32218 0.99135 0.0
Cu184 Cu 0.90479 0.85296 0.74946 0.0
N185 N 0.89339 0.80715 0.7684 0.0
N186 N 0.84761 0.76531 0.78764 0.0
C187 C 0.85833 0.80688 0.7814 0.0
C188 C 0.87858 0.73854 0.77892 0.0
C189 C 0.9066 0.7644 0.76697 0.0
O190 O 0.89744 0.90988 0.76364 0.0
C191 C 0.8303 0.82082 0.72649 0.0
O192 O 0.80893 0.81832 0.74416 0.0
H193 H 0.83809 0.83599 0.78435 0.0
H194 H 0.93153 0.75233 0.75624 0.0
N195 N 0.96277 0.84987 0.73884 0.0
N196 N 0.0173 0.85354 0.71512 0.0
C197 C 0.9739 0.86127 0.71936 0.0
C198 C 1.00045 0.83451 0.74743 0.0
C199 C 0.03416 0.83678 0.73284 0.0
C200 C 0.86104 0.92767 0.76952 0.0
O201 O 0.82328 0.90976 0.76398 0.0
H202 H 0.95016 0.87453 0.70845 0.0
H203 H 1.00297 0.82152 0.76298 0.0
O204 O 0.86721 0.84136 0.72561 0.0
H205 H 0.8781 0.7025 0.77927 0.0
H206 H 0.06796 0.8253 0.73492 0.0
Cu207 Cu 0.9456 0.12662 0.48545 0.0
N208 N 0.99067 0.11289 0.50427 0.0
N209 N 0.02906 0.06926 0.52598 0.0
C210 C 0.98878 0.07945 0.5182 0.0
C211 C 0.05718 0.09874 0.51719 0.0
C212 C 0.03343 0.12548 0.50374 0.0
O213 O 0.88997 0.13083 0.50087 0.0
C214 C 0.9724 0.04822 0.46394 0.0
O215 O 0.97997 0.02877 0.48175 0.0
H216 H 0.9591 0.06032 0.52115 0.0
H217 H 0.04698 0.14975 0.49311 0.0
N218 N 0.95568 0.18071 0.47154 0.0
N219 N 0.95976 0.22836 0.44473 0.0
C220 C 0.95751 0.18526 0.45082 0.0
C221 C 0.95684 0.22242 0.47896 0.0
C222 C 0.95947 0.25188 0.46248 0.0
C223 C 0.86815 0.09763 0.5077 0.0
O224 O 0.88068 0.05718 0.50255 0.0
H225 H 0.95586 0.15736 0.44039 0.0
H226 H 0.95422 0.23084 0.49513 0.0
O227 O 0.94761 0.08271 0.46339 0.0
H228 H 0.09289 0.09839 0.51891 0.0
H229 H 0.95921 0.28784 0.46354 0.0
Cu230 Cu 0.60642 0.14551 0.24048 0.0
N231 N 0.65574 0.18202 0.24482 0.0
N232 N 0.70291 0.22578 0.26191 0.0
C233 C 0.66681 0.19939 0.26322 0.0
C234 C 0.71482 0.22505 0.24174 0.0
C235 C 0.68561 0.19816 0.23125 0.0
O236 O 0.59717 0.10982 0.26537 0.0
C237 C 0.56059 0.22179 0.22537 0.0
O238 O 0.58967 0.24638 0.23504 0.0
H239 H 0.64785 0.19336 0.27719 0.0
H240 H 0.68576 0.19148 0.21486 0.0
N241 N 0.61306 0.10594 0.21863 0.0
N242 N 0.58499 0.07285 0.19072 0.0
C243 C 0.57674 0.08881 0.2098 0.0
C244 C 0.64629 0.09936 0.20502 0.0
C245 C 0.62907 0.07872 0.18779 0.0
C246 C 0.63169 0.08883 0.27142 0.0
O247 O 0.66858 0.09309 0.26067 0.0
H248 H 0.54401 0.09218 0.21658 0.0
H249 H 0.67951 0.11227 0.2066 0.0
O250 O 0.55652 0.18102 0.2305 0.0
H251 H 0.74266 0.24247 0.23497 0.0
H252 H 0.64679 0.07275 0.17348 0.0
Cu253 Cu 0.6588 0.8567 0.98385 0.0
N254 N 0.61885 0.87621 1.00415 0.0
N255 N 0.58112 0.92424 1.02396 0.0
C256 C 0.60664 0.91897 1.00697 0.0
C257 C 0.57648 0.88292 1.03201 0.0
C258 C 0.6 0.85333 1.01977 0.0
O259 O 0.71733 0.87039 0.99436 0.0
C260 C 0.60122 0.88313 0.95358 0.0
O261 O 0.57395 0.86826 0.9679 0.0
H262 H 0.61666 0.94583 0.99681 0.0
H263 H 0.60423 0.81797 1.02243 0.0
N264 N 0.65658 0.79502 0.97954 0.0
N265 N 0.65019 0.73304 0.96064 0.0
C266 C 0.63692 0.77567 0.96329 0.0
C267 C 0.68318 0.76329 0.9876 0.0
C268 C 0.67938 0.72498 0.97594 0.0
C269 C 0.72784 0.90807 1.00179 0.0
O270 O 0.7022 0.94275 0.99833 0.0
H271 H 0.61653 0.79366 0.95238 0.0
H272 H 0.70632 0.76868 1.00004 0.0
O273 O 0.64265 0.88387 0.95749 0.0
H274 H 0.55891 0.8749 1.04616 0.0
H275 H 0.69828 0.69451 0.9779 0.0
Cu276 Cu 0.91076 0.14749 0.8467 0.0
N277 N 0.90324 0.1913 0.82652 0.0
N278 N 0.86455 0.22843 0.80255 0.0
C279 C 0.87463 0.18822 0.81075 0.0
C280 C 0.88928 0.25779 0.8132 0.0
C281 C 0.91296 0.2348 0.82802 0.0
O282 O 0.90125 0.0896 0.83386 0.0
C283 C 0.8386 0.18916 0.86852 0.0
O284 O 0.8223 0.19818 0.85021 0.0
H285 H 0.85879 0.15747 0.80655 0.0
H286 H 0.93234 0.24919 0.84029 0.0
N287 N 0.96821 0.14876 0.85736 0.0
N288 N 0.02154 0.14607 0.88128 0.0
C289 C 0.97815 0.13953 0.87714 0.0
C290 C 1.00663 0.16144 0.84848 0.0
C291 C 0.03967 0.15973 0.86322 0.0
C292 C 0.86412 0.07472 0.8277 0.0
O293 O 0.82754 0.09677 0.83219 0.0
H294 H 0.95358 0.12887 0.88834 0.0
H295 H 1.01008 0.17241 0.83262 0.0
O296 O 0.87212 0.16319 0.86997 0.0
H297 H 0.88735 0.29368 0.81173 0.0
H298 H 0.07387 0.16961 0.86099 0.0
Cu299 Cu 0.65733 0.18446 0.58318 0.0
N300 N 0.61553 0.17104 0.56283 0.0
N301 N 0.57301 0.1283 0.54291 0.0
C302 C 0.59669 0.13081 0.56048 0.0
C303 C 0.57658 0.16877 0.53394 0.0
C304 C 0.60317 0.19495 0.54617 0.0
O305 O 0.71493 0.16375 0.57299 0.0
C306 C 0.59783 0.174 0.61454 0.0
O307 O 0.57554 0.19771 0.60096 0.0
H308 H 0.60184 0.10326 0.57105 0.0
H309 H 0.6148 0.22803 0.54247 0.0
N310 N 0.66266 0.24529 0.58859 0.0
N311 N 0.67752 0.30349 0.60892 0.0
C312 C 0.6851 0.25992 0.6051 0.0
C313 C 0.64002 0.28092 0.58151 0.0
C314 C 0.64923 0.31692 0.59399 0.0
C315 C 0.72152 0.1256 0.56495 0.0
O316 O 0.69039 0.0953 0.56639 0.0
H317 H 0.70327 0.23775 0.61525 0.0
H318 H 0.61596 0.28025 0.56923 0.0
O319 O 0.6367 0.16043 0.60961 0.0
H320 H 0.56347 0.17776 0.51896 0.0
H321 H 0.6342 0.34964 0.59284 0.0
Cu322 Cu 0.59849 0.87795 0.35535 0.0
N323 N 0.62147 0.83294 0.33818 0.0
N324 N 0.66883 0.79428 0.31817 0.0
C325 C 0.66198 0.83195 0.32917 0.0
C326 C 0.63102 0.77072 0.3204 0.0
C327 C 0.60198 0.79459 0.3327 0.0
O328 O 0.59956 0.93424 0.34044 0.0
C329 C 0.63592 0.84066 0.39042 0.0
O330 O 0.63385 0.80481 0.37894 0.0
H331 H 0.68629 0.85796 0.33105 0.0
H332 H 0.56913 0.7844 0.33751 0.0
N333 N 0.5396 0.86833 0.36278 0.0
N334 N 0.47893 0.87549 0.38259 0.0
C335 C 0.52305 0.88185 0.38103 0.0
C336 C 0.50479 0.85283 0.35216 0.0
C337 C 0.46722 0.85723 0.36437 0.0
C338 C 0.63459 0.95602 0.33639 0.0
O339 O 0.67267 0.94189 0.34379 0.0
H340 H 0.54291 0.89839 0.3925 0.0
H341 H 0.5063 0.84069 0.33648 0.0
O342 O 0.62774 0.87835 0.38211 0.0
H343 H 0.62454 0.73867 0.31353 0.0
H344 H 0.43386 0.84848 0.35994 0.0
Cu345 Cu 0.92005 0.86281 0.09233 0.0
N346 N 0.96985 0.87074 0.07538 0.0
N347 N 0.01534 0.91522 0.05735 0.0
C348 C 0.9729 0.90482 0.06188 0.0
C349 C 0.04012 0.88502 0.06772 0.0
C350 C 0.01193 0.85775 0.07895 0.0
O351 O 0.86818 0.87549 0.07577 0.0
C352 C 0.95542 0.93108 0.11791 0.0
O353 O 0.96587 0.95216 0.10079 0.0
H354 H 0.94484 0.92513 0.05744 0.0
H355 H 0.02161 0.83392 0.09069 0.0
N356 N 0.91294 0.80458 0.10199 0.0
N357 N 0.88748 0.75109 0.12306 0.0
C358 C 0.89474 0.79508 0.12051 0.0
C359 C 0.91739 0.76518 0.09235 0.0
C360 C 0.90185 0.73199 0.10541 0.0
C361 C 0.85414 0.91258 0.06879 0.0
O362 O 0.87185 0.9499 0.07519 0.0
H363 H 0.88639 0.82025 0.13181 0.0
H364 H 0.92958 0.76104 0.07672 0.0
O365 O 0.92935 0.89787 0.11713 0.0
H366 H 0.07591 0.88588 0.06901 0.0
H367 H 0.89991 0.69683 0.10196 0.0
Cu368 Cu 0.60456 0.61279 0.84646 0.0
N369 N 0.62699 0.65871 0.82981 0.0
N370 N 0.67869 0.70187 0.81507 0.0
C371 C 0.66904 0.67359 0.8307 0.0
C372 C 0.64092 0.70537 0.80405 0.0
C373 C 0.60919 0.67843 0.81308 0.0
O374 O 0.61468 0.55712 0.83143 0.0
C375 C 0.6202 0.6571 0.88157 0.0
O376 O 0.59743 0.6853 0.87017 0.0
H377 H 0.69266 0.66228 0.84213 0.0
H378 H 0.57643 0.67179 0.80717 0.0
N379 N 0.54376 0.61846 0.85251 0.0
N380 N 0.48836 0.62274 0.87577 0.0
C381 C 0.52733 0.60319 0.87057 0.0
C382 C 0.51336 0.64784 0.84556 0.0
C383 C 0.47902 0.65031 0.85981 0.0
C384 C 0.65138 0.54939 0.82218 0.0
O385 O 0.68527 0.57547 0.82579 0.0
H386 H 0.54622 0.58164 0.8807 0.0
H387 H 0.51793 0.66954 0.83237 0.0
O388 O 0.63172 0.61982 0.87366 0.0
H389 H 0.63731 0.72385 0.78976 0.0
H390 H 0.45197 0.67418 0.85951 0.0
Cu391 Cu 0.585 0.38182 0.10438 0.0
N392 N 0.53796 0.41602 0.09371 0.0
N393 N 0.49879 0.46786 0.07652 0.0
C394 C 0.53977 0.45312 0.08184 0.0
C395 C 0.47037 0.43883 0.08546 0.0
C396 C 0.49453 0.40705 0.09599 0.0
O397 O 0.62726 0.37032 0.08206 0.0
C398 C 0.59149 0.43831 0.13909 0.0
O399 O 0.55779 0.45966 0.13083 0.0
H400 H 0.57052 0.4685 0.07698 0.0
H401 H 0.48138 0.37921 0.10469 0.0
N402 N 0.56273 0.32898 0.11575 0.0
N403 N 0.54467 0.28265 0.14181 0.0
C404 C 0.55073 0.32536 0.13574 0.0
C405 C 0.56354 0.28713 0.10853 0.0
C406 C 0.55238 0.2585 0.12451 0.0
C407 C 0.66564 0.35256 0.08357 0.0
O408 O 0.67998 0.33961 0.10176 0.0
H409 H 0.5495 0.35377 0.14587 0.0
H410 H 0.57428 0.27783 0.09316 0.0
O411 O 0.61234 0.40971 0.12822 0.0
H412 H 0.43454 0.44063 0.08469 0.0
H413 H 0.55246 0.22261 0.12355 0.0
Cu414 Cu 0.88955 0.38856 0.35111 0.0
N415 N 0.83628 0.35914 0.3455 0.0
N416 N 0.78572 0.32079 0.32781 0.0
C417 C 0.82508 0.34205 0.32705 0.0
C418 C 0.77159 0.32482 0.34757 0.0
C419 C 0.80281 0.34857 0.35842 0.0
O420 O 0.90332 0.42614 0.32701 0.0
C421 C 0.9241 0.30493 0.36497 0.0
O422 O 0.88971 0.28722 0.35583 0.0
H423 H 0.8462 0.34412 0.3135 0.0
H424 H 0.80158 0.35689 0.37465 0.0
N425 N 0.88493 0.42567 0.37401 0.0
N426 N 0.90746 0.45322 0.40425 0.0
C427 C 0.91893 0.43042 0.38712 0.0
C428 C 0.85036 0.4469 0.38284 0.0
C429 C 0.86417 0.46396 0.40155 0.0
C430 C 0.87069 0.45051 0.32127 0.0
O431 O 0.8336 0.44869 0.33201 0.0
H432 H 0.95081 0.41459 0.38463 0.0
H433 H 0.81709 0.44797 0.37667 0.0
O434 O 0.93408 0.34528 0.36084 0.0
H435 H 0.74093 0.31159 0.35376 0.0
H436 H 0.84332 0.48122 0.41259 0.0
Cu437 Cu 0.84911 0.61897 0.61733 0.0
N438 N 0.86212 0.5578 0.61568 0.0
N439 N 0.88926 0.49488 0.60192 0.0
C440 C 0.87784 0.53784 0.59852 0.0
C441 C 0.87954 0.48725 0.62201 0.0
C442 C 0.86303 0.52622 0.6305 0.0
O443 O 0.81239 0.63483 0.59354 0.0
C444 C 0.9407 0.63162 0.62503 0.0
O445 O 0.94787 0.59258 0.61658 0.0
H446 H 0.88231 0.55518 0.58397 0.0
H447 H 0.85419 0.53158 0.6465 0.0
N448 N 0.81781 0.63588 0.641 0.0
N449 N 0.80228 0.68207 0.6672 0.0
C450 C 0.8214 0.67745 0.64844 0.0
C451 C 0.79474 0.61305 0.65534 0.0
C452 C 0.78503 0.64154 0.67154 0.0
C453 C 0.77868 0.60977 0.59129 0.0
O454 O 0.77255 0.57727 0.60465 0.0
H455 H 0.83942 0.70334 0.64038 0.0
H456 H 0.78734 0.57791 0.65457 0.0
O457 O 0.90422 0.65177 0.62138 0.0
H458 H 0.886 0.45644 0.63023 0.0
H459 H 0.76878 0.63229 0.68587 0.0
Cu460 Cu 0.63649 0.36279 0.72392 0.0
N461 N 0.66515 0.313 0.73507 0.0
N462 N 0.71595 0.27237 0.75177 0.0
C463 C 0.69999 0.31365 0.74796 0.0
C464 C 0.68978 0.24459 0.74101 0.0
C465 C 0.65862 0.2698 0.73062 0.0
O466 O 0.62959 0.40765 0.74559 0.0
C467 C 0.70042 0.36236 0.69131 0.0
O468 O 0.72328 0.33443 0.70278 0.0
H469 H 0.71386 0.34384 0.75416 0.0
H470 H 0.63399 0.25763 0.72001 0.0
N471 N 0.58169 0.34692 0.71281 0.0
N472 N 0.52965 0.3449 0.68824 0.0
C473 C 0.56649 0.36516 0.69522 0.0
C474 C 0.55348 0.31361 0.71734 0.0
C475 C 0.5212 0.31236 0.70221 0.0
C476 C 0.66257 0.43051 0.75158 0.0
O477 O 0.70064 0.4262 0.74176 0.0
H478 H 0.5833 0.39211 0.6874 0.0
H479 H 0.55676 0.29111 0.73034 0.0
O480 O 0.66833 0.38387 0.69949 0.0
H481 H 0.69387 0.20881 0.7401 0.0
H482 H 0.49373 0.28934 0.70166 0.0
Cu483 Cu 0.85335 0.36284 0.98681 0.0
N484 N 0.86513 0.42199 0.99432 0.0
N485 N 0.89721 0.47572 1.01283 0.0
C486 C 0.88784 0.43194 1.01153 0.0
C487 C 0.87923 0.49431 0.99576 0.0
C488 C 0.8593 0.46109 0.98439 0.0
O489 O 0.81877 0.33875 1.00991 0.0
C490 C 0.93924 0.35695 0.97071 0.0
O491 O 0.93593 0.40045 0.97155 0.0
H492 H 0.89941 0.40684 1.02233 0.0
H493 H 0.8435 0.46509 0.96957 0.0
N494 N 0.82163 0.35397 0.96246 0.0
N495 N 0.80706 0.31503 0.9338 0.0
C496 C 0.82329 0.31397 0.95318 0.0
C497 C 0.80281 0.38169 0.94865 0.0
C498 C 0.79361 0.3577 0.93099 0.0
C499 C 0.77991 0.3557 1.01123 0.0
O500 O 0.76719 0.38356 0.99669 0.0
H501 H 0.8387 0.28523 0.96032 0.0
H502 H 0.79845 0.41712 0.95069 0.0
O503 O 0.90927 0.3332 0.97931 0.0
H504 H 0.88105 0.52918 0.9916 0.0
H505 H 0.78085 0.37152 0.91674 0.0
Cu506 Cu 0.89505 0.66069 0.23486 0.0
N507 N 0.87147 0.70573 0.25175 0.0
N508 N 0.82456 0.74424 0.27205 0.0
C509 C 0.83177 0.70599 0.26153 0.0
C510 C 0.86149 0.76873 0.26881 0.0
C511 C 0.89025 0.74493 0.25634 0.0
O512 O 0.90155 0.60624 0.25132 0.0
C513 C 0.83777 0.68511 0.2024 0.0
O514 O 0.82458 0.71687 0.21492 0.0
H515 H 0.8082 0.67906 0.26042 0.0
H516 H 0.92253 0.75554 0.25089 0.0
N517 N 0.94999 0.67705 0.2237 0.0
N518 N 0.99175 0.68782 0.1954 0.0
C519 C 0.95342 0.69774 0.20523 0.0
C520 C 0.98846 0.65469 0.22604 0.0
C521 C 0.01425 0.66124 0.2086 0.0
C522 C 0.86794 0.58233 0.25554 0.0
O523 O 0.82946 0.59344 0.24752 0.0
H524 H 0.92579 0.71414 0.19779 0.0
H525 H 0.99467 0.63042 0.23809 0.0
O526 O 0.86018 0.65276 0.20984 0.0
H527 H 0.86761 0.80142 0.27509 0.0
H528 H 0.04472 0.64365 0.20489 0.0
Cu529 Cu 0.57292 0.69834 0.51399 0.0
N530 N 0.53189 0.6989 0.53594 0.0
N531 N 0.48098 0.67192 0.55805 0.0
C532 C 0.50735 0.66341 0.54156 0.0
C533 C 0.48955 0.71467 0.56304 0.0
C534 C 0.52094 0.73119 0.5494 0.0
O535 O 0.62999 0.67847 0.52483 0.0
C536 C 0.50805 0.67202 0.48751 0.0
O537 O 0.48819 0.70414 0.4978 0.0
H538 H 0.50952 0.63167 0.53379 0.0
H539 H 0.53491 0.76423 0.54946 0.0
N540 N 0.58193 0.75343 0.50108 0.0
N541 N 0.60207 0.79866 0.47511 0.0
C542 C 0.5948 0.75628 0.48121 0.0
C543 C 0.58074 0.79568 0.50795 0.0
C544 C 0.59296 0.82374 0.49188 0.0
C545 C 0.63469 0.64127 0.53405 0.0
O546 O 0.60125 0.61337 0.53435 0.0
H547 H 0.5987 0.72744 0.47139 0.0
H548 H 0.57258 0.80547 0.52356 0.0
O549 O 0.5477 0.66133 0.49237 0.0
H550 H 0.47414 0.73294 0.57557 0.0
H551 H 0.59606 0.85956 0.49264 0.0
Cu552 Cu 0.44833 0.36609 0.2536 0.0
N553 N 0.44233 0.32355 0.27484 0.0
N554 N 0.41126 0.27407 0.29657 0.0
C555 C 0.40693 0.29727 0.27869 0.0
C556 C 0.45102 0.28639 0.30414 0.0
C557 C 0.46987 0.31694 0.29082 0.0
O558 O 0.42768 0.42346 0.26401 0.0
C559 C 0.43271 0.30645 0.22243 0.0
O560 O 0.45753 0.28246 0.23489 0.0
H561 H 0.37823 0.29601 0.26877 0.0
H562 H 0.50068 0.33447 0.29308 0.0
N563 N 0.50705 0.37567 0.24543 0.0
N564 N 0.55954 0.39891 0.22332 0.0
C565 C 0.51649 0.40154 0.22901 0.0
C566 C 0.54567 0.35592 0.25059 0.0
C567 C 0.57823 0.37026 0.23692 0.0
C568 C 0.39541 0.42803 0.2766 0.0
O569 O 0.37009 0.39363 0.28075 0.0
H570 H 0.49115 0.41897 0.22031 0.0
H571 H 0.5494 0.33068 0.26241 0.0
O572 O 0.4206 0.34524 0.22823 0.0
H573 H 0.46483 0.27561 0.31873 0.0
H574 H 0.61219 0.35838 0.23627 0.0
Cu575 Cu 0.36847 0.68674 0.98863 0.0
N576 N 0.41018 0.66829 1.00854 0.0
N577 N 0.44798 0.6229 1.02988 0.0
C578 C 0.41782 0.62582 1.01452 0.0
C579 C 0.46013 0.66538 1.03351 0.0
C580 C 0.43678 0.69322 1.02038 0.0
O581 O 0.30976 0.67898 1.00117 0.0
C582 C 0.42036 0.65293 0.95739 0.0
O583 O 0.45027 0.67033 0.96956 0.0
H584 H 0.40158 0.59756 1.00766 0.0
H585 H 0.43859 0.72914 1.01978 0.0
N586 N 0.37427 0.74691 0.98112 0.0
N587 N 0.37481 0.80742 0.96061 0.0
C588 C 0.37306 0.76244 0.96155 0.0
C589 C 0.37669 0.7833 0.99309 0.0
C590 C 0.37734 0.82062 0.98049 0.0
C591 C 0.29491 0.64113 1.00673 0.0
O592 O 0.317 0.60511 1.00139 0.0
H593 H 0.37083 0.74095 0.94824 0.0
H594 H 0.37697 0.78281 1.00978 0.0
O595 O 0.37975 0.654 0.96308 0.0
H596 H 0.48318 0.67586 1.04525 0.0
H597 H 0.37843 0.85482 0.98566 0.0
Cu598 Cu 0.13013 0.63571 0.74109 0.0
N599 N 0.15163 0.68751 0.75357 0.0
N600 N 0.19683 0.73426 0.77002 0.0
C601 C 0.18787 0.69132 0.76554 0.0
C602 C 0.16458 0.75827 0.76072 0.0
C603 C 0.13693 0.72942 0.75054 0.0
O604 O 0.12781 0.58737 0.76163 0.0
C605 C 0.19675 0.64615 0.70975 0.0
O606 O 0.21655 0.67325 0.72255 0.0
H607 H 0.20813 0.66334 0.77026 0.0
H608 H 0.10921 0.73858 0.74086 0.0
N609 N 0.07425 0.64746 0.72961 0.0
N610 N 0.02587 0.65586 0.70359 0.0
C611 C 0.06452 0.63751 0.70991 0.0
C612 C 0.04021 0.67287 0.73628 0.0
C613 C 1.01024 0.67802 0.72031 0.0
C614 C 0.16345 0.5689 0.76796 0.0
O615 O 0.20126 0.58037 0.75929 0.0
H616 H 0.08676 0.61855 0.70021 0.0
H617 H 0.03827 0.68826 0.75134 0.0
O618 O 0.16551 0.62158 0.71653 0.0
H619 H 0.16236 0.79427 0.76037 0.0
H620 H 0.97989 0.6973 0.72097 0.0
Cu621 Cu 0.06272 0.3635 0.49684 0.0
N622 N 0.0204 0.35765 0.5181 0.0
N623 N 0.97652 0.37893 0.54439 0.0
C624 C 0.0142 0.38693 0.53359 0.0
C625 C 0.9589 0.34238 0.53564 0.0
C626 C 0.98588 0.3295 0.51938 0.0
O627 O 0.11999 0.3744 0.50979 0.0
C628 C 1.00583 0.42959 0.47856 0.0
O629 O 0.98321 0.42752 0.4959 0.0
H630 H 0.03548 0.41529 0.53603 0.0
H631 H 0.97921 0.30337 0.50844 0.0
N632 N 0.0676 0.31191 0.48082 0.0
N633 N 0.07978 0.26967 0.45292 0.0
C634 C 0.07949 0.31131 0.46071 0.0
C635 C 0.06046 0.2691 0.48602 0.0
C636 C 0.06788 0.24297 0.46881 0.0
C637 C 0.13074 0.41242 0.51666 0.0
O638 O 0.10429 0.44651 0.51312 0.0
H639 H 0.08773 0.34095 0.45194 0.0
H640 H 0.05074 0.25765 0.50124 0.0
O641 O 0.043 0.40917 0.47716 0.0
H642 H 0.92718 0.32794 0.53972 0.0
H643 H 0.06563 0.20707 0.46811 0.0
Cu644 Cu 0.40866 0.6547 0.35368 0.0
N645 N 0.36 0.68966 0.34586 0.0
N646 N 0.31784 0.73495 0.32655 0.0
C647 C 0.35291 0.70669 0.32687 0.0
C648 C 0.30216 0.73529 0.34615 0.0
C649 C 0.32828 0.70748 0.35801 0.0
O650 O 0.41592 0.6064 0.33386 0.0
C651 C 0.45208 0.7345 0.35966 0.0
O652 O 0.43126 0.75884 0.34583 0.0
H653 H 0.37452 0.70003 0.31382 0.0
H654 H 0.3253 0.70193 0.37446 0.0
N655 N 0.4016 0.63183 0.38034 0.0
N656 N 0.4175 0.62203 0.41374 0.0
C657 C 0.43335 0.63276 0.39486 0.0
C658 C 0.36442 0.61891 0.39021 0.0
C659 C 0.3741 0.61299 0.41086 0.0
C660 C 0.38261 0.58155 0.33044 0.0
O661 O 0.34545 0.58928 0.34056 0.0
H662 H 0.46672 0.64424 0.39185 0.0
H663 H 0.33208 0.61659 0.38317 0.0
O664 O 0.45963 0.69376 0.35542 0.0
H665 H 0.27412 0.75459 0.35166 0.0
H666 H 0.35052 0.60475 0.42294 0.0
Cu667 Cu 0.08849 0.64982 0.09709 0.0
N668 N 0.05619 0.59832 0.0907 0.0
N669 N 0.01092 0.55196 0.07383 0.0
C670 C 0.03192 0.59171 0.07353 0.0
C671 C 0.02301 0.5328 0.0919 0.0
C672 C 0.05064 0.56137 0.10221 0.0
O673 O 0.13367 0.65948 0.07566 0.0
C674 C 1.00854 0.69192 0.10705 0.0
O675 O 0.98256 0.6644 0.09718 0.0
H676 H 0.02891 0.61641 0.06137 0.0
H677 H 0.06491 0.55572 0.11725 0.0
N678 N 0.11436 0.64668 0.12333 0.0
N679 N 0.12511 0.66804 0.15611 0.0
C680 C 0.11227 0.6804 0.13694 0.0
C681 C 0.13084 0.61184 0.13397 0.0
C682 C 0.13737 0.62482 0.15418 0.0
C683 C 0.15576 0.62612 0.06898 0.0
O684 O 0.14819 0.58675 0.07717 0.0
H685 H 0.09953 0.71294 0.13283 0.0
H686 H 0.13592 0.57882 0.12777 0.0
O687 O 0.04675 0.69933 0.09928 0.0
H688 H 0.01281 0.50042 0.09742 0.0
H689 H 0.14838 0.60332 0.16658 0.0
Cu690 Cu 0.14258 0.37397 0.86348 0.0
N691 N 0.17712 0.32855 0.85182 0.0
N692 N 0.23115 0.29328 0.83454 0.0
C693 C 0.21059 0.33263 0.83805 0.0
C694 C 0.20959 0.26332 0.84647 0.0
C695 C 0.1765 0.2852 0.85718 0.0
O696 O 0.13473 0.42228 0.84322 0.0
C697 C 0.20306 0.37314 0.89707 0.0
O698 O 0.23134 0.35338 0.88456 0.0
H699 H 0.22005 0.36381 0.83093 0.0
H700 H 0.15453 0.2708 0.86863 0.0
N701 N 0.08854 0.35001 0.87262 0.0
N702 N 0.04036 0.33048 0.89762 0.0
C703 C 0.07118 0.36014 0.89121 0.0
C704 C 0.06734 0.31287 0.86669 0.0
C705 C 0.03737 0.3009 0.88202 0.0
C706 C 0.1675 0.4469 0.83826 0.0
O707 O 0.20505 0.4416 0.84822 0.0
H708 H 0.08285 0.3878 0.90026 0.0
H709 H 0.07546 0.29389 0.85301 0.0
O710 O 0.16921 0.39259 0.88943 0.0
H711 H 0.21812 0.22838 0.84791 0.0
H712 H 0.01711 0.27125 0.88217 0.0
Cu713 Cu 0.33055 0.41839 0.60847 0.0
N714 N 0.33873 0.48052 0.60845 0.0
N715 N 0.36785 0.54626 0.59926 0.0
C716 C 0.36569 0.50223 0.59519 0.0
C717 C 0.34096 0.55246 0.61579 0.0
C718 C 0.323 0.51187 0.62141 0.0
O719 O 0.29749 0.40397 0.58335 0.0
C720 C 0.40948 0.40844 0.62782 0.0
O721 O 0.39161 0.44295 0.63712 0.0
H722 H 0.38457 0.48555 0.5832 0.0
H723 H 0.30081 0.50559 0.63426 0.0
N724 N 0.29931 0.39595 0.63129 0.0
N725 N 0.28713 0.3482 0.65746 0.0
C726 C 0.31164 0.35763 0.64053 0.0
C727 C 0.26501 0.41149 0.64257 0.0
C728 C 0.25747 0.38216 0.65879 0.0
C729 C 0.26348 0.42877 0.58042 0.0
O730 O 0.25383 0.45917 0.59428 0.0
H731 H 0.33956 0.33793 0.63519 0.0
H732 H 0.24733 0.44226 0.63951 0.0
O733 O 0.38919 0.39129 0.61254 0.0
H734 H 0.33476 0.58397 0.62334 0.0
H735 H 0.23257 0.38609 0.67072 0.0
C736 C 0.12882 0.27785 0.42239 0.0
C737 C 0.0937 0.256 0.43253 0.0
H738 H 0.17534 0.2768 0.39717 0.0
C739 C 0.07453 0.21878 0.42303 0.0
H740 H 0.14447 0.30637 0.42938 0.0
C741 C 0.0913 0.20269 0.40424 0.0
C742 C 0.12839 0.22281 0.39487 0.0
H743 H 0.04742 0.20132 0.43045 0.0
H744 H 0.07724 0.17266 0.39785 0.0
C745 C 0.1464 0.26103 0.40392 0.0
C746 C 0.03533 0.85863 0.65768 0.0
C747 C 0.08181 0.86042 0.65596 0.0
H748 H 0.97873 0.85435 0.67739 0.0
C749 C 0.10698 0.86278 0.67412 0.0
H750 H 0.01485 0.85674 0.64402 0.0
C751 C 0.08593 0.8614 0.69359 0.0
C752 C 0.03933 0.858 0.69525 0.0
H753 H 0.14287 0.8638 0.67331 0.0
H754 H 0.10619 0.86238 0.70731 0.0
C755 C 0.01445 0.85747 0.67696 0.0
C756 C 0.39256 0.8781 0.94223 0.0
C757 C 0.37408 0.83513 0.94222 0.0
H758 H 0.41069 0.9357 0.9245 0.0
C759 C 0.35596 0.81923 0.92368 0.0
H760 H 0.407 0.89149 0.95612 0.0
C761 C 0.35808 0.84462 0.90551 0.0
C762 C 0.37845 0.88668 0.9053 0.0
H763 H 0.34055 0.78682 0.92309 0.0
H764 H 0.34514 0.83048 0.89143 0.0
C765 C 0.39464 0.90354 0.92404 0.0
C766 C 0.48006 0.07987 0.15977 0.0
C767 C 0.4927 0.05817 0.14148 0.0
H768 H 0.49902 0.10187 0.18956 0.0
C769 C 0.53418 0.03635 0.14076 0.0
H770 H 0.44842 0.09704 0.16091 0.0
C771 C 0.56369 0.03926 0.15732 0.0
C772 C 0.55228 0.06373 0.17504 0.0
H773 H 0.54505 0.0192 0.12693 0.0
H774 H 0.59606 0.02373 0.15595 0.0
C775 C 0.50937 0.08256 0.17632 0.0
C776 C 0.0968 0.76126 0.19285 0.0
C777 C 0.11845 0.7477 0.21098 0.0
H778 H 0.08314 0.74818 0.16138 0.0
C779 C 0.14056 0.70632 0.21111 0.0
H780 H 0.07971 0.79307 0.19204 0.0
C781 C 0.14222 0.67988 0.19331 0.0
C782 C 0.12221 0.69436 0.17484 0.0
H783 H 0.15786 0.69496 0.22478 0.0
H784 H 0.16042 0.64879 0.19398 0.0
C785 C 0.09918 0.73536 0.17502 0.0
C786 C 0.37815 0.91395 0.41209 0.0
C787 C 0.39588 0.92269 0.43167 0.0
H788 H 0.39022 0.89195 0.38126 0.0
C789 C 0.44121 0.91518 0.43497 0.0
H790 H 0.34324 0.91961 0.40908 0.0
C791 C 0.46815 0.8984 0.4191 0.0
C792 C 0.4505 0.88985 0.39938 0.0
H793 H 0.45581 0.92232 0.44975 0.0
H794 H 0.50281 0.89225 0.42234 0.0
C795 C 0.40505 0.89761 0.39617 0.0
C796 C 0.29152 0.28259 0.70718 0.0
C797 C 0.32113 0.24789 0.70201 0.0
H798 H 0.25784 0.34178 0.69734 0.0
C799 C 0.33545 0.24417 0.68142 0.0
H800 H 0.27977 0.28657 0.7229 0.0
C801 C 0.32243 0.2757 0.66663 0.0
C802 C 0.29519 0.31227 0.67207 0.0
H803 H 0.358 0.21772 0.67682 0.0
H804 H 0.33481 0.27179 0.65105 0.0
C805 C 0.27884 0.31442 0.69243 0.0
C806 C 0.10855 0.13605 0.92286 0.0
C807 C 0.08274 0.14269 0.94075 0.0
H808 H 0.10923 0.13197 0.88972 0.0
C809 C 0.03666 0.14846 0.93869 0.0
H810 H 0.14418 0.13181 0.92393 0.0
C811 C 0.01686 0.14889 0.91932 0.0
C812 C 0.04245 0.14347 0.9013 0.0
H813 H 0.01567 0.15372 0.95212 0.0
H814 H 0.98149 0.15496 0.91854 0.0
C815 C 0.08858 0.13662 0.90328 0.0
C816 C 0.83924 0.75213 0.67774 0.0
C817 C 0.80563 0.72019 0.68076 0.0
H818 H 0.87286 0.80915 0.68945 0.0
C819 C 0.77694 0.7252 0.69782 0.0
H820 H 0.86232 0.74971 0.66496 0.0
C821 C 0.7831 0.75975 0.71199 0.0
C822 C 0.8182 0.79013 0.70949 0.0
H823 H 0.75025 0.70188 0.7005 0.0
H824 H 0.76144 0.76144 0.72538 0.0
C825 C 0.84539 0.78656 0.69188 0.0
C826 C 0.03494 0.06803 0.41411 0.0
C827 C 0.07565 0.0464 0.41807 0.0
H828 H 0.96981 0.08421 0.42511 0.0
C829 C 0.07908 0.01954 0.43583 0.0
H830 H 0.03071 0.08916 0.4007 0.0
C831 C 0.0439 0.01702 0.45001 0.0
C832 C 1.00452 0.04143 0.44676 0.0
H833 H 0.10952 1.00169 0.43916 0.0
H834 H 0.04869 0.998 0.46408 0.0
C835 C 0.99981 0.0654 0.42823 0.0
C836 C 0.53736 0.29665 0.17961 0.0
C837 C 0.54008 0.26656 0.16294 0.0
H838 H 0.5412 0.30589 0.21229 0.0
C839 C 0.54177 0.22067 0.16762 0.0
H840 H 0.53398 0.33204 0.17712 0.0
C841 C 0.54463 0.20581 0.18812 0.0
C842 C 0.54621 0.23635 0.2045 0.0
H843 H 0.54271 0.19597 0.15553 0.0
H844 H 0.54859 0.17054 0.191 0.0
C845 C 0.54106 0.28173 0.20001 0.0
C846 C 0.53742 0.89162 0.92982 0.0
C847 C 0.58362 0.89083 0.93256 0.0
H848 H 0.48359 0.89334 0.90879 0.0
C849 C 0.61138 0.89297 0.91503 0.0
H850 H 0.51493 0.89046 0.94293 0.0
C851 C 0.59298 0.89441 0.89514 0.0
C852 C 0.54666 0.89331 0.89253 0.0
H853 H 0.64713 0.89218 0.91664 0.0
H854 H 0.61482 0.89525 0.88181 0.0
C855 C 0.51929 0.89273 0.91015 0.0
C856 C 0.78631 0.2824 0.89998 0.0
C857 C 0.81067 0.28013 0.91843 0.0
H858 H 0.77525 0.25512 0.86995 0.0
C859 C 0.84057 0.24424 0.92105 0.0
H860 H 0.7624 0.30885 0.89746 0.0
C861 C 0.84767 0.21316 0.90533 0.0
C862 C 0.82509 0.21692 0.88649 0.0
H863 H 0.8602 0.24083 0.93487 0.0
H864 H 0.87239 0.1873 0.90766 0.0
C865 C 0.79342 0.25122 0.88423 0.0
C866 C 0.58797 0.1606 0.67292 0.0
C867 C 0.54289 0.1715 0.67622 0.0
H868 H 0.64086 0.15191 0.65078 0.0
C869 C 0.51612 0.17996 0.65894 0.0
H870 H 0.60948 0.15346 0.68584 0.0
C871 C 0.53391 0.17869 0.63902 0.0
C872 C 0.57908 0.16896 0.63567 0.0
H873 H 0.48154 0.18909 0.66074 0.0
H874 H 0.51226 0.1865 0.6262 0.0
C875 C 0.60587 0.15918 0.65282 0.0
C876 C 0.65042 0.79453 0.42169 0.0
C877 C 0.63556 0.83497 0.41317 0.0
H878 H 0.65239 0.75179 0.44807 0.0
C879 C 0.61381 0.86579 0.42612 0.0
H880 H 0.66755 0.77021 0.41218 0.0
C881 C 0.6043 0.8548 0.44678 0.0
C882 C 0.61657 0.81292 0.45484 0.0
H883 H 0.6017 0.89717 0.42 0.0
H884 H 0.58536 0.87808 0.45607 0.0
C885 C 0.64122 0.78373 0.44224 0.0
C886 C 0.05055 0.967 0.15193 0.0
C887 C 0.0486 0.9352 0.16793 0.0
H888 H 0.02211 0.99144 0.12381 0.0
C889 C 0.01226 0.90586 0.16855 0.0
H890 H 0.07745 0.99067 0.15112 0.0
C891 C 0.98016 0.90676 0.15308 0.0
C892 C 0.98357 0.93679 0.13645 0.0
H893 H 1.00944 0.88059 0.18041 0.0
H894 H 0.95394 0.88223 0.15364 0.0
C895 C 0.01845 0.96777 0.13637 0.0
C896 C 0.66609 0.65962 0.9141 0.0
C897 C 0.62631 0.66815 0.90358 0.0
H898 H 0.70525 0.67418 0.94088 0.0
C899 C 0.59271 0.69281 0.91351 0.0
H900 H 0.6925 0.64079 0.90674 0.0
C901 C 0.59967 0.71132 0.93288 0.0
C902 C 0.64062 0.70617 0.9428 0.0
H903 H 0.56135 0.69926 0.90592 0.0
H904 H 0.57358 0.73143 0.93973 0.0
C905 C 0.67327 0.67868 0.93362 0.0
C906 C 0.56767 0.46396 0.17414 0.0
C907 C 0.59427 0.43569 0.16198 0.0
H908 H 0.53654 0.47478 0.20349 0.0
C909 C 0.61629 0.39981 0.17167 0.0
H910 H 0.55066 0.49222 0.16729 0.0
C911 C 0.60785 0.38962 0.19248 0.0
C912 C 0.57733 0.41519 0.20397 0.0
H913 H 0.63707 0.37729 0.16281 0.0
H914 H 0.62226 0.35963 0.19898 0.0
C915 C 0.55933 0.45383 0.19488 0.0
C916 C 0.93715 0.22033 0.40813 0.0
C917 C 0.95698 0.2456 0.4238 0.0
H918 H 0.91212 0.21884 0.3773 0.0
C919 C 0.9718 0.28878 0.41882 0.0
H920 H 0.92521 0.18706 0.41121 0.0
C921 C 0.96443 0.30709 0.39911 0.0
C922 C 0.9417 0.2828 0.38395 0.0
H923 H 0.98814 0.30887 0.4303 0.0
H924 H 0.97455 0.34105 0.39616 0.0
C925 C 0.92956 0.23868 0.38855 0.0
C926 C 0.02344 0.62237 0.66855 0.0
C927 C 1.00682 0.65324 0.68305 0.0
H928 H 0.01674 0.59245 0.63887 0.0
C929 C 0.97113 0.68087 0.67706 0.0
H930 H 0.05068 0.60028 0.67222 0.0
C931 C 0.95137 0.67613 0.65761 0.0
C932 C 0.96676 0.64364 0.64365 0.0
H933 H 0.95773 0.70572 0.68745 0.0
H934 H 0.92291 0.6967 0.65389 0.0
C935 C 1.00385 0.61781 0.64918 0.0
C936 C 0.72613 0.31243 0.63923 0.0
C937 C 0.68921 0.32649 0.62767 0.0
H938 H 0.75933 0.3135 0.66832 0.0
C939 C 0.66121 0.35957 0.636 0.0
H940 H 0.74911 0.28798 0.63307 0.0
C941 C 0.6675 0.37484 0.65617 0.0
C942 C 0.70164 0.35703 0.66851 0.0
H943 H 0.63258 0.37146 0.62758 0.0
H944 H 0.64365 0.39821 0.66252 0.0
C945 C 0.73223 0.32742 0.65942 0.0
C946 C 0.97832 0.30618 0.92071 0.0
C947 C 0.01832 0.32949 0.91759 0.0
H948 H 0.92194 0.29557 0.94063 0.0
C949 C 0.03543 0.35402 0.93419 0.0
H950 H 0.9641 0.28672 0.90841 0.0
C951 C 0.0115 0.35872 0.95255 0.0
C952 C 0.96997 0.33863 0.95501 0.0
H953 H 0.06651 0.3714 0.93284 0.0
H954 H 0.02422 0.38061 0.96437 0.0
C955 C 0.95434 0.31072 0.9393 0.0
C956 C 0.83731 0.75292 0.15331 0.0
C957 C 0.86848 0.72993 0.14109 0.0
H958 H 0.80167 0.75587 0.18188 0.0
C959 C 0.88309 0.68767 0.14766 0.0
H960 H 0.82446 0.78496 0.14839 0.0
C961 C 0.86995 0.67074 0.16697 0.0
C962 C 0.84167 0.69569 0.17999 0.0
H963 H 0.90688 0.66905 0.13851 0.0
H964 H 0.88444 0.63966 0.17226 0.0
C965 C 0.82388 0.73593 0.17244 0.0
C966 C 0.43863 0.65609 0.46835 0.0
C967 C 0.48509 0.65267 0.46955 0.0
H968 H 0.38078 0.64888 0.44981 0.0
C969 C 0.50877 0.63531 0.45263 0.0
H970 H 0.41944 0.66945 0.48112 0.0
C971 C 0.48642 0.6237 0.4345 0.0
C972 C 0.44001 0.62866 0.43309 0.0
H973 H 0.54462 0.63269 0.45304 0.0
H974 H 0.50551 0.61179 0.42142 0.0
C975 C 0.41636 0.64402 0.45042 0.0
C976 C 0.41994 0.3039 0.16401 0.0
C977 C 0.42602 0.25818 0.15988 0.0
H978 H 0.41632 0.35519 0.18706 0.0
C979 C 0.43023 0.22874 0.17675 0.0
H980 H 0.41621 0.32758 0.1515 0.0
C981 C 0.43003 0.24452 0.19699 0.0
C982 C 0.42538 0.2902 0.2011 0.0
H983 H 0.43574 0.19351 0.17443 0.0
H984 H 0.43509 0.22089 0.20946 0.0
C985 C 0.41942 0.31972 0.18442 0.0
C986 C 0.40675 0.64211 0.91932 0.0
C987 C 0.43454 0.63795 0.93659 0.0
H988 H 0.40231 0.64058 0.88618 0.0
C989 C 0.47886 0.6248 0.93355 0.0
H990 H 0.37254 0.65268 0.92119 0.0
C991 C 0.49573 0.61781 0.91374 0.0
C992 C 0.46889 0.62421 0.89625 0.0
H993 H 0.50117 0.62145 0.94653 0.0
H994 H 0.5306 0.60977 0.91221 0.0
C995 C 0.42389 0.6356 0.8993 0.0
C996 C 0.22891 0.6883 0.67983 0.0
C997 C 0.19994 0.65527 0.6872 0.0
H998 H 0.24546 0.73305 0.65531 0.0
C999 C 0.16884 0.63732 0.67344 0.0
H1000 H 0.25396 0.70229 0.68978 0.0
C1001 C 0.16301 0.65598 0.65376 0.0
C1002 C 0.18886 0.69238 0.64725 0.0
H1003 H 0.14691 0.61084 0.67831 0.0
H1004 H 0.13635 0.64364 0.6443 0.0
C1005 C 0.22363 0.70639 0.66007 0.0
C1006 C 1.00433 0.44313 0.44028 0.0
C1007 C 0.98315 0.44554 0.45961 0.0
H1008 H 0.99739 0.44552 0.40754 0.0
C1009 C 0.93789 0.45737 0.46036 0.0
H1010 H 0.03925 0.43461 0.43912 0.0
C1011 C 0.9135 0.46264 0.4422 0.0
C1012 C 0.93382 0.45655 0.42281 0.0
H1013 H 0.92048 0.45987 0.47499 0.0
H1014 H 0.8782 0.4688 0.44351 0.0
C1015 C 0.98005 0.44892 0.42212 0.0
C1016 C 0.48071 0.73622 0.39592 0.0
C1017 C 0.44758 0.74733 0.38166 0.0
H1018 H 0.50344 0.74038 0.42697 0.0
C1019 C 0.40978 0.77051 0.38863 0.0
H1020 H 0.51024 0.71843 0.39094 0.0
C1021 C 0.40529 0.78255 0.40938 0.0
C1022 C 0.43888 0.77252 0.42373 0.0
H1023 H 0.38343 0.77925 0.37803 0.0
H1024 H 0.37549 0.80013 0.41401 0.0
C1025 C 0.47652 0.74867 0.41668 0.0
C1026 C 0.99537 0.73102 0.14076 0.0
C1027 C 1.00449 0.69175 0.12979 0.0
H1028 H 0.98312 0.76024 0.17061 0.0
C1029 C 1.00964 0.65161 0.14071 0.0
H1030 H 0.99094 0.7623 0.13262 0.0
C1031 C 1.00717 0.65081 0.16224 0.0
C1032 C 0.99782 0.68987 0.17332 0.0
H1033 H 0.01625 0.62087 0.13258 0.0
H1034 H 0.01136 0.61934 0.17024 0.0
C1035 C 0.99105 0.72989 0.16238 0.0
C1036 C 0.23166 0.32691 0.92648 0.0
C1037 C 0.20155 0.35911 0.91913 0.0
H1038 H 0.24642 0.27847 0.94976 0.0
C1039 C 0.16567 0.37155 0.93191 0.0
H1040 H 0.26012 0.31692 0.91727 0.0
C1041 C 0.15735 0.34881 0.95048 0.0
C1042 C 0.18496 0.31337 0.95675 0.0
H1043 H 0.14238 0.39694 0.92696 0.0
H1044 H 0.12772 0.35721 0.95917 0.0
C1045 C 0.2235 0.30441 0.94506 0.0
C1046 C 0.48071 0.41488 0.64585 0.0
C1047 C 0.44755 0.38708 0.63816 0.0
H1048 H 0.53188 0.42402 0.66775 0.0
C1049 C 0.44501 0.343 0.64544 0.0
H1050 H 0.48286 0.44924 0.64074 0.0
C1051 C 0.47311 0.32827 0.66136 0.0
C1052 C 0.50426 0.3574 0.67016 0.0
H1053 H 0.41917 0.3211 0.64003 0.0
H1054 H 0.46922 0.29474 0.66726 0.0
C1055 C 0.50873 0.40029 0.66155 0.0
C1056 C 0.39366 0.21224 0.32073 0.0
C1057 C 0.37949 0.24444 0.30633 0.0
H1058 H 0.37567 0.16049 0.34184 0.0
C1059 C 0.33377 0.24765 0.30209 0.0
H1060 H 0.42849 0.20831 0.32428 0.0
C1061 C 0.30317 0.21963 0.31211 0.0
C1062 C 0.31748 0.1875 0.32656 0.0
H1063 H 0.32143 0.27225 0.29127 0.0
H1064 H 0.26838 0.22293 0.30835 0.0
C1065 C 0.3632 0.18431 0.33068 0.0
C1066 C 0.03187 0.94939 0.54305 0.0
C1067 C 0.06899 0.94851 0.55604 0.0
H1068 H 0.98988 0.9883 0.52344 0.0
C1069 C 0.09148 0.98862 0.55981 0.0
H1070 H 0.01381 0.91912 0.53993 0.0
C1071 C 0.07787 0.02841 0.5503 0.0
C1072 C 0.04111 0.02913 0.53706 0.0
H1073 H 0.12052 0.98899 0.56955 0.0
H1074 H 0.09634 0.05857 0.55313 0.0
C1075 C 0.01793 0.98921 0.53378 0.0
C1076 C 0.27578 0.72785 0.78033 0.0
C1077 C 0.23529 0.75144 0.78048 0.0
H1078 H 0.34436 0.72702 0.78887 0.0
C1079 C 0.23346 0.79307 0.79029 0.0
H1080 H 0.27858 0.69592 0.77273 0.0
C1081 C 0.27127 0.81101 0.7994 0.0
C1082 C 0.312 0.78787 0.7989 0.0
H1083 H 0.20279 0.81193 0.79085 0.0
H1084 H 0.26871 0.8436 0.80638 0.0
C1085 C 0.3137 0.7459 0.78938 0.0
C1086 C 0.51123 1.00725 0.05286 0.0
C1087 C 0.53606 0.0466 0.05053 0.0
H1088 H 0.50615 0.9376 1.04626 0.0
C1089 C 0.57557 0.0451 1.03894 0.0
H1090 H 0.48107 1.00688 0.06201 0.0
C1091 C 0.58995 1.00518 1.02993 0.0
C1092 C 0.56541 0.96574 1.03255 0.0
H1093 H 0.59539 0.07479 1.03694 0.0
H1094 H 0.6209 1.00497 1.02137 0.0
C1095 C 0.52584 0.96731 1.04406 0.0
C1096 C 0.31064 0.74749 0.28879 0.0
C1097 C 0.3019 0.76095 0.30922 0.0
H1098 H 0.30015 0.75977 0.25658 0.0
C1099 C 0.27706 0.80017 0.3124 0.0
H1100 H 0.32924 0.71732 0.28569 0.0
C1101 C 0.26041 0.82454 0.29568 0.0
C1102 C 0.26819 0.81048 0.27529 0.0
H1103 H 0.27043 0.81224 0.32783 0.0
H1104 H 0.24111 0.85434 0.2987 0.0
C1105 C 0.29405 0.77198 0.27204 0.0
C1106 C 0.55962 1.00948 0.52652 0.0
C1107 C 0.52098 1.01184 0.51452 0.0
H1108 H 0.60618 0.04464 0.54511 0.0
C1109 C 0.49881 0.05295 0.51258 0.0
H1110 H 0.57715 0.97817 0.52842 0.0
C1111 C 0.51566 0.09117 0.52201 0.0
C1112 C 0.55444 0.08878 0.53392 0.0
H1113 H 0.46911 0.05573 0.50333 0.0
H1114 H 0.49844 0.12263 0.52002 0.0
C1115 C 0.57596 0.04742 0.53624 0.0
C1116 C 0.27469 0.24322 0.81207 0.0
C1117 C 0.26902 0.28496 0.82138 0.0
H1118 H 0.31282 0.20272 0.79178 0.0
C1119 C 0.30088 0.31815 0.81766 0.0
H1120 H 0.25042 0.2172 0.81438 0.0
C1121 C 0.3375 0.30974 0.80479 0.0
C1122 C 0.34291 0.26804 0.79524 0.0
H1123 H 0.29777 0.35048 0.82486 0.0
H1124 H 0.36151 0.33591 0.8023 0.0
C1125 C 0.31094 0.2349 0.79914 0.0
C1126 C 0.02267 0.03797 1.04647 0.0
C1127 C 0.06244 0.0407 1.03519 0.0
H1128 H 0.97631 0.99607 0.06216 0.0
C1129 C 0.08585 1.00118 1.03065 0.0
H1130 H 1.00398 0.06784 0.05013 0.0
C1131 C 0.07023 0.95987 1.0377 0.0
C1132 C 0.03046 0.95721 0.04904 0.0
H1133 H 0.11691 1.00236 1.02218 0.0
H1134 H 0.08923 0.93001 1.03438 0.0
C1135 C 1.00668 0.99674 0.05317 0.0
C1136 C 0.7665 0.77592 0.79238 0.0
C1137 C 0.80557 0.75136 0.79631 0.0
H1138 H 0.69568 0.7794 0.79529 0.0
C1139 C 0.80221 0.71127 0.80746 0.0
H1140 H 0.76751 0.80661 0.7836 0.0
C1141 C 0.76079 0.69566 0.81415 0.0
C1142 C 0.72168 0.71958 0.80964 0.0
H1143 H 0.83162 0.69165 0.81074 0.0
H1144 H 0.75931 0.66406 0.82222 0.0
C1145 C 0.72513 0.76011 0.79888 0.0
C1146 C 0.75173 0.28634 0.27439 0.0
C1147 C 0.72376 0.24995 0.27854 0.0
H1148 H 0.79279 0.33765 0.28673 0.0
C1149 C 0.71639 0.23764 0.29929 0.0
H1150 H 0.75779 0.2974 0.25871 0.0
C1151 C 0.7363 0.26106 0.31538 0.0
C1152 C 0.76439 0.29723 0.31121 0.0
H1153 H 0.69579 0.20945 0.30321 0.0
H1154 H 0.73035 0.25016 0.33111 0.0
C1155 C 0.77185 0.30959 0.2905 0.0
C1156 C 0.79273 0.20863 0.78652 0.0
C1157 C 0.82821 0.23859 0.7888 0.0
H1158 H 0.72926 0.1961 0.77316 0.0
C1159 C 0.82632 0.27956 0.77823 0.0
H1160 H 0.79214 0.17715 0.79467 0.0
C1161 C 0.78966 0.29056 0.76603 0.0
C1162 C 0.75413 0.26075 0.764 0.0
H1163 H 0.85313 0.30321 0.77939 0.0
H1164 H 0.78935 0.3223 0.75805 0.0
C1165 C 0.75631 0.21952 0.77422 0.0
C1166 C 0.73759 0.81414 0.299 0.0
C1167 C 0.70825 0.78164 0.30665 0.0
H1168 H 0.79675 0.82805 0.28181 0.0
C1169 C 0.71806 0.73656 0.30275 0.0
H1170 H 0.73088 0.84917 0.30139 0.0
C1171 C 0.75607 0.72432 0.29151 0.0
C1172 C 0.78538 0.75683 0.2838 0.0
H1173 H 0.69671 0.71051 0.30864 0.0
H1174 H 0.76271 0.68928 0.28914 0.0
C1175 C 0.77555 0.80192 0.28773 0.0
C1176 C 0.51517 0.54362 0.06283 0.0
C1177 C 0.48716 0.50635 0.06405 0.0
H1178 H 0.52492 0.6097 0.051 0.0
C1179 C 0.44677 0.50775 0.05326 0.0
H1180 H 0.54637 0.54389 0.07101 0.0
C1181 C 0.43435 0.54551 1.04188 0.0
C1182 C 0.46187 0.58318 1.04096 0.0
H1183 H 0.42458 0.47955 0.05356 0.0
H1184 H 0.40259 0.54541 1.03419 0.0
C1185 C 0.50262 0.58159 0.0515 0.0
C1186 C 0.96209 0.4541 0.55856 0.0
C1187 C 0.95556 0.40778 0.55942 0.0
H1188 H 0.94635 0.51786 0.57131 0.0
C1189 C 0.92696 0.3905 0.5747 0.0
H1190 H 0.98331 0.46871 0.54684 0.0
C1191 C 0.9055 0.41891 0.58878 0.0
C1192 C 0.91164 0.46528 0.58767 0.0
H1193 H 0.92134 0.35499 0.57581 0.0
H1194 H 0.88352 0.40471 0.60031 0.0
C1195 C 0.94033 0.48243 0.57243 0.0
C1196 C 0.97924 0.55176 1.03835 0.0
C1197 C 0.98105 0.53394 0.05852 0.0
H1198 H 0.95123 0.54733 1.00804 0.0
C1199 C 0.9532 0.49783 0.06341 0.0
H1200 H 1.00022 0.57921 1.03381 0.0
C1201 C 0.92536 0.4794 0.04855 0.0
C1202 C 0.92414 0.49672 1.02837 0.0
H1203 H 0.95253 0.48357 0.07877 0.0
H1204 H 0.90458 0.4516 0.05291 0.0
C1205 C 0.951 0.53348 1.02351 0.0
C1206 C 0.43768 0.64784 0.58893 0.0
C1207 C 0.45102 0.64122 0.56829 0.0
H1208 H 0.40124 0.62285 0.615 0.0
C1209 C 0.43517 0.60346 0.55791 0.0
H1210 H 0.44945 0.67616 0.59753 0.0
C1211 C 0.40763 0.57278 0.56798 0.0
C1212 C 0.39491 0.579 0.5887 0.0
H1213 H 0.44374 0.59755 0.54191 0.0
H1214 H 0.39604 0.54429 0.55943 0.0
C1215 C 0.40994 0.61718 0.59898 0.0
C1216 C 0.12375 0.97637 0.31426 0.0
C1217 C 0.12401 0.02325 0.31364 0.0
H1218 H 0.11729 0.91571 0.29731 0.0
C1219 C 0.1124 0.04495 0.29519 0.0
H1220 H 0.13201 0.95858 0.32832 0.0
C1221 C 0.10399 0.02024 0.27735 0.0
C1222 C 0.10665 0.97337 0.27766 0.0
H1223 H 0.11206 0.08097 0.29423 0.0
H1224 H 0.09737 0.038 0.26309 0.0
C1225 C 0.11499 0.95169 0.2965 0.0
C1226 C 0.2898 0.86068 0.5631 0.0
C1227 C 0.26735 0.89815 0.57118 0.0
H1228 H 0.33454 0.83541 0.53989 0.0
C1229 C 0.27626 0.94014 0.5625 0.0
H1230 H 0.28364 0.82776 0.56935 0.0
C1231 C 0.30515 0.94443 0.54566 0.0
C1232 C 0.32603 0.90686 0.53691 0.0
H1233 H 0.25977 0.96974 0.5683 0.0
H1234 H 0.31018 0.97733 0.53916 0.0
C1235 C 0.31883 0.865 0.54614 0.0
C1236 C 0.41084 0.0569 0.78167 0.0
C1237 C 0.37189 0.07128 0.77172 0.0
H1238 H 0.44006 0.01317 0.80408 0.0
C1239 C 0.33141 0.0513 0.77731 0.0
H1240 H 0.44255 0.07181 0.77792 0.0
C1241 C 0.33001 0.01747 0.79229 0.0
C1242 C 0.36895 1.00322 0.80229 0.0
H1243 H 0.30074 0.06169 0.77005 0.0
H1244 H 0.29834 1.00248 0.79604 0.0
C1245 C 0.40935 0.02352 0.79684 0.0
C1246 C 0.30632 0.06071 0.05326 0.0
C1247 C 0.32779 0.09978 0.05956 0.0
H1248 H 0.2583 0.03148 1.03322 0.0
C1249 C 0.31793 0.13995 0.04926 0.0
H1250 H 0.31336 0.02915 0.06074 0.0
C1251 C 0.28697 0.14116 1.03325 0.0
C1252 C 0.26469 0.10232 1.02725 0.0
H1253 H 0.33418 0.17061 0.05353 0.0
H1254 H 0.27969 0.17287 1.02594 0.0
C1255 C 0.27497 0.06201 1.03737 0.0
C1256 C 0.90267 0.01616 0.8064 0.0
C1257 C 0.86298 0.03608 0.81338 0.0
H1258 H 0.93327 0.9671 0.78703 0.0
C1259 C 0.82252 0.02029 0.80559 0.0
H1260 H 0.93448 0.02754 0.81193 0.0
C1261 C 0.82183 0.98552 0.7912 0.0
C1262 C 0.86157 0.9658 0.78415 0.0
H1263 H 0.79131 0.03496 0.81052 0.0
H1264 H 0.79007 0.97409 0.78561 0.0
C1265 C 0.90198 0.98159 0.79197 0.0
C1266 C 0.78857 0.15322 0.54556 0.0
C1267 C 0.76086 0.11773 0.55143 0.0
H1268 H 0.84349 0.17494 0.52702 0.0
C1269 C 0.76906 0.07542 0.54291 0.0
H1270 H 0.7831 0.18632 0.55168 0.0
C1271 C 0.80381 0.06886 0.52874 0.0
C1272 C 0.83094 0.10455 0.52257 0.0
H1273 H 0.74831 0.04736 0.54702 0.0
H1274 H 0.8091 0.03587 0.52247 0.0
C1275 C 0.82302 0.14676 0.53125 0.0
C1276 C 0.59148 0.04177 0.29783 0.0
C1277 C 0.63126 0.05856 0.28958 0.0
H1278 H 0.56123 0.99604 0.31914 0.0
C1279 C 0.67174 0.044 0.29805 0.0
H1280 H 0.55979 0.05236 0.29165 0.0
C1281 C 0.67263 1.01214 0.31382 0.0
C1282 C 0.63307 0.99367 0.32144 0.0
H1283 H 0.70303 0.05658 0.2922 0.0
H1284 H 0.70453 1.00097 0.31955 0.0
C1285 C 0.59238 1.00945 0.31355 0.0
C1286 C 0.77367 0.951 1.02719 0.0
C1287 C 0.76296 0.91039 1.01769 0.0
H1288 H 0.81074 0.98374 0.05088 0.0
C1289 C 0.78285 0.87103 1.02504 0.0
H1290 H 0.75872 0.98193 1.02199 0.0
C1291 C 0.8118 0.87199 1.04175 0.0
C1292 C 0.82213 0.91241 0.05148 0.0
H1293 H 0.77523 0.8391 1.01824 0.0
H1294 H 0.82615 0.84081 0.047 0.0
C1295 C 0.80318 0.95203 1.04385 0.0
C1296 C 0.69693 0.48265 0.77702 0.0
C1297 C 0.65926 0.45987 0.77004 0.0
H1298 H 0.72417 0.52779 0.79893 0.0
C1299 C 0.61919 0.4649 0.78111 0.0
H1300 H 0.72846 0.4794 0.76903 0.0
C1301 C 0.61675 0.49275 0.79848 0.0
C1302 C 0.65435 0.51615 0.80518 0.0
H1303 H 0.58958 0.44765 0.77628 0.0
H1304 H 0.58519 0.4966 0.80638 0.0
C1305 C 0.69452 0.51032 0.79432 0.0
C1306 C 0.76648 0.33369 0.04854 0.0
C1307 C 0.75035 0.34898 1.02944 0.0
H1308 H 0.75248 0.32294 0.08077 0.0
C1309 C 0.70563 0.36231 1.02814 0.0
H1310 H 0.80082 0.3234 0.05008 0.0
C1311 C 0.67815 0.36219 1.04557 0.0
C1312 C 0.69451 0.34882 0.0649 0.0
H1313 H 0.69191 0.37399 1.01366 0.0
H1314 H 0.6442 0.37365 1.04391 0.0
C1315 C 0.73881 0.33367 0.06613 0.0
C1316 C 0.83238 0.49253 0.29332 0.0
C1317 C 0.87241 0.48044 0.30294 0.0
H1318 H 0.79974 0.5331 0.27087 0.0
C1319 C 0.91206 0.49975 0.29577 0.0
H1320 H 0.80124 0.47799 0.29829 0.0
C1321 C 0.91114 0.53217 0.27997 0.0
C1322 C 0.87063 0.54529 0.2709 0.0
H1323 H 0.94339 0.49118 0.30291 0.0
H1324 H 0.94195 0.54763 0.2752 0.0
C1325 C 0.83152 0.52421 0.27749 0.0
C1326 C 0.67827 0.59153 0.55757 0.0
C1327 C 0.67484 0.63188 0.54665 0.0
H1328 H 0.71357 0.55304 0.57991 0.0
C1329 C 0.70827 0.66403 0.54926 0.0
H1330 H 0.65344 0.56588 0.5559 0.0
C1331 C 0.74321 0.65661 0.56319 0.0
C1332 C 0.74523 0.61698 0.5748 0.0
H1333 H 0.7067 0.69551 0.54106 0.0
H1334 H 0.76765 0.68244 0.56537 0.0
C1335 C 0.71286 0.58423 0.57144 0.0
C1336 C 0.35046 0.51284 0.31472 0.0
C1337 C 0.38525 0.54382 0.31568 0.0
H1338 H 0.32622 0.45237 0.30163 0.0
C1339 C 0.42224 0.53793 0.30262 0.0
H1340 H 0.32135 0.51636 0.32449 0.0
C1341 C 0.42475 0.50135 0.28926 0.0
C1342 C 0.39054 0.46959 0.28882 0.0
H1343 H 0.44947 0.56131 0.30286 0.0
H1344 H 0.45415 0.49727 0.27973 0.0
C1345 C 0.35317 0.4761 0.30156 0.0
C1346 C 0.24363 0.59596 1.02904 0.0
C1347 C 0.25667 0.63778 1.02135 0.0
H1348 H 0.20211 0.55962 0.04992 0.0
C1349 C 0.23493 0.67607 1.02896 0.0
H1350 H 0.25954 0.56572 1.02362 0.0
C1351 C 0.2017 0.67256 1.0442 0.0
C1352 C 0.1896 0.6307 0.05223 0.0
H1353 H 0.24418 0.70886 1.02344 0.0
H1354 H 0.18606 0.70267 0.04993 0.0
C1355 C 0.21068 0.59248 1.04425 0.0
C1356 C 0.20459 0.49696 0.8124 0.0
C1357 C 0.16527 0.47853 0.82044 0.0
H1358 H 0.23484 0.53896 0.78967 0.0
C1359 C 0.12481 0.48986 0.81092 0.0
H1360 H 0.23643 0.48891 0.81918 0.0
C1361 C 0.12385 0.5192 0.79389 0.0
C1362 C 0.1634 0.53727 0.78582 0.0
H1363 H 0.09389 0.47624 0.81668 0.0
H1364 H 0.0922 0.5275 0.78699 0.0
C1365 C 0.20371 0.52561 0.79531 0.0
C1366 C 0.19669 0.38068 0.53602 0.0
C1367 C 0.16898 0.41713 0.53095 0.0
H1368 H 0.24901 0.35563 0.5555 0.0
C1369 C 0.17587 0.45783 0.54099 0.0
H1370 H 0.19238 0.34882 0.52854 0.0
C1371 C 0.20776 0.46148 0.55642 0.0
C1372 C 0.23414 0.42472 0.56218 0.0
H1373 H 0.15549 0.48669 0.53749 0.0
H1374 H 0.21102 0.49313 0.56422 0.0
C1375 C 0.22921 0.38453 0.55142 0.0
loop_
_geom_bond_atom_site_label_1
_geom_bond_atom_site_label_2
_geom_bond_distance
_geom_bond_site_symmetry_2
_ccdc_geom_bond_type
Cu0 N1 1.999 . S
Cu0 O6 1.974 . S
Cu0 N11 1.985 . S
Cu0 O20 1.959 . S
N1 Cu0 1.999 . S
N1 C3 1.263 . S
N1 C5 1.389 . S
N2 C3 1.358 . S
N2 C4 1.400 . S
C3 N1 1.263 . S
C3 N2 1.358 . S
C3 H9 0.930 . S
C4 N2 1.400 . S
C4 C5 1.351 . S
C4 H21 0.930 . S
C5 N1 1.389 . S
C5 C4 1.351 . S
C5 H10 0.930 . S
O6 Cu0 1.974 . S
O6 C16 1.282 . S
C7 O8 1.261 . S
C7 O20 1.251 . S
O8 C7 1.261 . S
H9 C3 0.930 . S
H10 C5 0.930 . S
N11 Cu0 1.985 . S
N11 C13 1.335 . S
N11 C14 1.390 . S
N12 C13 1.345 . S
N12 C15 1.336 . S
C13 N11 1.335 . S
C13 N12 1.345 . S
C13 H18 0.930 . S
C14 N11 1.390 . S
C14 C15 1.346 . S
C14 H19 0.930 . S
C15 N12 1.336 . S
C15 C14 1.346 . S
C15 H22 0.929 . S
C16 O6 1.282 . S
C16 O17 1.216 . S
O17 C16 1.216 . S
H18 C13 0.930 . S
H19 C14 0.930 . S
O20 Cu0 1.959 . S
O20 C7 1.251 . S
H21 C4 0.930 . S
H22 C15 0.929 . S
Cu23 N24 1.999 . S
Cu23 O29 1.974 . S
Cu23 N34 1.985 . S
Cu23 O43 1.959 . S
N24 Cu23 1.999 . S
N24 C26 1.263 . S
N24 C28 1.389 . S
N25 C26 1.358 . S
N25 C27 1.400 . S
C26 N24 1.263 . S
C26 N25 1.358 . S
C26 H32 0.930 . S
C27 N25 1.400 . S
C27 C28 1.351 . S
C27 H44 0.930 1_455 S
C28 N24 1.389 . S
C28 C27 1.351 . S
C28 H33 0.930 . S
O29 Cu23 1.974 . S
O29 C39 1.282 . S
C30 O31 1.261 . S
C30 O43 1.251 . S
O31 C30 1.261 . S
H32 C26 0.930 . S
H33 C28 0.930 . S
N34 Cu23 1.985 . S
N34 C36 1.335 . S
N34 C37 1.390 . S
N35 C36 1.345 . S
N35 C38 1.336 . S
C36 N34 1.335 . S
C36 N35 1.345 . S
C36 H41 0.930 . S
C37 N34 1.390 . S
C37 C38 1.346 . S
C37 H42 0.930 . S
C38 N35 1.336 . S
C38 C37 1.346 . S
C38 H45 0.929 . S
C39 O29 1.282 . S
C39 O40 1.216 . S
O40 C39 1.216 . S
H41 C36 0.930 . S
H42 C37 0.930 . S
O43 Cu23 1.959 . S
O43 C30 1.251 . S
H44 C27 0.930 1_655 S
H45 C38 0.929 . S
Cu46 N47 1.999 . S
Cu46 O52 1.974 . S
Cu46 N57 1.985 . S
Cu46 O66 1.959 . S
N47 Cu46 1.999 . S
N47 C49 1.263 . S
N47 C51 1.389 . S
N48 C49 1.358 . S
N48 C50 1.400 . S
C49 N47 1.263 . S
C49 N48 1.358 . S
C49 H55 0.930 . S
C50 N48 1.400 . S
C50 C51 1.351 . S
C50 H67 0.930 . S
C51 N47 1.389 . S
C51 C50 1.351 . S
C51 H56 0.930 . S
O52 Cu46 1.974 . S
O52 C62 1.282 . S
C53 O54 1.261 . S
C53 O66 1.251 . S
O54 C53 1.261 . S
H55 C49 0.930 . S
H56 C51 0.930 . S
N57 Cu46 1.985 . S
N57 C59 1.335 . S
N57 C60 1.390 . S
N58 C59 1.345 . S
N58 C61 1.336 . S
C59 N57 1.335 . S
C59 N58 1.345 . S
C59 H64 0.930 . S
C60 N57 1.390 . S
C60 C61 1.346 . S
C60 H65 0.930 . S
C61 N58 1.336 . S
C61 C60 1.346 . S
C61 H68 0.929 . S
C62 O52 1.282 . S
C62 O63 1.216 . S
O63 C62 1.216 . S
H64 C59 0.930 . S
H65 C60 0.930 . S
O66 Cu46 1.959 . S
O66 C53 1.251 . S
H67 C50 0.930 . S
H68 C61 0.929 . S
Cu69 N70 1.999 . S
Cu69 O75 1.974 . S
Cu69 N80 1.985 . S
Cu69 O89 1.959 . S
N70 Cu69 1.999 . S
N70 C72 1.263 . S
N70 C74 1.389 . S
N71 C72 1.358 . S
N71 C73 1.400 . S
C72 N70 1.263 . S
C72 N71 1.358 . S
C72 H78 0.930 . S
C73 N71 1.400 . S
C73 C74 1.351 . S
C73 H90 0.930 . S
C74 N70 1.389 . S
C74 C73 1.351 . S
C74 H79 0.930 . S
O75 Cu69 1.974 . S
O75 C85 1.282 . S
C76 O77 1.261 . S
C76 O89 1.251 . S
O77 C76 1.261 . S
H78 C72 0.930 . S
H79 C74 0.930 . S
N80 Cu69 1.985 . S
N80 C82 1.335 . S
N80 C83 1.390 . S
N81 C82 1.345 . S
N81 C84 1.336 . S
C82 N80 1.335 . S
C82 N81 1.345 . S
C82 H87 0.930 . S
C83 N80 1.390 . S
C83 C84 1.346 . S
C83 H88 0.930 . S
C84 N81 1.336 . S
C84 C83 1.346 . S
C84 H91 0.929 . S
C85 O75 1.282 . S
C85 O86 1.216 . S
O86 C85 1.216 . S
H87 C82 0.930 . S
H88 C83 0.930 . S
O89 Cu69 1.959 . S
O89 C76 1.251 . S
H90 C73 0.930 . S
H91 C84 0.929 . S
Cu92 N93 1.999 . S
Cu92 O98 1.974 . S
Cu92 N103 1.985 . S
Cu92 O112 1.959 . S
N93 Cu92 1.999 . S
N93 C95 1.263 . S
N93 C97 1.389 . S
N94 C95 1.358 . S
N94 C96 1.400 . S
C95 N93 1.263 . S
C95 N94 1.358 . S
C95 H101 0.930 . S
C96 N94 1.400 . S
C96 C97 1.351 . S
C96 H113 0.930 . S
C97 N93 1.389 . S
C97 C96 1.351 . S
C97 H102 0.930 . S
O98 Cu92 1.974 . S
O98 C108 1.282 . S
C99 O100 1.261 . S
C99 O112 1.251 . S
O100 C99 1.261 . S
H101 C95 0.930 . S
H102 C97 0.930 . S
N103 Cu92 1.985 . S
N103 C105 1.335 . S
N103 C106 1.390 . S
N104 C105 1.345 . S
N104 C107 1.336 . S
C105 N103 1.335 . S
C105 N104 1.345 . S
C105 H110 0.930 . S
C106 N103 1.390 . S
C106 C107 1.346 . S
C106 H111 0.930 . S
C107 N104 1.336 . S
C107 C106 1.346 . S
C107 H114 0.929 . S
C108 O98 1.282 . S
C108 O109 1.216 . S
O109 C108 1.216 . S
H110 C105 0.930 . S
H111 C106 0.930 . S
O112 Cu92 1.959 . S
O112 C99 1.251 . S
H113 C96 0.930 . S
H114 C107 0.929 . S
Cu115 N116 1.999 . S
Cu115 O121 1.974 . S
Cu115 N126 1.985 . S
Cu115 O135 1.959 . S
N116 Cu115 1.999 . S
N116 C118 1.263 . S
N116 C120 1.389 . S
N117 C118 1.358 . S
N117 C119 1.400 . S
C118 N116 1.263 . S
C118 N117 1.358 . S
C118 H124 0.930 . S
C119 N117 1.400 . S
C119 C120 1.351 . S
C119 H136 0.930 . S
C120 N116 1.389 . S
C120 C119 1.351 . S
C120 H125 0.930 . S
O121 Cu115 1.974 . S
O121 C131 1.282 . S
C122 O123 1.261 . S
C122 O135 1.251 . S
O123 C122 1.261 . S
H124 C118 0.930 . S
H125 C120 0.930 . S
N126 Cu115 1.985 . S
N126 C128 1.335 . S
N126 C129 1.390 . S
N127 C128 1.345 . S
N127 C130 1.336 . S
C128 N126 1.335 . S
C128 N127 1.345 . S
C128 H133 0.930 . S
C129 N126 1.390 . S
C129 C130 1.346 . S
C129 H134 0.930 . S
C130 N127 1.336 . S
C130 C129 1.346 . S
C130 H137 0.929 . S
C131 O121 1.282 . S
C131 O132 1.216 . S
O132 C131 1.216 . S
H133 C128 0.930 . S
H134 C129 0.930 . S
O135 Cu115 1.959 . S
O135 C122 1.251 . S
H136 C119 0.930 . S
H137 C130 0.929 . S
Cu138 N139 1.999 . S
Cu138 O144 1.974 . S
Cu138 N149 1.985 . S
Cu138 O158 1.959 . S
N139 Cu138 1.999 . S
N139 C141 1.263 . S
N139 C143 1.389 . S
N140 C141 1.358 . S
N140 C142 1.400 . S
C141 N139 1.263 . S
C141 N140 1.358 . S
C141 H147 0.930 . S
C142 N140 1.400 . S
C142 C143 1.351 . S
C142 H159 0.930 . S
C143 N139 1.389 . S
C143 C142 1.351 . S
C143 H148 0.930 . S
O144 Cu138 1.974 . S
O144 C154 1.282 . S
C145 O146 1.261 . S
C145 O158 1.251 . S
O146 C145 1.261 . S
H147 C141 0.930 . S
H148 C143 0.930 . S
N149 Cu138 1.985 . S
N149 C151 1.335 . S
N149 C152 1.390 . S
N150 C151 1.345 . S
N150 C153 1.336 . S
C151 N149 1.335 . S
C151 N150 1.345 . S
C151 H156 0.930 . S
C152 N149 1.390 . S
C152 C153 1.346 . S
C152 H157 0.930 . S
C153 N150 1.336 . S
C153 C152 1.346 . S
C153 H160 0.929 . S
C154 O144 1.282 . S
C154 O155 1.216 . S
O155 C154 1.216 . S
H156 C151 0.930 . S
H157 C152 0.930 . S
O158 Cu138 1.959 . S
O158 C145 1.251 . S
H159 C142 0.930 . S
H160 C153 0.929 . S
Cu161 N162 1.999 . S
Cu161 O167 1.974 . S
Cu161 N172 1.985 . S
Cu161 O181 1.959 . S
N162 Cu161 1.999 . S
N162 C164 1.263 . S
N162 C166 1.389 . S
N163 C164 1.358 . S
N163 C165 1.400 . S
C164 N162 1.263 . S
C164 N163 1.358 . S
C164 H170 0.930 . S
C165 N163 1.400 . S
C165 C166 1.351 . S
C165 H182 0.930 1_455 S
C166 N162 1.389 . S
C166 C165 1.351 . S
C166 H171 0.930 . S
O167 Cu161 1.974 . S
O167 C177 1.282 . S
C168 O169 1.261 . S
C168 O181 1.251 . S
O169 C168 1.261 . S
H170 C164 0.930 . S
H171 C166 0.930 . S
N172 Cu161 1.985 . S
N172 C174 1.335 . S
N172 C175 1.390 . S
N173 C174 1.345 . S
N173 C176 1.336 . S
C174 N172 1.335 . S
C174 N173 1.345 . S
C174 H179 0.930 . S
C175 N172 1.390 . S
C175 C176 1.346 . S
C175 H180 0.930 . S
C176 N173 1.336 . S
C176 C175 1.346 . S
C176 H183 0.929 . S
C177 O167 1.282 . S
C177 O178 1.216 . S
O178 C177 1.216 . S
H179 C174 0.930 . S
H180 C175 0.930 . S
O181 Cu161 1.959 . S
O181 C168 1.251 . S
H182 C165 0.930 1_655 S
H183 C176 0.929 . S
Cu184 N185 1.999 . S
Cu184 O190 1.974 . S
Cu184 N195 1.985 . S
Cu184 O204 1.959 . S
N185 Cu184 1.999 . S
N185 C187 1.263 . S
N185 C189 1.389 . S
N186 C187 1.358 . S
N186 C188 1.400 . S
C187 N185 1.263 . S
C187 N186 1.358 . S
C187 H193 0.930 . S
C188 N186 1.400 . S
C188 C189 1.351 . S
C188 H205 0.930 . S
C189 N185 1.389 . S
C189 C188 1.351 . S
C189 H194 0.930 . S
O190 Cu184 1.974 . S
O190 C200 1.282 . S
C191 O192 1.261 . S
C191 O204 1.251 . S
O192 C191 1.261 . S
H193 C187 0.930 . S
H194 C189 0.930 . S
N195 Cu184 1.985 . S
N195 C197 1.335 . S
N195 C198 1.390 . S
N196 C197 1.345 . S
N196 C199 1.336 . S
C197 N195 1.335 . S
C197 N196 1.345 . S
C197 H202 0.930 . S
C198 N195 1.390 . S
C198 C199 1.346 . S
C198 H203 0.930 . S
C199 N196 1.336 . S
C199 C198 1.346 . S
C199 H206 0.929 . S
C200 O190 1.282 . S
C200 O201 1.216 . S
O201 C200 1.216 . S
H202 C197 0.930 . S
H203 C198 0.930 . S
O204 Cu184 1.959 . S
O204 C191 1.251 . S
H205 C188 0.930 . S
H206 C199 0.929 . S
Cu207 N208 1.999 . S
Cu207 O213 1.974 . S
Cu207 N218 1.985 . S
Cu207 O227 1.959 . S
N208 Cu207 1.999 . S
N208 C210 1.263 . S
N208 C212 1.389 . S
N209 C210 1.358 . S
N209 C211 1.400 . S
C210 N208 1.263 . S
C210 N209 1.358 . S
C210 H216 0.930 . S
C211 N209 1.400 . S
C211 C212 1.351 . S
C211 H228 0.930 1_655 S
C212 N208 1.389 . S
C212 C211 1.351 . S
C212 H217 0.930 . S
O213 Cu207 1.974 . S
O213 C223 1.282 . S
C214 O215 1.261 . S
C214 O227 1.251 . S
O215 C214 1.261 . S
H216 C210 0.930 . S
H217 C212 0.930 . S
N218 Cu207 1.985 . S
N218 C220 1.335 . S
N218 C221 1.390 . S
N219 C220 1.345 . S
N219 C222 1.336 . S
C220 N218 1.335 . S
C220 N219 1.345 . S
C220 H225 0.930 . S
C221 N218 1.390 . S
C221 C222 1.346 . S
C221 H226 0.930 . S
C222 N219 1.336 . S
C222 C221 1.346 . S
C222 H229 0.929 . S
C223 O213 1.282 . S
C223 O224 1.216 . S
O224 C223 1.216 . S
H225 C220 0.930 . S
H226 C221 0.930 . S
O227 Cu207 1.959 . S
O227 C214 1.251 . S
H228 C211 0.930 1_455 S
H229 C222 0.929 . S
Cu230 N231 1.999 . S
Cu230 O236 1.974 . S
Cu230 N241 1.985 . S
Cu230 O250 1.959 . S
N231 Cu230 1.999 . S
N231 C233 1.263 . S
N231 C235 1.389 . S
N232 C233 1.358 . S
N232 C234 1.400 . S
C233 N231 1.263 . S
C233 N232 1.358 . S
C233 H239 0.930 . S
C234 N232 1.400 . S
C234 C235 1.351 . S
C234 H251 0.930 . S
C235 N231 1.389 . S
C235 C234 1.351 . S
C235 H240 0.930 . S
O236 Cu230 1.974 . S
O236 C246 1.282 . S
C237 O238 1.261 . S
C237 O250 1.251 . S
O238 C237 1.261 . S
H239 C233 0.930 . S
H240 C235 0.930 . S
N241 Cu230 1.985 . S
N241 C243 1.335 . S
N241 C244 1.390 . S
N242 C243 1.345 . S
N242 C245 1.336 . S
C243 N241 1.335 . S
C243 N242 1.345 . S
C243 H248 0.930 . S
C244 N241 1.390 . S
C244 C245 1.346 . S
C244 H249 0.930 . S
C245 N242 1.336 . S
C245 C244 1.346 . S
C245 H252 0.929 . S
C246 O236 1.282 . S
C246 O247 1.216 . S
O247 C246 1.216 . S
H248 C243 0.930 . S
H249 C244 0.930 . S
O250 Cu230 1.959 . S
O250 C237 1.251 . S
H251 C234 0.930 . S
H252 C245 0.929 . S
Cu253 N254 1.999 . S
Cu253 O259 1.974 . S
Cu253 N264 1.985 . S
Cu253 O273 1.959 . S
N254 Cu253 1.999 . S
N254 C256 1.263 . S
N254 C258 1.389 . S
N255 C256 1.358 . S
N255 C257 1.400 . S
C256 N254 1.263 . S
C256 N255 1.358 . S
C256 H262 0.930 . S
C257 N255 1.400 . S
C257 C258 1.351 . S
C257 H274 0.930 . S
C258 N254 1.389 . S
C258 C257 1.351 . S
C258 H263 0.930 . S
O259 Cu253 1.974 . S
O259 C269 1.282 . S
C260 O261 1.261 . S
C260 O273 1.251 . S
O261 C260 1.261 . S
H262 C256 0.930 . S
H263 C258 0.930 . S
N264 Cu253 1.985 . S
N264 C266 1.335 . S
N264 C267 1.390 . S
N265 C266 1.345 . S
N265 C268 1.336 . S
C266 N264 1.335 . S
C266 N265 1.345 . S
C266 H271 0.930 . S
C267 N264 1.390 . S
C267 C268 1.346 . S
C267 H272 0.930 . S
C268 N265 1.336 . S
C268 C267 1.346 . S
C268 H275 0.929 . S
C269 O259 1.282 . S
C269 O270 1.216 . S
O270 C269 1.216 . S
H271 C266 0.930 . S
H272 C267 0.930 . S
O273 Cu253 1.959 . S
O273 C260 1.251 . S
H274 C257 0.930 . S
H275 C268 0.929 . S
Cu276 N277 1.999 . S
Cu276 O282 1.974 . S
Cu276 N287 1.985 . S
Cu276 O296 1.959 . S
N277 Cu276 1.999 . S
N277 C279 1.263 . S
N277 C281 1.389 . S
N278 C279 1.358 . S
N278 C280 1.400 . S
C279 N277 1.263 . S
C279 N278 1.358 . S
C279 H285 0.930 . S
C280 N278 1.400 . S
C280 C281 1.351 . S
C280 H297 0.930 . S
C281 N277 1.389 . S
C281 C280 1.351 . S
C281 H286 0.930 . S
O282 Cu276 1.974 . S
O282 C292 1.282 . S
C283 O284 1.261 . S
C283 O296 1.251 . S
O284 C283 1.261 . S
H285 C279 0.930 . S
H286 C281 0.930 . S
N287 Cu276 1.985 . S
N287 C289 1.335 . S
N287 C290 1.390 . S
N288 C289 1.345 . S
N288 C291 1.336 . S
C289 N287 1.335 . S
C289 N288 1.345 . S
C289 H294 0.930 . S
C290 N287 1.390 . S
C290 C291 1.346 . S
C290 H295 0.930 . S
C291 N288 1.336 . S
C291 C290 1.346 . S
C291 H298 0.929 . S
C292 O282 1.282 . S
C292 O293 1.216 . S
O293 C292 1.216 . S
H294 C289 0.930 . S
H295 C290 0.930 . S
O296 Cu276 1.959 . S
O296 C283 1.251 . S
H297 C280 0.930 . S
H298 C291 0.929 . S
Cu299 N300 1.999 . S
Cu299 O305 1.974 . S
Cu299 N310 1.985 . S
Cu299 O319 1.959 . S
N300 Cu299 1.999 . S
N300 C302 1.263 . S
N300 C304 1.389 . S
N301 C302 1.358 . S
N301 C303 1.400 . S
C302 N300 1.263 . S
C302 N301 1.358 . S
C302 H308 0.930 . S
C303 N301 1.400 . S
C303 C304 1.351 . S
C303 H320 0.930 . S
C304 N300 1.389 . S
C304 C303 1.351 . S
C304 H309 0.930 . S
O305 Cu299 1.974 . S
O305 C315 1.282 . S
C306 O307 1.261 . S
C306 O319 1.251 . S
O307 C306 1.261 . S
H308 C302 0.930 . S
H309 C304 0.930 . S
N310 Cu299 1.985 . S
N310 C312 1.335 . S
N310 C313 1.390 . S
N311 C312 1.345 . S
N311 C314 1.336 . S
C312 N310 1.335 . S
C312 N311 1.345 . S
C312 H317 0.930 . S
C313 N310 1.390 . S
C313 C314 1.346 . S
C313 H318 0.930 . S
C314 N311 1.336 . S
C314 C313 1.346 . S
C314 H321 0.929 . S
C315 O305 1.282 . S
C315 O316 1.216 . S
O316 C315 1.216 . S
H317 C312 0.930 . S
H318 C313 0.930 . S
O319 Cu299 1.959 . S
O319 C306 1.251 . S
H320 C303 0.930 . S
H321 C314 0.929 . S
Cu322 N323 1.999 . S
Cu322 O328 1.974 . S
Cu322 N333 1.985 . S
Cu322 O342 1.959 . S
N323 Cu322 1.999 . S
N323 C325 1.263 . S
N323 C327 1.389 . S
N324 C325 1.358 . S
N324 C326 1.400 . S
C325 N323 1.263 . S
C325 N324 1.358 . S
C325 H331 0.930 . S
C326 N324 1.400 . S
C326 C327 1.351 . S
C326 H343 0.930 . S
C327 N323 1.389 . S
C327 C326 1.351 . S
C327 H332 0.930 . S
O328 Cu322 1.974 . S
O328 C338 1.282 . S
C329 O330 1.261 . S
C329 O342 1.251 . S
O330 C329 1.261 . S
H331 C325 0.930 . S
H332 C327 0.930 . S
N333 Cu322 1.985 . S
N333 C335 1.335 . S
N333 C336 1.390 . S
N334 C335 1.345 . S
N334 C337 1.336 . S
C335 N333 1.335 . S
C335 N334 1.345 . S
C335 H340 0.930 . S
C336 N333 1.390 . S
C336 C337 1.346 . S
C336 H341 0.930 . S
C337 N334 1.336 . S
C337 C336 1.346 . S
C337 H344 0.929 . S
C338 O328 1.282 . S
C338 O339 1.216 . S
O339 C338 1.216 . S
H340 C335 0.930 . S
H341 C336 0.930 . S
O342 Cu322 1.959 . S
O342 C329 1.251 . S
H343 C326 0.930 . S
H344 C337 0.929 . S
Cu345 N346 1.999 . S
Cu345 O351 1.974 . S
Cu345 N356 1.985 . S
Cu345 O365 1.959 . S
N346 Cu345 1.999 . S
N346 C348 1.263 . S
N346 C350 1.389 . S
N347 C348 1.358 . S
N347 C349 1.400 . S
C348 N346 1.263 . S
C348 N347 1.358 . S
C348 H354 0.930 . S
C349 N347 1.400 . S
C349 C350 1.351 . S
C349 H366 0.930 1_655 S
C350 N346 1.389 . S
C350 C349 1.351 . S
C350 H355 0.930 . S
O351 Cu345 1.974 . S
O351 C361 1.282 . S
C352 O353 1.261 . S
C352 O365 1.251 . S
O353 C352 1.261 . S
H354 C348 0.930 . S
H355 C350 0.930 . S
N356 Cu345 1.985 . S
N356 C358 1.335 . S
N356 C359 1.390 . S
N357 C358 1.345 . S
N357 C360 1.336 . S
C358 N356 1.335 . S
C358 N357 1.345 . S
C358 H363 0.930 . S
C359 N356 1.390 . S
C359 C360 1.346 . S
C359 H364 0.930 . S
C360 N357 1.336 . S
C360 C359 1.346 . S
C360 H367 0.929 . S
C361 O351 1.282 . S
C361 O362 1.216 . S
O362 C361 1.216 . S
H363 C358 0.930 . S
H364 C359 0.930 . S
O365 Cu345 1.959 . S
O365 C352 1.251 . S
H366 C349 0.930 1_455 S
H367 C360 0.929 . S
Cu368 N369 1.999 . S
Cu368 O374 1.974 . S
Cu368 N379 1.985 . S
Cu368 O388 1.959 . S
N369 Cu368 1.999 . S
N369 C371 1.263 . S
N369 C373 1.389 . S
N370 C371 1.358 . S
N370 C372 1.400 . S
C371 N369 1.263 . S
C371 N370 1.358 . S
C371 H377 0.930 . S
C372 N370 1.400 . S
C372 C373 1.351 . S
C372 H389 0.930 . S
C373 N369 1.389 . S
C373 C372 1.351 . S
C373 H378 0.930 . S
O374 Cu368 1.974 . S
O374 C384 1.282 . S
C375 O376 1.261 . S
C375 O388 1.251 . S
O376 C375 1.261 . S
H377 C371 0.930 . S
H378 C373 0.930 . S
N379 Cu368 1.985 . S
N379 C381 1.335 . S
N379 C382 1.390 . S
N380 C381 1.345 . S
N380 C383 1.336 . S
C381 N379 1.335 . S
C381 N380 1.345 . S
C381 H386 0.930 . S
C382 N379 1.390 . S
C382 C383 1.346 . S
C382 H387 0.930 . S
C383 N380 1.336 . S
C383 C382 1.346 . S
C383 H390 0.929 . S
C384 O374 1.282 . S
C384 O385 1.216 . S
O385 C384 1.216 . S
H386 C381 0.930 . S
H387 C382 0.930 . S
O388 Cu368 1.959 . S
O388 C375 1.251 . S
H389 C372 0.930 . S
H390 C383 0.929 . S
Cu391 N392 1.999 . S
Cu391 O397 1.974 . S
Cu391 N402 1.985 . S
Cu391 O411 1.959 . S
N392 Cu391 1.999 . S
N392 C394 1.263 . S
N392 C396 1.389 . S
N393 C394 1.358 . S
N393 C395 1.400 . S
C394 N392 1.263 . S
C394 N393 1.358 . S
C394 H400 0.930 . S
C395 N393 1.400 . S
C395 C396 1.351 . S
C395 H412 0.930 . S
C396 N392 1.389 . S
C396 C395 1.351 . S
C396 H401 0.930 . S
O397 Cu391 1.974 . S
O397 C407 1.282 . S
C398 O399 1.261 . S
C398 O411 1.251 . S
O399 C398 1.261 . S
H400 C394 0.930 . S
H401 C396 0.930 . S
N402 Cu391 1.985 . S
N402 C404 1.335 . S
N402 C405 1.390 . S
N403 C404 1.345 . S
N403 C406 1.336 . S
C404 N402 1.335 . S
C404 N403 1.345 . S
C404 H409 0.930 . S
C405 N402 1.390 . S
C405 C406 1.346 . S
C405 H410 0.930 . S
C406 N403 1.336 . S
C406 C405 1.346 . S
C406 H413 0.929 . S
C407 O397 1.282 . S
C407 O408 1.216 . S
O408 C407 1.216 . S
H409 C404 0.930 . S
H410 C405 0.930 . S
O411 Cu391 1.959 . S
O411 C398 1.251 . S
H412 C395 0.930 . S
H413 C406 0.929 . S
Cu414 N415 1.999 . S
Cu414 O420 1.974 . S
Cu414 N425 1.985 . S
Cu414 O434 1.959 . S
N415 Cu414 1.999 . S
N415 C417 1.263 . S
N415 C419 1.389 . S
N416 C417 1.358 . S
N416 C418 1.400 . S
C417 N415 1.263 . S
C417 N416 1.358 . S
C417 H423 0.930 . S
C418 N416 1.400 . S
C418 C419 1.351 . S
C418 H435 0.930 . S
C419 N415 1.389 . S
C419 C418 1.351 . S
C419 H424 0.930 . S
O420 Cu414 1.974 . S
O420 C430 1.282 . S
C421 O422 1.261 . S
C421 O434 1.251 . S
O422 C421 1.261 . S
H423 C417 0.930 . S
H424 C419 0.930 . S
N425 Cu414 1.985 . S
N425 C427 1.335 . S
N425 C428 1.390 . S
N426 C427 1.345 . S
N426 C429 1.336 . S
C427 N425 1.335 . S
C427 N426 1.345 . S
C427 H432 0.930 . S
C428 N425 1.390 . S
C428 C429 1.346 . S
C428 H433 0.930 . S
C429 N426 1.336 . S
C429 C428 1.346 . S
C429 H436 0.929 . S
C430 O420 1.282 . S
C430 O431 1.216 . S
O431 C430 1.216 . S
H432 C427 0.930 . S
H433 C428 0.930 . S
O434 Cu414 1.959 . S
O434 C421 1.251 . S
H435 C418 0.930 . S
H436 C429 0.929 . S
Cu437 N438 1.999 . S
Cu437 O443 1.974 . S
Cu437 N448 1.985 . S
Cu437 O457 1.959 . S
N438 Cu437 1.999 . S
N438 C440 1.263 . S
N438 C442 1.389 . S
N439 C440 1.358 . S
N439 C441 1.400 . S
C440 N438 1.263 . S
C440 N439 1.358 . S
C440 H446 0.930 . S
C441 N439 1.400 . S
C441 C442 1.351 . S
C441 H458 0.930 1_655 S
C442 N438 1.389 . S
C442 C441 1.351 . S
C442 H447 0.930 . S
O443 Cu437 1.974 . S
O443 C453 1.282 . S
C444 O445 1.261 . S
C444 O457 1.251 . S
O445 C444 1.261 . S
H446 C440 0.930 . S
H447 C442 0.930 . S
N448 Cu437 1.985 . S
N448 C450 1.335 . S
N448 C451 1.390 . S
N449 C450 1.345 . S
N449 C452 1.336 . S
C450 N448 1.335 . S
C450 N449 1.345 . S
C450 H455 0.930 . S
C451 N448 1.390 . S
C451 C452 1.346 . S
C451 H456 0.930 . S
C452 N449 1.336 . S
C452 C451 1.346 . S
C452 H459 0.929 . S
C453 O443 1.282 . S
C453 O454 1.216 . S
O454 C453 1.216 . S
H455 C450 0.930 . S
H456 C451 0.930 . S
O457 Cu437 1.959 . S
O457 C444 1.251 . S
H458 C441 0.930 1_455 S
H459 C452 0.929 . S
Cu460 N461 1.999 . S
Cu460 O466 1.974 . S
Cu460 N471 1.985 . S
Cu460 O480 1.959 . S
N461 Cu460 1.999 . S
N461 C463 1.263 . S
N461 C465 1.389 . S
N462 C463 1.358 . S
N462 C464 1.400 . S
C463 N461 1.263 . S
C463 N462 1.358 . S
C463 H469 0.930 . S
C464 N462 1.400 . S
C464 C465 1.351 . S
C464 H481 0.930 . S
C465 N461 1.389 . S
C465 C464 1.351 . S
C465 H470 0.930 . S
O466 Cu460 1.974 . S
O466 C476 1.282 . S
C467 O468 1.261 . S
C467 O480 1.251 . S
O468 C467 1.261 . S
H469 C463 0.930 . S
H470 C465 0.930 . S
N471 Cu460 1.985 . S
N471 C473 1.335 . S
N471 C474 1.390 . S
N472 C473 1.345 . S
N472 C475 1.336 . S
C473 N471 1.335 . S
C473 N472 1.345 . S
C473 H478 0.930 . S
C474 N471 1.390 . S
C474 C475 1.346 . S
C474 H479 0.930 . S
C475 N472 1.336 . S
C475 C474 1.346 . S
C475 H482 0.929 . S
C476 O466 1.282 . S
C476 O477 1.216 . S
O477 C476 1.216 . S
H478 C473 0.930 . S
H479 C474 0.930 . S
O480 Cu460 1.959 . S
O480 C467 1.251 . S
H481 C464 0.930 . S
H482 C475 0.929 . S
Cu483 N484 1.999 . S
Cu483 O489 1.974 . S
Cu483 N494 1.985 . S
Cu483 O503 1.959 . S
N484 Cu483 1.999 . S
N484 C486 1.263 . S
N484 C488 1.389 . S
N485 C486 1.358 . S
N485 C487 1.400 . S
C486 N484 1.263 . S
C486 N485 1.358 . S
C486 H492 0.930 . S
C487 N485 1.400 . S
C487 C488 1.351 . S
C487 H504 0.930 1_655 S
C488 N484 1.389 . S
C488 C487 1.351 . S
C488 H493 0.930 . S
O489 Cu483 1.974 . S
O489 C499 1.282 . S
C490 O491 1.261 . S
C490 O503 1.251 . S
O491 C490 1.261 . S
H492 C486 0.930 . S
H493 C488 0.930 . S
N494 Cu483 1.985 . S
N494 C496 1.335 . S
N494 C497 1.390 . S
N495 C496 1.345 . S
N495 C498 1.336 . S
C496 N494 1.335 . S
C496 N495 1.345 . S
C496 H501 0.930 . S
C497 N494 1.390 . S
C497 C498 1.346 . S
C497 H502 0.930 . S
C498 N495 1.336 . S
C498 C497 1.346 . S
C498 H505 0.929 . S
C499 O489 1.282 . S
C499 O500 1.216 . S
O500 C499 1.216 . S
H501 C496 0.930 . S
H502 C497 0.930 . S
O503 Cu483 1.959 . S
O503 C490 1.251 . S
H504 C487 0.930 1_455 S
H505 C498 0.929 . S
Cu506 N507 1.999 . S
Cu506 O512 1.974 . S
Cu506 N517 1.985 . S
Cu506 O526 1.959 . S
N507 Cu506 1.999 . S
N507 C509 1.263 . S
N507 C511 1.389 . S
N508 C509 1.358 . S
N508 C510 1.400 . S
C509 N507 1.263 . S
C509 N508 1.358 . S
C509 H515 0.930 . S
C510 N508 1.400 . S
C510 C511 1.351 . S
C510 H527 0.930 . S
C511 N507 1.389 . S
C511 C510 1.351 . S
C511 H516 0.930 . S
O512 Cu506 1.974 . S
O512 C522 1.282 . S
C513 O514 1.261 . S
C513 O526 1.251 . S
O514 C513 1.261 . S
H515 C509 0.930 . S
H516 C511 0.930 . S
N517 Cu506 1.985 . S
N517 C519 1.335 . S
N517 C520 1.390 . S
N518 C519 1.345 . S
N518 C521 1.336 . S
C519 N517 1.335 . S
C519 N518 1.345 . S
C519 H524 0.930 . S
C520 N517 1.390 . S
C520 C521 1.346 . S
C520 H525 0.930 . S
C521 N518 1.336 . S
C521 C520 1.346 . S
C521 H528 0.929 . S
C522 O512 1.282 . S
C522 O523 1.216 . S
O523 C522 1.216 . S
H524 C519 0.930 . S
H525 C520 0.930 . S
O526 Cu506 1.959 . S
O526 C513 1.251 . S
H527 C510 0.930 . S
H528 C521 0.929 . S
Cu529 N530 1.999 . S
Cu529 O535 1.974 . S
Cu529 N540 1.985 . S
Cu529 O549 1.959 . S
N530 Cu529 1.999 . S
N530 C532 1.263 . S
N530 C534 1.389 . S
N531 C532 1.358 . S
N531 C533 1.400 . S
C532 N530 1.263 . S
C532 N531 1.358 . S
C532 H538 0.930 . S
C533 N531 1.400 . S
C533 C534 1.351 . S
C533 H550 0.930 . S
C534 N530 1.389 . S
C534 C533 1.351 . S
C534 H539 0.930 . S
O535 Cu529 1.974 . S
O535 C545 1.282 . S
C536 O537 1.261 . S
C536 O549 1.251 . S
O537 C536 1.261 . S
H538 C532 0.930 . S
H539 C534 0.930 . S
N540 Cu529 1.985 . S
N540 C542 1.335 . S
N540 C543 1.390 . S
N541 C542 1.345 . S
N541 C544 1.336 . S
C542 N540 1.335 . S
C542 N541 1.345 . S
C542 H547 0.930 . S
C543 N540 1.390 . S
C543 C544 1.346 . S
C543 H548 0.930 . S
C544 N541 1.336 . S
C544 C543 1.346 . S
C544 H551 0.929 . S
C545 O535 1.282 . S
C545 O546 1.216 . S
O546 C545 1.216 . S
H547 C542 0.930 . S
H548 C543 0.930 . S
O549 Cu529 1.959 . S
O549 C536 1.251 . S
H550 C533 0.930 . S
H551 C544 0.929 . S
Cu552 N553 1.999 . S
Cu552 O558 1.974 . S
Cu552 N563 1.985 . S
Cu552 O572 1.959 . S
N553 Cu552 1.999 . S
N553 C555 1.263 . S
N553 C557 1.389 . S
N554 C555 1.358 . S
N554 C556 1.400 . S
C555 N553 1.263 . S
C555 N554 1.358 . S
C555 H561 0.930 . S
C556 N554 1.400 . S
C556 C557 1.351 . S
C556 H573 0.930 . S
C557 N553 1.389 . S
C557 C556 1.351 . S
C557 H562 0.930 . S
O558 Cu552 1.974 . S
O558 C568 1.282 . S
C559 O560 1.261 . S
C559 O572 1.251 . S
O560 C559 1.261 . S
H561 C555 0.930 . S
H562 C557 0.930 . S
N563 Cu552 1.985 . S
N563 C565 1.335 . S
N563 C566 1.390 . S
N564 C565 1.345 . S
N564 C567 1.336 . S
C565 N563 1.335 . S
C565 N564 1.345 . S
C565 H570 0.930 . S
C566 N563 1.390 . S
C566 C567 1.346 . S
C566 H571 0.930 . S
C567 N564 1.336 . S
C567 C566 1.346 . S
C567 H574 0.929 . S
C568 O558 1.282 . S
C568 O569 1.216 . S
O569 C568 1.216 . S
H570 C565 0.930 . S
H571 C566 0.930 . S
O572 Cu552 1.959 . S
O572 C559 1.251 . S
H573 C556 0.930 . S
H574 C567 0.929 . S
Cu575 N576 1.999 . S
Cu575 O581 1.974 . S
Cu575 N586 1.985 . S
Cu575 O595 1.959 . S
N576 Cu575 1.999 . S
N576 C578 1.263 . S
N576 C580 1.389 . S
N577 C578 1.358 . S
N577 C579 1.400 . S
C578 N576 1.263 . S
C578 N577 1.358 . S
C578 H584 0.930 . S
C579 N577 1.400 . S
C579 C580 1.351 . S
C579 H596 0.930 . S
C580 N576 1.389 . S
C580 C579 1.351 . S
C580 H585 0.930 . S
O581 Cu575 1.974 . S
O581 C591 1.282 . S
C582 O583 1.261 . S
C582 O595 1.251 . S
O583 C582 1.261 . S
H584 C578 0.930 . S
H585 C580 0.930 . S
N586 Cu575 1.985 . S
N586 C588 1.335 . S
N586 C589 1.390 . S
N587 C588 1.345 . S
N587 C590 1.336 . S
C588 N586 1.335 . S
C588 N587 1.345 . S
C588 H593 0.930 . S
C589 N586 1.390 . S
C589 C590 1.346 . S
C589 H594 0.930 . S
C590 N587 1.336 . S
C590 C589 1.346 . S
C590 H597 0.929 . S
C591 O581 1.282 . S
C591 O592 1.216 . S
O592 C591 1.216 . S
H593 C588 0.930 . S
H594 C589 0.930 . S
O595 Cu575 1.959 . S
O595 C582 1.251 . S
H596 C579 0.930 . S
H597 C590 0.929 . S
Cu598 N599 1.999 . S
Cu598 O604 1.974 . S
Cu598 N609 1.985 . S
Cu598 O618 1.959 . S
N599 Cu598 1.999 . S
N599 C601 1.263 . S
N599 C603 1.389 . S
N600 C601 1.358 . S
N600 C602 1.400 . S
C601 N599 1.263 . S
C601 N600 1.358 . S
C601 H607 0.930 . S
C602 N600 1.400 . S
C602 C603 1.351 . S
C602 H619 0.930 . S
C603 N599 1.389 . S
C603 C602 1.351 . S
C603 H608 0.930 . S
O604 Cu598 1.974 . S
O604 C614 1.282 . S
C605 O606 1.261 . S
C605 O618 1.251 . S
O606 C605 1.261 . S
H607 C601 0.930 . S
H608 C603 0.930 . S
N609 Cu598 1.985 . S
N609 C611 1.335 . S
N609 C612 1.390 . S
N610 C611 1.345 . S
N610 C613 1.336 . S
C611 N609 1.335 . S
C611 N610 1.345 . S
C611 H616 0.930 . S
C612 N609 1.390 . S
C612 C613 1.346 . S
C612 H617 0.930 . S
C613 N610 1.336 . S
C613 C612 1.346 . S
C613 H620 0.929 . S
C614 O604 1.282 . S
C614 O615 1.216 . S
O615 C614 1.216 . S
H616 C611 0.930 . S
H617 C612 0.930 . S
O618 Cu598 1.959 . S
O618 C605 1.251 . S
H619 C602 0.930 . S
H620 C613 0.929 . S
Cu621 N622 1.999 . S
Cu621 O627 1.974 . S
Cu621 N632 1.985 . S
Cu621 O641 1.959 . S
N622 Cu621 1.999 . S
N622 C624 1.263 . S
N622 C626 1.389 . S
N623 C624 1.358 . S
N623 C625 1.400 . S
C624 N622 1.263 . S
C624 N623 1.358 . S
C624 H630 0.930 . S
C625 N623 1.400 . S
C625 C626 1.351 . S
C625 H642 0.930 1_455 S
C626 N622 1.389 . S
C626 C625 1.351 . S
C626 H631 0.930 . S
O627 Cu621 1.974 . S
O627 C637 1.282 . S
C628 O629 1.261 . S
C628 O641 1.251 . S
O629 C628 1.261 . S
H630 C624 0.930 . S
H631 C626 0.930 . S
N632 Cu621 1.985 . S
N632 C634 1.335 . S
N632 C635 1.390 . S
N633 C634 1.345 . S
N633 C636 1.336 . S
C634 N632 1.335 . S
C634 N633 1.345 . S
C634 H639 0.930 . S
C635 N632 1.390 . S
C635 C636 1.346 . S
C635 H640 0.930 . S
C636 N633 1.336 . S
C636 C635 1.346 . S
C636 H643 0.929 . S
C637 O627 1.282 . S
C637 O638 1.216 . S
O638 C637 1.216 . S
H639 C634 0.930 . S
H640 C635 0.930 . S
O641 Cu621 1.959 . S
O641 C628 1.251 . S
H642 C625 0.930 1_655 S
H643 C636 0.929 . S
Cu644 N645 1.999 . S
Cu644 O650 1.974 . S
Cu644 N655 1.985 . S
Cu644 O664 1.959 . S
N645 Cu644 1.999 . S
N645 C647 1.263 . S
N645 C649 1.389 . S
N646 C647 1.358 . S
N646 C648 1.400 . S
C647 N645 1.263 . S
C647 N646 1.358 . S
C647 H653 0.930 . S
C648 N646 1.400 . S
C648 C649 1.351 . S
C648 H665 0.930 . S
C649 N645 1.389 . S
C649 C648 1.351 . S
C649 H654 0.930 . S
O650 Cu644 1.974 . S
O650 C660 1.282 . S
C651 O652 1.261 . S
C651 O664 1.251 . S
O652 C651 1.261 . S
H653 C647 0.930 . S
H654 C649 0.930 . S
N655 Cu644 1.985 . S
N655 C657 1.335 . S
N655 C658 1.390 . S
N656 C657 1.345 . S
N656 C659 1.336 . S
C657 N655 1.335 . S
C657 N656 1.345 . S
C657 H662 0.930 . S
C658 N655 1.390 . S
C658 C659 1.346 . S
C658 H663 0.930 . S
C659 N656 1.336 . S
C659 C658 1.346 . S
C659 H666 0.929 . S
C660 O650 1.282 . S
C660 O661 1.216 . S
O661 C660 1.216 . S
H662 C657 0.930 . S
H663 C658 0.930 . S
O664 Cu644 1.959 . S
O664 C651 1.251 . S
H665 C648 0.930 . S
H666 C659 0.929 . S
Cu667 N668 1.999 . S
Cu667 O673 1.974 . S
Cu667 N678 1.985 . S
Cu667 O687 1.959 . S
N668 Cu667 1.999 . S
N668 C670 1.263 . S
N668 C672 1.389 . S
N669 C670 1.358 . S
N669 C671 1.400 . S
C670 N668 1.263 . S
C670 N669 1.358 . S
C670 H676 0.930 . S
C671 N669 1.400 . S
C671 C672 1.351 . S
C671 H688 0.930 1_455 S
C672 N668 1.389 . S
C672 C671 1.351 . S
C672 H677 0.930 . S
O673 Cu667 1.974 . S
O673 C683 1.282 . S
C674 O675 1.261 . S
C674 O687 1.251 . S
O675 C674 1.261 . S
H676 C670 0.930 . S
H677 C672 0.930 . S
N678 Cu667 1.985 . S
N678 C680 1.335 . S
N678 C681 1.390 . S
N679 C680 1.345 . S
N679 C682 1.336 . S
C680 N678 1.335 . S
C680 N679 1.345 . S
C680 H685 0.930 . S
C681 N678 1.390 . S
C681 C682 1.346 . S
C681 H686 0.930 . S
C682 N679 1.336 . S
C682 C681 1.346 . S
C682 H689 0.929 . S
C683 O673 1.282 . S
C683 O684 1.216 . S
O684 C683 1.216 . S
H685 C680 0.930 . S
H686 C681 0.930 . S
O687 Cu667 1.959 . S
O687 C674 1.251 . S
H688 C671 0.930 1_655 S
H689 C682 0.929 . S
Cu690 N691 1.999 . S
Cu690 O696 1.974 . S
Cu690 N701 1.985 . S
Cu690 O710 1.959 . S
N691 Cu690 1.999 . S
N691 C693 1.263 . S
N691 C695 1.389 . S
N692 C693 1.358 . S
N692 C694 1.400 . S
C693 N691 1.263 . S
C693 N692 1.358 . S
C693 H699 0.930 . S
C694 N692 1.400 . S
C694 C695 1.351 . S
C694 H711 0.930 . S
C695 N691 1.389 . S
C695 C694 1.351 . S
C695 H700 0.930 . S
O696 Cu690 1.974 . S
O696 C706 1.282 . S
C697 O698 1.261 . S
C697 O710 1.251 . S
O698 C697 1.261 . S
H699 C693 0.930 . S
H700 C695 0.930 . S
N701 Cu690 1.985 . S
N701 C703 1.335 . S
N701 C704 1.390 . S
N702 C703 1.345 . S
N702 C705 1.336 . S
C703 N701 1.335 . S
C703 N702 1.345 . S
C703 H708 0.930 . S
C704 N701 1.390 . S
C704 C705 1.346 . S
C704 H709 0.930 . S
C705 N702 1.336 . S
C705 C704 1.346 . S
C705 H712 0.929 . S
C706 O696 1.282 . S
C706 O707 1.216 . S
O707 C706 1.216 . S
H708 C703 0.930 . S
H709 C704 0.930 . S
O710 Cu690 1.959 . S
O710 C697 1.251 . S
H711 C694 0.930 . S
H712 C705 0.929 . S
Cu713 N714 1.999 . S
Cu713 O719 1.974 . S
Cu713 N724 1.985 . S
Cu713 O733 1.959 . S
N714 Cu713 1.999 . S
N714 C716 1.263 . S
N714 C718 1.389 . S
N715 C716 1.358 . S
N715 C717 1.400 . S
C716 N714 1.263 . S
C716 N715 1.358 . S
C716 H722 0.930 . S
C717 N715 1.400 . S
C717 C718 1.351 . S
C717 H734 0.930 . S
C718 N714 1.389 . S
C718 C717 1.351 . S
C718 H723 0.930 . S
O719 Cu713 1.974 . S
O719 C729 1.282 . S
C720 O721 1.261 . S
C720 O733 1.251 . S
O721 C720 1.261 . S
H722 C716 0.930 . S
H723 C718 0.930 . S
N724 Cu713 1.985 . S
N724 C726 1.335 . S
N724 C727 1.390 . S
N725 C726 1.345 . S
N725 C728 1.336 . S
C726 N724 1.335 . S
C726 N725 1.345 . S
C726 H731 0.930 . S
C727 N724 1.390 . S
C727 C728 1.346 . S
C727 H732 0.930 . S
C728 N725 1.336 . S
C728 C727 1.346 . S
C728 H735 0.929 . S
C729 O719 1.282 . S
C729 O730 1.216 . S
O730 C729 1.216 . S
H731 C726 0.930 . S
H732 C727 0.930 . S
O733 Cu713 1.959 . S
O733 C720 1.251 . S
H734 C717 0.930 . S
H735 C728 0.929 . S
C736 C737 1.387 . S
C736 H740 0.950 . S
C736 C745 1.390 . S
C737 C736 1.387 . S
C737 C739 1.387 . S
H738 C745 0.950 . S
C739 C737 1.387 . S
C739 C741 1.390 . S
C739 H743 0.950 . S
H740 C736 0.950 . S
C741 C739 1.390 . S
C741 C742 1.387 . S
C741 H744 0.950 . S
C742 C741 1.387 . S
C742 C745 1.387 . S
H743 C739 0.950 . S
H744 C741 0.950 . S
C745 C736 1.390 . S
C745 H738 0.950 . S
C745 C742 1.387 . S
C746 C747 1.387 . S
C746 H750 0.950 . S
C746 C755 1.390 1_455 S
C747 C746 1.387 . S
C747 C749 1.387 . S
H748 C755 0.950 . S
C749 C747 1.387 . S
C749 C751 1.390 1_455 S
C749 H753 0.950 . S
H750 C746 0.950 . S
C751 C749 1.390 1_655 S
C751 C752 1.387 . S
C751 H754 0.950 . S
C752 C751 1.387 . S
C752 C755 1.387 . S
H753 C749 0.950 . S
H754 C751 0.950 . S
C755 C746 1.390 1_655 S
C755 H748 0.950 . S
C755 C752 1.387 . S
C756 C757 1.387 . S
C756 H760 0.950 . S
C756 C765 1.390 . S
C757 C756 1.387 . S
C757 C759 1.387 . S
H758 C765 0.950 . S
C759 C757 1.387 . S
C759 C761 1.390 . S
C759 H763 0.950 . S
H760 C756 0.950 . S
C761 C759 1.390 . S
C761 C762 1.387 . S
C761 H764 0.950 . S
C762 C761 1.387 . S
C762 C765 1.387 . S
H763 C759 0.950 . S
H764 C761 0.950 . S
C765 C756 1.390 . S
C765 H758 0.950 . S
C765 C762 1.387 . S
C766 C767 1.387 . S
C766 H770 0.950 . S
C766 C775 1.390 . S
C767 C766 1.387 . S
C767 C769 1.387 . S
H768 C775 0.950 . S
C769 C767 1.387 . S
C769 C771 1.390 . S
C769 H773 0.950 . S
H770 C766 0.950 . S
C771 C769 1.390 . S
C771 C772 1.387 . S
C771 H774 0.950 . S
C772 C771 1.387 . S
C772 C775 1.387 . S
H773 C769 0.950 . S
H774 C771 0.950 . S
C775 C766 1.390 . S
C775 H768 0.950 . S
C775 C772 1.387 . S
C776 C777 1.387 . S
C776 H780 0.950 . S
C776 C785 1.390 . S
C777 C776 1.387 . S
C777 C779 1.387 . S
H778 C785 0.950 . S
C779 C777 1.387 . S
C779 C781 1.390 . S
C779 H783 0.950 . S
H780 C776 0.950 . S
C781 C779 1.390 . S
C781 C782 1.387 . S
C781 H784 0.950 . S
C782 C781 1.387 . S
C782 C785 1.387 . S
H783 C779 0.950 . S
H784 C781 0.950 . S
C785 C776 1.390 . S
C785 H778 0.950 . S
C785 C782 1.387 . S
C786 C787 1.387 . S
C786 H790 0.950 . S
C786 C795 1.390 . S
C787 C786 1.387 . S
C787 C789 1.387 . S
H788 C795 0.950 . S
C789 C787 1.387 . S
C789 C791 1.390 . S
C789 H793 0.950 . S
H790 C786 0.950 . S
C791 C789 1.390 . S
C791 C792 1.387 . S
C791 H794 0.950 . S
C792 C791 1.387 . S
C792 C795 1.387 . S
H793 C789 0.950 . S
H794 C791 0.950 . S
C795 C786 1.390 . S
C795 H788 0.950 . S
C795 C792 1.387 . S
C796 C797 1.387 . S
C796 H800 0.950 . S
C796 C805 1.390 . S
C797 C796 1.387 . S
C797 C799 1.387 . S
H798 C805 0.950 . S
C799 C797 1.387 . S
C799 C801 1.390 . S
C799 H803 0.950 . S
H800 C796 0.950 . S
C801 C799 1.390 . S
C801 C802 1.387 . S
C801 H804 0.950 . S
C802 C801 1.387 . S
C802 C805 1.387 . S
H803 C799 0.950 . S
H804 C801 0.950 . S
C805 C796 1.390 . S
C805 H798 0.950 . S
C805 C802 1.387 . S
C806 C807 1.387 . S
C806 H810 0.950 . S
C806 C815 1.390 1_455 S
C807 C806 1.387 . S
C807 C809 1.387 . S
H808 C815 0.950 . S
C809 C807 1.387 . S
C809 C811 1.390 1_455 S
C809 H813 0.950 . S
H810 C806 0.950 . S
C811 C809 1.390 1_655 S
C811 C812 1.387 . S
C811 H814 0.950 . S
C812 C811 1.387 . S
C812 C815 1.387 . S
H813 C809 0.950 . S
H814 C811 0.950 . S
C815 C806 1.390 1_655 S
C815 H808 0.950 . S
C815 C812 1.387 . S
C816 C817 1.387 . S
C816 H820 0.950 . S
C816 C825 1.390 . S
C817 C816 1.387 . S
C817 C819 1.387 . S
H818 C825 0.950 . S
C819 C817 1.387 . S
C819 C821 1.390 . S
C819 H823 0.950 . S
H820 C816 0.950 . S
C821 C819 1.390 . S
C821 C822 1.387 . S
C821 H824 0.950 . S
C822 C821 1.387 . S
C822 C825 1.387 . S
H823 C819 0.950 . S
H824 C821 0.950 . S
C825 C816 1.390 . S
C825 H818 0.950 . S
C825 C822 1.387 . S
C826 C827 1.387 . S
C826 H830 0.950 . S
C826 C835 1.390 1_455 S
C827 C826 1.387 . S
C827 C829 1.387 . S
H828 C835 0.950 . S
C829 C827 1.387 . S
C829 C831 1.390 1_455 S
C829 H833 0.950 . S
H830 C826 0.950 . S
C831 C829 1.390 1_655 S
C831 C832 1.387 . S
C831 H834 0.950 . S
C832 C831 1.387 . S
C832 C835 1.387 . S
H833 C829 0.950 . S
H834 C831 0.950 . S
C835 C826 1.390 1_655 S
C835 H828 0.950 . S
C835 C832 1.387 . S
C836 C837 1.387 . S
C836 H840 0.950 . S
C836 C845 1.390 . S
C837 C836 1.387 . S
C837 C839 1.387 . S
H838 C845 0.950 . S
C839 C837 1.387 . S
C839 C841 1.390 . S
C839 H843 0.950 . S
H840 C836 0.950 . S
C841 C839 1.390 . S
C841 C842 1.387 . S
C841 H844 0.950 . S
C842 C841 1.387 . S
C842 C845 1.387 . S
H843 C839 0.950 . S
H844 C841 0.950 . S
C845 C836 1.390 . S
C845 H838 0.950 . S
C845 C842 1.387 . S
C846 C847 1.387 . S
C846 H850 0.950 . S
C846 C855 1.390 . S
C847 C846 1.387 . S
C847 C849 1.387 . S
H848 C855 0.950 . S
C849 C847 1.387 . S
C849 C851 1.390 . S
C849 H853 0.950 . S
H850 C846 0.950 . S
C851 C849 1.390 . S
C851 C852 1.387 . S
C851 H854 0.950 . S
C852 C851 1.387 . S
C852 C855 1.387 . S
H853 C849 0.950 . S
H854 C851 0.950 . S
C855 C846 1.390 . S
C855 H848 0.950 . S
C855 C852 1.387 . S
C856 C857 1.387 . S
C856 H860 0.950 . S
C856 C865 1.390 . S
C857 C856 1.387 . S
C857 C859 1.387 . S
H858 C865 0.950 . S
C859 C857 1.387 . S
C859 C861 1.390 . S
C859 H863 0.950 . S
H860 C856 0.950 . S
C861 C859 1.390 . S
C861 C862 1.387 . S
C861 H864 0.950 . S
C862 C861 1.387 . S
C862 C865 1.387 . S
H863 C859 0.950 . S
H864 C861 0.950 . S
C865 C856 1.390 . S
C865 H858 0.950 . S
C865 C862 1.387 . S
C866 C867 1.387 . S
C866 H870 0.950 . S
C866 C875 1.390 . S
C867 C866 1.387 . S
C867 C869 1.387 . S
H868 C875 0.950 . S
C869 C867 1.387 . S
C869 C871 1.390 . S
C869 H873 0.950 . S
H870 C866 0.950 . S
C871 C869 1.390 . S
C871 C872 1.387 . S
C871 H874 0.950 . S
C872 C871 1.387 . S
C872 C875 1.387 . S
H873 C869 0.950 . S
H874 C871 0.950 . S
C875 C866 1.390 . S
C875 H868 0.950 . S
C875 C872 1.387 . S
C876 C877 1.387 . S
C876 H880 0.950 . S
C876 C885 1.390 . S
C877 C876 1.387 . S
C877 C879 1.387 . S
H878 C885 0.950 . S
C879 C877 1.387 . S
C879 C881 1.390 . S
C879 H883 0.950 . S
H880 C876 0.950 . S
C881 C879 1.390 . S
C881 C882 1.387 . S
C881 H884 0.950 . S
C882 C881 1.387 . S
C882 C885 1.387 . S
H883 C879 0.950 . S
H884 C881 0.950 . S
C885 C876 1.390 . S
C885 H878 0.950 . S
C885 C882 1.387 . S
C886 C887 1.387 . S
C886 H890 0.950 . S
C886 C895 1.390 1_455 S
C887 C886 1.387 . S
C887 C889 1.387 . S
H888 C895 0.950 . S
C889 C887 1.387 . S
C889 C891 1.390 1_455 S
C889 H893 0.950 . S
H890 C886 0.950 . S
C891 C889 1.390 1_655 S
C891 C892 1.387 . S
C891 H894 0.950 . S
C892 C891 1.387 . S
C892 C895 1.387 . S
H893 C889 0.950 . S
H894 C891 0.950 . S
C895 C886 1.390 1_655 S
C895 H888 0.950 . S
C895 C892 1.387 . S
C896 C897 1.387 . S
C896 H900 0.950 . S
C896 C905 1.390 . S
C897 C896 1.387 . S
C897 C899 1.387 . S
H898 C905 0.950 . S
C899 C897 1.387 . S
C899 C901 1.390 . S
C899 H903 0.950 . S
H900 C896 0.950 . S
C901 C899 1.390 . S
C901 C902 1.387 . S
C901 H904 0.950 . S
C902 C901 1.387 . S
C902 C905 1.387 . S
H903 C899 0.950 . S
H904 C901 0.950 . S
C905 C896 1.390 . S
C905 H898 0.950 . S
C905 C902 1.387 . S
C906 C907 1.387 . S
C906 H910 0.950 . S
C906 C915 1.390 . S
C907 C906 1.387 . S
C907 C909 1.387 . S
H908 C915 0.950 . S
C909 C907 1.387 . S
C909 C911 1.390 . S
C909 H913 0.950 . S
H910 C906 0.950 . S
C911 C909 1.390 . S
C911 C912 1.387 . S
C911 H914 0.950 . S
C912 C911 1.387 . S
C912 C915 1.387 . S
H913 C909 0.950 . S
H914 C911 0.950 . S
C915 C906 1.390 . S
C915 H908 0.950 . S
C915 C912 1.387 . S
C916 C917 1.387 . S
C916 H920 0.950 . S
C916 C925 1.390 . S
C917 C916 1.387 . S
C917 C919 1.387 . S
H918 C925 0.950 . S
C919 C917 1.387 . S
C919 C921 1.390 . S
C919 H923 0.950 . S
H920 C916 0.950 . S
C921 C919 1.390 . S
C921 C922 1.387 . S
C921 H924 0.950 . S
C922 C921 1.387 . S
C922 C925 1.387 . S
H923 C919 0.950 . S
H924 C921 0.950 . S
C925 C916 1.390 . S
C925 H918 0.950 . S
C925 C922 1.387 . S
C926 C927 1.387 . S
C926 H930 0.950 . S
C926 C935 1.390 1_455 S
C927 C926 1.387 . S
C927 C929 1.387 . S
H928 C935 0.950 . S
C929 C927 1.387 . S
C929 C931 1.390 1_455 S
C929 H933 0.950 . S
H930 C926 0.950 . S
C931 C929 1.390 1_655 S
C931 C932 1.387 . S
C931 H934 0.950 . S
C932 C931 1.387 . S
C932 C935 1.387 . S
H933 C929 0.950 . S
H934 C931 0.950 . S
C935 C926 1.390 1_655 S
C935 H928 0.950 . S
C935 C932 1.387 . S
C936 C937 1.387 . S
C936 H940 0.950 . S
C936 C945 1.390 . S
C937 C936 1.387 . S
C937 C939 1.387 . S
H938 C945 0.950 . S
C939 C937 1.387 . S
C939 C941 1.390 . S
C939 H943 0.950 . S
H940 C936 0.950 . S
C941 C939 1.390 . S
C941 C942 1.387 . S
C941 H944 0.950 . S
C942 C941 1.387 . S
C942 C945 1.387 . S
H943 C939 0.950 . S
H944 C941 0.950 . S
C945 C936 1.390 . S
C945 H938 0.950 . S
C945 C942 1.387 . S
C946 C947 1.387 . S
C946 H950 0.950 . S
C946 C955 1.390 1_455 S
C947 C946 1.387 . S
C947 C949 1.387 . S
H948 C955 0.950 . S
C949 C947 1.387 . S
C949 C951 1.390 1_455 S
C949 H953 0.950 . S
H950 C946 0.950 . S
C951 C949 1.390 1_655 S
C951 C952 1.387 . S
C951 H954 0.950 . S
C952 C951 1.387 . S
C952 C955 1.387 . S
H953 C949 0.950 . S
H954 C951 0.950 . S
C955 C946 1.390 1_655 S
C955 H948 0.950 . S
C955 C952 1.387 . S
C956 C957 1.387 . S
C956 H960 0.950 . S
C956 C965 1.390 . S
C957 C956 1.387 . S
C957 C959 1.387 . S
H958 C965 0.950 . S
C959 C957 1.387 . S
C959 C961 1.390 . S
C959 H963 0.950 . S
H960 C956 0.950 . S
C961 C959 1.390 . S
C961 C962 1.387 . S
C961 H964 0.950 . S
C962 C961 1.387 . S
C962 C965 1.387 . S
H963 C959 0.950 . S
H964 C961 0.950 . S
C965 C956 1.390 . S
C965 H958 0.950 . S
C965 C962 1.387 . S
C966 C967 1.387 . S
C966 H970 0.950 . S
C966 C975 1.390 . S
C967 C966 1.387 . S
C967 C969 1.387 . S
H968 C975 0.950 . S
C969 C967 1.387 . S
C969 C971 1.390 . S
C969 H973 0.950 . S
H970 C966 0.950 . S
C971 C969 1.390 . S
C971 C972 1.387 . S
C971 H974 0.950 . S
C972 C971 1.387 . S
C972 C975 1.387 . S
H973 C969 0.950 . S
H974 C971 0.950 . S
C975 C966 1.390 . S
C975 H968 0.950 . S
C975 C972 1.387 . S
C976 C977 1.387 . S
C976 H980 0.950 . S
C976 C985 1.390 . S
C977 C976 1.387 . S
C977 C979 1.387 . S
H978 C985 0.950 . S
C979 C977 1.387 . S
C979 C981 1.390 . S
C979 H983 0.950 . S
H980 C976 0.950 . S
C981 C979 1.390 . S
C981 C982 1.387 . S
C981 H984 0.950 . S
C982 C981 1.387 . S
C982 C985 1.387 . S
H983 C979 0.950 . S
H984 C981 0.950 . S
C985 C976 1.390 . S
C985 H978 0.950 . S
C985 C982 1.387 . S
C986 C987 1.387 . S
C986 H990 0.950 . S
C986 C995 1.390 . S
C987 C986 1.387 . S
C987 C989 1.387 . S
H988 C995 0.950 . S
C989 C987 1.387 . S
C989 C991 1.390 . S
C989 H993 0.950 . S
H990 C986 0.950 . S
C991 C989 1.390 . S
C991 C992 1.387 . S
C991 H994 0.950 . S
C992 C991 1.387 . S
C992 C995 1.387 . S
H993 C989 0.950 . S
H994 C991 0.950 . S
C995 C986 1.390 . S
C995 H988 0.950 . S
C995 C992 1.387 . S
C996 C997 1.387 . S
C996 H1000 0.950 . S
C996 C1005 1.390 . S
C997 C996 1.387 . S
C997 C999 1.387 . S
H998 C1005 0.950 . S
C999 C997 1.387 . S
C999 C1001 1.390 . S
C999 H1003 0.950 . S
H1000 C996 0.950 . S
C1001 C999 1.390 . S
C1001 C1002 1.387 . S
C1001 H1004 0.950 . S
C1002 C1001 1.387 . S
C1002 C1005 1.387 . S
H1003 C999 0.950 . S
H1004 C1001 0.950 . S
C1005 C996 1.390 . S
C1005 H998 0.950 . S
C1005 C1002 1.387 . S
C1006 C1007 1.387 . S
C1006 H1010 0.950 . S
C1006 C1015 1.390 1_455 S
C1007 C1006 1.387 . S
C1007 C1009 1.387 . S
H1008 C1015 0.950 . S
C1009 C1007 1.387 . S
C1009 C1011 1.390 1_455 S
C1009 H1013 0.950 . S
H1010 C1006 0.950 . S
C1011 C1009 1.390 1_655 S
C1011 C1012 1.387 . S
C1011 H1014 0.950 . S
C1012 C1011 1.387 . S
C1012 C1015 1.387 . S
H1013 C1009 0.950 . S
H1014 C1011 0.950 . S
C1015 C1006 1.390 1_655 S
C1015 H1008 0.950 . S
C1015 C1012 1.387 . S
C1016 C1017 1.387 . S
C1016 H1020 0.950 . S
C1016 C1025 1.390 . S
C1017 C1016 1.387 . S
C1017 C1019 1.387 . S
H1018 C1025 0.950 . S
C1019 C1017 1.387 . S
C1019 C1021 1.390 . S
C1019 H1023 0.950 . S
H1020 C1016 0.950 . S
C1021 C1019 1.390 . S
C1021 C1022 1.387 . S
C1021 H1024 0.950 . S
C1022 C1021 1.387 . S
C1022 C1025 1.387 . S
H1023 C1019 0.950 . S
H1024 C1021 0.950 . S
C1025 C1016 1.390 . S
C1025 H1018 0.950 . S
C1025 C1022 1.387 . S
C1026 C1027 1.387 . S
C1026 H1030 0.950 . S
C1026 C1035 1.390 1_455 S
C1027 C1026 1.387 . S
C1027 C1029 1.387 . S
H1028 C1035 0.950 . S
C1029 C1027 1.387 . S
C1029 C1031 1.390 1_455 S
C1029 H1033 0.950 . S
H1030 C1026 0.950 . S
C1031 C1029 1.390 1_655 S
C1031 C1032 1.387 . S
C1031 H1034 0.950 . S
C1032 C1031 1.387 . S
C1032 C1035 1.387 . S
H1033 C1029 0.950 . S
H1034 C1031 0.950 . S
C1035 C1026 1.390 1_655 S
C1035 H1028 0.950 . S
C1035 C1032 1.387 . S
C1036 C1037 1.387 . S
C1036 H1040 0.950 . S
C1036 C1045 1.390 . S
C1037 C1036 1.387 . S
C1037 C1039 1.387 . S
H1038 C1045 0.950 . S
C1039 C1037 1.387 . S
C1039 C1041 1.390 . S
C1039 H1043 0.950 . S
H1040 C1036 0.950 . S
C1041 C1039 1.390 . S
C1041 C1042 1.387 . S
C1041 H1044 0.950 . S
C1042 C1041 1.387 . S
C1042 C1045 1.387 . S
H1043 C1039 0.950 . S
H1044 C1041 0.950 . S
C1045 C1036 1.390 . S
C1045 H1038 0.950 . S
C1045 C1042 1.387 . S
C1046 C1047 1.387 . S
C1046 H1050 0.950 . S
C1046 C1055 1.390 . S
C1047 C1046 1.387 . S
C1047 C1049 1.387 . S
H1048 C1055 0.950 . S
C1049 C1047 1.387 . S
C1049 C1051 1.390 . S
C1049 H1053 0.950 . S
H1050 C1046 0.950 . S
C1051 C1049 1.390 . S
C1051 C1052 1.387 . S
C1051 H1054 0.950 . S
C1052 C1051 1.387 . S
C1052 C1055 1.387 . S
H1053 C1049 0.950 . S
H1054 C1051 0.950 . S
C1055 C1046 1.390 . S
C1055 H1048 0.950 . S
C1055 C1052 1.387 . S
C1056 C1057 1.387 . S
C1056 H1060 0.950 . S
C1056 C1065 1.390 . S
C1057 C1056 1.387 . S
C1057 C1059 1.387 . S
H1058 C1065 0.950 . S
C1059 C1057 1.387 . S
C1059 C1061 1.390 . S
C1059 H1063 0.950 . S
H1060 C1056 0.950 . S
C1061 C1059 1.390 . S
C1061 C1062 1.387 . S
C1061 H1064 0.950 . S
C1062 C1061 1.387 . S
C1062 C1065 1.387 . S
H1063 C1059 0.950 . S
H1064 C1061 0.950 . S
C1065 C1056 1.390 . S
C1065 H1058 0.950 . S
C1065 C1062 1.387 . S
C1066 C1067 1.387 . S
C1066 H1070 0.950 . S
C1066 C1075 1.390 1_455 S
C1067 C1066 1.387 . S
C1067 C1069 1.387 1_565 S
H1068 C1075 0.950 . S
C1069 C1067 1.387 1_545 S
C1069 C1071 1.390 1_455 S
C1069 H1073 0.950 . S
H1070 C1066 0.950 . S
C1071 C1069 1.390 1_655 S
C1071 C1072 1.387 . S
C1071 H1074 0.950 . S
C1072 C1071 1.387 . S
C1072 C1075 1.387 1_545 S
H1073 C1069 0.950 . S
H1074 C1071 0.950 . S
C1075 C1066 1.390 1_655 S
C1075 H1068 0.950 . S
C1075 C1072 1.387 1_565 S
C1076 C1077 1.387 . S
C1076 H1080 0.950 . S
C1076 C1085 1.390 . S
C1077 C1076 1.387 . S
C1077 C1079 1.387 . S
H1078 C1085 0.950 . S
C1079 C1077 1.387 . S
C1079 C1081 1.390 . S
C1079 H1083 0.950 . S
H1080 C1076 0.950 . S
C1081 C1079 1.390 . S
C1081 C1082 1.387 . S
C1081 H1084 0.950 . S
C1082 C1081 1.387 . S
C1082 C1085 1.387 . S
H1083 C1079 0.950 . S
H1084 C1081 0.950 . S
C1085 C1076 1.390 . S
C1085 H1078 0.950 . S
C1085 C1082 1.387 . S
C1086 C1087 1.387 1_565 S
C1086 H1090 0.950 . S
C1086 C1095 1.390 1_554 S
C1087 C1086 1.387 1_545 S
C1087 C1089 1.387 . S
H1088 C1095 0.950 . S
C1089 C1087 1.387 . S
C1089 C1091 1.390 1_554 S
C1089 H1093 0.950 . S
H1090 C1086 0.950 . S
C1091 C1089 1.390 1_556 S
C1091 C1092 1.387 1_545 S
C1091 H1094 0.950 . S
C1092 C1091 1.387 1_565 S
C1092 C1095 1.387 . S
H1093 C1089 0.950 . S
H1094 C1091 0.950 . S
C1095 C1086 1.390 1_556 S
C1095 H1088 0.950 . S
C1095 C1092 1.387 . S
C1096 C1097 1.387 . S
C1096 H1100 0.950 . S
C1096 C1105 1.390 . S
C1097 C1096 1.387 . S
C1097 C1099 1.387 . S
H1098 C1105 0.950 . S
C1099 C1097 1.387 . S
C1099 C1101 1.390 . S
C1099 H1103 0.950 . S
H1100 C1096 0.950 . S
C1101 C1099 1.390 . S
C1101 C1102 1.387 . S
C1101 H1104 0.950 . S
C1102 C1101 1.387 . S
C1102 C1105 1.387 . S
H1103 C1099 0.950 . S
H1104 C1101 0.950 . S
C1105 C1096 1.390 . S
C1105 H1098 0.950 . S
C1105 C1102 1.387 . S
C1106 C1107 1.387 . S
C1106 H1110 0.950 . S
C1106 C1115 1.390 . S
C1107 C1106 1.387 . S
C1107 C1109 1.387 1_565 S
H1108 C1115 0.950 . S
C1109 C1107 1.387 1_545 S
C1109 C1111 1.390 . S
C1109 H1113 0.950 . S
H1110 C1106 0.950 . S
C1111 C1109 1.390 . S
C1111 C1112 1.387 . S
C1111 H1114 0.950 . S
C1112 C1111 1.387 . S
C1112 C1115 1.387 1_545 S
H1113 C1109 0.950 . S
H1114 C1111 0.950 . S
C1115 C1106 1.390 . S
C1115 H1108 0.950 . S
C1115 C1112 1.387 1_565 S
C1116 C1117 1.387 . S
C1116 H1120 0.950 . S
C1116 C1125 1.390 . S
C1117 C1116 1.387 . S
C1117 C1119 1.387 . S
H1118 C1125 0.950 . S
C1119 C1117 1.387 . S
C1119 C1121 1.390 . S
C1119 H1123 0.950 . S
H1120 C1116 0.950 . S
C1121 C1119 1.390 . S
C1121 C1122 1.387 . S
C1121 H1124 0.950 . S
C1122 C1121 1.387 . S
C1122 C1125 1.387 . S
H1123 C1119 0.950 . S
H1124 C1121 0.950 . S
C1125 C1116 1.390 . S
C1125 H1118 0.950 . S
C1125 C1122 1.387 . S
C1126 C1127 1.387 . S
C1126 H1130 0.950 . S
C1126 C1135 1.390 1_456 S
C1127 C1126 1.387 . S
C1127 C1129 1.387 1_545 S
H1128 C1135 0.950 . S
C1129 C1127 1.387 1_565 S
C1129 C1131 1.390 1_456 S
C1129 H1133 0.950 . S
H1130 C1126 0.950 . S
C1131 C1129 1.390 1_654 S
C1131 C1132 1.387 . S
C1131 H1134 0.950 . S
C1132 C1131 1.387 . S
C1132 C1135 1.387 1_565 S
H1133 C1129 0.950 . S
H1134 C1131 0.950 . S
C1135 C1126 1.390 1_654 S
C1135 H1128 0.950 . S
C1135 C1132 1.387 1_545 S
C1136 C1137 1.387 . S
C1136 H1140 0.950 . S
C1136 C1145 1.390 . S
C1137 C1136 1.387 . S
C1137 C1139 1.387 . S
H1138 C1145 0.950 . S
C1139 C1137 1.387 . S
C1139 C1141 1.390 . S
C1139 H1143 0.950 . S
H1140 C1136 0.950 . S
C1141 C1139 1.390 . S
C1141 C1142 1.387 . S
C1141 H1144 0.950 . S
C1142 C1141 1.387 . S
C1142 C1145 1.387 . S
H1143 C1139 0.950 . S
H1144 C1141 0.950 . S
C1145 C1136 1.390 . S
C1145 H1138 0.950 . S
C1145 C1142 1.387 . S
C1146 C1147 1.387 . S
C1146 H1150 0.950 . S
C1146 C1155 1.390 . S
C1147 C1146 1.387 . S
C1147 C1149 1.387 . S
H1148 C1155 0.950 . S
C1149 C1147 1.387 . S
C1149 C1151 1.390 . S
C1149 H1153 0.950 . S
H1150 C1146 0.950 . S
C1151 C1149 1.390 . S
C1151 C1152 1.387 . S
C1151 H1154 0.950 . S
C1152 C1151 1.387 . S
C1152 C1155 1.387 . S
H1153 C1149 0.950 . S
H1154 C1151 0.950 . S
C1155 C1146 1.390 . S
C1155 H1148 0.950 . S
C1155 C1152 1.387 . S
C1156 C1157 1.387 . S
C1156 H1160 0.950 . S
C1156 C1165 1.390 . S
C1157 C1156 1.387 . S
C1157 C1159 1.387 . S
H1158 C1165 0.950 . S
C1159 C1157 1.387 . S
C1159 C1161 1.390 . S
C1159 H1163 0.950 . S
H1160 C1156 0.950 . S
C1161 C1159 1.390 . S
C1161 C1162 1.387 . S
C1161 H1164 0.950 . S
C1162 C1161 1.387 . S
C1162 C1165 1.387 . S
H1163 C1159 0.950 . S
H1164 C1161 0.950 . S
C1165 C1156 1.390 . S
C1165 H1158 0.950 . S
C1165 C1162 1.387 . S
C1166 C1167 1.387 . S
C1166 H1170 0.950 . S
C1166 C1175 1.390 . S
C1167 C1166 1.387 . S
C1167 C1169 1.387 . S
H1168 C1175 0.950 . S
C1169 C1167 1.387 . S
C1169 C1171 1.390 . S
C1169 H1173 0.950 . S
H1170 C1166 0.950 . S
C1171 C1169 1.390 . S
C1171 C1172 1.387 . S
C1171 H1174 0.950 . S
C1172 C1171 1.387 . S
C1172 C1175 1.387 . S
H1173 C1169 0.950 . S
H1174 C1171 0.950 . S
C1175 C1166 1.390 . S
C1175 H1168 0.950 . S
C1175 C1172 1.387 . S
C1176 C1177 1.387 . S
C1176 H1180 0.950 . S
C1176 C1185 1.390 1_554 S
C1177 C1176 1.387 . S
C1177 C1179 1.387 . S
H1178 C1185 0.950 . S
C1179 C1177 1.387 . S
C1179 C1181 1.390 1_554 S
C1179 H1183 0.950 . S
H1180 C1176 0.950 . S
C1181 C1179 1.390 1_556 S
C1181 C1182 1.387 . S
C1181 H1184 0.950 . S
C1182 C1181 1.387 . S
C1182 C1185 1.387 . S
H1183 C1179 0.950 . S
H1184 C1181 0.950 . S
C1185 C1176 1.390 1_556 S
C1185 H1178 0.950 . S
C1185 C1182 1.387 . S
C1186 C1187 1.387 . S
C1186 H1190 0.950 . S
C1186 C1195 1.390 1_455 S
C1187 C1186 1.387 . S
C1187 C1189 1.387 . S
H1188 C1195 0.950 . S
C1189 C1187 1.387 . S
C1189 C1191 1.390 1_455 S
C1189 H1193 0.950 . S
H1190 C1186 0.950 . S
C1191 C1189 1.390 1_655 S
C1191 C1192 1.387 . S
C1191 H1194 0.950 . S
C1192 C1191 1.387 . S
C1192 C1195 1.387 . S
H1193 C1189 0.950 . S
H1194 C1191 0.950 . S
C1195 C1186 1.390 1_655 S
C1195 H1188 0.950 . S
C1195 C1192 1.387 . S
C1196 C1197 1.387 . S
C1196 H1200 0.950 . S
C1196 C1205 1.390 1_455 S
C1197 C1196 1.387 . S
C1197 C1199 1.387 1_554 S
H1198 C1205 0.950 . S
C1199 C1197 1.387 1_556 S
C1199 C1201 1.390 1_455 S
C1199 H1203 0.950 . S
H1200 C1196 0.950 . S
C1201 C1199 1.390 1_655 S
C1201 C1202 1.387 . S
C1201 H1204 0.950 . S
C1202 C1201 1.387 . S
C1202 C1205 1.387 1_556 S
H1203 C1199 0.950 . S
H1204 C1201 0.950 . S
C1205 C1196 1.390 1_655 S
C1205 H1198 0.950 . S
C1205 C1202 1.387 1_554 S
C1206 C1207 1.387 . S
C1206 H1210 0.950 . S
C1206 C1215 1.390 . S
C1207 C1206 1.387 . S
C1207 C1209 1.387 . S
H1208 C1215 0.950 . S
C1209 C1207 1.387 . S
C1209 C1211 1.390 . S
C1209 H1213 0.950 . S
H1210 C1206 0.950 . S
C1211 C1209 1.390 . S
C1211 C1212 1.387 . S
C1211 H1214 0.950 . S
C1212 C1211 1.387 . S
C1212 C1215 1.387 . S
H1213 C1209 0.950 . S
H1214 C1211 0.950 . S
C1215 C1206 1.390 . S
C1215 H1208 0.950 . S
C1215 C1212 1.387 . S
C1216 C1217 1.387 . S
C1216 H1220 0.950 . S
C1216 C1225 1.390 1_545 S
C1217 C1216 1.387 . S
C1217 C1219 1.387 . S
H1218 C1225 0.950 . S
C1219 C1217 1.387 . S
C1219 C1221 1.390 1_545 S
C1219 H1223 0.950 . S
H1220 C1216 0.950 . S
C1221 C1219 1.390 1_565 S
C1221 C1222 1.387 . S
C1221 H1224 0.950 . S
C1222 C1221 1.387 . S
C1222 C1225 1.387 . S
H1223 C1219 0.950 . S
H1224 C1221 0.950 . S
C1225 C1216 1.390 1_565 S
C1225 H1218 0.950 . S
C1225 C1222 1.387 . S
C1226 C1227 1.387 . S
C1226 H1230 0.950 . S
C1226 C1235 1.390 . S
C1227 C1226 1.387 . S
C1227 C1229 1.387 . S
H1228 C1235 0.950 . S
C1229 C1227 1.387 . S
C1229 C1231 1.390 . S
C1229 H1233 0.950 . S
H1230 C1226 0.950 . S
C1231 C1229 1.390 . S
C1231 C1232 1.387 . S
C1231 H1234 0.950 . S
C1232 C1231 1.387 . S
C1232 C1235 1.387 . S
H1233 C1229 0.950 . S
H1234 C1231 0.950 . S
C1235 C1226 1.390 . S
C1235 H1228 0.950 . S
C1235 C1232 1.387 . S
C1236 C1237 1.387 . S
C1236 H1240 0.950 . S
C1236 C1245 1.390 1_545 S
C1237 C1236 1.387 . S
C1237 C1239 1.387 . S
H1238 C1245 0.950 . S
C1239 C1237 1.387 . S
C1239 C1241 1.390 1_545 S
C1239 H1243 0.950 . S
H1240 C1236 0.950 . S
C1241 C1239 1.390 1_565 S
C1241 C1242 1.387 . S
C1241 H1244 0.950 . S
C1242 C1241 1.387 . S
C1242 C1245 1.387 . S
H1243 C1239 0.950 . S
H1244 C1241 0.950 . S
C1245 C1236 1.390 1_565 S
C1245 H1238 0.950 . S
C1245 C1242 1.387 . S
C1246 C1247 1.387 . S
C1246 H1250 0.950 . S
C1246 C1255 1.390 1_554 S
C1247 C1246 1.387 . S
C1247 C1249 1.387 . S
H1248 C1255 0.950 . S
C1249 C1247 1.387 . S
C1249 C1251 1.390 1_554 S
C1249 H1253 0.950 . S
H1250 C1246 0.950 . S
C1251 C1249 1.390 1_556 S
C1251 C1252 1.387 . S
C1251 H1254 0.950 . S
C1252 C1251 1.387 . S
C1252 C1255 1.387 . S
H1253 C1249 0.950 . S
H1254 C1251 0.950 . S
C1255 C1246 1.390 1_556 S
C1255 H1248 0.950 . S
C1255 C1252 1.387 . S
C1256 C1257 1.387 . S
C1256 H1260 0.950 . S
C1256 C1265 1.390 1_545 S
C1257 C1256 1.387 . S
C1257 C1259 1.387 . S
H1258 C1265 0.950 . S
C1259 C1257 1.387 . S
C1259 C1261 1.390 1_545 S
C1259 H1263 0.950 . S
H1260 C1256 0.950 . S
C1261 C1259 1.390 1_565 S
C1261 C1262 1.387 . S
C1261 H1264 0.950 . S
C1262 C1261 1.387 . S
C1262 C1265 1.387 . S
H1263 C1259 0.950 . S
H1264 C1261 0.950 . S
C1265 C1256 1.390 1_565 S
C1265 H1258 0.950 . S
C1265 C1262 1.387 . S
C1266 C1267 1.387 . S
C1266 H1270 0.950 . S
C1266 C1275 1.390 . S
C1267 C1266 1.387 . S
C1267 C1269 1.387 . S
H1268 C1275 0.950 . S
C1269 C1267 1.387 . S
C1269 C1271 1.390 . S
C1269 H1273 0.950 . S
H1270 C1266 0.950 . S
C1271 C1269 1.390 . S
C1271 C1272 1.387 . S
C1271 H1274 0.950 . S
C1272 C1271 1.387 . S
C1272 C1275 1.387 . S
H1273 C1269 0.950 . S
H1274 C1271 0.950 . S
C1275 C1266 1.390 . S
C1275 H1268 0.950 . S
C1275 C1272 1.387 . S
C1276 C1277 1.387 . S
C1276 H1280 0.950 . S
C1276 C1285 1.390 1_545 S
C1277 C1276 1.387 . S
C1277 C1279 1.387 . S
H1278 C1285 0.950 . S
C1279 C1277 1.387 . S
C1279 C1281 1.390 1_545 S
C1279 H1283 0.950 . S
H1280 C1276 0.950 . S
C1281 C1279 1.390 1_565 S
C1281 C1282 1.387 . S
C1281 H1284 0.950 . S
C1282 C1281 1.387 . S
C1282 C1285 1.387 . S
H1283 C1279 0.950 . S
H1284 C1281 0.950 . S
C1285 C1276 1.390 1_565 S
C1285 H1278 0.950 . S
C1285 C1282 1.387 . S
C1286 C1287 1.387 . S
C1286 H1290 0.950 . S
C1286 C1295 1.390 1_556 S
C1287 C1286 1.387 . S
C1287 C1289 1.387 . S
H1288 C1295 0.950 . S
C1289 C1287 1.387 . S
C1289 C1291 1.390 1_556 S
C1289 H1293 0.950 . S
H1290 C1286 0.950 . S
C1291 C1289 1.390 1_554 S
C1291 C1292 1.387 . S
C1291 H1294 0.950 . S
C1292 C1291 1.387 . S
C1292 C1295 1.387 . S
H1293 C1289 0.950 . S
H1294 C1291 0.950 . S
C1295 C1286 1.390 1_554 S
C1295 H1288 0.950 . S
C1295 C1292 1.387 . S
C1296 C1297 1.387 . S
C1296 H1300 0.950 . S
C1296 C1305 1.390 . S
C1297 C1296 1.387 . S
C1297 C1299 1.387 . S
H1298 C1305 0.950 . S
C1299 C1297 1.387 . S
C1299 C1301 1.390 . S
C1299 H1303 0.950 . S
H1300 C1296 0.950 . S
C1301 C1299 1.390 . S
C1301 C1302 1.387 . S
C1301 H1304 0.950 . S
C1302 C1301 1.387 . S
C1302 C1305 1.387 . S
H1303 C1299 0.950 . S
H1304 C1301 0.950 . S
C1305 C1296 1.390 . S
C1305 H1298 0.950 . S
C1305 C1302 1.387 . S
C1306 C1307 1.387 . S
C1306 H1310 0.950 . S
C1306 C1315 1.390 1_556 S
C1307 C1306 1.387 . S
C1307 C1309 1.387 . S
H1308 C1315 0.950 . S
C1309 C1307 1.387 . S
C1309 C1311 1.390 1_556 S
C1309 H1313 0.950 . S
H1310 C1306 0.950 . S
C1311 C1309 1.390 1_554 S
C1311 C1312 1.387 . S
C1311 H1314 0.950 . S
C1312 C1311 1.387 . S
C1312 C1315 1.387 . S
H1313 C1309 0.950 . S
H1314 C1311 0.950 . S
C1315 C1306 1.390 1_554 S
C1315 H1308 0.950 . S
C1315 C1312 1.387 . S
C1316 C1317 1.387 . S
C1316 H1320 0.950 . S
C1316 C1325 1.390 . S
C1317 C1316 1.387 . S
C1317 C1319 1.387 . S
H1318 C1325 0.950 . S
C1319 C1317 1.387 . S
C1319 C1321 1.390 . S
C1319 H1323 0.950 . S
H1320 C1316 0.950 . S
C1321 C1319 1.390 . S
C1321 C1322 1.387 . S
C1321 H1324 0.950 . S
C1322 C1321 1.387 . S
C1322 C1325 1.387 . S
H1323 C1319 0.950 . S
H1324 C1321 0.950 . S
C1325 C1316 1.390 . S
C1325 H1318 0.950 . S
C1325 C1322 1.387 . S
C1326 C1327 1.387 . S
C1326 H1330 0.950 . S
C1326 C1335 1.390 . S
C1327 C1326 1.387 . S
C1327 C1329 1.387 . S
H1328 C1335 0.950 . S
C1329 C1327 1.387 . S
C1329 C1331 1.390 . S
C1329 H1333 0.950 . S
H1330 C1326 0.950 . S
C1331 C1329 1.390 . S
C1331 C1332 1.387 . S
C1331 H1334 0.950 . S
C1332 C1331 1.387 . S
C1332 C1335 1.387 . S
H1333 C1329 0.950 . S
H1334 C1331 0.950 . S
C1335 C1326 1.390 . S
C1335 H1328 0.950 . S
C1335 C1332 1.387 . S
C1336 C1337 1.387 . S
C1336 H1340 0.950 . S
C1336 C1345 1.390 . S
C1337 C1336 1.387 . S
C1337 C1339 1.387 . S
H1338 C1345 0.950 . S
C1339 C1337 1.387 . S
C1339 C1341 1.390 . S
C1339 H1343 0.950 . S
H1340 C1336 0.950 . S
C1341 C1339 1.390 . S
C1341 C1342 1.387 . S
C1341 H1344 0.950 . S
C1342 C1341 1.387 . S
C1342 C1345 1.387 . S
H1343 C1339 0.950 . S
H1344 C1341 0.950 . S
C1345 C1336 1.390 . S
C1345 H1338 0.950 . S
C1345 C1342 1.387 . S
C1346 C1347 1.387 . S
C1346 H1350 0.950 . S
C1346 C1355 1.390 1_556 S
C1347 C1346 1.387 . S
C1347 C1349 1.387 . S
H1348 C1355 0.950 . S
C1349 C1347 1.387 . S
C1349 C1351 1.390 1_556 S
C1349 H1353 0.950 . S
H1350 C1346 0.950 . S
C1351 C1349 1.390 1_554 S
C1351 C1352 1.387 . S
C1351 H1354 0.950 . S
C1352 C1351 1.387 . S
C1352 C1355 1.387 . S
H1353 C1349 0.950 . S
H1354 C1351 0.950 . S
C1355 C1346 1.390 1_554 S
C1355 H1348 0.950 . S
C1355 C1352 1.387 . S
C1356 C1357 1.387 . S
C1356 H1360 0.950 . S
C1356 C1365 1.390 . S
C1357 C1356 1.387 . S
C1357 C1359 1.387 . S
H1358 C1365 0.950 . S
C1359 C1357 1.387 . S
C1359 C1361 1.390 . S
C1359 H1363 0.950 . S
H1360 C1356 0.950 . S
C1361 C1359 1.390 . S
C1361 C1362 1.387 . S
C1361 H1364 0.950 . S
C1362 C1361 1.387 . S
C1362 C1365 1.387 . S
H1363 C1359 0.950 . S
H1364 C1361 0.950 . S
C1365 C1356 1.390 . S
C1365 H1358 0.950 . S
C1365 C1362 1.387 . S
C1366 C1367 1.387 . S
C1366 H1370 0.950 . S
C1366 C1375 1.390 . S
C1367 C1366 1.387 . S
C1367 C1369 1.387 . S
H1368 C1375 0.950 . S
C1369 C1367 1.387 . S
C1369 C1371 1.390 . S
C1369 H1373 0.950 . S
H1370 C1366 0.950 . S
C1371 C1369 1.390 . S
C1371 C1372 1.387 . S
C1371 H1374 0.950 . S
C1372 C1371 1.387 . S
C1372 C1375 1.387 . S
H1373 C1369 0.950 . S
H1374 C1371 0.950 . S
C1375 C1366 1.390 . S
C1375 H1368 0.950 . S
C1375 C1372 1.387 . S
C737 N633 1.516 . S
C742 C7 1.521 . S
C747 C30 1.521 . S
C752 N196 1.516 . S
C757 N587 1.515 . S
C762 C53 1.520 . S
C767 C76 1.519 . S
C772 N242 1.514 . S
C777 C99 1.520 . S
C782 N679 1.515 . S
C787 C122 1.521 . S
C792 N334 1.516 . S
C797 C145 1.521 . S
C802 N725 1.516 . S
C807 C168 1.521 . S
C812 N288 1.516 . S
C817 N449 1.516 . S
C822 C191 1.521 . S
C827 N12 1.516 . S
C832 C214 1.521 . S
C837 N403 1.514 . S
C842 C237 1.519 . S
C847 C260 1.519 . S
C852 N58 1.514 . S
C857 N495 1.514 . S
C862 C283 1.519 . S
C867 N150 1.516 . S
C872 C306 1.520 . S
C877 C329 1.521 . S
C882 N541 1.516 . S
C887 N104 1.514 . S
C892 C352 1.519 . S
C897 C375 1.521 . S
C902 N265 1.516 . S
C907 C398 1.521 . S
C912 N564 1.516 . S
C917 N219 1.516 . S
C922 C421 1.521 . S
C927 N610 1.516 . S
C932 C444 1.521 . S
C937 N311 1.516 . S
C942 C467 1.520 . S
C947 N702 1.514 . S
C952 C490 1.519 . S
C957 N357 1.516 . S
C962 C513 1.521 . S
C967 C536 1.521 . S
C972 N656 1.516 . S
C977 N81 1.516 . S
C982 C559 1.521 . S
C987 C582 1.521 . S
C992 N380 1.516 . S
C997 C605 1.521 . S
C1002 N35 1.516 . S
C1007 C628 1.521 . S
C1012 N426 1.516 . S
C1017 C651 1.521 . S
C1022 N127 1.516 . S
C1027 C674 1.521 . S
C1032 N518 1.516 . S
C1037 C697 1.520 . S
C1042 N173 1.515 . S
C1047 C720 1.519 . S
C1052 N472 1.514 . S
C1057 N554 1.421 . S
C1062 N2 1.421 . S
C1067 N25 1.425 . S
C1072 N209 1.425 . S
C1077 N600 1.425 . S
C1082 N48 1.425 . S
C1087 N71 1.421 . S
C1092 N255 1.421 . S
C1097 N646 1.422 . S
C1102 N94 1.422 . S
C1107 N117 1.425 . S
C1112 N301 1.425 . S
C1117 N692 1.420 . S
C1122 N140 1.420 . S
C1127 N163 1.424 . S
C1132 N347 1.424 . S
C1137 N186 1.424 . S
C1142 N370 1.424 . S
C1147 N232 1.423 . S
C1152 N416 1.423 . S
C1157 N278 1.424 . S
C1162 N462 1.424 . S
C1167 N324 1.420 . S
C1172 N508 1.420 . S
C1177 N393 1.421 . S
C1182 N577 1.421 . S
C1187 N623 1.425 . S
C1192 N439 1.425 . S
C1197 N669 1.422 . S
C1202 N485 1.422 . S
C1207 N531 1.424 . S
C1212 N715 1.424 . S
C1217 C16 2.098 . S
C1222 C108 2.098 . S
C1227 C39 2.097 . S
C1232 C131 2.097 . S
C1237 C154 2.097 . S
C1242 C62 2.097 . S
C1247 C85 2.097 . S
C1252 C177 2.097 . S
C1257 C292 2.097 . S
C1262 C200 2.097 . S
C1267 C315 2.097 . S
C1272 C223 2.097 . S
C1277 C246 2.097 . S
C1282 C338 2.097 . S
C1287 C269 2.098 . S
C1292 C361 2.098 . S
C1297 C476 2.097 . S
C1302 C384 2.097 . S
C1307 C499 2.097 . S
C1312 C407 2.097 . S
C1317 C430 2.097 . S
C1322 C522 2.097 . S
C1327 C545 2.097 . S
C1332 C453 2.097 . S
C1337 C660 2.098 . S
C1342 C568 2.098 . S
C1347 C591 2.097 . S
C1352 C683 2.097 . S
C1357 C706 2.097 . S
C1362 C614 2.097 . S
C1367 C637 2.097 . S
C1372 C729 2.097 . S
