# Generated by pormake.
# Topology mok, (4)-cn, num edge types: 1
# Building blocks:
#     Node 0, Type 0, BuildingBlock: QUQFOY_clean_sbu_3, # of connection points: 4
#     Node 1, Type 0, BuildingBlock: QUQFOY_clean_sbu_3, # of connection points: 4
#     Node 2, Type 0, BuildingBlock: QUQFOY_clean_sbu_3, # of connection points: 4
#     Node 3, Type 0, BuildingBlock: QUQFOY_clean_sbu_3, # of connection points: 4
#     Node 4, Type 0, BuildingBlock: QUQFOY_clean_sbu_3, # of connection points: 4
#     Node 5, Type 0, BuildingBlock: QUQFOY_clean_sbu_3, # of connection points: 4
#     Node 6, Type 0, BuildingBlock: QUQFOY_clean_sbu_3, # of connection points: 4
#     Node 7, Type 0, BuildingBlock: QUQFOY_clean_sbu_3, # of connection points: 4
#     Edge 8, Type (0, 0), BuildingBlock: XIVTED_clean_linker_0, # of connection points: 2
#     Edge 9, Type (0, 0), BuildingBlock: XIVTED_clean_linker_0, # of connection points: 2
#     Edge 10, Type (0, 0), BuildingBlock: XIVTED_clean_linker_0, # of connection points: 2
#     Edge 11, Type (0, 0), BuildingBlock: XIVTED_clean_linker_0, # of connection points: 2
#     Edge 12, Type (0, 0), BuildingBlock: XIVTED_clean_linker_0, # of connection points: 2
#     Edge 13, Type (0, 0), BuildingBlock: XIVTED_clean_linker_0, # of connection points: 2
#     Edge 14, Type (0, 0), BuildingBlock: XIVTED_clean_linker_0, # of connection points: 2
#     Edge 15, Type (0, 0), BuildingBlock: XIVTED_clean_linker_0, # of connection points: 2
#     Edge 16, Type (0, 0), BuildingBlock: XIVTED_clean_linker_0, # of connection points: 2
#     Edge 17, Type (0, 0), BuildingBlock: XIVTED_clean_linker_0, # of connection points: 2
#     Edge 18, Type (0, 0), BuildingBlock: XIVTED_clean_linker_0, # of connection points: 2
#     Edge 19, Type (0, 0), BuildingBlock: XIVTED_clean_linker_0, # of connection points: 2
#     Edge 20, Type (0, 0), BuildingBlock: XIVTED_clean_linker_0, # of connection points: 2
#     Edge 21, Type (0, 0), BuildingBlock: XIVTED_clean_linker_0, # of connection points: 2
#     Edge 22, Type (0, 0), BuildingBlock: XIVTED_clean_linker_0, # of connection points: 2
#     Edge 23, Type (0, 0), BuildingBlock: XIVTED_clean_linker_0, # of connection points: 2
# Relax obj value: 0.012
# Max RMSD: 0.032
# Mean RMSD: 0.032
data_MOF--net-mok--node1-QUQFOY_clean_sbu_3--edge1-XIVTED_clean_linker_0
_symmetry_space_group_name_H-M    P1
_symmetry_Int_Tables_number       1
_symmetry_cell_setting            triclinic
loop_
_symmetry_equiv_pos_as_xyz
'x, y, z'
_cell_length_a     55.42054
_cell_length_b     16.260348
_cell_length_c     28.169496
_cell_angle_alpha  90.021279
_cell_angle_beta   90.157308
_cell_angle_gamma 90.131569
loop_
_atom_site_label
_atom_site_type_symbol
_atom_site_fract_x
_atom_site_fract_y
_atom_site_fract_z
_atom_type_partial_charge
C0 C 0.60876 0.45112 0.06858 0.0
O1 O 0.61151 0.50941 0.03909 0.0
Cd2 Cd 0.61061 0.48197 0.9552 0.0
O3 O 0.60309 0.37939 0.05445 0.0
Cd4 Cd 0.59262 0.29888 0.98452 0.0
C5 C 0.65125 0.32006 0.95454 0.0
O6 O 0.57453 0.40691 0.93795 0.0
O7 O 0.58232 0.29359 0.90093 0.0
O8 O 0.55656 0.26327 0.02683 0.0
C9 C 0.57345 0.36542 0.89986 0.0
O10 O 0.64588 0.39451 0.94528 0.0
C11 C 0.55865 0.18606 0.02215 0.0
O12 O 0.63547 0.27032 0.97083 0.0
O13 O 0.57745 0.15986 0.00116 0.0
C14 C 0.37103 0.55099 0.07642 0.0
O15 O 0.36813 0.49175 0.04756 0.0
Cd16 Cd 0.36673 0.51699 0.96345 0.0
O17 O 0.37545 0.6231 0.06137 0.0
Cd18 Cd 0.38319 0.70307 -0.01003 0.0
C19 C 0.32444 0.67391 0.9628 0.0
O20 O 0.40189 0.59535 0.94396 0.0
O21 O 0.39274 0.70718 0.90632 0.0
O22 O 0.41918 0.74328 0.03131 0.0
C23 C 0.40242 0.63657 0.90573 0.0
O24 O 0.33038 0.59971 0.95426 0.0
C25 C 0.41665 0.8201 0.02564 0.0
O26 O 0.33995 0.72595 0.97781 0.0
O27 O 0.39759 0.84417 0.00448 0.0
C28 C 0.61547 0.53482 0.41924 0.0
O29 O 0.61784 0.47573 0.44835 0.0
Cd30 Cd 0.6181 0.50105 0.53244 0.0
O31 O 0.61099 0.60709 0.43392 0.0
Cd32 Cd 0.6026 0.68783 0.50473 0.0
C33 C 0.66104 0.65658 0.53421 0.0
O34 O 0.58301 0.58067 0.54984 0.0
O35 O 0.59223 0.69209 0.58796 0.0
O36 O 0.56722 0.73002 0.462 0.0
C37 C 0.58224 0.62182 0.58809 0.0
O38 O 0.65471 0.58269 0.54282 0.0
C39 C 0.57007 0.80665 0.46822 0.0
O40 O 0.64587 0.70896 0.51851 0.0
O41 O 0.58904 0.82958 0.49018 0.0
C42 C 0.38347 0.45513 0.42582 0.0
O43 O 0.38071 0.51365 0.45518 0.0
Cd44 Cd 0.38075 0.48789 0.5393 0.0
O45 O 0.38879 0.3833 0.44014 0.0
Cd46 Cd 0.39849 0.30207 0.5102 0.0
C47 C 0.33955 0.32648 0.53804 0.0
O48 O 0.41595 0.40993 0.5576 0.0
O49 O 0.40824 0.2961 0.59417 0.0
O50 O 0.43487 0.26636 0.46909 0.0
C51 C 0.41661 0.36873 0.59581 0.0
O52 O 0.34515 0.40081 0.54742 0.0
C53 C 0.43248 0.18911 0.47315 0.0
O54 O 0.35528 0.27595 0.52251 0.0
O55 O 0.4134 0.16297 0.49334 0.0
C56 C 0.10577 0.95053 0.07359 0.0
O57 O 0.10844 0.00913 0.04425 0.0
Cd58 Cd 0.10806 0.9841 0.96003 0.0
O59 O 0.10044 0.8786 0.05927 0.0
Cd60 Cd 0.09067 0.79757 -0.01091 0.0
C61 C 0.14937 0.82377 0.95985 0.0
O62 O 0.07286 0.90526 0.94227 0.0
O63 O 0.08045 0.79179 0.90535 0.0
O64 O 0.05463 0.75882 0.03062 0.0
C65 C 0.07205 0.86426 0.90398 0.0
O66 O 0.14369 0.89803 0.95074 0.0
C67 C 0.05734 0.68183 0.02592 0.0
O68 O 0.13377 0.7729 0.97572 0.0
O69 O 0.07644 0.65738 0.00526 0.0
C70 C 0.87159 0.03529 0.07032 0.0
O71 O 0.86894 0.97678 0.04088 0.0
Cd72 Cd 0.86796 0.00565 0.95703 0.0
O73 O 0.87612 0.10775 0.05599 0.0
Cd74 Cd 0.88441 0.19032 0.98599 0.0
C75 C 0.82572 0.16265 0.95781 0.0
O76 O 0.90317 0.08481 0.93828 0.0
O77 O 0.89378 0.19832 0.90256 0.0
O78 O 0.92041 0.22978 0.02768 0.0
C79 C 0.90355 0.12793 0.90072 0.0
O80 O 0.83158 0.08867 0.94843 0.0
C81 C 0.91754 0.30675 0.02344 0.0
O82 O 0.84126 0.2139 0.97356 0.0
O83 O 0.89835 0.331 0.00284 0.0
C84 C 0.11784 0.04697 0.42302 0.0
O85 O 0.12087 0.98788 0.45187 0.0
Cd86 Cd 0.12251 0.01383 0.53588 0.0
O87 O 0.11331 0.11894 0.43809 0.0
Cd88 Cd 0.10537 0.19882 0.50944 0.0
C89 C 0.16438 0.17293 0.53522 0.0
O90 O 0.08725 0.09052 0.556 0.0
O91 O 0.09642 0.20287 0.59334 0.0
O92 O 0.06888 0.23446 0.46866 0.0
C93 C 0.08683 0.13196 0.59419 0.0
O94 O 0.15862 0.09857 0.54397 0.0
C95 C 0.07076 0.31161 0.47396 0.0
O96 O 0.14868 0.22436 0.52053 0.0
O97 O 0.08972 0.33821 0.49459 0.0
C98 C 0.87921 0.93871 0.42004 0.0
O99 O 0.87679 -0.00185 0.44888 0.0
Cd100 Cd 0.87716 0.97507 0.53305 0.0
O101 O 0.88434 0.8671 0.43498 0.0
Cd102 Cd 0.89422 0.7902 0.50675 0.0
C103 C 0.8356 0.81511 0.53539 0.0
O104 O 0.91264 0.89925 0.55231 0.0
O105 O 0.90325 0.78911 0.59105 0.0
O106 O 0.93053 0.75394 0.46586 0.0
C107 C 0.91284 0.86003 0.59121 0.0
O108 O 0.84148 0.88953 0.54379 0.0
C109 C 0.92873 0.67693 0.47192 0.0
O110 O 0.85107 0.76375 0.51978 0.0
O111 O 0.9099 0.65076 0.49295 0.0
H112 H 0.8066 0.31818 0.9606 0.0
H113 H 0.67001 0.16404 0.96164 0.0
H114 H 0.78661 0.06307 0.943 0.0
H115 H 0.6905 0.41658 0.93597 0.0
H116 H 0.71264 0.12525 0.95825 0.0
H117 H 0.76395 0.3557 0.95529 0.0
C118 C 0.79328 0.27013 0.95545 0.0
C119 C 0.8002 0.18738 0.95237 0.0
C120 C 0.70773 0.18903 0.95302 0.0
C121 C 0.75141 0.22975 0.94664 0.0
C122 C 0.68341 0.2112 0.95501 0.0
C123 C 0.67664 0.2937 0.94926 0.0
C124 C 0.72538 0.24995 0.94585 0.0
C125 C 0.69482 0.3522 0.94065 0.0
C126 C 0.76895 0.29157 0.95229 0.0
C127 C 0.78213 0.12769 0.94552 0.0
N128 N 0.71834 0.3293 0.93962 0.0
N129 N 0.75856 0.14998 0.94328 0.0
H130 H 0.16878 0.66866 0.96628 0.0
H131 H 0.30484 0.82888 0.96563 0.0
H132 H 0.18825 0.92261 0.94227 0.0
H133 H 0.28563 0.57307 0.948 0.0
H134 H 0.26205 0.86481 0.96051 0.0
H135 H 0.21156 0.63198 0.96285 0.0
C136 C 0.182 0.71658 0.96003 0.0
C137 C 0.17489 0.79884 0.95473 0.0
C138 C 0.26726 0.80088 0.95746 0.0
C139 C 0.22381 0.75749 0.95124 0.0
C140 C 0.29167 0.78035 0.9605 0.0
C141 C 0.29885 0.69786 0.95738 0.0
C142 C 0.24991 0.7384 0.95188 0.0
C143 C 0.28096 0.63752 0.95058 0.0
C144 C 0.2064 0.69562 0.958 0.0
C145 C 0.19284 0.85837 0.94658 0.0
N146 N 0.25733 0.65893 0.94844 0.0
N147 N 0.21646 0.83662 0.94549 0.0
H148 H 0.79723 0.91471 0.55462 0.0
H149 H 0.69931 0.55448 0.55054 0.0
H150 H 0.81551 0.66042 0.52906 0.0
H151 H 0.68143 0.81067 0.53095 0.0
H152 H 0.74191 0.59181 0.5554 0.0
H153 H 0.75479 0.87628 0.55887 0.0
C154 C 0.79238 0.85059 0.55023 0.0
C155 C 0.81003 0.79069 0.54118 0.0
C156 C 0.72865 0.63981 0.55019 0.0
C157 C 0.76131 0.74654 0.54608 0.0
C158 C 0.70429 0.61873 0.54759 0.0
C159 C 0.68672 0.67959 0.54008 0.0
C160 C 0.73553 0.72243 0.54573 0.0
C161 C 0.69433 0.7617 0.5365 0.0
C162 C 0.76809 0.82888 0.55248 0.0
C163 C 0.80255 0.70868 0.53584 0.0
N164 N 0.71819 0.78072 0.53935 0.0
N165 N 0.77871 0.689 0.53833 0.0
H166 H 0.1839 0.32841 0.5314 0.0
H167 H 0.32016 0.17101 0.53119 0.0
H168 H 0.20334 0.07324 0.54955 0.0
H169 H 0.30055 0.42474 0.55454 0.0
H170 H 0.27736 0.13361 0.53403 0.0
H171 H 0.2267 0.36535 0.53585 0.0
C172 C 0.19712 0.28024 0.53649 0.0
C173 C 0.18999 0.19764 0.54001 0.0
C174 C 0.28249 0.19737 0.53884 0.0
C175 C 0.23894 0.23931 0.54474 0.0
C176 C 0.30691 0.21874 0.53715 0.0
C177 C 0.31399 0.30112 0.54252 0.0
C178 C 0.26505 0.25895 0.54534 0.0
C179 C 0.29599 0.3604 0.55024 0.0
C180 C 0.22154 0.30134 0.53913 0.0
C181 C 0.20795 0.13777 0.5467 0.0
N182 N 0.27237 0.33825 0.55104 0.0
N183 N 0.23158 0.15972 0.54849 0.0
H184 H 0.61642 0.59747 0.11499 0.0
H185 H 0.61913 0.38767 0.37205 0.0
H186 H 0.60882 0.33626 0.139 0.0
H187 H 0.61597 0.65013 0.34905 0.0
H188 H 0.61998 0.3672 0.28607 0.0
H189 H 0.62075 0.61766 0.20065 0.0
C190 C 0.61572 0.54444 0.13821 0.0
C191 C 0.61205 0.46523 0.11988 0.0
C192 C 0.61917 0.42925 0.29994 0.0
C193 C 0.61705 0.48771 0.21758 0.0
C194 C 0.61873 0.44092 0.34897 0.0
C195 C 0.61725 0.52061 0.36771 0.0
C196 C 0.61821 0.49778 0.2696 0.0
C197 C 0.61688 0.58749 0.33617 0.0
C198 C 0.61818 0.55595 0.18705 0.0
C199 C 0.61141 0.39859 0.15157 0.0
N200 N 0.61727 0.57452 0.28866 0.0
N201 N 0.61382 0.41139 0.19887 0.0
H202 H 0.37076 0.66677 0.14643 0.0
H203 H 0.38362 0.33998 0.35542 0.0
H204 H 0.36957 0.40391 0.12414 0.0
H205 H 0.37565 0.60102 0.3792 0.0
H206 H 0.37835 0.36242 0.27069 0.0
H207 H 0.37205 0.64386 0.23174 0.0
C208 C 0.37068 0.60411 0.15948 0.0
C209 C 0.37025 0.53702 0.12808 0.0
C210 C 0.37767 0.4148 0.2944 0.0
C211 C 0.37181 0.51056 0.22585 0.0
C212 C 0.38078 0.40217 0.34285 0.0
C213 C 0.38022 0.46891 0.37448 0.0
C214 C 0.37411 0.4948 0.2773 0.0
C215 C 0.3763 0.54788 0.35609 0.0
C216 C 0.37138 0.59116 0.20826 0.0
C217 C 0.36997 0.45735 0.14706 0.0
N218 N 0.3735 0.55869 0.30859 0.0
N219 N 0.37093 0.44631 0.19481 0.0
H220 H 0.40911 0.71391 0.82083 0.0
H221 H 0.42239 0.29389 0.68168 0.0
H222 H 0.41681 0.47839 0.88988 0.0
H223 H 0.42438 0.53179 0.6138 0.0
H224 H 0.42599 0.36117 0.75877 0.0
H225 H 0.42003 0.65022 0.7455 0.0
C226 C 0.41332 0.64889 0.82018 0.0
C227 C 0.41163 0.60093 0.86137 0.0
C228 C 0.426 0.39868 0.72701 0.0
C229 C 0.424 0.52763 0.77543 0.0
C230 C 0.4239 0.36029 0.68301 0.0
C231 C 0.42261 0.40756 0.64149 0.0
C232 C 0.42649 0.48492 0.72942 0.0
C233 C 0.425 0.49318 0.64508 0.0
C234 C 0.41964 0.61261 0.77721 0.0
C235 C 0.41761 0.51733 0.85876 0.0
N236 N 0.42642 0.52929 0.68842 0.0
N237 N 0.4232 0.48302 0.8163 0.0
H238 H 0.56208 0.52634 0.88321 0.0
H239 H 0.5667 0.46427 0.60285 0.0
H240 H 0.56796 0.29036 0.8139 0.0
H241 H 0.57621 0.69781 0.67355 0.0
H242 H 0.55626 0.40182 0.67899 0.0
H243 H 0.5562 0.59098 0.80576 0.0
C244 C 0.56176 0.48799 0.85176 0.0
C245 C 0.56606 0.40321 0.85472 0.0
C246 C 0.56033 0.46695 0.67769 0.0
C247 C 0.55943 0.47654 0.76637 0.0
C248 C 0.56628 0.5026 0.6343 0.0
C249 C 0.57283 0.58585 0.63221 0.0
C250 C 0.56095 0.51504 0.71908 0.0
C251 C 0.57172 0.63298 0.67383 0.0
C252 C 0.55844 0.5249 0.80761 0.0
C253 C 0.56518 0.35623 0.81302 0.0
N254 N 0.56619 0.59665 0.71574 0.0
N255 N 0.56227 0.39372 0.7704 0.0
H256 H 0.10598 0.83531 0.1439 0.0
H257 H 0.11785 0.16269 0.35303 0.0
H258 H 0.11335 0.09668 0.12026 0.0
H259 H 0.11967 0.89992 0.37527 0.0
H260 H 0.11672 0.13968 0.26771 0.0
H261 H 0.11118 0.85795 0.22865 0.0
C262 C 0.10868 0.89761 0.15651 0.0
C263 C 0.10908 0.96438 0.12492 0.0
C264 C 0.11749 0.08703 0.29119 0.0
C265 C 0.1151 0.99051 0.22211 0.0
C266 C 0.11809 0.10003 0.33997 0.0
C267 C 0.11866 0.03299 0.37136 0.0
C268 C 0.11729 0.0064 0.27357 0.0
C269 C 0.11916 0.95332 0.35237 0.0
C270 C 0.11174 0.91036 0.20497 0.0
C271 C 0.11283 0.0435 0.14334 0.0
N272 N 0.11829 0.94221 0.30461 0.0
N273 N 0.11559 0.05443 0.19085 0.0
H274 H 0.8795 0.82254 0.35004 0.0
H275 H 0.86992 0.14999 0.14065 0.0
H276 H 0.87179 0.08395 0.37278 0.0
H277 H 0.86984 0.88737 0.11737 0.0
H278 H 0.8697 0.12628 0.22581 0.0
H279 H 0.87528 0.84457 0.26493 0.0
C280 C 0.8769 0.88467 0.33716 0.0
C281 C 0.87616 0.95169 0.36859 0.0
C282 C 0.86961 0.07376 0.20216 0.0
C283 C 0.8713 0.97709 0.2711 0.0
C284 C 0.86979 0.08717 0.15345 0.0
C285 C 0.8701 0.02043 0.12183 0.0
C286 C 0.86991 0.99301 0.21954 0.0
C287 C 0.86969 0.94054 0.1405 0.0
C288 C 0.87441 0.89707 0.28852 0.0
C289 C 0.87258 0.03058 0.34985 0.0
N290 N 0.86978 0.92902 0.18827 0.0
N291 N 0.8704 0.04114 0.30224 0.0
H292 H 0.9307 0.01551 0.60368 0.0
H293 H 0.90817 0.2082 0.81631 0.0
H294 H 0.91115 0.79571 0.68058 0.0
H295 H 0.91915 0.97174 0.88244 0.0
H296 H 0.91777 0.14798 0.73982 0.0
H297 H 0.93658 0.08692 0.67901 0.0
C298 C 0.92772 0.98226 0.63647 0.0
C299 C 0.91979 0.90032 0.63598 0.0
C300 C 0.91887 0.10947 0.77102 0.0
C301 C 0.92564 0.98215 0.72213 0.0
C302 C 0.91308 0.14381 0.81478 0.0
C303 C 0.91252 0.09455 0.85558 0.0
C304 C 0.92411 0.0251 0.76812 0.0
C305 C 0.91915 0.01169 0.85171 0.0
C306 C 0.93083 0.02331 0.6795 0.0
C307 C 0.91677 0.85949 0.67937 0.0
N308 N 0.92428 0.9792 0.80853 0.0
N309 N 0.91941 0.90121 0.72074 0.0
H310 H 0.06576 0.78968 0.81815 0.0
H311 H 0.08058 0.20941 0.67921 0.0
H312 H 0.06481 0.02755 0.88622 0.0
H313 H 0.07208 0.97401 0.61012 0.0
H314 H 0.06949 0.146 0.75455 0.0
H315 H 0.06236 0.85714 0.74113 0.0
C316 C 0.06451 0.85613 0.81687 0.0
C317 C 0.06604 0.90331 0.85842 0.0
C318 C 0.06975 0.10836 0.72283 0.0
C319 C 0.06242 0.98088 0.77058 0.0
C320 C 0.07617 0.14448 0.67986 0.0
C321 C 0.07767 0.09646 0.63864 0.0
C322 C 0.06509 0.02351 0.72459 0.0
C323 C 0.07143 0.01299 0.64126 0.0
C324 C 0.06254 0.89462 0.77291 0.0
C325 C 0.06399 0.989 0.85492 0.0
N326 N 0.06574 0.97885 0.68371 0.0
N327 N 0.06269 0.02521 0.8116 0.0
H328 H 0.41671 0.98893 0.02313 0.0
H329 H 0.55838 0.01741 0.02473 0.0
H330 H 0.46163 0.78029 0.05704 0.0
H331 H 0.5135 0.22938 0.05057 0.0
H332 H 0.52321 0.92863 0.03722 0.0
H333 H 0.45177 0.07918 0.03386 0.0
C334 C 0.43383 0.9623 0.03349 0.0
C335 C 0.43633 0.87703 0.0387 0.0
C336 C 0.52119 0.99455 0.04088 0.0
C337 C 0.47643 0.97926 0.05025 0.0
C338 C 0.54122 0.04513 0.03368 0.0
C339 C 0.53878 0.13078 0.03617 0.0
C340 C 0.49855 0.03013 0.0497 0.0
C341 C 0.51616 0.16359 0.04804 0.0
C342 C 0.45381 0.01373 0.03967 0.0
C343 C 0.45892 0.84569 0.05232 0.0
N344 N 0.49681 0.11328 0.05359 0.0
N345 N 0.47819 0.89665 0.05686 0.0
H346 H 0.52518 0.76946 0.43475 0.0
H347 H 0.47792 0.23166 0.44562 0.0
H348 H 0.57075 0.97541 0.47215 0.0
H349 H 0.43213 0.02045 0.46915 0.0
H350 H 0.51209 0.13971 0.43299 0.0
H351 H 0.49128 0.86351 0.42476 0.0
C352 C 0.52818 0.83466 0.4401 0.0
C353 C 0.55077 0.86466 0.45492 0.0
C354 C 0.49449 0.11362 0.44035 0.0
C355 C 0.51204 0.97217 0.44339 0.0
C356 C 0.47495 0.16587 0.4474 0.0
C357 C 0.45219 0.13354 0.45902 0.0
C358 C 0.4912 0.02848 0.44438 0.0
C359 C 0.44941 0.04788 0.46072 0.0
C360 C 0.50878 0.88809 0.43457 0.0
C361 C 0.55359 0.94969 0.46114 0.0
N362 N 0.46876 -0.00183 0.45374 0.0
N363 N 0.53436 0.00059 0.45563 0.0
H364 H 0.05818 0.51317 0.02708 0.0
H365 H 0.91663 0.4755 0.02455 0.0
H366 H 0.01191 0.72092 0.05474 0.0
H367 H 0.9628 0.26795 0.05374 0.0
H368 H 0.95114 0.56739 0.03712 0.0
H369 H 0.02358 0.42144 0.03838 0.0
C370 C 0.04084 0.53934 0.0362 0.0
C371 C 0.03784 0.6247 0.03947 0.0
C372 C 0.95359 0.50177 0.0415 0.0
C373 C -0.00177 0.52067 0.05168 0.0
C374 C 0.93392 0.4494 0.03425 0.0
C375 C 0.93693 0.36405 0.03759 0.0
C376 C 0.97642 0.46823 0.05127 0.0
C377 C 0.95971 0.33341 0.05046 0.0
C378 C 0.02112 0.48706 0.04272 0.0
C379 C 0.015 0.65544 0.05156 0.0
N380 N 0.97868 0.38539 0.05607 0.0
N381 N -0.00403 0.60353 0.05645 0.0
H382 H 0.02591 0.26597 0.44413 0.0
H383 H 0.97354 0.72187 0.44187 0.0
H384 H 0.06935 0.48052 0.47453 0.0
H385 H 0.93016 0.50811 0.47387 0.0
H386 H 0.00863 0.63311 0.43194 0.0
H387 H 0.99083 0.35448 0.43315 0.0
C388 C 0.02818 0.33186 0.44779 0.0
C389 C 0.05055 0.36599 0.46081 0.0
C390 C 0.99136 0.60569 0.44059 0.0
C391 C 0.01046 0.46717 0.44808 0.0
C392 C 0.97128 0.65609 0.44608 0.0
C393 C 0.94893 0.62227 0.45926 0.0
C394 C 0.98902 0.52083 0.44774 0.0
C395 C 0.94709 0.53669 0.46411 0.0
C396 C 0.0081 0.38212 0.44169 0.0
C397 C 0.0524 0.4517 0.46492 0.0
N398 N 0.96696 0.48879 0.45857 0.0
N399 N 0.03254 0.49948 0.4588 0.0
loop_
_geom_bond_atom_site_label_1
_geom_bond_atom_site_label_2
_geom_bond_distance
_geom_bond_site_symmetry_2
_ccdc_geom_bond_type
C0 O1 1.306 . S
C0 O3 1.160 . S
O1 C0 1.306 . S
O1 Cd2 2.229 1_554 S
Cd2 O1 2.229 1_556 S
Cd2 O6 2.272 . S
Cd2 O10 2.277 1_556 S
O3 C0 1.160 . S
O3 Cd4 2.203 . S
Cd4 O3 2.203 . S
Cd4 O6 2.411 1_554 S
Cd4 O7 2.333 1_554 S
Cd4 O8 2.352 . S
Cd4 O12 2.277 . S
Cd4 O13 2.356 1_554 S
C5 O10 1.209 . S
C5 O12 1.226 . S
O6 Cd2 2.272 . S
O6 Cd4 2.411 1_556 S
O6 C9 1.320 . S
O7 Cd4 2.333 1_556 S
O7 C9 1.214 . S
O8 Cd4 2.352 . S
O8 C11 1.258 . S
C9 O6 1.320 . S
C9 O7 1.214 . S
O10 Cd2 2.277 1_554 S
O10 C5 1.209 . S
C11 O8 1.258 . S
C11 O13 1.282 1_554 S
O12 Cd4 2.277 . S
O12 C5 1.226 . S
O13 Cd4 2.356 1_556 S
O13 C11 1.282 1_556 S
C14 O15 1.306 . S
C14 O17 1.160 . S
O15 C14 1.306 . S
O15 Cd16 2.229 1_554 S
Cd16 O15 2.229 1_556 S
Cd16 O20 2.272 . S
Cd16 O24 2.277 1_556 S
O17 C14 1.160 . S
O17 Cd18 2.203 . S
Cd18 O17 2.203 . S
Cd18 O20 2.411 1_554 S
Cd18 O21 2.333 1_554 S
Cd18 O22 2.352 . S
Cd18 O26 2.277 . S
Cd18 O27 2.356 1_554 S
C19 O24 1.209 . S
C19 O26 1.226 . S
O20 Cd16 2.272 . S
O20 Cd18 2.411 1_556 S
O20 C23 1.320 . S
O21 Cd18 2.333 1_556 S
O21 C23 1.214 . S
O22 Cd18 2.352 . S
O22 C25 1.258 . S
C23 O20 1.320 . S
C23 O21 1.214 . S
O24 Cd16 2.277 1_554 S
O24 C19 1.209 . S
C25 O22 1.258 . S
C25 O27 1.282 1_554 S
O26 Cd18 2.277 . S
O26 C19 1.226 . S
O27 Cd18 2.356 1_556 S
O27 C25 1.282 1_556 S
C28 O29 1.306 . S
C28 O31 1.160 . S
O29 C28 1.306 . S
O29 Cd30 2.228 . S
Cd30 O29 2.228 . S
Cd30 O34 2.273 . S
Cd30 O38 2.277 . S
O31 C28 1.160 . S
O31 Cd32 2.203 . S
Cd32 O31 2.203 . S
Cd32 O34 2.411 . S
Cd32 O35 2.333 . S
Cd32 O36 2.352 . S
Cd32 O40 2.277 . S
Cd32 O41 2.356 . S
C33 O38 1.209 . S
C33 O40 1.226 . S
O34 Cd30 2.273 . S
O34 Cd32 2.411 . S
O34 C37 1.320 . S
O35 Cd32 2.333 . S
O35 C37 1.214 . S
O36 Cd32 2.352 . S
O36 C39 1.258 . S
C37 O34 1.320 . S
C37 O35 1.214 . S
O38 Cd30 2.277 . S
O38 C33 1.209 . S
C39 O36 1.258 . S
C39 O41 1.282 . S
O40 Cd32 2.277 . S
O40 C33 1.226 . S
O41 Cd32 2.356 . S
O41 C39 1.282 . S
C42 O43 1.306 . S
C42 O45 1.160 . S
O43 C42 1.306 . S
O43 Cd44 2.228 . S
Cd44 O43 2.228 . S
Cd44 O48 2.273 . S
Cd44 O52 2.277 . S
O45 C42 1.160 . S
O45 Cd46 2.203 . S
Cd46 O45 2.203 . S
Cd46 O48 2.411 . S
Cd46 O49 2.333 . S
Cd46 O50 2.352 . S
Cd46 O54 2.277 . S
Cd46 O55 2.356 . S
C47 O52 1.209 . S
C47 O54 1.226 . S
O48 Cd44 2.273 . S
O48 Cd46 2.411 . S
O48 C51 1.320 . S
O49 Cd46 2.333 . S
O49 C51 1.214 . S
O50 Cd46 2.352 . S
O50 C53 1.258 . S
C51 O48 1.320 . S
C51 O49 1.214 . S
O52 Cd44 2.277 . S
O52 C47 1.209 . S
C53 O50 1.258 . S
C53 O55 1.282 . S
O54 Cd46 2.277 . S
O54 C47 1.226 . S
O55 Cd46 2.356 . S
O55 C53 1.282 . S
C56 O57 1.306 . S
C56 O59 1.160 . S
O57 C56 1.306 . S
O57 Cd58 2.229 1_554 S
Cd58 O57 2.229 1_556 S
Cd58 O62 2.272 . S
Cd58 O66 2.277 1_556 S
O59 C56 1.160 . S
O59 Cd60 2.203 . S
Cd60 O59 2.203 . S
Cd60 O62 2.411 1_554 S
Cd60 O63 2.333 1_554 S
Cd60 O64 2.352 . S
Cd60 O68 2.277 . S
Cd60 O69 2.356 1_554 S
C61 O66 1.209 . S
C61 O68 1.226 . S
O62 Cd58 2.272 . S
O62 Cd60 2.411 1_556 S
O62 C65 1.320 . S
O63 Cd60 2.333 1_556 S
O63 C65 1.214 . S
O64 Cd60 2.352 . S
O64 C67 1.258 . S
C65 O62 1.320 . S
C65 O63 1.214 . S
O66 Cd58 2.277 1_554 S
O66 C61 1.209 . S
C67 O64 1.258 . S
C67 O69 1.282 1_554 S
O68 Cd60 2.277 . S
O68 C61 1.226 . S
O69 Cd60 2.356 1_556 S
O69 C67 1.282 1_556 S
C70 O71 1.306 . S
C70 O73 1.160 . S
O71 C70 1.306 . S
O71 Cd72 2.229 1_554 S
Cd72 O71 2.229 1_556 S
Cd72 O76 2.272 . S
Cd72 O80 2.277 1_556 S
O73 C70 1.160 . S
O73 Cd74 2.203 . S
Cd74 O73 2.203 . S
Cd74 O76 2.411 1_554 S
Cd74 O77 2.333 1_554 S
Cd74 O78 2.352 . S
Cd74 O82 2.277 . S
Cd74 O83 2.356 1_554 S
C75 O80 1.209 . S
C75 O82 1.226 . S
O76 Cd72 2.272 . S
O76 Cd74 2.411 1_556 S
O76 C79 1.320 . S
O77 Cd74 2.333 1_556 S
O77 C79 1.214 . S
O78 Cd74 2.352 . S
O78 C81 1.258 . S
C79 O76 1.320 . S
C79 O77 1.214 . S
O80 Cd72 2.277 1_554 S
O80 C75 1.209 . S
C81 O78 1.258 . S
C81 O83 1.282 1_554 S
O82 Cd74 2.277 . S
O82 C75 1.226 . S
O83 Cd74 2.356 1_556 S
O83 C81 1.282 1_556 S
C84 O85 1.306 . S
C84 O87 1.160 . S
O85 C84 1.306 . S
O85 Cd86 2.228 . S
Cd86 O85 2.228 . S
Cd86 O90 2.273 . S
Cd86 O94 2.277 . S
O87 C84 1.160 . S
O87 Cd88 2.203 . S
Cd88 O87 2.203 . S
Cd88 O90 2.411 . S
Cd88 O91 2.333 . S
Cd88 O92 2.352 . S
Cd88 O96 2.277 . S
Cd88 O97 2.356 . S
C89 O94 1.209 . S
C89 O96 1.226 . S
O90 Cd86 2.273 . S
O90 Cd88 2.411 . S
O90 C93 1.320 . S
O91 Cd88 2.333 . S
O91 C93 1.214 . S
O92 Cd88 2.352 . S
O92 C95 1.258 . S
C93 O90 1.320 . S
C93 O91 1.214 . S
O94 Cd86 2.277 . S
O94 C89 1.209 . S
C95 O92 1.258 . S
C95 O97 1.282 . S
O96 Cd88 2.277 . S
O96 C89 1.226 . S
O97 Cd88 2.356 . S
O97 C95 1.282 . S
C98 O99 1.306 . S
C98 O101 1.160 . S
O99 C98 1.306 . S
O99 Cd100 2.228 . S
Cd100 O99 2.228 . S
Cd100 O104 2.273 . S
Cd100 O108 2.277 . S
O101 C98 1.160 . S
O101 Cd102 2.203 . S
Cd102 O101 2.203 . S
Cd102 O104 2.411 . S
Cd102 O105 2.333 . S
Cd102 O106 2.352 . S
Cd102 O110 2.277 . S
Cd102 O111 2.356 . S
C103 O108 1.209 . S
C103 O110 1.226 . S
O104 Cd100 2.273 . S
O104 Cd102 2.411 . S
O104 C107 1.320 . S
O105 Cd102 2.333 . S
O105 C107 1.214 . S
O106 Cd102 2.352 . S
O106 C109 1.258 . S
C107 O104 1.320 . S
C107 O105 1.214 . S
O108 Cd100 2.277 . S
O108 C103 1.209 . S
C109 O106 1.258 . S
C109 O111 1.282 . S
O110 Cd102 2.277 . S
O110 C103 1.226 . S
O111 Cd102 2.356 . S
O111 C109 1.282 . S
H112 C118 0.930 . S
H113 C122 0.930 . S
H114 C127 0.929 . S
H115 C125 0.929 . S
H116 C120 0.929 . S
H117 C126 0.929 . S
C118 H112 0.930 . S
C118 C119 1.367 . S
C118 C126 1.378 . S
C119 C118 1.367 . S
C119 C127 1.433 . S
C120 H116 0.929 . S
C120 C122 1.378 . S
C120 C124 1.350 . S
C121 C124 1.463 . S
C121 C126 1.350 . S
C121 N129 1.427 . S
C122 H113 0.930 . S
C122 C120 1.378 . S
C122 C123 1.367 . S
C123 C122 1.367 . S
C123 C125 1.433 . S
C124 C120 1.350 . S
C124 C121 1.463 . S
C124 N128 1.427 . S
C125 H115 0.929 . S
C125 C123 1.433 . S
C125 N128 1.384 . S
C126 H117 0.929 . S
C126 C118 1.378 . S
C126 C121 1.350 . S
C127 H114 0.929 . S
C127 C119 1.433 . S
C127 N129 1.384 . S
N128 C124 1.427 . S
N128 C125 1.384 . S
N129 C121 1.427 . S
N129 C127 1.384 . S
H130 C136 0.930 . S
H131 C140 0.930 . S
H132 C145 0.929 . S
H133 C143 0.929 . S
H134 C138 0.929 . S
H135 C144 0.929 . S
C136 H130 0.930 . S
C136 C137 1.367 1_556 S
C136 C144 1.378 . S
C137 C136 1.367 1_554 S
C137 C145 1.433 . S
C138 H134 0.929 . S
C138 C140 1.378 . S
C138 C142 1.350 . S
C139 C142 1.463 . S
C139 C144 1.350 1_554 S
C139 N147 1.427 . S
C140 H131 0.930 . S
C140 C138 1.378 . S
C140 C141 1.367 . S
C141 C140 1.367 . S
C141 C143 1.433 1_554 S
C142 C138 1.350 . S
C142 C139 1.463 . S
C142 N146 1.427 1_554 S
C143 H133 0.929 . S
C143 C141 1.433 1_556 S
C143 N146 1.384 . S
C144 H135 0.929 . S
C144 C136 1.378 . S
C144 C139 1.350 1_556 S
C145 H132 0.929 . S
C145 C137 1.433 . S
C145 N147 1.384 . S
N146 C142 1.427 1_556 S
N146 C143 1.384 . S
N147 C139 1.427 . S
N147 C145 1.384 . S
H148 C154 0.930 . S
H149 C158 0.930 . S
H150 C163 0.929 . S
H151 C161 0.929 . S
H152 C156 0.929 . S
H153 C162 0.929 . S
C154 H148 0.930 . S
C154 C155 1.367 . S
C154 C162 1.378 . S
C155 C154 1.367 . S
C155 C163 1.433 . S
C156 H152 0.929 . S
C156 C158 1.378 . S
C156 C160 1.350 . S
C157 C160 1.463 . S
C157 C162 1.350 . S
C157 N165 1.427 . S
C158 H149 0.930 . S
C158 C156 1.378 . S
C158 C159 1.367 . S
C159 C158 1.367 . S
C159 C161 1.433 . S
C160 C156 1.350 . S
C160 C157 1.463 . S
C160 N164 1.427 . S
C161 H151 0.929 . S
C161 C159 1.433 . S
C161 N164 1.384 . S
C162 H153 0.929 . S
C162 C154 1.378 . S
C162 C157 1.350 . S
C163 H150 0.929 . S
C163 C155 1.433 . S
C163 N165 1.384 . S
N164 C160 1.427 . S
N164 C161 1.384 . S
N165 C157 1.427 . S
N165 C163 1.384 . S
H166 C172 0.930 . S
H167 C176 0.930 . S
H168 C181 0.929 . S
H169 C179 0.929 . S
H170 C174 0.929 . S
H171 C180 0.929 . S
C172 H166 0.930 . S
C172 C173 1.367 . S
C172 C180 1.378 . S
C173 C172 1.367 . S
C173 C181 1.433 . S
C174 H170 0.929 . S
C174 C176 1.378 . S
C174 C178 1.350 . S
C175 C178 1.463 . S
C175 C180 1.350 . S
C175 N183 1.427 . S
C176 H167 0.930 . S
C176 C174 1.378 . S
C176 C177 1.367 . S
C177 C176 1.367 . S
C177 C179 1.433 . S
C178 C174 1.350 . S
C178 C175 1.463 . S
C178 N182 1.427 . S
C179 H169 0.929 . S
C179 C177 1.433 . S
C179 N182 1.384 . S
C180 H171 0.929 . S
C180 C172 1.378 . S
C180 C175 1.350 . S
C181 H168 0.929 . S
C181 C173 1.433 . S
C181 N183 1.384 . S
N182 C178 1.427 . S
N182 C179 1.384 . S
N183 C175 1.427 . S
N183 C181 1.384 . S
H184 C190 0.930 . S
H185 C194 0.930 . S
H186 C199 0.929 . S
H187 C197 0.929 . S
H188 C192 0.929 . S
H189 C198 0.929 . S
C190 H184 0.930 . S
C190 C191 1.367 . S
C190 C198 1.378 . S
C191 C190 1.367 . S
C191 C199 1.433 . S
C192 H188 0.929 . S
C192 C194 1.378 . S
C192 C196 1.350 . S
C193 C196 1.463 . S
C193 C198 1.350 . S
C193 N201 1.427 . S
C194 H185 0.930 . S
C194 C192 1.378 . S
C194 C195 1.367 . S
C195 C194 1.367 . S
C195 C197 1.433 . S
C196 C192 1.350 . S
C196 C193 1.463 . S
C196 N200 1.427 . S
C197 H187 0.929 . S
C197 C195 1.433 . S
C197 N200 1.384 . S
C198 H189 0.929 . S
C198 C190 1.378 . S
C198 C193 1.350 . S
C199 H186 0.929 . S
C199 C191 1.433 . S
C199 N201 1.384 . S
N200 C196 1.427 . S
N200 C197 1.384 . S
N201 C193 1.427 . S
N201 C199 1.384 . S
H202 C208 0.930 . S
H203 C212 0.930 . S
H204 C217 0.929 . S
H205 C215 0.929 . S
H206 C210 0.929 . S
H207 C216 0.929 . S
C208 H202 0.930 . S
C208 C209 1.367 . S
C208 C216 1.378 . S
C209 C208 1.367 . S
C209 C217 1.433 . S
C210 H206 0.929 . S
C210 C212 1.378 . S
C210 C214 1.350 . S
C211 C214 1.463 . S
C211 C216 1.350 . S
C211 N219 1.427 . S
C212 H203 0.930 . S
C212 C210 1.378 . S
C212 C213 1.367 . S
C213 C212 1.367 . S
C213 C215 1.433 . S
C214 C210 1.350 . S
C214 C211 1.463 . S
C214 N218 1.427 . S
C215 H205 0.929 . S
C215 C213 1.433 . S
C215 N218 1.384 . S
C216 H207 0.929 . S
C216 C208 1.378 . S
C216 C211 1.350 . S
C217 H204 0.929 . S
C217 C209 1.433 . S
C217 N219 1.384 . S
N218 C214 1.427 . S
N218 C215 1.384 . S
N219 C211 1.427 . S
N219 C217 1.384 . S
H220 C226 0.930 . S
H221 C230 0.930 . S
H222 C235 0.929 . S
H223 C233 0.929 . S
H224 C228 0.929 . S
H225 C234 0.929 . S
C226 H220 0.930 . S
C226 C227 1.367 . S
C226 C234 1.378 . S
C227 C226 1.367 . S
C227 C235 1.433 . S
C228 H224 0.929 . S
C228 C230 1.378 . S
C228 C232 1.350 . S
C229 C232 1.463 . S
C229 C234 1.350 . S
C229 N237 1.427 . S
C230 H221 0.930 . S
C230 C228 1.378 . S
C230 C231 1.367 . S
C231 C230 1.367 . S
C231 C233 1.433 . S
C232 C228 1.350 . S
C232 C229 1.463 . S
C232 N236 1.427 . S
C233 H223 0.929 . S
C233 C231 1.433 . S
C233 N236 1.384 . S
C234 H225 0.929 . S
C234 C226 1.378 . S
C234 C229 1.350 . S
C235 H222 0.929 . S
C235 C227 1.433 . S
C235 N237 1.384 . S
N236 C232 1.427 . S
N236 C233 1.384 . S
N237 C229 1.427 . S
N237 C235 1.384 . S
H238 C244 0.930 . S
H239 C248 0.930 . S
H240 C253 0.929 . S
H241 C251 0.929 . S
H242 C246 0.929 . S
H243 C252 0.929 . S
C244 H238 0.930 . S
C244 C245 1.367 . S
C244 C252 1.378 . S
C245 C244 1.367 . S
C245 C253 1.433 . S
C246 H242 0.929 . S
C246 C248 1.378 . S
C246 C250 1.350 . S
C247 C250 1.463 . S
C247 C252 1.350 . S
C247 N255 1.427 . S
C248 H239 0.930 . S
C248 C246 1.378 . S
C248 C249 1.367 . S
C249 C248 1.367 . S
C249 C251 1.433 . S
C250 C246 1.350 . S
C250 C247 1.463 . S
C250 N254 1.427 . S
C251 H241 0.929 . S
C251 C249 1.433 . S
C251 N254 1.384 . S
C252 H243 0.929 . S
C252 C244 1.378 . S
C252 C247 1.350 . S
C253 H240 0.929 . S
C253 C245 1.433 . S
C253 N255 1.384 . S
N254 C250 1.427 . S
N254 C251 1.384 . S
N255 C247 1.427 . S
N255 C253 1.384 . S
H256 C262 0.930 . S
H257 C266 0.930 . S
H258 C271 0.929 . S
H259 C269 0.929 . S
H260 C264 0.929 . S
H261 C270 0.929 . S
C262 H256 0.930 . S
C262 C263 1.367 . S
C262 C270 1.378 . S
C263 C262 1.367 . S
C263 C271 1.433 . S
C264 H260 0.929 . S
C264 C266 1.378 . S
C264 C268 1.350 . S
C265 C268 1.463 1_565 S
C265 C270 1.350 . S
C265 N273 1.427 . S
C266 H257 0.930 . S
C266 C264 1.378 . S
C266 C267 1.367 . S
C267 C266 1.367 . S
C267 C269 1.433 . S
C268 C264 1.350 . S
C268 C265 1.463 1_545 S
C268 N272 1.427 . S
C269 H259 0.929 . S
C269 C267 1.433 . S
C269 N272 1.384 . S
C270 H261 0.929 . S
C270 C262 1.378 . S
C270 C265 1.350 . S
C271 H258 0.929 . S
C271 C263 1.433 . S
C271 N273 1.384 . S
N272 C268 1.427 . S
N272 C269 1.384 . S
N273 C265 1.427 . S
N273 C271 1.384 . S
H274 C280 0.930 . S
H275 C284 0.930 . S
H276 C289 0.929 . S
H277 C287 0.929 . S
H278 C282 0.929 . S
H279 C288 0.929 . S
C280 H274 0.930 . S
C280 C281 1.367 . S
C280 C288 1.378 . S
C281 C280 1.367 . S
C281 C289 1.433 . S
C282 H278 0.929 . S
C282 C284 1.378 . S
C282 C286 1.350 . S
C283 C286 1.463 1_565 S
C283 C288 1.350 . S
C283 N291 1.427 1_565 S
C284 H275 0.930 . S
C284 C282 1.378 . S
C284 C285 1.367 . S
C285 C284 1.367 . S
C285 C287 1.433 . S
C286 C282 1.350 . S
C286 C283 1.463 1_545 S
C286 N290 1.427 1_545 S
C287 H277 0.929 . S
C287 C285 1.433 . S
C287 N290 1.384 1_545 S
C288 H279 0.929 . S
C288 C280 1.378 . S
C288 C283 1.350 . S
C289 H276 0.929 . S
C289 C281 1.433 . S
C289 N291 1.384 1_565 S
N290 C286 1.427 1_565 S
N290 C287 1.384 1_565 S
N291 C283 1.427 1_545 S
N291 C289 1.384 1_545 S
H292 C298 0.930 . S
H293 C302 0.930 . S
H294 C307 0.929 . S
H295 C305 0.929 . S
H296 C300 0.929 . S
H297 C306 0.929 . S
C298 H292 0.930 . S
C298 C299 1.367 . S
C298 C306 1.378 . S
C299 C298 1.367 . S
C299 C307 1.433 . S
C300 H296 0.929 . S
C300 C302 1.378 . S
C300 C304 1.350 . S
C301 C304 1.463 1_565 S
C301 C306 1.350 . S
C301 N309 1.427 . S
C302 H293 0.930 . S
C302 C300 1.378 . S
C302 C303 1.367 . S
C303 C302 1.367 . S
C303 C305 1.433 . S
C304 C300 1.350 . S
C304 C301 1.463 1_545 S
C304 N308 1.427 . S
C305 H295 0.929 . S
C305 C303 1.433 . S
C305 N308 1.384 . S
C306 H297 0.929 . S
C306 C298 1.378 . S
C306 C301 1.350 . S
C307 H294 0.929 . S
C307 C299 1.433 . S
C307 N309 1.384 . S
N308 C304 1.427 . S
N308 C305 1.384 . S
N309 C301 1.427 . S
N309 C307 1.384 . S
H310 C316 0.930 . S
H311 C320 0.930 . S
H312 C325 0.929 1_545 S
H313 C323 0.929 1_565 S
H314 C318 0.929 . S
H315 C324 0.929 . S
C316 H310 0.930 . S
C316 C317 1.367 . S
C316 C324 1.378 . S
C317 C316 1.367 . S
C317 C325 1.433 . S
C318 H314 0.929 . S
C318 C320 1.378 . S
C318 C322 1.350 . S
C319 C322 1.463 1_565 S
C319 C324 1.350 . S
C319 N327 1.427 1_565 S
C320 H311 0.930 . S
C320 C318 1.378 . S
C320 C321 1.367 . S
C321 C320 1.367 . S
C321 C323 1.433 . S
C322 C318 1.350 . S
C322 C319 1.463 1_545 S
C322 N326 1.427 1_545 S
C323 H313 0.929 1_545 S
C323 C321 1.433 . S
C323 N326 1.384 1_545 S
C324 H315 0.929 . S
C324 C316 1.378 . S
C324 C319 1.350 . S
C325 H312 0.929 1_565 S
C325 C317 1.433 . S
C325 N327 1.384 1_565 S
N326 C322 1.427 1_565 S
N326 C323 1.384 1_565 S
N327 C319 1.427 1_545 S
N327 C325 1.384 1_545 S
H328 C334 0.930 . S
H329 C338 0.930 . S
H330 C343 0.929 . S
H331 C341 0.929 . S
H332 C336 0.929 1_565 S
H333 C342 0.929 1_545 S
C334 H328 0.930 . S
C334 C335 1.367 1_556 S
C334 C342 1.378 . S
C335 C334 1.367 1_554 S
C335 C343 1.433 . S
C336 H332 0.929 1_545 S
C336 C338 1.378 . S
C336 C340 1.350 . S
C337 C340 1.463 1_565 S
C337 C342 1.350 1_554 S
C337 N345 1.427 . S
C338 H329 0.930 . S
C338 C336 1.378 . S
C338 C339 1.367 . S
C339 C338 1.367 . S
C339 C341 1.433 1_554 S
C340 C336 1.350 . S
C340 C337 1.463 1_545 S
C340 N344 1.427 1_554 S
C341 H331 0.929 . S
C341 C339 1.433 1_556 S
C341 N344 1.384 . S
C342 H333 0.929 1_565 S
C342 C334 1.378 . S
C342 C337 1.350 1_556 S
C343 H330 0.929 . S
C343 C335 1.433 . S
C343 N345 1.384 . S
N344 C340 1.427 1_556 S
N344 C341 1.384 . S
N345 C337 1.427 . S
N345 C343 1.384 . S
H346 C352 0.930 . S
H347 C356 0.930 . S
H348 C361 0.929 . S
H349 C359 0.929 . S
H350 C354 0.929 . S
H351 C360 0.929 . S
C352 H346 0.930 . S
C352 C353 1.367 . S
C352 C360 1.378 . S
C353 C352 1.367 . S
C353 C361 1.433 . S
C354 H350 0.929 . S
C354 C356 1.378 . S
C354 C358 1.350 . S
C355 C358 1.463 1_565 S
C355 C360 1.350 . S
C355 N363 1.427 . S
C356 H347 0.930 . S
C356 C354 1.378 . S
C356 C357 1.367 . S
C357 C356 1.367 . S
C357 C359 1.433 . S
C358 C354 1.350 . S
C358 C355 1.463 1_545 S
C358 N362 1.427 . S
C359 H349 0.929 . S
C359 C357 1.433 . S
C359 N362 1.384 . S
C360 H351 0.929 . S
C360 C352 1.378 . S
C360 C355 1.350 . S
C361 H348 0.929 . S
C361 C353 1.433 . S
C361 N363 1.384 . S
N362 C358 1.427 . S
N362 C359 1.384 . S
N363 C355 1.427 . S
N363 C361 1.384 . S
H364 C370 0.930 . S
H365 C374 0.930 . S
H366 C379 0.929 . S
H367 C377 0.929 . S
H368 C372 0.929 . S
H369 C378 0.929 . S
C370 H364 0.930 . S
C370 C371 1.367 . S
C370 C378 1.378 . S
C371 C370 1.367 . S
C371 C379 1.433 1_554 S
C372 H368 0.929 . S
C372 C374 1.378 . S
C372 C376 1.350 1_556 S
C373 C376 1.463 1_455 S
C373 C378 1.350 . S
C373 N381 1.427 1_554 S
C374 H365 0.930 . S
C374 C372 1.378 . S
C374 C375 1.367 1_556 S
C375 C374 1.367 1_554 S
C375 C377 1.433 . S
C376 C372 1.350 1_554 S
C376 C373 1.463 1_655 S
C376 N380 1.427 . S
C377 H367 0.929 . S
C377 C375 1.433 . S
C377 N380 1.384 . S
C378 H369 0.929 . S
C378 C370 1.378 . S
C378 C373 1.350 . S
C379 H366 0.929 . S
C379 C371 1.433 1_556 S
C379 N381 1.384 . S
N380 C376 1.427 . S
N380 C377 1.384 . S
N381 C373 1.427 1_556 S
N381 C379 1.384 . S
H382 C388 0.930 . S
H383 C392 0.930 . S
H384 C397 0.929 . S
H385 C395 0.929 . S
H386 C390 0.946 . S
H387 C396 0.946 . S
C388 H382 0.930 . S
C388 C389 1.367 . S
C388 C396 1.378 . S
C389 C388 1.367 . S
C389 C397 1.433 . S
C390 H386 0.946 . S
C390 C392 1.378 . S
C390 C394 1.350 . S
C391 C394 1.463 1_455 S
C391 C396 1.350 . S
C391 N399 1.427 . S
C392 H383 0.930 . S
C392 C390 1.378 . S
C392 C393 1.367 . S
C393 C392 1.367 . S
C393 C395 1.433 . S
C394 C390 1.350 . S
C394 C391 1.463 1_655 S
C394 N398 1.427 . S
C395 H385 0.929 . S
C395 C393 1.433 . S
C395 N398 1.384 . S
C396 H387 0.946 . S
C396 C388 1.378 . S
C396 C391 1.350 . S
C397 H384 0.929 . S
C397 C389 1.433 . S
C397 N399 1.384 . S
N398 C394 1.427 . S
N398 C395 1.384 . S
N399 C391 1.427 . S
N399 C397 1.384 . S
C119 C75 1.501 . S
C123 C5 1.501 . S
C137 C61 1.500 . S
C141 C19 1.500 . S
C155 C103 1.499 . S
C159 C33 1.499 . S
C173 C89 1.501 . S
C177 C47 1.501 . S
C191 C0 1.417 . S
C195 C28 1.416 . S
C209 C14 1.417 . S
C213 C42 1.419 . S
C227 C23 1.414 . S
C231 C51 1.414 . S
C245 C9 1.419 . S
C249 C37 1.419 . S
C263 C56 1.420 . S
C267 C84 1.415 . S
C281 C98 1.415 . S
C285 C70 1.420 . S
C299 C107 1.415 . S
C303 C79 1.415 . S
C317 C65 1.414 . S
C321 C93 1.414 . S
C335 C25 1.496 . S
C339 C11 1.497 . S
C353 C39 1.499 . S
C357 C53 1.498 . S
C371 C67 1.497 . S
C375 C81 1.496 . S
C389 C95 1.498 . S
C393 C109 1.499 . S
