# Generated by pormake.
# Topology snp, (6)-cn, num edge types: 1
# Building blocks:
#     Node 0, Type 0, BuildingBlock: HISSIN_clean_sbu_0, # of connection points: 6
#     Node 1, Type 0, BuildingBlock: HISSIN_clean_sbu_0, # of connection points: 6
#     Node 2, Type 0, BuildingBlock: HISSIN_clean_sbu_0, # of connection points: 6
#     Node 3, Type 0, BuildingBlock: HISSIN_clean_sbu_0, # of connection points: 6
#     Edge 4, Type (0, 0), BuildingBlock: OJICUG_clean_linker_0, # of connection points: 2
#     Edge 5, Type (0, 0), BuildingBlock: OJICUG_clean_linker_0, # of connection points: 2
#     Edge 6, Type (0, 0), BuildingBlock: OJICUG_clean_linker_0, # of connection points: 2
#     Edge 7, Type (0, 0), BuildingBlock: OJICUG_clean_linker_0, # of connection points: 2
#     Edge 8, Type (0, 0), BuildingBlock: OJICUG_clean_linker_0, # of connection points: 2
#     Edge 9, Type (0, 0), BuildingBlock: OJICUG_clean_linker_0, # of connection points: 2
#     Edge 10, Type (0, 0), BuildingBlock: OJICUG_clean_linker_0, # of connection points: 2
#     Edge 11, Type (0, 0), BuildingBlock: OJICUG_clean_linker_0, # of connection points: 2
#     Edge 12, Type (0, 0), BuildingBlock: OJICUG_clean_linker_0, # of connection points: 2
#     Edge 13, Type (0, 0), BuildingBlock: OJICUG_clean_linker_0, # of connection points: 2
#     Edge 14, Type (0, 0), BuildingBlock: OJICUG_clean_linker_0, # of connection points: 2
#     Edge 15, Type (0, 0), BuildingBlock: OJICUG_clean_linker_0, # of connection points: 2
# Relax obj value: 1.048
# Max RMSD: 0.185
# Mean RMSD: 0.185
data_MOF--net-snp--node1-HISSIN_clean_sbu_0--edge1-OJICUG_clean_linker_0
_symmetry_space_group_name_H-M    P1
_symmetry_Int_Tables_number       1
_symmetry_cell_setting            triclinic
loop_
_symmetry_equiv_pos_as_xyz
'x, y, z'
_cell_length_a     20.250126
_cell_length_b     19.270622
_cell_length_c     18.752996
_cell_angle_alpha  91.250923
_cell_angle_beta   90.09121
_cell_angle_gamma 120.29571
loop_
_atom_site_label
_atom_site_type_symbol
_atom_site_fract_x
_atom_site_fract_y
_atom_site_fract_z
_atom_type_partial_charge
Eu0 Eu 0.29587 -0.04548 0.40755 0.0
Eu1 Eu 0.32163 0.12142 0.34261 0.0
C2 C 0.46029 0.1114 0.39717 0.0
C3 C 0.37031 0.8236 0.4845 0.0
C4 C 0.34502 0.72738 0.52649 0.0
C5 C 0.55091 0.89687 0.51089 0.0
C6 C 0.41869 0.70796 0.56298 0.0
C7 C 0.47021 0.90578 0.4778 0.0
C8 C 0.5274 0.79256 0.55179 0.0
C9 C 0.31029 0.83361 0.44998 0.0
O10 O 0.28697 0.04702 1.23918 0.0
O11 O 0.27824 -0.06811 1.28386 0.0
C12 C 0.27225 -0.02763 1.22976 0.0
O13 O 0.17741 0.90843 0.37244 0.0
O14 O 0.37367 0.22987 1.27955 0.0
O15 O 0.29934 0.21827 0.36774 0.0
O16 O 0.19707 0.02981 1.32985 0.0
C17 C 0.15455 -0.04829 0.33967 0.0
O18 O 0.24165 0.00188 0.49066 0.0
O19 O 0.3225 0.13175 0.46352 0.0
O20 O 0.43609 0.13105 0.3411 0.0
O21 O 0.2769 0.86462 0.48792 0.0
O22 O 0.32823 0.86449 0.38699 0.0
O23 O 0.41106 0.05864 0.44044 0.0
C24 C 0.31345 0.30853 1.27904 0.0
C25 C 0.27067 0.2788 1.21571 0.0
C26 C 0.31076 0.43241 1.26928 0.0
C27 C 0.25016 0.3269 1.17812 0.0
C28 C 0.3314 0.38433 1.30673 0.0
C29 C 0.27206 0.4051 1.20353 0.0
C30 C 0.34203 0.26329 1.31678 0.0
C31 C 0.26885 0.07957 0.50468 0.0
H32 H 0.28565 0.68032 0.52768 0.0
H33 H 0.60913 -0.0576 0.49949 0.0
H34 H 0.4033 0.64885 0.5812 0.0
H35 H 0.4815 -0.04149 0.44937 0.0
H36 H 0.25551 0.21986 1.19422 0.0
H37 H 0.32925 0.49266 1.28951 0.0
H38 H 0.22047 0.30448 1.1274 0.0
H39 H 0.36392 0.40755 0.35613 0.0
Eu40 Eu -0.0054 0.18905 0.80566 0.0
Eu41 Eu 0.1444 0.34674 0.83613 0.0
C42 C 0.0061 0.35301 0.7905 0.0
C43 C 0.79206 0.09164 0.76281 0.0
C44 C 0.7829 0.14407 0.80995 0.0
C45 C 0.72526 0.11987 0.67117 0.0
C46 C 0.75065 0.18876 0.7858 0.0
C47 C 0.7567 0.07463 0.69548 0.0
C48 C 0.72846 0.18288 0.71383 0.0
C49 C 0.85603 0.07664 0.77411 0.0
O50 O 0.09004 0.31267 0.94951 0.0
O51 O -0.03275 0.22365 0.91237 0.0
C52 C 0.01655 0.26289 0.9643 0.0
O53 O 0.06535 0.16273 0.88472 0.0
O54 O 0.18847 0.46172 0.78347 0.0
O55 O 0.25297 0.45017 0.87027 0.0
O56 O 0.18432 0.27891 0.89605 0.0
C57 C 0.13574 0.20513 0.91285 0.0
O58 O 0.07166 0.15436 0.74845 0.0
O59 O 0.16622 0.28446 0.73671 0.0
O60 O 0.04403 0.36314 0.84844 0.0
O61 O 0.9097 0.10843 0.72646 0.0
O62 O 0.8844 0.08951 0.83878 0.0
O63 O -0.00058 0.29542 0.74774 0.0
C64 C 0.24511 0.5671 0.86988 0.0
C65 C 0.17858 0.55199 0.90623 0.0
C66 C 0.32029 0.66462 0.96253 0.0
C67 C 0.18512 0.58263 0.97575 0.0
C68 C 0.31541 0.632 0.89379 0.0
C69 C 0.25785 0.62347 1.00813 0.0
C70 C 0.24407 0.49978 0.83018 0.0
C71 C 0.1366 0.20652 0.72021 0.0
H72 H 0.80847 0.15777 0.86291 0.0
H73 H 0.70883 0.11257 0.61565 0.0
H74 H 0.75172 0.23454 0.82112 0.0
H75 H 0.76249 0.03427 0.65821 0.0
H76 H 0.12278 0.50649 0.88678 0.0
H77 H 0.37617 0.70531 0.98525 0.0
H78 H 0.13439 0.55661 1.00827 0.0
H79 H 0.36756 0.64803 0.86541 0.0
Eu80 Eu 0.89187 0.1283 0.38669 0.0
Eu81 Eu 0.76464 -0.01829 0.3475 0.0
C82 C 0.73473 0.11457 0.39749 0.0
C83 C -0.03953 0.34004 0.42571 0.0
C84 C 0.89554 0.33997 0.39852 0.0
C85 C -0.05392 0.3967 0.53726 0.0
C86 C 0.85286 0.36175 0.44262 0.0
C87 C -0.01069 0.37623 0.49285 0.0
C88 C 0.87301 0.3815 0.51526 0.0
C89 C -0.01714 0.28303 0.39596 0.0
O90 O 0.84068 0.08958 1.27232 0.0
O91 O 0.84143 0.08928 1.27202 0.0
C92 C 0.8896 0.08883 1.22542 0.0
O93 O -0.04666 0.06428 0.34966 0.0
O94 O 0.64118 0.89369 0.3494 0.0
O95 O 0.71498 0.88645 1.26781 0.0
O96 O 0.84569 -0.05985 1.33399 0.0
C97 C 0.91899 -0.01313 1.33351 0.0
O98 O 0.906 0.05965 0.47632 0.0
O99 O 0.78441 -0.04555 0.46392 0.0
O100 O 0.71868 0.0643 0.34471 0.0
O101 O -0.01605 0.23382 0.44217 0.0
O102 O -0.05058 0.2456 1.33618 0.0
O103 O 0.79193 0.1294 0.43959 0.0
C104 C 0.58286 0.82114 1.23912 0.0
C105 C 0.598 0.84378 1.16786 0.0
C106 C 0.47066 0.69598 1.20051 0.0
C107 C 0.55459 0.78917 1.11332 0.0
C108 C 0.51502 0.75035 1.25515 0.0
C109 C 0.49516 0.71119 1.12943 0.0
C110 C 0.64552 0.85572 1.2924 0.0
C111 C 0.85135 -0.0101 0.4985 0.0
H112 H 0.8726 0.31463 0.34599 0.0
H113 H -0.03391 0.41386 0.59168 0.0
H114 H 0.79966 0.35399 0.42168 0.0
H115 H 0.04004 0.3787 0.51475 0.0
H116 H 0.6491 0.89912 1.15404 0.0
H117 H 0.42279 0.63836 1.21484 0.0
H118 H 0.57509 0.80501 1.05955 0.0
H119 H 0.50087 0.73251 1.30978 0.0
Eu120 Eu 0.10579 0.84204 0.7782 0.0
Eu121 Eu -0.05303 0.74977 0.86795 0.0
C122 C 0.00854 0.65015 0.77935 0.0
C123 C 0.28795 0.89925 0.67807 0.0
C124 C 0.27973 0.82366 0.68887 0.0
C125 C 0.40514 -0.06034 0.6143 0.0
C126 C 0.33241 0.80515 0.66012 0.0
C127 C 0.35185 -0.04197 0.64254 0.0
C128 C 0.39301 0.8613 0.61868 0.0
C129 C 0.2277 0.91495 0.70024 0.0
O130 O 0.04259 0.77528 0.95165 0.0
O131 O 0.15362 0.85767 0.89183 0.0
C132 C 0.11812 0.82484 0.95163 0.0
O133 O 0.07847 -0.06808 0.82309 0.0
O134 O 0.84386 0.73635 0.91567 0.0
O135 O 0.87183 0.64158 0.92707 0.0
O136 O 0.01313 0.86897 0.92258 0.0
C137 C 0.06253 -0.06651 0.89034 0.0
O138 O 0.01664 0.84361 0.70443 0.0
O139 O 0.91384 0.80744 0.77732 0.0
O140 O -0.05122 0.65718 0.79339 0.0
O141 O 0.15979 0.86364 0.67486 0.0
O142 O 0.22678 -0.06833 0.76781 0.0
O143 O 0.07757 0.71306 0.78136 0.0
C144 C 0.74176 0.60662 0.94163 0.0
C145 C 0.7108 0.56899 1.00579 0.0
C146 C 0.61428 0.56539 0.89762 0.0
C147 C 0.63313 0.53672 1.01841 0.0
C148 C 0.69269 0.59929 0.88549 0.0
C149 C 0.58525 0.54255 0.96692 0.0
C150 C 0.82365 0.66597 0.94132 0.0
C151 C -0.05017 0.83779 0.71678 0.0
H152 H 0.23146 0.77831 0.71783 0.0
H153 H 0.45451 -0.01416 0.58769 0.0
H154 H 0.32473 0.74611 0.66858 0.0
H155 H 0.35959 0.01732 0.63532 0.0
H156 H 0.7479 0.57268 1.04927 0.0
H157 H 0.57859 0.56614 0.85499 0.0
H158 H 0.61428 0.51782 1.07208 0.0
H159 H 0.71563 0.62619 0.83465 0.0
C160 C 0.00776 -0.03075 1.2588 0.0
C161 C -0.03754 -0.05094 1.31917 0.0
H162 H 0.10556 -0.02682 1.21337 0.0
C163 C -0.03733 0.89629 0.36908 0.0
H164 H 0.00462 0.0069 1.21838 0.0
C165 C 0.02064 0.87824 0.36696 0.0
C166 C 0.07663 0.91437 1.31521 0.0
H167 H 0.92443 0.8776 0.41406 0.0
H168 H 0.0293 0.84979 0.41243 0.0
C169 C 0.06355 -0.05178 1.25521 0.0
C170 C 0.18093 0.06328 0.90797 0.0
C171 C 0.10758 0.00705 0.93139 0.0
H172 H 0.2598 0.18802 0.89771 0.0
C173 C 0.07441 0.0276 0.98712 0.0
H174 H 0.21026 0.04684 0.86878 0.0
C175 C 0.10445 0.10856 1.00413 0.0
C176 C 0.1615 0.16472 0.96013 0.0
H177 H 0.02006 -0.01621 1.00917 0.0
H178 H 0.07011 0.12521 1.03616 0.0
C179 C 0.21058 0.14376 0.92644 0.0
C180 C 0.63438 0.11618 0.46908 0.0
C181 C 0.68218 0.14384 0.41044 0.0
H182 H 0.5282 0.09147 0.5136 0.0
C183 C 0.66364 0.17731 0.35349 0.0
H184 H 0.64615 0.0872 0.51181 0.0
C185 C 0.59355 0.17469 0.35186 0.0
C186 C 0.54195 0.13895 0.40757 0.0
H187 H 0.69974 0.1978 1.30704 0.0
H188 H 0.57718 0.19362 1.30431 0.0
C189 C 0.56591 0.1167 0.46888 0.0
C190 C 0.04024 0.47779 0.72447 0.0
C191 C -0.00817 0.41824 0.77173 0.0
H192 H 0.08466 0.59927 0.69037 0.0
C193 C -0.0537 0.4344 0.81765 0.0
H194 H 0.07883 0.46846 0.6911 0.0
C195 C -0.05238 0.50754 0.8157 0.0
C196 C -0.00158 0.56859 0.77098 0.0
H197 H 0.91134 0.39108 0.85701 0.0
H198 H 0.91272 0.51835 0.85293 0.0
C199 C 0.04424 0.55284 0.72471 0.0
C200 C 0.2334 0.22612 0.62205 0.0
C201 C 0.17399 0.17517 0.66755 0.0
H202 H 0.30886 0.23713 0.53681 0.0
C203 C 0.14907 0.0919 0.66133 0.0
H204 H 0.25498 0.29023 0.62446 0.0
C205 C 0.18072 0.06095 0.61093 0.0
C206 C 0.23847 0.1116 0.56397 0.0
H207 H 0.10436 0.04992 0.69559 0.0
H208 H 0.15927 -0.00307 0.6082 0.0
C209 C 0.2646 0.19507 0.57138 0.0
C210 C 0.03447 0.23311 1.0922 0.0
C211 C -0.01222 0.23783 1.03917 0.0
H212 H 0.03957 0.18018 1.19065 0.0
C213 C 0.90865 0.20171 1.05347 0.0
H214 H 0.09505 0.25899 1.08323 0.0
C215 C 0.87688 0.15855 1.11636 0.0
C216 C 0.92288 0.14802 1.16614 0.0
H217 H 0.87031 0.20333 1.01407 0.0
H218 H 0.8156 0.12883 1.12352 0.0
C219 C 0.0023 0.18722 1.1537 0.0
C220 C 0.84485 0.86254 0.66139 0.0
C221 C 0.91924 0.87244 0.66112 0.0
H222 H 0.76344 0.88876 0.61064 0.0
C223 C -0.03211 0.91989 0.60642 0.0
H224 H 0.80488 0.82676 0.70198 0.0
C225 C -0.05455 -0.04208 0.55641 0.0
C226 C 0.87153 -0.05202 0.55571 0.0
H227 H 0.02477 -0.07126 0.60227 0.0
H228 H -0.01356 -0.00561 0.51669 0.0
C229 C 0.82092 0.89842 0.60877 0.0
C230 C 0.13737 0.81546 1.0868 0.0
C231 C 0.16218 0.85739 1.02236 0.0
H232 H 0.15333 0.81661 1.20103 0.0
C233 C 0.22684 -0.06419 1.0273 0.0
H234 H 0.08761 0.75561 1.08633 0.0
C235 C 0.26316 -0.02822 1.09355 0.0
C236 C 0.23854 -0.06991 1.15791 0.0
H237 H 0.24785 -0.02868 0.97995 0.0
H238 H 0.31043 0.03317 1.0944 0.0
C239 C 0.17555 0.85058 1.15299 0.0
C240 C 0.48793 0.65721 1.00467 0.0
C241 C 0.47704 0.64335 1.07811 0.0
H242 H 0.52774 0.63276 0.90859 0.0
C243 C 0.46994 0.57152 1.10335 0.0
H244 H 0.49078 0.70974 0.982 0.0
C245 C 0.48852 0.52446 1.05957 0.0
C246 C 0.51977 0.55178 0.99194 0.0
H247 H 0.45872 0.55586 1.15883 0.0
H248 H 0.48937 0.47399 1.08285 0.0
C249 C 0.50884 0.61167 0.96177 0.0
C250 C 0.52239 0.75922 0.47189 0.0
C251 C 0.56993 0.77363 0.54369 0.0
H252 H 0.42428 0.76552 0.41035 0.0
C253 C 0.55532 0.81349 0.61805 0.0
H254 H 0.53588 0.73261 0.42672 0.0
C255 C 0.50017 0.84797 0.64572 0.0
C256 C 0.4471 0.83749 0.58348 0.0
H257 H 0.59429 0.81917 0.66226 0.0
H258 H 0.50101 0.87085 0.69929 0.0
C259 C 0.45534 0.78 0.46154 0.0
C260 C 0.29294 0.52293 1.04095 0.0
C261 C 0.26831 0.57617 1.06354 0.0
H262 H 0.31074 0.42676 1.06601 0.0
C263 C 0.24257 0.57197 1.13362 0.0
H264 H 0.31298 0.52383 0.98752 0.0
C265 C 0.24323 0.51619 1.18032 0.0
C266 C 0.2665 0.46213 1.1561 0.0
H267 H 0.2214 0.61083 1.15171 0.0
H268 H 0.22432 0.51418 1.23461 0.0
C269 C 0.29076 0.46609 1.08591 0.0
C270 C 0.73761 0.29716 0.55692 0.0
C271 C 0.81249 0.3618 0.57029 0.0
H272 H 0.64535 0.18825 0.59834 0.0
C273 C 0.83371 0.38532 0.64214 0.0
H274 H 0.71429 0.28068 0.50343 0.0
C275 C 0.79429 0.3308 0.69582 0.0
C276 C 0.73309 0.25375 0.67787 0.0
H277 H 0.88679 0.43957 0.65603 0.0
H278 H 0.81886 0.34424 0.7487 0.0
C279 C 0.69768 0.24356 0.61117 0.0
loop_
_geom_bond_atom_site_label_1
_geom_bond_atom_site_label_2
_geom_bond_distance
_geom_bond_site_symmetry_2
_ccdc_geom_bond_type
Eu0 C9 2.828 . S
Eu0 O11 2.392 1_554 S
Eu0 O13 2.418 . S
Eu0 O18 2.373 . S
Eu0 O21 2.488 . S
Eu0 O22 2.471 . S
Eu0 O23 2.349 . S
Eu1 O10 2.373 . S
Eu1 O14 2.488 . S
Eu1 O15 2.471 . S
Eu1 O16 2.349 . S
Eu1 O19 2.392 1_556 S
Eu1 O20 2.418 . S
Eu1 C30 2.828 . S
C2 O20 1.244 1_554 S
C2 O23 1.265 . S
C3 C4 1.379 . S
C3 C7 1.373 1_545 S
C3 C9 1.505 . S
C4 C3 1.379 . S
C4 C6 1.369 . S
C4 H32 0.930 . S
C5 C7 1.383 . S
C5 C8 1.382 . S
C5 H33 0.930 . S
C6 C4 1.369 . S
C6 C8 1.392 1_545 S
C6 H34 0.930 . S
C7 C3 1.373 1_565 S
C7 C5 1.383 . S
C7 H35 0.931 . S
C8 C5 1.382 . S
C8 C6 1.392 1_565 S
C9 Eu0 2.828 . S
C9 C3 1.505 . S
C9 O21 1.249 . S
C9 O22 1.244 . S
O10 Eu1 2.373 . S
O10 C12 1.258 . S
O11 Eu0 2.392 1_556 S
O11 C12 1.242 . S
C12 O10 1.258 . S
C12 O11 1.242 . S
O13 Eu0 2.418 . S
O13 C17 1.244 . S
O14 Eu1 2.488 . S
O14 C30 1.249 . S
O15 Eu1 2.471 . S
O15 C30 1.244 . S
O16 Eu1 2.349 . S
O16 C17 1.265 1_556 S
C17 O13 1.244 . S
C17 O16 1.265 1_554 S
O18 Eu0 2.373 . S
O18 C31 1.258 . S
O19 Eu1 2.392 1_554 S
O19 C31 1.242 . S
O20 Eu1 2.418 . S
O20 C2 1.244 1_556 S
O21 Eu0 2.488 . S
O21 C9 1.249 . S
O22 Eu0 2.471 . S
O22 C9 1.244 . S
O23 Eu0 2.349 . S
O23 C2 1.265 . S
C24 C25 1.379 . S
C24 C28 1.373 . S
C24 C30 1.505 . S
C25 C24 1.379 . S
C25 C27 1.369 . S
C25 H36 0.930 . S
C26 C28 1.383 . S
C26 C29 1.382 . S
C26 H37 0.930 . S
C27 C25 1.369 . S
C27 C29 1.392 . S
C27 H38 0.930 . S
C28 C24 1.373 . S
C28 C26 1.383 . S
C28 H39 0.931 . S
C29 C26 1.382 . S
C29 C27 1.392 . S
C30 Eu1 2.828 . S
C30 O14 1.249 . S
C30 O15 1.244 . S
C30 C24 1.505 . S
C31 O18 1.258 . S
C31 O19 1.242 . S
H32 C4 0.930 . S
H33 C5 0.930 . S
H34 C6 0.930 . S
H35 C7 0.931 . S
H36 C25 0.930 . S
H37 C26 0.930 . S
H38 C27 0.930 . S
H39 C28 0.931 . S
Eu40 C49 2.828 . S
Eu40 O51 2.392 . S
Eu40 O53 2.418 . S
Eu40 O58 2.373 . S
Eu40 O61 2.488 . S
Eu40 O62 2.471 . S
Eu40 O63 2.349 . S
Eu41 O50 2.373 . S
Eu41 O54 2.488 . S
Eu41 O55 2.471 . S
Eu41 O56 2.349 . S
Eu41 O59 2.392 . S
Eu41 O60 2.418 . S
Eu41 C70 2.828 . S
C42 O60 1.244 . S
C42 O63 1.265 . S
C43 C44 1.379 . S
C43 C47 1.373 1_455 S
C43 C49 1.505 . S
C44 C43 1.379 . S
C44 C46 1.369 . S
C44 H72 0.930 . S
C45 C47 1.383 . S
C45 C48 1.382 . S
C45 H73 0.930 . S
C46 C44 1.369 . S
C46 C48 1.392 1_455 S
C46 H74 0.930 . S
C47 C43 1.373 1_655 S
C47 C45 1.383 . S
C47 H75 0.931 . S
C48 C45 1.382 . S
C48 C46 1.392 1_655 S
C49 Eu40 2.828 . S
C49 C43 1.505 . S
C49 O61 1.249 . S
C49 O62 1.244 . S
O50 Eu41 2.373 . S
O50 C52 1.258 . S
O51 Eu40 2.392 . S
O51 C52 1.242 . S
C52 O50 1.258 . S
C52 O51 1.242 . S
O53 Eu40 2.418 . S
O53 C57 1.244 . S
O54 Eu41 2.488 . S
O54 C70 1.249 . S
O55 Eu41 2.471 . S
O55 C70 1.244 . S
O56 Eu41 2.349 . S
O56 C57 1.265 . S
C57 O53 1.244 . S
C57 O56 1.265 . S
O58 Eu40 2.373 . S
O58 C71 1.258 . S
O59 Eu41 2.392 . S
O59 C71 1.242 . S
O60 Eu41 2.418 . S
O60 C42 1.244 . S
O61 Eu40 2.488 . S
O61 C49 1.249 . S
O62 Eu40 2.471 . S
O62 C49 1.244 . S
O63 Eu40 2.349 . S
O63 C42 1.265 . S
C64 C65 1.379 . S
C64 C68 1.373 . S
C64 C70 1.505 . S
C65 C64 1.379 . S
C65 C67 1.369 . S
C65 H76 0.930 . S
C66 C68 1.383 . S
C66 C69 1.382 . S
C66 H77 0.930 . S
C67 C65 1.369 . S
C67 C69 1.392 . S
C67 H78 0.930 . S
C68 C64 1.373 . S
C68 C66 1.383 . S
C68 H79 0.931 . S
C69 C66 1.382 . S
C69 C67 1.392 . S
C70 Eu41 2.828 . S
C70 O54 1.249 . S
C70 O55 1.244 . S
C70 C64 1.505 . S
C71 O58 1.258 . S
C71 O59 1.242 . S
H72 C44 0.930 . S
H73 C45 0.930 . S
H74 C46 0.930 . S
H75 C47 0.931 . S
H76 C65 0.930 . S
H77 C66 0.930 . S
H78 C67 0.930 . S
H79 C68 0.931 . S
Eu80 C89 2.828 . S
Eu80 O91 2.392 1_554 S
Eu80 O93 2.418 . S
Eu80 O98 2.362 1_545 S
Eu80 O101 2.488 . S
Eu80 O102 2.471 . S
Eu80 O103 2.349 . S
Eu81 O90 2.373 1_565 S
Eu81 O94 2.488 . S
Eu81 O95 2.471 . S
Eu81 O96 2.349 . S
Eu81 O99 2.392 1_556 S
Eu81 O100 2.418 . S
Eu81 C110 2.828 . S
C82 O100 1.244 1_554 S
C82 O103 1.265 1_565 S
C83 C84 1.379 . S
C83 C87 1.373 . S
C83 C89 1.505 . S
C84 C83 1.379 . S
C84 C86 1.369 . S
C84 H112 0.930 . S
C85 C87 1.383 . S
C85 C88 1.382 . S
C85 H113 0.930 1_655 S
C86 C84 1.369 . S
C86 C88 1.392 . S
C86 H114 0.930 . S
C87 C83 1.373 . S
C87 C85 1.383 . S
C87 H115 0.931 1_655 S
C88 C85 1.382 . S
C88 C86 1.392 . S
C89 Eu80 2.828 . S
C89 C83 1.505 . S
C89 O101 1.249 . S
C89 O102 1.244 . S
O90 Eu81 2.373 1_545 S
O90 C92 1.258 . S
O91 Eu80 2.392 1_556 S
O91 C92 1.242 . S
C92 O90 1.258 . S
C92 O91 1.242 . S
O93 Eu80 2.418 . S
O93 C97 1.244 . S
O94 Eu81 2.488 . S
O94 C110 1.249 . S
O95 Eu81 2.471 . S
O95 C110 1.244 . S
O96 Eu81 2.349 . S
O96 C97 1.265 1_566 S
C97 O93 1.244 . S
C97 O96 1.265 1_544 S
O98 Eu80 2.362 1_565 S
O98 C111 1.268 . S
O99 Eu81 2.392 1_554 S
O99 C111 1.242 . S
O100 Eu81 2.418 . S
O100 C82 1.244 1_556 S
O101 Eu80 2.488 . S
O101 C89 1.249 . S
O102 Eu80 2.471 . S
O102 C89 1.244 . S
O103 Eu80 2.349 . S
O103 C82 1.265 1_545 S
C104 C105 1.379 . S
C104 C108 1.373 . S
C104 C110 1.505 . S
C105 C104 1.379 . S
C105 C107 1.369 . S
C105 H116 0.930 . S
C106 C108 1.383 . S
C106 C109 1.382 . S
C106 H117 0.930 . S
C107 C105 1.369 . S
C107 C109 1.392 . S
C107 H118 0.930 . S
C108 C104 1.373 . S
C108 C106 1.383 . S
C108 H119 0.931 . S
C109 C106 1.382 . S
C109 C107 1.392 . S
C110 Eu81 2.828 . S
C110 O94 1.249 . S
C110 O95 1.244 . S
C110 C104 1.505 . S
C111 O98 1.268 . S
C111 O99 1.242 . S
H112 C84 0.930 . S
H113 C85 0.930 1_455 S
H114 C86 0.930 . S
H115 C87 0.931 1_455 S
H116 C105 0.930 . S
H117 C106 0.930 . S
H118 C107 0.930 . S
H119 C108 0.931 . S
Eu120 C129 2.828 . S
Eu120 O131 2.392 . S
Eu120 O133 2.418 . S
Eu120 O138 2.362 1_455 S
Eu120 O141 2.488 . S
Eu120 O142 2.471 . S
Eu120 O143 2.349 . S
Eu121 O130 2.373 1_655 S
Eu121 O134 2.488 . S
Eu121 O135 2.471 . S
Eu121 O136 2.349 . S
Eu121 O139 2.392 . S
Eu121 O140 2.418 . S
Eu121 C150 2.828 . S
C122 O140 1.244 . S
C122 O143 1.265 1_655 S
C123 C124 1.379 . S
C123 C127 1.373 . S
C123 C129 1.505 . S
C124 C123 1.379 . S
C124 C126 1.369 . S
C124 H152 0.930 . S
C125 C127 1.383 . S
C125 C128 1.382 . S
C125 H153 0.930 1_565 S
C126 C124 1.369 . S
C126 C128 1.392 . S
C126 H154 0.930 . S
C127 C123 1.373 . S
C127 C125 1.383 . S
C127 H155 0.931 1_565 S
C128 C125 1.382 . S
C128 C126 1.392 . S
C129 Eu120 2.828 . S
C129 C123 1.505 . S
C129 O141 1.249 . S
C129 O142 1.244 . S
O130 Eu121 2.373 1_455 S
O130 C132 1.258 . S
O131 Eu120 2.392 . S
O131 C132 1.242 . S
C132 O130 1.258 . S
C132 O131 1.242 . S
O133 Eu120 2.418 . S
O133 C137 1.244 . S
O134 Eu121 2.488 . S
O134 C150 1.249 . S
O135 Eu121 2.471 . S
O135 C150 1.244 . S
O136 Eu121 2.349 . S
O136 C137 1.265 1_655 S
C137 O133 1.244 . S
C137 O136 1.265 1_455 S
O138 Eu120 2.362 1_655 S
O138 C151 1.268 . S
O139 Eu121 2.392 . S
O139 C151 1.242 . S
O140 Eu121 2.418 . S
O140 C122 1.244 . S
O141 Eu120 2.488 . S
O141 C129 1.249 . S
O142 Eu120 2.471 . S
O142 C129 1.244 . S
O143 Eu120 2.349 . S
O143 C122 1.265 1_455 S
C144 C145 1.379 . S
C144 C148 1.373 . S
C144 C150 1.505 . S
C145 C144 1.379 . S
C145 C147 1.369 . S
C145 H156 0.930 . S
C146 C148 1.383 . S
C146 C149 1.382 . S
C146 H157 0.930 . S
C147 C145 1.369 . S
C147 C149 1.392 . S
C147 H158 0.930 . S
C148 C144 1.373 . S
C148 C146 1.383 . S
C148 H159 0.931 . S
C149 C146 1.382 . S
C149 C147 1.392 . S
C150 Eu121 2.828 . S
C150 O134 1.249 . S
C150 O135 1.244 . S
C150 C144 1.505 . S
C151 O138 1.268 . S
C151 O139 1.242 . S
H152 C124 0.930 . S
H153 C125 0.930 1_545 S
H154 C126 0.930 . S
H155 C127 0.931 1_545 S
H156 C145 0.930 . S
H157 C146 0.930 . S
H158 C147 0.930 . S
H159 C148 0.931 . S
C160 C161 1.387 1_556 S
C160 H164 0.950 . S
C160 C169 1.390 . S
C161 C160 1.387 1_554 S
C161 C163 1.387 . S
H162 C169 0.950 . S
C163 C161 1.387 . S
C163 C165 1.390 . S
C163 H167 0.950 . S
H164 C160 0.950 . S
C165 C163 1.390 . S
C165 C166 1.387 . S
C165 H168 0.950 . S
C166 C165 1.387 . S
C166 C169 1.387 1_554 S
H167 C163 0.950 . S
H168 C165 0.950 . S
C169 C160 1.390 . S
C169 H162 0.950 . S
C169 C166 1.387 1_556 S
C170 C171 1.387 . S
C170 H174 0.950 . S
C170 C179 1.390 . S
C171 C170 1.387 . S
C171 C173 1.387 . S
H172 C179 0.950 . S
C173 C171 1.387 . S
C173 C175 1.390 . S
C173 H177 0.950 . S
H174 C170 0.950 . S
C175 C173 1.390 . S
C175 C176 1.387 . S
C175 H178 0.950 . S
C176 C175 1.387 . S
C176 C179 1.387 . S
H177 C173 0.950 . S
H178 C175 0.950 . S
C179 C170 1.390 . S
C179 H172 0.950 . S
C179 C176 1.387 . S
C180 C181 1.387 . S
C180 H184 0.950 . S
C180 C189 1.390 . S
C181 C180 1.387 . S
C181 C183 1.387 1_554 S
H182 C189 0.950 . S
C183 C181 1.387 1_556 S
C183 C185 1.390 . S
C183 H187 0.950 . S
H184 C180 0.950 . S
C185 C183 1.390 . S
C185 C186 1.387 1_556 S
C185 H188 0.950 . S
C186 C185 1.387 1_554 S
C186 C189 1.387 . S
H187 C183 0.950 . S
H188 C185 0.950 . S
C189 C180 1.390 . S
C189 H182 0.950 . S
C189 C186 1.387 . S
C190 C191 1.387 . S
C190 H194 0.950 . S
C190 C199 1.390 . S
C191 C190 1.387 . S
C191 C193 1.387 . S
H192 C199 0.950 . S
C193 C191 1.387 . S
C193 C195 1.390 . S
C193 H197 0.950 . S
H194 C190 0.950 . S
C195 C193 1.390 . S
C195 C196 1.387 . S
C195 H198 0.950 . S
C196 C195 1.387 . S
C196 C199 1.387 . S
H197 C193 0.950 . S
H198 C195 0.950 . S
C199 C190 1.390 . S
C199 H192 0.950 . S
C199 C196 1.387 . S
C200 C201 1.387 . S
C200 H204 0.950 . S
C200 C209 1.390 . S
C201 C200 1.387 . S
C201 C203 1.387 . S
H202 C209 0.950 . S
C203 C201 1.387 . S
C203 C205 1.390 . S
C203 H207 0.950 . S
H204 C200 0.950 . S
C205 C203 1.390 . S
C205 C206 1.387 . S
C205 H208 0.950 . S
C206 C205 1.387 . S
C206 C209 1.387 . S
H207 C203 0.950 . S
H208 C205 0.950 . S
C209 C200 1.390 . S
C209 H202 0.950 . S
C209 C206 1.387 . S
C210 C211 1.387 . S
C210 H214 0.950 . S
C210 C219 1.390 . S
C211 C210 1.387 . S
C211 C213 1.387 1_455 S
H212 C219 0.950 . S
C213 C211 1.387 1_655 S
C213 C215 1.390 . S
C213 H217 0.950 . S
H214 C210 0.950 . S
C215 C213 1.390 . S
C215 C216 1.387 . S
C215 H218 0.950 . S
C216 C215 1.387 . S
C216 C219 1.387 1_655 S
H217 C213 0.950 . S
H218 C215 0.950 . S
C219 C210 1.390 . S
C219 H212 0.950 . S
C219 C216 1.387 1_455 S
C220 C221 1.387 . S
C220 H224 0.950 . S
C220 C229 1.390 . S
C221 C220 1.387 . S
C221 C223 1.387 . S
H222 C229 0.950 . S
C223 C221 1.387 . S
C223 C225 1.390 . S
C223 H227 0.950 . S
H224 C220 0.950 . S
C225 C223 1.390 . S
C225 C226 1.387 . S
C225 H228 0.950 . S
C226 C225 1.387 . S
C226 C229 1.387 . S
H227 C223 0.950 . S
H228 C225 0.950 . S
C229 C220 1.390 . S
C229 H222 0.950 . S
C229 C226 1.387 . S
C230 C231 1.387 . S
C230 H234 0.950 . S
C230 C239 1.390 . S
C231 C230 1.387 . S
C231 C233 1.387 1_565 S
H232 C239 0.950 . S
C233 C231 1.387 1_545 S
C233 C235 1.390 . S
C233 H237 0.950 . S
H234 C230 0.950 . S
C235 C233 1.390 . S
C235 C236 1.387 . S
C235 H238 0.950 . S
C236 C235 1.387 . S
C236 C239 1.387 1_545 S
H237 C233 0.950 . S
H238 C235 0.950 . S
C239 C230 1.390 . S
C239 H232 0.950 . S
C239 C236 1.387 1_565 S
C240 C241 1.387 . S
C240 H244 0.950 . S
C240 C249 1.390 . S
C241 C240 1.387 . S
C241 C243 1.387 . S
H242 C249 0.950 . S
C243 C241 1.387 . S
C243 C245 1.390 . S
C243 H247 0.950 . S
H244 C240 0.950 . S
C245 C243 1.390 . S
C245 C246 1.387 . S
C245 H248 0.950 . S
C246 C245 1.387 . S
C246 C249 1.387 . S
H247 C243 0.950 . S
H248 C245 0.950 . S
C249 C240 1.390 . S
C249 H242 0.950 . S
C249 C246 1.387 . S
C250 C251 1.387 1_545 S
C250 H254 0.950 . S
C250 C259 1.390 1_545 S
C251 C250 1.387 1_565 S
C251 C253 1.387 . S
H252 C259 0.950 1_545 S
C253 C251 1.387 . S
C253 C255 1.390 . S
C253 H257 0.950 . S
H254 C250 0.950 . S
C255 C253 1.390 . S
C255 C256 1.387 . S
C255 H258 0.950 . S
C256 C255 1.387 . S
C256 C259 1.387 . S
H257 C253 0.950 . S
H258 C255 0.950 . S
C259 C250 1.390 1_565 S
C259 H252 0.950 1_565 S
C259 C256 1.387 . S
C260 C261 1.387 . S
C260 H264 0.950 . S
C260 C269 1.390 . S
C261 C260 1.387 . S
C261 C263 1.387 . S
H262 C269 0.950 . S
C263 C261 1.387 . S
C263 C265 1.390 . S
C263 H267 0.950 . S
H264 C260 0.950 . S
C265 C263 1.390 . S
C265 C266 1.387 . S
C265 H268 0.950 . S
C266 C265 1.387 . S
C266 C269 1.387 . S
H267 C263 0.950 . S
H268 C265 0.950 . S
C269 C260 1.390 . S
C269 H262 0.950 . S
C269 C266 1.387 . S
C270 C271 1.387 . S
C270 H274 0.950 . S
C270 C279 1.390 . S
C271 C270 1.387 . S
C271 C273 1.387 . S
H272 C279 0.950 1_455 S
C273 C271 1.387 . S
C273 C275 1.390 . S
C273 H277 0.950 . S
H274 C270 0.950 . S
C275 C273 1.390 . S
C275 C276 1.387 . S
C275 H278 0.950 . S
C276 C275 1.387 . S
C276 C279 1.387 . S
H277 C273 0.950 . S
H278 C275 0.950 . S
C279 C270 1.390 . S
C279 H272 0.950 1_655 S
C279 C276 1.387 . S
C161 C97 1.226 1_455 S
C166 C17 1.226 . S
C171 C137 1.221 1_545 S
C176 C57 1.221 . S
C181 C82 1.550 1_545 S
C186 C2 1.550 . S
C191 C42 1.550 . S
C196 C122 1.550 1_455 S
C201 C71 4.772 . S
C206 C31 4.773 . S
C211 C52 4.543 . S
C216 C92 4.543 . S
C221 C151 4.773 . S
C226 C111 4.773 . S
C231 C132 4.543 . S
C236 C12 4.543 . S
C241 C109 0.968 . S
C246 C149 0.970 . S
C251 C8 1.588 . S
C256 C128 1.590 . S
C261 C69 0.969 . S
C266 C29 0.970 . S
C271 C88 1.589 . S
C276 C48 1.590 . S
