# Generated by pormake.
# Topology qtz-e, (6)-cn, num edge types: 1
# Building blocks:
#     Node 0, Type 0, BuildingBlock: UKALOJ_clean_sbu_0, # of connection points: 6
#     Node 1, Type 0, BuildingBlock: UKALOJ_clean_sbu_0, # of connection points: 6
#     Node 2, Type 0, BuildingBlock: UKALOJ_clean_sbu_0, # of connection points: 6
#     Node 3, Type 0, BuildingBlock: UKALOJ_clean_sbu_0, # of connection points: 6
#     Node 4, Type 0, BuildingBlock: UKALOJ_clean_sbu_0, # of connection points: 6
#     Node 5, Type 0, BuildingBlock: UKALOJ_clean_sbu_0, # of connection points: 6
#     Edge 6, Type (0, 0), BuildingBlock: FUNLAD_clean_linker_0, # of connection points: 2
#     Edge 7, Type (0, 0), BuildingBlock: FUNLAD_clean_linker_0, # of connection points: 2
#     Edge 8, Type (0, 0), BuildingBlock: FUNLAD_clean_linker_0, # of connection points: 2
#     Edge 9, Type (0, 0), BuildingBlock: FUNLAD_clean_linker_0, # of connection points: 2
#     Edge 10, Type (0, 0), BuildingBlock: FUNLAD_clean_linker_0, # of connection points: 2
#     Edge 11, Type (0, 0), BuildingBlock: FUNLAD_clean_linker_0, # of connection points: 2
#     Edge 12, Type (0, 0), BuildingBlock: FUNLAD_clean_linker_0, # of connection points: 2
#     Edge 13, Type (0, 0), BuildingBlock: FUNLAD_clean_linker_0, # of connection points: 2
#     Edge 14, Type (0, 0), BuildingBlock: FUNLAD_clean_linker_0, # of connection points: 2
#     Edge 15, Type (0, 0), BuildingBlock: FUNLAD_clean_linker_0, # of connection points: 2
#     Edge 16, Type (0, 0), BuildingBlock: FUNLAD_clean_linker_0, # of connection points: 2
#     Edge 17, Type (0, 0), BuildingBlock: FUNLAD_clean_linker_0, # of connection points: 2
#     Edge 18, Type (0, 0), BuildingBlock: FUNLAD_clean_linker_0, # of connection points: 2
#     Edge 19, Type (0, 0), BuildingBlock: FUNLAD_clean_linker_0, # of connection points: 2
#     Edge 20, Type (0, 0), BuildingBlock: FUNLAD_clean_linker_0, # of connection points: 2
#     Edge 21, Type (0, 0), BuildingBlock: FUNLAD_clean_linker_0, # of connection points: 2
#     Edge 22, Type (0, 0), BuildingBlock: FUNLAD_clean_linker_0, # of connection points: 2
#     Edge 23, Type (0, 0), BuildingBlock: FUNLAD_clean_linker_0, # of connection points: 2
# Relax obj value: 0.456
# Max RMSD: 0.261
# Mean RMSD: 0.261
data_MOF--net-qtz-e--node1-UKALOJ_clean_sbu_0--edge1-FUNLAD_clean_linker_0
_symmetry_space_group_name_H-M    P1
_symmetry_Int_Tables_number       1
_symmetry_cell_setting            triclinic
loop_
_symmetry_equiv_pos_as_xyz
'x, y, z'
_cell_length_a     31.826441
_cell_length_b     31.720827
_cell_length_c     42.51807
_cell_angle_alpha  89.93398
_cell_angle_beta   90.109211
_cell_angle_gamma 120.02713
loop_
_atom_site_label
_atom_site_type_symbol
_atom_site_fract_x
_atom_site_fract_y
_atom_site_fract_z
_atom_type_partial_charge
Zn0 Zn 0.23024 0.41374 0.01407 0.0
O1 O 0.17404 0.42997 0.01393 0.0
C2 C 0.16959 0.31818 0.04164 0.0
Zn3 Zn 0.19076 0.36082 0.97615 0.0
C4 C 0.13579 0.40722 -0.00247 0.0
O5 O 0.13038 0.3723 0.98008 0.0
C6 C 0.28878 0.37342 -0.00891 0.0
O7 O 0.21964 0.41491 0.94083 0.0
O8 O 0.26415 0.46487 0.9783 0.0
N9 N 0.15359 0.30716 0.94385 0.0
C10 C 0.16519 0.29929 0.91483 0.0
C11 C 0.09649 0.2381 0.92649 0.0
N12 N 0.11078 0.26924 0.95096 0.0
N13 N 0.1298 0.25637 0.9034 0.0
C14 C 0.2533 0.48774 0.06751 0.0
C15 C 0.32993 0.53348 0.06318 0.0
N16 N 0.26834 0.46789 0.04548 0.0
N17 N 0.31602 0.49609 0.04299 0.0
N18 N 0.29112 0.52918 0.07864 0.0
H19 H 0.18268 0.48044 0.06534 0.0
H20 H 0.20157 0.47486 0.10416 0.0
H21 H 0.18242 0.42558 0.07624 0.0
C22 C 0.20205 0.46566 0.07904 0.0
C23 C 0.21235 0.33193 0.89851 0.0
H24 H 0.24088 0.35613 0.91519 0.0
H25 H 0.20673 0.35497 0.88129 0.0
H26 H 0.22503 0.31007 0.8855 0.0
O27 O 0.25364 0.35244 0.9718 0.0
O28 O 0.28637 0.39885 0.01318 0.0
C29 C 0.25265 0.45692 0.94947 0.0
O30 O 0.19698 0.36228 0.04962 0.0
O31 O 0.16174 0.30728 0.0126 0.0
Zn32 Zn 0.82083 0.17922 0.3053 0.0
O33 O 0.79435 0.20176 0.26766 0.0
C34 C 0.89625 0.28279 0.3181 0.0
Zn35 Zn 0.79788 0.21468 0.34089 0.0
C36 C 0.77435 0.2267 0.27404 0.0
O37 O 0.77122 0.2369 0.30251 0.0
C38 C 0.84345 0.16634 0.37256 0.0
O39 O 0.73115 0.15122 0.34446 0.0
O40 O 0.75095 0.11434 0.30873 0.0
N41 N 0.77578 0.25054 0.3698 0.0
C42 C 0.7425 0.23504 0.39287 0.0
C43 C 0.76741 0.3105 0.38565 0.0
N44 N 0.79143 0.29747 0.36545 0.0
N45 N 0.73629 0.27185 0.40294 0.0
C46 C 0.87536 0.16109 0.25152 0.0
C47 C 0.85139 0.08544 0.25637 0.0
N48 N 0.84336 0.14419 0.27539 0.0
N49 N 0.8283 0.09711 0.27829 0.0
N50 N 0.88125 0.12513 0.23945 0.0
H51 H 0.87595 0.22838 0.24232 0.0
H52 H 0.90796 0.21304 0.21373 0.0
H53 H 0.93398 0.23471 0.25198 0.0
C54 C 0.89944 0.21221 0.2391 0.0
C55 C 0.71779 0.18464 0.40643 0.0
H56 H 0.68396 0.16137 0.39307 0.0
H57 H 0.70809 0.18517 0.43142 0.0
H58 H 0.74152 0.16844 0.40477 0.0
O59 O 0.8245 0.19242 0.37856 0.0
O60 O 0.84673 0.1558 0.34413 0.0
C61 C 0.72012 0.11394 0.32791 0.0
O62 O 0.88954 0.24659 0.30148 0.0
O63 O 0.86374 0.27788 0.33724 0.0
Zn64 Zn 0.57349 0.80912 0.67962 0.0
O65 O 0.56251 0.73888 0.68252 0.0
C66 C 0.66818 0.84974 0.70984 0.0
Zn67 Zn 0.62952 0.82563 0.64342 0.0
C68 C 0.58761 0.72484 0.66741 0.0
O69 O 0.62162 0.75485 0.64956 0.0
C70 C 0.60858 0.90687 0.65471 0.0
O71 O 0.57857 0.79694 0.60682 0.0
O72 O 0.52375 0.78589 0.64201 0.0
N73 N 0.68549 0.84467 0.6125 0.0
C74 C 0.70003 0.87536 0.5878 0.0
C75 C 0.75227 0.85267 0.59387 0.0
N76 N 0.71784 0.83034 0.61613 0.0
N77 N 0.74188 0.88127 0.57596 0.0
C78 C 0.50265 0.76755 0.73623 0.0
C79 C 0.44743 0.78284 0.72166 0.0
N80 N 0.51711 0.79207 0.7089 0.0
N81 N 0.48299 0.8019 0.70004 0.0
N82 N 0.45912 0.76145 0.7447 0.0
H83 H 0.50387 0.70768 0.75901 0.0
H84 H 0.54343 0.76631 0.77589 0.0
H85 H 0.56013 0.74978 0.73968 0.0
C86 C 0.5292 0.74654 0.75338 0.0
C87 C 0.67277 0.89858 0.57452 0.0
H88 H 0.63328 0.87546 0.5785 0.0
H89 H 0.67954 0.90501 0.54889 0.0
H90 H 0.68556 0.93432 0.58606 0.0
O91 O 0.63345 0.89521 0.63713 0.0
O92 O 0.58285 0.87798 0.67623 0.0
C93 C 0.53475 0.78285 0.61377 0.0
O94 O 0.62367 0.83206 0.71679 0.0
O95 O 0.68046 0.85301 0.68107 0.0
Zn96 Zn 0.77701 0.57657 0.00658 0.0
O97 O 0.83637 0.5663 0.00815 0.0
C98 C 0.83172 0.67195 0.0362 0.0
Zn99 Zn 0.81398 0.63293 0.96987 0.0
C100 C 0.87452 0.59152 -0.00787 0.0
O101 O 0.87711 0.62495 0.97416 0.0
C102 C 0.71319 0.61196 0.98381 0.0
O103 O 0.78917 0.5815 0.93342 0.0
O104 O 0.74869 0.52606 0.96925 0.0
N105 N 0.84927 0.68924 0.93879 0.0
C106 C 0.83593 0.69849 0.91066 0.0
C107 C 0.90234 0.76167 0.92363 0.0
N108 N 0.89071 0.72843 0.94667 0.0
N109 N 0.86874 0.74355 0.90063 0.0
C110 C 0.75016 0.50875 0.06502 0.0
C111 C 0.67882 0.45284 0.05249 0.0
N112 N 0.73943 0.52083 0.03698 0.0
N113 N 0.69503 0.48622 0.02935 0.0
N114 N 0.71256 0.46623 0.07528 0.0
H115 H 0.82677 0.56285 0.0653 0.0
H116 H 0.80934 0.51233 0.0919 0.0
H117 H 0.79458 0.55891 0.10061 0.0
C118 C 0.79814 0.53726 0.08141 0.0
C119 C 0.78922 0.66519 0.894 0.0
H120 H 0.79702 0.64827 0.87369 0.0
H121 H 0.77255 0.6862 0.88477 0.0
H122 H 0.76291 0.63583 0.90936 0.0
O123 O 0.74862 0.63743 0.96554 0.0
O124 O 0.71745 0.58565 0.00448 0.0
C125 C 0.76028 0.5374 0.94065 0.0
O126 O 0.80561 0.62728 0.04336 0.0
O127 O 0.8396 0.68418 0.00738 0.0
Zn128 Zn 0.19571 0.77905 0.34101 0.0
O129 O 0.26532 0.84035 0.34356 0.0
C130 C 0.15419 0.83313 0.36913 0.0
Zn131 Zn 0.17759 0.81514 0.3029 0.0
C132 C 0.27846 0.8771 0.32588 0.0
O133 O 0.24824 0.87779 0.30656 0.0
C134 C 0.09714 0.71443 0.31698 0.0
O135 O 0.20469 0.78963 0.26714 0.0
O136 O 0.22007 0.75176 0.30463 0.0
N137 N 0.15796 0.85068 0.27129 0.0
C138 C 0.13729 0.8381 0.2426 0.0
C139 C 0.14111 0.90505 0.25504 0.0
N140 N 0.16058 0.89244 0.27888 0.0
N141 N 0.12668 0.87177 0.23187 0.0
C142 C 0.2473 0.7559 0.39441 0.0
C143 C 0.21741 0.67935 0.38871 0.0
N144 N 0.21358 0.74143 0.37162 0.0
N145 N 0.19478 0.6938 0.36825 0.0
N146 N 0.25077 0.71778 0.40521 0.0
H147 H 0.30988 0.82687 0.39364 0.0
H148 H 0.28433 0.80655 0.43209 0.0
H149 H 0.25456 0.82597 0.40403 0.0
C150 C 0.27542 0.80681 0.40687 0.0
C151 C 0.12445 0.79144 0.22597 0.0
H152 H 0.12384 0.76389 0.24212 0.0
H153 H 0.1519 0.79904 0.20749 0.0
H154 H 0.08849 0.77626 0.21438 0.0
O155 O 0.10763 0.74994 0.29856 0.0
O156 O 0.12722 0.71832 0.33786 0.0
C157 C 0.22094 0.76214 0.27572 0.0
O158 O 0.17164 0.80636 0.37703 0.0
O159 O 0.15182 0.84178 0.34012 0.0
Zn160 Zn 0.35632 0.1779 0.63813 0.0
O161 O 0.41009 0.20543 0.60342 0.0
C162 C 0.37138 0.09312 0.65082 0.0
Zn163 Zn 0.41006 0.19119 0.67557 0.0
C164 C 0.45306 0.21703 0.61118 0.0
O165 O 0.46247 0.21284 0.63966 0.0
C166 C 0.31341 0.15351 0.70292 0.0
O167 O 0.42425 0.2627 0.67792 0.0
O168 O 0.36696 0.24973 0.64397 0.0
N169 N 0.46286 0.20489 0.70741 0.0
C170 C 0.47459 0.22724 0.73558 0.0
C171 C 0.52799 0.20771 0.72451 0.0
N172 N 0.49584 0.19248 0.7007 0.0
N173 N 0.51534 0.22935 0.74683 0.0
C174 C 0.29017 0.13147 0.58011 0.0
C175 C 0.23867 0.15547 0.58397 0.0
N176 N 0.30337 0.16161 0.60507 0.0
N177 N 0.27152 0.17679 0.60731 0.0
N178 N 0.24967 0.12678 0.56671 0.0
H179 H 0.35629 0.12893 0.57367 0.0
H180 H 0.3123 0.10133 0.54249 0.0
H181 H 0.30222 0.07085 0.57962 0.0
C182 C 0.31709 0.10705 0.56829 0.0
C183 C 0.4477 0.24913 0.75115 0.0
H184 H 0.42265 0.25258 0.73475 0.0
H185 H 0.47363 0.28546 0.76098 0.0
H186 H 0.42575 0.22521 0.77078 0.0
O187 O 0.35734 0.16962 0.71086 0.0
O188 O 0.30258 0.15144 0.67393 0.0
C189 C 0.40099 0.27852 0.66231 0.0
O190 O 0.34934 0.10712 0.63236 0.0
O191 O 0.39731 0.12091 0.67272 0.0
C192 C 0.24614 0.75638 0.22092 0.0
C193 C 0.24117 0.74249 0.25266 0.0
C194 C 0.26467 0.7369 0.1992 0.0
C195 C 0.27792 0.70263 0.20884 0.0
C196 C 0.27445 0.69017 0.24075 0.0
C197 C 0.25618 0.70975 0.26243 0.0
C198 C 0.29355 0.67743 0.18643 0.0
C199 C 0.28051 0.67094 0.15594 0.0
C200 C 0.28693 0.63714 0.13517 0.0
C201 C 0.25497 0.61638 0.10973 0.0
C202 C 0.25663 0.58121 0.09109 0.0
C203 C 0.29021 0.566 0.09759 0.0
H204 H 0.34905 0.64046 0.15918 0.0
C205 C 0.32406 0.58851 0.12185 0.0
C206 C 0.32249 0.62386 0.14059 0.0
H207 H 0.35108 0.57809 0.12655 0.0
H208 H 0.23565 0.7822 0.21282 0.0
H209 H 0.26844 0.74885 0.17502 0.0
H210 H 0.28473 0.66417 0.24886 0.0
H211 H 0.25324 0.69865 0.28681 0.0
H212 H 0.31131 0.65881 0.19634 0.0
H213 H 0.25907 0.68607 0.14668 0.0
H214 H 0.22786 0.62659 0.10464 0.0
H215 H 0.23181 0.56607 0.07146 0.0
C216 C 0.48185 0.24099 0.556 0.0
C217 C 0.4918 0.23522 0.58739 0.0
C218 C 0.51818 0.25672 0.5333 0.0
C219 C 0.56503 0.26646 0.54156 0.0
C220 C 0.57541 0.26258 0.57313 0.0
C221 C 0.53911 0.24691 0.59585 0.0
C222 C 0.60334 0.2789 0.51778 0.0
C223 C 0.59304 0.26221 0.48809 0.0
C224 C 0.63061 0.26715 0.46562 0.0
C225 C 0.61739 0.23165 0.44217 0.0
C226 C 0.65212 0.23318 0.42161 0.0
C227 C 0.70068 0.27031 0.42413 0.0
H228 H 0.6901 0.33455 0.48434 0.0
C229 C 0.71371 0.30712 0.44658 0.0
C230 C 0.67898 0.30558 0.46728 0.0
H231 H 0.75088 0.33665 0.44827 0.0
H232 H 0.44591 0.23302 0.54886 0.0
H233 H 0.50934 0.26103 0.50936 0.0
H234 H 0.61135 0.27031 0.58011 0.0
H235 H 0.54802 0.24331 0.61994 0.0
H236 H 0.6407 0.29747 0.52596 0.0
H237 H 0.55546 0.23946 0.48091 0.0
H238 H 0.58022 0.20216 0.44006 0.0
H239 H 0.64096 0.20562 0.40354 0.0
C240 C 0.26165 0.49236 0.89558 0.0
C241 C 0.27851 0.49644 0.92658 0.0
C242 C 0.28672 0.53044 0.87427 0.0
C243 C 0.32919 0.57296 0.88369 0.0
C244 C 0.34629 0.57655 0.91448 0.0
C245 C 0.32103 0.53891 0.93581 0.0
C246 C 0.35807 0.61328 0.86174 0.0
C247 C 0.33844 0.62526 0.83779 0.0
C248 C 0.36843 0.66412 0.81504 0.0
C249 C 0.35101 0.66078 0.78429 0.0
C250 C 0.38032 0.69398 0.76139 0.0
C251 C 0.42742 0.73096 0.76897 0.0
H252 H 0.42819 0.70872 0.84685 0.0
C253 C 0.44379 0.73635 0.80006 0.0
C254 C 0.41446 0.70339 0.82303 0.0
H255 H 0.47941 0.7658 0.80646 0.0
H256 H 0.22917 0.45985 0.88781 0.0
H257 H 0.27343 0.52597 0.85036 0.0
H258 H 0.37922 0.60874 0.92212 0.0
H259 H 0.33521 0.54298 0.95949 0.0
H260 H 0.39695 0.63373 0.86584 0.0
H261 H 0.29954 0.60445 0.83371 0.0
H262 H 0.31544 0.63134 0.77767 0.0
H263 H 0.36707 0.68965 0.73746 0.0
C264 C 0.73132 0.26995 0.25585 0.0
C265 C 0.75646 0.2453 0.24864 0.0
C266 C 0.7171 0.29039 0.23199 0.0
C267 C 0.7283 0.28704 0.20044 0.0
C268 C 0.75155 0.2606 0.19316 0.0
C269 C 0.76564 0.24001 0.21702 0.0
C270 C 0.71737 0.31143 0.17458 0.0
C271 C 0.7138 0.35158 0.17891 0.0
C272 C 0.70952 0.37969 0.15247 0.0
C273 C 0.72677 0.42962 0.1566 0.0
C274 C 0.72689 0.45809 0.13149 0.0
C275 C 0.70987 0.43705 0.10183 0.0
H276 H 0.67409 0.31943 0.11946 0.0
C277 C 0.69002 0.38666 0.09816 0.0
C278 C 0.68968 0.35814 0.12323 0.0
H279 H 0.67581 0.36953 0.07561 0.0
H280 H 0.72301 0.27393 0.27999 0.0
H281 H 0.69753 0.30881 0.23846 0.0
H282 H 0.7601 0.25702 0.169 0.0
H283 H 0.7847 0.22095 0.2107 0.0
H284 H 0.71701 0.29849 0.1509 0.0
H285 H 0.71889 0.36731 0.20224 0.0
H286 H 0.74127 0.44691 0.17909 0.0
H287 H 0.74037 0.49646 0.13527 0.0
C288 C 0.5074 0.75569 0.55861 0.0
C289 C 0.49657 0.76252 0.58952 0.0
C290 C 0.47118 0.73724 0.53564 0.0
C291 C 0.42358 0.72589 0.54316 0.0
C292 C 0.41251 0.73101 0.57431 0.0
C293 C 0.44862 0.74927 0.59727 0.0
C294 C 0.38505 0.71086 0.51909 0.0
C295 C 0.39478 0.72463 0.48882 0.0
C296 C 0.35696 0.71933 0.4663 0.0
C297 C 0.37063 0.75306 0.44165 0.0
C298 C 0.33576 0.75236 0.42153 0.0
C299 C 0.28656 0.71791 0.42569 0.0
H300 H 0.29621 0.65528 0.48738 0.0
C301 C 0.27295 0.6824 0.44915 0.0
C302 C 0.30786 0.68305 0.4694 0.0
H303 H 0.23521 0.65476 0.45207 0.0
H304 H 0.54386 0.76475 0.55209 0.0
H305 H 0.48073 0.73211 0.51212 0.0
H306 H 0.37606 0.72218 0.58076 0.0
H307 H 0.439 0.75362 0.62099 0.0
H308 H 0.34785 0.69337 0.52743 0.0
H309 H 0.43221 0.7461 0.48113 0.0
H310 H 0.40829 0.7808 0.4384 0.0
H311 H 0.34727 0.7786 0.40258 0.0
C312 C 0.71255 0.45022 0.92461 0.0
C313 C 0.73946 0.49959 0.91615 0.0
C314 C 0.69095 0.41435 0.90159 0.0
C315 C 0.69528 0.42725 0.86961 0.0
C316 C 0.72361 0.47646 0.86114 0.0
C317 C 0.74547 0.51236 0.88418 0.0
C318 C 0.67034 0.39072 0.84447 0.0
C319 C 0.62989 0.34752 0.84945 0.0
C320 C 0.60177 0.314 0.82353 0.0
C321 C 0.55175 0.28245 0.82755 0.0
C322 C 0.52332 0.25345 0.80269 0.0
C323 C 0.5445 0.25568 0.77339 0.0
H324 H 0.66214 0.33578 0.7912 0.0
C325 C 0.59493 0.28483 0.76995 0.0
C326 C 0.6234 0.31365 0.79479 0.0
H327 H 0.61213 0.28637 0.74769 0.0
H328 H 0.70798 0.4392 0.94907 0.0
H329 H 0.67107 0.37672 0.90906 0.0
H330 H 0.72795 0.48732 0.83665 0.0
H331 H 0.76624 0.55011 0.87694 0.0
H332 H 0.68342 0.40189 0.82064 0.0
H333 H 0.614 0.33824 0.87278 0.0
H334 H 0.53439 0.28121 0.84971 0.0
H335 H 0.48484 0.22961 0.80631 0.0
C336 C 0.35763 0.39954 0.95444 0.0
C337 C 0.33688 0.38031 0.98389 0.0
C338 C 0.40814 0.42569 0.95101 0.0
C339 C 0.43831 0.43214 0.97693 0.0
C340 C 0.41719 0.40767 0.00514 0.0
C341 C 0.3669 0.38256 0.00875 0.0
C342 C 0.49123 0.46715 0.97683 0.0
C343 C 0.51262 0.50818 0.95935 0.0
C344 C 0.5638 0.54586 0.96527 0.0
C345 C 0.59648 0.56701 0.94023 0.0
C346 C 0.64644 0.59518 0.9462 0.0
C347 C 0.66381 0.6026 0.97731 0.0
H348 H 0.55614 0.5443 0.016 0.0
C349 C 0.63043 0.58668 0.00221 0.0
C350 C 0.58088 0.55855 -0.00374 0.0
H351 H 0.64288 0.59218 0.0264 0.0
H352 H 0.33516 0.39883 0.93502 0.0
H353 H 0.42329 0.44277 0.92862 0.0
H354 H 0.43964 0.41146 0.02534 0.0
H355 H 0.35167 0.36847 0.03175 0.0
H356 H 0.51278 0.46171 -0.00546 0.0
H357 H 0.49276 0.51478 0.94107 0.0
H358 H 0.58386 0.55849 0.91614 0.0
H359 H 0.67144 0.60671 0.92658 0.0
C360 C 0.05369 0.64235 0.28246 0.0
C361 C 0.05596 0.66556 0.31104 0.0
C362 C 0.02773 0.59142 0.28047 0.0
C363 C 0.00324 0.5633 0.307 0.0
C364 C 0.00148 0.58701 0.33441 0.0
C365 C 0.02824 0.63765 0.3366 0.0
C366 C 0.98216 0.50971 0.30827 0.0
C367 C -0.00072 0.48506 0.29187 0.0
C368 C 0.98232 0.43312 0.29888 0.0
C369 C 0.97232 0.39962 0.27443 0.0
C370 C 0.94894 0.34951 0.28089 0.0
C371 C 0.93587 0.33272 0.31193 0.0
H372 H 0.98341 0.44153 0.34957 0.0
C373 C 0.951 0.3667 0.33653 0.0
C374 C 0.97409 0.41637 0.33011 0.0
H375 H 0.94163 0.35469 0.36068 0.0
H376 H 0.07556 0.66323 0.26261 0.0
H377 H 0.02866 0.5743 0.25868 0.0
H378 H 0.98241 0.56623 0.35507 0.0
H379 H 0.03014 0.6548 0.359 0.0
H380 H 0.95443 0.49034 0.32599 0.0
H381 H 0.02628 0.50287 0.27359 0.0
H382 H 0.97935 0.41187 0.25022 0.0
H383 H 0.93725 0.32404 0.26147 0.0
C384 C 0.39943 0.05166 0.61447 0.0
C385 C 0.3778 0.05164 0.64324 0.0
C386 C 0.4252 0.02673 0.61162 0.0
C387 C 0.42885 0.00095 0.63744 0.0
C388 C 0.40202 0.99619 0.66473 0.0
C389 C 0.37731 0.02191 0.6678 0.0
C390 C 0.46347 0.98256 0.63848 0.0
C391 C 0.50573 0.00259 0.62251 0.0
C392 C 0.54289 0.98915 0.63039 0.0
C393 C 0.56528 0.9766 0.60668 0.0
C394 C 0.59305 0.955 0.61461 0.0
C395 C 0.5989 0.9463 0.64633 0.0
H396 H 0.53842 0.99701 0.68072 0.0
C397 C 0.58161 0.9647 0.66988 0.0
C398 C 0.55379 0.98583 0.662 0.0
H399 H 0.58587 0.95877 0.69451 0.0
H400 H 0.40083 0.07497 0.59537 0.0
H401 H 0.44419 0.02988 0.58989 0.0
H402 H 0.40365 0.97598 0.68481 0.0
H403 H 0.36139 0.02192 0.69031 0.0
H404 H 0.45667 0.95496 0.65611 0.0
H405 H 0.51394 0.02967 0.60434 0.0
H406 H 0.55807 0.9798 0.58214 0.0
H407 H 0.6056 0.9408 0.59597 0.0
C408 C 0.53098 0.63986 0.68489 0.0
C409 C 0.57332 0.67275 0.66856 0.0
C410 C 0.51362 0.58996 0.68358 0.0
C411 C 0.53833 0.57167 0.66608 0.0
C412 C 0.58186 0.60445 0.65096 0.0
C413 C 0.59901 0.65463 0.65189 0.0
C414 C 0.51989 0.51862 0.66424 0.0
C415 C 0.47206 0.48559 0.66373 0.0
C416 C 0.45339 0.43242 0.66385 0.0
C417 C 0.4097 0.40091 0.64834 0.0
C418 C 0.39181 0.35058 0.64809 0.0
C419 C 0.41691 0.33098 0.66396 0.0
H420 H 0.51065 0.43576 0.6934 0.0
C421 C 0.45968 0.36258 0.68044 0.0
C422 C 0.47778 0.41266 0.6803 0.0
H423 H 0.47986 0.34878 0.69312 0.0
H424 H 0.51041 0.65248 0.69821 0.0
H425 H 0.4809 0.56577 0.69643 0.0
H426 H 0.60192 0.59114 0.63774 0.0
H427 H 0.63179 0.67904 0.63917 0.0
H428 H 0.54635 0.50665 0.66227 0.0
H429 H 0.4457 0.49777 0.6623 0.0
H430 H 0.3899 0.41535 0.6359 0.0
H431 H 0.35871 0.32719 0.63529 0.0
C432 C 0.11507 0.47206 0.00751 0.0
C433 C 0.10063 0.42473 -0.00309 0.0
C434 C 0.08346 0.49042 0.00579 0.0
C435 C 0.03653 0.46182 -0.00657 0.0
C436 C 0.02168 0.4142 0.98333 0.0
C437 C 0.05363 0.39595 0.9847 0.0
C438 C 0.00168 0.47993 -0.00747 0.0
C439 C 0.01547 0.52743 -0.0107 0.0
C440 C 0.98037 0.54517 -0.0091 0.0
C441 C 0.9882 0.58585 0.97312 0.0
C442 C 0.95459 0.60215 0.97391 0.0
C443 C 0.91309 0.57843 -0.00704 0.0
H444 H 0.93365 0.49246 0.0257 0.0
C445 C 0.90668 0.53915 0.01181 0.0
C446 C 0.93982 0.5227 0.01077 0.0
H447 H 0.87545 0.52029 0.02708 0.0
H448 H 0.15122 0.49545 0.01673 0.0
H449 H 0.09569 0.52673 0.01466 0.0
H450 H 0.98544 0.39125 0.97407 0.0
H451 H 0.04154 0.35939 0.97634 0.0
H452 H 0.96331 0.45299 -0.00603 0.0
H453 H 0.05319 0.55395 0.9845 0.0
H454 H 0.0197 0.60428 0.95803 0.0
H455 H 0.96063 0.6326 0.95922 0.0
C456 C 0.35942 0.9228 0.35157 0.0
C457 C 0.33028 0.91458 0.32491 0.0
C458 C 0.40988 0.94972 0.34929 0.0
C459 C 0.43231 0.96854 0.32009 0.0
C460 C 0.40302 0.96352 0.29398 0.0
C461 C 0.35238 0.93671 0.29633 0.0
C462 C 0.48588 0.99333 0.31608 0.0
C463 C 0.5151 0.98559 0.33529 0.0
C464 C 0.56862 0.01302 0.33249 0.0
C465 C 0.5965 0.02818 0.36008 0.0
C466 C 0.64667 0.05872 0.3585 0.0
C467 C 0.66997 0.07329 0.32926 0.0
H468 H 0.57158 0.01319 0.28149 0.0
C469 C 0.64269 0.05512 0.30157 0.0
C470 C 0.59218 0.02546 0.30315 0.0
H471 H 0.65997 0.06639 0.27878 0.0
H472 H 0.3432 0.90728 0.37407 0.0
H473 H 0.43092 0.95502 0.37042 0.0
H474 H 0.41933 0.97854 0.27137 0.0
H475 H 0.33073 0.93087 0.27537 0.0
H476 H 0.50161 0.01834 0.29641 0.0
H477 H 0.50005 0.9608 0.35505 0.0
H478 H 0.57916 0.01856 0.38294 0.0
H479 H 0.6671 0.07251 0.38014 0.0
C480 C 0.23088 0.13656 0.71924 0.0
C481 C 0.27625 0.14213 0.72731 0.0
C482 C 0.19896 0.13401 0.74267 0.0
C483 C 0.21187 0.13679 0.77456 0.0
C484 C 0.25538 0.13832 0.78258 0.0
C485 C 0.2875 0.14138 0.7592 0.0
C486 C 0.1832 0.14246 0.79992 0.0
C487 C 0.16056 0.16834 0.79579 0.0
C488 C 0.14494 0.18692 0.82266 0.0
C489 C 0.14915 0.23302 0.82008 0.0
C490 C 0.14221 0.25519 0.84635 0.0
C491 C 0.13045 0.23135 0.8755 0.0
H492 H 0.12453 0.12538 0.85386 0.0
C493 C 0.12235 0.18371 0.87756 0.0
C494 C 0.12964 0.16162 0.85136 0.0
H495 H 0.11266 0.16456 0.89983 0.0
H496 H 0.22093 0.13649 0.69485 0.0
H497 H 0.16494 0.1313 0.73576 0.0
H498 H 0.2659 0.14 0.80701 0.0
H499 H 0.32196 0.14509 0.76617 0.0
H500 H 0.18769 0.13215 0.82352 0.0
H501 H 0.16047 0.18293 0.77267 0.0
H502 H 0.16025 0.25299 0.79811 0.0
H503 H 0.14738 0.29149 0.84417 0.0
C504 C 0.96431 0.16374 0.21929 0.0
C505 C 0.91515 0.12889 0.21598 0.0
C506 C 0.9968 0.17193 0.195 0.0
C507 C 0.98067 0.14504 0.16686 0.0
C508 C 0.93166 0.10862 0.16419 0.0
C509 C 0.89917 0.10023 0.18876 0.0
C510 C 0.01227 0.15923 0.13865 0.0
C511 C 0.06107 0.18407 0.14046 0.0
C512 C 0.0921 0.21374 0.11404 0.0
C513 C 0.13416 0.25782 0.12123 0.0
C514 C 0.16026 0.2911 0.09753 0.0
C515 C 0.14528 0.28053 0.06604 0.0
H516 H 0.0473 0.16741 0.0759 0.0
C517 C 0.10525 0.23487 0.05851 0.0
C518 C 0.07873 0.20174 0.08233 0.0
H519 H 0.09323 0.22549 0.03438 0.0
H520 H 0.97717 0.18581 0.24035 0.0
H521 H 0.03375 0.20134 0.19784 0.0
H522 H 0.91819 0.08781 0.14266 0.0
H523 H 0.86121 0.07317 0.18594 0.0
H524 H 0.99446 0.15367 0.11599 0.0
H525 H 0.07859 0.18894 0.16317 0.0
H526 H 0.14543 0.26778 0.14545 0.0
H527 H 0.19138 0.32571 0.10403 0.0
C528 C 0.78604 0.96471 0.55568 0.0
C529 C 0.77228 0.91551 0.55257 0.0
C530 C 0.81067 0.9975 0.53147 0.0
C531 C 0.82242 0.9817 0.50361 0.0
C532 C 0.8104 0.93269 0.50119 0.0
C533 C 0.78587 0.89988 0.52565 0.0
C534 C 0.8408 0.01356 0.4754 0.0
C535 C 0.86337 0.06255 0.47688 0.0
C536 C 0.86694 0.09308 0.44944 0.0
C537 C 0.86337 0.13482 0.4548 0.0
C538 C 0.85804 0.16011 0.42967 0.0
C539 C 0.85703 0.14461 0.39861 0.0
H540 H 0.87371 0.04848 0.41331 0.0
C541 C 0.8646 0.10522 0.3931 0.0
C542 C 0.8694 0.07955 0.4183 0.0
H543 H 0.86452 0.09272 0.36939 0.0
H544 H 0.77624 0.97739 0.57653 0.0
H545 H 0.8178 0.03439 0.53418 0.0
H546 H 0.81856 0.91942 0.47992 0.0
H547 H 0.77548 0.86193 0.52298 0.0
H548 H 0.83086 0.9955 0.4527 0.0
H549 H 0.87367 0.08056 0.49959 0.0
H550 H 0.86185 0.1463 0.47856 0.0
H551 H 0.85286 0.19068 0.43469 0.0
C552 C 0.69077 0.85524 0.76672 0.0
C553 C 0.70445 0.86054 0.73492 0.0
C554 C 0.7224 0.85685 0.79014 0.0
C555 C 0.76794 0.86306 0.78218 0.0
C556 C 0.78311 0.87212 0.75064 0.0
C557 C 0.75164 0.87089 0.72723 0.0
C558 C 0.7968 0.85599 0.80691 0.0
C559 C 0.82348 0.83472 0.8008 0.0
C560 C 0.84181 0.81569 0.82599 0.0
C561 C 0.84383 0.77317 0.82015 0.0
C562 C 0.85466 0.75041 0.8444 0.0
C563 C 0.86429 0.77017 0.87478 0.0
H564 H 0.85478 0.8707 0.86106 0.0
C565 C 0.86581 0.81454 0.88018 0.0
C566 C 0.85451 0.83713 0.85601 0.0
H567 H 0.87354 0.83047 0.90348 0.0
H568 H 0.65483 0.84765 0.77346 0.0
H569 H 0.71011 0.85039 0.81433 0.0
H570 H 0.81866 0.8787 0.74385 0.0
H571 H 0.76355 0.87575 0.70298 0.0
H572 H 0.79001 0.8616 0.83114 0.0
H573 H 0.82606 0.82458 0.77679 0.0
H574 H 0.83481 0.75627 0.79712 0.0
H575 H 0.85428 0.71669 0.8397 0.0
C576 C 0.10984 0.85872 0.17512 0.0
C577 C 0.09816 0.86872 0.20491 0.0
C578 C 0.07828 0.84901 0.14981 0.0
C579 C 0.03431 0.84854 0.15402 0.0
C580 C 0.02432 0.86196 0.18339 0.0
C581 C 0.05616 0.87211 0.20861 0.0
C582 C -0.00163 0.83035 0.12807 0.0
C583 C 0.95027 0.80355 0.13338 0.0
C584 C 0.91557 0.77375 0.10839 0.0
C585 C 0.8764 0.72794 0.11637 0.0
C586 C 0.84749 0.69551 0.09293 0.0
C587 C 0.85682 0.70868 0.06107 0.0
H588 H 0.95176 0.82399 0.06986 0.0
C589 C 0.89361 0.75602 0.05323 0.0
C590 C 0.92279 0.78828 0.07668 0.0
H591 H 0.90135 0.76749 0.0289 0.0
H592 H 0.14265 0.857 0.17174 0.0
H593 H 0.0871 0.8394 0.12731 0.0
H594 H 0.99143 0.86341 0.18714 0.0
H595 H 0.04687 0.88026 0.23142 0.0
H596 H 0.01218 0.83258 0.10441 0.0
H597 H 0.93686 0.79711 0.1574 0.0
H598 H 0.86979 0.71612 0.14068 0.0
H599 H 0.8191 0.65948 0.09975 0.0
C600 C 0.20397 0.04292 0.54746 0.0
C601 C 0.22014 0.09247 0.54308 0.0
C602 C 0.18078 0.00977 0.52317 0.0
C603 C 0.17294 0.02557 0.4939 0.0
C604 C 0.1873 0.07505 0.4901 0.0
C605 C 0.2104 0.10825 0.51464 0.0
C606 C 0.15637 0.99298 0.46596 0.0
C607 C 0.13236 0.94399 0.46806 0.0
C608 C 0.13001 0.91226 0.44172 0.0
C609 C 0.13152 0.86986 0.44894 0.0
C610 C 0.13732 0.8429 0.42518 0.0
C611 C 0.14085 0.85733 0.39361 0.0
H612 H 0.12775 0.95663 0.40352 0.0
C613 C 0.13558 0.89764 0.38613 0.0
C614 C 0.13035 0.925 0.40998 0.0
H615 H 0.13766 0.90938 0.36196 0.0
H616 H 0.21097 0.03022 0.56943 0.0
H617 H 0.1718 0.9725 0.52707 0.0
H618 H 0.18217 0.08833 0.46776 0.0
H619 H 0.22279 0.14649 0.51096 0.0
H620 H 0.16878 0.01032 0.44318 0.0
H621 H 0.11956 0.92665 0.49078 0.0
H622 H 0.13089 0.85899 0.47319 0.0
H623 H 0.1407 0.81169 0.43168 0.0
loop_
_geom_bond_atom_site_label_1
_geom_bond_atom_site_label_2
_geom_bond_distance
_geom_bond_site_symmetry_2
_ccdc_geom_bond_type
Zn0 O1 2.055 . S
Zn0 O8 2.046 1_554 S
Zn0 N16 2.036 . S
Zn0 O28 2.053 . S
Zn0 O30 2.066 . S
O1 Zn0 2.055 . S
O1 C4 1.259 1_554 S
C2 O30 1.256 . S
C2 O31 1.244 . S
Zn3 O5 2.046 . S
Zn3 O7 2.055 . S
Zn3 N9 2.036 . S
Zn3 O27 2.066 . S
Zn3 O31 2.053 1_556 S
C4 O1 1.259 1_556 S
C4 O5 1.254 . S
O5 Zn3 2.046 . S
O5 C4 1.254 . S
C6 O27 1.256 1_554 S
C6 O28 1.244 . S
O7 Zn3 2.055 . S
O7 C29 1.259 . S
O8 Zn0 2.046 1_556 S
O8 C29 1.254 . S
N9 Zn3 2.036 . S
N9 C10 1.298 . S
N9 N12 1.398 . S
C10 N9 1.298 . S
C10 N13 1.367 . S
C10 C23 1.481 . S
C11 N12 1.299 . S
C11 N13 1.379 . S
N12 N9 1.398 . S
N12 C11 1.299 . S
N13 C10 1.367 . S
N13 C11 1.379 . S
C14 N16 1.298 . S
C14 N18 1.367 . S
C14 C22 1.481 . S
C15 N17 1.299 . S
C15 N18 1.379 . S
N16 Zn0 2.036 . S
N16 C14 1.298 . S
N16 N17 1.398 . S
N17 C15 1.299 . S
N17 N16 1.398 . S
N18 C14 1.367 . S
N18 C15 1.379 . S
H19 C22 0.980 . S
H20 C22 0.981 . S
H21 C22 0.981 . S
C22 C14 1.481 . S
C22 H19 0.980 . S
C22 H20 0.981 . S
C22 H21 0.981 . S
C23 C10 1.481 . S
C23 H24 0.980 . S
C23 H25 0.981 . S
C23 H26 0.981 . S
H24 C23 0.980 . S
H25 C23 0.981 . S
H26 C23 0.981 . S
O27 Zn3 2.066 . S
O27 C6 1.256 1_556 S
O28 Zn0 2.053 . S
O28 C6 1.244 . S
C29 O7 1.259 . S
C29 O8 1.254 . S
O30 Zn0 2.066 . S
O30 C2 1.256 . S
O31 C2 1.244 . S
O31 Zn3 2.053 1_554 S
Zn32 O33 2.055 . S
Zn32 O40 2.046 . S
Zn32 N48 2.036 . S
Zn32 O60 2.053 . S
Zn32 O62 2.066 . S
O33 Zn32 2.055 . S
O33 C36 1.259 . S
C34 O62 1.256 . S
C34 O63 1.244 . S
Zn35 O37 2.046 . S
Zn35 O39 2.055 . S
Zn35 N41 2.036 . S
Zn35 O59 2.066 . S
Zn35 O63 2.053 . S
C36 O33 1.259 . S
C36 O37 1.254 . S
O37 Zn35 2.046 . S
O37 C36 1.254 . S
C38 O59 1.256 . S
C38 O60 1.244 . S
O39 Zn35 2.055 . S
O39 C61 1.259 . S
O40 Zn32 2.046 . S
O40 C61 1.254 . S
N41 Zn35 2.036 . S
N41 C42 1.298 . S
N41 N44 1.398 . S
C42 N41 1.298 . S
C42 N45 1.367 . S
C42 C55 1.481 . S
C43 N44 1.299 . S
C43 N45 1.379 . S
N44 N41 1.398 . S
N44 C43 1.299 . S
N45 C42 1.367 . S
N45 C43 1.379 . S
C46 N48 1.298 . S
C46 N50 1.367 . S
C46 C54 1.481 . S
C47 N49 1.299 . S
C47 N50 1.379 . S
N48 Zn32 2.036 . S
N48 C46 1.298 . S
N48 N49 1.398 . S
N49 C47 1.299 . S
N49 N48 1.398 . S
N50 C46 1.367 . S
N50 C47 1.379 . S
H51 C54 0.980 . S
H52 C54 0.981 . S
H53 C54 0.981 . S
C54 C46 1.481 . S
C54 H51 0.980 . S
C54 H52 0.981 . S
C54 H53 0.981 . S
C55 C42 1.481 . S
C55 H56 0.980 . S
C55 H57 0.981 . S
C55 H58 0.981 . S
H56 C55 0.980 . S
H57 C55 0.981 . S
H58 C55 0.981 . S
O59 Zn35 2.066 . S
O59 C38 1.256 . S
O60 Zn32 2.053 . S
O60 C38 1.244 . S
C61 O39 1.259 . S
C61 O40 1.254 . S
O62 Zn32 2.066 . S
O62 C34 1.256 . S
O63 C34 1.244 . S
O63 Zn35 2.053 . S
Zn64 O65 2.055 . S
Zn64 O72 2.046 . S
Zn64 N80 2.036 . S
Zn64 O92 2.053 . S
Zn64 O94 2.066 . S
O65 Zn64 2.055 . S
O65 C68 1.259 . S
C66 O94 1.256 . S
C66 O95 1.244 . S
Zn67 O69 2.046 . S
Zn67 O71 2.055 . S
Zn67 N73 2.036 . S
Zn67 O91 2.066 . S
Zn67 O95 2.053 . S
C68 O65 1.259 . S
C68 O69 1.254 . S
O69 Zn67 2.046 . S
O69 C68 1.254 . S
C70 O91 1.256 . S
C70 O92 1.244 . S
O71 Zn67 2.055 . S
O71 C93 1.259 . S
O72 Zn64 2.046 . S
O72 C93 1.254 . S
N73 Zn67 2.036 . S
N73 C74 1.298 . S
N73 N76 1.398 . S
C74 N73 1.298 . S
C74 N77 1.367 . S
C74 C87 1.481 . S
C75 N76 1.299 . S
C75 N77 1.379 . S
N76 N73 1.398 . S
N76 C75 1.299 . S
N77 C74 1.367 . S
N77 C75 1.379 . S
C78 N80 1.298 . S
C78 N82 1.367 . S
C78 C86 1.481 . S
C79 N81 1.299 . S
C79 N82 1.379 . S
N80 Zn64 2.036 . S
N80 C78 1.298 . S
N80 N81 1.398 . S
N81 C79 1.299 . S
N81 N80 1.398 . S
N82 C78 1.367 . S
N82 C79 1.379 . S
H83 C86 0.980 . S
H84 C86 0.981 . S
H85 C86 0.981 . S
C86 C78 1.481 . S
C86 H83 0.980 . S
C86 H84 0.981 . S
C86 H85 0.981 . S
C87 C74 1.481 . S
C87 H88 0.980 . S
C87 H89 0.981 . S
C87 H90 0.981 . S
H88 C87 0.980 . S
H89 C87 0.981 . S
H90 C87 0.981 . S
O91 Zn67 2.066 . S
O91 C70 1.256 . S
O92 Zn64 2.053 . S
O92 C70 1.244 . S
C93 O71 1.259 . S
C93 O72 1.254 . S
O94 Zn64 2.066 . S
O94 C66 1.256 . S
O95 C66 1.244 . S
O95 Zn67 2.053 . S
Zn96 O97 2.055 . S
Zn96 O104 2.046 1_554 S
Zn96 N112 2.036 . S
Zn96 O124 2.053 . S
Zn96 O126 2.066 . S
O97 Zn96 2.055 . S
O97 C100 1.259 1_554 S
C98 O126 1.256 . S
C98 O127 1.244 . S
Zn99 O101 2.046 . S
Zn99 O103 2.055 . S
Zn99 N105 2.036 . S
Zn99 O123 2.066 . S
Zn99 O127 2.053 1_556 S
C100 O97 1.259 1_556 S
C100 O101 1.254 . S
O101 Zn99 2.046 . S
O101 C100 1.254 . S
C102 O123 1.256 1_554 S
C102 O124 1.244 . S
O103 Zn99 2.055 . S
O103 C125 1.259 . S
O104 Zn96 2.046 1_556 S
O104 C125 1.254 . S
N105 Zn99 2.036 . S
N105 C106 1.298 . S
N105 N108 1.398 . S
C106 N105 1.298 . S
C106 N109 1.367 . S
C106 C119 1.481 . S
C107 N108 1.299 . S
C107 N109 1.379 . S
N108 N105 1.398 . S
N108 C107 1.299 . S
N109 C106 1.367 . S
N109 C107 1.379 . S
C110 N112 1.298 . S
C110 N114 1.367 . S
C110 C118 1.481 . S
C111 N113 1.299 . S
C111 N114 1.379 . S
N112 Zn96 2.036 . S
N112 C110 1.298 . S
N112 N113 1.398 . S
N113 C111 1.299 . S
N113 N112 1.398 . S
N114 C110 1.367 . S
N114 C111 1.379 . S
H115 C118 0.980 . S
H116 C118 0.981 . S
H117 C118 0.981 . S
C118 C110 1.481 . S
C118 H115 0.980 . S
C118 H116 0.981 . S
C118 H117 0.981 . S
C119 C106 1.481 . S
C119 H120 0.980 . S
C119 H121 0.981 . S
C119 H122 0.981 . S
H120 C119 0.980 . S
H121 C119 0.981 . S
H122 C119 0.981 . S
O123 Zn99 2.066 . S
O123 C102 1.256 1_556 S
O124 Zn96 2.053 . S
O124 C102 1.244 . S
C125 O103 1.259 . S
C125 O104 1.254 . S
O126 Zn96 2.066 . S
O126 C98 1.256 . S
O127 C98 1.244 . S
O127 Zn99 2.053 1_554 S
Zn128 O129 2.055 . S
Zn128 O136 2.046 . S
Zn128 N144 2.036 . S
Zn128 O156 2.053 . S
Zn128 O158 2.066 . S
O129 Zn128 2.055 . S
O129 C132 1.259 . S
C130 O158 1.256 . S
C130 O159 1.244 . S
Zn131 O133 2.046 . S
Zn131 O135 2.055 . S
Zn131 N137 2.036 . S
Zn131 O155 2.066 . S
Zn131 O159 2.053 . S
C132 O129 1.259 . S
C132 O133 1.254 . S
O133 Zn131 2.046 . S
O133 C132 1.254 . S
C134 O155 1.256 . S
C134 O156 1.244 . S
O135 Zn131 2.055 . S
O135 C157 1.259 . S
O136 Zn128 2.046 . S
O136 C157 1.254 . S
N137 Zn131 2.036 . S
N137 C138 1.298 . S
N137 N140 1.398 . S
C138 N137 1.298 . S
C138 N141 1.367 . S
C138 C151 1.481 . S
C139 N140 1.299 . S
C139 N141 1.379 . S
N140 N137 1.398 . S
N140 C139 1.299 . S
N141 C138 1.367 . S
N141 C139 1.379 . S
C142 N144 1.298 . S
C142 N146 1.367 . S
C142 C150 1.481 . S
C143 N145 1.299 . S
C143 N146 1.379 . S
N144 Zn128 2.036 . S
N144 C142 1.298 . S
N144 N145 1.398 . S
N145 C143 1.299 . S
N145 N144 1.398 . S
N146 C142 1.367 . S
N146 C143 1.379 . S
H147 C150 0.980 . S
H148 C150 0.981 . S
H149 C150 0.981 . S
C150 C142 1.481 . S
C150 H147 0.980 . S
C150 H148 0.981 . S
C150 H149 0.981 . S
C151 C138 1.481 . S
C151 H152 0.980 . S
C151 H153 0.981 . S
C151 H154 0.981 . S
H152 C151 0.980 . S
H153 C151 0.981 . S
H154 C151 0.981 . S
O155 Zn131 2.066 . S
O155 C134 1.256 . S
O156 Zn128 2.053 . S
O156 C134 1.244 . S
C157 O135 1.259 . S
C157 O136 1.254 . S
O158 Zn128 2.066 . S
O158 C130 1.256 . S
O159 C130 1.244 . S
O159 Zn131 2.053 . S
Zn160 O161 2.055 . S
Zn160 O168 2.046 . S
Zn160 N176 2.036 . S
Zn160 O188 2.053 . S
Zn160 O190 2.066 . S
O161 Zn160 2.055 . S
O161 C164 1.259 . S
C162 O190 1.256 . S
C162 O191 1.244 . S
Zn163 O165 2.046 . S
Zn163 O167 2.055 . S
Zn163 N169 2.036 . S
Zn163 O187 2.066 . S
Zn163 O191 2.053 . S
C164 O161 1.259 . S
C164 O165 1.254 . S
O165 Zn163 2.046 . S
O165 C164 1.254 . S
C166 O187 1.256 . S
C166 O188 1.244 . S
O167 Zn163 2.055 . S
O167 C189 1.259 . S
O168 Zn160 2.046 . S
O168 C189 1.254 . S
N169 Zn163 2.036 . S
N169 C170 1.298 . S
N169 N172 1.398 . S
C170 N169 1.298 . S
C170 N173 1.367 . S
C170 C183 1.481 . S
C171 N172 1.299 . S
C171 N173 1.379 . S
N172 N169 1.398 . S
N172 C171 1.299 . S
N173 C170 1.367 . S
N173 C171 1.379 . S
C174 N176 1.298 . S
C174 N178 1.367 . S
C174 C182 1.481 . S
C175 N177 1.299 . S
C175 N178 1.379 . S
N176 Zn160 2.036 . S
N176 C174 1.298 . S
N176 N177 1.398 . S
N177 C175 1.299 . S
N177 N176 1.398 . S
N178 C174 1.367 . S
N178 C175 1.379 . S
H179 C182 0.980 . S
H180 C182 0.981 . S
H181 C182 0.981 . S
C182 C174 1.481 . S
C182 H179 0.980 . S
C182 H180 0.981 . S
C182 H181 0.981 . S
C183 C170 1.481 . S
C183 H184 0.980 . S
C183 H185 0.981 . S
C183 H186 0.981 . S
H184 C183 0.980 . S
H185 C183 0.981 . S
H186 C183 0.981 . S
O187 Zn163 2.066 . S
O187 C166 1.256 . S
O188 Zn160 2.053 . S
O188 C166 1.244 . S
C189 O167 1.259 . S
C189 O168 1.254 . S
O190 Zn160 2.066 . S
O190 C162 1.256 . S
O191 C162 1.244 . S
O191 Zn163 2.053 . S
C192 C193 1.386 . S
C192 C194 1.383 . S
C192 H208 0.951 . S
C193 C192 1.386 . S
C193 C197 1.383 . S
C194 C192 1.383 . S
C194 C195 1.402 . S
C194 H209 0.951 . S
C195 C194 1.402 . S
C195 C196 1.375 . S
C195 C198 1.481 . S
C196 C195 1.375 . S
C196 C197 1.367 . S
C196 H210 0.951 . S
C197 C193 1.383 . S
C197 C196 1.367 . S
C197 H211 0.950 . S
C198 C195 1.481 . S
C198 C199 1.297 . S
C198 H212 0.950 . S
C199 C198 1.297 . S
C199 C200 1.479 . S
C199 H213 0.950 . S
C200 C199 1.479 . S
C200 C201 1.375 . S
C200 C206 1.404 . S
C201 C200 1.375 . S
C201 C202 1.369 . S
C201 H214 0.950 . S
C202 C201 1.369 . S
C202 C203 1.392 . S
C202 H215 0.951 . S
C203 C202 1.392 . S
C203 C205 1.384 . S
H204 C206 0.949 . S
C205 C203 1.384 . S
C205 C206 1.385 . S
C205 H207 0.950 . S
C206 C200 1.404 . S
C206 H204 0.949 . S
C206 C205 1.385 . S
H207 C205 0.950 . S
H208 C192 0.951 . S
H209 C194 0.951 . S
H210 C196 0.951 . S
H211 C197 0.950 . S
H212 C198 0.950 . S
H213 C199 0.950 . S
H214 C201 0.950 . S
H215 C202 0.951 . S
C216 C217 1.386 . S
C216 C218 1.383 . S
C216 H232 0.951 . S
C217 C216 1.386 . S
C217 C221 1.383 . S
C218 C216 1.383 . S
C218 C219 1.402 . S
C218 H233 0.951 . S
C219 C218 1.402 . S
C219 C220 1.375 . S
C219 C222 1.481 . S
C220 C219 1.375 . S
C220 C221 1.367 . S
C220 H234 0.951 . S
C221 C217 1.383 . S
C221 C220 1.367 . S
C221 H235 0.950 . S
C222 C219 1.481 . S
C222 C223 1.297 . S
C222 H236 0.950 . S
C223 C222 1.297 . S
C223 C224 1.479 . S
C223 H237 0.950 . S
C224 C223 1.479 . S
C224 C225 1.375 . S
C224 C230 1.404 . S
C225 C224 1.375 . S
C225 C226 1.369 . S
C225 H238 0.950 . S
C226 C225 1.369 . S
C226 C227 1.392 . S
C226 H239 0.951 . S
C227 C226 1.392 . S
C227 C229 1.384 . S
H228 C230 0.949 . S
C229 C227 1.384 . S
C229 C230 1.385 . S
C229 H231 0.950 . S
C230 C224 1.404 . S
C230 H228 0.949 . S
C230 C229 1.385 . S
H231 C229 0.950 . S
H232 C216 0.951 . S
H233 C218 0.951 . S
H234 C220 0.951 . S
H235 C221 0.950 . S
H236 C222 0.950 . S
H237 C223 0.950 . S
H238 C225 0.950 . S
H239 C226 0.951 . S
C240 C241 1.386 . S
C240 C242 1.383 . S
C240 H256 0.951 . S
C241 C240 1.386 . S
C241 C245 1.383 . S
C242 C240 1.383 . S
C242 C243 1.402 . S
C242 H257 0.951 . S
C243 C242 1.402 . S
C243 C244 1.375 . S
C243 C246 1.481 . S
C244 C243 1.375 . S
C244 C245 1.367 . S
C244 H258 0.951 . S
C245 C241 1.383 . S
C245 C244 1.367 . S
C245 H259 0.950 . S
C246 C243 1.481 . S
C246 C247 1.297 . S
C246 H260 0.950 . S
C247 C246 1.297 . S
C247 C248 1.479 . S
C247 H261 0.950 . S
C248 C247 1.479 . S
C248 C249 1.375 . S
C248 C254 1.404 . S
C249 C248 1.375 . S
C249 C250 1.369 . S
C249 H262 0.950 . S
C250 C249 1.369 . S
C250 C251 1.392 . S
C250 H263 0.951 . S
C251 C250 1.392 . S
C251 C253 1.384 . S
H252 C254 0.949 . S
C253 C251 1.384 . S
C253 C254 1.385 . S
C253 H255 0.950 . S
C254 C248 1.404 . S
C254 H252 0.949 . S
C254 C253 1.385 . S
H255 C253 0.950 . S
H256 C240 0.951 . S
H257 C242 0.951 . S
H258 C244 0.951 . S
H259 C245 0.950 . S
H260 C246 0.950 . S
H261 C247 0.950 . S
H262 C249 0.950 . S
H263 C250 0.951 . S
C264 C265 1.386 . S
C264 C266 1.383 . S
C264 H280 0.951 . S
C265 C264 1.386 . S
C265 C269 1.383 . S
C266 C264 1.383 . S
C266 C267 1.402 . S
C266 H281 0.951 . S
C267 C266 1.402 . S
C267 C268 1.375 . S
C267 C270 1.481 . S
C268 C267 1.375 . S
C268 C269 1.367 . S
C268 H282 0.951 . S
C269 C265 1.383 . S
C269 C268 1.367 . S
C269 H283 0.950 . S
C270 C267 1.481 . S
C270 C271 1.297 . S
C270 H284 0.950 . S
C271 C270 1.297 . S
C271 C272 1.479 . S
C271 H285 0.950 . S
C272 C271 1.479 . S
C272 C273 1.375 . S
C272 C278 1.404 . S
C273 C272 1.375 . S
C273 C274 1.369 . S
C273 H286 0.950 . S
C274 C273 1.369 . S
C274 C275 1.392 . S
C274 H287 0.951 . S
C275 C274 1.392 . S
C275 C277 1.384 . S
H276 C278 0.949 . S
C277 C275 1.384 . S
C277 C278 1.385 . S
C277 H279 0.950 . S
C278 C272 1.404 . S
C278 H276 0.949 . S
C278 C277 1.385 . S
H279 C277 0.950 . S
H280 C264 0.951 . S
H281 C266 0.951 . S
H282 C268 0.951 . S
H283 C269 0.950 . S
H284 C270 0.950 . S
H285 C271 0.950 . S
H286 C273 0.950 . S
H287 C274 0.951 . S
C288 C289 1.386 . S
C288 C290 1.383 . S
C288 H304 0.951 . S
C289 C288 1.386 . S
C289 C293 1.383 . S
C290 C288 1.383 . S
C290 C291 1.402 . S
C290 H305 0.951 . S
C291 C290 1.402 . S
C291 C292 1.375 . S
C291 C294 1.481 . S
C292 C291 1.375 . S
C292 C293 1.367 . S
C292 H306 0.951 . S
C293 C289 1.383 . S
C293 C292 1.367 . S
C293 H307 0.950 . S
C294 C291 1.481 . S
C294 C295 1.297 . S
C294 H308 0.950 . S
C295 C294 1.297 . S
C295 C296 1.479 . S
C295 H309 0.950 . S
C296 C295 1.479 . S
C296 C297 1.375 . S
C296 C302 1.404 . S
C297 C296 1.375 . S
C297 C298 1.369 . S
C297 H310 0.950 . S
C298 C297 1.369 . S
C298 C299 1.392 . S
C298 H311 0.951 . S
C299 C298 1.392 . S
C299 C301 1.384 . S
H300 C302 0.949 . S
C301 C299 1.384 . S
C301 C302 1.385 . S
C301 H303 0.950 . S
C302 C296 1.404 . S
C302 H300 0.949 . S
C302 C301 1.385 . S
H303 C301 0.950 . S
H304 C288 0.951 . S
H305 C290 0.951 . S
H306 C292 0.951 . S
H307 C293 0.950 . S
H308 C294 0.950 . S
H309 C295 0.950 . S
H310 C297 0.950 . S
H311 C298 0.951 . S
C312 C313 1.386 . S
C312 C314 1.383 . S
C312 H328 0.951 . S
C313 C312 1.386 . S
C313 C317 1.383 . S
C314 C312 1.383 . S
C314 C315 1.402 . S
C314 H329 0.951 . S
C315 C314 1.402 . S
C315 C316 1.375 . S
C315 C318 1.481 . S
C316 C315 1.375 . S
C316 C317 1.367 . S
C316 H330 0.951 . S
C317 C313 1.383 . S
C317 C316 1.367 . S
C317 H331 0.950 . S
C318 C315 1.481 . S
C318 C319 1.297 . S
C318 H332 0.950 . S
C319 C318 1.297 . S
C319 C320 1.479 . S
C319 H333 0.950 . S
C320 C319 1.479 . S
C320 C321 1.375 . S
C320 C326 1.404 . S
C321 C320 1.375 . S
C321 C322 1.369 . S
C321 H334 0.950 . S
C322 C321 1.369 . S
C322 C323 1.392 . S
C322 H335 0.951 . S
C323 C322 1.392 . S
C323 C325 1.384 . S
H324 C326 0.949 . S
C325 C323 1.384 . S
C325 C326 1.385 . S
C325 H327 0.950 . S
C326 C320 1.404 . S
C326 H324 0.949 . S
C326 C325 1.385 . S
H327 C325 0.950 . S
H328 C312 0.951 . S
H329 C314 0.951 . S
H330 C316 0.951 . S
H331 C317 0.950 . S
H332 C318 0.950 . S
H333 C319 0.950 . S
H334 C321 0.950 . S
H335 C322 0.951 . S
C336 C337 1.386 . S
C336 C338 1.383 . S
C336 H352 0.951 . S
C337 C336 1.386 . S
C337 C341 1.383 . S
C338 C336 1.383 . S
C338 C339 1.402 . S
C338 H353 0.951 . S
C339 C338 1.402 . S
C339 C340 1.375 . S
C339 C342 1.481 . S
C340 C339 1.375 . S
C340 C341 1.367 . S
C340 H354 0.951 . S
C341 C337 1.383 . S
C341 C340 1.367 . S
C341 H355 0.950 . S
C342 C339 1.481 . S
C342 C343 1.297 . S
C342 H356 0.950 . S
C343 C342 1.297 . S
C343 C344 1.479 . S
C343 H357 0.950 . S
C344 C343 1.479 . S
C344 C345 1.375 . S
C344 C350 1.404 . S
C345 C344 1.375 . S
C345 C346 1.369 . S
C345 H358 0.950 . S
C346 C345 1.369 . S
C346 C347 1.392 . S
C346 H359 0.951 . S
C347 C346 1.392 . S
C347 C349 1.384 . S
H348 C350 0.949 . S
C349 C347 1.384 . S
C349 C350 1.385 . S
C349 H351 0.950 . S
C350 C344 1.404 . S
C350 H348 0.949 . S
C350 C349 1.385 . S
H351 C349 0.950 . S
H352 C336 0.951 . S
H353 C338 0.951 . S
H354 C340 0.951 . S
H355 C341 0.950 . S
H356 C342 0.950 . S
H357 C343 0.950 . S
H358 C345 0.950 . S
H359 C346 0.951 . S
C360 C361 1.386 . S
C360 C362 1.383 . S
C360 H376 0.951 . S
C361 C360 1.386 . S
C361 C365 1.383 . S
C362 C360 1.383 . S
C362 C363 1.402 . S
C362 H377 0.951 . S
C363 C362 1.402 . S
C363 C364 1.375 . S
C363 C366 1.481 . S
C364 C363 1.375 . S
C364 C365 1.367 . S
C364 H378 0.951 . S
C365 C361 1.383 . S
C365 C364 1.367 . S
C365 H379 0.950 . S
C366 C363 1.481 . S
C366 C367 1.297 1_455 S
C366 H380 0.950 . S
C367 C366 1.297 1_655 S
C367 C368 1.479 . S
C367 H381 0.950 . S
C368 C367 1.479 . S
C368 C369 1.375 . S
C368 C374 1.404 . S
C369 C368 1.375 . S
C369 C370 1.369 . S
C369 H382 0.950 . S
C370 C369 1.369 . S
C370 C371 1.392 . S
C370 H383 0.951 . S
C371 C370 1.392 . S
C371 C373 1.384 . S
H372 C374 0.949 1_455 S
C373 C371 1.384 . S
C373 C374 1.385 . S
C373 H375 0.950 . S
C374 C368 1.404 . S
C374 H372 0.949 1_655 S
C374 C373 1.385 . S
H375 C373 0.950 . S
H376 C360 0.951 . S
H377 C362 0.951 . S
H378 C364 0.951 . S
H379 C365 0.950 . S
H380 C366 0.950 . S
H381 C367 0.950 . S
H382 C369 0.950 . S
H383 C370 0.951 . S
C384 C385 1.386 . S
C384 C386 1.383 . S
C384 H400 0.951 . S
C385 C384 1.386 . S
C385 C389 1.383 . S
C386 C384 1.383 . S
C386 C387 1.402 . S
C386 H401 0.951 . S
C387 C386 1.402 . S
C387 C388 1.375 . S
C387 C390 1.481 . S
C388 C387 1.375 . S
C388 C389 1.367 . S
C388 H402 0.951 1_545 S
C389 C385 1.383 . S
C389 C388 1.367 . S
C389 H403 0.950 . S
C390 C387 1.481 . S
C390 C391 1.297 . S
C390 H404 0.950 1_545 S
C391 C390 1.297 . S
C391 C392 1.479 1_545 S
C391 H405 0.950 . S
C392 C391 1.479 1_565 S
C392 C393 1.375 . S
C392 C398 1.404 . S
C393 C392 1.375 . S
C393 C394 1.369 . S
C393 H406 0.950 1_565 S
C394 C393 1.369 . S
C394 C395 1.392 . S
C394 H407 0.951 . S
C395 C394 1.392 . S
C395 C397 1.384 . S
H396 C398 0.949 . S
C397 C395 1.384 . S
C397 C398 1.385 . S
C397 H399 0.950 . S
C398 C392 1.404 . S
C398 H396 0.949 . S
C398 C397 1.385 . S
H399 C397 0.950 . S
H400 C384 0.951 . S
H401 C386 0.951 . S
H402 C388 0.951 1_565 S
H403 C389 0.950 . S
H404 C390 0.950 1_565 S
H405 C391 0.950 . S
H406 C393 0.950 1_545 S
H407 C394 0.951 . S
C408 C409 1.386 . S
C408 C410 1.383 . S
C408 H424 0.951 . S
C409 C408 1.386 . S
C409 C413 1.383 . S
C410 C408 1.383 . S
C410 C411 1.402 . S
C410 H425 0.951 . S
C411 C410 1.402 . S
C411 C412 1.375 . S
C411 C414 1.481 . S
C412 C411 1.375 . S
C412 C413 1.367 . S
C412 H426 0.951 . S
C413 C409 1.383 . S
C413 C412 1.367 . S
C413 H427 0.950 . S
C414 C411 1.481 . S
C414 C415 1.297 . S
C414 H428 0.950 . S
C415 C414 1.297 . S
C415 C416 1.479 . S
C415 H429 0.950 . S
C416 C415 1.479 . S
C416 C417 1.375 . S
C416 C422 1.404 . S
C417 C416 1.375 . S
C417 C418 1.369 . S
C417 H430 0.950 . S
C418 C417 1.369 . S
C418 C419 1.392 . S
C418 H431 0.951 . S
C419 C418 1.392 . S
C419 C421 1.384 . S
H420 C422 0.949 . S
C421 C419 1.384 . S
C421 C422 1.385 . S
C421 H423 0.950 . S
C422 C416 1.404 . S
C422 H420 0.949 . S
C422 C421 1.385 . S
H423 C421 0.950 . S
H424 C408 0.951 . S
H425 C410 0.951 . S
H426 C412 0.951 . S
H427 C413 0.950 . S
H428 C414 0.950 . S
H429 C415 0.950 . S
H430 C417 0.950 . S
H431 C418 0.951 . S
C432 C433 1.386 . S
C432 C434 1.383 . S
C432 H448 0.951 . S
C433 C432 1.386 . S
C433 C437 1.383 . S
C434 C432 1.383 . S
C434 C435 1.402 . S
C434 H449 0.951 . S
C435 C434 1.402 . S
C435 C436 1.375 . S
C435 C438 1.481 1_455 S
C436 C435 1.375 . S
C436 C437 1.367 . S
C436 H450 0.951 1_455 S
C437 C433 1.383 . S
C437 C436 1.367 . S
C437 H451 0.950 . S
C438 C435 1.481 1_655 S
C438 C439 1.297 1_655 S
C438 H452 0.950 . S
C439 C438 1.297 1_455 S
C439 C440 1.479 1_455 S
C439 H453 0.950 . S
C440 C439 1.479 1_655 S
C440 C441 1.375 . S
C440 C446 1.404 . S
C441 C440 1.375 . S
C441 C442 1.369 . S
C441 H454 0.950 1_655 S
C442 C441 1.369 . S
C442 C443 1.392 . S
C442 H455 0.951 . S
C443 C442 1.392 . S
C443 C445 1.384 . S
H444 C446 0.949 . S
C445 C443 1.384 . S
C445 C446 1.385 . S
C445 H447 0.950 . S
C446 C440 1.404 . S
C446 H444 0.949 . S
C446 C445 1.385 . S
H447 C445 0.950 . S
H448 C432 0.951 . S
H449 C434 0.951 . S
H450 C436 0.951 1_655 S
H451 C437 0.950 . S
H452 C438 0.950 . S
H453 C439 0.950 . S
H454 C441 0.950 1_455 S
H455 C442 0.951 . S
C456 C457 1.386 . S
C456 C458 1.383 . S
C456 H472 0.951 . S
C457 C456 1.386 . S
C457 C461 1.383 . S
C458 C456 1.383 . S
C458 C459 1.402 . S
C458 H473 0.951 . S
C459 C458 1.402 . S
C459 C460 1.375 . S
C459 C462 1.481 . S
C460 C459 1.375 . S
C460 C461 1.367 . S
C460 H474 0.951 . S
C461 C457 1.383 . S
C461 C460 1.367 . S
C461 H475 0.950 . S
C462 C459 1.481 . S
C462 C463 1.297 . S
C462 H476 0.950 . S
C463 C462 1.297 . S
C463 C464 1.479 1_565 S
C463 H477 0.950 . S
C464 C463 1.479 1_545 S
C464 C465 1.375 . S
C464 C470 1.404 . S
C465 C464 1.375 . S
C465 C466 1.369 . S
C465 H478 0.950 . S
C466 C465 1.369 . S
C466 C467 1.392 . S
C466 H479 0.951 . S
C467 C466 1.392 . S
C467 C469 1.384 . S
H468 C470 0.949 . S
C469 C467 1.384 . S
C469 C470 1.385 . S
C469 H471 0.950 . S
C470 C464 1.404 . S
C470 H468 0.949 . S
C470 C469 1.385 . S
H471 C469 0.950 . S
H472 C456 0.951 . S
H473 C458 0.951 . S
H474 C460 0.951 . S
H475 C461 0.950 . S
H476 C462 0.950 . S
H477 C463 0.950 . S
H478 C465 0.950 . S
H479 C466 0.951 . S
C480 C481 1.386 . S
C480 C482 1.383 . S
C480 H496 0.951 . S
C481 C480 1.386 . S
C481 C485 1.383 . S
C482 C480 1.383 . S
C482 C483 1.402 . S
C482 H497 0.951 . S
C483 C482 1.402 . S
C483 C484 1.375 . S
C483 C486 1.481 . S
C484 C483 1.375 . S
C484 C485 1.367 . S
C484 H498 0.951 . S
C485 C481 1.383 . S
C485 C484 1.367 . S
C485 H499 0.950 . S
C486 C483 1.481 . S
C486 C487 1.297 . S
C486 H500 0.950 . S
C487 C486 1.297 . S
C487 C488 1.479 . S
C487 H501 0.950 . S
C488 C487 1.479 . S
C488 C489 1.375 . S
C488 C494 1.404 . S
C489 C488 1.375 . S
C489 C490 1.369 . S
C489 H502 0.950 . S
C490 C489 1.369 . S
C490 C491 1.392 . S
C490 H503 0.951 . S
C491 C490 1.392 . S
C491 C493 1.384 . S
H492 C494 0.949 . S
C493 C491 1.384 . S
C493 C494 1.385 . S
C493 H495 0.950 . S
C494 C488 1.404 . S
C494 H492 0.949 . S
C494 C493 1.385 . S
H495 C493 0.950 . S
H496 C480 0.951 . S
H497 C482 0.951 . S
H498 C484 0.951 . S
H499 C485 0.950 . S
H500 C486 0.950 . S
H501 C487 0.950 . S
H502 C489 0.950 . S
H503 C490 0.951 . S
C504 C505 1.386 . S
C504 C506 1.383 1_655 S
C504 H520 0.952 . S
C505 C504 1.386 . S
C505 C509 1.383 . S
C506 C504 1.383 1_455 S
C506 C507 1.402 1_455 S
C506 H521 0.951 . S
C507 C506 1.402 1_655 S
C507 C508 1.375 . S
C507 C510 1.481 1_655 S
C508 C507 1.375 . S
C508 C509 1.367 . S
C508 H522 0.951 . S
C509 C505 1.383 . S
C509 C508 1.367 . S
C509 H523 0.950 . S
C510 C507 1.481 1_455 S
C510 C511 1.297 . S
C510 H524 0.950 . S
C511 C510 1.297 . S
C511 C512 1.479 . S
C511 H525 0.950 . S
C512 C511 1.479 . S
C512 C513 1.375 . S
C512 C518 1.404 . S
C513 C512 1.375 . S
C513 C514 1.369 . S
C513 H526 0.950 . S
C514 C513 1.369 . S
C514 C515 1.392 . S
C514 H527 0.951 . S
C515 C514 1.392 . S
C515 C517 1.384 . S
H516 C518 0.949 . S
C517 C515 1.384 . S
C517 C518 1.385 . S
C517 H519 0.950 . S
C518 C512 1.404 . S
C518 H516 0.949 . S
C518 C517 1.385 . S
H519 C517 0.950 . S
H520 C504 0.952 . S
H521 C506 0.951 . S
H522 C508 0.951 . S
H523 C509 0.950 . S
H524 C510 0.950 . S
H525 C511 0.950 . S
H526 C513 0.950 . S
H527 C514 0.951 . S
C528 C529 1.386 . S
C528 C530 1.383 1_565 S
C528 H544 0.951 1_565 S
C529 C528 1.386 . S
C529 C533 1.383 . S
C530 C528 1.383 1_545 S
C530 C531 1.402 1_545 S
C530 H545 0.951 . S
C531 C530 1.402 1_565 S
C531 C532 1.375 . S
C531 C534 1.481 1_565 S
C532 C531 1.375 . S
C532 C533 1.367 . S
C532 H546 0.951 . S
C533 C529 1.383 . S
C533 C532 1.367 . S
C533 H547 0.950 . S
C534 C531 1.481 1_545 S
C534 C535 1.297 . S
C534 H548 0.950 1_545 S
C535 C534 1.297 . S
C535 C536 1.479 . S
C535 H549 0.950 . S
C536 C535 1.479 . S
C536 C537 1.375 . S
C536 C542 1.404 . S
C537 C536 1.375 . S
C537 C538 1.369 . S
C537 H550 0.950 . S
C538 C537 1.369 . S
C538 C539 1.392 . S
C538 H551 0.951 . S
C539 C538 1.392 . S
C539 C541 1.384 . S
H540 C542 0.949 . S
C541 C539 1.384 . S
C541 C542 1.385 . S
C541 H543 0.950 . S
C542 C536 1.404 . S
C542 H540 0.949 . S
C542 C541 1.385 . S
H543 C541 0.950 . S
H544 C528 0.951 1_545 S
H545 C530 0.951 . S
H546 C532 0.951 . S
H547 C533 0.950 . S
H548 C534 0.950 1_565 S
H549 C535 0.950 . S
H550 C537 0.950 . S
H551 C538 0.951 . S
C552 C553 1.386 . S
C552 C554 1.383 . S
C552 H568 0.951 . S
C553 C552 1.386 . S
C553 C557 1.383 . S
C554 C552 1.383 . S
C554 C555 1.402 . S
C554 H569 0.951 . S
C555 C554 1.402 . S
C555 C556 1.375 . S
C555 C558 1.481 . S
C556 C555 1.375 . S
C556 C557 1.367 . S
C556 H570 0.951 . S
C557 C553 1.383 . S
C557 C556 1.367 . S
C557 H571 0.950 . S
C558 C555 1.481 . S
C558 C559 1.297 . S
C558 H572 0.950 . S
C559 C558 1.297 . S
C559 C560 1.479 . S
C559 H573 0.950 . S
C560 C559 1.479 . S
C560 C561 1.375 . S
C560 C566 1.404 . S
C561 C560 1.375 . S
C561 C562 1.369 . S
C561 H574 0.950 . S
C562 C561 1.369 . S
C562 C563 1.392 . S
C562 H575 0.951 . S
C563 C562 1.392 . S
C563 C565 1.384 . S
H564 C566 0.949 . S
C565 C563 1.384 . S
C565 C566 1.385 . S
C565 H567 0.950 . S
C566 C560 1.404 . S
C566 H564 0.949 . S
C566 C565 1.385 . S
H567 C565 0.950 . S
H568 C552 0.951 . S
H569 C554 0.951 . S
H570 C556 0.951 . S
H571 C557 0.950 . S
H572 C558 0.950 . S
H573 C559 0.950 . S
H574 C561 0.950 . S
H575 C562 0.951 . S
C576 C577 1.386 . S
C576 C578 1.383 . S
C576 H592 0.951 . S
C577 C576 1.386 . S
C577 C581 1.383 . S
C578 C576 1.383 . S
C578 C579 1.402 1_455 S
C578 H593 0.951 . S
C579 C578 1.402 1_655 S
C579 C580 1.375 . S
C579 C582 1.481 . S
C580 C579 1.375 . S
C580 C581 1.367 1_655 S
C580 H594 0.951 . S
C581 C577 1.383 . S
C581 C580 1.367 1_455 S
C581 H595 0.950 1_455 S
C582 C579 1.481 . S
C582 C583 1.297 . S
C582 H596 0.950 . S
C583 C582 1.297 . S
C583 C584 1.479 . S
C583 H597 0.950 . S
C584 C583 1.479 . S
C584 C585 1.375 . S
C584 C590 1.404 . S
C585 C584 1.375 . S
C585 C586 1.369 . S
C585 H598 0.950 . S
C586 C585 1.369 . S
C586 C587 1.392 . S
C586 H599 0.951 . S
C587 C586 1.392 . S
C587 C589 1.384 . S
H588 C590 0.949 . S
C589 C587 1.384 . S
C589 C590 1.385 . S
C589 H591 0.950 . S
C590 C584 1.404 . S
C590 H588 0.949 . S
C590 C589 1.385 . S
H591 C589 0.950 . S
H592 C576 0.951 . S
H593 C578 0.951 . S
H594 C580 0.951 . S
H595 C581 0.950 1_655 S
H596 C582 0.950 . S
H597 C583 0.950 . S
H598 C585 0.950 . S
H599 C586 0.951 . S
C600 C601 1.386 . S
C600 C602 1.383 1_545 S
C600 H616 0.951 1_545 S
C601 C600 1.386 . S
C601 C605 1.383 . S
C602 C600 1.383 1_565 S
C602 C603 1.402 1_565 S
C602 H617 0.951 . S
C603 C602 1.402 1_545 S
C603 C604 1.375 . S
C603 C606 1.481 1_545 S
C604 C603 1.375 . S
C604 C605 1.367 . S
C604 H618 0.951 . S
C605 C601 1.383 . S
C605 C604 1.367 . S
C605 H619 0.950 . S
C606 C603 1.481 1_565 S
C606 C607 1.297 . S
C606 H620 0.950 1_565 S
C607 C606 1.297 . S
C607 C608 1.479 . S
C607 H621 0.950 . S
C608 C607 1.479 . S
C608 C609 1.375 . S
C608 C614 1.404 . S
C609 C608 1.375 . S
C609 C610 1.369 . S
C609 H622 0.950 . S
C610 C609 1.369 . S
C610 C611 1.392 . S
C610 H623 0.951 . S
C611 C610 1.392 . S
C611 C613 1.384 . S
H612 C614 0.949 . S
C613 C611 1.384 . S
C613 C614 1.385 . S
C613 H615 0.950 . S
C614 C608 1.404 . S
C614 H612 0.949 . S
C614 C613 1.385 . S
H615 C613 0.950 . S
H616 C600 0.951 1_565 S
H617 C602 0.951 . S
H618 C604 0.951 . S
H619 C605 0.950 . S
H620 C606 0.950 1_545 S
H621 C607 0.950 . S
H622 C609 0.950 . S
H623 C610 0.951 . S
C193 C157 0.593 . S
C203 N18 0.533 . S
C217 C164 0.595 . S
C227 N45 0.533 . S
C241 C29 0.606 . S
C251 N82 0.538 . S
C265 C36 0.568 . S
C275 N114 0.633 . S
C289 C93 0.590 . S
C299 N146 0.535 . S
C313 C125 0.607 . S
C323 N173 0.655 . S
C337 C6 1.467 . S
C347 C102 1.445 . S
C361 C134 1.418 . S
C371 C34 1.442 . S
C385 C162 1.456 . S
C395 C70 1.474 . S
C409 C68 1.399 . S
C419 C189 1.397 . S
C433 C4 1.397 . S
C443 C100 1.400 . S
C457 C132 1.350 . S
C467 C61 1.424 . S
C481 C166 0.773 . S
C491 N13 0.825 . S
C505 N50 0.789 . S
C515 C2 0.809 . S
C529 N77 0.769 . S
C539 C38 0.830 . S
C553 C66 0.810 . S
C563 N109 0.758 . S
C577 N141 0.799 . S
C587 C98 0.723 . S
C601 N178 0.774 . S
C611 C130 0.825 . S
