# Generated by pormake.
# Topology umc, (4)-cn, num edge types: 1
# Building blocks:
#     Node 0, Type 0, BuildingBlock: QUQFOY_clean_sbu_1, # of connection points: 4
#     Node 1, Type 0, BuildingBlock: QUQFOY_clean_sbu_1, # of connection points: 4
#     Node 2, Type 0, BuildingBlock: QUQFOY_clean_sbu_1, # of connection points: 4
#     Node 3, Type 0, BuildingBlock: QUQFOY_clean_sbu_1, # of connection points: 4
#     Node 4, Type 0, BuildingBlock: QUQFOY_clean_sbu_1, # of connection points: 4
#     Node 5, Type 0, BuildingBlock: QUQFOY_clean_sbu_1, # of connection points: 4
#     Node 6, Type 0, BuildingBlock: QUQFOY_clean_sbu_1, # of connection points: 4
#     Node 7, Type 0, BuildingBlock: QUQFOY_clean_sbu_1, # of connection points: 4
#     Node 8, Type 0, BuildingBlock: QUQFOY_clean_sbu_1, # of connection points: 4
#     Node 9, Type 0, BuildingBlock: QUQFOY_clean_sbu_1, # of connection points: 4
#     Node 10, Type 0, BuildingBlock: QUQFOY_clean_sbu_1, # of connection points: 4
#     Node 11, Type 0, BuildingBlock: QUQFOY_clean_sbu_1, # of connection points: 4
#     Node 12, Type 0, BuildingBlock: QUQFOY_clean_sbu_1, # of connection points: 4
#     Node 13, Type 0, BuildingBlock: QUQFOY_clean_sbu_1, # of connection points: 4
#     Node 14, Type 0, BuildingBlock: QUQFOY_clean_sbu_1, # of connection points: 4
#     Node 15, Type 0, BuildingBlock: QUQFOY_clean_sbu_1, # of connection points: 4
#     Edge 16, Type (0, 0), BuildingBlock: XUDNAN_clean_linker_2, # of connection points: 2
#     Edge 17, Type (0, 0), BuildingBlock: XUDNAN_clean_linker_2, # of connection points: 2
#     Edge 18, Type (0, 0), BuildingBlock: XUDNAN_clean_linker_2, # of connection points: 2
#     Edge 19, Type (0, 0), BuildingBlock: XUDNAN_clean_linker_2, # of connection points: 2
#     Edge 20, Type (0, 0), BuildingBlock: XUDNAN_clean_linker_2, # of connection points: 2
#     Edge 21, Type (0, 0), BuildingBlock: XUDNAN_clean_linker_2, # of connection points: 2
#     Edge 22, Type (0, 0), BuildingBlock: XUDNAN_clean_linker_2, # of connection points: 2
#     Edge 23, Type (0, 0), BuildingBlock: XUDNAN_clean_linker_2, # of connection points: 2
#     Edge 24, Type (0, 0), BuildingBlock: XUDNAN_clean_linker_2, # of connection points: 2
#     Edge 25, Type (0, 0), BuildingBlock: XUDNAN_clean_linker_2, # of connection points: 2
#     Edge 26, Type (0, 0), BuildingBlock: XUDNAN_clean_linker_2, # of connection points: 2
#     Edge 27, Type (0, 0), BuildingBlock: XUDNAN_clean_linker_2, # of connection points: 2
#     Edge 28, Type (0, 0), BuildingBlock: XUDNAN_clean_linker_2, # of connection points: 2
#     Edge 29, Type (0, 0), BuildingBlock: XUDNAN_clean_linker_2, # of connection points: 2
#     Edge 30, Type (0, 0), BuildingBlock: XUDNAN_clean_linker_2, # of connection points: 2
#     Edge 31, Type (0, 0), BuildingBlock: XUDNAN_clean_linker_2, # of connection points: 2
#     Edge 32, Type (0, 0), BuildingBlock: XUDNAN_clean_linker_2, # of connection points: 2
#     Edge 33, Type (0, 0), BuildingBlock: XUDNAN_clean_linker_2, # of connection points: 2
#     Edge 34, Type (0, 0), BuildingBlock: XUDNAN_clean_linker_2, # of connection points: 2
#     Edge 35, Type (0, 0), BuildingBlock: XUDNAN_clean_linker_2, # of connection points: 2
#     Edge 36, Type (0, 0), BuildingBlock: XUDNAN_clean_linker_2, # of connection points: 2
#     Edge 37, Type (0, 0), BuildingBlock: XUDNAN_clean_linker_2, # of connection points: 2
#     Edge 38, Type (0, 0), BuildingBlock: XUDNAN_clean_linker_2, # of connection points: 2
#     Edge 39, Type (0, 0), BuildingBlock: XUDNAN_clean_linker_2, # of connection points: 2
#     Edge 40, Type (0, 0), BuildingBlock: XUDNAN_clean_linker_2, # of connection points: 2
#     Edge 41, Type (0, 0), BuildingBlock: XUDNAN_clean_linker_2, # of connection points: 2
#     Edge 42, Type (0, 0), BuildingBlock: XUDNAN_clean_linker_2, # of connection points: 2
#     Edge 43, Type (0, 0), BuildingBlock: XUDNAN_clean_linker_2, # of connection points: 2
#     Edge 44, Type (0, 0), BuildingBlock: XUDNAN_clean_linker_2, # of connection points: 2
#     Edge 45, Type (0, 0), BuildingBlock: XUDNAN_clean_linker_2, # of connection points: 2
#     Edge 46, Type (0, 0), BuildingBlock: XUDNAN_clean_linker_2, # of connection points: 2
#     Edge 47, Type (0, 0), BuildingBlock: XUDNAN_clean_linker_2, # of connection points: 2
# Relax obj value: 0.042
# Max RMSD: 0.114
# Mean RMSD: 0.114
data_MOF--net-umc--node1-QUQFOY_clean_sbu_1--edge1-XUDNAN_clean_linker_2
_symmetry_space_group_name_H-M    P1
_symmetry_Int_Tables_number       1
_symmetry_cell_setting            triclinic
loop_
_symmetry_equiv_pos_as_xyz
'x, y, z'
_cell_length_a     40.074776
_cell_length_b     40.43039
_cell_length_c     57.134769
_cell_angle_alpha  90.09221
_cell_angle_beta   90.033203
_cell_angle_gamma 89.976489
loop_
_atom_site_label
_atom_site_type_symbol
_atom_site_fract_x
_atom_site_fract_y
_atom_site_fract_z
_atom_type_partial_charge
O0 O 0.32721 0.11074 0.42215 0.0
Cd1 Cd 0.3432 0.12448 0.38918 0.0
Cd2 Cd 0.32689 0.0612 0.3809 0.0
O3 O 0.30553 0.06208 0.41389 0.0
O4 O 0.34261 0.17388 0.39154 0.0
O5 O 0.31093 0.1461 0.36663 0.0
C6 C 0.31956 0.17402 0.37581 0.0
C7 C 0.29748 0.04632 0.34726 0.0
C8 C 0.31132 0.0851 0.42852 0.0
C9 C 0.3996 0.07852 0.37755 0.0
O10 O 0.37812 0.05548 0.3792 0.0
O11 O 0.39053 0.10867 0.37919 0.0
O12 O 0.30662 0.02445 0.36241 0.0
O13 O 0.30384 0.07702 0.35174 0.0
O14 O 0.6845 0.93795 0.42407 0.0
Cd15 Cd 0.66873 0.92717 0.39053 0.0
Cd16 Cd 0.70108 0.98262 0.38117 0.0
O17 O 0.72093 0.97651 0.41443 0.0
O18 O 0.66122 0.87817 0.38814 0.0
O19 O 0.70341 0.90395 0.37105 0.0
C20 C 0.68841 0.87662 0.37606 0.0
C21 C 0.73098 0.99222 0.34682 0.0
C22 C 0.70769 0.9579 0.4298 0.0
C23 C 0.6265 0.98476 0.37706 0.0
O24 O 0.65337 1.00106 0.37951 0.0
O25 O 0.62697 0.95329 0.3785 0.0
O26 O 0.72876 1.01458 0.3629 0.0
O27 O 0.71845 0.96345 0.35112 0.0
O28 O 0.32251 0.94579 0.10533 0.0
Cd29 Cd 0.341 0.93251 0.1377 0.0
Cd30 Cd 0.31052 0.99095 0.14796 0.0
O31 O 0.29059 0.98841 0.11442 0.0
O32 O 0.3442 0.88287 0.13606 0.0
O33 O 0.31025 0.90943 0.16017 0.0
C34 C 0.32069 0.88186 0.15148 0.0
C35 C 0.28121 0.99659 0.18295 0.0
C36 C 0.30163 0.96792 0.09933 0.0
C37 C 0.38624 0.98719 0.15181 0.0
O38 O 0.35981 1.00456 0.15083 0.0
O39 O 0.38486 0.95599 0.14857 0.0
O40 O 0.28603 1.02181 0.16951 0.0
O41 O 0.29065 0.96794 0.17551 0.0
O42 O 0.68411 0.10692 0.10789 0.0
Cd43 Cd 0.6708 0.12156 0.14132 0.0
Cd44 Cd 0.68681 0.05722 0.14949 0.0
O45 O 0.70614 0.05814 0.11591 0.0
O46 O 0.6739 0.17138 0.14205 0.0
O47 O 0.70762 0.13858 0.16192 0.0
C48 C 0.69949 0.16812 0.15559 0.0
C49 C 0.7174 0.0465 0.18337 0.0
C50 C 0.6995 0.08097 0.1013 0.0
C51 C 0.61478 0.07608 0.15475 0.0
O52 O 0.63574 0.05274 0.15223 0.0
O53 O 0.62421 0.10614 0.15332 0.0
O54 O 0.70734 0.02256 0.17013 0.0
O55 O 0.71142 0.0764 0.17668 0.0
O56 O 0.69025 0.93167 0.60687 0.0
Cd57 Cd 0.67339 0.91607 0.63919 0.0
Cd58 Cd 0.68906 0.98003 0.64806 0.0
O59 O 0.71146 0.98052 0.61543 0.0
O60 O 0.67518 0.86656 0.63592 0.0
O61 O 0.7056 0.89421 0.6616 0.0
C62 C 0.69798 0.86644 0.65185 0.0
C63 C 0.71616 0.98658 0.68376 0.0
C64 C 0.70603 0.95751 0.6007 0.0
C65 C 0.61652 0.96175 0.65062 0.0
O66 O 0.63786 0.9849 0.64899 0.0
O67 O 0.62575 0.93159 0.64916 0.0
O68 O 0.70853 1.012 0.67114 0.0
O69 O 0.71012 0.95755 0.67531 0.0
O70 O 0.33245 0.10344 0.60559 0.0
Cd71 Cd 0.34821 0.11447 0.63903 0.0
Cd72 Cd 0.31501 0.05777 0.64859 0.0
O73 O 0.29676 0.06392 0.61479 0.0
O74 O 0.34933 0.1641 0.64281 0.0
O75 O 0.31222 0.13163 0.65987 0.0
C76 C 0.3226 0.16115 0.6553 0.0
C77 C 0.28242 0.0448 0.68139 0.0
C78 C 0.30984 0.083 0.59962 0.0
C79 C 0.39048 0.05752 0.65325 0.0
O80 O 0.36345 0.04124 0.65147 0.0
O81 O 0.3903 0.0889 0.65093 0.0
O82 O 0.28763 0.02334 0.66506 0.0
O83 O 0.29382 0.0743 0.67831 0.0
O84 O 0.6776 0.10312 0.92351 0.0
Cd85 Cd 0.66492 0.11569 0.88954 0.0
Cd86 Cd 0.68199 0.0525 0.88238 0.0
O87 O 0.70295 0.05606 0.91538 0.0
O88 O 0.66902 0.16524 0.88692 0.0
O89 O 0.70298 0.13017 0.86919 0.0
C90 C 0.69524 0.16035 0.87424 0.0
C91 C 0.71074 0.03675 0.84868 0.0
C92 C 0.69502 0.07846 0.93003 0.0
C93 C 0.60987 0.06871 0.87678 0.0
O94 O 0.63106 0.04598 0.88072 0.0
O95 O 0.61895 0.09896 0.87694 0.0
O96 O 0.70286 1.0153 0.86446 0.0
O97 O 0.70389 0.06744 0.85272 0.0
O98 O 0.32153 0.9372 0.9228 0.0
Cd99 Cd 0.33802 0.9223 0.89021 0.0
Cd100 Cd 0.30731 0.98075 0.87824 0.0
O101 O 0.28936 0.97916 0.91239 0.0
O102 O 0.33767 0.87228 0.88865 0.0
O103 O 0.30247 0.90425 0.86933 0.0
C104 C 0.31176 0.8749 0.87529 0.0
C105 C 0.27552 0.98963 0.84445 0.0
C106 C 0.3008 0.95989 0.92813 0.0
C107 C 0.38298 0.97591 0.87357 0.0
O108 O 0.35666 0.99346 0.87413 0.0
O109 O 0.38151 0.94499 0.87787 0.0
O110 O 0.28278 1.01382 0.85832 0.0
O111 O 0.28414 0.96024 0.85074 0.0
O112 O 0.82569 0.60743 0.42291 0.0
Cd113 Cd 0.84211 0.62271 0.39044 0.0
Cd114 Cd 0.81281 0.56357 0.37835 0.0
O115 O 0.79427 0.56495 0.41238 0.0
O116 O 0.84059 0.67274 0.38902 0.0
O117 O 0.80626 0.64001 0.36951 0.0
C118 C 0.81479 0.66955 0.37559 0.0
C119 C 0.78234 0.55409 0.34402 0.0
C120 C 0.80532 0.58443 0.42816 0.0
C121 C 0.88844 0.56995 0.37431 0.0
O122 O 0.86247 0.55192 0.37483 0.0
O123 O 0.88628 0.60092 0.37835 0.0
O124 O 0.78961 0.53001 0.35794 0.0
O125 O 0.79004 0.58364 0.35057 0.0
O126 O 0.1886 0.44579 0.42358 0.0
Cd127 Cd 0.17262 0.43305 0.39031 0.0
Cd128 Cd 0.18899 0.49663 0.3833 0.0
O129 O 0.21044 0.49462 0.41619 0.0
O130 O 0.17258 0.3836 0.39199 0.0
O131 O 0.20501 0.41157 0.36776 0.0
C132 C 0.19591 0.38355 0.37648 0.0
C133 C 0.21815 0.51151 0.34965 0.0
C134 C 0.20466 0.47115 0.43039 0.0
C135 C 0.11656 0.47984 0.37897 0.0
O136 O 0.13788 0.50282 0.38166 0.0
O137 O 0.12565 0.44963 0.37988 0.0
O138 O 0.2096 0.53331 0.36506 0.0
O139 O 0.21147 0.48083 0.35393 0.0
O140 O 0.83323 0.43601 0.10675 0.0
Cd141 Cd 0.84511 0.42597 0.14126 0.0
Cd142 Cd 0.82431 0.48761 0.14668 0.0
O143 O 0.80458 0.4816 0.11343 0.0
O144 O 0.85086 0.37684 0.14335 0.0
O145 O 0.80897 0.40352 0.1601 0.0
C146 C 0.82359 0.37588 0.15527 0.0
C147 C 0.79358 0.50032 0.18015 0.0
C148 C 0.81452 0.45921 0.09939 0.0
C149 C 0.89658 0.47713 0.15387 0.0
O150 O 0.87451 0.49851 0.14877 0.0
O151 O 0.88894 0.44655 0.15446 0.0
O152 O 0.79961 0.52244 0.16442 0.0
O153 O 0.80344 0.47039 0.17617 0.0
O154 O 0.18539 0.61248 0.10721 0.0
Cd155 Cd 0.1672 0.6272 0.13931 0.0
Cd156 Cd 0.19761 0.56945 0.15104 0.0
O157 O 0.21726 0.57037 0.11739 0.0
O158 O 0.16512 0.67678 0.13718 0.0
O159 O 0.19854 0.65003 0.16154 0.0
C160 C 0.18871 0.67762 0.15257 0.0
C161 C 0.22785 0.56317 0.18563 0.0
C162 C 0.20625 0.59004 0.10179 0.0
C163 C 0.1217 0.57385 0.15475 0.0
O164 O 0.14816 0.55647 0.15452 0.0
O165 O 0.12304 0.60475 0.15042 0.0
O166 O 0.2219 0.53809 0.17225 0.0
O167 O 0.21888 0.59205 0.17838 0.0
O168 O 0.19461 0.43671 0.60733 0.0
Cd169 Cd 0.18016 0.42206 0.64057 0.0
Cd170 Cd 0.19643 0.4852 0.64947 0.0
O171 O 0.21706 0.48494 0.61632 0.0
O172 O 0.17604 0.37259 0.63947 0.0
O173 O 0.21491 0.39824 0.66009 0.0
C174 C 0.2017 0.3709 0.65301 0.0
C175 C 0.22547 0.49317 0.6843 0.0
C176 C 0.21055 0.46257 0.60129 0.0
C177 C 0.12446 0.46885 0.65367 0.0
O178 O 0.14557 0.492 0.65124 0.0
O179 O 0.13384 0.43878 0.65238 0.0
O180 O 0.21734 0.51796 0.67122 0.0
O181 O 0.2187 0.46373 0.67684 0.0
O182 O 0.83049 0.59775 0.60503 0.0
Cd183 Cd 0.84953 0.61101 0.63728 0.0
Cd184 Cd 0.81946 0.55272 0.6478 0.0
O185 O 0.79908 0.55495 0.61437 0.0
O186 O 0.85293 0.66053 0.6355 0.0
O187 O 0.81927 0.63443 0.65999 0.0
C188 C 0.82971 0.66185 0.65112 0.0
C189 C 0.79014 0.54639 0.68276 0.0
C190 C 0.80964 0.57549 0.59921 0.0
C191 C 0.89527 0.55667 0.65108 0.0
O192 O 0.86887 0.53924 0.65043 0.0
O193 O 0.89372 0.58781 0.6477 0.0
O194 O 0.7953 0.52142 0.6691 0.0
O195 O 0.79937 0.57524 0.67562 0.0
O196 O 0.18505 0.60518 0.92432 0.0
Cd197 Cd 0.17018 0.61516 0.89048 0.0
Cd198 Cd 0.20269 0.55931 0.88215 0.0
O199 O 0.22172 0.56635 0.91561 0.0
O200 O 0.16228 0.664 0.88773 0.0
O201 O 0.20501 0.63834 0.87113 0.0
C202 C 0.1896 0.66561 0.87583 0.0
C203 C 0.23346 0.54808 0.84839 0.0
C204 C 0.20809 0.5854 0.9306 0.0
C205 C 0.12817 0.55757 0.87682 0.0
O206 O 0.15488 0.54117 0.87986 0.0
O207 O 0.12871 0.58903 0.87809 0.0
O208 O 0.23045 0.52635 0.86478 0.0
O209 O 0.22132 0.57722 0.85211 0.0
O210 O 0.83462 0.42688 0.92179 0.0
Cd211 Cd 0.84801 0.41433 0.88793 0.0
Cd212 Cd 0.82971 0.47669 0.88012 0.0
O213 O 0.8089 0.47352 0.9132 0.0
O214 O 0.85185 0.36495 0.88728 0.0
O215 O 0.81231 0.39218 0.86835 0.0
C216 C 0.82549 0.3643 0.87437 0.0
C217 C 0.80013 0.49192 0.84665 0.0
C218 C 0.81696 0.4515 0.92806 0.0
C219 C 0.90215 0.46255 0.87517 0.0
O220 O 0.88047 0.48502 0.87844 0.0
O221 O 0.89357 0.43222 0.8758 0.0
O222 O 0.80795 0.51337 0.86249 0.0
O223 O 0.80759 0.46128 0.85046 0.0
H224 H 0.32807 0.1259 0.46483 0.0
H225 H 0.2741 0.03555 0.44894 0.0
H226 H 0.26296 0.02768 0.49119 0.0
H227 H 0.36888 0.09608 0.51417 0.0
H228 H 0.36713 0.13447 0.53022 0.0
H229 H 0.36715 0.13492 0.49875 0.0
H230 H 0.31212 0.16866 0.49882 0.0
H231 H 0.31198 0.16839 0.53036 0.0
H232 H 0.27635 0.15307 0.51441 0.0
H233 H 0.26158 0.02782 0.53583 0.0
H234 H 0.27169 0.03494 0.57829 0.0
H235 H 0.32762 0.12458 0.56404 0.0
C236 C 0.31332 0.10475 0.4701 0.0
C237 C 0.30178 0.08145 0.45349 0.0
C238 C 0.28307 0.05384 0.46129 0.0
C239 C 0.27656 0.04921 0.48526 0.0
C240 C 0.28889 0.07241 0.50118 0.0
C241 C 0.30683 0.09967 0.49384 0.0
C242 C 0.31955 0.11972 0.51436 0.0
C243 C 0.35794 0.12137 0.51437 0.0
C244 C 0.30407 0.15452 0.51449 0.0
C245 C 0.30665 0.09914 0.53448 0.0
C246 C 0.28862 0.07218 0.52662 0.0
C247 C 0.27541 0.04902 0.54215 0.0
C248 C 0.28125 0.05329 0.56625 0.0
C249 C 0.30045 0.08031 0.57455 0.0
C250 C 0.31277 0.10369 0.55835 0.0
H251 H 0.69051 0.91604 0.5646 0.0
H252 H 0.74246 1.00766 0.58014 0.0
H253 H 0.75381 1.01517 0.53785 0.0
H254 H 0.74294 0.88918 0.51536 0.0
H255 H 0.70765 0.87301 0.49948 0.0
H256 H 0.70743 0.87313 0.53102 0.0
H257 H 0.65178 0.90586 0.53081 0.0
H258 H 0.65186 0.9059 0.49935 0.0
H259 H 0.64936 0.94445 0.51514 0.0
H260 H 0.7555 1.01434 0.49314 0.0
H261 H 0.74538 1.00659 0.45074 0.0
H262 H 0.69099 0.91622 0.46552 0.0
C263 C 0.70487 0.93742 0.55928 0.0
C264 C 0.71579 0.96117 0.57577 0.0
C265 C 0.734 0.98903 0.56787 0.0
C266 C 0.74062 0.99345 0.54388 0.0
C267 C 0.72889 0.96977 0.52807 0.0
C268 C 0.71142 0.94229 0.53554 0.0
C269 C 0.69912 0.92173 0.51515 0.0
C270 C 0.71526 0.88722 0.51526 0.0
C271 C 0.66077 0.91937 0.51512 0.0
C272 C 0.71168 0.94228 0.49492 0.0
C273 C 0.72924 0.96964 0.50263 0.0
C274 C 0.74204 0.99283 0.48696 0.0
C275 C 0.73621 0.9882 0.4629 0.0
C276 C 0.71738 0.9608 0.45478 0.0
C277 C 0.70555 0.93738 0.4711 0.0
H278 H 0.31909 0.92574 0.06409 0.0
H279 H 0.26342 1.01588 0.07758 0.0
H280 H 0.25277 1.02165 0.03502 0.0
H281 H 0.35999 0.9533 1.01418 0.0
H282 H 0.35872 0.91402 0.99924 0.0
H283 H 0.35858 0.91536 0.0307 0.0
H284 H 0.3039 0.88113 0.03146 0.0
H285 H 0.30393 0.87956 0.99994 0.0
H286 H 0.26805 0.89546 0.0153 0.0
H287 H 0.25257 1.01947 0.99009 0.0
H288 H 0.26287 1.00969 0.94788 0.0
H289 H 0.31891 0.92113 0.96516 0.0
C290 C 0.30418 0.9465 0.05826 0.0
C291 C 0.29204 0.97034 0.07426 0.0
C292 C 0.27284 0.99718 0.0657 0.0
C293 C 0.26668 1.00065 0.04155 0.0
C294 C 0.27969 0.97697 0.02624 0.0
C295 C 0.29788 0.95031 0.03438 0.0
C296 C 0.3109 0.9292 1.01452 0.0
C297 C 0.34931 0.92792 0.01468 0.0
C298 C 0.29578 0.89428 0.01536 0.0
C299 C 0.2979 0.94847 0.99379 0.0
C300 C 0.27968 0.97579 1.00077 0.0
C301 C 0.26651 0.99794 0.98448 0.0
C302 C 0.27248 0.99218 0.96053 0.0
C303 C 0.29166 0.96461 0.95312 0.0
C304 C 0.30402 0.94237 0.97011 0.0
H305 H 0.68064 0.12116 0.96592 0.0
H306 H 0.72953 0.02763 0.95099 0.0
H307 H 0.74035 1.02 0.99324 0.0
H308 H 0.73499 0.14625 0.01473 0.0
H309 H 0.70081 0.16428 0.0308 0.0
H310 H 0.69995 0.16371 0.99926 0.0
H311 H 0.64286 0.1336 1.00023 0.0
H312 H 0.64359 0.134 0.0317 0.0
H313 H 0.63898 0.09539 0.01622 0.0
H314 H 0.74134 1.02048 0.0377 0.0
H315 H 0.73271 0.02928 0.08013 0.0
H316 H 0.68357 0.12266 0.06528 0.0
C317 C 0.69413 0.0993 0.97142 0.0
C318 C 0.70429 0.07503 0.95506 0.0
C319 C 0.72159 0.04665 0.96314 0.0
C320 C 0.72789 0.04211 0.98712 0.0
C321 C 0.71695 0.06626 1.00279 0.0
C322 C 0.70062 0.0944 0.99521 0.0
C323 C 0.68972 0.11578 0.01558 0.0
C324 C 0.70744 0.1495 0.01505 0.0
C325 C 0.65153 0.11991 0.01594 0.0
C326 C 0.70174 0.09494 0.03587 0.0
C327 C 0.71763 0.06658 0.02821 0.0
C328 C 0.72929 0.0428 0.04388 0.0
C329 C 0.72425 0.048 0.06796 0.0
C330 C 0.70758 0.07672 0.07612 0.0
C331 C 0.6967 0.10058 0.05974 0.0
H332 H 0.82492 0.61847 0.56406 0.0
H333 H 0.77221 0.52674 0.5776 0.0
H334 H 0.76064 0.52104 0.53514 0.0
H335 H 0.77172 0.64769 0.51602 0.0
H336 H 0.80675 0.66474 0.50037 0.0
H337 H 0.80747 0.66294 0.53187 0.0
H338 H 0.86315 0.63034 0.53031 0.0
H339 H 0.86255 0.63192 0.49887 0.0
H340 H 0.86535 0.59258 0.51355 0.0
H341 H 0.75946 0.52347 0.4902 0.0
H342 H 0.76887 0.53366 0.44795 0.0
H343 H 0.82248 0.62373 0.4652 0.0
C344 C 0.81046 0.59737 0.55826 0.0
C345 C 0.79944 0.57305 0.57425 0.0
C346 C 0.78077 0.54579 0.56574 0.0
C347 C 0.77409 0.54236 0.54164 0.0
C348 C 0.78602 0.56653 0.52634 0.0
C349 C 0.80363 0.59361 0.53444 0.0
C350 C 0.81556 0.61522 0.51456 0.0
C351 C 0.7994 0.64968 0.51578 0.0
C352 C 0.85391 0.61763 0.51432 0.0
C353 C 0.80269 0.59573 0.49386 0.0
C354 C 0.78541 0.56788 0.50087 0.0
C355 C 0.77264 0.54542 0.48458 0.0
C356 C 0.77809 0.55142 0.4606 0.0
C357 C 0.79638 0.57952 0.45317 0.0
C358 C 0.80826 0.60208 0.47016 0.0
H359 H 0.19707 0.42108 0.56455 0.0
H360 H 0.24231 0.5158 0.58118 0.0
H361 H 0.25068 0.52633 0.53897 0.0
H362 H 0.24968 0.4015 0.51326 0.0
H363 H 0.21527 0.38301 0.49769 0.0
H364 H 0.21659 0.38144 0.5292 0.0
H365 H 0.15818 0.40887 0.53109 0.0
H366 H 0.15674 0.41067 0.49967 0.0
H367 H 0.15145 0.44792 0.51664 0.0
H368 H 0.24892 0.52872 0.49456 0.0
H369 H 0.23743 0.52256 0.45223 0.0
H370 H 0.19341 0.42625 0.46532 0.0
C371 C 0.20939 0.44378 0.55942 0.0
C372 C 0.21913 0.46756 0.57626 0.0
C373 C 0.23476 0.49711 0.56866 0.0
C374 C 0.23965 0.5033 0.5447 0.0
C375 C 0.229 0.47963 0.52856 0.0
C376 C 0.2144 0.45035 0.53566 0.0
C377 C 0.20307 0.42988 0.51493 0.0
C378 C 0.22231 0.39701 0.5137 0.0
C379 C 0.16512 0.42402 0.51563 0.0
C380 C 0.21271 0.45259 0.49504 0.0
C381 C 0.22795 0.48102 0.50317 0.0
C382 C 0.2374 0.50635 0.488 0.0
C383 C 0.23073 0.50264 0.46397 0.0
C384 C 0.2146 0.47389 0.45536 0.0
C385 C 0.20602 0.44844 0.4712 0.0
H386 H 0.83544 0.41226 0.96496 0.0
H387 H 0.77843 0.50035 0.94794 0.0
H388 H 0.7675 0.50951 0.99002 0.0
H389 H 0.78429 0.38562 0.01505 0.0
H390 H 0.8202 0.37167 0.03129 0.0
H391 H 0.82049 0.3703 0.99976 0.0
H392 H 0.87469 0.40526 0.9993 0.0
H393 H 0.87451 0.40684 0.03076 0.0
H394 H 0.87542 0.44466 1.01411 0.0
H395 H 0.76679 0.51146 0.03434 0.0
H396 H 0.77654 0.50614 0.0769 0.0
H397 H 0.8342 0.41687 0.06448 0.0
C398 C 0.82012 0.43317 0.96998 0.0
C399 C 0.80769 0.45551 0.95307 0.0
C400 C 0.78814 0.4828 0.96052 0.0
C401 C 0.78175 0.48819 0.9844 0.0
C402 C 0.79494 0.466 1.00062 0.0
C403 C 0.81359 0.43895 0.99369 0.0
C404 C 0.82669 0.41992 1.01457 0.0
C405 C 0.81203 0.3848 0.0152 0.0
C406 C 0.86509 0.41915 0.01468 0.0
C407 C 0.81319 0.44092 0.03437 0.0
C408 C 0.79466 0.46721 0.02602 0.0
C409 C 0.78095 0.49076 0.04107 0.0
C410 C 0.78666 0.48754 0.06523 0.0
C411 C 0.80607 0.46105 0.07411 0.0
C412 C 0.81904 0.43729 0.05836 0.0
H413 H 0.1861 0.62827 0.0651 0.0
H414 H 0.24746 0.54298 0.08177 0.0
H415 H 0.25896 0.53499 0.03951 0.0
H416 H 0.1477 0.59452 0.01599 0.0
H417 H 0.14646 0.6327 0.99977 0.0
H418 H 0.14633 0.63358 0.03124 0.0
H419 H 0.19854 0.67143 0.03106 0.0
H420 H 0.19878 0.67075 0.99953 0.0
H421 H 0.23547 0.65841 0.01557 0.0
H422 H 0.2599 0.53427 0.99467 0.0
H423 H 0.24944 0.54022 0.95217 0.0
H424 H 0.18689 0.62567 0.96608 0.0
C425 C 0.20243 0.60815 0.06003 0.0
C426 C 0.21596 0.5863 0.07684 0.0
C427 C 0.23693 0.56016 0.06926 0.0
C428 C 0.24361 0.55546 0.04528 0.0
C429 C 0.22929 0.57719 0.02917 0.0
C430 C 0.20923 0.6031 0.03633 0.0
C431 C 0.19502 0.62185 0.01573 0.0
C432 C 0.15661 0.62056 0.01569 0.0
C433 C 0.20772 0.65773 0.01546 0.0
C434 C 0.20954 0.60206 0.99573 0.0
C435 C 0.22956 0.57661 1.00371 0.0
C436 C 0.24452 0.55432 0.98827 0.0
C437 C 0.23845 0.55791 0.96414 0.0
C438 C 0.21736 0.58343 0.95572 0.0
C439 C 0.20324 0.60596 0.97184 0.0
H440 H 0.56143 0.96181 0.38018 0.0
H441 H 0.61987 0.04997 0.36596 0.0
H442 H 0.56831 0.08263 0.36273 0.0
H443 H 0.49142 0.98221 0.34095 0.0
H444 H 0.46047 0.96588 0.36067 0.0
H445 H 0.50193 0.94862 0.36032 0.0
H446 H 0.50743 0.95976 0.40481 0.0
H447 H 0.46608 0.97716 0.40528 0.0
H448 H 0.50094 1.00106 0.41586 0.0
H449 H 0.51101 0.10688 0.36357 0.0
H450 H 0.45125 0.12063 0.36749 0.0
H451 H 0.4292 1.01717 0.38077 0.0
C452 C 0.56333 0.98786 0.37602 0.0
C453 C 0.59484 1.00322 0.37331 0.0
C454 C 0.59615 0.03752 0.36817 0.0
C455 C 0.56695 0.05637 0.36625 0.0
C456 C 0.53641 0.04068 0.36942 0.0
C457 C 0.53429 1.00719 0.37407 0.0
C458 C 0.49823 0.99686 0.37762 0.0
C459 C 0.48738 0.97191 0.35876 0.0
C460 C 0.49287 0.98289 0.40236 0.0
C461 C 0.48062 0.02983 0.37456 0.0
C462 C 0.50314 0.05474 0.36977 0.0
C463 C 0.49306 0.08753 0.36709 0.0
C464 C 0.45904 0.09512 0.36941 0.0
C465 C 0.4354 0.07004 0.37433 0.0
C466 C 0.44651 0.03693 0.37677 0.0
H467 H 0.45083 0.96322 0.14688 0.0
H468 H 0.39446 0.05068 0.16671 0.0
H469 H 0.44667 0.08171 0.17165 0.0
H470 H 0.52155 0.97762 0.18697 0.0
H471 H 0.55205 0.96299 0.16621 0.0
H472 H 0.51025 0.94656 0.16572 0.0
H473 H 0.50466 0.96286 0.12205 0.0
H474 H 0.54636 0.9794 0.12244 0.0
H475 H 0.51193 1.00515 0.11348 0.0
H476 H 0.50432 0.1049 0.17176 0.0
H477 H 0.56428 0.11797 0.16796 0.0
H478 H 0.58409 1.01583 0.14882 0.0
C479 C 0.44952 0.98872 0.15261 0.0
C480 C 0.41839 1.0044 0.15637 0.0
C481 C 0.41786 0.03801 0.1636 0.0
C482 C 0.44745 0.05594 0.16654 0.0
C483 C 0.4776 0.04003 0.1623 0.0
C484 C 0.47898 1.00715 0.15563 0.0
C485 C 0.51479 0.99653 0.15132 0.0
C486 C 0.52527 0.96931 0.16859 0.0
C487 C 0.51971 0.98534 0.12581 0.0
C488 C 0.53307 0.0287 0.15626 0.0
C489 C 0.51112 0.05342 0.16263 0.0
C490 C 0.52185 0.08566 0.16704 0.0
C491 C 0.55596 0.09287 0.16479 0.0
C492 C 0.57899 0.06796 0.15826 0.0
C493 C 0.56724 0.03539 0.15415 0.0
H494 H 0.58715 0.023 0.64682 0.0
H495 H 0.56473 0.92 0.66144 0.0
H496 H 0.50516 0.93435 0.66611 0.0
H497 H 0.52702 0.05929 0.68714 0.0
H498 H 0.51631 0.09264 0.66761 0.0
H499 H 0.55746 0.07469 0.66665 0.0
H500 H 0.55019 0.06251 0.62242 0.0
H501 H 0.5091 0.08048 0.62322 0.0
H502 H 0.5147 0.03883 0.61264 0.0
H503 H 0.44808 0.95941 0.66801 0.0
H504 H 0.39681 0.99262 0.66538 0.0
H505 H 0.4557 0.0797 0.64892 0.0
C506 C 0.56981 1.00345 0.65123 0.0
C507 C 0.58074 0.97031 0.65388 0.0
C508 C 0.55705 0.94551 0.65934 0.0
C509 C 0.52316 0.95346 0.6621 0.0
C510 C 0.51329 0.98631 0.6593 0.0
C511 C 0.53586 1.01091 0.6539 0.0
C512 C 0.51848 0.04401 0.65077 0.0
C513 C 0.53054 0.06914 0.66914 0.0
C514 C 0.52341 0.05722 0.62578 0.0
C515 C 0.48249 0.03413 0.65506 0.0
C516 C 0.48018 1.00077 0.66012 0.0
C517 C 0.4496 0.98556 0.66414 0.0
C518 C 0.42057 1.00473 0.66257 0.0
C519 C 0.42207 0.03889 0.65695 0.0
C520 C 0.45363 0.05379 0.65347 0.0
H521 H 0.57949 1.00875 0.88458 0.0
H522 H 0.55993 0.10826 0.85959 0.0
H523 H 0.50079 0.09349 0.85328 0.0
H524 H 0.52233 0.96547 0.84519 0.0
H525 H 0.50937 0.93627 0.8672 0.0
H526 H 0.55068 0.95383 0.86827 0.0
H527 H 0.53984 0.9744 0.91055 0.0
H528 H 0.49859 0.95683 0.90964 0.0
H529 H 0.504 1.00007 0.9164 0.0
H530 H 0.44375 0.06886 0.8511 0.0
H531 H 0.39166 0.03727 0.85501 0.0
H532 H 0.44732 0.95348 0.88217 0.0
C533 C 0.56288 0.02736 0.87751 0.0
C534 C 0.57447 0.05969 0.87243 0.0
C535 C 0.55173 0.08339 0.86358 0.0
C536 C 0.5181 0.07516 0.85985 0.0
C537 C 0.50753 0.04317 0.86513 0.0
C538 C 0.52916 1.01965 0.87387 0.0
C539 C 0.51096 0.98763 0.87933 0.0
C540 C 0.52412 0.95911 0.86408 0.0
C541 C 0.5135 0.97925 0.90553 0.0
C542 C 0.47557 0.99693 0.87255 0.0
C543 C 0.47433 0.029 0.8642 0.0
C544 C 0.44444 0.0437 0.85753 0.0
C545 C 0.41492 0.02547 0.85986 0.0
C546 C 0.41526 0.99279 0.8689 0.0
C547 C 0.4462 0.97821 0.87496 0.0
H548 H 0.95238 0.59345 0.38321 0.0
H549 H 0.89829 0.50851 0.35614 0.0
H550 H 0.95079 0.47748 0.35292 0.0
H551 H 0.028 0.5816 0.34678 0.0
H552 H 0.05582 0.5942 0.36994 0.0
H553 H 0.01423 0.61105 0.36845 0.0
H554 H 1.00316 0.5914 0.41087 0.0
H555 H 0.04457 0.57426 0.41241 0.0
H556 H 0.00889 0.54839 0.41813 0.0
H557 H 0.00782 0.4535 0.35582 0.0
H558 H 0.06705 0.43946 0.36237 0.0
H559 H 0.08547 0.53968 0.38659 0.0
C560 C 0.95171 0.56859 0.37615 0.0
C561 C 0.92107 0.55351 0.36996 0.0
C562 C 0.92131 0.52069 0.36111 0.0
C563 C 0.95106 0.50276 0.35917 0.0
C564 C 0.98064 0.51793 0.36599 0.0
C565 C 0.98139 0.55019 0.37407 0.0
C566 C 0.01661 0.55996 0.38103 0.0
C567 C 0.02942 0.58839 0.36563 0.0
C568 C 0.01839 0.56903 0.40716 0.0
C569 C 0.03524 0.528 0.37596 0.0
C570 C 0.01395 0.50411 0.36729 0.0
C571 C 0.02488 0.47212 0.36232 0.0
C572 C 0.05855 0.46432 0.3662 0.0
C573 C 0.08101 0.48845 0.37485 0.0
C574 C 0.06906 0.52075 0.37969 0.0
H575 H 0.05721 0.59477 0.1448 0.0
H576 H 0.1136 0.51392 0.17544 0.0
H577 H 0.06184 0.48222 0.18062 0.0
H578 H 0.98209 0.58509 0.18199 0.0
H579 H 0.95382 0.59452 0.15837 0.0
H580 H 0.99498 0.61247 0.15881 0.0
H581 H 1.00639 0.58861 0.11748 0.0
H582 H 0.96538 0.57048 0.11696 0.0
H583 H 1.00161 0.54483 0.11245 0.0
H584 H 1.00539 0.45702 0.17962 0.0
H585 H 0.94674 0.44064 0.17354 0.0
H586 H 0.92561 0.53737 0.14409 0.0
C587 C 0.05852 0.57069 0.15301 0.0
C588 C 0.08957 0.55692 0.15971 0.0
C589 C 0.09023 0.52505 0.17006 0.0
C590 C 0.06091 0.5068 0.17316 0.0
C591 C 0.03089 0.52066 0.16592 0.0
C592 C 0.02931 0.55193 0.1562 0.0
C593 C 0.99382 0.56014 0.14889 0.0
C594 C 0.98039 0.58982 0.16285 0.0
C595 C 0.99169 0.56637 0.12237 0.0
C596 C 0.97601 0.52839 0.15565 0.0
C597 C 0.99791 0.50605 0.16552 0.0
C598 C 0.98785 0.47443 0.17216 0.0
C599 C 0.95449 0.4653 0.16857 0.0
C600 C 0.93145 0.48772 0.15848 0.0
C601 C 0.94245 0.51979 0.15213 0.0
H602 H 0.95969 0.58095 0.64579 0.0
H603 H 0.90405 0.49327 0.66586 0.0
H604 H 0.95649 0.46258 0.67063 0.0
H605 H 0.021 0.53912 0.61223 0.0
H606 H 0.05528 0.56513 0.6211 0.0
H607 H 0.01347 0.58142 0.62077 0.0
H608 H 0.01911 0.59806 0.66439 0.0
H609 H 0.06102 0.58188 0.66484 0.0
H610 H 0.03069 0.56723 0.68567 0.0
H611 H 0.0142 0.4398 0.67071 0.0
H612 H 0.07418 0.42701 0.66695 0.0
H613 H 0.09347 0.52904 0.64753 0.0
C614 C 0.95859 0.55546 0.65152 0.0
C615 C 0.92758 0.53963 0.65542 0.0
C616 C 0.92734 0.50606 0.66266 0.0
C617 C 0.95706 0.48832 0.6655 0.0
C618 C 0.98708 0.50439 0.66115 0.0
C619 C 0.9882 0.53722 0.65444 0.0
C620 C 0.02394 0.54802 0.65006 0.0
C621 C 0.02869 0.55906 0.62452 0.0
C622 C 0.03429 0.57542 0.66727 0.0
C623 C 0.04248 0.516 0.655 0.0
C624 C 0.02069 0.4912 0.66144 0.0
C625 C 0.0316 0.45909 0.66593 0.0
C626 C 0.06573 0.45203 0.66369 0.0
C627 C 0.08864 0.47699 0.65709 0.0
C628 C 0.07672 0.50946 0.65289 0.0
H629 H 0.06305 0.58013 0.88044 0.0
H630 H 0.12195 0.49307 0.8637 0.0
H631 H 0.07052 0.46048 0.85918 0.0
H632 H 1.00286 0.53863 0.91476 0.0
H633 H 0.96784 0.56297 0.905 0.0
H634 H 0.0091 0.58057 0.90502 0.0
H635 H 1.00338 0.59426 0.86092 0.0
H636 H 0.96202 0.57678 0.86079 0.0
H637 H 0.99301 0.56178 0.84053 0.0
H638 H 0.0134 0.43607 0.85903 0.0
H639 H 0.95386 0.42167 0.86295 0.0
H640 H 0.93115 0.52407 0.87968 0.0
C641 C 0.06508 0.55437 0.87543 0.0
C642 C 0.09665 0.53925 0.87238 0.0
C643 C 0.09815 0.50529 0.86619 0.0
C644 C 0.06904 0.48651 0.8635 0.0
C645 C 0.03841 0.50193 0.86703 0.0
C646 C 0.03612 0.53509 0.87277 0.0
C647 C 1.00001 0.54504 0.87669 0.0
C648 C 0.99465 0.55753 0.90187 0.0
C649 C 0.98896 0.571 0.85866 0.0
C650 C 0.98257 0.51219 0.87262 0.0
C651 C 1.00522 0.48773 0.86693 0.0
C652 C 0.99535 0.45507 0.86325 0.0
C653 C 0.96144 0.44712 0.86557 0.0
C654 C 0.93769 0.47169 0.87153 0.0
C655 C 0.94855 0.50472 0.87488 0.0
H656 H 0.21932 0.33813 0.40711 0.0
H657 H 0.21354 0.36006 0.33305 0.0
H658 H 0.24371 0.30774 0.32417 0.0
H659 H 0.30332 0.30721 0.40494 0.0
H660 H 0.29645 0.27656 0.42729 0.0
H661 H 0.27246 0.31423 0.42736 0.0
H662 H 0.21768 0.28016 0.42692 0.0
H663 H 0.2415 0.24239 0.42687 0.0
H664 H 0.21111 0.24983 0.40421 0.0
H665 H 0.27203 0.25044 0.32396 0.0
H666 H 0.3023 0.19811 0.33251 0.0
H667 H 0.29543 0.21878 0.40675 0.0
C668 C 0.22415 0.33169 0.38901 0.0
C669 C 0.21365 0.35259 0.37068 0.0
C670 C 0.22119 0.34405 0.34726 0.0
C671 C 0.23821 0.31442 0.3421 0.0
C672 C 0.24826 0.29423 0.36065 0.0
C673 C 0.24202 0.30293 0.38365 0.0
C674 C 0.25733 0.27842 0.40053 0.0
C675 C 0.28397 0.29511 0.41593 0.0
C676 C 0.23029 0.26171 0.41551 0.0
C677 C 0.27289 0.25424 0.3835 0.0
C678 C 0.26692 0.26331 0.36055 0.0
C679 C 0.2773 0.24347 0.34186 0.0
C680 C 0.29438 0.21383 0.34683 0.0
C681 C 0.30165 0.20493 0.37022 0.0
C682 C 0.2908 0.22548 0.38868 0.0
H683 H 0.75351 0.85789 0.38054 0.0
H684 H 0.65622 0.82205 0.35933 0.0
H685 H 0.68014 0.76635 0.35246 0.0
H686 H 0.80546 0.80541 0.34185 0.0
H687 H 0.83643 0.79843 0.3642 0.0
H688 H 0.81297 0.83648 0.36389 0.0
H689 H 0.79406 0.82589 0.40657 0.0
H690 H 0.81739 0.78786 0.407 0.0
H691 H 0.77344 0.78758 0.41369 0.0
H692 H 0.71398 0.7142 0.34973 0.0
H693 H 0.75306 0.66787 0.35549 0.0
H694 H 0.82761 0.73619 0.38206 0.0
C695 C 0.73754 0.83846 0.37381 0.0
C696 C 0.70321 0.84429 0.36986 0.0
C697 C 0.68267 0.81808 0.36207 0.0
C698 C 0.69608 0.78646 0.35807 0.0
C699 C 0.72997 0.78133 0.36243 0.0
C700 C 0.75037 0.80651 0.3704 0.0
C701 C 0.78491 0.79355 0.37639 0.0
C702 C 0.81151 0.80941 0.36064 0.0
C703 C 0.7929 0.79904 0.40246 0.0
C704 C 0.78065 0.75708 0.37083 0.0
C705 C 0.74899 0.75075 0.3623 0.0
C706 C 0.73885 0.71889 0.35633 0.0
C707 C 0.76133 0.6927 0.35963 0.0
C708 C 0.79348 0.69829 0.36924 0.0
C709 C 0.80332 0.73108 0.37458 0.0
H710 H 0.21316 0.72179 0.12127 0.0
H711 H 0.20622 0.70203 0.19558 0.0
H712 H 0.23948 0.75255 0.20388 0.0
H713 H 0.29874 0.747 0.12318 0.0
H714 H 0.29427 0.77775 0.10059 0.0
H715 H 0.2675 0.74198 0.10074 0.0
H716 H 0.21533 0.77987 0.10089 0.0
H717 H 0.24193 0.81575 0.1005 0.0
H718 H 0.21113 0.81112 0.12324 0.0
H719 H 0.27152 0.80732 0.2036 0.0
H720 H 0.30424 0.85795 0.19475 0.0
H721 H 0.29653 0.83673 0.12063 0.0
C722 C 0.21817 0.72851 0.13929 0.0
C723 C 0.20651 0.70869 0.15787 0.0
C724 C 0.21455 0.71735 0.18119 0.0
C725 C 0.23343 0.74591 0.18602 0.0
C726 C 0.24486 0.76487 0.16725 0.0
C727 C 0.23792 0.7562 0.14434 0.0
C728 C 0.25506 0.77922 0.12726 0.0
C729 C 0.2804 0.76036 0.11205 0.0
C730 C 0.22932 0.79758 0.11208 0.0
C731 C 0.27241 0.80254 0.14409 0.0
C732 C 0.26582 0.79424 0.1671 0.0
C733 C 0.27734 0.81364 0.18566 0.0
C734 C 0.29591 0.84225 0.18053 0.0
C735 C 0.30356 0.85056 0.1571 0.0
C736 C 0.29187 0.83027 0.13873 0.0
H737 H 0.68603 0.2344 0.14924 0.0
H738 H 0.76124 0.16689 0.17582 0.0
H739 H 0.79961 0.21376 0.18201 0.0
H740 H 0.73942 0.28575 0.11795 0.0
H741 H 0.7183 0.32392 0.12482 0.0
H742 H 0.69543 0.28564 0.12458 0.0
H743 H 0.67607 0.29624 0.16718 0.0
H744 H 0.6988 0.33471 0.16753 0.0
H745 H 0.70672 0.30394 0.18965 0.0
H746 H 0.83257 0.26635 0.17975 0.0
H747 H 0.85593 0.32214 0.17272 0.0
H748 H 0.75847 0.3568 0.1509 0.0
C749 C 0.71031 0.22957 0.15683 0.0
C750 C 0.72058 0.19691 0.16205 0.0
C751 C 0.75268 0.19165 0.17179 0.0
C752 C 0.77471 0.21814 0.17535 0.0
C753 C 0.76412 0.24991 0.16952 0.0
C754 C 0.73247 0.25586 0.16086 0.0
C755 C 0.7278 0.29224 0.1552 0.0
C756 C 0.71978 0.29716 0.12909 0.0
C757 C 0.70074 0.30769 0.17083 0.0
C758 C 0.76211 0.30559 0.1613 0.0
C759 C 0.78271 0.28071 0.16948 0.0
C760 C 0.81646 0.28622 0.17399 0.0
C761 C 0.82954 0.31789 0.16992 0.0
C762 C 0.80879 0.34378 0.16185 0.0
C763 C 0.77457 0.33764 0.15783 0.0
H764 H 0.72198 0.82153 0.62071 0.0
H765 H 0.71794 0.84387 0.69483 0.0
H766 H 0.7516 0.79365 0.70322 0.0
H767 H 0.71951 0.73268 0.62413 0.0
H768 H 0.74931 0.72685 0.60087 0.0
H769 H 0.72312 0.76305 0.6012 0.0
H770 H 0.77563 0.80035 0.59943 0.0
H771 H 0.802 0.76427 0.59926 0.0
H772 H 0.80776 0.79573 0.62129 0.0
H773 H 0.7832 0.73852 0.70314 0.0
H774 H 0.81502 0.68719 0.6944 0.0
H775 H 0.80451 0.70604 0.62017 0.0
C776 C 0.72783 0.81553 0.63873 0.0
C777 C 0.71685 0.836 0.65722 0.0
C778 C 0.72585 0.82814 0.6805 0.0
C779 C 0.74493 0.79974 0.68539 0.0
C780 C 0.75556 0.78008 0.6667 0.0
C781 C 0.74775 0.788 0.6438 0.0
C782 C 0.76393 0.76418 0.62675 0.0
C783 C 0.73738 0.74559 0.6124 0.0
C784 C 0.78881 0.78222 0.61074 0.0
C785 C 0.78172 0.74128 0.64358 0.0
C786 C 0.77619 0.75046 0.66658 0.0
C787 C 0.78821 0.73152 0.6852 0.0
C788 C 0.80625 0.7025 0.68012 0.0
C789 C 0.81286 0.69334 0.65668 0.0
C790 C 0.80063 0.71314 0.63826 0.0
H791 H 0.26684 0.35097 0.64992 0.0
H792 H 0.16797 0.31733 0.66907 0.0
H793 H 0.19035 0.26129 0.6767 0.0
H794 H 0.28675 0.27992 0.61751 0.0
H795 H 0.33037 0.27924 0.62521 0.0
H796 H 0.30794 0.31779 0.62506 0.0
H797 H 0.3252 0.32823 0.66815 0.0
H798 H 0.34769 0.28961 0.66843 0.0
H799 H 0.31591 0.29752 0.69004 0.0
H800 H 0.22257 0.2085 0.68011 0.0
H801 H 0.26041 0.16109 0.67474 0.0
H802 H 0.33789 0.2274 0.65 0.0
C803 C 0.25021 0.33194 0.65636 0.0
C804 C 0.21586 0.33846 0.65949 0.0
C805 C 0.19444 0.31278 0.66694 0.0
C806 C 0.20697 0.28098 0.67138 0.0
C807 C 0.2409 0.27512 0.66785 0.0
C808 C 0.26219 0.29975 0.66023 0.0
C809 C 0.29665 0.2859 0.65505 0.0
C810 C 0.30596 0.29101 0.62917 0.0
C811 C 0.32292 0.30123 0.67139 0.0
C812 C 0.29124 0.24958 0.66056 0.0
C813 C 0.25912 0.2441 0.66844 0.0
C814 C 0.24783 0.21252 0.67406 0.0
C815 C 0.26961 0.1857 0.67099 0.0
C816 C 0.30221 0.19041 0.66196 0.0
C817 C 0.31325 0.22295 0.65709 0.0
H818 H 0.68313 0.22734 0.87783 0.0
H819 H 0.75837 0.1562 0.85648 0.0
H820 H 0.79857 0.20158 0.85059 0.0
H821 H 0.70957 0.29381 0.83638 0.0
H822 H 0.70061 0.32611 0.85724 0.0
H823 H 0.67669 0.28836 0.85755 0.0
H824 H 0.69175 0.27984 0.90122 0.0
H825 H 0.71581 0.31738 0.90102 0.0
H826 H 0.73502 0.27907 0.90988 0.0
H827 H 0.83291 0.25328 0.85296 0.0
H828 H 0.85741 0.30868 0.85969 0.0
H829 H 0.7594 0.34747 0.87617 0.0
C830 C 0.70783 0.22138 0.8714 0.0
C831 C 0.71754 0.18814 0.8676 0.0
C832 C 0.75021 0.18141 0.85938 0.0
C833 C 0.77329 0.20706 0.85601 0.0
C834 C 0.7632 0.23945 0.86048 0.0
C835 C 0.73107 0.2468 0.86756 0.0
C836 C 0.72706 0.28362 0.87202 0.0
C837 C 0.70199 0.29887 0.85476 0.0
C838 C 0.71682 0.29035 0.89755 0.0
C839 C 0.76226 0.29562 0.86717 0.0
C840 C 0.78272 0.26969 0.86057 0.0
C841 C 0.81697 0.27394 0.85748 0.0
C842 C 0.83069 0.30541 0.86138 0.0
C843 C 0.81015 0.33235 0.86786 0.0
C844 C 0.77544 0.32746 0.87045 0.0
H845 H 0.25436 0.68549 0.88053 0.0
H846 H 0.15671 0.71922 0.85841 0.0
H847 H 0.17965 0.7752 0.85137 0.0
H848 H 0.27243 0.75654 0.9134 0.0
H849 H 0.31647 0.75704 0.90702 0.0
H850 H 0.29395 0.71856 0.90658 0.0
H851 H 0.31369 0.70781 0.86408 0.0
H852 H 0.33635 0.74632 0.86439 0.0
H853 H 0.30585 0.73846 0.84186 0.0
H854 H 0.21236 0.82795 0.84876 0.0
H855 H 0.25032 0.87513 0.85471 0.0
H856 H 0.32593 0.8086 0.882 0.0
C857 C 0.23813 0.7045 0.87354 0.0
C858 C 0.20397 0.698 0.86941 0.0
C859 C 0.18304 0.7237 0.86129 0.0
C860 C 0.1959 0.75548 0.8572 0.0
C861 C 0.22961 0.7613 0.86177 0.0
C862 C 0.25038 0.73663 0.87002 0.0
C863 C 0.28456 0.75034 0.8762 0.0
C864 C 0.29229 0.74533 0.90235 0.0
C865 C 0.31172 0.7348 0.8607 0.0
C866 C 0.27962 0.78665 0.87046 0.0
C867 C 0.24798 0.79224 0.86166 0.0
C868 C 0.23724 0.82383 0.85554 0.0
C869 C 0.25908 0.85052 0.85896 0.0
C870 C 0.29118 0.84567 0.86883 0.0
C871 C 0.30166 0.81315 0.87431 0.0
H872 H 0.29369 0.08214 0.30663 0.0
H873 H 0.26994 0.98641 0.33645 0.0
H874 H 0.25353 0.96605 0.29738 0.0
H875 H 0.22795 0.08182 0.25931 0.0
H876 H 0.2559 0.1011 0.23873 0.0
H877 H 0.25947 0.1102 0.26954 0.0
H878 H 0.32167 0.09271 0.26861 0.0
H879 H 0.31829 0.08355 0.23792 0.0
H880 H 0.33264 0.05216 0.25791 0.0
H881 H 0.24868 0.95328 0.25484 0.0
H882 H 0.25644 0.94901 0.21208 0.0
H883 H 0.28281 0.05296 0.20944 0.0
C884 C 0.28389 0.05728 0.30506 0.0
C885 C 0.28275 0.03596 0.32462 0.0
C886 C 0.27081 1.00325 0.32173 0.0
C887 C 0.26129 0.99149 0.29961 0.0
C888 C 0.26372 1.01278 0.28052 0.0
C889 C 0.27454 0.04507 0.28302 0.0
C890 C 0.27873 0.06158 0.25939 0.0
C891 C 0.25403 0.09038 0.25659 0.0
C892 C 0.31498 0.07315 0.25575 0.0
C893 C 0.26994 0.03313 0.24321 0.0
C894 C 0.26081 1.00536 0.25576 0.0
C895 C 0.25499 0.97506 0.24479 0.0
C896 C 0.25948 0.97285 0.22049 0.0
C897 C 0.26972 1.00076 0.20739 0.0
C898 C 0.27401 0.03146 0.21888 0.0
H899 H 0.71311 0.98999 0.20949 0.0
H900 H 0.75371 0.08939 0.21022 0.0
H901 H 0.77093 0.08195 0.25137 0.0
H902 H 0.6763 0.99484 0.26309 0.0
H903 H 0.68387 0.95267 0.27181 0.0
H904 H 0.68125 0.96292 0.24129 0.0
H905 H 0.73977 0.93745 0.23434 0.0
H906 H 0.74255 0.92703 0.26496 0.0
H907 H 0.77473 0.95164 0.2515 0.0
H908 H 0.77555 0.06736 0.29365 0.0
H909 H 0.76571 0.04748 0.33387 0.0
H910 H 0.72167 0.9576 0.30611 0.0
C911 C 0.72676 1.0097 0.21805 0.0
C912 C 0.73249 0.04011 0.20658 0.0
C913 C 0.74934 0.06578 0.21862 0.0
C914 C 0.75933 0.06173 0.24197 0.0
C915 C 0.75234 0.03183 0.25307 0.0
C916 C 0.73655 1.00617 0.24147 0.0
C917 C 0.72801 0.97829 0.25815 0.0
C918 C 0.69012 0.97184 0.25861 0.0
C919 C 0.74743 0.94674 0.25186 0.0
C920 C 0.74016 0.99286 0.28108 0.0
C921 C 0.75471 0.02348 0.2777 0.0
C922 C 0.76487 0.04312 0.29647 0.0
C923 C 0.75915 0.03163 0.31928 0.0
C924 C 0.74325 1.00084 0.32315 0.0
C925 C 0.73462 0.98086 0.30374 0.0
H926 H 0.71211 0.0722 0.80796 0.0
H927 H 0.73714 0.97642 0.83722 0.0
H928 H 0.75032 0.95565 0.79762 0.0
H929 H 0.66894 0.04239 0.76109 0.0
H930 H 0.6819 0.07349 0.74044 0.0
H931 H 0.68114 0.0829 0.77118 0.0
H932 H 0.74348 0.09974 0.76965 0.0
H933 H 0.74441 0.0905 0.73877 0.0
H934 H 0.77384 0.07102 0.75824 0.0
H935 H 0.7521 0.94279 0.75486 0.0
H936 H 0.74177 0.93867 0.71237 0.0
H937 H 0.71525 0.04269 0.71067 0.0
C938 C 0.72154 0.04723 0.80614 0.0
C939 C 0.72397 0.02602 0.8257 0.0
C940 C 0.73536 0.99317 0.8225 0.0
C941 C 0.74301 0.98119 0.80007 0.0
C942 C 0.73924 1.00239 0.78102 0.0
C943 C 0.72897 0.03481 0.78384 0.0
C944 C 0.72297 0.05127 0.76039 0.0
C945 C 0.68659 0.06319 0.75816 0.0
C946 C 0.74766 0.07982 0.75654 0.0
C947 C 0.73015 0.02268 0.74398 0.0
C948 C 0.74006 0.99487 0.7562 0.0
C949 C 0.74506 0.96458 0.74505 0.0
C950 C 0.73907 0.96247 0.7209 0.0
C951 C 0.72803 0.99043 0.70815 0.0
C952 C 0.7244 1.02107 0.71982 0.0
H953 H 0.27815 0.04692 0.81923 0.0
H954 H 0.24511 0.94495 0.81551 0.0
H955 H 0.23357 0.95164 0.77333 0.0
H956 H 0.22084 0.08141 0.77234 0.0
H957 H 0.25334 0.10819 0.7616 0.0
H958 H 0.25157 0.09785 0.79226 0.0
H959 H 0.31248 0.07655 0.79033 0.0
H960 H 0.31438 0.08655 0.75975 0.0
H961 H 0.32329 0.045 0.76931 0.0
H962 H 0.23527 0.96603 0.73086 0.0
H963 H 0.2504 0.98679 0.69167 0.0
H964 H 0.28296 0.07935 0.72264 0.0
C965 C 0.26708 0.02646 0.80975 0.0
C966 C 0.26201 0.99557 0.82071 0.0
C967 C 0.2488 0.96895 0.80751 0.0
C968 C 0.2421 0.97256 0.78354 0.0
C969 C 0.2487 1.00295 0.773 0.0
C970 C 0.26067 0.02956 0.78573 0.0
C971 C 0.27009 0.058 0.76978 0.0
C972 C 0.24761 0.08815 0.77426 0.0
C973 C 0.30725 0.06702 0.77245 0.0
C974 C 0.26296 0.04273 0.74606 0.0
C975 C 0.25004 1.0112 0.74831 0.0
C976 C 0.24463 0.99097 0.72887 0.0
C977 C 0.25338 1.00295 0.70666 0.0
C978 C 0.26755 0.03481 0.70404 0.0
C979 C 0.27147 0.05519 0.72399 0.0
H980 H 0.79544 0.46568 0.22133 0.0
H981 H 0.76054 0.55756 0.19082 0.0
H982 H 0.74462 0.57768 0.23005 0.0
H983 H 0.73296 0.46151 0.27071 0.0
H984 H 0.76397 0.4457 0.29065 0.0
H985 H 0.76639 0.43586 0.2599 0.0
H986 H 0.8266 0.45909 0.25856 0.0
H987 H 0.82434 0.46906 0.28917 0.0
H988 H 0.83427 0.50088 0.26824 0.0
H989 H 0.74142 0.59155 0.27253 0.0
H990 H 0.75144 0.59807 0.31493 0.0
H991 H 0.78786 0.49719 0.31833 0.0
C992 C 0.78329 0.48952 0.22282 0.0
C993 C 0.77888 0.5099 0.20297 0.0
C994 C 0.76392 0.54141 0.20574 0.0
C995 C 0.75468 0.55301 0.22797 0.0
C996 C 0.76042 0.53278 0.24729 0.0
C997 C 0.77417 0.50157 0.24494 0.0
C998 C 0.78148 0.48641 0.26866 0.0
C999 C 0.7599 0.45554 0.27272 0.0
C1000 C 0.81888 0.47842 0.2713 0.0
C1001 C 0.77102 0.51449 0.28469 0.0
C1002 C 0.75844 0.54081 0.27202 0.0
C1003 C 0.75044 0.57082 0.2827 0.0
C1004 C 0.75624 0.57433 0.3068 0.0
C1005 C 0.7699 0.54798 0.31999 0.0
C1006 C 0.77644 0.51742 0.30885 0.0
H1007 H 0.22028 0.4761 0.30874 0.0
H1008 H 0.24598 0.57125 0.33891 0.0
H1009 H 0.26093 0.59201 0.29971 0.0
H1010 H 0.28399 0.47666 0.26001 0.0
H1011 H 0.25497 0.45783 0.23989 0.0
H1012 H 0.25281 0.44831 0.27068 0.0
H1013 H 0.1907 0.46611 0.27129 0.0
H1014 H 0.19268 0.47573 0.24064 0.0
H1015 H 0.17945 0.50688 0.26125 0.0
H1016 H 0.26384 0.60536 0.2572 0.0
H1017 H 0.25409 0.61028 0.21468 0.0
H1018 H 0.22697 0.50652 0.21169 0.0
C1019 C 0.23025 0.5009 0.3072 0.0
C1020 C 0.23232 0.52196 0.32691 0.0
C1021 C 0.24442 0.55461 0.32408 0.0
C1022 C 0.2531 0.56658 0.30187 0.0
C1023 C 0.24969 0.54558 0.28265 0.0
C1024 C 0.23876 0.51332 0.2851 0.0
C1025 C 0.23336 0.49717 0.26142 0.0
C1026 C 0.25775 0.46828 0.25779 0.0
C1027 C 0.19689 0.48584 0.25849 0.0
C1028 C 0.24154 0.52581 0.24532 0.0
C1029 C 0.25145 0.55334 0.25791 0.0
C1030 C 0.25691 0.58376 0.2471 0.0
C1031 C 0.25127 0.58634 0.22294 0.0
C1032 C 0.24025 0.55868 0.20982 0.0
C1033 C 0.23631 0.52785 0.22112 0.0
H1034 H 0.22793 0.58251 0.80731 0.0
H1035 H 0.26537 0.49065 0.83638 0.0
H1036 H 0.27553 0.4695 0.7965 0.0
H1037 H 0.18241 0.54756 0.76376 0.0
H1038 H 0.19012 0.57862 0.74182 0.0
H1039 H 0.19231 0.58937 0.7723 0.0
H1040 H 0.2526 0.61107 0.76674 0.0
H1041 H 0.25051 0.60065 0.73608 0.0
H1042 H 0.28377 0.58443 0.75396 0.0
H1043 H 0.2719 0.45453 0.75405 0.0
H1044 H 0.25688 0.44794 0.71234 0.0
H1045 H 0.22272 0.54971 0.71057 0.0
C1046 C 0.23952 0.55847 0.80532 0.0
C1047 C 0.24615 0.53836 0.825 0.0
C1048 C 0.26035 0.50663 0.8216 0.0
C1049 C 0.26624 0.49439 0.79897 0.0
C1050 C 0.25807 0.51428 0.7799 0.0
C1051 C 0.24542 0.54585 0.78283 0.0
C1052 C 0.23521 0.56074 0.75957 0.0
C1053 C 0.19781 0.56957 0.75937 0.0
C1054 C 0.25682 0.59102 0.75375 0.0
C1055 C 0.24275 0.53214 0.74323 0.0
C1056 C 0.2563 0.50569 0.75525 0.0
C1057 C 0.26211 0.47534 0.74434 0.0
C1058 C 0.25341 0.47178 0.72066 0.0
C1059 C 0.23909 0.49843 0.70812 0.0
C1060 C 0.23444 0.52916 0.71951 0.0
H1061 H 0.79117 0.48944 0.70848 0.0
H1062 H 0.76477 0.59332 0.71235 0.0
H1063 H 0.75537 0.58783 0.75487 0.0
H1064 H 0.73438 0.45917 0.75672 0.0
H1065 H 0.76552 0.4304 0.76692 0.0
H1066 H 0.76311 0.44065 0.73626 0.0
H1067 H 0.82533 0.458 0.73689 0.0
H1068 H 0.82788 0.44809 0.76748 0.0
H1069 H 0.83904 0.48891 0.75756 0.0
H1070 H 0.75793 0.57362 0.79733 0.0
H1071 H 0.77251 0.55198 0.83637 0.0
H1072 H 0.79801 0.45731 0.80532 0.0
C1073 C 0.78206 0.51068 0.71811 0.0
C1074 C 0.77819 0.5417 0.70705 0.0
C1075 C 0.76751 0.56925 0.72042 0.0
C1076 C 0.76205 0.56633 0.74459 0.0
C1077 C 0.76735 0.53569 0.75515 0.0
C1078 C 0.77691 0.50826 0.74231 0.0
C1079 C 0.78512 0.47935 0.7582 0.0
C1080 C 0.76056 0.4507 0.75429 0.0
C1081 C 0.82149 0.46795 0.75483 0.0
C1082 C 0.78002 0.49519 0.782 0.0
C1083 C 0.7692 0.52752 0.77983 0.0
C1084 C 0.76571 0.54813 0.79926 0.0
C1085 C 0.77414 0.53563 0.82138 0.0
C1086 C 0.78608 0.50286 0.82394 0.0
C1087 C 0.78822 0.48221 0.80401 0.0
loop_
_geom_bond_atom_site_label_1
_geom_bond_atom_site_label_2
_geom_bond_distance
_geom_bond_site_symmetry_2
_ccdc_geom_bond_type
O0 Cd1 2.223 . S
O0 C8 1.315 . S
Cd1 O0 2.223 . S
Cd1 O4 2.297 . S
Cd1 O5 2.439 . S
Cd1 O11 2.240 . S
Cd2 O3 2.240 . S
Cd2 O10 2.223 . S
Cd2 O12 2.297 1_545 S
Cd2 O13 2.439 . S
O3 Cd2 2.240 . S
O3 C8 1.279 . S
O4 Cd1 2.297 . S
O4 C6 1.247 . S
O5 Cd1 2.439 . S
O5 C6 1.208 . S
C6 O4 1.247 . S
C6 O5 1.208 . S
C7 O12 1.247 1_545 S
C7 O13 1.208 . S
C8 O0 1.315 . S
C8 O3 1.279 . S
C9 O10 1.315 . S
C9 O11 1.279 . S
O10 Cd2 2.223 . S
O10 C9 1.315 . S
O11 Cd1 2.240 . S
O11 C9 1.279 . S
O12 Cd2 2.297 1_565 S
O12 C7 1.247 1_565 S
O13 Cd2 2.439 . S
O13 C7 1.208 . S
O14 Cd15 2.223 . S
O14 C22 1.315 . S
Cd15 O14 2.223 . S
Cd15 O18 2.297 . S
Cd15 O19 2.439 . S
Cd15 O25 2.240 . S
Cd16 O17 2.240 . S
Cd16 O24 2.223 . S
Cd16 O26 2.297 1_565 S
Cd16 O27 2.439 . S
O17 Cd16 2.240 . S
O17 C22 1.279 . S
O18 Cd15 2.297 . S
O18 C20 1.247 . S
O19 Cd15 2.439 . S
O19 C20 1.208 . S
C20 O18 1.247 . S
C20 O19 1.208 . S
C21 O26 1.247 1_565 S
C21 O27 1.208 . S
C22 O14 1.315 . S
C22 O17 1.279 . S
C23 O24 1.315 . S
C23 O25 1.279 . S
O24 Cd16 2.223 . S
O24 C23 1.315 . S
O25 Cd15 2.240 . S
O25 C23 1.279 . S
O26 Cd16 2.297 1_545 S
O26 C21 1.247 1_545 S
O27 Cd16 2.439 . S
O27 C21 1.208 . S
O28 Cd29 2.223 . S
O28 C36 1.315 . S
Cd29 O28 2.223 . S
Cd29 O32 2.297 . S
Cd29 O33 2.439 . S
Cd29 O39 2.240 . S
Cd30 O31 2.240 . S
Cd30 O38 2.223 . S
Cd30 O40 2.297 1_565 S
Cd30 O41 2.439 . S
O31 Cd30 2.240 . S
O31 C36 1.279 . S
O32 Cd29 2.297 . S
O32 C34 1.247 . S
O33 Cd29 2.439 . S
O33 C34 1.208 . S
C34 O32 1.247 . S
C34 O33 1.208 . S
C35 O40 1.247 1_565 S
C35 O41 1.208 . S
C36 O28 1.315 . S
C36 O31 1.279 . S
C37 O38 1.315 . S
C37 O39 1.279 . S
O38 Cd30 2.223 . S
O38 C37 1.315 . S
O39 Cd29 2.240 . S
O39 C37 1.279 . S
O40 Cd30 2.297 1_545 S
O40 C35 1.247 1_545 S
O41 Cd30 2.439 . S
O41 C35 1.208 . S
O42 Cd43 2.223 . S
O42 C50 1.315 . S
Cd43 O42 2.223 . S
Cd43 O46 2.297 . S
Cd43 O47 2.439 . S
Cd43 O53 2.240 . S
Cd44 O45 2.240 . S
Cd44 O52 2.223 . S
Cd44 O54 2.297 1_545 S
Cd44 O55 2.439 . S
O45 Cd44 2.240 . S
O45 C50 1.279 . S
O46 Cd43 2.297 . S
O46 C48 1.247 . S
O47 Cd43 2.439 . S
O47 C48 1.208 . S
C48 O46 1.247 . S
C48 O47 1.208 . S
C49 O54 1.247 1_545 S
C49 O55 1.208 . S
C50 O42 1.315 . S
C50 O45 1.279 . S
C51 O52 1.315 . S
C51 O53 1.279 . S
O52 Cd44 2.223 . S
O52 C51 1.315 . S
O53 Cd43 2.240 . S
O53 C51 1.279 . S
O54 Cd44 2.297 1_565 S
O54 C49 1.247 1_565 S
O55 Cd44 2.439 . S
O55 C49 1.208 . S
O56 Cd57 2.223 . S
O56 C64 1.315 . S
Cd57 O56 2.223 . S
Cd57 O60 2.297 . S
Cd57 O61 2.439 . S
Cd57 O67 2.240 . S
Cd58 O59 2.240 . S
Cd58 O66 2.223 . S
Cd58 O68 2.297 1_565 S
Cd58 O69 2.439 . S
O59 Cd58 2.240 . S
O59 C64 1.279 . S
O60 Cd57 2.297 . S
O60 C62 1.247 . S
O61 Cd57 2.439 . S
O61 C62 1.208 . S
C62 O60 1.247 . S
C62 O61 1.208 . S
C63 O68 1.247 1_565 S
C63 O69 1.208 . S
C64 O56 1.315 . S
C64 O59 1.279 . S
C65 O66 1.315 . S
C65 O67 1.279 . S
O66 Cd58 2.223 . S
O66 C65 1.315 . S
O67 Cd57 2.240 . S
O67 C65 1.279 . S
O68 Cd58 2.297 1_545 S
O68 C63 1.247 1_545 S
O69 Cd58 2.439 . S
O69 C63 1.208 . S
O70 Cd71 2.223 . S
O70 C78 1.315 . S
Cd71 O70 2.223 . S
Cd71 O74 2.297 . S
Cd71 O75 2.439 . S
Cd71 O81 2.240 . S
Cd72 O73 2.240 . S
Cd72 O80 2.223 . S
Cd72 O82 2.297 1_545 S
Cd72 O83 2.439 . S
O73 Cd72 2.240 . S
O73 C78 1.279 . S
O74 Cd71 2.297 . S
O74 C76 1.247 . S
O75 Cd71 2.439 . S
O75 C76 1.208 . S
C76 O74 1.247 . S
C76 O75 1.208 . S
C77 O82 1.247 1_545 S
C77 O83 1.208 . S
C78 O70 1.315 . S
C78 O73 1.279 . S
C79 O80 1.315 . S
C79 O81 1.279 . S
O80 Cd72 2.223 . S
O80 C79 1.315 . S
O81 Cd71 2.240 . S
O81 C79 1.279 . S
O82 Cd72 2.297 1_565 S
O82 C77 1.247 1_565 S
O83 Cd72 2.439 . S
O83 C77 1.208 . S
O84 Cd85 2.223 . S
O84 C92 1.315 . S
Cd85 O84 2.223 . S
Cd85 O88 2.297 . S
Cd85 O89 2.439 . S
Cd85 O95 2.240 . S
Cd86 O87 2.240 . S
Cd86 O94 2.223 . S
Cd86 O96 2.297 1_545 S
Cd86 O97 2.439 . S
O87 Cd86 2.240 . S
O87 C92 1.279 . S
O88 Cd85 2.297 . S
O88 C90 1.247 . S
O89 Cd85 2.439 . S
O89 C90 1.208 . S
C90 O88 1.247 . S
C90 O89 1.208 . S
C91 O96 1.247 1_545 S
C91 O97 1.208 . S
C92 O84 1.315 . S
C92 O87 1.279 . S
C93 O94 1.315 . S
C93 O95 1.279 . S
O94 Cd86 2.223 . S
O94 C93 1.315 . S
O95 Cd85 2.240 . S
O95 C93 1.279 . S
O96 Cd86 2.297 1_565 S
O96 C91 1.247 1_565 S
O97 Cd86 2.439 . S
O97 C91 1.208 . S
O98 Cd99 2.223 . S
O98 C106 1.315 . S
Cd99 O98 2.223 . S
Cd99 O102 2.297 . S
Cd99 O103 2.439 . S
Cd99 O109 2.240 . S
Cd100 O101 2.240 . S
Cd100 O108 2.223 . S
Cd100 O110 2.297 1_565 S
Cd100 O111 2.439 . S
O101 Cd100 2.240 . S
O101 C106 1.279 . S
O102 Cd99 2.297 . S
O102 C104 1.247 . S
O103 Cd99 2.439 . S
O103 C104 1.208 . S
C104 O102 1.247 . S
C104 O103 1.208 . S
C105 O110 1.247 1_565 S
C105 O111 1.208 . S
C106 O98 1.315 . S
C106 O101 1.279 . S
C107 O108 1.315 . S
C107 O109 1.279 . S
O108 Cd100 2.223 . S
O108 C107 1.315 . S
O109 Cd99 2.240 . S
O109 C107 1.279 . S
O110 Cd100 2.297 1_545 S
O110 C105 1.247 1_545 S
O111 Cd100 2.439 . S
O111 C105 1.208 . S
O112 Cd113 2.223 . S
O112 C120 1.315 . S
Cd113 O112 2.223 . S
Cd113 O116 2.297 . S
Cd113 O117 2.439 . S
Cd113 O123 2.240 . S
Cd114 O115 2.240 . S
Cd114 O122 2.223 . S
Cd114 O124 2.297 . S
Cd114 O125 2.439 . S
O115 Cd114 2.240 . S
O115 C120 1.279 . S
O116 Cd113 2.297 . S
O116 C118 1.247 . S
O117 Cd113 2.439 . S
O117 C118 1.208 . S
C118 O116 1.247 . S
C118 O117 1.208 . S
C119 O124 1.247 . S
C119 O125 1.208 . S
C120 O112 1.315 . S
C120 O115 1.279 . S
C121 O122 1.315 . S
C121 O123 1.279 . S
O122 Cd114 2.223 . S
O122 C121 1.315 . S
O123 Cd113 2.240 . S
O123 C121 1.279 . S
O124 Cd114 2.297 . S
O124 C119 1.247 . S
O125 Cd114 2.439 . S
O125 C119 1.208 . S
O126 Cd127 2.223 . S
O126 C134 1.315 . S
Cd127 O126 2.223 . S
Cd127 O130 2.297 . S
Cd127 O131 2.439 . S
Cd127 O137 2.240 . S
Cd128 O129 2.240 . S
Cd128 O136 2.223 . S
Cd128 O138 2.297 . S
Cd128 O139 2.439 . S
O129 Cd128 2.240 . S
O129 C134 1.279 . S
O130 Cd127 2.297 . S
O130 C132 1.247 . S
O131 Cd127 2.439 . S
O131 C132 1.208 . S
C132 O130 1.247 . S
C132 O131 1.208 . S
C133 O138 1.247 . S
C133 O139 1.208 . S
C134 O126 1.315 . S
C134 O129 1.279 . S
C135 O136 1.315 . S
C135 O137 1.279 . S
O136 Cd128 2.223 . S
O136 C135 1.315 . S
O137 Cd127 2.240 . S
O137 C135 1.279 . S
O138 Cd128 2.297 . S
O138 C133 1.247 . S
O139 Cd128 2.439 . S
O139 C133 1.208 . S
O140 Cd141 2.223 . S
O140 C148 1.315 . S
Cd141 O140 2.223 . S
Cd141 O144 2.297 . S
Cd141 O145 2.439 . S
Cd141 O151 2.240 . S
Cd142 O143 2.240 . S
Cd142 O150 2.223 . S
Cd142 O152 2.297 . S
Cd142 O153 2.439 . S
O143 Cd142 2.240 . S
O143 C148 1.279 . S
O144 Cd141 2.297 . S
O144 C146 1.247 . S
O145 Cd141 2.439 . S
O145 C146 1.208 . S
C146 O144 1.247 . S
C146 O145 1.208 . S
C147 O152 1.247 . S
C147 O153 1.208 . S
C148 O140 1.315 . S
C148 O143 1.279 . S
C149 O150 1.315 . S
C149 O151 1.279 . S
O150 Cd142 2.223 . S
O150 C149 1.315 . S
O151 Cd141 2.240 . S
O151 C149 1.279 . S
O152 Cd142 2.297 . S
O152 C147 1.247 . S
O153 Cd142 2.439 . S
O153 C147 1.208 . S
O154 Cd155 2.223 . S
O154 C162 1.315 . S
Cd155 O154 2.223 . S
Cd155 O158 2.297 . S
Cd155 O159 2.439 . S
Cd155 O165 2.240 . S
Cd156 O157 2.240 . S
Cd156 O164 2.223 . S
Cd156 O166 2.297 . S
Cd156 O167 2.439 . S
O157 Cd156 2.240 . S
O157 C162 1.279 . S
O158 Cd155 2.297 . S
O158 C160 1.247 . S
O159 Cd155 2.439 . S
O159 C160 1.208 . S
C160 O158 1.247 . S
C160 O159 1.208 . S
C161 O166 1.247 . S
C161 O167 1.208 . S
C162 O154 1.315 . S
C162 O157 1.279 . S
C163 O164 1.315 . S
C163 O165 1.279 . S
O164 Cd156 2.223 . S
O164 C163 1.315 . S
O165 Cd155 2.240 . S
O165 C163 1.279 . S
O166 Cd156 2.297 . S
O166 C161 1.247 . S
O167 Cd156 2.439 . S
O167 C161 1.208 . S
O168 Cd169 2.223 . S
O168 C176 1.315 . S
Cd169 O168 2.223 . S
Cd169 O172 2.297 . S
Cd169 O173 2.439 . S
Cd169 O179 2.240 . S
Cd170 O171 2.240 . S
Cd170 O178 2.223 . S
Cd170 O180 2.297 . S
Cd170 O181 2.439 . S
O171 Cd170 2.240 . S
O171 C176 1.279 . S
O172 Cd169 2.297 . S
O172 C174 1.247 . S
O173 Cd169 2.439 . S
O173 C174 1.208 . S
C174 O172 1.247 . S
C174 O173 1.208 . S
C175 O180 1.247 . S
C175 O181 1.208 . S
C176 O168 1.315 . S
C176 O171 1.279 . S
C177 O178 1.315 . S
C177 O179 1.279 . S
O178 Cd170 2.223 . S
O178 C177 1.315 . S
O179 Cd169 2.240 . S
O179 C177 1.279 . S
O180 Cd170 2.297 . S
O180 C175 1.247 . S
O181 Cd170 2.439 . S
O181 C175 1.208 . S
O182 Cd183 2.223 . S
O182 C190 1.315 . S
Cd183 O182 2.223 . S
Cd183 O186 2.297 . S
Cd183 O187 2.439 . S
Cd183 O193 2.240 . S
Cd184 O185 2.240 . S
Cd184 O192 2.223 . S
Cd184 O194 2.297 . S
Cd184 O195 2.439 . S
O185 Cd184 2.240 . S
O185 C190 1.279 . S
O186 Cd183 2.297 . S
O186 C188 1.247 . S
O187 Cd183 2.439 . S
O187 C188 1.208 . S
C188 O186 1.247 . S
C188 O187 1.208 . S
C189 O194 1.247 . S
C189 O195 1.208 . S
C190 O182 1.315 . S
C190 O185 1.279 . S
C191 O192 1.315 . S
C191 O193 1.279 . S
O192 Cd184 2.223 . S
O192 C191 1.315 . S
O193 Cd183 2.240 . S
O193 C191 1.279 . S
O194 Cd184 2.297 . S
O194 C189 1.247 . S
O195 Cd184 2.439 . S
O195 C189 1.208 . S
O196 Cd197 2.223 . S
O196 C204 1.315 . S
Cd197 O196 2.223 . S
Cd197 O200 2.297 . S
Cd197 O201 2.439 . S
Cd197 O207 2.240 . S
Cd198 O199 2.240 . S
Cd198 O206 2.223 . S
Cd198 O208 2.297 . S
Cd198 O209 2.439 . S
O199 Cd198 2.240 . S
O199 C204 1.279 . S
O200 Cd197 2.297 . S
O200 C202 1.247 . S
O201 Cd197 2.439 . S
O201 C202 1.208 . S
C202 O200 1.247 . S
C202 O201 1.208 . S
C203 O208 1.247 . S
C203 O209 1.208 . S
C204 O196 1.315 . S
C204 O199 1.279 . S
C205 O206 1.315 . S
C205 O207 1.279 . S
O206 Cd198 2.223 . S
O206 C205 1.315 . S
O207 Cd197 2.240 . S
O207 C205 1.279 . S
O208 Cd198 2.297 . S
O208 C203 1.247 . S
O209 Cd198 2.439 . S
O209 C203 1.208 . S
O210 Cd211 2.223 . S
O210 C218 1.315 . S
Cd211 O210 2.223 . S
Cd211 O214 2.297 . S
Cd211 O215 2.439 . S
Cd211 O221 2.240 . S
Cd212 O213 2.240 . S
Cd212 O220 2.223 . S
Cd212 O222 2.297 . S
Cd212 O223 2.439 . S
O213 Cd212 2.240 . S
O213 C218 1.279 . S
O214 Cd211 2.297 . S
O214 C216 1.247 . S
O215 Cd211 2.439 . S
O215 C216 1.208 . S
C216 O214 1.247 . S
C216 O215 1.208 . S
C217 O222 1.247 . S
C217 O223 1.208 . S
C218 O210 1.315 . S
C218 O213 1.279 . S
C219 O220 1.315 . S
C219 O221 1.279 . S
O220 Cd212 2.223 . S
O220 C219 1.315 . S
O221 Cd211 2.240 . S
O221 C219 1.279 . S
O222 Cd212 2.297 . S
O222 C217 1.247 . S
O223 Cd212 2.439 . S
O223 C217 1.208 . S
H224 C236 0.930 . S
H225 C238 0.930 . S
H226 C239 0.930 1_565 S
H227 C243 0.959 . S
H228 C243 0.959 . S
H229 C243 0.961 . S
H230 C244 0.960 . S
H231 C244 0.961 . S
H232 C244 0.959 . S
H233 C247 0.929 1_565 S
H234 C248 0.931 . S
H235 C250 0.930 . S
C236 H224 0.930 . S
C236 C237 1.399 . S
C236 C241 1.399 . S
C237 C236 1.399 . S
C237 C238 1.376 . S
C238 H225 0.930 . S
C238 C237 1.376 . S
C238 C239 1.388 . S
C239 H226 0.930 1_545 S
C239 C238 1.388 . S
C239 C240 1.390 . S
C240 C239 1.390 . S
C240 C241 1.394 . S
C240 C246 1.465 . S
C241 C236 1.399 . S
C241 C240 1.394 . S
C241 C242 1.516 . S
C242 C241 1.516 . S
C242 C243 1.502 . S
C242 C244 1.561 . S
C242 C245 1.526 . S
C243 H227 0.959 . S
C243 H228 0.959 . S
C243 H229 0.961 . S
C243 C242 1.502 . S
C244 H230 0.960 . S
C244 H231 0.961 . S
C244 H232 0.959 . S
C244 C242 1.561 . S
C245 C242 1.526 . S
C245 C246 1.396 . S
C245 C250 1.390 . S
C246 C240 1.465 . S
C246 C245 1.396 . S
C246 C247 1.399 . S
C247 H233 0.929 1_545 S
C247 C246 1.399 . S
C247 C248 1.385 . S
C248 H234 0.931 . S
C248 C247 1.385 . S
C248 C249 1.389 . S
C249 C248 1.389 . S
C249 C250 1.387 . S
C250 H235 0.930 . S
C250 C245 1.390 . S
C250 C249 1.387 . S
H251 C263 0.930 . S
H252 C265 0.930 . S
H253 C266 0.930 1_545 S
H254 C270 0.959 . S
H255 C270 0.959 . S
H256 C270 0.961 . S
H257 C271 0.960 . S
H258 C271 0.961 . S
H259 C271 0.959 . S
H260 C274 0.929 1_545 S
H261 C275 0.931 . S
H262 C277 0.930 . S
C263 H251 0.930 . S
C263 C264 1.399 . S
C263 C268 1.399 . S
C264 C263 1.399 . S
C264 C265 1.376 . S
C265 H252 0.930 . S
C265 C264 1.376 . S
C265 C266 1.388 . S
C266 H253 0.930 1_565 S
C266 C265 1.388 . S
C266 C267 1.390 . S
C267 C266 1.390 . S
C267 C268 1.394 . S
C267 C273 1.465 . S
C268 C263 1.399 . S
C268 C267 1.394 . S
C268 C269 1.516 . S
C269 C268 1.516 . S
C269 C270 1.502 . S
C269 C271 1.561 . S
C269 C272 1.526 . S
C270 H254 0.959 . S
C270 H255 0.959 . S
C270 H256 0.961 . S
C270 C269 1.502 . S
C271 H257 0.960 . S
C271 H258 0.961 . S
C271 H259 0.959 . S
C271 C269 1.561 . S
C272 C269 1.526 . S
C272 C273 1.396 . S
C272 C277 1.390 . S
C273 C267 1.465 . S
C273 C272 1.396 . S
C273 C274 1.399 . S
C274 H260 0.929 1_565 S
C274 C273 1.399 . S
C274 C275 1.385 . S
C275 H261 0.931 . S
C275 C274 1.385 . S
C275 C276 1.389 . S
C276 C275 1.389 . S
C276 C277 1.387 . S
C277 H262 0.930 . S
C277 C272 1.390 . S
C277 C276 1.387 . S
H278 C290 0.930 . S
H279 C292 0.930 . S
H280 C293 0.930 . S
H281 C297 0.962 1_565 S
H282 C297 0.979 . S
H283 C297 0.939 1_554 S
H284 C298 0.958 1_554 S
H285 C298 0.963 . S
H286 C298 0.959 1_565 S
H287 C301 0.929 . S
H288 C302 0.931 . S
H289 C304 0.930 . S
C290 H278 0.930 . S
C290 C291 1.399 . S
C290 C295 1.399 . S
C291 C290 1.399 . S
C291 C292 1.376 . S
C292 H279 0.930 . S
C292 C291 1.376 . S
C292 C293 1.388 . S
C293 H280 0.930 . S
C293 C292 1.388 . S
C293 C294 1.390 . S
C294 C293 1.390 . S
C294 C295 1.394 . S
C294 C300 1.465 1_554 S
C295 C290 1.399 . S
C295 C294 1.394 . S
C295 C296 1.517 1_554 S
C296 C295 1.517 1_556 S
C296 C297 1.502 1_565 S
C296 C298 1.561 1_565 S
C296 C299 1.525 . S
C297 H281 0.962 1_545 S
C297 H282 0.979 . S
C297 H283 0.939 1_556 S
C297 C296 1.502 1_545 S
C298 H284 0.958 1_556 S
C298 H285 0.963 . S
C298 H286 0.959 1_545 S
C298 C296 1.561 1_545 S
C299 C296 1.525 . S
C299 C300 1.396 . S
C299 C304 1.390 . S
C300 C294 1.465 1_556 S
C300 C299 1.396 . S
C300 C301 1.399 . S
C301 H287 0.929 . S
C301 C300 1.399 . S
C301 C302 1.385 . S
C302 H288 0.931 . S
C302 C301 1.385 . S
C302 C303 1.389 . S
C303 C302 1.389 . S
C303 C304 1.387 . S
C304 H289 0.930 . S
C304 C299 1.390 . S
C304 C303 1.387 . S
H305 C317 0.930 . S
H306 C319 0.930 . S
H307 C320 0.930 1_565 S
H308 C324 0.962 . S
H309 C324 0.979 . S
H310 C324 0.939 1_556 S
H311 C325 0.958 1_556 S
H312 C325 0.963 . S
H313 C325 0.959 . S
H314 C328 0.929 1_565 S
H315 C329 0.931 . S
H316 C331 0.930 . S
C317 H305 0.930 . S
C317 C318 1.399 . S
C317 C322 1.399 . S
C318 C317 1.399 . S
C318 C319 1.376 . S
C319 H306 0.930 . S
C319 C318 1.376 . S
C319 C320 1.388 . S
C320 H307 0.930 1_545 S
C320 C319 1.388 . S
C320 C321 1.390 . S
C321 C320 1.390 . S
C321 C322 1.394 . S
C321 C327 1.465 1_556 S
C322 C317 1.399 . S
C322 C321 1.394 . S
C322 C323 1.517 1_556 S
C323 C322 1.517 1_554 S
C323 C324 1.502 . S
C323 C325 1.561 . S
C323 C326 1.525 . S
C324 H308 0.962 . S
C324 H309 0.979 . S
C324 H310 0.939 1_554 S
C324 C323 1.502 . S
C325 H311 0.958 1_554 S
C325 H312 0.963 . S
C325 H313 0.959 . S
C325 C323 1.561 . S
C326 C323 1.525 . S
C326 C327 1.396 . S
C326 C331 1.390 . S
C327 C321 1.465 1_554 S
C327 C326 1.396 . S
C327 C328 1.399 . S
C328 H314 0.929 1_545 S
C328 C327 1.399 . S
C328 C329 1.385 . S
C329 H315 0.931 . S
C329 C328 1.385 . S
C329 C330 1.389 . S
C330 C329 1.389 . S
C330 C331 1.387 . S
C331 H316 0.930 . S
C331 C326 1.390 . S
C331 C330 1.387 . S
H332 C344 0.930 . S
H333 C346 0.930 . S
H334 C347 0.930 . S
H335 C351 0.959 . S
H336 C351 0.959 . S
H337 C351 0.961 . S
H338 C352 0.960 . S
H339 C352 0.961 . S
H340 C352 0.959 . S
H341 C355 0.929 . S
H342 C356 0.931 . S
H343 C358 0.930 . S
C344 H332 0.930 . S
C344 C345 1.399 . S
C344 C349 1.399 . S
C345 C344 1.399 . S
C345 C346 1.376 . S
C346 H333 0.930 . S
C346 C345 1.376 . S
C346 C347 1.388 . S
C347 H334 0.930 . S
C347 C346 1.388 . S
C347 C348 1.390 . S
C348 C347 1.390 . S
C348 C349 1.394 . S
C348 C354 1.465 . S
C349 C344 1.399 . S
C349 C348 1.394 . S
C349 C350 1.516 . S
C350 C349 1.516 . S
C350 C351 1.502 . S
C350 C352 1.561 . S
C350 C353 1.526 . S
C351 H335 0.959 . S
C351 H336 0.959 . S
C351 H337 0.961 . S
C351 C350 1.502 . S
C352 H338 0.960 . S
C352 H339 0.961 . S
C352 H340 0.959 . S
C352 C350 1.561 . S
C353 C350 1.526 . S
C353 C354 1.396 . S
C353 C358 1.390 . S
C354 C348 1.465 . S
C354 C353 1.396 . S
C354 C355 1.399 . S
C355 H341 0.929 . S
C355 C354 1.399 . S
C355 C356 1.385 . S
C356 H342 0.931 . S
C356 C355 1.385 . S
C356 C357 1.389 . S
C357 C356 1.389 . S
C357 C358 1.387 . S
C358 H343 0.930 . S
C358 C353 1.390 . S
C358 C357 1.387 . S
H359 C371 0.930 . S
H360 C373 0.930 . S
H361 C374 0.930 . S
H362 C378 0.959 . S
H363 C378 0.959 . S
H364 C378 0.961 . S
H365 C379 0.960 . S
H366 C379 0.961 . S
H367 C379 0.959 . S
H368 C382 0.929 . S
H369 C383 0.931 . S
H370 C385 0.930 . S
C371 H359 0.930 . S
C371 C372 1.399 . S
C371 C376 1.399 . S
C372 C371 1.399 . S
C372 C373 1.376 . S
C373 H360 0.930 . S
C373 C372 1.376 . S
C373 C374 1.388 . S
C374 H361 0.930 . S
C374 C373 1.388 . S
C374 C375 1.390 . S
C375 C374 1.390 . S
C375 C376 1.394 . S
C375 C381 1.465 . S
C376 C371 1.399 . S
C376 C375 1.394 . S
C376 C377 1.516 . S
C377 C376 1.516 . S
C377 C378 1.502 . S
C377 C379 1.561 . S
C377 C380 1.526 . S
C378 H362 0.959 . S
C378 H363 0.959 . S
C378 H364 0.961 . S
C378 C377 1.502 . S
C379 H365 0.960 . S
C379 H366 0.961 . S
C379 H367 0.959 . S
C379 C377 1.561 . S
C380 C377 1.526 . S
C380 C381 1.396 . S
C380 C385 1.390 . S
C381 C375 1.465 . S
C381 C380 1.396 . S
C381 C382 1.399 . S
C382 H368 0.929 . S
C382 C381 1.399 . S
C382 C383 1.385 . S
C383 H369 0.931 . S
C383 C382 1.385 . S
C383 C384 1.389 . S
C384 C383 1.389 . S
C384 C385 1.387 . S
C385 H370 0.930 . S
C385 C380 1.390 . S
C385 C384 1.387 . S
H386 C398 0.930 . S
H387 C400 0.930 . S
H388 C401 0.930 . S
H389 C405 0.962 . S
H390 C405 0.979 . S
H391 C405 0.940 1_556 S
H392 C406 0.958 1_556 S
H393 C406 0.963 . S
H394 C406 0.959 . S
H395 C409 0.929 . S
H396 C410 0.931 . S
H397 C412 0.930 . S
C398 H386 0.930 . S
C398 C399 1.399 . S
C398 C403 1.399 . S
C399 C398 1.399 . S
C399 C400 1.376 . S
C400 H387 0.930 . S
C400 C399 1.376 . S
C400 C401 1.388 . S
C401 H388 0.930 . S
C401 C400 1.388 . S
C401 C402 1.390 . S
C402 C401 1.390 . S
C402 C403 1.394 . S
C402 C408 1.465 1_556 S
C403 C398 1.399 . S
C403 C402 1.394 . S
C403 C404 1.517 1_556 S
C404 C403 1.517 1_554 S
C404 C405 1.502 . S
C404 C406 1.561 . S
C404 C407 1.525 . S
C405 H389 0.962 . S
C405 H390 0.979 . S
C405 H391 0.940 1_554 S
C405 C404 1.502 . S
C406 H392 0.958 1_554 S
C406 H393 0.963 . S
C406 H394 0.959 . S
C406 C404 1.561 . S
C407 C404 1.525 . S
C407 C408 1.396 . S
C407 C412 1.390 . S
C408 C402 1.465 1_554 S
C408 C407 1.396 . S
C408 C409 1.399 . S
C409 H395 0.929 . S
C409 C408 1.399 . S
C409 C410 1.385 . S
C410 H396 0.931 . S
C410 C409 1.385 . S
C410 C411 1.389 . S
C411 C410 1.389 . S
C411 C412 1.387 . S
C412 H397 0.930 . S
C412 C407 1.390 . S
C412 C411 1.387 . S
H413 C425 0.930 . S
H414 C427 0.930 . S
H415 C428 0.930 . S
H416 C432 0.962 . S
H417 C432 0.979 . S
H418 C432 0.939 1_554 S
H419 C433 0.958 1_554 S
H420 C433 0.963 . S
H421 C433 0.959 . S
H422 C436 0.929 . S
H423 C437 0.931 . S
H424 C439 0.930 . S
C425 H413 0.930 . S
C425 C426 1.399 . S
C425 C430 1.399 . S
C426 C425 1.399 . S
C426 C427 1.376 . S
C427 H414 0.930 . S
C427 C426 1.376 . S
C427 C428 1.388 . S
C428 H415 0.930 . S
C428 C427 1.388 . S
C428 C429 1.390 . S
C429 C428 1.390 . S
C429 C430 1.394 . S
C429 C435 1.465 1_554 S
C430 C425 1.399 . S
C430 C429 1.394 . S
C430 C431 1.517 1_554 S
C431 C430 1.517 1_556 S
C431 C432 1.502 . S
C431 C433 1.561 . S
C431 C434 1.525 . S
C432 H416 0.962 . S
C432 H417 0.979 . S
C432 H418 0.939 1_556 S
C432 C431 1.502 . S
C433 H419 0.958 1_556 S
C433 H420 0.963 . S
C433 H421 0.959 . S
C433 C431 1.561 . S
C434 C431 1.525 . S
C434 C435 1.396 . S
C434 C439 1.390 . S
C435 C429 1.465 1_556 S
C435 C434 1.396 . S
C435 C436 1.399 . S
C436 H422 0.929 . S
C436 C435 1.399 . S
C436 C437 1.385 . S
C437 H423 0.931 . S
C437 C436 1.385 . S
C437 C438 1.389 . S
C438 C437 1.389 . S
C438 C439 1.387 . S
C439 H424 0.930 . S
C439 C434 1.390 . S
C439 C438 1.387 . S
H440 C452 0.930 . S
H441 C454 0.930 . S
H442 C455 0.930 . S
H443 C459 0.959 . S
H444 C459 0.959 . S
H445 C459 0.961 . S
H446 C460 0.960 . S
H447 C460 0.961 . S
H448 C460 0.959 . S
H449 C463 0.929 . S
H450 C464 0.931 . S
H451 C466 0.930 1_565 S
C452 H440 0.930 . S
C452 C453 1.399 . S
C452 C457 1.399 . S
C453 C452 1.399 . S
C453 C454 1.376 1_565 S
C454 H441 0.930 . S
C454 C453 1.376 1_545 S
C454 C455 1.388 . S
C455 H442 0.930 . S
C455 C454 1.388 . S
C455 C456 1.390 . S
C456 C455 1.390 . S
C456 C457 1.394 1_545 S
C456 C462 1.465 . S
C457 C452 1.399 . S
C457 C456 1.394 1_565 S
C457 C458 1.516 . S
C458 C457 1.516 . S
C458 C459 1.502 . S
C458 C460 1.561 . S
C458 C461 1.526 . S
C459 H443 0.959 . S
C459 H444 0.959 . S
C459 H445 0.961 . S
C459 C458 1.502 . S
C460 H446 0.960 . S
C460 H447 0.961 . S
C460 H448 0.959 . S
C460 C458 1.561 . S
C461 C458 1.526 . S
C461 C462 1.396 1_565 S
C461 C466 1.390 1_565 S
C462 C456 1.465 . S
C462 C461 1.396 1_545 S
C462 C463 1.399 . S
C463 H449 0.929 . S
C463 C462 1.399 . S
C463 C464 1.385 . S
C464 H450 0.931 . S
C464 C463 1.385 . S
C464 C465 1.389 . S
C465 C464 1.389 . S
C465 C466 1.387 . S
C466 H451 0.930 1_545 S
C466 C461 1.390 1_545 S
C466 C465 1.387 . S
H467 C479 0.930 . S
H468 C481 0.930 . S
H469 C482 0.929 . S
H470 C486 0.959 . S
H471 C486 0.959 . S
H472 C486 0.961 . S
H473 C487 0.960 . S
H474 C487 0.961 . S
H475 C487 0.959 . S
H476 C490 0.929 . S
H477 C491 0.931 . S
H478 C493 0.930 . S
C479 H467 0.930 . S
C479 C480 1.399 . S
C479 C484 1.399 . S
C480 C479 1.399 . S
C480 C481 1.376 . S
C481 H468 0.930 . S
C481 C480 1.376 . S
C481 C482 1.388 . S
C482 H469 0.929 . S
C482 C481 1.388 . S
C482 C483 1.390 . S
C483 C482 1.390 . S
C483 C484 1.394 . S
C483 C489 1.465 1_565 S
C484 C479 1.399 . S
C484 C483 1.394 . S
C484 C485 1.521 . S
C485 C484 1.521 . S
C485 C486 1.516 . S
C485 C487 1.546 1_565 S
C485 C488 1.520 1_565 S
C486 H470 0.959 . S
C486 H471 0.959 . S
C486 H472 0.961 . S
C486 C485 1.516 . S
C487 H473 0.960 . S
C487 H474 0.961 . S
C487 H475 0.959 . S
C487 C485 1.546 1_545 S
C488 C485 1.520 1_545 S
C488 C489 1.396 . S
C488 C493 1.390 . S
C489 C483 1.465 1_545 S
C489 C488 1.396 . S
C489 C490 1.399 . S
C490 H476 0.929 . S
C490 C489 1.399 . S
C490 C491 1.385 . S
C491 H477 0.931 . S
C491 C490 1.385 . S
C491 C492 1.389 . S
C492 C491 1.389 . S
C492 C493 1.387 . S
C493 H478 0.930 . S
C493 C488 1.390 . S
C493 C492 1.387 . S
H494 C506 0.930 . S
H495 C508 0.930 . S
H496 C509 0.930 . S
H497 C513 0.959 . S
H498 C513 0.959 . S
H499 C513 0.961 . S
H500 C514 0.960 . S
H501 C514 0.957 1_545 S
H502 C514 0.959 . S
H503 C517 0.929 . S
H504 C518 0.931 . S
H505 C520 0.930 . S
C506 H494 0.930 . S
C506 C507 1.399 . S
C506 C511 1.399 . S
C507 C506 1.399 . S
C507 C508 1.376 . S
C508 H495 0.930 . S
C508 C507 1.376 . S
C508 C509 1.388 . S
C509 H496 0.930 . S
C509 C508 1.388 . S
C509 C510 1.390 . S
C510 C509 1.390 . S
C510 C511 1.394 . S
C510 C516 1.465 . S
C511 C506 1.399 . S
C511 C510 1.394 . S
C511 C512 1.516 1_565 S
C512 C511 1.516 1_545 S
C512 C513 1.502 . S
C512 C514 1.561 1_545 S
C512 C515 1.526 . S
C513 H497 0.959 . S
C513 H498 0.959 . S
C513 H499 0.961 . S
C513 C512 1.502 . S
C514 H500 0.960 . S
C514 H501 0.957 1_565 S
C514 H502 0.959 . S
C514 C512 1.561 1_565 S
C515 C512 1.526 . S
C515 C516 1.396 1_545 S
C515 C520 1.390 . S
C516 C510 1.465 . S
C516 C515 1.396 1_565 S
C516 C517 1.399 . S
C517 H503 0.929 . S
C517 C516 1.399 . S
C517 C518 1.385 1_565 S
C518 H504 0.931 . S
C518 C517 1.385 1_545 S
C518 C519 1.389 . S
C519 C518 1.389 . S
C519 C520 1.387 . S
C520 H505 0.930 . S
C520 C515 1.390 . S
C520 C519 1.387 . S
H521 C533 0.930 1_565 S
H522 C535 0.930 . S
H523 C536 0.930 . S
H524 C540 0.959 . S
H525 C540 0.959 . S
H526 C540 0.961 . S
H527 C541 0.960 . S
H528 C541 0.961 . S
H529 C541 0.959 . S
H530 C544 0.929 . S
H531 C545 0.931 . S
H532 C547 0.930 . S
C533 H521 0.930 1_545 S
C533 C534 1.399 . S
C533 C538 1.399 1_545 S
C534 C533 1.399 . S
C534 C535 1.376 . S
C535 H522 0.930 . S
C535 C534 1.376 . S
C535 C536 1.388 . S
C536 H523 0.930 . S
C536 C535 1.388 . S
C536 C537 1.390 . S
C537 C536 1.390 . S
C537 C538 1.394 1_545 S
C537 C543 1.465 . S
C538 C533 1.399 1_565 S
C538 C537 1.394 1_565 S
C538 C539 1.516 . S
C539 C538 1.516 . S
C539 C540 1.502 . S
C539 C541 1.561 . S
C539 C542 1.526 . S
C540 H524 0.959 . S
C540 H525 0.959 . S
C540 H526 0.961 . S
C540 C539 1.502 . S
C541 H527 0.960 . S
C541 H528 0.961 . S
C541 H529 0.959 . S
C541 C539 1.561 . S
C542 C539 1.526 . S
C542 C543 1.396 1_565 S
C542 C547 1.390 . S
C543 C537 1.465 . S
C543 C542 1.396 1_545 S
C543 C544 1.399 . S
C544 H530 0.929 . S
C544 C543 1.399 . S
C544 C545 1.385 . S
C545 H531 0.931 . S
C545 C544 1.385 . S
C545 C546 1.389 1_545 S
C546 C545 1.389 1_565 S
C546 C547 1.387 . S
C547 H532 0.930 . S
C547 C542 1.390 . S
C547 C546 1.387 . S
H548 C560 0.930 . S
H549 C562 0.930 . S
H550 C563 0.930 . S
H551 C567 0.959 . S
H552 C567 0.959 . S
H553 C567 0.961 1_655 S
H554 C568 0.960 . S
H555 C568 0.961 1_455 S
H556 C568 0.959 . S
H557 C571 0.929 . S
H558 C572 0.931 . S
H559 C574 0.930 . S
C560 H548 0.930 . S
C560 C561 1.399 . S
C560 C565 1.399 . S
C561 C560 1.399 . S
C561 C562 1.376 . S
C562 H549 0.930 . S
C562 C561 1.376 . S
C562 C563 1.388 . S
C563 H550 0.930 . S
C563 C562 1.388 . S
C563 C564 1.390 . S
C564 C563 1.390 . S
C564 C565 1.394 . S
C564 C570 1.465 1_655 S
C565 C560 1.399 . S
C565 C564 1.394 . S
C565 C566 1.516 1_655 S
C566 C565 1.516 1_455 S
C566 C567 1.502 . S
C566 C568 1.561 1_455 S
C566 C569 1.526 . S
C567 H551 0.959 . S
C567 H552 0.959 . S
C567 H553 0.961 1_455 S
C567 C566 1.502 . S
C568 H554 0.960 . S
C568 H555 0.961 1_655 S
C568 H556 0.959 . S
C568 C566 1.561 1_655 S
C569 C566 1.526 . S
C569 C570 1.396 . S
C569 C574 1.390 . S
C570 C564 1.465 1_455 S
C570 C569 1.396 . S
C570 C571 1.399 . S
C571 H557 0.929 . S
C571 C570 1.399 . S
C571 C572 1.385 . S
C572 H558 0.931 . S
C572 C571 1.385 . S
C572 C573 1.389 . S
C573 C572 1.389 . S
C573 C574 1.387 . S
C574 H559 0.930 . S
C574 C569 1.390 . S
C574 C573 1.387 . S
H575 C587 0.930 . S
H576 C589 0.930 . S
H577 C590 0.930 . S
H578 C594 0.959 . S
H579 C594 0.959 . S
H580 C594 0.946 1_455 S
H581 C595 0.960 . S
H582 C595 0.961 1_655 S
H583 C595 0.959 . S
H584 C598 0.929 . S
H585 C599 0.931 . S
H586 C601 0.930 . S
C587 H575 0.930 . S
C587 C588 1.399 . S
C587 C592 1.399 . S
C588 C587 1.399 . S
C588 C589 1.376 . S
C589 H576 0.930 . S
C589 C588 1.376 . S
C589 C590 1.388 . S
C590 H577 0.930 . S
C590 C589 1.388 . S
C590 C591 1.390 . S
C591 C590 1.390 . S
C591 C592 1.394 . S
C591 C597 1.465 1_455 S
C592 C587 1.399 . S
C592 C591 1.394 . S
C592 C593 1.516 1_455 S
C593 C592 1.516 1_655 S
C593 C594 1.502 . S
C593 C595 1.561 1_655 S
C593 C596 1.526 . S
C594 H578 0.959 . S
C594 H579 0.959 . S
C594 H580 0.946 1_655 S
C594 C593 1.502 . S
C595 H581 0.960 . S
C595 H582 0.961 1_455 S
C595 H583 0.959 . S
C595 C593 1.561 1_455 S
C596 C593 1.526 . S
C596 C597 1.396 . S
C596 C601 1.390 . S
C597 C591 1.465 1_655 S
C597 C596 1.396 . S
C597 C598 1.399 . S
C598 H584 0.929 . S
C598 C597 1.399 . S
C598 C599 1.385 . S
C599 H585 0.931 . S
C599 C598 1.385 . S
C599 C600 1.389 . S
C600 C599 1.389 . S
C600 C601 1.387 . S
C601 H586 0.930 . S
C601 C596 1.390 . S
C601 C600 1.387 . S
H602 C614 0.930 . S
H603 C616 0.930 . S
H604 C617 0.930 . S
H605 C621 0.959 . S
H606 C621 0.959 . S
H607 C621 0.961 1_655 S
H608 C622 0.960 . S
H609 C622 0.961 1_455 S
H610 C622 0.959 . S
H611 C625 0.929 . S
H612 C626 0.931 . S
H613 C628 0.930 . S
C614 H602 0.930 . S
C614 C615 1.399 . S
C614 C619 1.399 . S
C615 C614 1.399 . S
C615 C616 1.376 . S
C616 H603 0.930 . S
C616 C615 1.376 . S
C616 C617 1.388 . S
C617 H604 0.930 . S
C617 C616 1.388 . S
C617 C618 1.390 . S
C618 C617 1.390 . S
C618 C619 1.394 . S
C618 C624 1.465 1_655 S
C619 C614 1.399 . S
C619 C618 1.394 . S
C619 C620 1.516 1_655 S
C620 C619 1.516 1_455 S
C620 C621 1.502 . S
C620 C622 1.561 1_455 S
C620 C623 1.526 . S
C621 H605 0.959 . S
C621 H606 0.959 . S
C621 H607 0.961 1_455 S
C621 C620 1.502 . S
C622 H608 0.960 . S
C622 H609 0.961 1_655 S
C622 H610 0.959 . S
C622 C620 1.561 1_655 S
C623 C620 1.526 . S
C623 C624 1.396 . S
C623 C628 1.390 . S
C624 C618 1.465 1_455 S
C624 C623 1.396 . S
C624 C625 1.399 . S
C625 H611 0.929 . S
C625 C624 1.399 . S
C625 C626 1.385 . S
C626 H612 0.931 . S
C626 C625 1.385 . S
C626 C627 1.389 . S
C627 C626 1.389 . S
C627 C628 1.387 . S
C628 H613 0.930 . S
C628 C623 1.390 . S
C628 C627 1.387 . S
H629 C641 0.930 . S
H630 C643 0.930 . S
H631 C644 0.930 . S
H632 C648 0.959 . S
H633 C648 0.959 . S
H634 C648 0.961 1_455 S
H635 C649 0.960 . S
H636 C649 0.961 1_655 S
H637 C649 0.959 . S
H638 C652 0.929 . S
H639 C653 0.931 . S
H640 C655 0.930 . S
C641 H629 0.930 . S
C641 C642 1.399 . S
C641 C646 1.399 . S
C642 C641 1.399 . S
C642 C643 1.376 . S
C643 H630 0.930 . S
C643 C642 1.376 . S
C643 C644 1.388 . S
C644 H631 0.930 . S
C644 C643 1.388 . S
C644 C645 1.390 . S
C645 C644 1.390 . S
C645 C646 1.394 . S
C645 C651 1.465 1_455 S
C646 C641 1.399 . S
C646 C645 1.394 . S
C646 C647 1.516 1_455 S
C647 C646 1.516 1_655 S
C647 C648 1.502 . S
C647 C649 1.561 1_655 S
C647 C650 1.526 . S
C648 H632 0.959 . S
C648 H633 0.959 . S
C648 H634 0.961 1_655 S
C648 C647 1.502 . S
C649 H635 0.960 . S
C649 H636 0.961 1_455 S
C649 H637 0.959 . S
C649 C647 1.561 1_455 S
C650 C647 1.526 . S
C650 C651 1.396 . S
C650 C655 1.390 . S
C651 C645 1.465 1_655 S
C651 C650 1.396 . S
C651 C652 1.399 . S
C652 H638 0.929 . S
C652 C651 1.399 . S
C652 C653 1.385 . S
C653 H639 0.931 . S
C653 C652 1.385 . S
C653 C654 1.389 . S
C654 C653 1.389 . S
C654 C655 1.387 . S
C655 H640 0.930 . S
C655 C650 1.390 . S
C655 C654 1.387 . S
H656 C668 0.930 . S
H657 C670 0.930 . S
H658 C671 0.930 . S
H659 C675 0.959 . S
H660 C675 0.959 . S
H661 C675 0.961 . S
H662 C676 0.960 . S
H663 C676 0.961 . S
H664 C676 0.959 . S
H665 C679 0.929 . S
H666 C680 0.931 . S
H667 C682 0.930 . S
C668 H656 0.930 . S
C668 C669 1.399 . S
C668 C673 1.399 . S
C669 C668 1.399 . S
C669 C670 1.376 . S
C670 H657 0.930 . S
C670 C669 1.376 . S
C670 C671 1.388 . S
C671 H658 0.930 . S
C671 C670 1.388 . S
C671 C672 1.390 . S
C672 C671 1.390 . S
C672 C673 1.394 . S
C672 C678 1.465 . S
C673 C668 1.399 . S
C673 C672 1.394 . S
C673 C674 1.516 . S
C674 C673 1.516 . S
C674 C675 1.502 . S
C674 C676 1.561 . S
C674 C677 1.526 . S
C675 H659 0.959 . S
C675 H660 0.959 . S
C675 H661 0.961 . S
C675 C674 1.502 . S
C676 H662 0.960 . S
C676 H663 0.961 . S
C676 H664 0.959 . S
C676 C674 1.561 . S
C677 C674 1.526 . S
C677 C678 1.396 . S
C677 C682 1.390 . S
C678 C672 1.465 . S
C678 C677 1.396 . S
C678 C679 1.399 . S
C679 H665 0.929 . S
C679 C678 1.399 . S
C679 C680 1.385 . S
C680 H666 0.931 . S
C680 C679 1.385 . S
C680 C681 1.389 . S
C681 C680 1.389 . S
C681 C682 1.387 . S
C682 H667 0.930 . S
C682 C677 1.390 . S
C682 C681 1.387 . S
H683 C695 0.930 . S
H684 C697 0.930 . S
H685 C698 0.930 . S
H686 C702 0.959 . S
H687 C702 0.959 . S
H688 C702 0.961 . S
H689 C703 0.960 . S
H690 C703 0.961 . S
H691 C703 0.959 . S
H692 C706 0.929 . S
H693 C707 0.931 . S
H694 C709 0.930 . S
C695 H683 0.930 . S
C695 C696 1.399 . S
C695 C700 1.399 . S
C696 C695 1.399 . S
C696 C697 1.376 . S
C697 H684 0.930 . S
C697 C696 1.376 . S
C697 C698 1.388 . S
C698 H685 0.930 . S
C698 C697 1.388 . S
C698 C699 1.390 . S
C699 C698 1.390 . S
C699 C700 1.394 . S
C699 C705 1.465 . S
C700 C695 1.399 . S
C700 C699 1.394 . S
C700 C701 1.516 . S
C701 C700 1.516 . S
C701 C702 1.502 . S
C701 C703 1.561 . S
C701 C704 1.526 . S
C702 H686 0.959 . S
C702 H687 0.959 . S
C702 H688 0.961 . S
C702 C701 1.502 . S
C703 H689 0.960 . S
C703 H690 0.961 . S
C703 H691 0.959 . S
C703 C701 1.561 . S
C704 C701 1.526 . S
C704 C705 1.396 . S
C704 C709 1.390 . S
C705 C699 1.465 . S
C705 C704 1.396 . S
C705 C706 1.399 . S
C706 H692 0.929 . S
C706 C705 1.399 . S
C706 C707 1.385 . S
C707 H693 0.931 . S
C707 C706 1.385 . S
C707 C708 1.389 . S
C708 C707 1.389 . S
C708 C709 1.387 . S
C709 H694 0.930 . S
C709 C704 1.390 . S
C709 C708 1.387 . S
H710 C722 0.930 . S
H711 C724 0.930 . S
H712 C725 0.930 . S
H713 C729 0.959 . S
H714 C729 0.959 . S
H715 C729 0.961 . S
H716 C730 0.960 . S
H717 C730 0.961 . S
H718 C730 0.959 . S
H719 C733 0.929 . S
H720 C734 0.931 . S
H721 C736 0.930 . S
C722 H710 0.930 . S
C722 C723 1.399 . S
C722 C727 1.399 . S
C723 C722 1.399 . S
C723 C724 1.376 . S
C724 H711 0.930 . S
C724 C723 1.376 . S
C724 C725 1.388 . S
C725 H712 0.930 . S
C725 C724 1.388 . S
C725 C726 1.390 . S
C726 C725 1.390 . S
C726 C727 1.394 . S
C726 C732 1.465 . S
C727 C722 1.399 . S
C727 C726 1.394 . S
C727 C728 1.516 . S
C728 C727 1.516 . S
C728 C729 1.502 . S
C728 C730 1.561 . S
C728 C731 1.526 . S
C729 H713 0.959 . S
C729 H714 0.959 . S
C729 H715 0.961 . S
C729 C728 1.502 . S
C730 H716 0.960 . S
C730 H717 0.961 . S
C730 H718 0.959 . S
C730 C728 1.561 . S
C731 C728 1.526 . S
C731 C732 1.396 . S
C731 C736 1.390 . S
C732 C726 1.465 . S
C732 C731 1.396 . S
C732 C733 1.399 . S
C733 H719 0.929 . S
C733 C732 1.399 . S
C733 C734 1.385 . S
C734 H720 0.931 . S
C734 C733 1.385 . S
C734 C735 1.389 . S
C735 C734 1.389 . S
C735 C736 1.387 . S
C736 H721 0.930 . S
C736 C731 1.390 . S
C736 C735 1.387 . S
H737 C749 0.930 . S
H738 C751 0.930 . S
H739 C752 0.930 . S
H740 C756 0.959 . S
H741 C756 0.959 . S
H742 C756 0.961 . S
H743 C757 0.960 . S
H744 C757 0.961 . S
H745 C757 0.959 . S
H746 C760 0.929 . S
H747 C761 0.931 . S
H748 C763 0.930 . S
C749 H737 0.930 . S
C749 C750 1.399 . S
C749 C754 1.399 . S
C750 C749 1.399 . S
C750 C751 1.376 . S
C751 H738 0.930 . S
C751 C750 1.376 . S
C751 C752 1.388 . S
C752 H739 0.930 . S
C752 C751 1.388 . S
C752 C753 1.390 . S
C753 C752 1.390 . S
C753 C754 1.394 . S
C753 C759 1.465 . S
C754 C749 1.399 . S
C754 C753 1.394 . S
C754 C755 1.516 . S
C755 C754 1.516 . S
C755 C756 1.502 . S
C755 C757 1.561 . S
C755 C758 1.526 . S
C756 H740 0.959 . S
C756 H741 0.959 . S
C756 H742 0.961 . S
C756 C755 1.502 . S
C757 H743 0.960 . S
C757 H744 0.961 . S
C757 H745 0.959 . S
C757 C755 1.561 . S
C758 C755 1.526 . S
C758 C759 1.396 . S
C758 C763 1.390 . S
C759 C753 1.465 . S
C759 C758 1.396 . S
C759 C760 1.399 . S
C760 H746 0.929 . S
C760 C759 1.399 . S
C760 C761 1.385 . S
C761 H747 0.931 . S
C761 C760 1.385 . S
C761 C762 1.389 . S
C762 C761 1.389 . S
C762 C763 1.387 . S
C763 H748 0.930 . S
C763 C758 1.390 . S
C763 C762 1.387 . S
H764 C776 0.930 . S
H765 C778 0.930 . S
H766 C779 0.930 . S
H767 C783 0.959 . S
H768 C783 0.959 . S
H769 C783 0.961 . S
H770 C784 0.960 . S
H771 C784 0.961 . S
H772 C784 0.959 . S
H773 C787 0.929 . S
H774 C788 0.931 . S
H775 C790 0.930 . S
C776 H764 0.930 . S
C776 C777 1.399 . S
C776 C781 1.399 . S
C777 C776 1.399 . S
C777 C778 1.376 . S
C778 H765 0.930 . S
C778 C777 1.376 . S
C778 C779 1.388 . S
C779 H766 0.930 . S
C779 C778 1.388 . S
C779 C780 1.390 . S
C780 C779 1.390 . S
C780 C781 1.394 . S
C780 C786 1.465 . S
C781 C776 1.399 . S
C781 C780 1.394 . S
C781 C782 1.516 . S
C782 C781 1.516 . S
C782 C783 1.502 . S
C782 C784 1.561 . S
C782 C785 1.526 . S
C783 H767 0.959 . S
C783 H768 0.959 . S
C783 H769 0.961 . S
C783 C782 1.502 . S
C784 H770 0.960 . S
C784 H771 0.961 . S
C784 H772 0.959 . S
C784 C782 1.561 . S
C785 C782 1.526 . S
C785 C786 1.396 . S
C785 C790 1.390 . S
C786 C780 1.465 . S
C786 C785 1.396 . S
C786 C787 1.399 . S
C787 H773 0.929 . S
C787 C786 1.399 . S
C787 C788 1.385 . S
C788 H774 0.931 . S
C788 C787 1.385 . S
C788 C789 1.389 . S
C789 C788 1.389 . S
C789 C790 1.387 . S
C790 H775 0.930 . S
C790 C785 1.390 . S
C790 C789 1.387 . S
H791 C803 0.930 . S
H792 C805 0.930 . S
H793 C806 0.930 . S
H794 C810 0.959 . S
H795 C810 0.959 . S
H796 C810 0.961 . S
H797 C811 0.960 . S
H798 C811 0.961 . S
H799 C811 0.959 . S
H800 C814 0.929 . S
H801 C815 0.931 . S
H802 C817 0.930 . S
C803 H791 0.930 . S
C803 C804 1.399 . S
C803 C808 1.399 . S
C804 C803 1.399 . S
C804 C805 1.376 . S
C805 H792 0.930 . S
C805 C804 1.376 . S
C805 C806 1.388 . S
C806 H793 0.930 . S
C806 C805 1.388 . S
C806 C807 1.390 . S
C807 C806 1.390 . S
C807 C808 1.394 . S
C807 C813 1.465 . S
C808 C803 1.399 . S
C808 C807 1.394 . S
C808 C809 1.516 . S
C809 C808 1.516 . S
C809 C810 1.502 . S
C809 C811 1.561 . S
C809 C812 1.526 . S
C810 H794 0.959 . S
C810 H795 0.959 . S
C810 H796 0.961 . S
C810 C809 1.502 . S
C811 H797 0.960 . S
C811 H798 0.961 . S
C811 H799 0.959 . S
C811 C809 1.561 . S
C812 C809 1.526 . S
C812 C813 1.396 . S
C812 C817 1.390 . S
C813 C807 1.465 . S
C813 C812 1.396 . S
C813 C814 1.399 . S
C814 H800 0.929 . S
C814 C813 1.399 . S
C814 C815 1.385 . S
C815 H801 0.931 . S
C815 C814 1.385 . S
C815 C816 1.389 . S
C816 C815 1.389 . S
C816 C817 1.387 . S
C817 H802 0.930 . S
C817 C812 1.390 . S
C817 C816 1.387 . S
H818 C830 0.930 . S
H819 C832 0.930 . S
H820 C833 0.930 . S
H821 C837 0.959 . S
H822 C837 0.959 . S
H823 C837 0.961 . S
H824 C838 0.960 . S
H825 C838 0.961 . S
H826 C838 0.959 . S
H827 C841 0.929 . S
H828 C842 0.931 . S
H829 C844 0.930 . S
C830 H818 0.930 . S
C830 C831 1.399 . S
C830 C835 1.399 . S
C831 C830 1.399 . S
C831 C832 1.376 . S
C832 H819 0.930 . S
C832 C831 1.376 . S
C832 C833 1.388 . S
C833 H820 0.930 . S
C833 C832 1.388 . S
C833 C834 1.390 . S
C834 C833 1.390 . S
C834 C835 1.394 . S
C834 C840 1.465 . S
C835 C830 1.399 . S
C835 C834 1.394 . S
C835 C836 1.516 . S
C836 C835 1.516 . S
C836 C837 1.502 . S
C836 C838 1.561 . S
C836 C839 1.526 . S
C837 H821 0.959 . S
C837 H822 0.959 . S
C837 H823 0.961 . S
C837 C836 1.502 . S
C838 H824 0.960 . S
C838 H825 0.961 . S
C838 H826 0.959 . S
C838 C836 1.561 . S
C839 C836 1.526 . S
C839 C840 1.396 . S
C839 C844 1.390 . S
C840 C834 1.465 . S
C840 C839 1.396 . S
C840 C841 1.399 . S
C841 H827 0.929 . S
C841 C840 1.399 . S
C841 C842 1.385 . S
C842 H828 0.931 . S
C842 C841 1.385 . S
C842 C843 1.389 . S
C843 C842 1.389 . S
C843 C844 1.387 . S
C844 H829 0.930 . S
C844 C839 1.390 . S
C844 C843 1.387 . S
H845 C857 0.930 . S
H846 C859 0.930 . S
H847 C860 0.930 . S
H848 C864 0.959 . S
H849 C864 0.959 . S
H850 C864 0.961 . S
H851 C865 0.960 . S
H852 C865 0.961 . S
H853 C865 0.959 . S
H854 C868 0.929 . S
H855 C869 0.931 . S
H856 C871 0.930 . S
C857 H845 0.930 . S
C857 C858 1.399 . S
C857 C862 1.399 . S
C858 C857 1.399 . S
C858 C859 1.376 . S
C859 H846 0.930 . S
C859 C858 1.376 . S
C859 C860 1.388 . S
C860 H847 0.930 . S
C860 C859 1.388 . S
C860 C861 1.390 . S
C861 C860 1.390 . S
C861 C862 1.394 . S
C861 C867 1.465 . S
C862 C857 1.399 . S
C862 C861 1.394 . S
C862 C863 1.516 . S
C863 C862 1.516 . S
C863 C864 1.502 . S
C863 C865 1.561 . S
C863 C866 1.526 . S
C864 H848 0.959 . S
C864 H849 0.959 . S
C864 H850 0.961 . S
C864 C863 1.502 . S
C865 H851 0.960 . S
C865 H852 0.961 . S
C865 H853 0.959 . S
C865 C863 1.561 . S
C866 C863 1.526 . S
C866 C867 1.396 . S
C866 C871 1.390 . S
C867 C861 1.465 . S
C867 C866 1.396 . S
C867 C868 1.399 . S
C868 H854 0.929 . S
C868 C867 1.399 . S
C868 C869 1.385 . S
C869 H855 0.931 . S
C869 C868 1.385 . S
C869 C870 1.389 . S
C870 C869 1.389 . S
C870 C871 1.387 . S
C871 H856 0.930 . S
C871 C866 1.390 . S
C871 C870 1.387 . S
H872 C884 0.930 . S
H873 C886 0.930 . S
H874 C887 0.930 . S
H875 C891 0.959 . S
H876 C891 0.959 . S
H877 C891 0.961 . S
H878 C892 0.960 . S
H879 C892 0.961 . S
H880 C892 0.959 . S
H881 C895 0.929 . S
H882 C896 0.931 . S
H883 C898 0.930 . S
C884 H872 0.930 . S
C884 C885 1.399 . S
C884 C889 1.399 . S
C885 C884 1.399 . S
C885 C886 1.376 1_545 S
C886 H873 0.930 . S
C886 C885 1.376 1_565 S
C886 C887 1.388 . S
C887 H874 0.930 . S
C887 C886 1.388 . S
C887 C888 1.390 . S
C888 C887 1.390 . S
C888 C889 1.394 1_565 S
C888 C894 1.465 . S
C889 C884 1.399 . S
C889 C888 1.394 1_545 S
C889 C890 1.516 . S
C890 C889 1.516 . S
C890 C891 1.502 . S
C890 C892 1.561 . S
C890 C893 1.526 . S
C891 H875 0.959 . S
C891 H876 0.959 . S
C891 H877 0.961 . S
C891 C890 1.502 . S
C892 H878 0.960 . S
C892 H879 0.961 . S
C892 H880 0.959 . S
C892 C890 1.561 . S
C893 C890 1.526 . S
C893 C894 1.396 1_545 S
C893 C898 1.390 . S
C894 C888 1.465 . S
C894 C893 1.396 1_565 S
C894 C895 1.399 . S
C895 H881 0.929 . S
C895 C894 1.399 . S
C895 C896 1.385 . S
C896 H882 0.931 . S
C896 C895 1.385 . S
C896 C897 1.389 . S
C897 C896 1.389 . S
C897 C898 1.387 1_565 S
C898 H883 0.930 . S
C898 C893 1.390 . S
C898 C897 1.387 1_545 S
H899 C911 0.930 . S
H900 C913 0.930 . S
H901 C914 0.930 . S
H902 C918 0.959 . S
H903 C918 0.959 . S
H904 C918 0.961 . S
H905 C919 0.960 . S
H906 C919 0.961 . S
H907 C919 0.959 . S
H908 C922 0.929 . S
H909 C923 0.931 . S
H910 C925 0.930 . S
C911 H899 0.930 . S
C911 C912 1.399 1_565 S
C911 C916 1.399 . S
C912 C911 1.399 1_545 S
C912 C913 1.376 . S
C913 H900 0.930 . S
C913 C912 1.376 . S
C913 C914 1.388 . S
C914 H901 0.930 . S
C914 C913 1.388 . S
C914 C915 1.390 . S
C915 C914 1.390 . S
C915 C916 1.394 1_545 S
C915 C921 1.465 . S
C916 C911 1.399 . S
C916 C915 1.394 1_565 S
C916 C917 1.516 . S
C917 C916 1.516 . S
C917 C918 1.502 . S
C917 C919 1.561 . S
C917 C920 1.526 . S
C918 H902 0.959 . S
C918 H903 0.959 . S
C918 H904 0.961 . S
C918 C917 1.502 . S
C919 H905 0.960 . S
C919 H906 0.961 . S
C919 H907 0.959 . S
C919 C917 1.561 . S
C920 C917 1.526 . S
C920 C921 1.396 1_565 S
C920 C925 1.390 . S
C921 C915 1.465 . S
C921 C920 1.396 1_545 S
C921 C922 1.399 . S
C922 H908 0.929 . S
C922 C921 1.399 . S
C922 C923 1.385 . S
C923 H909 0.931 . S
C923 C922 1.385 . S
C923 C924 1.389 1_545 S
C924 C923 1.389 1_565 S
C924 C925 1.387 . S
C925 H910 0.930 . S
C925 C920 1.390 . S
C925 C924 1.387 . S
H926 C938 0.930 . S
H927 C940 0.930 . S
H928 C941 0.930 . S
H929 C945 0.959 . S
H930 C945 0.959 . S
H931 C945 0.961 . S
H932 C946 0.960 . S
H933 C946 0.961 . S
H934 C946 0.959 . S
H935 C949 0.929 . S
H936 C950 0.931 . S
H937 C952 0.930 . S
C938 H926 0.930 . S
C938 C939 1.399 . S
C938 C943 1.399 . S
C939 C938 1.399 . S
C939 C940 1.376 1_545 S
C940 H927 0.930 . S
C940 C939 1.376 1_565 S
C940 C941 1.388 . S
C941 H928 0.930 . S
C941 C940 1.388 . S
C941 C942 1.390 . S
C942 C941 1.390 . S
C942 C943 1.394 1_565 S
C942 C948 1.465 . S
C943 C938 1.399 . S
C943 C942 1.394 1_545 S
C943 C944 1.516 . S
C944 C943 1.516 . S
C944 C945 1.502 . S
C944 C946 1.561 . S
C944 C947 1.526 . S
C945 H929 0.959 . S
C945 H930 0.959 . S
C945 H931 0.961 . S
C945 C944 1.502 . S
C946 H932 0.960 . S
C946 H933 0.961 . S
C946 H934 0.959 . S
C946 C944 1.561 . S
C947 C944 1.526 . S
C947 C948 1.396 1_545 S
C947 C952 1.390 . S
C948 C942 1.465 . S
C948 C947 1.396 1_565 S
C948 C949 1.399 . S
C949 H935 0.929 . S
C949 C948 1.399 . S
C949 C950 1.385 . S
C950 H936 0.931 . S
C950 C949 1.385 . S
C950 C951 1.389 . S
C951 C950 1.389 . S
C951 C952 1.387 1_565 S
C952 H937 0.930 . S
C952 C947 1.390 . S
C952 C951 1.387 1_545 S
H953 C965 0.930 . S
H954 C967 0.930 . S
H955 C968 0.930 . S
H956 C972 0.959 . S
H957 C972 0.959 . S
H958 C972 0.961 . S
H959 C973 0.960 . S
H960 C973 0.961 . S
H961 C973 0.959 . S
H962 C976 0.929 . S
H963 C977 0.931 . S
H964 C979 0.930 . S
C965 H953 0.930 . S
C965 C966 1.399 1_545 S
C965 C970 1.399 . S
C966 C965 1.399 1_565 S
C966 C967 1.376 . S
C967 H954 0.930 . S
C967 C966 1.376 . S
C967 C968 1.388 . S
C968 H955 0.930 . S
C968 C967 1.388 . S
C968 C969 1.390 . S
C969 C968 1.390 . S
C969 C970 1.394 1_565 S
C969 C975 1.465 . S
C970 C965 1.399 . S
C970 C969 1.394 1_545 S
C970 C971 1.516 . S
C971 C970 1.516 . S
C971 C972 1.502 . S
C971 C973 1.561 . S
C971 C974 1.526 . S
C972 H956 0.959 . S
C972 H957 0.959 . S
C972 H958 0.961 . S
C972 C971 1.502 . S
C973 H959 0.960 . S
C973 H960 0.961 . S
C973 H961 0.959 . S
C973 C971 1.561 . S
C974 C971 1.526 . S
C974 C975 1.396 1_545 S
C974 C979 1.390 . S
C975 C969 1.465 . S
C975 C974 1.396 1_565 S
C975 C976 1.399 . S
C976 H962 0.929 . S
C976 C975 1.399 . S
C976 C977 1.385 . S
C977 H963 0.931 . S
C977 C976 1.385 . S
C977 C978 1.389 1_565 S
C978 C977 1.389 1_545 S
C978 C979 1.387 . S
C979 H964 0.930 . S
C979 C974 1.390 . S
C979 C978 1.387 . S
H980 C992 0.930 . S
H981 C994 0.930 . S
H982 C995 0.930 . S
H983 C999 0.959 . S
H984 C999 0.959 . S
H985 C999 0.961 . S
H986 C1000 0.960 . S
H987 C1000 0.961 . S
H988 C1000 0.959 . S
H989 C1003 0.929 . S
H990 C1004 0.931 . S
H991 C1006 0.930 . S
C992 H980 0.930 . S
C992 C993 1.399 . S
C992 C997 1.399 . S
C993 C992 1.399 . S
C993 C994 1.376 . S
C994 H981 0.930 . S
C994 C993 1.376 . S
C994 C995 1.388 . S
C995 H982 0.930 . S
C995 C994 1.388 . S
C995 C996 1.390 . S
C996 C995 1.390 . S
C996 C997 1.394 . S
C996 C1002 1.465 . S
C997 C992 1.399 . S
C997 C996 1.394 . S
C997 C998 1.516 . S
C998 C997 1.516 . S
C998 C999 1.502 . S
C998 C1000 1.561 . S
C998 C1001 1.526 . S
C999 H983 0.959 . S
C999 H984 0.959 . S
C999 H985 0.961 . S
C999 C998 1.502 . S
C1000 H986 0.960 . S
C1000 H987 0.961 . S
C1000 H988 0.959 . S
C1000 C998 1.561 . S
C1001 C998 1.526 . S
C1001 C1002 1.396 . S
C1001 C1006 1.390 . S
C1002 C996 1.465 . S
C1002 C1001 1.396 . S
C1002 C1003 1.399 . S
C1003 H989 0.929 . S
C1003 C1002 1.399 . S
C1003 C1004 1.385 . S
C1004 H990 0.931 . S
C1004 C1003 1.385 . S
C1004 C1005 1.389 . S
C1005 C1004 1.389 . S
C1005 C1006 1.387 . S
C1006 H991 0.930 . S
C1006 C1001 1.390 . S
C1006 C1005 1.387 . S
H1007 C1019 0.930 . S
H1008 C1021 0.930 . S
H1009 C1022 0.930 . S
H1010 C1026 0.959 . S
H1011 C1026 0.959 . S
H1012 C1026 0.961 . S
H1013 C1027 0.960 . S
H1014 C1027 0.961 . S
H1015 C1027 0.959 . S
H1016 C1030 0.929 . S
H1017 C1031 0.931 . S
H1018 C1033 0.930 . S
C1019 H1007 0.930 . S
C1019 C1020 1.399 . S
C1019 C1024 1.399 . S
C1020 C1019 1.399 . S
C1020 C1021 1.376 . S
C1021 H1008 0.930 . S
C1021 C1020 1.376 . S
C1021 C1022 1.388 . S
C1022 H1009 0.930 . S
C1022 C1021 1.388 . S
C1022 C1023 1.390 . S
C1023 C1022 1.390 . S
C1023 C1024 1.394 . S
C1023 C1029 1.465 . S
C1024 C1019 1.399 . S
C1024 C1023 1.394 . S
C1024 C1025 1.516 . S
C1025 C1024 1.516 . S
C1025 C1026 1.502 . S
C1025 C1027 1.561 . S
C1025 C1028 1.526 . S
C1026 H1010 0.959 . S
C1026 H1011 0.959 . S
C1026 H1012 0.961 . S
C1026 C1025 1.502 . S
C1027 H1013 0.960 . S
C1027 H1014 0.961 . S
C1027 H1015 0.959 . S
C1027 C1025 1.561 . S
C1028 C1025 1.526 . S
C1028 C1029 1.396 . S
C1028 C1033 1.390 . S
C1029 C1023 1.465 . S
C1029 C1028 1.396 . S
C1029 C1030 1.399 . S
C1030 H1016 0.929 . S
C1030 C1029 1.399 . S
C1030 C1031 1.385 . S
C1031 H1017 0.931 . S
C1031 C1030 1.385 . S
C1031 C1032 1.389 . S
C1032 C1031 1.389 . S
C1032 C1033 1.387 . S
C1033 H1018 0.930 . S
C1033 C1028 1.390 . S
C1033 C1032 1.387 . S
H1034 C1046 0.930 . S
H1035 C1048 0.930 . S
H1036 C1049 0.930 . S
H1037 C1053 0.959 . S
H1038 C1053 0.959 . S
H1039 C1053 0.961 . S
H1040 C1054 0.960 . S
H1041 C1054 0.961 . S
H1042 C1054 0.959 . S
H1043 C1057 0.929 . S
H1044 C1058 0.931 . S
H1045 C1060 0.930 . S
C1046 H1034 0.930 . S
C1046 C1047 1.399 . S
C1046 C1051 1.399 . S
C1047 C1046 1.399 . S
C1047 C1048 1.376 . S
C1048 H1035 0.930 . S
C1048 C1047 1.376 . S
C1048 C1049 1.388 . S
C1049 H1036 0.930 . S
C1049 C1048 1.388 . S
C1049 C1050 1.390 . S
C1050 C1049 1.390 . S
C1050 C1051 1.394 . S
C1050 C1056 1.465 . S
C1051 C1046 1.399 . S
C1051 C1050 1.394 . S
C1051 C1052 1.516 . S
C1052 C1051 1.516 . S
C1052 C1053 1.502 . S
C1052 C1054 1.561 . S
C1052 C1055 1.526 . S
C1053 H1037 0.959 . S
C1053 H1038 0.959 . S
C1053 H1039 0.961 . S
C1053 C1052 1.502 . S
C1054 H1040 0.960 . S
C1054 H1041 0.961 . S
C1054 H1042 0.959 . S
C1054 C1052 1.561 . S
C1055 C1052 1.526 . S
C1055 C1056 1.396 . S
C1055 C1060 1.390 . S
C1056 C1050 1.465 . S
C1056 C1055 1.396 . S
C1056 C1057 1.399 . S
C1057 H1043 0.929 . S
C1057 C1056 1.399 . S
C1057 C1058 1.385 . S
C1058 H1044 0.931 . S
C1058 C1057 1.385 . S
C1058 C1059 1.389 . S
C1059 C1058 1.389 . S
C1059 C1060 1.387 . S
C1060 H1045 0.930 . S
C1060 C1055 1.390 . S
C1060 C1059 1.387 . S
H1061 C1073 0.930 . S
H1062 C1075 0.930 . S
H1063 C1076 0.930 . S
H1064 C1080 0.959 . S
H1065 C1080 0.959 . S
H1066 C1080 0.961 . S
H1067 C1081 0.960 . S
H1068 C1081 0.961 . S
H1069 C1081 0.959 . S
H1070 C1084 0.929 . S
H1071 C1085 0.931 . S
H1072 C1087 0.930 . S
C1073 H1061 0.930 . S
C1073 C1074 1.399 . S
C1073 C1078 1.399 . S
C1074 C1073 1.399 . S
C1074 C1075 1.376 . S
C1075 H1062 0.930 . S
C1075 C1074 1.376 . S
C1075 C1076 1.388 . S
C1076 H1063 0.930 . S
C1076 C1075 1.388 . S
C1076 C1077 1.390 . S
C1077 C1076 1.390 . S
C1077 C1078 1.394 . S
C1077 C1083 1.465 . S
C1078 C1073 1.399 . S
C1078 C1077 1.394 . S
C1078 C1079 1.516 . S
C1079 C1078 1.516 . S
C1079 C1080 1.502 . S
C1079 C1081 1.561 . S
C1079 C1082 1.526 . S
C1080 H1064 0.959 . S
C1080 H1065 0.959 . S
C1080 H1066 0.961 . S
C1080 C1079 1.502 . S
C1081 H1067 0.960 . S
C1081 H1068 0.961 . S
C1081 H1069 0.959 . S
C1081 C1079 1.561 . S
C1082 C1079 1.526 . S
C1082 C1083 1.396 . S
C1082 C1087 1.390 . S
C1083 C1077 1.465 . S
C1083 C1082 1.396 . S
C1083 C1084 1.399 . S
C1084 H1070 0.929 . S
C1084 C1083 1.399 . S
C1084 C1085 1.385 . S
C1085 H1071 0.931 . S
C1085 C1084 1.385 . S
C1085 C1086 1.389 . S
C1086 C1085 1.389 . S
C1086 C1087 1.387 . S
C1087 H1072 0.930 . S
C1087 C1082 1.390 . S
C1087 C1086 1.387 . S
C237 C8 1.244 . S
C249 C78 1.247 . S
C264 C64 1.213 . S
C276 C22 1.226 . S
C291 C36 1.147 . S
C303 C106 1.148 . S
C318 C92 1.213 . S
C330 C50 1.226 . S
C345 C190 1.188 . S
C357 C120 1.173 . S
C372 C176 1.209 . S
C384 C134 1.223 . S
C399 C218 1.188 . S
C411 C148 1.173 . S
C426 C162 1.245 . S
C438 C204 1.247 . S
C453 C23 1.488 . S
C465 C9 1.528 . S
C480 C37 1.479 . S
C492 C51 1.496 . S
C507 C65 1.511 . S
C519 C79 1.480 . S
C534 C93 1.526 . S
C546 C107 1.477 . S
C561 C121 1.478 . S
C573 C135 1.498 . S
C588 C163 1.476 . S
C600 C149 1.502 . S
C615 C191 1.499 . S
C627 C177 1.525 . S
C642 C205 1.498 . S
C654 C219 1.525 . S
C669 C132 1.518 . S
C681 C6 1.554 . S
C696 C20 1.502 . S
C708 C118 1.556 . S
C723 C160 1.522 . S
C735 C34 1.551 . S
C750 C48 1.549 . S
C762 C146 1.506 . S
C777 C62 1.558 . S
C789 C188 1.528 . S
C804 C174 1.504 . S
C816 C76 1.534 . S
C831 C90 1.511 . S
C843 C216 1.522 . S
C858 C202 1.503 . S
C870 C104 1.539 . S
C885 C7 1.396 . S
C897 C35 1.410 . S
C912 C49 1.413 . S
C924 C21 1.398 . S
C939 C91 1.415 . S
C951 C63 1.421 . S
C966 C105 1.411 . S
C978 C77 1.402 . S
C993 C147 1.397 . S
C1005 C119 1.411 . S
C1020 C133 1.404 . S
C1032 C161 1.419 . S
C1047 C203 1.410 . S
C1059 C175 1.419 . S
C1074 C189 1.406 . S
C1086 C217 1.398 . S
