# Generated by pormake.
# Topology smb, (6)-cn, num edge types: 1
# Building blocks:
#     Node 0, Type 0, BuildingBlock: OJICUG_clean_sbu_0, # of connection points: 6
#     Node 1, Type 0, BuildingBlock: OJICUG_clean_sbu_0, # of connection points: 6
#     Node 2, Type 0, BuildingBlock: OJICUG_clean_sbu_0, # of connection points: 6
#     Node 3, Type 0, BuildingBlock: OJICUG_clean_sbu_0, # of connection points: 6
#     Node 4, Type 0, BuildingBlock: OJICUG_clean_sbu_0, # of connection points: 6
#     Node 5, Type 0, BuildingBlock: OJICUG_clean_sbu_0, # of connection points: 6
#     Node 6, Type 0, BuildingBlock: OJICUG_clean_sbu_0, # of connection points: 6
#     Node 7, Type 0, BuildingBlock: OJICUG_clean_sbu_0, # of connection points: 6
#     Node 8, Type 0, BuildingBlock: OJICUG_clean_sbu_0, # of connection points: 6
#     Edge 9, Type (0, 0), BuildingBlock: OJICUG_clean_linker_0, # of connection points: 2
#     Edge 10, Type (0, 0), BuildingBlock: OJICUG_clean_linker_0, # of connection points: 2
#     Edge 11, Type (0, 0), BuildingBlock: OJICUG_clean_linker_0, # of connection points: 2
#     Edge 12, Type (0, 0), BuildingBlock: OJICUG_clean_linker_0, # of connection points: 2
#     Edge 13, Type (0, 0), BuildingBlock: OJICUG_clean_linker_0, # of connection points: 2
#     Edge 14, Type (0, 0), BuildingBlock: OJICUG_clean_linker_0, # of connection points: 2
#     Edge 15, Type (0, 0), BuildingBlock: OJICUG_clean_linker_0, # of connection points: 2
#     Edge 16, Type (0, 0), BuildingBlock: OJICUG_clean_linker_0, # of connection points: 2
#     Edge 17, Type (0, 0), BuildingBlock: OJICUG_clean_linker_0, # of connection points: 2
#     Edge 18, Type (0, 0), BuildingBlock: OJICUG_clean_linker_0, # of connection points: 2
#     Edge 19, Type (0, 0), BuildingBlock: OJICUG_clean_linker_0, # of connection points: 2
#     Edge 20, Type (0, 0), BuildingBlock: OJICUG_clean_linker_0, # of connection points: 2
#     Edge 21, Type (0, 0), BuildingBlock: OJICUG_clean_linker_0, # of connection points: 2
#     Edge 22, Type (0, 0), BuildingBlock: OJICUG_clean_linker_0, # of connection points: 2
#     Edge 23, Type (0, 0), BuildingBlock: OJICUG_clean_linker_0, # of connection points: 2
#     Edge 24, Type (0, 0), BuildingBlock: OJICUG_clean_linker_0, # of connection points: 2
#     Edge 25, Type (0, 0), BuildingBlock: OJICUG_clean_linker_0, # of connection points: 2
#     Edge 26, Type (0, 0), BuildingBlock: OJICUG_clean_linker_0, # of connection points: 2
#     Edge 27, Type (0, 0), BuildingBlock: OJICUG_clean_linker_0, # of connection points: 2
#     Edge 28, Type (0, 0), BuildingBlock: OJICUG_clean_linker_0, # of connection points: 2
#     Edge 29, Type (0, 0), BuildingBlock: OJICUG_clean_linker_0, # of connection points: 2
#     Edge 30, Type (0, 0), BuildingBlock: OJICUG_clean_linker_0, # of connection points: 2
#     Edge 31, Type (0, 0), BuildingBlock: OJICUG_clean_linker_0, # of connection points: 2
#     Edge 32, Type (0, 0), BuildingBlock: OJICUG_clean_linker_0, # of connection points: 2
#     Edge 33, Type (0, 0), BuildingBlock: OJICUG_clean_linker_0, # of connection points: 2
#     Edge 34, Type (0, 0), BuildingBlock: OJICUG_clean_linker_0, # of connection points: 2
#     Edge 35, Type (0, 0), BuildingBlock: OJICUG_clean_linker_0, # of connection points: 2
# Relax obj value: 0.341
# Max RMSD: 0.254
# Mean RMSD: 0.254
data_MOF--net-smb--node1-OJICUG_clean_sbu_0--edge1-OJICUG_clean_linker_0
_symmetry_space_group_name_H-M    P1
_symmetry_Int_Tables_number       1
_symmetry_cell_setting            triclinic
loop_
_symmetry_equiv_pos_as_xyz
'x, y, z'
_cell_length_a     31.073188
_cell_length_b     31.011894
_cell_length_c     22.299075
_cell_angle_alpha  90.041342
_cell_angle_beta   90.019752
_cell_angle_gamma 120.01667
loop_
_atom_site_label
_atom_site_type_symbol
_atom_site_fract_x
_atom_site_fract_y
_atom_site_fract_z
_atom_type_partial_charge
Sc0 Sc 0.31807 0.14517 0.02087 0.0
Sc1 Sc 0.39923 0.18611 0.89489 0.0
Sc2 Sc 0.44678 0.2104 0.04187 0.0
O3 O 0.3879 0.1805 -0.01426 0.0
C4 C 0.37376 0.23745 0.10939 0.0
C5 C 0.30777 0.20486 0.91036 0.0
C6 C 0.48196 0.29279 0.93925 0.0
C7 C 0.3085 0.0753 0.91058 0.0
C8 C 0.37474 0.11006 0.10974 0.0
C9 C 0.48256 0.16345 0.93953 0.0
O10 O 0.33418 0.20403 0.08466 0.0
O11 O 0.34486 0.20882 0.88152 0.0
O12 O 0.48232 0.27816 -0.00776 0.0
O13 O 0.29434 0.08328 0.96075 0.0
O14 O 0.41725 0.14676 0.09826 0.0
O15 O 0.45535 0.16459 0.89782 0.0
O16 O 0.33495 0.10327 0.08503 0.0
O17 O 0.34517 0.10882 0.88152 0.0
O18 O 0.483 0.17888 -0.00766 0.0
O19 O 0.29358 0.18239 0.96035 0.0
O20 O 0.41648 0.24385 0.0981 0.0
O21 O 0.45511 0.26399 0.89756 0.0
Sc22 Sc 0.80675 0.14501 0.02102 0.0
Sc23 Sc 0.76674 0.18604 0.89482 0.0
Sc24 Sc 0.74358 0.21067 0.04167 0.0
O25 O 0.77242 0.18051 -0.0143 0.0
C26 C 0.71494 0.11027 0.10972 0.0
C27 C 0.74656 0.07515 0.91071 0.0
C28 C 0.66088 0.1637 0.93932 0.0
C29 C 0.87679 0.20444 0.91048 0.0
C30 C 0.8435 0.23746 0.10935 0.0
C31 C 0.79089 0.29288 0.93893 0.0
O32 O 0.74789 0.1033 0.08513 0.0
O33 O 0.74349 0.10872 0.88157 0.0
O34 O 0.67592 0.17929 -0.00793 0.0
O35 O 0.86847 0.18198 0.9605 0.0
O36 O 0.80725 0.24399 0.09796 0.0
O37 O 0.7888 0.26396 0.89731 0.0
O38 O 0.84957 0.20391 0.08474 0.0
O39 O 0.84374 0.20856 0.88161 0.0
O40 O 0.77595 0.27837 -0.00805 0.0
O41 O 0.76858 0.08308 0.96096 0.0
O42 O 0.70931 0.14709 0.09814 0.0
O43 O 0.68915 0.16464 0.89766 0.0
Sc44 Sc 0.80712 0.63476 0.02165 0.0
Sc45 Sc 0.76687 0.55395 0.89499 0.0
Sc46 Sc 0.74295 0.50568 0.04156 0.0
O47 O 0.77238 0.56494 -0.01407 0.0
C48 C 0.8429 0.57817 0.10981 0.0
C49 C 0.87718 0.64534 0.91122 0.0
C50 C 0.7903 0.47082 0.9388 0.0
C51 C 0.74751 0.64513 0.91123 0.0
C52 C 0.71489 0.57778 0.10982 0.0
C53 C 0.66061 0.47057 0.93891 0.0
O54 O 0.84936 0.61802 0.08545 0.0
O55 O 0.84397 0.60838 0.88209 0.0
O56 O 0.77503 0.47017 -0.00829 0.0
O57 O 0.76961 0.65916 0.96148 0.0
O58 O 0.70898 0.53521 0.09811 0.0
O59 O 0.68916 0.49785 0.89738 0.0
O60 O 0.74811 0.61772 0.08547 0.0
O61 O 0.74401 0.60828 0.88206 0.0
O62 O 0.67539 0.46988 -0.00828 0.0
O63 O 0.86901 0.65938 0.96142 0.0
O64 O 0.80645 0.5355 0.0981 0.0
O65 O 0.78863 0.49792 0.89729 0.0
Sc66 Sc -0.01536 0.47843 0.35427 0.0
Sc67 Sc 0.06581 0.51944 0.2283 0.0
Sc68 Sc 0.11335 0.54352 0.37529 0.0
O69 O 0.05447 0.51374 0.31914 0.0
C70 C 0.04041 0.57059 0.44296 0.0
C71 C -0.02559 0.53827 0.24389 0.0
C72 C 0.14859 0.62604 0.27283 0.0
C73 C -0.025 0.40865 0.24383 0.0
C74 C 0.04122 0.4431 0.44297 0.0
C75 C 0.14909 0.49665 0.27281 0.0
O76 O 0.00081 0.53723 0.41818 0.0
O77 O 0.01147 0.5422 0.21502 0.0
O78 O 0.14895 0.61133 0.32578 0.0
O79 O 0.96084 0.41661 0.29401 0.0
O80 O 0.08375 0.47979 0.43154 0.0
O81 O 0.1219 0.49788 0.23112 0.0
O82 O 0.00145 0.43639 0.41829 0.0
O83 O 0.01172 0.44217 0.21482 0.0
O84 O 0.14951 0.512 0.32565 0.0
O85 O 0.96021 0.51578 0.29386 0.0
O86 O 0.08311 0.57695 0.43163 0.0
O87 O 0.12172 0.59731 0.23111 0.0
Sc88 Sc 0.47335 0.47841 0.35429 0.0
Sc89 Sc 0.43332 0.51936 0.22803 0.0
Sc90 Sc 0.41019 0.54409 0.37485 0.0
O91 O 0.43902 0.51389 0.31891 0.0
C92 C 0.38158 0.44374 0.443 0.0
C93 C 0.41313 0.40848 0.24404 0.0
C94 C 0.32746 0.49705 0.27252 0.0
C95 C 0.54338 0.53781 0.24373 0.0
C96 C 0.5101 0.5709 0.44256 0.0
C97 C 0.45749 0.62623 0.27201 0.0
O98 O 0.4145 0.43675 0.41842 0.0
O99 O 0.41006 0.44203 0.21486 0.0
O100 O 0.34252 0.51268 0.32525 0.0
O101 O 0.53507 0.51537 0.29376 0.0
O102 O 0.47388 0.57744 0.43113 0.0
O103 O 0.45537 0.59728 0.23042 0.0
O104 O 0.51616 0.53733 0.41798 0.0
O105 O 0.51032 0.54189 0.21483 0.0
O106 O 0.44257 0.61177 0.32505 0.0
O107 O 0.43517 0.41645 0.29428 0.0
O108 O 0.37593 0.48055 0.43138 0.0
O109 O 0.35573 0.49796 0.23086 0.0
Sc110 Sc 0.47382 0.96809 0.35496 0.0
Sc111 Sc 0.43345 0.88728 0.22832 0.0
Sc112 Sc 0.40982 0.83902 0.37489 0.0
O113 O 0.4391 0.89827 0.31925 0.0
C114 C 0.50986 0.91159 0.44291 0.0
C115 C 0.54375 0.97874 0.24436 0.0
C116 C 0.45704 0.80421 0.27193 0.0
C117 C 0.41403 0.97841 0.24471 0.0
C118 C 0.38175 0.91103 0.44335 0.0
C119 C 0.3273 0.80385 0.27245 0.0
O120 O 0.51622 0.95143 0.41861 0.0
O121 O 0.51052 0.94175 0.21528 0.0
O122 O 0.44187 0.80356 0.32488 0.0
O123 O 0.43617 -0.00756 0.29494 0.0
O124 O 0.37588 0.86848 0.4316 0.0
O125 O 0.35576 0.83114 0.23088 0.0
O126 O 0.41487 0.95099 0.41894 0.0
O127 O 0.41054 0.94158 0.2155 0.0
O128 O 0.34218 0.80316 0.32521 0.0
O129 O 0.53561 -0.00722 0.29458 0.0
O130 O 0.47342 0.8689 0.43125 0.0
O131 O 0.45527 0.83128 0.23046 0.0
Sc132 Sc 0.65155 0.8119 0.68737 0.0
Sc133 Sc 0.73271 0.85263 0.56139 0.0
Sc134 Sc 0.78026 0.87708 0.70838 0.0
O135 O 0.72138 0.84713 0.65224 0.0
C136 C 0.7073 0.90422 0.77585 0.0
C137 C 0.64136 0.87157 0.57679 0.0
C138 C 0.81547 0.95933 0.6056 0.0
C139 C 0.64186 0.74192 0.57712 0.0
C140 C 0.70816 0.77676 0.77629 0.0
C141 C 0.81601 0.82997 0.60619 0.0
O142 O 0.66771 0.87075 0.75118 0.0
O143 O 0.67838 0.87537 0.54792 0.0
O144 O 0.81582 0.94476 0.65863 0.0
O145 O 0.6277 0.74999 0.62724 0.0
O146 O 0.75067 0.81348 0.76485 0.0
O147 O 0.78881 0.83106 0.56444 0.0
O148 O 0.66839 0.76994 0.7515 0.0
O149 O 0.67862 0.77535 0.5481 0.0
O150 O 0.81644 0.84546 0.65896 0.0
O151 O 0.62718 0.84921 0.62684 0.0
O152 O 0.75002 0.91063 0.76451 0.0
O153 O 0.78861 0.93049 0.56395 0.0
Sc154 Sc 0.14025 0.81153 0.68801 0.0
Sc155 Sc 0.10022 0.85256 0.56182 0.0
Sc156 Sc 0.07709 0.87721 0.70867 0.0
O157 O 0.10592 0.84703 0.65269 0.0
C158 C 0.04846 0.77682 0.77673 0.0
C159 C 0.08 0.74165 0.57774 0.0
C160 C -0.00564 0.83024 0.60633 0.0
C161 C 0.21028 0.87097 0.57747 0.0
C162 C 0.17702 0.904 0.77632 0.0
C163 C 0.12439 0.95941 0.6059 0.0
O164 O 0.0814 0.76985 0.75214 0.0
O165 O 0.07695 0.77523 0.54859 0.0
O166 O 0.00941 0.84583 0.65907 0.0
O167 O 0.20196 0.84849 0.62748 0.0
O168 O 0.14078 0.91053 0.76493 0.0
O169 O 0.12228 0.93048 0.56429 0.0
O170 O 0.18308 0.87044 0.75171 0.0
O171 O 0.17723 0.87509 0.5486 0.0
O172 O 0.10946 0.94492 0.65893 0.0
O173 O 0.10204 0.74958 0.62798 0.0
O174 O 0.04282 0.81364 0.76515 0.0
O175 O 0.02264 0.83116 0.56467 0.0
Sc176 Sc 0.1404 0.30127 0.68816 0.0
Sc177 Sc 0.10035 0.22048 0.56149 0.0
Sc178 Sc 0.07631 0.17219 0.70805 0.0
O179 O 0.10576 0.23145 0.65242 0.0
C180 C 0.17623 0.24473 0.77633 0.0
C181 C 0.21056 0.31199 0.57776 0.0
C182 C 0.1238 0.13738 0.60542 0.0
C183 C 0.08078 0.31153 0.57769 0.0
C184 C 0.04815 0.24421 0.77631 0.0
C185 C -0.00592 0.13706 0.60526 0.0
O186 O 0.18271 0.28458 0.75191 0.0
O187 O 0.17743 0.27495 0.54866 0.0
O188 O 0.10846 0.13672 0.65828 0.0
O189 O 0.10277 0.32554 0.62801 0.0
O190 O 0.04223 0.20165 0.76454 0.0
O191 O 0.02267 0.16434 0.56378 0.0
O192 O 0.08139 0.28417 0.75202 0.0
O193 O 0.07745 0.27477 0.54848 0.0
O194 O 0.0088 0.13636 0.65811 0.0
O195 O 0.20229 0.32603 0.62791 0.0
O196 O 0.13976 0.20207 0.76467 0.0
O197 O 0.12217 0.16448 0.56387 0.0
C198 C 0.23022 -0.00663 0.90373 0.0
C199 C 0.27845 0.02584 0.88258 0.0
H200 H 0.1601 0.92836 0.88598 0.0
C201 C 0.29564 0.01235 0.83145 0.0
H202 H 0.2159 0.00235 0.94318 0.0
C203 C 0.26376 0.96916 0.79946 0.0
C204 C 0.21432 0.93952 0.81789 0.0
H205 H 0.33286 0.03632 0.81452 0.0
H206 H 0.27653 0.96117 0.75794 0.0
C207 C 0.1983 0.95087 0.87127 0.0
C208 C 0.95758 0.20598 0.90263 0.0
C209 C 0.92606 0.22325 0.88247 0.0
H210 H 0.02183 0.19982 0.88423 0.0
C211 C 0.94035 0.25511 0.83238 0.0
H212 H 0.94795 0.18169 0.94123 0.0
C213 C -0.01652 0.26636 0.8005 0.0
C214 C 0.01228 0.24529 0.81792 0.0
H215 H 0.91711 0.2695 0.81623 0.0
H216 H -0.00786 0.28824 0.75981 0.0
C217 C 1e-05 0.21649 0.87024 0.0
C218 C 0.73542 0.75637 0.87064 0.0
C219 C 0.70691 0.73979 0.81808 0.0
H220 H 0.76987 0.73908 0.94206 0.0
C221 C 0.68588 0.68984 0.80072 0.0
H222 H 0.75202 0.79493 0.88458 0.0
C223 C 0.69697 0.65791 0.83289 0.0
C224 C 0.72861 0.67553 0.88318 0.0
H225 H 0.6642 0.67659 0.75989 0.0
H226 H 0.68268 0.62021 0.81676 0.0
C227 C 0.74575 0.7244 0.90331 0.0
C228 C 0.00043 0.7566 0.87075 0.0
C229 C 0.01258 0.73992 0.81844 0.0
H230 H 0.94847 0.73944 0.94185 0.0
C231 C -0.01625 0.68994 0.80118 0.0
H232 H 0.02229 0.79518 0.88463 0.0
C233 C 0.94067 0.65807 0.83318 0.0
C234 C 0.92647 0.67577 0.88324 0.0
H235 H -0.00766 0.6766 0.76052 0.0
H236 H 0.91737 0.62034 0.81713 0.0
C237 C 0.95805 0.72469 0.90328 0.0
C238 C 0.19697 0.21769 0.87056 0.0
C239 C 0.21331 0.24607 0.81792 0.0
H240 H 0.21434 0.18311 0.94177 0.0
C241 C 0.263 0.26669 0.80012 0.0
H242 H 0.1586 0.20135 0.8848 0.0
C243 C 0.29486 0.25537 0.83198 0.0
C244 C 0.27744 0.22386 0.88238 0.0
H245 H 0.27605 0.28822 0.75917 0.0
H246 H 0.33233 0.26938 0.81555 0.0
C247 C 0.22887 0.2071 0.9029 0.0
C248 C 0.73304 0.95107 0.87082 0.0
C249 C 0.70553 0.9397 0.81754 0.0
H250 H 0.76683 0.00245 0.94284 0.0
C251 C 0.68541 0.96917 0.7994 0.0
H252 H 0.74896 0.92868 0.88532 0.0
C253 C 0.69652 0.01223 0.83158 0.0
C254 C 0.72732 0.02575 0.88261 0.0
H255 H 0.66452 0.96115 0.75797 0.0
H256 H 0.68303 0.0361 0.81487 0.0
C257 C 0.74341 -0.00657 0.90349 0.0
C258 C 0.93024 0.30258 0.1326 0.0
C259 C 0.88078 0.27297 0.15097 0.0
H260 H -0.00063 0.36968 0.14777 0.0
C261 C 0.86472 0.28434 0.20431 0.0
H262 H 0.94303 0.29458 0.0911 0.0
C263 C 0.89665 0.3268 0.23682 0.0
C264 C 0.94492 0.35924 0.21575 0.0
H265 H 0.82651 0.26186 0.21896 0.0
H266 H 0.88231 0.33579 0.27625 0.0
C267 C 0.96213 0.34574 0.16465 0.0
C268 C 0.60693 0.58848 0.16563 0.0
C269 C 0.59267 0.55668 0.21578 0.0
H270 H 0.65874 0.62162 0.09309 0.0
C271 C 0.62429 0.53956 0.23607 0.0
H272 H 0.58363 0.60277 0.14938 0.0
C273 C 0.66677 0.55015 0.20376 0.0
C274 C 0.679 0.57888 0.15138 0.0
H275 H 0.61468 0.51533 0.27472 0.0
H276 H 0.68866 0.53358 0.21783 0.0
C277 C 0.65011 0.59981 0.13382 0.0
C278 C 0.35239 0.02313 0.13425 0.0
C279 C 0.37349 0.0731 0.15156 0.0
H280 H 0.3491 0.95347 0.15034 0.0
C281 C 0.40203 0.08969 0.20409 0.0
H282 H 0.33068 0.00988 0.09344 0.0
C283 C 0.41233 0.0577 0.23678 0.0
C284 C 0.39512 0.00881 0.21669 0.0
H285 H 0.41868 0.12826 0.218 0.0
H286 H 0.43648 0.07239 0.27551 0.0
C287 C 0.36344 -0.00881 0.16643 0.0
C288 C 0.65023 0.02339 0.13416 0.0
C289 C 0.67907 0.07337 0.15143 0.0
H290 H 0.58388 0.95377 0.15016 0.0
C291 C 0.66693 0.09004 0.20376 0.0
H292 H 0.65881 0.01006 0.09349 0.0
C293 C 0.62458 0.05812 0.23631 0.0
C294 C 0.593 0.0092 0.2163 0.0
H295 H 0.68879 0.12862 0.21764 0.0
H296 H 0.61501 0.07286 0.2749 0.0
C297 C 0.60718 -0.00849 0.1662 0.0
C298 C 0.8955 0.54051 0.23642 0.0
C299 C 0.94409 0.5573 0.21592 0.0
H300 H 0.82523 0.53474 0.21827 0.0
C301 C 0.96152 0.58883 0.16554 0.0
H302 H 0.88096 0.51651 0.27526 0.0
C303 C 0.92966 0.60015 0.13367 0.0
C304 C 0.87996 0.57949 0.15142 0.0
H305 H -0.00099 0.60286 0.14913 0.0
H306 H 0.94273 0.62169 0.09273 0.0
C307 C 0.8636 0.5511 0.20405 0.0
C308 C 0.39949 0.28432 0.20435 0.0
C309 C 0.37198 0.27293 0.15107 0.0
H310 H 0.43332 0.33576 0.2763 0.0
C311 C 0.35188 0.30241 0.13287 0.0
H312 H 0.41538 0.26192 0.21888 0.0
C313 C 0.36303 0.34551 0.165 0.0
C314 C 0.39384 0.35906 0.21602 0.0
H315 H 0.33099 0.29437 0.09144 0.0
H316 H 0.34956 0.36939 0.14824 0.0
C317 C 0.4099 0.32672 0.23695 0.0
C318 C 0.62888 0.67884 0.49813 0.0
C319 C 0.61167 0.6925 0.54909 0.0
H320 H 0.60974 0.62762 0.42466 0.0
C321 C 0.56329 0.66029 0.56999 0.0
H322 H 0.66621 0.70262 0.4814 0.0
C323 C 0.53129 0.61788 0.53742 0.0
C324 C 0.54737 0.60637 0.48421 0.0
H325 H 0.54894 0.66941 0.6093 0.0
H326 H 0.49301 0.59558 0.55194 0.0
C327 C 0.59692 0.63574 0.46604 0.0
C328 C 0.31703 0.9331 0.4676 0.0
C329 C 0.34586 0.91206 0.48499 0.0
H330 H 0.2506 0.93614 0.48333 0.0
C331 C 0.33359 0.8832 0.53727 0.0
H332 H 0.32569 0.95502 0.42695 0.0
C333 C 0.29112 0.8726 0.56963 0.0
C334 C 0.25957 0.88984 0.54949 0.0
H335 H 0.35543 0.86655 0.55123 0.0
H336 H 0.28148 0.84827 0.60819 0.0
C337 C 0.27387 0.92176 0.49946 0.0
C338 C 0.07862 0.39061 0.57001 0.0
C339 C 0.06178 0.34186 0.54964 0.0
H340 H 0.08459 0.46105 0.55154 0.0
C341 C 0.03037 0.32431 0.49914 0.0
H342 H 0.10255 0.40523 0.60893 0.0
C343 C 0.01922 0.35621 0.46704 0.0
C344 C 0.03994 0.40607 0.48467 0.0
H345 H 0.01632 0.28669 0.48282 0.0
H346 H -0.00227 0.34304 0.42605 0.0
C347 C 0.06821 0.42255 0.5374 0.0
C348 C 0.29114 0.3916 0.56955 0.0
C349 C 0.25981 0.34256 0.54976 0.0
H350 H 0.3551 0.46223 0.55065 0.0
C351 C 0.27417 0.32485 0.49985 0.0
H352 H 0.28142 0.40635 0.60799 0.0
C353 C 0.31717 0.3568 0.46776 0.0
C354 C 0.34574 0.40687 0.48478 0.0
H355 H 0.25106 0.28702 0.48399 0.0
H356 H 0.32589 0.34342 0.42724 0.0
C357 C 0.33343 0.42358 0.53694 0.0
C358 C 0.59659 0.93328 0.46634 0.0
C359 C 0.54701 0.91296 0.4844 0.0
H360 H 0.66582 0.93568 0.48153 0.0
C361 C 0.53076 0.88484 0.53723 0.0
H362 H 0.60955 0.9546 0.42523 0.0
C363 C 0.56264 0.8742 0.56954 0.0
C364 C 0.61109 0.89064 0.54878 0.0
H365 H 0.49246 0.86872 0.55166 0.0
H366 H 0.54817 0.85041 0.60857 0.0
C367 C 0.62844 0.92191 0.49816 0.0
C368 C 0.01861 0.6356 0.46656 0.0
C369 C 0.03869 0.60608 0.48469 0.0
H370 H 0.01636 0.7026 0.482 0.0
C371 C 0.06625 0.61746 0.53793 0.0
H372 H -0.00231 0.62758 0.42516 0.0
C373 C 0.07672 0.65986 0.57056 0.0
C374 C 0.06067 0.69223 0.54969 0.0
H375 H 0.08213 0.59503 0.55242 0.0
H376 H 0.10017 0.66889 0.60988 0.0
C377 C 0.02982 0.6787 0.49871 0.0
C378 C 0.55087 0.16706 0.87735 0.0
C379 C 0.5188 0.14758 0.92677 0.0
H380 H 0.62281 0.18701 0.84222 0.0
C381 C 0.5288 0.1222 0.97169 0.0
H382 H 0.54375 0.18689 0.84233 0.0
C383 C 0.57351 0.12226 0.97163 0.0
C384 C 0.60875 0.1477 0.92664 0.0
H385 H 0.50416 0.1064 0.00984 0.0
H386 H 0.5825 0.10651 0.00973 0.0
C387 C 0.59597 0.16712 0.87728 0.0
C388 C 0.7868 0.40246 0.87654 0.0
C389 C 0.80658 0.43491 0.9257 0.0
H390 H 0.7668 0.33022 0.84182 0.0
C391 C 0.83258 0.42541 0.97027 0.0
H392 H 0.7665 0.40919 0.84179 0.0
C393 C 0.83277 0.38074 0.97029 0.0
C394 C 0.80695 0.34505 0.92574 0.0
H395 H 0.84862 0.45037 0.0082 0.0
H396 H 0.84894 0.37209 0.00824 0.0
C397 C 0.78699 0.3574 0.87655 0.0
C398 C 0.57309 0.42521 0.97071 0.0
C399 C 0.60842 0.43466 0.92597 0.0
H400 H 0.50353 0.372 0.00883 0.0
C401 C 0.5956 0.40221 0.87678 0.0
H402 H 0.58213 0.45015 0.00867 0.0
C403 C 0.55036 0.35723 0.87687 0.0
C404 C 0.51819 0.34492 0.92615 0.0
H405 H 0.62252 0.40891 0.84192 0.0
H406 H 0.54323 0.33005 0.84206 0.0
C407 C 0.52823 0.3806 0.97079 0.0
C408 C 0.26254 0.50047 0.21051 0.0
C409 C 0.27533 0.48103 0.25984 0.0
H410 H 0.2103 0.52021 0.17559 0.0
C411 C 0.24008 0.45551 0.30479 0.0
H412 H 0.28939 0.52041 0.17548 0.0
C413 C 0.19534 0.45539 0.30485 0.0
C414 C 0.18533 0.48079 0.25998 0.0
H415 H 0.24909 0.43975 0.34287 0.0
H416 H 0.1707 0.43953 0.34298 0.0
C417 C 0.21741 0.50034 0.21057 0.0
C418 C 0.45338 0.73579 0.20963 0.0
C419 C 0.47331 0.7683 0.25872 0.0
H420 H 0.43322 0.66349 0.17499 0.0
C421 C 0.4994 0.75883 0.30319 0.0
H422 H 0.433 0.7425 0.17496 0.0
C423 C 0.49954 0.71413 0.30321 0.0
C424 C 0.47357 0.67839 0.25876 0.0
H425 H 0.51555 0.78383 0.34107 0.0
H426 H 0.51577 0.7055 0.34111 0.0
C427 C 0.45352 0.69072 0.20964 0.0
C428 C 0.26219 0.73554 0.21036 0.0
C429 C 0.27509 0.76791 0.25964 0.0
H430 H 0.20975 0.66344 0.17554 0.0
C431 C 0.23984 0.75839 0.3045 0.0
H432 H 0.28904 0.7423 0.1754 0.0
C433 C 0.19497 0.71379 0.30458 0.0
C434 C 0.18484 0.67818 0.25982 0.0
H435 H 0.24893 0.78328 0.34252 0.0
H436 H 0.17033 0.70513 0.34269 0.0
C437 C 0.21694 0.69056 0.21045 0.0
C438 C 0.90699 0.78889 0.63863 0.0
C439 C 0.94224 0.81426 0.59363 0.0
H440 H 0.83762 0.77304 0.67674 0.0
C441 C 0.92945 0.83358 0.54418 0.0
H442 H 0.91598 0.7732 0.6768 0.0
C443 C 0.88434 0.83349 0.54413 0.0
C444 C 0.85225 0.81407 0.59355 0.0
H445 H 0.9563 0.85341 0.5091 0.0
H446 H 0.87723 0.85326 0.50903 0.0
C447 C 0.86226 0.78879 0.63859 0.0
C448 C 0.12053 0.02391 0.54341 0.0
C449 C 0.14042 0.01158 0.59267 0.0
H450 H 0.10009 0.07568 0.50845 0.0
C451 C 0.16621 0.0473 0.63721 0.0
H452 H 0.10038 -0.0033 0.50868 0.0
C453 C 0.16605 0.09199 0.63707 0.0
C454 C 0.14011 0.10147 0.5924 0.0
H455 H 0.18234 0.03867 0.67522 0.0
H456 H 0.18206 0.11696 0.67499 0.0
C457 C 0.12037 0.06898 0.54327 0.0
C458 C 0.88391 0.02367 0.54322 0.0
C459 C 0.85168 0.01144 0.59243 0.0
H460 H 0.95611 0.07529 0.50836 0.0
C461 C 0.86166 0.04718 0.63697 0.0
H462 H 0.87682 -0.00356 0.50851 0.0
C463 C 0.90652 0.09178 0.63688 0.0
C464 C 0.94191 0.10116 0.59226 0.0
H465 H 0.83691 0.03862 0.67493 0.0
H466 H 0.91551 0.11678 0.67479 0.0
C467 C 0.92916 0.06866 0.54314 0.0
loop_
_geom_bond_atom_site_label_1
_geom_bond_atom_site_label_2
_geom_bond_distance
_geom_bond_site_symmetry_2
_ccdc_geom_bond_type
Sc0 O3 2.025 . S
Sc0 O10 2.105 . S
Sc0 O13 2.105 1_554 S
Sc0 O16 2.105 . S
Sc0 O19 2.105 1_554 S
Sc1 O3 2.025 1_556 S
Sc1 O11 2.105 . S
Sc1 O15 2.105 . S
Sc1 O17 2.105 . S
Sc1 O21 2.105 . S
Sc2 O3 2.025 . S
Sc2 O12 2.105 . S
Sc2 O14 2.105 . S
Sc2 O18 2.105 . S
Sc2 O20 2.105 . S
O3 Sc0 2.025 . S
O3 Sc1 2.025 1_554 S
O3 Sc2 2.025 . S
C4 O10 1.268 . S
C4 O20 1.268 . S
C5 O11 1.268 . S
C5 O19 1.268 . S
C6 O12 1.268 1_556 S
C6 O21 1.268 . S
C7 O13 1.268 . S
C7 O17 1.268 . S
C8 O14 1.268 . S
C8 O16 1.268 . S
C9 O15 1.268 . S
C9 O18 1.268 1_556 S
O10 Sc0 2.105 . S
O10 C4 1.268 . S
O11 Sc1 2.105 . S
O11 C5 1.268 . S
O12 Sc2 2.105 . S
O12 C6 1.268 1_554 S
O13 Sc0 2.105 1_556 S
O13 C7 1.268 . S
O14 Sc2 2.105 . S
O14 C8 1.268 . S
O15 Sc1 2.105 . S
O15 C9 1.268 . S
O16 Sc0 2.105 . S
O16 C8 1.268 . S
O17 Sc1 2.105 . S
O17 C7 1.268 . S
O18 Sc2 2.105 . S
O18 C9 1.268 1_554 S
O19 Sc0 2.105 1_556 S
O19 C5 1.268 . S
O20 Sc2 2.105 . S
O20 C4 1.268 . S
O21 Sc1 2.105 . S
O21 C6 1.268 . S
Sc22 O25 2.025 . S
Sc22 O32 2.105 . S
Sc22 O35 2.105 1_554 S
Sc22 O38 2.105 . S
Sc22 O41 2.105 1_554 S
Sc23 O25 2.025 1_556 S
Sc23 O33 2.105 . S
Sc23 O37 2.105 . S
Sc23 O39 2.105 . S
Sc23 O43 2.105 . S
Sc24 O25 2.025 . S
Sc24 O34 2.105 . S
Sc24 O36 2.105 . S
Sc24 O40 2.105 . S
Sc24 O42 2.105 . S
O25 Sc22 2.025 . S
O25 Sc23 2.025 1_554 S
O25 Sc24 2.025 . S
C26 O32 1.268 . S
C26 O42 1.268 . S
C27 O33 1.268 . S
C27 O41 1.268 . S
C28 O34 1.268 1_556 S
C28 O43 1.268 . S
C29 O35 1.268 . S
C29 O39 1.268 . S
C30 O36 1.268 . S
C30 O38 1.268 . S
C31 O37 1.268 . S
C31 O40 1.268 1_556 S
O32 Sc22 2.105 . S
O32 C26 1.268 . S
O33 Sc23 2.105 . S
O33 C27 1.268 . S
O34 Sc24 2.105 . S
O34 C28 1.268 1_554 S
O35 Sc22 2.105 1_556 S
O35 C29 1.268 . S
O36 Sc24 2.105 . S
O36 C30 1.268 . S
O37 Sc23 2.105 . S
O37 C31 1.268 . S
O38 Sc22 2.105 . S
O38 C30 1.268 . S
O39 Sc23 2.105 . S
O39 C29 1.268 . S
O40 Sc24 2.105 . S
O40 C31 1.268 1_554 S
O41 Sc22 2.105 1_556 S
O41 C27 1.268 . S
O42 Sc24 2.105 . S
O42 C26 1.268 . S
O43 Sc23 2.105 . S
O43 C28 1.268 . S
Sc44 O47 2.025 . S
Sc44 O54 2.105 . S
Sc44 O57 2.105 1_554 S
Sc44 O60 2.105 . S
Sc44 O63 2.105 1_554 S
Sc45 O47 2.025 1_556 S
Sc45 O55 2.105 . S
Sc45 O59 2.105 . S
Sc45 O61 2.105 . S
Sc45 O65 2.105 . S
Sc46 O47 2.025 . S
Sc46 O56 2.105 . S
Sc46 O58 2.105 . S
Sc46 O62 2.105 . S
Sc46 O64 2.105 . S
O47 Sc44 2.025 . S
O47 Sc45 2.025 1_554 S
O47 Sc46 2.025 . S
C48 O54 1.268 . S
C48 O64 1.268 . S
C49 O55 1.268 . S
C49 O63 1.268 . S
C50 O56 1.268 1_556 S
C50 O65 1.268 . S
C51 O57 1.268 . S
C51 O61 1.268 . S
C52 O58 1.268 . S
C52 O60 1.268 . S
C53 O59 1.268 . S
C53 O62 1.268 1_556 S
O54 Sc44 2.105 . S
O54 C48 1.268 . S
O55 Sc45 2.105 . S
O55 C49 1.268 . S
O56 Sc46 2.105 . S
O56 C50 1.268 1_554 S
O57 Sc44 2.105 1_556 S
O57 C51 1.268 . S
O58 Sc46 2.105 . S
O58 C52 1.268 . S
O59 Sc45 2.105 . S
O59 C53 1.268 . S
O60 Sc44 2.105 . S
O60 C52 1.268 . S
O61 Sc45 2.105 . S
O61 C51 1.268 . S
O62 Sc46 2.105 . S
O62 C53 1.268 1_554 S
O63 Sc44 2.105 1_556 S
O63 C49 1.268 . S
O64 Sc46 2.105 . S
O64 C48 1.268 . S
O65 Sc45 2.105 . S
O65 C50 1.268 . S
Sc66 O69 2.025 . S
Sc66 O76 2.105 . S
Sc66 O79 2.105 1_455 S
Sc66 O82 2.105 . S
Sc66 O85 2.105 1_455 S
Sc67 O69 2.025 . S
Sc67 O77 2.105 . S
Sc67 O81 2.105 . S
Sc67 O83 2.105 . S
Sc67 O87 2.105 . S
Sc68 O69 2.025 . S
Sc68 O78 2.105 . S
Sc68 O80 2.105 . S
Sc68 O84 2.105 . S
Sc68 O86 2.105 . S
O69 Sc66 2.025 . S
O69 Sc67 2.025 . S
O69 Sc68 2.025 . S
C70 O76 1.268 . S
C70 O86 1.268 . S
C71 O77 1.268 . S
C71 O85 1.268 1_455 S
C72 O78 1.268 . S
C72 O87 1.268 . S
C73 O79 1.268 1_455 S
C73 O83 1.268 . S
C74 O80 1.268 . S
C74 O82 1.268 . S
C75 O81 1.268 . S
C75 O84 1.268 . S
O76 Sc66 2.105 . S
O76 C70 1.268 . S
O77 Sc67 2.105 . S
O77 C71 1.268 . S
O78 Sc68 2.105 . S
O78 C72 1.268 . S
O79 Sc66 2.105 1_655 S
O79 C73 1.268 1_655 S
O80 Sc68 2.105 . S
O80 C74 1.268 . S
O81 Sc67 2.105 . S
O81 C75 1.268 . S
O82 Sc66 2.105 . S
O82 C74 1.268 . S
O83 Sc67 2.105 . S
O83 C73 1.268 . S
O84 Sc68 2.105 . S
O84 C75 1.268 . S
O85 Sc66 2.105 1_655 S
O85 C71 1.268 1_655 S
O86 Sc68 2.105 . S
O86 C70 1.268 . S
O87 Sc67 2.105 . S
O87 C72 1.268 . S
Sc88 O91 2.025 . S
Sc88 O98 2.105 . S
Sc88 O101 2.105 . S
Sc88 O104 2.105 . S
Sc88 O107 2.105 . S
Sc89 O91 2.025 . S
Sc89 O99 2.105 . S
Sc89 O103 2.105 . S
Sc89 O105 2.105 . S
Sc89 O109 2.105 . S
Sc90 O91 2.025 . S
Sc90 O100 2.105 . S
Sc90 O102 2.105 . S
Sc90 O106 2.105 . S
Sc90 O108 2.105 . S
O91 Sc88 2.025 . S
O91 Sc89 2.025 . S
O91 Sc90 2.025 . S
C92 O98 1.268 . S
C92 O108 1.268 . S
C93 O99 1.268 . S
C93 O107 1.268 . S
C94 O100 1.268 . S
C94 O109 1.268 . S
C95 O101 1.268 . S
C95 O105 1.268 . S
C96 O102 1.268 . S
C96 O104 1.268 . S
C97 O103 1.268 . S
C97 O106 1.268 . S
O98 Sc88 2.105 . S
O98 C92 1.268 . S
O99 Sc89 2.105 . S
O99 C93 1.268 . S
O100 Sc90 2.105 . S
O100 C94 1.268 . S
O101 Sc88 2.105 . S
O101 C95 1.268 . S
O102 Sc90 2.105 . S
O102 C96 1.268 . S
O103 Sc89 2.105 . S
O103 C97 1.268 . S
O104 Sc88 2.105 . S
O104 C96 1.268 . S
O105 Sc89 2.105 . S
O105 C95 1.268 . S
O106 Sc90 2.105 . S
O106 C97 1.268 . S
O107 Sc88 2.105 . S
O107 C93 1.268 . S
O108 Sc90 2.105 . S
O108 C92 1.268 . S
O109 Sc89 2.105 . S
O109 C94 1.268 . S
Sc110 O113 2.025 . S
Sc110 O120 2.105 . S
Sc110 O123 2.105 1_565 S
Sc110 O126 2.105 . S
Sc110 O129 2.105 1_565 S
Sc111 O113 2.025 . S
Sc111 O121 2.105 . S
Sc111 O125 2.105 . S
Sc111 O127 2.105 . S
Sc111 O131 2.105 . S
Sc112 O113 2.025 . S
Sc112 O122 2.105 . S
Sc112 O124 2.105 . S
Sc112 O128 2.105 . S
Sc112 O130 2.105 . S
O113 Sc110 2.025 . S
O113 Sc111 2.025 . S
O113 Sc112 2.025 . S
C114 O120 1.268 . S
C114 O130 1.268 . S
C115 O121 1.268 . S
C115 O129 1.268 1_565 S
C116 O122 1.268 . S
C116 O131 1.268 . S
C117 O123 1.268 1_565 S
C117 O127 1.268 . S
C118 O124 1.268 . S
C118 O126 1.268 . S
C119 O125 1.268 . S
C119 O128 1.268 . S
O120 Sc110 2.105 . S
O120 C114 1.268 . S
O121 Sc111 2.105 . S
O121 C115 1.268 . S
O122 Sc112 2.105 . S
O122 C116 1.268 . S
O123 Sc110 2.105 1_545 S
O123 C117 1.268 1_545 S
O124 Sc112 2.105 . S
O124 C118 1.268 . S
O125 Sc111 2.105 . S
O125 C119 1.268 . S
O126 Sc110 2.105 . S
O126 C118 1.268 . S
O127 Sc111 2.105 . S
O127 C117 1.268 . S
O128 Sc112 2.105 . S
O128 C119 1.268 . S
O129 Sc110 2.105 1_545 S
O129 C115 1.268 1_545 S
O130 Sc112 2.105 . S
O130 C114 1.268 . S
O131 Sc111 2.105 . S
O131 C116 1.268 . S
Sc132 O135 2.025 . S
Sc132 O142 2.105 . S
Sc132 O145 2.105 . S
Sc132 O148 2.105 . S
Sc132 O151 2.105 . S
Sc133 O135 2.025 . S
Sc133 O143 2.105 . S
Sc133 O147 2.105 . S
Sc133 O149 2.105 . S
Sc133 O153 2.105 . S
Sc134 O135 2.025 . S
Sc134 O144 2.105 . S
Sc134 O146 2.105 . S
Sc134 O150 2.105 . S
Sc134 O152 2.105 . S
O135 Sc132 2.025 . S
O135 Sc133 2.025 . S
O135 Sc134 2.025 . S
C136 O142 1.268 . S
C136 O152 1.268 . S
C137 O143 1.268 . S
C137 O151 1.268 . S
C138 O144 1.268 . S
C138 O153 1.268 . S
C139 O145 1.268 . S
C139 O149 1.268 . S
C140 O146 1.268 . S
C140 O148 1.268 . S
C141 O147 1.268 . S
C141 O150 1.268 . S
O142 Sc132 2.105 . S
O142 C136 1.268 . S
O143 Sc133 2.105 . S
O143 C137 1.268 . S
O144 Sc134 2.105 . S
O144 C138 1.268 . S
O145 Sc132 2.105 . S
O145 C139 1.268 . S
O146 Sc134 2.105 . S
O146 C140 1.268 . S
O147 Sc133 2.105 . S
O147 C141 1.268 . S
O148 Sc132 2.105 . S
O148 C140 1.268 . S
O149 Sc133 2.105 . S
O149 C139 1.268 . S
O150 Sc134 2.105 . S
O150 C141 1.268 . S
O151 Sc132 2.105 . S
O151 C137 1.268 . S
O152 Sc134 2.105 . S
O152 C136 1.268 . S
O153 Sc133 2.105 . S
O153 C138 1.268 . S
Sc154 O157 2.025 . S
Sc154 O164 2.105 . S
Sc154 O167 2.105 . S
Sc154 O170 2.105 . S
Sc154 O173 2.105 . S
Sc155 O157 2.025 . S
Sc155 O165 2.105 . S
Sc155 O169 2.105 . S
Sc155 O171 2.105 . S
Sc155 O175 2.105 . S
Sc156 O157 2.025 . S
Sc156 O166 2.105 . S
Sc156 O168 2.105 . S
Sc156 O172 2.105 . S
Sc156 O174 2.105 . S
O157 Sc154 2.025 . S
O157 Sc155 2.025 . S
O157 Sc156 2.025 . S
C158 O164 1.268 . S
C158 O174 1.268 . S
C159 O165 1.268 . S
C159 O173 1.268 . S
C160 O166 1.268 . S
C160 O175 1.268 . S
C161 O167 1.268 . S
C161 O171 1.268 . S
C162 O168 1.268 . S
C162 O170 1.268 . S
C163 O169 1.268 . S
C163 O172 1.268 . S
O164 Sc154 2.105 . S
O164 C158 1.268 . S
O165 Sc155 2.105 . S
O165 C159 1.268 . S
O166 Sc156 2.105 . S
O166 C160 1.268 . S
O167 Sc154 2.105 . S
O167 C161 1.268 . S
O168 Sc156 2.105 . S
O168 C162 1.268 . S
O169 Sc155 2.105 . S
O169 C163 1.268 . S
O170 Sc154 2.105 . S
O170 C162 1.268 . S
O171 Sc155 2.105 . S
O171 C161 1.268 . S
O172 Sc156 2.105 . S
O172 C163 1.268 . S
O173 Sc154 2.105 . S
O173 C159 1.268 . S
O174 Sc156 2.105 . S
O174 C158 1.268 . S
O175 Sc155 2.105 . S
O175 C160 1.268 . S
Sc176 O179 2.025 . S
Sc176 O186 2.105 . S
Sc176 O189 2.105 . S
Sc176 O192 2.105 . S
Sc176 O195 2.105 . S
Sc177 O179 2.025 . S
Sc177 O187 2.105 . S
Sc177 O191 2.105 . S
Sc177 O193 2.105 . S
Sc177 O197 2.105 . S
Sc178 O179 2.025 . S
Sc178 O188 2.105 . S
Sc178 O190 2.105 . S
Sc178 O194 2.105 . S
Sc178 O196 2.105 . S
O179 Sc176 2.025 . S
O179 Sc177 2.025 . S
O179 Sc178 2.025 . S
C180 O186 1.268 . S
C180 O196 1.268 . S
C181 O187 1.268 . S
C181 O195 1.268 . S
C182 O188 1.268 . S
C182 O197 1.268 . S
C183 O189 1.268 . S
C183 O193 1.268 . S
C184 O190 1.268 . S
C184 O192 1.268 . S
C185 O191 1.268 . S
C185 O194 1.268 . S
O186 Sc176 2.105 . S
O186 C180 1.268 . S
O187 Sc177 2.105 . S
O187 C181 1.268 . S
O188 Sc178 2.105 . S
O188 C182 1.268 . S
O189 Sc176 2.105 . S
O189 C183 1.268 . S
O190 Sc178 2.105 . S
O190 C184 1.268 . S
O191 Sc177 2.105 . S
O191 C185 1.268 . S
O192 Sc176 2.105 . S
O192 C184 1.268 . S
O193 Sc177 2.105 . S
O193 C183 1.268 . S
O194 Sc178 2.105 . S
O194 C185 1.268 . S
O195 Sc176 2.105 . S
O195 C181 1.268 . S
O196 Sc178 2.105 . S
O196 C180 1.268 . S
O197 Sc177 2.105 . S
O197 C182 1.268 . S
C198 C199 1.387 . S
C198 H202 0.950 . S
C198 C207 1.390 1_545 S
C199 C198 1.387 . S
C199 C201 1.387 . S
H200 C207 0.950 . S
C201 C199 1.387 . S
C201 C203 1.389 1_545 S
C201 H205 0.950 . S
H202 C198 0.950 . S
C203 C201 1.389 1_565 S
C203 C204 1.388 . S
C203 H206 0.950 . S
C204 C203 1.388 . S
C204 C207 1.387 . S
H205 C201 0.950 . S
H206 C203 0.950 . S
C207 C198 1.390 1_565 S
C207 H200 0.950 . S
C207 C204 1.387 . S
C208 C209 1.387 . S
C208 H212 0.950 1_655 S
C208 C217 1.390 1_655 S
C209 C208 1.387 . S
C209 C211 1.387 . S
H210 C217 0.950 . S
C211 C209 1.387 . S
C211 C213 1.390 . S
C211 H215 0.950 . S
H212 C208 0.950 1_455 S
C213 C211 1.390 . S
C213 C214 1.387 1_655 S
C213 H216 0.950 . S
C214 C213 1.387 1_455 S
C214 C217 1.387 . S
H215 C211 0.950 . S
H216 C213 0.950 . S
C217 C208 1.390 1_455 S
C217 H210 0.950 . S
C217 C214 1.387 . S
C218 C219 1.387 . S
C218 H222 0.950 . S
C218 C227 1.390 . S
C219 C218 1.387 . S
C219 C221 1.387 . S
H220 C227 0.950 . S
C221 C219 1.387 . S
C221 C223 1.390 . S
C221 H225 0.950 . S
H222 C218 0.950 . S
C223 C221 1.390 . S
C223 C224 1.387 . S
C223 H226 0.950 . S
C224 C223 1.387 . S
C224 C227 1.387 . S
H225 C221 0.950 . S
H226 C223 0.950 . S
C227 C218 1.390 . S
C227 H220 0.950 . S
C227 C224 1.387 . S
C228 C229 1.387 . S
C228 H232 0.950 . S
C228 C237 1.390 1_455 S
C229 C228 1.387 . S
C229 C231 1.387 1_455 S
H230 C237 0.951 . S
C231 C229 1.387 1_655 S
C231 C233 1.390 . S
C231 H235 0.950 . S
H232 C228 0.950 . S
C233 C231 1.390 . S
C233 C234 1.387 . S
C233 H236 0.950 . S
C234 C233 1.387 . S
C234 C237 1.387 . S
H235 C231 0.950 . S
H236 C233 0.950 . S
C237 C228 1.390 1_655 S
C237 H230 0.951 . S
C237 C234 1.387 . S
C238 C239 1.387 . S
C238 H242 0.950 . S
C238 C247 1.390 . S
C239 C238 1.387 . S
C239 C241 1.387 . S
H240 C247 0.950 . S
C241 C239 1.387 . S
C241 C243 1.390 . S
C241 H245 0.950 . S
H242 C238 0.950 . S
C243 C241 1.390 . S
C243 C244 1.387 . S
C243 H246 0.950 . S
C244 C243 1.387 . S
C244 C247 1.387 . S
H245 C241 0.950 . S
H246 C243 0.950 . S
C247 C238 1.390 . S
C247 H240 0.950 . S
C247 C244 1.387 . S
C248 C249 1.387 . S
C248 H252 0.950 . S
C248 C257 1.369 1_565 S
C249 C248 1.387 . S
C249 C251 1.387 1_565 S
H250 C257 0.962 1_565 S
C251 C249 1.387 1_545 S
C251 C253 1.390 . S
C251 H255 0.950 . S
H252 C248 0.950 . S
C253 C251 1.390 . S
C253 C254 1.387 . S
C253 H256 0.950 . S
C254 C253 1.387 . S
C254 C257 1.402 . S
H255 C251 0.950 . S
H256 C253 0.950 . S
C257 C248 1.369 1_545 S
C257 H250 0.962 1_545 S
C257 C254 1.402 . S
C258 C259 1.387 . S
C258 H262 0.950 . S
C258 C267 1.390 . S
C259 C258 1.387 . S
C259 C261 1.387 . S
H260 C267 0.950 1_455 S
C261 C259 1.387 . S
C261 C263 1.390 . S
C261 H265 0.950 . S
H262 C258 0.950 . S
C263 C261 1.390 . S
C263 C264 1.387 . S
C263 H266 0.950 . S
C264 C263 1.387 . S
C264 C267 1.387 . S
H265 C261 0.950 . S
H266 C263 0.950 . S
C267 C258 1.390 . S
C267 H260 0.950 1_655 S
C267 C264 1.387 . S
C268 C269 1.387 . S
C268 H272 0.950 . S
C268 C277 1.390 . S
C269 C268 1.387 . S
C269 C271 1.387 . S
H270 C277 0.950 . S
C271 C269 1.387 . S
C271 C273 1.390 . S
C271 H275 0.950 . S
H272 C268 0.950 . S
C273 C271 1.390 . S
C273 C274 1.387 . S
C273 H276 0.950 . S
C274 C273 1.387 . S
C274 C277 1.387 . S
H275 C271 0.950 . S
H276 C273 0.950 . S
C277 C268 1.390 . S
C277 H270 0.950 . S
C277 C274 1.387 . S
C278 C279 1.387 . S
C278 H282 0.950 . S
C278 C287 1.390 1_545 S
C279 C278 1.387 . S
C279 C281 1.387 . S
H280 C287 0.950 . S
C281 C279 1.387 . S
C281 C283 1.390 . S
C281 H285 0.950 . S
H282 C278 0.950 . S
C283 C281 1.390 . S
C283 C284 1.387 . S
C283 H286 0.950 . S
C284 C283 1.387 . S
C284 C287 1.387 1_545 S
H285 C281 0.950 . S
H286 C283 0.950 . S
C287 C278 1.390 1_565 S
C287 H280 0.950 . S
C287 C284 1.387 1_565 S
C288 C289 1.387 . S
C288 H292 0.950 . S
C288 C297 1.390 . S
C289 C288 1.387 . S
C289 C291 1.387 . S
H290 C297 0.950 . S
C291 C289 1.387 . S
C291 C293 1.390 . S
C291 H295 0.950 . S
H292 C288 0.950 . S
C293 C291 1.390 . S
C293 C294 1.387 . S
C293 H296 0.950 1_545 S
C294 C293 1.387 . S
C294 C297 1.387 . S
H295 C291 0.950 . S
H296 C293 0.950 1_565 S
C297 C288 1.390 . S
C297 H290 0.950 . S
C297 C294 1.387 . S
C298 C299 1.387 . S
C298 H302 0.950 1_655 S
C298 C307 1.390 . S
C299 C298 1.387 . S
C299 C301 1.387 . S
H300 C307 0.950 . S
C301 C299 1.387 . S
C301 C303 1.390 . S
C301 H305 0.950 . S
H302 C298 0.950 1_455 S
C303 C301 1.390 . S
C303 C304 1.387 . S
C303 H306 0.950 . S
C304 C303 1.387 . S
C304 C307 1.387 . S
H305 C301 0.950 . S
H306 C303 0.950 . S
C307 C298 1.390 . S
C307 H300 0.950 . S
C307 C304 1.387 . S
C308 C309 1.387 . S
C308 H312 0.950 . S
C308 C317 1.390 . S
C309 C308 1.387 . S
C309 C311 1.387 . S
H310 C317 0.950 . S
C311 C309 1.387 . S
C311 C313 1.390 . S
C311 H315 0.950 . S
H312 C308 0.950 . S
C313 C311 1.390 . S
C313 C314 1.387 . S
C313 H316 0.950 . S
C314 C313 1.387 . S
C314 C317 1.387 . S
H315 C311 0.950 . S
H316 C313 0.950 . S
C317 C308 1.390 . S
C317 H310 0.950 . S
C317 C314 1.387 . S
C318 C319 1.387 . S
C318 H322 0.950 . S
C318 C327 1.390 . S
C319 C318 1.387 . S
C319 C321 1.387 . S
H320 C327 0.950 . S
C321 C319 1.387 . S
C321 C323 1.390 . S
C321 H325 0.950 . S
H322 C318 0.950 . S
C323 C321 1.390 . S
C323 C324 1.387 . S
C323 H326 0.950 . S
C324 C323 1.387 . S
C324 C327 1.387 . S
H325 C321 0.950 . S
H326 C323 0.950 . S
C327 C318 1.390 . S
C327 H320 0.950 . S
C327 C324 1.387 . S
C328 C329 1.387 . S
C328 H332 0.950 1_565 S
C328 C337 1.390 . S
C329 C328 1.387 . S
C329 C331 1.387 . S
H330 C337 0.950 . S
C331 C329 1.387 . S
C331 C333 1.390 . S
C331 H335 0.950 . S
H332 C328 0.950 1_545 S
C333 C331 1.390 . S
C333 C334 1.387 . S
C333 H336 0.950 . S
C334 C333 1.387 . S
C334 C337 1.387 . S
H335 C331 0.950 . S
H336 C333 0.950 . S
C337 C328 1.390 . S
C337 H330 0.950 . S
C337 C334 1.387 . S
C338 C339 1.387 . S
C338 H342 0.950 . S
C338 C347 1.390 . S
C339 C338 1.387 . S
C339 C341 1.387 . S
H340 C347 0.950 . S
C341 C339 1.387 . S
C341 C343 1.390 . S
C341 H345 0.950 . S
H342 C338 0.950 . S
C343 C341 1.390 . S
C343 C344 1.387 . S
C343 H346 0.950 . S
C344 C343 1.387 . S
C344 C347 1.387 . S
H345 C341 0.950 . S
H346 C343 0.950 . S
C347 C338 1.390 . S
C347 H340 0.950 . S
C347 C344 1.387 . S
C348 C349 1.387 . S
C348 H352 0.950 . S
C348 C357 1.390 . S
C349 C348 1.387 . S
C349 C351 1.387 . S
H350 C357 0.950 . S
C351 C349 1.387 . S
C351 C353 1.390 . S
C351 H355 0.950 . S
H352 C348 0.950 . S
C353 C351 1.390 . S
C353 C354 1.387 . S
C353 H356 0.950 . S
C354 C353 1.387 . S
C354 C357 1.387 . S
H355 C351 0.950 . S
H356 C353 0.950 . S
C357 C348 1.390 . S
C357 H350 0.950 . S
C357 C354 1.387 . S
C358 C359 1.387 . S
C358 H362 0.950 . S
C358 C367 1.390 . S
C359 C358 1.387 . S
C359 C361 1.387 . S
H360 C367 0.950 . S
C361 C359 1.387 . S
C361 C363 1.390 . S
C361 H365 0.950 . S
H362 C358 0.950 . S
C363 C361 1.390 . S
C363 C364 1.387 . S
C363 H366 0.950 . S
C364 C363 1.387 . S
C364 C367 1.387 . S
H365 C361 0.950 . S
H366 C363 0.950 . S
C367 C358 1.390 . S
C367 H360 0.950 . S
C367 C364 1.387 . S
C368 C369 1.387 . S
C368 H372 0.950 . S
C368 C377 1.390 . S
C369 C368 1.387 . S
C369 C371 1.387 . S
H370 C377 0.950 . S
C371 C369 1.387 . S
C371 C373 1.390 . S
C371 H375 0.950 . S
H372 C368 0.950 . S
C373 C371 1.390 . S
C373 C374 1.387 . S
C373 H376 0.950 . S
C374 C373 1.387 . S
C374 C377 1.387 . S
H375 C371 0.950 . S
H376 C373 0.950 . S
C377 C368 1.390 . S
C377 H370 0.950 . S
C377 C374 1.387 . S
C378 C379 1.387 . S
C378 H382 0.950 . S
C378 C387 1.390 . S
C379 C378 1.387 . S
C379 C381 1.387 . S
H380 C387 0.950 . S
C381 C379 1.387 . S
C381 C383 1.390 . S
C381 H385 0.950 . S
H382 C378 0.950 . S
C383 C381 1.390 . S
C383 C384 1.387 . S
C383 H386 0.950 . S
C384 C383 1.387 . S
C384 C387 1.387 . S
H385 C381 0.950 . S
H386 C383 0.950 . S
C387 C378 1.390 . S
C387 H380 0.950 . S
C387 C384 1.387 . S
C388 C389 1.387 . S
C388 H392 0.950 . S
C388 C397 1.390 . S
C389 C388 1.387 . S
C389 C391 1.387 1_556 S
H390 C397 0.950 . S
C391 C389 1.387 1_554 S
C391 C393 1.390 . S
C391 H395 0.950 . S
H392 C388 0.950 . S
C393 C391 1.390 . S
C393 C394 1.387 1_554 S
C393 H396 0.950 . S
C394 C393 1.387 1_556 S
C394 C397 1.387 . S
H395 C391 0.950 . S
H396 C393 0.950 . S
C397 C388 1.390 . S
C397 H390 0.950 . S
C397 C394 1.387 . S
C398 C399 1.387 1_554 S
C398 H402 0.950 . S
C398 C407 1.390 . S
C399 C398 1.387 1_556 S
C399 C401 1.387 . S
H400 C407 0.950 . S
C401 C399 1.387 . S
C401 C403 1.390 . S
C401 H405 0.950 . S
H402 C398 0.950 . S
C403 C401 1.390 . S
C403 C404 1.387 . S
C403 H406 0.950 . S
C404 C403 1.387 . S
C404 C407 1.387 1_556 S
H405 C401 0.950 . S
H406 C403 0.950 . S
C407 C398 1.390 . S
C407 H400 0.950 . S
C407 C404 1.387 1_554 S
C408 C409 1.387 . S
C408 H412 0.950 . S
C408 C417 1.390 . S
C409 C408 1.387 . S
C409 C411 1.387 . S
H410 C417 0.950 . S
C411 C409 1.387 . S
C411 C413 1.390 . S
C411 H415 0.950 . S
H412 C408 0.950 . S
C413 C411 1.390 . S
C413 C414 1.387 . S
C413 H416 0.950 . S
C414 C413 1.387 . S
C414 C417 1.387 . S
H415 C411 0.950 . S
H416 C413 0.950 . S
C417 C408 1.390 . S
C417 H410 0.950 . S
C417 C414 1.387 . S
C418 C419 1.387 . S
C418 H422 0.950 . S
C418 C427 1.390 . S
C419 C418 1.387 . S
C419 C421 1.387 . S
H420 C427 0.950 . S
C421 C419 1.387 . S
C421 C423 1.390 . S
C421 H425 0.950 . S
H422 C418 0.950 . S
C423 C421 1.390 . S
C423 C424 1.387 . S
C423 H426 0.950 . S
C424 C423 1.387 . S
C424 C427 1.387 . S
H425 C421 0.950 . S
H426 C423 0.950 . S
C427 C418 1.390 . S
C427 H420 0.950 . S
C427 C424 1.387 . S
C428 C429 1.387 . S
C428 H432 0.950 . S
C428 C437 1.390 . S
C429 C428 1.387 . S
C429 C431 1.387 . S
H430 C437 0.950 . S
C431 C429 1.387 . S
C431 C433 1.390 . S
C431 H435 0.950 . S
H432 C428 0.950 . S
C433 C431 1.390 . S
C433 C434 1.387 . S
C433 H436 0.950 . S
C434 C433 1.387 . S
C434 C437 1.387 . S
H435 C431 0.950 . S
H436 C433 0.950 . S
C437 C428 1.390 . S
C437 H430 0.950 . S
C437 C434 1.387 . S
C438 C439 1.387 . S
C438 H442 0.950 . S
C438 C447 1.390 . S
C439 C438 1.387 . S
C439 C441 1.387 . S
H440 C447 0.950 . S
C441 C439 1.387 . S
C441 C443 1.390 . S
C441 H445 0.950 . S
H442 C438 0.950 . S
C443 C441 1.390 . S
C443 C444 1.387 . S
C443 H446 0.950 . S
C444 C443 1.387 . S
C444 C447 1.387 . S
H445 C441 0.950 . S
H446 C443 0.950 . S
C447 C438 1.390 . S
C447 H440 0.950 . S
C447 C444 1.387 . S
C448 C449 1.387 . S
C448 H452 0.950 . S
C448 C457 1.390 . S
C449 C448 1.387 . S
C449 C451 1.387 . S
H450 C457 0.950 . S
C451 C449 1.387 . S
C451 C453 1.390 . S
C451 H455 0.950 . S
H452 C448 0.950 . S
C453 C451 1.390 . S
C453 C454 1.387 . S
C453 H456 0.950 . S
C454 C453 1.387 . S
C454 C457 1.387 . S
H455 C451 0.950 . S
H456 C453 0.950 . S
C457 C448 1.390 . S
C457 H450 0.950 . S
C457 C454 1.387 . S
C458 C459 1.387 . S
C458 H462 0.950 . S
C458 C467 1.390 . S
C459 C458 1.387 . S
C459 C461 1.387 . S
H460 C467 0.950 . S
C461 C459 1.387 . S
C461 C463 1.390 . S
C461 H465 0.950 . S
H462 C458 0.950 . S
C463 C461 1.390 . S
C463 C464 1.387 . S
C463 H466 0.950 . S
C464 C463 1.387 . S
C464 C467 1.387 . S
H465 C461 0.950 . S
H466 C463 0.950 . S
C467 C458 1.390 . S
C467 H460 0.950 . S
C467 C464 1.387 . S
C199 C7 1.316 . S
C204 C162 1.318 . S
C209 C29 1.315 . S
C214 C184 1.319 . S
C219 C140 1.318 . S
C224 C51 1.315 . S
C229 C158 1.321 . S
C234 C49 1.313 . S
C239 C180 1.319 . S
C244 C5 1.314 . S
C249 C136 1.320 . S
C254 C27 1.314 . S
C259 C30 1.321 . S
C264 C73 1.313 1_655 S
C269 C95 1.314 . S
C274 C52 1.320 . S
C279 C8 1.320 . S
C284 C117 1.313 1_545 S
C289 C26 1.319 . S
C294 C115 1.315 1_545 S
C299 C71 1.314 1_655 S
C304 C48 1.320 . S
C309 C4 1.321 . S
C314 C93 1.313 . S
C319 C139 1.313 . S
C324 C96 1.320 . S
C329 C118 1.319 . S
C334 C161 1.314 . S
C339 C183 1.316 . S
C344 C74 1.318 . S
C349 C181 1.313 . S
C354 C92 1.321 . S
C359 C114 1.319 . S
C364 C137 1.316 . S
C369 C70 1.318 . S
C374 C159 1.315 . S
C379 C9 1.250 . S
C384 C28 1.249 . S
C389 C50 1.247 . S
C394 C31 1.251 . S
C399 C53 1.247 . S
C404 C6 1.251 . S
C409 C94 1.248 . S
C414 C75 1.250 . S
C419 C116 1.247 . S
C424 C97 1.251 . S
C429 C119 1.251 . S
C434 C72 1.247 . S
C439 C160 1.251 1_655 S
C444 C141 1.247 . S
C449 C163 1.251 1_545 S
C454 C182 1.247 . S
C459 C138 1.247 1_545 S
C464 C185 1.251 1_655 S
