# Generated by pormake.
# Topology zni, (4)-cn, num edge types: 1
# Building blocks:
#     Node 0, Type 0, BuildingBlock: GALJAG_clean_sbu_0, # of connection points: 4
#     Node 1, Type 0, BuildingBlock: GALJAG_clean_sbu_0, # of connection points: 4
#     Node 2, Type 0, BuildingBlock: GALJAG_clean_sbu_0, # of connection points: 4
#     Node 3, Type 0, BuildingBlock: GALJAG_clean_sbu_0, # of connection points: 4
#     Node 4, Type 0, BuildingBlock: GALJAG_clean_sbu_0, # of connection points: 4
#     Node 5, Type 0, BuildingBlock: GALJAG_clean_sbu_0, # of connection points: 4
#     Node 6, Type 0, BuildingBlock: GALJAG_clean_sbu_0, # of connection points: 4
#     Node 7, Type 0, BuildingBlock: GALJAG_clean_sbu_0, # of connection points: 4
#     Node 8, Type 0, BuildingBlock: GALJAG_clean_sbu_0, # of connection points: 4
#     Node 9, Type 0, BuildingBlock: GALJAG_clean_sbu_0, # of connection points: 4
#     Node 10, Type 0, BuildingBlock: GALJAG_clean_sbu_0, # of connection points: 4
#     Node 11, Type 0, BuildingBlock: GALJAG_clean_sbu_0, # of connection points: 4
#     Node 12, Type 0, BuildingBlock: GALJAG_clean_sbu_0, # of connection points: 4
#     Node 13, Type 0, BuildingBlock: GALJAG_clean_sbu_0, # of connection points: 4
#     Node 14, Type 0, BuildingBlock: GALJAG_clean_sbu_0, # of connection points: 4
#     Node 15, Type 0, BuildingBlock: GALJAG_clean_sbu_0, # of connection points: 4
#     Node 16, Type 0, BuildingBlock: GALJAG_clean_sbu_0, # of connection points: 4
#     Node 17, Type 0, BuildingBlock: GALJAG_clean_sbu_0, # of connection points: 4
#     Node 18, Type 0, BuildingBlock: GALJAG_clean_sbu_0, # of connection points: 4
#     Node 19, Type 0, BuildingBlock: GALJAG_clean_sbu_0, # of connection points: 4
#     Node 20, Type 0, BuildingBlock: GALJAG_clean_sbu_0, # of connection points: 4
#     Node 21, Type 0, BuildingBlock: GALJAG_clean_sbu_0, # of connection points: 4
#     Node 22, Type 0, BuildingBlock: GALJAG_clean_sbu_0, # of connection points: 4
#     Node 23, Type 0, BuildingBlock: GALJAG_clean_sbu_0, # of connection points: 4
#     Node 24, Type 0, BuildingBlock: GALJAG_clean_sbu_0, # of connection points: 4
#     Node 25, Type 0, BuildingBlock: GALJAG_clean_sbu_0, # of connection points: 4
#     Node 26, Type 0, BuildingBlock: GALJAG_clean_sbu_0, # of connection points: 4
#     Node 27, Type 0, BuildingBlock: GALJAG_clean_sbu_0, # of connection points: 4
#     Node 28, Type 0, BuildingBlock: GALJAG_clean_sbu_0, # of connection points: 4
#     Node 29, Type 0, BuildingBlock: GALJAG_clean_sbu_0, # of connection points: 4
#     Node 30, Type 0, BuildingBlock: GALJAG_clean_sbu_0, # of connection points: 4
#     Node 31, Type 0, BuildingBlock: GALJAG_clean_sbu_0, # of connection points: 4
#     Edge 32, Type (0, 0), BuildingBlock: AJUNOK_clean_linker_0, # of connection points: 2
#     Edge 33, Type (0, 0), BuildingBlock: AJUNOK_clean_linker_0, # of connection points: 2
#     Edge 34, Type (0, 0), BuildingBlock: AJUNOK_clean_linker_0, # of connection points: 2
#     Edge 35, Type (0, 0), BuildingBlock: AJUNOK_clean_linker_0, # of connection points: 2
#     Edge 36, Type (0, 0), BuildingBlock: AJUNOK_clean_linker_0, # of connection points: 2
#     Edge 37, Type (0, 0), BuildingBlock: AJUNOK_clean_linker_0, # of connection points: 2
#     Edge 38, Type (0, 0), BuildingBlock: AJUNOK_clean_linker_0, # of connection points: 2
#     Edge 39, Type (0, 0), BuildingBlock: AJUNOK_clean_linker_0, # of connection points: 2
#     Edge 40, Type (0, 0), BuildingBlock: AJUNOK_clean_linker_0, # of connection points: 2
#     Edge 41, Type (0, 0), BuildingBlock: AJUNOK_clean_linker_0, # of connection points: 2
#     Edge 42, Type (0, 0), BuildingBlock: AJUNOK_clean_linker_0, # of connection points: 2
#     Edge 43, Type (0, 0), BuildingBlock: AJUNOK_clean_linker_0, # of connection points: 2
#     Edge 44, Type (0, 0), BuildingBlock: AJUNOK_clean_linker_0, # of connection points: 2
#     Edge 45, Type (0, 0), BuildingBlock: AJUNOK_clean_linker_0, # of connection points: 2
#     Edge 46, Type (0, 0), BuildingBlock: AJUNOK_clean_linker_0, # of connection points: 2
#     Edge 47, Type (0, 0), BuildingBlock: AJUNOK_clean_linker_0, # of connection points: 2
#     Edge 48, Type (0, 0), BuildingBlock: AJUNOK_clean_linker_0, # of connection points: 2
#     Edge 49, Type (0, 0), BuildingBlock: AJUNOK_clean_linker_0, # of connection points: 2
#     Edge 50, Type (0, 0), BuildingBlock: AJUNOK_clean_linker_0, # of connection points: 2
#     Edge 51, Type (0, 0), BuildingBlock: AJUNOK_clean_linker_0, # of connection points: 2
#     Edge 52, Type (0, 0), BuildingBlock: AJUNOK_clean_linker_0, # of connection points: 2
#     Edge 53, Type (0, 0), BuildingBlock: AJUNOK_clean_linker_0, # of connection points: 2
#     Edge 54, Type (0, 0), BuildingBlock: AJUNOK_clean_linker_0, # of connection points: 2
#     Edge 55, Type (0, 0), BuildingBlock: AJUNOK_clean_linker_0, # of connection points: 2
#     Edge 56, Type (0, 0), BuildingBlock: AJUNOK_clean_linker_0, # of connection points: 2
#     Edge 57, Type (0, 0), BuildingBlock: AJUNOK_clean_linker_0, # of connection points: 2
#     Edge 58, Type (0, 0), BuildingBlock: AJUNOK_clean_linker_0, # of connection points: 2
#     Edge 59, Type (0, 0), BuildingBlock: AJUNOK_clean_linker_0, # of connection points: 2
#     Edge 60, Type (0, 0), BuildingBlock: AJUNOK_clean_linker_0, # of connection points: 2
#     Edge 61, Type (0, 0), BuildingBlock: AJUNOK_clean_linker_0, # of connection points: 2
#     Edge 62, Type (0, 0), BuildingBlock: AJUNOK_clean_linker_0, # of connection points: 2
#     Edge 63, Type (0, 0), BuildingBlock: AJUNOK_clean_linker_0, # of connection points: 2
#     Edge 64, Type (0, 0), BuildingBlock: AJUNOK_clean_linker_0, # of connection points: 2
#     Edge 65, Type (0, 0), BuildingBlock: AJUNOK_clean_linker_0, # of connection points: 2
#     Edge 66, Type (0, 0), BuildingBlock: AJUNOK_clean_linker_0, # of connection points: 2
#     Edge 67, Type (0, 0), BuildingBlock: AJUNOK_clean_linker_0, # of connection points: 2
#     Edge 68, Type (0, 0), BuildingBlock: AJUNOK_clean_linker_0, # of connection points: 2
#     Edge 69, Type (0, 0), BuildingBlock: AJUNOK_clean_linker_0, # of connection points: 2
#     Edge 70, Type (0, 0), BuildingBlock: AJUNOK_clean_linker_0, # of connection points: 2
#     Edge 71, Type (0, 0), BuildingBlock: AJUNOK_clean_linker_0, # of connection points: 2
#     Edge 72, Type (0, 0), BuildingBlock: AJUNOK_clean_linker_0, # of connection points: 2
#     Edge 73, Type (0, 0), BuildingBlock: AJUNOK_clean_linker_0, # of connection points: 2
#     Edge 74, Type (0, 0), BuildingBlock: AJUNOK_clean_linker_0, # of connection points: 2
#     Edge 75, Type (0, 0), BuildingBlock: AJUNOK_clean_linker_0, # of connection points: 2
#     Edge 76, Type (0, 0), BuildingBlock: AJUNOK_clean_linker_0, # of connection points: 2
#     Edge 77, Type (0, 0), BuildingBlock: AJUNOK_clean_linker_0, # of connection points: 2
#     Edge 78, Type (0, 0), BuildingBlock: AJUNOK_clean_linker_0, # of connection points: 2
#     Edge 79, Type (0, 0), BuildingBlock: AJUNOK_clean_linker_0, # of connection points: 2
#     Edge 80, Type (0, 0), BuildingBlock: AJUNOK_clean_linker_0, # of connection points: 2
#     Edge 81, Type (0, 0), BuildingBlock: AJUNOK_clean_linker_0, # of connection points: 2
#     Edge 82, Type (0, 0), BuildingBlock: AJUNOK_clean_linker_0, # of connection points: 2
#     Edge 83, Type (0, 0), BuildingBlock: AJUNOK_clean_linker_0, # of connection points: 2
#     Edge 84, Type (0, 0), BuildingBlock: AJUNOK_clean_linker_0, # of connection points: 2
#     Edge 85, Type (0, 0), BuildingBlock: AJUNOK_clean_linker_0, # of connection points: 2
#     Edge 86, Type (0, 0), BuildingBlock: AJUNOK_clean_linker_0, # of connection points: 2
#     Edge 87, Type (0, 0), BuildingBlock: AJUNOK_clean_linker_0, # of connection points: 2
#     Edge 88, Type (0, 0), BuildingBlock: AJUNOK_clean_linker_0, # of connection points: 2
#     Edge 89, Type (0, 0), BuildingBlock: AJUNOK_clean_linker_0, # of connection points: 2
#     Edge 90, Type (0, 0), BuildingBlock: AJUNOK_clean_linker_0, # of connection points: 2
#     Edge 91, Type (0, 0), BuildingBlock: AJUNOK_clean_linker_0, # of connection points: 2
#     Edge 92, Type (0, 0), BuildingBlock: AJUNOK_clean_linker_0, # of connection points: 2
#     Edge 93, Type (0, 0), BuildingBlock: AJUNOK_clean_linker_0, # of connection points: 2
#     Edge 94, Type (0, 0), BuildingBlock: AJUNOK_clean_linker_0, # of connection points: 2
#     Edge 95, Type (0, 0), BuildingBlock: AJUNOK_clean_linker_0, # of connection points: 2
# Relax obj value: 0.235
# Max RMSD: 0.125
# Mean RMSD: 0.125
data_MOF--net-zni--node1-GALJAG_clean_sbu_0--edge1-AJUNOK_clean_linker_0
_symmetry_space_group_name_H-M    P1
_symmetry_Int_Tables_number       1
_symmetry_cell_setting            triclinic
loop_
_symmetry_equiv_pos_as_xyz
'x, y, z'
_cell_length_a     43.343795
_cell_length_b     43.331196
_cell_length_c     22.475788
_cell_angle_alpha  89.995665
_cell_angle_beta   90.003961
_cell_angle_gamma 89.951086
loop_
_atom_site_label
_atom_site_type_symbol
_atom_site_fract_x
_atom_site_fract_y
_atom_site_fract_z
_atom_type_partial_charge
In0 In 0.10805 0.10497 0.38973 0.0
O1 O 0.12561 0.08382 0.3026 0.0
O2 O 0.11742 0.05391 0.37552 0.0
C3 C 0.12258 0.1651 0.37924 0.0
C4 C 0.04586 0.10731 0.37903 0.0
C5 C 0.13792 0.09714 0.49296 0.0
O6 O 0.13169 0.14536 0.34164 0.0
O7 O 0.10595 0.15449 0.42042 0.0
O8 O 0.11043 0.08837 0.48503 0.0
O9 O 0.15093 0.10843 0.44764 0.0
C10 C 0.12568 0.05651 0.32208 0.0
O11 O 0.05909 0.09855 0.42602 0.0
O12 O 0.064 0.11418 0.33728 0.0
In13 In 0.1458 0.85293 0.64859 0.0
O14 O 0.16353 0.87042 0.55866 0.0
O15 O 0.19605 0.8631 0.62758 0.0
C16 C 0.0854 0.86759 0.64292 0.0
C17 C 0.14396 0.7909 0.6349 0.0
C18 C 0.15758 0.88049 0.75321 0.0
O19 O 0.10515 0.88003 0.60918 0.0
O20 O 0.09623 0.84785 0.67844 0.0
O21 O 0.16517 0.85293 0.74227 0.0
O22 O 0.14491 0.89453 0.71045 0.0
C23 C 0.19144 0.87096 0.57439 0.0
O24 O 0.1536 0.80359 0.68179 0.0
O25 O 0.13588 0.8095 0.59471 0.0
In26 In 0.39802 0.89857 0.89915 0.0
O27 O 0.44209 0.87137 0.88431 0.0
O28 O 0.44716 0.91698 0.91625 0.0
C29 C 0.37355 0.91051 0.00654 0.0
C30 C 0.384 0.94333 0.81948 0.0
C31 C 0.37497 0.84159 0.87967 0.0
O32 O 0.40186 0.91426 0.9953 0.0
O33 O 0.35743 0.90179 0.96285 0.0
O34 O 0.37381 0.86245 0.84036 0.0
O35 O 0.38706 0.84985 0.92808 0.0
C36 C 0.46029 0.89234 0.90046 0.0
O37 O 0.3975 0.91866 0.80522 0.0
O38 O 0.37668 0.94496 0.87359 0.0
In39 In 0.34422 0.15167 0.14912 0.0
O40 O 0.32032 0.13085 0.06747 0.0
O41 O 0.29247 0.15043 0.13525 0.0
C42 C 0.40421 0.13739 0.13341 0.0
C43 C 0.34804 0.21349 0.13629 0.0
C44 C 0.33749 0.12046 0.2515 0.0
O45 O 0.38359 0.12809 0.09775 0.0
O46 O 0.39439 0.15401 0.17538 0.0
O47 O 0.33127 0.14882 0.24669 0.0
O48 O 0.34566 0.10749 0.20375 0.0
C49 C 0.29345 0.13737 0.08526 0.0
O50 O 0.33988 0.20095 0.18444 0.0
O51 O 0.35375 0.19483 0.09464 0.0
In52 In 0.10811 0.89986 0.10391 0.0
O53 O 0.05811 0.9035 0.07183 0.0
O54 O 0.06583 0.8906 0.16148 0.0
C55 C 0.13473 0.90856 0.99724 0.0
C56 C 0.12498 0.94889 0.17072 0.0
C57 C 0.12453 0.84024 0.11784 0.0
O58 O 0.10705 0.91576 0.00785 0.0
O59 O 0.14945 0.89823 0.04143 0.0
O60 O 0.13579 0.86146 0.14977 0.0
O61 O 0.10519 0.84926 0.07969 0.0
C62 C 0.04641 0.89561 0.12087 0.0
O63 O 0.12823 0.92144 0.18829 0.0
O64 O 0.11389 0.95144 0.11917 0.0
In65 In 0.34644 0.85501 0.354 0.0
O66 O 0.32393 0.87549 0.4369 0.0
O67 O 0.29477 0.8622 0.36561 0.0
C68 C 0.40642 0.86619 0.37659 0.0
C69 C 0.34717 0.79313 0.36882 0.0
C70 C 0.34264 0.88419 0.24864 0.0
O71 O 0.38507 0.88017 0.40393 0.0
O72 O 0.3973 0.84692 0.33841 0.0
O73 O 0.33246 0.85723 0.25676 0.0
O74 O 0.35352 0.89696 0.2945 0.0
C75 C 0.29672 0.873 0.4175 0.0
O76 O 0.34267 0.8056 0.31882 0.0
O77 O 0.35035 0.81192 0.41116 0.0
In78 In 0.40199 0.09725 0.5911 0.0
O79 O 0.45148 0.09294 0.55673 0.0
O80 O 0.44496 0.10831 0.64542 0.0
C81 C 0.37234 0.08775 0.48756 0.0
C82 C 0.38731 0.04821 0.65983 0.0
C83 C 0.38613 0.15701 0.60531 0.0
O84 O 0.40062 0.08187 0.49455 0.0
O85 O 0.35874 0.0974 0.53357 0.0
O86 O 0.37596 0.136 0.6391 0.0
O87 O 0.40422 0.14771 0.56516 0.0
C88 C 0.46381 0.10212 0.60436 0.0
O89 O 0.38119 0.07559 0.67488 0.0
O90 O 0.40032 0.04573 0.60996 0.0
In91 In 0.14384 0.14526 0.84451 0.0
O92 O 0.19149 0.12778 0.87252 0.0
O93 O 0.16178 0.14405 0.94013 0.0
C94 C 0.08788 0.11829 0.85217 0.0
C95 C 0.13208 0.20666 0.84833 0.0
C96 C 0.16022 0.1237 0.73723 0.0
O97 O 0.10771 0.11561 0.89316 0.0
O98 O 0.09663 0.13397 0.80811 0.0
O99 O 0.16176 0.15199 0.75064 0.0
O100 O 0.15151 0.10618 0.77892 0.0
C101 C 0.18793 0.13335 0.92703 0.0
O102 O 0.15663 0.19606 0.82611 0.0
O103 O 0.1143 0.18644 0.86905 0.0
In104 In 0.89193 0.89428 0.60704 0.0
O105 O 0.94188 0.90043 0.57612 0.0
O106 O 0.93431 0.88422 0.66379 0.0
C107 C 0.86584 0.90184 0.49957 0.0
C108 C 0.87428 0.94275 0.67493 0.0
C109 C 0.87624 0.83447 0.61982 0.0
O110 O 0.89329 0.90968 0.51063 0.0
O111 O 0.85101 0.89161 0.5437 0.0
O112 O 0.86389 0.85552 0.65072 0.0
O113 O 0.89636 0.84374 0.58346 0.0
C114 C 0.95367 0.89117 0.62419 0.0
O115 O 0.87274 0.91524 0.69293 0.0
O116 O 0.88389 0.94561 0.62235 0.0
In117 In 0.85541 0.15133 0.34765 0.0
O118 O 0.85362 0.2015 0.3152 0.0
O119 O 0.86577 0.1933 0.40506 0.0
C120 C 0.8439 0.12431 0.24221 0.0
C121 C 0.80732 0.13566 0.4181 0.0
C122 C 0.91479 0.13374 0.35956 0.0
O123 O 0.83731 0.15214 0.25284 0.0
O124 O 0.85531 0.10977 0.28564 0.0
O125 O 0.89369 0.12327 0.39271 0.0
O126 O 0.90577 0.15285 0.32093 0.0
C127 C 0.86165 0.2129 0.36443 0.0
O128 O 0.83499 0.13106 0.43297 0.0
O129 O 0.804 0.14753 0.36733 0.0
In130 In 0.5957 0.09858 0.09006 0.0
O131 O 0.61985 0.07235 0.16593 0.0
O132 O 0.58554 0.04925 0.11525 0.0
C133 C 0.61449 0.15732 0.10385 0.0
C134 C 0.53478 0.1092 0.10488 0.0
C135 C 0.62556 0.08626 0.98792 0.0
O136 O 0.61891 0.1372 0.1438 0.0
O137 O 0.6005 0.14768 0.05835 0.0
O138 O 0.59667 0.08363 0.99316 0.0
O139 O 0.63951 0.09335 0.03525 0.0
C140 C 0.60415 0.04812 0.15821 0.0
O141 O 0.54583 0.09959 0.05627 0.0
O142 O 0.55448 0.11327 0.14543 0.0
In143 In 0.652 0.85884 0.85725 0.0
O144 O 0.65609 0.81081 0.81549 0.0
O145 O 0.64769 0.81375 0.90837 0.0
C146 C 0.65586 0.88872 0.75248 0.0
C147 C 0.70144 0.87411 0.92444 0.0
C148 C 0.59227 0.87119 0.88091 0.0
O149 O 0.66607 0.86171 0.75996 0.0
O150 O 0.64473 0.90108 0.79853 0.0
O151 O 0.61375 0.88836 0.8997 0.0
O152 O 0.60114 0.84814 0.85129 0.0
C153 C 0.65133 0.79655 0.86361 0.0
O154 O 0.67437 0.87353 0.94499 0.0
O155 O 0.70332 0.86784 0.86988 0.0
In156 In 0.89525 0.0985 0.8921 0.0
O157 O 0.87686 0.07732 0.80589 0.0
O158 O 0.88274 0.0479 0.88041 0.0
C159 C 0.88385 0.1592 0.87491 0.0
C160 C 0.95711 0.0953 0.87711 0.0
C161 C 0.86795 0.09348 -0.00092 0.0
O162 O 0.86825 0.13847 0.84918 0.0
O163 O 0.90526 0.14912 0.90747 0.0
O164 O 0.89486 0.08358 0.98892 0.0
O165 O 0.85431 0.10465 0.95438 0.0
C166 C 0.87516 0.05028 0.8265 0.0
O167 O 0.94445 0.09249 0.92735 0.0
O168 O 0.93852 0.09942 0.83469 0.0
In169 In 0.65369 0.14653 0.64722 0.0
O170 O 0.65964 0.19531 0.68565 0.0
O171 O 0.6437 0.19097 0.59697 0.0
C172 C 0.66101 0.11649 0.75096 0.0
C173 C 0.70209 0.13192 0.57648 0.0
C174 C 0.59429 0.13027 0.63007 0.0
O175 O 0.66898 0.14427 0.74373 0.0
O176 O 0.65049 0.10348 0.705 0.0
O177 O 0.61606 0.11849 0.60025 0.0
O178 O 0.60264 0.15018 0.66771 0.0
C179 C 0.65061 0.20884 0.63912 0.0
O180 O 0.67472 0.13302 0.55763 0.0
O181 O 0.7049 0.13744 0.63121 0.0
In182 In 0.59867 0.9009 0.40755 0.0
O183 O 0.5502 0.90333 0.44695 0.0
O184 O 0.55636 0.87942 0.3651 0.0
C185 C 0.62532 0.91681 0.51159 0.0
C186 C 0.60443 0.94818 0.32969 0.0
C187 C 0.61884 0.84272 0.38866 0.0
O188 O 0.5969 0.92023 0.50167 0.0
O189 O 0.64057 0.90695 0.46779 0.0
O190 O 0.62074 0.86341 0.34914 0.0
O191 O 0.60697 0.8516 0.43692 0.0
C192 C 0.53786 0.88836 0.40499 0.0
O193 O 0.62703 0.931 0.34223 0.0
O194 O 0.5801 0.94206 0.35753 0.0
In195 In 0.85615 0.84987 0.14666 0.0
O196 O 0.83622 0.87051 0.06102 0.0
O197 O 0.80502 0.85706 0.12875 0.0
C198 C 0.91576 0.86732 0.14024 0.0
C199 C 0.86067 0.78849 0.12554 0.0
C200 C 0.84437 0.87447 0.25403 0.0
O201 O 0.8954 0.87848 0.10612 0.0
O202 O 0.90598 0.84736 0.17638 0.0
O203 O 0.83845 0.84671 0.24139 0.0
O204 O 0.85535 0.89017 0.21169 0.0
C205 C 0.8085 0.86803 0.07732 0.0
O206 O 0.85129 0.79928 0.17438 0.0
O207 O 0.86719 0.80866 0.08719 0.0
In208 In 0.60557 0.60625 0.88853 0.0
O209 O 0.55629 0.59884 0.92228 0.0
O210 O 0.5619 0.61914 0.83733 0.0
C211 C 0.63257 0.59667 0.99451 0.0
C212 C 0.62179 0.55828 0.81778 0.0
C213 C 0.62352 0.66559 0.87727 0.0
O214 O 0.60463 0.59033 0.98447 0.0
O215 O 0.64735 0.6066 0.95004 0.0
O216 O 0.63375 0.64457 0.84359 0.0
O217 O 0.60435 0.65656 0.9157 0.0
C218 C 0.54343 0.61029 0.87712 0.0
O219 O 0.62134 0.58578 0.79958 0.0
O220 O 0.61467 0.55516 0.87173 0.0
In221 In 0.64434 0.34971 0.14803 0.0
O222 O 0.66262 0.36665 0.05865 0.0
O223 O 0.69517 0.35678 0.12654 0.0
C224 C 0.58474 0.36709 0.13912 0.0
C225 C 0.64051 0.28791 0.13248 0.0
C226 C 0.65784 0.37698 0.25225 0.0
O227 O 0.60562 0.37893 0.10721 0.0
O228 O 0.594 0.34647 0.17443 0.0
O229 O 0.66457 0.3492 0.24121 0.0
O230 O 0.64531 0.39132 0.20972 0.0
C231 C 0.69063 0.36505 0.07349 0.0
O232 O 0.64592 0.29991 0.18252 0.0
O233 O 0.63726 0.30707 0.09082 0.0
In234 In 0.90132 0.40409 0.40856 0.0
O235 O 0.94785 0.39998 0.45597 0.0
O236 O 0.94827 0.40955 0.36346 0.0
C237 C 0.86724 0.41472 0.50637 0.0
C238 C 0.8859 0.45014 0.33387 0.0
C239 C 0.88906 0.34365 0.39083 0.0
O240 O 0.89439 0.42482 0.5005 0.0
O241 O 0.85686 0.40059 0.46158 0.0
O242 O 0.87773 0.36438 0.35782 0.0
O243 O 0.90697 0.35351 0.43056 0.0
C244 C 0.96376 0.40474 0.40997 0.0
O245 O 0.88786 0.42236 0.31717 0.0
O246 O 0.89114 0.45447 0.38846 0.0
In247 In 0.84847 0.64074 0.6436 0.0
O248 O 0.84185 0.68937 0.68148 0.0
O249 O 0.85837 0.6852 0.5931 0.0
C250 C 0.84028 0.61089 0.74732 0.0
C251 C 0.80085 0.62607 0.57117 0.0
C252 C 0.90849 0.626 0.62953 0.0
O253 O 0.8325 0.63868 0.73957 0.0
O254 O 0.85079 0.59764 0.70161 0.0
O255 O 0.88748 0.61348 0.59885 0.0
O256 O 0.89905 0.64578 0.66644 0.0
C257 C 0.85107 0.70298 0.63521 0.0
O258 O 0.82857 0.62501 0.55436 0.0
O259 O 0.79733 0.63363 0.62485 0.0
In260 In 0.60938 0.39982 0.60263 0.0
O261 O 0.55976 0.40298 0.5685 0.0
O262 O 0.56656 0.39148 0.65916 0.0
C263 C 0.63634 0.40701 0.49594 0.0
C264 C 0.6251 0.4501 0.6671 0.0
C265 C 0.62553 0.34029 0.61893 0.0
O266 O 0.60875 0.41473 0.50609 0.0
O267 O 0.65089 0.39696 0.54063 0.0
O268 O 0.63745 0.36178 0.64932 0.0
O269 O 0.60573 0.34904 0.58146 0.0
C270 C 0.54757 0.39587 0.61754 0.0
O271 O 0.62706 0.42306 0.68764 0.0
O272 O 0.61602 0.45151 0.61398 0.0
In273 In 0.8441 0.35143 0.84344 0.0
O274 O 0.82182 0.36971 0.92868 0.0
O275 O 0.7925 0.35191 0.86144 0.0
C276 C 0.90214 0.37264 0.85414 0.0
C277 C 0.8543 0.29001 0.85531 0.0
C278 C 0.83301 0.38159 0.74142 0.0
O279 O 0.88212 0.37703 0.89422 0.0
O280 O 0.89288 0.35734 0.8099 0.0
O281 O 0.82999 0.3527 0.74639 0.0
O282 O 0.8401 0.39542 0.78893 0.0
C283 C 0.79461 0.36385 0.91234 0.0
O284 O 0.8408 0.30126 0.81058 0.0
O285 O 0.86171 0.30956 0.89418 0.0
In286 In 0.9018 0.59738 0.09035 0.0
O287 O 0.95146 0.59172 0.05688 0.0
O288 O 0.94471 0.60954 0.14371 0.0
C289 C 0.87262 0.58474 0.98753 0.0
C290 C 0.88662 0.55124 0.16575 0.0
C291 C 0.88576 0.6574 0.0979 0.0
O292 O 0.90077 0.57866 0.99596 0.0
O293 O 0.85891 0.59623 0.03186 0.0
O294 O 0.87515 0.63727 0.13311 0.0
O295 O 0.90435 0.64713 0.05954 0.0
C296 C 0.96367 0.60211 0.10369 0.0
O297 O 0.8828 0.57929 0.17863 0.0
O298 O 0.89739 0.54657 0.11448 0.0
In299 In 0.64787 0.65015 0.34447 0.0
O300 O 0.66835 0.63245 0.4319 0.0
O301 O 0.69885 0.64016 0.35976 0.0
C302 C 0.58803 0.63472 0.35983 0.0
C303 C 0.64577 0.71229 0.3574 0.0
C304 C 0.65762 0.62296 0.23862 0.0
O305 O 0.60945 0.62205 0.38916 0.0
O306 O 0.59693 0.655 0.32347 0.0
O307 O 0.66671 0.64996 0.25031 0.0
O308 O 0.64441 0.60928 0.28117 0.0
C309 C 0.69577 0.63191 0.41314 0.0
O310 O 0.65025 0.69941 0.3079 0.0
O311 O 0.64296 0.69383 0.40041 0.0
In312 In 0.39336 0.40288 0.09445 0.0
O313 O 0.37395 0.42529 0.17838 0.0
O314 O 0.38768 0.45467 0.10781 0.0
C315 C 0.37562 0.34391 0.11016 0.0
C316 C 0.45473 0.39736 0.11396 0.0
C317 C 0.3676 0.41023 0.98669 0.0
O318 O 0.36429 0.36575 0.14045 0.0
O319 O 0.39566 0.352 0.07261 0.0
O320 O 0.3954 0.41695 0.99734 0.0
O321 O 0.35237 0.40124 0.0313 0.0
C322 C 0.377 0.45257 0.15975 0.0
O323 O 0.44384 0.40633 0.06488 0.0
O324 O 0.4347 0.39202 0.15323 0.0
In325 In 0.35152 0.64839 0.84205 0.0
O326 O 0.33301 0.63123 0.93118 0.0
O327 O 0.3008 0.63983 0.86211 0.0
C328 C 0.41185 0.63488 0.85735 0.0
C329 C 0.35178 0.71072 0.85026 0.0
C330 C 0.34134 0.61799 0.73956 0.0
O331 O 0.39088 0.62203 0.88748 0.0
O332 O 0.40228 0.65457 0.82039 0.0
O333 O 0.33203 0.64521 0.74847 0.0
O334 O 0.35459 0.60565 0.78352 0.0
C335 C 0.3051 0.63169 0.91531 0.0
O336 O 0.34934 0.6968 0.80124 0.0
O337 O 0.35373 0.69317 0.89486 0.0
In338 In 0.10246 0.60008 0.59878 0.0
O339 O 0.11758 0.58031 0.68849 0.0
O340 O 0.11084 0.54906 0.61729 0.0
C341 C 0.11897 0.65967 0.61197 0.0
C342 C 0.04029 0.60298 0.60929 0.0
C343 C 0.13127 0.59119 0.49426 0.0
O344 O 0.13047 0.63841 0.6435 0.0
O345 O 0.09927 0.65073 0.57444 0.0
O346 O 0.1031 0.58504 0.50215 0.0
O347 O 0.14527 0.6006 0.54003 0.0
C348 C 0.11764 0.55263 0.67132 0.0
O349 O 0.05341 0.59193 0.56399 0.0
O350 O 0.05852 0.6121 0.64926 0.0
In351 In 0.15066 0.35879 0.35701 0.0
O352 O 0.14389 0.31103 0.31578 0.0
O353 O 0.15044 0.3139 0.40931 0.0
C354 C 0.15221 0.37944 0.24415 0.0
C355 C 0.20264 0.37447 0.41681 0.0
C356 C 0.0942 0.37929 0.39034 0.0
O357 O 0.1602 0.35236 0.2581 0.0
O358 O 0.14457 0.39628 0.28745 0.0
O359 O 0.11486 0.39702 0.37081 0.0
O360 O 0.10231 0.3515 0.39528 0.0
C361 C 0.14594 0.2968 0.36468 0.0
O362 O 0.17605 0.37728 0.43877 0.0
O363 O 0.20289 0.36474 0.3641 0.0
In364 In 0.39476 0.60354 0.39302 0.0
O365 O 0.37881 0.58532 0.30252 0.0
O366 O 0.38623 0.55295 0.37161 0.0
C367 C 0.37587 0.6627 0.38701 0.0
C368 C 0.45686 0.60856 0.38166 0.0
C369 C 0.3673 0.59072 0.49722 0.0
O370 O 0.36663 0.64253 0.3505 0.0
O371 O 0.39477 0.65301 0.42535 0.0
O372 O 0.39527 0.58456 0.48692 0.0
O373 O 0.35279 0.60232 0.4539 0.0
C374 C 0.37876 0.5574 0.31817 0.0
O375 O 0.44424 0.59679 0.42674 0.0
O376 O 0.43819 0.61728 0.3421 0.0
In377 In 0.15342 0.64671 0.14755 0.0
O378 O 0.15869 0.69565 0.18493 0.0
O379 O 0.144 0.69089 0.09556 0.0
C380 C 0.16185 0.61864 0.25303 0.0
C381 C 0.20139 0.63074 0.07692 0.0
C382 C 0.09411 0.62999 0.1308 0.0
O383 O 0.17022 0.64606 0.24315 0.0
O384 O 0.15018 0.60496 0.20885 0.0
O385 O 0.116 0.61779 0.102 0.0
O386 O 0.1023 0.65045 0.16747 0.0
C387 C 0.15029 0.70896 0.13778 0.0
O388 O 0.17395 0.63174 0.05847 0.0
O389 O 0.20449 0.6372 0.13118 0.0
In390 In 0.09426 0.39782 0.89132 0.0
O391 O 0.11333 0.41923 0.80595 0.0
O392 O 0.1055 0.44869 0.87969 0.0
C393 C 0.10516 0.33773 0.86802 0.0
C394 C 0.03237 0.39969 0.8777 0.0
C395 C 0.12067 0.4024 -0.00073 0.0
O396 O 0.12333 0.35871 0.8507 0.0
O397 O 0.08195 0.3473 0.89626 0.0
O398 O 0.09477 0.4142 0.98734 0.0
O399 O 0.13363 0.38898 0.95619 0.0
C400 C 0.11399 0.44636 0.82631 0.0
O401 O 0.0452 0.40039 0.92809 0.0
O402 O 0.05085 0.39873 0.83439 0.0
In403 In 0.35718 0.35049 0.63973 0.0
O404 O 0.34979 0.3011 0.67325 0.0
O405 O 0.36907 0.30696 0.58747 0.0
C406 C 0.34549 0.37852 0.74385 0.0
C407 C 0.31065 0.36778 0.56681 0.0
C408 C 0.41689 0.36744 0.63359 0.0
O409 O 0.33875 0.35062 0.73411 0.0
O410 O 0.35726 0.39259 0.7002 0.0
O411 O 0.3969 0.37782 0.59779 0.0
O412 O 0.40672 0.34838 0.67114 0.0
C413 C 0.36059 0.28837 0.62734 0.0
O414 O 0.33834 0.3668 0.54972 0.0
O415 O 0.3067 0.36054 0.6205 0.0
C416 C 0.12777 0.0321 0.22172 0.0
C417 C 0.13106 0.02934 0.28369 0.0
C418 C 0.12734 0.00593 0.18515 0.0
C419 C 0.13052 0.97608 0.20912 0.0
H420 H 0.12388 0.05447 0.20154 0.0
H421 H 0.12332 0.00912 0.13797 0.0
S422 S 0.14447 0.95683 0.3678 0.0
N423 N 0.14083 0.99476 0.36688 0.0
N424 N 0.14044 0.94558 0.29804 0.0
C425 C 0.13606 0.97318 0.27053 0.0
C426 C 0.13619 0.99982 0.30786 0.0
C427 C 0.24743 0.87932 0.55549 0.0
C428 C 0.21725 0.87698 0.53293 0.0
C429 C 0.27298 0.88005 0.51748 0.0
C430 C 0.26934 0.87815 0.45545 0.0
H431 H 0.25151 0.87938 0.60306 0.0
H432 H 0.29581 0.88047 0.53713 0.0
S433 S 0.19502 0.87594 0.37345 0.0
N434 N 0.18497 0.8761 0.44432 0.0
N435 N 0.2331 0.87711 0.37277 0.0
C436 C 0.23922 0.87782 0.43207 0.0
C437 C 0.21313 0.87736 0.47085 0.0
C438 C 0.39216 0.99188 0.68044 0.0
C439 C 0.38223 0.02125 0.6991 0.0
C440 C 0.39125 0.96649 0.71889 0.0
C441 C 0.38035 0.96944 0.77754 0.0
H442 H 0.40171 0.98858 0.63636 0.0
H443 H 0.40019 0.94463 0.70302 0.0
S444 S 0.34856 0.04061 0.8463 0.0
N445 N 0.35882 0.05131 0.77863 0.0
N446 N 0.35705 0.00354 0.85099 0.0
C447 C 0.36878 0.99829 0.79582 0.0
C448 C 0.36975 0.02421 0.75659 0.0
C449 C 0.24282 0.12096 0.9514 0.0
C450 C 0.21344 0.13063 0.97057 0.0
C451 C 0.26837 0.12197 0.98957 0.0
C452 C 0.26552 0.13271 0.04835 0.0
H453 H 0.24639 0.11352 0.90591 0.0
H454 H 0.2907 0.11527 0.97215 0.0
S455 S 0.19302 0.15775 0.12224 0.0
N456 N 0.18253 0.14907 0.05366 0.0
N457 N 0.23046 0.15096 0.12538 0.0
C458 C 0.23597 0.14097 0.06902 0.0
C459 C 0.20995 0.13993 0.03014 0.0
C460 C 0.87068 0.99971 0.68973 0.0
C461 C 0.86883 0.96979 0.71386 0.0
C462 C 0.87067 0.02584 0.7264 0.0
C463 C 0.86909 0.02302 0.78864 0.0
H464 H 0.87341 0.003 0.64224 0.0
H465 H 0.87357 0.04827 0.70588 0.0
S466 S 0.85967 0.95019 0.87366 0.0
N467 N 0.86204 0.93906 0.80355 0.0
N468 N 0.86231 0.98819 0.87252 0.0
C469 C 0.86517 0.99339 0.81314 0.0
C470 C 0.86496 0.96676 0.77573 0.0
C471 C 0.75061 0.13359 0.43661 0.0
C472 C 0.78085 0.13023 0.4584 0.0
C473 C 0.72512 0.13243 0.47482 0.0
C474 C 0.72892 0.1282 0.53641 0.0
H475 H 0.74656 0.13808 0.38983 0.0
H476 H 0.70238 0.13624 0.45617 0.0
S477 S 0.803 0.11494 0.61523 0.0
N478 N 0.81297 0.11985 0.54496 0.0
N479 N 0.76504 0.11805 0.61692 0.0
C480 C 0.75889 0.12327 0.55847 0.0
C481 C 0.78487 0.12416 0.51942 0.0
C482 C 0.63173 0.99044 0.27432 0.0
C483 C 0.60518 0.97248 0.28379 0.0
C484 C 0.63148 0.01497 0.23331 0.0
C485 C 0.60496 0.02158 0.19942 0.0
H486 H 0.65245 0.9861 0.29995 0.0
H487 H 0.6521 0.02882 0.22811 0.0
S488 S 0.53006 0.98019 0.20595 0.0
N489 N 0.55205 0.96241 0.25513 0.0
N490 N 0.5518 0.00768 0.1773 0.0
C491 C 0.57863 0.00313 0.20746 0.0
C492 C 0.57868 0.97877 0.24988 0.0
C493 C 0.72592 0.87583 0.02479 0.0
C494 C 0.72899 0.87779 0.96264 0.0
C495 C 0.75188 0.8741 0.06171 0.0
C496 C 0.78191 0.87457 0.03796 0.0
H497 H 0.7033 0.87415 0.04504 0.0
H498 H 0.7483 0.87133 0.10912 0.0
S499 S 0.80252 0.88312 0.87854 0.0
N500 N 0.76443 0.8828 0.87922 0.0
N501 N 0.81326 0.87984 0.94874 0.0
C502 C 0.78536 0.8785 0.9762 0.0
C503 C 0.75888 0.88002 0.9385 0.0
C504 C 0.62951 0.47534 0.76654 0.0
C505 C 0.62928 0.47799 0.70421 0.0
C506 C 0.62842 0.50156 0.80294 0.0
C507 C 0.62734 0.53144 0.77841 0.0
H508 H 0.62907 0.45283 0.7875 0.0
H509 H 0.62738 0.49829 0.85068 0.0
S510 S 0.63027 0.55099 0.6177 0.0
N511 N 0.63075 0.5129 0.61944 0.0
N512 N 0.62898 0.56219 0.68787 0.0
C513 C 0.62906 0.53447 0.71619 0.0
C514 C 0.62995 0.50774 0.67908 0.0
C515 C 0.77187 0.37154 0.01318 0.0
C516 C 0.76759 0.3682 0.95152 0.0
C517 C 0.74668 0.37177 0.0522 0.0
C518 C 0.71628 0.36915 0.0309 0.0
H519 H 0.7949 0.37267 0.03179 0.0
H520 H 0.75114 0.37317 0.09955 0.0
S521 S 0.69252 0.36306 0.87264 0.0
N522 N 0.73057 0.36441 0.87047 0.0
N523 N 0.68318 0.36532 0.94372 0.0
C524 C 0.71158 0.36753 0.96905 0.0
C525 C 0.73726 0.36689 0.92937 0.0
C526 C 0.8848 0.47058 0.23021 0.0
C527 C 0.88137 0.4759 0.29156 0.0
C528 C 0.88514 0.49507 0.18961 0.0
C529 C 0.88178 0.52581 0.2087 0.0
H530 H 0.88861 0.44743 0.21352 0.0
H531 H 0.88906 0.48987 0.14307 0.0
S532 S 0.86827 0.55181 0.36394 0.0
N533 N 0.87183 0.51396 0.36904 0.0
N534 N 0.87215 0.56002 0.29259 0.0
C535 C 0.87645 0.53133 0.26954 0.0
C536 C 0.87635 0.50637 0.31101 0.0
C537 C 0.71864 0.62601 0.51435 0.0
C538 C 0.72245 0.62544 0.45225 0.0
C539 C 0.74412 0.62465 0.55257 0.0
C540 C 0.77436 0.62241 0.53018 0.0
H541 H 0.69593 0.62896 0.53368 0.0
H542 H 0.74008 0.62652 0.60001 0.0
S543 S 0.79641 0.61557 0.37111 0.0
N544 N 0.7585 0.6193 0.3701 0.0
N545 N 0.8064 0.61643 0.44198 0.0
C546 C 0.77834 0.61971 0.46827 0.0
C547 C 0.75238 0.62133 0.42929 0.0
C548 C 0.37101 0.47584 0.26037 0.0
C549 C 0.37228 0.47976 0.19834 0.0
C550 C 0.37171 0.50126 0.29873 0.0
C551 C 0.37335 0.53156 0.27651 0.0
H552 H 0.37102 0.45292 0.27967 0.0
H553 H 0.37203 0.49701 0.34623 0.0
S554 S 0.37273 0.5544 0.11732 0.0
N555 N 0.37216 0.5163 0.11615 0.0
N556 N 0.37304 0.56418 0.18833 0.0
C557 C 0.37247 0.53591 0.2145 0.0
C558 C 0.37208 0.50996 0.17538 0.0
C559 C 0.22355 0.6276 0.97478 0.0
C560 C 0.22796 0.62599 0.03668 0.0
C561 C 0.24869 0.62794 0.93569 0.0
C562 C 0.27918 0.62645 0.95695 0.0
H563 H 0.20058 0.63003 0.95635 0.0
H564 H 0.24413 0.63052 0.88855 0.0
S565 S 0.30298 0.61757 0.11473 0.0
N566 N 0.26497 0.61977 0.11721 0.0
N567 N 0.31226 0.62013 0.04365 0.0
C568 C 0.28386 0.62277 0.01851 0.0
C569 C 0.25822 0.62263 0.0584 0.0
C570 C 0.12168 0.47022 0.72642 0.0
C571 C 0.12024 0.47362 0.78857 0.0
C572 C 0.12238 0.496 0.6889 0.0
C573 C 0.1219 0.52615 0.71209 0.0
H574 H 0.12078 0.44751 0.70634 0.0
H575 H 0.12213 0.4922 0.64126 0.0
S576 S 0.1222 0.54754 0.87205 0.0
N577 N 0.12131 0.50945 0.87194 0.0
N578 N 0.12284 0.55792 0.80138 0.0
C579 C 0.12253 0.52988 0.77426 0.0
C580 C 0.12163 0.5036 0.81251 0.0
C581 C 0.2287 0.38076 0.51482 0.0
C582 C 0.23104 0.37796 0.45267 0.0
C583 C 0.25485 0.3788 0.55114 0.0
C584 C 0.28438 0.37428 0.52671 0.0
H585 H 0.20635 0.38302 0.53598 0.0
H586 H 0.2517 0.37982 0.59892 0.0
S587 S 0.30346 0.36926 0.36603 0.0
N588 N 0.26557 0.37314 0.36777 0.0
N589 N 0.31482 0.36977 0.43616 0.0
C590 C 0.28733 0.37344 0.46442 0.0
C591 C 0.26062 0.37519 0.42735 0.0
C592 C 0.13573 0.21262 0.32126 0.0
C593 C 0.13065 0.19815 0.37632 0.0
C594 C 0.14101 0.24454 0.31788 0.0
C595 C 0.14195 0.26294 0.36955 0.0
H596 H 0.1347 0.19938 0.28042 0.0
H597 H 0.1441 0.25489 0.27442 0.0
S598 S 0.13291 0.23529 0.525 0.0
N599 N 0.12867 0.20406 0.4838 0.0
N600 N 0.13912 0.26378 0.47773 0.0
C601 C 0.13807 0.24841 0.42504 0.0
C602 C 0.13227 0.21608 0.42834 0.0
C603 C 0.00791 0.89667 0.5873 0.0
C604 C 0.98735 0.88687 0.63196 0.0
C605 C 0.0397 0.89101 0.59175 0.0
C606 C 0.05207 0.87503 0.64072 0.0
H607 H 0.99936 0.90848 0.54813 0.0
H608 H 0.05457 0.89859 0.55588 0.0
S609 S 0.00841 0.84589 0.77131 0.0
N610 N 0.98192 0.86156 0.72806 0.0
N611 N 0.04148 0.85071 0.73615 0.0
C612 C 0.03188 0.86571 0.68634 0.0
C613 C 0.99958 0.8717 0.68205 0.0
C614 C 0.36169 0.78972 0.9193 0.0
C615 C 0.3652 0.80928 0.86984 0.0
C616 C 0.35624 0.75813 0.91228 0.0
C617 C 0.3542 0.74472 0.85547 0.0
H618 H 0.36388 0.79873 0.96407 0.0
H619 H 0.35441 0.74401 0.95191 0.0
S620 S 0.36008 0.78613 0.71124 0.0
N621 N 0.36484 0.81331 0.76193 0.0
N622 N 0.35467 0.75374 0.74854 0.0
C623 C 0.35647 0.76418 0.80545 0.0
C624 C 0.36192 0.79652 0.81268 0.0
C625 C 0.44882 0.11718 0.07382 0.0
C626 C 0.43733 0.1295 0.12732 0.0
C627 C 0.48034 0.11051 0.06695 0.0
C628 C 0.50147 0.1157 0.1135 0.0
H629 H 0.43345 0.11306 0.03666 0.0
H630 H 0.48818 0.10138 0.02472 0.0
S631 S 0.48273 0.14591 0.26388 0.0
N632 N 0.44938 0.14546 0.2285 0.0
N633 N 0.50834 0.13286 0.21575 0.0
C634 C 0.49012 0.12743 0.16762 0.0
C635 C 0.45814 0.13435 0.17448 0.0
C636 C 0.13068 0.75497 0.08311 0.0
C637 C 0.14595 0.74279 0.13305 0.0
C638 C 0.12422 0.78652 0.07864 0.0
C639 C 0.13303 0.80728 0.12363 0.0
H640 H 0.12302 0.73996 0.04751 0.0
H641 H 0.11202 0.79462 0.03956 0.0
S642 S 0.17489 0.78747 0.26249 0.0
N643 N 0.1706 0.75412 0.22788 0.0
N644 N 0.15874 0.81362 0.21903 0.0
C645 C 0.14904 0.79562 0.17321 0.0
C646 C 0.1554 0.76332 0.17805 0.0
C647 C 0.49302 0.86316 0.35581 0.0
C648 C 0.50429 0.88253 0.40101 0.0
C649 C 0.46141 0.85793 0.34892 0.0
C650 C 0.43966 0.87198 0.3867 0.0
H651 H 0.50873 0.85199 0.32511 0.0
H652 H 0.454 0.84292 0.31312 0.0
S653 S 0.45709 0.92444 0.51278 0.0
N654 N 0.49122 0.91557 0.48492 0.0
N655 N 0.4316 0.90583 0.47164 0.0
C656 C 0.45053 0.89125 0.43247 0.0
C657 C 0.48288 0.89647 0.43974 0.0
C658 C 0.38859 0.21129 0.56888 0.0
C659 C 0.3779 0.19006 0.61152 0.0
C660 C 0.3822 0.24284 0.57381 0.0
C661 C 0.36499 0.25457 0.62178 0.0
H662 H 0.40228 0.20357 0.5314 0.0
H663 H 0.39136 0.25821 0.54015 0.0
S664 S 0.33044 0.20864 0.74424 0.0
N665 N 0.34825 0.18288 0.70237 0.0
N666 N 0.3364 0.24234 0.71191 0.0
C667 C 0.35363 0.23359 0.66429 0.0
C668 C 0.36003 0.20132 0.65908 0.0
C669 C 0.04235 0.10261 0.91353 0.0
C670 C 0.05572 0.10724 0.85726 0.0
C671 C 0.01054 0.0974 0.91947 0.0
C672 C 0.99105 0.09649 0.86933 0.0
H673 H 0.05623 0.10458 0.95343 0.0
H674 H 0.00102 0.09531 0.96385 0.0
S675 S 0.01572 0.1024 0.71154 0.0
N676 N 0.04777 0.10712 0.75015 0.0
N677 N 0.98815 0.09717 0.76119 0.0
C678 C 0.00455 0.09903 0.81263 0.0
C679 C 0.03685 0.10444 0.80664 0.0
C680 C 0.87133 0.7494 0.58291 0.0
C681 C 0.85524 0.73685 0.63152 0.0
C682 C 0.87769 0.78098 0.5796 0.0
C683 C 0.86795 0.80143 0.62445 0.0
H684 H 0.8797 0.73464 0.5475 0.0
H685 H 0.89051 0.78938 0.54153 0.0
S686 S 0.82383 0.78059 0.76004 0.0
N687 N 0.8289 0.74748 0.72495 0.0
N688 N 0.84057 0.80709 0.71825 0.0
C689 C 0.85115 0.78941 0.67267 0.0
C690 C 0.84489 0.75706 0.67635 0.0
C691 C 0.96828 0.13287 0.31925 0.0
C692 C 0.94764 0.12484 0.36497 0.0
C693 C 0.99979 0.12623 0.32362 0.0
C694 C 0.01204 0.11153 0.37416 0.0
H695 H 0.96012 0.14465 0.27974 0.0
H696 H 0.01473 0.13333 0.2875 0.0
S697 S 0.96768 0.08477 0.5057 0.0
N698 N 0.94148 0.1005 0.46176 0.0
N699 N 0.00089 0.08827 0.47036 0.0
C700 C 0.9916 0.1028 0.41984 0.0
C701 C 0.95936 0.10937 0.41514 0.0
C702 C 0.63598 0.23425 0.17321 0.0
C703 C 0.63653 0.25425 0.12382 0.0
C704 C 0.6298 0.20265 0.16638 0.0
C705 C 0.62382 0.18999 0.10996 0.0
H706 H 0.6396 0.24317 0.21769 0.0
H707 H 0.62879 0.18826 0.20575 0.0
S708 S 0.62597 0.23172 0.9657 0.0
N709 N 0.63303 0.25852 0.01604 0.0
N710 N 0.62136 0.19934 0.00332 0.0
C711 C 0.62554 0.20949 0.06 0.0
C712 C 0.63192 0.24156 0.0669 0.0
C713 C 0.53775 0.85368 0.87932 0.0
C714 C 0.55908 0.87738 0.89059 0.0
C715 C 0.50603 0.85879 0.8838 0.0
C716 C 0.49417 0.88789 0.8995 0.0
H717 H 0.54558 0.8309 0.86633 0.0
H718 H 0.49067 0.83973 0.87409 0.0
S719 S 0.54024 0.95774 0.93461 0.0
N720 N 0.56626 0.93102 0.91926 0.0
N721 N 0.50632 0.94076 0.92753 0.0
C722 C 0.5152 0.91177 0.91205 0.0
C723 C 0.54772 0.90648 0.90767 0.0
C724 C 0.84777 0.23484 0.8238 0.0
C725 C 0.86198 0.2568 0.86091 0.0
C726 C 0.85495 0.2033 0.82841 0.0
C727 C 0.87692 0.19263 0.86973 0.0
H728 H 0.83078 0.24201 0.79126 0.0
H729 H 0.84324 0.1872 0.79929 0.0
S730 S 0.92141 0.24096 0.97595 0.0
N731 N 0.89941 0.26571 0.93969 0.0
N732 N 0.91314 0.20677 0.94793 0.0
C733 C 0.89152 0.21445 0.90663 0.0
C734 C 0.88398 0.24643 0.90236 0.0
C735 C 0.53978 0.13149 0.66518 0.0
C736 C 0.56148 0.1215 0.62279 0.0
C737 C 0.50843 0.1244 0.65944 0.0
C738 C 0.49741 0.10731 0.61073 0.0
H739 H 0.54699 0.14504 0.70322 0.0
H740 H 0.49266 0.13296 0.69299 0.0
S741 S 0.5448 0.07477 0.48823 0.0
N742 N 0.5699 0.09276 0.53124 0.0
N743 N 0.51079 0.07974 0.51999 0.0
C744 C 0.51887 0.09676 0.56833 0.0
C745 C 0.55095 0.10375 0.5745 0.0
C746 C 0.63368 0.75814 0.42026 0.0
C747 C 0.64175 0.74607 0.36431 0.0
C748 C 0.62706 0.78951 0.42764 0.0
C749 C 0.62833 0.81021 0.37945 0.0
H750 H 0.63175 0.74313 0.45863 0.0
H751 H 0.62038 0.79745 0.47149 0.0
S752 S 0.65018 0.79077 0.22427 0.0
N753 N 0.65206 0.75757 0.26018 0.0
N754 N 0.63969 0.81668 0.27421 0.0
C755 C 0.63736 0.79872 0.32357 0.0
C756 C 0.64404 0.76663 0.31597 0.0
C757 C 0.96073 0.89051 0.08654 0.0
C758 C 0.94865 0.87636 0.13778 0.0
C759 C 0.99229 0.89729 0.08195 0.0
C760 C 0.01285 0.89052 0.12871 0.0
H761 H 0.94587 0.89561 0.04905 0.0
H762 H 0.00068 0.90747 0.04102 0.0
S763 S 0.99217 0.85595 0.27453 0.0
N764 N 0.95929 0.85747 0.23762 0.0
N765 N 0.01841 0.87049 0.22931 0.0
C766 C 0.0008 0.87743 0.18106 0.0
C767 C 0.96876 0.87027 0.18549 0.0
C768 C 0.63415 0.74962 0.91839 0.0
C769 C 0.64713 0.76266 0.86685 0.0
C770 C 0.62705 0.71817 0.92132 0.0
C771 C 0.63299 0.69833 0.87314 0.0
H772 H 0.62858 0.76396 0.95641 0.0
H773 H 0.61655 0.70941 0.96167 0.0
S774 S 0.66847 0.72044 0.72913 0.0
N775 N 0.66678 0.75302 0.76714 0.0
N776 N 0.65384 0.69365 0.77311 0.0
C777 C 0.64694 0.71076 0.822 0.0
C778 C 0.65387 0.74298 0.81872 0.0
C779 C 0.50955 0.39958 0.07904 0.0
C780 C 0.48805 0.39146 0.12331 0.0
C781 C 0.54094 0.39228 0.08506 0.0
C782 C 0.55191 0.37625 0.1352 0.0
H783 H 0.50204 0.41131 0.03901 0.0
H784 H 0.55657 0.39858 0.04948 0.0
S785 S 0.50548 0.35129 0.26538 0.0
N786 N 0.48031 0.36779 0.22038 0.0
N787 N 0.5391 0.35381 0.23129 0.0
C788 C 0.5308 0.36863 0.18041 0.0
C789 C 0.49893 0.37632 0.17459 0.0
C790 C 0.86133 0.26737 0.32663 0.0
C791 C 0.86744 0.24633 0.37295 0.0
C792 C 0.86802 0.29892 0.33282 0.0
C793 C 0.8814 0.31048 0.38525 0.0
H794 H 0.85151 0.25942 0.28506 0.0
H795 H 0.86312 0.31424 0.29592 0.0
S796 S 0.90059 0.26534 0.52084 0.0
N797 N 0.88658 0.23964 0.47393 0.0
N798 N 0.89938 0.29863 0.48528 0.0
C799 C 0.8872 0.28977 0.43221 0.0
C800 C 0.88014 0.25778 0.42614 0.0
C801 C 0.96269 0.63073 0.66512 0.0
C802 C 0.94169 0.61842 0.62373 0.0
C803 C 0.99435 0.62497 0.66061 0.0
C804 C 0.00643 0.60686 0.61423 0.0
H805 H 0.95468 0.64514 0.70136 0.0
H806 H 0.00951 0.63533 0.69331 0.0
S807 S 0.96124 0.56818 0.4954 0.0
N808 N 0.93509 0.58637 0.53577 0.0
N809 N 0.99482 0.57577 0.5269 0.0
C810 C 0.98571 0.59396 0.57292 0.0
C811 C 0.9533 0.59966 0.57779 0.0
C812 C 0.63097 0.25495 0.585 0.0
C813 C 0.64638 0.24271 0.63474 0.0
C814 C 0.62472 0.28651 0.58045 0.0
C815 C 0.63388 0.3073 0.62513 0.0
H816 H 0.62307 0.23997 0.54955 0.0
H817 H 0.61244 0.29461 0.54146 0.0
S818 S 0.67607 0.28739 0.76355 0.0
N819 N 0.67142 0.254 0.7292 0.0
N820 N 0.65996 0.31361 0.72014 0.0
C821 C 0.64999 0.29561 0.67456 0.0
C822 C 0.65613 0.26325 0.67952 0.0
C823 C 0.97944 0.39423 0.92087 0.0
C824 C 0.99852 0.39686 0.87039 0.0
C825 C 0.94787 0.38769 0.91531 0.0
C826 C 0.93439 0.38327 0.85911 0.0
H827 H 0.98909 0.39623 0.96515 0.0
H828 H 0.93427 0.38481 0.95535 0.0
S829 S 0.97314 0.39183 0.71286 0.0
N830 N 0.00077 0.39763 0.76215 0.0
N831 N 0.94161 0.38508 0.75191 0.0
C832 C 0.95279 0.38742 0.80825 0.0
C833 C 0.98483 0.39431 0.81383 0.0
C834 C 0.85691 0.73366 0.15983 0.0
C835 C 0.86534 0.755 0.11549 0.0
C836 C 0.86292 0.70204 0.15319 0.0
C837 C 0.87782 0.69058 0.10219 0.0
H838 H 0.84596 0.74146 0.20047 0.0
H839 H 0.85644 0.68658 0.18895 0.0
S840 S 0.90295 0.73649 0.97137 0.0
N841 N 0.88805 0.76215 0.01743 0.0
N842 N 0.89952 0.70286 0.00518 0.0
C843 C 0.88569 0.71155 0.05683 0.0
C844 C 0.87939 0.7437 0.0634 0.0
C845 C 0.53366 0.6377 0.32421 0.0
C846 C 0.55501 0.62657 0.36624 0.0
C847 C 0.50216 0.63116 0.32908 0.0
C848 C 0.49059 0.61344 0.37649 0.0
H849 H 0.5413 0.6517 0.28709 0.0
H850 H 0.48671 0.64054 0.29576 0.0
S851 S 0.53684 0.5783 0.49802 0.0
N852 N 0.56246 0.5964 0.45636 0.0
N853 N 0.50308 0.58434 0.46596 0.0
C854 C 0.51168 0.60185 0.41863 0.0
C855 C 0.54391 0.60834 0.41338 0.0
C856 C 0.37516 0.28977 0.07342 0.0
C857 C 0.36652 0.31124 0.1173 0.0
C858 C 0.36827 0.25841 0.07939 0.0
C859 C 0.35274 0.24714 0.12982 0.0
H860 H 0.38757 0.29717 0.03409 0.0
H861 H 0.37582 0.2428 0.04466 0.0
S862 S 0.32407 0.29395 0.25669 0.0
N863 N 0.34067 0.31927 0.21208 0.0
N864 N 0.328 0.26009 0.2238 0.0
C865 C 0.34344 0.2684 0.17368 0.0
C866 C 0.35022 0.30051 0.16727 0.0
C867 C 0.46609 0.6391 0.82142 0.0
C868 C 0.44504 0.62735 0.86334 0.0
C869 C 0.4977 0.63286 0.82569 0.0
C870 C 0.50964 0.61482 0.87235 0.0
H871 H 0.45815 0.65332 0.78485 0.0
H872 H 0.51293 0.6427 0.79253 0.0
S873 S 0.46426 0.57799 0.99312 0.0
N874 N 0.43827 0.59623 0.95246 0.0
N875 N 0.49782 0.58473 0.9609 0.0
C876 C 0.48885 0.60263 0.91435 0.0
C877 C 0.45653 0.60883 0.90973 0.0
C878 C 0.1174 0.71378 0.57462 0.0
C879 C 0.12745 0.69262 0.61797 0.0
C880 C 0.1237 0.74533 0.57976 0.0
C881 C 0.14009 0.75709 0.62874 0.0
H882 H 0.10427 0.706 0.53645 0.0
H883 H 0.115 0.76067 0.54558 0.0
S884 S 0.17274 0.71128 0.75338 0.0
N885 N 0.15568 0.68548 0.7105 0.0
N886 N 0.16728 0.74494 0.72055 0.0
C887 C 0.15089 0.73615 0.67188 0.0
C888 C 0.14465 0.70388 0.66638 0.0
C889 C 0.04368 0.37396 0.44238 0.0
C890 C 0.06205 0.38926 0.40016 0.0
C891 C 0.01209 0.38041 0.4475 0.0
C892 C 0.99766 0.40169 0.40928 0.0
H893 H 0.05368 0.35642 0.47087 0.0
H894 H 0.99862 0.36756 0.47966 0.0
S895 S 0.03576 0.44881 0.29291 0.0
N896 N 0.0639 0.42781 0.32159 0.0
N897 N 0.00425 0.43906 0.32971 0.0
C898 C 0.0159 0.41773 0.36795 0.0
C899 C 0.04821 0.41176 0.36381 0.0
C900 C 0.35488 0.70805 0.33129 0.0
C901 C 0.36598 0.69532 0.38468 0.0
C902 C 0.3479 0.73959 0.32699 0.0
C903 C 0.3514 0.75942 0.37617 0.0
H904 H 0.35254 0.69378 0.29197 0.0
H905 H 0.34038 0.74859 0.28443 0.0
S906 S 0.37641 0.73655 0.52801 0.0
N907 N 0.37794 0.70433 0.48895 0.0
N908 N 0.36449 0.76341 0.48126 0.0
C909 C 0.36108 0.7466 0.43061 0.0
C910 C 0.36849 0.7146 0.43476 0.0
C911 C 0.00811 0.62486 0.15847 0.0
C912 C 0.99728 0.60722 0.11031 0.0
C913 C 0.03944 0.63184 0.16463 0.0
C914 C 0.06134 0.62121 0.12324 0.0
H915 H 0.9922 0.63392 0.1913 0.0
H916 H 0.04649 0.64582 0.2022 0.0
S917 S 0.04523 0.57301 0.99034 0.0
N918 N 0.01106 0.57852 0.0211 0.0
N919 N 0.07017 0.59136 0.03315 0.0
C920 C 0.05101 0.60294 0.07549 0.0
C921 C 0.01893 0.59604 0.06888 0.0
C922 C 0.14678 0.26229 0.83562 0.0
C923 C 0.12448 0.23997 0.8504 0.0
C924 C 0.1402 0.29396 0.83992 0.0
C925 C 0.11109 0.30439 0.85911 0.0
H926 H 0.16966 0.25528 0.82167 0.0
H927 H 0.15826 0.31034 0.82939 0.0
S928 S 0.04379 0.2553 0.89778 0.0
N929 N 0.07148 0.2306 0.8813 0.0
N930 N 0.05917 0.28983 0.88925 0.0
C931 C 0.08831 0.28228 0.87214 0.0
C932 C 0.09499 0.25015 0.86783 0.0
C933 C 0.46239 0.38945 0.57985 0.0
C934 C 0.44976 0.37651 0.63176 0.0
C935 C 0.49396 0.39632 0.5761 0.0
C936 C 0.51395 0.39083 0.62437 0.0
H937 H 0.44798 0.39354 0.54126 0.0
H938 H 0.50281 0.40552 0.53467 0.0
S939 S 0.49162 0.35988 0.77229 0.0
N940 N 0.45921 0.36024 0.73374 0.0
N941 N 0.51835 0.37341 0.72698 0.0
C942 C 0.50132 0.37899 0.67731 0.0
C943 C 0.46928 0.37174 0.68092 0.0
C944 C 0.14023 0.07982 0.59819 0.0
C945 C 0.15113 0.09945 0.55314 0.0
C946 C 0.14597 0.08627 0.65818 0.0
C947 C 0.16219 0.11297 0.67507 0.0
H948 H 0.12563 0.06034 0.5872 0.0
H949 H 0.13547 0.07155 0.69146 0.0
S950 S 0.19919 0.16944 0.57374 0.0
N951 N 0.18207 0.14457 0.52895 0.0
N952 N 0.19222 0.15712 0.64196 0.0
C953 C 0.17536 0.13139 0.63032 0.0
C954 C 0.16999 0.12449 0.56916 0.0
C955 C 0.13648 0.91581 0.83028 0.0
C956 C 0.15811 0.8931 0.81415 0.0
C957 C 0.13071 0.92254 0.89016 0.0
C958 C 0.14673 0.90718 0.93582 0.0
H959 H 0.12219 0.92675 0.7968 0.0
H960 H 0.1123 0.93856 0.90075 0.0
S961 S 0.20987 0.85018 0.91622 0.0
N962 N 0.19857 0.85839 0.84786 0.0
N963 N 0.18819 0.87148 0.96056 0.0
C964 C 0.17063 0.88679 0.92003 0.0
C965 C 0.17618 0.8796 0.85904 0.0
C966 C 0.33614 0.89163 0.08202 0.0
C967 C 0.36154 0.91046 0.06796 0.0
C968 C 0.32874 0.88492 0.14124 0.0
C969 C 0.34608 0.89729 0.18838 0.0
H970 H 0.32326 0.88015 0.04716 0.0
H971 H 0.31032 0.86866 0.15001 0.0
S972 S 0.4114 0.95219 0.17509 0.0
N973 N 0.40166 0.94437 0.10568 0.0
N974 N 0.38729 0.93238 0.21721 0.0
C975 C 0.36966 0.91848 0.175 0.0
C976 C 0.37754 0.92489 0.11463 0.0
C977 C 0.33416 0.11049 0.41771 0.0
C978 C 0.35813 0.08927 0.42803 0.0
C979 C 0.32576 0.11877 0.35973 0.0
C980 C 0.3406 0.10561 0.31024 0.0
H981 H 0.3235 0.12268 0.45445 0.0
H982 H 0.30883 0.13691 0.35371 0.0
S983 S 0.40078 0.04467 0.31375 0.0
N984 N 0.39374 0.05228 0.38445 0.0
N985 N 0.37743 0.06725 0.27527 0.0
C986 C 0.36233 0.08202 0.31999 0.0
C987 C 0.37127 0.074 0.37906 0.0
C988 C 0.86359 0.91001 0.33264 0.0
C989 C 0.84366 0.88595 0.31583 0.0
C990 C 0.86903 0.91659 0.39273 0.0
C991 C 0.85426 0.89974 0.43795 0.0
H992 H 0.8768 0.92239 0.29942 0.0
H993 H 0.88612 0.93389 0.4038 0.0
S994 S 0.79621 0.8378 0.41691 0.0
N995 N 0.80646 0.84763 0.34874 0.0
N996 N 0.81615 0.86042 0.46178 0.0
C997 C 0.83216 0.87755 0.42163 0.0
C998 C 0.82701 0.87052 0.36044 0.0
C999 C 0.87063 0.08056 0.10692 0.0
C1000 C 0.85582 0.09632 0.06027 0.0
C1001 C 0.86453 0.08792 0.16641 0.0
C1002 C 0.84378 0.11167 0.18123 0.0
H1003 H 0.8883 0.06355 0.09745 0.0
H1004 H 0.87787 0.07646 0.2007 0.0
S1005 S 0.79529 0.15642 0.07613 0.0
N1006 N 0.81641 0.13385 0.03314 0.0
N1007 N 0.80546 0.14811 0.1451 0.0
C1008 C 0.82695 0.12582 0.13529 0.0
C1009 C 0.83282 0.11801 0.07468 0.0
C1010 C 0.63462 0.08113 0.82158 0.0
C1011 C 0.65822 0.10267 0.81068 0.0
C1012 C 0.62568 0.07386 0.87979 0.0
C1013 C 0.6405 0.08736 0.92895 0.0
H1014 H 0.62126 0.07173 0.78509 0.0
H1015 H 0.60585 0.05902 0.88626 0.0
S1016 S 0.70736 0.14077 0.92384 0.0
N1017 N 0.69881 0.13433 0.85333 0.0
N1018 N 0.68263 0.12006 0.9629 0.0
C1019 C 0.66621 0.10643 0.91858 0.0
C1020 C 0.67491 0.11428 0.85929 0.0
C1021 C 0.66305 0.89769 0.58622 0.0
C1022 C 0.63796 0.91705 0.57255 0.0
C1023 C 0.67018 0.8903 0.64528 0.0
C1024 C 0.65287 0.9025 0.69266 0.0
H1025 H 0.67573 0.88615 0.55112 0.0
H1026 H 0.68827 0.87358 0.65366 0.0
S1027 S 0.58867 0.95888 0.68059 0.0
N1028 N 0.59844 0.95148 0.61102 0.0
N1029 N 0.61231 0.93823 0.72228 0.0
C1030 C 0.6298 0.92436 0.67978 0.0
C1031 C 0.62221 0.93148 0.61955 0.0
C1032 C 0.62878 0.58241 0.10145 0.0
C1033 C 0.64493 0.59751 0.05569 0.0
C1034 C 0.63505 0.58873 0.1613 0.0
C1035 C 0.65735 0.61075 0.17735 0.0
H1036 H 0.60992 0.56693 0.09101 0.0
H1037 H 0.62069 0.578 0.1949 0.0
S1038 S 0.70961 0.65269 0.07482 0.0
N1039 N 0.68713 0.63219 0.03062 0.0
N1040 N 0.69851 0.64449 0.14329 0.0
C1041 C 0.67551 0.62396 0.13227 0.0
C1042 C 0.66942 0.61719 0.07129 0.0
C1043 C 0.63314 0.42079 0.38872 0.0
C1044 C 0.64833 0.40481 0.43462 0.0
C1045 C 0.63858 0.41355 0.32896 0.0
C1046 C 0.659 0.38969 0.31313 0.0
H1047 H 0.61558 0.43778 0.39908 0.0
H1048 H 0.62489 0.42513 0.29533 0.0
S1049 S 0.70831 0.34443 0.41598 0.0
N1050 N 0.68778 0.36703 0.45997 0.0
N1051 N 0.69753 0.35299 0.34746 0.0
C1052 C 0.67631 0.37541 0.35827 0.0
C1053 C 0.67112 0.38312 0.41917 0.0
C1054 C 0.82161 0.38155 0.6331 0.0
C1055 C 0.83456 0.39654 0.68255 0.0
C1056 C 0.82986 0.38997 0.57515 0.0
C1057 C 0.85182 0.41325 0.56485 0.0
H1058 H 0.80659 0.36182 0.63922 0.0
H1059 H 0.82097 0.37629 0.53863 0.0
S1060 S 0.88807 0.46335 0.67884 0.0
N1061 N 0.8667 0.43893 0.71731 0.0
N1062 N 0.88274 0.45428 0.60822 0.0
C1063 C 0.86254 0.43047 0.61361 0.0
C1064 C 0.85375 0.42222 0.67265 0.0
C1065 C 0.83512 0.60553 0.91413 0.0
C1066 C 0.85879 0.58444 0.92756 0.0
C1067 C 0.82728 0.61211 0.85506 0.0
C1068 C 0.84245 0.59743 0.80754 0.0
H1069 H 0.82432 0.61894 0.94909 0.0
H1070 H 0.81061 0.63024 0.84659 0.0
S1071 S 0.90139 0.53557 0.81986 0.0
N1072 N 0.89402 0.54554 0.88935 0.0
N1073 N 0.87879 0.55735 0.77815 0.0
C1074 C 0.86369 0.57381 0.82063 0.0
C1075 C 0.87203 0.56747 0.8808 0.0
C1076 C 0.36629 0.41489 0.81934 0.0
C1077 C 0.34496 0.39174 0.80428 0.0
C1078 C 0.37188 0.42254 0.87888 0.0
C1079 C 0.35592 0.40772 0.92521 0.0
H1080 H 0.38047 0.42554 0.78535 0.0
H1081 H 0.39005 0.43892 0.88877 0.0
S1082 S 0.29383 0.34945 0.90829 0.0
N1083 N 0.30508 0.35687 0.83958 0.0
N1084 N 0.31505 0.37173 0.95159 0.0
C1085 C 0.3324 0.38673 0.91037 0.0
C1086 C 0.32708 0.37858 0.84977 0.0
C1087 C 0.32545 0.61885 0.63315 0.0
C1088 C 0.34184 0.60432 0.67936 0.0
C1089 C 0.33165 0.61193 0.5735 0.0
C1090 C 0.35474 0.59057 0.55817 0.0
H1091 H 0.30919 0.63717 0.6429 0.0
H1092 H 0.32009 0.62531 0.5394 0.0
S1093 S 0.3997 0.54174 0.66228 0.0
N1094 N 0.3785 0.56396 0.70579 0.0
N1095 N 0.39054 0.55146 0.59347 0.0
C1096 C 0.36903 0.57366 0.60383 0.0
C1097 C 0.36243 0.5804 0.6646 0.0
C1098 C 0.12963 0.5776 0.38674 0.0
C1099 C 0.14489 0.5923 0.43409 0.0
C1100 C 0.13734 0.58411 0.32758 0.0
C1101 C 0.16021 0.60597 0.31385 0.0
H1102 H 0.11039 0.56228 0.39531 0.0
H1103 H 0.12363 0.57373 0.29259 0.0
S1104 S 0.21051 0.64687 0.42141 0.0
N1105 N 0.18686 0.62639 0.46331 0.0
N1106 N 0.20087 0.63913 0.35192 0.0
C1107 C 0.17745 0.61878 0.36065 0.0
C1108 C 0.16993 0.61178 0.42093 0.0
C1109 C 0.16055 0.3709 0.13567 0.0
C1110 C 0.14834 0.38921 0.18163 0.0
C1111 C 0.15308 0.37668 0.07609 0.0
C1112 C 0.13274 0.40066 0.06053 0.0
H1113 H 0.17506 0.35123 0.14587 0.0
H1114 H 0.16195 0.36113 0.04241 0.0
S1115 S 0.09743 0.45754 0.16333 0.0
N1116 N 0.11736 0.43425 0.207 0.0
N1117 N 0.10289 0.44466 0.09499 0.0
C1118 C 0.12182 0.42026 0.10563 0.0
C1119 C 0.12977 0.41466 0.16625 0.0
loop_
_geom_bond_atom_site_label_1
_geom_bond_atom_site_label_2
_geom_bond_distance
_geom_bond_site_symmetry_2
_ccdc_geom_bond_type
In0 O1 2.294 . S
In0 O2 2.326 . S
In0 O6 2.266 . S
In0 O7 2.326 . S
In0 O8 2.266 . S
In0 O9 2.326 . S
In0 O11 2.294 . S
In0 O12 2.326 . S
O1 In0 2.294 . S
O1 C10 1.240 . S
O2 In0 2.326 . S
O2 C10 1.252 . S
C3 O6 1.252 . S
C3 O7 1.260 . S
C4 O11 1.240 . S
C4 O12 1.252 . S
C5 O8 1.252 . S
C5 O9 1.260 . S
O6 In0 2.266 . S
O6 C3 1.252 . S
O7 In0 2.326 . S
O7 C3 1.260 . S
O8 In0 2.266 . S
O8 C5 1.252 . S
O9 In0 2.326 . S
O9 C5 1.260 . S
C10 O1 1.240 . S
C10 O2 1.252 . S
O11 In0 2.294 . S
O11 C4 1.240 . S
O12 In0 2.326 . S
O12 C4 1.252 . S
In13 O14 2.294 . S
In13 O15 2.326 . S
In13 O19 2.266 . S
In13 O20 2.326 . S
In13 O21 2.266 . S
In13 O22 2.326 . S
In13 O24 2.294 . S
In13 O25 2.326 . S
O14 In13 2.294 . S
O14 C23 1.240 . S
O15 In13 2.326 . S
O15 C23 1.252 . S
C16 O19 1.252 . S
C16 O20 1.260 . S
C17 O24 1.240 . S
C17 O25 1.252 . S
C18 O21 1.252 . S
C18 O22 1.260 . S
O19 In13 2.266 . S
O19 C16 1.252 . S
O20 In13 2.326 . S
O20 C16 1.260 . S
O21 In13 2.266 . S
O21 C18 1.252 . S
O22 In13 2.326 . S
O22 C18 1.260 . S
C23 O14 1.240 . S
C23 O15 1.252 . S
O24 In13 2.294 . S
O24 C17 1.240 . S
O25 In13 2.326 . S
O25 C17 1.252 . S
In26 O27 2.294 . S
In26 O28 2.326 . S
In26 O32 2.266 1_556 S
In26 O33 2.326 . S
In26 O34 2.266 . S
In26 O35 2.326 . S
In26 O37 2.294 . S
In26 O38 2.326 . S
O27 In26 2.294 . S
O27 C36 1.240 . S
O28 In26 2.326 . S
O28 C36 1.252 . S
C29 O32 1.252 . S
C29 O33 1.260 1_554 S
C30 O37 1.240 . S
C30 O38 1.252 . S
C31 O34 1.252 . S
C31 O35 1.260 . S
O32 In26 2.266 1_554 S
O32 C29 1.252 . S
O33 In26 2.326 . S
O33 C29 1.260 1_556 S
O34 In26 2.266 . S
O34 C31 1.252 . S
O35 In26 2.326 . S
O35 C31 1.260 . S
C36 O27 1.240 . S
C36 O28 1.252 . S
O37 In26 2.294 . S
O37 C30 1.240 . S
O38 In26 2.326 . S
O38 C30 1.252 . S
In39 O40 2.294 . S
In39 O41 2.326 . S
In39 O45 2.266 . S
In39 O46 2.326 . S
In39 O47 2.266 . S
In39 O48 2.326 . S
In39 O50 2.294 . S
In39 O51 2.326 . S
O40 In39 2.294 . S
O40 C49 1.240 . S
O41 In39 2.326 . S
O41 C49 1.252 . S
C42 O45 1.252 . S
C42 O46 1.260 . S
C43 O50 1.240 . S
C43 O51 1.252 . S
C44 O47 1.252 . S
C44 O48 1.260 . S
O45 In39 2.266 . S
O45 C42 1.252 . S
O46 In39 2.326 . S
O46 C42 1.260 . S
O47 In39 2.266 . S
O47 C44 1.252 . S
O48 In39 2.326 . S
O48 C44 1.260 . S
C49 O40 1.240 . S
C49 O41 1.252 . S
O50 In39 2.294 . S
O50 C43 1.240 . S
O51 In39 2.326 . S
O51 C43 1.252 . S
In52 O53 2.294 . S
In52 O54 2.326 . S
In52 O58 2.266 1_554 S
In52 O59 2.326 . S
In52 O60 2.266 . S
In52 O61 2.326 . S
In52 O63 2.294 . S
In52 O64 2.326 . S
O53 In52 2.294 . S
O53 C62 1.240 . S
O54 In52 2.326 . S
O54 C62 1.252 . S
C55 O58 1.252 . S
C55 O59 1.260 1_556 S
C56 O63 1.240 . S
C56 O64 1.252 . S
C57 O60 1.252 . S
C57 O61 1.260 . S
O58 In52 2.266 1_556 S
O58 C55 1.252 . S
O59 In52 2.326 . S
O59 C55 1.260 1_554 S
O60 In52 2.266 . S
O60 C57 1.252 . S
O61 In52 2.326 . S
O61 C57 1.260 . S
C62 O53 1.240 . S
C62 O54 1.252 . S
O63 In52 2.294 . S
O63 C56 1.240 . S
O64 In52 2.326 . S
O64 C56 1.252 . S
In65 O66 2.294 . S
In65 O67 2.326 . S
In65 O71 2.266 . S
In65 O72 2.326 . S
In65 O73 2.266 . S
In65 O74 2.326 . S
In65 O76 2.294 . S
In65 O77 2.326 . S
O66 In65 2.294 . S
O66 C75 1.240 . S
O67 In65 2.326 . S
O67 C75 1.252 . S
C68 O71 1.252 . S
C68 O72 1.260 . S
C69 O76 1.240 . S
C69 O77 1.252 . S
C70 O73 1.252 . S
C70 O74 1.260 . S
O71 In65 2.266 . S
O71 C68 1.252 . S
O72 In65 2.326 . S
O72 C68 1.260 . S
O73 In65 2.266 . S
O73 C70 1.252 . S
O74 In65 2.326 . S
O74 C70 1.260 . S
C75 O66 1.240 . S
C75 O67 1.252 . S
O76 In65 2.294 . S
O76 C69 1.240 . S
O77 In65 2.326 . S
O77 C69 1.252 . S
In78 O79 2.294 . S
In78 O80 2.326 . S
In78 O84 2.266 . S
In78 O85 2.326 . S
In78 O86 2.266 . S
In78 O87 2.326 . S
In78 O89 2.294 . S
In78 O90 2.326 . S
O79 In78 2.294 . S
O79 C88 1.240 . S
O80 In78 2.326 . S
O80 C88 1.252 . S
C81 O84 1.252 . S
C81 O85 1.260 . S
C82 O89 1.240 . S
C82 O90 1.252 . S
C83 O86 1.252 . S
C83 O87 1.260 . S
O84 In78 2.266 . S
O84 C81 1.252 . S
O85 In78 2.326 . S
O85 C81 1.260 . S
O86 In78 2.266 . S
O86 C83 1.252 . S
O87 In78 2.326 . S
O87 C83 1.260 . S
C88 O79 1.240 . S
C88 O80 1.252 . S
O89 In78 2.294 . S
O89 C82 1.240 . S
O90 In78 2.326 . S
O90 C82 1.252 . S
In91 O92 2.294 . S
In91 O93 2.326 . S
In91 O97 2.266 . S
In91 O98 2.326 . S
In91 O99 2.266 . S
In91 O100 2.326 . S
In91 O102 2.294 . S
In91 O103 2.326 . S
O92 In91 2.294 . S
O92 C101 1.240 . S
O93 In91 2.326 . S
O93 C101 1.252 . S
C94 O97 1.252 . S
C94 O98 1.260 . S
C95 O102 1.240 . S
C95 O103 1.252 . S
C96 O99 1.252 . S
C96 O100 1.260 . S
O97 In91 2.266 . S
O97 C94 1.252 . S
O98 In91 2.326 . S
O98 C94 1.260 . S
O99 In91 2.266 . S
O99 C96 1.252 . S
O100 In91 2.326 . S
O100 C96 1.260 . S
C101 O92 1.240 . S
C101 O93 1.252 . S
O102 In91 2.294 . S
O102 C95 1.240 . S
O103 In91 2.326 . S
O103 C95 1.252 . S
In104 O105 2.294 . S
In104 O106 2.326 . S
In104 O110 2.266 . S
In104 O111 2.326 . S
In104 O112 2.266 . S
In104 O113 2.326 . S
In104 O115 2.294 . S
In104 O116 2.326 . S
O105 In104 2.294 . S
O105 C114 1.240 . S
O106 In104 2.326 . S
O106 C114 1.252 . S
C107 O110 1.252 . S
C107 O111 1.260 . S
C108 O115 1.240 . S
C108 O116 1.252 . S
C109 O112 1.252 . S
C109 O113 1.260 . S
O110 In104 2.266 . S
O110 C107 1.252 . S
O111 In104 2.326 . S
O111 C107 1.260 . S
O112 In104 2.266 . S
O112 C109 1.252 . S
O113 In104 2.326 . S
O113 C109 1.260 . S
C114 O105 1.240 . S
C114 O106 1.252 . S
O115 In104 2.294 . S
O115 C108 1.240 . S
O116 In104 2.326 . S
O116 C108 1.252 . S
In117 O118 2.294 . S
In117 O119 2.326 . S
In117 O123 2.266 . S
In117 O124 2.326 . S
In117 O125 2.266 . S
In117 O126 2.326 . S
In117 O128 2.294 . S
In117 O129 2.326 . S
O118 In117 2.294 . S
O118 C127 1.240 . S
O119 In117 2.326 . S
O119 C127 1.252 . S
C120 O123 1.252 . S
C120 O124 1.260 . S
C121 O128 1.240 . S
C121 O129 1.252 . S
C122 O125 1.252 . S
C122 O126 1.260 . S
O123 In117 2.266 . S
O123 C120 1.252 . S
O124 In117 2.326 . S
O124 C120 1.260 . S
O125 In117 2.266 . S
O125 C122 1.252 . S
O126 In117 2.326 . S
O126 C122 1.260 . S
C127 O118 1.240 . S
C127 O119 1.252 . S
O128 In117 2.294 . S
O128 C121 1.240 . S
O129 In117 2.326 . S
O129 C121 1.252 . S
In130 O131 2.294 . S
In130 O132 2.326 . S
In130 O136 2.266 . S
In130 O137 2.326 . S
In130 O138 2.266 1_554 S
In130 O139 2.326 . S
In130 O141 2.294 . S
In130 O142 2.326 . S
O131 In130 2.294 . S
O131 C140 1.240 . S
O132 In130 2.326 . S
O132 C140 1.252 . S
C133 O136 1.252 . S
C133 O137 1.260 . S
C134 O141 1.240 . S
C134 O142 1.252 . S
C135 O138 1.252 . S
C135 O139 1.260 1_556 S
O136 In130 2.266 . S
O136 C133 1.252 . S
O137 In130 2.326 . S
O137 C133 1.260 . S
O138 In130 2.266 1_556 S
O138 C135 1.252 . S
O139 In130 2.326 . S
O139 C135 1.260 1_554 S
C140 O131 1.240 . S
C140 O132 1.252 . S
O141 In130 2.294 . S
O141 C134 1.240 . S
O142 In130 2.326 . S
O142 C134 1.252 . S
In143 O144 2.294 . S
In143 O145 2.326 . S
In143 O149 2.266 . S
In143 O150 2.326 . S
In143 O151 2.266 . S
In143 O152 2.326 . S
In143 O154 2.294 . S
In143 O155 2.326 . S
O144 In143 2.294 . S
O144 C153 1.240 . S
O145 In143 2.326 . S
O145 C153 1.252 . S
C146 O149 1.252 . S
C146 O150 1.260 . S
C147 O154 1.240 . S
C147 O155 1.252 . S
C148 O151 1.252 . S
C148 O152 1.260 . S
O149 In143 2.266 . S
O149 C146 1.252 . S
O150 In143 2.326 . S
O150 C146 1.260 . S
O151 In143 2.266 . S
O151 C148 1.252 . S
O152 In143 2.326 . S
O152 C148 1.260 . S
C153 O144 1.240 . S
C153 O145 1.252 . S
O154 In143 2.294 . S
O154 C147 1.240 . S
O155 In143 2.326 . S
O155 C147 1.252 . S
In156 O157 2.294 . S
In156 O158 2.326 . S
In156 O162 2.266 . S
In156 O163 2.326 . S
In156 O164 2.266 1_556 S
In156 O165 2.326 . S
In156 O167 2.294 . S
In156 O168 2.326 . S
O157 In156 2.294 . S
O157 C166 1.240 . S
O158 In156 2.326 . S
O158 C166 1.252 . S
C159 O162 1.252 . S
C159 O163 1.260 . S
C160 O167 1.240 . S
C160 O168 1.252 . S
C161 O164 1.252 . S
C161 O165 1.260 1_554 S
O162 In156 2.266 . S
O162 C159 1.252 . S
O163 In156 2.326 . S
O163 C159 1.260 . S
O164 In156 2.266 1_554 S
O164 C161 1.252 . S
O165 In156 2.326 . S
O165 C161 1.260 1_556 S
C166 O157 1.240 . S
C166 O158 1.252 . S
O167 In156 2.294 . S
O167 C160 1.240 . S
O168 In156 2.326 . S
O168 C160 1.252 . S
In169 O170 2.294 . S
In169 O171 2.326 . S
In169 O175 2.266 . S
In169 O176 2.326 . S
In169 O177 2.266 . S
In169 O178 2.326 . S
In169 O180 2.294 . S
In169 O181 2.326 . S
O170 In169 2.294 . S
O170 C179 1.240 . S
O171 In169 2.326 . S
O171 C179 1.252 . S
C172 O175 1.252 . S
C172 O176 1.260 . S
C173 O180 1.240 . S
C173 O181 1.252 . S
C174 O177 1.252 . S
C174 O178 1.260 . S
O175 In169 2.266 . S
O175 C172 1.252 . S
O176 In169 2.326 . S
O176 C172 1.260 . S
O177 In169 2.266 . S
O177 C174 1.252 . S
O178 In169 2.326 . S
O178 C174 1.260 . S
C179 O170 1.240 . S
C179 O171 1.252 . S
O180 In169 2.294 . S
O180 C173 1.240 . S
O181 In169 2.326 . S
O181 C173 1.252 . S
In182 O183 2.294 . S
In182 O184 2.326 . S
In182 O188 2.266 . S
In182 O189 2.326 . S
In182 O190 2.266 . S
In182 O191 2.326 . S
In182 O193 2.294 . S
In182 O194 2.326 . S
O183 In182 2.294 . S
O183 C192 1.240 . S
O184 In182 2.326 . S
O184 C192 1.252 . S
C185 O188 1.252 . S
C185 O189 1.260 . S
C186 O193 1.240 . S
C186 O194 1.252 . S
C187 O190 1.252 . S
C187 O191 1.260 . S
O188 In182 2.266 . S
O188 C185 1.252 . S
O189 In182 2.326 . S
O189 C185 1.260 . S
O190 In182 2.266 . S
O190 C187 1.252 . S
O191 In182 2.326 . S
O191 C187 1.260 . S
C192 O183 1.240 . S
C192 O184 1.252 . S
O193 In182 2.294 . S
O193 C186 1.240 . S
O194 In182 2.326 . S
O194 C186 1.252 . S
In195 O196 2.294 . S
In195 O197 2.326 . S
In195 O201 2.266 . S
In195 O202 2.326 . S
In195 O203 2.266 . S
In195 O204 2.326 . S
In195 O206 2.294 . S
In195 O207 2.326 . S
O196 In195 2.294 . S
O196 C205 1.240 . S
O197 In195 2.326 . S
O197 C205 1.252 . S
C198 O201 1.252 . S
C198 O202 1.260 . S
C199 O206 1.240 . S
C199 O207 1.252 . S
C200 O203 1.252 . S
C200 O204 1.260 . S
O201 In195 2.266 . S
O201 C198 1.252 . S
O202 In195 2.326 . S
O202 C198 1.260 . S
O203 In195 2.266 . S
O203 C200 1.252 . S
O204 In195 2.326 . S
O204 C200 1.260 . S
C205 O196 1.240 . S
C205 O197 1.252 . S
O206 In195 2.294 . S
O206 C199 1.240 . S
O207 In195 2.326 . S
O207 C199 1.252 . S
In208 O209 2.294 . S
In208 O210 2.326 . S
In208 O214 2.266 1_556 S
In208 O215 2.326 . S
In208 O216 2.266 . S
In208 O217 2.326 . S
In208 O219 2.294 . S
In208 O220 2.326 . S
O209 In208 2.294 . S
O209 C218 1.240 . S
O210 In208 2.326 . S
O210 C218 1.252 . S
C211 O214 1.252 . S
C211 O215 1.260 1_554 S
C212 O219 1.240 . S
C212 O220 1.252 . S
C213 O216 1.252 . S
C213 O217 1.260 . S
O214 In208 2.266 1_554 S
O214 C211 1.252 . S
O215 In208 2.326 . S
O215 C211 1.260 1_556 S
O216 In208 2.266 . S
O216 C213 1.252 . S
O217 In208 2.326 . S
O217 C213 1.260 . S
C218 O209 1.240 . S
C218 O210 1.252 . S
O219 In208 2.294 . S
O219 C212 1.240 . S
O220 In208 2.326 . S
O220 C212 1.252 . S
In221 O222 2.294 . S
In221 O223 2.326 . S
In221 O227 2.266 . S
In221 O228 2.326 . S
In221 O229 2.266 . S
In221 O230 2.326 . S
In221 O232 2.294 . S
In221 O233 2.326 . S
O222 In221 2.294 . S
O222 C231 1.240 . S
O223 In221 2.326 . S
O223 C231 1.252 . S
C224 O227 1.252 . S
C224 O228 1.260 . S
C225 O232 1.240 . S
C225 O233 1.252 . S
C226 O229 1.252 . S
C226 O230 1.260 . S
O227 In221 2.266 . S
O227 C224 1.252 . S
O228 In221 2.326 . S
O228 C224 1.260 . S
O229 In221 2.266 . S
O229 C226 1.252 . S
O230 In221 2.326 . S
O230 C226 1.260 . S
C231 O222 1.240 . S
C231 O223 1.252 . S
O232 In221 2.294 . S
O232 C225 1.240 . S
O233 In221 2.326 . S
O233 C225 1.252 . S
In234 O235 2.294 . S
In234 O236 2.326 . S
In234 O240 2.266 . S
In234 O241 2.326 . S
In234 O242 2.266 . S
In234 O243 2.326 . S
In234 O245 2.294 . S
In234 O246 2.326 . S
O235 In234 2.294 . S
O235 C244 1.240 . S
O236 In234 2.326 . S
O236 C244 1.252 . S
C237 O240 1.252 . S
C237 O241 1.260 . S
C238 O245 1.240 . S
C238 O246 1.252 . S
C239 O242 1.252 . S
C239 O243 1.260 . S
O240 In234 2.266 . S
O240 C237 1.252 . S
O241 In234 2.326 . S
O241 C237 1.260 . S
O242 In234 2.266 . S
O242 C239 1.252 . S
O243 In234 2.326 . S
O243 C239 1.260 . S
C244 O235 1.240 . S
C244 O236 1.252 . S
O245 In234 2.294 . S
O245 C238 1.240 . S
O246 In234 2.326 . S
O246 C238 1.252 . S
In247 O248 2.294 . S
In247 O249 2.326 . S
In247 O253 2.266 . S
In247 O254 2.326 . S
In247 O255 2.266 . S
In247 O256 2.326 . S
In247 O258 2.294 . S
In247 O259 2.326 . S
O248 In247 2.294 . S
O248 C257 1.240 . S
O249 In247 2.326 . S
O249 C257 1.252 . S
C250 O253 1.252 . S
C250 O254 1.260 . S
C251 O258 1.240 . S
C251 O259 1.252 . S
C252 O255 1.252 . S
C252 O256 1.260 . S
O253 In247 2.266 . S
O253 C250 1.252 . S
O254 In247 2.326 . S
O254 C250 1.260 . S
O255 In247 2.266 . S
O255 C252 1.252 . S
O256 In247 2.326 . S
O256 C252 1.260 . S
C257 O248 1.240 . S
C257 O249 1.252 . S
O258 In247 2.294 . S
O258 C251 1.240 . S
O259 In247 2.326 . S
O259 C251 1.252 . S
In260 O261 2.294 . S
In260 O262 2.326 . S
In260 O266 2.266 . S
In260 O267 2.326 . S
In260 O268 2.266 . S
In260 O269 2.326 . S
In260 O271 2.294 . S
In260 O272 2.326 . S
O261 In260 2.294 . S
O261 C270 1.240 . S
O262 In260 2.326 . S
O262 C270 1.252 . S
C263 O266 1.252 . S
C263 O267 1.260 . S
C264 O271 1.240 . S
C264 O272 1.252 . S
C265 O268 1.252 . S
C265 O269 1.260 . S
O266 In260 2.266 . S
O266 C263 1.252 . S
O267 In260 2.326 . S
O267 C263 1.260 . S
O268 In260 2.266 . S
O268 C265 1.252 . S
O269 In260 2.326 . S
O269 C265 1.260 . S
C270 O261 1.240 . S
C270 O262 1.252 . S
O271 In260 2.294 . S
O271 C264 1.240 . S
O272 In260 2.326 . S
O272 C264 1.252 . S
In273 O274 2.294 . S
In273 O275 2.326 . S
In273 O279 2.266 . S
In273 O280 2.326 . S
In273 O281 2.266 . S
In273 O282 2.326 . S
In273 O284 2.294 . S
In273 O285 2.326 . S
O274 In273 2.294 . S
O274 C283 1.240 . S
O275 In273 2.326 . S
O275 C283 1.252 . S
C276 O279 1.252 . S
C276 O280 1.260 . S
C277 O284 1.240 . S
C277 O285 1.252 . S
C278 O281 1.252 . S
C278 O282 1.260 . S
O279 In273 2.266 . S
O279 C276 1.252 . S
O280 In273 2.326 . S
O280 C276 1.260 . S
O281 In273 2.266 . S
O281 C278 1.252 . S
O282 In273 2.326 . S
O282 C278 1.260 . S
C283 O274 1.240 . S
C283 O275 1.252 . S
O284 In273 2.294 . S
O284 C277 1.240 . S
O285 In273 2.326 . S
O285 C277 1.252 . S
In286 O287 2.294 . S
In286 O288 2.326 . S
In286 O292 2.266 1_554 S
In286 O293 2.326 . S
In286 O294 2.266 . S
In286 O295 2.326 . S
In286 O297 2.294 . S
In286 O298 2.326 . S
O287 In286 2.294 . S
O287 C296 1.240 . S
O288 In286 2.326 . S
O288 C296 1.252 . S
C289 O292 1.252 . S
C289 O293 1.260 1_556 S
C290 O297 1.240 . S
C290 O298 1.252 . S
C291 O294 1.252 . S
C291 O295 1.260 . S
O292 In286 2.266 1_556 S
O292 C289 1.252 . S
O293 In286 2.326 . S
O293 C289 1.260 1_554 S
O294 In286 2.266 . S
O294 C291 1.252 . S
O295 In286 2.326 . S
O295 C291 1.260 . S
C296 O287 1.240 . S
C296 O288 1.252 . S
O297 In286 2.294 . S
O297 C290 1.240 . S
O298 In286 2.326 . S
O298 C290 1.252 . S
In299 O300 2.294 . S
In299 O301 2.326 . S
In299 O305 2.266 . S
In299 O306 2.326 . S
In299 O307 2.266 . S
In299 O308 2.326 . S
In299 O310 2.294 . S
In299 O311 2.326 . S
O300 In299 2.294 . S
O300 C309 1.240 . S
O301 In299 2.326 . S
O301 C309 1.252 . S
C302 O305 1.252 . S
C302 O306 1.260 . S
C303 O310 1.240 . S
C303 O311 1.252 . S
C304 O307 1.252 . S
C304 O308 1.260 . S
O305 In299 2.266 . S
O305 C302 1.252 . S
O306 In299 2.326 . S
O306 C302 1.260 . S
O307 In299 2.266 . S
O307 C304 1.252 . S
O308 In299 2.326 . S
O308 C304 1.260 . S
C309 O300 1.240 . S
C309 O301 1.252 . S
O310 In299 2.294 . S
O310 C303 1.240 . S
O311 In299 2.326 . S
O311 C303 1.252 . S
In312 O313 2.294 . S
In312 O314 2.326 . S
In312 O318 2.266 . S
In312 O319 2.326 . S
In312 O320 2.266 1_554 S
In312 O321 2.326 . S
In312 O323 2.294 . S
In312 O324 2.326 . S
O313 In312 2.294 . S
O313 C322 1.240 . S
O314 In312 2.326 . S
O314 C322 1.252 . S
C315 O318 1.252 . S
C315 O319 1.260 . S
C316 O323 1.240 . S
C316 O324 1.252 . S
C317 O320 1.252 . S
C317 O321 1.260 1_556 S
O318 In312 2.266 . S
O318 C315 1.252 . S
O319 In312 2.326 . S
O319 C315 1.260 . S
O320 In312 2.266 1_556 S
O320 C317 1.252 . S
O321 In312 2.326 . S
O321 C317 1.260 1_554 S
C322 O313 1.240 . S
C322 O314 1.252 . S
O323 In312 2.294 . S
O323 C316 1.240 . S
O324 In312 2.326 . S
O324 C316 1.252 . S
In325 O326 2.294 . S
In325 O327 2.326 . S
In325 O331 2.266 . S
In325 O332 2.326 . S
In325 O333 2.266 . S
In325 O334 2.326 . S
In325 O336 2.294 . S
In325 O337 2.326 . S
O326 In325 2.294 . S
O326 C335 1.240 . S
O327 In325 2.326 . S
O327 C335 1.252 . S
C328 O331 1.252 . S
C328 O332 1.260 . S
C329 O336 1.240 . S
C329 O337 1.252 . S
C330 O333 1.252 . S
C330 O334 1.260 . S
O331 In325 2.266 . S
O331 C328 1.252 . S
O332 In325 2.326 . S
O332 C328 1.260 . S
O333 In325 2.266 . S
O333 C330 1.252 . S
O334 In325 2.326 . S
O334 C330 1.260 . S
C335 O326 1.240 . S
C335 O327 1.252 . S
O336 In325 2.294 . S
O336 C329 1.240 . S
O337 In325 2.326 . S
O337 C329 1.252 . S
In338 O339 2.294 . S
In338 O340 2.326 . S
In338 O344 2.266 . S
In338 O345 2.326 . S
In338 O346 2.266 . S
In338 O347 2.326 . S
In338 O349 2.294 . S
In338 O350 2.326 . S
O339 In338 2.294 . S
O339 C348 1.240 . S
O340 In338 2.326 . S
O340 C348 1.252 . S
C341 O344 1.252 . S
C341 O345 1.260 . S
C342 O349 1.240 . S
C342 O350 1.252 . S
C343 O346 1.252 . S
C343 O347 1.260 . S
O344 In338 2.266 . S
O344 C341 1.252 . S
O345 In338 2.326 . S
O345 C341 1.260 . S
O346 In338 2.266 . S
O346 C343 1.252 . S
O347 In338 2.326 . S
O347 C343 1.260 . S
C348 O339 1.240 . S
C348 O340 1.252 . S
O349 In338 2.294 . S
O349 C342 1.240 . S
O350 In338 2.326 . S
O350 C342 1.252 . S
In351 O352 2.294 . S
In351 O353 2.326 . S
In351 O357 2.266 . S
In351 O358 2.326 . S
In351 O359 2.266 . S
In351 O360 2.326 . S
In351 O362 2.294 . S
In351 O363 2.326 . S
O352 In351 2.294 . S
O352 C361 1.240 . S
O353 In351 2.326 . S
O353 C361 1.252 . S
C354 O357 1.252 . S
C354 O358 1.260 . S
C355 O362 1.240 . S
C355 O363 1.252 . S
C356 O359 1.252 . S
C356 O360 1.260 . S
O357 In351 2.266 . S
O357 C354 1.252 . S
O358 In351 2.326 . S
O358 C354 1.260 . S
O359 In351 2.266 . S
O359 C356 1.252 . S
O360 In351 2.326 . S
O360 C356 1.260 . S
C361 O352 1.240 . S
C361 O353 1.252 . S
O362 In351 2.294 . S
O362 C355 1.240 . S
O363 In351 2.326 . S
O363 C355 1.252 . S
In364 O365 2.294 . S
In364 O366 2.326 . S
In364 O370 2.266 . S
In364 O371 2.326 . S
In364 O372 2.266 . S
In364 O373 2.326 . S
In364 O375 2.294 . S
In364 O376 2.326 . S
O365 In364 2.294 . S
O365 C374 1.240 . S
O366 In364 2.326 . S
O366 C374 1.252 . S
C367 O370 1.252 . S
C367 O371 1.260 . S
C368 O375 1.240 . S
C368 O376 1.252 . S
C369 O372 1.252 . S
C369 O373 1.260 . S
O370 In364 2.266 . S
O370 C367 1.252 . S
O371 In364 2.326 . S
O371 C367 1.260 . S
O372 In364 2.266 . S
O372 C369 1.252 . S
O373 In364 2.326 . S
O373 C369 1.260 . S
C374 O365 1.240 . S
C374 O366 1.252 . S
O375 In364 2.294 . S
O375 C368 1.240 . S
O376 In364 2.326 . S
O376 C368 1.252 . S
In377 O378 2.294 . S
In377 O379 2.326 . S
In377 O383 2.266 . S
In377 O384 2.326 . S
In377 O385 2.266 . S
In377 O386 2.326 . S
In377 O388 2.294 . S
In377 O389 2.326 . S
O378 In377 2.294 . S
O378 C387 1.240 . S
O379 In377 2.326 . S
O379 C387 1.252 . S
C380 O383 1.252 . S
C380 O384 1.260 . S
C381 O388 1.240 . S
C381 O389 1.252 . S
C382 O385 1.252 . S
C382 O386 1.260 . S
O383 In377 2.266 . S
O383 C380 1.252 . S
O384 In377 2.326 . S
O384 C380 1.260 . S
O385 In377 2.266 . S
O385 C382 1.252 . S
O386 In377 2.326 . S
O386 C382 1.260 . S
C387 O378 1.240 . S
C387 O379 1.252 . S
O388 In377 2.294 . S
O388 C381 1.240 . S
O389 In377 2.326 . S
O389 C381 1.252 . S
In390 O391 2.294 . S
In390 O392 2.326 . S
In390 O396 2.266 . S
In390 O397 2.326 . S
In390 O398 2.266 1_556 S
In390 O399 2.326 . S
In390 O401 2.294 . S
In390 O402 2.326 . S
O391 In390 2.294 . S
O391 C400 1.240 . S
O392 In390 2.326 . S
O392 C400 1.252 . S
C393 O396 1.252 . S
C393 O397 1.260 . S
C394 O401 1.240 . S
C394 O402 1.252 . S
C395 O398 1.252 . S
C395 O399 1.260 1_554 S
O396 In390 2.266 . S
O396 C393 1.252 . S
O397 In390 2.326 . S
O397 C393 1.260 . S
O398 In390 2.266 1_554 S
O398 C395 1.252 . S
O399 In390 2.326 . S
O399 C395 1.260 1_556 S
C400 O391 1.240 . S
C400 O392 1.252 . S
O401 In390 2.294 . S
O401 C394 1.240 . S
O402 In390 2.326 . S
O402 C394 1.252 . S
In403 O404 2.294 . S
In403 O405 2.326 . S
In403 O409 2.266 . S
In403 O410 2.326 . S
In403 O411 2.266 . S
In403 O412 2.326 . S
In403 O414 2.294 . S
In403 O415 2.326 . S
O404 In403 2.294 . S
O404 C413 1.240 . S
O405 In403 2.326 . S
O405 C413 1.252 . S
C406 O409 1.252 . S
C406 O410 1.260 . S
C407 O414 1.240 . S
C407 O415 1.252 . S
C408 O411 1.252 . S
C408 O412 1.260 . S
O409 In403 2.266 . S
O409 C406 1.252 . S
O410 In403 2.326 . S
O410 C406 1.260 . S
O411 In403 2.266 . S
O411 C408 1.252 . S
O412 In403 2.326 . S
O412 C408 1.260 . S
C413 O404 1.240 . S
C413 O405 1.252 . S
O414 In403 2.294 . S
O414 C407 1.240 . S
O415 In403 2.326 . S
O415 C407 1.252 . S
C416 C417 1.369 . S
C416 C418 1.419 . S
C416 H420 0.930 . S
C417 C416 1.369 . S
C417 C426 1.429 1_545 S
C418 C416 1.419 . S
C418 C419 1.363 1_545 S
C418 H421 0.929 . S
C419 C418 1.363 1_565 S
C419 C425 1.428 . S
H420 C416 0.930 . S
H421 C418 0.929 . S
S422 N423 1.613 . S
S422 N424 1.610 . S
N423 S422 1.613 . S
N423 C426 1.350 . S
N424 S422 1.610 . S
N424 C425 1.351 . S
C425 C419 1.428 . S
C425 N424 1.351 . S
C425 C426 1.434 . S
C426 C417 1.429 1_565 S
C426 N423 1.350 . S
C426 C425 1.434 . S
C427 C428 1.369 . S
C427 C429 1.419 . S
C427 H431 0.930 . S
C428 C427 1.369 . S
C428 C437 1.429 . S
C429 C427 1.419 . S
C429 C430 1.363 . S
C429 H432 0.929 . S
C430 C429 1.363 . S
C430 C436 1.428 . S
H431 C427 0.930 . S
H432 C429 0.929 . S
S433 N434 1.613 . S
S433 N435 1.610 . S
N434 S433 1.613 . S
N434 C437 1.350 . S
N435 S433 1.610 . S
N435 C436 1.351 . S
C436 C430 1.428 . S
C436 N435 1.351 . S
C436 C437 1.434 . S
C437 C428 1.429 . S
C437 N434 1.350 . S
C437 C436 1.434 . S
C438 C439 1.369 1_565 S
C438 C440 1.419 . S
C438 H442 0.930 . S
C439 C438 1.369 1_545 S
C439 C448 1.429 . S
C440 C438 1.419 . S
C440 C441 1.363 . S
C440 H443 0.929 . S
C441 C440 1.363 . S
C441 C447 1.428 1_565 S
H442 C438 0.930 . S
H443 C440 0.929 . S
S444 N445 1.613 . S
S444 N446 1.610 . S
N445 S444 1.613 . S
N445 C448 1.350 . S
N446 S444 1.610 . S
N446 C447 1.351 . S
C447 C441 1.428 1_545 S
C447 N446 1.351 . S
C447 C448 1.434 . S
C448 C439 1.429 . S
C448 N445 1.350 . S
C448 C447 1.434 . S
C449 C450 1.369 . S
C449 C451 1.419 1_556 S
C449 H453 0.930 . S
C450 C449 1.369 . S
C450 C459 1.429 . S
C451 C449 1.419 1_554 S
C451 C452 1.363 . S
C451 H454 0.929 . S
C452 C451 1.363 . S
C452 C458 1.428 . S
H453 C449 0.930 . S
H454 C451 0.929 . S
S455 N456 1.613 1_554 S
S455 N457 1.610 . S
N456 S455 1.613 1_556 S
N456 C459 1.350 . S
N457 S455 1.610 . S
N457 C458 1.351 . S
C458 C452 1.428 . S
C458 N457 1.351 . S
C458 C459 1.434 1_554 S
C459 C450 1.429 . S
C459 N456 1.350 . S
C459 C458 1.434 1_556 S
C460 C461 1.369 1_545 S
C460 C462 1.419 . S
C460 H464 0.930 . S
C461 C460 1.369 1_565 S
C461 C470 1.429 . S
C462 C460 1.419 . S
C462 C463 1.363 . S
C462 H465 0.929 . S
C463 C462 1.363 . S
C463 C469 1.428 1_545 S
H464 C460 0.930 . S
H465 C462 0.929 . S
S466 N467 1.613 . S
S466 N468 1.610 . S
N467 S466 1.613 . S
N467 C470 1.350 . S
N468 S466 1.610 . S
N468 C469 1.351 . S
C469 C463 1.428 1_565 S
C469 N468 1.351 . S
C469 C470 1.434 . S
C470 C461 1.429 . S
C470 N467 1.350 . S
C470 C469 1.434 . S
C471 C472 1.369 . S
C471 C473 1.419 . S
C471 H475 0.930 . S
C472 C471 1.369 . S
C472 C481 1.429 . S
C473 C471 1.419 . S
C473 C474 1.363 . S
C473 H476 0.929 . S
C474 C473 1.363 . S
C474 C480 1.428 . S
H475 C471 0.930 . S
H476 C473 0.929 . S
S477 N478 1.613 . S
S477 N479 1.610 . S
N478 S477 1.613 . S
N478 C481 1.350 . S
N479 S477 1.610 . S
N479 C480 1.351 . S
C480 C474 1.428 . S
C480 N479 1.351 . S
C480 C481 1.434 . S
C481 C472 1.429 . S
C481 N478 1.350 . S
C481 C480 1.434 . S
C482 C483 1.369 . S
C482 C484 1.419 1_565 S
C482 H486 0.930 . S
C483 C482 1.369 . S
C483 C492 1.429 . S
C484 C482 1.419 1_545 S
C484 C485 1.363 . S
C484 H487 0.929 . S
C485 C484 1.363 . S
C485 C491 1.428 . S
H486 C482 0.930 . S
H487 C484 0.929 . S
S488 N489 1.613 . S
S488 N490 1.610 1_565 S
N489 S488 1.613 . S
N489 C492 1.350 . S
N490 S488 1.610 1_545 S
N490 C491 1.351 . S
C491 C485 1.428 . S
C491 N490 1.351 . S
C491 C492 1.434 1_545 S
C492 C483 1.429 . S
C492 N489 1.350 . S
C492 C491 1.434 1_565 S
C493 C494 1.369 . S
C493 C495 1.419 1_556 S
C493 H497 0.930 . S
C494 C493 1.369 . S
C494 C503 1.429 . S
C495 C493 1.419 1_554 S
C495 C496 1.363 . S
C495 H498 0.929 . S
C496 C495 1.363 . S
C496 C502 1.428 . S
H497 C493 0.930 . S
H498 C495 0.929 . S
S499 N500 1.613 . S
S499 N501 1.610 1_556 S
N500 S499 1.613 . S
N500 C503 1.350 . S
N501 S499 1.610 1_554 S
N501 C502 1.351 . S
C502 C496 1.428 . S
C502 N501 1.351 . S
C502 C503 1.434 1_554 S
C503 C494 1.429 . S
C503 N500 1.350 . S
C503 C502 1.434 1_556 S
C504 C505 1.369 . S
C504 C506 1.419 . S
C504 H508 0.930 . S
C505 C504 1.369 . S
C505 C514 1.429 . S
C506 C504 1.419 . S
C506 C507 1.363 . S
C506 H509 0.929 . S
C507 C506 1.363 . S
C507 C513 1.428 . S
H508 C504 0.930 . S
H509 C506 0.929 . S
S510 N511 1.613 . S
S510 N512 1.610 . S
N511 S510 1.613 . S
N511 C514 1.350 . S
N512 S510 1.610 . S
N512 C513 1.351 . S
C513 C507 1.428 . S
C513 N512 1.351 . S
C513 C514 1.434 . S
C514 C505 1.429 . S
C514 N511 1.350 . S
C514 C513 1.434 . S
C515 C516 1.369 . S
C515 C517 1.419 1_556 S
C515 H519 0.930 . S
C516 C515 1.369 . S
C516 C525 1.429 . S
C517 C515 1.419 1_554 S
C517 C518 1.363 . S
C517 H520 0.929 . S
C518 C517 1.363 . S
C518 C524 1.428 . S
H519 C515 0.930 . S
H520 C517 0.929 . S
S521 N522 1.613 . S
S521 N523 1.610 1_556 S
N522 S521 1.613 . S
N522 C525 1.350 . S
N523 S521 1.610 1_554 S
N523 C524 1.351 . S
C524 C518 1.428 . S
C524 N523 1.351 . S
C524 C525 1.434 1_554 S
C525 C516 1.429 . S
C525 N522 1.350 . S
C525 C524 1.434 1_556 S
C526 C527 1.369 . S
C526 C528 1.419 . S
C526 H530 0.930 . S
C527 C526 1.369 . S
C527 C536 1.429 . S
C528 C526 1.419 . S
C528 C529 1.363 . S
C528 H531 0.929 . S
C529 C528 1.363 . S
C529 C535 1.428 . S
H530 C526 0.930 . S
H531 C528 0.929 . S
S532 N533 1.613 . S
S532 N534 1.610 . S
N533 S532 1.613 . S
N533 C536 1.350 . S
N534 S532 1.610 . S
N534 C535 1.351 . S
C535 C529 1.428 . S
C535 N534 1.351 . S
C535 C536 1.434 . S
C536 C527 1.429 . S
C536 N533 1.350 . S
C536 C535 1.434 . S
C537 C538 1.369 . S
C537 C539 1.419 . S
C537 H541 0.930 . S
C538 C537 1.369 . S
C538 C547 1.429 . S
C539 C537 1.419 . S
C539 C540 1.363 . S
C539 H542 0.929 . S
C540 C539 1.363 . S
C540 C546 1.428 . S
H541 C537 0.930 . S
H542 C539 0.929 . S
S543 N544 1.613 . S
S543 N545 1.610 . S
N544 S543 1.613 . S
N544 C547 1.350 . S
N545 S543 1.610 . S
N545 C546 1.351 . S
C546 C540 1.428 . S
C546 N545 1.351 . S
C546 C547 1.434 . S
C547 C538 1.429 . S
C547 N544 1.350 . S
C547 C546 1.434 . S
C548 C549 1.369 . S
C548 C550 1.419 . S
C548 H552 0.930 . S
C549 C548 1.369 . S
C549 C558 1.429 . S
C550 C548 1.419 . S
C550 C551 1.363 . S
C550 H553 0.929 . S
C551 C550 1.363 . S
C551 C557 1.428 . S
H552 C548 0.930 . S
H553 C550 0.929 . S
S554 N555 1.613 . S
S554 N556 1.610 . S
N555 S554 1.613 . S
N555 C558 1.350 . S
N556 S554 1.610 . S
N556 C557 1.351 . S
C557 C551 1.428 . S
C557 N556 1.351 . S
C557 C558 1.434 . S
C558 C549 1.429 . S
C558 N555 1.350 . S
C558 C557 1.434 . S
C559 C560 1.369 . S
C559 C561 1.419 1_554 S
C559 H563 0.930 . S
C560 C559 1.369 . S
C560 C569 1.429 . S
C561 C559 1.419 1_556 S
C561 C562 1.363 . S
C561 H564 0.929 . S
C562 C561 1.363 . S
C562 C568 1.428 . S
H563 C559 0.930 . S
H564 C561 0.929 . S
S565 N566 1.613 . S
S565 N567 1.610 1_554 S
N566 S565 1.613 . S
N566 C569 1.350 . S
N567 S565 1.610 1_556 S
N567 C568 1.351 . S
C568 C562 1.428 . S
C568 N567 1.351 . S
C568 C569 1.434 1_556 S
C569 C560 1.429 . S
C569 N566 1.350 . S
C569 C568 1.434 1_554 S
C570 C571 1.369 . S
C570 C572 1.419 . S
C570 H574 0.930 . S
C571 C570 1.369 . S
C571 C580 1.429 . S
C572 C570 1.419 . S
C572 C573 1.363 . S
C572 H575 0.929 . S
C573 C572 1.363 . S
C573 C579 1.428 . S
H574 C570 0.930 . S
H575 C572 0.929 . S
S576 N577 1.613 . S
S576 N578 1.610 . S
N577 S576 1.613 . S
N577 C580 1.350 . S
N578 S576 1.610 . S
N578 C579 1.351 . S
C579 C573 1.428 . S
C579 N578 1.351 . S
C579 C580 1.434 . S
C580 C571 1.429 . S
C580 N577 1.350 . S
C580 C579 1.434 . S
C581 C582 1.369 . S
C581 C583 1.419 . S
C581 H585 0.930 . S
C582 C581 1.369 . S
C582 C591 1.429 . S
C583 C581 1.419 . S
C583 C584 1.363 . S
C583 H586 0.929 . S
C584 C583 1.363 . S
C584 C590 1.428 . S
H585 C581 0.930 . S
H586 C583 0.929 . S
S587 N588 1.613 . S
S587 N589 1.610 . S
N588 S587 1.613 . S
N588 C591 1.350 . S
N589 S587 1.610 . S
N589 C590 1.351 . S
C590 C584 1.428 . S
C590 N589 1.351 . S
C590 C591 1.434 . S
C591 C582 1.429 . S
C591 N588 1.350 . S
C591 C590 1.434 . S
C592 C593 1.369 . S
C592 C594 1.419 . S
C592 H596 0.930 . S
C593 C592 1.369 . S
C593 C602 1.429 . S
C594 C592 1.419 . S
C594 C595 1.363 . S
C594 H597 0.929 . S
C595 C594 1.363 . S
C595 C601 1.428 . S
H596 C592 0.930 . S
H597 C594 0.929 . S
S598 N599 1.613 . S
S598 N600 1.610 . S
N599 S598 1.613 . S
N599 C602 1.350 . S
N600 S598 1.610 . S
N600 C601 1.351 . S
C601 C595 1.428 . S
C601 N600 1.351 . S
C601 C602 1.434 . S
C602 C593 1.429 . S
C602 N599 1.350 . S
C602 C601 1.434 . S
C603 C604 1.369 1_455 S
C603 C605 1.419 . S
C603 H607 0.930 . S
C604 C603 1.369 1_655 S
C604 C613 1.429 1_655 S
C605 C603 1.419 . S
C605 C606 1.363 . S
C605 H608 0.929 . S
C606 C605 1.363 . S
C606 C612 1.428 . S
H607 C603 0.930 . S
H608 C605 0.929 . S
S609 N610 1.613 1_455 S
S609 N611 1.610 . S
N610 S609 1.613 1_655 S
N610 C613 1.350 1_655 S
N611 S609 1.610 . S
N611 C612 1.351 . S
C612 C606 1.428 . S
C612 N611 1.351 . S
C612 C613 1.434 . S
C613 C604 1.429 1_455 S
C613 N610 1.350 1_455 S
C613 C612 1.434 . S
C614 C615 1.369 . S
C614 C616 1.419 . S
C614 H618 0.930 . S
C615 C614 1.369 . S
C615 C624 1.429 . S
C616 C614 1.419 . S
C616 C617 1.363 . S
C616 H619 0.929 . S
C617 C616 1.363 . S
C617 C623 1.428 . S
H618 C614 0.930 . S
H619 C616 0.929 . S
S620 N621 1.613 . S
S620 N622 1.610 . S
N621 S620 1.613 . S
N621 C624 1.350 . S
N622 S620 1.610 . S
N622 C623 1.351 . S
C623 C617 1.428 . S
C623 N622 1.351 . S
C623 C624 1.434 . S
C624 C615 1.429 . S
C624 N621 1.350 . S
C624 C623 1.434 . S
C625 C626 1.369 . S
C625 C627 1.419 . S
C625 H629 0.930 . S
C626 C625 1.369 . S
C626 C635 1.429 . S
C627 C625 1.419 . S
C627 C628 1.363 . S
C627 H630 0.929 . S
C628 C627 1.363 . S
C628 C634 1.428 . S
H629 C625 0.930 . S
H630 C627 0.929 . S
S631 N632 1.613 . S
S631 N633 1.610 . S
N632 S631 1.613 . S
N632 C635 1.350 . S
N633 S631 1.610 . S
N633 C634 1.351 . S
C634 C628 1.428 . S
C634 N633 1.351 . S
C634 C635 1.434 . S
C635 C626 1.429 . S
C635 N632 1.350 . S
C635 C634 1.434 . S
C636 C637 1.369 . S
C636 C638 1.419 . S
C636 H640 0.930 . S
C637 C636 1.369 . S
C637 C646 1.429 . S
C638 C636 1.419 . S
C638 C639 1.363 . S
C638 H641 0.929 . S
C639 C638 1.363 . S
C639 C645 1.428 . S
H640 C636 0.930 . S
H641 C638 0.929 . S
S642 N643 1.613 . S
S642 N644 1.610 . S
N643 S642 1.613 . S
N643 C646 1.350 . S
N644 S642 1.610 . S
N644 C645 1.351 . S
C645 C639 1.428 . S
C645 N644 1.351 . S
C645 C646 1.434 . S
C646 C637 1.429 . S
C646 N643 1.350 . S
C646 C645 1.434 . S
C647 C648 1.369 . S
C647 C649 1.419 . S
C647 H651 0.930 . S
C648 C647 1.369 . S
C648 C657 1.429 . S
C649 C647 1.419 . S
C649 C650 1.363 . S
C649 H652 0.929 . S
C650 C649 1.363 . S
C650 C656 1.428 . S
H651 C647 0.930 . S
H652 C649 0.929 . S
S653 N654 1.613 . S
S653 N655 1.610 . S
N654 S653 1.613 . S
N654 C657 1.350 . S
N655 S653 1.610 . S
N655 C656 1.351 . S
C656 C650 1.428 . S
C656 N655 1.351 . S
C656 C657 1.434 . S
C657 C648 1.429 . S
C657 N654 1.350 . S
C657 C656 1.434 . S
C658 C659 1.369 . S
C658 C660 1.419 . S
C658 H662 0.930 . S
C659 C658 1.369 . S
C659 C668 1.429 . S
C660 C658 1.419 . S
C660 C661 1.363 . S
C660 H663 0.929 . S
C661 C660 1.363 . S
C661 C667 1.428 . S
H662 C658 0.930 . S
H663 C660 0.929 . S
S664 N665 1.613 . S
S664 N666 1.610 . S
N665 S664 1.613 . S
N665 C668 1.350 . S
N666 S664 1.610 . S
N666 C667 1.351 . S
C667 C661 1.428 . S
C667 N666 1.351 . S
C667 C668 1.434 . S
C668 C659 1.429 . S
C668 N665 1.350 . S
C668 C667 1.434 . S
C669 C670 1.369 . S
C669 C671 1.419 . S
C669 H673 0.930 . S
C670 C669 1.369 . S
C670 C679 1.429 . S
C671 C669 1.419 . S
C671 C672 1.363 1_455 S
C671 H674 0.929 1_455 S
C672 C671 1.363 1_655 S
C672 C678 1.428 1_655 S
H673 C669 0.930 . S
H674 C671 0.929 1_655 S
S675 N676 1.613 . S
S675 N677 1.610 1_455 S
N676 S675 1.613 . S
N676 C679 1.350 . S
N677 S675 1.610 1_655 S
N677 C678 1.351 1_655 S
C678 C672 1.428 1_455 S
C678 N677 1.351 1_455 S
C678 C679 1.434 . S
C679 C670 1.429 . S
C679 N676 1.350 . S
C679 C678 1.434 . S
C680 C681 1.369 . S
C680 C682 1.419 . S
C680 H684 0.930 . S
C681 C680 1.369 . S
C681 C690 1.429 . S
C682 C680 1.419 . S
C682 C683 1.363 . S
C682 H685 0.929 . S
C683 C682 1.363 . S
C683 C689 1.428 . S
H684 C680 0.930 . S
H685 C682 0.929 . S
S686 N687 1.613 . S
S686 N688 1.610 . S
N687 S686 1.613 . S
N687 C690 1.350 . S
N688 S686 1.610 . S
N688 C689 1.351 . S
C689 C683 1.428 . S
C689 N688 1.351 . S
C689 C690 1.434 . S
C690 C681 1.429 . S
C690 N687 1.350 . S
C690 C689 1.434 . S
C691 C692 1.369 . S
C691 C693 1.419 . S
C691 H695 0.930 . S
C692 C691 1.369 . S
C692 C701 1.429 . S
C693 C691 1.419 . S
C693 C694 1.363 1_655 S
C693 H696 0.929 1_655 S
C694 C693 1.363 1_455 S
C694 C700 1.428 1_455 S
H695 C691 0.930 . S
H696 C693 0.929 1_455 S
S697 N698 1.613 . S
S697 N699 1.610 1_655 S
N698 S697 1.613 . S
N698 C701 1.350 . S
N699 S697 1.610 1_455 S
N699 C700 1.351 1_455 S
C700 C694 1.428 1_655 S
C700 N699 1.351 1_655 S
C700 C701 1.434 . S
C701 C692 1.429 . S
C701 N698 1.350 . S
C701 C700 1.434 . S
C702 C703 1.369 . S
C702 C704 1.419 . S
C702 H706 0.930 . S
C703 C702 1.369 . S
C703 C712 1.429 . S
C704 C702 1.419 . S
C704 C705 1.363 . S
C704 H707 0.929 . S
C705 C704 1.363 . S
C705 C711 1.428 . S
H706 C702 0.930 . S
H707 C704 0.929 . S
S708 N709 1.613 . S
S708 N710 1.610 . S
N709 S708 1.613 . S
N709 C712 1.350 . S
N710 S708 1.610 . S
N710 C711 1.351 . S
C711 C705 1.428 . S
C711 N710 1.351 . S
C711 C712 1.434 . S
C712 C703 1.429 . S
C712 N709 1.350 . S
C712 C711 1.434 . S
C713 C714 1.369 . S
C713 C715 1.419 . S
C713 H717 0.930 . S
C714 C713 1.369 . S
C714 C723 1.429 . S
C715 C713 1.419 . S
C715 C716 1.363 . S
C715 H718 0.929 . S
C716 C715 1.363 . S
C716 C722 1.428 . S
H717 C713 0.930 . S
H718 C715 0.929 . S
S719 N720 1.613 . S
S719 N721 1.610 . S
N720 S719 1.613 . S
N720 C723 1.350 . S
N721 S719 1.610 . S
N721 C722 1.351 . S
C722 C716 1.428 . S
C722 N721 1.351 . S
C722 C723 1.434 . S
C723 C714 1.429 . S
C723 N720 1.350 . S
C723 C722 1.434 . S
C724 C725 1.369 . S
C724 C726 1.419 . S
C724 H728 0.930 . S
C725 C724 1.369 . S
C725 C734 1.429 . S
C726 C724 1.419 . S
C726 C727 1.363 . S
C726 H729 0.929 . S
C727 C726 1.363 . S
C727 C733 1.428 . S
H728 C724 0.930 . S
H729 C726 0.929 . S
S730 N731 1.613 . S
S730 N732 1.610 . S
N731 S730 1.613 . S
N731 C734 1.350 . S
N732 S730 1.610 . S
N732 C733 1.351 . S
C733 C727 1.428 . S
C733 N732 1.351 . S
C733 C734 1.434 . S
C734 C725 1.429 . S
C734 N731 1.350 . S
C734 C733 1.434 . S
C735 C736 1.369 . S
C735 C737 1.419 . S
C735 H739 0.930 . S
C736 C735 1.369 . S
C736 C745 1.429 . S
C737 C735 1.419 . S
C737 C738 1.363 . S
C737 H740 0.929 . S
C738 C737 1.363 . S
C738 C744 1.428 . S
H739 C735 0.930 . S
H740 C737 0.929 . S
S741 N742 1.613 . S
S741 N743 1.610 . S
N742 S741 1.613 . S
N742 C745 1.350 . S
N743 S741 1.610 . S
N743 C744 1.351 . S
C744 C738 1.428 . S
C744 N743 1.351 . S
C744 C745 1.434 . S
C745 C736 1.429 . S
C745 N742 1.350 . S
C745 C744 1.434 . S
C746 C747 1.369 . S
C746 C748 1.419 . S
C746 H750 0.930 . S
C747 C746 1.369 . S
C747 C756 1.429 . S
C748 C746 1.419 . S
C748 C749 1.363 . S
C748 H751 0.929 . S
C749 C748 1.363 . S
C749 C755 1.428 . S
H750 C746 0.930 . S
H751 C748 0.929 . S
S752 N753 1.613 . S
S752 N754 1.610 . S
N753 S752 1.613 . S
N753 C756 1.350 . S
N754 S752 1.610 . S
N754 C755 1.351 . S
C755 C749 1.428 . S
C755 N754 1.351 . S
C755 C756 1.434 . S
C756 C747 1.429 . S
C756 N753 1.350 . S
C756 C755 1.434 . S
C757 C758 1.369 . S
C757 C759 1.419 . S
C757 H761 0.930 . S
C758 C757 1.369 . S
C758 C767 1.429 . S
C759 C757 1.419 . S
C759 C760 1.363 1_655 S
C759 H762 0.929 . S
C760 C759 1.363 1_455 S
C760 C766 1.428 1_455 S
H761 C757 0.930 . S
H762 C759 0.929 . S
S763 N764 1.613 . S
S763 N765 1.610 1_655 S
N764 S763 1.613 . S
N764 C767 1.350 . S
N765 S763 1.610 1_455 S
N765 C766 1.351 1_455 S
C766 C760 1.428 1_655 S
C766 N765 1.351 1_655 S
C766 C767 1.434 . S
C767 C758 1.429 . S
C767 N764 1.350 . S
C767 C766 1.434 . S
C768 C769 1.369 . S
C768 C770 1.419 . S
C768 H772 0.930 . S
C769 C768 1.369 . S
C769 C778 1.429 . S
C770 C768 1.419 . S
C770 C771 1.363 . S
C770 H773 0.929 . S
C771 C770 1.363 . S
C771 C777 1.428 . S
H772 C768 0.930 . S
H773 C770 0.929 . S
S774 N775 1.613 . S
S774 N776 1.610 . S
N775 S774 1.613 . S
N775 C778 1.350 . S
N776 S774 1.610 . S
N776 C777 1.351 . S
C777 C771 1.428 . S
C777 N776 1.351 . S
C777 C778 1.434 . S
C778 C769 1.429 . S
C778 N775 1.350 . S
C778 C777 1.434 . S
C779 C780 1.369 . S
C779 C781 1.419 . S
C779 H783 0.930 . S
C780 C779 1.369 . S
C780 C789 1.429 . S
C781 C779 1.419 . S
C781 C782 1.363 . S
C781 H784 0.929 . S
C782 C781 1.363 . S
C782 C788 1.428 . S
H783 C779 0.930 . S
H784 C781 0.929 . S
S785 N786 1.613 . S
S785 N787 1.610 . S
N786 S785 1.613 . S
N786 C789 1.350 . S
N787 S785 1.610 . S
N787 C788 1.351 . S
C788 C782 1.428 . S
C788 N787 1.351 . S
C788 C789 1.434 . S
C789 C780 1.429 . S
C789 N786 1.350 . S
C789 C788 1.434 . S
C790 C791 1.369 . S
C790 C792 1.419 . S
C790 H794 0.930 . S
C791 C790 1.369 . S
C791 C800 1.429 . S
C792 C790 1.419 . S
C792 C793 1.363 . S
C792 H795 0.929 . S
C793 C792 1.363 . S
C793 C799 1.428 . S
H794 C790 0.930 . S
H795 C792 0.929 . S
S796 N797 1.613 . S
S796 N798 1.610 . S
N797 S796 1.613 . S
N797 C800 1.350 . S
N798 S796 1.610 . S
N798 C799 1.351 . S
C799 C793 1.428 . S
C799 N798 1.351 . S
C799 C800 1.434 . S
C800 C791 1.429 . S
C800 N797 1.350 . S
C800 C799 1.434 . S
C801 C802 1.369 . S
C801 C803 1.419 . S
C801 H805 0.930 . S
C802 C801 1.369 . S
C802 C811 1.429 . S
C803 C801 1.419 . S
C803 C804 1.363 1_655 S
C803 H806 0.929 1_655 S
C804 C803 1.363 1_455 S
C804 C810 1.428 1_455 S
H805 C801 0.930 . S
H806 C803 0.929 1_455 S
S807 N808 1.613 . S
S807 N809 1.610 . S
N808 S807 1.613 . S
N808 C811 1.350 . S
N809 S807 1.610 . S
N809 C810 1.351 . S
C810 C804 1.428 1_655 S
C810 N809 1.351 . S
C810 C811 1.434 . S
C811 C802 1.429 . S
C811 N808 1.350 . S
C811 C810 1.434 . S
C812 C813 1.369 . S
C812 C814 1.419 . S
C812 H816 0.930 . S
C813 C812 1.369 . S
C813 C822 1.429 . S
C814 C812 1.419 . S
C814 C815 1.363 . S
C814 H817 0.929 . S
C815 C814 1.363 . S
C815 C821 1.428 . S
H816 C812 0.930 . S
H817 C814 0.929 . S
S818 N819 1.613 . S
S818 N820 1.610 . S
N819 S818 1.613 . S
N819 C822 1.350 . S
N820 S818 1.610 . S
N820 C821 1.351 . S
C821 C815 1.428 . S
C821 N820 1.351 . S
C821 C822 1.434 . S
C822 C813 1.429 . S
C822 N819 1.350 . S
C822 C821 1.434 . S
C823 C824 1.369 1_655 S
C823 C825 1.419 . S
C823 H827 0.930 1_655 S
C824 C823 1.369 1_455 S
C824 C833 1.429 1_455 S
C825 C823 1.419 . S
C825 C826 1.363 . S
C825 H828 0.929 . S
C826 C825 1.363 . S
C826 C832 1.428 . S
H827 C823 0.930 1_455 S
H828 C825 0.929 . S
S829 N830 1.613 . S
S829 N831 1.610 . S
N830 S829 1.613 . S
N830 C833 1.350 . S
N831 S829 1.610 . S
N831 C832 1.351 . S
C832 C826 1.428 . S
C832 N831 1.351 . S
C832 C833 1.434 . S
C833 C824 1.429 1_655 S
C833 N830 1.350 . S
C833 C832 1.434 . S
C834 C835 1.369 . S
C834 C836 1.419 . S
C834 H838 0.930 . S
C835 C834 1.369 . S
C835 C844 1.429 . S
C836 C834 1.419 . S
C836 C837 1.363 . S
C836 H839 0.929 . S
C837 C836 1.363 . S
C837 C843 1.428 . S
H838 C834 0.930 . S
H839 C836 0.929 . S
S840 N841 1.613 . S
S840 N842 1.610 . S
N841 S840 1.613 . S
N841 C844 1.350 . S
N842 S840 1.610 . S
N842 C843 1.351 . S
C843 C837 1.428 . S
C843 N842 1.351 . S
C843 C844 1.434 . S
C844 C835 1.429 . S
C844 N841 1.350 . S
C844 C843 1.434 . S
C845 C846 1.369 . S
C845 C847 1.419 . S
C845 H849 0.930 . S
C846 C845 1.369 . S
C846 C855 1.429 . S
C847 C845 1.419 . S
C847 C848 1.363 . S
C847 H850 0.929 . S
C848 C847 1.363 . S
C848 C854 1.428 . S
H849 C845 0.930 . S
H850 C847 0.929 . S
S851 N852 1.613 . S
S851 N853 1.610 . S
N852 S851 1.613 . S
N852 C855 1.350 . S
N853 S851 1.610 . S
N853 C854 1.351 . S
C854 C848 1.428 . S
C854 N853 1.351 . S
C854 C855 1.434 . S
C855 C846 1.429 . S
C855 N852 1.350 . S
C855 C854 1.434 . S
C856 C857 1.369 . S
C856 C858 1.419 . S
C856 H860 0.930 . S
C857 C856 1.369 . S
C857 C866 1.429 . S
C858 C856 1.419 . S
C858 C859 1.363 . S
C858 H861 0.929 . S
C859 C858 1.363 . S
C859 C865 1.428 . S
H860 C856 0.930 . S
H861 C858 0.929 . S
S862 N863 1.613 . S
S862 N864 1.610 . S
N863 S862 1.613 . S
N863 C866 1.350 . S
N864 S862 1.610 . S
N864 C865 1.351 . S
C865 C859 1.428 . S
C865 N864 1.351 . S
C865 C866 1.434 . S
C866 C857 1.429 . S
C866 N863 1.350 . S
C866 C865 1.434 . S
C867 C868 1.369 . S
C867 C869 1.419 . S
C867 H871 0.930 . S
C868 C867 1.369 . S
C868 C877 1.429 . S
C869 C867 1.419 . S
C869 C870 1.363 . S
C869 H872 0.929 . S
C870 C869 1.363 . S
C870 C876 1.428 . S
H871 C867 0.930 . S
H872 C869 0.929 . S
S873 N874 1.613 . S
S873 N875 1.610 . S
N874 S873 1.613 . S
N874 C877 1.350 . S
N875 S873 1.610 . S
N875 C876 1.351 . S
C876 C870 1.428 . S
C876 N875 1.351 . S
C876 C877 1.434 . S
C877 C868 1.429 . S
C877 N874 1.350 . S
C877 C876 1.434 . S
C878 C879 1.369 . S
C878 C880 1.419 . S
C878 H882 0.930 . S
C879 C878 1.369 . S
C879 C888 1.429 . S
C880 C878 1.419 . S
C880 C881 1.363 . S
C880 H883 0.929 . S
C881 C880 1.363 . S
C881 C887 1.428 . S
H882 C878 0.930 . S
H883 C880 0.929 . S
S884 N885 1.613 . S
S884 N886 1.610 . S
N885 S884 1.613 . S
N885 C888 1.350 . S
N886 S884 1.610 . S
N886 C887 1.351 . S
C887 C881 1.428 . S
C887 N886 1.351 . S
C887 C888 1.434 . S
C888 C879 1.429 . S
C888 N885 1.350 . S
C888 C887 1.434 . S
C889 C890 1.369 . S
C889 C891 1.419 . S
C889 H893 0.930 . S
C890 C889 1.369 . S
C890 C899 1.429 . S
C891 C889 1.419 . S
C891 C892 1.363 1_455 S
C891 H894 0.929 1_455 S
C892 C891 1.363 1_655 S
C892 C898 1.428 1_655 S
H893 C889 0.930 . S
H894 C891 0.929 1_655 S
S895 N896 1.613 . S
S895 N897 1.610 . S
N896 S895 1.613 . S
N896 C899 1.350 . S
N897 S895 1.610 . S
N897 C898 1.351 . S
C898 C892 1.428 1_455 S
C898 N897 1.351 . S
C898 C899 1.434 . S
C899 C890 1.429 . S
C899 N896 1.350 . S
C899 C898 1.434 . S
C900 C901 1.369 . S
C900 C902 1.419 . S
C900 H904 0.930 . S
C901 C900 1.369 . S
C901 C910 1.429 . S
C902 C900 1.419 . S
C902 C903 1.363 . S
C902 H905 0.929 . S
C903 C902 1.363 . S
C903 C909 1.428 . S
H904 C900 0.930 . S
H905 C902 0.929 . S
S906 N907 1.613 . S
S906 N908 1.610 . S
N907 S906 1.613 . S
N907 C910 1.350 . S
N908 S906 1.610 . S
N908 C909 1.351 . S
C909 C903 1.428 . S
C909 N908 1.351 . S
C909 C910 1.434 . S
C910 C901 1.429 . S
C910 N907 1.350 . S
C910 C909 1.434 . S
C911 C912 1.369 1_455 S
C911 C913 1.419 . S
C911 H915 0.930 1_455 S
C912 C911 1.369 1_655 S
C912 C921 1.429 1_655 S
C913 C911 1.419 . S
C913 C914 1.363 . S
C913 H916 0.929 . S
C914 C913 1.363 . S
C914 C920 1.428 . S
H915 C911 0.930 1_655 S
H916 C913 0.929 . S
S917 N918 1.600 1_455 S
S917 N919 1.610 . S
N918 S917 1.600 1_655 S
N918 C921 1.345 1_655 S
N919 S917 1.610 . S
N919 C920 1.351 . S
C920 C914 1.428 . S
C920 N919 1.351 . S
C920 C921 1.434 . S
C921 C912 1.429 1_455 S
C921 N918 1.345 1_455 S
C921 C920 1.434 . S
C922 C923 1.369 . S
C922 C924 1.419 . S
C922 H926 0.930 . S
C923 C922 1.369 . S
C923 C932 1.429 . S
C924 C922 1.419 . S
C924 C925 1.363 . S
C924 H927 0.929 . S
C925 C924 1.363 . S
C925 C931 1.428 . S
H926 C922 0.930 . S
H927 C924 0.929 . S
S928 N929 1.613 . S
S928 N930 1.610 . S
N929 S928 1.613 . S
N929 C932 1.350 . S
N930 S928 1.610 . S
N930 C931 1.351 . S
C931 C925 1.428 . S
C931 N930 1.351 . S
C931 C932 1.434 . S
C932 C923 1.429 . S
C932 N929 1.350 . S
C932 C931 1.434 . S
C933 C934 1.369 . S
C933 C935 1.419 . S
C933 H937 0.930 . S
C934 C933 1.369 . S
C934 C943 1.429 . S
C935 C933 1.419 . S
C935 C936 1.363 . S
C935 H938 0.929 . S
C936 C935 1.363 . S
C936 C942 1.428 . S
H937 C933 0.930 . S
H938 C935 0.929 . S
S939 N940 1.613 . S
S939 N941 1.610 . S
N940 S939 1.613 . S
N940 C943 1.350 . S
N941 S939 1.610 . S
N941 C942 1.351 . S
C942 C936 1.428 . S
C942 N941 1.351 . S
C942 C943 1.434 . S
C943 C934 1.429 . S
C943 N940 1.350 . S
C943 C942 1.434 . S
C944 C945 1.369 . S
C944 C946 1.419 . S
C944 H948 0.930 . S
C945 C944 1.369 . S
C945 C954 1.429 . S
C946 C944 1.419 . S
C946 C947 1.363 . S
C946 H949 0.929 . S
C947 C946 1.363 . S
C947 C953 1.428 . S
H948 C944 0.930 . S
H949 C946 0.929 . S
S950 N951 1.613 . S
S950 N952 1.610 . S
N951 S950 1.613 . S
N951 C954 1.350 . S
N952 S950 1.610 . S
N952 C953 1.351 . S
C953 C947 1.428 . S
C953 N952 1.351 . S
C953 C954 1.434 . S
C954 C945 1.429 . S
C954 N951 1.350 . S
C954 C953 1.434 . S
C955 C956 1.369 . S
C955 C957 1.419 . S
C955 H959 0.930 . S
C956 C955 1.369 . S
C956 C965 1.429 . S
C957 C955 1.419 . S
C957 C958 1.363 . S
C957 H960 0.929 . S
C958 C957 1.363 . S
C958 C964 1.428 . S
H959 C955 0.930 . S
H960 C957 0.929 . S
S961 N962 1.613 . S
S961 N963 1.610 . S
N962 S961 1.613 . S
N962 C965 1.350 . S
N963 S961 1.610 . S
N963 C964 1.351 . S
C964 C958 1.428 . S
C964 N963 1.351 . S
C964 C965 1.434 . S
C965 C956 1.429 . S
C965 N962 1.350 . S
C965 C964 1.434 . S
C966 C967 1.369 . S
C966 C968 1.419 . S
C966 H970 0.930 . S
C967 C966 1.369 . S
C967 C976 1.429 . S
C968 C966 1.419 . S
C968 C969 1.363 . S
C968 H971 0.929 . S
C969 C968 1.363 . S
C969 C975 1.428 . S
H970 C966 0.930 . S
H971 C968 0.929 . S
S972 N973 1.613 . S
S972 N974 1.610 . S
N973 S972 1.613 . S
N973 C976 1.350 . S
N974 S972 1.610 . S
N974 C975 1.351 . S
C975 C969 1.428 . S
C975 N974 1.351 . S
C975 C976 1.434 . S
C976 C967 1.429 . S
C976 N973 1.350 . S
C976 C975 1.434 . S
C977 C978 1.369 . S
C977 C979 1.419 . S
C977 H981 0.930 . S
C978 C977 1.369 . S
C978 C987 1.429 . S
C979 C977 1.419 . S
C979 C980 1.363 . S
C979 H982 0.929 . S
C980 C979 1.363 . S
C980 C986 1.428 . S
H981 C977 0.930 . S
H982 C979 0.929 . S
S983 N984 1.613 . S
S983 N985 1.610 . S
N984 S983 1.613 . S
N984 C987 1.350 . S
N985 S983 1.610 . S
N985 C986 1.351 . S
C986 C980 1.428 . S
C986 N985 1.351 . S
C986 C987 1.434 . S
C987 C978 1.429 . S
C987 N984 1.350 . S
C987 C986 1.434 . S
C988 C989 1.369 . S
C988 C990 1.419 . S
C988 H992 0.930 . S
C989 C988 1.369 . S
C989 C998 1.429 . S
C990 C988 1.419 . S
C990 C991 1.363 . S
C990 H993 0.929 . S
C991 C990 1.363 . S
C991 C997 1.428 . S
H992 C988 0.930 . S
H993 C990 0.929 . S
S994 N995 1.613 . S
S994 N996 1.610 . S
N995 S994 1.613 . S
N995 C998 1.350 . S
N996 S994 1.610 . S
N996 C997 1.351 . S
C997 C991 1.428 . S
C997 N996 1.351 . S
C997 C998 1.434 . S
C998 C989 1.429 . S
C998 N995 1.350 . S
C998 C997 1.434 . S
C999 C1000 1.369 . S
C999 C1001 1.419 . S
C999 H1003 0.930 . S
C1000 C999 1.369 . S
C1000 C1009 1.429 . S
C1001 C999 1.419 . S
C1001 C1002 1.363 . S
C1001 H1004 0.929 . S
C1002 C1001 1.363 . S
C1002 C1008 1.428 . S
H1003 C999 0.930 . S
H1004 C1001 0.929 . S
S1005 N1006 1.613 . S
S1005 N1007 1.610 . S
N1006 S1005 1.613 . S
N1006 C1009 1.350 . S
N1007 S1005 1.610 . S
N1007 C1008 1.351 . S
C1008 C1002 1.428 . S
C1008 N1007 1.351 . S
C1008 C1009 1.434 . S
C1009 C1000 1.429 . S
C1009 N1006 1.350 . S
C1009 C1008 1.434 . S
C1010 C1011 1.369 . S
C1010 C1012 1.419 . S
C1010 H1014 0.930 . S
C1011 C1010 1.369 . S
C1011 C1020 1.429 . S
C1012 C1010 1.419 . S
C1012 C1013 1.363 . S
C1012 H1015 0.929 . S
C1013 C1012 1.363 . S
C1013 C1019 1.428 . S
H1014 C1010 0.930 . S
H1015 C1012 0.929 . S
S1016 N1017 1.613 . S
S1016 N1018 1.610 . S
N1017 S1016 1.613 . S
N1017 C1020 1.350 . S
N1018 S1016 1.610 . S
N1018 C1019 1.351 . S
C1019 C1013 1.428 . S
C1019 N1018 1.351 . S
C1019 C1020 1.434 . S
C1020 C1011 1.429 . S
C1020 N1017 1.350 . S
C1020 C1019 1.434 . S
C1021 C1022 1.369 . S
C1021 C1023 1.419 . S
C1021 H1025 0.930 . S
C1022 C1021 1.369 . S
C1022 C1031 1.429 . S
C1023 C1021 1.419 . S
C1023 C1024 1.363 . S
C1023 H1026 0.929 . S
C1024 C1023 1.363 . S
C1024 C1030 1.428 . S
H1025 C1021 0.930 . S
H1026 C1023 0.929 . S
S1027 N1028 1.613 . S
S1027 N1029 1.610 . S
N1028 S1027 1.613 . S
N1028 C1031 1.350 . S
N1029 S1027 1.610 . S
N1029 C1030 1.351 . S
C1030 C1024 1.428 . S
C1030 N1029 1.351 . S
C1030 C1031 1.434 . S
C1031 C1022 1.429 . S
C1031 N1028 1.350 . S
C1031 C1030 1.434 . S
C1032 C1033 1.369 . S
C1032 C1034 1.419 . S
C1032 H1036 0.930 . S
C1033 C1032 1.369 . S
C1033 C1042 1.429 . S
C1034 C1032 1.419 . S
C1034 C1035 1.363 . S
C1034 H1037 0.929 . S
C1035 C1034 1.363 . S
C1035 C1041 1.428 . S
H1036 C1032 0.930 . S
H1037 C1034 0.929 . S
S1038 N1039 1.613 . S
S1038 N1040 1.610 . S
N1039 S1038 1.613 . S
N1039 C1042 1.350 . S
N1040 S1038 1.610 . S
N1040 C1041 1.351 . S
C1041 C1035 1.428 . S
C1041 N1040 1.351 . S
C1041 C1042 1.434 . S
C1042 C1033 1.429 . S
C1042 N1039 1.350 . S
C1042 C1041 1.434 . S
C1043 C1044 1.369 . S
C1043 C1045 1.419 . S
C1043 H1047 0.930 . S
C1044 C1043 1.369 . S
C1044 C1053 1.429 . S
C1045 C1043 1.419 . S
C1045 C1046 1.363 . S
C1045 H1048 0.929 . S
C1046 C1045 1.363 . S
C1046 C1052 1.428 . S
H1047 C1043 0.930 . S
H1048 C1045 0.929 . S
S1049 N1050 1.613 . S
S1049 N1051 1.610 . S
N1050 S1049 1.613 . S
N1050 C1053 1.350 . S
N1051 S1049 1.610 . S
N1051 C1052 1.351 . S
C1052 C1046 1.428 . S
C1052 N1051 1.351 . S
C1052 C1053 1.434 . S
C1053 C1044 1.429 . S
C1053 N1050 1.350 . S
C1053 C1052 1.434 . S
C1054 C1055 1.369 . S
C1054 C1056 1.419 . S
C1054 H1058 0.930 . S
C1055 C1054 1.369 . S
C1055 C1064 1.429 . S
C1056 C1054 1.419 . S
C1056 C1057 1.363 . S
C1056 H1059 0.929 . S
C1057 C1056 1.363 . S
C1057 C1063 1.428 . S
H1058 C1054 0.930 . S
H1059 C1056 0.929 . S
S1060 N1061 1.613 . S
S1060 N1062 1.610 . S
N1061 S1060 1.613 . S
N1061 C1064 1.350 . S
N1062 S1060 1.610 . S
N1062 C1063 1.351 . S
C1063 C1057 1.428 . S
C1063 N1062 1.351 . S
C1063 C1064 1.434 . S
C1064 C1055 1.429 . S
C1064 N1061 1.350 . S
C1064 C1063 1.434 . S
C1065 C1066 1.369 . S
C1065 C1067 1.419 . S
C1065 H1069 0.930 . S
C1066 C1065 1.369 . S
C1066 C1075 1.429 . S
C1067 C1065 1.419 . S
C1067 C1068 1.363 . S
C1067 H1070 0.929 . S
C1068 C1067 1.363 . S
C1068 C1074 1.428 . S
H1069 C1065 0.930 . S
H1070 C1067 0.929 . S
S1071 N1072 1.613 . S
S1071 N1073 1.610 . S
N1072 S1071 1.613 . S
N1072 C1075 1.350 . S
N1073 S1071 1.610 . S
N1073 C1074 1.351 . S
C1074 C1068 1.428 . S
C1074 N1073 1.351 . S
C1074 C1075 1.434 . S
C1075 C1066 1.429 . S
C1075 N1072 1.350 . S
C1075 C1074 1.434 . S
C1076 C1077 1.369 . S
C1076 C1078 1.419 . S
C1076 H1080 0.930 . S
C1077 C1076 1.369 . S
C1077 C1086 1.429 . S
C1078 C1076 1.419 . S
C1078 C1079 1.363 . S
C1078 H1081 0.929 . S
C1079 C1078 1.363 . S
C1079 C1085 1.428 . S
H1080 C1076 0.930 . S
H1081 C1078 0.929 . S
S1082 N1083 1.613 . S
S1082 N1084 1.610 . S
N1083 S1082 1.613 . S
N1083 C1086 1.350 . S
N1084 S1082 1.610 . S
N1084 C1085 1.351 . S
C1085 C1079 1.428 . S
C1085 N1084 1.351 . S
C1085 C1086 1.434 . S
C1086 C1077 1.429 . S
C1086 N1083 1.350 . S
C1086 C1085 1.434 . S
C1087 C1088 1.369 . S
C1087 C1089 1.419 . S
C1087 H1091 0.930 . S
C1088 C1087 1.369 . S
C1088 C1097 1.429 . S
C1089 C1087 1.419 . S
C1089 C1090 1.363 . S
C1089 H1092 0.929 . S
C1090 C1089 1.363 . S
C1090 C1096 1.428 . S
H1091 C1087 0.930 . S
H1092 C1089 0.929 . S
S1093 N1094 1.613 . S
S1093 N1095 1.610 . S
N1094 S1093 1.613 . S
N1094 C1097 1.350 . S
N1095 S1093 1.610 . S
N1095 C1096 1.351 . S
C1096 C1090 1.428 . S
C1096 N1095 1.351 . S
C1096 C1097 1.434 . S
C1097 C1088 1.429 . S
C1097 N1094 1.350 . S
C1097 C1096 1.434 . S
C1098 C1099 1.369 . S
C1098 C1100 1.419 . S
C1098 H1102 0.930 . S
C1099 C1098 1.369 . S
C1099 C1108 1.429 . S
C1100 C1098 1.419 . S
C1100 C1101 1.363 . S
C1100 H1103 0.929 . S
C1101 C1100 1.363 . S
C1101 C1107 1.428 . S
H1102 C1098 0.930 . S
H1103 C1100 0.929 . S
S1104 N1105 1.613 . S
S1104 N1106 1.610 . S
N1105 S1104 1.613 . S
N1105 C1108 1.350 . S
N1106 S1104 1.610 . S
N1106 C1107 1.351 . S
C1107 C1101 1.428 . S
C1107 N1106 1.351 . S
C1107 C1108 1.434 . S
C1108 C1099 1.429 . S
C1108 N1105 1.350 . S
C1108 C1107 1.434 . S
C1109 C1110 1.369 . S
C1109 C1111 1.419 . S
C1109 H1113 0.930 . S
C1110 C1109 1.369 . S
C1110 C1119 1.429 . S
C1111 C1109 1.419 . S
C1111 C1112 1.363 . S
C1111 H1114 0.929 . S
C1112 C1111 1.363 . S
C1112 C1118 1.428 . S
H1113 C1109 0.930 . S
H1114 C1111 0.929 . S
S1115 N1116 1.613 . S
S1115 N1117 1.610 . S
N1116 S1115 1.613 . S
N1116 C1119 1.350 . S
N1117 S1115 1.610 . S
N1117 C1118 1.351 . S
C1118 C1112 1.428 . S
C1118 N1117 1.351 . S
C1118 C1119 1.434 . S
C1119 C1110 1.429 . S
C1119 N1116 1.350 . S
C1119 C1118 1.434 . S
C417 C10 1.528 . S
C419 C56 1.523 . S
C428 C23 1.522 . S
C430 C75 1.524 . S
C439 C82 1.521 . S
C441 C30 1.527 . S
C450 C101 1.524 . S
C452 C49 1.523 . S
C461 C108 1.521 . S
C463 C166 1.527 . S
C472 C121 1.522 . S
C474 C173 1.527 . S
C483 C186 1.521 . S
C485 C140 1.524 . S
C494 C147 1.528 . S
C496 C205 1.524 . S
C505 C264 1.528 . S
C507 C212 1.522 . S
C516 C283 1.525 . S
C518 C231 1.522 . S
C527 C238 1.528 . S
C529 C290 1.522 . S
C538 C309 1.528 . S
C540 C251 1.523 . S
C549 C322 1.528 . S
C551 C374 1.522 . S
C560 C381 1.522 . S
C562 C335 1.523 . S
C571 C400 1.526 . S
C573 C348 1.521 . S
C582 C355 1.526 . S
C584 C407 1.521 . S
C593 C3 1.651 . S
C595 C361 1.649 . S
C604 C114 1.649 . S
C606 C16 1.651 . S
C615 C31 1.653 . S
C617 C329 1.647 . S
C626 C42 1.651 . S
C628 C134 1.648 . S
C637 C387 1.646 . S
C639 C57 1.654 . S
C648 C192 1.648 . S
C650 C68 1.654 . S
C659 C83 1.654 . S
C661 C413 1.650 . S
C670 C94 1.651 . S
C672 C160 1.650 . S
C681 C257 1.646 . S
C683 C109 1.653 . S
C692 C122 1.653 . S
C694 C4 1.647 . S
C703 C225 1.647 . S
C705 C133 1.651 . S
C714 C148 1.654 . S
C716 C36 1.649 . S
C725 C277 1.646 . S
C727 C159 1.652 . S
C736 C174 1.655 . S
C738 C88 1.648 . S
C747 C303 1.646 . S
C749 C187 1.653 . S
C758 C198 1.651 . S
C760 C62 1.650 . S
C769 C153 1.646 . S
C771 C213 1.654 . S
C780 C316 1.648 . S
C782 C224 1.651 . S
C791 C127 1.651 . S
C793 C239 1.652 . S
C802 C252 1.653 . S
C804 C342 1.650 . S
C813 C179 1.647 . S
C815 C265 1.654 . S
C824 C394 1.650 . S
C826 C276 1.653 . S
C835 C199 1.650 . S
C837 C291 1.651 . S
C846 C302 1.653 . S
C848 C368 1.647 . S
C857 C315 1.655 . S
C859 C43 1.648 . S
C868 C328 1.655 . S
C870 C218 1.648 . S
C879 C341 1.653 . S
C881 C17 1.647 . S
C890 C356 1.654 . S
C892 C244 1.650 . S
C901 C367 1.652 . S
C903 C69 1.650 . S
C912 C296 1.648 . S
C914 C382 1.654 . S
C923 C95 1.647 . S
C925 C393 1.652 . S
C934 C408 1.653 . S
C936 C270 1.650 . S
C945 C5 1.269 . S
C947 C96 1.266 . S
C956 C18 1.262 . S
C958 C55 1.264 . S
C967 C29 1.267 . S
C969 C70 1.269 . S
C978 C81 1.263 . S
C980 C44 1.263 . S
C989 C200 1.262 . S
C991 C107 1.265 . S
C1000 C161 1.263 . S
C1002 C120 1.263 . S
C1011 C172 1.270 . S
C1013 C135 1.269 . S
C1022 C185 1.268 . S
C1024 C146 1.269 . S
C1033 C211 1.266 . S
C1035 C304 1.264 . S
C1044 C263 1.270 . S
C1046 C226 1.267 . S
C1055 C278 1.270 . S
C1057 C237 1.269 . S
C1066 C289 1.269 . S
C1068 C250 1.270 . S
C1077 C406 1.262 . S
C1079 C317 1.265 . S
C1088 C330 1.270 . S
C1090 C369 1.267 . S
C1099 C343 1.267 . S
C1101 C380 1.265 . S
C1110 C354 1.265 . S
C1112 C395 1.263 . S
