# Generated by pormake.
# Topology umn, (4)-cn, num edge types: 1
# Building blocks:
#     Node 0, Type 0, BuildingBlock: TATPOV_clean_sbu_0, # of connection points: 4
#     Node 1, Type 0, BuildingBlock: TATPOV_clean_sbu_0, # of connection points: 4
#     Node 2, Type 0, BuildingBlock: TATPOV_clean_sbu_0, # of connection points: 4
#     Node 3, Type 0, BuildingBlock: TATPOV_clean_sbu_0, # of connection points: 4
#     Node 4, Type 0, BuildingBlock: TATPOV_clean_sbu_0, # of connection points: 4
#     Node 5, Type 0, BuildingBlock: TATPOV_clean_sbu_0, # of connection points: 4
#     Node 6, Type 0, BuildingBlock: TATPOV_clean_sbu_0, # of connection points: 4
#     Node 7, Type 0, BuildingBlock: TATPOV_clean_sbu_0, # of connection points: 4
#     Node 8, Type 0, BuildingBlock: TATPOV_clean_sbu_0, # of connection points: 4
#     Node 9, Type 0, BuildingBlock: TATPOV_clean_sbu_0, # of connection points: 4
#     Node 10, Type 0, BuildingBlock: TATPOV_clean_sbu_0, # of connection points: 4
#     Node 11, Type 0, BuildingBlock: TATPOV_clean_sbu_0, # of connection points: 4
#     Node 12, Type 0, BuildingBlock: TATPOV_clean_sbu_0, # of connection points: 4
#     Node 13, Type 0, BuildingBlock: TATPOV_clean_sbu_0, # of connection points: 4
#     Node 14, Type 0, BuildingBlock: TATPOV_clean_sbu_0, # of connection points: 4
#     Node 15, Type 0, BuildingBlock: TATPOV_clean_sbu_0, # of connection points: 4
#     Node 16, Type 0, BuildingBlock: TATPOV_clean_sbu_0, # of connection points: 4
#     Node 17, Type 0, BuildingBlock: TATPOV_clean_sbu_0, # of connection points: 4
#     Node 18, Type 0, BuildingBlock: TATPOV_clean_sbu_0, # of connection points: 4
#     Node 19, Type 0, BuildingBlock: TATPOV_clean_sbu_0, # of connection points: 4
#     Node 20, Type 0, BuildingBlock: TATPOV_clean_sbu_0, # of connection points: 4
#     Node 21, Type 0, BuildingBlock: TATPOV_clean_sbu_0, # of connection points: 4
#     Node 22, Type 0, BuildingBlock: TATPOV_clean_sbu_0, # of connection points: 4
#     Node 23, Type 0, BuildingBlock: TATPOV_clean_sbu_0, # of connection points: 4
#     Node 24, Type 0, BuildingBlock: TATPOV_clean_sbu_0, # of connection points: 4
#     Node 25, Type 0, BuildingBlock: TATPOV_clean_sbu_0, # of connection points: 4
#     Node 26, Type 0, BuildingBlock: TATPOV_clean_sbu_0, # of connection points: 4
#     Node 27, Type 0, BuildingBlock: TATPOV_clean_sbu_0, # of connection points: 4
#     Node 28, Type 0, BuildingBlock: TATPOV_clean_sbu_0, # of connection points: 4
#     Node 29, Type 0, BuildingBlock: TATPOV_clean_sbu_0, # of connection points: 4
#     Node 30, Type 0, BuildingBlock: TATPOV_clean_sbu_0, # of connection points: 4
#     Node 31, Type 0, BuildingBlock: TATPOV_clean_sbu_0, # of connection points: 4
#     Node 32, Type 0, BuildingBlock: TATPOV_clean_sbu_0, # of connection points: 4
#     Node 33, Type 0, BuildingBlock: TATPOV_clean_sbu_0, # of connection points: 4
#     Node 34, Type 0, BuildingBlock: TATPOV_clean_sbu_0, # of connection points: 4
#     Node 35, Type 0, BuildingBlock: TATPOV_clean_sbu_0, # of connection points: 4
#     Edge 36, Type (0, 0), None
#     Edge 37, Type (0, 0), None
#     Edge 38, Type (0, 0), None
#     Edge 39, Type (0, 0), None
#     Edge 40, Type (0, 0), None
#     Edge 41, Type (0, 0), None
#     Edge 42, Type (0, 0), None
#     Edge 43, Type (0, 0), None
#     Edge 44, Type (0, 0), None
#     Edge 45, Type (0, 0), None
#     Edge 46, Type (0, 0), None
#     Edge 47, Type (0, 0), None
#     Edge 48, Type (0, 0), None
#     Edge 49, Type (0, 0), None
#     Edge 50, Type (0, 0), None
#     Edge 51, Type (0, 0), None
#     Edge 52, Type (0, 0), None
#     Edge 53, Type (0, 0), None
#     Edge 54, Type (0, 0), None
#     Edge 55, Type (0, 0), None
#     Edge 56, Type (0, 0), None
#     Edge 57, Type (0, 0), None
#     Edge 58, Type (0, 0), None
#     Edge 59, Type (0, 0), None
#     Edge 60, Type (0, 0), None
#     Edge 61, Type (0, 0), None
#     Edge 62, Type (0, 0), None
#     Edge 63, Type (0, 0), None
#     Edge 64, Type (0, 0), None
#     Edge 65, Type (0, 0), None
#     Edge 66, Type (0, 0), None
#     Edge 67, Type (0, 0), None
#     Edge 68, Type (0, 0), None
#     Edge 69, Type (0, 0), None
#     Edge 70, Type (0, 0), None
#     Edge 71, Type (0, 0), None
#     Edge 72, Type (0, 0), None
#     Edge 73, Type (0, 0), None
#     Edge 74, Type (0, 0), None
#     Edge 75, Type (0, 0), None
#     Edge 76, Type (0, 0), None
#     Edge 77, Type (0, 0), None
#     Edge 78, Type (0, 0), None
#     Edge 79, Type (0, 0), None
#     Edge 80, Type (0, 0), None
#     Edge 81, Type (0, 0), None
#     Edge 82, Type (0, 0), None
#     Edge 83, Type (0, 0), None
#     Edge 84, Type (0, 0), None
#     Edge 85, Type (0, 0), None
#     Edge 86, Type (0, 0), None
#     Edge 87, Type (0, 0), None
#     Edge 88, Type (0, 0), None
#     Edge 89, Type (0, 0), None
#     Edge 90, Type (0, 0), None
#     Edge 91, Type (0, 0), None
#     Edge 92, Type (0, 0), None
#     Edge 93, Type (0, 0), None
#     Edge 94, Type (0, 0), None
#     Edge 95, Type (0, 0), None
#     Edge 96, Type (0, 0), None
#     Edge 97, Type (0, 0), None
#     Edge 98, Type (0, 0), None
#     Edge 99, Type (0, 0), None
#     Edge 100, Type (0, 0), None
#     Edge 101, Type (0, 0), None
#     Edge 102, Type (0, 0), None
#     Edge 103, Type (0, 0), None
#     Edge 104, Type (0, 0), None
#     Edge 105, Type (0, 0), None
#     Edge 106, Type (0, 0), None
#     Edge 107, Type (0, 0), None
# Relax obj value: 0.217
# Max RMSD: 0.291
# Mean RMSD: 0.283
data_MOF--net-umn--node1-TATPOV_clean_sbu_0--edge1-none
_symmetry_space_group_name_H-M    P1
_symmetry_Int_Tables_number       1
_symmetry_cell_setting            triclinic
loop_
_symmetry_equiv_pos_as_xyz
'x, y, z'
_cell_length_a     39.330203
_cell_length_b     39.325016
_cell_length_c     16.750558
_cell_angle_alpha  90.554872
_cell_angle_beta   89.460899
_cell_angle_gamma 120.16767
loop_
_atom_site_label
_atom_site_type_symbol
_atom_site_fract_x
_atom_site_fract_y
_atom_site_fract_z
_atom_type_partial_charge
Zn0 Zn 0.34752 0.01583 0.21857 0.0
Zn1 Zn 0.32339 0.07778 0.22559 0.0
O2 O 0.36148 0.08279 0.1322 0.0
O3 O 0.39946 0.06027 0.1723 0.0
O4 O 0.31978 0.12598 0.23074 0.0
O5 O 0.32479 0.00993 0.33168 0.0
O6 O 0.33526 0.07031 0.33609 0.0
C7 C 0.39011 0.07669 0.11857 0.0
C8 C 0.27186 0.002 0.18826 0.0
O9 O 0.26819 0.03013 0.21489 0.0
O10 O 0.30302 0.01119 0.14946 0.0
C11 C 0.30607 0.13241 0.16861 0.0
O12 O 0.29574 0.10766 0.10825 0.0
C13 C 0.31703 0.03512 0.36107 0.0
Zn14 Zn 0.9318 0.33415 0.29156 0.0
Zn15 Zn 0.88097 0.22727 0.23483 0.0
O16 O 0.88229 0.26325 0.13867 0.0
O17 O 0.91221 0.327 0.17368 0.0
O18 O 0.83706 0.17184 0.22651 0.0
O19 O 0.92309 0.29389 0.38318 0.0
O20 O 0.86952 0.24053 0.34707 0.0
C21 C 0.89488 0.29962 0.12188 0.0
C22 C 0.9546 0.267 0.26675 0.0
O23 O 0.93553 0.23138 0.24431 0.0
O24 O 0.9367 0.28614 0.26209 0.0
C25 C 0.81001 0.1617 0.17566 0.0
O26 O 0.8144 0.1856 0.11723 0.0
C27 C 0.89742 0.25809 0.39673 0.0
Zn28 Zn 0.59952 0.57524 0.28661 0.0
Zn29 Zn 0.70913 0.62695 0.23796 0.0
O30 O 0.67843 0.5884 0.14169 0.0
O31 O 0.61489 0.5656 0.16905 0.0
O32 O 0.76475 0.63941 0.24229 0.0
O33 O 0.63575 0.61326 0.37733 0.0
O34 O 0.68842 0.6091 0.35132 0.0
C35 C 0.642 0.56904 0.12114 0.0
C36 C 0.66639 0.65783 0.23488 0.0
O37 O 0.70331 0.67534 0.22384 0.0
O38 O 0.64825 0.62061 0.2341 0.0
C39 C 0.7849 0.64831 0.17883 0.0
O40 O 0.76955 0.65136 0.11187 0.0
C41 C 0.67187 0.62488 0.39064 0.0
Zn42 Zn 0.0045 0.35886 0.28222 0.0
Zn43 Zn 0.06657 0.33482 0.27482 0.0
O44 O 0.0719 0.37338 0.36722 0.0
O45 O 0.04913 0.4111 0.32688 0.0
O46 O 0.11473 0.33108 0.27001 0.0
O47 O -0.00167 0.33565 0.16952 0.0
O48 O 0.05877 0.3463 0.16433 0.0
C49 C 0.0658 0.40203 0.38054 0.0
C50 C -0.00916 0.28341 0.31368 0.0
O51 O 0.01889 0.27972 0.2866 0.0
O52 O 9e-05 0.31468 0.35217 0.0
C53 C 0.12113 0.31758 0.33251 0.0
O54 O 0.09637 0.30751 0.39278 0.0
C55 C 0.02349 0.32793 0.13986 0.0
Zn56 Zn 0.56401 0.61099 0.21335 0.0
Zn57 Zn 0.61557 0.72057 0.26314 0.0
O58 O 0.57699 0.6898 0.35908 0.0
O59 O 0.55438 0.62635 0.33107 0.0
O60 O 0.62797 0.7762 0.25885 0.0
O61 O 0.6019 0.64726 0.12259 0.0
O62 O 0.59741 0.69958 0.1502 0.0
C63 C 0.55768 0.65333 0.37927 0.0
C64 C 0.64642 0.67778 0.26593 0.0
O65 O 0.66391 0.71469 0.27718 0.0
O66 O 0.60919 0.65959 0.26678 0.0
C67 C 0.63671 0.79634 0.32234 0.0
O68 O 0.63968 0.781 0.38939 0.0
C69 C 0.61348 0.68347 0.11041 0.0
Zn70 Zn 0.32283 0.94316 0.21114 0.0
Zn71 Zn 0.21602 0.89233 0.26758 0.0
O72 O 0.25182 0.89368 0.36437 0.0
O73 O 0.31552 0.92367 0.32927 0.0
O74 O 0.1606 0.84841 0.27524 0.0
O75 O 0.28284 0.93461 0.11898 0.0
O76 O 0.22953 0.88106 0.15533 0.0
C77 C 0.2882 0.90636 0.38119 0.0
C78 C 0.25561 0.96591 0.23563 0.0
O79 O 0.22 0.94682 0.25806 0.0
O80 O 0.27482 0.9481 0.24058 0.0
C81 C 0.15034 0.8214 0.3262 0.0
O82 O 0.17411 0.82584 0.38493 0.0
C83 C 0.24702 0.90895 0.10561 0.0
Zn84 Zn 0.58504 0.93939 0.78252 0.0
Zn85 Zn 0.60905 0.8773 0.77518 0.0
O86 O 0.57062 0.87209 0.86784 0.0
O87 O 0.53286 0.89483 0.82753 0.0
O88 O 0.61274 0.82911 0.77032 0.0
O89 O 0.60809 0.94546 0.66972 0.0
O90 O 0.59747 0.88502 0.66468 0.0
C91 C 0.54199 0.87821 0.88122 0.0
C92 C 0.66053 0.95306 0.8136 0.0
O93 O 0.6642 0.92497 0.78665 0.0
O94 O 0.6293 0.9438 0.8522 0.0
C95 C 0.62629 0.82272 0.83277 0.0
O96 O 0.63642 0.8475 0.89303 0.0
C97 C 0.6158 0.92028 0.64008 0.0
Zn98 Zn 0.00058 0.62099 0.71076 0.0
Zn99 Zn 0.05154 0.72789 0.76731 0.0
O100 O 0.05024 0.69214 0.86401 0.0
O101 O 0.02015 0.62841 0.82886 0.0
O102 O 0.09546 0.78331 0.77488 0.0
O103 O 0.0092 0.66096 0.61861 0.0
O104 O 0.06276 0.71421 0.65523 0.0
C105 C 0.03753 0.65574 0.88077 0.0
C106 C -0.02206 0.68823 0.73554 0.0
O107 O -0.00296 0.72387 0.75783 0.0
O108 O -0.00421 0.66905 0.74054 0.0
C109 C 0.12244 0.79356 0.82591 0.0
O110 O 0.11797 0.76979 0.88466 0.0
C111 C 0.03488 0.69679 0.60544 0.0
Zn112 Zn 0.33287 0.3799 0.71357 0.0
Zn113 Zn 0.22325 0.32831 0.76312 0.0
O114 O 0.25399 0.36683 0.85923 0.0
O115 O 0.31744 0.3895 0.83124 0.0
O116 O 0.16761 0.3159 0.75872 0.0
O117 O 0.29666 0.34213 0.6226 0.0
O118 O 0.24434 0.34659 0.65029 0.0
C119 C 0.29046 0.38617 0.87944 0.0
C120 C 0.26605 0.29746 0.76583 0.0
O121 O 0.22914 0.27996 0.77695 0.0
O122 O 0.28423 0.33469 0.76681 0.0
C123 C 0.14746 0.30721 0.82219 0.0
O124 O 0.1628 0.30427 0.88928 0.0
C125 C 0.26045 0.33054 0.61042 0.0
Zn126 Zn 0.92801 0.5963 0.71886 0.0
Zn127 Zn 0.86608 0.62046 0.72591 0.0
O128 O 0.86096 0.58225 0.63276 0.0
O129 O 0.88352 0.5443 0.67289 0.0
O130 O 0.81791 0.62412 0.73101 0.0
O131 O 0.93399 0.61917 0.83187 0.0
O132 O 0.87362 0.60869 0.83641 0.0
C133 C 0.86704 0.5536 0.61918 0.0
C134 C 0.94184 0.67192 0.6882 0.0
O135 O 0.91374 0.67561 0.71492 0.0
O136 O 0.93266 0.64072 0.64949 0.0
C137 C 0.81147 0.6378 0.66884 0.0
O138 O 0.8362 0.64807 0.60848 0.0
C139 C 0.90883 0.62695 0.86129 0.0
Zn140 Zn 0.36858 0.34433 0.78688 0.0
Zn141 Zn 0.31689 0.23476 0.73799 0.0
O142 O 0.35551 0.26548 0.6419 0.0
O143 O 0.37826 0.32902 0.66928 0.0
O144 O 0.30442 0.17914 0.74221 0.0
O145 O 0.33044 0.30805 0.87738 0.0
O146 O 0.33461 0.25537 0.85145 0.0
C147 C 0.37486 0.30191 0.62137 0.0
C148 C 0.28602 0.2775 0.7348 0.0
O149 O 0.26851 0.24058 0.72364 0.0
O150 O 0.32324 0.29564 0.73417 0.0
C151 C 0.2955 0.15901 0.67871 0.0
O152 O 0.29245 0.17438 0.61179 0.0
C153 C 0.31882 0.27192 0.89067 0.0
Zn154 Zn 0.60977 0.01218 0.7912 0.0
Zn155 Zn 0.71657 0.06289 0.73454 0.0
O156 O 0.68057 0.06152 0.63828 0.0
O157 O 0.61685 0.0317 0.67329 0.0
O158 O 0.772 0.1068 0.72619 0.0
O159 O 0.65001 0.02081 0.88286 0.0
O160 O 0.70341 0.07437 0.8469 0.0
C161 C 0.64422 0.04897 0.62146 0.0
C162 C 0.6769 -0.01073 0.76661 0.0
O163 O 0.71249 0.00833 0.74405 0.0
O164 O 0.65773 0.00714 0.76196 0.0
C165 C 0.78214 0.13388 0.6754 0.0
O166 O 0.75823 0.12951 0.61699 0.0
C167 C 0.68581 0.04646 0.89652 0.0
Zn168 Zn 0.03647 0.35088 0.62571 0.0
Zn169 Zn -0.00354 0.416 0.56621 0.0
O170 O 0.04202 0.42832 0.48213 0.0
O171 O 0.05398 0.38059 0.51325 0.0
O172 O -0.01464 0.45879 0.56809 0.0
O173 O -0.01009 0.3445 0.69763 0.0
O174 O -0.00105 0.40439 0.68435 0.0
C175 C 0.05807 0.40763 0.46525 0.0
C176 C 0.96455 0.3436 0.54222 0.0
O177 O 0.94856 0.36413 0.52978 0.0
O178 O 0.00097 0.36177 0.55617 0.0
C179 C -0.0286 0.46249 0.50368 0.0
O180 O -0.03377 0.43878 0.44339 0.0
C181 C -0.02183 0.36908 0.70934 0.0
Zn182 Zn 0.58566 0.67579 0.6351 0.0
Zn183 Zn 0.53654 0.57037 0.57844 0.0
O184 O 0.53608 0.60692 0.4858 0.0
O185 O 0.57056 0.67122 0.51504 0.0
O186 O 0.49202 0.51589 0.56845 0.0
O187 O 0.59127 0.63635 0.71375 0.0
O188 O 0.53549 0.58149 0.69827 0.0
C189 C 0.55115 0.64326 0.46561 0.0
C190 C 0.61051 0.61146 0.57882 0.0
O191 O 0.5903 0.57491 0.56355 0.0
O192 O 0.59221 0.62948 0.59549 0.0
C193 C 0.48343 0.49731 0.5031 0.0
O194 O 0.5051 0.51379 0.43942 0.0
C195 C 0.56839 0.60052 0.73383 0.0
Zn196 Zn 0.31255 0.92054 0.61624 0.0
Zn197 Zn 0.3763 0.9566 0.58438 0.0
O198 O 0.33738 0.93087 0.48341 0.0
O199 O 0.27573 0.89403 0.52221 0.0
O200 O 0.42449 0.95454 0.56099 0.0
O201 O 0.30709 0.92966 0.73235 0.0
O202 O 0.36741 0.94468 0.70642 0.0
C203 C 0.30079 0.90868 0.46593 0.0
C204 C 0.35982 0.01273 0.61476 0.0
O205 O 0.3899 0.0127 0.58725 0.0
O206 O 0.32833 -0.01997 0.62391 0.0
C207 C 0.44785 0.97748 0.50858 0.0
O208 O 0.43884 0.00055 0.46908 0.0
C209 C 0.34329 0.94896 0.75092 0.0
Zn210 Zn 0.6918 0.72766 0.53872 0.0
Zn211 Zn 0.72704 0.6651 0.58634 0.0
O212 O 0.72953 0.70179 0.6824 0.0
O213 O 0.70023 0.73671 0.66038 0.0
O214 O 0.77012 0.65379 0.59943 0.0
O215 O 0.67555 0.67931 0.45864 0.0
O216 O 0.72778 0.67333 0.46444 0.0
C217 C 0.71723 0.72474 0.70733 0.0
C218 C 0.65251 0.6329 0.58723 0.0
O219 O 0.67321 0.61718 0.6012 0.0
O220 O 0.66964 0.66911 0.56966 0.0
C221 C 0.77718 0.64255 0.66433 0.0
O222 O 0.75441 0.63634 0.72681 0.0
C223 C 0.69506 0.66365 0.43164 0.0
Zn224 Zn 0.29075 0.00085 0.55188 0.0
Zn225 Zn 0.28563 0.05139 0.601 0.0
O226 O 0.23777 0.01201 0.66784 0.0
O227 O 0.25977 0.97116 0.65648 0.0
O228 O 0.28882 0.10307 0.61288 0.0
O229 O 0.26899 -0.01267 0.44523 0.0
O230 O 0.2918 0.04994 0.47566 0.0
C231 C 0.2381 -0.01833 0.69283 0.0
C232 C 0.35562 0.04728 0.60836 0.0
O233 O 0.33228 0.04994 0.65754 0.0
O234 O 0.34934 0.05128 0.53773 0.0
C235 C 0.29205 0.12028 0.67875 0.0
O236 O 0.29474 0.10443 0.74532 0.0
C237 C 0.28796 0.02338 0.42594 0.0
Zn238 Zn 0.96272 0.22896 0.55657 0.0
Zn239 Zn 0.88895 0.22841 0.60426 0.0
O240 O 0.92202 0.23206 0.70592 0.0
O241 O -0.02266 0.23354 0.67511 0.0
O242 O 0.83185 0.19538 0.62763 0.0
O243 O 0.94737 0.25342 0.46388 0.0
O244 O 0.88798 0.20834 0.4907 0.0
C245 C 0.95432 0.23447 0.7274 0.0
C246 C 0.94306 0.30228 0.56101 0.0
O247 O 0.90737 0.2847 0.5844 0.0
O248 O 0.96202 0.28378 0.55053 0.0
C249 C 0.82129 0.1687 0.6796 0.0
O250 O 0.84691 0.17029 0.73133 0.0
C251 C 0.91126 0.23554 0.44436 0.0
Zn252 Zn 0.21606 0.2518 0.03882 0.0
Zn253 Zn 0.2787 0.21684 0.08624 0.0
O254 O 0.24214 0.21442 0.18242 0.0
O255 O 0.207 0.24348 0.16044 0.0
O256 O 0.29004 0.17376 0.09929 0.0
O257 O 0.2644 0.26824 0.95869 0.0
O258 O 0.27036 0.216 0.96438 0.0
C259 C 0.2191 0.22661 0.2074 0.0
C260 C 0.31096 0.29142 0.08701 0.0
O261 O 0.32662 0.27066 0.10089 0.0
O262 O 0.27475 0.27437 0.06948 0.0
C263 C 0.30131 0.16671 0.16416 0.0
O264 O 0.30755 0.18949 0.22667 0.0
C265 C 0.28004 0.24873 0.93162 0.0
Zn266 Zn 0.71505 -0.01851 0.05681 0.0
Zn267 Zn 0.71548 0.05493 0.10434 0.0
O268 O 0.71172 0.02183 0.20609 0.0
O269 O 0.71016 0.96648 0.17515 0.0
O270 O 0.74853 0.11202 0.12778 0.0
O271 O 0.69042 -0.00348 0.9639 0.0
O272 O 0.7355 0.05593 0.99069 0.0
C273 C 0.70922 -0.01052 0.2275 0.0
C274 C 0.64164 0.00094 0.06103 0.0
O275 O 0.65924 0.03663 0.08445 0.0
O276 O 0.66012 -0.01805 0.05056 0.0
C277 C 0.77518 0.12256 0.17981 0.0
O278 O 0.77356 0.09692 0.23153 0.0
C279 C 0.70831 0.03263 0.94433 0.0
Zn280 Zn 0.94312 0.65322 0.052 0.0
Zn281 Zn 0.89266 0.65841 0.10114 0.0
O282 O 0.93198 0.70634 0.16785 0.0
O283 O -0.02727 0.6842 0.15666 0.0
O284 O 0.84088 0.65502 0.11314 0.0
O285 O 0.95666 0.675 0.94541 0.0
O286 O 0.89407 0.65227 0.9758 0.0
C287 C 0.96228 0.70594 0.19292 0.0
C288 C 0.89711 0.58859 0.10834 0.0
O289 O 0.8945 0.61195 0.15759 0.0
O290 O 0.89264 0.59468 0.03786 0.0
C291 C 0.82364 0.65179 0.17897 0.0
O292 O 0.8395 0.64917 0.24559 0.0
C293 C 0.92061 0.65607 0.9261 0.0
Zn294 Zn 0.59313 0.90782 0.12679 0.0
Zn295 Zn 0.52797 0.94763 0.0667 0.0
O296 O 0.51563 0.90193 0.98278 0.0
O297 O 0.56347 0.89017 0.014 0.0
O298 O 0.48517 0.95871 0.06844 0.0
O299 O 0.59978 0.9547 0.19836 0.0
O300 O 0.53979 0.9453 0.18487 0.0
C301 C 0.5364 0.88597 0.96594 0.0
C302 C 0.60031 -0.02056 0.04248 0.0
O303 O 0.57979 -0.00456 0.0299 0.0
O304 O 0.58214 0.94306 0.05678 0.0
C305 C 0.48139 0.97249 0.00384 0.0
O306 O 0.50504 0.97751 0.94356 0.0
C307 C 0.57509 0.96632 0.20982 0.0
Zn308 Zn 0.02422 0.63129 0.11545 0.0
Zn309 Zn -0.01246 0.56769 0.08404 0.0
O310 O 0.01318 0.60659 0.98297 0.0
O311 O 0.05007 0.66827 0.02164 0.0
O312 O -0.01049 0.51946 0.06074 0.0
O313 O 0.01245 0.63639 0.23002 0.0
O314 O -0.00159 0.57613 0.20666 0.0
C315 C 0.03531 0.64318 0.96543 0.0
C316 C 0.93169 0.58439 0.1141 0.0
O317 O 0.93156 0.55427 0.08627 0.0
O318 O 0.96448 0.61581 0.12353 0.0
C319 C -0.03355 0.49605 0.0085 0.0
O320 O 0.94337 0.50508 0.96909 0.0
C321 C -0.006 0.60043 0.25035 0.0
Zn322 Zn 0.26829 0.3585 0.13537 0.0
Zn323 Zn 0.37352 0.40737 0.07851 0.0
O324 O 0.33689 0.4078 0.98597 0.0
O325 O 0.27261 0.37337 0.01525 0.0
O326 O 0.42797 0.45193 0.06834 0.0
O327 O 0.30767 0.35265 0.21377 0.0
O328 O 0.36263 0.40837 0.1985 0.0
C329 C 0.30055 0.39274 0.96578 0.0
C330 C 0.33244 0.33342 0.07878 0.0
O331 O 0.36897 0.35361 0.0634 0.0
O332 O 0.31445 0.35173 0.09566 0.0
C333 C 0.44655 0.46043 0.00302 0.0
O334 O 0.4301 0.43865 0.93943 0.0
C335 C 0.34351 0.37545 0.23394 0.0
Zn336 Zn 0.71736 0.70719 0.96403 0.0
Zn337 Zn 0.65396 0.73868 0.91665 0.0
O338 O 0.69013 0.7408 0.82003 0.0
O339 O 0.7264 0.71307 0.84225 0.0
O340 O 0.64235 0.78155 0.90275 0.0
O341 O 0.66848 0.6879 0.04349 0.0
O342 O 0.66224 0.73988 0.03848 0.0
C343 C 0.7135 0.72905 0.79495 0.0
C344 C 0.62162 0.66382 0.91623 0.0
O345 O 0.60625 0.68487 0.90269 0.0
O346 O 0.6578 0.68026 0.93428 0.0
C347 C 0.63111 0.78847 0.83767 0.0
O348 O 0.62505 0.76564 0.77532 0.0
C349 C 0.65258 0.7071 0.07086 0.0
Zn350 Zn 0.21678 0.97256 0.94449 0.0
Zn351 Zn 0.2168 0.90037 0.89745 0.0
O352 O 0.22068 0.93351 0.79547 0.0
O353 O 0.22258 -0.01103 0.82688 0.0
O354 O 0.18375 0.84334 0.87403 0.0
O355 O 0.2422 0.95874 0.03789 0.0
O356 O 0.19716 0.89925 0.01166 0.0
C357 C 0.22347 0.96603 0.7743 0.0
C358 C 0.29064 0.95411 0.94015 0.0
O359 O 0.27297 0.91842 0.91678 0.0
O360 O 0.2722 0.97311 0.95088 0.0
C361 C 0.15724 0.8327 0.82169 0.0
O362 O 0.15894 0.85826 0.76967 0.0
C363 C 0.22442 0.92267 0.05778 0.0
Zn364 Zn -0.0111 0.30178 0.94973 0.0
Zn365 Zn 0.03933 0.29655 0.90008 0.0
O366 O 5e-05 0.24844 0.83406 0.0
O367 O 0.95945 0.27078 0.84507 0.0
O368 O 0.09137 0.30042 0.88758 0.0
O369 O -0.02445 0.27979 0.05613 0.0
O370 O 0.0381 0.30259 0.02531 0.0
C371 C -0.03019 0.24892 0.80896 0.0
C372 C 0.03411 0.36592 0.89353 0.0
O373 O 0.03656 0.34258 0.84399 0.0
O374 O 0.03942 0.36028 0.96377 0.0
C375 C 0.10869 0.30368 0.82184 0.0
O376 O 0.09283 0.30614 0.75508 0.0
C377 C 0.01163 0.29875 0.07521 0.0
Zn378 Zn 0.33923 0.04671 0.87193 0.0
Zn379 Zn 0.40427 0.0072 0.93346 0.0
O380 O 0.41659 0.05309 0.01696 0.0
O381 O 0.36855 0.06458 0.98561 0.0
O382 O 0.44712 -0.00382 0.93218 0.0
O383 O 0.33199 -0.00092 0.80126 0.0
O384 O 0.39218 0.00915 0.81505 0.0
C385 C 0.39567 0.0689 0.03378 0.0
C386 C 0.33203 0.97559 0.95798 0.0
O387 O 0.3525 0.95958 0.97097 0.0
O388 O 0.35024 0.01187 0.94273 0.0
C389 C 0.45103 -0.01737 0.99697 0.0
O390 O 0.42745 -0.02229 0.05731 0.0
C391 C 0.35692 -0.01226 0.79008 0.0
Zn392 Zn 0.90611 0.32385 0.88757 0.0
Zn393 Zn 0.94416 0.38736 0.9178 0.0
O394 O 0.91877 0.3486 0.01935 0.0
O395 O 0.88177 0.28683 0.98143 0.0
O396 O 0.94233 0.43569 0.94086 0.0
O397 O 0.9243 0.32011 0.77763 0.0
O398 O 0.93567 0.37993 0.79404 0.0
C399 C 0.89679 0.31204 0.03729 0.0
C400 C -0.00057 0.37008 0.88901 0.0
O401 O -0.00013 0.40033 0.91706 0.0
O402 O -0.03357 0.33876 0.8792 0.0
C403 C 0.96546 0.45914 0.99298 0.0
O404 O -0.01147 0.45011 0.03242 0.0
C405 C 0.94055 0.35526 0.75269 0.0
Zn406 Zn 0.66256 0.59404 0.8646 0.0
Zn407 Zn 0.55879 0.54776 0.92196 0.0
O408 O 0.5958 0.54772 0.01424 0.0
O409 O 0.66007 0.58089 0.9851 0.0
O410 O 0.5045 0.50316 0.93358 0.0
O411 O 0.62399 0.60196 0.78749 0.0
O412 O 0.56837 0.5468 0.80117 0.0
C413 C 0.63203 0.56226 0.03471 0.0
C414 C 0.59992 0.62172 0.92216 0.0
O415 O 0.5634 0.60146 0.93765 0.0
O416 O 0.61793 0.6036 0.90362 0.0
C417 C 0.48604 0.49462 0.99905 0.0
O418 O 0.50251 0.51645 0.06258 0.0
C419 C 0.58818 0.5798 0.76642 0.0
Zn420 Zn 0.89669 0.60447 0.37291 0.0
Zn421 Zn 0.93646 0.53951 0.4339 0.0
O422 O 0.89068 0.52718 0.51756 0.0
O423 O 0.879 0.57509 0.48628 0.0
O424 O 0.94751 0.49669 0.43241 0.0
O425 O 0.94404 0.61152 0.30195 0.0
O426 O 0.93431 0.55143 0.31559 0.0
C427 C 0.87479 0.54802 0.53441 0.0
C428 C -0.03188 0.61182 0.45827 0.0
O429 O -0.01587 0.59134 0.47109 0.0
O430 O 0.9318 0.5936 0.44334 0.0
C431 C 0.96122 0.49283 0.49702 0.0
O432 O -0.03374 0.51645 0.5574 0.0
C433 C 0.95554 0.58671 0.29065 0.0
Zn434 Zn 0.3496 0.28114 0.36492 0.0
Zn435 Zn 0.39605 0.38504 0.42212 0.0
O436 O 0.3961 0.34808 0.51447 0.0
O437 O 0.36296 0.28379 0.48535 0.0
O438 O 0.44063 0.43936 0.43367 0.0
O439 O 0.34189 0.31976 0.28761 0.0
O440 O 0.39711 0.37531 0.30145 0.0
C441 C 0.3816 0.31186 0.53495 0.0
C442 C 0.32208 0.34395 0.42211 0.0
O443 O 0.34237 0.38047 0.43756 0.0
O444 O 0.34018 0.32589 0.40375 0.0
C445 C 0.44926 0.4578 0.49918 0.0
O446 O 0.42753 0.44131 0.56278 0.0
C447 C 0.36413 0.35557 0.26658 0.0
Zn448 Zn 0.61986 0.03682 0.38702 0.0
Zn449 Zn 0.55637 -0.00062 0.41762 0.0
O450 O 0.59517 0.02489 0.51901 0.0
O451 O 0.65691 0.0618 0.48084 0.0
O452 O 0.5081 0.00135 0.4407 0.0
O453 O 0.62437 0.02155 0.27488 0.0
O454 O 0.56426 0.00885 0.29433 0.0
C455 C 0.63175 0.04692 0.53682 0.0
C456 C 0.57334 0.94382 0.38823 0.0
O457 O 0.54317 0.94354 0.41623 0.0
O458 O 0.60469 0.97674 0.37861 0.0
C459 C 0.48469 -0.02167 0.49296 0.0
O460 O 0.49369 0.95526 0.53249 0.0
C461 C 0.58883 0.0043 0.25193 0.0
Zn462 Zn 0.23702 0.22664 0.46408 0.0
Zn463 Zn 0.20518 0.28997 0.41656 0.0
O464 O 0.20302 0.2537 0.32007 0.0
O465 O 0.23095 0.21761 0.34228 0.0
O466 O 0.1623 0.30156 0.40261 0.0
O467 O 0.25603 0.27553 0.54353 0.0
O468 O 0.20405 0.28177 0.53841 0.0
C469 C 0.21485 0.23039 0.29501 0.0
C470 C 0.28 0.32228 0.41609 0.0
O471 O 0.25897 0.33767 0.40247 0.0
O472 O 0.26352 0.2861 0.43416 0.0
C473 C 0.15537 0.31275 0.33749 0.0
O474 O 0.17819 0.31878 0.27517 0.0
C475 C 0.23682 0.29144 0.57083 0.0
Zn476 Zn 0.6419 0.95484 0.4498 0.0
Zn477 Zn 0.6471 0.90433 0.4002 0.0
O478 O 0.69515 0.94367 0.33407 0.0
O479 O 0.67289 -0.01566 0.34516 0.0
O480 O 0.64346 0.8524 0.38786 0.0
O481 O 0.66389 0.96818 0.55625 0.0
O482 O 0.64101 0.9056 0.52542 0.0
C483 C 0.6947 0.97395 0.30902 0.0
C484 C 0.57753 0.90919 0.39342 0.0
O485 O 0.60088 0.90671 0.34398 0.0
O486 O 0.58338 0.90437 0.46385 0.0
C487 C 0.6402 0.8351 0.32208 0.0
O488 O 0.63766 0.85095 0.25537 0.0
C489 C 0.64491 0.9321 0.57533 0.0
Zn490 Zn -0.02872 0.72715 0.44462 0.0
Zn491 Zn 0.04348 0.72706 0.39756 0.0
O492 O 0.01038 0.72329 0.29562 0.0
O493 O 0.95495 0.72143 0.32697 0.0
O494 O 0.10053 0.76008 0.37423 0.0
O495 O -0.0149 0.70173 0.53796 0.0
O496 O 0.04459 0.74673 0.51173 0.0
C497 C -0.02211 0.72055 0.27442 0.0
C498 C -0.0104 0.6532 0.44018 0.0
O499 O 0.02529 0.67084 0.41683 0.0
O500 O -0.02935 0.67169 0.45097 0.0
C501 C 0.11119 0.78661 0.32193 0.0
O502 O 0.08565 0.78494 0.26988 0.0
C503 C 0.02117 0.71947 0.55783 0.0
loop_
_geom_bond_atom_site_label_1
_geom_bond_atom_site_label_2
_geom_bond_distance
_geom_bond_site_symmetry_2
_ccdc_geom_bond_type
Zn0 O3 2.031 . S
Zn0 O5 2.049 . S
Zn0 O10 2.067 1_545 S
Zn1 O2 1.962 . S
Zn1 O4 1.986 . S
Zn1 O6 1.996 . S
Zn1 O9 1.943 . S
O2 Zn1 1.962 . S
O2 C7 1.254 . S
O3 Zn0 2.031 . S
O3 C7 1.269 . S
O4 Zn1 1.986 . S
O4 C11 1.262 . S
O5 Zn0 2.049 . S
O5 C13 1.260 . S
O6 Zn1 1.996 . S
O6 C13 1.257 . S
C7 O2 1.254 . S
C7 O3 1.269 . S
C8 O9 1.249 . S
C8 O10 1.270 1_545 S
O9 Zn1 1.943 . S
O9 C8 1.249 . S
O10 Zn0 2.067 1_565 S
O10 C8 1.270 1_565 S
C11 O4 1.262 . S
C11 O12 1.232 . S
O12 C11 1.232 . S
C13 O5 1.260 . S
C13 O6 1.257 . S
Zn14 O17 2.031 . S
Zn14 O19 2.049 . S
Zn14 O24 2.067 1_655 S
Zn15 O16 1.962 . S
Zn15 O18 1.986 . S
Zn15 O20 1.996 . S
Zn15 O23 1.943 . S
O16 Zn15 1.962 . S
O16 C21 1.254 . S
O17 Zn14 2.031 . S
O17 C21 1.269 . S
O18 Zn15 1.986 . S
O18 C25 1.262 . S
O19 Zn14 2.049 . S
O19 C27 1.260 . S
O20 Zn15 1.996 . S
O20 C27 1.257 . S
C21 O16 1.254 . S
C21 O17 1.269 . S
C22 O23 1.249 . S
C22 O24 1.270 1_655 S
O23 Zn15 1.943 . S
O23 C22 1.249 . S
O24 Zn14 2.067 1_455 S
O24 C22 1.270 1_455 S
C25 O18 1.262 . S
C25 O26 1.232 . S
O26 C25 1.232 . S
C27 O19 1.260 . S
C27 O20 1.257 . S
Zn28 O31 2.031 . S
Zn28 O33 2.049 . S
Zn28 O38 2.067 . S
Zn29 O30 1.962 . S
Zn29 O32 1.986 . S
Zn29 O34 1.996 . S
Zn29 O37 1.943 . S
O30 Zn29 1.962 . S
O30 C35 1.254 . S
O31 Zn28 2.031 . S
O31 C35 1.269 . S
O32 Zn29 1.986 . S
O32 C39 1.262 . S
O33 Zn28 2.049 . S
O33 C41 1.260 . S
O34 Zn29 1.996 . S
O34 C41 1.257 . S
C35 O30 1.254 . S
C35 O31 1.269 . S
C36 O37 1.249 . S
C36 O38 1.270 . S
O37 Zn29 1.943 . S
O37 C36 1.249 . S
O38 Zn28 2.067 . S
O38 C36 1.270 . S
C39 O32 1.262 . S
C39 O40 1.232 . S
O40 C39 1.232 . S
C41 O33 1.260 . S
C41 O34 1.257 . S
Zn42 O45 2.031 . S
Zn42 O47 2.049 . S
Zn42 O52 2.067 1_455 S
Zn43 O44 1.962 . S
Zn43 O46 1.986 . S
Zn43 O48 1.996 . S
Zn43 O51 1.943 . S
O44 Zn43 1.962 . S
O44 C49 1.254 . S
O45 Zn42 2.031 . S
O45 C49 1.269 . S
O46 Zn43 1.986 . S
O46 C53 1.262 . S
O47 Zn42 2.049 . S
O47 C55 1.260 . S
O48 Zn43 1.996 . S
O48 C55 1.257 . S
C49 O44 1.254 . S
C49 O45 1.269 . S
C50 O51 1.249 . S
C50 O52 1.270 1_455 S
O51 Zn43 1.943 . S
O51 C50 1.249 . S
O52 Zn42 2.067 1_655 S
O52 C50 1.270 1_655 S
C53 O46 1.262 . S
C53 O54 1.232 . S
O54 C53 1.232 . S
C55 O47 1.260 . S
C55 O48 1.257 . S
Zn56 O59 2.031 . S
Zn56 O61 2.049 . S
Zn56 O66 2.067 . S
Zn57 O58 1.962 . S
Zn57 O60 1.986 . S
Zn57 O62 1.996 . S
Zn57 O65 1.943 . S
O58 Zn57 1.962 . S
O58 C63 1.254 . S
O59 Zn56 2.031 . S
O59 C63 1.269 . S
O60 Zn57 1.986 . S
O60 C67 1.262 . S
O61 Zn56 2.049 . S
O61 C69 1.260 . S
O62 Zn57 1.996 . S
O62 C69 1.257 . S
C63 O58 1.254 . S
C63 O59 1.269 . S
C64 O65 1.249 . S
C64 O66 1.270 . S
O65 Zn57 1.943 . S
O65 C64 1.249 . S
O66 Zn56 2.067 . S
O66 C64 1.270 . S
C67 O60 1.262 . S
C67 O68 1.232 . S
O68 C67 1.232 . S
C69 O61 1.260 . S
C69 O62 1.257 . S
Zn70 O73 2.031 . S
Zn70 O75 2.049 . S
Zn70 O80 2.067 1_565 S
Zn71 O72 1.962 . S
Zn71 O74 1.986 . S
Zn71 O76 1.996 . S
Zn71 O79 1.943 . S
O72 Zn71 1.962 . S
O72 C77 1.254 . S
O73 Zn70 2.031 . S
O73 C77 1.269 . S
O74 Zn71 1.986 . S
O74 C81 1.262 . S
O75 Zn70 2.049 . S
O75 C83 1.260 . S
O76 Zn71 1.996 . S
O76 C83 1.257 . S
C77 O72 1.254 . S
C77 O73 1.269 . S
C78 O79 1.249 . S
C78 O80 1.270 1_565 S
O79 Zn71 1.943 . S
O79 C78 1.249 . S
O80 Zn70 2.067 1_545 S
O80 C78 1.270 1_545 S
C81 O74 1.262 . S
C81 O82 1.232 . S
O82 C81 1.232 . S
C83 O75 1.260 . S
C83 O76 1.257 . S
Zn84 O87 2.031 . S
Zn84 O89 2.049 . S
Zn84 O94 2.067 1_565 S
Zn85 O86 1.962 . S
Zn85 O88 1.986 . S
Zn85 O90 1.996 . S
Zn85 O93 1.943 . S
O86 Zn85 1.962 . S
O86 C91 1.254 . S
O87 Zn84 2.031 . S
O87 C91 1.269 . S
O88 Zn85 1.986 . S
O88 C95 1.262 . S
O89 Zn84 2.049 . S
O89 C97 1.260 . S
O90 Zn85 1.996 . S
O90 C97 1.257 . S
C91 O86 1.254 . S
C91 O87 1.269 . S
C92 O93 1.249 . S
C92 O94 1.270 1_565 S
O93 Zn85 1.943 . S
O93 C92 1.249 . S
O94 Zn84 2.067 1_545 S
O94 C92 1.270 1_545 S
C95 O88 1.262 . S
C95 O96 1.232 . S
O96 C95 1.232 . S
C97 O89 1.260 . S
C97 O90 1.257 . S
Zn98 O101 2.031 . S
Zn98 O103 2.049 . S
Zn98 O108 2.067 1_455 S
Zn99 O100 1.962 . S
Zn99 O102 1.986 . S
Zn99 O104 1.996 . S
Zn99 O107 1.943 . S
O100 Zn99 1.962 . S
O100 C105 1.254 . S
O101 Zn98 2.031 . S
O101 C105 1.269 . S
O102 Zn99 1.986 . S
O102 C109 1.262 . S
O103 Zn98 2.049 . S
O103 C111 1.260 . S
O104 Zn99 1.996 . S
O104 C111 1.257 . S
C105 O100 1.254 . S
C105 O101 1.269 . S
C106 O107 1.249 . S
C106 O108 1.270 1_455 S
O107 Zn99 1.943 . S
O107 C106 1.249 . S
O108 Zn98 2.067 1_655 S
O108 C106 1.270 1_655 S
C109 O102 1.262 . S
C109 O110 1.232 . S
O110 C109 1.232 . S
C111 O103 1.260 . S
C111 O104 1.257 . S
Zn112 O115 2.031 . S
Zn112 O117 2.049 . S
Zn112 O122 2.067 . S
Zn113 O114 1.962 . S
Zn113 O116 1.986 . S
Zn113 O118 1.996 . S
Zn113 O121 1.943 . S
O114 Zn113 1.962 . S
O114 C119 1.254 . S
O115 Zn112 2.031 . S
O115 C119 1.269 . S
O116 Zn113 1.986 . S
O116 C123 1.262 . S
O117 Zn112 2.049 . S
O117 C125 1.260 . S
O118 Zn113 1.996 . S
O118 C125 1.257 . S
C119 O114 1.254 . S
C119 O115 1.269 . S
C120 O121 1.249 . S
C120 O122 1.270 . S
O121 Zn113 1.943 . S
O121 C120 1.249 . S
O122 Zn112 2.067 . S
O122 C120 1.270 . S
C123 O116 1.262 . S
C123 O124 1.232 . S
O124 C123 1.232 . S
C125 O117 1.260 . S
C125 O118 1.257 . S
Zn126 O129 2.031 . S
Zn126 O131 2.049 . S
Zn126 O136 2.067 1_655 S
Zn127 O128 1.962 . S
Zn127 O130 1.986 . S
Zn127 O132 1.996 . S
Zn127 O135 1.943 . S
O128 Zn127 1.962 . S
O128 C133 1.254 . S
O129 Zn126 2.031 . S
O129 C133 1.269 . S
O130 Zn127 1.986 . S
O130 C137 1.262 . S
O131 Zn126 2.049 . S
O131 C139 1.260 . S
O132 Zn127 1.996 . S
O132 C139 1.257 . S
C133 O128 1.254 . S
C133 O129 1.269 . S
C134 O135 1.249 . S
C134 O136 1.270 1_655 S
O135 Zn127 1.943 . S
O135 C134 1.249 . S
O136 Zn126 2.067 1_455 S
O136 C134 1.270 1_455 S
C137 O130 1.262 . S
C137 O138 1.232 . S
O138 C137 1.232 . S
C139 O131 1.260 . S
C139 O132 1.257 . S
Zn140 O143 2.031 . S
Zn140 O145 2.049 . S
Zn140 O150 2.067 . S
Zn141 O142 1.962 . S
Zn141 O144 1.986 . S
Zn141 O146 1.996 . S
Zn141 O149 1.943 . S
O142 Zn141 1.962 . S
O142 C147 1.254 . S
O143 Zn140 2.031 . S
O143 C147 1.269 . S
O144 Zn141 1.986 . S
O144 C151 1.262 . S
O145 Zn140 2.049 . S
O145 C153 1.260 . S
O146 Zn141 1.996 . S
O146 C153 1.257 . S
C147 O142 1.254 . S
C147 O143 1.269 . S
C148 O149 1.249 . S
C148 O150 1.270 . S
O149 Zn141 1.943 . S
O149 C148 1.249 . S
O150 Zn140 2.067 . S
O150 C148 1.270 . S
C151 O144 1.262 . S
C151 O152 1.232 . S
O152 C151 1.232 . S
C153 O145 1.260 . S
C153 O146 1.257 . S
Zn154 O157 2.031 . S
Zn154 O159 2.049 . S
Zn154 O164 2.067 1_545 S
Zn155 O156 1.962 . S
Zn155 O158 1.986 . S
Zn155 O160 1.996 . S
Zn155 O163 1.943 . S
O156 Zn155 1.962 . S
O156 C161 1.254 . S
O157 Zn154 2.031 . S
O157 C161 1.269 . S
O158 Zn155 1.986 . S
O158 C165 1.262 . S
O159 Zn154 2.049 . S
O159 C167 1.260 . S
O160 Zn155 1.996 . S
O160 C167 1.257 . S
C161 O156 1.254 . S
C161 O157 1.269 . S
C162 O163 1.249 . S
C162 O164 1.270 1_545 S
O163 Zn155 1.943 . S
O163 C162 1.249 . S
O164 Zn154 2.067 1_565 S
O164 C162 1.270 1_565 S
C165 O158 1.262 . S
C165 O166 1.232 . S
O166 C165 1.232 . S
C167 O159 1.260 . S
C167 O160 1.257 . S
Zn168 O171 2.031 . S
Zn168 O173 2.049 . S
Zn168 O178 2.067 1_455 S
Zn169 O170 1.962 . S
Zn169 O172 1.991 . S
Zn169 O174 1.996 . S
Zn169 O177 1.943 1_455 S
O170 Zn169 1.962 . S
O170 C175 1.254 . S
O171 Zn168 2.031 . S
O171 C175 1.269 . S
O172 Zn169 1.991 . S
O172 C179 1.258 1_455 S
O173 Zn168 2.049 . S
O173 C181 1.260 . S
O174 Zn169 1.996 . S
O174 C181 1.257 . S
C175 O170 1.254 . S
C175 O171 1.269 . S
C176 O177 1.249 . S
C176 O178 1.270 . S
O177 Zn169 1.943 1_655 S
O177 C176 1.249 . S
O178 Zn168 2.067 1_655 S
O178 C176 1.270 . S
C179 O172 1.258 1_655 S
C179 O180 1.232 . S
O180 C179 1.232 . S
C181 O173 1.260 . S
C181 O174 1.257 . S
Zn182 O185 2.031 . S
Zn182 O187 2.049 . S
Zn182 O192 2.067 . S
Zn183 O184 1.962 . S
Zn183 O186 1.986 . S
Zn183 O188 1.996 . S
Zn183 O191 1.943 . S
O184 Zn183 1.962 . S
O184 C189 1.254 . S
O185 Zn182 2.031 . S
O185 C189 1.269 . S
O186 Zn183 1.986 . S
O186 C193 1.262 . S
O187 Zn182 2.049 . S
O187 C195 1.260 . S
O188 Zn183 1.996 . S
O188 C195 1.257 . S
C189 O184 1.254 . S
C189 O185 1.269 . S
C190 O191 1.249 . S
C190 O192 1.270 . S
O191 Zn183 1.943 . S
O191 C190 1.249 . S
O192 Zn182 2.067 . S
O192 C190 1.270 . S
C193 O186 1.262 . S
C193 O194 1.232 . S
O194 C193 1.232 . S
C195 O187 1.260 . S
C195 O188 1.257 . S
Zn196 O199 2.031 . S
Zn196 O201 2.049 . S
Zn196 O206 2.067 1_565 S
Zn197 O198 1.962 . S
Zn197 O200 1.978 . S
Zn197 O202 1.996 . S
Zn197 O205 1.943 1_565 S
O198 Zn197 1.962 . S
O198 C203 1.254 . S
O199 Zn196 2.031 . S
O199 C203 1.269 . S
O200 Zn197 1.978 . S
O200 C207 1.258 1_565 S
O201 Zn196 2.049 . S
O201 C209 1.260 . S
O202 Zn197 1.996 . S
O202 C209 1.257 . S
C203 O198 1.254 . S
C203 O199 1.269 . S
C204 O205 1.249 . S
C204 O206 1.270 . S
O205 Zn197 1.943 1_545 S
O205 C204 1.249 . S
O206 Zn196 2.067 1_545 S
O206 C204 1.270 . S
C207 O200 1.258 1_545 S
C207 O208 1.232 . S
O208 C207 1.232 . S
C209 O201 1.260 . S
C209 O202 1.257 . S
Zn210 O213 2.031 . S
Zn210 O215 2.049 . S
Zn210 O220 2.067 . S
Zn211 O212 1.962 . S
Zn211 O214 1.986 . S
Zn211 O216 1.996 . S
Zn211 O219 1.943 . S
O212 Zn211 1.962 . S
O212 C217 1.254 . S
O213 Zn210 2.031 . S
O213 C217 1.269 . S
O214 Zn211 1.986 . S
O214 C221 1.262 . S
O215 Zn210 2.049 . S
O215 C223 1.260 . S
O216 Zn211 1.996 . S
O216 C223 1.257 . S
C217 O212 1.254 . S
C217 O213 1.269 . S
C218 O219 1.249 . S
C218 O220 1.270 . S
O219 Zn211 1.943 . S
O219 C218 1.249 . S
O220 Zn210 2.067 . S
O220 C218 1.270 . S
C221 O214 1.262 . S
C221 O222 1.232 . S
O222 C221 1.232 . S
C223 O215 1.260 . S
C223 O216 1.257 . S
Zn224 O227 2.030 1_565 S
Zn224 O229 2.049 1_565 S
Zn224 O234 2.067 1_565 S
Zn225 O226 1.962 . S
Zn225 O228 1.986 . S
Zn225 O230 1.996 . S
Zn225 O233 1.943 . S
O226 Zn225 1.962 . S
O226 C231 1.254 . S
O227 Zn224 2.030 1_545 S
O227 C231 1.285 . S
O228 Zn225 1.986 . S
O228 C235 1.262 . S
O229 Zn224 2.049 1_545 S
O229 C237 1.260 . S
O230 Zn225 1.996 . S
O230 C237 1.257 . S
C231 O226 1.254 . S
C231 O227 1.285 . S
C232 O233 1.249 . S
C232 O234 1.270 . S
O233 Zn225 1.943 . S
O233 C232 1.249 . S
O234 Zn224 2.067 1_545 S
O234 C232 1.270 . S
C235 O228 1.262 . S
C235 O236 1.232 . S
O236 C235 1.232 . S
C237 O229 1.260 . S
C237 O230 1.257 . S
Zn238 O241 2.032 . S
Zn238 O243 2.049 1_455 S
Zn238 O248 2.067 1_455 S
Zn239 O240 1.962 . S
Zn239 O242 1.986 . S
Zn239 O244 1.996 . S
Zn239 O247 1.943 . S
O240 Zn239 1.962 . S
O240 C245 1.254 . S
O241 Zn238 2.032 . S
O241 C245 1.273 1_455 S
O242 Zn239 1.986 . S
O242 C249 1.262 . S
O243 Zn238 2.049 1_655 S
O243 C251 1.260 . S
O244 Zn239 1.996 . S
O244 C251 1.257 . S
C245 O240 1.254 . S
C245 O241 1.273 1_655 S
C246 O247 1.249 . S
C246 O248 1.270 . S
O247 Zn239 1.943 . S
O247 C246 1.249 . S
O248 Zn238 2.067 1_655 S
O248 C246 1.270 . S
C249 O242 1.262 . S
C249 O250 1.232 . S
O250 C249 1.232 . S
C251 O243 1.260 . S
C251 O244 1.257 . S
Zn252 O255 2.031 . S
Zn252 O257 2.049 1_554 S
Zn252 O262 2.067 . S
Zn253 O254 1.962 . S
Zn253 O256 1.986 . S
Zn253 O258 1.996 . S
Zn253 O261 1.943 . S
O254 Zn253 1.962 . S
O254 C259 1.254 . S
O255 Zn252 2.031 . S
O255 C259 1.269 . S
O256 Zn253 1.986 . S
O256 C263 1.262 . S
O257 Zn252 2.049 1_556 S
O257 C265 1.260 . S
O258 Zn253 1.996 . S
O258 C265 1.257 1_554 S
C259 O254 1.254 . S
C259 O255 1.269 . S
C260 O261 1.249 . S
C260 O262 1.270 . S
O261 Zn253 1.943 . S
O261 C260 1.249 . S
O262 Zn252 2.067 . S
O262 C260 1.270 . S
C263 O256 1.262 . S
C263 O264 1.232 . S
O264 C263 1.232 . S
C265 O257 1.260 . S
C265 O258 1.257 1_556 S
Zn266 O269 2.032 . S
Zn266 O271 2.049 1_564 S
Zn266 O276 2.067 1_565 S
Zn267 O268 1.962 . S
Zn267 O270 1.986 . S
Zn267 O272 1.996 . S
Zn267 O275 1.943 . S
O268 Zn267 1.962 . S
O268 C273 1.254 . S
O269 Zn266 2.032 . S
O269 C273 1.273 1_565 S
O270 Zn267 1.986 . S
O270 C277 1.262 . S
O271 Zn266 2.049 1_546 S
O271 C279 1.260 . S
O272 Zn267 1.996 . S
O272 C279 1.257 1_554 S
C273 O268 1.254 . S
C273 O269 1.273 1_545 S
C274 O275 1.249 . S
C274 O276 1.270 . S
O275 Zn267 1.943 . S
O275 C274 1.249 . S
O276 Zn266 2.067 1_545 S
O276 C274 1.270 . S
C277 O270 1.262 . S
C277 O278 1.232 . S
O278 C277 1.232 . S
C279 O271 1.260 . S
C279 O272 1.257 1_556 S
Zn280 O283 2.030 1_455 S
Zn280 O285 2.049 1_454 S
Zn280 O290 2.067 1_455 S
Zn281 O282 1.962 . S
Zn281 O284 1.986 . S
Zn281 O286 1.996 . S
Zn281 O289 1.943 . S
O282 Zn281 1.962 . S
O282 C287 1.254 . S
O283 Zn280 2.030 1_655 S
O283 C287 1.285 . S
O284 Zn281 1.986 . S
O284 C291 1.262 . S
O285 Zn280 2.049 1_656 S
O285 C293 1.260 . S
O286 Zn281 1.996 . S
O286 C293 1.257 1_554 S
C287 O282 1.254 . S
C287 O283 1.285 . S
C288 O289 1.249 . S
C288 O290 1.270 . S
O289 Zn281 1.943 . S
O289 C288 1.249 . S
O290 Zn280 2.067 1_655 S
O290 C288 1.270 . S
C291 O284 1.262 . S
C291 O292 1.232 . S
O292 C291 1.232 . S
C293 O285 1.260 . S
C293 O286 1.257 1_556 S
Zn294 O297 2.031 . S
Zn294 O299 2.049 . S
Zn294 O304 2.067 1_565 S
Zn295 O296 1.962 1_554 S
Zn295 O298 1.991 . S
Zn295 O300 1.996 . S
Zn295 O303 1.943 1_565 S
O296 Zn295 1.962 1_556 S
O296 C301 1.254 . S
O297 Zn294 2.031 . S
O297 C301 1.269 1_554 S
O298 Zn295 1.991 . S
O298 C305 1.258 1_564 S
O299 Zn294 2.049 . S
O299 C307 1.260 . S
O300 Zn295 1.996 . S
O300 C307 1.257 . S
C301 O296 1.254 . S
C301 O297 1.269 1_556 S
C302 O303 1.249 . S
C302 O304 1.270 . S
O303 Zn295 1.943 1_545 S
O303 C302 1.249 . S
O304 Zn294 2.067 1_545 S
O304 C302 1.270 . S
C305 O298 1.258 1_546 S
C305 O306 1.232 . S
O306 C305 1.232 . S
C307 O299 1.260 . S
C307 O300 1.257 . S
Zn308 O311 2.031 . S
Zn308 O313 2.049 . S
Zn308 O318 2.067 1_455 S
Zn309 O310 1.962 1_554 S
Zn309 O312 1.978 . S
Zn309 O314 1.996 . S
Zn309 O317 1.943 1_455 S
O310 Zn309 1.962 1_556 S
O310 C315 1.254 . S
O311 Zn308 2.031 . S
O311 C315 1.269 1_554 S
O312 Zn309 1.978 . S
O312 C319 1.258 1_454 S
O313 Zn308 2.049 . S
O313 C321 1.260 . S
O314 Zn309 1.996 . S
O314 C321 1.257 . S
C315 O310 1.254 . S
C315 O311 1.269 1_556 S
C316 O317 1.249 . S
C316 O318 1.270 . S
O317 Zn309 1.943 1_655 S
O317 C316 1.249 . S
O318 Zn308 2.067 1_655 S
O318 C316 1.270 . S
C319 O312 1.258 1_656 S
C319 O320 1.232 . S
O320 C319 1.232 . S
C321 O313 1.260 . S
C321 O314 1.257 . S
Zn322 O325 2.031 . S
Zn322 O327 2.049 . S
Zn322 O332 2.067 . S
Zn323 O324 1.962 1_554 S
Zn323 O326 1.986 . S
Zn323 O328 1.996 . S
Zn323 O331 1.943 . S
O324 Zn323 1.962 1_556 S
O324 C329 1.254 . S
O325 Zn322 2.031 . S
O325 C329 1.269 1_554 S
O326 Zn323 1.986 . S
O326 C333 1.262 1_554 S
O327 Zn322 2.049 . S
O327 C335 1.260 . S
O328 Zn323 1.996 . S
O328 C335 1.257 . S
C329 O324 1.254 . S
C329 O325 1.269 1_556 S
C330 O331 1.249 . S
C330 O332 1.270 . S
O331 Zn323 1.943 . S
O331 C330 1.249 . S
O332 Zn322 2.067 . S
O332 C330 1.270 . S
C333 O326 1.262 1_556 S
C333 O334 1.232 . S
O334 C333 1.232 . S
C335 O327 1.260 . S
C335 O328 1.257 . S
Zn336 O339 2.031 . S
Zn336 O341 2.049 1_556 S
Zn336 O346 2.067 . S
Zn337 O338 1.962 . S
Zn337 O340 1.986 . S
Zn337 O342 1.996 . S
Zn337 O345 1.943 . S
O338 Zn337 1.962 . S
O338 C343 1.254 . S
O339 Zn336 2.031 . S
O339 C343 1.269 . S
O340 Zn337 1.986 . S
O340 C347 1.262 . S
O341 Zn336 2.049 1_554 S
O341 C349 1.260 . S
O342 Zn337 1.996 . S
O342 C349 1.257 1_556 S
C343 O338 1.254 . S
C343 O339 1.269 . S
C344 O345 1.249 . S
C344 O346 1.270 . S
O345 Zn337 1.943 . S
O345 C344 1.249 . S
O346 Zn336 2.067 . S
O346 C344 1.270 . S
C347 O340 1.262 . S
C347 O348 1.232 . S
O348 C347 1.232 . S
C349 O341 1.260 . S
C349 O342 1.257 1_554 S
Zn350 O353 2.032 . S
Zn350 O355 2.049 1_546 S
Zn350 O360 2.067 1_545 S
Zn351 O352 1.962 . S
Zn351 O354 1.986 . S
Zn351 O356 1.996 . S
Zn351 O359 1.943 . S
O352 Zn351 1.962 . S
O352 C357 1.254 . S
O353 Zn350 2.032 . S
O353 C357 1.273 1_545 S
O354 Zn351 1.986 . S
O354 C361 1.262 . S
O355 Zn350 2.049 1_564 S
O355 C363 1.260 . S
O356 Zn351 1.996 . S
O356 C363 1.257 1_556 S
C357 O352 1.254 . S
C357 O353 1.273 1_565 S
C358 O359 1.249 . S
C358 O360 1.270 . S
O359 Zn351 1.943 . S
O359 C358 1.249 . S
O360 Zn350 2.067 1_565 S
O360 C358 1.270 . S
C361 O354 1.262 . S
C361 O362 1.232 . S
O362 C361 1.232 . S
C363 O355 1.260 . S
C363 O356 1.257 1_554 S
Zn364 O367 2.030 1_655 S
Zn364 O369 2.049 1_656 S
Zn364 O374 2.067 1_655 S
Zn365 O366 1.962 . S
Zn365 O368 1.986 . S
Zn365 O370 1.996 . S
Zn365 O373 1.943 . S
O366 Zn365 1.962 . S
O366 C371 1.254 . S
O367 Zn364 2.030 1_455 S
O367 C371 1.285 . S
O368 Zn365 1.986 . S
O368 C375 1.262 . S
O369 Zn364 2.049 1_454 S
O369 C377 1.260 . S
O370 Zn365 1.996 . S
O370 C377 1.257 1_556 S
C371 O366 1.254 . S
C371 O367 1.285 . S
C372 O373 1.249 . S
C372 O374 1.270 . S
O373 Zn365 1.943 . S
O373 C372 1.249 . S
O374 Zn364 2.067 1_455 S
O374 C372 1.270 . S
C375 O368 1.262 . S
C375 O376 1.232 . S
O376 C375 1.232 . S
C377 O369 1.260 . S
C377 O370 1.257 1_554 S
Zn378 O381 2.031 . S
Zn378 O383 2.049 . S
Zn378 O388 2.067 1_545 S
Zn379 O380 1.962 1_556 S
Zn379 O382 1.991 . S
Zn379 O384 1.996 . S
Zn379 O387 1.943 1_545 S
O380 Zn379 1.962 1_554 S
O380 C385 1.254 . S
O381 Zn378 2.031 . S
O381 C385 1.269 1_556 S
O382 Zn379 1.991 . S
O382 C389 1.258 1_546 S
O383 Zn378 2.049 . S
O383 C391 1.260 . S
O384 Zn379 1.996 . S
O384 C391 1.257 . S
C385 O380 1.254 . S
C385 O381 1.269 1_554 S
C386 O387 1.249 . S
C386 O388 1.270 . S
O387 Zn379 1.943 1_565 S
O387 C386 1.249 . S
O388 Zn378 2.067 1_565 S
O388 C386 1.270 . S
C389 O382 1.258 1_564 S
C389 O390 1.232 . S
O390 C389 1.232 . S
C391 O383 1.260 . S
C391 O384 1.257 . S
Zn392 O395 2.031 . S
Zn392 O397 2.049 . S
Zn392 O402 2.067 1_655 S
Zn393 O394 1.962 1_556 S
Zn393 O396 1.978 . S
Zn393 O398 1.996 . S
Zn393 O401 1.943 1_655 S
O394 Zn393 1.962 1_554 S
O394 C399 1.254 . S
O395 Zn392 2.031 . S
O395 C399 1.269 1_556 S
O396 Zn393 1.978 . S
O396 C403 1.258 1_656 S
O397 Zn392 2.049 . S
O397 C405 1.260 . S
O398 Zn393 1.996 . S
O398 C405 1.257 . S
C399 O394 1.254 . S
C399 O395 1.269 1_554 S
C400 O401 1.249 . S
C400 O402 1.270 . S
O401 Zn393 1.943 1_455 S
O401 C400 1.249 . S
O402 Zn392 2.067 1_455 S
O402 C400 1.270 . S
C403 O396 1.258 1_454 S
C403 O404 1.232 . S
O404 C403 1.232 . S
C405 O397 1.260 . S
C405 O398 1.257 . S
Zn406 O409 2.031 . S
Zn406 O411 2.049 . S
Zn406 O416 2.067 . S
Zn407 O408 1.962 1_556 S
Zn407 O410 1.986 . S
Zn407 O412 1.996 . S
Zn407 O415 1.943 . S
O408 Zn407 1.962 1_554 S
O408 C413 1.254 . S
O409 Zn406 2.031 . S
O409 C413 1.269 1_556 S
O410 Zn407 1.986 . S
O410 C417 1.262 1_556 S
O411 Zn406 2.049 . S
O411 C419 1.260 . S
O412 Zn407 1.996 . S
O412 C419 1.257 . S
C413 O408 1.254 . S
C413 O409 1.269 1_554 S
C414 O415 1.249 . S
C414 O416 1.270 . S
O415 Zn407 1.943 . S
O415 C414 1.249 . S
O416 Zn406 2.067 . S
O416 C414 1.270 . S
C417 O410 1.262 1_554 S
C417 O418 1.232 . S
O418 C417 1.232 . S
C419 O411 1.260 . S
C419 O412 1.257 . S
Zn420 O423 2.031 . S
Zn420 O425 2.049 . S
Zn420 O430 2.067 1_655 S
Zn421 O422 1.962 . S
Zn421 O424 1.991 . S
Zn421 O426 1.996 . S
Zn421 O429 1.943 1_655 S
O422 Zn421 1.962 . S
O422 C427 1.254 . S
O423 Zn420 2.031 . S
O423 C427 1.269 . S
O424 Zn421 1.991 . S
O424 C431 1.258 1_655 S
O425 Zn420 2.049 . S
O425 C433 1.260 . S
O426 Zn421 1.996 . S
O426 C433 1.257 . S
C427 O422 1.254 . S
C427 O423 1.269 . S
C428 O429 1.249 . S
C428 O430 1.270 . S
O429 Zn421 1.943 1_455 S
O429 C428 1.249 . S
O430 Zn420 2.067 1_455 S
O430 C428 1.270 . S
C431 O424 1.258 1_455 S
C431 O432 1.232 . S
O432 C431 1.232 . S
C433 O425 1.260 . S
C433 O426 1.257 . S
Zn434 O437 2.031 . S
Zn434 O439 2.049 . S
Zn434 O444 2.067 . S
Zn435 O436 1.962 . S
Zn435 O438 1.986 . S
Zn435 O440 1.996 . S
Zn435 O443 1.943 . S
O436 Zn435 1.962 . S
O436 C441 1.254 . S
O437 Zn434 2.031 . S
O437 C441 1.269 . S
O438 Zn435 1.986 . S
O438 C445 1.262 . S
O439 Zn434 2.049 . S
O439 C447 1.260 . S
O440 Zn435 1.996 . S
O440 C447 1.257 . S
C441 O436 1.254 . S
C441 O437 1.269 . S
C442 O443 1.249 . S
C442 O444 1.270 . S
O443 Zn435 1.943 . S
O443 C442 1.249 . S
O444 Zn434 2.067 . S
O444 C442 1.270 . S
C445 O438 1.262 . S
C445 O446 1.232 . S
O446 C445 1.232 . S
C447 O439 1.260 . S
C447 O440 1.257 . S
Zn448 O451 2.031 . S
Zn448 O453 2.049 . S
Zn448 O458 2.067 1_545 S
Zn449 O450 1.962 . S
Zn449 O452 1.978 . S
Zn449 O454 1.996 . S
Zn449 O457 1.943 1_545 S
O450 Zn449 1.962 . S
O450 C455 1.254 . S
O451 Zn448 2.031 . S
O451 C455 1.269 . S
O452 Zn449 1.978 . S
O452 C459 1.258 1_545 S
O453 Zn448 2.049 . S
O453 C461 1.260 . S
O454 Zn449 1.996 . S
O454 C461 1.257 . S
C455 O450 1.254 . S
C455 O451 1.269 . S
C456 O457 1.249 . S
C456 O458 1.270 . S
O457 Zn449 1.943 1_565 S
O457 C456 1.249 . S
O458 Zn448 2.067 1_565 S
O458 C456 1.270 . S
C459 O452 1.258 1_565 S
C459 O460 1.232 . S
O460 C459 1.232 . S
C461 O453 1.260 . S
C461 O454 1.257 . S
Zn462 O465 2.031 . S
Zn462 O467 2.049 . S
Zn462 O472 2.067 . S
Zn463 O464 1.962 . S
Zn463 O466 1.986 . S
Zn463 O468 1.996 . S
Zn463 O471 1.943 . S
O464 Zn463 1.962 . S
O464 C469 1.254 . S
O465 Zn462 2.031 . S
O465 C469 1.269 . S
O466 Zn463 1.986 . S
O466 C473 1.262 . S
O467 Zn462 2.049 . S
O467 C475 1.260 . S
O468 Zn463 1.996 . S
O468 C475 1.257 . S
C469 O464 1.254 . S
C469 O465 1.269 . S
C470 O471 1.249 . S
C470 O472 1.270 . S
O471 Zn463 1.943 . S
O471 C470 1.249 . S
O472 Zn462 2.067 . S
O472 C470 1.270 . S
C473 O466 1.262 . S
C473 O474 1.232 . S
O474 C473 1.232 . S
C475 O467 1.260 . S
C475 O468 1.257 . S
Zn476 O479 2.030 1_545 S
Zn476 O481 2.049 1_545 S
Zn476 O486 2.067 1_545 S
Zn477 O478 1.962 . S
Zn477 O480 1.986 . S
Zn477 O482 1.996 . S
Zn477 O485 1.943 . S
O478 Zn477 1.962 . S
O478 C483 1.254 . S
O479 Zn476 2.030 1_565 S
O479 C483 1.285 . S
O480 Zn477 1.986 . S
O480 C487 1.262 . S
O481 Zn476 2.049 1_565 S
O481 C489 1.260 . S
O482 Zn477 1.996 . S
O482 C489 1.257 . S
C483 O478 1.254 . S
C483 O479 1.285 . S
C484 O485 1.249 . S
C484 O486 1.270 . S
O485 Zn477 1.943 . S
O485 C484 1.249 . S
O486 Zn476 2.067 1_565 S
O486 C484 1.270 . S
C487 O480 1.262 . S
C487 O488 1.232 . S
O488 C487 1.232 . S
C489 O481 1.260 . S
C489 O482 1.257 . S
Zn490 O493 2.032 . S
Zn490 O495 2.049 1_655 S
Zn490 O500 2.067 1_655 S
Zn491 O492 1.962 . S
Zn491 O494 1.986 . S
Zn491 O496 1.996 . S
Zn491 O499 1.943 . S
O492 Zn491 1.962 . S
O492 C497 1.254 . S
O493 Zn490 2.032 . S
O493 C497 1.273 1_655 S
O494 Zn491 1.986 . S
O494 C501 1.262 . S
O495 Zn490 2.049 1_455 S
O495 C503 1.260 . S
O496 Zn491 1.996 . S
O496 C503 1.257 . S
C497 O492 1.254 . S
C497 O493 1.273 1_455 S
C498 O499 1.249 . S
C498 O500 1.270 . S
O499 Zn491 1.943 . S
O499 C498 1.249 . S
O500 Zn490 2.067 1_455 S
O500 C498 1.270 . S
C501 O494 1.262 . S
C501 O502 1.232 . S
O502 C501 1.232 . S
C503 O495 1.260 . S
C503 O496 1.257 . S
C78 C8 0.423 1_565 S
C50 C22 0.423 1_455 S
C36 C64 0.425 . S
C92 C162 0.423 1_565 S
C106 C134 0.423 1_455 S
C148 C120 0.425 . S
C176 C246 0.428 . S
C190 C218 0.402 . S
C232 C204 0.454 . S
C330 C260 0.402 . S
C302 C274 0.428 . S
C288 C316 0.454 . S
C414 C344 0.402 . S
C386 C358 0.428 . S
C372 C400 0.454 . S
C498 C428 0.428 . S
C470 C442 0.402 . S
C484 C456 0.454 . S
C237 C13 1.964 . S
C251 C27 1.997 . S
C223 C41 1.978 . S
C55 C377 1.964 . S
C69 C349 1.978 . S
C83 C363 1.997 . S
C97 C489 1.964 . S
C503 C111 1.997 . S
C475 C125 1.978 . S
C293 C139 1.964 . S
C265 C153 1.978 . S
C167 C279 1.997 . S
C181 C405 2.222 1_455 S
C419 C195 1.978 . S
C391 C209 2.222 1_545 S
C307 C461 2.222 1_565 S
C433 C321 2.222 1_655 S
C335 C447 1.978 . S
C263 C11 1.858 . S
C277 C25 1.888 . S
C39 C291 1.934 . S
C53 C473 1.858 . S
C487 C67 1.935 . S
C501 C81 1.888 . S
C95 C347 1.858 . S
C109 C361 1.888 . S
C375 C123 1.935 . S
C137 C221 1.858 . S
C151 C235 1.935 . S
C249 C165 1.888 . S
C179 C431 1.755 1_655 S
C193 C445 1.883 . S
C459 C207 1.738 1_565 S
C389 C305 1.755 1_564 S
C319 C403 1.738 1_656 S
C333 C417 1.883 1_556 S
C385 C7 1.827 . S
C21 C399 1.832 . S
C413 C35 1.815 . S
C49 C175 1.827 . S
C189 C63 1.815 . S
C203 C77 1.832 . S
C91 C301 1.827 . S
C315 C105 1.832 . S
C119 C329 1.815 . S
C133 C427 1.827 . S
C147 C441 1.815 . S
C455 C161 1.832 . S
C217 C343 1.803 . S
C231 C357 1.804 1_545 S
C245 C371 1.804 1_655 S
C259 C469 1.804 . S
C273 C483 1.804 1_545 S
C497 C287 1.805 1_455 S
