# Generated by pormake.
# Topology ske, (6)-cn, num edge types: 1
# Building blocks:
#     Node 0, Type 0, BuildingBlock: BETFAJ_clean_sbu_0, # of connection points: 6
#     Node 1, Type 0, BuildingBlock: BETFAJ_clean_sbu_0, # of connection points: 6
#     Node 2, Type 0, BuildingBlock: BETFAJ_clean_sbu_0, # of connection points: 6
#     Node 3, Type 0, BuildingBlock: BETFAJ_clean_sbu_0, # of connection points: 6
#     Node 4, Type 0, BuildingBlock: BETFAJ_clean_sbu_0, # of connection points: 6
#     Node 5, Type 0, BuildingBlock: BETFAJ_clean_sbu_0, # of connection points: 6
#     Node 6, Type 0, BuildingBlock: BETFAJ_clean_sbu_0, # of connection points: 6
#     Node 7, Type 0, BuildingBlock: BETFAJ_clean_sbu_0, # of connection points: 6
#     Edge 8, Type (0, 0), None
#     Edge 9, Type (0, 0), None
#     Edge 10, Type (0, 0), None
#     Edge 11, Type (0, 0), None
#     Edge 12, Type (0, 0), None
#     Edge 13, Type (0, 0), None
#     Edge 14, Type (0, 0), None
#     Edge 15, Type (0, 0), None
#     Edge 16, Type (0, 0), None
#     Edge 17, Type (0, 0), None
#     Edge 18, Type (0, 0), None
#     Edge 19, Type (0, 0), None
#     Edge 20, Type (0, 0), None
#     Edge 21, Type (0, 0), None
#     Edge 22, Type (0, 0), None
#     Edge 23, Type (0, 0), None
#     Edge 24, Type (0, 0), None
#     Edge 25, Type (0, 0), None
#     Edge 26, Type (0, 0), None
#     Edge 27, Type (0, 0), None
#     Edge 28, Type (0, 0), None
#     Edge 29, Type (0, 0), None
#     Edge 30, Type (0, 0), None
#     Edge 31, Type (0, 0), None
# Relax obj value: 0.185
# Max RMSD: 0.222
# Mean RMSD: 0.216
data_MOF--net-ske--node1-BETFAJ_clean_sbu_0--edge1-none
_symmetry_space_group_name_H-M    P1
_symmetry_Int_Tables_number       1
_symmetry_cell_setting            triclinic
loop_
_symmetry_equiv_pos_as_xyz
'x, y, z'
_cell_length_a     72.504436
_cell_length_b     12.783553
_cell_length_c     7.0619048
_cell_angle_alpha  89.999286
_cell_angle_beta   89.989164
_cell_angle_gamma 84.576498
loop_
_atom_site_label
_atom_site_type_symbol
_atom_site_fract_x
_atom_site_fract_y
_atom_site_fract_z
_atom_type_partial_charge
Sm0 Sm 0.16315 0.23959 0.53064 0.0
Sm1 Sm 0.11799 0.28139 0.53343 0.0
C2 C 0.19836 0.27736 0.5318 0.0
C3 C 0.21714 0.26301 0.61647 0.0
C4 C 0.22294 0.33966 0.73992 0.0
C5 C 0.24133 0.33551 0.80064 0.0
C6 C 0.25453 0.25514 0.73796 0.0
C7 C 0.24864 0.17749 0.61631 0.0
C8 C 0.23018 0.18145 0.55615 0.0
C9 C 0.14678 0.05265 0.55704 0.0
C10 C 0.14018 0.25522 0.93714 0.0
C11 C 0.0821 0.27438 0.49368 0.0
C12 C 0.06201 0.26951 0.47089 0.0
C13 C 0.05512 0.1763 0.4101 0.0
C14 C 0.03607 0.17116 0.38815 0.0
C15 C 0.02345 0.25879 0.42998 0.0
C16 C 0.03054 0.35291 0.48576 0.0
C17 C 0.04959 0.35834 0.50526 0.0
C18 C 0.13714 0.45635 0.55574 0.0
C19 C 0.14037 0.25488 0.12515 0.0
O20 O 0.18535 0.33497 0.62402 0.0
O21 O 0.19219 0.20001 0.43517 0.0
O22 O 0.13922 0.145 0.54791 0.0
O23 O 0.16466 0.05574 0.55954 0.0
O24 O 0.15613 0.26117 0.84801 0.0
O25 O 0.12409 0.25122 0.84962 0.0
O26 O 0.09347 0.18987 0.52245 0.0
O27 O 0.08977 0.36312 0.49107 0.0
O28 O 0.14189 0.37466 0.46009 0.0
O29 O 0.12095 0.45119 0.63214 0.0
O30 O 0.12438 0.25512 0.21559 0.0
O31 O 0.15652 0.25743 0.21194 0.0
H32 H 0.21334 0.40468 0.78647 0.0
H33 H 0.24518 0.39573 0.8968 0.0
H34 H 0.25838 0.11514 0.56261 0.0
H35 H 0.22628 0.12228 0.45793 0.0
H36 H 0.06447 0.10729 0.37887 0.0
H37 H 0.03127 0.09805 0.33993 0.0
H38 H 0.0214 0.4217 0.5217 0.0
H39 H 0.05456 0.4315 0.5512 0.0
Sm40 Sm 0.86334 0.26971 0.5306 0.0
Sm41 Sm 0.90849 0.22794 0.53298 0.0
C42 C 0.82813 0.23203 0.53181 0.0
C43 C 0.80935 0.24644 0.61641 0.0
C44 C 0.80354 0.16982 0.73989 0.0
C45 C 0.78514 0.17403 0.80059 0.0
C46 C 0.77196 0.2544 0.73785 0.0
C47 C 0.77786 0.33202 0.61615 0.0
C48 C 0.79632 0.32801 0.55602 0.0
C49 C 0.87971 0.45665 0.55677 0.0
C50 C 0.88631 0.25407 0.93698 0.0
C51 C 0.94437 0.23528 0.49277 0.0
C52 C 0.96448 0.23997 0.46992 0.0
C53 C 0.97141 0.33319 0.40986 0.0
C54 C 0.99047 0.33814 0.38833 0.0
C55 C 1.00306 0.25039 0.43005 0.0
C56 C 0.99594 0.15636 0.48593 0.0
C57 C 0.97687 0.15109 0.50478 0.0
C58 C 0.88934 0.05295 0.55577 0.0
C59 C 0.8861 0.25441 0.12498 0.0
O60 O 0.84114 0.1744 0.6241 0.0
O61 O 0.83431 0.30935 0.43515 0.0
O62 O 0.88727 0.36431 0.54757 0.0
O63 O 0.86183 0.45355 0.55944 0.0
O64 O 0.87036 0.24824 0.84793 0.0
O65 O 0.90241 0.25793 0.8494 0.0
O66 O 0.933 0.31977 0.5214 0.0
O67 O 0.9367 0.14658 0.48914 0.0
O68 O 0.88459 0.13459 0.46 0.0
O69 O 0.90553 0.05816 0.63206 0.0
O70 O 0.90209 0.25412 0.21532 0.0
O71 O 0.86995 0.25192 0.21184 0.0
H72 H 0.81313 0.10479 0.78649 0.0
H73 H 0.78129 0.11384 0.89678 0.0
H74 H 0.76812 0.39438 0.56241 0.0
H75 H 0.80022 0.38715 0.45776 0.0
H76 H 0.96209 0.40236 0.37884 0.0
H77 H 0.99529 0.41123 0.34035 0.0
H78 H 1.00507 0.08757 0.52218 0.0
H79 H 0.97186 0.07802 0.55072 0.0
Sm80 Sm 0.11807 0.78125 0.57734 0.0
Sm81 Sm 0.16319 0.73929 0.57947 0.0
C82 C 0.08219 0.77368 0.61756 0.0
C83 C 0.06208 0.7688 0.64045 0.0
C84 C 0.05508 0.67549 0.6994 0.0
C85 C 0.03598 0.67063 0.71852 0.0
C86 C 0.02345 0.75854 0.67581 0.0
C87 C 0.03065 0.85248 0.62106 0.0
C88 C 0.04974 0.85766 0.60462 0.0
C89 C 0.13714 0.95643 0.55509 0.0
C90 C 0.14044 0.75496 0.9852 0.0
C91 C 0.19841 0.77669 0.57791 0.0
C92 C 0.21719 0.76224 0.49338 0.0
C93 C 0.22301 0.8388 0.36984 0.0
C94 C 0.24141 0.83456 0.30925 0.0
C95 C 0.25459 0.75421 0.37218 0.0
C96 C 0.24868 0.67666 0.49394 0.0
C97 C 0.23022 0.6807 0.55397 0.0
C98 C 0.1468 0.55243 0.55315 0.0
C99 C 0.14023 0.75531 0.17316 0.0
O100 O 0.0936 0.68921 0.59079 0.0
O101 O 0.08984 0.86251 0.62047 0.0
O102 O 0.14199 0.87475 0.65051 0.0
O103 O 0.12096 0.951 0.47877 0.0
O104 O 0.12445 0.75547 0.89494 0.0
O105 O 0.1566 0.75711 0.89829 0.0
O106 O 0.18541 0.83441 0.48569 0.0
O107 O 0.19221 0.69941 0.67457 0.0
O108 O 0.13926 0.64478 0.56242 0.0
O109 O 0.16468 0.55544 0.55053 0.0
O110 O 0.15618 0.76087 0.26222 0.0
O111 O 0.12413 0.7516 0.26073 0.0
H112 H 0.06435 0.60619 0.7309 0.0
H113 H 0.03108 0.59757 0.7656 0.0
H114 H 0.02159 0.92139 0.58395 0.0
H115 H 0.0548 0.93068 0.55931 0.0
H116 H 0.21342 0.90381 0.32309 0.0
H117 H 0.24527 0.89471 0.21301 0.0
H118 H 0.25842 0.61431 0.54784 0.0
H119 H 0.22631 0.62161 0.65229 0.0
Sm120 Sm 0.90842 0.72807 0.5773 0.0
Sm121 Sm 0.86329 0.76999 0.57958 0.0
C122 C 0.94429 0.73587 0.61764 0.0
C123 C 0.9644 0.74055 0.6404 0.0
C124 C 0.97141 0.83383 0.6992 0.0
C125 C 0.9905 0.83869 0.71838 0.0
C126 C 1.00303 0.75078 0.67574 0.0
C127 C 0.99583 0.65682 0.62102 0.0
C128 C 0.97674 0.65163 0.60457 0.0
C129 C 0.88935 0.55287 0.55492 0.0
C130 C 0.88604 0.75441 0.98522 0.0
C131 C 0.82807 0.73259 0.57808 0.0
C132 C 0.80929 0.74702 0.49354 0.0
C133 C 0.80348 0.67044 0.37001 0.0
C134 C 0.78508 0.67465 0.30943 0.0
C135 C 0.77189 0.75499 0.37233 0.0
C136 C 0.77779 0.83256 0.49408 0.0
C137 C 0.79626 0.82855 0.55412 0.0
C138 C 0.87968 0.95685 0.55329 0.0
C139 C 0.88625 0.75406 0.17318 0.0
O140 O 0.93287 0.82033 0.59043 0.0
O141 O 0.93664 0.64706 0.62075 0.0
O142 O 0.88449 0.63451 0.65044 0.0
O143 O 0.90553 0.55832 0.47857 0.0
O144 O 0.90202 0.75389 0.89489 0.0
O145 O 0.86988 0.75221 0.89838 0.0
O146 O 0.84108 0.67485 0.48591 0.0
O147 O 0.83426 0.80989 0.67468 0.0
O148 O 0.88722 0.86449 0.56252 0.0
O149 O 0.86181 0.95384 0.55065 0.0
O150 O 0.8703 0.74847 0.26229 0.0
O151 O 0.90235 0.75775 0.2607 0.0
H152 H 0.96213 0.90312 0.73072 0.0
H153 H 0.99539 0.91176 0.76551 0.0
H154 H 1.0049 0.58791 0.58404 0.0
H155 H 0.97168 0.57859 0.55935 0.0
H156 H 0.81307 0.60544 0.32328 0.0
H157 H 0.78123 0.61449 0.21319 0.0
H158 H 0.76805 0.89489 0.54796 0.0
H159 H 0.80016 0.88764 0.65244 0.0
Sm160 Sm 0.66125 0.74592 0.05647 0.0
Sm161 Sm 0.61868 0.77873 0.06438 0.0
C162 C 0.69718 0.76828 0.07684 0.0
C163 C 0.71523 0.76293 0.17595 0.0
C164 C 0.72344 0.85641 0.20921 0.0
C165 C 0.74163 0.85392 0.27571 0.0
C166 C 0.75213 0.75763 0.31086 0.0
C167 C 0.74369 0.66393 0.28232 0.0
C168 C 0.72549 0.6665 0.21462 0.0
C169 C 0.64448 0.56172 1.04439 0.0
C170 C 0.63976 0.75973 0.46691 0.0
C171 C 0.58261 0.7689 1.0364 0.0
C172 C 0.56233 0.76536 1.02197 0.0
C173 C 0.55483 0.67404 0.96001 0.0
C174 C 0.53562 0.67001 0.95273 0.0
C175 C 0.52348 0.75735 1.00705 0.0
C176 C 0.53106 0.84912 0.06653 0.0
C177 C 0.55024 0.85303 0.07395 0.0
C178 C 0.63576 0.96237 0.07025 0.0
C179 C 0.64006 0.76004 0.65373 0.0
O180 O 0.68433 0.84317 0.1213 0.0
O181 O 0.69058 0.6813 1.0225 0.0
O182 O 0.63902 0.64101 0.14379 0.0
O183 O 0.66012 0.57396 0.96219 0.0
O184 O 0.65532 0.77018 0.37508 0.0
O185 O 0.62404 0.74751 0.37974 0.0
O186 O 0.59459 0.69145 0.98243 0.0
O187 O 0.58989 0.85089 0.10401 0.0
O188 O 0.64086 0.88218 0.97226 0.0
O189 O 0.6204 0.95076 0.15775 0.0
O190 O 0.6245 0.75088 0.74626 0.0
O191 O 0.65579 0.77251 0.74018 0.0
H192 H 0.71599 0.93181 0.17694 0.0
H193 H 0.74764 0.92769 0.29278 0.0
H194 H 0.75116 0.58822 0.31098 0.0
H195 H 0.71966 0.59292 0.18857 0.0
H196 H 0.56382 0.60547 0.91811 0.0
H197 H 0.53028 0.59861 0.90335 0.0
H198 H 0.52217 0.91725 0.11207 0.0
H199 H 0.5556 0.92448 0.12267 0.0
Sm200 Sm 0.36525 0.76335 0.05655 0.0
Sm201 Sm 0.40782 0.73066 0.06428 0.0
C202 C 0.32933 0.74082 0.07697 0.0
C203 C 0.31127 0.74621 0.17598 0.0
C204 C 0.30306 0.65274 0.20926 0.0
C205 C 0.28486 0.65525 0.27568 0.0
C206 C 0.27436 0.75155 0.31075 0.0
C207 C 0.28281 0.84524 0.2822 0.0
C208 C 0.30101 0.84265 0.21456 0.0
C209 C 0.382 0.94762 1.04443 0.0
C210 C 0.38674 0.74962 0.4669 0.0
C211 C 0.44389 0.74051 1.03631 0.0
C212 C 0.46418 0.74406 1.0219 0.0
C213 C 0.47168 0.83535 0.95981 0.0
C214 C 0.49089 0.83938 0.95256 0.0
C215 C 0.50303 0.75207 1.00704 0.0
C216 C 0.49544 0.66033 0.06666 0.0
C217 C 0.47626 0.65642 0.07405 0.0
C218 C 0.39076 0.54697 0.07021 0.0
C219 C 0.38645 0.74931 0.65373 0.0
O220 O 0.34219 0.66605 0.1218 0.0
O221 O 0.33592 0.82778 1.02229 0.0
O222 O 0.38748 0.86834 0.14377 0.0
O223 O 0.36636 0.93534 0.96236 0.0
O224 O 0.37118 0.73913 0.37515 0.0
O225 O 0.40246 0.7619 0.37965 0.0
O226 O 0.43192 0.81796 0.98232 0.0
O227 O 0.43662 0.65851 0.10389 0.0
O228 O 0.38565 0.62715 0.97223 0.0
O229 O 0.40611 0.55863 0.15772 0.0
O230 O 0.40201 0.75851 0.74618 0.0
O231 O 0.37072 0.73676 0.74025 0.0
H232 H 0.31051 0.57733 0.17707 0.0
H233 H 0.27885 0.58148 0.29277 0.0
H234 H 0.27533 0.92096 0.31079 0.0
H235 H 0.30685 0.91622 0.1885 0.0
H236 H 0.46269 0.90389 0.91777 0.0
H237 H 0.49623 0.91075 0.90306 0.0
H238 H 0.50433 0.59222 0.11232 0.0
H239 H 0.4709 0.58499 0.12288 0.0
Sm240 Sm 0.61874 0.27854 1.04645 0.0
Sm241 Sm 0.66132 0.24576 1.05415 0.0
C242 C 0.58266 0.2686 0.07409 0.0
C243 C 0.56236 0.26509 0.08827 0.0
C244 C 0.55483 0.17382 0.15013 0.0
C245 C 0.53561 0.16985 0.15718 0.0
C246 C 0.52348 0.25722 0.10278 0.0
C247 C 0.53109 0.34894 1.04338 0.0
C248 C 0.55028 0.35278 1.03614 0.0
C249 C 0.63576 0.46235 1.04115 0.0
C250 C 0.64012 0.25997 0.45698 0.0
C251 C 0.69727 0.26757 1.03397 0.0
C252 C 0.71531 0.2623 0.93458 0.0
C253 C 0.72351 0.35579 0.90141 0.0
C254 C 0.7417 0.35332 0.83477 0.0
C255 C 0.7522 0.25704 0.7994 0.0
C256 C 0.74376 0.16333 0.82782 0.0
C257 C 0.72556 0.16588 0.89565 0.0
C258 C 0.6445 0.06169 0.06683 0.0
C259 C 0.63983 0.25967 0.64382 0.0
O260 O 0.59463 0.19132 0.1288 0.0
O261 O 0.58994 0.35045 1.00601 0.0
O262 O 0.64096 0.38202 0.13837 0.0
O263 O 0.62038 0.45072 0.95415 0.0
O264 O 0.62456 0.25072 0.36456 0.0
O265 O 0.65585 0.27249 0.37042 0.0
O266 O 0.68445 0.34285 0.99058 0.0
O267 O 0.69062 0.18051 0.08717 0.0
O268 O 0.63912 0.14085 0.96678 0.0
O269 O 0.66009 0.07404 0.14983 0.0
O270 O 0.65539 0.27016 0.73557 0.0
O271 O 0.62411 0.24737 0.73106 0.0
H272 H 0.56381 0.10523 0.19215 0.0
H273 H 0.53026 0.09848 0.20653 0.0
H274 H 0.52221 0.41711 0.99779 0.0
H275 H 0.55565 0.42422 0.9875 0.0
H276 H 0.71607 0.43119 0.93388 0.0
H277 H 0.74772 0.42709 0.81778 0.0
H278 H 0.75123 0.08763 0.79898 0.0
H279 H 0.71973 0.0923 0.92164 0.0
Sm280 Sm 0.40775 0.23077 1.04629 0.0
Sm281 Sm 0.36517 0.26368 1.05419 0.0
C282 C 0.44383 0.24066 0.07396 0.0
C283 C 0.46413 0.24417 0.08816 0.0
C284 C 0.47165 0.33547 0.14987 0.0
C285 C 0.49087 0.33944 0.15697 0.0
C286 C 0.50301 0.25204 0.10276 0.0
C287 C 0.49541 0.16028 1.04352 0.0
C288 C 0.47621 0.15645 1.03624 0.0
C289 C 0.39072 0.04701 1.04104 0.0
C290 C 0.38637 0.24938 0.45693 0.0
C291 C 0.3292 0.24213 1.0341 0.0
C292 C 0.31117 0.24735 0.93467 0.0
C293 C 0.30298 0.15385 0.90149 0.0
C294 C 0.28479 0.15628 0.83486 0.0
C295 C 0.27428 0.25255 0.79953 0.0
C296 C 0.28272 0.34627 0.82795 0.0
C297 C 0.30091 0.34375 0.89577 0.0
C298 C 0.38202 0.44766 0.06691 0.0
C299 C 0.38666 0.24967 0.64377 0.0
O300 O 0.43185 0.31797 0.1286 0.0
O301 O 0.43655 0.15882 1.00588 0.0
O302 O 0.38552 0.12734 0.13828 0.0
O303 O 0.4061 0.0586 0.95405 0.0
O304 O 0.40193 0.25858 0.36443 0.0
O305 O 0.37063 0.23693 0.37045 0.0
O306 O 0.34201 0.16668 0.99121 0.0
O307 O 0.33587 0.32923 0.08676 0.0
O308 O 0.38738 0.36852 0.96675 0.0
O309 O 0.36643 0.43533 0.15008 0.0
O310 O 0.3711 0.23922 0.7356 0.0
O311 O 0.40238 0.26192 0.73093 0.0
H312 H 0.46268 0.40409 0.19173 0.0
H313 H 0.49622 0.41084 0.20619 0.0
H314 H 0.50428 0.09208 0.99808 0.0
H315 H 0.47085 0.08498 0.98773 0.0
H316 H 0.31042 0.07846 0.93395 0.0
H317 H 0.27878 0.0825 0.81787 0.0
H318 H 0.27525 0.42197 0.79915 0.0
H319 H 0.30674 0.41736 0.92178 0.0
loop_
_geom_bond_atom_site_label_1
_geom_bond_atom_site_label_2
_geom_bond_distance
_geom_bond_site_symmetry_2
_ccdc_geom_bond_type
Sm0 C2 2.846 . S
Sm0 O20 2.543 . S
Sm0 O21 2.450 . S
Sm0 O22 2.681 . S
Sm0 O23 2.464 . S
Sm0 O24 2.396 . S
Sm0 O28 2.386 . S
Sm0 O31 2.408 . S
Sm1 C11 2.846 . S
Sm1 O22 2.386 . S
Sm1 O25 2.408 . S
Sm1 O26 2.543 . S
Sm1 O27 2.450 . S
Sm1 O28 2.681 . S
Sm1 O29 2.464 . S
Sm1 O30 2.396 . S
C2 Sm0 2.846 . S
C2 C3 1.506 . S
C2 O20 1.261 . S
C2 O21 1.242 . S
C3 C2 1.506 . S
C3 C4 1.358 . S
C3 C8 1.382 . S
C4 C3 1.358 . S
C4 C5 1.385 . S
C4 H32 0.930 . S
C5 C4 1.385 . S
C5 C6 1.395 . S
C5 H33 0.929 . S
C6 C5 1.395 . S
C6 C7 1.335 . S
C7 C6 1.335 . S
C7 C8 1.398 . S
C7 H34 0.930 . S
C8 C3 1.382 . S
C8 C7 1.398 . S
C8 H35 0.929 . S
C9 O22 1.271 . S
C9 O23 1.251 . S
C10 O24 1.252 . S
C10 O25 1.272 . S
C11 Sm1 2.846 . S
C11 C12 1.506 . S
C11 O26 1.261 . S
C11 O27 1.242 . S
C12 C11 1.506 . S
C12 C13 1.358 . S
C12 C17 1.382 . S
C13 C12 1.358 . S
C13 C14 1.385 1_554 S
C13 H36 0.930 . S
C14 C13 1.385 1_556 S
C14 C15 1.395 . S
C14 H37 0.929 . S
C15 C14 1.395 . S
C15 C16 1.335 1_556 S
C16 C15 1.335 1_554 S
C16 C17 1.398 . S
C16 H38 0.930 . S
C17 C12 1.382 . S
C17 C16 1.398 . S
C17 H39 0.929 . S
C18 O28 1.271 . S
C18 O29 1.251 . S
C19 O30 1.252 . S
C19 O31 1.272 . S
O20 Sm0 2.543 . S
O20 C2 1.261 . S
O21 Sm0 2.450 . S
O21 C2 1.242 . S
O22 Sm0 2.681 . S
O22 Sm1 2.386 . S
O22 C9 1.271 . S
O23 Sm0 2.464 . S
O23 C9 1.251 . S
O24 Sm0 2.396 . S
O24 C10 1.252 . S
O25 Sm1 2.408 . S
O25 C10 1.272 . S
O26 Sm1 2.543 . S
O26 C11 1.261 . S
O27 Sm1 2.450 . S
O27 C11 1.242 . S
O28 Sm0 2.386 . S
O28 Sm1 2.681 . S
O28 C18 1.271 . S
O29 Sm1 2.464 . S
O29 C18 1.251 . S
O30 Sm1 2.396 . S
O30 C19 1.252 . S
O31 Sm0 2.408 . S
O31 C19 1.272 . S
H32 C4 0.930 . S
H33 C5 0.929 . S
H34 C7 0.930 . S
H35 C8 0.929 . S
H36 C13 0.930 . S
H37 C14 0.929 . S
H38 C16 0.930 . S
H39 C17 0.929 . S
Sm40 C42 2.846 . S
Sm40 O60 2.543 . S
Sm40 O61 2.450 . S
Sm40 O62 2.681 . S
Sm40 O63 2.464 . S
Sm40 O64 2.396 . S
Sm40 O68 2.386 . S
Sm40 O71 2.408 . S
Sm41 C51 2.846 . S
Sm41 O62 2.386 . S
Sm41 O65 2.408 . S
Sm41 O66 2.543 . S
Sm41 O67 2.450 . S
Sm41 O68 2.681 . S
Sm41 O69 2.464 . S
Sm41 O70 2.396 . S
C42 Sm40 2.846 . S
C42 C43 1.506 . S
C42 O60 1.261 . S
C42 O61 1.242 . S
C43 C42 1.506 . S
C43 C44 1.358 . S
C43 C48 1.382 . S
C44 C43 1.358 . S
C44 C45 1.385 . S
C44 H72 0.930 . S
C45 C44 1.385 . S
C45 C46 1.395 . S
C45 H73 0.929 . S
C46 C45 1.395 . S
C46 C47 1.335 . S
C47 C46 1.335 . S
C47 C48 1.398 . S
C47 H74 0.930 . S
C48 C43 1.382 . S
C48 C47 1.398 . S
C48 H75 0.929 . S
C49 O62 1.271 . S
C49 O63 1.251 . S
C50 O64 1.252 . S
C50 O65 1.272 . S
C51 Sm41 2.846 . S
C51 C52 1.506 . S
C51 O66 1.261 . S
C51 O67 1.242 . S
C52 C51 1.506 . S
C52 C53 1.358 . S
C52 C57 1.382 . S
C53 C52 1.358 . S
C53 C54 1.385 1_554 S
C53 H76 0.930 . S
C54 C53 1.385 1_556 S
C54 C55 1.395 . S
C54 H77 0.929 . S
C55 C54 1.395 . S
C55 C56 1.335 1_556 S
C56 C55 1.335 1_554 S
C56 C57 1.398 . S
C56 H78 0.930 . S
C57 C52 1.382 . S
C57 C56 1.398 . S
C57 H79 0.929 . S
C58 O68 1.271 . S
C58 O69 1.251 . S
C59 O70 1.252 . S
C59 O71 1.272 . S
O60 Sm40 2.543 . S
O60 C42 1.261 . S
O61 Sm40 2.450 . S
O61 C42 1.242 . S
O62 Sm40 2.681 . S
O62 Sm41 2.386 . S
O62 C49 1.271 . S
O63 Sm40 2.464 . S
O63 C49 1.251 . S
O64 Sm40 2.396 . S
O64 C50 1.252 . S
O65 Sm41 2.408 . S
O65 C50 1.272 . S
O66 Sm41 2.543 . S
O66 C51 1.261 . S
O67 Sm41 2.450 . S
O67 C51 1.242 . S
O68 Sm40 2.386 . S
O68 Sm41 2.681 . S
O68 C58 1.271 . S
O69 Sm41 2.464 . S
O69 C58 1.251 . S
O70 Sm41 2.396 . S
O70 C59 1.252 . S
O71 Sm40 2.408 . S
O71 C59 1.272 . S
H72 C44 0.930 . S
H73 C45 0.929 . S
H74 C47 0.930 . S
H75 C48 0.929 . S
H76 C53 0.930 . S
H77 C54 0.929 . S
H78 C56 0.930 . S
H79 C57 0.929 . S
Sm80 C82 2.846 . S
Sm80 O100 2.543 . S
Sm80 O101 2.450 . S
Sm80 O102 2.681 . S
Sm80 O103 2.464 . S
Sm80 O104 2.396 . S
Sm80 O108 2.386 . S
Sm80 O111 2.408 . S
Sm81 C91 2.846 . S
Sm81 O102 2.386 . S
Sm81 O105 2.408 . S
Sm81 O106 2.543 . S
Sm81 O107 2.450 . S
Sm81 O108 2.681 . S
Sm81 O109 2.464 . S
Sm81 O110 2.396 . S
C82 Sm80 2.846 . S
C82 C83 1.506 . S
C82 O100 1.261 . S
C82 O101 1.242 . S
C83 C82 1.506 . S
C83 C84 1.358 . S
C83 C88 1.382 . S
C84 C83 1.358 . S
C84 C85 1.385 1_556 S
C84 H112 0.930 . S
C85 C84 1.385 1_554 S
C85 C86 1.395 . S
C85 H113 0.929 . S
C86 C85 1.395 . S
C86 C87 1.335 1_554 S
C87 C86 1.335 1_556 S
C87 C88 1.398 . S
C87 H114 0.930 . S
C88 C83 1.382 . S
C88 C87 1.398 . S
C88 H115 0.929 . S
C89 O102 1.271 . S
C89 O103 1.251 . S
C90 O104 1.252 . S
C90 O105 1.272 . S
C91 Sm81 2.846 . S
C91 C92 1.506 . S
C91 O106 1.261 . S
C91 O107 1.242 . S
C92 C91 1.506 . S
C92 C93 1.358 . S
C92 C97 1.382 . S
C93 C92 1.358 . S
C93 C94 1.385 . S
C93 H116 0.930 . S
C94 C93 1.385 . S
C94 C95 1.395 . S
C94 H117 0.929 . S
C95 C94 1.395 . S
C95 C96 1.335 . S
C96 C95 1.335 . S
C96 C97 1.398 . S
C96 H118 0.930 . S
C97 C92 1.382 . S
C97 C96 1.398 . S
C97 H119 0.929 . S
C98 O108 1.271 . S
C98 O109 1.251 . S
C99 O110 1.252 . S
C99 O111 1.272 . S
O100 Sm80 2.543 . S
O100 C82 1.261 . S
O101 Sm80 2.450 . S
O101 C82 1.242 . S
O102 Sm80 2.681 . S
O102 Sm81 2.386 . S
O102 C89 1.271 . S
O103 Sm80 2.464 . S
O103 C89 1.251 . S
O104 Sm80 2.396 . S
O104 C90 1.252 . S
O105 Sm81 2.408 . S
O105 C90 1.272 . S
O106 Sm81 2.543 . S
O106 C91 1.261 . S
O107 Sm81 2.450 . S
O107 C91 1.242 . S
O108 Sm80 2.386 . S
O108 Sm81 2.681 . S
O108 C98 1.271 . S
O109 Sm81 2.464 . S
O109 C98 1.251 . S
O110 Sm81 2.396 . S
O110 C99 1.252 . S
O111 Sm80 2.408 . S
O111 C99 1.272 . S
H112 C84 0.930 . S
H113 C85 0.929 . S
H114 C87 0.930 . S
H115 C88 0.929 . S
H116 C93 0.930 . S
H117 C94 0.929 . S
H118 C96 0.930 . S
H119 C97 0.929 . S
Sm120 C122 2.846 . S
Sm120 O140 2.543 . S
Sm120 O141 2.450 . S
Sm120 O142 2.681 . S
Sm120 O143 2.464 . S
Sm120 O144 2.396 . S
Sm120 O148 2.386 . S
Sm120 O151 2.408 . S
Sm121 C131 2.846 . S
Sm121 O142 2.386 . S
Sm121 O145 2.408 . S
Sm121 O146 2.543 . S
Sm121 O147 2.450 . S
Sm121 O148 2.681 . S
Sm121 O149 2.464 . S
Sm121 O150 2.396 . S
C122 Sm120 2.846 . S
C122 C123 1.506 . S
C122 O140 1.261 . S
C122 O141 1.242 . S
C123 C122 1.506 . S
C123 C124 1.358 . S
C123 C128 1.382 . S
C124 C123 1.358 . S
C124 C125 1.385 1_556 S
C124 H152 0.930 . S
C125 C124 1.385 1_554 S
C125 C126 1.395 . S
C125 H153 0.929 . S
C126 C125 1.395 . S
C126 C127 1.335 1_554 S
C127 C126 1.335 1_556 S
C127 C128 1.398 . S
C127 H154 0.930 . S
C128 C123 1.382 . S
C128 C127 1.398 . S
C128 H155 0.929 . S
C129 O142 1.271 . S
C129 O143 1.251 . S
C130 O144 1.252 . S
C130 O145 1.272 . S
C131 Sm121 2.846 . S
C131 C132 1.506 . S
C131 O146 1.261 . S
C131 O147 1.242 . S
C132 C131 1.506 . S
C132 C133 1.358 . S
C132 C137 1.382 . S
C133 C132 1.358 . S
C133 C134 1.385 . S
C133 H156 0.930 . S
C134 C133 1.385 . S
C134 C135 1.395 . S
C134 H157 0.929 . S
C135 C134 1.395 . S
C135 C136 1.335 . S
C136 C135 1.335 . S
C136 C137 1.398 . S
C136 H158 0.930 . S
C137 C132 1.382 . S
C137 C136 1.398 . S
C137 H159 0.929 . S
C138 O148 1.271 . S
C138 O149 1.251 . S
C139 O150 1.252 . S
C139 O151 1.272 . S
O140 Sm120 2.543 . S
O140 C122 1.261 . S
O141 Sm120 2.450 . S
O141 C122 1.242 . S
O142 Sm120 2.681 . S
O142 Sm121 2.386 . S
O142 C129 1.271 . S
O143 Sm120 2.464 . S
O143 C129 1.251 . S
O144 Sm120 2.396 . S
O144 C130 1.252 . S
O145 Sm121 2.408 . S
O145 C130 1.272 . S
O146 Sm121 2.543 . S
O146 C131 1.261 . S
O147 Sm121 2.450 . S
O147 C131 1.242 . S
O148 Sm120 2.386 . S
O148 Sm121 2.681 . S
O148 C138 1.271 . S
O149 Sm121 2.464 . S
O149 C138 1.251 . S
O150 Sm121 2.396 . S
O150 C139 1.252 . S
O151 Sm120 2.408 . S
O151 C139 1.272 . S
H152 C124 0.930 . S
H153 C125 0.929 . S
H154 C127 0.930 . S
H155 C128 0.929 . S
H156 C133 0.930 . S
H157 C134 0.929 . S
H158 C136 0.930 . S
H159 C137 0.929 . S
Sm160 C162 2.846 1_556 S
Sm160 O180 2.543 1_556 S
Sm160 O181 2.450 1_556 S
Sm160 O182 2.681 . S
Sm160 O183 2.464 . S
Sm160 O184 2.396 1_556 S
Sm160 O188 2.386 1_556 S
Sm160 O191 2.408 . S
Sm161 C171 2.846 1_554 S
Sm161 O182 2.386 1_554 S
Sm161 O185 2.408 . S
Sm161 O186 2.543 1_554 S
Sm161 O187 2.450 1_554 S
Sm161 O188 2.681 . S
Sm161 O189 2.464 . S
Sm161 O190 2.396 1_554 S
C162 Sm160 2.846 1_554 S
C162 C163 1.506 . S
C162 O180 1.261 . S
C162 O181 1.242 . S
C163 C162 1.506 . S
C163 C164 1.358 . S
C163 C168 1.382 . S
C164 C163 1.358 . S
C164 C165 1.385 . S
C164 H192 0.930 . S
C165 C164 1.385 . S
C165 C166 1.395 . S
C165 H193 0.929 . S
C166 C165 1.395 . S
C166 C167 1.335 . S
C167 C166 1.335 . S
C167 C168 1.398 . S
C167 H194 0.930 . S
C168 C163 1.382 . S
C168 C167 1.398 . S
C168 H195 0.929 . S
C169 O182 1.271 . S
C169 O183 1.251 . S
C170 O184 1.252 . S
C170 O185 1.272 . S
C171 Sm161 2.846 1_556 S
C171 C172 1.506 . S
C171 O186 1.261 . S
C171 O187 1.242 . S
C172 C171 1.506 . S
C172 C173 1.358 . S
C172 C177 1.382 . S
C173 C172 1.358 . S
C173 C174 1.385 . S
C173 H196 0.930 . S
C174 C173 1.385 . S
C174 C175 1.395 . S
C174 H197 0.929 . S
C175 C174 1.395 . S
C175 C176 1.335 . S
C176 C175 1.335 . S
C176 C177 1.398 . S
C176 H198 0.930 . S
C177 C172 1.382 . S
C177 C176 1.398 . S
C177 H199 0.929 . S
C178 O188 1.271 . S
C178 O189 1.251 . S
C179 O190 1.252 . S
C179 O191 1.272 . S
O180 Sm160 2.543 1_554 S
O180 C162 1.261 . S
O181 Sm160 2.450 1_554 S
O181 C162 1.242 . S
O182 Sm160 2.681 . S
O182 Sm161 2.386 1_556 S
O182 C169 1.271 . S
O183 Sm160 2.464 . S
O183 C169 1.251 . S
O184 Sm160 2.396 1_554 S
O184 C170 1.252 . S
O185 Sm161 2.408 . S
O185 C170 1.272 . S
O186 Sm161 2.543 1_556 S
O186 C171 1.261 . S
O187 Sm161 2.450 1_556 S
O187 C171 1.242 . S
O188 Sm160 2.386 1_554 S
O188 Sm161 2.681 . S
O188 C178 1.271 . S
O189 Sm161 2.464 . S
O189 C178 1.251 . S
O190 Sm161 2.396 1_556 S
O190 C179 1.252 . S
O191 Sm160 2.408 . S
O191 C179 1.272 . S
H192 C164 0.930 . S
H193 C165 0.929 . S
H194 C167 0.930 . S
H195 C168 0.929 . S
H196 C173 0.930 . S
H197 C174 0.929 . S
H198 C176 0.930 . S
H199 C177 0.929 . S
Sm200 C202 2.846 1_556 S
Sm200 O220 2.543 1_556 S
Sm200 O221 2.450 1_556 S
Sm200 O222 2.681 . S
Sm200 O223 2.464 . S
Sm200 O224 2.396 1_556 S
Sm200 O228 2.386 1_556 S
Sm200 O231 2.408 . S
Sm201 C211 2.846 1_554 S
Sm201 O222 2.386 1_554 S
Sm201 O225 2.408 . S
Sm201 O226 2.543 1_554 S
Sm201 O227 2.450 1_554 S
Sm201 O228 2.681 . S
Sm201 O229 2.464 . S
Sm201 O230 2.396 1_554 S
C202 Sm200 2.846 1_554 S
C202 C203 1.506 . S
C202 O220 1.261 . S
C202 O221 1.242 . S
C203 C202 1.506 . S
C203 C204 1.358 . S
C203 C208 1.382 . S
C204 C203 1.358 . S
C204 C205 1.385 . S
C204 H232 0.930 . S
C205 C204 1.385 . S
C205 C206 1.395 . S
C205 H233 0.929 . S
C206 C205 1.395 . S
C206 C207 1.335 . S
C207 C206 1.335 . S
C207 C208 1.398 . S
C207 H234 0.930 . S
C208 C203 1.382 . S
C208 C207 1.398 . S
C208 H235 0.929 . S
C209 O222 1.271 . S
C209 O223 1.251 . S
C210 O224 1.252 . S
C210 O225 1.272 . S
C211 Sm201 2.846 1_556 S
C211 C212 1.506 . S
C211 O226 1.261 . S
C211 O227 1.242 . S
C212 C211 1.506 . S
C212 C213 1.358 . S
C212 C217 1.382 . S
C213 C212 1.358 . S
C213 C214 1.385 . S
C213 H236 0.930 . S
C214 C213 1.385 . S
C214 C215 1.395 . S
C214 H237 0.929 . S
C215 C214 1.395 . S
C215 C216 1.335 . S
C216 C215 1.335 . S
C216 C217 1.398 . S
C216 H238 0.930 . S
C217 C212 1.382 . S
C217 C216 1.398 . S
C217 H239 0.929 . S
C218 O228 1.271 . S
C218 O229 1.251 . S
C219 O230 1.252 . S
C219 O231 1.272 . S
O220 Sm200 2.543 1_554 S
O220 C202 1.261 . S
O221 Sm200 2.450 1_554 S
O221 C202 1.242 . S
O222 Sm200 2.681 . S
O222 Sm201 2.386 1_556 S
O222 C209 1.271 . S
O223 Sm200 2.464 . S
O223 C209 1.251 . S
O224 Sm200 2.396 1_554 S
O224 C210 1.252 . S
O225 Sm201 2.408 . S
O225 C210 1.272 . S
O226 Sm201 2.543 1_556 S
O226 C211 1.261 . S
O227 Sm201 2.450 1_556 S
O227 C211 1.242 . S
O228 Sm200 2.386 1_554 S
O228 Sm201 2.681 . S
O228 C218 1.271 . S
O229 Sm201 2.464 . S
O229 C218 1.251 . S
O230 Sm201 2.396 1_556 S
O230 C219 1.252 . S
O231 Sm200 2.408 . S
O231 C219 1.272 . S
H232 C204 0.930 . S
H233 C205 0.929 . S
H234 C207 0.930 . S
H235 C208 0.929 . S
H236 C213 0.930 . S
H237 C214 0.929 . S
H238 C216 0.930 . S
H239 C217 0.929 . S
Sm240 C242 2.846 1_556 S
Sm240 O260 2.543 1_556 S
Sm240 O261 2.450 1_556 S
Sm240 O262 2.681 . S
Sm240 O263 2.464 . S
Sm240 O264 2.396 1_556 S
Sm240 O268 2.386 1_556 S
Sm240 O271 2.408 . S
Sm241 C251 2.846 1_554 S
Sm241 O262 2.386 1_554 S
Sm241 O265 2.408 . S
Sm241 O266 2.543 1_554 S
Sm241 O267 2.450 1_554 S
Sm241 O268 2.681 . S
Sm241 O269 2.464 . S
Sm241 O270 2.396 1_554 S
C242 Sm240 2.846 1_554 S
C242 C243 1.506 . S
C242 O260 1.261 . S
C242 O261 1.242 . S
C243 C242 1.506 . S
C243 C244 1.358 . S
C243 C248 1.382 . S
C244 C243 1.358 . S
C244 C245 1.385 . S
C244 H272 0.930 . S
C245 C244 1.385 . S
C245 C246 1.395 . S
C245 H273 0.929 . S
C246 C245 1.395 . S
C246 C247 1.335 . S
C247 C246 1.335 . S
C247 C248 1.398 . S
C247 H274 0.930 . S
C248 C243 1.382 . S
C248 C247 1.398 . S
C248 H275 0.929 . S
C249 O262 1.271 . S
C249 O263 1.251 . S
C250 O264 1.252 . S
C250 O265 1.272 . S
C251 Sm241 2.846 1_556 S
C251 C252 1.506 . S
C251 O266 1.261 . S
C251 O267 1.242 . S
C252 C251 1.506 . S
C252 C253 1.358 . S
C252 C257 1.382 . S
C253 C252 1.358 . S
C253 C254 1.385 . S
C253 H276 0.930 . S
C254 C253 1.385 . S
C254 C255 1.395 . S
C254 H277 0.929 . S
C255 C254 1.395 . S
C255 C256 1.335 . S
C256 C255 1.335 . S
C256 C257 1.398 . S
C256 H278 0.930 . S
C257 C252 1.382 . S
C257 C256 1.398 . S
C257 H279 0.929 . S
C258 O268 1.271 . S
C258 O269 1.251 . S
C259 O270 1.252 . S
C259 O271 1.272 . S
O260 Sm240 2.543 1_554 S
O260 C242 1.261 . S
O261 Sm240 2.450 1_554 S
O261 C242 1.242 . S
O262 Sm240 2.681 . S
O262 Sm241 2.386 1_556 S
O262 C249 1.271 . S
O263 Sm240 2.464 . S
O263 C249 1.251 . S
O264 Sm240 2.396 1_554 S
O264 C250 1.252 . S
O265 Sm241 2.408 . S
O265 C250 1.272 . S
O266 Sm241 2.543 1_556 S
O266 C251 1.261 . S
O267 Sm241 2.450 1_556 S
O267 C251 1.242 . S
O268 Sm240 2.386 1_554 S
O268 Sm241 2.681 . S
O268 C258 1.271 . S
O269 Sm241 2.464 . S
O269 C258 1.251 . S
O270 Sm241 2.396 1_556 S
O270 C259 1.252 . S
O271 Sm240 2.408 . S
O271 C259 1.272 . S
H272 C244 0.930 . S
H273 C245 0.929 . S
H274 C247 0.930 . S
H275 C248 0.929 . S
H276 C253 0.930 . S
H277 C254 0.929 . S
H278 C256 0.930 . S
H279 C257 0.929 . S
Sm280 C282 2.846 1_556 S
Sm280 O300 2.543 1_556 S
Sm280 O301 2.450 1_556 S
Sm280 O302 2.681 . S
Sm280 O303 2.464 . S
Sm280 O304 2.396 1_556 S
Sm280 O308 2.386 1_556 S
Sm280 O311 2.408 . S
Sm281 C291 2.846 1_554 S
Sm281 O302 2.386 1_554 S
Sm281 O305 2.408 . S
Sm281 O306 2.543 1_554 S
Sm281 O307 2.450 1_554 S
Sm281 O308 2.681 . S
Sm281 O309 2.464 . S
Sm281 O310 2.396 1_554 S
C282 Sm280 2.846 1_554 S
C282 C283 1.506 . S
C282 O300 1.261 . S
C282 O301 1.242 . S
C283 C282 1.506 . S
C283 C284 1.358 . S
C283 C288 1.382 . S
C284 C283 1.358 . S
C284 C285 1.385 . S
C284 H312 0.930 . S
C285 C284 1.385 . S
C285 C286 1.395 . S
C285 H313 0.929 . S
C286 C285 1.395 . S
C286 C287 1.335 . S
C287 C286 1.335 . S
C287 C288 1.398 . S
C287 H314 0.930 . S
C288 C283 1.382 . S
C288 C287 1.398 . S
C288 H315 0.929 . S
C289 O302 1.271 . S
C289 O303 1.251 . S
C290 O304 1.252 . S
C290 O305 1.272 . S
C291 Sm281 2.846 1_556 S
C291 C292 1.506 . S
C291 O306 1.261 . S
C291 O307 1.242 . S
C292 C291 1.506 . S
C292 C293 1.358 . S
C292 C297 1.382 . S
C293 C292 1.358 . S
C293 C294 1.385 . S
C293 H316 0.930 . S
C294 C293 1.385 . S
C294 C295 1.395 . S
C294 H317 0.929 . S
C295 C294 1.395 . S
C295 C296 1.335 . S
C296 C295 1.335 . S
C296 C297 1.398 . S
C296 H318 0.930 . S
C297 C292 1.382 . S
C297 C296 1.398 . S
C297 H319 0.929 . S
C298 O308 1.271 . S
C298 O309 1.251 . S
C299 O310 1.252 . S
C299 O311 1.272 . S
O300 Sm280 2.543 1_554 S
O300 C282 1.261 . S
O301 Sm280 2.450 1_554 S
O301 C282 1.242 . S
O302 Sm280 2.681 . S
O302 Sm281 2.386 1_556 S
O302 C289 1.271 . S
O303 Sm280 2.464 . S
O303 C289 1.251 . S
O304 Sm280 2.396 1_554 S
O304 C290 1.252 . S
O305 Sm281 2.408 . S
O305 C290 1.272 . S
O306 Sm281 2.543 1_556 S
O306 C291 1.261 . S
O307 Sm281 2.450 1_556 S
O307 C291 1.242 . S
O308 Sm280 2.386 1_554 S
O308 Sm281 2.681 . S
O308 C298 1.271 . S
O309 Sm281 2.464 . S
O309 C298 1.251 . S
O310 Sm281 2.396 1_556 S
O310 C299 1.252 . S
O311 Sm280 2.408 . S
O311 C299 1.272 . S
H312 C284 0.930 . S
H313 C285 0.929 . S
H314 C287 0.930 . S
H315 C288 0.929 . S
H316 C293 0.930 . S
H317 C294 0.929 . S
H318 C296 0.930 . S
H319 C297 0.929 . S
C6 C295 2.632 . S
C255 C46 2.632 . S
C206 C95 2.632 . S
C166 C135 2.632 . S
C89 C9 2.326 1_565 S
C49 C129 2.326 . S
C138 C58 2.326 1_565 S
C98 C18 2.326 . S
C169 C249 1.462 . S
C209 C289 1.462 1_565 S
C298 C218 1.462 . S
C258 C178 1.461 1_545 S
C19 C10 2.765 1_554 S
C59 C50 2.765 1_554 S
C99 C90 2.765 1_554 S
C130 C139 2.765 1_556 S
C170 C179 2.763 . S
C219 C210 2.763 . S
C250 C259 2.763 . S
C290 C299 2.763 . S
C15 C55 2.786 1_455 S
C126 C86 2.786 1_655 S
C175 C215 2.790 . S
C286 C246 2.790 . S
