# Generated by pormake.
# Topology fnh, (5)-cn, num edge types: 1
# Building blocks:
#     Node 0, Type 0, BuildingBlock: XOMCOT_clean_sbu_1, # of connection points: 5
#     Node 1, Type 0, BuildingBlock: XOMCOT_clean_sbu_1, # of connection points: 5
#     Node 2, Type 0, BuildingBlock: XOMCOT_clean_sbu_1, # of connection points: 5
#     Node 3, Type 0, BuildingBlock: XOMCOT_clean_sbu_1, # of connection points: 5
#     Node 4, Type 0, BuildingBlock: XOMCOT_clean_sbu_1, # of connection points: 5
#     Node 5, Type 0, BuildingBlock: XOMCOT_clean_sbu_1, # of connection points: 5
#     Node 6, Type 0, BuildingBlock: XOMCOT_clean_sbu_1, # of connection points: 5
#     Node 7, Type 0, BuildingBlock: XOMCOT_clean_sbu_1, # of connection points: 5
#     Node 8, Type 0, BuildingBlock: XOMCOT_clean_sbu_1, # of connection points: 5
#     Node 9, Type 0, BuildingBlock: XOMCOT_clean_sbu_1, # of connection points: 5
#     Node 10, Type 0, BuildingBlock: XOMCOT_clean_sbu_1, # of connection points: 5
#     Node 11, Type 0, BuildingBlock: XOMCOT_clean_sbu_1, # of connection points: 5
#     Node 12, Type 0, BuildingBlock: XOMCOT_clean_sbu_1, # of connection points: 5
#     Node 13, Type 0, BuildingBlock: XOMCOT_clean_sbu_1, # of connection points: 5
#     Node 14, Type 0, BuildingBlock: XOMCOT_clean_sbu_1, # of connection points: 5
#     Node 15, Type 0, BuildingBlock: XOMCOT_clean_sbu_1, # of connection points: 5
#     Node 16, Type 0, BuildingBlock: XOMCOT_clean_sbu_1, # of connection points: 5
#     Node 17, Type 0, BuildingBlock: XOMCOT_clean_sbu_1, # of connection points: 5
#     Edge 18, Type (0, 0), BuildingBlock: AJUNOK_clean_linker_0, # of connection points: 2
#     Edge 19, Type (0, 0), BuildingBlock: AJUNOK_clean_linker_0, # of connection points: 2
#     Edge 20, Type (0, 0), BuildingBlock: AJUNOK_clean_linker_0, # of connection points: 2
#     Edge 21, Type (0, 0), BuildingBlock: AJUNOK_clean_linker_0, # of connection points: 2
#     Edge 22, Type (0, 0), BuildingBlock: AJUNOK_clean_linker_0, # of connection points: 2
#     Edge 23, Type (0, 0), BuildingBlock: AJUNOK_clean_linker_0, # of connection points: 2
#     Edge 24, Type (0, 0), BuildingBlock: AJUNOK_clean_linker_0, # of connection points: 2
#     Edge 25, Type (0, 0), BuildingBlock: AJUNOK_clean_linker_0, # of connection points: 2
#     Edge 26, Type (0, 0), BuildingBlock: AJUNOK_clean_linker_0, # of connection points: 2
#     Edge 27, Type (0, 0), BuildingBlock: AJUNOK_clean_linker_0, # of connection points: 2
#     Edge 28, Type (0, 0), BuildingBlock: AJUNOK_clean_linker_0, # of connection points: 2
#     Edge 29, Type (0, 0), BuildingBlock: AJUNOK_clean_linker_0, # of connection points: 2
#     Edge 30, Type (0, 0), BuildingBlock: AJUNOK_clean_linker_0, # of connection points: 2
#     Edge 31, Type (0, 0), BuildingBlock: AJUNOK_clean_linker_0, # of connection points: 2
#     Edge 32, Type (0, 0), BuildingBlock: AJUNOK_clean_linker_0, # of connection points: 2
#     Edge 33, Type (0, 0), BuildingBlock: AJUNOK_clean_linker_0, # of connection points: 2
#     Edge 34, Type (0, 0), BuildingBlock: AJUNOK_clean_linker_0, # of connection points: 2
#     Edge 35, Type (0, 0), BuildingBlock: AJUNOK_clean_linker_0, # of connection points: 2
#     Edge 36, Type (0, 0), BuildingBlock: AJUNOK_clean_linker_0, # of connection points: 2
#     Edge 37, Type (0, 0), BuildingBlock: AJUNOK_clean_linker_0, # of connection points: 2
#     Edge 38, Type (0, 0), BuildingBlock: AJUNOK_clean_linker_0, # of connection points: 2
#     Edge 39, Type (0, 0), BuildingBlock: AJUNOK_clean_linker_0, # of connection points: 2
#     Edge 40, Type (0, 0), BuildingBlock: AJUNOK_clean_linker_0, # of connection points: 2
#     Edge 41, Type (0, 0), BuildingBlock: AJUNOK_clean_linker_0, # of connection points: 2
#     Edge 42, Type (0, 0), BuildingBlock: AJUNOK_clean_linker_0, # of connection points: 2
#     Edge 43, Type (0, 0), BuildingBlock: AJUNOK_clean_linker_0, # of connection points: 2
#     Edge 44, Type (0, 0), BuildingBlock: AJUNOK_clean_linker_0, # of connection points: 2
#     Edge 45, Type (0, 0), BuildingBlock: AJUNOK_clean_linker_0, # of connection points: 2
#     Edge 46, Type (0, 0), BuildingBlock: AJUNOK_clean_linker_0, # of connection points: 2
#     Edge 47, Type (0, 0), BuildingBlock: AJUNOK_clean_linker_0, # of connection points: 2
#     Edge 48, Type (0, 0), BuildingBlock: AJUNOK_clean_linker_0, # of connection points: 2
#     Edge 49, Type (0, 0), BuildingBlock: AJUNOK_clean_linker_0, # of connection points: 2
#     Edge 50, Type (0, 0), BuildingBlock: AJUNOK_clean_linker_0, # of connection points: 2
#     Edge 51, Type (0, 0), BuildingBlock: AJUNOK_clean_linker_0, # of connection points: 2
#     Edge 52, Type (0, 0), BuildingBlock: AJUNOK_clean_linker_0, # of connection points: 2
#     Edge 53, Type (0, 0), BuildingBlock: AJUNOK_clean_linker_0, # of connection points: 2
#     Edge 54, Type (0, 0), BuildingBlock: AJUNOK_clean_linker_0, # of connection points: 2
#     Edge 55, Type (0, 0), BuildingBlock: AJUNOK_clean_linker_0, # of connection points: 2
#     Edge 56, Type (0, 0), BuildingBlock: AJUNOK_clean_linker_0, # of connection points: 2
#     Edge 57, Type (0, 0), BuildingBlock: AJUNOK_clean_linker_0, # of connection points: 2
#     Edge 58, Type (0, 0), BuildingBlock: AJUNOK_clean_linker_0, # of connection points: 2
#     Edge 59, Type (0, 0), BuildingBlock: AJUNOK_clean_linker_0, # of connection points: 2
#     Edge 60, Type (0, 0), BuildingBlock: AJUNOK_clean_linker_0, # of connection points: 2
#     Edge 61, Type (0, 0), BuildingBlock: AJUNOK_clean_linker_0, # of connection points: 2
#     Edge 62, Type (0, 0), BuildingBlock: AJUNOK_clean_linker_0, # of connection points: 2
# Relax obj value: 0.197
# Max RMSD: 0.170
# Mean RMSD: 0.170
data_MOF--net-fnh--node1-XOMCOT_clean_sbu_1--edge1-AJUNOK_clean_linker_0
_symmetry_space_group_name_H-M    P1
_symmetry_Int_Tables_number       1
_symmetry_cell_setting            triclinic
loop_
_symmetry_equiv_pos_as_xyz
'x, y, z'
_cell_length_a     51.013922
_cell_length_b     51.172228
_cell_length_c     17.616261
_cell_angle_alpha  90.061166
_cell_angle_beta   89.807467
_cell_angle_gamma 119.33767
loop_
_atom_site_label
_atom_site_type_symbol
_atom_site_fract_x
_atom_site_fract_y
_atom_site_fract_z
_atom_type_partial_charge
C0 C 0.1027 0.23166 0.27948 0.0
C1 C 0.07546 0.22378 0.31259 0.0
N2 N 0.0661 0.19756 0.34888 0.0
N3 N 0.11076 0.21094 0.29736 0.0
C4 C 0.08742 0.18986 0.33613 0.0
H5 H 0.11604 0.25172 0.24672 0.0
Co6 Co 0.14445 0.20997 0.2675 0.0
C7 C 0.14115 0.18637 0.43709 0.0
O8 O 0.12882 0.20199 0.46266 0.0
N9 N 0.17867 0.21047 0.2347 0.0
C10 C 0.22811 0.22809 0.23383 0.0
C11 C 0.2023 0.21402 0.27693 0.0
C12 C 0.19051 0.22234 0.16708 0.0
N13 N 0.22059 0.2341 0.16556 0.0
O14 O 0.11674 0.17182 0.20983 0.0
H15 H 0.20165 0.20994 0.3372 0.0
H16 H 0.17739 0.22386 0.12104 0.0
O17 O 0.14654 0.18726 0.36484 0.0
C18 C 0.10792 0.17712 0.14541 0.0
O19 O 0.12076 0.20508 0.12228 0.0
N20 N 0.16958 0.24911 0.30905 0.0
C21 C 0.20525 0.31132 0.33434 0.0
C22 C 0.20109 0.29039 0.3917 0.0
C23 C 0.1833 0.25927 0.37778 0.0
C24 C 0.17455 0.26922 0.25243 0.0
C25 C 0.19189 0.30007 0.26381 0.0
H26 H 0.18105 0.24379 0.42195 0.0
H27 H 0.16452 0.26111 0.19735 0.0
H28 H 0.08716 0.17029 0.36028 0.0
H29 H 0.06477 0.23753 0.31596 0.0
H30 H 0.25069 0.23439 0.25194 0.0
H31 H 0.21106 0.29794 0.44714 0.0
H32 H 0.19482 0.31507 0.21722 0.0
C33 C 0.88353 0.88743 0.31331 0.0
C34 C 0.87653 0.86495 0.36567 0.0
N35 N 0.87978 0.87703 0.43523 0.0
N36 N 0.89178 0.91334 0.35055 0.0
C37 C 0.88955 0.90636 0.4244 0.0
H38 H 0.8823 0.88505 0.25221 0.0
Co39 Co 0.89917 0.94873 0.30861 0.0
C40 C 0.91303 0.99419 0.4375 0.0
O41 O 0.89311 0.99877 0.40168 0.0
N42 N 0.90703 0.98431 0.26515 0.0
C43 C 0.93269 1.03207 0.23157 0.0
C44 C 0.93418 1.00932 0.26832 0.0
C45 C 0.88958 0.99212 0.22503 0.0
N46 N 0.90454 1.02109 0.20515 0.0
O47 O 0.9376 0.95308 0.26061 0.0
H48 H 0.95388 1.01075 0.29516 0.0
H49 H 0.86674 0.97706 0.20821 0.0
O50 O 0.91857 0.9736 0.41013 0.0
C51 C 0.93361 0.9469 0.18848 0.0
O52 O 0.90776 0.9416 0.15959 0.0
N53 N 0.859 0.93921 0.33817 0.0
C54 C 0.79572 0.91154 0.35578 0.0
C55 C 0.81519 0.92358 0.4185 0.0
C56 C 0.84666 0.93687 0.40877 0.0
C57 C 0.84027 0.92639 0.27781 0.0
C58 C 0.80901 0.91326 0.28479 0.0
H59 H 0.86071 0.94382 0.45861 0.0
H60 H 0.84975 0.92573 0.2233 0.0
H61 H 0.8952 0.9225 0.46972 0.0
H62 H 0.86968 0.84172 0.35388 0.0
H63 H 0.95122 0.05437 0.22108 0.0
H64 H 0.8062 0.92154 0.47527 0.0
H65 H 0.79531 0.90404 0.2346 0.0
C66 C 0.19274 1.00982 0.28689 0.0
C67 C 0.21038 1.0269 0.34632 0.0
N68 N 0.20093 1.00998 0.40951 0.0
N69 N 0.17217 0.98281 0.31419 0.0
C70 C 0.17834 0.98339 0.3881 0.0
H71 H 0.1937 1.01718 0.22894 0.0
Co72 Co 0.1401 0.95132 0.26972 0.0
C73 C 0.08874 0.92477 0.39446 0.0
O74 O 0.07533 0.89907 0.3584 0.0
N75 N 0.10807 0.91936 0.22422 0.0
C76 C 0.06411 0.88882 0.17242 0.0
C77 C 0.08101 0.9162 0.20658 0.0
C78 C 0.10735 0.89415 0.19897 0.0
N79 N 0.08077 0.87493 0.16803 0.0
O80 O 0.13072 0.98105 0.21517 0.0
H81 H 0.07424 0.9329 0.21682 0.0
H82 H 0.12651 0.89054 0.19848 0.0
O83 O 0.11358 0.94646 0.36665 0.0
C84 C 0.138 0.98506 0.14369 0.0
O85 O 0.14568 0.96648 0.11226 0.0
N86 N 0.15416 0.92531 0.30913 0.0
C87 C 0.18448 0.89265 0.33802 0.0
C88 C 0.15921 0.88787 0.38148 0.0
C89 C 0.14443 0.90462 0.36654 0.0
C90 C 0.17841 0.92984 0.26633 0.0
C91 C 0.1937 0.91389 0.27954 0.0
H92 H 0.12546 0.90087 0.40117 0.0
H93 H 0.18578 0.94595 0.22041 0.0
H94 H 0.16492 0.96539 0.42722 0.0
H95 H 0.22693 0.05049 0.34458 0.0
H96 H 1.04227 0.88096 0.14661 0.0
H97 H 0.15128 0.87172 0.42738 0.0
H98 H 0.21258 0.91804 0.24341 0.0
C99 C 0.23352 0.08012 0.81398 0.0
C100 C 0.23333 0.05875 0.766 0.0
N101 N 0.21749 0.05782 0.70432 0.0
N102 N 0.21837 0.09251 0.78089 0.0
C103 C 0.20891 0.07849 0.71441 0.0
H104 H 0.24481 0.08697 0.86813 0.0
Co105 Co 0.2154 0.12415 0.81589 0.0
C106 C 0.19635 0.15015 0.68186 0.0
O107 O 0.21771 0.17649 0.70429 0.0
N108 N 0.21263 0.15653 0.85292 0.0
C109 C 0.19434 0.18573 0.89045 0.0
C110 C 0.18715 0.15796 0.86242 0.0
C111 C 0.23484 0.1837 0.87424 0.0
N112 N 0.22449 0.2019 0.89794 0.0
O113 O 0.17812 0.09463 0.8742 0.0
H114 H 0.16477 0.13967 0.85168 0.0
H115 H 0.25825 0.19001 0.87684 0.0
O116 O 0.19228 0.12636 0.71888 0.0
C117 C 0.18366 0.09149 0.94449 0.0
O118 O 0.21003 0.11119 0.9714 0.0
N119 N 0.25431 0.14959 0.77354 0.0
C120 C 0.3165 0.17879 0.74134 0.0
C121 C 0.2952 0.1725 0.68331 0.0
C122 C 0.26409 0.15721 0.70028 0.0
C123 C 0.27475 0.15453 0.82932 0.0
C124 C 0.30562 0.16972 0.81518 0.0
H125 H 0.24821 0.15053 0.65422 0.0
H126 H 0.26682 0.14668 0.88629 0.0
H127 H 0.19711 0.08408 0.67223 0.0
H128 H 0.2442 0.04538 0.77482 0.0
H129 H 0.1784 0.1924 0.91055 0.0
H130 H 0.30247 0.17832 0.62497 0.0
H131 H 0.32084 0.17419 0.86223 0.0
C132 C 1.03451 0.16474 0.77219 0.0
C133 C 1.05108 0.17635 0.70695 0.0
N134 N 1.03291 0.1625 0.64767 0.0
N135 N 1.00635 0.14409 0.75254 0.0
C136 C 1.00615 0.14313 0.67677 0.0
H137 H 1.04173 0.17253 0.82942 0.0
Co138 Co 0.97308 0.1271 0.81067 0.0
C139 C 0.96376 0.07022 0.71778 0.0
O140 O 0.98682 0.07021 0.7506 0.0
N141 N 0.93926 0.11122 0.87114 0.0
C142 C 0.90298 0.11022 0.94321 0.0
C143 C 0.92547 0.12683 0.89304 0.0
C144 C 0.9252 0.08542 0.90997 0.0
N145 N 0.90332 0.0845 0.95512 0.0
O146 O 0.9953 0.11389 0.88337 0.0
H147 H 0.93252 0.14976 0.8777 0.0
H148 H 0.93305 0.06923 0.91168 0.0
O149 O 0.95581 0.08944 0.74075 0.0
C150 C 1.00394 0.12875 0.94647 0.0
O151 O 0.99354 0.14705 0.96264 0.0
N152 N 0.95452 0.14428 0.74831 0.0
C153 C 0.923 0.1745 0.70697 0.0
C154 C 0.91005 0.14324 0.69785 0.0
C155 C 0.92625 0.12854 0.7183 0.0
C156 C 0.96809 0.17479 0.75311 0.0
C157 C 0.95282 0.19024 0.73289 0.0
H158 H 0.91495 0.10433 0.71707 0.0
H159 H 0.98997 0.18708 0.77933 0.0
H160 H 0.98595 0.13099 0.64342 0.0
H161 H 0.07391 0.19474 0.70306 0.0
H162 H 0.88979 0.11782 0.97502 0.0
H163 H 0.88714 0.1301 0.67803 0.0
H164 H 0.96369 0.21419 0.74256 0.0
C165 C 0.92754 0.86345 0.84006 0.0
C166 C 0.90355 0.85765 0.794 0.0
N167 N 0.91279 0.85968 0.72152 0.0
N168 N 0.95155 0.86937 0.79623 0.0
C169 C 0.94194 0.86703 0.72455 0.0
H170 H 0.92709 0.86185 0.9013 0.0
Co171 Co 0.98621 0.87115 0.8286 0.0
C172 C 1.033 0.89528 0.69695 0.0
O173 O 1.04378 0.87872 0.72484 0.0
N174 N 1.02083 0.87221 0.86373 0.0
C175 C 0.0663 0.88775 0.90986 0.0
C176 C 1.04695 0.89672 0.88145 0.0
C177 C 1.02502 0.84882 0.88084 0.0
N178 N 1.05231 0.85745 0.91028 0.0
O179 O 0.99414 0.90749 0.89258 0.0
H180 H 1.05122 0.91954 0.87669 0.0
H181 H 1.00799 0.82568 0.87604 0.0
O182 O 1.01002 0.89499 0.73067 0.0
C183 C 0.98754 0.90105 0.96391 0.0
O184 O 0.98236 0.87449 0.9867 0.0
N185 N 0.97333 0.83318 0.78183 0.0
C186 C 0.94565 0.77199 0.74448 0.0
C187 C 0.96283 0.79416 0.69041 0.0
C188 C 0.97649 0.82478 0.71012 0.0
C189 C 0.95522 0.81186 0.833 0.0
C190 C 0.94172 0.78134 0.81618 0.0
H191 H 0.9888 0.84132 0.66718 0.0
H192 H 0.95184 0.81876 0.88856 0.0
H193 H 0.95576 0.86959 0.67539 0.0
H194 H 0.88093 0.85126 0.81227 0.0
H195 H 0.08786 0.90244 0.93562 0.0
H196 H 0.96573 0.78787 0.63357 0.0
H197 H 0.92792 0.76515 0.85886 0.0
C198 C 0.78583 0.56588 0.58152 0.0
C199 C 0.759 0.56185 0.60991 0.0
N200 N 0.74764 0.53781 0.65607 0.0
N201 N 0.79145 0.54481 0.61089 0.0
C202 C 0.76723 0.5273 0.65309 0.0
H203 H 0.8009 0.58377 0.54424 0.0
Co204 Co 0.82598 0.54336 0.59289 0.0
C205 C 0.81547 0.51295 0.76085 0.0
O206 O 0.79918 0.52362 0.79172 0.0
N207 N 0.86143 0.54346 0.5735 0.0
C208 C 0.91011 0.55828 0.58911 0.0
C209 C 0.8827 0.54713 0.6249 0.0
C210 C 0.87633 0.55257 0.5077 0.0
N211 N 0.90591 0.56236 0.51594 0.0
O212 O 0.8012 0.50656 0.52819 0.0
H213 H 0.87948 0.54519 0.6857 0.0
H214 H 0.86618 0.55416 0.45548 0.0
O215 O 0.8237 0.51932 0.69048 0.0
C216 C 0.79749 0.51267 0.45878 0.0
O217 O 0.81284 0.54072 0.43672 0.0
N218 N 0.84884 0.58137 0.64074 0.0
C219 C 0.88191 0.64263 0.67915 0.0
C220 C 0.86817 0.62035 0.73556 0.0
C221 C 0.85182 0.5898 0.7152 0.0
C222 C 0.86193 0.60272 0.5857 0.0
C223 C 0.87867 0.63314 0.60344 0.0
H224 H 0.84124 0.57338 0.75922 0.0
H225 H 0.85883 0.59607 0.5267 0.0
H226 H 0.76458 0.50799 0.68422 0.0
H227 H 0.74952 0.57644 0.60088 0.0
H228 H 0.93155 0.56456 0.61529 0.0
H229 H 0.86928 0.62642 0.7948 0.0
H230 H 0.88884 0.64913 0.55764 0.0
C231 C 0.52219 0.22044 0.60271 0.0
C232 C 0.52489 0.19911 0.64451 0.0
N233 N 0.54828 0.21361 0.69201 0.0
N234 N 0.54339 0.24789 0.62577 0.0
C235 C 0.55928 0.24295 0.67832 0.0
H236 H 0.50475 0.21628 0.56203 0.0
Co237 Co 0.54703 0.28423 0.60307 0.0
C238 C 0.5696 0.32328 0.74816 0.0
O239 O 0.54771 0.32945 0.73922 0.0
N240 N 0.55036 0.32141 0.58061 0.0
C241 C 0.54512 0.3621 0.5797 0.0
C242 C 0.53043 0.33157 0.58761 0.0
C243 C 0.57675 0.34625 0.56818 0.0
N244 N 0.57442 0.37145 0.56698 0.0
O245 O 0.58444 0.29281 0.54195 0.0
H246 H 0.50686 0.31836 0.60098 0.0
H247 H 0.59729 0.34562 0.5579 0.0
O248 O 0.57161 0.30454 0.70178 0.0
C249 C 0.58148 0.28818 0.46937 0.0
O250 O 0.55636 0.28408 0.43838 0.0
N251 N 0.50885 0.27121 0.64905 0.0
C252 C 0.44723 0.24236 0.68583 0.0
C253 C 0.46927 0.25054 0.74285 0.0
C254 C 0.50006 0.26465 0.72317 0.0
C255 C 0.48763 0.2622 0.59331 0.0
C256 C 0.45699 0.2485 0.61035 0.0
H257 H 0.51655 0.26928 0.76695 0.0
H258 H 0.49474 0.26576 0.5345 0.0
H259 H 0.5771 0.26053 0.71098 0.0
H260 H 0.50992 0.17513 0.64319 0.0
H261 H 0.53473 0.37614 0.58005 0.0
H262 H 0.46275 0.24575 0.80194 0.0
H263 H 0.44096 0.24191 0.56433 0.0
C264 C 0.87653 0.34325 0.61912 0.0
C265 C 0.89871 0.35764 0.67271 0.0
N266 N 0.8853 0.35227 0.74128 0.0
N267 N 0.84963 0.32938 0.65453 0.0
C268 C 0.85568 0.3355 0.72842 0.0
H269 H 0.87984 0.34164 0.55898 0.0
Co270 Co 0.81395 0.30146 0.61454 0.0
C271 C 0.76869 0.27539 0.74616 0.0
O272 O 0.76205 0.24914 0.71792 0.0
N273 N 0.77768 0.27323 0.57462 0.0
C274 C 0.72936 0.25061 0.54502 0.0
C275 C 0.75327 0.27684 0.56964 0.0
C276 C 0.76804 0.24471 0.55315 0.0
N277 N 0.73871 0.23034 0.53528 0.0
O278 O 0.81032 0.33497 0.5616 0.0
H279 H 0.75288 0.29724 0.5834 0.0
H280 H 0.78202 0.23439 0.54946 0.0
O281 O 0.78962 0.29949 0.71338 0.0
C282 C 0.81626 0.33619 0.48943 0.0
O283 O 0.81911 0.314 0.46078 0.0
N284 N 0.82327 0.27142 0.64936 0.0
C285 C 0.8536 0.23826 0.67111 0.0
C286 C 0.84004 0.24495 0.73252 0.0
C287 C 0.8255 0.26211 0.72077 0.0
C288 C 0.83656 0.2652 0.58986 0.0
C289 C 0.85101 0.24824 0.59896 0.0
H290 H 0.81771 0.26918 0.76955 0.0
H291 H 0.8364 0.27412 0.53432 0.0
H292 H 0.83884 0.32698 0.77275 0.0
H293 H 0.9227 0.36995 0.6624 0.0
H294 H 0.7074 0.24744 0.53039 0.0
H295 H 0.84202 0.23831 0.78963 0.0
H296 H 0.86075 0.24357 0.5496 0.0
C297 C 0.92158 0.42308 0.14121 0.0
C298 C 0.92421 0.40251 0.09609 0.0
N299 N 0.90893 0.39972 1.03202 0.0
N300 N 0.90482 0.433 0.10501 0.0
C301 C 0.89711 0.41803 0.03889 0.0
H302 H 0.93333 0.43217 0.19395 0.0
Co303 Co 0.90289 0.46643 0.13461 0.0
C304 C 0.8833 0.47951 0.97378 0.0
O305 O 0.91115 0.49881 0.95618 0.0
N306 N 0.90204 0.50078 0.16591 0.0
C307 C 0.91828 0.54992 0.16893 0.0
C308 C 0.90665 0.52484 0.12387 0.0
C309 C 0.90957 0.5116 0.23661 0.0
N310 N 0.92118 0.54153 0.23901 0.0
O311 O 0.86587 0.43931 0.19863 0.0
H312 H 0.90489 0.52543 0.06336 0.0
H313 H 0.90939 0.49828 0.28417 0.0
O314 O 0.87746 0.46554 0.0388 0.0
C315 C 0.87262 0.43352 0.26538 0.0
O316 O 0.9012 0.4468 0.28373 0.0
N317 N 0.9421 0.49119 0.089 0.0
C318 C 1.0043 0.52279 0.05457 0.0
C319 C 0.98319 0.50344 1.00128 0.0
C320 C 0.9524 0.48733 1.02033 0.0
C321 C 0.9628 0.50889 0.14202 0.0
C322 C 0.9935 0.52536 0.12557 0.0
H323 H 0.93706 0.47123 0.98033 0.0
H324 H 0.95607 0.50892 0.19986 0.0
H325 H 0.8856 0.42246 0.99348 0.0
H326 H 0.93804 0.39226 0.10667 0.0
H327 H 0.92583 0.57273 0.15075 0.0
H328 H 0.99042 0.50024 0.94587 0.0
H329 H 1.00889 0.53877 0.16997 0.0
C330 C 0.70868 0.51026 0.06998 0.0
C331 C 0.71882 0.52712 1.00483 0.0
N332 N 0.70038 0.51124 0.94768 0.0
N333 N 0.68437 0.48378 0.05314 0.0
C334 C 0.67984 0.48517 0.97858 0.0
H335 H 0.7186 0.51692 0.1256 0.0
Co336 Co 0.66021 0.45333 0.1176 0.0
C337 C 0.62704 0.39572 1.01763 0.0
O338 O 0.60471 0.38592 0.06647 0.0
N339 N 0.63704 0.42378 0.18394 0.0
C340 C 0.63269 0.39126 0.27271 0.0
C341 C 0.64057 0.39977 0.19875 0.0
C342 C 0.62678 0.42927 0.24882 0.0
N343 N 0.62481 0.4104 0.30387 0.0
O344 O 0.6968 0.45316 0.16477 0.0
H345 H 0.65183 0.39153 0.16165 0.0
H346 H 0.62506 0.4492 0.25912 0.0
O347 O 0.65097 0.42144 1.03067 0.0
C348 C 0.70295 0.46878 0.22704 0.0
O349 O 0.68759 0.48279 0.23952 0.0
N350 N 0.62708 0.459 0.08817 0.0
C351 C 0.58725 0.48165 0.06271 0.0
C352 C 0.58704 0.45926 1.01564 0.0
C353 C 0.60719 0.44829 1.02903 0.0
C354 C 0.62785 0.48116 0.13296 0.0
C355 C 0.60823 0.49255 0.1218 0.0
H356 H 0.60736 0.43233 0.98957 0.0
H357 H 0.64469 0.49091 0.17681 0.0
H358 H 0.66171 0.46744 0.94733 0.0
H359 H 0.73892 0.54873 0.99942 0.0
H360 H 0.63476 0.37391 0.30274 0.0
H361 H 0.5717 0.45056 0.96814 0.0
H362 H 0.61032 0.51064 0.15778 0.0
C363 C 0.58194 0.19951 0.11555 0.0
C364 C 0.56403 0.19801 0.05553 0.0
N365 N 0.5805 0.20414 0.99131 0.0
N366 N 0.60956 0.20706 0.08906 0.0
C367 C 0.6081 0.21042 1.01409 0.0
H368 H 0.57466 0.19367 0.17372 0.0
Co369 Co 0.63992 0.20438 0.1373 0.0
C370 C 0.68411 0.22496 0.9927 0.0
O371 O 0.67696 0.19739 0.97536 0.0
N372 N 0.67028 0.20058 0.18584 0.0
C373 C 0.69909 0.18 0.20947 0.0
C374 C 0.68791 0.19053 0.15416 0.0
C375 C 0.67175 0.19645 0.26069 0.0
N376 N 0.68825 0.1831 0.27628 0.0
O377 O 0.64794 0.24117 0.19993 0.0
H378 H 0.6905 0.18812 0.09471 0.0
H379 H 0.66026 0.20231 0.3031 0.0
O380 O 0.67139 0.23 0.05106 0.0
C381 C 0.63152 0.23413 0.26111 0.0
O382 O 0.61464 0.20549 0.27642 0.0
N383 N 0.62588 0.16518 0.09267 0.0
C384 C 0.59481 0.10266 0.06606 0.0
C385 C 0.60365 0.12326 1.00556 0.0
C386 C 0.61868 0.15438 1.02003 0.0
C387 C 0.61617 0.14511 0.15151 0.0
C388 C 0.6015 0.11418 0.13967 0.0
H389 H 0.62321 0.16922 0.97258 0.0
H390 H 0.61872 0.15305 0.20924 0.0
H391 H 0.62629 0.21482 0.97586 0.0
H392 H 0.54066 0.1922 0.05952 0.0
H393 H 0.71346 0.17018 0.20112 0.0
H394 H 0.59848 0.11542 0.94754 0.0
H395 H 0.5942 0.09934 0.18837 0.0
C396 C 0.42479 0.87783 0.93093 0.0
C397 C 0.40578 0.88277 0.97704 0.0
N398 N 0.41118 0.8782 0.04908 0.0
N399 N 0.44152 0.86994 0.97448 0.0
C400 C 0.43231 0.8698 0.04576 0.0
H401 H 0.42813 0.88234 0.87069 0.0
Co402 Co 0.47689 0.87215 0.94684 0.0
C403 C 0.49821 0.85049 0.08721 0.0
O404 O 0.52297 0.87645 0.08708 0.0
N405 N 0.51369 0.87534 0.91983 0.0
C406 C 0.5622 0.88842 0.91385 0.0
C407 C 0.54201 0.89701 0.93717 0.0
C408 C 0.51752 0.85392 0.88656 0.0
N409 N 0.54673 0.86132 0.88158 0.0
O410 O 0.4525 0.83603 0.8782 0.0
H411 H 0.54824 0.91781 0.9662 0.0
H412 H 0.4993 0.8339 0.86223 0.0
O413 O 0.47712 0.84584 0.03861 0.0
C414 C 0.45062 0.84252 0.80784 0.0
O415 O 0.46942 0.86991 0.78517 0.0
N416 N 0.49731 0.90989 0.99683 0.0
C417 C 0.52611 0.97183 1.02671 0.0
C418 C 0.51763 0.9508 0.0864 0.0
C419 C 0.5026 0.91973 0.07037 0.0
C420 C 0.50439 0.93008 0.93919 0.0
C421 C 0.51919 0.96084 0.95251 0.0
H422 H 0.49492 0.90393 0.11683 0.0
H423 H 0.499 0.92204 0.88144 0.0
H424 H 0.44261 0.86598 0.095 0.0
H425 H 0.39096 0.8912 0.95977 0.0
H426 H 0.58646 0.90183 0.91608 0.0
H427 H 0.52198 0.95828 0.14482 0.0
H428 H 0.52548 0.97594 0.90445 0.0
C429 C 0.22833 0.57166 0.91634 0.0
C430 C 0.21934 0.54768 0.96513 0.0
N431 N 0.2194 0.55765 1.03574 0.0
N432 N 0.23477 0.59649 0.95706 0.0
C433 C 0.22972 0.58724 1.02946 0.0
H434 H 0.22776 0.57033 0.85516 0.0
Co435 Co 0.23531 0.63085 0.92499 0.0
C436 C 0.27971 0.67987 0.03688 0.0
O437 O 0.29551 0.69603 0.97875 0.0
N438 N 0.23355 0.66432 0.89371 0.0
C439 C 0.21588 0.69647 0.89622 0.0
C440 C 0.22923 0.68357 0.93804 0.0
C441 C 0.22227 0.66568 0.82615 0.0
N442 N 0.21077 0.68441 0.8265 0.0
O443 O 0.27311 0.64134 0.86301 0.0
H444 H 0.23245 0.68594 0.9987 0.0
H445 H 0.22125 0.65221 0.77804 0.0
O446 O 0.25703 0.65359 1.02339 0.0
C447 C 0.26664 0.62969 0.7953 0.0
O448 O 0.23824 0.61599 0.77538 0.0
N449 N 0.19675 0.61662 0.96858 0.0
C450 C 0.13503 0.58676 1.00247 0.0
C451 C 0.15636 0.6054 0.05666 0.0
C452 C 0.18735 0.62019 0.03862 0.0
C453 C 0.17628 0.59933 0.91524 0.0
C454 C 0.14555 0.5844 0.93069 0.0
H455 H 0.20356 0.63401 0.08083 0.0
H456 H 0.18407 0.59693 0.85985 0.0
H457 H 0.23177 0.60161 0.07669 0.0
H458 H 0.21195 0.52462 0.94983 0.0
H459 H 0.20951 0.71263 0.91595 0.0
H460 H 0.14921 0.60802 0.11276 0.0
H461 H 0.13008 0.57111 0.88632 0.0
C462 C 0.53521 0.63911 0.91175 0.0
C463 C 0.5559 0.66068 0.95922 0.0
N464 N 0.54072 0.6678 1.01028 0.0
N465 N 0.50743 0.63263 0.9345 0.0
C466 C 0.51156 0.6515 0.99163 0.0
H467 H 0.53982 0.62648 0.86965 0.0
Co468 Co 0.47253 0.59932 0.90865 0.0
C469 C 0.4441 0.59574 0.07344 0.0
O470 O 0.46055 0.58557 0.10467 0.0
N471 N 0.43713 0.56541 0.88236 0.0
C472 C 0.39822 0.51907 0.88896 0.0
C473 C 0.41738 0.54397 0.93002 0.0
C474 C 0.4295 0.55315 0.8131 0.0
N475 N 0.40667 0.52475 0.81599 0.0
O476 O 0.46405 0.62645 0.84029 0.0
H477 H 0.41794 0.54529 0.99114 0.0
H478 H 0.44121 0.5643 0.76164 0.0
O479 O 0.44785 0.60274 1.00159 0.0
C480 C 0.47636 0.63107 0.77331 0.0
O481 O 0.48898 0.615 0.75396 0.0
N482 N 0.48599 0.57401 0.9608 0.0
C483 C 0.51582 0.54153 1.00194 0.0
C484 C 0.51895 0.56597 0.04534 0.0
C485 C 0.50446 0.58216 1.02309 0.0
C486 C 0.4837 0.55071 0.91731 0.0
C487 C 0.4976 0.53399 0.93752 0.0
H488 H 0.50986 0.60238 0.05386 0.0
H489 H 0.47278 0.54583 0.863 0.0
H490 H 0.49349 0.6508 1.02529 0.0
H491 H 0.57963 0.66764 0.96199 0.0
H492 H 0.38002 0.49828 0.91076 0.0
H493 H 0.53392 0.57371 0.09368 0.0
H494 H 0.49495 0.51586 0.90082 0.0
C495 C 0.59776 0.74786 0.39612 0.0
C496 C 0.5993 0.72906 0.34314 0.0
N497 N 0.57328 0.71643 0.30482 0.0
N498 N 0.57136 0.74776 0.38861 0.0
C499 C 0.55632 0.72728 0.33502 0.0
H500 H 0.61554 0.76216 0.43451 0.0
Co501 Co 0.56287 0.77369 0.44009 0.0
C502 C 0.53578 0.77912 0.27708 0.0
O503 O 0.54911 0.76748 0.23647 0.0
N504 N 0.55574 0.79945 0.49365 0.0
C505 C 0.55762 0.84083 0.53712 0.0
C506 C 0.55798 0.82583 0.47282 0.0
C507 C 0.55431 0.79882 0.56928 0.0
N508 N 0.55533 0.82355 0.59706 0.0
O509 O 0.526 0.73818 0.48967 0.0
H510 H 0.56256 0.83476 0.41579 0.0
H511 H 0.55584 0.78222 0.60374 0.0
O512 O 0.53937 0.78062 0.35039 0.0
C513 C 0.5337 0.72704 0.54622 0.0
O514 O 0.56265 0.7378 0.55721 0.0
N515 N 0.60105 0.80657 0.40787 0.0
C516 C 0.66322 0.84589 0.38538 0.0
C517 C 0.64346 0.83349 0.32344 0.0
C518 C 0.61244 0.81399 0.33583 0.0
C519 C 0.62001 0.81883 0.46828 0.0
C520 C 0.65077 0.83859 0.45843 0.0
H521 H 0.59827 0.80353 0.28762 0.0
H522 H 0.61163 0.81177 0.52525 0.0
H523 H 0.53426 0.72195 0.31469 0.0
H524 H 0.6186 0.72634 0.33027 0.0
H525 H 0.56054 0.86324 0.54004 0.0
H526 H 0.65204 0.83815 0.26586 0.0
H527 H 0.665 0.84667 0.5081 0.0
C528 C 0.36442 0.8504 0.45951 0.0
C529 C 0.37839 0.87364 0.40838 0.0
N530 N 0.36769 0.86277 0.33889 0.0
N531 N 0.34589 0.8252 0.42127 0.0
C532 C 0.34864 0.83335 0.34824 0.0
H533 H 0.36665 0.85199 0.52061 0.0
Co534 Co 0.31628 0.79035 0.46043 0.0
C535 C 0.2928 0.7426 0.33202 0.0
O536 O 0.26599 0.73273 0.36201 0.0
N537 N 0.28615 0.75561 0.50166 0.0
C538 C 0.25917 0.70942 0.54543 0.0
C539 C 0.28594 0.72943 0.51202 0.0
C540 C 0.25968 0.75112 0.52953 0.0
N541 N 0.24269 0.72321 0.55623 0.0
O542 O 0.34819 0.78493 0.51746 0.0
H543 H 0.30434 0.72545 0.49788 0.0
H544 H 0.25351 0.7684 0.53514 0.0
O545 O 0.31552 0.76583 0.36279 0.0
C546 C 0.34971 0.79092 0.58957 0.0
O547 O 0.32848 0.79547 0.61824 0.0
N548 N 0.2875 0.8008 0.41976 0.0
C549 C 0.25229 0.82827 0.38874 0.0
C550 C 0.25467 0.8089 0.33575 0.0
C551 C 0.2729 0.79581 0.35164 0.0
C552 C 0.28557 0.81991 0.47083 0.0
C553 C 0.26814 0.83362 0.45685 0.0
H554 H 0.27596 0.78285 0.30785 0.0
H555 H 0.29793 0.82465 0.52349 0.0
H556 H 0.33647 0.818 0.30269 0.0
H557 H 0.39476 0.89666 0.4211 0.0
H558 H 0.2535 0.68744 0.56671 0.0
H559 H 0.2435 0.80485 0.28138 0.0
H560 H 0.26729 0.8486 0.49905 0.0
C561 C 0.25488 0.54594 0.44491 0.0
C562 C 0.23103 0.54013 0.39809 0.0
N563 N 0.23921 0.53791 0.32675 0.0
N564 N 0.27771 0.54727 0.40283 0.0
C565 C 0.26768 0.54318 0.33129 0.0
H566 H 0.25468 0.5467 0.50624 0.0
Co567 Co 0.31004 0.54481 0.44175 0.0
C568 C 0.34 0.55914 0.27757 0.0
O569 O 0.31879 0.53349 0.25117 0.0
N570 N 0.34123 0.54214 0.4824 0.0
C571 C 0.38559 0.54823 0.51467 0.0
C572 C 0.37102 0.56067 0.47619 0.0
C573 C 0.33808 0.51892 0.52436 0.0
N574 N 0.36472 0.52176 0.54437 0.0
O575 O 0.32112 0.58294 0.50184 0.0
H576 H 0.38138 0.58217 0.44787 0.0
H577 H 0.31645 0.50059 0.54146 0.0
O578 O 0.33821 0.56653 0.34753 0.0
C579 C 0.31461 0.57853 0.57374 0.0
O580 O 0.30671 0.55177 0.60087 0.0
N581 N 0.29506 0.50504 0.39852 0.0
C582 C 0.26899 0.44261 0.37281 0.0
C583 C 0.25264 0.45488 0.40673 0.0
C584 C 0.26614 0.48567 0.42042 0.0
C585 C 0.31176 0.4935 0.36642 0.0
C586 C 0.29906 0.46244 0.35234 0.0
H587 H 0.25353 0.49365 0.45282 0.0
H588 H 0.33538 0.50803 0.35446 0.0
H589 H 0.28044 0.54322 0.28302 0.0
H590 H 0.20911 0.53636 0.41569 0.0
H591 H 0.40953 0.55907 0.5252 0.0
H592 H 0.22974 0.44055 0.42584 0.0
H593 H 0.31278 0.45405 0.32661 0.0
C594 C 0.25776 0.22304 1.00706 0.0
C595 C 0.23979 0.226 0.95071 0.0
C596 C 0.25724 0.23244 0.08106 0.0
C597 C 0.23883 0.24482 0.09875 0.0
H598 H 0.26767 0.20881 0.99834 0.0
H599 H 0.26627 0.22466 0.1257 0.0
S600 S 0.20444 0.27391 0.96239 0.0
N601 N 0.21522 0.25395 0.9103 0.0
N602 N 0.21542 0.27284 0.04996 0.0
C603 C 0.22924 0.25621 0.03896 0.0
C604 C 0.22917 0.24614 0.96397 0.0
C605 C 0.88198 1.0363 1.0188 0.0
C606 C 0.89377 0.06737 1.02312 0.0
C607 C 0.8825 1.02027 0.08205 0.0
C608 C 0.8952 1.03518 0.15045 0.0
H609 H 0.87499 1.02499 0.96458 0.0
H610 H 0.87586 0.99681 0.07519 0.0
S611 S 0.92411 0.11524 0.19412 0.0
N612 N 0.91467 0.11179 0.10362 0.0
N613 N 0.91534 0.08122 0.22289 0.0
C614 C 0.90386 0.0655 0.15777 0.0
C615 C 0.9032 0.08181 0.09374 0.0
C616 C 0.09823 0.85879 0.05809 0.0
C617 C 0.07597 0.85213 0.1139 0.0
C618 C 0.08982 0.8522 0.98206 0.0
C619 C 1.0594 0.84025 0.96254 0.0
H620 H 0.12166 0.8741 0.07011 0.0
H621 H 0.10702 0.86309 0.939 0.0
S622 S 0.99485 0.79958 0.09329 0.0
N623 N 1.02413 0.81868 0.14908 0.0
N624 N 1.00827 0.80603 1.00574 0.0
C625 C 1.03807 0.8239 1.01932 0.0
C626 C 1.04651 0.83053 0.09651 0.0
C627 C 0.96829 0.92516 0.15564 0.0
C628 C 0.95479 0.94244 0.13506 0.0
C629 C 0.98073 0.91397 0.10028 0.0
C630 C 0.98073 0.91953 1.02107 0.0
H631 H 0.96737 0.91839 0.21425 0.0
H632 H 0.98921 0.89945 0.1198 0.0
S633 S 0.95092 0.96615 0.93723 0.0
N634 N 0.94447 0.96648 1.0291 0.0
N635 N 0.96774 0.94578 0.92712 0.0
C636 C 0.96911 0.93842 1.00048 0.0
C637 C 0.95621 0.94963 0.05662 0.0
C638 C 0.15158 1.03473 0.96596 0.0
C639 C 0.16449 0.06421 0.99451 0.0
C640 C 0.14112 1.0094 1.01495 0.0
C641 C 0.14245 1.01183 0.09549 0.0
H642 H 0.15153 1.03126 0.90529 0.0
H643 H 0.13315 0.98762 0.98899 0.0
S644 S 0.17155 0.08365 0.20018 0.0
N645 N 0.176 0.09387 0.11002 0.0
N646 N 0.15601 0.04673 0.20033 0.0
C647 C 0.15345 0.04099 0.12465 0.0
C648 C 0.16452 0.06685 0.07487 0.0
C649 C 1.05852 0.14208 0.96959 0.0
C650 C 1.0289 0.13067 0.99736 0.0
C651 C 0.08383 0.15409 1.01896 0.0
C652 C 0.08107 0.15476 0.09906 0.0
H653 H 0.06249 0.14425 0.90892 0.0
H654 H 0.10606 0.16491 0.9936 0.0
S655 S 1.00836 0.1255 0.20152 0.0
N656 N 0.99846 0.11944 0.11132 0.0
N657 N 1.0454 0.1409 0.20287 0.0
C658 C 1.05143 0.14142 0.12761 0.0
C659 C 1.0257 0.12975 0.07733 0.0
C660 C 0.92246 0.58851 0.39592 0.0
C661 C 0.92705 0.57274 0.45503 0.0
C662 C 0.92503 0.58168 0.32062 0.0
C663 C 0.93347 0.56002 0.30447 0.0
H664 H 0.91139 0.60155 0.4076 0.0
H665 H 0.91599 0.5897 0.27658 0.0
S666 S 0.96455 0.52688 0.43921 0.0
N667 N 0.95154 0.54445 0.49315 0.0
N668 N 0.95902 0.5336 0.35069 0.0
C669 C 0.94635 0.55123 0.36253 0.0
C670 C 0.94278 0.55743 0.43905 0.0
C671 C 0.59473 0.41694 0.40191 0.0
C672 C 0.61908 0.4129 0.38183 0.0
C673 C 0.58315 0.41035 0.47543 0.0
C674 C 0.59519 0.39841 0.52813 0.0
H675 H 0.58253 0.42168 0.35886 0.0
H676 H 0.56173 0.40929 0.48554 0.0
S677 S 0.66875 0.40115 0.51351 0.0
N678 N 0.66161 0.40815 0.42674 0.0
N679 N 0.64071 0.39809 0.56699 0.0
C680 C 0.62437 0.40331 0.51446 0.0
C681 C 0.63561 0.40874 0.43924 0.0
C682 C 0.74087 0.19998 0.43131 0.0
C683 C 0.72408 0.2041 0.48897 0.0
C684 C 0.72748 0.18761 0.36209 0.0
C685 C 0.69717 0.17904 0.35014 0.0
H686 H 0.76513 0.21065 0.43427 0.0
H687 H 0.74197 0.18938 0.31506 0.0
S688 S 0.64133 0.16981 0.49723 0.0
N689 N 0.67418 0.18763 0.54052 0.0
N690 N 0.64865 0.16351 0.40975 0.0
C691 C 0.67901 0.17572 0.41341 0.0
C692 C 0.69268 0.18855 0.48368 0.0
C693 C 0.62554 0.25 0.39387 0.0
C694 C 0.62798 0.25569 0.3145 0.0
C695 C 0.61346 0.26293 0.44516 0.0
C696 C 0.60238 0.28183 0.41987 0.0
H697 H 0.63145 0.23386 0.41625 0.0
H698 H 0.61059 0.25609 0.50415 0.0
S699 S 0.60512 0.30596 0.21918 0.0
N700 N 0.61988 0.28356 0.21499 0.0
N701 N 0.59681 0.30714 0.30944 0.0
C702 C 0.60617 0.28897 0.34128 0.0
C703 C 0.61899 0.27621 0.28936 0.0
C704 C 0.83157 0.38051 0.30161 0.0
C705 C 0.8509 0.41058 0.32228 0.0
C706 C 0.81854 0.35723 0.35685 0.0
C707 C 0.82367 0.36253 0.43616 0.0
H708 H 0.82832 0.37449 0.24207 0.0
H709 H 0.80553 0.3344 0.33662 0.0
S710 S 0.8704 0.4377 0.5214 0.0
N711 N 0.87279 0.44445 0.42921 0.0
N712 N 0.84817 0.40118 0.53131 0.0
C713 C 0.84127 0.39275 0.45772 0.0
C714 C 0.85486 0.41644 0.4015 0.0
C715 C 0.75461 0.47679 0.27342 0.0
C716 C 0.7254 0.47203 0.28887 0.0
C717 C 0.77731 0.4871 0.33075 0.0
C718 C 0.77177 0.49204 0.40717 0.0
H719 H 0.76073 0.47484 0.21562 0.0
H720 H 0.79997 0.49291 0.31399 0.0
S721 S 0.69942 0.48298 0.47873 0.0
N722 N 0.6928 0.47346 0.38836 0.0
N723 N 0.73444 0.4909 0.49379 0.0
C724 C 0.74232 0.48576 0.42389 0.0
C725 C 0.71957 0.47627 0.3657 0.0
C726 C 0.57884 0.86037 0.6979 0.0
C727 C 0.55816 0.83124 0.67513 0.0
C728 C 0.57891 0.86931 0.77242 0.0
C729 C 0.55787 0.84934 0.8251 0.0
H730 H 0.59376 0.87669 0.65693 0.0
H731 H 0.59281 0.89283 0.78575 0.0
S732 S 0.50429 0.76889 0.79697 0.0
N733 N 0.51974 0.78117 0.71274 0.0
N734 N 0.52117 0.79784 0.85474 0.0
C735 C 0.54067 0.81902 0.80578 0.0
C736 C 0.54008 0.81003 0.72965 0.0
C737 C 0.21508 0.72454 0.74551 0.0
C738 C 0.20142 0.69373 0.76032 0.0
C739 C 0.22425 0.73504 0.67184 0.0
C740 C 0.21975 0.71471 0.61274 0.0
H741 H 0.22367 0.74056 0.79163 0.0
H742 H 0.23927 0.75883 0.6645 0.0
S743 S 0.17047 0.63262 0.61878 0.0
N744 N 0.17231 0.64365 0.70776 0.0
N745 N 0.19063 0.66343 0.56863 0.0
C746 C 0.1992 0.68438 0.62432 0.0
C747 C 0.18945 0.67379 0.69903 0.0
C748 C 0.35021 0.49819 0.66944 0.0
C749 C 0.36954 0.5064 0.60595 0.0
C750 C 0.36126 0.49856 0.74187 0.0
C751 C 0.39163 0.50714 0.75138 0.0
H752 H 0.32814 0.49615 0.66535 0.0
H753 H 0.34755 0.49718 0.79042 0.0
S754 S 0.44607 0.51566 0.6014 0.0
N755 N 0.41628 0.51185 0.55506 0.0
N756 N 0.43722 0.51292 0.69248 0.0
C757 C 0.40859 0.50802 0.68779 0.0
C758 C 0.3974 0.5076 0.61411 0.0
C759 C 0.3035 0.61107 0.76161 0.0
C760 C 0.2879 0.62626 0.74027 0.0
C761 C 0.3144 0.59819 0.70678 0.0
C762 C 0.31071 0.59995 0.62726 0.0
H763 H 0.30507 0.60681 0.82118 0.0
H764 H 0.32431 0.58505 0.72736 0.0
S765 S 0.2735 0.63925 0.54039 0.0
N766 N 0.27099 0.64369 0.63257 0.0
N767 N 0.29175 0.62021 0.53129 0.0
C768 C 0.29703 0.61687 0.60517 0.0
C769 C 0.28559 0.62967 0.66093 0.0
C770 C 0.4885 0.67637 0.5883 0.0
C771 C 0.5127 0.70498 0.60635 0.0
C772 C 0.4746 0.65325 0.64428 0.0
C773 C 0.48332 0.65767 0.72189 0.0
H774 H 0.4818 0.67096 0.52958 0.0
H775 H 0.45798 0.63108 0.62561 0.0
S776 S 0.54536 0.72811 0.8 0.0
N777 N 0.54451 0.73582 0.70932 0.0
N778 N 0.51787 0.69341 0.81227 0.0
C779 C 0.50637 0.68655 0.74098 0.0
C780 C 0.52103 0.70975 0.68418 0.0
C781 C 0.43014 0.82781 0.67291 0.0
C782 C 0.42555 0.8227 0.75248 0.0
C783 C 0.4062 0.81527 0.6193 0.0
C784 C 0.37601 0.79712 0.64203 0.0
H785 H 0.45251 0.84296 0.65178 0.0
H786 H 0.41123 0.82164 0.5602 0.0
S787 S 0.35114 0.77455 0.84203 0.0
N788 N 0.38793 0.79613 0.84935 0.0
N789 N 0.34338 0.77315 0.75062 0.0
C790 C 0.37128 0.79058 0.72095 0.0
C791 C 0.39573 0.80305 0.77532 0.0
C792 C 0.22522 0.3938 0.32956 0.0
C793 C 0.25424 0.40924 0.36126 0.0
C794 C 0.20974 0.36242 0.32209 0.0
C795 C 0.22231 0.34471 0.34656 0.0
H796 H 0.21428 0.40614 0.31015 0.0
H797 H 0.18747 0.35187 0.29733 0.0
S798 S 0.29761 0.37379 0.4341 0.0
N799 N 0.29488 0.40418 0.41804 0.0
N800 N 0.26588 0.34524 0.40351 0.0
C801 C 0.2513 0.35977 0.37857 0.0
C802 C 0.26724 0.39192 0.3857 0.0
C803 C 0.74379 0.86895 0.32286 0.0
C804 C 0.76184 0.89566 0.36364 0.0
C805 C 0.71213 0.85366 0.32828 0.0
C806 C 0.69682 0.86413 0.37518 0.0
H807 H 0.75421 0.85933 0.28726 0.0
H808 H 0.69957 0.83294 0.29703 0.0
S809 S 0.73276 0.93409 0.48935 0.0
N810 N 0.76136 0.93273 0.44916 0.0
N811 N 0.7022 0.90386 0.46023 0.0
C812 C 0.71445 0.89101 0.41539 0.0
C813 C 0.74673 0.9067 0.40954 0.0
C814 C 0.20353 0.82906 0.36506 0.0
C815 C 0.23509 0.84453 0.37276 0.0
C816 C 0.18714 0.84459 0.35592 0.0
C817 C 0.20171 0.87621 0.35287 0.0
H818 H 0.19137 0.8048 0.36743 0.0
H819 H 0.16294 0.83174 0.34996 0.0
S820 S 0.28404 0.92713 0.37041 0.0
N821 N 0.28012 0.89321 0.37704 0.0
N822 N 0.24977 0.9222 0.35934 0.0
C823 C 0.23329 0.89178 0.36029 0.0
C824 C 0.24981 0.87604 0.37035 0.0
C825 C 0.39515 0.23597 0.66962 0.0
C826 C 0.41412 0.22634 0.70291 0.0
C827 C 0.36374 0.22032 0.68107 0.0
C828 C 0.34982 0.19424 0.72611 0.0
H829 H 0.40473 0.25594 0.6346 0.0
H830 H 0.35032 0.22903 0.6554 0.0
S831 S 0.3889 0.15772 0.81921 0.0
N832 N 0.41628 0.1879 0.77875 0.0
N833 N 0.35758 0.15832 0.79947 0.0
C834 C 0.36851 0.18401 0.75828 0.0
C835 C 0.40048 0.20008 0.74702 0.0
C836 C 0.87624 0.17938 0.72748 0.0
C837 C 0.90514 0.19048 0.69505 0.0
C838 C 0.85997 0.19509 0.72118 0.0
C839 C 0.87169 0.22244 0.68132 0.0
H840 H 0.86629 0.15859 0.75929 0.0
H841 H 0.83785 0.18552 0.74684 0.0
S842 S 0.94636 0.26141 0.58606 0.0
N843 N 0.94452 0.23065 0.62113 0.0
N844 N 0.91449 0.26017 0.61035 0.0
C845 C 0.90058 0.23376 0.64879 0.0
C846 C 0.91711 0.21786 0.65539 0.0
C847 C 0.91116 0.72733 0.66481 0.0
C848 C 0.93087 0.73921 0.72671 0.0
C849 C 0.89533 0.69626 0.65069 0.0
C850 C 0.89871 0.67562 0.69728 0.0
H851 H 0.90736 0.7421 0.62807 0.0
H852 H 0.87992 0.68835 0.60323 0.0
S853 S 0.94971 0.69577 0.86327 0.0
N854 N 0.95395 0.72818 0.83324 0.0
N855 N 0.92501 0.67009 0.80568 0.0
C856 C 0.91888 0.68741 0.75859 0.0
C857 C 0.93475 0.71903 0.77338 0.0
C858 C 0.08704 0.58435 0.05007 0.0
C859 C 0.10191 0.5698 1.01885 0.0
C860 C 1.05557 0.56918 0.06025 0.0
C861 C 1.03757 0.53879 0.03962 0.0
H862 H 0.09974 0.60784 0.06525 0.0
H863 H 1.04519 0.58146 0.08392 0.0
S864 S 0.06581 0.48955 0.96327 0.0
N865 N 0.09631 0.52255 0.97262 0.0
N866 N 1.03753 0.49425 0.99164 0.0
C867 C 1.05227 0.52384 1.00994 0.0
C868 C 0.08426 0.53924 0.99974 0.0
C869 C 0.54807 0.51905 0.96026 0.0
C870 C 0.53319 0.52547 1.0191 0.0
C871 C 0.5647 0.50426 0.97437 0.0
C872 C 0.56736 0.49518 0.04808 0.0
H873 H 0.5474 0.52609 0.90267 0.0
H874 H 0.57627 0.50064 0.92731 0.0
S875 S 0.53054 0.50391 0.22124 0.0
N876 N 0.5208 0.51973 0.15346 0.0
N877 N 0.5519 0.49203 0.18003 0.0
C878 C 0.55206 0.50084 0.10722 0.0
C879 C 0.53512 0.51594 0.09281 0.0
C880 C 0.5852 0.05013 0.09284 0.0
C881 C 0.57715 0.06937 0.05445 0.0
C882 C 0.5682 1.0187 0.0856 0.0
C883 C 0.54231 1.00509 0.03986 0.0
H884 H 0.60506 0.0595 0.12827 0.0
H885 H 0.5758 1.00498 0.11465 0.0
S886 S 0.50946 0.04506 0.9346 0.0
N887 N 0.54014 0.07218 0.97367 0.0
N888 N 0.50818 1.01344 0.96045 0.0
C889 C 0.53355 1.02406 1.00297 0.0
C890 C 0.55093 0.05602 1.01004 0.0
C891 C 0.14462 0.17165 0.57384 0.0
C892 C 0.15162 0.17121 0.49594 0.0
C893 C 0.15683 0.16191 0.63256 0.0
C894 C 0.17654 0.15051 0.61784 0.0
H895 H 0.13038 0.18088 0.59062 0.0
H896 H 0.15198 0.16487 0.69087 0.0
S897 S 0.20127 0.14217 0.42492 0.0
N898 N 0.17875 0.15622 0.40828 0.0
N899 N 0.20183 0.13857 0.51807 0.0
C900 C 0.18287 0.14866 0.54033 0.0
C901 C 0.17036 0.15861 0.47997 0.0
C902 C 0.95252 1.02416 0.63435 0.0
C903 C 0.94995 0.0503 0.64753 0.0
C904 C 0.94143 1.0063 0.5671 0.0
C905 C 0.92749 1.01378 0.50822 0.0
H906 H 0.96311 1.01721 0.67692 0.0
H907 H 0.94351 0.98631 0.56182 0.0
S908 S 0.91833 0.08197 0.509 0.0
N909 N 0.93388 0.0833 0.59181 0.0
N910 N 0.91434 0.05141 0.467 0.0
C911 C 0.92576 0.04048 0.52005 0.0
C912 C 0.93653 0.05817 0.58868 0.0
C913 C 0.09246 0.93124 0.53866 0.0
C914 C 0.07554 0.92559 0.47159 0.0
C915 C 0.07855 0.92389 0.61151 0.0
C916 C 1.04697 0.91082 0.62199 0.0
H917 H 0.11641 0.93932 0.5347 0.0
H918 H 0.09266 0.92694 0.66025 0.0
S919 S 0.99233 0.89291 0.46543 0.0
N920 N 1.02516 0.90708 0.42146 0.0
N921 N 0.9996 0.89403 0.55709 0.0
C922 C 1.03001 0.90669 0.55571 0.0
C923 C 1.04409 0.91375 0.48134 0.0
C924 C 0.90258 0.84352 0.58891 0.0
C925 C 0.89616 0.85575 0.65326 0.0
C926 C 0.89393 0.84743 0.51663 0.0
C927 C 0.87863 0.86365 0.50711 0.0
H928 H 0.91639 0.83292 0.59396 0.0
H929 H 0.90188 0.84046 0.46774 0.0
S930 S 0.85033 0.89378 0.65832 0.0
N931 N 0.86927 0.88019 0.70392 0.0
N932 N 0.85218 0.88671 0.56757 0.0
C933 C 0.86861 0.87238 0.57158 0.0
C934 C 0.87759 0.86862 0.64511 0.0
C935 C 0.23355 1.0334 0.51951 0.0
C936 C 0.2051 1.02049 0.48564 0.0
C937 C 0.23734 0.04363 0.5946 0.0
C938 C 0.21272 0.04115 0.63638 0.0
H939 H 0.25279 1.03589 0.48743 0.0
H940 H 0.25969 0.05491 0.61877 0.0
S941 S 0.13392 1.00885 0.57276 0.0
N942 N 0.15216 1.0058 0.49875 0.0
N943 N 0.15926 1.02416 0.64043 0.0
C944 C 0.18415 1.02735 0.60366 0.0
C945 C 0.18034 1.01733 0.52782 0.0
C946 C 1.05169 0.20154 0.55073 0.0
C947 C 1.03772 0.17113 0.57012 0.0
C948 C 1.05704 0.2103 0.47501 0.0
C949 C 1.04901 0.18882 0.41711 0.0
H950 H 1.05916 0.21858 0.59442 0.0
H951 H 0.07019 0.23399 0.46229 0.0
S952 S 1.00798 0.10636 0.43895 0.0
N953 N 1.01267 0.11944 0.52651 0.0
N954 N 1.02335 0.13616 0.38324 0.0
C955 C 1.03263 0.15836 0.43572 0.0
C956 C 1.02704 0.14942 0.51268 0.0
C957 C 0.82441 0.49813 0.89338 0.0
C958 C 0.82866 0.4985 0.81343 0.0
C959 C 0.83959 0.48893 0.94545 0.0
C960 C 0.85987 0.47943 0.92072 0.0
H961 H 0.81022 0.50643 0.91674 0.0
H962 H 0.83696 0.49129 1.00569 0.0
S963 S 0.87656 0.47201 0.71865 0.0
N964 N 0.85254 0.48482 0.7134 0.0
N965 N 0.88148 0.46874 0.81007 0.0
C966 C 0.86302 0.47802 0.84115 0.0
C967 C 0.84737 0.4871 0.78812 0.0
C968 C 0.60416 0.34594 0.94711 0.0
C969 C 0.6207 0.37775 0.94414 0.0
C970 C 0.5904 0.32792 0.88198 0.0
C971 C 0.59219 0.34067 0.8099 0.0
H972 H 0.60028 0.33481 1.00158 0.0
H973 H 0.5764 0.30395 0.88941 0.0
S974 S 0.63238 0.42233 0.76857 0.0
N975 N 0.63814 0.42063 0.86025 0.0
N976 N 0.61229 0.38728 0.73973 0.0
C977 C 0.60956 0.37225 0.8054 0.0
C978 C 0.62383 0.39058 0.87151 0.0
C979 C 0.69793 0.2512 0.86551 0.0
C980 C 0.70683 0.24887 0.93998 0.0
C981 C 0.71887 0.26366 0.8047 0.0
C982 C 0.75006 0.27463 0.8144 0.0
H983 H 0.67418 0.24091 0.85253 0.0
H984 H 0.71016 0.26232 0.74796 0.0
S985 S 0.78573 0.27446 0.99758 0.0
N986 N 0.74967 0.25953 1.01938 0.0
N987 N 0.7886 0.28281 0.90623 0.0
C988 C 0.75948 0.2739 0.88928 0.0
C989 C 0.7381 0.26113 0.95135 0.0
C990 C 0.59346 0.21764 0.85725 0.0
C991 C 0.57142 0.20212 0.9132 0.0
C992 C 0.58575 0.21742 0.78173 0.0
C993 C 0.55561 0.20302 0.75921 0.0
H994 H 0.61688 0.23151 0.8717 0.0
H995 H 0.6033 0.23113 0.74161 0.0
S996 S 0.48941 0.15504 0.87897 0.0
N997 N 0.51829 0.16749 0.93741 0.0
N998 N 0.50364 0.16985 0.7954 0.0
C999 C 0.53337 0.18555 0.8125 0.0
C1000 C 0.54129 0.18478 0.88972 0.0
C1001 C 0.89045 0.35556 0.95161 0.0
C1002 C 0.91041 0.386 0.96307 0.0
C1003 C 0.88471 0.34372 0.87828 0.0
C1004 C 0.89838 0.36224 0.81469 0.0
H1005 H 0.87752 0.34155 0.99875 0.0
H1006 H 0.86773 0.32048 0.87073 0.0
S1007 S 0.95665 0.44235 0.8185 0.0
N1008 N 0.94764 0.43324 0.90846 0.0
N1009 N 0.93585 0.41146 0.7695 0.0
C1010 C 0.92077 0.39198 0.82664 0.0
C1011 C 0.92691 0.40381 0.90144 0.0
C1012 C 0.70009 0.49479 0.81691 0.0
C1013 C 0.70501 0.51778 0.86817 0.0
C1014 C 0.71045 0.5013 0.74234 0.0
C1015 C 0.72677 0.53108 0.71725 0.0
H1016 H 0.69076 0.47191 0.83627 0.0
H1017 H 0.70856 0.48325 0.70645 0.0
S1018 S 0.73982 0.59876 0.82509 0.0
N1019 N 0.72192 0.57075 0.88523 0.0
N1020 N 0.7431 0.58345 0.74564 0.0
C1021 C 0.72885 0.55401 0.76534 0.0
C1022 C 0.71779 0.54725 0.8411 0.0
C1023 C 0.51603 0.78939 0.15327 0.0
C1024 C 0.51988 0.79343 0.23322 0.0
C1025 C 0.50578 0.80542 0.1073 0.0
C1026 C 0.49858 0.82659 0.13802 0.0
H1027 H 0.52224 0.77447 0.12468 0.0
H1028 H 0.50544 0.80261 0.04627 0.0
S1029 S 0.50162 0.84447 0.34356 0.0
N1030 N 0.5125 0.81892 0.34065 0.0
N1031 N 0.49479 0.84966 0.25481 0.0
C1032 C 0.501 0.83 0.21792 0.0
C1033 C 0.511 0.81329 0.2651 0.0
C1034 C 0.30988 0.7414 0.19448 0.0
C1035 C 0.29421 0.72628 0.26075 0.0
C1036 C 0.30577 0.72609 0.12399 0.0
C1037 C 0.28572 0.69478 0.11538 0.0
H1038 H 0.3243 0.76549 0.19597 0.0
H1039 H 0.31779 0.73933 0.07494 0.0
S1040 S 0.24197 0.64404 0.27366 0.0
N1041 N 0.25966 0.67743 0.3138 0.0
N1042 N 0.25218 0.64925 0.18347 0.0
C1043 C 0.27107 0.67932 0.18223 0.0
C1044 C 0.27524 0.69484 0.25375 0.0
C1045 C 0.3969 0.58754 0.2531 0.0
C1046 C 0.36733 0.57622 0.22601 0.0
C1047 C 0.42168 0.59594 0.2029 0.0
C1048 C 0.41855 0.59396 0.1226 0.0
H1049 H 0.40074 0.58791 0.31357 0.0
H1050 H 0.44348 0.60273 0.22773 0.0
S1051 S 0.34644 0.56881 1.02146 0.0
N1052 N 0.33696 0.5658 0.11211 0.0
N1053 N 0.38316 0.58186 1.01943 0.0
C1054 C 0.38945 0.58469 0.09479 0.0
C1055 C 0.36412 0.57575 0.14583 0.0
C1056 C 0.22983 0.5184 0.19686 0.0
C1057 C 0.22268 0.53195 0.25727 0.0
C1058 C 0.22499 0.52347 0.12175 0.0
C1059 C 0.21217 0.54153 0.10577 0.0
H1060 H 0.2423 0.50668 0.20729 0.0
H1061 H 0.23454 0.51636 0.07661 0.0
S1062 S 0.17742 0.57038 0.24315 0.0
N1063 N 0.19421 0.5564 0.29633 0.0
N1064 N 0.18328 0.56414 0.15438 0.0
C1065 C 0.19924 0.54962 0.16546 0.0
C1066 C 0.20487 0.5452 0.24194 0.0
C1067 C 0.54172 0.67539 0.22099 0.0
C1068 C 0.56805 0.70251 0.23253 0.0
C1069 C 0.53338 0.66383 0.14817 0.0
C1070 C 0.5509 0.67943 0.08459 0.0
H1071 H 0.52718 0.66359 0.26851 0.0
H1072 H 0.51279 0.64276 0.14158 0.0
S1073 S 0.62192 0.75161 0.0861 0.0
N1074 N 0.61192 0.74474 0.17635 0.0
N1075 N 0.59591 0.72291 0.03797 0.0
C1076 C 0.57776 0.70619 0.09574 0.0
C1077 C 0.5864 0.71785 0.17024 0.0
C1078 C 0.40876 0.89386 0.25297 0.0
C1079 C 0.3778 0.87718 0.26699 0.0
C1080 C 0.41973 0.89726 0.17897 0.0
C1081 C 0.39997 0.88403 0.11763 0.0
H1082 H 0.42461 0.90114 0.2995 0.0
H1083 H 0.44381 0.90777 0.17031 0.0
S1084 S 0.31694 0.84647 0.124 0.0
N1085 N 0.32749 0.85414 0.21354 0.0
N1086 N 0.3483 0.85961 0.07379 0.0
C1087 C 0.36904 0.87154 0.12997 0.0
C1088 C 0.35787 0.86836 0.20526 0.0
loop_
_geom_bond_atom_site_label_1
_geom_bond_atom_site_label_2
_geom_bond_distance
_geom_bond_site_symmetry_2
_ccdc_geom_bond_type
C0 C1 1.351 . S
C0 N3 1.368 . S
C0 H5 0.931 . S
C1 C0 1.351 . S
C1 N2 1.373 . S
C1 H29 0.930 . S
N2 C1 1.373 . S
N2 C4 1.340 . S
N3 C0 1.368 . S
N3 C4 1.321 . S
N3 Co6 2.135 . S
C4 N2 1.340 . S
C4 N3 1.321 . S
C4 H28 0.930 . S
H5 C0 0.931 . S
Co6 N3 2.135 . S
Co6 N9 2.121 . S
Co6 O14 2.055 . S
Co6 O17 2.039 . S
Co6 N20 2.140 . S
C7 O8 1.227 . S
C7 O17 1.265 . S
O8 C7 1.227 . S
N9 Co6 2.121 . S
N9 C11 1.375 . S
N9 C12 1.313 . S
C10 C11 1.338 . S
C10 N13 1.377 . S
C10 H30 0.930 . S
C11 N9 1.375 . S
C11 C10 1.338 . S
C11 H15 0.931 . S
C12 N9 1.313 . S
C12 N13 1.344 . S
C12 H16 0.930 . S
N13 C10 1.377 . S
N13 C12 1.344 . S
O14 Co6 2.055 . S
O14 C18 1.253 . S
H15 C11 0.931 . S
H16 C12 0.930 . S
O17 Co6 2.039 . S
O17 C7 1.265 . S
C18 O14 1.253 . S
C18 O19 1.227 . S
O19 C18 1.227 . S
N20 Co6 2.140 . S
N20 C23 1.346 . S
N20 C24 1.345 . S
C21 C22 1.387 . S
C21 C25 1.391 . S
C22 C21 1.387 . S
C22 C23 1.369 . S
C22 H31 0.929 . S
C23 N20 1.346 . S
C23 C22 1.369 . S
C23 H26 0.928 . S
C24 N20 1.345 . S
C24 C25 1.371 . S
C24 H27 0.931 . S
C25 C21 1.391 . S
C25 C24 1.371 . S
C25 H32 0.930 . S
H26 C23 0.928 . S
H27 C24 0.931 . S
H28 C4 0.930 . S
H29 C1 0.930 . S
H30 C10 0.930 . S
H31 C22 0.929 . S
H32 C25 0.930 . S
C33 C34 1.351 . S
C33 N36 1.368 . S
C33 H38 0.931 . S
C34 C33 1.351 . S
C34 N35 1.373 . S
C34 H62 0.930 . S
N35 C34 1.373 . S
N35 C37 1.340 . S
N36 C33 1.368 . S
N36 C37 1.321 . S
N36 Co39 2.135 . S
C37 N35 1.340 . S
C37 N36 1.321 . S
C37 H61 0.930 . S
H38 C33 0.931 . S
Co39 N36 2.135 . S
Co39 N42 2.121 . S
Co39 O47 2.055 . S
Co39 O50 2.039 . S
Co39 N53 2.140 . S
C40 O41 1.227 . S
C40 O50 1.265 . S
O41 C40 1.227 . S
N42 Co39 2.121 . S
N42 C44 1.375 . S
N42 C45 1.313 . S
C43 C44 1.338 . S
C43 N46 1.377 . S
C43 H63 0.930 . S
C44 N42 1.375 . S
C44 C43 1.338 . S
C44 H48 0.931 . S
C45 N42 1.313 . S
C45 N46 1.344 . S
C45 H49 0.930 . S
N46 C43 1.377 . S
N46 C45 1.344 . S
O47 Co39 2.055 . S
O47 C51 1.253 . S
H48 C44 0.931 . S
H49 C45 0.930 . S
O50 Co39 2.039 . S
O50 C40 1.265 . S
C51 O47 1.253 . S
C51 O52 1.227 . S
O52 C51 1.227 . S
N53 Co39 2.140 . S
N53 C56 1.346 . S
N53 C57 1.345 . S
C54 C55 1.387 . S
C54 C58 1.391 . S
C55 C54 1.387 . S
C55 C56 1.369 . S
C55 H64 0.929 . S
C56 N53 1.346 . S
C56 C55 1.369 . S
C56 H59 0.928 . S
C57 N53 1.345 . S
C57 C58 1.371 . S
C57 H60 0.931 . S
C58 C54 1.391 . S
C58 C57 1.371 . S
C58 H65 0.930 . S
H59 C56 0.928 . S
H60 C57 0.931 . S
H61 C37 0.930 . S
H62 C34 0.930 . S
H63 C43 0.930 . S
H64 C55 0.929 . S
H65 C58 0.930 . S
C66 C67 1.351 . S
C66 N69 1.368 . S
C66 H71 0.931 . S
C67 C66 1.351 . S
C67 N68 1.373 . S
C67 H95 0.930 . S
N68 C67 1.373 . S
N68 C70 1.340 . S
N69 C66 1.368 . S
N69 C70 1.321 . S
N69 Co72 2.135 . S
C70 N68 1.340 . S
C70 N69 1.321 . S
C70 H94 0.930 . S
H71 C66 0.931 . S
Co72 N69 2.135 . S
Co72 N75 2.121 . S
Co72 O80 2.055 . S
Co72 O83 2.039 . S
Co72 N86 2.140 . S
C73 O74 1.227 . S
C73 O83 1.265 . S
O74 C73 1.227 . S
N75 Co72 2.121 . S
N75 C77 1.375 . S
N75 C78 1.313 . S
C76 C77 1.338 . S
C76 N79 1.377 . S
C76 H96 0.930 . S
C77 N75 1.375 . S
C77 C76 1.338 . S
C77 H81 0.931 . S
C78 N75 1.313 . S
C78 N79 1.344 . S
C78 H82 0.930 . S
N79 C76 1.377 . S
N79 C78 1.344 . S
O80 Co72 2.055 . S
O80 C84 1.253 . S
H81 C77 0.931 . S
H82 C78 0.930 . S
O83 Co72 2.039 . S
O83 C73 1.265 . S
C84 O80 1.253 . S
C84 O85 1.227 . S
O85 C84 1.227 . S
N86 Co72 2.140 . S
N86 C89 1.346 . S
N86 C90 1.345 . S
C87 C88 1.387 . S
C87 C91 1.391 . S
C88 C87 1.387 . S
C88 C89 1.369 . S
C88 H97 0.929 . S
C89 N86 1.346 . S
C89 C88 1.369 . S
C89 H92 0.928 . S
C90 N86 1.345 . S
C90 C91 1.371 . S
C90 H93 0.931 . S
C91 C87 1.391 . S
C91 C90 1.371 . S
C91 H98 0.930 . S
H92 C89 0.928 . S
H93 C90 0.931 . S
H94 C70 0.930 . S
H95 C67 0.930 . S
H96 C76 0.930 . S
H97 C88 0.929 . S
H98 C91 0.930 . S
C99 C100 1.351 . S
C99 N102 1.368 . S
C99 H104 0.931 . S
C100 C99 1.351 . S
C100 N101 1.373 . S
C100 H128 0.930 . S
N101 C100 1.373 . S
N101 C103 1.340 . S
N102 C99 1.368 . S
N102 C103 1.321 . S
N102 Co105 2.135 . S
C103 N101 1.340 . S
C103 N102 1.321 . S
C103 H127 0.930 . S
H104 C99 0.931 . S
Co105 N102 2.135 . S
Co105 N108 2.121 . S
Co105 O113 2.055 . S
Co105 O116 2.039 . S
Co105 N119 2.140 . S
C106 O107 1.227 . S
C106 O116 1.265 . S
O107 C106 1.227 . S
N108 Co105 2.121 . S
N108 C110 1.375 . S
N108 C111 1.313 . S
C109 C110 1.338 . S
C109 N112 1.377 . S
C109 H129 0.930 . S
C110 N108 1.375 . S
C110 C109 1.338 . S
C110 H114 0.931 . S
C111 N108 1.313 . S
C111 N112 1.344 . S
C111 H115 0.930 . S
N112 C109 1.377 . S
N112 C111 1.344 . S
O113 Co105 2.055 . S
O113 C117 1.253 . S
H114 C110 0.931 . S
H115 C111 0.930 . S
O116 Co105 2.039 . S
O116 C106 1.265 . S
C117 O113 1.253 . S
C117 O118 1.227 . S
O118 C117 1.227 . S
N119 Co105 2.140 . S
N119 C122 1.346 . S
N119 C123 1.345 . S
C120 C121 1.387 . S
C120 C124 1.391 . S
C121 C120 1.387 . S
C121 C122 1.369 . S
C121 H130 0.929 . S
C122 N119 1.346 . S
C122 C121 1.369 . S
C122 H125 0.928 . S
C123 N119 1.345 . S
C123 C124 1.371 . S
C123 H126 0.931 . S
C124 C120 1.391 . S
C124 C123 1.371 . S
C124 H131 0.930 . S
H125 C122 0.928 . S
H126 C123 0.931 . S
H127 C103 0.930 . S
H128 C100 0.930 . S
H129 C109 0.930 . S
H130 C121 0.929 . S
H131 C124 0.930 . S
C132 C133 1.351 . S
C132 N135 1.368 . S
C132 H137 0.931 . S
C133 C132 1.351 . S
C133 N134 1.373 . S
C133 H161 0.930 . S
N134 C133 1.373 . S
N134 C136 1.340 . S
N135 C132 1.368 . S
N135 C136 1.321 . S
N135 Co138 2.135 . S
C136 N134 1.340 . S
C136 N135 1.321 . S
C136 H160 0.930 . S
H137 C132 0.931 . S
Co138 N135 2.135 . S
Co138 N141 2.121 . S
Co138 O146 2.055 . S
Co138 O149 2.039 . S
Co138 N152 2.140 . S
C139 O140 1.227 . S
C139 O149 1.265 . S
O140 C139 1.227 . S
N141 Co138 2.121 . S
N141 C143 1.375 . S
N141 C144 1.313 . S
C142 C143 1.338 . S
C142 N145 1.377 . S
C142 H162 0.930 . S
C143 N141 1.375 . S
C143 C142 1.338 . S
C143 H147 0.931 . S
C144 N141 1.313 . S
C144 N145 1.344 . S
C144 H148 0.930 . S
N145 C142 1.377 . S
N145 C144 1.344 . S
O146 Co138 2.055 . S
O146 C150 1.253 . S
H147 C143 0.931 . S
H148 C144 0.930 . S
O149 Co138 2.039 . S
O149 C139 1.265 . S
C150 O146 1.253 . S
C150 O151 1.227 . S
O151 C150 1.227 . S
N152 Co138 2.140 . S
N152 C155 1.346 . S
N152 C156 1.345 . S
C153 C154 1.387 . S
C153 C157 1.391 . S
C154 C153 1.387 . S
C154 C155 1.369 . S
C154 H163 0.929 . S
C155 N152 1.346 . S
C155 C154 1.369 . S
C155 H158 0.928 . S
C156 N152 1.345 . S
C156 C157 1.371 . S
C156 H159 0.931 . S
C157 C153 1.391 . S
C157 C156 1.371 . S
C157 H164 0.930 . S
H158 C155 0.928 . S
H159 C156 0.931 . S
H160 C136 0.930 . S
H161 C133 0.930 . S
H162 C142 0.930 . S
H163 C154 0.929 . S
H164 C157 0.930 . S
C165 C166 1.351 . S
C165 N168 1.368 . S
C165 H170 0.931 . S
C166 C165 1.351 . S
C166 N167 1.373 . S
C166 H194 0.930 . S
N167 C166 1.373 . S
N167 C169 1.340 . S
N168 C165 1.368 . S
N168 C169 1.321 . S
N168 Co171 2.135 . S
C169 N167 1.340 . S
C169 N168 1.321 . S
C169 H193 0.930 . S
H170 C165 0.931 . S
Co171 N168 2.135 . S
Co171 N174 2.121 . S
Co171 O179 2.055 . S
Co171 O182 2.039 . S
Co171 N185 2.140 . S
C172 O173 1.227 . S
C172 O182 1.265 . S
O173 C172 1.227 . S
N174 Co171 2.121 . S
N174 C176 1.375 . S
N174 C177 1.313 . S
C175 C176 1.338 . S
C175 N178 1.377 . S
C175 H195 0.930 . S
C176 N174 1.375 . S
C176 C175 1.338 . S
C176 H180 0.931 . S
C177 N174 1.313 . S
C177 N178 1.344 . S
C177 H181 0.930 . S
N178 C175 1.377 . S
N178 C177 1.344 . S
O179 Co171 2.055 . S
O179 C183 1.253 . S
H180 C176 0.931 . S
H181 C177 0.930 . S
O182 Co171 2.039 . S
O182 C172 1.265 . S
C183 O179 1.253 . S
C183 O184 1.227 . S
O184 C183 1.227 . S
N185 Co171 2.140 . S
N185 C188 1.346 . S
N185 C189 1.345 . S
C186 C187 1.387 . S
C186 C190 1.391 . S
C187 C186 1.387 . S
C187 C188 1.369 . S
C187 H196 0.929 . S
C188 N185 1.346 . S
C188 C187 1.369 . S
C188 H191 0.928 . S
C189 N185 1.345 . S
C189 C190 1.371 . S
C189 H192 0.931 . S
C190 C186 1.391 . S
C190 C189 1.371 . S
C190 H197 0.930 . S
H191 C188 0.928 . S
H192 C189 0.931 . S
H193 C169 0.930 . S
H194 C166 0.930 . S
H195 C175 0.930 . S
H196 C187 0.929 . S
H197 C190 0.930 . S
C198 C199 1.351 . S
C198 N201 1.368 . S
C198 H203 0.931 . S
C199 C198 1.351 . S
C199 N200 1.373 . S
C199 H227 0.930 . S
N200 C199 1.373 . S
N200 C202 1.340 . S
N201 C198 1.368 . S
N201 C202 1.321 . S
N201 Co204 2.135 . S
C202 N200 1.340 . S
C202 N201 1.321 . S
C202 H226 0.930 . S
H203 C198 0.931 . S
Co204 N201 2.135 . S
Co204 N207 2.121 . S
Co204 O212 2.055 . S
Co204 O215 2.039 . S
Co204 N218 2.140 . S
C205 O206 1.227 . S
C205 O215 1.265 . S
O206 C205 1.227 . S
N207 Co204 2.121 . S
N207 C209 1.375 . S
N207 C210 1.313 . S
C208 C209 1.338 . S
C208 N211 1.377 . S
C208 H228 0.930 . S
C209 N207 1.375 . S
C209 C208 1.338 . S
C209 H213 0.931 . S
C210 N207 1.313 . S
C210 N211 1.344 . S
C210 H214 0.930 . S
N211 C208 1.377 . S
N211 C210 1.344 . S
O212 Co204 2.055 . S
O212 C216 1.253 . S
H213 C209 0.931 . S
H214 C210 0.930 . S
O215 Co204 2.039 . S
O215 C205 1.265 . S
C216 O212 1.253 . S
C216 O217 1.227 . S
O217 C216 1.227 . S
N218 Co204 2.140 . S
N218 C221 1.346 . S
N218 C222 1.345 . S
C219 C220 1.387 . S
C219 C223 1.391 . S
C220 C219 1.387 . S
C220 C221 1.369 . S
C220 H229 0.929 . S
C221 N218 1.346 . S
C221 C220 1.369 . S
C221 H224 0.928 . S
C222 N218 1.345 . S
C222 C223 1.371 . S
C222 H225 0.931 . S
C223 C219 1.391 . S
C223 C222 1.371 . S
C223 H230 0.930 . S
H224 C221 0.928 . S
H225 C222 0.931 . S
H226 C202 0.930 . S
H227 C199 0.930 . S
H228 C208 0.930 . S
H229 C220 0.929 . S
H230 C223 0.930 . S
C231 C232 1.351 . S
C231 N234 1.368 . S
C231 H236 0.931 . S
C232 C231 1.351 . S
C232 N233 1.373 . S
C232 H260 0.930 . S
N233 C232 1.373 . S
N233 C235 1.340 . S
N234 C231 1.368 . S
N234 C235 1.321 . S
N234 Co237 2.135 . S
C235 N233 1.340 . S
C235 N234 1.321 . S
C235 H259 0.930 . S
H236 C231 0.931 . S
Co237 N234 2.135 . S
Co237 N240 2.121 . S
Co237 O245 2.055 . S
Co237 O248 2.039 . S
Co237 N251 2.140 . S
C238 O239 1.227 . S
C238 O248 1.265 . S
O239 C238 1.227 . S
N240 Co237 2.121 . S
N240 C242 1.375 . S
N240 C243 1.313 . S
C241 C242 1.338 . S
C241 N244 1.377 . S
C241 H261 0.930 . S
C242 N240 1.375 . S
C242 C241 1.338 . S
C242 H246 0.931 . S
C243 N240 1.313 . S
C243 N244 1.344 . S
C243 H247 0.930 . S
N244 C241 1.377 . S
N244 C243 1.344 . S
O245 Co237 2.055 . S
O245 C249 1.253 . S
H246 C242 0.931 . S
H247 C243 0.930 . S
O248 Co237 2.039 . S
O248 C238 1.265 . S
C249 O245 1.253 . S
C249 O250 1.227 . S
O250 C249 1.227 . S
N251 Co237 2.140 . S
N251 C254 1.346 . S
N251 C255 1.345 . S
C252 C253 1.387 . S
C252 C256 1.391 . S
C253 C252 1.387 . S
C253 C254 1.369 . S
C253 H262 0.929 . S
C254 N251 1.346 . S
C254 C253 1.369 . S
C254 H257 0.928 . S
C255 N251 1.345 . S
C255 C256 1.371 . S
C255 H258 0.931 . S
C256 C252 1.391 . S
C256 C255 1.371 . S
C256 H263 0.930 . S
H257 C254 0.928 . S
H258 C255 0.931 . S
H259 C235 0.930 . S
H260 C232 0.930 . S
H261 C241 0.930 . S
H262 C253 0.929 . S
H263 C256 0.930 . S
C264 C265 1.351 . S
C264 N267 1.368 . S
C264 H269 0.931 . S
C265 C264 1.351 . S
C265 N266 1.373 . S
C265 H293 0.930 . S
N266 C265 1.373 . S
N266 C268 1.340 . S
N267 C264 1.368 . S
N267 C268 1.321 . S
N267 Co270 2.135 . S
C268 N266 1.340 . S
C268 N267 1.321 . S
C268 H292 0.930 . S
H269 C264 0.931 . S
Co270 N267 2.135 . S
Co270 N273 2.121 . S
Co270 O278 2.055 . S
Co270 O281 2.039 . S
Co270 N284 2.140 . S
C271 O272 1.227 . S
C271 O281 1.265 . S
O272 C271 1.227 . S
N273 Co270 2.121 . S
N273 C275 1.375 . S
N273 C276 1.313 . S
C274 C275 1.338 . S
C274 N277 1.377 . S
C274 H294 0.930 . S
C275 N273 1.375 . S
C275 C274 1.338 . S
C275 H279 0.931 . S
C276 N273 1.313 . S
C276 N277 1.344 . S
C276 H280 0.930 . S
N277 C274 1.377 . S
N277 C276 1.344 . S
O278 Co270 2.055 . S
O278 C282 1.253 . S
H279 C275 0.931 . S
H280 C276 0.930 . S
O281 Co270 2.039 . S
O281 C271 1.265 . S
C282 O278 1.253 . S
C282 O283 1.227 . S
O283 C282 1.227 . S
N284 Co270 2.140 . S
N284 C287 1.346 . S
N284 C288 1.345 . S
C285 C286 1.387 . S
C285 C289 1.391 . S
C286 C285 1.387 . S
C286 C287 1.369 . S
C286 H295 0.929 . S
C287 N284 1.346 . S
C287 C286 1.369 . S
C287 H290 0.928 . S
C288 N284 1.345 . S
C288 C289 1.371 . S
C288 H291 0.931 . S
C289 C285 1.391 . S
C289 C288 1.371 . S
C289 H296 0.930 . S
H290 C287 0.928 . S
H291 C288 0.931 . S
H292 C268 0.930 . S
H293 C265 0.930 . S
H294 C274 0.930 . S
H295 C286 0.929 . S
H296 C289 0.930 . S
C297 C298 1.351 1_554 S
C297 N300 1.368 . S
C297 H302 0.931 . S
C298 C297 1.351 1_556 S
C298 N299 1.373 . S
C298 H326 0.930 . S
N299 C298 1.373 . S
N299 C301 1.340 . S
N300 C297 1.368 . S
N300 C301 1.321 1_554 S
N300 Co303 2.135 . S
C301 N299 1.340 . S
C301 N300 1.321 1_556 S
C301 H325 0.930 . S
H302 C297 0.931 . S
Co303 N300 2.135 . S
Co303 N306 2.121 . S
Co303 O311 2.055 . S
Co303 O314 2.039 . S
Co303 N317 2.140 . S
C304 O305 1.227 . S
C304 O314 1.265 1_556 S
O305 C304 1.227 . S
N306 Co303 2.121 . S
N306 C308 1.375 . S
N306 C309 1.313 . S
C307 C308 1.338 . S
C307 N310 1.377 . S
C307 H327 0.930 . S
C308 N306 1.375 . S
C308 C307 1.338 . S
C308 H312 0.931 . S
C309 N306 1.313 . S
C309 N310 1.344 . S
C309 H313 0.930 . S
N310 C307 1.377 . S
N310 C309 1.344 . S
O311 Co303 2.055 . S
O311 C315 1.253 . S
H312 C308 0.931 . S
H313 C309 0.930 . S
O314 Co303 2.039 . S
O314 C304 1.265 1_554 S
C315 O311 1.253 . S
C315 O316 1.227 . S
O316 C315 1.227 . S
N317 Co303 2.140 . S
N317 C320 1.346 . S
N317 C321 1.345 . S
C318 C319 1.387 1_554 S
C318 C322 1.391 . S
C319 C318 1.387 1_556 S
C319 C320 1.369 1_556 S
C319 H328 0.929 . S
C320 N317 1.346 . S
C320 C319 1.369 1_554 S
C320 H323 0.928 1_554 S
C321 N317 1.345 . S
C321 C322 1.371 . S
C321 H324 0.931 . S
C322 C318 1.391 . S
C322 C321 1.371 . S
C322 H329 0.930 . S
H323 C320 0.928 1_556 S
H324 C321 0.931 . S
H325 C301 0.930 . S
H326 C298 0.930 . S
H327 C307 0.930 . S
H328 C319 0.929 . S
H329 C322 0.930 . S
C330 C331 1.351 1_554 S
C330 N333 1.368 . S
C330 H335 0.931 . S
C331 C330 1.351 1_556 S
C331 N332 1.373 . S
C331 H359 0.930 . S
N332 C331 1.373 . S
N332 C334 1.340 . S
N333 C330 1.368 . S
N333 C334 1.321 1_554 S
N333 Co336 2.135 . S
C334 N332 1.340 . S
C334 N333 1.321 1_556 S
C334 H358 0.930 . S
H335 C330 0.931 . S
Co336 N333 2.135 . S
Co336 N339 2.121 . S
Co336 O344 2.055 . S
Co336 O347 2.039 . S
Co336 N350 2.140 . S
C337 O338 1.227 . S
C337 O347 1.265 1_556 S
O338 C337 1.227 . S
N339 Co336 2.121 . S
N339 C341 1.375 . S
N339 C342 1.313 . S
C340 C341 1.338 . S
C340 N343 1.377 . S
C340 H360 0.930 . S
C341 N339 1.375 . S
C341 C340 1.338 . S
C341 H345 0.931 . S
C342 N339 1.313 . S
C342 N343 1.344 . S
C342 H346 0.930 . S
N343 C340 1.377 . S
N343 C342 1.344 . S
O344 Co336 2.055 . S
O344 C348 1.253 . S
H345 C341 0.931 . S
H346 C342 0.930 . S
O347 Co336 2.039 . S
O347 C337 1.265 1_554 S
C348 O344 1.253 . S
C348 O349 1.227 . S
O349 C348 1.227 . S
N350 Co336 2.140 . S
N350 C353 1.346 . S
N350 C354 1.345 . S
C351 C352 1.387 1_554 S
C351 C355 1.391 . S
C352 C351 1.387 1_556 S
C352 C353 1.369 1_556 S
C352 H361 0.929 . S
C353 N350 1.346 . S
C353 C352 1.369 1_554 S
C353 H356 0.928 1_554 S
C354 N350 1.345 . S
C354 C355 1.371 . S
C354 H357 0.931 . S
C355 C351 1.391 . S
C355 C354 1.371 . S
C355 H362 0.930 . S
H356 C353 0.928 1_556 S
H357 C354 0.931 . S
H358 C334 0.930 . S
H359 C331 0.930 . S
H360 C340 0.930 . S
H361 C352 0.929 . S
H362 C355 0.930 . S
C363 C364 1.351 1_554 S
C363 N366 1.368 . S
C363 H368 0.931 . S
C364 C363 1.351 1_556 S
C364 N365 1.373 . S
C364 H392 0.930 . S
N365 C364 1.373 . S
N365 C367 1.340 . S
N366 C363 1.368 . S
N366 C367 1.321 1_554 S
N366 Co369 2.135 . S
C367 N365 1.340 . S
C367 N366 1.321 1_556 S
C367 H391 0.930 . S
H368 C363 0.931 . S
Co369 N366 2.135 . S
Co369 N372 2.121 . S
Co369 O377 2.055 . S
Co369 O380 2.039 . S
Co369 N383 2.140 . S
C370 O371 1.227 . S
C370 O380 1.265 1_556 S
O371 C370 1.227 . S
N372 Co369 2.121 . S
N372 C374 1.375 . S
N372 C375 1.313 . S
C373 C374 1.338 . S
C373 N376 1.377 . S
C373 H393 0.930 . S
C374 N372 1.375 . S
C374 C373 1.338 . S
C374 H378 0.931 . S
C375 N372 1.313 . S
C375 N376 1.344 . S
C375 H379 0.930 . S
N376 C373 1.377 . S
N376 C375 1.344 . S
O377 Co369 2.055 . S
O377 C381 1.253 . S
H378 C374 0.931 . S
H379 C375 0.930 . S
O380 Co369 2.039 . S
O380 C370 1.265 1_554 S
C381 O377 1.253 . S
C381 O382 1.227 . S
O382 C381 1.227 . S
N383 Co369 2.140 . S
N383 C386 1.346 . S
N383 C387 1.345 . S
C384 C385 1.387 1_554 S
C384 C388 1.391 . S
C385 C384 1.387 1_556 S
C385 C386 1.369 1_556 S
C385 H394 0.929 . S
C386 N383 1.346 . S
C386 C385 1.369 1_554 S
C386 H389 0.928 1_554 S
C387 N383 1.345 . S
C387 C388 1.371 . S
C387 H390 0.931 . S
C388 C384 1.391 . S
C388 C387 1.371 . S
C388 H395 0.930 . S
H389 C386 0.928 1_556 S
H390 C387 0.931 . S
H391 C367 0.930 . S
H392 C364 0.930 . S
H393 C373 0.930 . S
H394 C385 0.929 . S
H395 C388 0.930 . S
C396 C397 1.351 1_556 S
C396 N399 1.368 . S
C396 H401 0.931 . S
C397 C396 1.351 1_554 S
C397 N398 1.373 . S
C397 H425 0.930 . S
N398 C397 1.373 . S
N398 C400 1.340 . S
N399 C396 1.368 . S
N399 C400 1.321 1_556 S
N399 Co402 2.135 . S
C400 N398 1.340 . S
C400 N399 1.321 1_554 S
C400 H424 0.930 . S
H401 C396 0.931 . S
Co402 N399 2.135 . S
Co402 N405 2.121 . S
Co402 O410 2.055 . S
Co402 O413 2.039 . S
Co402 N416 2.140 . S
C403 O404 1.227 . S
C403 O413 1.265 1_554 S
O404 C403 1.227 . S
N405 Co402 2.121 . S
N405 C407 1.375 . S
N405 C408 1.313 . S
C406 C407 1.338 . S
C406 N409 1.377 . S
C406 H426 0.930 . S
C407 N405 1.375 . S
C407 C406 1.338 . S
C407 H411 0.931 . S
C408 N405 1.313 . S
C408 N409 1.344 . S
C408 H412 0.930 . S
N409 C406 1.377 . S
N409 C408 1.344 . S
O410 Co402 2.055 . S
O410 C414 1.253 . S
H411 C407 0.931 . S
H412 C408 0.930 . S
O413 Co402 2.039 . S
O413 C403 1.265 1_556 S
C414 O410 1.253 . S
C414 O415 1.227 . S
O415 C414 1.227 . S
N416 Co402 2.140 . S
N416 C419 1.346 . S
N416 C420 1.345 . S
C417 C418 1.387 1_556 S
C417 C421 1.391 . S
C418 C417 1.387 1_554 S
C418 C419 1.369 1_554 S
C418 H427 0.929 . S
C419 N416 1.346 . S
C419 C418 1.369 1_556 S
C419 H422 0.928 1_556 S
C420 N416 1.345 . S
C420 C421 1.371 . S
C420 H423 0.931 . S
C421 C417 1.391 . S
C421 C420 1.371 . S
C421 H428 0.930 . S
H422 C419 0.928 1_554 S
H423 C420 0.931 . S
H424 C400 0.930 . S
H425 C397 0.930 . S
H426 C406 0.930 . S
H427 C418 0.929 . S
H428 C421 0.930 . S
C429 C430 1.351 1_556 S
C429 N432 1.368 . S
C429 H434 0.931 . S
C430 C429 1.351 1_554 S
C430 N431 1.373 . S
C430 H458 0.930 . S
N431 C430 1.373 . S
N431 C433 1.340 . S
N432 C429 1.368 . S
N432 C433 1.321 1_556 S
N432 Co435 2.135 . S
C433 N431 1.340 . S
C433 N432 1.321 1_554 S
C433 H457 0.930 . S
H434 C429 0.931 . S
Co435 N432 2.135 . S
Co435 N438 2.121 . S
Co435 O443 2.055 . S
Co435 O446 2.039 . S
Co435 N449 2.140 . S
C436 O437 1.227 . S
C436 O446 1.265 1_554 S
O437 C436 1.227 . S
N438 Co435 2.121 . S
N438 C440 1.375 . S
N438 C441 1.313 . S
C439 C440 1.338 . S
C439 N442 1.377 . S
C439 H459 0.930 . S
C440 N438 1.375 . S
C440 C439 1.338 . S
C440 H444 0.931 . S
C441 N438 1.313 . S
C441 N442 1.344 . S
C441 H445 0.930 . S
N442 C439 1.377 . S
N442 C441 1.344 . S
O443 Co435 2.055 . S
O443 C447 1.253 . S
H444 C440 0.931 . S
H445 C441 0.930 . S
O446 Co435 2.039 . S
O446 C436 1.265 1_556 S
C447 O443 1.253 . S
C447 O448 1.227 . S
O448 C447 1.227 . S
N449 Co435 2.140 . S
N449 C452 1.346 . S
N449 C453 1.345 . S
C450 C451 1.387 1_556 S
C450 C454 1.391 . S
C451 C450 1.387 1_554 S
C451 C452 1.369 1_554 S
C451 H460 0.929 . S
C452 N449 1.346 . S
C452 C451 1.369 1_556 S
C452 H455 0.928 1_556 S
C453 N449 1.345 . S
C453 C454 1.371 . S
C453 H456 0.931 . S
C454 C450 1.391 . S
C454 C453 1.371 . S
C454 H461 0.930 . S
H455 C452 0.928 1_554 S
H456 C453 0.931 . S
H457 C433 0.930 . S
H458 C430 0.930 . S
H459 C439 0.930 . S
H460 C451 0.929 . S
H461 C454 0.930 . S
C462 C463 1.351 1_556 S
C462 N465 1.368 . S
C462 H467 0.931 . S
C463 C462 1.351 1_554 S
C463 N464 1.373 . S
C463 H491 0.930 . S
N464 C463 1.373 . S
N464 C466 1.340 . S
N465 C462 1.368 . S
N465 C466 1.321 1_556 S
N465 Co468 2.135 . S
C466 N464 1.340 . S
C466 N465 1.321 1_554 S
C466 H490 0.930 . S
H467 C462 0.931 . S
Co468 N465 2.135 . S
Co468 N471 2.121 . S
Co468 O476 2.055 . S
Co468 O479 2.039 . S
Co468 N482 2.140 . S
C469 O470 1.227 . S
C469 O479 1.265 1_554 S
O470 C469 1.227 . S
N471 Co468 2.121 . S
N471 C473 1.375 . S
N471 C474 1.313 . S
C472 C473 1.338 . S
C472 N475 1.377 . S
C472 H492 0.930 . S
C473 N471 1.375 . S
C473 C472 1.338 . S
C473 H477 0.931 . S
C474 N471 1.313 . S
C474 N475 1.344 . S
C474 H478 0.930 . S
N475 C472 1.377 . S
N475 C474 1.344 . S
O476 Co468 2.055 . S
O476 C480 1.253 . S
H477 C473 0.931 . S
H478 C474 0.930 . S
O479 Co468 2.039 . S
O479 C469 1.265 1_556 S
C480 O476 1.253 . S
C480 O481 1.227 . S
O481 C480 1.227 . S
N482 Co468 2.140 . S
N482 C485 1.346 . S
N482 C486 1.345 . S
C483 C484 1.387 1_556 S
C483 C487 1.391 . S
C484 C483 1.387 1_554 S
C484 C485 1.369 1_554 S
C484 H493 0.929 . S
C485 N482 1.346 . S
C485 C484 1.369 1_556 S
C485 H488 0.928 1_556 S
C486 N482 1.345 . S
C486 C487 1.371 . S
C486 H489 0.931 . S
C487 C483 1.391 . S
C487 C486 1.371 . S
C487 H494 0.930 . S
H488 C485 0.928 1_554 S
H489 C486 0.931 . S
H490 C466 0.930 . S
H491 C463 0.930 . S
H492 C472 0.930 . S
H493 C484 0.929 . S
H494 C487 0.930 . S
C495 C496 1.351 . S
C495 N498 1.368 . S
C495 H500 0.931 . S
C496 C495 1.351 . S
C496 N497 1.373 . S
C496 H524 0.930 . S
N497 C496 1.373 . S
N497 C499 1.340 . S
N498 C495 1.368 . S
N498 C499 1.321 . S
N498 Co501 2.135 . S
C499 N497 1.340 . S
C499 N498 1.321 . S
C499 H523 0.930 . S
H500 C495 0.931 . S
Co501 N498 2.135 . S
Co501 N504 2.121 . S
Co501 O509 2.055 . S
Co501 O512 2.039 . S
Co501 N515 2.140 . S
C502 O503 1.227 . S
C502 O512 1.265 . S
O503 C502 1.227 . S
N504 Co501 2.121 . S
N504 C506 1.375 . S
N504 C507 1.313 . S
C505 C506 1.338 . S
C505 N508 1.377 . S
C505 H525 0.930 . S
C506 N504 1.375 . S
C506 C505 1.338 . S
C506 H510 0.931 . S
C507 N504 1.313 . S
C507 N508 1.344 . S
C507 H511 0.930 . S
N508 C505 1.377 . S
N508 C507 1.344 . S
O509 Co501 2.055 . S
O509 C513 1.253 . S
H510 C506 0.931 . S
H511 C507 0.930 . S
O512 Co501 2.039 . S
O512 C502 1.265 . S
C513 O509 1.253 . S
C513 O514 1.227 . S
O514 C513 1.227 . S
N515 Co501 2.140 . S
N515 C518 1.346 . S
N515 C519 1.345 . S
C516 C517 1.387 . S
C516 C520 1.391 . S
C517 C516 1.387 . S
C517 C518 1.369 . S
C517 H526 0.929 . S
C518 N515 1.346 . S
C518 C517 1.369 . S
C518 H521 0.928 . S
C519 N515 1.345 . S
C519 C520 1.371 . S
C519 H522 0.931 . S
C520 C516 1.391 . S
C520 C519 1.371 . S
C520 H527 0.930 . S
H521 C518 0.928 . S
H522 C519 0.931 . S
H523 C499 0.930 . S
H524 C496 0.930 . S
H525 C505 0.930 . S
H526 C517 0.929 . S
H527 C520 0.930 . S
C528 C529 1.351 . S
C528 N531 1.368 . S
C528 H533 0.931 . S
C529 C528 1.351 . S
C529 N530 1.373 . S
C529 H557 0.930 . S
N530 C529 1.373 . S
N530 C532 1.340 . S
N531 C528 1.368 . S
N531 C532 1.321 . S
N531 Co534 2.135 . S
C532 N530 1.340 . S
C532 N531 1.321 . S
C532 H556 0.930 . S
H533 C528 0.931 . S
Co534 N531 2.135 . S
Co534 N537 2.121 . S
Co534 O542 2.055 . S
Co534 O545 2.039 . S
Co534 N548 2.140 . S
C535 O536 1.227 . S
C535 O545 1.265 . S
O536 C535 1.227 . S
N537 Co534 2.121 . S
N537 C539 1.375 . S
N537 C540 1.313 . S
C538 C539 1.338 . S
C538 N541 1.377 . S
C538 H558 0.930 . S
C539 N537 1.375 . S
C539 C538 1.338 . S
C539 H543 0.931 . S
C540 N537 1.313 . S
C540 N541 1.344 . S
C540 H544 0.930 . S
N541 C538 1.377 . S
N541 C540 1.344 . S
O542 Co534 2.055 . S
O542 C546 1.253 . S
H543 C539 0.931 . S
H544 C540 0.930 . S
O545 Co534 2.039 . S
O545 C535 1.265 . S
C546 O542 1.253 . S
C546 O547 1.227 . S
O547 C546 1.227 . S
N548 Co534 2.140 . S
N548 C551 1.346 . S
N548 C552 1.345 . S
C549 C550 1.387 . S
C549 C553 1.391 . S
C550 C549 1.387 . S
C550 C551 1.369 . S
C550 H559 0.929 . S
C551 N548 1.346 . S
C551 C550 1.369 . S
C551 H554 0.928 . S
C552 N548 1.345 . S
C552 C553 1.371 . S
C552 H555 0.931 . S
C553 C549 1.391 . S
C553 C552 1.371 . S
C553 H560 0.930 . S
H554 C551 0.928 . S
H555 C552 0.931 . S
H556 C532 0.930 . S
H557 C529 0.930 . S
H558 C538 0.930 . S
H559 C550 0.929 . S
H560 C553 0.930 . S
C561 C562 1.351 . S
C561 N564 1.368 . S
C561 H566 0.931 . S
C562 C561 1.351 . S
C562 N563 1.373 . S
C562 H590 0.930 . S
N563 C562 1.373 . S
N563 C565 1.340 . S
N564 C561 1.368 . S
N564 C565 1.321 . S
N564 Co567 2.135 . S
C565 N563 1.340 . S
C565 N564 1.321 . S
C565 H589 0.930 . S
H566 C561 0.931 . S
Co567 N564 2.135 . S
Co567 N570 2.121 . S
Co567 O575 2.055 . S
Co567 O578 2.039 . S
Co567 N581 2.140 . S
C568 O569 1.227 . S
C568 O578 1.265 . S
O569 C568 1.227 . S
N570 Co567 2.121 . S
N570 C572 1.375 . S
N570 C573 1.313 . S
C571 C572 1.338 . S
C571 N574 1.377 . S
C571 H591 0.930 . S
C572 N570 1.375 . S
C572 C571 1.338 . S
C572 H576 0.931 . S
C573 N570 1.313 . S
C573 N574 1.344 . S
C573 H577 0.930 . S
N574 C571 1.377 . S
N574 C573 1.344 . S
O575 Co567 2.055 . S
O575 C579 1.253 . S
H576 C572 0.931 . S
H577 C573 0.930 . S
O578 Co567 2.039 . S
O578 C568 1.265 . S
C579 O575 1.253 . S
C579 O580 1.227 . S
O580 C579 1.227 . S
N581 Co567 2.140 . S
N581 C584 1.346 . S
N581 C585 1.345 . S
C582 C583 1.387 . S
C582 C586 1.391 . S
C583 C582 1.387 . S
C583 C584 1.369 . S
C583 H592 0.929 . S
C584 N581 1.346 . S
C584 C583 1.369 . S
C584 H587 0.928 . S
C585 N581 1.345 . S
C585 C586 1.371 . S
C585 H588 0.931 . S
C586 C582 1.391 . S
C586 C585 1.371 . S
C586 H593 0.930 . S
H587 C584 0.928 . S
H588 C585 0.931 . S
H589 C565 0.930 . S
H590 C562 0.930 . S
H591 C571 0.930 . S
H592 C583 0.929 . S
H593 C586 0.930 . S
C594 C595 1.369 . S
C594 C596 1.419 1_556 S
C594 H598 0.930 . S
C595 C594 1.369 . S
C595 C604 1.429 . S
C596 C594 1.419 1_554 S
C596 C597 1.363 . S
C596 H599 0.929 . S
C597 C596 1.363 . S
C597 C603 1.428 . S
H598 C594 0.930 . S
H599 C596 0.929 . S
S600 N601 1.613 1_554 S
S600 N602 1.610 . S
N601 S600 1.613 1_556 S
N601 C604 1.350 . S
N602 S600 1.610 . S
N602 C603 1.351 . S
C603 C597 1.428 . S
C603 N602 1.351 . S
C603 C604 1.434 1_554 S
C604 C595 1.429 . S
C604 N601 1.350 . S
C604 C603 1.434 1_556 S
C605 C606 1.369 . S
C605 C607 1.419 1_545 S
C605 H609 0.930 . S
C606 C605 1.369 . S
C606 C615 1.429 1_556 S
C607 C605 1.419 1_565 S
C607 C608 1.363 1_556 S
C607 H610 0.929 . S
C608 C607 1.363 1_554 S
C608 C614 1.428 . S
H609 C605 0.930 . S
H610 C607 0.929 . S
S611 N612 1.613 . S
S611 N613 1.578 1_545 S
N612 S611 1.613 . S
N612 C615 1.350 . S
N613 S611 1.578 1_565 S
N613 C614 1.363 . S
C614 C608 1.428 . S
C614 N613 1.363 . S
C614 C615 1.434 1_565 S
C615 C606 1.429 1_554 S
C615 N612 1.350 . S
C615 C614 1.434 1_545 S
C616 C617 1.369 . S
C616 C618 1.419 1_454 S
C616 H620 0.930 . S
C617 C616 1.369 . S
C617 C626 1.429 . S
C618 C616 1.419 1_656 S
C618 C619 1.363 . S
C618 H621 0.929 . S
C619 C618 1.363 . S
C619 C625 1.428 . S
H620 C616 0.930 . S
H621 C618 0.929 . S
S622 N623 1.613 1_655 S
S622 N624 1.610 1_554 S
N623 S622 1.613 1_455 S
N623 C626 1.350 . S
N624 S622 1.610 1_556 S
N624 C625 1.351 . S
C625 C619 1.428 . S
C625 N624 1.351 . S
C625 C626 1.434 1_656 S
C626 C617 1.429 . S
C626 N623 1.350 . S
C626 C625 1.434 1_454 S
C627 C628 1.369 . S
C627 C629 1.419 1_554 S
C627 H631 0.930 . S
C628 C627 1.369 . S
C628 C637 1.429 . S
C629 C627 1.419 1_556 S
C629 C630 1.363 . S
C629 H632 0.929 . S
C630 C629 1.363 . S
C630 C636 1.428 . S
H631 C627 0.930 . S
H632 C629 0.929 . S
S633 N634 1.613 1_556 S
S633 N635 1.610 . S
N634 S633 1.613 1_554 S
N634 C637 1.350 . S
N635 S633 1.610 . S
N635 C636 1.351 . S
C636 C630 1.428 . S
C636 N635 1.351 . S
C636 C637 1.434 1_556 S
C637 C628 1.429 . S
C637 N634 1.350 . S
C637 C636 1.434 1_554 S
C638 C639 1.369 . S
C638 C640 1.419 1_546 S
C638 H642 0.930 . S
C639 C638 1.369 . S
C639 C648 1.429 . S
C640 C638 1.419 1_564 S
C640 C641 1.363 . S
C640 H643 0.929 . S
C641 C640 1.363 . S
C641 C647 1.428 . S
H642 C638 0.930 . S
H643 C640 0.929 . S
S644 N645 1.613 1_554 S
S644 N646 1.610 1_545 S
N645 S644 1.613 1_556 S
N645 C648 1.350 . S
N646 S644 1.610 1_565 S
N646 C647 1.351 . S
C647 C641 1.428 . S
C647 N646 1.351 . S
C647 C648 1.434 1_564 S
C648 C639 1.429 . S
C648 N645 1.350 . S
C648 C647 1.434 1_546 S
C649 C650 1.369 1_455 S
C649 C651 1.419 . S
C649 H653 0.930 . S
C650 C649 1.369 1_655 S
C650 C659 1.429 1_556 S
C651 C649 1.419 . S
C651 C652 1.363 1_556 S
C651 H654 0.929 . S
C652 C651 1.363 1_554 S
C652 C658 1.428 1_455 S
H653 C649 0.930 . S
H654 C651 0.929 . S
S655 N656 1.613 . S
S655 N657 1.610 . S
N656 S655 1.613 . S
N656 C659 1.350 . S
N657 S655 1.610 . S
N657 C658 1.351 . S
C658 C652 1.428 1_655 S
C658 N657 1.351 . S
C658 C659 1.434 . S
C659 C650 1.429 1_554 S
C659 N656 1.350 . S
C659 C658 1.434 . S
C660 C661 1.369 . S
C660 C662 1.419 . S
C660 H664 0.930 . S
C661 C660 1.369 . S
C661 C670 1.429 . S
C662 C660 1.419 . S
C662 C663 1.363 . S
C662 H665 0.929 . S
C663 C662 1.363 . S
C663 C669 1.428 . S
H664 C660 0.930 . S
H665 C662 0.929 . S
S666 N667 1.613 . S
S666 N668 1.610 . S
N667 S666 1.613 . S
N667 C670 1.350 . S
N668 S666 1.610 . S
N668 C669 1.351 . S
C669 C663 1.428 . S
C669 N668 1.351 . S
C669 C670 1.434 . S
C670 C661 1.429 . S
C670 N667 1.350 . S
C670 C669 1.434 . S
C671 C672 1.369 . S
C671 C673 1.419 . S
C671 H675 0.930 . S
C672 C671 1.369 . S
C672 C681 1.429 . S
C673 C671 1.419 . S
C673 C674 1.363 . S
C673 H676 0.929 . S
C674 C673 1.363 . S
C674 C680 1.428 . S
H675 C671 0.930 . S
H676 C673 0.929 . S
S677 N678 1.613 . S
S677 N679 1.610 . S
N678 S677 1.613 . S
N678 C681 1.350 . S
N679 S677 1.610 . S
N679 C680 1.351 . S
C680 C674 1.428 . S
C680 N679 1.351 . S
C680 C681 1.434 . S
C681 C672 1.429 . S
C681 N678 1.350 . S
C681 C680 1.434 . S
C682 C683 1.369 . S
C682 C684 1.419 . S
C682 H686 0.930 . S
C683 C682 1.369 . S
C683 C692 1.429 . S
C684 C682 1.419 . S
C684 C685 1.363 . S
C684 H687 0.929 . S
C685 C684 1.363 . S
C685 C691 1.428 . S
H686 C682 0.930 . S
H687 C684 0.929 . S
S688 N689 1.613 . S
S688 N690 1.610 . S
N689 S688 1.613 . S
N689 C692 1.350 . S
N690 S688 1.610 . S
N690 C691 1.351 . S
C691 C685 1.428 . S
C691 N690 1.351 . S
C691 C692 1.434 . S
C692 C683 1.429 . S
C692 N689 1.350 . S
C692 C691 1.434 . S
C693 C694 1.369 . S
C693 C695 1.419 . S
C693 H697 0.930 . S
C694 C693 1.369 . S
C694 C703 1.429 . S
C695 C693 1.419 . S
C695 C696 1.363 . S
C695 H698 0.929 . S
C696 C695 1.363 . S
C696 C702 1.428 . S
H697 C693 0.930 . S
H698 C695 0.929 . S
S699 N700 1.613 . S
S699 N701 1.610 . S
N700 S699 1.613 . S
N700 C703 1.350 . S
N701 S699 1.610 . S
N701 C702 1.351 . S
C702 C696 1.428 . S
C702 N701 1.351 . S
C702 C703 1.434 . S
C703 C694 1.429 . S
C703 N700 1.350 . S
C703 C702 1.434 . S
C704 C705 1.369 . S
C704 C706 1.419 . S
C704 H708 0.930 . S
C705 C704 1.369 . S
C705 C714 1.429 . S
C706 C704 1.419 . S
C706 C707 1.363 . S
C706 H709 0.929 . S
C707 C706 1.363 . S
C707 C713 1.428 . S
H708 C704 0.930 . S
H709 C706 0.929 . S
S710 N711 1.613 . S
S710 N712 1.610 . S
N711 S710 1.613 . S
N711 C714 1.350 . S
N712 S710 1.610 . S
N712 C713 1.351 . S
C713 C707 1.428 . S
C713 N712 1.351 . S
C713 C714 1.434 . S
C714 C705 1.429 . S
C714 N711 1.350 . S
C714 C713 1.434 . S
C715 C716 1.369 . S
C715 C717 1.419 . S
C715 H719 0.930 . S
C716 C715 1.369 . S
C716 C725 1.429 . S
C717 C715 1.419 . S
C717 C718 1.363 . S
C717 H720 0.929 . S
C718 C717 1.363 . S
C718 C724 1.428 . S
H719 C715 0.930 . S
H720 C717 0.929 . S
S721 N722 1.613 . S
S721 N723 1.610 . S
N722 S721 1.613 . S
N722 C725 1.350 . S
N723 S721 1.610 . S
N723 C724 1.351 . S
C724 C718 1.428 . S
C724 N723 1.351 . S
C724 C725 1.434 . S
C725 C716 1.429 . S
C725 N722 1.350 . S
C725 C724 1.434 . S
C726 C727 1.369 . S
C726 C728 1.419 . S
C726 H730 0.930 . S
C727 C726 1.369 . S
C727 C736 1.429 . S
C728 C726 1.419 . S
C728 C729 1.363 . S
C728 H731 0.929 . S
C729 C728 1.363 . S
C729 C735 1.428 . S
H730 C726 0.930 . S
H731 C728 0.929 . S
S732 N733 1.613 . S
S732 N734 1.610 . S
N733 S732 1.613 . S
N733 C736 1.350 . S
N734 S732 1.610 . S
N734 C735 1.351 . S
C735 C729 1.428 . S
C735 N734 1.351 . S
C735 C736 1.434 . S
C736 C727 1.429 . S
C736 N733 1.350 . S
C736 C735 1.434 . S
C737 C738 1.369 . S
C737 C739 1.419 . S
C737 H741 0.930 . S
C738 C737 1.369 . S
C738 C747 1.429 . S
C739 C737 1.419 . S
C739 C740 1.363 . S
C739 H742 0.929 . S
C740 C739 1.363 . S
C740 C746 1.428 . S
H741 C737 0.930 . S
H742 C739 0.929 . S
S743 N744 1.613 . S
S743 N745 1.610 . S
N744 S743 1.613 . S
N744 C747 1.350 . S
N745 S743 1.610 . S
N745 C746 1.351 . S
C746 C740 1.428 . S
C746 N745 1.351 . S
C746 C747 1.434 . S
C747 C738 1.429 . S
C747 N744 1.350 . S
C747 C746 1.434 . S
C748 C749 1.369 . S
C748 C750 1.419 . S
C748 H752 0.930 . S
C749 C748 1.369 . S
C749 C758 1.429 . S
C750 C748 1.419 . S
C750 C751 1.363 . S
C750 H753 0.929 . S
C751 C750 1.363 . S
C751 C757 1.428 . S
H752 C748 0.930 . S
H753 C750 0.929 . S
S754 N755 1.613 . S
S754 N756 1.610 . S
N755 S754 1.613 . S
N755 C758 1.350 . S
N756 S754 1.610 . S
N756 C757 1.351 . S
C757 C751 1.428 . S
C757 N756 1.351 . S
C757 C758 1.434 . S
C758 C749 1.429 . S
C758 N755 1.350 . S
C758 C757 1.434 . S
C759 C760 1.369 . S
C759 C761 1.419 . S
C759 H763 0.930 . S
C760 C759 1.369 . S
C760 C769 1.429 . S
C761 C759 1.419 . S
C761 C762 1.363 . S
C761 H764 0.929 . S
C762 C761 1.363 . S
C762 C768 1.428 . S
H763 C759 0.930 . S
H764 C761 0.929 . S
S765 N766 1.613 . S
S765 N767 1.610 . S
N766 S765 1.613 . S
N766 C769 1.350 . S
N767 S765 1.610 . S
N767 C768 1.351 . S
C768 C762 1.428 . S
C768 N767 1.351 . S
C768 C769 1.434 . S
C769 C760 1.429 . S
C769 N766 1.350 . S
C769 C768 1.434 . S
C770 C771 1.369 . S
C770 C772 1.419 . S
C770 H774 0.930 . S
C771 C770 1.369 . S
C771 C780 1.429 . S
C772 C770 1.419 . S
C772 C773 1.363 . S
C772 H775 0.929 . S
C773 C772 1.363 . S
C773 C779 1.428 . S
H774 C770 0.930 . S
H775 C772 0.929 . S
S776 N777 1.613 . S
S776 N778 1.610 . S
N777 S776 1.613 . S
N777 C780 1.350 . S
N778 S776 1.610 . S
N778 C779 1.351 . S
C779 C773 1.428 . S
C779 N778 1.351 . S
C779 C780 1.434 . S
C780 C771 1.429 . S
C780 N777 1.350 . S
C780 C779 1.434 . S
C781 C782 1.369 . S
C781 C783 1.419 . S
C781 H785 0.930 . S
C782 C781 1.369 . S
C782 C791 1.429 . S
C783 C781 1.419 . S
C783 C784 1.363 . S
C783 H786 0.929 . S
C784 C783 1.363 . S
C784 C790 1.428 . S
H785 C781 0.930 . S
H786 C783 0.929 . S
S787 N788 1.613 . S
S787 N789 1.610 . S
N788 S787 1.613 . S
N788 C791 1.350 . S
N789 S787 1.610 . S
N789 C790 1.351 . S
C790 C784 1.428 . S
C790 N789 1.351 . S
C790 C791 1.434 . S
C791 C782 1.429 . S
C791 N788 1.350 . S
C791 C790 1.434 . S
C792 C793 1.369 . S
C792 C794 1.419 . S
C792 H796 0.930 . S
C793 C792 1.369 . S
C793 C802 1.429 . S
C794 C792 1.419 . S
C794 C795 1.363 . S
C794 H797 0.929 . S
C795 C794 1.363 . S
C795 C801 1.428 . S
H796 C792 0.930 . S
H797 C794 0.929 . S
S798 N799 1.613 . S
S798 N800 1.610 . S
N799 S798 1.613 . S
N799 C802 1.350 . S
N800 S798 1.610 . S
N800 C801 1.351 . S
C801 C795 1.428 . S
C801 N800 1.351 . S
C801 C802 1.434 . S
C802 C793 1.429 . S
C802 N799 1.350 . S
C802 C801 1.434 . S
C803 C804 1.369 . S
C803 C805 1.419 . S
C803 H807 0.930 . S
C804 C803 1.369 . S
C804 C813 1.429 . S
C805 C803 1.419 . S
C805 C806 1.363 . S
C805 H808 0.929 . S
C806 C805 1.363 . S
C806 C812 1.428 . S
H807 C803 0.930 . S
H808 C805 0.929 . S
S809 N810 1.613 . S
S809 N811 1.610 . S
N810 S809 1.613 . S
N810 C813 1.350 . S
N811 S809 1.610 . S
N811 C812 1.351 . S
C812 C806 1.428 . S
C812 N811 1.351 . S
C812 C813 1.434 . S
C813 C804 1.429 . S
C813 N810 1.350 . S
C813 C812 1.434 . S
C814 C815 1.369 . S
C814 C816 1.419 . S
C814 H818 0.930 . S
C815 C814 1.369 . S
C815 C824 1.429 . S
C816 C814 1.419 . S
C816 C817 1.363 . S
C816 H819 0.929 . S
C817 C816 1.363 . S
C817 C823 1.428 . S
H818 C814 0.930 . S
H819 C816 0.929 . S
S820 N821 1.613 . S
S820 N822 1.610 . S
N821 S820 1.613 . S
N821 C824 1.350 . S
N822 S820 1.610 . S
N822 C823 1.351 . S
C823 C817 1.428 . S
C823 N822 1.351 . S
C823 C824 1.434 . S
C824 C815 1.429 . S
C824 N821 1.350 . S
C824 C823 1.434 . S
C825 C826 1.369 . S
C825 C827 1.419 . S
C825 H829 0.930 . S
C826 C825 1.369 . S
C826 C835 1.429 . S
C827 C825 1.419 . S
C827 C828 1.363 . S
C827 H830 0.929 . S
C828 C827 1.363 . S
C828 C834 1.428 . S
H829 C825 0.930 . S
H830 C827 0.929 . S
S831 N832 1.613 . S
S831 N833 1.610 . S
N832 S831 1.613 . S
N832 C835 1.350 . S
N833 S831 1.610 . S
N833 C834 1.351 . S
C834 C828 1.428 . S
C834 N833 1.351 . S
C834 C835 1.434 . S
C835 C826 1.429 . S
C835 N832 1.350 . S
C835 C834 1.434 . S
C836 C837 1.369 . S
C836 C838 1.419 . S
C836 H840 0.930 . S
C837 C836 1.369 . S
C837 C846 1.429 . S
C838 C836 1.419 . S
C838 C839 1.363 . S
C838 H841 0.929 . S
C839 C838 1.363 . S
C839 C845 1.428 . S
H840 C836 0.930 . S
H841 C838 0.929 . S
S842 N843 1.613 . S
S842 N844 1.610 . S
N843 S842 1.613 . S
N843 C846 1.350 . S
N844 S842 1.610 . S
N844 C845 1.351 . S
C845 C839 1.428 . S
C845 N844 1.351 . S
C845 C846 1.434 . S
C846 C837 1.429 . S
C846 N843 1.350 . S
C846 C845 1.434 . S
C847 C848 1.369 . S
C847 C849 1.419 . S
C847 H851 0.930 . S
C848 C847 1.369 . S
C848 C857 1.429 . S
C849 C847 1.419 . S
C849 C850 1.363 . S
C849 H852 0.929 . S
C850 C849 1.363 . S
C850 C856 1.428 . S
H851 C847 0.930 . S
H852 C849 0.929 . S
S853 N854 1.613 . S
S853 N855 1.610 . S
N854 S853 1.613 . S
N854 C857 1.350 . S
N855 S853 1.610 . S
N855 C856 1.351 . S
C856 C850 1.428 . S
C856 N855 1.351 . S
C856 C857 1.434 . S
C857 C848 1.429 . S
C857 N854 1.350 . S
C857 C856 1.434 . S
C858 C859 1.369 . S
C858 C860 1.419 1_456 S
C858 H862 0.930 . S
C859 C858 1.369 . S
C859 C868 1.429 . S
C860 C858 1.419 1_654 S
C860 C861 1.363 . S
C860 H863 0.929 . S
C861 C860 1.363 . S
C861 C867 1.428 . S
H862 C858 0.930 . S
H863 C860 0.929 . S
S864 N865 1.613 1_655 S
S864 N866 1.610 1_556 S
N865 S864 1.613 1_455 S
N865 C868 1.350 . S
N866 S864 1.610 1_554 S
N866 C867 1.351 . S
C867 C861 1.428 . S
C867 N866 1.351 . S
C867 C868 1.434 1_654 S
C868 C859 1.429 . S
C868 N865 1.350 . S
C868 C867 1.434 1_456 S
C869 C870 1.369 . S
C869 C871 1.419 . S
C869 H873 0.930 . S
C870 C869 1.369 . S
C870 C879 1.429 1_556 S
C871 C869 1.419 . S
C871 C872 1.363 1_556 S
C871 H874 0.929 . S
C872 C871 1.363 1_554 S
C872 C878 1.428 . S
H873 C869 0.930 . S
H874 C871 0.929 . S
S875 N876 1.613 . S
S875 N877 1.610 . S
N876 S875 1.613 . S
N876 C879 1.350 . S
N877 S875 1.610 . S
N877 C878 1.351 . S
C878 C872 1.428 . S
C878 N877 1.351 . S
C878 C879 1.434 . S
C879 C870 1.429 1_554 S
C879 N876 1.350 . S
C879 C878 1.434 . S
C880 C881 1.369 . S
C880 C882 1.419 1_545 S
C880 H884 0.930 . S
C881 C880 1.369 . S
C881 C890 1.429 1_554 S
C882 C880 1.419 1_565 S
C882 C883 1.363 1_554 S
C882 H885 0.929 . S
C883 C882 1.363 1_556 S
C883 C889 1.428 . S
H884 C880 0.930 . S
H885 C882 0.929 . S
S886 N887 1.613 . S
S886 N888 1.610 1_545 S
N887 S886 1.613 . S
N887 C890 1.350 . S
N888 S886 1.610 1_565 S
N888 C889 1.351 . S
C889 C883 1.428 . S
C889 N888 1.351 . S
C889 C890 1.434 1_565 S
C890 C881 1.429 1_556 S
C890 N887 1.350 . S
C890 C889 1.434 1_545 S
C891 C892 1.369 . S
C891 C893 1.419 . S
C891 H895 0.930 . S
C892 C891 1.369 . S
C892 C901 1.429 . S
C893 C891 1.419 . S
C893 C894 1.363 . S
C893 H896 0.929 . S
C894 C893 1.363 . S
C894 C900 1.428 . S
H895 C891 0.930 . S
H896 C893 0.929 . S
S897 N898 1.613 . S
S897 N899 1.610 . S
N898 S897 1.613 . S
N898 C901 1.350 . S
N899 S897 1.610 . S
N899 C900 1.351 . S
C900 C894 1.428 . S
C900 N899 1.351 . S
C900 C901 1.434 . S
C901 C892 1.429 . S
C901 N898 1.350 . S
C901 C900 1.434 . S
C902 C903 1.371 . S
C902 C904 1.414 1_545 S
C902 H906 0.944 1_545 S
C903 C902 1.371 . S
C903 C912 1.429 . S
C904 C902 1.414 1_565 S
C904 C905 1.363 . S
C904 H907 0.929 . S
C905 C904 1.363 . S
C905 C911 1.421 1_565 S
H906 C902 0.944 1_565 S
H907 C904 0.929 . S
S908 N909 1.613 . S
S908 N910 1.610 . S
N909 S908 1.613 . S
N909 C912 1.350 . S
N910 S908 1.610 . S
N910 C911 1.341 . S
C911 C905 1.421 1_545 S
C911 N910 1.341 . S
C911 C912 1.455 . S
C912 C903 1.429 . S
C912 N909 1.350 . S
C912 C911 1.455 . S
C913 C914 1.369 . S
C913 C915 1.419 . S
C913 H917 0.930 . S
C914 C913 1.369 . S
C914 C923 1.429 1_455 S
C915 C913 1.419 . S
C915 C916 1.363 1_455 S
C915 H918 0.929 . S
C916 C915 1.363 1_655 S
C916 C922 1.428 . S
H917 C913 0.930 . S
H918 C915 0.929 . S
S919 N920 1.613 . S
S919 N921 1.610 . S
N920 S919 1.613 . S
N920 C923 1.350 . S
N921 S919 1.610 . S
N921 C922 1.351 . S
C922 C916 1.428 . S
C922 N921 1.351 . S
C922 C923 1.434 . S
C923 C914 1.429 1_655 S
C923 N920 1.350 . S
C923 C922 1.434 . S
C924 C925 1.369 . S
C924 C926 1.419 . S
C924 H928 0.930 . S
C925 C924 1.369 . S
C925 C934 1.429 . S
C926 C924 1.419 . S
C926 C927 1.363 . S
C926 H929 0.929 . S
C927 C926 1.363 . S
C927 C933 1.428 . S
H928 C924 0.930 . S
H929 C926 0.929 . S
S930 N931 1.613 . S
S930 N932 1.610 . S
N931 S930 1.613 . S
N931 C934 1.350 . S
N932 S930 1.610 . S
N932 C933 1.351 . S
C933 C927 1.428 . S
C933 N932 1.351 . S
C933 C934 1.434 . S
C934 C925 1.429 . S
C934 N931 1.350 . S
C934 C933 1.434 . S
C935 C936 1.369 . S
C935 C937 1.419 1_565 S
C935 H939 0.930 . S
C936 C935 1.369 . S
C936 C945 1.429 . S
C937 C935 1.419 1_545 S
C937 C938 1.363 . S
C937 H940 0.929 . S
C938 C937 1.363 . S
C938 C944 1.428 . S
H939 C935 0.930 . S
H940 C937 0.929 . S
S941 N942 1.613 . S
S941 N943 1.610 1_565 S
N942 S941 1.613 . S
N942 C945 1.350 . S
N943 S941 1.610 1_545 S
N943 C944 1.351 . S
C944 C938 1.428 . S
C944 N943 1.351 . S
C944 C945 1.434 1_545 S
C945 C936 1.429 . S
C945 N942 1.350 . S
C945 C944 1.434 1_565 S
C946 C947 1.369 . S
C946 C948 1.419 1_655 S
C946 H950 0.930 . S
C947 C946 1.369 . S
C947 C956 1.429 . S
C948 C946 1.419 1_455 S
C948 C949 1.363 . S
C948 H951 0.929 . S
C949 C948 1.363 . S
C949 C955 1.428 . S
H950 C946 0.930 . S
H951 C948 0.929 . S
S952 N953 1.613 . S
S952 N954 1.610 1_655 S
N953 S952 1.613 . S
N953 C956 1.350 . S
N954 S952 1.610 1_455 S
N954 C955 1.351 . S
C955 C949 1.428 . S
C955 N954 1.351 . S
C955 C956 1.434 1_455 S
C956 C947 1.429 . S
C956 N953 1.350 . S
C956 C955 1.434 1_655 S
C957 C958 1.369 . S
C957 C959 1.419 . S
C957 H961 0.930 . S
C958 C957 1.369 . S
C958 C967 1.429 . S
C959 C957 1.419 . S
C959 C960 1.363 . S
C959 H962 0.929 . S
C960 C959 1.363 . S
C960 C966 1.428 . S
H961 C957 0.930 . S
H962 C959 0.929 . S
S963 N964 1.613 . S
S963 N965 1.610 . S
N964 S963 1.613 . S
N964 C967 1.350 . S
N965 S963 1.610 . S
N965 C966 1.351 . S
C966 C960 1.428 . S
C966 N965 1.351 . S
C966 C967 1.434 . S
C967 C958 1.429 . S
C967 N964 1.350 . S
C967 C966 1.434 . S
C968 C969 1.369 . S
C968 C970 1.419 . S
C968 H972 0.930 . S
C969 C968 1.369 . S
C969 C978 1.429 . S
C970 C968 1.419 . S
C970 C971 1.363 . S
C970 H973 0.929 . S
C971 C970 1.363 . S
C971 C977 1.428 . S
H972 C968 0.930 . S
H973 C970 0.929 . S
S974 N975 1.613 . S
S974 N976 1.610 . S
N975 S974 1.613 . S
N975 C978 1.350 . S
N976 S974 1.610 . S
N976 C977 1.351 . S
C977 C971 1.428 . S
C977 N976 1.351 . S
C977 C978 1.434 . S
C978 C969 1.429 . S
C978 N975 1.350 . S
C978 C977 1.434 . S
C979 C980 1.369 . S
C979 C981 1.419 . S
C979 H983 0.930 . S
C980 C979 1.369 . S
C980 C989 1.429 . S
C981 C979 1.419 . S
C981 C982 1.363 . S
C981 H984 0.929 . S
C982 C981 1.363 . S
C982 C988 1.428 . S
H983 C979 0.930 . S
H984 C981 0.929 . S
S985 N986 1.613 . S
S985 N987 1.610 . S
N986 S985 1.613 . S
N986 C989 1.350 . S
N987 S985 1.610 . S
N987 C988 1.351 . S
C988 C982 1.428 . S
C988 N987 1.351 . S
C988 C989 1.434 . S
C989 C980 1.429 . S
C989 N986 1.350 . S
C989 C988 1.434 . S
C990 C991 1.369 . S
C990 C992 1.419 . S
C990 H994 0.930 . S
C991 C990 1.369 . S
C991 C1000 1.429 . S
C992 C990 1.419 . S
C992 C993 1.363 . S
C992 H995 0.929 . S
C993 C992 1.363 . S
C993 C999 1.428 . S
H994 C990 0.930 . S
H995 C992 0.929 . S
S996 N997 1.613 . S
S996 N998 1.610 . S
N997 S996 1.613 . S
N997 C1000 1.350 . S
N998 S996 1.610 . S
N998 C999 1.351 . S
C999 C993 1.428 . S
C999 N998 1.351 . S
C999 C1000 1.434 . S
C1000 C991 1.429 . S
C1000 N997 1.350 . S
C1000 C999 1.434 . S
C1001 C1002 1.369 . S
C1001 C1003 1.419 . S
C1001 H1005 0.930 . S
C1002 C1001 1.369 . S
C1002 C1011 1.429 . S
C1003 C1001 1.419 . S
C1003 C1004 1.363 . S
C1003 H1006 0.929 . S
C1004 C1003 1.363 . S
C1004 C1010 1.428 . S
H1005 C1001 0.930 . S
H1006 C1003 0.929 . S
S1007 N1008 1.613 . S
S1007 N1009 1.610 . S
N1008 S1007 1.613 . S
N1008 C1011 1.350 . S
N1009 S1007 1.610 . S
N1009 C1010 1.351 . S
C1010 C1004 1.428 . S
C1010 N1009 1.351 . S
C1010 C1011 1.434 . S
C1011 C1002 1.429 . S
C1011 N1008 1.350 . S
C1011 C1010 1.434 . S
C1012 C1013 1.369 . S
C1012 C1014 1.419 . S
C1012 H1016 0.930 . S
C1013 C1012 1.369 . S
C1013 C1022 1.429 . S
C1014 C1012 1.419 . S
C1014 C1015 1.363 . S
C1014 H1017 0.929 . S
C1015 C1014 1.363 . S
C1015 C1021 1.428 . S
H1016 C1012 0.930 . S
H1017 C1014 0.929 . S
S1018 N1019 1.613 . S
S1018 N1020 1.610 . S
N1019 S1018 1.613 . S
N1019 C1022 1.350 . S
N1020 S1018 1.610 . S
N1020 C1021 1.351 . S
C1021 C1015 1.428 . S
C1021 N1020 1.351 . S
C1021 C1022 1.434 . S
C1022 C1013 1.429 . S
C1022 N1019 1.350 . S
C1022 C1021 1.434 . S
C1023 C1024 1.369 . S
C1023 C1025 1.419 . S
C1023 H1027 0.930 . S
C1024 C1023 1.369 . S
C1024 C1033 1.429 . S
C1025 C1023 1.419 . S
C1025 C1026 1.363 . S
C1025 H1028 0.929 . S
C1026 C1025 1.363 . S
C1026 C1032 1.428 . S
H1027 C1023 0.930 . S
H1028 C1025 0.929 . S
S1029 N1030 1.613 . S
S1029 N1031 1.610 . S
N1030 S1029 1.613 . S
N1030 C1033 1.350 . S
N1031 S1029 1.610 . S
N1031 C1032 1.351 . S
C1032 C1026 1.428 . S
C1032 N1031 1.351 . S
C1032 C1033 1.434 . S
C1033 C1024 1.429 . S
C1033 N1030 1.350 . S
C1033 C1032 1.434 . S
C1034 C1035 1.369 . S
C1034 C1036 1.419 . S
C1034 H1038 0.930 . S
C1035 C1034 1.369 . S
C1035 C1044 1.429 . S
C1036 C1034 1.419 . S
C1036 C1037 1.363 . S
C1036 H1039 0.929 . S
C1037 C1036 1.363 . S
C1037 C1043 1.428 . S
H1038 C1034 0.930 . S
H1039 C1036 0.929 . S
S1040 N1041 1.613 . S
S1040 N1042 1.610 . S
N1041 S1040 1.613 . S
N1041 C1044 1.350 . S
N1042 S1040 1.610 . S
N1042 C1043 1.351 . S
C1043 C1037 1.428 . S
C1043 N1042 1.351 . S
C1043 C1044 1.434 . S
C1044 C1035 1.429 . S
C1044 N1041 1.350 . S
C1044 C1043 1.434 . S
C1045 C1046 1.369 . S
C1045 C1047 1.419 . S
C1045 H1049 0.930 . S
C1046 C1045 1.369 . S
C1046 C1055 1.429 . S
C1047 C1045 1.419 . S
C1047 C1048 1.363 . S
C1047 H1050 0.929 . S
C1048 C1047 1.363 . S
C1048 C1054 1.428 . S
H1049 C1045 0.930 . S
H1050 C1047 0.929 . S
S1051 N1052 1.613 . S
S1051 N1053 1.610 . S
N1052 S1051 1.613 . S
N1052 C1055 1.350 . S
N1053 S1051 1.610 . S
N1053 C1054 1.351 . S
C1054 C1048 1.428 . S
C1054 N1053 1.351 . S
C1054 C1055 1.434 . S
C1055 C1046 1.429 . S
C1055 N1052 1.350 . S
C1055 C1054 1.434 . S
C1056 C1057 1.369 . S
C1056 C1058 1.419 . S
C1056 H1060 0.930 . S
C1057 C1056 1.369 . S
C1057 C1066 1.429 . S
C1058 C1056 1.419 . S
C1058 C1059 1.363 . S
C1058 H1061 0.929 . S
C1059 C1058 1.363 . S
C1059 C1065 1.428 . S
H1060 C1056 0.930 . S
H1061 C1058 0.929 . S
S1062 N1063 1.613 . S
S1062 N1064 1.610 . S
N1063 S1062 1.613 . S
N1063 C1066 1.350 . S
N1064 S1062 1.610 . S
N1064 C1065 1.351 . S
C1065 C1059 1.428 . S
C1065 N1064 1.351 . S
C1065 C1066 1.434 . S
C1066 C1057 1.429 . S
C1066 N1063 1.350 . S
C1066 C1065 1.434 . S
C1067 C1068 1.369 . S
C1067 C1069 1.419 . S
C1067 H1071 0.930 . S
C1068 C1067 1.369 . S
C1068 C1077 1.429 . S
C1069 C1067 1.419 . S
C1069 C1070 1.363 . S
C1069 H1072 0.929 . S
C1070 C1069 1.363 . S
C1070 C1076 1.428 . S
H1071 C1067 0.930 . S
H1072 C1069 0.929 . S
S1073 N1074 1.613 . S
S1073 N1075 1.610 . S
N1074 S1073 1.613 . S
N1074 C1077 1.350 . S
N1075 S1073 1.610 . S
N1075 C1076 1.351 . S
C1076 C1070 1.428 . S
C1076 N1075 1.351 . S
C1076 C1077 1.434 . S
C1077 C1068 1.429 . S
C1077 N1074 1.350 . S
C1077 C1076 1.434 . S
C1078 C1079 1.369 . S
C1078 C1080 1.419 . S
C1078 H1082 0.930 . S
C1079 C1078 1.369 . S
C1079 C1088 1.429 . S
C1080 C1078 1.419 . S
C1080 C1081 1.363 . S
C1080 H1083 0.929 . S
C1081 C1080 1.363 . S
C1081 C1087 1.428 . S
H1082 C1078 0.930 . S
H1083 C1080 0.929 . S
S1084 N1085 1.613 . S
S1084 N1086 1.610 . S
N1085 S1084 1.613 . S
N1085 C1088 1.350 . S
N1086 S1084 1.610 . S
N1086 C1087 1.351 . S
C1087 C1081 1.428 . S
C1087 N1086 1.351 . S
C1087 C1088 1.434 . S
C1088 C1079 1.429 . S
C1088 N1085 1.350 . S
C1088 C1087 1.434 . S
C595 N112 1.118 . S
C597 N13 1.112 . S
C606 N145 1.121 . S
C608 N46 1.108 . S
C617 N79 1.116 . S
C619 N178 1.114 . S
C628 C51 2.230 . S
C630 C183 2.231 . S
C639 C117 2.230 . S
C641 C84 2.230 . S
C650 C150 2.229 . S
C652 C18 2.230 . S
C661 N211 1.108 . S
C663 N310 1.119 . S
C672 N343 1.107 . S
C674 N244 1.117 . S
C683 N277 1.112 . S
C685 N376 1.117 . S
C694 C381 2.230 . S
C696 C249 2.231 . S
C705 C315 2.229 . S
C707 C282 2.231 . S
C716 C348 2.229 . S
C718 C216 2.230 . S
C727 N508 1.111 . S
C729 N409 1.112 . S
C738 N442 1.121 . S
C740 N541 1.109 . S
C749 N574 1.121 . S
C751 N475 1.110 . S
C760 C447 2.230 . S
C762 C579 2.231 . S
C771 C513 2.229 . S
C773 C480 2.230 . S
C782 C414 2.231 . S
C784 C546 2.230 . S
C793 C582 1.449 . S
C795 C21 1.444 . S
C804 C54 1.443 . S
C806 C516 1.448 . S
C815 C549 1.446 . S
C817 C87 1.447 . S
C826 C252 1.449 . S
C828 C120 1.444 . S
C837 C153 1.449 . S
C839 C285 1.444 . S
C848 C186 1.446 . S
C850 C219 1.446 . S
C859 C450 1.447 . S
C861 C318 1.446 . S
C870 C483 1.444 . S
C872 C351 1.449 . S
C881 C384 1.446 . S
C883 C417 1.446 . S
C892 C7 2.017 . S
C894 C106 2.015 . S
C903 C139 2.015 . S
C905 C40 2.018 . S
C914 C73 2.018 . S
C916 C172 2.015 . S
C925 N167 0.813 . S
C927 N35 0.831 . S
C936 N68 0.825 . S
C938 N101 0.819 . S
C947 N134 0.819 . S
C949 N2 0.823 . S
C958 C205 2.016 . S
C960 C304 2.015 . S
C969 C337 2.014 . S
C971 C238 2.018 . S
C980 C370 2.018 . S
C982 C271 2.015 . S
C991 N365 0.825 . S
C993 N233 0.827 . S
C1002 N299 0.833 . S
C1004 N266 0.815 . S
C1013 N332 0.824 . S
C1015 N200 0.828 . S
C1024 C502 2.017 . S
C1026 C403 2.015 . S
C1035 C535 2.018 . S
C1037 C436 2.014 . S
C1046 C568 2.015 . S
C1048 C469 2.018 . S
C1057 N563 0.816 . S
C1059 N431 0.832 . S
C1068 N497 0.834 . S
C1070 N464 0.815 . S
C1079 N530 0.830 . S
C1081 N398 0.816 . S
