# Generated by pormake.
# Topology qtz-e, (6)-cn, num edge types: 1
# Building blocks:
#     Node 0, Type 0, BuildingBlock: KUMBUR_clean_sbu_0, # of connection points: 6
#     Node 1, Type 0, BuildingBlock: KUMBUR_clean_sbu_0, # of connection points: 6
#     Node 2, Type 0, BuildingBlock: KUMBUR_clean_sbu_0, # of connection points: 6
#     Node 3, Type 0, BuildingBlock: KUMBUR_clean_sbu_0, # of connection points: 6
#     Node 4, Type 0, BuildingBlock: KUMBUR_clean_sbu_0, # of connection points: 6
#     Node 5, Type 0, BuildingBlock: KUMBUR_clean_sbu_0, # of connection points: 6
#     Edge 6, Type (0, 0), BuildingBlock: EYOCIG_clean_linker_4, # of connection points: 2
#     Edge 7, Type (0, 0), BuildingBlock: EYOCIG_clean_linker_4, # of connection points: 2
#     Edge 8, Type (0, 0), BuildingBlock: EYOCIG_clean_linker_4, # of connection points: 2
#     Edge 9, Type (0, 0), BuildingBlock: EYOCIG_clean_linker_4, # of connection points: 2
#     Edge 10, Type (0, 0), BuildingBlock: EYOCIG_clean_linker_4, # of connection points: 2
#     Edge 11, Type (0, 0), BuildingBlock: EYOCIG_clean_linker_4, # of connection points: 2
#     Edge 12, Type (0, 0), BuildingBlock: EYOCIG_clean_linker_4, # of connection points: 2
#     Edge 13, Type (0, 0), BuildingBlock: EYOCIG_clean_linker_4, # of connection points: 2
#     Edge 14, Type (0, 0), BuildingBlock: EYOCIG_clean_linker_4, # of connection points: 2
#     Edge 15, Type (0, 0), BuildingBlock: EYOCIG_clean_linker_4, # of connection points: 2
#     Edge 16, Type (0, 0), BuildingBlock: EYOCIG_clean_linker_4, # of connection points: 2
#     Edge 17, Type (0, 0), BuildingBlock: EYOCIG_clean_linker_4, # of connection points: 2
#     Edge 18, Type (0, 0), BuildingBlock: EYOCIG_clean_linker_4, # of connection points: 2
#     Edge 19, Type (0, 0), BuildingBlock: EYOCIG_clean_linker_4, # of connection points: 2
#     Edge 20, Type (0, 0), BuildingBlock: EYOCIG_clean_linker_4, # of connection points: 2
#     Edge 21, Type (0, 0), BuildingBlock: EYOCIG_clean_linker_4, # of connection points: 2
#     Edge 22, Type (0, 0), BuildingBlock: EYOCIG_clean_linker_4, # of connection points: 2
#     Edge 23, Type (0, 0), BuildingBlock: EYOCIG_clean_linker_4, # of connection points: 2
# Relax obj value: 0.062
# Max RMSD: 0.151
# Mean RMSD: 0.151
data_MOF--net-qtz-e--node1-KUMBUR_clean_sbu_0--edge1-EYOCIG_clean_linker_4
_symmetry_space_group_name_H-M    P1
_symmetry_Int_Tables_number       1
_symmetry_cell_setting            triclinic
loop_
_symmetry_equiv_pos_as_xyz
'x, y, z'
_cell_length_a     23.786022
_cell_length_b     23.784959
_cell_length_c     39.655717
_cell_angle_alpha  89.999723
_cell_angle_beta   89.999787
_cell_angle_gamma 120.0028
loop_
_atom_site_label
_atom_site_type_symbol
_atom_site_fract_x
_atom_site_fract_y
_atom_site_fract_z
_atom_type_partial_charge
Tb0 Tb 0.2671 0.52387 0.05497 0.0
C1 C 0.06781 0.2514 1.01204 0.0
C2 C 0.08536 0.19031 0.05532 0.0
C3 C 0.97867 0.14674 0.02982 0.0
C4 C 0.10841 0.24588 0.03474 0.0
C5 C 1.00285 0.2012 1.00855 0.0
C6 C 0.01988 0.14137 0.05325 0.0
C7 C 0.99288 0.2594 0.96116 0.0
N8 N 0.09336 0.30422 0.99178 0.0
C9 C 0.05778 0.30761 0.96554 0.0
C10 C 0.96498 0.2063 0.98305 0.0
Tb11 Tb 0.19968 0.38139 1.00073 0.0
N12 N 0.17147 0.29352 0.03529 0.0
C13 C 0.21506 0.28689 0.05501 0.0
C14 C 0.12921 0.18481 0.07662 0.0
C15 C 0.1945 0.23307 0.0762 0.0
H16 H 0.0792 0.34861 0.94851 0.0
H17 H 0.2291 0.22888 0.09219 0.0
H18 H 1.00112 0.09849 0.069 0.0
H19 H 0.96452 0.26311 0.94084 0.0
H20 H 0.26563 0.3236 0.0554 0.0
H21 H 0.29859 0.73042 0.98233 0.0
H22 H 0.1135 0.14298 0.09289 0.0
H23 H 0.36553 0.50754 0.10884 0.0
H24 H 0.23776 0.61995 1.00536 0.0
H25 H 0.47812 0.57324 0.12889 0.0
H26 H 0.92874 0.10785 0.02777 0.0
H27 H 0.41509 0.80025 0.99561 0.0
H28 H 0.51295 0.81602 0.0277 0.0
H29 H 0.91486 0.16875 0.97949 0.0
H30 H 0.56148 0.77382 0.06805 0.0
N31 N 0.31955 0.62473 0.03031 0.0
C32 C 0.28874 0.64914 1.01118 0.0
C33 C 0.38877 0.75134 1.0056 0.0
C34 C 0.41916 0.72777 0.02689 0.0
C35 C 0.32304 0.71211 0.99808 0.0
C36 C 0.38266 0.66372 0.03922 0.0
H37 H 0.54872 0.68357 0.10609 0.0
N38 N 0.37215 0.57923 0.07423 0.0
C39 C 0.45953 0.59266 0.11005 0.0
C40 C 0.4097 0.64054 0.06228 0.0
C41 C 0.39554 0.55557 0.09864 0.0
C42 C 0.49925 0.65491 0.09711 0.0
C43 C 0.47435 0.67985 0.07314 0.0
O44 O 0.25477 0.53206 0.10676 0.0
O45 O 0.19919 0.42031 0.05031 0.0
O46 O 0.12175 0.4073 1.00806 0.0
O47 O 0.17898 0.51308 0.03065 0.0
O48 O 0.25156 0.45099 0.09334 0.0
O49 O 0.2247 0.579 0.06993 0.0
O50 O 0.19961 0.36787 0.948 0.0
O51 O 0.25746 0.48383 1.00592 0.0
O52 O 0.35006 0.52006 0.03423 0.0
O53 O 0.30153 0.41143 0.01761 0.0
O54 O 0.20936 0.44983 0.96109 0.0
O55 O 0.25027 0.33666 0.98063 0.0
C56 C 0.20483 0.40103 0.07917 0.0
C57 C 0.27385 0.6358 0.12036 0.0
C58 C 0.31714 0.68981 0.17371 0.0
C59 C 0.2792 0.63305 0.15539 0.0
C60 C 0.35105 0.74967 0.15715 0.0
C61 C 0.30685 0.69629 0.1039 0.0
C62 C 0.34595 0.75277 0.12223 0.0
C63 C 0.12624 0.4637 0.01727 0.0
C64 C 0.2365 0.57473 0.10167 0.0
C65 C 0.51163 0.74289 0.0601 0.0
C66 C 0.48405 0.76684 0.03705 0.0
C67 C 0.24875 0.50118 0.97747 0.0
C68 C 0.21737 0.28436 0.9266 0.0
C69 C 0.25457 0.29017 0.89722 0.0
C70 C 0.2362 0.23623 0.87541 0.0
C71 C 0.18053 0.17719 0.88343 0.0
C72 C 0.1621 0.22444 0.93362 0.0
C73 C 0.14394 0.17144 0.91219 0.0
C74 C 0.35365 0.46853 0.02534 0.0
C75 C 0.23553 0.34093 0.94938 0.0
H76 H 0.25278 0.58687 0.16843 0.0
H77 H 0.37983 0.79405 0.17128 0.0
H78 H 0.30269 0.70025 0.07702 0.0
H79 H 0.3715 0.79908 0.10942 0.0
H80 H 0.29738 0.33623 0.89143 0.0
H81 H 0.16523 0.13512 0.86738 0.0
H82 H 0.13286 0.21867 0.95569 0.0
H83 H 0.10112 0.12544 0.91792 0.0
Tb84 Tb 0.75058 0.26318 0.38828 0.0
C85 C 0.82379 0.06393 0.34535 0.0
C86 C 0.90244 0.08149 0.38863 0.0
C87 C 0.83932 0.97479 0.36312 0.0
C88 C 0.8699 0.10453 0.36805 0.0
C89 C 0.80904 0.99897 0.34186 0.0
C90 C 0.8859 0.01601 0.38655 0.0
C91 C 0.74087 0.98899 0.29446 0.0
N92 N 0.79652 0.08948 0.32509 0.0
C93 C 0.75755 0.05389 0.29885 0.0
C94 C 0.76607 0.9611 0.31636 0.0
Tb95 Tb 0.82566 0.19579 0.33405 0.0
N96 N 0.88532 0.16759 0.36861 0.0
C97 C 0.93555 0.21119 0.38832 0.0
C98 C 0.95179 0.12534 0.40993 0.0
C99 C 0.96881 0.19063 0.40951 0.0
H100 H 0.73797 0.07531 0.28182 0.0
H101 H 1.0076 0.22523 0.4255 0.0
H102 H 0.91002 0.99725 0.4023 0.0
H103 H 0.70881 0.96064 0.27415 0.0
H104 H 0.94941 0.26176 0.38872 0.0
H105 H 0.57546 0.29458 0.31565 0.0
H106 H 0.97791 0.10963 0.42619 0.0
H107 H 0.86535 0.36165 0.44215 0.0
H108 H 0.62514 0.23379 0.33868 0.0
H109 H 0.91221 0.47425 0.46219 0.0
H110 H 0.82828 0.92486 0.36107 0.0
H111 H 0.62208 0.41107 0.32894 0.0
H112 H 0.70417 0.50895 0.36102 0.0
H113 H 0.7535 0.91098 0.31279 0.0
H114 H 0.7949 0.55752 0.40137 0.0
N115 N 0.70213 0.31559 0.36363 0.0
C116 C 0.64691 0.28476 0.3445 0.0
C117 C 0.64469 0.38477 0.33893 0.0
C118 C 0.69866 0.41518 0.36022 0.0
C119 C 0.61821 0.31904 0.33141 0.0
C120 C 0.72624 0.37871 0.37254 0.0
H121 H 0.87243 0.54481 0.4394 0.0
N122 N 0.80024 0.36823 0.40754 0.0
C123 C 0.87419 0.45563 0.44336 0.0
C124 C 0.77646 0.40577 0.39559 0.0
C125 C 0.84731 0.39165 0.43194 0.0
C126 C 0.85163 0.49533 0.43042 0.0
C127 C 0.80178 0.47041 0.40646 0.0
O128 O 0.73007 0.25085 0.44007 0.0
O129 O 0.78625 0.1953 0.38363 0.0
O130 O 0.72183 0.11784 0.34138 0.0
O131 O 0.67326 0.17505 0.36397 0.0
O132 O 0.80794 0.24768 0.42665 0.0
O133 O 0.65305 0.22073 0.40325 0.0
O134 O 0.83913 0.19574 0.28132 0.0
O135 O 0.78097 0.25354 0.33924 0.0
O136 O 0.83733 0.34615 0.36754 0.0
O137 O 0.89746 0.29765 0.35094 0.0
O138 O 0.76691 0.20546 0.2944 0.0
O139 O 0.92099 0.2464 0.31395 0.0
C140 C 0.81119 0.20096 0.41249 0.0
C141 C 0.64537 0.26988 0.45368 0.0
C142 C 0.63465 0.31317 0.50702 0.0
C143 C 0.6535 0.27526 0.4887 0.0
C144 C 0.60866 0.34704 0.49046 0.0
C145 C 0.61784 0.30283 0.43722 0.0
C146 C 0.60044 0.34191 0.45555 0.0
C147 C 0.66991 0.12231 0.35058 0.0
C148 C 0.66912 0.23255 0.43499 0.0
C149 C 0.776 0.50767 0.39342 0.0
C150 C 0.72447 0.48007 0.37037 0.0
C151 C 0.75493 0.24483 0.31079 0.0
C152 C 0.9404 0.21351 0.25992 0.0
C153 C 0.97178 0.25071 0.23054 0.0
C154 C 1.00737 0.23236 0.20874 0.0
C155 C 1.01074 0.17669 0.21676 0.0
C156 C 0.94506 0.15825 0.26695 0.0
C157 C 0.97991 0.14011 0.24552 0.0
C158 C 0.89246 0.34976 0.35865 0.0
C159 C 0.90198 0.23167 0.2827 0.0
H160 H 0.6733 0.24888 0.50175 0.0
H161 H 0.59304 0.37581 0.50459 0.0
H162 H 0.6097 0.29865 0.41034 0.0
H163 H 0.57964 0.36743 0.44273 0.0
H164 H 0.96853 0.29352 0.22475 0.0
H165 H 0.03752 0.1614 0.2007 0.0
H166 H 0.9216 0.12901 0.28902 0.0
H167 H 0.98309 0.09729 0.25126 0.0
Tb168 Tb 0.49483 0.7468 0.72163 0.0
C169 C 0.7673 0.82005 0.67872 0.0
C170 C 0.82837 0.89871 0.722 0.0
C171 C 0.87196 0.8356 0.69651 0.0
C172 C 0.7728 0.86616 0.70142 0.0
C173 C 0.81751 0.8053 0.67524 0.0
C174 C 0.87731 0.88218 0.71994 0.0
C175 C 0.75934 0.73712 0.62784 0.0
N176 N 0.71449 0.79276 0.65846 0.0
C177 C 0.71112 0.75379 0.63222 0.0
C178 C 0.81243 0.76234 0.64975 0.0
Tb179 Tb 0.63731 0.82189 0.6674 0.0
N180 N 0.72516 0.88158 0.70197 0.0
C181 C 0.73177 0.93179 0.72168 0.0
C182 C 0.83385 0.94806 0.7433 0.0
C183 C 0.78558 0.96507 0.74287 0.0
H184 H 0.67013 0.7342 0.61519 0.0
H185 H 0.78976 1.00386 0.75886 0.0
H186 H 0.92019 0.90631 0.73569 0.0
H187 H 0.75564 0.70506 0.60753 0.0
H188 H 0.69506 0.94565 0.72207 0.0
H189 H 0.2883 0.57169 0.649 0.0
H190 H 0.87567 0.97418 0.75957 0.0
H191 H 0.51114 0.86157 0.7755 0.0
H192 H 0.39876 0.62136 0.67203 0.0
H193 H 0.44543 0.90844 0.79555 0.0
H194 H 0.91085 0.82457 0.69446 0.0
H195 H 0.21844 0.61832 0.66229 0.0
H196 H 0.20266 0.70041 0.69438 0.0
H197 H 0.84998 0.74977 0.64618 0.0
H198 H 0.24484 0.79114 0.73473 0.0
N199 N 0.39397 0.69835 0.69698 0.0
C200 C 0.36956 0.64314 0.67785 0.0
C201 C 0.26736 0.64093 0.67228 0.0
C202 C 0.29092 0.69489 0.69357 0.0
C203 C 0.30659 0.61444 0.66476 0.0
C204 C 0.35497 0.72247 0.70589 0.0
H205 H 0.33508 0.86866 0.77276 0.0
N206 N 0.43945 0.79647 0.74089 0.0
C207 C 0.42601 0.87042 0.77671 0.0
C208 C 0.37814 0.77269 0.72895 0.0
C209 C 0.46311 0.84353 0.7653 0.0
C210 C 0.36375 0.84786 0.76378 0.0
C211 C 0.33882 0.79801 0.73982 0.0
O212 O 0.48664 0.72628 0.77342 0.0
O213 O 0.59839 0.78247 0.71697 0.0
O214 O 0.6114 0.71805 0.67473 0.0
O215 O 0.50563 0.66947 0.69731 0.0
O216 O 0.56769 0.80415 0.76 0.0
O217 O 0.43973 0.64926 0.73659 0.0
O218 O 0.65084 0.83534 0.61467 0.0
O219 O 0.53487 0.77721 0.67259 0.0
O220 O 0.49861 0.83356 0.70089 0.0
O221 O 0.60724 0.89369 0.68427 0.0
O222 O 0.56888 0.76314 0.62775 0.0
O223 O 0.68202 0.91721 0.64729 0.0
C224 C 0.61766 0.8074 0.74584 0.0
C225 C 0.3829 0.64158 0.78702 0.0
C226 C 0.32888 0.63087 0.84036 0.0
C227 C 0.38565 0.64972 0.82204 0.0
C228 C 0.26903 0.60487 0.8238 0.0
C229 C 0.32243 0.61405 0.77056 0.0
C230 C 0.26594 0.59665 0.78888 0.0
C231 C 0.55501 0.66613 0.68393 0.0
C232 C 0.44399 0.66533 0.76834 0.0
C233 C 0.27578 0.77223 0.72677 0.0
C234 C 0.25184 0.72071 0.70373 0.0
C235 C 0.51753 0.75116 0.64414 0.0
C236 C 0.73433 0.93662 0.59327 0.0
C237 C 0.72852 0.96798 0.56388 0.0
C238 C 0.78246 1.00357 0.54207 0.0
C239 C 0.8415 1.00696 0.5501 0.0
C240 C 0.79426 0.94129 0.6003 0.0
C241 C 0.84726 0.97615 0.57887 0.0
C242 C 0.55014 0.88869 0.692 0.0
C243 C 0.67776 0.8982 0.61604 0.0
H244 H 0.43182 0.66952 0.83509 0.0
H245 H 0.22464 0.58926 0.83793 0.0
H246 H 0.31847 0.60589 0.74367 0.0
H247 H 0.21962 0.57584 0.77606 0.0
H248 H 0.68245 0.96471 0.55809 0.0
H249 H 0.88357 0.03374 0.53405 0.0
H250 H 0.80004 0.91785 0.62237 0.0
H251 H 0.89326 0.97935 0.58461 0.0
Tb252 Tb 0.75536 0.49096 0.05497 0.0
C253 C 0.95464 0.76345 1.01208 0.0
C254 C 0.93706 0.82452 0.05536 0.0
C255 C 0.04377 0.86811 0.02987 0.0
C256 C 0.91404 0.76896 0.03477 0.0
C257 C 0.01961 0.81366 1.0086 0.0
C258 C 1.00254 0.87346 0.0533 0.0
C259 C 0.02961 0.7555 0.9612 0.0
N260 N 0.92911 0.71064 0.99181 0.0
C261 C 0.96471 0.70727 0.96557 0.0
C262 C 0.05749 0.80858 0.9831 0.0
Tb263 Tb 0.8228 0.63346 1.00074 0.0
N264 N 0.85098 0.72131 0.03532 0.0
C265 C 0.80737 0.72792 0.05503 0.0
C266 C 0.8932 0.83 0.07665 0.0
C267 C 0.82792 0.78173 0.07623 0.0
H268 H 0.94331 0.66628 0.94854 0.0
H269 H 0.79331 0.78592 0.09222 0.0
H270 H 0.02129 0.91634 0.06905 0.0
H271 H 0.05798 0.7518 0.94088 0.0
H272 H 0.7568 0.69121 0.05542 0.0
H273 H 0.72393 0.28445 0.98231 0.0
H274 H 0.9089 0.87182 0.09293 0.0
H275 H 0.65691 0.50725 0.10884 0.0
H276 H 0.78474 0.3949 1.00536 0.0
H277 H 0.54431 0.44153 0.12887 0.0
H278 H 0.0937 0.90701 0.02782 0.0
H279 H 0.60743 0.2146 0.99558 0.0
H280 H 0.50955 0.19881 0.02765 0.0
H281 H 0.10761 0.84614 0.97954 0.0
H282 H 0.461 0.24098 0.06801 0.0
N283 N 0.70294 0.39011 0.0303 0.0
C284 C 0.73376 0.36571 1.01117 0.0
C285 C 0.63374 0.26351 1.00558 0.0
C286 C 0.60334 0.28706 0.02687 0.0
C287 C 0.69947 0.30274 0.99807 0.0
C288 C 0.63982 0.35111 0.0392 0.0
H289 H 0.47372 0.33121 0.10606 0.0
N290 N 0.65031 0.43558 0.07421 0.0
C291 C 0.56291 0.42213 0.11003 0.0
C292 C 0.61277 0.37427 0.06226 0.0
C293 C 0.6269 0.45922 0.09863 0.0
C294 C 0.5232 0.35988 0.09708 0.0
C295 C 0.54812 0.33495 0.07312 0.0
O296 O 0.76767 0.48275 0.10676 0.0
O297 O 0.82327 0.59452 0.05032 0.0
O298 O 0.90072 0.60755 1.00808 0.0
O299 O 0.8435 0.50176 0.03066 0.0
O300 O 0.77089 0.56382 0.09334 0.0
O301 O 0.79777 0.43584 0.06993 0.0
O302 O 0.82288 0.647 0.94801 0.0
O303 O 0.76502 0.53102 1.00592 0.0
O304 O 0.67241 0.49477 0.03423 0.0
O305 O 0.72093 0.60341 0.01762 0.0
O306 O 0.81314 0.56504 0.96109 0.0
O307 O 0.7722 0.67819 0.98064 0.0
C308 C 0.81761 0.61379 0.07918 0.0
C309 C 0.74859 0.379 0.12035 0.0
C310 C 0.70527 0.32496 0.17369 0.0
C311 C 0.74321 0.38173 0.15538 0.0
C312 C 0.67139 0.26511 0.15711 0.0
C313 C 0.71562 0.31852 0.10388 0.0
C314 C 0.67651 0.26203 0.1222 0.0
C315 C 0.89624 0.55115 0.01728 0.0
C316 C 0.78595 0.44009 0.10167 0.0
C317 C 0.51085 0.27192 0.06006 0.0
C318 C 0.53844 0.24799 0.03701 0.0
C319 C 0.77374 0.51369 0.97747 0.0
C320 C 0.80512 0.7305 0.92661 0.0
C321 C 0.76793 0.72469 0.89723 0.0
C322 C 0.7863 0.77863 0.87542 0.0
C323 C 0.84195 0.83768 0.88345 0.0
C324 C 0.86037 0.79043 0.93364 0.0
C325 C 0.87852 0.84343 0.91222 0.0
C326 C 0.66882 0.5463 0.02534 0.0
C327 C 0.78696 0.67393 0.94939 0.0
H328 H 0.76961 0.4279 0.16843 0.0
H329 H 0.64259 0.22071 0.17124 0.0
H330 H 0.71981 0.31457 0.077 0.0
H331 H 0.65098 0.21572 0.10938 0.0
H332 H 0.72513 0.67862 0.89144 0.0
H333 H 0.85725 0.87975 0.8674 0.0
H334 H 0.8896 0.79621 0.95572 0.0
H335 H 0.92133 0.88943 0.91796 0.0
Tb336 Tb 0.27173 0.75146 0.38831 0.0
C337 C 0.19859 0.95079 0.34542 0.0
C338 C 0.11995 0.93321 0.38871 0.0
C339 C 0.18308 0.03992 0.36322 0.0
C340 C 0.15247 0.91018 0.36812 0.0
C341 C 0.21336 0.01576 0.34195 0.0
C342 C 0.1365 0.9987 0.38665 0.0
C343 C 0.28153 0.02576 0.29455 0.0
N344 N 0.22586 0.92525 0.32516 0.0
C345 C 0.26484 0.96085 0.29892 0.0
C346 C 0.25634 0.05364 0.31645 0.0
Tb347 Tb 0.1967 0.81892 0.33409 0.0
N348 N 0.13704 0.84711 0.36866 0.0
C349 C 0.08681 0.80351 0.38837 0.0
C350 C 0.07059 0.88935 0.41 0.0
C351 C 0.05356 0.82406 0.40957 0.0
H352 H 0.28442 0.93944 0.28188 0.0
H353 H 0.01476 0.78945 0.42556 0.0
H354 H 0.11238 0.01745 0.4024 0.0
H355 H 0.31361 0.05413 0.27424 0.0
H356 H 0.07294 0.75294 0.38876 0.0
H357 H 0.44677 0.71994 0.31567 0.0
H358 H 0.04448 0.90506 0.42627 0.0
H359 H 0.15694 0.65303 0.44218 0.0
H360 H 0.39716 0.78079 0.33872 0.0
H361 H 0.11 0.54042 0.46221 0.0
H362 H 0.19414 0.08986 0.36118 0.0
H363 H 0.40005 0.60343 0.32895 0.0
H364 H 0.31792 0.50556 0.36102 0.0
H365 H 0.26892 0.10377 0.31289 0.0
H366 H 0.22718 0.45704 0.40136 0.0
N367 N 0.32013 0.699 0.36365 0.0
C368 C 0.37535 0.7298 0.34452 0.0
C369 C 0.37748 0.62976 0.33894 0.0
C370 C 0.32351 0.59937 0.36022 0.0
C371 C 0.40401 0.6955 0.33143 0.0
C372 C 0.29597 0.63588 0.37255 0.0
H373 H 0.1497 0.4698 0.43941 0.0
N374 N 0.22201 0.64641 0.40756 0.0
C375 C 0.14802 0.55901 0.44337 0.0
C376 C 0.24575 0.60884 0.39561 0.0
C377 C 0.17494 0.62301 0.43197 0.0
C378 C 0.17053 0.51928 0.43043 0.0
C379 C 0.22039 0.54419 0.40647 0.0
O380 O 0.29225 0.76377 0.4401 0.0
O381 O 0.23611 0.81939 0.38366 0.0
O382 O 0.30054 0.89683 0.34141 0.0
O383 O 0.34908 0.83959 0.36399 0.0
O384 O 0.21442 0.76701 0.42669 0.0
O385 O 0.36926 0.79385 0.40328 0.0
O386 O 0.18325 0.81903 0.28136 0.0
O387 O 0.24135 0.76114 0.33927 0.0
O388 O 0.18496 0.66852 0.36756 0.0
O389 O 0.12487 0.71706 0.35096 0.0
O390 O 0.25542 0.80923 0.29443 0.0
O391 O 0.10138 0.76833 0.31398 0.0
C392 C 0.21119 0.81374 0.41252 0.0
C393 C 0.3769 0.74468 0.4537 0.0
C394 C 0.38764 0.7014 0.50705 0.0
C395 C 0.36882 0.73934 0.48873 0.0
C396 C 0.41356 0.66747 0.49048 0.0
C397 C 0.40436 0.71166 0.43724 0.0
C398 C 0.42173 0.67255 0.45556 0.0
C399 C 0.35245 0.89233 0.35061 0.0
C400 C 0.35319 0.78204 0.43502 0.0
C401 C 0.24612 0.50689 0.39342 0.0
C402 C 0.29765 0.53446 0.37037 0.0
C403 C 0.26738 0.76984 0.31081 0.0
C404 C 0.08198 0.80125 0.25996 0.0
C405 C 0.0506 0.76407 0.23057 0.0
C406 C 0.01502 0.78243 0.20877 0.0
C407 C 0.01164 0.83809 0.2168 0.0
C408 C 0.07732 0.85651 0.26699 0.0
C409 C 0.04246 0.87466 0.24557 0.0
C410 C 0.12985 0.66494 0.35867 0.0
C411 C 0.12039 0.78309 0.28273 0.0
H412 H 0.34909 0.76577 0.50177 0.0
H413 H 0.42916 0.63868 0.50461 0.0
H414 H 0.41248 0.71582 0.41035 0.0
H415 H 0.44248 0.64699 0.44274 0.0
H416 H 0.05387 0.72127 0.22478 0.0
H417 H 0.98487 0.85339 0.20075 0.0
H418 H 0.10077 0.88574 0.28906 0.0
H419 H 0.03927 0.91747 0.25131 0.0
Tb420 Tb 0.52768 0.26795 0.72164 0.0
C421 C 0.25523 0.19479 0.67873 0.0
C422 C 0.19415 0.11615 0.72202 0.0
C423 C 0.15058 0.17928 0.69652 0.0
C424 C 0.24971 0.14868 0.70143 0.0
C425 C 0.20503 0.20956 0.67525 0.0
C426 C 0.14522 0.1327 0.71995 0.0
C427 C 0.26322 0.27772 0.62785 0.0
N428 N 0.30804 0.22206 0.65847 0.0
C429 C 0.31142 0.26103 0.63223 0.0
C430 C 0.21013 0.25253 0.64975 0.0
Tb431 Tb 0.38519 0.1929 0.66741 0.0
N432 N 0.29734 0.13324 0.70198 0.0
C433 C 0.29071 0.08302 0.7217 0.0
C434 C 0.18865 0.0668 0.74331 0.0
C435 C 0.2369 0.04977 0.74289 0.0
H436 H 0.35241 0.28061 0.61519 0.0
H437 H 0.2327 0.01097 0.75888 0.0
H438 H 0.10234 0.10859 0.7357 0.0
H439 H 0.26693 0.30979 0.60753 0.0
H440 H 0.32741 0.06915 0.72208 0.0
H441 H 0.73424 0.44298 0.64898 0.0
H442 H 0.14682 0.04069 0.75959 0.0
H443 H 0.51131 0.15318 0.77552 0.0
H444 H 0.62378 0.39336 0.67202 0.0
H445 H 0.57698 0.10626 0.79557 0.0
H446 H 0.1117 0.19033 0.69447 0.0
H447 H 0.80405 0.39629 0.66228 0.0
H448 H 0.81979 0.31419 0.69437 0.0
H449 H 0.17259 0.26511 0.64619 0.0
H450 H 0.77757 0.22347 0.73473 0.0
N451 N 0.62854 0.31635 0.69698 0.0
C452 C 0.65296 0.37157 0.67784 0.0
C453 C 0.75514 0.37371 0.67227 0.0
C454 C 0.73156 0.31975 0.69357 0.0
C455 C 0.71592 0.40022 0.66475 0.0
C456 C 0.66751 0.29221 0.70589 0.0
H457 H 0.68732 0.14598 0.77278 0.0
N458 N 0.58301 0.21825 0.7409 0.0
C459 C 0.59641 0.14428 0.77673 0.0
C460 C 0.64432 0.242 0.72895 0.0
C461 C 0.55934 0.17119 0.76531 0.0
C462 C 0.65867 0.16681 0.76379 0.0
C463 C 0.68362 0.21665 0.73983 0.0
O464 O 0.53589 0.2885 0.77342 0.0
O465 O 0.42413 0.23232 0.71698 0.0
O466 O 0.41113 0.29675 0.67474 0.0
O467 O 0.51691 0.3453 0.69732 0.0
O468 O 0.45481 0.21064 0.76001 0.0
O469 O 0.58282 0.3655 0.73659 0.0
O470 O 0.37166 0.17944 0.61468 0.0
O471 O 0.48763 0.23756 0.67259 0.0
O472 O 0.52386 0.18118 0.7009 0.0
O473 O 0.41523 0.12108 0.68428 0.0
O474 O 0.45362 0.25164 0.62776 0.0
O475 O 0.34045 0.09757 0.64731 0.0
C476 C 0.40485 0.2074 0.74585 0.0
C477 C 0.63964 0.37317 0.78702 0.0
C478 C 0.69366 0.3839 0.84036 0.0
C479 C 0.6369 0.36507 0.82204 0.0
C480 C 0.75351 0.40985 0.82379 0.0
C481 C 0.70012 0.40066 0.77055 0.0
C482 C 0.7566 0.41804 0.78888 0.0
C483 C 0.46753 0.34866 0.68393 0.0
C484 C 0.57856 0.34944 0.76833 0.0
C485 C 0.74665 0.24239 0.72678 0.0
C486 C 0.77061 0.29391 0.70373 0.0
C487 C 0.50497 0.2636 0.64414 0.0
C488 C 0.28815 0.07817 0.59328 0.0
C489 C 0.29395 0.04678 0.5639 0.0
C490 C 0.24001 0.01121 0.54209 0.0
C491 C 0.18098 0.00785 0.55011 0.0
C492 C 0.22824 0.07353 0.60031 0.0
C493 C 0.17523 0.03868 0.57888 0.0
C494 C 0.47233 0.12606 0.69201 0.0
C495 C 0.34472 0.11658 0.61606 0.0
H496 H 0.59073 0.34532 0.83509 0.0
H497 H 0.7979 0.42545 0.83792 0.0
H498 H 0.70408 0.40878 0.74367 0.0
H499 H 0.80291 0.4388 0.77606 0.0
H500 H 0.34001 0.05003 0.55811 0.0
H501 H 0.13891 0.98108 0.53406 0.0
H502 H 0.22246 0.09699 0.62238 0.0
H503 H 0.12924 0.03551 0.58461 0.0
C504 C 0.30349 0.70605 0.27235 0.0
C505 C 0.28694 0.72951 0.29416 0.0
C506 C 0.31452 0.69087 0.23986 0.0
C507 C 0.31422 0.68771 0.2097 0.0
C508 C 0.60485 0.29964 0.60566 0.0
C509 C 0.56485 0.28313 0.62749 0.0
C510 C 0.63103 0.31063 0.57317 0.0
C511 C 0.63388 0.3103 0.54301 0.0
C512 C 0.31259 0.60107 0.939 0.0
C513 C 0.2891 0.56106 0.96082 0.0
C514 C 0.32779 0.62725 0.90651 0.0
C515 C 0.33098 0.6301 0.87635 0.0
C516 C 0.71883 0.30864 0.27232 0.0
C517 C 0.73537 0.28517 0.29414 0.0
C518 C 0.70782 0.32384 0.23983 0.0
C519 C 0.70815 0.32703 0.20968 0.0
C520 C 0.41762 0.71506 0.60567 0.0
C521 C 0.45764 0.7316 0.62749 0.0
C522 C 0.39138 0.70403 0.57319 0.0
C523 C 0.38849 0.70432 0.54304 0.0
C524 C 0.70993 0.4138 0.939 0.0
C525 C 0.73341 0.45381 0.96082 0.0
C526 C 0.69475 0.38759 0.9065 0.0
C527 C 0.69157 0.38472 0.87635 0.0
C528 C 0.47685 0.49539 0.02248 0.0
C529 C 0.41906 0.47796 0.02298 0.0
C530 C 0.54562 0.51943 0.02248 0.0
C531 C 0.6034 0.53687 0.02298 0.0
C532 C 0.03351 0.54174 0.35581 0.0
C533 C 0.07386 0.59953 0.35631 0.0
C534 C 0.98878 0.47297 0.35581 0.0
C535 C 0.94844 0.41518 0.3563 0.0
C536 C 0.4992 0.02973 0.68915 0.0
C537 C 0.48176 0.07008 0.68965 0.0
C538 C 0.52325 0.98501 0.68915 0.0
C539 C 0.54069 0.94466 0.68964 0.0
C540 C 0.52433 0.54205 0.67712 0.0
C541 C 0.54364 0.60027 0.67896 0.0
C542 C 0.49823 0.47275 0.67712 0.0
C543 C 0.47891 0.41452 0.67897 0.0
C544 C 0.03284 0.49439 1.01047 0.0
C545 C 0.07175 0.47507 1.01231 0.0
C546 C 0.98964 0.52047 1.01047 0.0
C547 C 0.95073 0.53978 1.01231 0.0
C548 C 0.47654 0.98571 0.34379 0.0
C549 C 0.41831 0.94681 0.34564 0.0
C550 C 0.54583 0.02891 0.34379 0.0
C551 C 0.60406 0.06782 0.34562 0.0
C552 C 0.329 0.22394 0.78994 0.0
C553 C 0.36014 0.21733 0.76721 0.0
C554 C 0.29865 0.23351 0.81927 0.0
C555 C 0.27315 0.23882 0.84503 0.0
C556 C 0.07253 0.29481 0.15259 0.0
C557 C 0.04172 0.26931 0.17836 0.0
C558 C 0.11245 0.32517 0.12327 0.0
C559 C 0.15019 0.35631 0.10053 0.0
C560 C 0.78515 0.0687 0.48592 0.0
C561 C 0.77985 0.0379 0.51169 0.0
C562 C 0.79469 0.1086 0.45659 0.0
C563 C 0.80128 0.14632 0.43385 0.0
C564 C 0.69352 0.79089 0.78994 0.0
C565 C 0.66238 0.79748 0.7672 0.0
C566 C 0.72386 0.78134 0.81927 0.0
C567 C 0.74936 0.77603 0.84504 0.0
C568 C 0.94988 0.72 0.15261 0.0
C569 C 0.98068 0.74549 0.17839 0.0
C570 C 0.90998 0.68965 0.12329 0.0
C571 C 0.87225 0.65851 0.10055 0.0
C572 C 0.23729 0.94604 0.48595 0.0
C573 C 0.2426 0.97685 0.51171 0.0
C574 C 0.22772 0.90613 0.45662 0.0
C575 C 0.22112 0.86839 0.43389 0.0
loop_
_geom_bond_atom_site_label_1
_geom_bond_atom_site_label_2
_geom_bond_distance
_geom_bond_site_symmetry_2
_ccdc_geom_bond_type
Tb0 N31 2.660 . S
Tb0 N38 2.600 . S
Tb0 O44 2.546 . S
Tb0 O45 2.610 . S
Tb0 O47 2.320 . S
Tb0 O48 2.552 . S
Tb0 O49 2.413 . S
Tb0 O51 2.362 1_554 S
Tb0 O52 2.421 . S
Tb0 C64 2.833 . S
C1 C4 1.432 . S
C1 C5 1.414 1_455 S
C1 N8 1.359 1_554 S
C2 C4 1.417 . S
C2 C6 1.432 . S
C2 C14 1.410 . S
C3 C5 1.444 . S
C3 C6 1.317 1_655 S
C3 H26 0.929 . S
C4 C1 1.432 . S
C4 C2 1.417 . S
C4 N12 1.360 . S
C5 C1 1.414 1_655 S
C5 C3 1.444 . S
C5 C10 1.385 1_554 S
C6 C2 1.432 . S
C6 C3 1.317 1_455 S
C6 H18 0.930 1_455 S
C7 C9 1.392 1_655 S
C7 C10 1.370 . S
C7 H19 0.931 . S
N8 C1 1.359 1_556 S
N8 C9 1.327 . S
N8 Tb11 2.600 . S
C9 C7 1.392 1_455 S
C9 N8 1.327 . S
C9 H16 0.930 . S
C10 C5 1.385 1_556 S
C10 C7 1.370 . S
C10 H29 0.930 . S
Tb11 N8 2.600 . S
Tb11 N12 2.660 1_556 S
Tb11 O45 2.362 1_556 S
Tb11 O46 2.421 . S
Tb11 O50 2.546 . S
Tb11 O51 2.610 . S
Tb11 O53 2.320 1_556 S
Tb11 O54 2.552 . S
Tb11 O55 2.413 . S
Tb11 C75 2.833 . S
N12 C4 1.360 . S
N12 Tb11 2.660 1_554 S
N12 C13 1.305 . S
C13 N12 1.305 . S
C13 C15 1.407 . S
C13 H20 0.930 . S
C14 C2 1.410 . S
C14 C15 1.345 . S
C14 H22 0.930 . S
C15 C13 1.407 . S
C15 C14 1.345 . S
C15 H17 0.930 . S
H16 C9 0.930 . S
H17 C15 0.930 . S
H18 C6 0.930 1_655 S
H19 C7 0.931 . S
H20 C13 0.930 . S
H21 C35 0.930 . S
H22 C14 0.930 . S
H23 C41 0.930 . S
H24 C32 0.930 . S
H25 C39 0.931 . S
H26 C3 0.929 . S
H27 C33 0.930 . S
H28 C66 0.930 . S
H29 C10 0.930 . S
H30 C65 0.929 . S
N31 Tb0 2.660 . S
N31 C32 1.305 1_554 S
N31 C36 1.360 . S
C32 H24 0.930 . S
C32 N31 1.305 1_556 S
C32 C35 1.407 . S
C33 H27 0.930 . S
C33 C34 1.410 . S
C33 C35 1.345 . S
C34 C33 1.410 . S
C34 C36 1.417 1_556 S
C34 C66 1.432 . S
C35 H21 0.930 . S
C35 C32 1.407 . S
C35 C33 1.345 . S
C36 N31 1.360 . S
C36 C34 1.417 1_554 S
C36 C40 1.432 . S
H37 C42 0.930 . S
N38 Tb0 2.600 . S
N38 C40 1.359 . S
N38 C41 1.327 . S
C39 H25 0.931 . S
C39 C41 1.392 . S
C39 C42 1.370 . S
C40 C36 1.432 . S
C40 N38 1.359 . S
C40 C43 1.414 . S
C41 H23 0.930 . S
C41 N38 1.327 . S
C41 C39 1.392 . S
C42 H37 0.930 . S
C42 C39 1.370 . S
C42 C43 1.385 . S
C43 C40 1.414 . S
C43 C42 1.385 . S
C43 C65 1.444 . S
O44 Tb0 2.546 . S
O44 C64 1.251 . S
O45 Tb0 2.610 . S
O45 Tb11 2.362 1_554 S
O45 C56 1.283 . S
O46 Tb11 2.421 . S
O46 C63 1.262 1_556 S
O47 Tb0 2.320 . S
O47 C63 1.260 . S
O48 Tb0 2.552 . S
O48 C56 1.243 . S
O49 Tb0 2.413 . S
O49 C64 1.256 . S
O50 Tb11 2.546 . S
O50 C75 1.251 . S
O51 Tb0 2.362 1_556 S
O51 Tb11 2.610 . S
O51 C67 1.283 . S
O52 Tb0 2.421 . S
O52 C74 1.262 . S
O53 Tb11 2.320 1_554 S
O53 C74 1.260 . S
O54 Tb11 2.552 . S
O54 C67 1.243 . S
O55 Tb11 2.413 . S
O55 C75 1.256 . S
C56 O45 1.283 . S
C56 O48 1.243 . S
C57 C59 1.382 . S
C57 C61 1.393 . S
C57 C64 1.500 . S
C58 C59 1.400 . S
C58 C60 1.384 . S
C59 C57 1.382 . S
C59 C58 1.400 . S
C59 H76 0.930 . S
C60 C58 1.384 . S
C60 C62 1.392 . S
C60 H77 0.931 . S
C61 C57 1.393 . S
C61 C62 1.401 . S
C61 H78 0.930 . S
C62 C60 1.392 . S
C62 C61 1.401 . S
C62 H79 0.930 . S
C63 O46 1.262 1_554 S
C63 O47 1.260 . S
C64 Tb0 2.833 . S
C64 O44 1.251 . S
C64 O49 1.256 . S
C64 C57 1.500 . S
C65 H30 0.929 . S
C65 C43 1.444 . S
C65 C66 1.317 1_554 S
C66 H28 0.930 . S
C66 C34 1.432 . S
C66 C65 1.317 1_556 S
C67 O51 1.283 . S
C67 O54 1.243 . S
C68 C69 1.382 . S
C68 C72 1.393 . S
C68 C75 1.500 . S
C69 C68 1.382 . S
C69 C70 1.400 . S
C69 H80 0.930 . S
C70 C69 1.400 . S
C70 C71 1.384 . S
C71 C70 1.384 . S
C71 C73 1.392 . S
C71 H81 0.931 . S
C72 C68 1.393 . S
C72 C73 1.401 . S
C72 H82 0.930 . S
C73 C71 1.392 . S
C73 C72 1.401 . S
C73 H83 0.930 . S
C74 O52 1.262 . S
C74 O53 1.260 . S
C75 Tb11 2.833 . S
C75 O50 1.251 . S
C75 O55 1.256 . S
C75 C68 1.500 . S
H76 C59 0.930 . S
H77 C60 0.931 . S
H78 C61 0.930 . S
H79 C62 0.930 . S
H80 C69 0.930 . S
H81 C71 0.931 . S
H82 C72 0.930 . S
H83 C73 0.930 . S
Tb84 N115 2.660 . S
Tb84 N122 2.600 . S
Tb84 O128 2.546 . S
Tb84 O129 2.610 . S
Tb84 O131 2.320 . S
Tb84 O132 2.552 . S
Tb84 O133 2.413 . S
Tb84 O135 2.362 . S
Tb84 O136 2.421 . S
Tb84 C148 2.833 . S
C85 C88 1.432 . S
C85 C89 1.414 1_545 S
C85 N92 1.359 . S
C86 C88 1.417 . S
C86 C90 1.432 . S
C86 C98 1.410 . S
C87 C89 1.444 . S
C87 C90 1.317 1_565 S
C87 H110 0.929 . S
C88 C85 1.432 . S
C88 C86 1.417 . S
C88 N96 1.360 . S
C89 C85 1.414 1_565 S
C89 C87 1.444 . S
C89 C94 1.385 . S
C90 C86 1.432 . S
C90 C87 1.317 1_545 S
C90 H102 0.930 1_545 S
C91 C93 1.392 1_565 S
C91 C94 1.370 . S
C91 H103 0.931 . S
N92 C85 1.359 . S
N92 C93 1.327 . S
N92 Tb95 2.600 . S
C93 C91 1.392 1_545 S
C93 N92 1.327 . S
C93 H100 0.930 . S
C94 C89 1.385 . S
C94 C91 1.370 . S
C94 H113 0.930 . S
Tb95 N92 2.600 . S
Tb95 N96 2.660 . S
Tb95 O129 2.362 . S
Tb95 O130 2.421 . S
Tb95 O134 2.546 . S
Tb95 O135 2.610 . S
Tb95 O137 2.320 . S
Tb95 O138 2.552 . S
Tb95 O139 2.413 . S
Tb95 C159 2.833 . S
N96 C88 1.360 . S
N96 Tb95 2.660 . S
N96 C97 1.305 . S
C97 N96 1.305 . S
C97 C99 1.407 . S
C97 H104 0.930 . S
C98 C86 1.410 . S
C98 C99 1.345 . S
C98 H106 0.930 1_655 S
C99 C97 1.407 . S
C99 C98 1.345 . S
C99 H101 0.930 1_655 S
H100 C93 0.930 . S
H101 C99 0.930 1_455 S
H102 C90 0.930 1_565 S
H103 C91 0.931 . S
H104 C97 0.930 . S
H105 C119 0.930 . S
H106 C98 0.930 1_455 S
H107 C125 0.930 . S
H108 C116 0.930 . S
H109 C123 0.931 . S
H110 C87 0.929 . S
H111 C117 0.930 . S
H112 C150 0.930 . S
H113 C94 0.930 . S
H114 C149 0.929 . S
N115 Tb84 2.660 . S
N115 C116 1.305 . S
N115 C120 1.360 . S
C116 H108 0.930 . S
C116 N115 1.305 . S
C116 C119 1.407 . S
C117 H111 0.930 . S
C117 C118 1.410 . S
C117 C119 1.345 . S
C118 C117 1.410 . S
C118 C120 1.417 . S
C118 C150 1.432 . S
C119 H105 0.930 . S
C119 C116 1.407 . S
C119 C117 1.345 . S
C120 N115 1.360 . S
C120 C118 1.417 . S
C120 C124 1.432 . S
H121 C126 0.930 . S
N122 Tb84 2.600 . S
N122 C124 1.359 . S
N122 C125 1.327 . S
C123 H109 0.931 . S
C123 C125 1.392 . S
C123 C126 1.370 . S
C124 C120 1.432 . S
C124 N122 1.359 . S
C124 C127 1.414 . S
C125 H107 0.930 . S
C125 N122 1.327 . S
C125 C123 1.392 . S
C126 H121 0.930 . S
C126 C123 1.370 . S
C126 C127 1.385 . S
C127 C124 1.414 . S
C127 C126 1.385 . S
C127 C149 1.444 . S
O128 Tb84 2.546 . S
O128 C148 1.251 . S
O129 Tb84 2.610 . S
O129 Tb95 2.362 . S
O129 C140 1.283 . S
O130 Tb95 2.421 . S
O130 C147 1.262 . S
O131 Tb84 2.320 . S
O131 C147 1.260 . S
O132 Tb84 2.552 . S
O132 C140 1.243 . S
O133 Tb84 2.413 . S
O133 C148 1.256 . S
O134 Tb95 2.546 . S
O134 C159 1.251 . S
O135 Tb84 2.362 . S
O135 Tb95 2.610 . S
O135 C151 1.283 . S
O136 Tb84 2.421 . S
O136 C158 1.262 . S
O137 Tb95 2.320 . S
O137 C158 1.260 . S
O138 Tb95 2.552 . S
O138 C151 1.243 . S
O139 Tb95 2.413 . S
O139 C159 1.256 . S
C140 O129 1.283 . S
C140 O132 1.243 . S
C141 C143 1.382 . S
C141 C145 1.393 . S
C141 C148 1.500 . S
C142 C143 1.400 . S
C142 C144 1.384 . S
C143 C141 1.382 . S
C143 C142 1.400 . S
C143 H160 0.930 . S
C144 C142 1.384 . S
C144 C146 1.392 . S
C144 H161 0.931 . S
C145 C141 1.393 . S
C145 C146 1.401 . S
C145 H162 0.930 . S
C146 C144 1.392 . S
C146 C145 1.401 . S
C146 H163 0.930 . S
C147 O130 1.262 . S
C147 O131 1.260 . S
C148 Tb84 2.833 . S
C148 O128 1.251 . S
C148 O133 1.256 . S
C148 C141 1.500 . S
C149 H114 0.929 . S
C149 C127 1.444 . S
C149 C150 1.317 . S
C150 H112 0.930 . S
C150 C118 1.432 . S
C150 C149 1.317 . S
C151 O135 1.283 . S
C151 O138 1.243 . S
C152 C153 1.382 . S
C152 C156 1.393 . S
C152 C159 1.500 . S
C153 C152 1.382 . S
C153 C154 1.400 1_655 S
C153 H164 0.930 . S
C154 C153 1.400 1_455 S
C154 C155 1.384 1_455 S
C155 C154 1.384 1_655 S
C155 C157 1.392 . S
C155 H165 0.931 1_655 S
C156 C152 1.393 . S
C156 C157 1.401 . S
C156 H166 0.930 . S
C157 C155 1.392 . S
C157 C156 1.401 . S
C157 H167 0.930 . S
C158 O136 1.262 . S
C158 O137 1.260 . S
C159 Tb95 2.833 . S
C159 O134 1.251 . S
C159 O139 1.256 . S
C159 C152 1.500 . S
H160 C143 0.930 . S
H161 C144 0.931 . S
H162 C145 0.930 . S
H163 C146 0.930 . S
H164 C153 0.930 . S
H165 C155 0.931 1_455 S
H166 C156 0.930 . S
H167 C157 0.930 . S
Tb168 N199 2.660 . S
Tb168 N206 2.600 . S
Tb168 O212 2.546 . S
Tb168 O213 2.610 . S
Tb168 O215 2.320 . S
Tb168 O216 2.552 . S
Tb168 O217 2.413 . S
Tb168 O219 2.362 . S
Tb168 O220 2.421 . S
Tb168 C232 2.833 . S
C169 C172 1.432 . S
C169 C173 1.414 . S
C169 N176 1.359 . S
C170 C172 1.417 . S
C170 C174 1.432 . S
C170 C182 1.410 . S
C171 C173 1.444 . S
C171 C174 1.317 . S
C171 H194 0.929 . S
C172 C169 1.432 . S
C172 C170 1.417 . S
C172 N180 1.360 . S
C173 C169 1.414 . S
C173 C171 1.444 . S
C173 C178 1.385 . S
C174 C170 1.432 . S
C174 C171 1.317 . S
C174 H186 0.930 . S
C175 C177 1.392 . S
C175 C178 1.370 . S
C175 H187 0.931 . S
N176 C169 1.359 . S
N176 C177 1.327 . S
N176 Tb179 2.600 . S
C177 C175 1.392 . S
C177 N176 1.327 . S
C177 H184 0.930 . S
C178 C173 1.385 . S
C178 C175 1.370 . S
C178 H197 0.930 . S
Tb179 N176 2.600 . S
Tb179 N180 2.660 . S
Tb179 O213 2.362 . S
Tb179 O214 2.421 . S
Tb179 O218 2.546 . S
Tb179 O219 2.610 . S
Tb179 O221 2.320 . S
Tb179 O222 2.552 . S
Tb179 O223 2.413 . S
Tb179 C243 2.833 . S
N180 C172 1.360 . S
N180 Tb179 2.660 . S
N180 C181 1.305 . S
C181 N180 1.305 . S
C181 C183 1.407 . S
C181 H188 0.930 . S
C182 C170 1.410 . S
C182 C183 1.345 . S
C182 H190 0.930 1_565 S
C183 C181 1.407 . S
C183 C182 1.345 . S
C183 H185 0.930 1_565 S
H184 C177 0.930 . S
H185 C183 0.930 1_545 S
H186 C174 0.930 . S
H187 C175 0.931 . S
H188 C181 0.930 . S
H189 C203 0.930 . S
H190 C182 0.930 1_545 S
H191 C209 0.930 . S
H192 C200 0.930 . S
H193 C207 0.931 . S
H194 C171 0.929 . S
H195 C201 0.930 . S
H196 C234 0.930 . S
H197 C178 0.930 . S
H198 C233 0.929 . S
N199 Tb168 2.660 . S
N199 C200 1.305 . S
N199 C204 1.360 . S
C200 H192 0.930 . S
C200 N199 1.305 . S
C200 C203 1.407 . S
C201 H195 0.930 . S
C201 C202 1.410 . S
C201 C203 1.345 . S
C202 C201 1.410 . S
C202 C204 1.417 . S
C202 C234 1.432 . S
C203 H189 0.930 . S
C203 C200 1.407 . S
C203 C201 1.345 . S
C204 N199 1.360 . S
C204 C202 1.417 . S
C204 C208 1.432 . S
H205 C210 0.930 . S
N206 Tb168 2.600 . S
N206 C208 1.359 . S
N206 C209 1.327 . S
C207 H193 0.931 . S
C207 C209 1.392 . S
C207 C210 1.370 . S
C208 C204 1.432 . S
C208 N206 1.359 . S
C208 C211 1.414 . S
C209 H191 0.930 . S
C209 N206 1.327 . S
C209 C207 1.392 . S
C210 H205 0.930 . S
C210 C207 1.370 . S
C210 C211 1.385 . S
C211 C208 1.414 . S
C211 C210 1.385 . S
C211 C233 1.444 . S
O212 Tb168 2.546 . S
O212 C232 1.251 . S
O213 Tb168 2.610 . S
O213 Tb179 2.362 . S
O213 C224 1.283 . S
O214 Tb179 2.421 . S
O214 C231 1.262 . S
O215 Tb168 2.320 . S
O215 C231 1.260 . S
O216 Tb168 2.552 . S
O216 C224 1.243 . S
O217 Tb168 2.413 . S
O217 C232 1.256 . S
O218 Tb179 2.546 . S
O218 C243 1.251 . S
O219 Tb168 2.362 . S
O219 Tb179 2.610 . S
O219 C235 1.283 . S
O220 Tb168 2.421 . S
O220 C242 1.262 . S
O221 Tb179 2.320 . S
O221 C242 1.260 . S
O222 Tb179 2.552 . S
O222 C235 1.243 . S
O223 Tb179 2.413 . S
O223 C243 1.256 . S
C224 O213 1.283 . S
C224 O216 1.243 . S
C225 C227 1.382 . S
C225 C229 1.393 . S
C225 C232 1.500 . S
C226 C227 1.400 . S
C226 C228 1.384 . S
C227 C225 1.382 . S
C227 C226 1.400 . S
C227 H244 0.930 . S
C228 C226 1.384 . S
C228 C230 1.392 . S
C228 H245 0.931 . S
C229 C225 1.393 . S
C229 C230 1.401 . S
C229 H246 0.930 . S
C230 C228 1.392 . S
C230 C229 1.401 . S
C230 H247 0.930 . S
C231 O214 1.262 . S
C231 O215 1.260 . S
C232 Tb168 2.833 . S
C232 O212 1.251 . S
C232 O217 1.256 . S
C232 C225 1.500 . S
C233 H198 0.929 . S
C233 C211 1.444 . S
C233 C234 1.317 . S
C234 H196 0.930 . S
C234 C202 1.432 . S
C234 C233 1.317 . S
C235 O219 1.283 . S
C235 O222 1.243 . S
C236 C237 1.382 . S
C236 C240 1.393 . S
C236 C243 1.500 . S
C237 C236 1.382 . S
C237 C238 1.400 1_565 S
C237 H248 0.930 . S
C238 C237 1.400 1_545 S
C238 C239 1.384 1_545 S
C239 C238 1.384 1_565 S
C239 C241 1.392 . S
C239 H249 0.931 1_565 S
C240 C236 1.393 . S
C240 C241 1.401 . S
C240 H250 0.930 . S
C241 C239 1.392 . S
C241 C240 1.401 . S
C241 H251 0.930 . S
C242 O220 1.262 . S
C242 O221 1.260 . S
C243 Tb179 2.833 . S
C243 O218 1.251 . S
C243 O223 1.256 . S
C243 C236 1.500 . S
H244 C227 0.930 . S
H245 C228 0.931 . S
H246 C229 0.930 . S
H247 C230 0.930 . S
H248 C237 0.930 . S
H249 C239 0.931 1_545 S
H250 C240 0.930 . S
H251 C241 0.930 . S
Tb252 N283 2.660 . S
Tb252 N290 2.600 . S
Tb252 O296 2.546 . S
Tb252 O297 2.610 . S
Tb252 O299 2.320 . S
Tb252 O300 2.552 . S
Tb252 O301 2.413 . S
Tb252 O303 2.362 1_554 S
Tb252 O304 2.421 . S
Tb252 C316 2.833 . S
C253 C256 1.432 . S
C253 C257 1.414 1_655 S
C253 N260 1.359 1_554 S
C254 C256 1.417 . S
C254 C258 1.432 . S
C254 C266 1.410 . S
C255 C257 1.444 . S
C255 C258 1.317 1_455 S
C255 H278 0.929 . S
C256 C253 1.432 . S
C256 C254 1.417 . S
C256 N264 1.360 . S
C257 C253 1.414 1_455 S
C257 C255 1.444 . S
C257 C262 1.385 1_554 S
C258 C254 1.432 . S
C258 C255 1.317 1_655 S
C258 H270 0.930 1_655 S
C259 C261 1.392 1_455 S
C259 C262 1.370 . S
C259 H271 0.931 . S
N260 C253 1.359 1_556 S
N260 C261 1.327 . S
N260 Tb263 2.600 . S
C261 C259 1.392 1_655 S
C261 N260 1.327 . S
C261 H268 0.930 . S
C262 C257 1.385 1_556 S
C262 C259 1.370 . S
C262 H281 0.930 . S
Tb263 N260 2.600 . S
Tb263 N264 2.660 1_556 S
Tb263 O297 2.362 1_556 S
Tb263 O298 2.421 . S
Tb263 O302 2.546 . S
Tb263 O303 2.610 . S
Tb263 O305 2.320 1_556 S
Tb263 O306 2.552 . S
Tb263 O307 2.413 . S
Tb263 C327 2.833 . S
N264 C256 1.360 . S
N264 Tb263 2.660 1_554 S
N264 C265 1.305 . S
C265 N264 1.305 . S
C265 C267 1.407 . S
C265 H272 0.930 . S
C266 C254 1.410 . S
C266 C267 1.345 . S
C266 H274 0.930 . S
C267 C265 1.407 . S
C267 C266 1.345 . S
C267 H269 0.930 . S
H268 C261 0.930 . S
H269 C267 0.930 . S
H270 C258 0.930 1_455 S
H271 C259 0.931 . S
H272 C265 0.930 . S
H273 C287 0.930 . S
H274 C266 0.930 . S
H275 C293 0.930 . S
H276 C284 0.930 . S
H277 C291 0.931 . S
H278 C255 0.929 . S
H279 C285 0.930 . S
H280 C318 0.930 . S
H281 C262 0.930 . S
H282 C317 0.929 . S
N283 Tb252 2.660 . S
N283 C284 1.305 1_554 S
N283 C288 1.360 . S
C284 H276 0.930 . S
C284 N283 1.305 1_556 S
C284 C287 1.407 . S
C285 H279 0.930 . S
C285 C286 1.410 . S
C285 C287 1.345 . S
C286 C285 1.410 . S
C286 C288 1.417 1_556 S
C286 C318 1.432 . S
C287 H273 0.930 . S
C287 C284 1.407 . S
C287 C285 1.345 . S
C288 N283 1.360 . S
C288 C286 1.417 1_554 S
C288 C292 1.432 . S
H289 C294 0.930 . S
N290 Tb252 2.600 . S
N290 C292 1.359 . S
N290 C293 1.327 . S
C291 H277 0.931 . S
C291 C293 1.392 . S
C291 C294 1.370 . S
C292 C288 1.432 . S
C292 N290 1.359 . S
C292 C295 1.414 . S
C293 H275 0.930 . S
C293 N290 1.327 . S
C293 C291 1.392 . S
C294 H289 0.930 . S
C294 C291 1.370 . S
C294 C295 1.385 . S
C295 C292 1.414 . S
C295 C294 1.385 . S
C295 C317 1.444 . S
O296 Tb252 2.546 . S
O296 C316 1.251 . S
O297 Tb252 2.610 . S
O297 Tb263 2.362 1_554 S
O297 C308 1.283 . S
O298 Tb263 2.421 . S
O298 C315 1.262 1_556 S
O299 Tb252 2.320 . S
O299 C315 1.260 . S
O300 Tb252 2.552 . S
O300 C308 1.243 . S
O301 Tb252 2.413 . S
O301 C316 1.256 . S
O302 Tb263 2.546 . S
O302 C327 1.251 . S
O303 Tb252 2.362 1_556 S
O303 Tb263 2.610 . S
O303 C319 1.283 . S
O304 Tb252 2.421 . S
O304 C326 1.262 . S
O305 Tb263 2.320 1_554 S
O305 C326 1.260 . S
O306 Tb263 2.552 . S
O306 C319 1.243 . S
O307 Tb263 2.413 . S
O307 C327 1.256 . S
C308 O297 1.283 . S
C308 O300 1.243 . S
C309 C311 1.382 . S
C309 C313 1.393 . S
C309 C316 1.500 . S
C310 C311 1.400 . S
C310 C312 1.384 . S
C311 C309 1.382 . S
C311 C310 1.400 . S
C311 H328 0.930 . S
C312 C310 1.384 . S
C312 C314 1.392 . S
C312 H329 0.931 . S
C313 C309 1.393 . S
C313 C314 1.401 . S
C313 H330 0.930 . S
C314 C312 1.392 . S
C314 C313 1.401 . S
C314 H331 0.930 . S
C315 O298 1.262 1_554 S
C315 O299 1.260 . S
C316 Tb252 2.833 . S
C316 O296 1.251 . S
C316 O301 1.256 . S
C316 C309 1.500 . S
C317 H282 0.929 . S
C317 C295 1.444 . S
C317 C318 1.317 1_554 S
C318 H280 0.930 . S
C318 C286 1.432 . S
C318 C317 1.317 1_556 S
C319 O303 1.283 . S
C319 O306 1.243 . S
C320 C321 1.382 . S
C320 C324 1.393 . S
C320 C327 1.500 . S
C321 C320 1.382 . S
C321 C322 1.400 . S
C321 H332 0.930 . S
C322 C321 1.400 . S
C322 C323 1.384 . S
C323 C322 1.384 . S
C323 C325 1.392 . S
C323 H333 0.931 . S
C324 C320 1.393 . S
C324 C325 1.401 . S
C324 H334 0.930 . S
C325 C323 1.392 . S
C325 C324 1.401 . S
C325 H335 0.930 . S
C326 O304 1.262 . S
C326 O305 1.260 . S
C327 Tb263 2.833 . S
C327 O302 1.251 . S
C327 O307 1.256 . S
C327 C320 1.500 . S
H328 C311 0.930 . S
H329 C312 0.931 . S
H330 C313 0.930 . S
H331 C314 0.930 . S
H332 C321 0.930 . S
H333 C323 0.931 . S
H334 C324 0.930 . S
H335 C325 0.930 . S
Tb336 N367 2.660 . S
Tb336 N374 2.600 . S
Tb336 O380 2.546 . S
Tb336 O381 2.610 . S
Tb336 O383 2.320 . S
Tb336 O384 2.552 . S
Tb336 O385 2.413 . S
Tb336 O387 2.362 . S
Tb336 O388 2.421 . S
Tb336 C400 2.833 . S
C337 C340 1.432 . S
C337 C341 1.414 1_565 S
C337 N344 1.359 . S
C338 C340 1.417 . S
C338 C342 1.432 . S
C338 C350 1.410 . S
C339 C341 1.444 . S
C339 C342 1.317 1_545 S
C339 H362 0.929 . S
C340 C337 1.432 . S
C340 C338 1.417 . S
C340 N348 1.360 . S
C341 C337 1.414 1_545 S
C341 C339 1.444 . S
C341 C346 1.385 . S
C342 C338 1.432 . S
C342 C339 1.317 1_565 S
C342 H354 0.930 1_565 S
C343 C345 1.392 1_545 S
C343 C346 1.370 . S
C343 H355 0.931 . S
N344 C337 1.359 . S
N344 C345 1.327 . S
N344 Tb347 2.600 . S
C345 C343 1.392 1_565 S
C345 N344 1.327 . S
C345 H352 0.930 . S
C346 C341 1.385 . S
C346 C343 1.370 . S
C346 H365 0.930 . S
Tb347 N344 2.600 . S
Tb347 N348 2.660 . S
Tb347 O381 2.362 . S
Tb347 O382 2.421 . S
Tb347 O386 2.546 . S
Tb347 O387 2.610 . S
Tb347 O389 2.320 . S
Tb347 O390 2.552 . S
Tb347 O391 2.413 . S
Tb347 C411 2.833 . S
N348 C340 1.360 . S
N348 Tb347 2.660 . S
N348 C349 1.305 . S
C349 N348 1.305 . S
C349 C351 1.407 . S
C349 H356 0.930 . S
C350 C338 1.410 . S
C350 C351 1.345 . S
C350 H358 0.930 1_455 S
C351 C349 1.407 . S
C351 C350 1.345 . S
C351 H353 0.930 1_455 S
H352 C345 0.930 . S
H353 C351 0.930 1_655 S
H354 C342 0.930 1_545 S
H355 C343 0.931 . S
H356 C349 0.930 . S
H357 C371 0.930 . S
H358 C350 0.930 1_655 S
H359 C377 0.930 . S
H360 C368 0.930 . S
H361 C375 0.931 . S
H362 C339 0.929 . S
H363 C369 0.930 . S
H364 C402 0.930 . S
H365 C346 0.930 . S
H366 C401 0.929 . S
N367 Tb336 2.660 . S
N367 C368 1.305 . S
N367 C372 1.360 . S
C368 H360 0.930 . S
C368 N367 1.305 . S
C368 C371 1.407 . S
C369 H363 0.930 . S
C369 C370 1.410 . S
C369 C371 1.345 . S
C370 C369 1.410 . S
C370 C372 1.417 . S
C370 C402 1.432 . S
C371 H357 0.930 . S
C371 C368 1.407 . S
C371 C369 1.345 . S
C372 N367 1.360 . S
C372 C370 1.417 . S
C372 C376 1.432 . S
H373 C378 0.930 . S
N374 Tb336 2.600 . S
N374 C376 1.359 . S
N374 C377 1.327 . S
C375 H361 0.931 . S
C375 C377 1.392 . S
C375 C378 1.370 . S
C376 C372 1.432 . S
C376 N374 1.359 . S
C376 C379 1.414 . S
C377 H359 0.930 . S
C377 N374 1.327 . S
C377 C375 1.392 . S
C378 H373 0.930 . S
C378 C375 1.370 . S
C378 C379 1.385 . S
C379 C376 1.414 . S
C379 C378 1.385 . S
C379 C401 1.444 . S
O380 Tb336 2.546 . S
O380 C400 1.251 . S
O381 Tb336 2.610 . S
O381 Tb347 2.362 . S
O381 C392 1.283 . S
O382 Tb347 2.421 . S
O382 C399 1.262 . S
O383 Tb336 2.320 . S
O383 C399 1.260 . S
O384 Tb336 2.552 . S
O384 C392 1.243 . S
O385 Tb336 2.413 . S
O385 C400 1.256 . S
O386 Tb347 2.546 . S
O386 C411 1.251 . S
O387 Tb336 2.362 . S
O387 Tb347 2.610 . S
O387 C403 1.283 . S
O388 Tb336 2.421 . S
O388 C410 1.262 . S
O389 Tb347 2.320 . S
O389 C410 1.260 . S
O390 Tb347 2.552 . S
O390 C403 1.243 . S
O391 Tb347 2.413 . S
O391 C411 1.256 . S
C392 O381 1.283 . S
C392 O384 1.243 . S
C393 C395 1.382 . S
C393 C397 1.393 . S
C393 C400 1.500 . S
C394 C395 1.400 . S
C394 C396 1.384 . S
C395 C393 1.382 . S
C395 C394 1.400 . S
C395 H412 0.930 . S
C396 C394 1.384 . S
C396 C398 1.392 . S
C396 H413 0.931 . S
C397 C393 1.393 . S
C397 C398 1.401 . S
C397 H414 0.930 . S
C398 C396 1.392 . S
C398 C397 1.401 . S
C398 H415 0.930 . S
C399 O382 1.262 . S
C399 O383 1.260 . S
C400 Tb336 2.833 . S
C400 O380 1.251 . S
C400 O385 1.256 . S
C400 C393 1.500 . S
C401 H366 0.929 . S
C401 C379 1.444 . S
C401 C402 1.317 . S
C402 H364 0.930 . S
C402 C370 1.432 . S
C402 C401 1.317 . S
C403 O387 1.283 . S
C403 O390 1.243 . S
C404 C405 1.382 . S
C404 C408 1.393 . S
C404 C411 1.500 . S
C405 C404 1.382 . S
C405 C406 1.400 1_455 S
C405 H416 0.930 . S
C406 C405 1.400 1_655 S
C406 C407 1.384 1_655 S
C407 C406 1.384 1_455 S
C407 C409 1.392 . S
C407 H417 0.931 1_455 S
C408 C404 1.393 . S
C408 C409 1.401 . S
C408 H418 0.930 . S
C409 C407 1.392 . S
C409 C408 1.401 . S
C409 H419 0.930 . S
C410 O388 1.262 . S
C410 O389 1.260 . S
C411 Tb347 2.833 . S
C411 O386 1.251 . S
C411 O391 1.256 . S
C411 C404 1.500 . S
H412 C395 0.930 . S
H413 C396 0.931 . S
H414 C397 0.930 . S
H415 C398 0.930 . S
H416 C405 0.930 . S
H417 C407 0.931 1_655 S
H418 C408 0.930 . S
H419 C409 0.930 . S
Tb420 N451 2.660 . S
Tb420 N458 2.600 . S
Tb420 O464 2.546 . S
Tb420 O465 2.610 . S
Tb420 O467 2.320 . S
Tb420 O468 2.552 . S
Tb420 O469 2.413 . S
Tb420 O471 2.362 . S
Tb420 O472 2.421 . S
Tb420 C484 2.833 . S
C421 C424 1.432 . S
C421 C425 1.414 . S
C421 N428 1.359 . S
C422 C424 1.417 . S
C422 C426 1.432 . S
C422 C434 1.410 . S
C423 C425 1.444 . S
C423 C426 1.317 . S
C423 H446 0.929 . S
C424 C421 1.432 . S
C424 C422 1.417 . S
C424 N432 1.360 . S
C425 C421 1.414 . S
C425 C423 1.444 . S
C425 C430 1.385 . S
C426 C422 1.432 . S
C426 C423 1.317 . S
C426 H438 0.930 . S
C427 C429 1.392 . S
C427 C430 1.370 . S
C427 H439 0.931 . S
N428 C421 1.359 . S
N428 C429 1.327 . S
N428 Tb431 2.600 . S
C429 C427 1.392 . S
C429 N428 1.327 . S
C429 H436 0.930 . S
C430 C425 1.385 . S
C430 C427 1.370 . S
C430 H449 0.930 . S
Tb431 N428 2.600 . S
Tb431 N432 2.660 . S
Tb431 O465 2.362 . S
Tb431 O466 2.421 . S
Tb431 O470 2.546 . S
Tb431 O471 2.610 . S
Tb431 O473 2.320 . S
Tb431 O474 2.552 . S
Tb431 O475 2.413 . S
Tb431 C495 2.833 . S
N432 C424 1.360 . S
N432 Tb431 2.660 . S
N432 C433 1.305 . S
C433 N432 1.305 . S
C433 C435 1.407 . S
C433 H440 0.930 . S
C434 C422 1.410 . S
C434 C435 1.345 . S
C434 H442 0.930 1_545 S
C435 C433 1.407 . S
C435 C434 1.345 . S
C435 H437 0.930 1_545 S
H436 C429 0.930 . S
H437 C435 0.930 1_565 S
H438 C426 0.930 . S
H439 C427 0.931 . S
H440 C433 0.930 . S
H441 C455 0.930 . S
H442 C434 0.930 1_565 S
H443 C461 0.930 . S
H444 C452 0.930 . S
H445 C459 0.931 . S
H446 C423 0.929 . S
H447 C453 0.930 . S
H448 C486 0.930 . S
H449 C430 0.930 . S
H450 C485 0.929 . S
N451 Tb420 2.660 . S
N451 C452 1.305 . S
N451 C456 1.360 . S
C452 H444 0.930 . S
C452 N451 1.305 . S
C452 C455 1.407 . S
C453 H447 0.930 . S
C453 C454 1.410 . S
C453 C455 1.345 . S
C454 C453 1.410 . S
C454 C456 1.417 . S
C454 C486 1.432 . S
C455 H441 0.930 . S
C455 C452 1.407 . S
C455 C453 1.345 . S
C456 N451 1.360 . S
C456 C454 1.417 . S
C456 C460 1.432 . S
H457 C462 0.930 . S
N458 Tb420 2.600 . S
N458 C460 1.359 . S
N458 C461 1.327 . S
C459 H445 0.931 . S
C459 C461 1.392 . S
C459 C462 1.370 . S
C460 C456 1.432 . S
C460 N458 1.359 . S
C460 C463 1.414 . S
C461 H443 0.930 . S
C461 N458 1.327 . S
C461 C459 1.392 . S
C462 H457 0.930 . S
C462 C459 1.370 . S
C462 C463 1.385 . S
C463 C460 1.414 . S
C463 C462 1.385 . S
C463 C485 1.444 . S
O464 Tb420 2.546 . S
O464 C484 1.251 . S
O465 Tb420 2.610 . S
O465 Tb431 2.362 . S
O465 C476 1.283 . S
O466 Tb431 2.421 . S
O466 C483 1.262 . S
O467 Tb420 2.320 . S
O467 C483 1.260 . S
O468 Tb420 2.552 . S
O468 C476 1.243 . S
O469 Tb420 2.413 . S
O469 C484 1.256 . S
O470 Tb431 2.546 . S
O470 C495 1.251 . S
O471 Tb420 2.362 . S
O471 Tb431 2.610 . S
O471 C487 1.283 . S
O472 Tb420 2.421 . S
O472 C494 1.262 . S
O473 Tb431 2.320 . S
O473 C494 1.260 . S
O474 Tb431 2.552 . S
O474 C487 1.243 . S
O475 Tb431 2.413 . S
O475 C495 1.256 . S
C476 O465 1.283 . S
C476 O468 1.243 . S
C477 C479 1.382 . S
C477 C481 1.393 . S
C477 C484 1.500 . S
C478 C479 1.400 . S
C478 C480 1.384 . S
C479 C477 1.382 . S
C479 C478 1.400 . S
C479 H496 0.930 . S
C480 C478 1.384 . S
C480 C482 1.392 . S
C480 H497 0.931 . S
C481 C477 1.393 . S
C481 C482 1.401 . S
C481 H498 0.930 . S
C482 C480 1.392 . S
C482 C481 1.401 . S
C482 H499 0.930 . S
C483 O466 1.262 . S
C483 O467 1.260 . S
C484 Tb420 2.833 . S
C484 O464 1.251 . S
C484 O469 1.256 . S
C484 C477 1.500 . S
C485 H450 0.929 . S
C485 C463 1.444 . S
C485 C486 1.317 . S
C486 H448 0.930 . S
C486 C454 1.432 . S
C486 C485 1.317 . S
C487 O471 1.283 . S
C487 O474 1.243 . S
C488 C489 1.382 . S
C488 C492 1.393 . S
C488 C495 1.500 . S
C489 C488 1.382 . S
C489 C490 1.400 1_545 S
C489 H500 0.930 . S
C490 C489 1.400 1_565 S
C490 C491 1.384 1_565 S
C491 C490 1.384 1_545 S
C491 C493 1.392 . S
C491 H501 0.931 1_545 S
C492 C488 1.393 . S
C492 C493 1.401 . S
C492 H502 0.930 . S
C493 C491 1.392 . S
C493 C492 1.401 . S
C493 H503 0.930 . S
C494 O472 1.262 . S
C494 O473 1.260 . S
C495 Tb431 2.833 . S
C495 O470 1.251 . S
C495 O475 1.256 . S
C495 C488 1.500 . S
H496 C479 0.930 . S
H497 C480 0.931 . S
H498 C481 0.930 . S
H499 C482 0.930 . S
H500 C489 0.930 . S
H501 C491 0.931 1_565 S
H502 C492 0.930 . S
H503 C493 0.930 . S
C504 C505 1.170 . S
C504 C506 1.380 . S
C505 C504 1.170 . S
C506 C504 1.380 . S
C506 C507 1.170 . S
C507 C506 1.170 . S
C508 C509 1.170 . S
C508 C510 1.380 . S
C509 C508 1.170 . S
C510 C508 1.380 . S
C510 C511 1.170 . S
C511 C510 1.170 . S
C512 C513 1.170 . S
C512 C514 1.380 . S
C513 C512 1.170 . S
C514 C512 1.380 . S
C514 C515 1.170 . S
C515 C514 1.170 . S
C516 C517 1.170 . S
C516 C518 1.380 . S
C517 C516 1.170 . S
C518 C516 1.380 . S
C518 C519 1.170 . S
C519 C518 1.170 . S
C520 C521 1.170 . S
C520 C522 1.380 . S
C521 C520 1.170 . S
C522 C520 1.380 . S
C522 C523 1.170 . S
C523 C522 1.170 . S
C524 C525 1.170 . S
C524 C526 1.380 . S
C525 C524 1.170 . S
C526 C524 1.380 . S
C526 C527 1.170 . S
C527 C526 1.170 . S
C528 C529 1.170 . S
C528 C530 1.380 . S
C529 C528 1.170 . S
C530 C528 1.380 . S
C530 C531 1.170 . S
C531 C530 1.170 . S
C532 C533 1.170 . S
C532 C534 1.380 1_455 S
C533 C532 1.170 . S
C534 C532 1.380 1_655 S
C534 C535 1.170 . S
C535 C534 1.170 . S
C536 C537 1.170 . S
C536 C538 1.380 1_545 S
C537 C536 1.170 . S
C538 C536 1.380 1_565 S
C538 C539 1.170 . S
C539 C538 1.170 . S
C540 C541 1.170 . S
C540 C542 1.380 . S
C541 C540 1.170 . S
C542 C540 1.380 . S
C542 C543 1.170 . S
C543 C542 1.170 . S
C544 C545 1.170 . S
C544 C546 1.380 1_455 S
C545 C544 1.170 . S
C546 C544 1.380 1_655 S
C546 C547 1.170 . S
C547 C546 1.170 . S
C548 C549 1.170 . S
C548 C550 1.380 1_565 S
C549 C548 1.170 . S
C550 C548 1.380 1_545 S
C550 C551 1.170 . S
C551 C550 1.170 . S
C552 C553 1.170 . S
C552 C554 1.380 . S
C553 C552 1.170 . S
C554 C552 1.380 . S
C554 C555 1.170 . S
C555 C554 1.170 . S
C556 C557 1.170 . S
C556 C558 1.380 . S
C557 C556 1.170 . S
C558 C556 1.380 . S
C558 C559 1.170 . S
C559 C558 1.170 . S
C560 C561 1.170 . S
C560 C562 1.380 . S
C561 C560 1.170 . S
C562 C560 1.380 . S
C562 C563 1.170 . S
C563 C562 1.170 . S
C564 C565 1.170 . S
C564 C566 1.380 . S
C565 C564 1.170 . S
C566 C564 1.380 . S
C566 C567 1.170 . S
C567 C566 1.170 . S
C568 C569 1.170 . S
C568 C570 1.380 . S
C569 C568 1.170 . S
C570 C568 1.380 . S
C570 C571 1.170 . S
C571 C570 1.170 . S
C572 C573 1.170 . S
C572 C574 1.380 . S
C573 C572 1.170 . S
C574 C572 1.380 . S
C574 C575 1.170 . S
C575 C574 1.170 . S
C505 C403 1.203 . S
C507 C58 0.994 . S
C509 C487 1.180 . S
C511 C142 1.067 . S
C513 C67 1.208 . S
C515 C226 1.019 . S
C517 C151 1.211 . S
C519 C310 0.993 . S
C521 C235 1.168 . S
C523 C394 1.032 . S
C525 C319 1.145 . S
C527 C478 1.096 . S
C529 C74 1.984 . S
C531 C326 1.965 . S
C533 C410 1.983 . S
C535 C158 1.966 . S
C537 C494 1.981 . S
C539 C242 1.969 . S
C541 C231 1.924 . S
C543 C483 1.888 . S
C545 C63 1.886 . S
C547 C315 1.917 . S
C549 C399 1.885 . S
C551 C147 1.921 . S
C553 C476 1.249 . S
C555 C70 1.290 . S
C557 C154 1.234 . S
C559 C56 1.298 . S
C561 C238 1.228 . S
C563 C140 1.292 . S
C565 C224 1.288 . S
C567 C322 1.228 . S
C569 C406 1.262 . S
C571 C308 1.285 . S
C573 C490 1.259 . S
C575 C392 1.249 . S
