# Generated by pormake.
# Topology ukt, (4)-cn, num edge types: 1
# Building blocks:
#     Node 0, Type 0, BuildingBlock: AZAVOO_clean_sbu_0, # of connection points: 4
#     Node 1, Type 0, BuildingBlock: AZAVOO_clean_sbu_0, # of connection points: 4
#     Node 2, Type 0, BuildingBlock: AZAVOO_clean_sbu_0, # of connection points: 4
#     Node 3, Type 0, BuildingBlock: AZAVOO_clean_sbu_0, # of connection points: 4
#     Node 4, Type 0, BuildingBlock: AZAVOO_clean_sbu_0, # of connection points: 4
#     Node 5, Type 0, BuildingBlock: AZAVOO_clean_sbu_0, # of connection points: 4
#     Node 6, Type 0, BuildingBlock: AZAVOO_clean_sbu_0, # of connection points: 4
#     Node 7, Type 0, BuildingBlock: AZAVOO_clean_sbu_0, # of connection points: 4
#     Node 8, Type 0, BuildingBlock: AZAVOO_clean_sbu_0, # of connection points: 4
#     Node 9, Type 0, BuildingBlock: AZAVOO_clean_sbu_0, # of connection points: 4
#     Node 10, Type 0, BuildingBlock: AZAVOO_clean_sbu_0, # of connection points: 4
#     Node 11, Type 0, BuildingBlock: AZAVOO_clean_sbu_0, # of connection points: 4
#     Node 12, Type 0, BuildingBlock: AZAVOO_clean_sbu_0, # of connection points: 4
#     Node 13, Type 0, BuildingBlock: AZAVOO_clean_sbu_0, # of connection points: 4
#     Node 14, Type 0, BuildingBlock: AZAVOO_clean_sbu_0, # of connection points: 4
#     Node 15, Type 0, BuildingBlock: AZAVOO_clean_sbu_0, # of connection points: 4
#     Edge 16, Type (0, 0), BuildingBlock: UVAHIK_clean_linker_0, # of connection points: 2
#     Edge 17, Type (0, 0), BuildingBlock: UVAHIK_clean_linker_0, # of connection points: 2
#     Edge 18, Type (0, 0), BuildingBlock: UVAHIK_clean_linker_0, # of connection points: 2
#     Edge 19, Type (0, 0), BuildingBlock: UVAHIK_clean_linker_0, # of connection points: 2
#     Edge 20, Type (0, 0), BuildingBlock: UVAHIK_clean_linker_0, # of connection points: 2
#     Edge 21, Type (0, 0), BuildingBlock: UVAHIK_clean_linker_0, # of connection points: 2
#     Edge 22, Type (0, 0), BuildingBlock: UVAHIK_clean_linker_0, # of connection points: 2
#     Edge 23, Type (0, 0), BuildingBlock: UVAHIK_clean_linker_0, # of connection points: 2
#     Edge 24, Type (0, 0), BuildingBlock: UVAHIK_clean_linker_0, # of connection points: 2
#     Edge 25, Type (0, 0), BuildingBlock: UVAHIK_clean_linker_0, # of connection points: 2
#     Edge 26, Type (0, 0), BuildingBlock: UVAHIK_clean_linker_0, # of connection points: 2
#     Edge 27, Type (0, 0), BuildingBlock: UVAHIK_clean_linker_0, # of connection points: 2
#     Edge 28, Type (0, 0), BuildingBlock: UVAHIK_clean_linker_0, # of connection points: 2
#     Edge 29, Type (0, 0), BuildingBlock: UVAHIK_clean_linker_0, # of connection points: 2
#     Edge 30, Type (0, 0), BuildingBlock: UVAHIK_clean_linker_0, # of connection points: 2
#     Edge 31, Type (0, 0), BuildingBlock: UVAHIK_clean_linker_0, # of connection points: 2
#     Edge 32, Type (0, 0), BuildingBlock: UVAHIK_clean_linker_0, # of connection points: 2
#     Edge 33, Type (0, 0), BuildingBlock: UVAHIK_clean_linker_0, # of connection points: 2
#     Edge 34, Type (0, 0), BuildingBlock: UVAHIK_clean_linker_0, # of connection points: 2
#     Edge 35, Type (0, 0), BuildingBlock: UVAHIK_clean_linker_0, # of connection points: 2
#     Edge 36, Type (0, 0), BuildingBlock: UVAHIK_clean_linker_0, # of connection points: 2
#     Edge 37, Type (0, 0), BuildingBlock: UVAHIK_clean_linker_0, # of connection points: 2
#     Edge 38, Type (0, 0), BuildingBlock: UVAHIK_clean_linker_0, # of connection points: 2
#     Edge 39, Type (0, 0), BuildingBlock: UVAHIK_clean_linker_0, # of connection points: 2
#     Edge 40, Type (0, 0), BuildingBlock: UVAHIK_clean_linker_0, # of connection points: 2
#     Edge 41, Type (0, 0), BuildingBlock: UVAHIK_clean_linker_0, # of connection points: 2
#     Edge 42, Type (0, 0), BuildingBlock: UVAHIK_clean_linker_0, # of connection points: 2
#     Edge 43, Type (0, 0), BuildingBlock: UVAHIK_clean_linker_0, # of connection points: 2
#     Edge 44, Type (0, 0), BuildingBlock: UVAHIK_clean_linker_0, # of connection points: 2
#     Edge 45, Type (0, 0), BuildingBlock: UVAHIK_clean_linker_0, # of connection points: 2
#     Edge 46, Type (0, 0), BuildingBlock: UVAHIK_clean_linker_0, # of connection points: 2
#     Edge 47, Type (0, 0), BuildingBlock: UVAHIK_clean_linker_0, # of connection points: 2
# Relax obj value: 0.306
# Max RMSD: 0.206
# Mean RMSD: 0.197
data_MOF--net-ukt--node1-AZAVOO_clean_sbu_0--edge1-UVAHIK_clean_linker_0
_symmetry_space_group_name_H-M    P1
_symmetry_Int_Tables_number       1
_symmetry_cell_setting            triclinic
loop_
_symmetry_equiv_pos_as_xyz
'x, y, z'
_cell_length_a     52.97299
_cell_length_b     52.960701
_cell_length_c     48.954892
_cell_angle_alpha  89.979153
_cell_angle_beta   90.018169
_cell_angle_gamma 89.991995
loop_
_atom_site_label
_atom_site_type_symbol
_atom_site_fract_x
_atom_site_fract_y
_atom_site_fract_z
_atom_type_partial_charge
Mg0 Mg 0.57379 0.12663 0.12545 0.0
O1 O 0.60898 0.11921 0.09769 0.0
O2 O 0.63105 0.15519 0.09293 0.0
Mg3 Mg 0.62214 0.17532 0.1325 0.0
C4 C 0.62578 0.13264 0.08565 0.0
C5 C 0.54155 0.08658 0.09981 0.0
O6 O 0.52783 0.10718 0.09813 0.0
O7 O 0.5927 0.11478 0.16569 0.0
O8 O 0.62407 0.13579 0.14999 0.0
O9 O 0.55873 0.14888 0.0912 0.0
O10 O 0.58168 0.16649 0.12387 0.0
C11 C 0.60979 0.13106 0.17004 0.0
C12 C 0.57077 0.16834 0.10036 0.0
O13 O 0.56119 0.08689 0.11468 0.0
Mg14 Mg 0.36366 0.56163 0.11184 0.0
O15 O 0.3725 0.60225 0.09574 0.0
O16 O 0.33718 0.62565 0.0963 0.0
Mg17 Mg 0.3144 0.60634 0.12916 0.0
C18 C 0.36001 0.62201 0.08881 0.0
C19 C 0.40735 0.53618 0.08341 0.0
O20 O 0.38747 0.52375 0.07463 0.0
O21 O 0.37095 0.56876 0.15765 0.0
O22 O 0.35309 0.60409 0.14818 0.0
O23 O 0.34513 0.55591 0.07222 0.0
O24 O 0.32405 0.57 0.10822 0.0
C25 C 0.35835 0.58761 0.16593 0.0
C26 C 0.32466 0.56541 0.08227 0.0
O27 O 0.40452 0.55194 0.1027 0.0
Mg28 Mg 0.94297 0.35691 0.10419 0.0
O29 O 0.90221 0.36293 0.09004 0.0
O30 O 0.8816 0.32624 0.09046 0.0
Mg31 Mg 0.90882 0.29682 0.10769 0.0
C32 C 0.88242 0.34989 0.08556 0.0
C33 C 0.96435 0.40704 0.08781 0.0
O34 O 0.98032 0.39023 0.07827 0.0
O35 O 0.93122 0.35504 0.14931 0.0
O36 O 0.91086 0.318 0.14826 0.0
O37 O 0.95213 0.34617 0.06112 0.0
O38 O 0.94129 0.31888 0.09324 0.0
C39 C 0.91861 0.33753 0.16105 0.0
C40 C 0.94639 0.32331 0.06803 0.0
O41 O 0.94691 0.39958 0.10365 0.0
Mg42 Mg 0.12788 0.93137 0.11981 0.0
O43 O 0.11912 0.89053 0.1031 0.0
O44 O 0.15504 0.86794 0.10436 0.0
Mg45 Mg 0.17808 0.88758 0.13636 0.0
C46 C 0.13214 0.8709 0.09677 0.0
C47 C 0.08585 0.96186 0.09655 0.0
O48 O 0.10639 0.97534 0.09277 0.0
O49 O 0.12137 0.92389 0.16582 0.0
O50 O 0.13925 0.88906 0.15501 0.0
O51 O 0.1458 0.93768 0.08 0.0
O52 O 0.16743 0.9237 0.11574 0.0
C53 C 0.13494 0.90537 0.17314 0.0
C54 C 0.16651 0.92846 0.08985 0.0
O55 O 0.08731 0.9422 0.11131 0.0
Mg56 Mg 0.56545 0.36685 0.37666 0.0
O57 O 0.60713 0.37281 0.39122 0.0
O58 O 0.62686 0.33533 0.39294 0.0
Mg59 Mg 0.60432 0.31239 0.36281 0.0
C60 C 0.62574 0.35886 0.39862 0.0
C61 C 0.53903 0.41519 0.39396 0.0
O62 O 0.52138 0.39801 0.39715 0.0
O63 O 0.57209 0.36918 0.33022 0.0
O64 O 0.60657 0.34949 0.33997 0.0
O65 O 0.55882 0.35242 0.41797 0.0
O66 O 0.56988 0.32734 0.3837 0.0
C67 C 0.59047 0.35574 0.32218 0.0
C68 C 0.56612 0.33042 0.4096 0.0
O69 O 0.55943 0.40891 0.38219 0.0
Mg70 Mg 0.13092 0.56562 0.3811 0.0
O71 O 0.12407 0.6059 0.39949 0.0
O72 O 0.16021 0.62802 0.39938 0.0
Mg73 Mg 0.18184 0.60912 0.36541 0.0
C74 C 0.13728 0.62504 0.40687 0.0
C75 C 0.08618 0.54258 0.41051 0.0
O76 O 0.1056 0.53018 0.42043 0.0
O77 O 0.1233 0.57523 0.33574 0.0
O78 O 0.1427 0.60902 0.34738 0.0
O79 O 0.15028 0.55717 0.41982 0.0
O80 O 0.171 0.57202 0.38398 0.0
C81 C 0.13739 0.59347 0.32875 0.0
C82 C 0.17096 0.56599 0.40956 0.0
O83 O 0.08969 0.55742 0.39048 0.0
Mg84 Mg 0.92592 0.13282 0.37994 0.0
O85 O 0.88723 0.11829 0.39639 0.0
O86 O 0.85849 0.14953 0.39584 0.0
Mg87 Mg 0.87477 0.1772 0.36557 0.0
C88 C 0.8656 0.12739 0.40277 0.0
C89 C 0.95918 0.09405 0.40542 0.0
O90 O 0.96981 0.11584 0.41109 0.0
O91 O 0.91878 0.12582 0.33415 0.0
O92 O 0.88219 0.14064 0.34342 0.0
O93 O 0.92975 0.15068 0.42004 0.0
O94 O 0.9128 0.17098 0.38481 0.0
C95 C 0.90074 0.14021 0.32725 0.0
C96 C 0.91815 0.17029 0.41056 0.0
O97 O 0.94141 0.09362 0.38802 0.0
Mg98 Mg 0.36432 0.93441 0.38264 0.0
O99 O 0.37371 0.89326 0.3945 0.0
O100 O 0.33952 0.86855 0.39107 0.0
Mg101 Mg 0.30814 0.89171 0.3719 0.0
C102 C 0.36265 0.87196 0.39737 0.0
C103 C 0.4094 0.95914 0.40907 0.0
O104 O 0.38994 0.97152 0.41895 0.0
O105 O 0.37051 0.92767 0.33594 0.0
O106 O 0.3366 0.90584 0.34317 0.0
O107 O 0.34795 0.93927 0.42455 0.0
O108 O 0.32469 0.92624 0.39015 0.0
C109 C 0.35287 0.91391 0.32664 0.0
C110 C 0.32656 0.93093 0.41577 0.0
O111 O 0.40571 0.94358 0.38975 0.0
Mg112 Mg 0.42258 0.88142 0.89602 0.0
O113 O 0.42793 0.84556 0.92196 0.0
O114 O 0.42322 0.856 0.96593 0.0
Mg115 Mg 0.41494 0.89808 0.96825 0.0
C116 C 0.42756 0.83973 0.94728 0.0
C117 C 0.42681 0.86 0.83719 0.0
O118 O 0.40651 0.87404 0.83447 0.0
O119 O 0.46179 0.89586 0.90818 0.0
O120 O 0.45456 0.90536 0.95197 0.0
O121 O 0.38113 0.87364 0.89405 0.0
O122 O 0.39934 0.89612 0.92662 0.0
C123 C 0.46925 0.90387 0.9314 0.0
C124 C 0.37936 0.88527 0.9172 0.0
O125 O 0.43857 0.86017 0.8598 0.0
Mg126 Mg 0.62007 0.41836 0.89633 0.0
O127 O 0.65387 0.4233 0.92566 0.0
O128 O 0.63902 0.42038 0.96833 0.0
Mg129 Mg 0.59689 0.41193 0.9666 0.0
C130 C 0.65713 0.42376 0.95153 0.0
C131 C 0.64419 0.42278 0.83868 0.0
O132 O 0.62898 0.40357 0.83445 0.0
O133 O 0.60563 0.45808 0.90662 0.0
O134 O 0.59129 0.4513 0.94901 0.0
O135 O 0.62693 0.37654 0.89591 0.0
O136 O 0.60235 0.39617 0.92561 0.0
C137 C 0.59516 0.46572 0.92858 0.0
C138 C 0.61341 0.37574 0.91789 0.0
O139 O 0.64414 0.43351 0.86186 0.0
Mg140 Mg 0.07245 0.61431 0.88924 0.0
O141 O 0.07472 0.64634 0.9209 0.0
O142 O 0.08846 0.63002 0.96029 0.0
Mg143 Mg 0.09099 0.58736 0.95511 0.0
C144 C 0.08153 0.64883 0.94578 0.0
C145 C 0.06016 0.64117 0.83533 0.0
O146 O 0.0767 0.62421 0.82737 0.0
O147 O 0.03464 0.60167 0.90729 0.0
O148 O 0.04844 0.58661 0.94737 0.0
O149 O 0.11386 0.61971 0.88137 0.0
O150 O 0.09818 0.5929 0.9115 0.0
C151 C 0.03067 0.59187 0.93072 0.0
C152 C 0.11757 0.60398 0.90122 0.0
O153 O 0.05335 0.6415 0.86019 0.0
Mg154 Mg 0.88068 0.06506 0.8846 0.0
O155 O 0.84363 0.06439 0.90921 0.0
O156 O 0.85293 0.06978 0.95334 0.0
Mg157 Mg 0.89542 0.07501 0.95693 0.0
C158 C 0.83701 0.06618 0.9342 0.0
C159 C 0.85581 0.0638 0.82802 0.0
O160 O 0.86777 0.08553 0.82723 0.0
O161 O 0.8916 0.02541 0.89932 0.0
O162 O 0.9007 0.03437 0.94287 0.0
O163 O 0.87717 0.10706 0.8808 0.0
O164 O 0.89757 0.08781 0.91417 0.0
C165 C 0.89872 0.01873 0.92317 0.0
C166 C 0.88944 0.10852 0.9036 0.0
O167 O 0.85872 0.0496 0.84867 0.0
Mg168 Mg 0.42342 0.61883 0.60538 0.0
O169 O 0.42232 0.64936 0.57169 0.0
O170 O 0.41084 0.63055 0.53276 0.0
Mg171 Mg 0.40845 0.58824 0.54015 0.0
C172 C 0.41671 0.65029 0.54631 0.0
C173 C 0.42854 0.64892 0.65771 0.0
O174 O 0.41028 0.63283 0.66289 0.0
O175 O 0.46256 0.60593 0.59045 0.0
O176 O 0.45029 0.58877 0.5508 0.0
O177 O 0.38153 0.62353 0.61033 0.0
O178 O 0.39932 0.59576 0.58279 0.0
C179 C 0.46745 0.59497 0.56781 0.0
C180 C 0.37918 0.60675 0.5913 0.0
O181 O 0.43972 0.64769 0.63479 0.0
Mg182 Mg 0.88191 0.42505 0.60526 0.0
O183 O 0.8475 0.42428 0.57646 0.0
O184 O 0.86133 0.41705 0.53401 0.0
Mg185 Mg 0.90403 0.41316 0.53554 0.0
C186 C 0.84351 0.42121 0.55094 0.0
C187 C 0.85649 0.4302 0.66137 0.0
O188 O 0.87242 0.41164 0.66587 0.0
O189 O 0.89263 0.46452 0.59001 0.0
O190 O 0.90574 0.45466 0.54787 0.0
O191 O 0.8782 0.38337 0.61037 0.0
O192 O 0.90163 0.40146 0.57858 0.0
C193 C 0.90125 0.47075 0.56662 0.0
C194 C 0.89199 0.38117 0.58868 0.0
O195 O 0.85661 0.44104 0.63824 0.0
Mg196 Mg 0.06986 0.88138 0.6083 0.0
O197 O 0.06841 0.8481 0.57808 0.0
O198 O 0.07623 0.8632 0.53626 0.0
Mg199 Mg 0.08296 0.90551 0.53961 0.0
C200 C 0.07101 0.845 0.55238 0.0
C201 C 0.06265 0.85544 0.66388 0.0
O202 O 0.08191 0.87036 0.66896 0.0
O203 O 0.03101 0.89514 0.59381 0.0
O204 O 0.04174 0.90912 0.55223 0.0
O205 O 0.11167 0.87546 0.61241 0.0
O206 O 0.09386 0.90119 0.58256 0.0
C207 C 0.02533 0.90493 0.57076 0.0
C208 C 0.11396 0.89069 0.59187 0.0
O209 O 0.05249 0.85608 0.6404 0.0
Mg210 Mg 0.61227 0.07854 0.60709 0.0
O211 O 0.64548 0.07693 0.57681 0.0
O212 O 0.63082 0.08705 0.53542 0.0
Mg213 Mg 0.58832 0.09295 0.53872 0.0
C214 C 0.6489 0.08081 0.55132 0.0
C215 C 0.63811 0.07158 0.66228 0.0
O216 O 0.62389 0.09153 0.66652 0.0
O217 O 0.59881 0.04002 0.59187 0.0
O218 O 0.58532 0.05118 0.55018 0.0
O219 O 0.61912 0.12002 0.61176 0.0
O220 O 0.59286 0.10327 0.58169 0.0
C221 C 0.58946 0.0346 0.56857 0.0
C222 C 0.60412 0.12293 0.59112 0.0
O223 O 0.63712 0.06065 0.63923 0.0
C224 C 0.58743 0.21194 0.09201 0.0
C225 C 0.57565 0.19 0.08216 0.0
C226 C 0.59321 0.23176 0.07419 0.0
C227 C 0.60515 0.24581 0.00189 0.0
H228 H 0.58639 0.31418 0.0214 0.0
C229 C 0.60738 0.32937 0.92505 0.0
C230 C 0.61319 0.3533 0.93555 0.0
C231 C 0.60485 0.30869 0.94271 0.0
C232 C 0.59219 0.29528 0.01577 0.0
H233 H 0.56062 0.17163 0.04599 0.0
H234 H 0.57079 0.20615 0.01504 0.0
H235 H 0.57812 0.27989 0.05322 0.0
H236 H 0.62323 0.37405 0.97202 0.0
H237 H 0.61966 0.33819 0.00259 0.0
H238 H 0.61943 0.2612 0.9645 0.0
C239 C 0.57566 0.20797 0.03644 0.0
C240 C 0.58736 0.27564 0.03403 0.0
C241 C 0.56964 0.18832 0.05425 0.0
C242 C 0.6179 0.35599 0.96355 0.0
C243 C 0.61582 0.33539 0.98107 0.0
C244 C 0.61023 0.26552 0.98368 0.0
C245 C 0.58756 0.22984 0.0462 0.0
C246 C 0.59364 0.25072 0.02721 0.0
C247 C 0.60853 0.31163 0.97105 0.0
C248 C 0.60373 0.2905 0.99039 0.0
H249 H 0.59229 0.21376 0.11341 0.0
H250 H 0.60248 0.24842 0.08221 0.0
H251 H 0.6104 0.22674 0.99626 0.0
H252 H 0.60378 0.3269 0.90343 0.0
H253 H 0.59912 0.29068 0.93428 0.0
C254 C 0.16032 0.62126 0.91355 0.0
C255 C 0.14214 0.60198 0.91532 0.0
C256 C 0.18151 0.62097 0.93075 0.0
C257 C 0.23051 0.60636 0.96219 0.0
H258 H 0.21547 0.58754 0.03708 0.0
C259 C 0.30573 0.56786 0.0357 0.0
C260 C 0.30419 0.57354 0.0637 0.0
C261 C 0.28693 0.57579 0.01769 0.0
C262 C 0.22004 0.59325 0.01642 0.0
H263 H 0.13282 0.5664 0.93477 0.0
H264 H 0.16958 0.56586 0.96445 0.0
H265 H 0.18122 0.59291 0.00453 0.0
H266 H 0.28175 0.59228 0.09468 0.0
H267 H 0.24899 0.60647 0.06312 0.0
H268 H 0.26944 0.60643 0.9741 0.0
C269 C 0.16724 0.58151 0.95041 0.0
C270 C 0.20041 0.59602 0.99768 0.0
C271 C 0.14627 0.58175 0.9333 0.0
C272 C 0.28348 0.58753 0.07327 0.0
C273 C 0.26468 0.59562 0.05517 0.0
C274 C 0.25024 0.60353 0.98099 0.0
C275 C 0.18467 0.60146 0.94995 0.0
C276 C 0.20548 0.60184 0.9702 0.0
C277 C 0.26612 0.58969 0.02718 0.0
C278 C 0.24525 0.59626 0.00815 0.0
H279 H 0.15759 0.63711 0.89987 0.0
H280 H 0.19478 0.63651 0.92988 0.0
H281 H 0.23493 0.61098 0.94118 0.0
H282 H 0.3214 0.55706 0.02762 0.0
H283 H 0.2884 0.57041 0.99641 0.0
C284 C 0.88237 0.15533 0.90781 0.0
C285 C 0.89274 0.13278 0.91809 0.0
C286 C 0.88566 0.1781 0.92194 0.0
C287 C 0.8973 0.20266 0.99023 0.0
H288 H 0.93035 0.25987 0.95605 0.0
C289 C 0.94406 0.27814 0.05525 0.0
C290 C 0.94175 0.30353 0.04757 0.0
C291 C 0.93661 0.25901 0.03752 0.0
C292 C 0.92071 0.24425 0.96578 0.0
H293 H 0.91532 0.11667 0.95077 0.0
H294 H 0.92033 0.156 0.97558 0.0
H295 H 0.91815 0.22335 0.92828 0.0
H296 H 0.93054 0.32901 0.01514 0.0
H297 H 0.9169 0.29538 0.98406 0.0
H298 H 0.89974 0.22315 0.02764 0.0
C299 C 0.90952 0.15605 0.95678 0.0
C300 C 0.91374 0.2234 0.94989 0.0
C301 C 0.90658 0.1335 0.94255 0.0
C302 C 0.93268 0.30951 0.0214 0.0
C303 C 0.92485 0.29028 0.00368 0.0
C304 C 0.90397 0.2235 0.006 0.0
C305 C 0.89906 0.17852 0.94669 0.0
C306 C 0.9027 0.20215 0.9622 0.0
C307 C 0.92623 0.26482 0.01183 0.0
C308 C 0.91654 0.24418 0.99417 0.0
H309 H 0.87171 0.15538 0.88893 0.0
H310 H 0.87748 0.19526 0.91379 0.0
H311 H 0.88845 0.18661 8e-05 0.0
H312 H 0.95124 0.27307 0.07524 0.0
H313 H 0.93871 0.23961 0.04413 0.0
C314 C 0.35661 0.88321 0.96178 0.0
C315 C 0.35577 0.88459 0.93318 0.0
C316 C 0.33444 0.88393 0.9771 0.0
C317 C 0.27077 0.90905 0.97465 0.0
H318 H 0.26055 0.86794 0.03933 0.0
C319 C 0.18322 0.92146 0.04285 0.0
C320 C 0.18708 0.92088 0.07124 0.0
C321 C 0.20236 0.91416 0.02497 0.0
C322 C 0.26324 0.8797 0.02146 0.0
H323 H 0.33106 0.88658 0.89799 0.0
H324 H 0.29202 0.88826 0.92492 0.0
H325 H 0.29631 0.85932 0.00922 0.0
H326 H 0.21397 0.912 0.10321 0.0
H327 H 0.24776 0.89983 0.07191 0.0
H328 H 0.23835 0.93002 0.98724 0.0
C329 C 0.30995 0.88676 0.93544 0.0
C330 C 0.28362 0.87467 0.00416 0.0
C331 C 0.33222 0.88571 0.92006 0.0
C332 C 0.21046 0.91264 0.08142 0.0
C333 C 0.22972 0.90548 0.06348 0.0
C334 C 0.2505 0.91418 0.99202 0.0
C335 C 0.31091 0.88617 0.96415 0.0
C336 C 0.28779 0.88954 0.9808 0.0
C337 C 0.22593 0.90629 0.03502 0.0
C338 C 0.24668 0.89979 0.01583 0.0
H339 H 0.37434 0.88147 0.97245 0.0
H340 H 0.33581 0.88352 0.99918 0.0
H341 H 0.27372 0.92105 0.95702 0.0
H342 H 0.16531 0.92742 0.03433 0.0
H343 H 0.19863 0.91459 0.00322 0.0
C344 C 0.58202 0.28703 0.4213 0.0
C345 C 0.57286 0.3107 0.42969 0.0
C346 C 0.58846 0.26867 0.44067 0.0
C347 C 0.57246 0.24918 0.50992 0.0
H348 H 0.63194 0.20667 0.50506 0.0
C349 C 0.58034 0.15218 0.56097 0.0
C350 C 0.60205 0.14714 0.57648 0.0
C351 C 0.57867 0.17409 0.54533 0.0
C352 C 0.61542 0.21863 0.50678 0.0
H353 H 0.56389 0.33386 0.46497 0.0
H354 H 0.57487 0.30183 0.49854 0.0
H355 H 0.62615 0.24142 0.4724 0.0
H356 H 0.63909 0.16097 0.58788 0.0
H357 H 0.63636 0.19936 0.55974 0.0
H358 H 0.56132 0.22601 0.54366 0.0
C359 C 0.57694 0.29741 0.47705 0.0
C360 C 0.61199 0.23829 0.48801 0.0
C361 C 0.57063 0.31574 0.45777 0.0
C362 C 0.62206 0.16457 0.57627 0.0
C363 C 0.62059 0.18635 0.56008 0.0
C364 C 0.57571 0.2294 0.52838 0.0
C365 C 0.58568 0.27361 0.46872 0.0
C366 C 0.59033 0.25359 0.48927 0.0
C367 C 0.59886 0.19123 0.54448 0.0
C368 C 0.59704 0.21376 0.52677 0.0
H369 H 0.58399 0.28258 0.39982 0.0
H370 H 0.59493 0.25037 0.43369 0.0
H371 H 0.55549 0.26053 0.51127 0.0
H372 H 0.56467 0.13904 0.56077 0.0
H373 H 0.5618 0.17736 0.53331 0.0
C374 C 0.33635 0.62179 0.57644 0.0
C375 C 0.35536 0.60329 0.5761 0.0
C376 C 0.31567 0.61992 0.5587 0.0
C377 C 0.26791 0.60287 0.52783 0.0
H378 H 0.28296 0.58066 0.45405 0.0
C379 C 0.1913 0.56548 0.45547 0.0
C380 C 0.1925 0.57187 0.42765 0.0
C381 C 0.21094 0.57183 0.47314 0.0
C382 C 0.27844 0.58719 0.47444 0.0
H383 H 0.3668 0.56752 0.55844 0.0
H384 H 0.33085 0.56422 0.5278 0.0
H385 H 0.31727 0.58727 0.48643 0.0
H386 H 0.21549 0.58968 0.39645 0.0
H387 H 0.24979 0.60106 0.42748 0.0
H388 H 0.22905 0.60276 0.51582 0.0
C389 C 0.33216 0.58049 0.54113 0.0
C390 C 0.29807 0.59069 0.49308 0.0
C391 C 0.35268 0.58232 0.55881 0.0
C392 C 0.21395 0.58454 0.41779 0.0
C393 C 0.23363 0.59099 0.43555 0.0
C394 C 0.24824 0.5993 0.50918 0.0
C395 C 0.31376 0.59954 0.54038 0.0
C396 C 0.29297 0.59804 0.52013 0.0
C397 C 0.23227 0.58478 0.46346 0.0
C398 C 0.25326 0.59094 0.48243 0.0
H399 H 0.33797 0.6382 0.58953 0.0
H400 H 0.3017 0.63486 0.55859 0.0
H401 H 0.26342 0.60856 0.54852 0.0
H402 H 0.17513 0.55556 0.46372 0.0
H403 H 0.20953 0.56625 0.49438 0.0
C404 C 0.90845 0.35522 0.54999 0.0
C405 C 0.89357 0.35699 0.57368 0.0
C406 C 0.90793 0.33346 0.53399 0.0
C407 C 0.90462 0.26834 0.53147 0.0
H408 H 0.87194 0.27336 0.46071 0.0
C409 C 0.9059 0.18466 0.45703 0.0
C410 C 0.90989 0.1903 0.42935 0.0
C411 C 0.89996 0.20376 0.47554 0.0
C412 C 0.88134 0.27167 0.48027 0.0
H413 H 0.86765 0.33667 0.60007 0.0
H414 H 0.86754 0.29806 0.5723 0.0
H415 H 0.87027 0.309 0.49238 0.0
H416 H 0.91011 0.22002 0.39901 0.0
H417 H 0.9009 0.25372 0.43149 0.0
H418 H 0.9172 0.23182 0.51909 0.0
C419 C 0.87903 0.31394 0.566 0.0
C420 C 0.88014 0.29196 0.49842 0.0
C421 C 0.87919 0.33595 0.58184 0.0
C422 C 0.90707 0.21524 0.42028 0.0
C423 C 0.90162 0.23449 0.43892 0.0
C424 C 0.90622 0.24818 0.51317 0.0
C425 C 0.893 0.31286 0.54171 0.0
C426 C 0.892 0.29049 0.52397 0.0
C427 C 0.89839 0.22903 0.46689 0.0
C428 C 0.89488 0.2497 0.48715 0.0
H429 H 0.92027 0.37075 0.5435 0.0
H430 H 0.91912 0.33273 0.51548 0.0
H431 H 0.9141 0.26704 0.55104 0.0
H432 H 0.90755 0.16545 0.46444 0.0
H433 H 0.89692 0.19869 0.49671 0.0
C434 C 0.14097 0.91479 0.55969 0.0
C435 C 0.13808 0.89406 0.57726 0.0
C436 C 0.16247 0.9172 0.54358 0.0
C437 C 0.22798 0.89514 0.53398 0.0
H438 H 0.21589 0.91929 0.46034 0.0
C439 C 0.28324 0.91419 0.42476 0.0
C440 C 0.30585 0.92454 0.43473 0.0
C441 C 0.26376 0.90777 0.44258 0.0
C442 C 0.21968 0.91215 0.48066 0.0
H443 H 0.15584 0.86003 0.59261 0.0
H444 H 0.19355 0.864 0.56389 0.0
H445 H 0.18054 0.91262 0.49081 0.0
H446 H 0.32557 0.93674 0.47121 0.0
H447 H 0.291 0.92682 0.50226 0.0
H448 H 0.2672 0.89404 0.52342 0.0
C449 C 0.17919 0.87852 0.56282 0.0
C450 C 0.19937 0.90872 0.49832 0.0
C451 C 0.15762 0.87622 0.57922 0.0
C452 C 0.30843 0.92863 0.46292 0.0
C453 C 0.2887 0.92267 0.48075 0.0
C454 C 0.24838 0.89838 0.51616 0.0
C455 C 0.18155 0.89879 0.54439 0.0
C456 C 0.20329 0.90065 0.52535 0.0
C457 C 0.26608 0.91224 0.47077 0.0
C458 C 0.24449 0.90726 0.48939 0.0
H459 H 0.12641 0.92909 0.55809 0.0
H460 H 0.16401 0.93345 0.53022 0.0
H461 H 0.23163 0.88892 0.55469 0.0
H462 H 0.28032 0.91122 0.40316 0.0
H463 H 0.2468 0.89943 0.43415 0.0
C464 C 0.43706 0.80692 0.98243 0.0
C465 C 0.43037 0.81301 0.95545 0.0
C466 C 0.43597 0.78199 0.99156 0.0
C467 C 0.43718 0.72594 0.00504 0.0
H468 H 0.37064 0.69859 0.99045 0.0
C469 C 0.39641 0.63719 0.06007 0.0
C470 C 0.37196 0.64091 0.07062 0.0
C471 C 0.40705 0.6548 0.04209 0.0
C472 C 0.38938 0.70586 0.99454 0.0
H473 H 0.41897 0.79755 0.91633 0.0
H474 H 0.41665 0.75388 0.9325 0.0
H475 H 0.38534 0.73521 0.9649 0.0
H476 H 0.33973 0.66629 0.0707 0.0
H477 H 0.35829 0.6968 0.03966 0.0
H478 H 0.44058 0.69725 0.03574 0.0
C479 C 0.42274 0.76847 0.94653 0.0
C480 C 0.39793 0.72665 0.97968 0.0
C481 C 0.42415 0.79344 0.93727 0.0
C482 C 0.35853 0.66267 0.06292 0.0
C483 C 0.36908 0.68011 0.04492 0.0
C484 C 0.42868 0.70498 0.0198 0.0
C485 C 0.4279 0.76264 0.974 0.0
C486 C 0.42153 0.7375 0.98547 0.0
C487 C 0.39336 0.67631 0.03417 0.0
C488 C 0.40428 0.69539 0.01541 0.0
H489 H 0.4422 0.82157 0.99684 0.0
H490 H 0.43988 0.77816 0.01289 0.0
H491 H 0.45556 0.73379 0.00974 0.0
H492 H 0.40726 0.62059 0.0655 0.0
H493 H 0.42581 0.65143 0.03409 0.0
C494 C 0.70389 0.41694 0.94832 0.0
C495 C 0.68291 0.42608 0.96283 0.0
C496 C 0.72738 0.41461 0.96124 0.0
C497 C 0.75121 0.40411 0.03056 0.0
H498 H 0.8172 0.40872 0.99673 0.0
C499 C 0.86224 0.38656 0.06134 0.0
C500 C 0.8602 0.36231 0.07293 0.0
C501 C 0.84161 0.39767 0.04812 0.0
C502 C 0.79891 0.4076 0.00652 0.0
H503 H 0.6706 0.44242 0.00116 0.0
H504 H 0.7116 0.43903 0.02339 0.0
H505 H 0.78001 0.42455 0.97232 0.0
H506 H 0.8347 0.33091 0.07995 0.0
H507 H 0.79874 0.35039 0.0572 0.0
H508 H 0.76988 0.38687 0.06451 0.0
C509 C 0.7098 0.43282 0.00241 0.0
C510 C 0.77761 0.41648 0.99248 0.0
C511 C 0.68634 0.43485 0.98964 0.0
C512 C 0.83695 0.34961 0.07133 0.0
C513 C 0.8163 0.36082 0.05838 0.0
C514 C 0.77237 0.39514 0.04445 0.0
C515 C 0.73031 0.42161 0.9888 0.0
C516 C 0.75346 0.41456 0.00425 0.0
C517 C 0.81842 0.38491 0.04652 0.0
C518 C 0.79639 0.39639 0.03244 0.0
H519 H 0.7018 0.41003 0.92761 0.0
H520 H 0.74275 0.40584 0.95017 0.0
H521 H 0.7329 0.40196 0.04012 0.0
H522 H 0.87991 0.39684 0.06208 0.0
H523 H 0.84373 0.41632 0.03932 0.0
C524 C 0.07016 0.69505 0.94562 0.0
C525 C 0.08235 0.67438 0.95807 0.0
C526 C 0.07192 0.71927 0.95707 0.0
C527 C 0.11487 0.75746 0.99596 0.0
H528 H 0.05871 0.79487 0.02682 0.0
C529 C 0.1313 0.82628 0.08145 0.0
C530 C 0.12092 0.85063 0.07994 0.0
C531 C 0.12349 0.80745 0.0636 0.0
C532 C 0.07447 0.78489 0.01779 0.0
H533 H 0.10566 0.66296 0.99241 0.0
H534 H 0.1091 0.7051 0.01182 0.0
H535 H 0.05063 0.75654 -0.00033 0.0
H536 H 0.09309 0.87398 0.05949 0.0
H537 H 0.07931 0.84055 0.02779 0.0
H538 H 0.13881 0.785 0.01442 0.0
C539 C 0.09807 0.70251 0.99338 0.0
C540 C 0.06987 0.76303 0.00234 0.0
C541 C 0.09602 0.67838 0.98228 0.0
C542 C 0.10145 0.85536 0.06104 0.0
C543 C 0.09361 0.83632 0.04293 0.0
C544 C 0.11944 0.77921 0.01111 0.0
C545 C 0.08626 0.72317 0.98079 0.0
C546 C 0.09015 0.74868 0.99227 0.0
C547 C 0.10518 0.81241 0.04359 0.0
C548 C 0.0994 0.79253 0.0232 0.0
H549 H 0.05939 0.69255 0.92701 0.0
H550 H 0.06269 0.735 0.94704 0.0
H551 H 0.13076 0.74685 0.98805 0.0
H552 H 0.14595 0.82184 0.09613 0.0
H553 H 0.1322 0.78899 0.06513 0.0
C554 C 0.64947 0.09699 0.06423 0.0
C555 C 0.64014 0.12171 0.06277 0.0
C556 C 0.66589 0.08792 0.0441 0.0
C557 C 0.70971 0.11297 0.99103 0.0
H558 H 0.72193 0.04172 0.97848 0.0
C559 C 0.79212 0.07775 0.92446 0.0
C560 C 0.80995 0.0658 0.94133 0.0
C561 C 0.7673 0.0812 0.93354 0.0
C562 C 0.71845 0.06168 0.98155 0.0
H563 H 0.63859 0.15564 0.03819 0.0
H564 H 0.66576 0.13944 0.00215 0.0
H565 H 0.68462 0.05488 0.00424 0.0
H566 H 0.81549 0.0463 0.97978 0.0
H567 H 0.77186 0.05154 0.99518 0.0
H568 H 0.74349 0.11959 0.96812 0.0
C569 C 0.66176 0.12735 0.01945 0.0
C570 C 0.69727 0.06928 0.99657 0.0
C571 C 0.646 0.13663 0.03997 0.0
C572 C 0.80212 0.0557 0.96647 0.0
C573 C 0.77717 0.05854 0.97519 0.0
C574 C 0.73044 0.10538 0.97549 0.0
C575 C 0.67279 0.10321 0.0217 0.0
C576 C 0.69302 0.09503 0.0023 0.0
C577 C 0.75981 0.07207 0.95923 0.0
C578 C 0.73539 0.07969 0.97128 0.0
H579 H 0.6452 0.08516 0.08169 0.0
H580 H 0.67407 0.06939 0.04694 0.0
H581 H 0.70767 0.1329 0.9953 0.0
H582 H 0.79773 0.0858 0.90504 0.0
H583 H 0.7542 0.09181 0.92098 0.0
C584 C 0.4272 0.69671 0.5439 0.0
C585 C 0.4169 0.6749 0.53184 0.0
C586 C 0.42747 0.7197 0.52964 0.0
C587 C 0.42093 0.74557 0.45927 0.0
H588 H 0.39914 0.80698 0.49534 0.0
C589 C 0.36912 0.82587 0.40514 0.0
C590 C 0.37639 0.85089 0.41039 0.0
C591 C 0.38015 0.80596 0.41947 0.0
C592 C 0.40573 0.79008 0.48512 0.0
H593 H 0.39833 0.66037 0.49556 0.0
H594 H 0.39833 0.70014 0.47122 0.0
H595 H 0.40684 0.76888 0.52241 0.0
H596 H 0.4012 0.87471 0.43444 0.0
H597 H 0.42007 0.83966 0.46016 0.0
H598 H 0.41835 0.76638 0.42185 0.0
C599 C 0.40689 0.6995 0.4913 0.0
C600 C 0.41015 0.76826 0.50059 0.0
C601 C 0.40671 0.67665 0.50541 0.0
C602 C 0.39538 0.85557 0.42985 0.0
C603 C 0.40605 0.83561 0.44465 0.0
C604 C 0.41625 0.76723 0.44385 0.0
C605 C 0.41742 0.72128 0.50309 0.0
C606 C 0.41691 0.74551 0.48768 0.0
C607 C 0.39835 0.81065 0.4397 0.0
C608 C 0.40783 0.78943 0.45651 0.0
H609 H 0.43524 0.69601 0.56423 0.0
H610 H 0.43576 0.73612 0.53929 0.0
H611 H 0.42682 0.72857 0.44877 0.0
H612 H 0.35456 0.82171 0.39026 0.0
H613 H 0.37371 0.7869 0.41546 0.0
C614 C 0.79724 0.41272 0.55633 0.0
C615 C 0.8174 0.42173 0.54044 0.0
C616 C 0.77311 0.41033 0.54491 0.0
C617 C 0.73275 0.42901 0.48649 0.0
H618 H 0.70713 0.36056 0.49107 0.0
C619 C 0.64308 0.39329 0.42868 0.0
C620 C 0.64613 0.36983 0.41559 0.0
C621 C 0.66167 0.40238 0.44652 0.0
C622 C 0.71397 0.3798 0.4897 0.0
H623 H 0.82788 0.43697 0.50095 0.0
H624 H 0.78577 0.43325 0.48124 0.0
H625 H 0.74306 0.37302 0.51911 0.0
H626 H 0.67157 0.33809 0.41011 0.0
H627 H 0.70387 0.35403 0.44083 0.0
H628 H 0.7041 0.43545 0.45629 0.0
C629 C 0.78856 0.42783 0.50236 0.0
C630 C 0.73435 0.38701 0.50599 0.0
C631 C 0.81271 0.42974 0.51356 0.0
C632 C 0.66844 0.35607 0.42009 0.0
C633 C 0.68691 0.36512 0.43784 0.0
C634 C 0.71214 0.42185 0.47035 0.0
C635 C 0.76868 0.41744 0.51764 0.0
C636 C 0.74442 0.41146 0.50398 0.0
C637 C 0.68357 0.38814 0.45161 0.0
C638 C 0.70309 0.39692 0.47117 0.0
H639 H 0.80036 0.4064 0.5771 0.0
H640 H 0.75808 0.40232 0.55715 0.0
H641 H 0.74007 0.44803 0.4847 0.0
H642 H 0.62607 0.40432 0.42573 0.0
H643 H 0.65862 0.4202 0.45686 0.0
C644 C 0.10228 0.64121 0.43709 0.0
C645 C 0.12556 0.64502 0.42383 0.0
C646 C 0.09122 0.66069 0.45238 0.0
C647 C 0.09051 0.72961 0.45637 0.0
H648 H 0.06857 0.72231 0.53152 0.0
C649 C 0.05795 0.8165 0.51453 0.0
C650 C 0.06847 0.81949 0.54062 0.0
C651 C 0.05827 0.793 0.50168 0.0
C652 C 0.07455 0.72462 0.51051 0.0
H653 H 0.1556 0.67214 0.41668 0.0
H654 H 0.13628 0.70584 0.44289 0.0
H655 H 0.08294 0.68511 0.50598 0.0
H656 H 0.08626 0.80013 0.57449 0.0
H657 H 0.08804 0.75917 0.55152 0.0
H658 H 0.08351 0.76895 0.4608 0.0
C659 C 0.12652 0.68791 0.44142 0.0
C660 C 0.08254 0.7033 0.49587 0.0
C661 C 0.13765 0.6685 0.42651 0.0
C662 C 0.07806 0.79826 0.55432 0.0
C663 C 0.0789 0.77478 0.54119 0.0
C664 C 0.08254 0.75077 0.47086 0.0
C665 C 0.1031 0.68435 0.45426 0.0
C666 C 0.09126 0.70579 0.4689 0.0
C667 C 0.06977 0.77208 0.51432 0.0
C668 C 0.07497 0.74872 0.49832 0.0
H669 H 0.09258 0.62326 0.43558 0.0
H670 H 0.07316 0.65748 0.46214 0.0
H671 H 0.09685 0.73201 0.43549 0.0
H672 H 0.04997 0.83251 0.50377 0.0
H673 H 0.05037 0.79147 0.48135 0.0
C674 C 0.69588 0.07479 0.55635 0.0
C675 C 0.6745 0.0777 0.53954 0.0
C676 C 0.72 0.07248 0.54485 0.0
C677 C 0.75261 0.05887 0.47915 0.0
H678 H 0.80421 0.10456 0.50585 0.0
C679 C 0.82268 0.11064 0.41149 0.0
C680 C 0.84811 0.11214 0.41921 0.0
C681 C 0.80518 0.09876 0.42842 0.0
C682 C 0.79025 0.09122 0.49856 0.0
H683 H 0.66176 0.07981 0.49745 0.0
H684 H 0.70348 0.07602 0.47761 0.0
H685 H 0.7657 0.09815 0.53251 0.0
H686 H 0.87551 0.10227 0.45026 0.0
H687 H 0.84437 0.08226 0.48075 0.0
H688 H 0.77638 0.05345 0.44423 0.0
C689 C 0.70172 0.07523 0.49964 0.0
C690 C 0.76819 0.08755 0.51379 0.0
C691 C 0.67775 0.07771 0.51106 0.0
C692 C 0.85596 0.10105 0.44386 0.0
C693 C 0.83824 0.08974 0.46126 0.0
C694 C 0.77451 0.06272 0.46385 0.0
C695 C 0.72316 0.07274 0.51633 0.0
C696 C 0.74864 0.07222 0.50361 0.0
C697 C 0.81265 0.08874 0.45373 0.0
C698 C 0.79302 0.07973 0.47288 0.0
H699 H 0.69404 0.07466 0.57839 0.0
H700 H 0.73616 0.07056 0.55825 0.0
H701 H 0.73817 0.04645 0.47109 0.0
H702 H 0.81626 0.11914 0.39259 0.0
H703 H 0.78552 0.09851 0.4223 0.0
C704 C 0.50784 0.91108 0.95854 0.0
C705 C 0.49416 0.91567 0.93448 0.0
C706 C 0.52416 0.92942 0.96885 0.0
C707 C 0.51459 0.9944 0.97432 0.0
H708 H 0.57285 0.99441 0.02219 0.0
C709 C 0.52754 0.07295 0.05369 0.0
C710 C 0.53865 0.06677 0.07885 0.0
C711 C 0.52765 0.05574 0.03218 0.0
C712 C 0.55636 0.99461 0.00912 0.0
H713 H 0.48956 0.94093 0.9001 0.0
H714 H 0.51776 0.97333 0.91841 0.0
H715 H 0.56815 0.96109 0.98789 0.0
H716 H 0.55811 0.03754 0.1015 0.0
H717 H 0.55665 0.00658 0.06453 0.0
H718 H 0.50127 0.02608 0.9967 0.0
C719 C 0.516 0.95557 0.92923 0.0
C720 C 0.55396 0.97576 0.9892 0.0
C721 C 0.49997 0.93698 0.91868 0.0
C722 C 0.5493 0.04272 0.08232 0.0
C723 C 0.54882 0.02517 0.06094 0.0
C724 C 0.51666 0.01279 0.99451 0.0
C725 C 0.52652 0.95273 0.95544 0.0
C726 C 0.5328 0.97528 0.97194 0.0
C727 C 0.53821 0.03155 0.03544 0.0
C728 C 0.53731 0.01293 0.01258 0.0
H729 H 0.50362 0.8947 0.971 0.0
H730 H 0.53207 0.92669 0.98905 0.0
H731 H 0.49769 0.99412 0.96184 0.0
H732 H 0.51966 0.09154 0.05014 0.0
H733 H 0.51983 0.06173 0.0128 0.0
C734 C 0.43097 0.52454 0.04122 0.0
C735 C 0.4308 0.53614 0.06704 0.0
C736 C 0.45165 0.52726 0.02386 0.0
C737 C 0.51885 0.53662 0.02271 0.0
H738 H 0.5076 0.55034 0.9458 0.0
C739 C 0.59455 0.50771 0.95017 0.0
C740 C 0.5846 0.49119 0.93057 0.0
C741 C 0.57905 0.52576 0.96249 0.0
C742 C 0.51116 0.54664 0.96721 0.0
H743 H 0.45261 0.55896 0.09527 0.0
H744 H 0.48933 0.5629 0.06507 0.0
H745 H 0.47295 0.5552 0.9783 0.0
H746 H 0.55199 0.48234 0.9059 0.0
H747 H 0.5247 0.5131 0.92763 0.0
H748 H 0.55624 0.526 0.01179 0.0
C749 C 0.47312 0.55216 0.05823 0.0
C750 C 0.49131 0.54943 0.98579 0.0
C751 C 0.4522 0.54976 0.07552 0.0
C752 C 0.56009 0.49514 0.92077 0.0
C753 C 0.54442 0.51283 0.93342 0.0
C754 C 0.53859 0.53349 0.00414 0.0
C755 C 0.47278 0.54133 0.03204 0.0
C756 C 0.49475 0.54341 0.0135 0.0
C757 C 0.55319 0.52689 0.95596 0.0
C758 C 0.5347 0.53733 0.97593 0.0
H759 H 0.41481 0.51393 0.034 0.0
H760 H 0.45115 0.51821 0.00402 0.0
H761 H 0.52198 0.53182 0.04396 0.0
H762 H 0.61345 0.50484 0.95808 0.0
H763 H 0.58668 0.5369 0.9791 0.0
C764 C 0.99397 0.59567 0.96149 0.0
C765 C 0.00527 0.58403 0.93888 0.0
C766 C 0.97601 0.58269 0.97699 0.0
C767 C 0.94528 0.5188 0.98445 0.0
H768 H 0.97194 0.52455 0.05803 0.0
C769 C 0.97721 0.43725 0.05143 0.0
C770 C 0.96308 0.43236 0.07515 0.0
C771 C 0.97351 0.45945 0.03672 0.0
C772 C 0.96376 0.52306 0.0378 0.0
H773 H 0.00519 0.55108 0.91292 0.0
H774 H 0.97468 0.52801 0.94012 0.0
H775 H 0.97812 0.55893 0.02588 0.0
H776 H 0.93481 0.44753 0.10273 0.0
H777 H 0.92922 0.48723 0.07724 0.0
H778 H 0.93347 0.48155 0.99603 0.0
C779 C 0.97883 0.5473 0.94586 0.0
C780 C 0.96714 0.54283 0.01926 0.0
C781 C 0.99639 0.56051 0.9301 0.0
C782 C 0.94597 0.45078 0.08452 0.0
C783 C 0.94262 0.47334 0.06995 0.0
C784 C 0.9423 0.49888 0.0029 0.0
C785 C 0.9698 0.55753 0.9706 0.0
C786 C 0.95915 0.5404 0.99188 0.0
C787 C 0.95597 0.47744 0.04562 0.0
C788 C 0.95251 0.50051 0.02928 0.0
H789 H 0.00073 0.61382 0.96865 0.0
H790 H 0.96886 0.5915 0.99539 0.0
H791 H 0.9383 0.51648 0.96381 0.0
H792 H 0.9905 0.42351 0.04357 0.0
H793 H 0.98427 0.46252 0.01819 0.0
C794 C 0.06648 0.98061 0.05492 0.0
C795 C 0.0639 0.96559 0.07839 0.0
C796 C 0.04774 0.98077 0.03494 0.0
C797 C 0.99209 0.94376 0.01064 0.0
H798 H 0.9809 0.00401 0.96738 0.0
C799 C 0.90502 0.98116 0.95201 0.0
C800 C 0.91056 0.99404 0.92766 0.0
C801 C 0.92388 0.96753 0.96544 0.0
C802 C 0.98422 0.98687 0.97893 0.0
H803 H 0.03893 0.94023 0.1002 0.0
H804 H 0.0054 0.94166 0.06601 0.0
H805 H 0.01189 0.00481 0.00373 0.0
H806 H 0.93833 -0.00079 0.89576 0.0
H807 H 0.97147 0.97591 0.91953 0.0
H808 H 0.96251 0.92676 0.98674 0.0
C809 C 0.02244 0.95243 0.06242 0.0
C810 C 0.00199 0.98729 -0.00013 0.0
C811 C 0.04149 0.95188 0.08223 0.0
C812 C 0.9336 0.98935 0.91447 0.0
C813 C 0.95264 0.97616 0.92816 0.0
C814 C 0.97375 0.94357 0.99 0.0
C815 C 0.02561 0.96639 0.03816 0.0
C816 C 0.00626 0.96577 0.01605 0.0
C817 C 0.94843 0.96707 0.95474 0.0
C818 C 0.96981 0.96513 0.97394 0.0
H819 H 0.08358 0.99127 0.05119 0.0
H820 H 0.05119 0.99149 0.01648 0.0
H821 H 0.9951 0.92668 0.02233 0.0
H822 H 0.88736 0.9846 0.96253 0.0
H823 H 0.92021 0.96063 0.98589 0.0
C824 C 0.50302 0.56543 0.57411 0.0
C825 C 0.49309 0.58671 0.56089 0.0
C826 C 0.51921 0.54913 0.55997 0.0
C827 C 0.54865 0.53727 0.4912 0.0
H828 H 0.51258 0.47388 0.49787 0.0
C829 C 0.55986 0.45258 0.41581 0.0
C830 C 0.53776 0.4389 0.40988 0.0
C831 C 0.55957 0.47187 0.43533 0.0
C832 C 0.52279 0.49148 0.49564 0.0
H833 H 0.49509 0.60996 0.52467 0.0
H834 H 0.52332 0.58195 0.50014 0.0
H835 H 0.50815 0.50557 0.53317 0.0
H836 H 0.49766 0.43605 0.41815 0.0
H837 H 0.49698 0.47011 0.45154 0.0
H838 H 0.56207 0.52342 0.45268 0.0
C839 C 0.51882 0.57745 0.52116 0.0
C840 C 0.52071 0.50952 0.51625 0.0
C841 C 0.50266 0.59365 0.53526 0.0
C842 C 0.51505 0.44605 0.42247 0.0
C843 C 0.51473 0.46539 0.44182 0.0
C844 C 0.55073 0.51913 0.47049 0.0
C845 C 0.52546 0.55396 0.53248 0.0
C846 C 0.53296 0.53298 0.51394 0.0
C847 C 0.53715 0.47792 0.4492 0.0
C848 C 0.53711 0.49638 0.47209 0.0
H849 H 0.49575 0.55965 0.59383 0.0
H850 H 0.52459 0.53148 0.56953 0.0
H851 H 0.55847 0.55507 0.48886 0.0
H852 H 0.57771 0.44748 0.40653 0.0
H853 H 0.57714 0.48117 0.4405 0.0
C854 C 0.04056 0.55492 0.41518 0.0
C855 C 0.06225 0.54332 0.426 0.0
C856 C 0.0188 0.55758 0.43119 0.0
C857 C 0.9972 0.56005 0.50242 0.0
H858 H 0.93657 0.52682 0.47685 0.0
C859 C 0.93251 0.50479 0.57122 0.0
C860 C 0.90918 0.49672 0.56105 0.0
C861 C 0.94648 0.52286 0.55694 0.0
C862 C 0.95288 0.53705 0.48426 0.0
H863 H 0.07808 0.52534 0.46202 0.0
H864 H 0.04035 0.53018 0.48979 0.0
H865 H 0.97132 0.53351 0.44554 0.0
H866 H 0.88023 0.50351 0.5308 0.0
H867 H 0.90378 0.53632 0.50683 0.0
H868 H 0.97917 0.56292 0.5414 0.0
C869 C 0.0402 0.53734 0.46905 0.0
C870 C 0.97292 0.54069 0.46619 0.0
C871 C 0.06168 0.53426 0.45298 0.0
C872 C 0.89826 0.50956 0.53897 0.0
C873 C 0.91196 0.52805 0.52502 0.0
C874 C 0.97699 0.55679 0.52044 0.0
C875 C 0.01863 0.54916 0.45841 0.0
C876 C 0.99569 0.55102 0.47549 0.0
C877 C 0.93712 0.53321 0.53239 0.0
C878 C 0.95508 0.54394 0.512 0.0
H879 H 0.04047 0.56214 0.39448 0.0
H880 H 0.00226 0.56652 0.42248 0.0
H881 H 0.0145 0.56849 0.5099 0.0
H882 H 0.94136 0.49488 0.58807 0.0
H883 H 0.9657 0.52627 0.56347 0.0
C884 C 0.99238 0.93636 0.5811 0.0
C885 C 0.00013 0.9154 0.56576 0.0
C886 C 0.97704 0.95475 0.56905 0.0
C887 C 0.94472 0.97551 0.50566 0.0
H888 H 0.99697 0.02676 0.50521 0.0
C889 C 0.95348 0.04841 0.41797 0.0
C890 C 0.96248 0.07263 0.42442 0.0
C891 C 0.95369 0.02921 0.43765 0.0
C892 C 0.98173 0.01315 0.50539 0.0
H893 H 0.99459 0.89468 0.52817 0.0
H894 H 0.96731 0.92633 0.50743 0.0
H895 H 0.99834 0.9935 0.53889 0.0
H896 H 0.97868 0.09573 0.45656 0.0
H897 H 0.97806 0.063 0.49086 0.0
H898 H 0.92814 0.99524 0.47193 0.0
C899 C 0.97318 0.92893 0.52845 0.0
C900 C 0.98251 0.99403 0.52487 0.0
C901 C 0.98879 0.91076 0.54033 0.0
C902 C 0.972 0.07717 0.45073 0.0
C903 C 0.97166 0.05826 0.4705 0.0
C904 C 0.94359 0.99508 0.48642 0.0
C905 C 0.96919 0.95206 0.54175 0.0
C906 C 0.96435 0.97475 0.52492 0.0
C907 C 0.96244 0.034 0.46434 0.0
C908 C 0.96243 0.01388 0.48568 0.0
H909 H 0.00102 0.94035 0.6007 0.0
H910 H 0.97396 0.97236 0.5798 0.0
H911 H 0.93067 0.96066 0.5051 0.0
H912 H 0.94598 0.04441 0.39784 0.0
H913 H 0.94697 0.01066 0.4319 0.0
C914 C 0.55782 0.00062 0.57114 0.0
C915 C 0.58155 0.00878 0.56226 0.0
C916 C 0.54496 0.98194 0.55659 0.0
C917 C 0.54201 0.96592 0.48431 0.0
H918 H 0.48026 0.93363 0.50829 0.0
C919 C 0.45504 0.9468 0.41387 0.0
C920 C 0.43347 0.95892 0.42434 0.0
C921 C 0.47677 0.94425 0.42999 0.0
C922 C 0.49764 0.94223 0.50126 0.0
H923 H 0.61209 0.00197 0.53393 0.0
H924 H 0.59028 0.96832 0.50932 0.0
H925 H 0.51459 0.9401 0.54087 0.0
H926 H 0.41796 0.97816 0.45973 0.0
H927 H 0.45559 0.97345 0.48767 0.0
H928 H 0.52453 0.96885 0.44497 0.0
C929 C 0.58109 0.97679 0.52682 0.0
C930 C 0.51727 0.94602 0.51989 0.0
C931 C 0.59374 0.9958 0.54109 0.0
C932 C 0.43422 0.96878 0.45097 0.0
C933 C 0.45564 0.96579 0.46715 0.0
C934 C 0.52254 0.96176 0.46563 0.0
C935 C 0.55576 0.97115 0.53299 0.0
C936 C 0.53905 0.95937 0.51207 0.0
C937 C 0.47698 0.95328 0.45695 0.0
C938 C 0.49968 0.95122 0.47436 0.0
H939 H 0.54802 0.01066 0.58724 0.0
H940 H 0.52552 0.97824 0.5621 0.0
H941 H 0.55833 0.97641 0.47737 0.0
H942 H 0.455 0.93899 0.39343 0.0
H943 H 0.49318 0.93483 0.42162 0.0
C944 C 0.60863 0.32878 0.28583 0.0
C945 C 0.58714 0.33871 0.29863 0.0
C946 C 0.60651 0.30865 0.26762 0.0
C947 C 0.56796 0.25301 0.25687 0.0
H948 H 0.61126 0.24446 0.19372 0.0
C949 C 0.57866 0.15896 0.19481 0.0
C950 C 0.60368 0.15294 0.1876 0.0
C951 C 0.5731 0.18224 0.20704 0.0
C952 C 0.59909 0.24654 0.21136 0.0
H953 H 0.54636 0.33624 0.3015 0.0
H954 H 0.54266 0.30067 0.2697 0.0
H955 H 0.60691 0.28608 0.21447 0.0
H956 H 0.64252 0.16559 0.18936 0.0
H957 H 0.6329 0.20585 0.21095 0.0
H958 H 0.56084 0.21318 0.2542 0.0
C959 C 0.56114 0.30859 0.27375 0.0
C960 C 0.59652 0.27039 0.22314 0.0
C961 C 0.56324 0.32908 0.29171 0.0
C962 C 0.62306 0.16986 0.19443 0.0
C963 C 0.61752 0.193 0.20652 0.0
C964 C 0.57054 0.22907 0.24504 0.0
C965 C 0.58286 0.29776 0.2621 0.0
C966 C 0.58159 0.27374 0.24655 0.0
C967 C 0.59243 0.1998 0.21219 0.0
C968 C 0.58684 0.22547 0.22274 0.0
H969 H 0.62725 0.3358 0.29094 0.0
H970 H 0.62363 0.30061 0.25921 0.0
H971 H 0.55646 0.25498 0.27504 0.0
H972 H 0.56328 0.14633 0.18974 0.0
H973 H 0.5536 0.18694 0.21135 0.0
C974 C 0.16498 0.56489 0.30047 0.0
C975 C 0.15702 0.58931 0.30782 0.0
C976 C 0.18743 0.56153 0.28575 0.0
C977 C 0.2478 0.59414 0.27589 0.0
H978 H 0.25819 0.54926 0.2144 0.0
C979 C 0.32897 0.60575 0.20011 0.0
C980 C 0.34038 0.58431 0.1887 0.0
C981 C 0.30867 0.60331 0.21802 0.0
C982 C 0.2557 0.56149 0.23191 0.0
H983 H 0.16488 0.62924 0.30355 0.0
H984 H 0.2036 0.62341 0.27754 0.0
H985 H 0.21682 0.55087 0.23671 0.0
H986 H 0.34032 0.54334 0.18813 0.0
H987 H 0.30455 0.53907 0.21951 0.0
H988 H 0.28635 0.6052 0.27088 0.0
C989 C 0.19302 0.60687 0.28374 0.0
C990 C 0.232 0.56249 0.24457 0.0
C991 C 0.17073 0.61022 0.29837 0.0
C992 C 0.33196 0.56023 0.1967 0.0
C993 C 0.31135 0.55778 0.21444 0.0
C994 C 0.27139 0.59313 0.26332 0.0
C995 C 0.20215 0.58251 0.27823 0.0
C996 C 0.22765 0.57938 0.26617 0.0
C997 C 0.29915 0.57934 0.22477 0.0
C998 C 0.27543 0.57731 0.24074 0.0
H999 H 0.15483 0.5484 0.30756 0.0
H1000 H 0.19397 0.54253 0.28162 0.0
H1001 H 0.2452 0.60684 0.293 0.0
H1002 H 0.33509 0.62452 0.19426 0.0
H1003 H 0.29957 0.6203 0.22542 0.0
C1004 C 0.93941 0.33604 0.20628 0.0
C1005 C 0.91698 0.33627 0.191 0.0
C1006 C 0.9405 0.32277 0.23101 0.0
C1007 C 0.90273 0.28329 0.27942 0.0
H1008 H 0.95328 0.23249 0.263 0.0
C1009 C 0.88664 0.17934 0.30398 0.0
C1010 C 0.90666 0.16449 0.31375 0.0
C1011 C 0.89086 0.20392 0.29491 0.0
C1012 C 0.9394 0.24665 0.26838 0.0
H1013 H 0.87732 0.3266 0.19129 0.0
H1014 H 0.87891 0.30422 0.23455 0.0
H1015 H 0.95528 0.27345 0.24066 0.0
H1016 H 0.94708 0.1635 0.32079 0.0
H1017 H 0.95456 0.2066 0.30454 0.0
H1018 H 0.88617 0.25595 0.30617 0.0
C1019 C 0.8958 0.31377 0.2276 0.0
C1020 C 0.94061 0.27026 0.25567 0.0
C1021 C 0.89482 0.32669 0.20278 0.0
C1022 C 0.93128 0.17441 0.31319 0.0
C1023 C 0.93553 0.19915 0.30406 0.0
C1024 C 0.90157 0.2597 0.29219 0.0
C1025 C 0.91907 0.30995 0.24081 0.0
C1026 C 0.92166 0.28845 0.26013 0.0
C1027 C 0.91525 0.21435 0.29535 0.0
C1028 C 0.91924 0.24073 0.28585 0.0
H1029 H 0.95679 0.34318 0.19754 0.0
H1030 H 0.95859 0.3205 0.24103 0.0
H1031 H 0.88803 0.297 0.2835 0.0
H1032 H 0.8675 0.17212 0.30402 0.0
H1033 H 0.87493 0.2148 0.28756 0.0
C1034 C 0.33543 0.89005 0.28843 0.0
C1035 C 0.34566 0.91294 0.29776 0.0
C1036 C 0.31509 0.89009 0.27035 0.0
C1037 C 0.27238 0.92843 0.22733 0.0
H1038 H 0.22056 0.89034 0.26534 0.0
C1039 C 0.16708 0.93325 0.19573 0.0
C1040 C 0.15549 0.90953 0.19292 0.0
C1041 C 0.19044 0.93536 0.20898 0.0
C1042 C 0.2348 0.90092 0.25434 0.0
H1043 H 0.34559 0.95345 0.29219 0.0
H1044 H 0.31045 0.95354 0.25983 0.0
H1045 H 0.26383 0.88922 0.28183 0.0
H1046 H 0.15828 0.86983 0.20294 0.0
H1047 H 0.19861 0.87345 0.22628 0.0
H1048 H 0.24317 0.93992 0.19965 0.0
C1049 C 0.31781 0.9356 0.26686 0.0
C1050 C 0.25965 0.90016 0.26368 0.0
C1051 C 0.33823 0.93553 0.28508 0.0
C1052 C 0.16674 0.88835 0.20509 0.0
C1053 C 0.18989 0.89046 0.21841 0.0
C1054 C 0.24743 0.92905 0.21782 0.0
C1055 C 0.30487 0.91303 0.26112 0.0
C1056 C 0.27878 0.91363 0.25011 0.0
C1057 C 0.2024 0.91383 0.21981 0.0
C1058 C 0.22841 0.91509 0.2311 0.0
H1059 H 0.34072 0.87239 0.29808 0.0
H1060 H 0.30584 0.87236 0.26572 0.0
H1061 H 0.28673 0.93913 0.21664 0.0
H1062 H 0.15898 0.94985 0.18621 0.0
H1063 H 0.19948 0.95367 0.21005 0.0
C1064 C 0.45252 0.82328 0.82108 0.0
C1065 C 0.43358 0.8413 0.81599 0.0
C1066 C 0.45644 0.80332 0.80296 0.0
C1067 C 0.4429 0.7542 0.77394 0.0
H1068 H 0.44519 0.76066 0.69506 0.0
C1069 C 0.41923 0.67254 0.70073 0.0
C1070 C 0.43398 0.66966 0.67707 0.0
C1071 C 0.42273 0.69327 0.71791 0.0
C1072 C 0.44485 0.75857 0.71707 0.0
H1073 H 0.405 0.85335 0.78701 0.0
H1074 H 0.41209 0.81853 0.75522 0.0
H1075 H 0.44548 0.79863 0.72357 0.0
H1076 H 0.46459 0.68584 0.65341 0.0
H1077 H 0.47075 0.7221 0.6836 0.0
H1078 H 0.44163 0.71424 0.76753 0.0
C1079 C 0.42379 0.81987 0.77331 0.0
C1080 C 0.44482 0.78028 0.73333 0.0
C1081 C 0.41968 0.83975 0.79157 0.0
C1082 C 0.45283 0.68759 0.6714 0.0
C1083 C 0.45629 0.7084 0.68859 0.0
C1084 C 0.44264 0.73254 0.7577 0.0
C1085 C 0.44172 0.8011 0.77924 0.0
C1086 C 0.44363 0.77828 0.7619 0.0
C1087 C 0.44105 0.71161 0.71183 0.0
C1088 C 0.44335 0.7345 0.72909 0.0
H1089 H 0.46367 0.82399 0.83961 0.0
H1090 H 0.47059 0.78924 0.80782 0.0
H1091 H 0.44171 0.75214 0.79592 0.0
H1092 H 0.40449 0.65912 0.70567 0.0
H1093 H 0.4105 0.69537 0.73549 0.0
C1094 C 0.83468 0.42217 0.70586 0.0
C1095 C 0.83634 0.43587 0.68135 0.0
C1096 C 0.81393 0.42524 0.72314 0.0
C1097 C 0.74728 0.44279 0.72071 0.0
H1098 H 0.75281 0.44259 0.79969 0.0
C1099 C 0.68103 0.44891 0.82387 0.0
C1100 C 0.66341 0.42978 0.81814 0.0
C1101 C 0.70117 0.45344 0.80617 0.0
C1102 C 0.75095 0.44297 0.77765 0.0
H1103 H 0.81816 0.46449 0.65641 0.0
H1104 H 0.78198 0.46987 0.68668 0.0
H1105 H 0.791 0.44418 0.77187 0.0
H1106 H 0.6523 0.40138 0.78856 0.0
H1107 H 0.68756 0.40931 0.75764 0.0
H1108 H 0.70722 0.44116 0.72654 0.0
C1109 C 0.79658 0.45652 0.69231 0.0
C1110 C 0.77281 0.44364 0.76176 0.0
C1111 C 0.81738 0.45353 0.67507 0.0
C1112 C 0.6656 0.41619 0.7936 0.0
C1113 C 0.68573 0.4208 0.77583 0.0
C1114 C 0.7254 0.44193 0.73663 0.0
C1115 C 0.7944 0.44204 0.71623 0.0
C1116 C 0.77122 0.4433 0.73313 0.0
C1117 C 0.70407 0.43903 0.7823 0.0
C1118 C 0.72703 0.44177 0.76526 0.0
H1119 H 0.84897 0.40842 0.7113 0.0
H1120 H 0.81269 0.41368 0.74135 0.0
H1121 H 0.74548 0.44225 0.69868 0.0
H1122 H 0.67977 0.45989 0.84248 0.0
H1123 H 0.7148 0.46789 0.81144 0.0
C1124 C 0.0349 0.81951 0.67806 0.0
C1125 C 0.05491 0.83608 0.68393 0.0
C1126 C 0.02951 0.79934 0.69548 0.0
C1127 C 0.03714 0.74864 0.72313 0.0
H1128 H 0.04407 0.75244 0.80185 0.0
C1129 C 0.06231 0.66311 0.79016 0.0
C1130 C 0.05217 0.66157 0.81661 0.0
C1131 C 0.05732 0.68404 0.77367 0.0
C1132 C 0.04165 0.75107 0.77993 0.0
H1133 H 0.08412 0.84523 0.71338 0.0
H1134 H 0.07492 0.80989 0.74356 0.0
H1135 H 0.04445 0.79113 0.77488 0.0
H1136 H 0.02762 0.68005 0.84593 0.0
H1137 H 0.01873 0.71649 0.817 0.0
H1138 H 0.03465 0.70857 0.72815 0.0
C1139 C 0.06323 0.81259 0.72564 0.0
C1140 C 0.04217 0.77323 0.76447 0.0
C1141 C 0.06861 0.83278 0.70825 0.0
C1142 C 0.0359 0.68077 0.82572 0.0
C1143 C 0.0309 0.70171 0.80922 0.0
C1144 C 0.03665 0.72649 0.73859 0.0
C1145 C 0.044 0.79531 0.71913 0.0
C1146 C 0.04044 0.77221 0.73585 0.0
C1147 C 0.04204 0.70385 0.78328 0.0
C1148 C 0.03944 0.72742 0.76711 0.0
H1149 H 0.02384 0.82168 0.65959 0.0
H1150 H 0.01431 0.78658 0.69014 0.0
H1151 H 0.03599 0.74718 0.7011 0.0
H1152 H 0.07489 0.64862 0.78251 0.0
H1153 H 0.0664 0.68522 0.75389 0.0
C1154 C 0.67173 0.04207 0.67869 0.0
C1155 C 0.65737 0.06409 0.68252 0.0
C1156 C 0.69215 0.03676 0.69581 0.0
C1157 C 0.72307 0.05501 0.76093 0.0
H1158 H 0.78491 0.03822 0.72243 0.0
C1159 C 0.82815 0.07676 0.78912 0.0
C1160 C 0.8358 0.05818 0.80791 0.0
C1161 C 0.8067 0.07308 0.77306 0.0
C1162 C 0.76767 0.04259 0.73337 0.0
H1163 H 0.65227 0.09712 0.70814 0.0
H1164 H 0.68808 0.0881 0.73767 0.0
H1165 H 0.74484 0.03929 0.69753 0.0
H1166 H 0.82785 0.02059 0.82339 0.0
H1167 H 0.79013 0.01435 0.79519 0.0
H1168 H 0.74633 0.05912 0.79655 0.0
C1169 C 0.68345 0.07475 0.72168 0.0
C1170 C 0.74475 0.04308 0.71926 0.0
C1171 C 0.66297 0.07999 0.70465 0.0
C1172 C 0.82235 0.0353 0.80922 0.0
C1173 C 0.80083 0.03169 0.79319 0.0
C1174 C 0.74598 0.05434 0.77503 0.0
C1175 C 0.69864 0.05341 0.71702 0.0
C1176 C 0.72228 0.04981 0.73278 0.0
C1177 C 0.79265 0.05079 0.77549 0.0
C1178 C 0.7684 0.04855 0.7612 0.0
H1179 H 0.66767 0.02929 0.66198 0.0
H1180 H 0.70323 0.01994 0.69203 0.0
H1181 H 0.70607 0.06004 0.77194 0.0
H1182 H 0.83803 0.09462 0.78767 0.0
H1183 H 0.80048 0.08804 0.75953 0.0
loop_
_geom_bond_atom_site_label_1
_geom_bond_atom_site_label_2
_geom_bond_distance
_geom_bond_site_symmetry_2
_ccdc_geom_bond_type
Mg0 O1 2.028 . S
Mg0 O7 1.986 . S
Mg0 O9 2.114 . S
Mg0 O10 2.251 . S
Mg0 O13 2.010 . S
O1 Mg0 2.028 . S
O1 C4 1.250 . S
O2 Mg3 2.028 . S
O2 C4 1.248 . S
Mg3 O2 2.028 . S
Mg3 O8 2.032 . S
Mg3 O10 2.079 . S
C4 O1 1.250 . S
C4 O2 1.248 . S
C5 O6 1.264 . S
C5 O13 1.249 . S
O6 C5 1.264 . S
O7 Mg0 1.986 . S
O7 C11 1.246 . S
O8 Mg3 2.032 . S
O8 C11 1.259 . S
O9 Mg0 2.114 . S
O9 C12 1.252 . S
O10 Mg0 2.251 . S
O10 Mg3 2.079 . S
O10 C12 1.273 . S
C11 O7 1.246 . S
C11 O8 1.259 . S
C12 O9 1.252 . S
C12 O10 1.273 . S
O13 Mg0 2.010 . S
O13 C5 1.249 . S
Mg14 O15 2.028 . S
Mg14 O21 1.986 . S
Mg14 O23 2.114 . S
Mg14 O24 2.251 . S
Mg14 O27 2.010 . S
O15 Mg14 2.028 . S
O15 C18 1.250 . S
O16 Mg17 2.028 . S
O16 C18 1.248 . S
Mg17 O16 2.028 . S
Mg17 O22 2.032 . S
Mg17 O24 2.079 . S
C18 O15 1.250 . S
C18 O16 1.248 . S
C19 O20 1.264 . S
C19 O27 1.249 . S
O20 C19 1.264 . S
O21 Mg14 1.986 . S
O21 C25 1.246 . S
O22 Mg17 2.032 . S
O22 C25 1.259 . S
O23 Mg14 2.114 . S
O23 C26 1.252 . S
O24 Mg14 2.251 . S
O24 Mg17 2.079 . S
O24 C26 1.273 . S
C25 O21 1.246 . S
C25 O22 1.259 . S
C26 O23 1.252 . S
C26 O24 1.273 . S
O27 Mg14 2.010 . S
O27 C19 1.249 . S
Mg28 O29 2.028 . S
Mg28 O35 1.986 . S
Mg28 O37 2.114 . S
Mg28 O38 2.251 . S
Mg28 O41 2.010 . S
O29 Mg28 2.028 . S
O29 C32 1.250 . S
O30 Mg31 2.028 . S
O30 C32 1.248 . S
Mg31 O30 2.028 . S
Mg31 O36 2.032 . S
Mg31 O38 2.079 . S
C32 O29 1.250 . S
C32 O30 1.248 . S
C33 O34 1.264 . S
C33 O41 1.249 . S
O34 C33 1.264 . S
O35 Mg28 1.986 . S
O35 C39 1.246 . S
O36 Mg31 2.032 . S
O36 C39 1.259 . S
O37 Mg28 2.114 . S
O37 C40 1.252 . S
O38 Mg28 2.251 . S
O38 Mg31 2.079 . S
O38 C40 1.273 . S
C39 O35 1.246 . S
C39 O36 1.259 . S
C40 O37 1.252 . S
C40 O38 1.273 . S
O41 Mg28 2.010 . S
O41 C33 1.249 . S
Mg42 O43 2.028 . S
Mg42 O49 1.986 . S
Mg42 O51 2.114 . S
Mg42 O52 2.251 . S
Mg42 O55 2.010 . S
O43 Mg42 2.028 . S
O43 C46 1.250 . S
O44 Mg45 2.028 . S
O44 C46 1.248 . S
Mg45 O44 2.028 . S
Mg45 O50 2.032 . S
Mg45 O52 2.079 . S
C46 O43 1.250 . S
C46 O44 1.248 . S
C47 O48 1.264 . S
C47 O55 1.249 . S
O48 C47 1.264 . S
O49 Mg42 1.986 . S
O49 C53 1.246 . S
O50 Mg45 2.032 . S
O50 C53 1.259 . S
O51 Mg42 2.114 . S
O51 C54 1.252 . S
O52 Mg42 2.251 . S
O52 Mg45 2.079 . S
O52 C54 1.273 . S
C53 O49 1.246 . S
C53 O50 1.259 . S
C54 O51 1.252 . S
C54 O52 1.273 . S
O55 Mg42 2.010 . S
O55 C47 1.249 . S
Mg56 O57 2.028 . S
Mg56 O63 1.986 . S
Mg56 O65 2.114 . S
Mg56 O66 2.251 . S
Mg56 O69 2.010 . S
O57 Mg56 2.028 . S
O57 C60 1.250 . S
O58 Mg59 2.028 . S
O58 C60 1.248 . S
Mg59 O58 2.028 . S
Mg59 O64 2.032 . S
Mg59 O66 2.079 . S
C60 O57 1.250 . S
C60 O58 1.248 . S
C61 O62 1.264 . S
C61 O69 1.249 . S
O62 C61 1.264 . S
O63 Mg56 1.986 . S
O63 C67 1.246 . S
O64 Mg59 2.032 . S
O64 C67 1.259 . S
O65 Mg56 2.114 . S
O65 C68 1.252 . S
O66 Mg56 2.251 . S
O66 Mg59 2.079 . S
O66 C68 1.273 . S
C67 O63 1.246 . S
C67 O64 1.259 . S
C68 O65 1.252 . S
C68 O66 1.273 . S
O69 Mg56 2.010 . S
O69 C61 1.249 . S
Mg70 O71 2.028 . S
Mg70 O77 1.986 . S
Mg70 O79 2.114 . S
Mg70 O80 2.251 . S
Mg70 O83 2.010 . S
O71 Mg70 2.028 . S
O71 C74 1.250 . S
O72 Mg73 2.028 . S
O72 C74 1.248 . S
Mg73 O72 2.028 . S
Mg73 O78 2.032 . S
Mg73 O80 2.079 . S
C74 O71 1.250 . S
C74 O72 1.248 . S
C75 O76 1.264 . S
C75 O83 1.249 . S
O76 C75 1.264 . S
O77 Mg70 1.986 . S
O77 C81 1.246 . S
O78 Mg73 2.032 . S
O78 C81 1.259 . S
O79 Mg70 2.114 . S
O79 C82 1.252 . S
O80 Mg70 2.251 . S
O80 Mg73 2.079 . S
O80 C82 1.273 . S
C81 O77 1.246 . S
C81 O78 1.259 . S
C82 O79 1.252 . S
C82 O80 1.273 . S
O83 Mg70 2.010 . S
O83 C75 1.249 . S
Mg84 O85 2.028 . S
Mg84 O91 1.986 . S
Mg84 O93 2.114 . S
Mg84 O94 2.251 . S
Mg84 O97 2.010 . S
O85 Mg84 2.028 . S
O85 C88 1.250 . S
O86 Mg87 2.028 . S
O86 C88 1.248 . S
Mg87 O86 2.028 . S
Mg87 O92 2.032 . S
Mg87 O94 2.079 . S
C88 O85 1.250 . S
C88 O86 1.248 . S
C89 O90 1.264 . S
C89 O97 1.249 . S
O90 C89 1.264 . S
O91 Mg84 1.986 . S
O91 C95 1.246 . S
O92 Mg87 2.032 . S
O92 C95 1.259 . S
O93 Mg84 2.114 . S
O93 C96 1.252 . S
O94 Mg84 2.251 . S
O94 Mg87 2.079 . S
O94 C96 1.273 . S
C95 O91 1.246 . S
C95 O92 1.259 . S
C96 O93 1.252 . S
C96 O94 1.273 . S
O97 Mg84 2.010 . S
O97 C89 1.249 . S
Mg98 O99 2.028 . S
Mg98 O105 1.986 . S
Mg98 O107 2.114 . S
Mg98 O108 2.251 . S
Mg98 O111 2.010 . S
O99 Mg98 2.028 . S
O99 C102 1.250 . S
O100 Mg101 2.028 . S
O100 C102 1.248 . S
Mg101 O100 2.028 . S
Mg101 O106 2.032 . S
Mg101 O108 2.079 . S
C102 O99 1.250 . S
C102 O100 1.248 . S
C103 O104 1.264 . S
C103 O111 1.249 . S
O104 C103 1.264 . S
O105 Mg98 1.986 . S
O105 C109 1.246 . S
O106 Mg101 2.032 . S
O106 C109 1.259 . S
O107 Mg98 2.114 . S
O107 C110 1.252 . S
O108 Mg98 2.251 . S
O108 Mg101 2.079 . S
O108 C110 1.273 . S
C109 O105 1.246 . S
C109 O106 1.259 . S
C110 O107 1.252 . S
C110 O108 1.273 . S
O111 Mg98 2.010 . S
O111 C103 1.249 . S
Mg112 O113 2.028 . S
Mg112 O119 1.986 . S
Mg112 O121 2.114 . S
Mg112 O122 2.251 . S
Mg112 O125 2.010 . S
O113 Mg112 2.028 . S
O113 C116 1.250 . S
O114 Mg115 2.028 . S
O114 C116 1.248 . S
Mg115 O114 2.028 . S
Mg115 O120 2.032 . S
Mg115 O122 2.079 . S
C116 O113 1.250 . S
C116 O114 1.248 . S
C117 O118 1.264 . S
C117 O125 1.249 . S
O118 C117 1.264 . S
O119 Mg112 1.986 . S
O119 C123 1.246 . S
O120 Mg115 2.032 . S
O120 C123 1.259 . S
O121 Mg112 2.114 . S
O121 C124 1.252 . S
O122 Mg112 2.251 . S
O122 Mg115 2.079 . S
O122 C124 1.273 . S
C123 O119 1.246 . S
C123 O120 1.259 . S
C124 O121 1.252 . S
C124 O122 1.273 . S
O125 Mg112 2.010 . S
O125 C117 1.249 . S
Mg126 O127 2.028 . S
Mg126 O133 1.986 . S
Mg126 O135 2.114 . S
Mg126 O136 2.251 . S
Mg126 O139 2.010 . S
O127 Mg126 2.028 . S
O127 C130 1.250 . S
O128 Mg129 2.028 . S
O128 C130 1.248 . S
Mg129 O128 2.028 . S
Mg129 O134 2.032 . S
Mg129 O136 2.079 . S
C130 O127 1.250 . S
C130 O128 1.248 . S
C131 O132 1.264 . S
C131 O139 1.249 . S
O132 C131 1.264 . S
O133 Mg126 1.986 . S
O133 C137 1.246 . S
O134 Mg129 2.032 . S
O134 C137 1.259 . S
O135 Mg126 2.114 . S
O135 C138 1.252 . S
O136 Mg126 2.251 . S
O136 Mg129 2.079 . S
O136 C138 1.273 . S
C137 O133 1.246 . S
C137 O134 1.259 . S
C138 O135 1.252 . S
C138 O136 1.273 . S
O139 Mg126 2.010 . S
O139 C131 1.249 . S
Mg140 O141 2.028 . S
Mg140 O147 1.986 . S
Mg140 O149 2.114 . S
Mg140 O150 2.251 . S
Mg140 O153 2.010 . S
O141 Mg140 2.028 . S
O141 C144 1.250 . S
O142 Mg143 2.028 . S
O142 C144 1.248 . S
Mg143 O142 2.028 . S
Mg143 O148 2.032 . S
Mg143 O150 2.079 . S
C144 O141 1.250 . S
C144 O142 1.248 . S
C145 O146 1.264 . S
C145 O153 1.249 . S
O146 C145 1.264 . S
O147 Mg140 1.986 . S
O147 C151 1.246 . S
O148 Mg143 2.032 . S
O148 C151 1.259 . S
O149 Mg140 2.114 . S
O149 C152 1.252 . S
O150 Mg140 2.251 . S
O150 Mg143 2.079 . S
O150 C152 1.273 . S
C151 O147 1.246 . S
C151 O148 1.259 . S
C152 O149 1.252 . S
C152 O150 1.273 . S
O153 Mg140 2.010 . S
O153 C145 1.249 . S
Mg154 O155 2.028 . S
Mg154 O161 1.986 . S
Mg154 O163 2.114 . S
Mg154 O164 2.251 . S
Mg154 O167 2.010 . S
O155 Mg154 2.028 . S
O155 C158 1.250 . S
O156 Mg157 2.028 . S
O156 C158 1.248 . S
Mg157 O156 2.028 . S
Mg157 O162 2.032 . S
Mg157 O164 2.079 . S
C158 O155 1.250 . S
C158 O156 1.248 . S
C159 O160 1.264 . S
C159 O167 1.249 . S
O160 C159 1.264 . S
O161 Mg154 1.986 . S
O161 C165 1.246 . S
O162 Mg157 2.032 . S
O162 C165 1.259 . S
O163 Mg154 2.114 . S
O163 C166 1.252 . S
O164 Mg154 2.251 . S
O164 Mg157 2.079 . S
O164 C166 1.273 . S
C165 O161 1.246 . S
C165 O162 1.259 . S
C166 O163 1.252 . S
C166 O164 1.273 . S
O167 Mg154 2.010 . S
O167 C159 1.249 . S
Mg168 O169 2.028 . S
Mg168 O175 1.986 . S
Mg168 O177 2.114 . S
Mg168 O178 2.251 . S
Mg168 O181 2.010 . S
O169 Mg168 2.028 . S
O169 C172 1.250 . S
O170 Mg171 2.028 . S
O170 C172 1.248 . S
Mg171 O170 2.028 . S
Mg171 O176 2.032 . S
Mg171 O178 2.079 . S
C172 O169 1.250 . S
C172 O170 1.248 . S
C173 O174 1.264 . S
C173 O181 1.249 . S
O174 C173 1.264 . S
O175 Mg168 1.986 . S
O175 C179 1.246 . S
O176 Mg171 2.032 . S
O176 C179 1.259 . S
O177 Mg168 2.114 . S
O177 C180 1.252 . S
O178 Mg168 2.251 . S
O178 Mg171 2.079 . S
O178 C180 1.273 . S
C179 O175 1.246 . S
C179 O176 1.259 . S
C180 O177 1.252 . S
C180 O178 1.273 . S
O181 Mg168 2.010 . S
O181 C173 1.249 . S
Mg182 O183 2.028 . S
Mg182 O189 1.986 . S
Mg182 O191 2.114 . S
Mg182 O192 2.251 . S
Mg182 O195 2.010 . S
O183 Mg182 2.028 . S
O183 C186 1.250 . S
O184 Mg185 2.028 . S
O184 C186 1.248 . S
Mg185 O184 2.028 . S
Mg185 O190 2.032 . S
Mg185 O192 2.079 . S
C186 O183 1.250 . S
C186 O184 1.248 . S
C187 O188 1.264 . S
C187 O195 1.249 . S
O188 C187 1.264 . S
O189 Mg182 1.986 . S
O189 C193 1.246 . S
O190 Mg185 2.032 . S
O190 C193 1.259 . S
O191 Mg182 2.114 . S
O191 C194 1.252 . S
O192 Mg182 2.251 . S
O192 Mg185 2.079 . S
O192 C194 1.273 . S
C193 O189 1.246 . S
C193 O190 1.259 . S
C194 O191 1.252 . S
C194 O192 1.273 . S
O195 Mg182 2.010 . S
O195 C187 1.249 . S
Mg196 O197 2.028 . S
Mg196 O203 1.986 . S
Mg196 O205 2.114 . S
Mg196 O206 2.251 . S
Mg196 O209 2.010 . S
O197 Mg196 2.028 . S
O197 C200 1.250 . S
O198 Mg199 2.028 . S
O198 C200 1.248 . S
Mg199 O198 2.028 . S
Mg199 O204 2.032 . S
Mg199 O206 2.079 . S
C200 O197 1.250 . S
C200 O198 1.248 . S
C201 O202 1.264 . S
C201 O209 1.249 . S
O202 C201 1.264 . S
O203 Mg196 1.986 . S
O203 C207 1.246 . S
O204 Mg199 2.032 . S
O204 C207 1.259 . S
O205 Mg196 2.114 . S
O205 C208 1.252 . S
O206 Mg196 2.251 . S
O206 Mg199 2.079 . S
O206 C208 1.273 . S
C207 O203 1.246 . S
C207 O204 1.259 . S
C208 O205 1.252 . S
C208 O206 1.273 . S
O209 Mg196 2.010 . S
O209 C201 1.249 . S
Mg210 O211 2.028 . S
Mg210 O217 1.986 . S
Mg210 O219 2.114 . S
Mg210 O220 2.251 . S
Mg210 O223 2.010 . S
O211 Mg210 2.028 . S
O211 C214 1.250 . S
O212 Mg213 2.028 . S
O212 C214 1.248 . S
Mg213 O212 2.028 . S
Mg213 O218 2.032 . S
Mg213 O220 2.079 . S
C214 O211 1.250 . S
C214 O212 1.248 . S
C215 O216 1.264 . S
C215 O223 1.249 . S
O216 C215 1.264 . S
O217 Mg210 1.986 . S
O217 C221 1.246 . S
O218 Mg213 2.032 . S
O218 C221 1.259 . S
O219 Mg210 2.114 . S
O219 C222 1.252 . S
O220 Mg210 2.251 . S
O220 Mg213 2.079 . S
O220 C222 1.273 . S
C221 O217 1.246 . S
C221 O218 1.259 . S
C222 O219 1.252 . S
C222 O220 1.273 . S
O223 Mg210 2.010 . S
O223 C215 1.249 . S
C224 C225 1.349 . S
C224 C226 1.327 . S
C224 H249 0.950 . S
C225 C224 1.349 . S
C225 C241 1.349 . S
C226 C224 1.327 . S
C226 C245 1.429 . S
C226 H250 0.950 . S
C227 C244 1.574 . S
C227 C246 1.368 1_556 S
C227 H251 0.949 . S
H228 C232 0.949 . S
C229 C230 1.349 . S
C229 C231 1.327 . S
C229 H252 0.950 . S
C230 C229 1.349 . S
C230 C242 1.349 . S
C231 C229 1.327 . S
C231 C247 1.429 . S
C231 H253 0.950 . S
C232 H228 0.949 . S
C232 C240 1.574 . S
C232 C248 1.368 1_554 S
H233 C241 0.950 . S
H234 C239 0.950 1_556 S
H235 C240 0.949 . S
H236 C242 0.950 . S
H237 C243 0.950 . S
H238 C244 0.949 . S
C239 H234 0.950 1_554 S
C239 C241 1.327 . S
C239 C245 1.429 . S
C240 C232 1.574 . S
C240 H235 0.949 . S
C240 C246 1.368 . S
C241 C225 1.349 . S
C241 H233 0.950 . S
C241 C239 1.327 . S
C242 C230 1.349 . S
C242 H236 0.950 . S
C242 C243 1.327 . S
C243 H237 0.950 . S
C243 C242 1.327 . S
C243 C247 1.429 . S
C244 C227 1.574 . S
C244 H238 0.949 . S
C244 C248 1.368 . S
C245 C226 1.429 . S
C245 C239 1.429 . S
C245 C246 1.523 . S
C246 C227 1.368 1_554 S
C246 C240 1.368 . S
C246 C245 1.523 . S
C247 C231 1.429 . S
C247 C243 1.429 . S
C247 C248 1.523 . S
C248 C232 1.368 1_556 S
C248 C244 1.368 . S
C248 C247 1.523 . S
H249 C224 0.950 . S
H250 C226 0.950 . S
H251 C227 0.949 . S
H252 C229 0.950 . S
H253 C231 0.950 . S
C254 C255 1.349 . S
C254 C256 1.327 . S
C254 H279 0.950 . S
C255 C254 1.349 . S
C255 C271 1.349 . S
C256 C254 1.327 . S
C256 C275 1.429 . S
C256 H280 0.950 . S
C257 C274 1.574 . S
C257 C276 1.368 . S
C257 H281 0.949 . S
H258 C262 0.949 . S
C259 C260 1.349 . S
C259 C261 1.327 . S
C259 H282 0.950 . S
C260 C259 1.349 . S
C260 C272 1.349 . S
C261 C259 1.327 . S
C261 C277 1.429 . S
C261 H283 0.950 . S
C262 H258 0.949 . S
C262 C270 1.558 1_554 S
C262 C278 1.368 . S
H263 C271 0.950 . S
H264 C269 0.950 . S
H265 C270 0.943 1_554 S
H266 C272 0.950 . S
H267 C273 0.950 . S
H268 C274 0.949 . S
C269 H264 0.950 . S
C269 C271 1.327 . S
C269 C275 1.429 . S
C270 C262 1.558 1_556 S
C270 H265 0.943 1_556 S
C270 C276 1.391 . S
C271 C255 1.349 . S
C271 H263 0.950 . S
C271 C269 1.327 . S
C272 C260 1.349 . S
C272 H266 0.950 . S
C272 C273 1.327 . S
C273 H267 0.950 . S
C273 C272 1.327 . S
C273 C277 1.429 . S
C274 C257 1.574 . S
C274 H268 0.949 . S
C274 C278 1.368 1_556 S
C275 C256 1.429 . S
C275 C269 1.429 . S
C275 C276 1.523 . S
C276 C257 1.368 . S
C276 C270 1.391 . S
C276 C275 1.523 . S
C277 C261 1.429 . S
C277 C273 1.429 . S
C277 C278 1.523 . S
C278 C262 1.368 . S
C278 C274 1.368 1_554 S
C278 C277 1.523 . S
H279 C254 0.950 . S
H280 C256 0.950 . S
H281 C257 0.949 . S
H282 C259 0.950 . S
H283 C261 0.950 . S
C284 C285 1.349 . S
C284 C286 1.327 . S
C284 H309 0.950 . S
C285 C284 1.349 . S
C285 C301 1.349 . S
C286 C284 1.327 . S
C286 C305 1.429 . S
C286 H310 0.950 . S
C287 C304 1.574 1_556 S
C287 C306 1.368 . S
C287 H311 0.949 . S
H288 C292 0.949 . S
C289 C290 1.349 . S
C289 C291 1.327 . S
C289 H312 0.950 . S
C290 C289 1.349 . S
C290 C302 1.349 . S
C291 C289 1.327 . S
C291 C307 1.429 . S
C291 H313 0.950 . S
C292 H288 0.949 . S
C292 C300 1.574 . S
C292 C308 1.368 1_556 S
H293 C301 0.950 . S
H294 C299 0.950 . S
H295 C300 0.949 . S
H296 C302 0.950 . S
H297 C303 0.950 . S
H298 C304 0.949 . S
C299 H294 0.950 . S
C299 C301 1.327 . S
C299 C305 1.429 . S
C300 C292 1.574 . S
C300 H295 0.949 . S
C300 C306 1.368 . S
C301 C285 1.349 . S
C301 H293 0.950 . S
C301 C299 1.327 . S
C302 C290 1.349 . S
C302 H296 0.950 . S
C302 C303 1.327 . S
C303 H297 0.950 . S
C303 C302 1.327 . S
C303 C307 1.429 . S
C304 C287 1.574 1_554 S
C304 H298 0.949 . S
C304 C308 1.368 . S
C305 C286 1.429 . S
C305 C299 1.429 . S
C305 C306 1.523 . S
C306 C287 1.368 . S
C306 C300 1.368 . S
C306 C305 1.523 . S
C307 C291 1.429 . S
C307 C303 1.429 . S
C307 C308 1.523 . S
C308 C292 1.368 1_554 S
C308 C304 1.368 . S
C308 C307 1.523 . S
H309 C284 0.950 . S
H310 C286 0.950 . S
H311 C287 0.949 . S
H312 C289 0.950 . S
H313 C291 0.950 . S
C314 C315 1.349 . S
C314 C316 1.327 . S
C314 H339 0.950 . S
C315 C314 1.349 . S
C315 C331 1.349 . S
C316 C314 1.327 . S
C316 C335 1.429 . S
C316 H340 0.950 . S
C317 C334 1.574 . S
C317 C336 1.368 . S
C317 H341 0.949 . S
H318 C322 0.949 . S
C319 C320 1.349 . S
C319 C321 1.327 . S
C319 H342 0.950 . S
C320 C319 1.349 . S
C320 C332 1.349 . S
C321 C319 1.327 . S
C321 C337 1.429 . S
C321 H343 0.950 1_554 S
C322 H318 0.949 . S
C322 C330 1.574 . S
C322 C338 1.368 . S
H323 C331 0.950 . S
H324 C329 0.950 . S
H325 C330 0.949 . S
H326 C332 0.950 . S
H327 C333 0.950 . S
H328 C334 0.949 . S
C329 H324 0.950 . S
C329 C331 1.327 . S
C329 C335 1.429 . S
C330 C322 1.574 . S
C330 H325 0.949 . S
C330 C336 1.368 1_554 S
C331 C315 1.349 . S
C331 H323 0.950 . S
C331 C329 1.327 . S
C332 C320 1.349 . S
C332 H326 0.950 . S
C332 C333 1.327 . S
C333 H327 0.950 . S
C333 C332 1.327 . S
C333 C337 1.429 . S
C334 C317 1.574 . S
C334 H328 0.949 . S
C334 C338 1.368 1_556 S
C335 C316 1.429 . S
C335 C329 1.429 . S
C335 C336 1.523 . S
C336 C317 1.368 . S
C336 C330 1.368 1_556 S
C336 C335 1.523 . S
C337 C321 1.429 . S
C337 C333 1.429 . S
C337 C338 1.523 . S
C338 C322 1.368 . S
C338 C334 1.368 1_554 S
C338 C337 1.523 . S
H339 C314 0.950 . S
H340 C316 0.950 . S
H341 C317 0.949 . S
H342 C319 0.950 . S
H343 C321 0.950 1_556 S
C344 C345 1.349 . S
C344 C346 1.327 . S
C344 H369 0.950 . S
C345 C344 1.349 . S
C345 C361 1.349 . S
C346 C344 1.327 . S
C346 C365 1.429 . S
C346 H370 0.950 . S
C347 C364 1.574 . S
C347 C366 1.368 . S
C347 H371 0.949 . S
H348 C352 0.949 . S
C349 C350 1.349 . S
C349 C351 1.327 . S
C349 H372 0.950 . S
C350 C349 1.349 . S
C350 C362 1.349 . S
C351 C349 1.327 . S
C351 C367 1.429 . S
C351 H373 0.950 . S
C352 H348 0.949 . S
C352 C360 1.574 . S
C352 C368 1.368 . S
H353 C361 0.950 . S
H354 C359 0.950 . S
H355 C360 0.949 . S
H356 C362 0.950 . S
H357 C363 0.950 . S
H358 C364 0.949 . S
C359 H354 0.950 . S
C359 C361 1.327 . S
C359 C365 1.429 . S
C360 C352 1.574 . S
C360 H355 0.949 . S
C360 C366 1.368 . S
C361 C345 1.349 . S
C361 H353 0.950 . S
C361 C359 1.327 . S
C362 C350 1.349 . S
C362 H356 0.950 . S
C362 C363 1.327 . S
C363 H357 0.950 . S
C363 C362 1.327 . S
C363 C367 1.429 . S
C364 C347 1.574 . S
C364 H358 0.949 . S
C364 C368 1.368 . S
C365 C346 1.429 . S
C365 C359 1.429 . S
C365 C366 1.523 . S
C366 C347 1.368 . S
C366 C360 1.368 . S
C366 C365 1.523 . S
C367 C351 1.429 . S
C367 C363 1.429 . S
C367 C368 1.523 . S
C368 C352 1.368 . S
C368 C364 1.368 . S
C368 C367 1.523 . S
H369 C344 0.950 . S
H370 C346 0.950 . S
H371 C347 0.949 . S
H372 C349 0.950 . S
H373 C351 0.950 . S
C374 C375 1.349 . S
C374 C376 1.327 . S
C374 H399 0.950 . S
C375 C374 1.349 . S
C375 C391 1.349 . S
C376 C374 1.327 . S
C376 C395 1.429 . S
C376 H400 0.950 . S
C377 C394 1.574 . S
C377 C396 1.368 . S
C377 H401 0.949 . S
H378 C382 0.949 . S
C379 C380 1.349 . S
C379 C381 1.327 . S
C379 H402 0.950 . S
C380 C379 1.349 . S
C380 C392 1.349 . S
C381 C379 1.327 . S
C381 C397 1.429 . S
C381 H403 0.950 . S
C382 H378 0.949 . S
C382 C390 1.574 . S
C382 C398 1.368 . S
H383 C391 0.950 . S
H384 C389 0.950 . S
H385 C390 0.949 . S
H386 C392 0.950 . S
H387 C393 0.950 . S
H388 C394 0.949 . S
C389 H384 0.950 . S
C389 C391 1.327 . S
C389 C395 1.429 . S
C390 C382 1.574 . S
C390 H385 0.949 . S
C390 C396 1.368 . S
C391 C375 1.349 . S
C391 H383 0.950 . S
C391 C389 1.327 . S
C392 C380 1.349 . S
C392 H386 0.950 . S
C392 C393 1.327 . S
C393 H387 0.950 . S
C393 C392 1.327 . S
C393 C397 1.429 . S
C394 C377 1.574 . S
C394 H388 0.949 . S
C394 C398 1.368 . S
C395 C376 1.429 . S
C395 C389 1.429 . S
C395 C396 1.523 . S
C396 C377 1.368 . S
C396 C390 1.368 . S
C396 C395 1.523 . S
C397 C381 1.429 . S
C397 C393 1.429 . S
C397 C398 1.523 . S
C398 C382 1.368 . S
C398 C394 1.368 . S
C398 C397 1.523 . S
H399 C374 0.950 . S
H400 C376 0.950 . S
H401 C377 0.949 . S
H402 C379 0.950 . S
H403 C381 0.950 . S
C404 C405 1.349 . S
C404 C406 1.327 . S
C404 H429 0.950 . S
C405 C404 1.349 . S
C405 C421 1.349 . S
C406 C404 1.327 . S
C406 C425 1.429 . S
C406 H430 0.950 . S
C407 C424 1.574 . S
C407 C426 1.368 . S
C407 H431 0.949 . S
H408 C412 0.949 . S
C409 C410 1.349 . S
C409 C411 1.327 . S
C409 H432 0.950 . S
C410 C409 1.349 . S
C410 C422 1.349 . S
C411 C409 1.327 . S
C411 C427 1.429 . S
C411 H433 0.950 . S
C412 H408 0.949 . S
C412 C420 1.574 . S
C412 C428 1.368 . S
H413 C421 0.950 . S
H414 C419 0.950 . S
H415 C420 0.949 . S
H416 C422 0.950 . S
H417 C423 0.950 . S
H418 C424 0.949 . S
C419 H414 0.950 . S
C419 C421 1.327 . S
C419 C425 1.429 . S
C420 C412 1.574 . S
C420 H415 0.949 . S
C420 C426 1.368 . S
C421 C405 1.349 . S
C421 H413 0.950 . S
C421 C419 1.327 . S
C422 C410 1.349 . S
C422 H416 0.950 . S
C422 C423 1.327 . S
C423 H417 0.950 . S
C423 C422 1.327 . S
C423 C427 1.429 . S
C424 C407 1.574 . S
C424 H418 0.949 . S
C424 C428 1.368 . S
C425 C406 1.429 . S
C425 C419 1.429 . S
C425 C426 1.523 . S
C426 C407 1.368 . S
C426 C420 1.368 . S
C426 C425 1.523 . S
C427 C411 1.429 . S
C427 C423 1.429 . S
C427 C428 1.523 . S
C428 C412 1.368 . S
C428 C424 1.368 . S
C428 C427 1.523 . S
H429 C404 0.950 . S
H430 C406 0.950 . S
H431 C407 0.949 . S
H432 C409 0.950 . S
H433 C411 0.950 . S
C434 C435 1.349 . S
C434 C436 1.327 . S
C434 H459 0.950 . S
C435 C434 1.349 . S
C435 C451 1.349 . S
C436 C434 1.327 . S
C436 C455 1.429 . S
C436 H460 0.950 . S
C437 C454 1.574 . S
C437 C456 1.368 . S
C437 H461 0.949 . S
H438 C442 0.949 . S
C439 C440 1.349 . S
C439 C441 1.327 . S
C439 H462 0.950 . S
C440 C439 1.349 . S
C440 C452 1.349 . S
C441 C439 1.327 . S
C441 C457 1.429 . S
C441 H463 0.950 . S
C442 H438 0.949 . S
C442 C450 1.574 . S
C442 C458 1.368 . S
H443 C451 0.950 . S
H444 C449 0.950 . S
H445 C450 0.949 . S
H446 C452 0.950 . S
H447 C453 0.950 . S
H448 C454 0.949 . S
C449 H444 0.950 . S
C449 C451 1.327 . S
C449 C455 1.429 . S
C450 C442 1.574 . S
C450 H445 0.949 . S
C450 C456 1.368 . S
C451 C435 1.349 . S
C451 H443 0.950 . S
C451 C449 1.327 . S
C452 C440 1.349 . S
C452 H446 0.950 . S
C452 C453 1.327 . S
C453 H447 0.950 . S
C453 C452 1.327 . S
C453 C457 1.429 . S
C454 C437 1.574 . S
C454 H448 0.949 . S
C454 C458 1.368 . S
C455 C436 1.429 . S
C455 C449 1.429 . S
C455 C456 1.523 . S
C456 C437 1.368 . S
C456 C450 1.368 . S
C456 C455 1.523 . S
C457 C441 1.429 . S
C457 C453 1.429 . S
C457 C458 1.523 . S
C458 C442 1.368 . S
C458 C454 1.368 . S
C458 C457 1.523 . S
H459 C434 0.950 . S
H460 C436 0.950 . S
H461 C437 0.949 . S
H462 C439 0.950 . S
H463 C441 0.950 . S
C464 C465 1.349 . S
C464 C466 1.327 . S
C464 H489 0.950 . S
C465 C464 1.349 . S
C465 C481 1.349 . S
C466 C464 1.327 . S
C466 C485 1.429 . S
C466 H490 0.950 1_556 S
C467 C484 1.574 1_556 S
C467 C486 1.368 . S
C467 H491 0.949 . S
H468 C472 0.949 . S
C469 C470 1.349 . S
C469 C471 1.327 . S
C469 H492 0.950 . S
C470 C469 1.349 . S
C470 C482 1.349 . S
C471 C469 1.327 . S
C471 C487 1.429 . S
C471 H493 0.950 . S
C472 H468 0.949 . S
C472 C480 1.574 . S
C472 C488 1.368 . S
H473 C481 0.950 . S
H474 C479 0.950 . S
H475 C480 0.949 . S
H476 C482 0.950 . S
H477 C483 0.950 . S
H478 C484 0.949 1_556 S
C479 H474 0.950 . S
C479 C481 1.327 . S
C479 C485 1.429 . S
C480 C472 1.574 . S
C480 H475 0.949 . S
C480 C486 1.368 1_554 S
C481 C465 1.349 . S
C481 H473 0.950 . S
C481 C479 1.327 . S
C482 C470 1.349 . S
C482 H476 0.950 . S
C482 C483 1.327 . S
C483 H477 0.950 . S
C483 C482 1.327 . S
C483 C487 1.429 . S
C484 C467 1.574 1_554 S
C484 H478 0.949 1_554 S
C484 C488 1.368 . S
C485 C466 1.429 . S
C485 C479 1.429 . S
C485 C486 1.523 . S
C486 C467 1.368 . S
C486 C480 1.368 1_556 S
C486 C485 1.523 . S
C487 C471 1.429 . S
C487 C483 1.429 . S
C487 C488 1.523 . S
C488 C472 1.368 . S
C488 C484 1.368 . S
C488 C487 1.523 . S
H489 C464 0.950 . S
H490 C466 0.950 1_554 S
H491 C467 0.949 . S
H492 C469 0.950 . S
H493 C471 0.950 . S
C494 C495 1.349 . S
C494 C496 1.327 . S
C494 H519 0.950 . S
C495 C494 1.349 . S
C495 C511 1.349 . S
C496 C494 1.327 . S
C496 C515 1.429 . S
C496 H520 0.950 . S
C497 C514 1.574 . S
C497 C516 1.368 1_554 S
C497 H521 0.949 . S
H498 C502 0.949 . S
C499 C500 1.349 . S
C499 C501 1.327 . S
C499 H522 0.950 . S
C500 C499 1.349 . S
C500 C512 1.349 . S
C501 C499 1.327 . S
C501 C517 1.429 . S
C501 H523 0.950 . S
C502 H498 0.949 . S
C502 C510 1.574 1_554 S
C502 C518 1.368 . S
H503 C511 0.950 . S
H504 C509 0.962 . S
H505 C510 0.949 . S
H506 C512 0.950 . S
H507 C513 0.950 . S
H508 C514 0.949 . S
C509 H504 0.962 . S
C509 C511 1.327 . S
C509 C515 1.429 . S
C510 C502 1.574 1_556 S
C510 H505 0.949 . S
C510 C516 1.368 . S
C511 C495 1.349 . S
C511 H503 0.950 . S
C511 C509 1.327 . S
C512 C500 1.349 . S
C512 H506 0.950 . S
C512 C513 1.327 . S
C513 H507 0.950 . S
C513 C512 1.327 . S
C513 C517 1.429 . S
C514 C497 1.574 . S
C514 H508 0.949 . S
C514 C518 1.368 . S
C515 C496 1.429 . S
C515 C509 1.429 . S
C515 C516 1.523 . S
C516 C497 1.368 1_556 S
C516 C510 1.368 . S
C516 C515 1.523 . S
C517 C501 1.429 . S
C517 C513 1.429 . S
C517 C518 1.523 . S
C518 C502 1.368 . S
C518 C514 1.368 . S
C518 C517 1.523 . S
H519 C494 0.950 . S
H520 C496 0.950 . S
H521 C497 0.949 . S
H522 C499 0.950 . S
H523 C501 0.950 . S
C524 C525 1.349 . S
C524 C526 1.327 . S
C524 H549 0.950 . S
C525 C524 1.349 . S
C525 C541 1.349 . S
C526 C524 1.327 . S
C526 C545 1.429 . S
C526 H550 0.950 . S
C527 C544 1.574 . S
C527 C546 1.368 1_554 S
C527 H551 0.949 . S
H528 C532 0.949 . S
C529 C530 1.349 . S
C529 C531 1.327 . S
C529 H552 0.950 . S
C530 C529 1.349 . S
C530 C542 1.349 . S
C531 C529 1.327 . S
C531 C547 1.429 . S
C531 H553 0.950 . S
C532 H528 0.949 . S
C532 C540 1.574 1_554 S
C532 C548 1.368 . S
H533 C541 0.950 . S
H534 C539 0.950 . S
H535 C540 0.949 . S
H536 C542 0.950 . S
H537 C543 0.950 . S
H538 C544 0.949 . S
C539 H534 0.950 . S
C539 C541 1.327 . S
C539 C545 1.429 . S
C540 C532 1.574 1_556 S
C540 H535 0.949 . S
C540 C546 1.368 . S
C541 C525 1.349 . S
C541 H533 0.950 . S
C541 C539 1.327 . S
C542 C530 1.349 . S
C542 H536 0.950 . S
C542 C543 1.327 . S
C543 H537 0.950 . S
C543 C542 1.327 . S
C543 C547 1.429 . S
C544 C527 1.574 . S
C544 H538 0.949 . S
C544 C548 1.368 . S
C545 C526 1.429 . S
C545 C539 1.429 . S
C545 C546 1.523 . S
C546 C527 1.368 1_556 S
C546 C540 1.368 . S
C546 C545 1.523 . S
C547 C531 1.429 . S
C547 C543 1.429 . S
C547 C548 1.523 . S
C548 C532 1.368 . S
C548 C544 1.368 . S
C548 C547 1.523 . S
H549 C524 0.950 . S
H550 C526 0.950 . S
H551 C527 0.949 . S
H552 C529 0.950 . S
H553 C531 0.950 . S
C554 C555 1.349 . S
C554 C556 1.327 . S
C554 H579 0.950 . S
C555 C554 1.349 . S
C555 C571 1.349 . S
C556 C554 1.327 . S
C556 C575 1.429 . S
C556 H580 0.950 . S
C557 C574 1.574 . S
C557 C576 1.368 . S
C557 H581 0.949 . S
H558 C562 0.949 . S
C559 C560 1.349 . S
C559 C561 1.327 . S
C559 H582 0.950 . S
C560 C559 1.349 . S
C560 C572 1.349 . S
C561 C559 1.327 . S
C561 C577 1.429 . S
C561 H583 0.950 . S
C562 H558 0.949 . S
C562 C570 1.574 . S
C562 C578 1.368 1_554 S
H563 C571 0.950 . S
H564 C569 0.950 . S
H565 C570 0.949 . S
H566 C572 0.950 . S
H567 C573 0.950 . S
H568 C574 0.949 1_556 S
C569 H564 0.950 . S
C569 C571 1.327 . S
C569 C575 1.429 . S
C570 C562 1.574 . S
C570 H565 0.949 . S
C570 C576 1.368 . S
C571 C555 1.349 . S
C571 H563 0.950 . S
C571 C569 1.327 . S
C572 C560 1.349 . S
C572 H566 0.950 . S
C572 C573 1.327 . S
C573 H567 0.950 . S
C573 C572 1.327 . S
C573 C577 1.429 . S
C574 C557 1.574 . S
C574 H568 0.949 1_554 S
C574 C578 1.368 1_554 S
C575 C556 1.429 . S
C575 C569 1.429 . S
C575 C576 1.523 . S
C576 C557 1.368 . S
C576 C570 1.368 . S
C576 C575 1.523 . S
C577 C561 1.429 . S
C577 C573 1.429 . S
C577 C578 1.523 . S
C578 C562 1.368 1_556 S
C578 C574 1.368 1_556 S
C578 C577 1.523 . S
H579 C554 0.950 . S
H580 C556 0.950 . S
H581 C557 0.949 . S
H582 C559 0.950 . S
H583 C561 0.950 . S
C584 C585 1.349 . S
C584 C586 1.327 . S
C584 H609 0.950 . S
C585 C584 1.349 . S
C585 C601 1.349 . S
C586 C584 1.327 . S
C586 C605 1.429 . S
C586 H610 0.950 . S
C587 C604 1.574 . S
C587 C606 1.368 . S
C587 H611 0.949 . S
H588 C592 0.949 . S
C589 C590 1.349 . S
C589 C591 1.327 . S
C589 H612 0.950 . S
C590 C589 1.349 . S
C590 C602 1.349 . S
C591 C589 1.327 . S
C591 C607 1.429 . S
C591 H613 0.950 . S
C592 H588 0.949 . S
C592 C600 1.574 . S
C592 C608 1.368 . S
H593 C601 0.950 . S
H594 C599 0.950 . S
H595 C600 0.949 . S
H596 C602 0.950 . S
H597 C603 0.950 . S
H598 C604 0.949 . S
C599 H594 0.950 . S
C599 C601 1.327 . S
C599 C605 1.429 . S
C600 C592 1.574 . S
C600 H595 0.949 . S
C600 C606 1.368 . S
C601 C585 1.349 . S
C601 H593 0.950 . S
C601 C599 1.327 . S
C602 C590 1.349 . S
C602 H596 0.950 . S
C602 C603 1.327 . S
C603 H597 0.950 . S
C603 C602 1.327 . S
C603 C607 1.429 . S
C604 C587 1.574 . S
C604 H598 0.949 . S
C604 C608 1.368 . S
C605 C586 1.429 . S
C605 C599 1.429 . S
C605 C606 1.523 . S
C606 C587 1.368 . S
C606 C600 1.368 . S
C606 C605 1.523 . S
C607 C591 1.429 . S
C607 C603 1.429 . S
C607 C608 1.523 . S
C608 C592 1.368 . S
C608 C604 1.368 . S
C608 C607 1.523 . S
H609 C584 0.950 . S
H610 C586 0.950 . S
H611 C587 0.949 . S
H612 C589 0.950 . S
H613 C591 0.950 . S
C614 C615 1.349 . S
C614 C616 1.327 . S
C614 H639 0.950 . S
C615 C614 1.349 . S
C615 C631 1.349 . S
C616 C614 1.327 . S
C616 C635 1.429 . S
C616 H640 0.950 . S
C617 C634 1.574 . S
C617 C636 1.368 . S
C617 H641 0.949 . S
H618 C622 0.949 . S
C619 C620 1.349 . S
C619 C621 1.327 . S
C619 H642 0.950 . S
C620 C619 1.349 . S
C620 C632 1.349 . S
C621 C619 1.327 . S
C621 C637 1.429 . S
C621 H643 0.950 . S
C622 H618 0.949 . S
C622 C630 1.574 . S
C622 C638 1.368 . S
H623 C631 0.950 . S
H624 C629 0.950 . S
H625 C630 0.949 . S
H626 C632 0.950 . S
H627 C633 0.950 . S
H628 C634 0.949 . S
C629 H624 0.950 . S
C629 C631 1.327 . S
C629 C635 1.429 . S
C630 C622 1.574 . S
C630 H625 0.949 . S
C630 C636 1.368 . S
C631 C615 1.349 . S
C631 H623 0.950 . S
C631 C629 1.327 . S
C632 C620 1.349 . S
C632 H626 0.950 . S
C632 C633 1.327 . S
C633 H627 0.950 . S
C633 C632 1.327 . S
C633 C637 1.429 . S
C634 C617 1.574 . S
C634 H628 0.949 . S
C634 C638 1.368 . S
C635 C616 1.429 . S
C635 C629 1.429 . S
C635 C636 1.523 . S
C636 C617 1.368 . S
C636 C630 1.368 . S
C636 C635 1.523 . S
C637 C621 1.429 . S
C637 C633 1.429 . S
C637 C638 1.523 . S
C638 C622 1.368 . S
C638 C634 1.368 . S
C638 C637 1.523 . S
H639 C614 0.950 . S
H640 C616 0.950 . S
H641 C617 0.949 . S
H642 C619 0.950 . S
H643 C621 0.950 . S
C644 C645 1.349 . S
C644 C646 1.327 . S
C644 H669 0.950 . S
C645 C644 1.349 . S
C645 C661 1.349 . S
C646 C644 1.327 . S
C646 C665 1.429 . S
C646 H670 0.950 . S
C647 C664 1.574 . S
C647 C666 1.368 . S
C647 H671 0.949 . S
H648 C652 0.949 . S
C649 C650 1.349 . S
C649 C651 1.327 . S
C649 H672 0.950 . S
C650 C649 1.349 . S
C650 C662 1.349 . S
C651 C649 1.327 . S
C651 C667 1.429 . S
C651 H673 0.950 . S
C652 H648 0.949 . S
C652 C660 1.574 . S
C652 C668 1.368 . S
H653 C661 0.950 . S
H654 C659 0.950 . S
H655 C660 0.949 . S
H656 C662 0.950 . S
H657 C663 0.950 . S
H658 C664 0.949 . S
C659 H654 0.950 . S
C659 C661 1.327 . S
C659 C665 1.429 . S
C660 C652 1.574 . S
C660 H655 0.949 . S
C660 C666 1.368 . S
C661 C645 1.349 . S
C661 H653 0.950 . S
C661 C659 1.327 . S
C662 C650 1.349 . S
C662 H656 0.950 . S
C662 C663 1.327 . S
C663 H657 0.950 . S
C663 C662 1.327 . S
C663 C667 1.429 . S
C664 C647 1.574 . S
C664 H658 0.949 . S
C664 C668 1.368 . S
C665 C646 1.429 . S
C665 C659 1.429 . S
C665 C666 1.523 . S
C666 C647 1.368 . S
C666 C660 1.368 . S
C666 C665 1.523 . S
C667 C651 1.429 . S
C667 C663 1.429 . S
C667 C668 1.523 . S
C668 C652 1.368 . S
C668 C664 1.368 . S
C668 C667 1.523 . S
H669 C644 0.950 . S
H670 C646 0.950 . S
H671 C647 0.949 . S
H672 C649 0.950 . S
H673 C651 0.950 . S
C674 C675 1.349 . S
C674 C676 1.327 . S
C674 H699 0.950 . S
C675 C674 1.349 . S
C675 C691 1.349 . S
C676 C674 1.327 . S
C676 C695 1.429 . S
C676 H700 0.950 . S
C677 C694 1.574 . S
C677 C696 1.368 . S
C677 H701 0.949 . S
H678 C682 0.949 . S
C679 C680 1.349 . S
C679 C681 1.327 . S
C679 H702 0.950 . S
C680 C679 1.349 . S
C680 C692 1.349 . S
C681 C679 1.327 . S
C681 C697 1.429 . S
C681 H703 0.950 . S
C682 H678 0.949 . S
C682 C690 1.574 . S
C682 C698 1.368 . S
H683 C691 0.950 . S
H684 C689 0.950 . S
H685 C690 0.949 . S
H686 C692 0.950 . S
H687 C693 0.950 . S
H688 C694 0.949 . S
C689 H684 0.950 . S
C689 C691 1.327 . S
C689 C695 1.429 . S
C690 C682 1.574 . S
C690 H685 0.949 . S
C690 C696 1.368 . S
C691 C675 1.349 . S
C691 H683 0.950 . S
C691 C689 1.327 . S
C692 C680 1.349 . S
C692 H686 0.950 . S
C692 C693 1.327 . S
C693 H687 0.950 . S
C693 C692 1.327 . S
C693 C697 1.429 . S
C694 C677 1.574 . S
C694 H688 0.949 . S
C694 C698 1.368 . S
C695 C676 1.429 . S
C695 C689 1.429 . S
C695 C696 1.523 . S
C696 C677 1.368 . S
C696 C690 1.368 . S
C696 C695 1.523 . S
C697 C681 1.429 . S
C697 C693 1.429 . S
C697 C698 1.523 . S
C698 C682 1.368 . S
C698 C694 1.368 . S
C698 C697 1.523 . S
H699 C674 0.950 . S
H700 C676 0.950 . S
H701 C677 0.949 . S
H702 C679 0.950 . S
H703 C681 0.950 . S
C704 C705 1.349 . S
C704 C706 1.327 . S
C704 H729 0.950 . S
C705 C704 1.349 . S
C705 C721 1.349 . S
C706 C704 1.327 . S
C706 C725 1.429 . S
C706 H730 0.950 . S
C707 C724 1.574 1_566 S
C707 C726 1.368 . S
C707 H731 0.949 . S
H708 C712 0.949 . S
C709 C710 1.349 . S
C709 C711 1.327 . S
C709 H732 0.950 . S
C710 C709 1.349 . S
C710 C722 1.349 . S
C711 C709 1.327 . S
C711 C727 1.429 . S
C711 H733 0.950 . S
C712 H708 0.949 . S
C712 C720 1.574 . S
C712 C728 1.368 1_565 S
H713 C721 0.950 . S
H714 C719 0.950 . S
H715 C720 0.949 . S
H716 C722 0.950 . S
H717 C723 0.950 . S
H718 C724 0.949 . S
C719 H714 0.950 . S
C719 C721 1.327 . S
C719 C725 1.429 . S
C720 C712 1.574 . S
C720 H715 0.949 . S
C720 C726 1.368 1_554 S
C721 C705 1.349 . S
C721 H713 0.950 . S
C721 C719 1.327 . S
C722 C710 1.349 . S
C722 H716 0.950 . S
C722 C723 1.327 . S
C723 H717 0.950 . S
C723 C722 1.327 . S
C723 C727 1.429 . S
C724 C707 1.574 1_544 S
C724 H718 0.949 . S
C724 C728 1.368 . S
C725 C706 1.429 . S
C725 C719 1.429 . S
C725 C726 1.523 . S
C726 C707 1.368 . S
C726 C720 1.368 1_556 S
C726 C725 1.523 . S
C727 C711 1.429 . S
C727 C723 1.429 . S
C727 C728 1.523 . S
C728 C712 1.368 1_545 S
C728 C724 1.368 . S
C728 C727 1.523 . S
H729 C704 0.950 . S
H730 C706 0.950 . S
H731 C707 0.949 . S
H732 C709 0.950 . S
H733 C711 0.950 . S
C734 C735 1.349 . S
C734 C736 1.327 . S
C734 H759 0.950 . S
C735 C734 1.349 . S
C735 C751 1.349 . S
C736 C734 1.327 . S
C736 C755 1.429 . S
C736 H760 0.938 1_554 S
C737 C754 1.574 . S
C737 C756 1.368 . S
C737 H761 0.949 . S
H738 C742 0.949 . S
C739 C740 1.349 . S
C739 C741 1.327 . S
C739 H762 0.950 . S
C740 C739 1.349 . S
C740 C752 1.349 . S
C741 C739 1.327 . S
C741 C757 1.429 . S
C741 H763 0.950 1_556 S
C742 H738 0.949 . S
C742 C750 1.574 . S
C742 C758 1.368 . S
H743 C751 0.950 . S
H744 C749 0.950 . S
H745 C750 0.949 . S
H746 C752 0.950 . S
H747 C753 0.950 . S
H748 C754 0.949 . S
C749 H744 0.950 . S
C749 C751 1.327 . S
C749 C755 1.429 . S
C750 C742 1.574 . S
C750 H745 0.949 . S
C750 C756 1.368 1_556 S
C751 C735 1.349 . S
C751 H743 0.950 . S
C751 C749 1.327 . S
C752 C740 1.349 . S
C752 H746 0.950 . S
C752 C753 1.327 . S
C753 H747 0.950 . S
C753 C752 1.327 . S
C753 C757 1.429 . S
C754 C737 1.574 . S
C754 H748 0.949 . S
C754 C758 1.368 1_554 S
C755 C736 1.429 . S
C755 C749 1.429 . S
C755 C756 1.523 . S
C756 C737 1.368 . S
C756 C750 1.368 1_554 S
C756 C755 1.523 . S
C757 C741 1.429 . S
C757 C753 1.429 . S
C757 C758 1.523 . S
C758 C742 1.368 . S
C758 C754 1.368 1_556 S
C758 C757 1.523 . S
H759 C734 0.950 . S
H760 C736 0.938 1_556 S
H761 C737 0.949 . S
H762 C739 0.950 . S
H763 C741 0.950 1_554 S
C764 C765 1.349 . S
C764 C766 1.327 . S
C764 H789 0.950 . S
C765 C764 1.349 . S
C765 C781 1.349 . S
C766 C764 1.327 . S
C766 C785 1.429 . S
C766 H790 0.950 1_556 S
C767 C784 1.590 . S
C767 C786 1.362 1_655 S
C767 H791 0.943 1_655 S
H768 C772 0.949 . S
C769 C770 1.349 . S
C769 C771 1.327 . S
C769 H792 0.950 . S
C770 C769 1.349 . S
C770 C782 1.349 . S
C771 C769 1.327 . S
C771 C787 1.429 . S
C771 H793 0.950 1_554 S
C772 H768 0.949 . S
C772 C780 1.564 1_655 S
C772 C788 1.368 . S
H773 C781 0.950 . S
H774 C779 0.950 . S
H775 C780 0.955 . S
H776 C782 0.950 . S
H777 C783 0.950 . S
H778 C784 0.949 . S
C779 H774 0.950 . S
C779 C781 1.327 . S
C779 C785 1.429 . S
C780 C772 1.564 1_455 S
C780 H775 0.955 . S
C780 C786 1.371 1_554 S
C781 C765 1.349 . S
C781 H773 0.950 . S
C781 C779 1.327 . S
C782 C770 1.349 . S
C782 H776 0.950 . S
C782 C783 1.327 . S
C783 H777 0.950 . S
C783 C782 1.327 . S
C783 C787 1.429 . S
C784 C767 1.590 . S
C784 H778 0.949 . S
C784 C788 1.368 1_556 S
C785 C766 1.429 . S
C785 C779 1.429 . S
C785 C786 1.523 . S
C786 C767 1.362 1_455 S
C786 C780 1.371 1_556 S
C786 C785 1.523 . S
C787 C771 1.429 . S
C787 C783 1.429 . S
C787 C788 1.523 . S
C788 C772 1.368 . S
C788 C784 1.368 1_554 S
C788 C787 1.523 . S
H789 C764 0.950 . S
H790 C766 0.950 1_554 S
H791 C767 0.943 1_455 S
H792 C769 0.950 . S
H793 C771 0.950 1_556 S
C794 C795 1.349 . S
C794 C796 1.327 . S
C794 H819 0.950 . S
C795 C794 1.349 . S
C795 C811 1.349 . S
C796 C794 1.327 . S
C796 C815 1.429 . S
C796 H820 0.950 1_565 S
C797 C814 1.590 . S
C797 C816 1.368 1_655 S
C797 H821 0.949 . S
H798 C802 0.949 . S
C799 C800 1.349 . S
C799 C801 1.323 1_545 S
C799 H822 0.932 1_545 S
C800 C799 1.349 . S
C800 C812 1.349 . S
C801 C799 1.323 1_565 S
C801 C817 1.423 1_565 S
C801 H823 0.960 . S
C802 H798 0.949 . S
C802 C810 1.574 1_656 S
C802 C818 1.368 . S
H803 C811 0.950 . S
H804 C809 0.950 . S
H805 C810 0.949 . S
H806 C812 0.950 . S
H807 C813 0.950 . S
H808 C814 0.945 1_556 S
C809 H804 0.950 . S
C809 C811 1.327 . S
C809 C815 1.429 . S
C810 C802 1.574 1_454 S
C810 H805 0.949 . S
C810 C816 1.368 1_545 S
C811 C795 1.349 . S
C811 H803 0.950 . S
C811 C809 1.327 . S
C812 C800 1.349 . S
C812 H806 0.950 . S
C812 C813 1.327 . S
C813 H807 0.950 . S
C813 C812 1.327 . S
C813 C817 1.429 . S
C814 C797 1.590 . S
C814 H808 0.945 1_554 S
C814 C818 1.357 1_564 S
C815 C796 1.429 . S
C815 C809 1.429 . S
C815 C816 1.523 . S
C816 C797 1.368 1_455 S
C816 C810 1.368 1_565 S
C816 C815 1.523 . S
C817 C801 1.423 1_545 S
C817 C813 1.429 . S
C817 C818 1.523 . S
C818 C802 1.368 . S
C818 C814 1.357 1_546 S
C818 C817 1.523 . S
H819 C794 0.950 . S
H820 C796 0.950 1_545 S
H821 C797 0.949 . S
H822 C799 0.932 1_565 S
H823 C801 0.960 . S
C824 C825 1.349 . S
C824 C826 1.327 . S
C824 H849 0.950 . S
C825 C824 1.349 . S
C825 C841 1.349 . S
C826 C824 1.327 . S
C826 C845 1.429 . S
C826 H850 0.950 . S
C827 C844 1.574 . S
C827 C846 1.368 . S
C827 H851 0.949 . S
H828 C832 0.949 . S
C829 C830 1.349 . S
C829 C831 1.327 . S
C829 H852 0.950 . S
C830 C829 1.349 . S
C830 C842 1.349 . S
C831 C829 1.327 . S
C831 C847 1.429 . S
C831 H853 0.950 . S
C832 H828 0.949 . S
C832 C840 1.574 . S
C832 C848 1.368 . S
H833 C841 0.950 . S
H834 C839 0.950 . S
H835 C840 0.949 . S
H836 C842 0.950 . S
H837 C843 0.950 . S
H838 C844 0.949 . S
C839 H834 0.950 . S
C839 C841 1.327 . S
C839 C845 1.429 . S
C840 C832 1.574 . S
C840 H835 0.949 . S
C840 C846 1.368 . S
C841 C825 1.349 . S
C841 H833 0.950 . S
C841 C839 1.327 . S
C842 C830 1.349 . S
C842 H836 0.950 . S
C842 C843 1.327 . S
C843 H837 0.950 . S
C843 C842 1.327 . S
C843 C847 1.429 . S
C844 C827 1.574 . S
C844 H838 0.949 . S
C844 C848 1.368 . S
C845 C826 1.429 . S
C845 C839 1.429 . S
C845 C846 1.523 . S
C846 C827 1.368 . S
C846 C840 1.368 . S
C846 C845 1.523 . S
C847 C831 1.429 . S
C847 C843 1.429 . S
C847 C848 1.523 . S
C848 C832 1.368 . S
C848 C844 1.368 . S
C848 C847 1.523 . S
H849 C824 0.950 . S
H850 C826 0.950 . S
H851 C827 0.949 . S
H852 C829 0.950 . S
H853 C831 0.950 . S
C854 C855 1.349 . S
C854 C856 1.327 . S
C854 H879 0.950 . S
C855 C854 1.349 . S
C855 C871 1.349 . S
C856 C854 1.327 . S
C856 C875 1.429 . S
C856 H880 0.950 . S
C857 C874 1.574 1_455 S
C857 C876 1.368 . S
C857 H881 0.949 . S
H858 C862 0.949 . S
C859 C860 1.349 . S
C859 C861 1.327 . S
C859 H882 0.950 . S
C860 C859 1.349 . S
C860 C872 1.349 . S
C861 C859 1.327 . S
C861 C877 1.429 . S
C861 H883 0.950 . S
C862 H858 0.949 . S
C862 C870 1.574 . S
C862 C878 1.368 . S
H863 C871 0.950 . S
H864 C869 0.950 . S
H865 C870 0.949 . S
H866 C872 0.950 . S
H867 C873 0.950 . S
H868 C874 0.949 . S
C869 H864 0.950 . S
C869 C871 1.327 . S
C869 C875 1.429 . S
C870 C862 1.574 . S
C870 H865 0.949 . S
C870 C876 1.368 1_655 S
C871 C855 1.349 . S
C871 H863 0.950 . S
C871 C869 1.327 . S
C872 C860 1.349 . S
C872 H866 0.950 . S
C872 C873 1.327 . S
C873 H867 0.950 . S
C873 C872 1.327 . S
C873 C877 1.429 . S
C874 C857 1.574 1_655 S
C874 H868 0.949 . S
C874 C878 1.368 . S
C875 C856 1.429 . S
C875 C869 1.429 . S
C875 C876 1.523 . S
C876 C857 1.368 . S
C876 C870 1.368 1_455 S
C876 C875 1.523 . S
C877 C861 1.429 . S
C877 C873 1.429 . S
C877 C878 1.523 . S
C878 C862 1.368 . S
C878 C874 1.368 . S
C878 C877 1.523 . S
H879 C854 0.950 . S
H880 C856 0.950 . S
H881 C857 0.949 . S
H882 C859 0.950 . S
H883 C861 0.950 . S
C884 C885 1.349 . S
C884 C886 1.327 . S
C884 H909 0.950 . S
C885 C884 1.349 . S
C885 C901 1.349 . S
C886 C884 1.327 . S
C886 C905 1.429 . S
C886 H910 0.950 . S
C887 C904 1.574 . S
C887 C906 1.368 1_655 S
C887 H911 0.949 . S
H888 C892 0.957 . S
C889 C890 1.349 . S
C889 C891 1.327 . S
C889 H912 0.950 . S
C890 C889 1.349 . S
C890 C902 1.349 . S
C891 C889 1.327 . S
C891 C907 1.429 . S
C891 H913 0.950 . S
C892 H888 0.957 . S
C892 C900 1.586 1_545 S
C892 C908 1.348 1_455 S
H893 C901 0.950 . S
H894 C899 0.950 1_655 S
H895 C900 0.949 . S
H896 C902 0.950 . S
H897 C903 0.950 . S
H898 C904 0.949 . S
C899 H894 0.950 1_455 S
C899 C901 1.327 . S
C899 C905 1.429 . S
C900 C892 1.586 1_565 S
C900 H895 0.949 . S
C900 C906 1.368 . S
C901 C885 1.349 . S
C901 H893 0.950 . S
C901 C899 1.327 . S
C902 C890 1.349 . S
C902 H896 0.950 . S
C902 C903 1.327 . S
C903 H897 0.950 . S
C903 C902 1.327 . S
C903 C907 1.429 . S
C904 C887 1.574 . S
C904 H898 0.949 . S
C904 C908 1.368 1_565 S
C905 C886 1.429 . S
C905 C899 1.429 . S
C905 C906 1.523 . S
C906 C887 1.368 1_455 S
C906 C900 1.368 . S
C906 C905 1.523 . S
C907 C891 1.429 . S
C907 C903 1.429 . S
C907 C908 1.523 . S
C908 C892 1.348 1_655 S
C908 C904 1.368 1_545 S
C908 C907 1.523 . S
H909 C884 0.950 . S
H910 C886 0.950 . S
H911 C887 0.949 . S
H912 C889 0.950 . S
H913 C891 0.950 . S
C914 C915 1.349 . S
C914 C916 1.327 . S
C914 H939 0.950 . S
C915 C914 1.349 . S
C915 C931 1.349 . S
C916 C914 1.327 . S
C916 C935 1.429 . S
C916 H940 0.950 . S
C917 C934 1.574 1_545 S
C917 C936 1.368 . S
C917 H941 0.949 . S
H918 C922 0.949 . S
C919 C920 1.349 . S
C919 C921 1.327 . S
C919 H942 0.950 . S
C920 C919 1.349 . S
C920 C932 1.349 . S
C921 C919 1.327 . S
C921 C937 1.429 . S
C921 H943 0.950 . S
C922 H918 0.949 . S
C922 C930 1.574 . S
C922 C938 1.368 . S
H923 C931 0.950 . S
H924 C929 0.950 . S
H925 C930 0.954 . S
H926 C932 0.950 . S
H927 C933 0.950 . S
H928 C934 0.949 . S
C929 H924 0.950 . S
C929 C931 1.327 . S
C929 C935 1.429 . S
C930 C922 1.574 . S
C930 H925 0.954 . S
C930 C936 1.368 1_565 S
C931 C915 1.349 . S
C931 H923 0.950 . S
C931 C929 1.327 . S
C932 C920 1.349 . S
C932 H926 0.950 . S
C932 C933 1.327 . S
C933 H927 0.950 . S
C933 C932 1.327 . S
C933 C937 1.429 . S
C934 C917 1.574 1_565 S
C934 H928 0.949 . S
C934 C938 1.368 . S
C935 C916 1.429 . S
C935 C929 1.429 . S
C935 C936 1.523 . S
C936 C917 1.368 . S
C936 C930 1.368 1_545 S
C936 C935 1.523 . S
C937 C921 1.429 . S
C937 C933 1.429 . S
C937 C938 1.523 . S
C938 C922 1.368 . S
C938 C934 1.368 . S
C938 C937 1.523 . S
H939 C914 0.950 . S
H940 C916 0.950 . S
H941 C917 0.949 . S
H942 C919 0.950 . S
H943 C921 0.950 . S
C944 C945 1.349 . S
C944 C946 1.327 . S
C944 H969 0.950 . S
C945 C944 1.349 . S
C945 C961 1.349 . S
C946 C944 1.327 . S
C946 C965 1.429 . S
C946 H970 0.950 . S
C947 C964 1.574 . S
C947 C966 1.368 . S
C947 H971 0.949 . S
H948 C952 0.949 . S
C949 C950 1.349 . S
C949 C951 1.327 . S
C949 H972 0.950 . S
C950 C949 1.349 . S
C950 C962 1.349 . S
C951 C949 1.327 . S
C951 C967 1.429 . S
C951 H973 0.950 . S
C952 H948 0.949 . S
C952 C960 1.574 . S
C952 C968 1.368 . S
H953 C961 0.950 . S
H954 C959 0.950 . S
H955 C960 0.949 . S
H956 C962 0.950 . S
H957 C963 0.950 . S
H958 C964 0.949 . S
C959 H954 0.950 . S
C959 C961 1.327 . S
C959 C965 1.429 . S
C960 C952 1.574 . S
C960 H955 0.949 . S
C960 C966 1.368 . S
C961 C945 1.349 . S
C961 H953 0.950 . S
C961 C959 1.327 . S
C962 C950 1.349 . S
C962 H956 0.950 . S
C962 C963 1.327 . S
C963 H957 0.950 . S
C963 C962 1.327 . S
C963 C967 1.429 . S
C964 C947 1.574 . S
C964 H958 0.949 . S
C964 C968 1.368 . S
C965 C946 1.429 . S
C965 C959 1.429 . S
C965 C966 1.523 . S
C966 C947 1.368 . S
C966 C960 1.368 . S
C966 C965 1.523 . S
C967 C951 1.429 . S
C967 C963 1.429 . S
C967 C968 1.523 . S
C968 C952 1.368 . S
C968 C964 1.368 . S
C968 C967 1.523 . S
H969 C944 0.950 . S
H970 C946 0.950 . S
H971 C947 0.949 . S
H972 C949 0.950 . S
H973 C951 0.950 . S
C974 C975 1.349 . S
C974 C976 1.327 . S
C974 H999 0.950 . S
C975 C974 1.349 . S
C975 C991 1.349 . S
C976 C974 1.327 . S
C976 C995 1.429 . S
C976 H1000 0.950 . S
C977 C994 1.574 . S
C977 C996 1.368 . S
C977 H1001 0.949 . S
H978 C982 0.949 . S
C979 C980 1.349 . S
C979 C981 1.327 . S
C979 H1002 0.950 . S
C980 C979 1.349 . S
C980 C992 1.349 . S
C981 C979 1.327 . S
C981 C997 1.429 . S
C981 H1003 0.950 . S
C982 H978 0.949 . S
C982 C990 1.574 . S
C982 C998 1.368 . S
H983 C991 0.950 . S
H984 C989 0.950 . S
H985 C990 0.949 . S
H986 C992 0.950 . S
H987 C993 0.950 . S
H988 C994 0.949 . S
C989 H984 0.950 . S
C989 C991 1.327 . S
C989 C995 1.429 . S
C990 C982 1.574 . S
C990 H985 0.949 . S
C990 C996 1.368 . S
C991 C975 1.349 . S
C991 H983 0.950 . S
C991 C989 1.327 . S
C992 C980 1.349 . S
C992 H986 0.950 . S
C992 C993 1.327 . S
C993 H987 0.950 . S
C993 C992 1.327 . S
C993 C997 1.429 . S
C994 C977 1.574 . S
C994 H988 0.949 . S
C994 C998 1.368 . S
C995 C976 1.429 . S
C995 C989 1.429 . S
C995 C996 1.523 . S
C996 C977 1.368 . S
C996 C990 1.368 . S
C996 C995 1.523 . S
C997 C981 1.429 . S
C997 C993 1.429 . S
C997 C998 1.523 . S
C998 C982 1.368 . S
C998 C994 1.368 . S
C998 C997 1.523 . S
H999 C974 0.950 . S
H1000 C976 0.950 . S
H1001 C977 0.949 . S
H1002 C979 0.950 . S
H1003 C981 0.950 . S
C1004 C1005 1.349 . S
C1004 C1006 1.327 . S
C1004 H1029 0.950 . S
C1005 C1004 1.349 . S
C1005 C1021 1.349 . S
C1006 C1004 1.327 . S
C1006 C1025 1.429 . S
C1006 H1030 0.950 . S
C1007 C1024 1.574 . S
C1007 C1026 1.368 . S
C1007 H1031 0.949 . S
H1008 C1012 0.949 . S
C1009 C1010 1.349 . S
C1009 C1011 1.327 . S
C1009 H1032 0.950 . S
C1010 C1009 1.349 . S
C1010 C1022 1.349 . S
C1011 C1009 1.327 . S
C1011 C1027 1.429 . S
C1011 H1033 0.950 . S
C1012 H1008 0.949 . S
C1012 C1020 1.574 . S
C1012 C1028 1.368 . S
H1013 C1021 0.950 . S
H1014 C1019 0.950 . S
H1015 C1020 0.949 . S
H1016 C1022 0.950 . S
H1017 C1023 0.950 . S
H1018 C1024 0.949 . S
C1019 H1014 0.950 . S
C1019 C1021 1.327 . S
C1019 C1025 1.429 . S
C1020 C1012 1.574 . S
C1020 H1015 0.949 . S
C1020 C1026 1.368 . S
C1021 C1005 1.349 . S
C1021 H1013 0.950 . S
C1021 C1019 1.327 . S
C1022 C1010 1.349 . S
C1022 H1016 0.950 . S
C1022 C1023 1.327 . S
C1023 H1017 0.950 . S
C1023 C1022 1.327 . S
C1023 C1027 1.429 . S
C1024 C1007 1.574 . S
C1024 H1018 0.949 . S
C1024 C1028 1.368 . S
C1025 C1006 1.429 . S
C1025 C1019 1.429 . S
C1025 C1026 1.523 . S
C1026 C1007 1.368 . S
C1026 C1020 1.368 . S
C1026 C1025 1.523 . S
C1027 C1011 1.429 . S
C1027 C1023 1.429 . S
C1027 C1028 1.523 . S
C1028 C1012 1.368 . S
C1028 C1024 1.368 . S
C1028 C1027 1.523 . S
H1029 C1004 0.950 . S
H1030 C1006 0.950 . S
H1031 C1007 0.949 . S
H1032 C1009 0.950 . S
H1033 C1011 0.950 . S
C1034 C1035 1.349 . S
C1034 C1036 1.327 . S
C1034 H1059 0.950 . S
C1035 C1034 1.349 . S
C1035 C1051 1.349 . S
C1036 C1034 1.327 . S
C1036 C1055 1.429 . S
C1036 H1060 0.950 . S
C1037 C1054 1.574 . S
C1037 C1056 1.368 . S
C1037 H1061 0.949 . S
H1038 C1042 0.949 . S
C1039 C1040 1.349 . S
C1039 C1041 1.327 . S
C1039 H1062 0.950 . S
C1040 C1039 1.349 . S
C1040 C1052 1.349 . S
C1041 C1039 1.327 . S
C1041 C1057 1.429 . S
C1041 H1063 0.950 . S
C1042 H1038 0.949 . S
C1042 C1050 1.574 . S
C1042 C1058 1.368 . S
H1043 C1051 0.950 . S
H1044 C1049 0.950 . S
H1045 C1050 0.949 . S
H1046 C1052 0.950 . S
H1047 C1053 0.950 . S
H1048 C1054 0.949 . S
C1049 H1044 0.950 . S
C1049 C1051 1.327 . S
C1049 C1055 1.429 . S
C1050 C1042 1.574 . S
C1050 H1045 0.949 . S
C1050 C1056 1.368 . S
C1051 C1035 1.349 . S
C1051 H1043 0.950 . S
C1051 C1049 1.327 . S
C1052 C1040 1.349 . S
C1052 H1046 0.950 . S
C1052 C1053 1.327 . S
C1053 H1047 0.950 . S
C1053 C1052 1.327 . S
C1053 C1057 1.429 . S
C1054 C1037 1.574 . S
C1054 H1048 0.949 . S
C1054 C1058 1.368 . S
C1055 C1036 1.429 . S
C1055 C1049 1.429 . S
C1055 C1056 1.523 . S
C1056 C1037 1.368 . S
C1056 C1050 1.368 . S
C1056 C1055 1.523 . S
C1057 C1041 1.429 . S
C1057 C1053 1.429 . S
C1057 C1058 1.523 . S
C1058 C1042 1.368 . S
C1058 C1054 1.368 . S
C1058 C1057 1.523 . S
H1059 C1034 0.950 . S
H1060 C1036 0.950 . S
H1061 C1037 0.949 . S
H1062 C1039 0.950 . S
H1063 C1041 0.950 . S
C1064 C1065 1.349 . S
C1064 C1066 1.327 . S
C1064 H1089 0.950 . S
C1065 C1064 1.349 . S
C1065 C1081 1.349 . S
C1066 C1064 1.327 . S
C1066 C1085 1.429 . S
C1066 H1090 0.950 . S
C1067 C1084 1.574 . S
C1067 C1086 1.368 . S
C1067 H1091 0.949 . S
H1068 C1072 0.949 . S
C1069 C1070 1.349 . S
C1069 C1071 1.327 . S
C1069 H1092 0.950 . S
C1070 C1069 1.349 . S
C1070 C1082 1.349 . S
C1071 C1069 1.327 . S
C1071 C1087 1.429 . S
C1071 H1093 0.950 . S
C1072 H1068 0.949 . S
C1072 C1080 1.574 . S
C1072 C1088 1.368 . S
H1073 C1081 0.950 . S
H1074 C1079 0.950 . S
H1075 C1080 0.949 . S
H1076 C1082 0.950 . S
H1077 C1083 0.950 . S
H1078 C1084 0.949 . S
C1079 H1074 0.950 . S
C1079 C1081 1.327 . S
C1079 C1085 1.429 . S
C1080 C1072 1.574 . S
C1080 H1075 0.949 . S
C1080 C1086 1.368 . S
C1081 C1065 1.349 . S
C1081 H1073 0.950 . S
C1081 C1079 1.327 . S
C1082 C1070 1.349 . S
C1082 H1076 0.950 . S
C1082 C1083 1.327 . S
C1083 H1077 0.950 . S
C1083 C1082 1.327 . S
C1083 C1087 1.429 . S
C1084 C1067 1.574 . S
C1084 H1078 0.949 . S
C1084 C1088 1.368 . S
C1085 C1066 1.429 . S
C1085 C1079 1.429 . S
C1085 C1086 1.523 . S
C1086 C1067 1.368 . S
C1086 C1080 1.368 . S
C1086 C1085 1.523 . S
C1087 C1071 1.429 . S
C1087 C1083 1.429 . S
C1087 C1088 1.523 . S
C1088 C1072 1.368 . S
C1088 C1084 1.368 . S
C1088 C1087 1.523 . S
H1089 C1064 0.950 . S
H1090 C1066 0.950 . S
H1091 C1067 0.949 . S
H1092 C1069 0.950 . S
H1093 C1071 0.950 . S
C1094 C1095 1.349 . S
C1094 C1096 1.327 . S
C1094 H1119 0.950 . S
C1095 C1094 1.349 . S
C1095 C1111 1.349 . S
C1096 C1094 1.327 . S
C1096 C1115 1.429 . S
C1096 H1120 0.950 . S
C1097 C1114 1.574 . S
C1097 C1116 1.368 . S
C1097 H1121 0.949 . S
H1098 C1102 0.949 . S
C1099 C1100 1.349 . S
C1099 C1101 1.327 . S
C1099 H1122 0.950 . S
C1100 C1099 1.349 . S
C1100 C1112 1.349 . S
C1101 C1099 1.327 . S
C1101 C1117 1.429 . S
C1101 H1123 0.950 . S
C1102 H1098 0.949 . S
C1102 C1110 1.574 . S
C1102 C1118 1.368 . S
H1103 C1111 0.950 . S
H1104 C1109 0.950 . S
H1105 C1110 0.949 . S
H1106 C1112 0.950 . S
H1107 C1113 0.950 . S
H1108 C1114 0.949 . S
C1109 H1104 0.950 . S
C1109 C1111 1.327 . S
C1109 C1115 1.429 . S
C1110 C1102 1.574 . S
C1110 H1105 0.949 . S
C1110 C1116 1.368 . S
C1111 C1095 1.349 . S
C1111 H1103 0.950 . S
C1111 C1109 1.327 . S
C1112 C1100 1.349 . S
C1112 H1106 0.950 . S
C1112 C1113 1.327 . S
C1113 H1107 0.950 . S
C1113 C1112 1.327 . S
C1113 C1117 1.429 . S
C1114 C1097 1.574 . S
C1114 H1108 0.949 . S
C1114 C1118 1.368 . S
C1115 C1096 1.429 . S
C1115 C1109 1.429 . S
C1115 C1116 1.523 . S
C1116 C1097 1.368 . S
C1116 C1110 1.368 . S
C1116 C1115 1.523 . S
C1117 C1101 1.429 . S
C1117 C1113 1.429 . S
C1117 C1118 1.523 . S
C1118 C1102 1.368 . S
C1118 C1114 1.368 . S
C1118 C1117 1.523 . S
H1119 C1094 0.950 . S
H1120 C1096 0.950 . S
H1121 C1097 0.949 . S
H1122 C1099 0.950 . S
H1123 C1101 0.950 . S
C1124 C1125 1.349 . S
C1124 C1126 1.327 . S
C1124 H1149 0.950 . S
C1125 C1124 1.349 . S
C1125 C1141 1.349 . S
C1126 C1124 1.327 . S
C1126 C1145 1.429 . S
C1126 H1150 0.950 . S
C1127 C1144 1.574 . S
C1127 C1146 1.368 . S
C1127 H1151 0.949 . S
H1128 C1132 0.949 . S
C1129 C1130 1.349 . S
C1129 C1131 1.327 . S
C1129 H1152 0.950 . S
C1130 C1129 1.349 . S
C1130 C1142 1.349 . S
C1131 C1129 1.327 . S
C1131 C1147 1.429 . S
C1131 H1153 0.950 . S
C1132 H1128 0.949 . S
C1132 C1140 1.574 . S
C1132 C1148 1.368 . S
H1133 C1141 0.950 . S
H1134 C1139 0.950 . S
H1135 C1140 0.949 . S
H1136 C1142 0.950 . S
H1137 C1143 0.950 . S
H1138 C1144 0.949 . S
C1139 H1134 0.950 . S
C1139 C1141 1.327 . S
C1139 C1145 1.429 . S
C1140 C1132 1.574 . S
C1140 H1135 0.949 . S
C1140 C1146 1.368 . S
C1141 C1125 1.349 . S
C1141 H1133 0.950 . S
C1141 C1139 1.327 . S
C1142 C1130 1.349 . S
C1142 H1136 0.950 . S
C1142 C1143 1.327 . S
C1143 H1137 0.950 . S
C1143 C1142 1.327 . S
C1143 C1147 1.429 . S
C1144 C1127 1.574 . S
C1144 H1138 0.949 . S
C1144 C1148 1.368 . S
C1145 C1126 1.429 . S
C1145 C1139 1.429 . S
C1145 C1146 1.523 . S
C1146 C1127 1.368 . S
C1146 C1140 1.368 . S
C1146 C1145 1.523 . S
C1147 C1131 1.429 . S
C1147 C1143 1.429 . S
C1147 C1148 1.523 . S
C1148 C1132 1.368 . S
C1148 C1144 1.368 . S
C1148 C1147 1.523 . S
H1149 C1124 0.950 . S
H1150 C1126 0.950 . S
H1151 C1127 0.949 . S
H1152 C1129 0.950 . S
H1153 C1131 0.950 . S
C1154 C1155 1.349 . S
C1154 C1156 1.327 . S
C1154 H1179 0.950 . S
C1155 C1154 1.349 . S
C1155 C1171 1.349 . S
C1156 C1154 1.327 . S
C1156 C1175 1.429 . S
C1156 H1180 0.950 . S
C1157 C1174 1.574 . S
C1157 C1176 1.368 . S
C1157 H1181 0.949 . S
H1158 C1162 0.949 . S
C1159 C1160 1.349 . S
C1159 C1161 1.327 . S
C1159 H1182 0.950 . S
C1160 C1159 1.349 . S
C1160 C1172 1.349 . S
C1161 C1159 1.327 . S
C1161 C1177 1.429 . S
C1161 H1183 0.950 . S
C1162 H1158 0.949 . S
C1162 C1170 1.574 . S
C1162 C1178 1.368 . S
H1163 C1171 0.950 . S
H1164 C1169 0.950 . S
H1165 C1170 0.949 . S
H1166 C1172 0.950 . S
H1167 C1173 0.950 . S
H1168 C1174 0.949 . S
C1169 H1164 0.950 . S
C1169 C1171 1.327 . S
C1169 C1175 1.429 . S
C1170 C1162 1.574 . S
C1170 H1165 0.949 . S
C1170 C1176 1.368 . S
C1171 C1155 1.349 . S
C1171 H1163 0.950 . S
C1171 C1169 1.327 . S
C1172 C1160 1.349 . S
C1172 H1166 0.950 . S
C1172 C1173 1.327 . S
C1173 H1167 0.950 . S
C1173 C1172 1.327 . S
C1173 C1177 1.429 . S
C1174 C1157 1.574 . S
C1174 H1168 0.949 . S
C1174 C1178 1.368 . S
C1175 C1156 1.429 . S
C1175 C1169 1.429 . S
C1175 C1176 1.523 . S
C1176 C1157 1.368 . S
C1176 C1170 1.368 . S
C1176 C1175 1.523 . S
C1177 C1161 1.429 . S
C1177 C1173 1.429 . S
C1177 C1178 1.523 . S
C1178 C1162 1.368 . S
C1178 C1174 1.368 . S
C1178 C1177 1.523 . S
H1179 C1154 0.950 . S
H1180 C1156 0.950 . S
H1181 C1157 0.949 . S
H1182 C1159 0.950 . S
H1183 C1161 0.950 . S
C225 C12 0.284 . S
C230 C138 0.287 . S
C255 C152 0.287 . S
C260 C26 0.284 . S
C285 C166 0.287 . S
C290 C40 0.284 . S
C315 C124 0.287 . S
C320 C54 0.284 . S
C345 C68 0.284 . S
C350 C222 0.287 . S
C375 C180 0.287 . S
C380 C82 0.284 . S
C405 C194 0.287 . S
C410 C96 0.284 . S
C435 C208 0.287 . S
C440 C110 0.284 . S
C465 C116 0.507 . S
C470 C18 0.496 . S
C495 C130 0.507 . S
C500 C32 0.496 . S
C525 C144 0.507 . S
C530 C46 0.496 . S
C555 C4 0.496 . S
C560 C158 0.507 . S
C585 C172 0.507 . S
C590 C102 0.496 . S
C615 C186 0.507 . S
C620 C60 0.496 . S
C645 C74 0.496 . S
C650 C200 0.507 . S
C675 C214 0.507 . S
C680 C88 0.496 . S
C705 C123 1.287 . S
C710 C5 1.254 . S
C735 C19 1.254 . S
C740 C137 1.286 . S
C765 C151 1.286 . S
C770 C33 1.254 . S
C795 C47 1.254 . S
C800 C165 1.287 . S
C825 C179 1.287 . S
C830 C61 1.254 . S
C855 C75 1.254 . S
C860 C193 1.286 . S
C885 C207 1.286 . S
C890 C89 1.254 . S
C915 C221 1.287 . S
C920 C103 1.254 . S
C945 C67 1.660 . S
C950 C11 1.660 . S
C975 C81 1.660 . S
C980 C25 1.660 . S
C1005 C39 1.660 . S
C1010 C95 1.660 . S
C1035 C109 1.660 . S
C1040 C53 1.660 . S
C1065 C117 1.556 . S
C1070 C173 1.556 . S
C1095 C187 1.556 . S
C1100 C131 1.556 . S
C1125 C201 1.556 . S
C1130 C145 1.556 . S
C1155 C215 1.556 . S
C1160 C159 1.556 . S
