# Generated by pormake.
# Topology bsn, (6)-cn, num edge types: 1
# Building blocks:
#     Node 0, Type 0, BuildingBlock: LEVNOQ01_clean_sbu_1, # of connection points: 6
#     Node 1, Type 0, BuildingBlock: LEVNOQ01_clean_sbu_1, # of connection points: 6
#     Node 2, Type 0, BuildingBlock: LEVNOQ01_clean_sbu_1, # of connection points: 6
#     Node 3, Type 0, BuildingBlock: LEVNOQ01_clean_sbu_1, # of connection points: 6
#     Edge 4, Type (0, 0), BuildingBlock: CIFDUS_clean_linker_0, # of connection points: 2
#     Edge 5, Type (0, 0), BuildingBlock: CIFDUS_clean_linker_0, # of connection points: 2
#     Edge 6, Type (0, 0), BuildingBlock: CIFDUS_clean_linker_0, # of connection points: 2
#     Edge 7, Type (0, 0), BuildingBlock: CIFDUS_clean_linker_0, # of connection points: 2
#     Edge 8, Type (0, 0), BuildingBlock: CIFDUS_clean_linker_0, # of connection points: 2
#     Edge 9, Type (0, 0), BuildingBlock: CIFDUS_clean_linker_0, # of connection points: 2
#     Edge 10, Type (0, 0), BuildingBlock: CIFDUS_clean_linker_0, # of connection points: 2
#     Edge 11, Type (0, 0), BuildingBlock: CIFDUS_clean_linker_0, # of connection points: 2
#     Edge 12, Type (0, 0), BuildingBlock: CIFDUS_clean_linker_0, # of connection points: 2
#     Edge 13, Type (0, 0), BuildingBlock: CIFDUS_clean_linker_0, # of connection points: 2
#     Edge 14, Type (0, 0), BuildingBlock: CIFDUS_clean_linker_0, # of connection points: 2
#     Edge 15, Type (0, 0), BuildingBlock: CIFDUS_clean_linker_0, # of connection points: 2
# Relax obj value: 0.177
# Max RMSD: 0.190
# Mean RMSD: 0.190
data_MOF--net-bsn--node1-LEVNOQ01_clean_sbu_1--edge1-CIFDUS_clean_linker_0
_symmetry_space_group_name_H-M    P1
_symmetry_Int_Tables_number       1
_symmetry_cell_setting            triclinic
loop_
_symmetry_equiv_pos_as_xyz
'x, y, z'
_cell_length_a     27.651896
_cell_length_b     26.841887
_cell_length_c     13.907491
_cell_angle_alpha  89.527687
_cell_angle_beta   99.180257
_cell_angle_gamma 90.077804
loop_
_atom_site_label
_atom_site_type_symbol
_atom_site_fract_x
_atom_site_fract_y
_atom_site_fract_z
_atom_type_partial_charge
O0 O 0.97218 0.22251 0.47124 0.0
Mg1 Mg 0.00759 0.21761 0.34305 0.0
O2 O 0.04583 0.24912 0.49158 0.0
Mg3 Mg 0.02861 0.24944 0.31535 0.0
O4 O 0.01826 0.15597 0.28331 0.0
O5 O 0.06117 0.16398 0.42216 0.0
O6 O 0.01986 0.25847 0.14879 0.0
O7 O 0.11173 0.23123 0.30762 0.0
Mg8 Mg 0.10021 0.33471 0.29064 0.0
O9 O 0.03711 0.33293 0.34351 0.0
O10 O 0.08297 0.30953 0.14303 0.0
O11 O 0.14965 0.29155 0.3899 0.0
O12 O 0.07841 0.40334 0.33312 0.0
C13 C 0.91578 0.24078 0.27321 0.0
C14 C 0.00839 0.23807 0.52894 0.0
C15 C 0.04308 0.13419 0.35587 0.0
C16 C 0.04948 0.28088 0.10134 0.0
C17 C 0.15213 0.25153 0.34408 0.0
C18 C 0.04181 0.38011 0.35954 0.0
O19 O 0.93576 0.19967 0.26314 0.0
O20 O 0.94418 0.27518 0.30754 0.0
O21 O 0.06017 0.73178 0.43156 0.0
Mg22 Mg 0.06484 0.68972 0.56291 0.0
O23 O 0.98406 0.73406 0.448 0.0
Mg24 Mg 0.0097 0.74098 0.61212 0.0
O25 O 0.01564 0.65295 0.6355 0.0
O26 O 0.05016 0.62022 0.51486 0.0
O27 O 0.02775 0.75198 0.77457 0.0
O28 O 0.93107 0.71405 0.63603 0.0
Mg29 Mg 0.94276 0.80293 0.63279 0.0
O30 O 0.0015 0.82737 0.57382 0.0
O31 O 0.95775 0.78936 0.78509 0.0
O32 O 0.88218 0.76623 0.55034 0.0
O33 O 0.93995 0.87619 0.60412 0.0
C34 C 0.13431 0.74348 0.64618 0.0
C35 C 0.01641 0.73981 0.39453 0.0
C36 C 0.02251 0.61555 0.58044 0.0
C37 C 0.99788 0.77025 0.82537 0.0
C38 C 0.88761 0.72681 0.60073 0.0
C39 C 0.98047 0.87081 0.57048 0.0
O40 O 0.13256 0.69659 0.64847 0.0
O41 O 0.09498 0.76822 0.61702 0.0
O42 O 0.46299 0.71844 -0.00868 0.0
Mg43 Mg 0.47145 0.68583 0.85273 0.0
O44 O 0.53786 0.74816 0.00381 0.0
Mg45 Mg 0.53161 0.74709 0.83994 0.0
O46 O 0.53838 0.65751 0.84489 0.0
O47 O 0.47259 0.61097 0.86226 0.0
O48 O 0.52619 0.74633 0.67396 0.0
O49 O 0.61557 0.73443 0.84287 0.0
Mg50 Mg 0.59338 0.84139 0.77557 0.0
O51 O 0.53573 0.83132 0.84676 0.0
O52 O 0.56828 0.81257 0.6343 0.0
O53 O 0.65517 0.80551 0.85892 0.0
O54 O 0.56405 0.90659 0.82151 0.0
C55 C 0.4158 0.74875 0.7487 0.0
C56 C 0.49992 0.73899 0.0415 0.0
C57 C 0.51833 0.61428 0.8547 0.0
C58 C 0.54243 0.77396 0.61127 0.0
C59 C 0.6558 0.75855 0.85072 0.0
C60 C 0.53311 0.87888 0.85723 0.0
O61 O 0.42688 0.70647 0.72097 0.0
O62 O 0.4451 0.76882 0.81754 0.0
O63 O 0.56302 0.21175 0.93487 0.0
Mg64 Mg 0.56194 0.18276 0.0802 0.0
O65 O 0.48907 0.23674 0.94295 0.0
Mg66 Mg 0.5089 0.2396 0.10375 0.0
O67 O 0.50259 0.14866 0.11773 0.0
O68 O 0.56507 0.10897 0.06564 0.0
O69 O 0.52556 0.24586 0.2686 0.0
O70 O 0.42632 0.22607 0.11483 0.0
Mg71 Mg 0.45211 0.33334 0.15668 0.0
O72 O 0.50673 0.32415 0.07911 0.0
O73 O 0.47888 0.30952 0.29961 0.0
O74 O 0.38909 0.29804 0.08342 0.0
O75 O 0.47661 0.3989 0.10434 0.0
C76 C 0.62762 0.24129 0.16351 0.0
C77 C 0.52268 0.22963 0.89325 0.0
C78 C 0.52372 0.10768 0.0968 0.0
C79 C 0.5089 0.27462 0.32794 0.0
C80 C 0.38696 0.25142 0.09692 0.0
C81 C 0.50611 0.37178 0.06407 0.0
O82 O 0.61735 0.1998 0.19729 0.0
O83 O 0.59443 0.26233 0.10283 0.0
H84 H 0.06256 0.40152 0.54832 0.0
H85 H 0.95349 0.42221 0.2937 0.0
H86 H 0.92325 0.4968 0.36513 0.0
H87 H 0.94775 0.56802 0.4725 0.0
H88 H 0.06265 0.55046 0.71809 0.0
H89 H 0.07005 0.46239 0.68088 0.0
C90 C 0.03046 0.42102 0.51123 0.0
C91 C 0.01031 0.40723 0.41613 0.0
C92 C 0.01521 0.46508 0.5508 0.0
C93 C 0.96923 0.4325 0.36726 0.0
C94 C 0.95245 0.47543 0.4077 0.0
C95 C 0.97199 0.54392 0.52136 0.0
C96 C 0.00504 0.56528 0.59706 0.0
C97 C 0.97782 0.49407 0.49571 0.0
C98 C 0.03672 0.53441 0.65985 0.0
C99 C 0.04162 0.48427 0.63719 0.0
H100 H 0.74684 0.71523 0.90974 0.0
H101 H 0.64521 0.76239 0.65864 0.0
H102 H 0.70524 0.74758 0.55287 0.0
H103 H 0.7904 0.73396 0.53511 0.0
H104 H 0.89413 0.68616 0.78352 0.0
H105 H 0.83002 0.68682 0.88551 0.0
C106 C 0.73779 0.72095 0.83168 0.0
C107 C 0.69156 0.73982 0.79162 0.0
C108 C 0.77314 0.71242 0.77053 0.0
C109 C 0.68026 0.7474 0.69054 0.0
C110 C 0.71476 0.7392 0.62997 0.0
C111 C 0.7986 0.72209 0.61075 0.0
C112 C 0.84698 0.71074 0.65152 0.0
C113 C 0.76183 0.72336 0.6695 0.0
C114 C 0.85706 0.69511 0.74979 0.0
C115 C 0.8205 0.69609 0.80883 0.0
H116 H 0.58063 0.43644 0.10574 0.0
H117 H 0.48903 0.36408 0.86838 0.0
H118 H 0.49683 0.43561 0.76229 0.0
H119 H 0.50578 0.52699 0.75968 0.0
H120 H 0.59492 0.60026 -0.00062 0.0
H121 H 0.61366 0.5201 0.0813 0.0
C122 C 0.56505 0.43524 0.02905 0.0
C123 C 0.53355 0.39595 -0.00513 0.0
C124 C 0.5682 0.47738 -0.03003 0.0
C125 C 0.51337 0.39421 0.89584 0.0
C126 C 0.51714 0.43554 0.83571 0.0
C127 C 0.53154 0.52488 0.82718 0.0
C128 C 0.5482 0.56906 0.87472 0.0
C129 C 0.54086 0.47881 0.8749 0.0
C130 C 0.58166 0.56649 0.96182 0.0
C131 C 0.59179 0.52069 0.0093 0.0
H132 H 0.84823 0.29185 0.14522 0.0
H133 H 0.86602 0.19689 0.39987 0.0
H134 H 0.77756 0.19624 0.39781 0.0
H135 H 0.69564 0.21508 0.3145 0.0
H136 H 0.67496 0.30421 0.0518 0.0
H137 H 0.76395 0.31593 0.06669 0.0
C138 C 0.83238 0.2715 0.20027 0.0
C139 C 0.86286 0.24398 0.27195 0.0
C140 C 0.78123 0.27031 0.19703 0.0
C141 C 0.84269 0.21773 0.34352 0.0
C142 C 0.79231 0.21749 0.34251 0.0
C143 C 0.71053 0.23772 0.26116 0.0
C144 C 0.67901 0.25827 0.18164 0.0
C145 C 0.76127 0.24257 0.26829 0.0
C146 C 0.69862 0.28809 0.11381 0.0
C147 C 0.74947 0.29433 0.12181 0.0
H148 H 0.29896 0.29435 0.0562 0.0
H149 H 0.37067 0.16381 0.1938 0.0
H150 H 0.30011 0.14773 0.27691 0.0
H151 H 0.22319 0.1799 0.33085 0.0
H152 H 0.1692 0.32337 0.21934 0.0
H153 H 0.2267 0.32549 0.10766 0.0
C154 C 0.299 0.26178 0.10304 0.0
C155 C 0.34034 0.23104 0.12009 0.0
C156 C 0.26116 0.25567 0.15732 0.0
C157 C 0.33926 0.18838 0.1795 0.0
C158 C 0.29925 0.17963 0.22841 0.0
C159 C 0.22418 0.21127 0.28161 0.0
C160 C 0.19055 0.25062 0.28157 0.0
C161 C 0.26096 0.21457 0.22172 0.0
C162 C 0.19287 0.29158 0.21881 0.0
C163 C 0.22632 0.2932 0.15493 0.0
H164 H 0.34675 0.77969 0.85426 0.0
H165 H 0.37413 0.75751 0.56121 0.0
H166 H 0.28671 0.76442 0.49898 0.0
H167 H 0.20231 0.75964 0.53209 0.0
H168 H 0.17369 0.77557 0.82535 0.0
H169 H 0.26117 0.78886 0.88384 0.0
C170 C 0.33354 0.77846 0.77655 0.0
C171 C 0.36651 0.76825 0.71206 0.0
C172 C 0.28282 0.78046 0.74174 0.0
C173 C 0.34916 0.7655 0.61176 0.0
C174 C 0.29919 0.76906 0.57631 0.0
C175 C 0.21522 0.76824 0.60798 0.0
C176 C 0.18205 0.76754 0.67434 0.0
C177 C 0.26557 0.77411 0.64106 0.0
C178 C 0.19884 0.77706 0.77306 0.0
C179 C 0.24886 0.78405 0.80651 0.0
H180 H 0.54236 0.88925 0.05084 0.0
H181 H 0.44943 0.9261 0.78152 0.0
H182 H 0.42291 0.00219 0.85286 0.0
H183 H 0.45017 0.06917 -0.03083 0.0
H184 H 0.55147 0.03565 0.22971 0.0
H185 H 0.54991 0.94757 0.18756 0.0
C186 C 0.51403 0.91253 0.01017 0.0
C187 C 0.49826 0.9029 0.91113 0.0
C188 C 0.5017 0.95786 0.04995 0.0
C189 C 0.46195 0.93313 0.85809 0.0
C190 C 0.44748 0.9771 0.89851 0.0
C191 C 0.46925 0.04194 0.01953 0.0
C192 C 0.50106 0.05851 0.10203 0.0
C193 C 0.47051 0.99181 -0.00873 0.0
C194 C 0.5265 0.02339 0.16618 0.0
C195 C 0.52625 0.97311 0.14109 0.0
H196 H 0.94622 0.96424 0.56414 0.0
H197 H 0.06052 0.8752 0.47385 0.0
H198 H 0.0904 0.94867 0.39421 0.0
H199 H 0.08353 0.03997 0.35207 0.0
H200 H 0.96449 0.12343 0.43825 0.0
H201 H 0.937 0.05034 0.51789 0.0
C202 C 0.9777 0.96052 0.5271 0.0
C203 C 0.00111 0.91435 0.52523 0.0
C204 C 0.99371 0.00208 0.48032 0.0
C205 C 0.04197 0.91054 0.47694 0.0
C206 C 0.05891 0.95245 0.43102 0.0
C207 C 0.05114 0.04143 0.38679 0.0
C208 C 0.02553 0.08652 0.38868 0.0
C209 C 0.0349 -0.00142 0.43197 0.0
C210 C 0.98414 0.08872 0.43506 0.0
C211 C 0.96858 0.04712 0.4811 0.0
H212 H 0.97043 0.26152 0.96234 0.0
H213 H 0.12786 0.27598 0.00879 0.0
H214 H 0.12918 0.26208 0.83647 0.0
H215 H 0.08575 0.24975 0.67151 0.0
H216 H 0.92831 0.23648 0.62115 0.0
H217 H 0.92669 0.2465 0.79543 0.0
C218 C 0.00486 0.26144 0.93433 0.0
C219 C 0.04881 0.27053 -0.00257 0.0
C220 C 0.00536 0.25415 0.83447 0.0
C221 C 0.0934 0.27012 0.96094 0.0
C222 C 0.09427 0.262 0.86256 0.0
C223 C 0.05111 0.24902 0.69875 0.0
C224 C 0.0073 0.24265 0.63396 0.0
C225 C 0.05047 0.2548 0.79847 0.0
C226 C 0.96262 0.24128 0.67004 0.0
C227 C 0.96164 0.24706 0.76953 0.0
H228 H 0.93324 0.76681 0.95059 0.0
H229 H 0.088 0.77051 0.93608 0.0
H230 H 0.10691 0.76687 0.11375 0.0
H231 H 0.07954 0.75802 0.27055 0.0
H232 H 0.92504 0.74889 0.28616 0.0
H233 H 0.90564 0.76032 0.10943 0.0
C234 C 0.97106 0.76724 -0.01332 0.0
C235 C 0.00929 0.76881 0.93144 0.0
C236 C 0.98154 0.76419 0.08814 0.0
C237 C 0.05815 0.76882 -0.02208 0.0
C238 C 0.0689 0.76697 0.07908 0.0
C239 C 0.04158 0.7587 0.23545 0.0
C240 C 0.00379 0.75184 0.29058 0.0
C241 C 0.0309 0.76394 0.13455 0.0
C242 C 0.95475 0.7537 0.24468 0.0
C243 C 0.94367 0.76006 0.14391 0.0
H244 H 0.56491 0.70658 0.19182 0.0
H245 H 0.43441 0.79533 0.11846 0.0
H246 H 0.43477 0.81323 0.29151 0.0
H247 H 0.47358 0.80403 0.46364 0.0
H248 H 0.59998 0.70931 0.5359 0.0
H249 H 0.59989 0.69239 0.36336 0.0
C250 C 0.53663 0.72974 0.21432 0.0
C251 C 0.49979 0.74982 0.14414 0.0
C252 C 0.53623 0.73825 0.31324 0.0
C253 C 0.4629 0.77947 0.17253 0.0
C254 C 0.46314 0.78961 0.27095 0.0
C255 C 0.50039 0.7791 0.44087 0.0
C256 C 0.53676 0.75793 0.51055 0.0
C257 C 0.49955 0.76904 0.34191 0.0
C258 C 0.57177 0.72587 0.48223 0.0
C259 C 0.57181 0.71638 0.38398 0.0
H260 H 0.45129 0.29221 0.46009 0.0
H261 H 0.59391 0.23617 0.42774 0.0
H262 H 0.61223 0.21959 0.60359 0.0
H263 H 0.58567 0.21831 0.76419 0.0
H264 H 0.44115 0.27205 0.79112 0.0
H265 H 0.4256 0.29263 0.61858 0.0
C266 C 0.4866 0.27681 0.49176 0.0
C267 C 0.52137 0.26545 0.43236 0.0
C268 C 0.49628 0.26675 0.59117 0.0
C269 C 0.56664 0.24481 0.47307 0.0
C270 C 0.57706 0.2355 0.5731 0.0
C271 C 0.55085 0.23452 0.73211 0.0
C272 C 0.51446 0.24303 0.7897 0.0
C273 C 0.54185 0.2458 0.63255 0.0
C274 C 0.46961 0.26459 0.7479 0.0
C275 C 0.46064 0.27649 0.64939 0.0
loop_
_geom_bond_atom_site_label_1
_geom_bond_atom_site_label_2
_geom_bond_distance
_geom_bond_site_symmetry_2
_ccdc_geom_bond_type
O0 Mg1 1.990 . S
O0 C14 1.253 1_655 S
Mg1 O0 1.990 . S
Mg1 O4 2.180 1_655 S
Mg1 O5 2.117 1_655 S
Mg1 O19 2.030 . S
O2 Mg3 2.072 . S
O2 C14 1.260 . S
Mg3 O2 2.072 . S
Mg3 O4 2.099 . S
Mg3 O6 2.079 . S
Mg3 O7 2.072 . S
Mg3 O9 2.099 . S
Mg3 O20 2.079 1_455 S
O4 Mg1 2.180 1_455 S
O4 Mg3 2.099 . S
O4 C15 1.279 . S
O5 Mg1 2.117 1_455 S
O5 C15 1.250 . S
O6 Mg3 2.079 . S
O6 C16 1.264 . S
O7 Mg3 2.072 . S
O7 C17 1.260 . S
Mg8 O9 2.180 . S
Mg8 O10 2.030 . S
Mg8 O11 1.990 . S
Mg8 O12 2.117 . S
O9 Mg3 2.099 . S
O9 Mg8 2.180 . S
O9 C18 1.279 . S
O10 Mg8 2.030 . S
O10 C16 1.248 . S
O11 Mg8 1.990 . S
O11 C17 1.253 . S
O12 Mg8 2.117 . S
O12 C18 1.250 . S
C13 O19 1.248 . S
C13 O20 1.264 . S
C14 O0 1.253 1_455 S
C14 O2 1.260 . S
C15 O4 1.279 . S
C15 O5 1.250 . S
C16 O6 1.264 . S
C16 O10 1.248 . S
C17 O7 1.260 . S
C17 O11 1.253 . S
C18 O9 1.279 . S
C18 O12 1.250 . S
O19 Mg1 2.030 . S
O19 C13 1.248 . S
O20 Mg3 2.079 1_655 S
O20 C13 1.264 . S
O21 Mg22 1.990 . S
O21 C35 1.253 . S
Mg22 O21 1.990 . S
Mg22 O25 2.180 . S
Mg22 O26 2.117 . S
Mg22 O40 2.030 . S
O23 Mg24 2.072 . S
O23 C35 1.260 . S
Mg24 O23 2.072 . S
Mg24 O25 2.099 . S
Mg24 O27 2.079 . S
Mg24 O28 2.072 1_455 S
Mg24 O30 2.099 . S
Mg24 O41 2.079 . S
O25 Mg22 2.180 . S
O25 Mg24 2.099 . S
O25 C36 1.279 . S
O26 Mg22 2.117 . S
O26 C36 1.250 . S
O27 Mg24 2.079 . S
O27 C37 1.264 . S
O28 Mg24 2.072 1_655 S
O28 C38 1.260 . S
Mg29 O30 2.180 1_655 S
Mg29 O31 2.030 . S
Mg29 O32 1.990 . S
Mg29 O33 2.117 . S
O30 Mg24 2.099 . S
O30 Mg29 2.180 1_455 S
O30 C39 1.279 . S
O31 Mg29 2.030 . S
O31 C37 1.248 1_655 S
O32 Mg29 1.990 . S
O32 C38 1.253 . S
O33 Mg29 2.117 . S
O33 C39 1.250 1_655 S
C34 O40 1.248 . S
C34 O41 1.264 . S
C35 O21 1.253 . S
C35 O23 1.260 . S
C36 O25 1.279 . S
C36 O26 1.250 . S
C37 O27 1.264 . S
C37 O31 1.248 1_455 S
C38 O28 1.260 . S
C38 O32 1.253 . S
C39 O30 1.279 . S
C39 O33 1.250 1_455 S
O40 Mg22 2.030 . S
O40 C34 1.248 . S
O41 Mg24 2.079 . S
O41 C34 1.264 . S
O42 Mg43 1.990 1_554 S
O42 C56 1.253 . S
Mg43 O42 1.990 1_556 S
Mg43 O46 2.180 . S
Mg43 O47 2.117 . S
Mg43 O61 2.030 . S
O44 Mg45 2.072 1_554 S
O44 C56 1.260 . S
Mg45 O44 2.072 1_556 S
Mg45 O46 2.099 . S
Mg45 O48 2.079 . S
Mg45 O49 2.072 . S
Mg45 O51 2.099 . S
Mg45 O62 2.079 . S
O46 Mg43 2.180 . S
O46 Mg45 2.099 . S
O46 C57 1.279 . S
O47 Mg43 2.117 . S
O47 C57 1.250 . S
O48 Mg45 2.079 . S
O48 C58 1.264 . S
O49 Mg45 2.072 . S
O49 C59 1.260 . S
Mg50 O51 2.180 . S
Mg50 O52 2.030 . S
Mg50 O53 1.990 . S
Mg50 O54 2.117 . S
O51 Mg45 2.099 . S
O51 Mg50 2.180 . S
O51 C60 1.279 . S
O52 Mg50 2.030 . S
O52 C58 1.248 . S
O53 Mg50 1.990 . S
O53 C59 1.253 . S
O54 Mg50 2.117 . S
O54 C60 1.250 . S
C55 O61 1.248 . S
C55 O62 1.264 . S
C56 O42 1.253 . S
C56 O44 1.260 . S
C57 O46 1.279 . S
C57 O47 1.250 . S
C58 O48 1.264 . S
C58 O52 1.248 . S
C59 O49 1.260 . S
C59 O53 1.253 . S
C60 O51 1.279 . S
C60 O54 1.250 . S
O61 Mg43 2.030 . S
O61 C55 1.248 . S
O62 Mg45 2.079 . S
O62 C55 1.264 . S
O63 Mg64 1.990 1_556 S
O63 C77 1.253 . S
Mg64 O63 1.990 1_554 S
Mg64 O67 2.180 . S
Mg64 O68 2.117 . S
Mg64 O82 2.030 . S
O65 Mg66 2.072 1_556 S
O65 C77 1.260 . S
Mg66 O65 2.072 1_554 S
Mg66 O67 2.099 . S
Mg66 O69 2.079 . S
Mg66 O70 2.072 . S
Mg66 O72 2.099 . S
Mg66 O83 2.079 . S
O67 Mg64 2.180 . S
O67 Mg66 2.099 . S
O67 C78 1.279 . S
O68 Mg64 2.117 . S
O68 C78 1.250 . S
O69 Mg66 2.079 . S
O69 C79 1.264 . S
O70 Mg66 2.072 . S
O70 C80 1.260 . S
Mg71 O72 2.180 . S
Mg71 O73 2.030 . S
Mg71 O74 1.990 . S
Mg71 O75 2.117 . S
O72 Mg66 2.099 . S
O72 Mg71 2.180 . S
O72 C81 1.279 . S
O73 Mg71 2.030 . S
O73 C79 1.248 . S
O74 Mg71 1.990 . S
O74 C80 1.253 . S
O75 Mg71 2.117 . S
O75 C81 1.250 . S
C76 O82 1.248 . S
C76 O83 1.264 . S
C77 O63 1.253 . S
C77 O65 1.260 . S
C78 O67 1.279 . S
C78 O68 1.250 . S
C79 O69 1.264 . S
C79 O73 1.248 . S
C80 O70 1.260 . S
C80 O74 1.253 . S
C81 O72 1.279 . S
C81 O75 1.250 . S
O82 Mg64 2.030 . S
O82 C76 1.248 . S
O83 Mg66 2.079 . S
O83 C76 1.264 . S
H84 C90 0.930 . S
H85 C93 0.930 . S
H86 C94 0.930 . S
H87 C95 0.930 . S
H88 C98 0.930 . S
H89 C99 0.930 . S
C90 H84 0.930 . S
C90 C91 1.355 . S
C90 C92 1.415 . S
C91 C90 1.355 . S
C91 C93 1.419 1_455 S
C92 C90 1.415 . S
C92 C97 1.425 1_455 S
C92 C99 1.409 . S
C93 H85 0.930 . S
C93 C91 1.419 1_655 S
C93 C94 1.362 . S
C94 H86 0.930 . S
C94 C93 1.362 . S
C94 C97 1.409 . S
C95 H87 0.930 . S
C95 C96 1.355 1_655 S
C95 C97 1.415 . S
C96 C95 1.355 1_455 S
C96 C98 1.419 . S
C97 C92 1.425 1_655 S
C97 C94 1.409 . S
C97 C95 1.415 . S
C98 H88 0.930 . S
C98 C96 1.419 . S
C98 C99 1.362 . S
C99 H89 0.930 . S
C99 C92 1.409 . S
C99 C98 1.362 . S
H100 C106 0.930 . S
H101 C109 0.930 . S
H102 C110 0.930 . S
H103 C111 0.930 . S
H104 C114 0.930 . S
H105 C115 0.930 . S
C106 H100 0.930 . S
C106 C107 1.355 . S
C106 C108 1.415 . S
C107 C106 1.355 . S
C107 C109 1.419 . S
C108 C106 1.415 . S
C108 C113 1.425 . S
C108 C115 1.409 . S
C109 H101 0.930 . S
C109 C107 1.419 . S
C109 C110 1.362 . S
C110 H102 0.930 . S
C110 C109 1.362 . S
C110 C113 1.409 . S
C111 H103 0.930 . S
C111 C112 1.355 . S
C111 C113 1.415 . S
C112 C111 1.355 . S
C112 C114 1.419 . S
C113 C108 1.425 . S
C113 C110 1.409 . S
C113 C111 1.415 . S
C114 H104 0.930 . S
C114 C112 1.419 . S
C114 C115 1.362 . S
C115 H105 0.930 . S
C115 C108 1.409 . S
C115 C114 1.362 . S
H116 C122 0.930 . S
H117 C125 0.930 . S
H118 C126 0.930 . S
H119 C127 0.930 . S
H120 C130 0.930 . S
H121 C131 0.930 . S
C122 H116 0.930 . S
C122 C123 1.355 . S
C122 C124 1.415 . S
C123 C122 1.355 . S
C123 C125 1.419 1_554 S
C124 C122 1.415 . S
C124 C129 1.425 1_554 S
C124 C131 1.409 . S
C125 H117 0.930 . S
C125 C123 1.419 1_556 S
C125 C126 1.362 . S
C126 H118 0.930 . S
C126 C125 1.362 . S
C126 C129 1.409 . S
C127 H119 0.930 . S
C127 C128 1.355 . S
C127 C129 1.415 . S
C128 C127 1.355 . S
C128 C130 1.419 1_556 S
C129 C124 1.425 1_556 S
C129 C126 1.409 . S
C129 C127 1.415 . S
C130 H120 0.930 . S
C130 C128 1.419 1_554 S
C130 C131 1.362 . S
C131 H121 0.930 . S
C131 C124 1.409 . S
C131 C130 1.362 . S
H132 C138 0.930 . S
H133 C141 0.930 . S
H134 C142 0.930 . S
H135 C143 0.930 . S
H136 C146 0.930 . S
H137 C147 0.930 . S
C138 H132 0.930 . S
C138 C139 1.355 . S
C138 C140 1.415 . S
C139 C138 1.355 . S
C139 C141 1.419 . S
C140 C138 1.415 . S
C140 C145 1.425 . S
C140 C147 1.409 . S
C141 H133 0.930 . S
C141 C139 1.419 . S
C141 C142 1.362 . S
C142 H134 0.930 . S
C142 C141 1.362 . S
C142 C145 1.409 . S
C143 H135 0.930 . S
C143 C144 1.355 . S
C143 C145 1.415 . S
C144 C143 1.355 . S
C144 C146 1.419 . S
C145 C140 1.425 . S
C145 C142 1.409 . S
C145 C143 1.415 . S
C146 H136 0.930 . S
C146 C144 1.419 . S
C146 C147 1.362 . S
C147 H137 0.930 . S
C147 C140 1.409 . S
C147 C146 1.362 . S
H148 C154 0.930 . S
H149 C157 0.930 . S
H150 C158 0.930 . S
H151 C159 0.930 . S
H152 C162 0.930 . S
H153 C163 0.930 . S
C154 H148 0.930 . S
C154 C155 1.355 . S
C154 C156 1.415 . S
C155 C154 1.355 . S
C155 C157 1.419 . S
C156 C154 1.415 . S
C156 C161 1.425 . S
C156 C163 1.409 . S
C157 H149 0.930 . S
C157 C155 1.419 . S
C157 C158 1.362 . S
C158 H150 0.930 . S
C158 C157 1.362 . S
C158 C161 1.409 . S
C159 H151 0.930 . S
C159 C160 1.355 . S
C159 C161 1.415 . S
C160 C159 1.355 . S
C160 C162 1.419 . S
C161 C156 1.425 . S
C161 C158 1.409 . S
C161 C159 1.415 . S
C162 H152 0.930 . S
C162 C160 1.419 . S
C162 C163 1.362 . S
C163 H153 0.930 . S
C163 C156 1.409 . S
C163 C162 1.362 . S
H164 C170 0.930 . S
H165 C173 0.930 . S
H166 C174 0.930 . S
H167 C175 0.930 . S
H168 C178 0.930 . S
H169 C179 0.930 . S
C170 H164 0.930 . S
C170 C171 1.355 . S
C170 C172 1.415 . S
C171 C170 1.355 . S
C171 C173 1.419 . S
C172 C170 1.415 . S
C172 C177 1.425 . S
C172 C179 1.409 . S
C173 H165 0.930 . S
C173 C171 1.419 . S
C173 C174 1.362 . S
C174 H166 0.930 . S
C174 C173 1.362 . S
C174 C177 1.409 . S
C175 H167 0.930 . S
C175 C176 1.355 . S
C175 C177 1.415 . S
C176 C175 1.355 . S
C176 C178 1.419 . S
C177 C172 1.425 . S
C177 C174 1.409 . S
C177 C175 1.415 . S
C178 H168 0.930 . S
C178 C176 1.419 . S
C178 C179 1.362 . S
C179 H169 0.930 . S
C179 C172 1.409 . S
C179 C178 1.362 . S
H180 C186 0.930 . S
H181 C189 0.930 . S
H182 C190 0.930 1_545 S
H183 C191 0.930 1_556 S
H184 C194 0.930 . S
H185 C195 0.930 1_565 S
C186 H180 0.930 . S
C186 C187 1.355 1_554 S
C186 C188 1.415 . S
C187 C186 1.355 1_556 S
C187 C189 1.419 . S
C188 C186 1.415 . S
C188 C193 1.425 1_564 S
C188 C195 1.409 1_565 S
C189 H181 0.930 . S
C189 C187 1.419 . S
C189 C190 1.362 . S
C190 H182 0.930 1_565 S
C190 C189 1.362 . S
C190 C193 1.409 1_565 S
C191 H183 0.930 1_554 S
C191 C192 1.355 . S
C191 C193 1.415 1_554 S
C192 C191 1.355 . S
C192 C194 1.419 . S
C193 C188 1.425 1_546 S
C193 C190 1.409 1_545 S
C193 C191 1.415 1_556 S
C194 H184 0.930 . S
C194 C192 1.419 . S
C194 C195 1.362 . S
C195 H185 0.930 1_545 S
C195 C188 1.409 1_545 S
C195 C194 1.362 . S
H196 C202 0.930 1_655 S
H197 C205 0.930 . S
H198 C206 0.930 . S
H199 C207 0.930 . S
H200 C210 0.930 1_655 S
H201 C211 0.930 . S
C202 H196 0.930 1_455 S
C202 C203 1.355 . S
C202 C204 1.415 1_565 S
C203 C202 1.355 . S
C203 C205 1.419 . S
C204 C202 1.415 1_545 S
C204 C209 1.425 1_545 S
C204 C211 1.409 1_455 S
C205 H197 0.930 . S
C205 C203 1.419 . S
C205 C206 1.362 . S
C206 H198 0.930 . S
C206 C205 1.362 . S
C206 C209 1.409 . S
C207 H199 0.930 . S
C207 C208 1.355 . S
C207 C209 1.415 1_545 S
C208 C207 1.355 . S
C208 C210 1.419 . S
C209 C204 1.425 1_565 S
C209 C206 1.409 . S
C209 C207 1.415 1_565 S
C210 H200 0.930 1_455 S
C210 C208 1.419 . S
C210 C211 1.362 1_455 S
C211 H201 0.930 . S
C211 C204 1.409 1_655 S
C211 C210 1.362 1_655 S
H212 C218 0.930 . S
H213 C221 0.930 . S
H214 C222 0.930 . S
H215 C223 0.930 . S
H216 C226 0.930 . S
H217 C227 0.930 . S
C218 H212 0.930 . S
C218 C219 1.355 1_656 S
C218 C220 1.415 . S
C219 C218 1.355 1_454 S
C219 C221 1.419 . S
C220 C218 1.415 . S
C220 C225 1.425 1_655 S
C220 C227 1.409 . S
C221 H213 0.930 . S
C221 C219 1.419 . S
C221 C222 1.362 1_554 S
C222 H214 0.930 . S
C222 C221 1.362 1_556 S
C222 C225 1.409 . S
C223 H215 0.930 . S
C223 C224 1.355 . S
C223 C225 1.415 . S
C224 C223 1.355 . S
C224 C226 1.419 1_455 S
C225 C220 1.425 1_455 S
C225 C222 1.409 . S
C225 C223 1.415 . S
C226 H216 0.930 . S
C226 C224 1.419 1_655 S
C226 C227 1.362 . S
C227 H217 0.930 . S
C227 C220 1.409 . S
C227 C226 1.362 . S
H228 C234 0.930 1_556 S
H229 C237 0.930 1_556 S
H230 C238 0.930 . S
H231 C239 0.930 . S
H232 C242 0.930 . S
H233 C243 0.930 . S
C234 H228 0.930 1_554 S
C234 C235 1.355 1_654 S
C234 C236 1.415 . S
C235 C234 1.355 1_456 S
C235 C237 1.419 1_556 S
C236 C234 1.415 . S
C236 C241 1.425 1_655 S
C236 C243 1.409 . S
C237 H229 0.930 1_554 S
C237 C235 1.419 1_554 S
C237 C238 1.362 . S
C238 H230 0.930 . S
C238 C237 1.362 . S
C238 C241 1.409 . S
C239 H231 0.930 . S
C239 C240 1.355 . S
C239 C241 1.415 . S
C240 C239 1.355 . S
C240 C242 1.419 1_455 S
C241 C236 1.425 1_455 S
C241 C238 1.409 . S
C241 C239 1.415 . S
C242 H232 0.930 . S
C242 C240 1.419 1_655 S
C242 C243 1.362 . S
C243 H233 0.930 . S
C243 C236 1.409 . S
C243 C242 1.362 . S
H244 C250 0.930 . S
H245 C253 0.930 . S
H246 C254 0.930 . S
H247 C255 0.930 . S
H248 C258 0.930 . S
H249 C259 0.930 . S
C250 H244 0.930 . S
C250 C251 1.355 . S
C250 C252 1.415 . S
C251 C250 1.355 . S
C251 C253 1.419 . S
C252 C250 1.415 . S
C252 C257 1.425 . S
C252 C259 1.409 . S
C253 H245 0.930 . S
C253 C251 1.419 . S
C253 C254 1.362 . S
C254 H246 0.930 . S
C254 C253 1.362 . S
C254 C257 1.409 . S
C255 H247 0.930 . S
C255 C256 1.355 . S
C255 C257 1.415 . S
C256 C255 1.355 . S
C256 C258 1.419 . S
C257 C252 1.425 . S
C257 C254 1.409 . S
C257 C255 1.415 . S
C258 H248 0.930 . S
C258 C256 1.419 . S
C258 C259 1.362 . S
C259 H249 0.930 . S
C259 C252 1.409 . S
C259 C258 1.362 . S
H260 C266 0.930 . S
H261 C269 0.930 . S
H262 C270 0.930 . S
H263 C271 0.930 . S
H264 C274 0.930 . S
H265 C275 0.930 . S
C266 H260 0.930 . S
C266 C267 1.355 . S
C266 C268 1.415 . S
C267 C266 1.355 . S
C267 C269 1.419 . S
C268 C266 1.415 . S
C268 C273 1.425 . S
C268 C275 1.409 . S
C269 H261 0.930 . S
C269 C267 1.419 . S
C269 C270 1.362 . S
C270 H262 0.930 . S
C270 C269 1.362 . S
C270 C273 1.409 . S
C271 H263 0.930 . S
C271 C272 1.355 . S
C271 C273 1.415 . S
C272 C271 1.355 . S
C272 C274 1.419 . S
C273 C268 1.425 . S
C273 C270 1.409 . S
C273 C271 1.415 . S
C274 H264 0.930 . S
C274 C272 1.419 . S
C274 C275 1.362 . S
C275 H265 0.930 . S
C275 C268 1.409 . S
C275 C274 1.362 . S
C91 C18 1.720 . S
C96 C36 1.249 . S
C107 C59 1.897 . S
C112 C38 1.933 . S
C123 C81 1.673 . S
C128 C57 1.312 . S
C139 C13 1.405 . S
C144 C76 1.416 . S
C155 C80 1.932 . S
C160 C17 1.897 . S
C171 C55 1.377 . S
C176 C34 1.412 . S
C187 C60 1.708 . S
C192 C78 1.281 . S
C203 C39 1.715 . S
C208 C15 1.241 . S
C219 C16 0.976 . S
C224 C14 0.984 . S
C235 C37 0.994 . S
C240 C35 0.964 . S
C251 C56 0.961 . S
C256 C58 0.958 . S
C267 C79 1.030 . S
C272 C77 1.005 . S
