# Generated by pormake.
# Topology wjn, (5)-cn, num edge types: 1
# Building blocks:
#     Node 0, Type 0, BuildingBlock: BEQFEK_clean_sbu_0, # of connection points: 5
#     Node 1, Type 0, BuildingBlock: BEQFEK_clean_sbu_0, # of connection points: 5
#     Node 2, Type 0, BuildingBlock: BEQFEK_clean_sbu_0, # of connection points: 5
#     Node 3, Type 0, BuildingBlock: BEQFEK_clean_sbu_0, # of connection points: 5
#     Node 4, Type 0, BuildingBlock: BEQFEK_clean_sbu_0, # of connection points: 5
#     Node 5, Type 0, BuildingBlock: BEQFEK_clean_sbu_0, # of connection points: 5
#     Node 6, Type 0, BuildingBlock: BEQFEK_clean_sbu_0, # of connection points: 5
#     Node 7, Type 0, BuildingBlock: BEQFEK_clean_sbu_0, # of connection points: 5
#     Node 8, Type 0, BuildingBlock: BEQFEK_clean_sbu_0, # of connection points: 5
#     Node 9, Type 0, BuildingBlock: BEQFEK_clean_sbu_0, # of connection points: 5
#     Node 10, Type 0, BuildingBlock: BEQFEK_clean_sbu_0, # of connection points: 5
#     Node 11, Type 0, BuildingBlock: BEQFEK_clean_sbu_0, # of connection points: 5
#     Edge 12, Type (0, 0), BuildingBlock: AJUNOK_clean_linker_0, # of connection points: 2
#     Edge 13, Type (0, 0), BuildingBlock: AJUNOK_clean_linker_0, # of connection points: 2
#     Edge 14, Type (0, 0), BuildingBlock: AJUNOK_clean_linker_0, # of connection points: 2
#     Edge 15, Type (0, 0), BuildingBlock: AJUNOK_clean_linker_0, # of connection points: 2
#     Edge 16, Type (0, 0), BuildingBlock: AJUNOK_clean_linker_0, # of connection points: 2
#     Edge 17, Type (0, 0), BuildingBlock: AJUNOK_clean_linker_0, # of connection points: 2
#     Edge 18, Type (0, 0), BuildingBlock: AJUNOK_clean_linker_0, # of connection points: 2
#     Edge 19, Type (0, 0), BuildingBlock: AJUNOK_clean_linker_0, # of connection points: 2
#     Edge 20, Type (0, 0), BuildingBlock: AJUNOK_clean_linker_0, # of connection points: 2
#     Edge 21, Type (0, 0), BuildingBlock: AJUNOK_clean_linker_0, # of connection points: 2
#     Edge 22, Type (0, 0), BuildingBlock: AJUNOK_clean_linker_0, # of connection points: 2
#     Edge 23, Type (0, 0), BuildingBlock: AJUNOK_clean_linker_0, # of connection points: 2
#     Edge 24, Type (0, 0), BuildingBlock: AJUNOK_clean_linker_0, # of connection points: 2
#     Edge 25, Type (0, 0), BuildingBlock: AJUNOK_clean_linker_0, # of connection points: 2
#     Edge 26, Type (0, 0), BuildingBlock: AJUNOK_clean_linker_0, # of connection points: 2
#     Edge 27, Type (0, 0), BuildingBlock: AJUNOK_clean_linker_0, # of connection points: 2
#     Edge 28, Type (0, 0), BuildingBlock: AJUNOK_clean_linker_0, # of connection points: 2
#     Edge 29, Type (0, 0), BuildingBlock: AJUNOK_clean_linker_0, # of connection points: 2
#     Edge 30, Type (0, 0), BuildingBlock: AJUNOK_clean_linker_0, # of connection points: 2
#     Edge 31, Type (0, 0), BuildingBlock: AJUNOK_clean_linker_0, # of connection points: 2
#     Edge 32, Type (0, 0), BuildingBlock: AJUNOK_clean_linker_0, # of connection points: 2
#     Edge 33, Type (0, 0), BuildingBlock: AJUNOK_clean_linker_0, # of connection points: 2
#     Edge 34, Type (0, 0), BuildingBlock: AJUNOK_clean_linker_0, # of connection points: 2
#     Edge 35, Type (0, 0), BuildingBlock: AJUNOK_clean_linker_0, # of connection points: 2
#     Edge 36, Type (0, 0), BuildingBlock: AJUNOK_clean_linker_0, # of connection points: 2
#     Edge 37, Type (0, 0), BuildingBlock: AJUNOK_clean_linker_0, # of connection points: 2
#     Edge 38, Type (0, 0), BuildingBlock: AJUNOK_clean_linker_0, # of connection points: 2
#     Edge 39, Type (0, 0), BuildingBlock: AJUNOK_clean_linker_0, # of connection points: 2
#     Edge 40, Type (0, 0), BuildingBlock: AJUNOK_clean_linker_0, # of connection points: 2
#     Edge 41, Type (0, 0), BuildingBlock: AJUNOK_clean_linker_0, # of connection points: 2
# Relax obj value: 0.403
# Max RMSD: 0.210
# Mean RMSD: 0.210
data_MOF--net-wjn--node1-BEQFEK_clean_sbu_0--edge1-AJUNOK_clean_linker_0
_symmetry_space_group_name_H-M    P1
_symmetry_Int_Tables_number       1
_symmetry_cell_setting            triclinic
loop_
_symmetry_equiv_pos_as_xyz
'x, y, z'
_cell_length_a     27.466383
_cell_length_b     27.47305
_cell_length_c     56.25207
_cell_angle_alpha  90.114455
_cell_angle_beta   90.045957
_cell_angle_gamma 119.99135
loop_
_atom_site_label
_atom_site_type_symbol
_atom_site_fract_x
_atom_site_fract_y
_atom_site_fract_z
_atom_type_partial_charge
Co0 Co 0.11695 0.41034 0.11329 0.0
Co1 Co 0.22761 0.42188 0.13273 0.0
C2 C 0.19768 0.50805 0.14538 0.0
O3 O 0.15291 0.4789 0.13343 0.0
O4 O 0.23496 0.49343 0.14651 0.0
C5 C 0.08075 0.45682 0.07976 0.0
O6 O 0.13533 0.49025 0.07781 0.0
C7 C 0.3481 0.46388 0.1453 0.0
C8 C 0.36189 0.39954 0.12817 0.0
C9 C 0.39035 0.45155 0.13935 0.0
N10 N 0.29817 0.42223 0.13716 0.0
N11 N 0.30687 0.38348 0.12738 0.0
C12 C 0.35367 0.51202 0.15986 0.0
H13 H 0.31677 0.49735 0.17175 0.0
H14 H 0.35437 0.5444 0.14789 0.0
H15 H 0.39244 0.53069 0.17086 0.0
C16 C 0.15517 0.38894 0.06906 0.0
N17 N 0.16299 0.40156 0.09229 0.0
N18 N 0.21483 0.41758 0.09848 0.0
C19 C 0.24361 0.42157 0.07827 0.0
C20 C 0.20608 0.40298 0.05907 0.0
C21 C 0.09961 0.36329 0.05644 0.0
H22 H 0.06429 0.34581 0.06923 0.0
H23 H 0.09804 0.39517 0.04489 0.0
H24 H 0.09452 0.32852 0.04474 0.0
O25 O 0.08287 0.34633 0.13274 0.0
O26 O 0.15914 0.35348 0.15023 0.0
H27 H 0.31303 0.40725 0.0783 0.0
H28 H 0.32283 0.46469 0.05993 0.0
C29 C 0.30543 0.44321 0.07711 0.0
H30 H 0.32728 0.47251 0.09208 0.0
H31 H 0.27564 0.34739 0.11898 0.0
O32 O 0.06181 0.4174 0.0949 0.0
C33 C 0.1052 0.32852 0.14746 0.0
Co34 Co 0.70617 0.12311 0.44652 0.0
Co35 Co 0.81684 0.22472 0.46469 0.0
C36 C 0.70442 0.21054 0.47817 0.0
O37 O 0.68038 0.16728 0.46499 0.0
O38 O 0.75774 0.23741 0.48048 0.0
C39 C 0.62259 0.09148 0.41342 0.0
O40 O 0.64629 0.14626 0.41112 0.0
C41 C 0.90295 0.34277 0.47773 0.0
C42 C 0.9774 0.35082 0.4594 0.0
C43 C 0.95839 0.38224 0.47152 0.0
N44 N 0.89008 0.29187 0.4689 0.0
N45 N 0.93549 0.29702 0.45852 0.0
C46 C 0.86355 0.35194 0.49293 0.0
H47 H 0.83718 0.31389 0.50367 0.0
H48 H 0.83558 0.36011 0.48142 0.0
H49 H 0.88692 0.38779 0.50529 0.0
C50 C 0.76458 0.15155 0.40174 0.0
N51 N 0.76199 0.16272 0.42477 0.0
N52 N 0.80438 0.21212 0.43048 0.0
C53 C 0.83195 0.23678 0.41004 0.0
C54 C 0.80764 0.19835 0.39136 0.0
C55 C 0.7281 0.09604 0.38974 0.0
H56 H 0.70827 0.06168 0.40292 0.0
H57 H 0.69569 0.09836 0.37882 0.0
H58 H 0.75341 0.08598 0.37747 0.0
O59 O 0.73153 0.08436 0.46646 0.0
O60 O 0.81337 0.15365 0.48016 0.0
H61 H 0.91985 0.29561 0.40889 0.0
H62 H 0.87795 0.31404 0.3907 0.0
C63 C 0.87957 0.29575 0.40806 0.0
H64 H 0.87812 0.32196 0.42276 0.0
H65 H 0.93694 0.26437 0.44964 0.0
O66 O 0.64123 0.07099 0.42874 0.0
C67 C 0.77622 0.10106 0.47847 0.0
Co68 Co 0.58139 0.6984 0.77652 0.0
Co69 Co 0.59631 0.81045 0.7961 0.0
C70 C 0.49691 0.69844 0.81007 0.0
O71 O 0.51379 0.67383 0.79606 0.0
O72 O 0.52518 0.75165 0.81286 0.0
C73 C 0.52374 0.61253 0.74469 0.0
O74 O 0.49132 0.63503 0.74395 0.0
C75 C 0.55865 0.89344 0.80197 0.0
C76 C 0.63798 0.97387 0.80565 0.0
C77 C 0.58013 0.95109 0.80438 0.0
N78 N 0.60158 0.88275 0.80186 0.0
N79 N 0.64891 0.93117 0.80422 0.0
C80 C 0.4987 0.84965 0.79758 0.0
H81 H 0.49652 0.81515 0.78649 0.0
H82 H 0.47557 0.86806 0.78868 0.0
H83 H 0.47817 0.83173 0.81487 0.0
C84 C 0.60577 0.75616 0.7317 0.0
N85 N 0.59487 0.75392 0.75503 0.0
N86 N 0.59424 0.79936 0.7618 0.0
C87 C 0.60058 0.83031 0.74203 0.0
C88 C 0.60789 0.80322 0.72247 0.0
C89 C 0.62037 0.7176 0.71857 0.0
H90 H 0.63751 0.69845 0.73087 0.0
H91 H 0.58255 0.68463 0.70927 0.0
H92 H 0.65251 0.7409 0.70476 0.0
O93 O 0.648 0.72328 0.79539 0.0
O94 O 0.66443 0.8056 0.81006 0.0
H95 H 0.63728 0.91589 0.75314 0.0
H96 H 0.60674 0.90207 0.72361 0.0
C97 C 0.60183 0.88529 0.74193 0.0
H98 H 0.56237 0.87976 0.74979 0.0
H99 H 0.68879 0.93529 0.80422 0.0
O100 O 0.56585 0.63271 0.75856 0.0
C101 C 0.67817 0.76733 0.80755 0.0
Co102 Co 0.8917 0.5739 0.11062 0.0
Co103 Co 0.79406 0.5889 0.12976 0.0
C104 C 0.80609 0.48907 0.14369 0.0
O105 O 0.84811 0.50594 0.13 0.0
O106 O 0.78111 0.51736 0.14611 0.0
C107 C 0.92097 0.51716 0.07871 0.0
O108 O 0.8661 0.48479 0.07747 0.0
C109 C 0.67726 0.55923 0.14399 0.0
C110 C 0.66981 0.6271 0.1268 0.0
C111 C 0.63819 0.57636 0.13858 0.0
N112 N 0.728 0.59681 0.13496 0.0
N113 N 0.72327 0.63803 0.12532 0.0
C114 C 0.66806 0.51029 0.15889 0.0
H115 H 0.70633 0.52153 0.16947 0.0
H116 H 0.65926 0.47422 0.14718 0.0
H117 H 0.63271 0.49797 0.17145 0.0
C118 C 0.85905 0.59849 0.06556 0.0
N119 N 0.85009 0.58784 0.0889 0.0
N120 N 0.80312 0.58573 0.09533 0.0
C121 C 0.77788 0.58979 0.07521 0.0
C122 C 0.81317 0.59833 0.05591 0.0
C123 C 0.91294 0.61417 0.05285 0.0
H124 H 0.94866 0.63083 0.06549 0.0
H125 H 0.9088 0.57701 0.04324 0.0
H126 H 0.92242 0.64702 0.03935 0.0
O127 O 0.93344 0.64018 0.12961 0.0
O128 O 0.8674 0.65673 0.1439 0.0
H129 H 0.72755 0.62881 0.07599 0.0
H130 H 0.7013 0.56878 0.05674 0.0
C131 C 0.72178 0.58604 0.07417 0.0
H132 H 0.69446 0.55908 0.08872 0.0
H133 H 0.75591 0.6722 0.11656 0.0
O134 O 0.94229 0.55864 0.09292 0.0
C135 C 0.91944 0.67048 0.14154 0.0
Co136 Co 0.32304 0.89359 0.44544 0.0
Co137 Co 0.21484 0.79031 0.4641 0.0
C138 C 0.32877 0.80645 0.47582 0.0
O139 O 0.35136 0.84999 0.46283 0.0
O140 O 0.2757 0.77898 0.47877 0.0
C141 C 0.40552 0.92887 0.41146 0.0
O142 O 0.38408 0.8744 0.40876 0.0
C143 C 0.13409 0.67162 0.47712 0.0
C144 C 0.05642 0.65829 0.45972 0.0
C145 C 0.07944 0.62977 0.47119 0.0
N146 N 0.14319 0.72143 0.46861 0.0
N147 N 0.09597 0.71314 0.45874 0.0
C148 C 0.17561 0.66581 0.49234 0.0
H149 H 0.19648 0.70227 0.50462 0.0
H150 H 0.20851 0.66574 0.48094 0.0
H151 H 0.15482 0.62669 0.50303 0.0
C152 C 0.26278 0.8635 0.40098 0.0
N153 N 0.26624 0.85317 0.42402 0.0
N154 N 0.2253 0.8031 0.4298 0.0
C155 C 0.198 0.77732 0.40937 0.0
C156 C 0.22102 0.8155 0.3906 0.0
C157 C 0.29676 0.91941 0.38908 0.0
H158 H 0.31638 0.95373 0.40236 0.0
H159 H 0.3291 0.91865 0.37753 0.0
H160 H 0.26956 0.92832 0.37746 0.0
O161 O 0.29803 0.93089 0.46653 0.0
O162 O 0.21812 0.86037 0.48086 0.0
H163 H 0.11067 0.71634 0.40903 0.0
H164 H 0.15266 0.69962 0.39002 0.0
C165 C 0.15159 0.71769 0.40755 0.0
H166 H 0.15504 0.69218 0.42202 0.0
H167 H 0.09162 0.7444 0.45015 0.0
O168 O 0.38635 0.94744 0.42741 0.0
C169 C 0.25462 0.91323 0.47943 0.0
Co170 Co 0.41988 0.30973 0.77918 0.0
Co171 Co 0.42992 0.20963 0.79866 0.0
C172 C 0.51733 0.32648 0.81093 0.0
O173 O 0.48868 0.34249 0.79894 0.0
O174 O 0.50188 0.27441 0.81226 0.0
C175 C 0.46507 0.39293 0.74581 0.0
O176 O 0.49902 0.37247 0.74343 0.0
C177 C 0.47556 0.13219 0.80581 0.0
C178 C 0.3991 0.04889 0.80328 0.0
C179 C 0.45711 0.07471 0.80523 0.0
N180 N 0.43073 0.13973 0.80373 0.0
N181 N 0.38517 0.08952 0.80243 0.0
C182 C 0.53439 0.17934 0.80955 0.0
H183 H 0.53488 0.20606 0.82444 0.0
H184 H 0.54899 0.20574 0.79333 0.0
H185 H 0.56359 0.16382 0.81401 0.0
C186 C 0.39648 0.2489 0.73504 0.0
N187 N 0.41062 0.25465 0.75812 0.0
N188 N 0.42388 0.21684 0.76445 0.0
C189 C 0.42388 0.18903 0.74447 0.0
C190 C 0.40601 0.20862 0.72528 0.0
C191 C 0.37279 0.28054 0.72238 0.0
H192 H 0.35547 0.29865 0.73515 0.0
H193 H 0.40587 0.31399 0.71125 0.0
H194 H 0.33831 0.2523 0.71025 0.0
O195 O 0.35621 0.28005 0.799 0.0
O196 O 0.36204 0.21024 0.81638 0.0
H197 H 0.40592 0.10556 0.75175 0.0
H198 H 0.44682 0.13551 0.72516 0.0
C199 C 0.44004 0.14459 0.74372 0.0
H200 H 0.47873 0.15813 0.75439 0.0
H201 H 0.34459 0.08295 0.80021 0.0
O202 O 0.42603 0.37179 0.76111 0.0
C203 C 0.33793 0.24003 0.81376 0.0
Co204 Co 0.58814 0.88792 0.566 0.0
Co205 Co 0.59879 0.78818 0.54724 0.0
C206 C 0.5007 0.8026 0.53341 0.0
O207 O 0.51847 0.84449 0.5473 0.0
O208 O 0.52807 0.77676 0.53072 0.0
C209 C 0.53749 0.92064 0.59955 0.0
O210 O 0.50529 0.86605 0.60208 0.0
C211 C 0.55872 0.66727 0.54195 0.0
C212 C 0.63723 0.66399 0.54018 0.0
C213 C 0.57919 0.63017 0.54069 0.0
N214 N 0.60246 0.72038 0.54213 0.0
N215 N 0.6493 0.71803 0.54088 0.0
C216 C 0.49887 0.65251 0.54534 0.0
H217 H 0.49677 0.68446 0.55672 0.0
H218 H 0.47381 0.61032 0.55349 0.0
H219 H 0.48035 0.65221 0.52776 0.0
C220 C 0.61814 0.85832 0.61066 0.0
N221 N 0.60393 0.84768 0.58763 0.0
N222 N 0.59898 0.79939 0.58142 0.0
C223 C 0.60438 0.77493 0.60144 0.0
C224 C 0.61705 0.81219 0.6205 0.0
C225 C 0.63662 0.91332 0.62301 0.0
H226 H 0.65062 0.94805 0.61006 0.0
H227 H 0.60182 0.91013 0.63414 0.0
H228 H 0.67241 0.92363 0.6351 0.0
O229 O 0.65272 0.92731 0.54619 0.0
O230 O 0.66664 0.85918 0.53219 0.0
H231 H 0.6017 0.70585 0.62082 0.0
H232 H 0.55894 0.68677 0.59409 0.0
C233 C 0.59936 0.71825 0.60227 0.0
H234 H 0.63382 0.719 0.59172 0.0
H235 H 0.68955 0.75321 0.54131 0.0
O236 O 0.57587 0.94005 0.58393 0.0
C237 C 0.6813 0.91154 0.53405 0.0
Co238 Co 0.71301 0.60301 0.90002 0.0
Co239 Co 0.81267 0.59279 0.88034 0.0
C240 C 0.69678 0.50559 0.8679 0.0
O241 O 0.68117 0.53461 0.87992 0.0
O242 O 0.74876 0.52052 0.86664 0.0
C243 C 0.63049 0.55567 0.93357 0.0
O244 O 0.65185 0.5224 0.93543 0.0
C245 C 0.89619 0.55602 0.86771 0.0
C246 C 0.97172 0.62358 0.88507 0.0
C247 C 0.952 0.57211 0.87373 0.0
N248 N 0.88424 0.59529 0.87585 0.0
N249 N 0.93024 0.63603 0.88572 0.0
C250 C 0.85516 0.50568 0.85374 0.0
H251 H 0.82496 0.51458 0.84439 0.0
H252 H 0.83139 0.46979 0.86597 0.0
H253 H 0.87718 0.49421 0.84025 0.0
C254 C 0.77352 0.62563 0.94411 0.0
N255 N 0.76816 0.61234 0.92095 0.0
N256 N 0.80471 0.59737 0.91464 0.0
C257 C 0.83084 0.59496 0.93475 0.0
C258 C 0.81199 0.61353 0.95393 0.0
C259 C 0.74245 0.64986 0.95685 0.0
H260 H 0.72423 0.66713 0.94413 0.0
H261 H 0.70912 0.61713 0.96815 0.0
H262 H 0.7712 0.68442 0.96884 0.0
O263 O 0.74221 0.66717 0.88061 0.0
O264 O 0.81153 0.66074 0.86302 0.0
H265 H 0.91527 0.61122 0.9351 0.0
H266 H 0.86776 0.55249 0.95292 0.0
C267 C 0.87204 0.57458 0.93588 0.0
H268 H 0.86568 0.54607 0.92073 0.0
H269 H 0.93241 0.67096 0.89412 0.0
O270 O 0.65066 0.59514 0.91846 0.0
C271 C 0.78232 0.68539 0.86589 0.0
Co272 Co 0.12009 0.70483 0.23544 0.0
Co273 Co 0.2289 0.80423 0.21469 0.0
C274 C 0.19876 0.68693 0.20292 0.0
O275 O 0.15485 0.67116 0.21541 0.0
O276 O 0.23517 0.739 0.20116 0.0
C277 C 0.08082 0.622 0.26972 0.0
O278 O 0.13484 0.64037 0.2723 0.0
C279 C 0.35158 0.88266 0.20679 0.0
C280 C 0.35593 0.96496 0.20583 0.0
C281 C 0.3894 0.94034 0.20521 0.0
N282 N 0.29876 0.87405 0.20852 0.0
N283 N 0.30192 0.92364 0.2078 0.0
C284 C 0.36464 0.83596 0.2055 0.0
H285 H 0.33857 0.8061 0.19137 0.0
H286 H 0.35344 0.81283 0.2226 0.0
H287 H 0.40938 0.85132 0.20127 0.0
C288 C 0.1607 0.76705 0.27915 0.0
N289 N 0.16749 0.76049 0.25599 0.0
N290 N 0.21799 0.79835 0.24903 0.0
C291 C 0.24707 0.82717 0.26864 0.0
C292 C 0.21107 0.8079 0.28828 0.0
C293 C 0.10605 0.73682 0.29235 0.0
H294 H 0.06992 0.71834 0.27992 0.0
H295 H 0.10581 0.70386 0.30379 0.0
H296 H 0.10102 0.76626 0.30421 0.0
O297 O 0.08497 0.73391 0.21577 0.0
O298 O 0.15954 0.80278 0.19752 0.0
H299 H 0.31119 0.90966 0.259 0.0
H300 H 0.32359 0.88526 0.28697 0.0
C301 C 0.3073 0.87262 0.26858 0.0
H302 H 0.3328 0.85796 0.25892 0.0
H303 H 0.26726 0.9294 0.20924 0.0
O304 O 0.06438 0.64369 0.25404 0.0
C305 C 0.10583 0.77314 0.20062 0.0
Co306 Co 0.44524 0.12693 0.56944 0.0
Co307 Co 0.43319 0.22541 0.54967 0.0
C308 C 0.53199 0.21037 0.53667 0.0
O309 O 0.51489 0.16924 0.55086 0.0
O310 O 0.50377 0.2352 0.53353 0.0
C311 C 0.49458 0.09054 0.60248 0.0
O312 O 0.52999 0.14465 0.60486 0.0
C313 C 0.47438 0.34657 0.54279 0.0
C314 C 0.39638 0.35094 0.54215 0.0
C315 C 0.45447 0.38429 0.54192 0.0
N316 N 0.43026 0.29374 0.54405 0.0
N317 N 0.38373 0.29678 0.54346 0.0
C318 C 0.53422 0.35989 0.5412 0.0
H319 H 0.53884 0.33775 0.52564 0.0
H320 H 0.54526 0.34435 0.55737 0.0
H321 H 0.56382 0.40544 0.53888 0.0
C322 C 0.41982 0.16098 0.61421 0.0
N323 N 0.43175 0.16938 0.59094 0.0
N324 N 0.43388 0.21602 0.58403 0.0
C325 C 0.42789 0.24139 0.60368 0.0
C326 C 0.41893 0.20684 0.62331 0.0
C327 C 0.40273 0.10722 0.62727 0.0
H328 H 0.38566 0.07117 0.61482 0.0
H329 H 0.43925 0.11081 0.63721 0.0
H330 H 0.36961 0.09866 0.64053 0.0
O331 O 0.37997 0.08738 0.54958 0.0
O332 O 0.36498 0.15404 0.53489 0.0
H333 H 0.39052 0.2903 0.59379 0.0
H334 H 0.42739 0.31034 0.62194 0.0
C335 C 0.42805 0.29583 0.60357 0.0
H336 H 0.46591 0.32806 0.59412 0.0
H337 H 0.34333 0.262 0.54461 0.0
O338 O 0.45546 0.07329 0.5872 0.0
C339 C 0.35072 0.10194 0.53723 0.0
Co340 Co 0.32578 0.44135 0.90273 0.0
Co341 Co 0.2139 0.42732 0.88317 0.0
C342 C 0.32668 0.52593 0.86906 0.0
O343 O 0.3514 0.50939 0.88318 0.0
O344 O 0.27344 0.49766 0.86645 0.0
C345 C 0.41122 0.49682 0.93511 0.0
O346 O 0.38915 0.52957 0.93638 0.0
C347 C 0.13123 0.4624 0.8694 0.0
C348 C 0.05303 0.39541 0.88528 0.0
C349 C 0.07569 0.44769 0.87453 0.0
N350 N 0.14116 0.42206 0.87775 0.0
N351 N 0.09361 0.3815 0.88665 0.0
C352 C 0.17293 0.51126 0.85498 0.0
H353 H 0.19404 0.49693 0.84226 0.0
H354 H 0.20557 0.54314 0.86689 0.0
H355 H 0.15229 0.53048 0.84475 0.0
C356 C 0.26804 0.41793 0.94764 0.0
N357 N 0.27025 0.4284 0.92426 0.0
N358 N 0.22597 0.43132 0.91759 0.0
C359 C 0.19668 0.42816 0.93756 0.0
C360 C 0.22275 0.41926 0.95705 0.0
C361 C 0.30508 0.40109 0.9606 0.0
H362 H 0.32427 0.38433 0.94811 0.0
H363 H 0.33798 0.43768 0.97056 0.0
H364 H 0.2806 0.36788 0.97383 0.0
O365 O 0.30041 0.37465 0.88395 0.0
O366 O 0.21777 0.35809 0.86964 0.0
H367 H 0.10754 0.39056 0.93584 0.0
H368 H 0.14097 0.44941 0.95576 0.0
C369 C 0.14486 0.4329 0.93827 0.0
H370 H 0.14585 0.46091 0.92388 0.0
H371 H 0.08962 0.34568 0.89488 0.0
O372 O 0.39104 0.4557 0.92071 0.0
C373 C 0.25584 0.34407 0.87218 0.0
Co374 Co 0.88891 0.31653 0.23599 0.0
Co375 Co 0.79307 0.20455 0.21575 0.0
C376 C 0.80518 0.31673 0.20215 0.0
O377 O 0.84638 0.3413 0.21631 0.0
O378 O 0.78074 0.26361 0.19914 0.0
C379 C 0.91704 0.40331 0.26726 0.0
O380 O 0.86211 0.38068 0.26791 0.0
C381 C 0.67274 0.12282 0.20927 0.0
C382 C 0.67052 0.0422 0.204 0.0
C383 C 0.63607 0.06561 0.20572 0.0
N384 N 0.72606 0.13272 0.20938 0.0
N385 N 0.72435 0.08423 0.20611 0.0
C386 C 0.65746 0.16679 0.21483 0.0
H387 H 0.68835 0.19806 0.22749 0.0
H388 H 0.61451 0.14774 0.22243 0.0
H389 H 0.65895 0.18924 0.19823 0.0
C390 C 0.85308 0.25847 0.28082 0.0
N391 N 0.84582 0.26091 0.25735 0.0
N392 N 0.80096 0.21482 0.25009 0.0
C393 C 0.77597 0.1828 0.26955 0.0
C394 C 0.80855 0.21022 0.2895 0.0
C395 C 0.90487 0.29801 0.29459 0.0
H396 H 0.94217 0.31772 0.28287 0.0
H397 H 0.89842 0.33059 0.30329 0.0
H398 H 0.91337 0.27555 0.30892 0.0
O399 O 0.93127 0.29172 0.21737 0.0
O400 O 0.86631 0.20966 0.20217 0.0
H401 H 0.73098 0.09793 0.25717 0.0
H402 H 0.71278 0.10777 0.28706 0.0
C403 C 0.72408 0.12627 0.26899 0.0
H404 H 0.68883 0.1302 0.26152 0.0
H405 H 0.7598 0.07957 0.20586 0.0
O406 O 0.93899 0.3823 0.25389 0.0
C407 C 0.91813 0.24801 0.20508 0.0
C408 C 0.5434 0.48687 0.14319 0.0
C409 C 0.57504 0.54592 0.14118 0.0
C410 C 0.48428 0.45778 0.14371 0.0
C411 C 0.45326 0.48572 0.14149 0.0
H412 H 0.56364 0.46187 0.14325 0.0
H413 H 0.46259 0.4124 0.14516 0.0
S414 S 0.51474 0.63938 0.13225 0.0
N415 N 0.56976 0.63108 0.13587 0.0
N416 N 0.45936 0.57587 0.13431 0.0
C417 C 0.48405 0.54453 0.13859 0.0
C418 C 0.54446 0.57452 0.13893 0.0
C419 C 0.99211 0.53574 0.47616 0.0
C420 C 0.05091 0.56702 0.47343 0.0
C421 C 0.96259 0.4766 0.476 0.0
C422 C 0.99047 0.44541 0.47377 0.0
H423 H 0.96823 0.55722 0.47779 0.0
H424 H 0.91733 0.4559 0.47654 0.0
S425 S 0.14384 0.50661 0.4634 0.0
N426 N 0.1351 0.56164 0.46547 0.0
N427 N 0.08104 0.45139 0.46764 0.0
C428 C 0.04948 0.47632 0.47096 0.0
C429 C 0.07929 0.53663 0.47028 0.0
C430 C 0.47204 0.99587 0.81875 0.0
C431 C 0.49018 0.04492 0.8051 0.0
C432 C 0.50105 0.96564 0.81842 0.0
C433 C 0.54934 0.98311 0.80435 0.0
H434 H 0.43522 0.98088 0.82993 0.0
H435 H 0.48589 0.92868 0.82949 0.0
S436 S 0.61017 0.10422 0.76298 0.0
N437 N 0.55635 0.10586 0.77519 0.0
N438 N 0.61188 0.05057 0.77529 0.0
C439 C 0.56738 0.03146 0.79032 0.0
C440 C 0.53749 0.06183 0.79043 0.0
C441 C 0.50171 0.53656 0.52599 0.0
C442 C 0.54719 0.56763 0.54152 0.0
C443 C 0.47201 0.47736 0.52625 0.0
C444 C 0.48665 0.447 0.54205 0.0
H445 H 0.48955 0.55817 0.51329 0.0
H446 H 0.43775 0.45515 0.51377 0.0
S447 S 0.59693 0.50884 0.58872 0.0
N448 N 0.60245 0.56378 0.57438 0.0
N449 N 0.54532 0.45303 0.57559 0.0
C450 C 0.53053 0.47774 0.55833 0.0
C451 C 0.56123 0.53787 0.55782 0.0
C452 C 0.95773 0.48253 0.86844 0.0
C453 C 0.98464 0.54131 0.87182 0.0
C454 C 0.9879 0.45346 0.86845 0.0
C455 C 0.04634 0.48121 0.87243 0.0
H456 H 0.91272 0.45757 0.86677 0.0
H457 H 0.96478 0.40833 0.86587 0.0
S458 S 0.13663 0.63335 0.88584 0.0
N459 N 0.07415 0.62562 0.88041 0.0
N460 N 0.12878 0.5701 0.88291 0.0
C461 C 0.07363 0.53948 0.87678 0.0
C462 C 0.04337 0.56951 0.87593 0.0
C463 C 0.48372 0.95516 0.2189 0.0
C464 C 0.45234 0.97152 0.20452 0.0
C465 C 0.54295 0.98544 0.21897 0.0
C466 C 0.57331 0.0342 0.20515 0.0
H467 H 0.46248 0.9194 0.23064 0.0
H468 H 0.56517 0.97124 0.23036 0.0
S469 S 0.51177 0.0942 0.16388 0.0
N470 N 0.45668 0.03933 0.17568 0.0
N471 N 0.56751 0.09618 0.17601 0.0
C472 C 0.54259 0.05108 0.19072 0.0
C473 C 0.48235 0.01998 0.19046 0.0
C474 C 0.94269 0.44384 0.06723 0.0
C475 C 0.95825 0.50077 0.06734 0.0
C476 C 0.98401 0.42856 0.06763 0.0
C477 C 0.04125 0.47002 0.06808 0.0
H478 H 0.89937 0.41154 0.07009 0.0
H479 H 0.97114 0.38476 0.07052 0.0
S480 S 0.10093 0.62283 0.05877 0.0
N481 N 0.03237 0.5971 0.06057 0.0
N482 N 0.11056 0.56833 0.06124 0.0
C483 C 0.05648 0.52589 0.06325 0.0
C484 C 0.01444 0.54141 0.06295 0.0
C485 C 0.55626 0.99687 0.39854 0.0
C486 C 0.57048 0.0534 0.40108 0.0
C487 C 0.50009 0.95458 0.39778 0.0
C488 C 0.45769 0.96852 0.39973 0.0
H489 H 0.58818 0.98485 0.40015 0.0
H490 H 0.49035 0.91128 0.39913 0.0
S491 S 0.4741 0.1106 0.39712 0.0
N492 N 0.53897 0.12168 0.39827 0.0
N493 N 0.4327 0.04166 0.39688 0.0
C494 C 0.47161 0.02487 0.39734 0.0
C495 C 0.52875 0.0679 0.398 0.0
C496 C 0.4351 0.46063 0.73463 0.0
C497 C 0.47689 0.44527 0.73422 0.0
C498 C 0.4499 0.51707 0.73415 0.0
C499 C 0.50668 0.55872 0.7333 0.0
H500 H 0.39166 0.4296 0.73821 0.0
H501 H 0.41767 0.52788 0.73771 0.0
S502 S 0.6285 0.53889 0.72224 0.0
N503 N 0.57462 0.47469 0.72555 0.0
N504 N 0.60248 0.58138 0.72474 0.0
C505 C 0.54717 0.54342 0.72807 0.0
C506 C 0.53214 0.48601 0.72846 0.0
C507 C 0.57085 0.0157 0.61509 0.0
C508 C 0.52643 0.96012 0.61244 0.0
C509 C 0.55998 0.06005 0.61602 0.0
C510 C 0.50456 0.04907 0.61419 0.0
H511 H 0.6141 0.02545 0.61332 0.0
H512 H 0.59507 0.10258 0.61468 0.0
S513 S 0.37435 0.91034 0.61689 0.0
N514 N 0.42579 0.89577 0.61543 0.0
N515 N 0.40514 0.9796 0.61731 0.0
C516 C 0.46011 0.9936 0.61665 0.0
C517 C 0.47118 0.9485 0.61575 0.0
C518 C 0.50629 0.5694 0.94692 0.0
C519 C 0.46464 0.51257 0.94659 0.0
C520 C 0.56277 0.58431 0.94634 0.0
C521 C 0.57814 0.54257 0.94551 0.0
H522 H 0.49554 0.60198 0.94431 0.0
H523 H 0.59389 0.6281 0.94359 0.0
S524 S 0.48435 0.3897 0.95425 0.0
N525 N 0.44185 0.4159 0.95286 0.0
N526 N 0.54862 0.44397 0.95182 0.0
C527 C 0.53731 0.4867 0.95019 0.0
C528 C 0.47987 0.47156 0.95069 0.0
C529 C 0.05245 0.52713 0.28415 0.0
C530 C 0.03904 0.56959 0.28076 0.0
C531 C 1.01021 0.47096 0.28324 0.0
C532 C 0.95409 0.45661 0.2791 0.0
H533 H 0.09581 0.53671 0.28426 0.0
H534 H 0.02233 0.43899 0.28294 0.0
S535 S 0.89681 0.55323 0.27882 0.0
N536 N 0.96567 0.59462 0.28053 0.0
N537 N 0.88576 0.48836 0.27871 0.0
C538 C 0.9394 0.49854 0.28058 0.0
C539 C 0.98242 0.55572 0.28145 0.0
C540 C 0.15191 0.59553 0.1812 0.0
C541 C 0.20238 0.64331 0.18832 0.0
C542 C 0.15163 0.55318 0.16725 0.0
C543 C 0.2018 0.5556 0.15993 0.0
H544 H 0.1117 0.59088 0.18618 0.0
H545 H 0.11122 0.51763 0.16243 0.0
S546 S 0.3459 0.67116 0.17386 0.0
N547 N 0.30443 0.69072 0.18687 0.0
N548 N 0.30391 0.61001 0.16099 0.0
C549 C 0.25289 0.60282 0.16702 0.0
C550 C 0.25317 0.64693 0.18102 0.0
C551 C 0.61988 0.22205 0.48275 0.0
C552 C 0.66807 0.22455 0.49287 0.0
C553 C 0.57816 0.2229 0.497 0.0
C554 C 0.58221 0.22438 0.52195 0.0
H555 H 0.61321 0.21692 0.46371 0.0
H556 H 0.54059 0.21814 0.48851 0.0
S557 S 0.701 0.23428 0.55722 0.0
N558 N 0.71896 0.23258 0.52933 0.0
N559 N 0.63951 0.23144 0.5561 0.0
C560 C 0.63122 0.22931 0.53222 0.0
C561 C 0.67444 0.23016 0.51769 0.0
C562 C 0.45072 0.66573 0.84979 0.0
C563 C 0.44673 0.66245 0.82486 0.0
C564 C 0.40967 0.62286 0.86413 0.0
C565 C 0.36227 0.57601 0.8541 0.0
H566 H 0.48785 0.69934 0.85823 0.0
H567 H 0.41633 0.62517 0.88318 0.0
S568 S 0.32973 0.55047 0.78979 0.0
N569 N 0.39018 0.61022 0.7908 0.0
N570 N 0.31207 0.53126 0.81771 0.0
C571 C 0.35583 0.57445 0.82928 0.0
C572 C 0.39834 0.61721 0.81468 0.0
C573 C 0.79042 0.3915 0.14843 0.0
C574 C 0.79118 0.43886 0.15859 0.0
C575 C 0.78917 0.34874 0.16267 0.0
C576 C 0.79045 0.35271 0.18761 0.0
H577 H 0.79349 0.38879 0.12932 0.0
H578 H 0.79167 0.31471 0.1541 0.0
S579 S 0.78941 0.46631 0.22302 0.0
N580 N 0.78909 0.4849 0.19513 0.0
N581 N 0.78921 0.40612 0.22185 0.0
C582 C 0.78849 0.39845 0.19795 0.0
C583 C 0.78818 0.4411 0.18346 0.0
C584 C 0.36012 0.78512 0.51435 0.0
C585 C 0.36633 0.79234 0.48956 0.0
C586 C 0.4024 0.78483 0.52845 0.0
C587 C 0.4514 0.78962 0.51819 0.0
H588 H 0.32436 0.78383 0.5231 0.0
H589 H 0.39786 0.78327 0.54761 0.0
S590 S 0.4854 0.80428 0.45393 0.0
N591 N 0.42395 0.80147 0.45527 0.0
N592 N 0.50183 0.79818 0.48161 0.0
C593 C 0.45617 0.79288 0.49331 0.0
C594 C 0.41405 0.79494 0.47904 0.0
C595 C 0.60383 0.45887 0.84734 0.0
C596 C 0.65298 0.45776 0.85353 0.0
C597 C 0.56131 0.41644 0.8336 0.0
C598 C 0.56487 0.3698 0.82552 0.0
H599 H 0.59816 0.49351 0.85289 0.0
H600 H 0.52475 0.42016 0.82949 0.0
S601 S 0.68411 0.34535 0.83678 0.0
N602 N 0.70286 0.40567 0.85033 0.0
N603 N 0.6217 0.32467 0.82484 0.0
C604 C 0.61335 0.36733 0.8317 0.0
C605 C 0.65767 0.4116 0.84549 0.0
C606 C 0.1884 0.36336 0.99409 0.0
C607 C 0.21101 0.41572 0.98274 0.0
C608 C 0.19082 0.35974 0.01889 0.0
C609 C 0.21592 0.40832 0.03316 0.0
H610 H 0.17065 0.3251 0.98363 0.0
H611 H 0.17214 0.31857 0.02702 0.0
S612 S 0.28025 0.55524 0.01205 0.0
N613 N 0.2596 0.51705 0.98747 0.0
N614 N 0.26205 0.51016 0.03425 0.0
C615 C 0.23812 0.46083 0.02204 0.0
C616 C 0.23601 0.46453 0.99679 0.0
C617 C 0.77876 0.22563 0.32885 0.0
C618 C 0.79981 0.19752 0.31507 0.0
C619 C 0.78507 0.22925 0.35365 0.0
C620 C 0.81373 0.20593 0.3654 0.0
H621 H 0.75888 0.24654 0.32028 0.0
H622 H 0.76658 0.24955 0.36375 0.0
S623 S 0.87788 0.12935 0.33738 0.0
N624 N 0.85111 0.14687 0.31487 0.0
N625 N 0.86303 0.15365 0.36157 0.0
C626 C 0.835 0.17782 0.35184 0.0
C627 C 0.82797 0.17355 0.32665 0.0
C628 C 0.66421 0.83477 0.66007 0.0
C629 C 0.6152 0.80349 0.64642 0.0
C630 C 0.66144 0.83927 0.68486 0.0
C631 C 0.60949 0.81327 0.6967 0.0
H632 H 0.7048 0.85695 0.65143 0.0
H633 H 0.70017 0.8616 0.69493 0.0
S634 S 0.46929 0.7266 0.66909 0.0
N635 N 0.51348 0.74669 0.64648 0.0
N636 N 0.50833 0.75414 0.6931 0.0
C637 C 0.56037 0.78189 0.68323 0.0
C638 C 0.56321 0.77714 0.6581 0.0
C639 C 0.78746 0.55779 0.99122 0.0
C640 C 0.8184 0.60997 0.97981 0.0
C641 C 0.78199 0.55446 0.01608 0.0
C642 C 0.80607 0.60327 0.03022 0.0
H643 H 0.76643 0.51946 0.98081 0.0
H644 H 0.75996 0.51344 0.02437 0.0
S645 S 0.89144 0.74971 0.00894 0.0
N646 N 0.87409 0.71121 0.98447 0.0
N647 N 0.86252 0.70498 0.03113 0.0
C648 C 0.83661 0.65557 0.01898 0.0
C649 C 0.84319 0.65889 0.9938 0.0
C650 C 0.1923 0.83736 0.35196 0.0
C651 C 0.21352 0.80787 0.3646 0.0
C652 C 0.1965 0.84187 0.32712 0.0
C653 C 0.22206 0.81704 0.31406 0.0
H654 H 0.17331 0.85804 0.36143 0.0
H655 H 0.17791 0.86329 0.31795 0.0
S656 S 0.2851 0.73621 0.33878 0.0
N657 N 0.26261 0.75512 0.36237 0.0
N658 N 0.26855 0.76172 0.31552 0.0
C659 C 0.24373 0.78778 0.32649 0.0
C660 C 0.23973 0.78346 0.3518 0.0
C661 C 0.46066 0.23215 0.68776 0.0
C662 C 0.40867 0.20167 0.69937 0.0
C663 C 0.46349 0.23809 0.66292 0.0
C664 C 0.4144 0.21495 0.64897 0.0
H665 H 0.49926 0.25251 0.698 0.0
H666 H 0.50438 0.25955 0.65448 0.0
S667 S 0.26823 0.13118 0.67082 0.0
N668 N 0.30722 0.14759 0.69511 0.0
N669 N 0.31257 0.15987 0.64848 0.0
C670 C 0.36228 0.18494 0.66041 0.0
C671 C 0.35943 0.17788 0.68559 0.0
C672 C 0.02066 0.27966 0.20247 0.0
C673 C 0.96592 0.24711 0.19283 0.0
C674 C 0.06903 0.29853 0.18836 0.0
C675 C 0.06442 0.28545 0.16407 0.0
H676 H 0.02611 0.29555 0.22051 0.0
H677 H 0.10923 0.32938 0.19579 0.0
S678 S 0.93273 0.18863 0.13183 0.0
N679 N 0.91133 0.193 0.15878 0.0
N680 N 1.002 0.22755 0.13233 0.0
C681 C 1.01075 0.24543 0.1553 0.0
C682 C 0.96143 0.22658 0.16963 0.0
C683 C 0.75784 0.01107 0.53093 0.0
C684 C 0.72853 0.95693 0.52049 0.0
C685 C 0.78266 0.06005 0.51698 0.0
C686 C 0.77909 0.05638 0.49212 0.0
H687 H 0.75583 0.01576 0.54998 0.0
H688 H 0.79804 0.10033 0.5257 0.0
S689 S 0.72056 0.92546 0.45619 0.0
N690 N 0.70753 0.90315 0.48396 0.0
N691 N 0.75488 0.99482 0.45769 0.0
C692 C 0.75789 1.00274 0.48162 0.0
C693 C 0.73241 0.95295 0.49583 0.0
C694 C 0.74977 0.73684 0.81065 0.0
C695 C 0.72661 0.76859 0.82018 0.0
C696 C 0.77826 0.71724 0.82502 0.0
C697 C 0.78472 0.72884 0.84947 0.0
H698 H 0.7407 0.72197 0.79244 0.0
H699 H 0.7884 0.68699 0.81758 0.0
S700 S 0.74691 0.82342 0.8817 0.0
N701 N 0.72319 0.82054 0.85443 0.0
N702 N 0.77753 0.78475 0.88139 0.0
C703 C 0.7702 0.7682 0.85825 0.0
C704 C 0.74076 0.78776 0.84365 0.0
C705 C 1.00893 0.75554 0.19314 0.0
C706 C 0.06372 0.7742 0.18424 0.0
C707 C 0.96101 0.72799 0.1785 0.0
C708 C 0.96632 0.71876 0.15436 0.0
H709 H 1.00249 0.75604 0.21213 0.0
H710 H 0.91985 0.70835 0.1867 0.0
S711 S 0.10035 0.77428 0.12095 0.0
N712 N 0.12037 0.79211 0.14883 0.0
N713 N 0.03098 0.74221 0.12113 0.0
C714 C 0.0211 0.74542 0.1446 0.0
C715 C 0.06975 0.77297 0.15956 0.0
C716 C 0.29993 0.06005 0.49907 0.0
C717 C 0.30363 0.05559 0.52376 0.0
C718 C 0.27498 0.01161 0.48465 0.0
C719 C 0.25301 0.95713 0.49438 0.0
H720 H 0.3222 0.10083 0.49061 0.0
H721 H 0.27877 0.0172 0.46554 0.0
S722 S 0.23974 0.92297 0.55846 0.0
N723 N 0.2728 0.99234 0.55768 0.0
N724 N 0.2271 0.90184 0.53048 0.0
C725 C 0.24908 0.95207 0.51916 0.0
C726 C 0.27426 1.00129 0.53387 0.0
C727 C 0.23787 0.28405 0.83585 0.0
C728 C 0.25385 0.295 0.85982 0.0
C729 C 0.2576 0.2557 0.82137 0.0
C730 C 0.29462 0.23809 0.83025 0.0
H731 H 0.21573 0.30299 0.82758 0.0
H732 H 0.24971 0.25406 0.80243 0.0
S733 S 0.33477 0.24219 0.89333 0.0
N734 N 0.29706 0.27383 0.89305 0.0
N735 N 0.33557 0.22272 0.8656 0.0
C736 C 0.30319 0.24085 0.85487 0.0
C737 C 0.28265 0.2691 0.86969 0.0
loop_
_geom_bond_atom_site_label_1
_geom_bond_atom_site_label_2
_geom_bond_distance
_geom_bond_site_symmetry_2
_ccdc_geom_bond_type
Co0 O3 1.970 . S
Co0 N17 1.989 . S
Co0 O25 1.967 . S
Co0 O32 1.920 . S
Co1 O4 1.966 . S
Co1 N10 2.022 . S
Co1 N18 1.993 . S
Co1 O26 1.941 . S
C2 O3 1.258 . S
C2 O4 1.263 . S
O3 Co0 1.970 . S
O3 C2 1.258 . S
O4 Co1 1.966 . S
O4 C2 1.263 . S
C5 O6 1.235 . S
C5 O32 1.289 . S
O6 C5 1.235 . S
C7 C9 1.400 . S
C7 N10 1.351 . S
C7 C12 1.501 . S
C8 C9 1.387 . S
C8 N11 1.341 . S
C9 C7 1.400 . S
C9 C8 1.387 . S
N10 Co1 2.022 . S
N10 C7 1.351 . S
N10 N11 1.365 . S
N11 C8 1.341 . S
N11 N10 1.365 . S
N11 H31 0.862 . S
C12 C7 1.501 . S
C12 H13 0.961 . S
C12 H14 0.961 . S
C12 H15 0.960 . S
H13 C12 0.961 . S
H14 C12 0.961 . S
H15 C12 0.960 . S
C16 N17 1.342 . S
C16 C20 1.401 . S
C16 C21 1.499 . S
N17 Co0 1.989 . S
N17 C16 1.342 . S
N17 N18 1.388 . S
N18 Co1 1.993 . S
N18 N17 1.388 . S
N18 C19 1.346 . S
C19 N18 1.346 . S
C19 C20 1.396 . S
C19 C29 1.510 . S
C20 C16 1.401 . S
C20 C19 1.396 . S
C21 C16 1.499 . S
C21 H22 0.959 . S
C21 H23 0.960 . S
C21 H24 0.961 . S
H22 C21 0.959 . S
H23 C21 0.960 . S
H24 C21 0.961 . S
O25 Co0 1.967 . S
O25 C33 1.258 . S
O26 Co1 1.941 . S
O26 C33 1.266 . S
H27 C29 0.959 . S
H28 C29 0.961 . S
C29 C19 1.510 . S
C29 H27 0.959 . S
C29 H28 0.961 . S
C29 H30 0.960 . S
H30 C29 0.960 . S
H31 N11 0.862 . S
O32 Co0 1.920 . S
O32 C5 1.289 . S
C33 O25 1.258 . S
C33 O26 1.266 . S
Co34 O37 1.970 . S
Co34 N51 1.989 . S
Co34 O59 1.967 . S
Co34 O66 1.920 . S
Co35 O38 1.966 . S
Co35 N44 2.022 . S
Co35 N52 1.993 . S
Co35 O60 1.941 . S
C36 O37 1.258 . S
C36 O38 1.263 . S
O37 Co34 1.970 . S
O37 C36 1.258 . S
O38 Co35 1.966 . S
O38 C36 1.263 . S
C39 O40 1.235 . S
C39 O66 1.289 . S
O40 C39 1.235 . S
C41 C43 1.400 . S
C41 N44 1.351 . S
C41 C46 1.501 . S
C42 C43 1.387 . S
C42 N45 1.341 . S
C43 C41 1.400 . S
C43 C42 1.387 . S
N44 Co35 2.022 . S
N44 C41 1.351 . S
N44 N45 1.365 . S
N45 C42 1.341 . S
N45 N44 1.365 . S
N45 H65 0.862 . S
C46 C41 1.501 . S
C46 H47 0.961 . S
C46 H48 0.961 . S
C46 H49 0.960 . S
H47 C46 0.961 . S
H48 C46 0.961 . S
H49 C46 0.960 . S
C50 N51 1.342 . S
C50 C54 1.401 . S
C50 C55 1.499 . S
N51 Co34 1.989 . S
N51 C50 1.342 . S
N51 N52 1.388 . S
N52 Co35 1.993 . S
N52 N51 1.388 . S
N52 C53 1.346 . S
C53 N52 1.346 . S
C53 C54 1.396 . S
C53 C63 1.510 . S
C54 C50 1.401 . S
C54 C53 1.396 . S
C55 C50 1.499 . S
C55 H56 0.959 . S
C55 H57 0.960 . S
C55 H58 0.961 . S
H56 C55 0.959 . S
H57 C55 0.960 . S
H58 C55 0.961 . S
O59 Co34 1.967 . S
O59 C67 1.258 . S
O60 Co35 1.941 . S
O60 C67 1.266 . S
H61 C63 0.959 . S
H62 C63 0.961 . S
C63 C53 1.510 . S
C63 H61 0.959 . S
C63 H62 0.961 . S
C63 H64 0.960 . S
H64 C63 0.960 . S
H65 N45 0.862 . S
O66 Co34 1.920 . S
O66 C39 1.289 . S
C67 O59 1.258 . S
C67 O60 1.266 . S
Co68 O71 1.970 . S
Co68 N85 1.989 . S
Co68 O93 1.967 . S
Co68 O100 1.920 . S
Co69 O72 1.966 . S
Co69 N78 2.022 . S
Co69 N86 1.993 . S
Co69 O94 1.941 . S
C70 O71 1.258 . S
C70 O72 1.263 . S
O71 Co68 1.970 . S
O71 C70 1.258 . S
O72 Co69 1.966 . S
O72 C70 1.263 . S
C73 O74 1.235 . S
C73 O100 1.289 . S
O74 C73 1.235 . S
C75 C77 1.400 . S
C75 N78 1.351 . S
C75 C80 1.501 . S
C76 C77 1.387 . S
C76 N79 1.341 . S
C77 C75 1.400 . S
C77 C76 1.387 . S
N78 Co69 2.022 . S
N78 C75 1.351 . S
N78 N79 1.365 . S
N79 C76 1.341 . S
N79 N78 1.365 . S
N79 H99 0.862 . S
C80 C75 1.501 . S
C80 H81 0.961 . S
C80 H82 0.961 . S
C80 H83 0.960 . S
H81 C80 0.961 . S
H82 C80 0.961 . S
H83 C80 0.960 . S
C84 N85 1.342 . S
C84 C88 1.401 . S
C84 C89 1.499 . S
N85 Co68 1.989 . S
N85 C84 1.342 . S
N85 N86 1.388 . S
N86 Co69 1.993 . S
N86 N85 1.388 . S
N86 C87 1.346 . S
C87 N86 1.346 . S
C87 C88 1.396 . S
C87 C97 1.510 . S
C88 C84 1.401 . S
C88 C87 1.396 . S
C89 C84 1.499 . S
C89 H90 0.959 . S
C89 H91 0.960 . S
C89 H92 0.961 . S
H90 C89 0.959 . S
H91 C89 0.960 . S
H92 C89 0.961 . S
O93 Co68 1.967 . S
O93 C101 1.258 . S
O94 Co69 1.941 . S
O94 C101 1.266 . S
H95 C97 0.959 . S
H96 C97 0.961 . S
C97 C87 1.510 . S
C97 H95 0.959 . S
C97 H96 0.961 . S
C97 H98 0.960 . S
H98 C97 0.960 . S
H99 N79 0.862 . S
O100 Co68 1.920 . S
O100 C73 1.289 . S
C101 O93 1.258 . S
C101 O94 1.266 . S
Co102 O105 1.970 . S
Co102 N119 1.989 . S
Co102 O127 1.967 . S
Co102 O134 1.920 . S
Co103 O106 1.966 . S
Co103 N112 2.022 . S
Co103 N120 1.993 . S
Co103 O128 1.941 . S
C104 O105 1.258 . S
C104 O106 1.263 . S
O105 Co102 1.970 . S
O105 C104 1.258 . S
O106 Co103 1.966 . S
O106 C104 1.263 . S
C107 O108 1.235 . S
C107 O134 1.289 . S
O108 C107 1.235 . S
C109 C111 1.400 . S
C109 N112 1.351 . S
C109 C114 1.501 . S
C110 C111 1.387 . S
C110 N113 1.341 . S
C111 C109 1.400 . S
C111 C110 1.387 . S
N112 Co103 2.022 . S
N112 C109 1.351 . S
N112 N113 1.365 . S
N113 C110 1.341 . S
N113 N112 1.365 . S
N113 H133 0.862 . S
C114 C109 1.501 . S
C114 H115 0.961 . S
C114 H116 0.961 . S
C114 H117 0.960 . S
H115 C114 0.961 . S
H116 C114 0.961 . S
H117 C114 0.960 . S
C118 N119 1.342 . S
C118 C122 1.401 . S
C118 C123 1.499 . S
N119 Co102 1.989 . S
N119 C118 1.342 . S
N119 N120 1.388 . S
N120 Co103 1.993 . S
N120 N119 1.388 . S
N120 C121 1.346 . S
C121 N120 1.346 . S
C121 C122 1.396 . S
C121 C131 1.510 . S
C122 C118 1.401 . S
C122 C121 1.396 . S
C123 C118 1.499 . S
C123 H124 0.959 . S
C123 H125 0.960 . S
C123 H126 0.961 . S
H124 C123 0.959 . S
H125 C123 0.960 . S
H126 C123 0.961 . S
O127 Co102 1.967 . S
O127 C135 1.258 . S
O128 Co103 1.941 . S
O128 C135 1.266 . S
H129 C131 0.959 . S
H130 C131 0.961 . S
C131 C121 1.510 . S
C131 H129 0.959 . S
C131 H130 0.961 . S
C131 H132 0.960 . S
H132 C131 0.960 . S
H133 N113 0.862 . S
O134 Co102 1.920 . S
O134 C107 1.289 . S
C135 O127 1.258 . S
C135 O128 1.266 . S
Co136 O139 1.970 . S
Co136 N153 1.989 . S
Co136 O161 1.967 . S
Co136 O168 1.920 . S
Co137 O140 1.966 . S
Co137 N146 2.022 . S
Co137 N154 1.993 . S
Co137 O162 1.941 . S
C138 O139 1.258 . S
C138 O140 1.263 . S
O139 Co136 1.970 . S
O139 C138 1.258 . S
O140 Co137 1.966 . S
O140 C138 1.263 . S
C141 O142 1.235 . S
C141 O168 1.289 . S
O142 C141 1.235 . S
C143 C145 1.400 . S
C143 N146 1.351 . S
C143 C148 1.501 . S
C144 C145 1.387 . S
C144 N147 1.341 . S
C145 C143 1.400 . S
C145 C144 1.387 . S
N146 Co137 2.022 . S
N146 C143 1.351 . S
N146 N147 1.365 . S
N147 C144 1.341 . S
N147 N146 1.365 . S
N147 H167 0.862 . S
C148 C143 1.501 . S
C148 H149 0.961 . S
C148 H150 0.961 . S
C148 H151 0.960 . S
H149 C148 0.961 . S
H150 C148 0.961 . S
H151 C148 0.960 . S
C152 N153 1.342 . S
C152 C156 1.401 . S
C152 C157 1.499 . S
N153 Co136 1.989 . S
N153 C152 1.342 . S
N153 N154 1.388 . S
N154 Co137 1.993 . S
N154 N153 1.388 . S
N154 C155 1.346 . S
C155 N154 1.346 . S
C155 C156 1.396 . S
C155 C165 1.510 . S
C156 C152 1.401 . S
C156 C155 1.396 . S
C157 C152 1.499 . S
C157 H158 0.959 . S
C157 H159 0.960 . S
C157 H160 0.961 . S
H158 C157 0.959 . S
H159 C157 0.960 . S
H160 C157 0.961 . S
O161 Co136 1.967 . S
O161 C169 1.258 . S
O162 Co137 1.941 . S
O162 C169 1.266 . S
H163 C165 0.959 . S
H164 C165 0.961 . S
C165 C155 1.510 . S
C165 H163 0.959 . S
C165 H164 0.961 . S
C165 H166 0.960 . S
H166 C165 0.960 . S
H167 N147 0.862 . S
O168 Co136 1.920 . S
O168 C141 1.289 . S
C169 O161 1.258 . S
C169 O162 1.266 . S
Co170 O173 1.970 . S
Co170 N187 1.989 . S
Co170 O195 1.967 . S
Co170 O202 1.920 . S
Co171 O174 1.966 . S
Co171 N180 2.022 . S
Co171 N188 1.993 . S
Co171 O196 1.941 . S
C172 O173 1.258 . S
C172 O174 1.263 . S
O173 Co170 1.970 . S
O173 C172 1.258 . S
O174 Co171 1.966 . S
O174 C172 1.263 . S
C175 O176 1.235 . S
C175 O202 1.289 . S
O176 C175 1.235 . S
C177 C179 1.400 . S
C177 N180 1.351 . S
C177 C182 1.501 . S
C178 C179 1.387 . S
C178 N181 1.341 . S
C179 C177 1.400 . S
C179 C178 1.387 . S
N180 Co171 2.022 . S
N180 C177 1.351 . S
N180 N181 1.365 . S
N181 C178 1.341 . S
N181 N180 1.365 . S
N181 H201 0.862 . S
C182 C177 1.501 . S
C182 H183 0.961 . S
C182 H184 0.961 . S
C182 H185 0.960 . S
H183 C182 0.961 . S
H184 C182 0.961 . S
H185 C182 0.960 . S
C186 N187 1.342 . S
C186 C190 1.401 . S
C186 C191 1.499 . S
N187 Co170 1.989 . S
N187 C186 1.342 . S
N187 N188 1.388 . S
N188 Co171 1.993 . S
N188 N187 1.388 . S
N188 C189 1.346 . S
C189 N188 1.346 . S
C189 C190 1.396 . S
C189 C199 1.510 . S
C190 C186 1.401 . S
C190 C189 1.396 . S
C191 C186 1.499 . S
C191 H192 0.959 . S
C191 H193 0.960 . S
C191 H194 0.961 . S
H192 C191 0.959 . S
H193 C191 0.960 . S
H194 C191 0.961 . S
O195 Co170 1.967 . S
O195 C203 1.258 . S
O196 Co171 1.941 . S
O196 C203 1.266 . S
H197 C199 0.959 . S
H198 C199 0.961 . S
C199 C189 1.510 . S
C199 H197 0.959 . S
C199 H198 0.961 . S
C199 H200 0.960 . S
H200 C199 0.960 . S
H201 N181 0.862 . S
O202 Co170 1.920 . S
O202 C175 1.289 . S
C203 O195 1.258 . S
C203 O196 1.266 . S
Co204 O207 1.970 . S
Co204 N221 1.989 . S
Co204 O229 1.967 . S
Co204 O236 1.920 . S
Co205 O208 1.966 . S
Co205 N214 2.022 . S
Co205 N222 1.993 . S
Co205 O230 1.941 . S
C206 O207 1.258 . S
C206 O208 1.263 . S
O207 Co204 1.970 . S
O207 C206 1.258 . S
O208 Co205 1.966 . S
O208 C206 1.263 . S
C209 O210 1.235 . S
C209 O236 1.289 . S
O210 C209 1.235 . S
C211 C213 1.400 . S
C211 N214 1.351 . S
C211 C216 1.501 . S
C212 C213 1.387 . S
C212 N215 1.341 . S
C213 C211 1.400 . S
C213 C212 1.387 . S
N214 Co205 2.022 . S
N214 C211 1.351 . S
N214 N215 1.365 . S
N215 C212 1.341 . S
N215 N214 1.365 . S
N215 H235 0.862 . S
C216 C211 1.501 . S
C216 H217 0.961 . S
C216 H218 0.961 . S
C216 H219 0.960 . S
H217 C216 0.961 . S
H218 C216 0.961 . S
H219 C216 0.960 . S
C220 N221 1.342 . S
C220 C224 1.401 . S
C220 C225 1.499 . S
N221 Co204 1.989 . S
N221 C220 1.342 . S
N221 N222 1.388 . S
N222 Co205 1.993 . S
N222 N221 1.388 . S
N222 C223 1.346 . S
C223 N222 1.346 . S
C223 C224 1.396 . S
C223 C233 1.510 . S
C224 C220 1.401 . S
C224 C223 1.396 . S
C225 C220 1.499 . S
C225 H226 0.959 . S
C225 H227 0.960 . S
C225 H228 0.961 . S
H226 C225 0.959 . S
H227 C225 0.960 . S
H228 C225 0.961 . S
O229 Co204 1.967 . S
O229 C237 1.258 . S
O230 Co205 1.941 . S
O230 C237 1.266 . S
H231 C233 0.959 . S
H232 C233 0.961 . S
C233 C223 1.510 . S
C233 H231 0.959 . S
C233 H232 0.961 . S
C233 H234 0.960 . S
H234 C233 0.960 . S
H235 N215 0.862 . S
O236 Co204 1.920 . S
O236 C209 1.289 . S
C237 O229 1.258 . S
C237 O230 1.266 . S
Co238 O241 1.970 . S
Co238 N255 1.989 . S
Co238 O263 1.967 . S
Co238 O270 1.920 . S
Co239 O242 1.966 . S
Co239 N248 2.022 . S
Co239 N256 1.993 . S
Co239 O264 1.941 . S
C240 O241 1.258 . S
C240 O242 1.263 . S
O241 Co238 1.970 . S
O241 C240 1.258 . S
O242 Co239 1.966 . S
O242 C240 1.263 . S
C243 O244 1.235 . S
C243 O270 1.289 . S
O244 C243 1.235 . S
C245 C247 1.400 . S
C245 N248 1.351 . S
C245 C250 1.501 . S
C246 C247 1.387 . S
C246 N249 1.341 . S
C247 C245 1.400 . S
C247 C246 1.387 . S
N248 Co239 2.022 . S
N248 C245 1.351 . S
N248 N249 1.365 . S
N249 C246 1.341 . S
N249 N248 1.365 . S
N249 H269 0.862 . S
C250 C245 1.501 . S
C250 H251 0.961 . S
C250 H252 0.961 . S
C250 H253 0.960 . S
H251 C250 0.961 . S
H252 C250 0.961 . S
H253 C250 0.960 . S
C254 N255 1.342 . S
C254 C258 1.401 . S
C254 C259 1.499 . S
N255 Co238 1.989 . S
N255 C254 1.342 . S
N255 N256 1.388 . S
N256 Co239 1.993 . S
N256 N255 1.388 . S
N256 C257 1.346 . S
C257 N256 1.346 . S
C257 C258 1.396 . S
C257 C267 1.510 . S
C258 C254 1.401 . S
C258 C257 1.396 . S
C259 C254 1.499 . S
C259 H260 0.959 . S
C259 H261 0.960 . S
C259 H262 0.961 . S
H260 C259 0.959 . S
H261 C259 0.960 . S
H262 C259 0.961 . S
O263 Co238 1.967 . S
O263 C271 1.258 . S
O264 Co239 1.941 . S
O264 C271 1.266 . S
H265 C267 0.959 . S
H266 C267 0.961 . S
C267 C257 1.510 . S
C267 H265 0.959 . S
C267 H266 0.961 . S
C267 H268 0.960 . S
H268 C267 0.960 . S
H269 N249 0.862 . S
O270 Co238 1.920 . S
O270 C243 1.289 . S
C271 O263 1.258 . S
C271 O264 1.266 . S
Co272 O275 1.970 . S
Co272 N289 1.989 . S
Co272 O297 1.967 . S
Co272 O304 1.920 . S
Co273 O276 1.966 . S
Co273 N282 2.022 . S
Co273 N290 1.993 . S
Co273 O298 1.941 . S
C274 O275 1.258 . S
C274 O276 1.263 . S
O275 Co272 1.970 . S
O275 C274 1.258 . S
O276 Co273 1.966 . S
O276 C274 1.263 . S
C277 O278 1.235 . S
C277 O304 1.289 . S
O278 C277 1.235 . S
C279 C281 1.400 . S
C279 N282 1.351 . S
C279 C284 1.501 . S
C280 C281 1.387 . S
C280 N283 1.341 . S
C281 C279 1.400 . S
C281 C280 1.387 . S
N282 Co273 2.022 . S
N282 C279 1.351 . S
N282 N283 1.365 . S
N283 C280 1.341 . S
N283 N282 1.365 . S
N283 H303 0.862 . S
C284 C279 1.501 . S
C284 H285 0.961 . S
C284 H286 0.961 . S
C284 H287 0.960 . S
H285 C284 0.961 . S
H286 C284 0.961 . S
H287 C284 0.960 . S
C288 N289 1.342 . S
C288 C292 1.401 . S
C288 C293 1.499 . S
N289 Co272 1.989 . S
N289 C288 1.342 . S
N289 N290 1.388 . S
N290 Co273 1.993 . S
N290 N289 1.388 . S
N290 C291 1.346 . S
C291 N290 1.346 . S
C291 C292 1.396 . S
C291 C301 1.510 . S
C292 C288 1.401 . S
C292 C291 1.396 . S
C293 C288 1.499 . S
C293 H294 0.959 . S
C293 H295 0.960 . S
C293 H296 0.961 . S
H294 C293 0.959 . S
H295 C293 0.960 . S
H296 C293 0.961 . S
O297 Co272 1.967 . S
O297 C305 1.258 . S
O298 Co273 1.941 . S
O298 C305 1.266 . S
H299 C301 0.959 . S
H300 C301 0.961 . S
C301 C291 1.510 . S
C301 H299 0.959 . S
C301 H300 0.961 . S
C301 H302 0.960 . S
H302 C301 0.960 . S
H303 N283 0.862 . S
O304 Co272 1.920 . S
O304 C277 1.289 . S
C305 O297 1.258 . S
C305 O298 1.266 . S
Co306 O309 1.970 . S
Co306 N323 1.989 . S
Co306 O331 1.967 . S
Co306 O338 1.920 . S
Co307 O310 1.966 . S
Co307 N316 2.022 . S
Co307 N324 1.993 . S
Co307 O332 1.941 . S
C308 O309 1.258 . S
C308 O310 1.263 . S
O309 Co306 1.970 . S
O309 C308 1.258 . S
O310 Co307 1.966 . S
O310 C308 1.263 . S
C311 O312 1.235 . S
C311 O338 1.289 . S
O312 C311 1.235 . S
C313 C315 1.400 . S
C313 N316 1.351 . S
C313 C318 1.501 . S
C314 C315 1.387 . S
C314 N317 1.341 . S
C315 C313 1.400 . S
C315 C314 1.387 . S
N316 Co307 2.022 . S
N316 C313 1.351 . S
N316 N317 1.365 . S
N317 C314 1.341 . S
N317 N316 1.365 . S
N317 H337 0.862 . S
C318 C313 1.501 . S
C318 H319 0.961 . S
C318 H320 0.961 . S
C318 H321 0.960 . S
H319 C318 0.961 . S
H320 C318 0.961 . S
H321 C318 0.960 . S
C322 N323 1.342 . S
C322 C326 1.401 . S
C322 C327 1.499 . S
N323 Co306 1.989 . S
N323 C322 1.342 . S
N323 N324 1.388 . S
N324 Co307 1.993 . S
N324 N323 1.388 . S
N324 C325 1.346 . S
C325 N324 1.346 . S
C325 C326 1.396 . S
C325 C335 1.510 . S
C326 C322 1.401 . S
C326 C325 1.396 . S
C327 C322 1.499 . S
C327 H328 0.959 . S
C327 H329 0.960 . S
C327 H330 0.961 . S
H328 C327 0.959 . S
H329 C327 0.960 . S
H330 C327 0.961 . S
O331 Co306 1.967 . S
O331 C339 1.258 . S
O332 Co307 1.941 . S
O332 C339 1.266 . S
H333 C335 0.959 . S
H334 C335 0.961 . S
C335 C325 1.510 . S
C335 H333 0.959 . S
C335 H334 0.961 . S
C335 H336 0.960 . S
H336 C335 0.960 . S
H337 N317 0.862 . S
O338 Co306 1.920 . S
O338 C311 1.289 . S
C339 O331 1.258 . S
C339 O332 1.266 . S
Co340 O343 1.970 . S
Co340 N357 1.989 . S
Co340 O365 1.967 . S
Co340 O372 1.920 . S
Co341 O344 1.966 . S
Co341 N350 2.022 . S
Co341 N358 1.993 . S
Co341 O366 1.941 . S
C342 O343 1.258 . S
C342 O344 1.263 . S
O343 Co340 1.970 . S
O343 C342 1.258 . S
O344 Co341 1.966 . S
O344 C342 1.263 . S
C345 O346 1.235 . S
C345 O372 1.289 . S
O346 C345 1.235 . S
C347 C349 1.400 . S
C347 N350 1.351 . S
C347 C352 1.501 . S
C348 C349 1.387 . S
C348 N351 1.341 . S
C349 C347 1.400 . S
C349 C348 1.387 . S
N350 Co341 2.022 . S
N350 C347 1.351 . S
N350 N351 1.365 . S
N351 C348 1.341 . S
N351 N350 1.365 . S
N351 H371 0.862 . S
C352 C347 1.501 . S
C352 H353 0.961 . S
C352 H354 0.961 . S
C352 H355 0.960 . S
H353 C352 0.961 . S
H354 C352 0.961 . S
H355 C352 0.960 . S
C356 N357 1.342 . S
C356 C360 1.401 . S
C356 C361 1.499 . S
N357 Co340 1.989 . S
N357 C356 1.342 . S
N357 N358 1.388 . S
N358 Co341 1.993 . S
N358 N357 1.388 . S
N358 C359 1.346 . S
C359 N358 1.346 . S
C359 C360 1.396 . S
C359 C369 1.510 . S
C360 C356 1.401 . S
C360 C359 1.396 . S
C361 C356 1.499 . S
C361 H362 0.959 . S
C361 H363 0.960 . S
C361 H364 0.961 . S
H362 C361 0.959 . S
H363 C361 0.960 . S
H364 C361 0.961 . S
O365 Co340 1.967 . S
O365 C373 1.258 . S
O366 Co341 1.941 . S
O366 C373 1.266 . S
H367 C369 0.959 . S
H368 C369 0.961 . S
C369 C359 1.510 . S
C369 H367 0.959 . S
C369 H368 0.961 . S
C369 H370 0.960 . S
H370 C369 0.960 . S
H371 N351 0.862 . S
O372 Co340 1.920 . S
O372 C345 1.289 . S
C373 O365 1.258 . S
C373 O366 1.266 . S
Co374 O377 1.970 . S
Co374 N391 1.989 . S
Co374 O399 1.967 . S
Co374 O406 1.920 . S
Co375 O378 1.966 . S
Co375 N384 2.022 . S
Co375 N392 1.993 . S
Co375 O400 1.941 . S
C376 O377 1.258 . S
C376 O378 1.263 . S
O377 Co374 1.970 . S
O377 C376 1.258 . S
O378 Co375 1.966 . S
O378 C376 1.263 . S
C379 O380 1.235 . S
C379 O406 1.289 . S
O380 C379 1.235 . S
C381 C383 1.400 . S
C381 N384 1.351 . S
C381 C386 1.501 . S
C382 C383 1.387 . S
C382 N385 1.341 . S
C383 C381 1.400 . S
C383 C382 1.387 . S
N384 Co375 2.022 . S
N384 C381 1.351 . S
N384 N385 1.365 . S
N385 C382 1.341 . S
N385 N384 1.365 . S
N385 H405 0.862 . S
C386 C381 1.501 . S
C386 H387 0.961 . S
C386 H388 0.961 . S
C386 H389 0.960 . S
H387 C386 0.961 . S
H388 C386 0.961 . S
H389 C386 0.960 . S
C390 N391 1.342 . S
C390 C394 1.401 . S
C390 C395 1.499 . S
N391 Co374 1.989 . S
N391 C390 1.342 . S
N391 N392 1.388 . S
N392 Co375 1.993 . S
N392 N391 1.388 . S
N392 C393 1.346 . S
C393 N392 1.346 . S
C393 C394 1.396 . S
C393 C403 1.510 . S
C394 C390 1.401 . S
C394 C393 1.396 . S
C395 C390 1.499 . S
C395 H396 0.959 . S
C395 H397 0.960 . S
C395 H398 0.961 . S
H396 C395 0.959 . S
H397 C395 0.960 . S
H398 C395 0.961 . S
O399 Co374 1.967 . S
O399 C407 1.258 . S
O400 Co375 1.941 . S
O400 C407 1.266 . S
H401 C403 0.959 . S
H402 C403 0.961 . S
C403 C393 1.510 . S
C403 H401 0.959 . S
C403 H402 0.961 . S
C403 H404 0.960 . S
H404 C403 0.960 . S
H405 N385 0.862 . S
O406 Co374 1.920 . S
O406 C379 1.289 . S
C407 O399 1.258 . S
C407 O400 1.266 . S
C408 C409 1.369 . S
C408 C410 1.419 . S
C408 H412 0.930 . S
C409 C408 1.369 . S
C409 C418 1.429 . S
C410 C408 1.419 . S
C410 C411 1.363 . S
C410 H413 0.929 . S
C411 C410 1.363 . S
C411 C417 1.428 . S
H412 C408 0.930 . S
H413 C410 0.929 . S
S414 N415 1.613 . S
S414 N416 1.610 . S
N415 S414 1.613 . S
N415 C418 1.350 . S
N416 S414 1.610 . S
N416 C417 1.351 . S
C417 C411 1.428 . S
C417 N416 1.351 . S
C417 C418 1.434 . S
C418 C409 1.429 . S
C418 N415 1.350 . S
C418 C417 1.434 . S
C419 C420 1.369 1_655 S
C419 C421 1.419 . S
C419 H423 0.930 . S
C420 C419 1.369 1_455 S
C420 C429 1.429 . S
C421 C419 1.419 . S
C421 C422 1.363 . S
C421 H424 0.929 . S
C422 C421 1.363 . S
C422 C428 1.428 1_655 S
H423 C419 0.930 . S
H424 C421 0.929 . S
S425 N426 1.613 . S
S425 N427 1.610 . S
N426 S425 1.613 . S
N426 C429 1.350 . S
N427 S425 1.610 . S
N427 C428 1.351 . S
C428 C422 1.428 1_455 S
C428 N427 1.351 . S
C428 C429 1.434 . S
C429 C420 1.429 . S
C429 N426 1.350 . S
C429 C428 1.434 . S
C430 C431 1.369 1_565 S
C430 C432 1.419 . S
C430 H434 0.930 . S
C431 C430 1.369 1_545 S
C431 C440 1.429 . S
C432 C430 1.419 . S
C432 C433 1.363 . S
C432 H435 0.929 . S
C433 C432 1.363 . S
C433 C439 1.428 1_565 S
H434 C430 0.930 . S
H435 C432 0.929 . S
S436 N437 1.613 . S
S436 N438 1.610 . S
N437 S436 1.613 . S
N437 C440 1.350 . S
N438 S436 1.610 . S
N438 C439 1.351 . S
C439 C433 1.428 1_545 S
C439 N438 1.351 . S
C439 C440 1.434 . S
C440 C431 1.429 . S
C440 N437 1.350 . S
C440 C439 1.434 . S
C441 C442 1.369 . S
C441 C443 1.419 . S
C441 H445 0.930 . S
C442 C441 1.369 . S
C442 C451 1.429 . S
C443 C441 1.419 . S
C443 C444 1.363 . S
C443 H446 0.929 . S
C444 C443 1.363 . S
C444 C450 1.428 . S
H445 C441 0.930 . S
H446 C443 0.929 . S
S447 N448 1.613 . S
S447 N449 1.610 . S
N448 S447 1.613 . S
N448 C451 1.350 . S
N449 S447 1.610 . S
N449 C450 1.351 . S
C450 C444 1.428 . S
C450 N449 1.351 . S
C450 C451 1.434 . S
C451 C442 1.429 . S
C451 N448 1.350 . S
C451 C450 1.434 . S
C452 C453 1.369 . S
C452 C454 1.419 . S
C452 H456 0.930 . S
C453 C452 1.369 . S
C453 C462 1.429 1_655 S
C454 C452 1.419 . S
C454 C455 1.363 1_655 S
C454 H457 0.929 . S
C455 C454 1.363 1_455 S
C455 C461 1.428 . S
H456 C452 0.930 . S
H457 C454 0.929 . S
S458 N459 1.613 . S
S458 N460 1.610 . S
N459 S458 1.613 . S
N459 C462 1.350 . S
N460 S458 1.610 . S
N460 C461 1.351 . S
C461 C455 1.428 . S
C461 N460 1.351 . S
C461 C462 1.434 . S
C462 C453 1.429 1_455 S
C462 N459 1.350 . S
C462 C461 1.434 . S
C463 C464 1.369 . S
C463 C465 1.419 . S
C463 H467 0.930 . S
C464 C463 1.369 . S
C464 C473 1.429 1_565 S
C465 C463 1.419 . S
C465 C466 1.363 1_565 S
C465 H468 0.929 . S
C466 C465 1.363 1_545 S
C466 C472 1.428 . S
H467 C463 0.930 . S
H468 C465 0.929 . S
S469 N470 1.613 . S
S469 N471 1.610 . S
N470 S469 1.613 . S
N470 C473 1.350 . S
N471 S469 1.610 . S
N471 C472 1.351 . S
C472 C466 1.428 . S
C472 N471 1.351 . S
C472 C473 1.434 . S
C473 C464 1.429 1_545 S
C473 N470 1.350 . S
C473 C472 1.434 . S
C474 C475 1.369 . S
C474 C476 1.419 . S
C474 H478 0.930 . S
C475 C474 1.369 . S
C475 C484 1.429 1_655 S
C476 C474 1.419 . S
C476 C477 1.363 1_655 S
C476 H479 0.929 . S
C477 C476 1.363 1_455 S
C477 C483 1.428 . S
H478 C474 0.930 . S
H479 C476 0.929 . S
S480 N481 1.613 . S
S480 N482 1.610 . S
N481 S480 1.613 . S
N481 C484 1.350 . S
N482 S480 1.610 . S
N482 C483 1.351 . S
C483 C477 1.428 . S
C483 N482 1.351 . S
C483 C484 1.434 . S
C484 C475 1.429 1_455 S
C484 N481 1.350 . S
C484 C483 1.434 . S
C485 C486 1.369 . S
C485 C487 1.419 1_545 S
C485 H489 0.930 . S
C486 C485 1.369 . S
C486 C495 1.429 . S
C487 C485 1.419 1_565 S
C487 C488 1.363 . S
C487 H490 0.929 . S
C488 C487 1.363 . S
C488 C494 1.428 . S
H489 C485 0.930 . S
H490 C487 0.929 . S
S491 N492 1.613 . S
S491 N493 1.610 1_545 S
N492 S491 1.613 . S
N492 C495 1.350 . S
N493 S491 1.610 1_565 S
N493 C494 1.351 . S
C494 C488 1.428 . S
C494 N493 1.351 . S
C494 C495 1.434 1_565 S
C495 C486 1.429 . S
C495 N492 1.350 . S
C495 C494 1.434 1_545 S
C496 C497 1.369 . S
C496 C498 1.419 . S
C496 H500 0.930 . S
C497 C496 1.369 . S
C497 C506 1.429 . S
C498 C496 1.419 . S
C498 C499 1.363 . S
C498 H501 0.929 . S
C499 C498 1.363 . S
C499 C505 1.428 . S
H500 C496 0.930 . S
H501 C498 0.929 . S
S502 N503 1.613 . S
S502 N504 1.610 . S
N503 S502 1.613 . S
N503 C506 1.350 . S
N504 S502 1.610 . S
N504 C505 1.351 . S
C505 C499 1.428 . S
C505 N504 1.351 . S
C505 C506 1.434 . S
C506 C497 1.429 . S
C506 N503 1.350 . S
C506 C505 1.434 . S
C507 C508 1.369 1_545 S
C507 C509 1.419 . S
C507 H511 0.930 . S
C508 C507 1.369 1_565 S
C508 C517 1.429 . S
C509 C507 1.419 . S
C509 C510 1.363 . S
C509 H512 0.929 . S
C510 C509 1.363 . S
C510 C516 1.428 1_545 S
H511 C507 0.930 . S
H512 C509 0.929 . S
S513 N514 1.613 . S
S513 N515 1.610 . S
N514 S513 1.613 . S
N514 C517 1.350 . S
N515 S513 1.610 . S
N515 C516 1.351 . S
C516 C510 1.428 1_565 S
C516 N515 1.351 . S
C516 C517 1.434 . S
C517 C508 1.429 . S
C517 N514 1.350 . S
C517 C516 1.434 . S
C518 C519 1.369 . S
C518 C520 1.419 . S
C518 H522 0.930 . S
C519 C518 1.369 . S
C519 C528 1.429 . S
C520 C518 1.419 . S
C520 C521 1.363 . S
C520 H523 0.929 . S
C521 C520 1.363 . S
C521 C527 1.428 . S
H522 C518 0.930 . S
H523 C520 0.929 . S
S524 N525 1.613 . S
S524 N526 1.610 . S
N525 S524 1.613 . S
N525 C528 1.350 . S
N526 S524 1.610 . S
N526 C527 1.351 . S
C527 C521 1.428 . S
C527 N526 1.351 . S
C527 C528 1.434 . S
C528 C519 1.429 . S
C528 N525 1.350 . S
C528 C527 1.434 . S
C529 C530 1.369 . S
C529 C531 1.419 . S
C529 H533 0.930 . S
C530 C529 1.369 . S
C530 C539 1.429 1_455 S
C531 C529 1.419 . S
C531 C532 1.363 1_455 S
C531 H534 0.929 . S
C532 C531 1.363 1_655 S
C532 C538 1.428 . S
H533 C529 0.930 . S
H534 C531 0.929 . S
S535 N536 1.613 . S
S535 N537 1.610 . S
N536 S535 1.613 . S
N536 C539 1.350 . S
N537 S535 1.610 . S
N537 C538 1.351 . S
C538 C532 1.428 . S
C538 N537 1.351 . S
C538 C539 1.434 . S
C539 C530 1.429 1_655 S
C539 N536 1.350 . S
C539 C538 1.434 . S
C540 C541 1.369 . S
C540 C542 1.419 . S
C540 H544 0.930 . S
C541 C540 1.369 . S
C541 C550 1.429 . S
C542 C540 1.419 . S
C542 C543 1.363 . S
C542 H545 0.929 . S
C543 C542 1.363 . S
C543 C549 1.428 . S
H544 C540 0.930 . S
H545 C542 0.929 . S
S546 N547 1.613 . S
S546 N548 1.610 . S
N547 S546 1.613 . S
N547 C550 1.350 . S
N548 S546 1.610 . S
N548 C549 1.351 . S
C549 C543 1.428 . S
C549 N548 1.351 . S
C549 C550 1.434 . S
C550 C541 1.429 . S
C550 N547 1.350 . S
C550 C549 1.434 . S
C551 C552 1.369 . S
C551 C553 1.419 . S
C551 H555 0.930 . S
C552 C551 1.369 . S
C552 C561 1.429 . S
C553 C551 1.419 . S
C553 C554 1.363 . S
C553 H556 0.929 . S
C554 C553 1.363 . S
C554 C560 1.428 . S
H555 C551 0.930 . S
H556 C553 0.929 . S
S557 N558 1.613 . S
S557 N559 1.610 . S
N558 S557 1.613 . S
N558 C561 1.350 . S
N559 S557 1.610 . S
N559 C560 1.351 . S
C560 C554 1.428 . S
C560 N559 1.351 . S
C560 C561 1.434 . S
C561 C552 1.429 . S
C561 N558 1.350 . S
C561 C560 1.434 . S
C562 C563 1.369 . S
C562 C564 1.419 . S
C562 H566 0.930 . S
C563 C562 1.369 . S
C563 C572 1.429 . S
C564 C562 1.419 . S
C564 C565 1.363 . S
C564 H567 0.929 . S
C565 C564 1.363 . S
C565 C571 1.428 . S
H566 C562 0.930 . S
H567 C564 0.929 . S
S568 N569 1.613 . S
S568 N570 1.610 . S
N569 S568 1.613 . S
N569 C572 1.350 . S
N570 S568 1.610 . S
N570 C571 1.351 . S
C571 C565 1.428 . S
C571 N570 1.351 . S
C571 C572 1.434 . S
C572 C563 1.429 . S
C572 N569 1.350 . S
C572 C571 1.434 . S
C573 C574 1.369 . S
C573 C575 1.419 . S
C573 H577 0.930 . S
C574 C573 1.369 . S
C574 C583 1.429 . S
C575 C573 1.419 . S
C575 C576 1.363 . S
C575 H578 0.929 . S
C576 C575 1.363 . S
C576 C582 1.428 . S
H577 C573 0.930 . S
H578 C575 0.929 . S
S579 N580 1.613 . S
S579 N581 1.610 . S
N580 S579 1.613 . S
N580 C583 1.350 . S
N581 S579 1.610 . S
N581 C582 1.351 . S
C582 C576 1.428 . S
C582 N581 1.351 . S
C582 C583 1.434 . S
C583 C574 1.429 . S
C583 N580 1.350 . S
C583 C582 1.434 . S
C584 C585 1.369 . S
C584 C586 1.419 . S
C584 H588 0.930 . S
C585 C584 1.369 . S
C585 C594 1.429 . S
C586 C584 1.419 . S
C586 C587 1.363 . S
C586 H589 0.929 . S
C587 C586 1.363 . S
C587 C593 1.428 . S
H588 C584 0.930 . S
H589 C586 0.929 . S
S590 N591 1.613 . S
S590 N592 1.610 . S
N591 S590 1.613 . S
N591 C594 1.350 . S
N592 S590 1.610 . S
N592 C593 1.351 . S
C593 C587 1.428 . S
C593 N592 1.351 . S
C593 C594 1.434 . S
C594 C585 1.429 . S
C594 N591 1.350 . S
C594 C593 1.434 . S
C595 C596 1.369 . S
C595 C597 1.419 . S
C595 H599 0.930 . S
C596 C595 1.369 . S
C596 C605 1.429 . S
C597 C595 1.419 . S
C597 C598 1.363 . S
C597 H600 0.929 . S
C598 C597 1.363 . S
C598 C604 1.428 . S
H599 C595 0.930 . S
H600 C597 0.929 . S
S601 N602 1.613 . S
S601 N603 1.610 . S
N602 S601 1.613 . S
N602 C605 1.350 . S
N603 S601 1.610 . S
N603 C604 1.351 . S
C604 C598 1.428 . S
C604 N603 1.351 . S
C604 C605 1.434 . S
C605 C596 1.429 . S
C605 N602 1.350 . S
C605 C604 1.434 . S
C606 C607 1.369 . S
C606 C608 1.419 1_556 S
C606 H610 0.930 . S
C607 C606 1.369 . S
C607 C616 1.429 . S
C608 C606 1.419 1_554 S
C608 C609 1.363 . S
C608 H611 0.929 . S
C609 C608 1.363 . S
C609 C615 1.428 . S
H610 C606 0.930 . S
H611 C608 0.929 . S
S612 N613 1.613 . S
S612 N614 1.610 1_556 S
N613 S612 1.613 . S
N613 C616 1.350 . S
N614 S612 1.610 1_554 S
N614 C615 1.351 . S
C615 C609 1.428 . S
C615 N614 1.351 . S
C615 C616 1.434 1_554 S
C616 C607 1.429 . S
C616 N613 1.350 . S
C616 C615 1.434 1_556 S
C617 C618 1.369 . S
C617 C619 1.419 . S
C617 H621 0.930 . S
C618 C617 1.369 . S
C618 C627 1.429 . S
C619 C617 1.419 . S
C619 C620 1.363 . S
C619 H622 0.929 . S
C620 C619 1.363 . S
C620 C626 1.428 . S
H621 C617 0.930 . S
H622 C619 0.929 . S
S623 N624 1.613 . S
S623 N625 1.610 . S
N624 S623 1.613 . S
N624 C627 1.350 . S
N625 S623 1.610 . S
N625 C626 1.351 . S
C626 C620 1.428 . S
C626 N625 1.351 . S
C626 C627 1.434 . S
C627 C618 1.429 . S
C627 N624 1.350 . S
C627 C626 1.434 . S
C628 C629 1.369 . S
C628 C630 1.419 . S
C628 H632 0.930 . S
C629 C628 1.369 . S
C629 C638 1.429 . S
C630 C628 1.419 . S
C630 C631 1.363 . S
C630 H633 0.929 . S
C631 C630 1.363 . S
C631 C637 1.428 . S
H632 C628 0.930 . S
H633 C630 0.929 . S
S634 N635 1.613 . S
S634 N636 1.610 . S
N635 S634 1.613 . S
N635 C638 1.350 . S
N636 S634 1.610 . S
N636 C637 1.351 . S
C637 C631 1.428 . S
C637 N636 1.351 . S
C637 C638 1.434 . S
C638 C629 1.429 . S
C638 N635 1.350 . S
C638 C637 1.434 . S
C639 C640 1.369 . S
C639 C641 1.419 1_556 S
C639 H643 0.930 . S
C640 C639 1.369 . S
C640 C649 1.429 . S
C641 C639 1.419 1_554 S
C641 C642 1.363 . S
C641 H644 0.929 . S
C642 C641 1.363 . S
C642 C648 1.428 . S
H643 C639 0.930 . S
H644 C641 0.929 . S
S645 N646 1.613 1_554 S
S645 N647 1.610 . S
N646 S645 1.613 1_556 S
N646 C649 1.350 . S
N647 S645 1.610 . S
N647 C648 1.351 . S
C648 C642 1.428 . S
C648 N647 1.351 . S
C648 C649 1.434 1_554 S
C649 C640 1.429 . S
C649 N646 1.350 . S
C649 C648 1.434 1_556 S
C650 C651 1.369 . S
C650 C652 1.419 . S
C650 H654 0.930 . S
C651 C650 1.369 . S
C651 C660 1.429 . S
C652 C650 1.419 . S
C652 C653 1.363 . S
C652 H655 0.929 . S
C653 C652 1.363 . S
C653 C659 1.428 . S
H654 C650 0.930 . S
H655 C652 0.929 . S
S656 N657 1.613 . S
S656 N658 1.610 . S
N657 S656 1.613 . S
N657 C660 1.350 . S
N658 S656 1.610 . S
N658 C659 1.351 . S
C659 C653 1.428 . S
C659 N658 1.351 . S
C659 C660 1.434 . S
C660 C651 1.429 . S
C660 N657 1.350 . S
C660 C659 1.434 . S
C661 C662 1.369 . S
C661 C663 1.419 . S
C661 H665 0.930 . S
C662 C661 1.369 . S
C662 C671 1.429 . S
C663 C661 1.419 . S
C663 C664 1.363 . S
C663 H666 0.929 . S
C664 C663 1.363 . S
C664 C670 1.428 . S
H665 C661 0.930 . S
H666 C663 0.929 . S
S667 N668 1.613 . S
S667 N669 1.610 . S
N668 S667 1.613 . S
N668 C671 1.350 . S
N669 S667 1.610 . S
N669 C670 1.351 . S
C670 C664 1.428 . S
C670 N669 1.351 . S
C670 C671 1.434 . S
C671 C662 1.429 . S
C671 N668 1.350 . S
C671 C670 1.434 . S
C672 C673 1.369 . S
C672 C674 1.419 1_655 S
C672 H676 0.930 . S
C673 C672 1.369 . S
C673 C682 1.429 . S
C674 C672 1.419 1_455 S
C674 C675 1.363 . S
C674 H677 0.929 . S
C675 C674 1.363 . S
C675 C681 1.428 . S
H676 C672 0.930 . S
H677 C674 0.929 . S
S678 N679 1.613 . S
S678 N680 1.610 1_655 S
N679 S678 1.613 . S
N679 C682 1.350 . S
N680 S678 1.610 1_455 S
N680 C681 1.351 . S
C681 C675 1.428 . S
C681 N680 1.351 . S
C681 C682 1.434 1_455 S
C682 C673 1.429 . S
C682 N679 1.350 . S
C682 C681 1.434 1_655 S
C683 C684 1.369 . S
C683 C685 1.419 1_565 S
C683 H687 0.930 . S
C684 C683 1.369 . S
C684 C693 1.429 . S
C685 C683 1.419 1_545 S
C685 C686 1.363 . S
C685 H688 0.929 . S
C686 C685 1.363 . S
C686 C692 1.428 . S
H687 C683 0.930 . S
H688 C685 0.929 . S
S689 N690 1.613 . S
S689 N691 1.610 1_565 S
N690 S689 1.613 . S
N690 C693 1.350 . S
N691 S689 1.610 1_545 S
N691 C692 1.351 . S
C692 C686 1.428 . S
C692 N691 1.351 . S
C692 C693 1.434 1_545 S
C693 C684 1.429 . S
C693 N690 1.350 . S
C693 C692 1.434 1_565 S
C694 C695 1.369 . S
C694 C696 1.419 . S
C694 H698 0.930 . S
C695 C694 1.369 . S
C695 C704 1.429 . S
C696 C694 1.419 . S
C696 C697 1.363 . S
C696 H699 0.929 . S
C697 C696 1.363 . S
C697 C703 1.428 . S
H698 C694 0.930 . S
H699 C696 0.929 . S
S700 N701 1.613 . S
S700 N702 1.610 . S
N701 S700 1.613 . S
N701 C704 1.350 . S
N702 S700 1.610 . S
N702 C703 1.351 . S
C703 C697 1.428 . S
C703 N702 1.351 . S
C703 C704 1.434 . S
C704 C695 1.429 . S
C704 N701 1.350 . S
C704 C703 1.434 . S
C705 C706 1.369 . S
C705 C707 1.419 1_455 S
C705 H709 0.930 . S
C706 C705 1.369 . S
C706 C715 1.429 . S
C707 C705 1.419 1_655 S
C707 C708 1.363 . S
C707 H710 0.929 . S
C708 C707 1.363 . S
C708 C714 1.428 . S
H709 C705 0.930 . S
H710 C707 0.929 . S
S711 N712 1.613 . S
S711 N713 1.610 1_455 S
N712 S711 1.613 . S
N712 C715 1.350 . S
N713 S711 1.610 1_655 S
N713 C714 1.351 . S
C714 C708 1.428 . S
C714 N713 1.351 . S
C714 C715 1.434 1_655 S
C715 C706 1.429 . S
C715 N712 1.350 . S
C715 C714 1.434 1_455 S
C716 C717 1.369 . S
C716 C718 1.419 1_545 S
C716 H720 0.930 . S
C717 C716 1.369 . S
C717 C726 1.429 . S
C718 C716 1.419 1_565 S
C718 C719 1.363 . S
C718 H721 0.929 . S
C719 C718 1.363 . S
C719 C725 1.428 . S
H720 C716 0.930 . S
H721 C718 0.929 . S
S722 N723 1.613 1_565 S
S722 N724 1.610 . S
N723 S722 1.613 1_545 S
N723 C726 1.350 . S
N724 S722 1.610 . S
N724 C725 1.351 . S
C725 C719 1.428 . S
C725 N724 1.351 . S
C725 C726 1.434 1_565 S
C726 C717 1.429 . S
C726 N723 1.350 . S
C726 C725 1.434 1_545 S
C727 C728 1.369 . S
C727 C729 1.419 . S
C727 H731 0.930 . S
C728 C727 1.369 . S
C728 C737 1.429 . S
C729 C727 1.419 . S
C729 C730 1.363 . S
C729 H732 0.929 . S
C730 C729 1.363 . S
C730 C736 1.428 . S
H731 C727 0.930 . S
H732 C729 0.929 . S
S733 N734 1.613 . S
S733 N735 1.610 . S
N734 S733 1.613 . S
N734 C737 1.350 . S
N735 S733 1.610 . S
N735 C736 1.351 . S
C736 C730 1.428 . S
C736 N735 1.351 . S
C736 C737 1.434 . S
C737 C728 1.429 . S
C737 N734 1.350 . S
C737 C736 1.434 . S
C409 C111 1.615 . S
C411 C9 1.615 . S
C420 C145 1.614 . S
C422 C43 1.615 . S
C431 C179 1.614 . S
C433 C77 1.615 . S
C442 C213 1.615 . S
C444 C315 1.615 . S
C453 C247 1.615 . S
C455 C349 1.614 . S
C464 C281 1.615 . S
C466 C383 1.615 . S
C475 C107 0.716 . S
C477 C5 0.695 . S
C486 C39 0.703 . S
C488 C141 0.700 . S
C497 C175 0.694 . S
C499 C73 0.708 . S
C508 C209 0.692 . S
C510 C311 0.713 . S
C519 C345 0.714 . S
C521 C243 0.694 . S
C530 C277 0.706 . S
C532 C379 0.706 . S
C541 C274 1.653 . S
C543 C2 1.647 . S
C552 C36 1.652 . S
C554 C308 1.646 . S
C563 C70 1.644 . S
C565 C342 1.651 . S
C574 C104 1.647 . S
C576 C376 1.645 . S
C585 C138 1.647 . S
C587 C206 1.651 . S
C596 C240 1.651 . S
C598 C172 1.649 . S
C607 C360 1.641 . S
C609 C20 1.640 . S
C618 C394 1.645 . S
C620 C54 1.643 . S
C629 C224 1.642 . S
C631 C88 1.640 . S
C640 C258 1.643 . S
C642 C122 1.644 . S
C651 C156 1.641 . S
C653 C292 1.640 . S
C662 C190 1.644 . S
C664 C326 1.643 . S
C673 C407 1.494 . S
C675 C33 1.491 . S
C684 C237 1.491 . S
C686 C67 1.487 . S
C695 C101 1.493 . S
C697 C271 1.492 . S
C706 C305 1.494 . S
C708 C135 1.491 . S
C717 C339 1.491 . S
C719 C169 1.493 . S
C728 C373 1.485 . S
C730 C203 1.485 . S
