# Generated by pormake.
# Topology sml, (6)-cn, num edge types: 1
# Building blocks:
#     Node 0, Type 0, BuildingBlock: BETFEN_clean_sbu_0, # of connection points: 6
#     Node 1, Type 0, BuildingBlock: BETFEN_clean_sbu_0, # of connection points: 6
#     Node 2, Type 0, BuildingBlock: BETFEN_clean_sbu_0, # of connection points: 6
#     Node 3, Type 0, BuildingBlock: BETFEN_clean_sbu_0, # of connection points: 6
#     Node 4, Type 0, BuildingBlock: BETFEN_clean_sbu_0, # of connection points: 6
#     Node 5, Type 0, BuildingBlock: BETFEN_clean_sbu_0, # of connection points: 6
#     Edge 6, Type (0, 0), BuildingBlock: EZIPEK_clean_linker_0, # of connection points: 2
#     Edge 7, Type (0, 0), BuildingBlock: EZIPEK_clean_linker_0, # of connection points: 2
#     Edge 8, Type (0, 0), BuildingBlock: EZIPEK_clean_linker_0, # of connection points: 2
#     Edge 9, Type (0, 0), BuildingBlock: EZIPEK_clean_linker_0, # of connection points: 2
#     Edge 10, Type (0, 0), BuildingBlock: EZIPEK_clean_linker_0, # of connection points: 2
#     Edge 11, Type (0, 0), BuildingBlock: EZIPEK_clean_linker_0, # of connection points: 2
#     Edge 12, Type (0, 0), BuildingBlock: EZIPEK_clean_linker_0, # of connection points: 2
#     Edge 13, Type (0, 0), BuildingBlock: EZIPEK_clean_linker_0, # of connection points: 2
#     Edge 14, Type (0, 0), BuildingBlock: EZIPEK_clean_linker_0, # of connection points: 2
#     Edge 15, Type (0, 0), BuildingBlock: EZIPEK_clean_linker_0, # of connection points: 2
#     Edge 16, Type (0, 0), BuildingBlock: EZIPEK_clean_linker_0, # of connection points: 2
#     Edge 17, Type (0, 0), BuildingBlock: EZIPEK_clean_linker_0, # of connection points: 2
#     Edge 18, Type (0, 0), BuildingBlock: EZIPEK_clean_linker_0, # of connection points: 2
#     Edge 19, Type (0, 0), BuildingBlock: EZIPEK_clean_linker_0, # of connection points: 2
#     Edge 20, Type (0, 0), BuildingBlock: EZIPEK_clean_linker_0, # of connection points: 2
#     Edge 21, Type (0, 0), BuildingBlock: EZIPEK_clean_linker_0, # of connection points: 2
#     Edge 22, Type (0, 0), BuildingBlock: EZIPEK_clean_linker_0, # of connection points: 2
#     Edge 23, Type (0, 0), BuildingBlock: EZIPEK_clean_linker_0, # of connection points: 2
# Relax obj value: 0.266
# Max RMSD: 0.271
# Mean RMSD: 0.271
data_MOF--net-sml--node1-BETFEN_clean_sbu_0--edge1-EZIPEK_clean_linker_0
_symmetry_space_group_name_H-M    P1
_symmetry_Int_Tables_number       1
_symmetry_cell_setting            triclinic
loop_
_symmetry_equiv_pos_as_xyz
'x, y, z'
_cell_length_a     22.014287
_cell_length_b     21.929862
_cell_length_c     20.615844
_cell_angle_alpha  89.876094
_cell_angle_beta   90.553812
_cell_angle_gamma 119.86356
loop_
_atom_site_label
_atom_site_type_symbol
_atom_site_fract_x
_atom_site_fract_y
_atom_site_fract_z
_atom_type_partial_charge
Pr0 Pr 0.26381 0.41997 0.26864 0.0
Pr1 Pr 0.15755 0.38868 0.15956 0.0
C2 C 0.32847 0.43708 0.38462 0.0
C3 C 0.30508 0.43161 0.45227 0.0
C4 C 0.35212 0.47452 0.50072 0.0
C5 C 0.32945 0.47033 0.56468 0.0
C6 C 0.25949 0.42357 0.58074 0.0
C7 C 0.21252 0.38057 0.53245 0.0
C8 C 0.23508 0.3846 0.46871 0.0
C9 C 0.26484 0.32985 0.17502 0.0
C10 C 0.09292 0.30881 0.29282 0.0
C11 C 0.09495 0.37339 0.04294 0.0
C12 C 0.11924 0.38343 0.97518 0.0
C13 C 0.07626 0.33637 0.92682 0.0
C14 C 0.09907 0.34503 0.86257 0.0
C15 C 0.16523 0.40085 0.84587 0.0
C16 C 0.20852 0.44781 0.89415 0.0
C17 C 0.18573 0.43919 0.95834 0.0
C18 C 0.16418 0.48643 0.24984 0.0
C19 C 0.3262 0.50231 0.13657 0.0
O20 O 0.33251 0.48944 0.35107 0.0
O21 O 0.301 0.37846 0.35144 0.0
O22 O 0.20932 0.32613 0.19629 0.0
O23 O 0.32008 0.37971 0.20336 0.0
O24 O 0.07978 0.30321 0.22994 0.0
O25 O 0.15476 0.3545 0.31683 0.0
O26 O 0.09326 0.32076 0.07435 0.0
O27 O 0.1188 0.43023 0.07836 0.0
O28 O 0.21642 0.4847 0.22759 0.0
O29 O 0.1061 0.43607 0.22578 0.0
O30 O 0.33801 0.51014 0.1996 0.0
O31 O 0.26716 0.45205 0.11168 0.0
H32 H 0.40625 0.51112 0.4891 0.0
H33 H 0.36631 0.50316 0.60179 0.0
H34 H 0.15858 0.34367 0.54429 0.0
H35 H 0.19777 0.3507 0.43245 0.0
H36 H 0.02529 0.29267 0.93887 0.0
H37 H 0.06543 0.30788 0.82594 0.0
H38 H 0.26005 0.49072 0.88217 0.0
H39 H 0.22025 0.47598 0.99475 0.0
Pr40 Pr 0.70494 0.13132 0.47678 0.0
Pr41 Pr 0.80882 0.21534 0.59262 0.0
C42 C 0.6296 0.09393 0.36558 0.0
C43 C 0.65094 0.10122 0.29721 0.0
C44 C 0.6033 0.09141 0.24713 0.0
C45 C 0.62562 0.10404 0.18257 0.0
C46 C 0.69581 0.12691 0.16755 0.0
C47 C 0.74314 0.13567 0.21755 0.0
C48 C 0.72087 0.12294 0.28191 0.0
C49 C 0.7209 0.04993 0.57279 0.0
C50 C 0.86919 0.17285 0.47077 0.0
C51 C 0.87096 0.25798 0.70958 0.0
C52 C 0.84605 0.23824 0.77642 0.0
C53 C 0.89187 0.27037 0.82903 0.0
C54 C 0.86813 0.25123 0.89261 0.0
C55 C 0.79815 0.20001 0.90428 0.0
C56 C 0.75241 0.16764 0.85151 0.0
C57 C 0.77627 0.18645 0.78799 0.0
C58 C 0.81651 0.29462 0.48391 0.0
C59 C 0.63914 0.16769 0.60463 0.0
O60 O 0.64848 0.15322 0.39576 0.0
O61 O 0.6397 0.04978 0.40053 0.0
O62 O 0.71689 0.10423 0.5814 0.0
O63 O 0.71471 0.03381 0.51139 0.0
O64 O 0.86792 0.17018 0.53452 0.0
O65 O 0.81684 0.17037 0.43707 0.0
O66 O 0.87345 0.20905 0.67535 0.0
O67 O 0.84531 0.29165 0.6771 0.0
O68 O 0.76222 0.2457 0.50838 0.0
O69 O 0.87098 0.31014 0.52021 0.0
O70 O 0.62408 0.13681 0.5469 0.0
O71 O 0.70261 0.19867 0.63055 0.0
H72 H 0.54927 0.07504 0.25801 0.0
H73 H 0.58857 0.09694 0.14437 0.0
H74 H 0.79756 0.15365 0.20684 0.0
H75 H 0.75859 0.13137 0.31986 0.0
H76 H 0.94583 0.31032 0.82093 0.0
H77 H 0.90395 0.27687 0.93282 0.0
H78 H 0.69829 0.12802 0.85956 0.0
H79 H 0.74028 0.16065 0.74789 0.0
Pr80 Pr 0.52603 0.81825 0.91108 0.0
Pr81 Pr 0.54525 0.72698 0.80578 0.0
C82 C 0.51057 0.87047 1.02452 0.0
C83 C 0.51488 0.85601 0.09403 0.0
C84 C 0.52905 0.90755 0.14131 0.0
C85 C 0.53432 0.89388 0.20711 0.0
C86 C 0.52502 0.82826 0.22644 0.0
C87 C 0.50993 0.77655 0.17915 0.0
C88 C 0.50501 0.79039 0.11362 0.0
C89 C 0.60547 0.89181 0.80343 0.0
C90 C 0.6349 0.754 0.93958 0.0
C91 C 0.57021 0.69134 0.6876 0.0
C92 C 0.56533 0.71084 0.61916 0.0
C93 C 0.50606 0.66805 0.58056 0.0
C94 C 0.49987 0.68811 0.5173 0.0
C95 C 0.55256 0.75182 0.49145 0.0
C96 C 0.61198 0.79449 0.52972 0.0
C97 C 0.61883 0.77377 0.59238 0.0
C98 C 0.46339 0.64717 0.90752 0.0
C99 C 0.41432 0.76904 0.79343 0.0
O100 O 0.45842 0.82045 0.99173 0.0
O101 O 0.56937 0.89942 0.99233 0.0
O102 O 0.60853 0.84287 0.83244 0.0
O103 O 0.5638 0.90853 0.83283 0.0
O104 O 0.62753 0.72931 0.87984 0.0
O105 O 0.60104 0.78556 0.96026 0.0
O106 O 0.61897 0.74026 0.72425 0.0
O107 O 0.51143 0.65345 0.71863 0.0
O108 O 0.46268 0.70018 0.88356 0.0
O109 O 0.50637 0.63305 0.87642 0.0
O110 O 0.43269 0.80394 0.84838 0.0
O111 O 0.44693 0.73631 0.77174 0.0
H112 H 0.53658 0.95844 0.12724 0.0
H113 H 0.54624 0.93453 0.24285 0.0
H114 H 0.50246 0.72559 0.19298 0.0
H115 H 0.49349 0.74988 0.07802 0.0
H116 H 0.46414 0.61933 0.59951 0.0
H117 H 0.45364 0.6542 0.48864 0.0
H118 H 0.65323 0.8439 0.51093 0.0
H119 H 0.66539 0.80812 0.62038 0.0
Pr120 Pr 0.8293 0.56948 0.16357 0.0
Pr121 Pr 0.73612 0.59343 0.27173 0.0
C122 C 0.87073 0.54166 0.05102 0.0
C123 C 0.85214 0.54562 0.98307 0.0
C124 C 0.9002 0.55823 0.9336 0.0
C125 C 0.88425 0.56676 0.86951 0.0
C126 C 0.81955 0.56178 0.85409 0.0
C127 C 0.77127 0.54834 0.90363 0.0
C128 C 0.7877 0.54102 0.96772 0.0
C129 C 0.90373 0.65052 0.26976 0.0
C130 C 0.7721 0.685 0.13847 0.0
C131 C 0.70588 0.6233 0.38965 0.0
C132 C 0.72229 0.6139 0.45794 0.0
C133 C 0.67249 0.55846 0.49605 0.0
C134 C 0.6887 0.54914 0.55998 0.0
C135 C 0.75474 0.5954 0.58708 0.0
C136 C 0.80439 0.65087 0.54945 0.0
C137 C 0.78837 0.66013 0.48566 0.0
C138 C 0.663 0.50945 0.16713 0.0
C139 C 0.78068 0.46792 0.29256 0.0
O140 O 0.82096 0.49271 0.08638 0.0
O141 O 0.90603 0.60227 0.08102 0.0
O142 O 0.85107 0.64909 0.24342 0.0
O143 O 0.92752 0.61884 0.23327 0.0
O144 O 0.75505 0.68231 0.20005 0.0
O145 O 0.79193 0.64197 0.11396 0.0
O146 O 0.75847 0.66873 0.35471 0.0
O147 O 0.66208 0.56691 0.35681 0.0
O148 O 0.71567 0.51241 0.19495 0.0
O149 O 0.63984 0.54526 0.19921 0.0
O150 O 0.81704 0.48414 0.23822 0.0
O151 O 0.74373 0.49749 0.30911 0.0
H152 H 0.95038 0.56254 0.94473 0.0
H153 H 0.9223 0.57728 0.83194 0.0
H154 H 0.72145 0.54475 0.89263 0.0
H155 H 0.75049 0.53257 1.00545 0.0
H156 H 0.62112 0.52211 0.47639 0.0
H157 H 0.64962 0.50612 0.58844 0.0
H158 H 0.85557 0.68713 0.56958 0.0
H159 H 0.82799 0.70363 0.45812 0.0
Pr160 Pr 0.12958 0.71866 0.59012 0.0
Pr161 Pr 0.20426 0.82982 0.47566 0.0
C162 C 0.10367 0.64195 0.699 0.0
C163 C 0.11363 0.66429 0.76758 0.0
C164 C 0.08894 0.61491 0.81801 0.0
C165 C 0.10064 0.63751 0.88291 0.0
C166 C 0.13668 0.70971 0.8979 0.0
C167 C 0.16058 0.75888 0.84738 0.0
C168 C 0.14952 0.73634 0.78289 0.0
C169 C 0.04112 0.7443 0.51006 0.0
C170 C 0.17561 0.88457 0.61007 0.0
C171 C 0.23769 0.89256 0.35873 0.0
C172 C 0.22535 0.86674 0.29106 0.0
C173 C 0.22607 0.90991 0.24036 0.0
C174 C 0.21261 0.88484 0.17635 0.0
C175 C 0.19756 0.81599 0.16236 0.0
C176 C 0.1967 0.77277 0.21302 0.0
C177 C 0.21087 0.79809 0.27675 0.0
C178 C 0.29105 0.8261 0.57337 0.0
C179 C 0.15522 0.6602 0.45198 0.0
O180 O 0.16148 0.66511 0.66597 0.0
O181 O 0.0547 0.64704 0.66699 0.0
O182 O 0.09315 0.73946 0.49278 0.0
O183 O 0.03146 0.73312 0.57215 0.0
O184 O 0.16984 0.88912 0.54678 0.0
O185 O 0.17547 0.82977 0.6366 0.0
O186 O 0.18221 0.88218 0.39079 0.0
O187 O 0.28054 0.88015 0.39343 0.0
O188 O 0.2384 0.77524 0.54785 0.0
O189 O 0.30464 0.88466 0.54486 0.0
O190 O 0.12596 0.6409 0.50985 0.0
O191 O 0.18759 0.72566 0.43135 0.0
H192 H 0.06125 0.55912 0.80724 0.0
H193 H 0.08205 0.59886 0.92139 0.0
H194 H 0.18873 0.81473 0.85794 0.0
H195 H 0.1697 0.77535 0.74497 0.0
H196 H 0.23659 0.96279 0.25024 0.0
H197 H 0.21338 0.91886 0.13779 0.0
H198 H 0.18512 0.7195 0.20316 0.0
H199 H 0.2103 0.76385 0.31473 0.0
Pr200 Pr 0.42418 0.26932 0.82872 0.0
Pr201 Pr 0.41019 0.15896 0.93379 0.0
C202 C 0.43796 0.33446 0.71367 0.0
C203 C 0.43643 0.31425 0.64487 0.0
C204 C 0.42369 0.3501 0.59475 0.0
C205 C 0.42155 0.32989 0.52972 0.0
C206 C 0.43259 0.27376 0.51391 0.0
C207 C 0.44593 0.2385 0.56412 0.0
C208 C 0.44761 0.25846 0.62885 0.0
C209 C 0.34557 0.26236 0.93792 0.0
C210 C 0.31673 0.09634 0.80192 0.0
C211 C 0.39353 0.09622 0.05092 0.0
C212 C 0.39924 0.11807 0.1204 0.0
C213 C 0.4613 0.13896 0.15637 0.0
C214 C 0.46813 0.16334 0.22045 0.0
C215 C 0.41351 0.16871 0.24975 0.0
C216 C 0.35099 0.14644 0.21435 0.0
C217 C 0.34364 0.1208 0.15088 0.0
C218 C 0.49129 0.16484 0.8295 0.0
C219 C 0.53704 0.33371 0.94522 0.0
O220 O 0.49112 0.3414 0.74844 0.0
O221 O 0.3787 0.30179 0.74491 0.0
O222 O 0.34454 0.21063 0.91005 0.0
O223 O 0.38349 0.3201 0.90581 0.0
O224 O 0.32526 0.07934 0.86154 0.0
O225 O 0.35009 0.16143 0.78045 0.0
O226 O 0.34142 0.09275 1.01671 0.0
O227 O 0.45161 0.1223 1.01784 0.0
O228 O 0.49047 0.21713 0.85465 0.0
O229 O 0.44951 0.10693 0.86014 0.0
O230 O 0.51768 0.34951 0.89032 0.0
O231 O 0.50598 0.2685 0.96724 0.0
H232 H 0.41501 0.3934 0.60593 0.0
H233 H 0.41075 0.35758 0.49182 0.0
H234 H 0.45453 0.1951 0.55318 0.0
H235 H 0.45763 0.23034 0.66666 0.0
H236 H 0.50503 0.13738 0.13463 0.0
H237 H 0.51656 0.17924 0.24683 0.0
H238 H 0.30781 0.14941 0.23582 0.0
H239 H 0.29486 0.10486 0.12514 0.0
C240 C 0.24674 0.25275 1.00769 0.0
C241 C 0.31406 0.25977 1.00265 0.0
C242 C 0.3344 0.28555 0.1191 0.0
C243 C 0.27111 0.28714 0.1222 0.0
N244 N 0.15347 0.23581 0.08017 0.0
N245 N 0.40773 0.25558 0.05764 0.0
C246 C 0.22271 0.25983 0.06974 0.0
C247 C 0.3541 0.26891 0.05972 0.0
N248 N 0.20617 0.23991 0.95344 0.0
N249 N 0.37384 0.29668 0.1741 0.0
H250 H 0.4064 0.22274 1.02147 0.0
H251 H 0.44372 0.26476 0.09466 0.0
H252 H 0.35364 0.29341 0.2204 0.0
H253 H 0.4257 0.30825 0.17429 0.0
H254 H 0.16017 0.24251 0.95278 0.0
H255 H 0.22063 0.22973 0.90843 0.0
H256 H 0.11487 0.20992 0.0448 0.0
H257 H 0.1338 0.2334 0.12645 0.0
C258 C 0.03335 0.30408 0.3965 0.0
C259 C 0.03653 0.26874 0.34006 0.0
C260 C 0.93452 0.16069 0.37794 0.0
C261 C 0.93544 0.19575 0.43604 0.0
N262 N 0.00389 0.29293 0.50953 0.0
N263 N 0.00062 0.15812 0.28566 0.0
C264 C -0.00851 0.26435 0.44873 0.0
C265 C -0.00979 0.19527 0.33309 0.0
N266 N 0.06597 0.37584 0.3988 0.0
N267 N 0.87994 0.09482 0.3654 0.0
H268 H 0.04241 0.18102 0.25359 0.0
H269 H 0.9718 0.10349 0.28226 0.0
H270 H 0.8412 0.06645 0.39953 0.0
H271 H 0.87179 0.07003 0.32052 0.0
H272 H 0.05957 0.40329 0.43689 0.0
H273 H 0.09133 0.40748 0.35918 0.0
H274 H 0.04691 0.34194 0.52055 0.0
H275 H 0.97755 0.26477 0.55047 0.0
C276 C 0.62621 0.94386 0.62696 0.0
C277 C 0.69728 -0.0024 0.62509 0.0
C278 C 0.71151 0.97859 0.74034 0.0
C279 C 0.64111 0.92332 0.74115 0.0
N280 N 0.54497 0.83633 0.67849 0.0
N281 N 0.81203 0.05421 0.67426 0.0
C282 C 0.60213 0.90124 0.6825 0.0
C283 C 0.74148 0.0111 0.68012 0.0
N284 N 0.58079 0.93418 0.57711 0.0
N285 N 0.74889 0.00118 0.79698 0.0
H286 H 0.8349 0.07645 0.62994 0.0
H287 H 0.8479 0.06223 0.71117 0.0
H288 H 0.72884 0.97673 0.84135 0.0
H289 H 0.79788 0.04637 0.80042 0.0
H290 H 0.52684 0.90087 0.5806 0.0
H291 H 0.59514 0.96335 0.53452 0.0
H292 H 0.51401 0.81554 0.63696 0.0
H293 H 0.54069 0.79948 0.71199 0.0
C294 C 0.74611 0.75525 0.97779 0.0
C295 C 0.67677 0.7414 0.98932 0.0
C296 C 0.69451 0.73199 0.1048 0.0
C297 C 0.75427 0.72631 0.09202 0.0
N298 N 0.84455 0.74361 1.01659 0.0
N299 N 0.57958 0.69559 0.06412 0.0
C300 C 0.78253 0.74131 0.0283 0.0
C301 C 0.64944 0.72396 0.05297 0.0
N302 N 0.77824 0.78455 0.92058 0.0
N303 N 0.68035 0.74549 0.16561 0.0
H304 H 0.54316 0.68277 1.02681 0.0
H305 H 0.55753 0.6764 0.10943 0.0
H306 H 0.71743 0.76287 0.20305 0.0
H307 H 0.63671 0.75062 0.17523 0.0
H308 H 0.83082 0.80162 0.91195 0.0
H309 H 0.75415 0.79761 0.88365 0.0
H310 H 0.86333 0.74478 0.97016 0.0
H311 H 0.8768 0.74365 0.05406 0.0
C312 C -0.01678 0.7698 0.41796 0.0
C313 C -0.01751 0.72116 0.46346 0.0
C314 C 0.92999 0.62735 0.38386 0.0
C315 C 0.92837 0.67471 0.33732 0.0
N316 N 0.94162 0.78912 0.31478 0.0
N317 N 0.93052 0.60091 0.49769 0.0
C318 C 0.95 0.74514 0.35625 0.0
C319 C 0.94585 0.64882 0.44923 0.0
N320 N 0.01893 0.83978 0.4328 0.0
N321 N 0.92268 0.56417 0.36589 0.0
H322 H 0.94065 0.61555 0.54638 0.0
H323 H 0.90082 0.5468 0.49027 0.0
H324 H 0.91758 0.54726 0.3183 0.0
H325 H 0.93143 0.53227 0.39772 0.0
H326 H 0.02933 0.87929 0.39925 0.0
H327 H 0.04047 0.85788 0.47889 0.0
H328 H 0.95012 0.83845 0.32854 0.0
H329 H 0.92236 0.77495 0.26757 0.0
C330 C 0.20482 -0.01198 0.76471 0.0
C331 C 0.27473 0.04157 0.75289 0.0
C332 C 0.25991 0.00848 0.6383 0.0
C333 C 0.1968 0.94641 0.65251 0.0
N334 N 0.10679 0.87645 0.72928 0.0
N335 N 0.37396 0.08861 0.68071 0.0
C336 C 0.1683 0.93617 0.71586 0.0
C337 C 0.30359 0.04819 0.69019 0.0
N338 N 0.1726 -0.01209 0.82102 0.0
N339 N 0.27981 0.02917 0.57588 0.0
H340 H 0.40896 0.11453 0.71839 0.0
H341 H 0.39826 0.0887 0.63752 0.0
H342 H 0.24724 0.00578 0.53593 0.0
H343 H 0.32496 0.07607 0.56459 0.0
H344 H 0.11966 0.9537 0.82956 0.0
H345 H 0.19719 0.02602 0.85701 0.0
H346 H 0.08788 0.86131 0.77613 0.0
H347 H 0.07612 0.84076 0.69313 0.0
C348 C 0.22173 0.3684 0.75771 0.0
C349 C 0.19037 0.40806 0.77805 0.0
C350 C 0.20492 0.45887 0.669 0.0
C351 C 0.23555 0.41842 0.6487 0.0
N352 N 0.26164 0.32556 0.66872 0.0
N353 N 0.15803 0.49631 0.75714 0.0
C354 C 0.241 0.3708 0.69176 0.0
C355 C 0.18339 0.4547 0.73469 0.0
N356 N 0.23592 0.33087 0.80236 0.0
N357 N 0.19395 0.49889 0.62451 0.0
H358 H 0.1398 0.49288 0.80428 0.0
H359 H 0.15811 0.53681 0.7308 0.0
H360 H 0.21053 0.50422 0.57657 0.0
H361 H 0.16591 0.52455 0.6335 0.0
H362 H 0.26535 0.3068 0.79265 0.0
H363 H 0.22292 0.32834 0.85114 0.0
H364 H 0.25717 0.28292 0.6949 0.0
H365 H 0.27784 0.32678 0.62113 0.0
C366 C 0.74259 0.21362 0.07601 0.0
C367 C 0.72091 0.14502 0.09969 0.0
C368 C 0.75629 0.11477 0.99763 0.0
C369 C 0.77226 0.18127 0.97196 0.0
N370 N 0.77361 0.29142 0.98314 0.0
N371 N 0.70059 0.02771 0.08252 0.0
C372 C 0.76378 0.23019 1.01032 0.0
C373 C 0.72578 0.09475 0.06022 0.0
N374 N 0.74406 0.26331 0.1169 0.0
N375 N 0.77323 0.07217 0.96319 0.0
H376 H 0.67997 0.01198 0.12885 0.0
H377 H 0.69593 0.98642 0.05411 0.0
H378 H 0.79704 0.08594 0.91794 0.0
H379 H 0.76933 0.02606 0.98134 0.0
H380 H 0.76875 0.31669 0.10603 0.0
H381 H 0.72389 0.25172 0.16368 0.0
H382 H 0.76383 0.32742 1.00683 0.0
H383 H 0.78735 0.30464 0.93477 0.0
C384 C 0.59574 0.78193 0.37631 0.0
C385 C 0.5461 0.77369 0.42405 0.0
C386 C 0.48067 0.79974 0.34164 0.0
C387 C 0.53373 0.81386 0.29575 0.0
N388 N 0.65086 0.837 0.27519 0.0
N389 N 0.45063 0.79145 0.45535 0.0
C390 C 0.59408 0.81062 0.31489 0.0
C391 C 0.49109 0.78736 0.40765 0.0
N392 N 0.6426 0.75949 0.38834 0.0
N393 N 0.41953 0.79622 0.32202 0.0
H394 H 0.45804 0.78486 0.50435 0.0
H395 H 0.41464 0.80839 0.44695 0.0
H396 H 0.41033 0.80572 0.27432 0.0
H397 H 0.37601 0.77842 0.35185 0.0
H398 H 0.67509 0.75786 0.35277 0.0
H399 H 0.64409 0.73578 0.43178 0.0
H400 H 0.69886 0.8425 0.28958 0.0
H401 H 0.65204 0.85974 0.23036 0.0
C402 C 0.79206 0.62751 0.76873 0.0
C403 C 0.80206 0.57027 0.78592 0.0
C404 C 0.78972 0.53534 0.67185 0.0
C405 C 0.77147 0.58711 0.65564 0.0
N406 N 0.74397 0.67542 0.69067 0.0
N407 N 0.79386 0.46008 0.75551 0.0
C408 C 0.76917 0.63111 0.70476 0.0
C409 C 0.79595 0.52124 0.73796 0.0
N410 N 0.80721 0.67999 0.81254 0.0
N411 N 0.80451 0.50192 0.62416 0.0
H412 H 0.79647 0.44684 0.80368 0.0
H413 H 0.78227 0.41945 0.72279 0.0
H414 H 0.80482 0.51445 0.57553 0.0
H415 H 0.82449 0.46847 0.63334 0.0
H416 H 0.80777 0.72642 0.80052 0.0
H417 H 0.82578 0.68028 0.85932 0.0
H418 H 0.73402 0.70311 0.72603 0.0
H419 H 0.72735 0.67998 0.64426 0.0
C420 C 0.2197 0.76004 0.99282 0.0
C421 C 0.15133 0.73459 0.96653 0.0
C422 C 0.11336 0.76281 0.06846 0.0
C423 C 0.18188 0.78866 0.09456 0.0
N424 N 0.29898 0.80725 0.08553 0.0
N425 N 0.03612 0.72106 0.97395 0.0
C426 C 0.23484 0.78631 0.05763 0.0
C427 C 0.09878 0.73817 1.00306 0.0
N428 N 0.27081 0.76138 0.95463 0.0
N429 N 0.06181 0.75993 0.10716 0.0
H430 H 0.02385 0.70303 0.92622 0.0
H431 H -0.00233 0.72873 0.99494 0.0
H432 H 0.07063 0.7777 0.15508 0.0
H433 H 0.0093 0.73652 0.09373 0.0
H434 H 0.32389 0.78886 0.96627 0.0
H435 H 0.26073 0.73752 0.90906 0.0
H436 H 0.33753 0.79953 0.06485 0.0
H437 H 0.31309 0.82992 0.13159 0.0
C438 C 0.48106 0.28953 0.40007 0.0
C439 C 0.42746 0.24937 0.44524 0.0
C440 C 0.37195 0.15352 0.36566 0.0
C441 C 0.42059 0.19639 0.31776 0.0
N442 N 0.51446 0.31126 0.28707 0.0
N443 N 0.3127 0.1505 0.46482 0.0
C444 C 0.47339 0.26618 0.33431 0.0
C445 C 0.37015 0.18354 0.42613 0.0
N446 N 0.54021 0.34894 0.42023 0.0
N447 N 0.32948 0.08317 0.35477 0.0
H448 H 0.30878 0.17149 0.50892 0.0
H449 H 0.26652 0.10595 0.4501 0.0
H450 H 0.33198 0.05831 0.31265 0.0
H451 H 0.29775 0.04849 0.39046 0.0
H452 H 0.58433 0.37609 0.39136 0.0
H453 H 0.5475 0.36784 0.46772 0.0
H454 H 0.54834 0.36469 0.29522 0.0
H455 H 0.51026 0.29691 0.23841 0.0
C456 C 0.11348 0.55833 0.29464 0.0
C457 C 0.16718 0.54036 0.29555 0.0
C458 C 0.20167 0.58862 0.40464 0.0
C459 C 0.14968 0.6083 0.40387 0.0
N460 N 0.07296 0.63342 0.33885 0.0
N461 N 0.28433 0.58025 0.33578 0.0
C462 C 0.10984 0.59892 0.34633 0.0
C463 C 0.21791 0.567 0.34602 0.0
N464 N 0.06825 0.54016 0.24312 0.0
N465 N 0.23786 0.59354 0.46028 0.0
H466 H 0.3017 0.57607 0.29012 0.0
H467 H 0.32444 0.60607 0.36998 0.0
H468 H 0.22639 0.60867 0.50433 0.0
H469 H 0.27383 0.57574 0.46327 0.0
H470 H 0.02222 0.5427 0.24454 0.0
H471 H 0.07704 0.52303 0.19891 0.0
H472 H 0.05209 0.63732 0.29448 0.0
H473 H 0.06799 0.66297 0.37574 0.0
C474 C 0.5489 0.10002 0.6854 0.0
C475 C 0.58403 0.1619 0.64828 0.0
C476 C 0.57181 0.23028 0.73563 0.0
C477 C 0.53468 0.16773 0.7727 0.0
N478 N 0.5193 0.05216 0.79323 0.0
N479 N 0.61491 0.2815 0.62965 0.0
C480 C 0.53121 0.10458 0.75043 0.0
C481 C 0.59048 0.22555 0.67087 0.0
N482 N 0.53363 0.03706 0.65854 0.0
N483 N 0.59658 0.2946 0.76422 0.0
H484 H 0.62721 0.27752 0.58161 0.0
H485 H 0.61547 0.32815 0.64048 0.0
H486 H 0.59565 0.30103 0.81412 0.0
H487 H 0.62793 0.34198 0.74056 0.0
H488 H 0.50331 -0.01116 0.68129 0.0
H489 H 0.54494 0.0328 0.61037 0.0
H490 H 0.52041 0.0068 0.78054 0.0
H491 H 0.52012 0.05898 0.84329 0.0
C492 C 0.36848 0.60674 0.06799 0.0
C493 C 0.37711 0.55044 0.08954 0.0
C494 C 0.42605 0.54604 0.98516 0.0
C495 C 0.42136 0.6055 0.96433 0.0
N496 N 0.35674 0.66724 0.97522 0.0
N497 N 0.42586 0.47512 0.07573 0.0
C498 C 0.38443 0.62975 1.00283 0.0
C499 C 0.4102 0.52325 0.05028 0.0
N500 N 0.34422 0.63761 0.11005 0.0
N501 N 0.43754 0.50651 0.94108 0.0
H502 H 0.41649 0.46002 0.12426 0.0
H503 H 0.45434 0.45618 0.05139 0.0
H504 H 0.43594 0.51349 0.89121 0.0
H505 H 0.43729 0.46018 0.95267 0.0
H506 H 0.34303 0.68347 0.09946 0.0
H507 H 0.33239 0.62128 0.15816 0.0
H508 H 0.32406 0.6806 0.99999 0.0
H509 H 0.35635 0.67474 0.92538 0.0
C510 C 0.83275 0.34325 0.37177 0.0
C511 C 0.81262 0.34298 0.43671 0.0
C512 C 0.77665 0.42844 0.40918 0.0
C513 C 0.78763 0.42143 0.34179 0.0
N514 N 0.80467 0.3521 0.26023 0.0
N515 N 0.75321 0.37552 0.51552 0.0
C516 C 0.80976 0.3732 0.32323 0.0
C517 C 0.7793 0.3813 0.45449 0.0
N518 N 0.87343 0.31476 0.35623 0.0
N519 N 0.77049 0.48373 0.43169 0.0
H520 H 0.76227 0.3493 0.55332 0.0
H521 H 0.71873 0.39326 0.52743 0.0
H522 H 0.78918 0.53116 0.40733 0.0
H523 H 0.75811 0.48838 0.47909 0.0
H524 H 0.8942 0.31871 0.31016 0.0
H525 H 0.89275 0.29457 0.39133 0.0
H526 H 0.8163 0.31359 0.24571 0.0
H527 H 0.77936 0.36516 0.22449 0.0
C528 C 0.32979 0.75304 0.63357 0.0
C529 C 0.3267 0.81617 0.63086 0.0
C530 C 0.35682 0.8355 0.74701 0.0
C531 C 0.36431 0.77484 0.74767 0.0
N532 N 0.32516 0.66084 0.70142 0.0
N533 N 0.35157 0.92515 0.68285 0.0
C534 C 0.34043 0.72889 0.69383 0.0
C535 C 0.34409 0.85968 0.68694 0.0
N536 N 0.32737 0.71845 0.57769 0.0
N537 N 0.3556 0.86637 0.80407 0.0
H538 H 0.34595 0.94655 0.63985 0.0
H539 H 0.37196 0.96179 0.72043 0.0
H540 H 0.35443 0.8441 0.84897 0.0
H541 H 0.34432 0.90709 0.8072 0.0
H542 H 0.3371 0.67657 0.57641 0.0
H543 H 0.3243 0.73691 0.53181 0.0
H544 H 0.30286 0.6231 0.66492 0.0
H545 H 0.32715 0.64063 0.74684 0.0
C546 C 0.63026 0.40165 0.10184 0.0
C547 C 0.63134 0.46677 0.10747 0.0
C548 C 0.59322 0.45673 0.99331 0.0
C549 C 0.58806 0.38966 0.99005 0.0
N550 N 0.63183 0.31583 0.02952 0.0
N551 N 0.6063 0.5532 0.06009 0.0
C552 C 0.61657 0.36805 0.04076 0.0
C553 C 0.61068 0.49356 0.05368 0.0
N554 N 0.63673 0.36886 0.15587 0.0
N555 N 0.58785 0.48807 0.93785 0.0
H556 H 0.62139 0.58409 0.1016 0.0
H557 H 0.58213 0.56937 1.02599 0.0
H558 H 0.58705 0.46826 0.89186 0.0
H559 H 0.59587 0.53897 0.93583 0.0
H560 H 0.62933 0.31811 0.15531 0.0
H561 H 0.64036 0.38815 0.20275 0.0
H562 H 0.65566 0.29942 0.06364 0.0
H563 H 0.62757 0.29459 0.98327 0.0
loop_
_geom_bond_atom_site_label_1
_geom_bond_atom_site_label_2
_geom_bond_distance
_geom_bond_site_symmetry_2
_ccdc_geom_bond_type
Pr0 C2 2.880 . S
Pr0 O20 2.562 . S
Pr0 O21 2.490 . S
Pr0 O22 2.695 . S
Pr0 O23 2.512 . S
Pr0 O25 2.437 . S
Pr0 O28 2.436 . S
Pr0 O30 2.438 . S
Pr1 C11 2.880 1_554 S
Pr1 O22 2.436 . S
Pr1 O24 2.438 . S
Pr1 O26 2.562 1_554 S
Pr1 O27 2.490 1_554 S
Pr1 O28 2.695 . S
Pr1 O29 2.512 . S
Pr1 O31 2.437 . S
C2 Pr0 2.880 . S
C2 C3 1.491 . S
C2 O20 1.254 . S
C2 O21 1.225 . S
C3 C2 1.491 . S
C3 C4 1.392 . S
C3 C8 1.356 . S
C4 C3 1.392 . S
C4 C5 1.368 . S
C4 H32 0.929 . S
C5 C4 1.368 . S
C5 C6 1.386 . S
C5 H33 0.929 . S
C6 C5 1.386 . S
C6 C7 1.373 . S
C7 C6 1.373 . S
C7 C8 1.409 . S
C7 H34 0.931 . S
C8 C3 1.356 . S
C8 C7 1.409 . S
C8 H35 0.930 . S
C9 O22 1.270 . S
C9 O23 1.248 . S
C10 O24 1.267 . S
C10 O25 1.278 . S
C11 Pr1 2.880 1_556 S
C11 C12 1.491 . S
C11 O26 1.254 . S
C11 O27 1.225 . S
C12 C11 1.491 . S
C12 C13 1.392 . S
C12 C17 1.356 . S
C13 C12 1.392 . S
C13 C14 1.368 . S
C13 H36 0.929 . S
C14 C13 1.368 . S
C14 C15 1.386 . S
C14 H37 0.929 . S
C15 C14 1.386 . S
C15 C16 1.373 . S
C16 C15 1.373 . S
C16 C17 1.409 . S
C16 H38 0.931 . S
C17 C12 1.356 . S
C17 C16 1.409 . S
C17 H39 0.930 . S
C18 O28 1.270 . S
C18 O29 1.248 . S
C19 O30 1.267 . S
C19 O31 1.278 . S
O20 Pr0 2.562 . S
O20 C2 1.254 . S
O21 Pr0 2.490 . S
O21 C2 1.225 . S
O22 Pr0 2.695 . S
O22 Pr1 2.436 . S
O22 C9 1.270 . S
O23 Pr0 2.512 . S
O23 C9 1.248 . S
O24 Pr1 2.438 . S
O24 C10 1.267 . S
O25 Pr0 2.437 . S
O25 C10 1.278 . S
O26 Pr1 2.562 1_556 S
O26 C11 1.254 . S
O27 Pr1 2.490 1_556 S
O27 C11 1.225 . S
O28 Pr0 2.436 . S
O28 Pr1 2.695 . S
O28 C18 1.270 . S
O29 Pr1 2.512 . S
O29 C18 1.248 . S
O30 Pr0 2.438 . S
O30 C19 1.267 . S
O31 Pr1 2.437 . S
O31 C19 1.278 . S
H32 C4 0.929 . S
H33 C5 0.929 . S
H34 C7 0.931 . S
H35 C8 0.930 . S
H36 C13 0.929 . S
H37 C14 0.929 . S
H38 C16 0.931 . S
H39 C17 0.930 . S
Pr40 C42 2.880 . S
Pr40 O60 2.562 . S
Pr40 O61 2.490 . S
Pr40 O62 2.695 . S
Pr40 O63 2.512 . S
Pr40 O65 2.437 . S
Pr40 O68 2.436 . S
Pr40 O70 2.438 . S
Pr41 C51 2.880 . S
Pr41 O62 2.436 . S
Pr41 O64 2.438 . S
Pr41 O66 2.562 . S
Pr41 O67 2.490 . S
Pr41 O68 2.695 . S
Pr41 O69 2.512 . S
Pr41 O71 2.437 . S
C42 Pr40 2.880 . S
C42 C43 1.491 . S
C42 O60 1.254 . S
C42 O61 1.225 . S
C43 C42 1.491 . S
C43 C44 1.392 . S
C43 C48 1.356 . S
C44 C43 1.392 . S
C44 C45 1.368 . S
C44 H72 0.929 . S
C45 C44 1.368 . S
C45 C46 1.386 . S
C45 H73 0.929 . S
C46 C45 1.386 . S
C46 C47 1.373 . S
C47 C46 1.373 . S
C47 C48 1.409 . S
C47 H74 0.931 . S
C48 C43 1.356 . S
C48 C47 1.409 . S
C48 H75 0.930 . S
C49 O62 1.270 . S
C49 O63 1.248 . S
C50 O64 1.267 . S
C50 O65 1.278 . S
C51 Pr41 2.880 . S
C51 C52 1.491 . S
C51 O66 1.254 . S
C51 O67 1.225 . S
C52 C51 1.491 . S
C52 C53 1.392 . S
C52 C57 1.356 . S
C53 C52 1.392 . S
C53 C54 1.368 . S
C53 H76 0.929 . S
C54 C53 1.368 . S
C54 C55 1.386 . S
C54 H77 0.929 . S
C55 C54 1.386 . S
C55 C56 1.373 . S
C56 C55 1.373 . S
C56 C57 1.409 . S
C56 H78 0.931 . S
C57 C52 1.356 . S
C57 C56 1.409 . S
C57 H79 0.930 . S
C58 O68 1.270 . S
C58 O69 1.248 . S
C59 O70 1.267 . S
C59 O71 1.278 . S
O60 Pr40 2.562 . S
O60 C42 1.254 . S
O61 Pr40 2.490 . S
O61 C42 1.225 . S
O62 Pr40 2.695 . S
O62 Pr41 2.436 . S
O62 C49 1.270 . S
O63 Pr40 2.512 . S
O63 C49 1.248 . S
O64 Pr41 2.438 . S
O64 C50 1.267 . S
O65 Pr40 2.437 . S
O65 C50 1.278 . S
O66 Pr41 2.562 . S
O66 C51 1.254 . S
O67 Pr41 2.490 . S
O67 C51 1.225 . S
O68 Pr40 2.436 . S
O68 Pr41 2.695 . S
O68 C58 1.270 . S
O69 Pr41 2.512 . S
O69 C58 1.248 . S
O70 Pr40 2.438 . S
O70 C59 1.267 . S
O71 Pr41 2.437 . S
O71 C59 1.278 . S
H72 C44 0.929 . S
H73 C45 0.929 . S
H74 C47 0.931 . S
H75 C48 0.930 . S
H76 C53 0.929 . S
H77 C54 0.929 . S
H78 C56 0.931 . S
H79 C57 0.930 . S
Pr80 C82 2.880 . S
Pr80 O100 2.562 . S
Pr80 O101 2.490 . S
Pr80 O102 2.695 . S
Pr80 O103 2.512 . S
Pr80 O105 2.437 . S
Pr80 O108 2.436 . S
Pr80 O110 2.438 . S
Pr81 C91 2.880 . S
Pr81 O102 2.436 . S
Pr81 O104 2.438 . S
Pr81 O106 2.562 . S
Pr81 O107 2.490 . S
Pr81 O108 2.695 . S
Pr81 O109 2.512 . S
Pr81 O111 2.437 . S
C82 Pr80 2.880 . S
C82 C83 1.491 1_556 S
C82 O100 1.254 . S
C82 O101 1.225 . S
C83 C82 1.491 1_554 S
C83 C84 1.392 . S
C83 C88 1.356 . S
C84 C83 1.392 . S
C84 C85 1.368 . S
C84 H112 0.929 . S
C85 C84 1.368 . S
C85 C86 1.386 . S
C85 H113 0.929 . S
C86 C85 1.386 . S
C86 C87 1.373 . S
C87 C86 1.373 . S
C87 C88 1.409 . S
C87 H114 0.931 . S
C88 C83 1.356 . S
C88 C87 1.409 . S
C88 H115 0.930 . S
C89 O102 1.270 . S
C89 O103 1.248 . S
C90 O104 1.267 . S
C90 O105 1.278 . S
C91 Pr81 2.880 . S
C91 C92 1.491 . S
C91 O106 1.254 . S
C91 O107 1.225 . S
C92 C91 1.491 . S
C92 C93 1.392 . S
C92 C97 1.356 . S
C93 C92 1.392 . S
C93 C94 1.368 . S
C93 H116 0.929 . S
C94 C93 1.368 . S
C94 C95 1.386 . S
C94 H117 0.929 . S
C95 C94 1.386 . S
C95 C96 1.373 . S
C96 C95 1.373 . S
C96 C97 1.409 . S
C96 H118 0.931 . S
C97 C92 1.356 . S
C97 C96 1.409 . S
C97 H119 0.930 . S
C98 O108 1.270 . S
C98 O109 1.248 . S
C99 O110 1.267 . S
C99 O111 1.278 . S
O100 Pr80 2.562 . S
O100 C82 1.254 . S
O101 Pr80 2.490 . S
O101 C82 1.225 . S
O102 Pr80 2.695 . S
O102 Pr81 2.436 . S
O102 C89 1.270 . S
O103 Pr80 2.512 . S
O103 C89 1.248 . S
O104 Pr81 2.438 . S
O104 C90 1.267 . S
O105 Pr80 2.437 . S
O105 C90 1.278 . S
O106 Pr81 2.562 . S
O106 C91 1.254 . S
O107 Pr81 2.490 . S
O107 C91 1.225 . S
O108 Pr80 2.436 . S
O108 Pr81 2.695 . S
O108 C98 1.270 . S
O109 Pr81 2.512 . S
O109 C98 1.248 . S
O110 Pr80 2.438 . S
O110 C99 1.267 . S
O111 Pr81 2.437 . S
O111 C99 1.278 . S
H112 C84 0.929 . S
H113 C85 0.929 . S
H114 C87 0.931 . S
H115 C88 0.930 . S
H116 C93 0.929 . S
H117 C94 0.929 . S
H118 C96 0.931 . S
H119 C97 0.930 . S
Pr120 C122 2.880 . S
Pr120 O140 2.562 . S
Pr120 O141 2.490 . S
Pr120 O142 2.695 . S
Pr120 O143 2.512 . S
Pr120 O145 2.437 . S
Pr120 O148 2.436 . S
Pr120 O150 2.438 . S
Pr121 C131 2.880 . S
Pr121 O142 2.436 . S
Pr121 O144 2.438 . S
Pr121 O146 2.562 . S
Pr121 O147 2.490 . S
Pr121 O148 2.695 . S
Pr121 O149 2.512 . S
Pr121 O151 2.437 . S
C122 Pr120 2.880 . S
C122 C123 1.491 1_554 S
C122 O140 1.254 . S
C122 O141 1.225 . S
C123 C122 1.491 1_556 S
C123 C124 1.392 . S
C123 C128 1.356 . S
C124 C123 1.392 . S
C124 C125 1.368 . S
C124 H152 0.929 . S
C125 C124 1.368 . S
C125 C126 1.386 . S
C125 H153 0.929 . S
C126 C125 1.386 . S
C126 C127 1.373 . S
C127 C126 1.373 . S
C127 C128 1.409 . S
C127 H154 0.931 . S
C128 C123 1.356 . S
C128 C127 1.409 . S
C128 H155 0.930 . S
C129 O142 1.270 . S
C129 O143 1.248 . S
C130 O144 1.267 . S
C130 O145 1.278 . S
C131 Pr121 2.880 . S
C131 C132 1.491 . S
C131 O146 1.254 . S
C131 O147 1.225 . S
C132 C131 1.491 . S
C132 C133 1.392 . S
C132 C137 1.356 . S
C133 C132 1.392 . S
C133 C134 1.368 . S
C133 H156 0.929 . S
C134 C133 1.368 . S
C134 C135 1.386 . S
C134 H157 0.929 . S
C135 C134 1.386 . S
C135 C136 1.373 . S
C136 C135 1.373 . S
C136 C137 1.409 . S
C136 H158 0.931 . S
C137 C132 1.356 . S
C137 C136 1.409 . S
C137 H159 0.930 . S
C138 O148 1.270 . S
C138 O149 1.248 . S
C139 O150 1.267 . S
C139 O151 1.278 . S
O140 Pr120 2.562 . S
O140 C122 1.254 . S
O141 Pr120 2.490 . S
O141 C122 1.225 . S
O142 Pr120 2.695 . S
O142 Pr121 2.436 . S
O142 C129 1.270 . S
O143 Pr120 2.512 . S
O143 C129 1.248 . S
O144 Pr121 2.438 . S
O144 C130 1.267 . S
O145 Pr120 2.437 . S
O145 C130 1.278 . S
O146 Pr121 2.562 . S
O146 C131 1.254 . S
O147 Pr121 2.490 . S
O147 C131 1.225 . S
O148 Pr120 2.436 . S
O148 Pr121 2.695 . S
O148 C138 1.270 . S
O149 Pr121 2.512 . S
O149 C138 1.248 . S
O150 Pr120 2.438 . S
O150 C139 1.267 . S
O151 Pr121 2.437 . S
O151 C139 1.278 . S
H152 C124 0.929 . S
H153 C125 0.929 . S
H154 C127 0.931 . S
H155 C128 0.930 . S
H156 C133 0.929 . S
H157 C134 0.929 . S
H158 C136 0.931 . S
H159 C137 0.930 . S
Pr160 C162 2.880 . S
Pr160 O180 2.562 . S
Pr160 O181 2.490 . S
Pr160 O182 2.695 . S
Pr160 O183 2.512 . S
Pr160 O185 2.437 . S
Pr160 O188 2.436 . S
Pr160 O190 2.438 . S
Pr161 C171 2.880 . S
Pr161 O182 2.436 . S
Pr161 O184 2.438 . S
Pr161 O186 2.562 . S
Pr161 O187 2.490 . S
Pr161 O188 2.695 . S
Pr161 O189 2.512 . S
Pr161 O191 2.437 . S
C162 Pr160 2.880 . S
C162 C163 1.491 . S
C162 O180 1.254 . S
C162 O181 1.225 . S
C163 C162 1.491 . S
C163 C164 1.392 . S
C163 C168 1.356 . S
C164 C163 1.392 . S
C164 C165 1.368 . S
C164 H192 0.929 . S
C165 C164 1.368 . S
C165 C166 1.386 . S
C165 H193 0.929 . S
C166 C165 1.386 . S
C166 C167 1.373 . S
C167 C166 1.373 . S
C167 C168 1.409 . S
C167 H194 0.931 . S
C168 C163 1.356 . S
C168 C167 1.409 . S
C168 H195 0.930 . S
C169 O182 1.270 . S
C169 O183 1.248 . S
C170 O184 1.267 . S
C170 O185 1.278 . S
C171 Pr161 2.880 . S
C171 C172 1.491 . S
C171 O186 1.254 . S
C171 O187 1.225 . S
C172 C171 1.491 . S
C172 C173 1.392 . S
C172 C177 1.356 . S
C173 C172 1.392 . S
C173 C174 1.368 . S
C173 H196 0.929 . S
C174 C173 1.368 . S
C174 C175 1.386 . S
C174 H197 0.929 . S
C175 C174 1.386 . S
C175 C176 1.373 . S
C176 C175 1.373 . S
C176 C177 1.409 . S
C176 H198 0.931 . S
C177 C172 1.356 . S
C177 C176 1.409 . S
C177 H199 0.930 . S
C178 O188 1.270 . S
C178 O189 1.248 . S
C179 O190 1.267 . S
C179 O191 1.278 . S
O180 Pr160 2.562 . S
O180 C162 1.254 . S
O181 Pr160 2.490 . S
O181 C162 1.225 . S
O182 Pr160 2.695 . S
O182 Pr161 2.436 . S
O182 C169 1.270 . S
O183 Pr160 2.512 . S
O183 C169 1.248 . S
O184 Pr161 2.438 . S
O184 C170 1.267 . S
O185 Pr160 2.437 . S
O185 C170 1.278 . S
O186 Pr161 2.562 . S
O186 C171 1.254 . S
O187 Pr161 2.490 . S
O187 C171 1.225 . S
O188 Pr160 2.436 . S
O188 Pr161 2.695 . S
O188 C178 1.270 . S
O189 Pr161 2.512 . S
O189 C178 1.248 . S
O190 Pr160 2.438 . S
O190 C179 1.267 . S
O191 Pr161 2.437 . S
O191 C179 1.278 . S
H192 C164 0.929 . S
H193 C165 0.929 . S
H194 C167 0.931 . S
H195 C168 0.930 . S
H196 C173 0.929 . S
H197 C174 0.929 . S
H198 C176 0.931 . S
H199 C177 0.930 . S
Pr200 C202 2.880 . S
Pr200 O220 2.562 . S
Pr200 O221 2.490 . S
Pr200 O222 2.695 . S
Pr200 O223 2.512 . S
Pr200 O225 2.437 . S
Pr200 O228 2.436 . S
Pr200 O230 2.438 . S
Pr201 C211 2.880 1_556 S
Pr201 O222 2.436 . S
Pr201 O224 2.438 . S
Pr201 O226 2.562 1_556 S
Pr201 O227 2.490 1_556 S
Pr201 O228 2.695 . S
Pr201 O229 2.512 . S
Pr201 O231 2.437 1_556 S
C202 Pr200 2.880 . S
C202 C203 1.491 . S
C202 O220 1.254 . S
C202 O221 1.225 . S
C203 C202 1.491 . S
C203 C204 1.392 . S
C203 C208 1.356 . S
C204 C203 1.392 . S
C204 C205 1.368 . S
C204 H232 0.929 . S
C205 C204 1.368 . S
C205 C206 1.386 . S
C205 H233 0.929 . S
C206 C205 1.386 . S
C206 C207 1.373 . S
C207 C206 1.373 . S
C207 C208 1.409 . S
C207 H234 0.931 . S
C208 C203 1.356 . S
C208 C207 1.409 . S
C208 H235 0.930 . S
C209 O222 1.270 . S
C209 O223 1.248 . S
C210 O224 1.267 . S
C210 O225 1.278 . S
C211 Pr201 2.880 1_554 S
C211 C212 1.491 . S
C211 O226 1.254 . S
C211 O227 1.225 . S
C212 C211 1.491 . S
C212 C213 1.392 . S
C212 C217 1.356 . S
C213 C212 1.392 . S
C213 C214 1.368 . S
C213 H236 0.929 . S
C214 C213 1.368 . S
C214 C215 1.386 . S
C214 H237 0.929 . S
C215 C214 1.386 . S
C215 C216 1.373 . S
C216 C215 1.373 . S
C216 C217 1.409 . S
C216 H238 0.931 . S
C217 C212 1.356 . S
C217 C216 1.409 . S
C217 H239 0.930 . S
C218 O228 1.270 . S
C218 O229 1.248 . S
C219 O230 1.267 . S
C219 O231 1.278 1_556 S
O220 Pr200 2.562 . S
O220 C202 1.254 . S
O221 Pr200 2.490 . S
O221 C202 1.225 . S
O222 Pr200 2.695 . S
O222 Pr201 2.436 . S
O222 C209 1.270 . S
O223 Pr200 2.512 . S
O223 C209 1.248 . S
O224 Pr201 2.438 . S
O224 C210 1.267 . S
O225 Pr200 2.437 . S
O225 C210 1.278 . S
O226 Pr201 2.562 1_554 S
O226 C211 1.254 . S
O227 Pr201 2.490 1_554 S
O227 C211 1.225 . S
O228 Pr200 2.436 . S
O228 Pr201 2.695 . S
O228 C218 1.270 . S
O229 Pr201 2.512 . S
O229 C218 1.248 . S
O230 Pr200 2.438 . S
O230 C219 1.267 . S
O231 Pr201 2.437 1_554 S
O231 C219 1.278 1_554 S
H232 C204 0.929 . S
H233 C205 0.929 . S
H234 C207 0.931 . S
H235 C208 0.930 . S
H236 C213 0.929 . S
H237 C214 0.929 . S
H238 C216 0.931 . S
H239 C217 0.930 . S
C240 C241 1.363 . S
C240 C246 1.379 . S
C240 N248 1.356 . S
C241 C240 1.363 . S
C241 C247 1.363 1_556 S
C242 C243 1.363 . S
C242 C247 1.379 . S
C242 N249 1.356 . S
C243 C242 1.363 . S
C243 C246 1.363 1_554 S
N244 C246 1.356 . S
N244 H256 0.984 . S
N244 H257 0.985 1_556 S
N245 C247 1.356 . S
N245 H250 0.984 . S
N245 H251 0.985 . S
C246 C240 1.379 . S
C246 C243 1.363 1_556 S
C246 N244 1.356 . S
C247 C241 1.363 1_554 S
C247 C242 1.379 . S
C247 N245 1.356 . S
N248 C240 1.356 . S
N248 H254 0.984 . S
N248 H255 0.984 . S
N249 C242 1.356 . S
N249 H252 0.984 . S
N249 H253 0.985 . S
H250 N245 0.984 . S
H251 N245 0.985 . S
H252 N249 0.984 . S
H253 N249 0.985 . S
H254 N248 0.984 . S
H255 N248 0.984 . S
H256 N244 0.984 . S
H257 N244 0.985 1_554 S
C258 C259 1.363 . S
C258 C264 1.379 . S
C258 N266 1.356 . S
C259 C258 1.363 . S
C259 C265 1.363 1_455 S
C260 C261 1.363 . S
C260 C265 1.379 . S
C260 N267 1.356 . S
C261 C260 1.363 . S
C261 C264 1.363 1_655 S
N262 C264 1.356 . S
N262 H274 0.984 . S
N262 H275 0.985 . S
N263 C265 1.356 . S
N263 H268 0.984 . S
N263 H269 0.985 . S
C264 C258 1.379 . S
C264 C261 1.363 1_455 S
C264 N262 1.356 . S
C265 C259 1.363 1_655 S
C265 C260 1.379 . S
C265 N263 1.356 . S
N266 C258 1.356 . S
N266 H272 0.984 . S
N266 H273 0.984 . S
N267 C260 1.356 . S
N267 H270 0.984 . S
N267 H271 0.985 . S
H268 N263 0.984 . S
H269 N263 0.985 . S
H270 N267 0.984 . S
H271 N267 0.985 . S
H272 N266 0.984 . S
H273 N266 0.984 . S
H274 N262 0.984 . S
H275 N262 0.985 . S
C276 C277 1.363 . S
C276 C282 1.379 1_545 S
C276 N284 1.356 . S
C277 C276 1.363 . S
C277 C283 1.363 . S
C278 C279 1.363 . S
C278 C283 1.379 1_565 S
C278 N285 1.356 . S
C279 C278 1.363 . S
C279 C282 1.363 . S
N280 C282 1.356 . S
N280 H292 0.984 . S
N280 H293 0.985 . S
N281 C283 1.356 . S
N281 H286 0.984 . S
N281 H287 0.985 . S
C282 C276 1.379 1_565 S
C282 C279 1.363 . S
C282 N280 1.356 . S
C283 C277 1.363 . S
C283 C278 1.379 1_545 S
C283 N281 1.356 . S
N284 C276 1.356 . S
N284 H290 0.984 . S
N284 H291 0.984 . S
N285 C278 1.356 . S
N285 H288 0.984 . S
N285 H289 0.985 . S
H286 N281 0.984 . S
H287 N281 0.985 . S
H288 N285 0.984 . S
H289 N285 0.985 . S
H290 N284 0.984 . S
H291 N284 0.984 . S
H292 N280 0.984 . S
H293 N280 0.985 . S
C294 C295 1.363 . S
C294 C300 1.379 1_556 S
C294 N302 1.356 . S
C295 C294 1.363 . S
C295 C301 1.363 . S
C296 C297 1.363 . S
C296 C301 1.379 1_554 S
C296 N303 1.356 . S
C297 C296 1.363 . S
C297 C300 1.363 . S
N298 C300 1.356 . S
N298 H310 0.984 . S
N298 H311 0.985 . S
N299 C301 1.356 . S
N299 H304 0.984 . S
N299 H305 0.985 . S
C300 C294 1.379 1_554 S
C300 C297 1.363 . S
C300 N298 1.356 . S
C301 C295 1.363 . S
C301 C296 1.379 1_556 S
C301 N299 1.356 . S
N302 C294 1.356 . S
N302 H308 0.984 . S
N302 H309 0.984 . S
N303 C296 1.356 . S
N303 H306 0.984 . S
N303 H307 0.985 . S
H304 N299 0.984 . S
H305 N299 0.985 . S
H306 N303 0.984 . S
H307 N303 0.985 . S
H308 N302 0.984 . S
H309 N302 0.984 . S
H310 N298 0.984 . S
H311 N298 0.985 . S
C312 C313 1.363 . S
C312 C318 1.379 1_455 S
C312 N320 1.356 . S
C313 C312 1.363 . S
C313 C319 1.363 . S
C314 C315 1.363 . S
C314 C319 1.379 1_655 S
C314 N321 1.356 . S
C315 C314 1.363 . S
C315 C318 1.363 . S
N316 C318 1.356 . S
N316 H328 0.984 . S
N316 H329 0.985 . S
N317 C319 1.356 . S
N317 H322 0.984 . S
N317 H323 0.985 . S
C318 C312 1.379 1_655 S
C318 C315 1.363 . S
C318 N316 1.356 . S
C319 C313 1.363 . S
C319 C314 1.379 1_455 S
C319 N317 1.356 . S
N320 C312 1.356 . S
N320 H326 0.984 . S
N320 H327 0.984 . S
N321 C314 1.356 . S
N321 H324 0.984 . S
N321 H325 0.985 . S
H322 N317 0.984 . S
H323 N317 0.985 . S
H324 N321 0.984 . S
H325 N321 0.985 . S
H326 N320 0.984 . S
H327 N320 0.984 . S
H328 N316 0.984 . S
H329 N316 0.985 . S
C330 C331 1.363 . S
C330 C336 1.379 . S
C330 N338 1.356 . S
C331 C330 1.363 . S
C331 C337 1.363 1_545 S
C332 C333 1.363 . S
C332 C337 1.379 . S
C332 N339 1.356 . S
C333 C332 1.363 . S
C333 C336 1.363 1_565 S
N334 C336 1.356 . S
N334 H346 0.984 . S
N334 H347 0.985 . S
N335 C337 1.356 . S
N335 H340 0.984 . S
N335 H341 0.985 . S
C336 C330 1.379 . S
C336 C333 1.363 1_545 S
C336 N334 1.356 . S
C337 C331 1.363 1_565 S
C337 C332 1.379 . S
C337 N335 1.356 . S
N338 C330 1.356 . S
N338 H344 0.984 . S
N338 H345 0.984 . S
N339 C332 1.356 . S
N339 H342 0.984 . S
N339 H343 0.985 . S
H340 N335 0.984 . S
H341 N335 0.985 . S
H342 N339 0.984 . S
H343 N339 0.985 . S
H344 N338 0.984 . S
H345 N338 0.984 . S
H346 N334 0.984 . S
H347 N334 0.985 . S
C348 C349 1.363 . S
C348 C354 1.379 . S
C348 N356 1.356 . S
C349 C348 1.363 . S
C349 C355 1.363 . S
C350 C351 1.363 . S
C350 C355 1.379 . S
C350 N357 1.356 . S
C351 C350 1.363 . S
C351 C354 1.363 . S
N352 C354 1.356 . S
N352 H364 0.984 . S
N352 H365 0.985 . S
N353 C355 1.356 . S
N353 H358 0.984 . S
N353 H359 0.985 . S
C354 C348 1.379 . S
C354 C351 1.363 . S
C354 N352 1.356 . S
C355 C349 1.363 . S
C355 C350 1.379 . S
C355 N353 1.356 . S
N356 C348 1.356 . S
N356 H362 0.984 . S
N356 H363 0.984 . S
N357 C350 1.356 . S
N357 H360 0.984 . S
N357 H361 0.985 . S
H358 N353 0.984 . S
H359 N353 0.985 . S
H360 N357 0.984 . S
H361 N357 0.985 . S
H362 N356 0.984 . S
H363 N356 0.984 . S
H364 N352 0.984 . S
H365 N352 0.985 . S
C366 C367 1.363 . S
C366 C372 1.379 . S
C366 N374 1.356 . S
C367 C366 1.363 . S
C367 C373 1.363 . S
C368 C369 1.363 . S
C368 C373 1.379 . S
C368 N375 1.356 1_554 S
C369 C368 1.363 . S
C369 C372 1.363 . S
N370 C372 1.356 . S
N370 H382 0.984 . S
N370 H383 0.985 . S
N371 C373 1.356 . S
N371 H376 0.984 . S
N371 H377 0.985 . S
C372 C366 1.379 . S
C372 C369 1.363 . S
C372 N370 1.356 . S
C373 C367 1.363 . S
C373 C368 1.379 . S
C373 N371 1.356 . S
N374 C366 1.356 . S
N374 H380 0.984 . S
N374 H381 0.984 . S
N375 C368 1.356 1_556 S
N375 H378 0.984 . S
N375 H379 0.985 . S
H376 N371 0.984 . S
H377 N371 0.985 . S
H378 N375 0.984 . S
H379 N375 0.985 . S
H380 N374 0.984 . S
H381 N374 0.984 . S
H382 N370 0.984 . S
H383 N370 0.985 . S
C384 C385 1.363 . S
C384 C390 1.379 . S
C384 N392 1.356 . S
C385 C384 1.363 . S
C385 C391 1.363 . S
C386 C387 1.363 . S
C386 C391 1.379 . S
C386 N393 1.356 . S
C387 C386 1.363 . S
C387 C390 1.363 . S
N388 C390 1.356 . S
N388 H400 0.984 . S
N388 H401 0.985 . S
N389 C391 1.356 . S
N389 H394 0.984 . S
N389 H395 0.985 . S
C390 C384 1.379 . S
C390 C387 1.363 . S
C390 N388 1.356 . S
C391 C385 1.363 . S
C391 C386 1.379 . S
C391 N389 1.356 . S
N392 C384 1.356 . S
N392 H398 0.984 . S
N392 H399 0.984 . S
N393 C386 1.356 . S
N393 H396 0.984 . S
N393 H397 0.985 . S
H394 N389 0.984 . S
H395 N389 0.985 . S
H396 N393 0.984 . S
H397 N393 0.985 . S
H398 N392 0.984 . S
H399 N392 0.984 . S
H400 N388 0.984 . S
H401 N388 0.985 . S
C402 C403 1.363 . S
C402 C408 1.379 . S
C402 N410 1.356 . S
C403 C402 1.363 . S
C403 C409 1.363 . S
C404 C405 1.363 . S
C404 C409 1.379 . S
C404 N411 1.356 . S
C405 C404 1.363 . S
C405 C408 1.363 . S
N406 C408 1.356 . S
N406 H418 0.984 . S
N406 H419 0.985 . S
N407 C409 1.356 . S
N407 H412 0.984 . S
N407 H413 0.985 . S
C408 C402 1.379 . S
C408 C405 1.363 . S
C408 N406 1.356 . S
C409 C403 1.363 . S
C409 C404 1.379 . S
C409 N407 1.356 . S
N410 C402 1.356 . S
N410 H416 0.984 . S
N410 H417 0.984 . S
N411 C404 1.356 . S
N411 H414 0.984 . S
N411 H415 0.985 . S
H412 N407 0.984 . S
H413 N407 0.985 . S
H414 N411 0.984 . S
H415 N411 0.985 . S
H416 N410 0.984 . S
H417 N410 0.984 . S
H418 N406 0.984 . S
H419 N406 0.985 . S
C420 C421 1.363 . S
C420 C426 1.379 . S
C420 N428 1.356 . S
C421 C420 1.363 . S
C421 C427 1.363 . S
C422 C423 1.363 1_554 S
C422 C427 1.379 1_554 S
C422 N429 1.356 . S
C423 C422 1.363 1_556 S
C423 C426 1.363 . S
N424 C426 1.356 . S
N424 H436 0.984 . S
N424 H437 0.985 . S
N425 C427 1.356 . S
N425 H430 0.984 . S
N425 H431 0.985 1_556 S
C426 C420 1.379 . S
C426 C423 1.363 . S
C426 N424 1.356 . S
C427 C421 1.363 . S
C427 C422 1.379 1_556 S
C427 N425 1.356 . S
N428 C420 1.356 . S
N428 H434 0.984 . S
N428 H435 0.984 . S
N429 C422 1.356 . S
N429 H432 0.984 . S
N429 H433 0.985 . S
H430 N425 0.984 . S
H431 N425 0.985 1_554 S
H432 N429 0.984 . S
H433 N429 0.985 . S
H434 N428 0.984 . S
H435 N428 0.984 . S
H436 N424 0.984 . S
H437 N424 0.985 . S
C438 C439 1.363 . S
C438 C444 1.379 . S
C438 N446 1.356 . S
C439 C438 1.363 . S
C439 C445 1.363 . S
C440 C441 1.363 . S
C440 C445 1.379 . S
C440 N447 1.356 . S
C441 C440 1.363 . S
C441 C444 1.363 . S
N442 C444 1.356 . S
N442 H454 0.984 . S
N442 H455 0.985 . S
N443 C445 1.356 . S
N443 H448 0.984 . S
N443 H449 0.985 . S
C444 C438 1.379 . S
C444 C441 1.363 . S
C444 N442 1.356 . S
C445 C439 1.363 . S
C445 C440 1.379 . S
C445 N443 1.356 . S
N446 C438 1.356 . S
N446 H452 0.984 . S
N446 H453 0.984 . S
N447 C440 1.356 . S
N447 H450 0.984 . S
N447 H451 0.985 . S
H448 N443 0.984 . S
H449 N443 0.985 . S
H450 N447 0.984 . S
H451 N447 0.985 . S
H452 N446 0.984 . S
H453 N446 0.984 . S
H454 N442 0.984 . S
H455 N442 0.985 . S
C456 C457 1.363 . S
C456 C462 1.379 . S
C456 N464 1.356 . S
C457 C456 1.363 . S
C457 C463 1.363 . S
C458 C459 1.363 . S
C458 C463 1.379 . S
C458 N465 1.356 . S
C459 C458 1.363 . S
C459 C462 1.363 . S
N460 C462 1.356 . S
N460 H472 0.984 . S
N460 H473 0.985 . S
N461 C463 1.356 . S
N461 H466 0.984 . S
N461 H467 0.985 . S
C462 C456 1.379 . S
C462 C459 1.363 . S
C462 N460 1.356 . S
C463 C457 1.363 . S
C463 C458 1.379 . S
C463 N461 1.356 . S
N464 C456 1.356 . S
N464 H470 0.984 . S
N464 H471 0.984 . S
N465 C458 1.356 . S
N465 H468 0.984 . S
N465 H469 0.985 . S
H466 N461 0.984 . S
H467 N461 0.985 . S
H468 N465 0.984 . S
H469 N465 0.985 . S
H470 N464 0.984 . S
H471 N464 0.984 . S
H472 N460 0.984 . S
H473 N460 0.985 . S
C474 C475 1.363 . S
C474 C480 1.379 . S
C474 N482 1.356 . S
C475 C474 1.363 . S
C475 C481 1.363 . S
C476 C477 1.363 . S
C476 C481 1.379 . S
C476 N483 1.356 . S
C477 C476 1.363 . S
C477 C480 1.363 . S
N478 C480 1.356 . S
N478 H490 0.984 1_545 S
N478 H491 0.985 . S
N479 C481 1.356 . S
N479 H484 0.984 . S
N479 H485 0.985 . S
C480 C474 1.379 . S
C480 C477 1.363 . S
C480 N478 1.356 . S
C481 C475 1.363 . S
C481 C476 1.379 . S
C481 N479 1.356 . S
N482 C474 1.356 . S
N482 H488 0.984 . S
N482 H489 0.984 . S
N483 C476 1.356 . S
N483 H486 0.984 . S
N483 H487 0.985 . S
H484 N479 0.984 . S
H485 N479 0.985 . S
H486 N483 0.984 . S
H487 N483 0.985 . S
H488 N482 0.984 . S
H489 N482 0.984 . S
H490 N478 0.984 1_565 S
H491 N478 0.985 . S
C492 C493 1.363 . S
C492 C498 1.379 . S
C492 N500 1.356 . S
C493 C492 1.363 . S
C493 C499 1.363 . S
C494 C495 1.363 . S
C494 C499 1.379 . S
C494 N501 1.356 . S
C495 C494 1.363 . S
C495 C498 1.363 . S
N496 C498 1.356 . S
N496 H508 0.984 . S
N496 H509 0.985 . S
N497 C499 1.356 . S
N497 H502 0.984 1_556 S
N497 H503 0.985 . S
C498 C492 1.379 . S
C498 C495 1.363 . S
C498 N496 1.356 . S
C499 C493 1.363 . S
C499 C494 1.379 . S
C499 N497 1.356 . S
N500 C492 1.356 . S
N500 H506 0.984 . S
N500 H507 0.984 1_556 S
N501 C494 1.356 . S
N501 H504 0.984 . S
N501 H505 0.985 . S
H502 N497 0.984 1_554 S
H503 N497 0.985 . S
H504 N501 0.984 . S
H505 N501 0.985 . S
H506 N500 0.984 . S
H507 N500 0.984 1_554 S
H508 N496 0.984 . S
H509 N496 0.985 . S
C510 C511 1.363 . S
C510 C516 1.379 . S
C510 N518 1.356 . S
C511 C510 1.363 . S
C511 C517 1.363 . S
C512 C513 1.363 . S
C512 C517 1.379 . S
C512 N519 1.356 . S
C513 C512 1.363 . S
C513 C516 1.363 . S
N514 C516 1.356 . S
N514 H526 0.984 . S
N514 H527 0.985 . S
N515 C517 1.356 . S
N515 H520 0.984 . S
N515 H521 0.985 . S
C516 C510 1.379 . S
C516 C513 1.363 . S
C516 N514 1.356 . S
C517 C511 1.363 . S
C517 C512 1.379 . S
C517 N515 1.356 . S
N518 C510 1.356 . S
N518 H524 0.984 . S
N518 H525 0.984 . S
N519 C512 1.356 . S
N519 H522 0.984 . S
N519 H523 0.985 . S
H520 N515 0.984 . S
H521 N515 0.985 . S
H522 N519 0.984 . S
H523 N519 0.985 . S
H524 N518 0.984 . S
H525 N518 0.984 . S
H526 N514 0.984 . S
H527 N514 0.985 . S
C528 C529 1.363 . S
C528 C534 1.379 . S
C528 N536 1.356 . S
C529 C528 1.363 . S
C529 C535 1.363 . S
C530 C531 1.363 . S
C530 C535 1.379 . S
C530 N537 1.356 . S
C531 C530 1.363 . S
C531 C534 1.363 . S
N532 C534 1.356 . S
N532 H544 0.984 . S
N532 H545 0.985 . S
N533 C535 1.356 . S
N533 H538 0.984 . S
N533 H539 0.985 1_565 S
C534 C528 1.379 . S
C534 C531 1.363 . S
C534 N532 1.356 . S
C535 C529 1.363 . S
C535 C530 1.379 . S
C535 N533 1.356 . S
N536 C528 1.356 . S
N536 H542 0.984 . S
N536 H543 0.984 . S
N537 C530 1.356 . S
N537 H540 0.984 . S
N537 H541 0.985 . S
H538 N533 0.984 . S
H539 N533 0.985 1_545 S
H540 N537 0.984 . S
H541 N537 0.985 . S
H542 N536 0.984 . S
H543 N536 0.984 . S
H544 N532 0.984 . S
H545 N532 0.985 . S
C546 C547 1.363 . S
C546 C552 1.379 . S
C546 N554 1.356 . S
C547 C546 1.363 . S
C547 C553 1.363 . S
C548 C549 1.363 . S
C548 C553 1.379 . S
C548 N555 1.356 . S
C549 C548 1.363 . S
C549 C552 1.363 . S
N550 C552 1.356 . S
N550 H562 0.984 . S
N550 H563 0.985 . S
N551 C553 1.356 . S
N551 H556 0.984 . S
N551 H557 0.985 . S
C552 C546 1.379 . S
C552 C549 1.363 . S
C552 N550 1.356 . S
C553 C547 1.363 . S
C553 C548 1.379 . S
C553 N551 1.356 . S
N554 C546 1.356 . S
N554 H560 0.984 . S
N554 H561 0.984 . S
N555 C548 1.356 . S
N555 H558 0.984 . S
N555 H559 0.985 . S
H556 N551 0.984 . S
H557 N551 0.985 . S
H558 N555 0.984 . S
H559 N555 0.985 . S
H560 N554 0.984 . S
H561 N554 0.984 . S
H562 N550 0.984 . S
H563 N550 0.985 . S
C241 C209 1.444 . S
C243 C9 1.444 . S
C259 C10 2.009 . S
C261 C50 2.009 . S
C277 C49 1.444 . S
C279 C89 1.444 . S
C295 C90 2.009 . S
C297 C130 2.009 . S
C313 C169 1.444 . S
C315 C129 1.444 . S
C331 C210 2.009 . S
C333 C170 2.009 . S
C349 C15 1.916 . S
C351 C6 1.916 . S
C367 C46 1.916 . S
C369 C55 1.916 1_554 S
C385 C95 1.916 . S
C387 C86 1.916 . S
C403 C126 1.916 . S
C405 C135 1.916 . S
C421 C166 1.916 . S
C423 C175 1.916 1_556 S
C439 C206 1.916 . S
C441 C215 1.916 . S
C457 C18 1.954 . S
C459 C179 1.966 . S
C475 C59 1.966 . S
C477 C218 1.954 . S
C493 C19 1.966 1_556 S
C495 C98 1.954 . S
C511 C58 1.954 . S
C513 C139 1.966 . S
C529 C178 1.954 . S
C531 C99 1.966 . S
C547 C138 1.954 . S
C549 C219 1.966 1_554 S
