# Generated by pormake.
# Topology skb, (5)-cn, num edge types: 1
# Building blocks:
#     Node 0, Type 0, BuildingBlock: XOMCOT_clean_sbu_1, # of connection points: 5
#     Node 1, Type 0, BuildingBlock: XOMCOT_clean_sbu_1, # of connection points: 5
#     Node 2, Type 0, BuildingBlock: XOMCOT_clean_sbu_1, # of connection points: 5
#     Node 3, Type 0, BuildingBlock: XOMCOT_clean_sbu_1, # of connection points: 5
#     Node 4, Type 0, BuildingBlock: XOMCOT_clean_sbu_1, # of connection points: 5
#     Node 5, Type 0, BuildingBlock: XOMCOT_clean_sbu_1, # of connection points: 5
#     Node 6, Type 0, BuildingBlock: XOMCOT_clean_sbu_1, # of connection points: 5
#     Node 7, Type 0, BuildingBlock: XOMCOT_clean_sbu_1, # of connection points: 5
#     Node 8, Type 0, BuildingBlock: XOMCOT_clean_sbu_1, # of connection points: 5
#     Node 9, Type 0, BuildingBlock: XOMCOT_clean_sbu_1, # of connection points: 5
#     Node 10, Type 0, BuildingBlock: XOMCOT_clean_sbu_1, # of connection points: 5
#     Node 11, Type 0, BuildingBlock: XOMCOT_clean_sbu_1, # of connection points: 5
#     Node 12, Type 0, BuildingBlock: XOMCOT_clean_sbu_1, # of connection points: 5
#     Node 13, Type 0, BuildingBlock: XOMCOT_clean_sbu_1, # of connection points: 5
#     Node 14, Type 0, BuildingBlock: XOMCOT_clean_sbu_1, # of connection points: 5
#     Node 15, Type 0, BuildingBlock: XOMCOT_clean_sbu_1, # of connection points: 5
#     Edge 16, Type (0, 0), BuildingBlock: XIVTED_clean_linker_0, # of connection points: 2
#     Edge 17, Type (0, 0), BuildingBlock: XIVTED_clean_linker_0, # of connection points: 2
#     Edge 18, Type (0, 0), BuildingBlock: XIVTED_clean_linker_0, # of connection points: 2
#     Edge 19, Type (0, 0), BuildingBlock: XIVTED_clean_linker_0, # of connection points: 2
#     Edge 20, Type (0, 0), BuildingBlock: XIVTED_clean_linker_0, # of connection points: 2
#     Edge 21, Type (0, 0), BuildingBlock: XIVTED_clean_linker_0, # of connection points: 2
#     Edge 22, Type (0, 0), BuildingBlock: XIVTED_clean_linker_0, # of connection points: 2
#     Edge 23, Type (0, 0), BuildingBlock: XIVTED_clean_linker_0, # of connection points: 2
#     Edge 24, Type (0, 0), BuildingBlock: XIVTED_clean_linker_0, # of connection points: 2
#     Edge 25, Type (0, 0), BuildingBlock: XIVTED_clean_linker_0, # of connection points: 2
#     Edge 26, Type (0, 0), BuildingBlock: XIVTED_clean_linker_0, # of connection points: 2
#     Edge 27, Type (0, 0), BuildingBlock: XIVTED_clean_linker_0, # of connection points: 2
#     Edge 28, Type (0, 0), BuildingBlock: XIVTED_clean_linker_0, # of connection points: 2
#     Edge 29, Type (0, 0), BuildingBlock: XIVTED_clean_linker_0, # of connection points: 2
#     Edge 30, Type (0, 0), BuildingBlock: XIVTED_clean_linker_0, # of connection points: 2
#     Edge 31, Type (0, 0), BuildingBlock: XIVTED_clean_linker_0, # of connection points: 2
#     Edge 32, Type (0, 0), BuildingBlock: XIVTED_clean_linker_0, # of connection points: 2
#     Edge 33, Type (0, 0), BuildingBlock: XIVTED_clean_linker_0, # of connection points: 2
#     Edge 34, Type (0, 0), BuildingBlock: XIVTED_clean_linker_0, # of connection points: 2
#     Edge 35, Type (0, 0), BuildingBlock: XIVTED_clean_linker_0, # of connection points: 2
#     Edge 36, Type (0, 0), BuildingBlock: XIVTED_clean_linker_0, # of connection points: 2
#     Edge 37, Type (0, 0), BuildingBlock: XIVTED_clean_linker_0, # of connection points: 2
#     Edge 38, Type (0, 0), BuildingBlock: XIVTED_clean_linker_0, # of connection points: 2
#     Edge 39, Type (0, 0), BuildingBlock: XIVTED_clean_linker_0, # of connection points: 2
#     Edge 40, Type (0, 0), BuildingBlock: XIVTED_clean_linker_0, # of connection points: 2
#     Edge 41, Type (0, 0), BuildingBlock: XIVTED_clean_linker_0, # of connection points: 2
#     Edge 42, Type (0, 0), BuildingBlock: XIVTED_clean_linker_0, # of connection points: 2
#     Edge 43, Type (0, 0), BuildingBlock: XIVTED_clean_linker_0, # of connection points: 2
#     Edge 44, Type (0, 0), BuildingBlock: XIVTED_clean_linker_0, # of connection points: 2
#     Edge 45, Type (0, 0), BuildingBlock: XIVTED_clean_linker_0, # of connection points: 2
#     Edge 46, Type (0, 0), BuildingBlock: XIVTED_clean_linker_0, # of connection points: 2
#     Edge 47, Type (0, 0), BuildingBlock: XIVTED_clean_linker_0, # of connection points: 2
#     Edge 48, Type (0, 0), BuildingBlock: XIVTED_clean_linker_0, # of connection points: 2
#     Edge 49, Type (0, 0), BuildingBlock: XIVTED_clean_linker_0, # of connection points: 2
#     Edge 50, Type (0, 0), BuildingBlock: XIVTED_clean_linker_0, # of connection points: 2
#     Edge 51, Type (0, 0), BuildingBlock: XIVTED_clean_linker_0, # of connection points: 2
#     Edge 52, Type (0, 0), BuildingBlock: XIVTED_clean_linker_0, # of connection points: 2
#     Edge 53, Type (0, 0), BuildingBlock: XIVTED_clean_linker_0, # of connection points: 2
#     Edge 54, Type (0, 0), BuildingBlock: XIVTED_clean_linker_0, # of connection points: 2
#     Edge 55, Type (0, 0), BuildingBlock: XIVTED_clean_linker_0, # of connection points: 2
# Relax obj value: 0.061
# Max RMSD: 0.108
# Mean RMSD: 0.108
data_MOF--net-skb--node1-XOMCOT_clean_sbu_1--edge1-XIVTED_clean_linker_0
_symmetry_space_group_name_H-M    P1
_symmetry_Int_Tables_number       1
_symmetry_cell_setting            triclinic
loop_
_symmetry_equiv_pos_as_xyz
'x, y, z'
_cell_length_a     49.381323
_cell_length_b     27.726508
_cell_length_c     69.121113
_cell_angle_alpha  90.010051
_cell_angle_beta   90.067975
_cell_angle_gamma 89.91304
loop_
_atom_site_label
_atom_site_type_symbol
_atom_site_fract_x
_atom_site_fract_y
_atom_site_fract_z
_atom_type_partial_charge
C0 C 0.18029 0.10646 0.11549 0.0
C1 C 0.18256 0.10985 0.09575 0.0
N2 N 0.19097 0.06694 0.08878 0.0
N3 N 0.1873 0.06174 0.12118 0.0
C4 C 0.19369 0.03828 0.10459 0.0
H5 H 0.17329 0.13459 0.1251 0.0
Co6 Co 0.18494 0.04291 0.1471 0.0
C7 C 0.19515 0.9378 0.14718 0.0
O8 O 0.17301 0.93382 0.15753 0.0
N9 N 0.18259 0.02482 0.17416 0.0
C10 C 0.16775 1.00337 0.20346 0.0
C11 C 0.16089 1.00917 0.18436 0.0
C12 C 0.20253 0.02738 0.18774 0.0
N13 N 0.19395 0.01526 0.20572 0.0
O14 O 0.21877 0.07522 0.1517 0.0
H15 H 0.14114 1.00123 0.1785 0.0
H16 H 0.22293 0.03903 0.18461 0.0
O17 O 0.2028 0.97973 0.14146 0.0
C18 C 0.21209 0.11607 0.15892 0.0
O19 O 0.18667 0.12344 0.16365 0.0
N20 N 0.15001 0.02066 0.14187 0.0
C21 C 0.09606 0.01956 0.12985 0.0
C22 C 0.11451 0.98515 0.12279 0.0
C23 C 0.14173 0.98703 0.12866 0.0
C24 C 0.13228 0.05436 0.14859 0.0
C25 C 0.10525 0.05386 0.14317 0.0
H26 H 0.15623 0.96346 0.12175 0.0
H27 H 0.13943 0.08281 0.15798 0.0
H28 H 0.19982 1.00083 0.10409 0.0
H29 H 0.17739 0.14117 0.08717 0.0
H30 H 0.15435 0.99081 0.21475 0.0
H31 H 0.10829 0.95878 0.11212 0.0
H32 H 0.09177 0.08091 0.14911 0.0
C33 C 0.81341 0.95915 0.11591 0.0
C34 C 0.81127 0.95602 0.09615 0.0
N35 N 0.80269 0.99889 0.08924 0.0
N36 N 0.80615 1.00368 0.12169 0.0
C37 C 0.79974 0.02727 0.10511 0.0
H38 H 0.82054 0.93101 0.12548 0.0
Co39 Co 0.80855 0.02236 0.14765 0.0
C40 C 0.79841 0.12745 0.14768 0.0
O41 O 0.82074 0.13165 0.15784 0.0
N42 N 0.81094 0.04033 0.17475 0.0
C43 C 0.82591 0.06193 0.20403 0.0
C44 C 0.8326 0.0565 0.18489 0.0
C45 C 0.79116 0.03718 0.1884 0.0
N46 N 0.79984 0.04936 0.20636 0.0
O47 O 0.77473 0.99015 0.15219 0.0
H48 H 0.85222 0.06502 0.17898 0.0
H49 H 0.77081 0.02507 0.18535 0.0
O50 O 0.79068 0.08547 0.14208 0.0
C51 C 0.78148 0.94918 0.15926 0.0
O52 O 0.80694 0.94169 0.16387 0.0
N53 N 0.8435 0.04457 0.14247 0.0
C54 C 0.89738 0.04529 0.13039 0.0
C55 C 0.8789 0.07957 0.12322 0.0
C56 C 0.85172 0.0779 0.12914 0.0
C57 C 0.86126 0.01105 0.14932 0.0
C58 C 0.88825 0.01139 0.14386 0.0
H59 H 0.83719 0.10132 0.12217 0.0
H60 H 0.85415 0.98281 0.15881 0.0
H61 H 0.79348 0.06465 0.10468 0.0
H62 H 0.81669 0.9249 0.08753 0.0
H63 H 0.8393 0.07474 0.21531 0.0
H64 H 0.88506 0.10564 0.11243 0.0
H65 H 0.90176 0.98447 0.14989 0.0
C66 C 0.17593 0.95833 0.92015 0.0
C67 C 0.17782 0.95349 0.93989 0.0
N68 N 0.18902 0.99389 0.94724 0.0
N69 N 0.18589 1.00151 0.91487 0.0
C70 C 0.1938 0.02244 0.93167 0.0
H71 H 0.16716 0.93245 0.91026 0.0
Co72 Co 0.18509 0.02282 0.88917 0.0
C73 C 0.1952 0.12783 0.89219 0.0
O74 O 0.17237 0.13428 0.88284 0.0
N75 N 0.18452 0.04384 0.86235 0.0
C76 C 0.1729 0.07641 0.83386 0.0
C77 C 0.16484 0.06786 0.85256 0.0
C78 C 0.20431 0.03807 0.84882 0.0
N79 N 0.19764 0.05733 0.83149 0.0
O80 O 0.21878 0.98996 0.8852 0.0
H81 H 0.1458 0.07987 0.85851 0.0
H82 H 0.22359 0.02085 0.85154 0.0
O83 O 0.20317 0.08483 0.89621 0.0
C84 C 0.21159 0.94955 0.87787 0.0
O85 O 0.18619 0.94377 0.87271 0.0
N86 N 0.15005 0.04572 0.89368 0.0
C87 C 0.09582 0.04576 0.90485 0.0
C88 C 0.11452 0.07622 0.91406 0.0
C89 C 0.14182 0.07489 0.90852 0.0
C90 C 0.13197 0.01626 0.88463 0.0
C91 C 0.10479 0.01642 0.88968 0.0
H92 H 0.15645 0.09481 0.91695 0.0
H93 H 0.13898 0.99082 0.87389 0.0
H94 H 0.20245 0.05819 0.93248 0.0
H95 H 0.17049 0.92313 0.94819 0.0
H96 H 0.16135 0.09484 0.82277 0.0
H97 H 0.10844 0.09861 0.92614 0.0
H98 H 0.09105 0.99251 0.88212 0.0
C99 C 0.81559 0.11314 0.92086 0.0
C100 C 0.81364 0.11739 0.94062 0.0
N101 N 0.80417 0.07552 0.94787 0.0
N102 N 0.80739 0.06887 0.91547 0.0
C103 C 0.80048 0.04669 0.93222 0.0
H104 H 0.82317 0.14027 0.91103 0.0
Co105 Co 0.80883 0.04796 0.88974 0.0
C106 C 0.79737 0.94373 0.89145 0.0
O107 O 0.81962 0.93767 0.88139 0.0
N108 N 0.81006 0.02728 0.86291 0.0
C109 C 0.82267 0.99779 0.83414 0.0
C110 C 0.83074 1.00721 0.85279 0.0
C111 C 0.78965 0.02973 0.84968 0.0
N112 N 0.79689 0.0123 0.83216 0.0
O113 O 0.77563 0.08218 0.88517 0.0
H114 H 0.85046 0.99826 0.85848 0.0
H115 H 0.7696 0.04337 0.85278 0.0
O116 O 0.79001 0.98651 0.89634 0.0
C117 C 0.78319 0.12153 0.87714 0.0
O118 O 0.80855 0.12559 0.87168 0.0
N119 N 0.84344 0.02384 0.89485 0.0
C120 C 0.89743 0.02074 0.90656 0.0
C121 C 0.87845 0.98885 0.91459 0.0
C122 C 0.85122 0.99183 0.90887 0.0
C123 C 0.86177 0.05494 0.88709 0.0
C124 C 0.88883 0.05341 0.89242 0.0
H125 H 0.83636 0.97057 0.9165 0.0
H126 H 0.85508 0.08236 0.87706 0.0
H127 H 0.7933 1.00992 0.93293 0.0
H128 H 0.81972 0.14853 0.94898 0.0
H129 H 0.83491 0.9819 0.82282 0.0
H130 H 0.8843 0.96387 0.9259 0.0
H131 H 0.90281 0.07858 0.88582 0.0
C132 C 0.1762 0.60224 0.61611 0.0
C133 C 0.17807 0.60682 0.59638 0.0
N134 N 0.18899 0.56606 0.58913 0.0
N135 N 0.18596 0.5589 0.62149 0.0
C136 C 0.19358 0.53747 0.60472 0.0
H137 H 0.16772 0.62856 0.62594 0.0
Co138 Co 0.18571 0.53879 0.64734 0.0
C139 C 0.1941 0.43288 0.64455 0.0
O140 O 0.17143 0.42736 0.65414 0.0
N141 N 0.18555 0.519 0.67437 0.0
C142 C 0.17288 0.49075 0.70329 0.0
C143 C 0.16579 0.49567 0.68423 0.0
C144 C 0.20474 0.527 0.68818 0.0
N145 N 0.19735 0.5108 0.70591 0.0
O146 O 0.22017 0.56947 0.65058 0.0
H147 H 0.1471 0.48225 0.6782 0.0
H148 H 0.22367 0.54527 0.68549 0.0
O149 O 0.20243 0.47553 0.6404 0.0
C150 C 0.21371 0.61113 0.65711 0.0
O151 O 0.18844 0.61919 0.66204 0.0
N152 N 0.15016 0.51812 0.64365 0.0
C153 C 0.09455 0.5129 0.63779 0.0
C154 C 0.11215 0.48444 0.62665 0.0
C155 C 0.14019 0.48809 0.62965 0.0
C156 C 0.13323 0.54828 0.65343 0.0
C157 C 0.10543 0.54535 0.65115 0.0
H158 H 0.15381 0.468 0.62043 0.0
H159 H 0.14148 0.57496 0.66318 0.0
H160 H 0.20209 0.50155 0.60394 0.0
H161 H 0.17103 0.63732 0.58799 0.0
H162 H 0.1609 0.47319 0.71433 0.0
H163 H 0.10434 0.46011 0.61574 0.0
H164 H 0.09252 0.56926 0.65946 0.0
C165 C 0.80033 0.45081 0.61424 0.0
C166 C 0.7976 0.44957 0.59449 0.0
N167 N 0.79564 0.4952 0.58794 0.0
N168 N 0.79979 0.49692 0.62035 0.0
C169 C 0.79716 0.52338 0.60396 0.0
H170 H 0.80327 0.41994 0.62356 0.0
Co171 Co 0.80463 0.51271 0.64642 0.0
C172 C 0.79392 0.61706 0.65038 0.0
O173 O 0.81466 0.61827 0.66228 0.0
N174 N 0.80957 0.52706 0.67346 0.0
C175 C 0.8269 0.53395 0.70316 0.0
C176 C 0.83278 0.52783 0.6839 0.0
C177 C 0.78987 0.53346 0.68695 0.0
N178 N 0.79988 0.53714 0.70516 0.0
O179 O 0.77091 0.481 0.65217 0.0
H180 H 0.85295 0.52349 0.67826 0.0
H181 H 0.76847 0.53339 0.68358 0.0
O182 O 0.78709 0.57684 0.64252 0.0
C183 C 0.77737 0.44067 0.65994 0.0
O184 O 0.80294 0.43242 0.66404 0.0
N185 N 0.83914 0.535 0.64022 0.0
C186 C 0.89408 0.54392 0.63287 0.0
C187 C 0.87637 0.58169 0.62811 0.0
C188 C 0.84852 0.57607 0.63156 0.0
C189 C 0.85597 0.49669 0.64298 0.0
C190 C 0.88353 0.50063 0.6398 0.0
H191 H 0.83484 0.60436 0.62714 0.0
H192 H 0.8479 0.46317 0.64845 0.0
H193 H 0.79671 0.5624 0.60375 0.0
H194 H 0.7981 0.41748 0.58558 0.0
H195 H 0.8415 0.53549 0.71483 0.0
H196 H 0.88398 0.61511 0.62213 0.0
H197 H 0.89663 0.47033 0.64313 0.0
C198 C 0.17614 0.45906 0.42036 0.0
C199 C 0.17752 0.45343 0.44009 0.0
N200 N 0.18927 0.49293 0.44777 0.0
N201 N 0.187 0.50183 0.41544 0.0
C202 C 0.19489 0.52173 0.43244 0.0
H203 H 0.16725 0.43392 0.41023 0.0
Co204 Co 0.18798 0.52396 0.38984 0.0
C205 C 0.19572 0.62957 0.39505 0.0
O206 O 0.17266 0.63631 0.38604 0.0
N207 N 0.18931 0.54619 0.36315 0.0
C208 C 0.17984 0.58243 0.33497 0.0
C209 C 0.17116 0.57411 0.3535 0.0
C210 C 0.20887 0.53796 0.34964 0.0
N211 N 0.20349 0.55948 0.3325 0.0
O212 O 0.2224 0.49296 0.38716 0.0
H213 H 0.15252 0.58828 0.35933 0.0
H214 H 0.22709 0.51733 0.35224 0.0
O215 O 0.20449 0.58651 0.39797 0.0
C216 C 0.2157 0.45202 0.38006 0.0
O217 O 0.19056 0.44551 0.37442 0.0
N218 N 0.15227 0.54484 0.39284 0.0
C219 C 0.09646 0.54894 0.39796 0.0
C220 C 0.11371 0.57453 0.4104 0.0
C221 C 0.14181 0.57145 0.40775 0.0
C222 C 0.13566 0.51767 0.38151 0.0
C223 C 0.10779 0.52013 0.38346 0.0
H224 H 0.1551 0.58907 0.41797 0.0
H225 H 0.1442 0.49322 0.37098 0.0
H226 H 0.20429 0.55682 0.43358 0.0
H227 H 0.16958 0.42318 0.44817 0.0
H228 H 0.16935 0.60321 0.32401 0.0
H229 H 0.1056 0.596 0.42214 0.0
H230 H 0.09521 0.49819 0.3741 0.0
C231 C 0.81062 0.61462 0.41938 0.0
C232 C 0.80952 0.61979 0.43911 0.0
N233 N 0.80378 0.57657 0.44706 0.0
N234 N 0.8054 0.56847 0.41465 0.0
C235 C 0.80124 0.54602 0.43181 0.0
H236 H 0.8153 0.64272 0.40907 0.0
Co237 Co 0.80682 0.5469 0.38903 0.0
C238 C 0.79546 0.44279 0.39053 0.0
O239 O 0.81678 0.43718 0.37944 0.0
N240 N 0.80824 0.52585 0.36219 0.0
C241 C 0.82251 0.5016 0.33309 0.0
C242 C 0.82972 0.50909 0.352 0.0
C243 C 0.78803 0.52733 0.34877 0.0
N244 N 0.7963 0.51359 0.33088 0.0
O245 O 0.77333 0.58019 0.3844 0.0
H246 H 0.84958 0.50143 0.35772 0.0
H247 H 0.76772 0.53961 0.35189 0.0
O248 O 0.78851 0.48533 0.39599 0.0
C249 C 0.78013 0.61913 0.37573 0.0
O250 O 0.80513 0.62339 0.36952 0.0
N251 N 0.84149 0.52356 0.39409 0.0
C252 C 0.89661 0.51322 0.40076 0.0
C253 C 0.87817 0.48228 0.40989 0.0
C254 C 0.85033 0.48862 0.40659 0.0
C255 C 0.85921 0.55617 0.38665 0.0
C256 C 0.88682 0.551 0.38937 0.0
H257 H 0.83609 0.46629 0.41433 0.0
H258 H 0.85175 0.58606 0.37816 0.0
H259 H 0.79728 0.5078 0.43312 0.0
H260 H 0.81275 0.65308 0.44694 0.0
H261 H 0.83572 0.48795 0.32187 0.0
H262 H 0.88519 0.45378 0.41937 0.0
H263 H 0.90046 0.57665 0.38269 0.0
C264 C 0.67408 0.09964 0.61869 0.0
C265 C 0.6761 0.10582 0.59902 0.0
N266 N 0.68762 0.06611 0.59132 0.0
N267 N 0.68429 0.05628 0.62358 0.0
C268 C 0.69246 0.03657 0.6066 0.0
H269 H 0.66516 0.12481 0.6288 0.0
Co270 Co 0.68393 0.03381 0.64917 0.0
C271 C 0.6936 0.92881 0.64479 0.0
O272 O 0.67032 0.92181 0.65343 0.0
N273 N 0.68391 0.01151 0.67585 0.0
C274 C 0.67313 0.97679 0.70407 0.0
C275 C 0.66497 0.98521 0.68536 0.0
C276 C 0.70337 0.0186 0.68954 0.0
N277 N 0.69719 0.99815 0.70672 0.0
O278 O 0.71762 0.06646 0.65307 0.0
H279 H 0.64625 0.97206 0.67926 0.0
H280 H 0.72209 0.03774 0.68707 0.0
O281 O 0.70191 0.972 0.64161 0.0
C282 C 0.71019 0.10653 0.66062 0.0
O283 O 0.68485 0.11149 0.66604 0.0
N284 N 0.64874 0.01143 0.64481 0.0
C285 C 0.59445 0.01464 0.6338 0.0
C286 C 0.6128 0.98493 0.62386 0.0
C287 C 0.64014 0.98463 0.62935 0.0
C288 C 0.63091 0.03973 0.65469 0.0
C289 C 0.6037 0.04117 0.6497 0.0
H290 H 0.65456 0.96562 0.6204 0.0
H291 H 0.63817 0.06347 0.66595 0.0
H292 H 0.70143 1.00109 0.60543 0.0
H293 H 0.66872 0.13665 0.59099 0.0
H294 H 0.66202 0.9571 0.71501 0.0
H295 H 0.60645 0.96467 0.61126 0.0
H296 H 0.59019 0.06443 0.65779 0.0
C297 C 0.31431 0.95394 0.61682 0.0
C298 C 0.31246 0.94995 0.59705 0.0
N299 N 0.30347 0.99223 0.58982 0.0
N300 N 0.3065 0.99845 0.62224 0.0
C301 C 0.29997 0.02107 0.60549 0.0
H302 H 0.32155 0.92643 0.62664 0.0
Co303 Co 0.308 0.01884 0.64802 0.0
C304 C 0.29664 0.12332 0.64666 0.0
O305 O 0.31879 0.12893 0.6569 0.0
N306 N 0.30933 0.03886 0.67492 0.0
C307 C 0.32224 0.06711 0.70384 0.0
C308 C 0.33008 0.05857 0.68509 0.0
C309 C 0.28912 0.0357 0.68824 0.0
N310 N 0.29655 0.05233 0.70585 0.0
O311 O 0.2747 0.98491 0.65244 0.0
H312 H 0.34973 0.06771 0.67937 0.0
H313 H 0.26909 0.02197 0.68517 0.0
O314 O 0.28929 0.08071 0.64156 0.0
C315 C 0.28213 0.94524 0.66033 0.0
O316 O 0.30748 0.94067 0.66582 0.0
N317 N 0.34264 0.04263 0.64304 0.0
C318 C 0.39653 0.04476 0.63127 0.0
C319 C 0.37776 0.07757 0.62351 0.0
C320 C 0.35055 0.07506 0.62924 0.0
C321 C 0.36082 0.01082 0.65061 0.0
C322 C 0.38783 0.01175 0.6452 0.0
H323 H 0.33578 0.09698 0.62177 0.0
H324 H 0.35403 0.98318 0.66048 0.0
H325 H 0.29318 0.05813 0.60479 0.0
H326 H 0.31828 0.91868 0.58866 0.0
H327 H 0.3346 0.08241 0.71524 0.0
H328 H 0.38374 0.10285 0.61237 0.0
H329 H 0.4017 0.98585 0.65154 0.0
C330 C 0.67773 0.963 0.42214 0.0
C331 C 0.6792 0.95784 0.44186 0.0
N332 N 0.69002 0.99827 0.44944 0.0
N333 N 0.68763 1.0064 0.41706 0.0
C334 C 0.69493 0.02729 0.43403 0.0
H335 H 0.66942 0.93702 0.4121 0.0
Co336 Co 0.68787 0.02694 0.39121 0.0
C337 C 0.69576 0.13256 0.39429 0.0
O338 O 0.67328 0.13794 0.38441 0.0
N339 N 0.68825 0.0471 0.36417 0.0
C340 C 0.67609 0.07529 0.33509 0.0
C341 C 0.66859 0.07022 0.35405 0.0
C342 C 0.70779 0.03935 0.35059 0.0
N343 N 0.70071 0.05551 0.33276 0.0
O344 O 0.72242 0.99644 0.3883 0.0
H345 H 0.64968 0.08336 0.35984 0.0
H346 H 0.72673 0.02123 0.35352 0.0
O347 O 0.70423 0.09 0.39849 0.0
C348 C 0.71592 0.95503 0.38157 0.0
O349 O 0.69069 0.9474 0.37643 0.0
N350 N 0.65222 0.04751 0.39454 0.0
C351 C 0.59653 0.05147 0.40021 0.0
C352 C 0.61386 0.0801 0.41149 0.0
C353 C 0.64194 0.07706 0.40859 0.0
C354 C 0.63557 0.01739 0.38453 0.0
C355 C 0.60777 0.01961 0.38675 0.0
H356 H 0.65535 0.09708 0.41799 0.0
H357 H 0.64407 0.99107 0.37472 0.0
H358 H 0.70345 0.06312 0.43508 0.0
H359 H 0.67198 0.92714 0.45001 0.0
H360 H 0.66424 0.0927 0.3239 0.0
H361 H 0.60584 0.10394 0.4225 0.0
H362 H 0.59516 0.99538 0.37837 0.0
C363 C 0.31424 0.10647 0.42142 0.0
C364 C 0.31266 0.11011 0.4412 0.0
N365 N 0.30356 0.06787 0.44835 0.0
N366 N 0.30616 0.06224 0.41589 0.0
C367 C 0.29976 0.03938 0.43261 0.0
H368 H 0.32143 0.13407 0.41165 0.0
Co369 Co 0.30706 0.04285 0.38998 0.0
C370 C 0.29703 0.93814 0.39076 0.0
O371 O 0.31847 0.93384 0.37972 0.0
N372 N 0.30788 0.02397 0.36282 0.0
C373 C 0.32134 1.00051 0.3334 0.0
C374 C 0.32885 1.00624 0.35235 0.0
C375 C 0.28764 0.02787 0.34949 0.0
N376 N 0.29543 0.01458 0.33144 0.0
O377 O 0.27323 0.07568 0.38622 0.0
H378 H 0.34852 0.99647 0.35791 0.0
H379 H 0.26762 0.0413 0.35281 0.0
O380 O 0.28944 0.9802 0.39639 0.0
C381 C 0.28023 0.11589 0.37862 0.0
O382 O 0.30548 0.12145 0.37313 0.0
N383 N 0.34204 0.01997 0.39431 0.0
C384 C 0.39721 1.01024 0.40093 0.0
C385 C 0.37885 0.98006 0.41052 0.0
C386 C 0.351 0.98607 0.40721 0.0
C387 C 0.35973 0.05182 0.3863 0.0
C388 C 0.38737 0.04681 0.38895 0.0
H389 H 0.33679 0.96451 0.41534 0.0
H390 H 0.35224 0.0811 0.37748 0.0
H391 H 0.29278 1.00246 0.43322 0.0
H392 H 0.31868 0.14114 0.44965 0.0
H393 H 0.33409 0.98639 0.322 0.0
H394 H 0.38593 0.95252 0.42043 0.0
H395 H 0.40099 0.07181 0.38187 0.0
C396 C 0.68128 0.60862 0.1168 0.0
C397 C 0.68369 0.61289 0.09709 0.0
N398 N 0.69126 0.56985 0.08976 0.0
N399 N 0.68733 0.56319 0.12212 0.0
C400 C 0.69333 0.54022 0.10534 0.0
H401 H 0.67481 0.63666 0.12665 0.0
Co402 Co 0.68431 0.54305 0.14784 0.0
C403 C 0.69571 0.43857 0.14765 0.0
O404 O 0.6734 0.43372 0.15776 0.0
N405 N 0.68129 0.52359 0.17469 0.0
C406 C 0.6658 0.50175 0.20375 0.0
C407 C 0.65923 0.5087 0.18466 0.0
C408 C 0.70114 0.52447 0.18837 0.0
N409 N 0.69218 0.51214 0.20623 0.0
O410 O 0.71757 0.57651 0.15326 0.0
H411 H 0.6394 0.50228 0.17866 0.0
H412 H 0.72173 0.53527 0.1854 0.0
O413 O 0.70308 0.4808 0.14209 0.0
C414 C 0.71041 0.61616 0.16129 0.0
O415 O 0.685 0.62155 0.16644 0.0
N416 N 0.64983 0.51979 0.14185 0.0
C417 C 0.59625 0.51723 0.1291 0.0
C418 C 0.61508 0.48295 0.12247 0.0
C419 C 0.64214 0.48562 0.12867 0.0
C420 C 0.63173 0.55342 0.1481 0.0
C421 C 0.60488 0.55226 0.14228 0.0
H422 H 0.65695 0.46213 0.12208 0.0
H423 H 0.63845 0.58229 0.15744 0.0
H424 H 0.69869 0.50244 0.10455 0.0
H425 H 0.67919 0.64499 0.08879 0.0
H426 H 0.65205 0.48963 0.2149 0.0
H427 H 0.60926 0.45603 0.1119 0.0
H428 H 0.59107 0.57929 0.14785 0.0
C429 C 0.31558 0.45652 0.11703 0.0
C430 C 0.31335 0.45178 0.09731 0.0
N431 N 0.30356 0.49338 0.08997 0.0
N432 N 0.30723 0.50082 0.12231 0.0
C433 C 0.29993 0.52253 0.10553 0.0
H434 H 0.32354 0.42976 0.12691 0.0
Co435 Co 0.30924 0.52238 0.14791 0.0
C436 C 0.29868 0.62754 0.14517 0.0
O437 O 0.32187 0.63393 0.15406 0.0
N438 N 0.31114 0.54374 0.17462 0.0
C439 C 0.32448 0.57571 0.20281 0.0
C440 C 0.33155 0.56684 0.18394 0.0
C441 C 0.29187 0.53902 0.18858 0.0
N442 N 0.29959 0.55788 0.20575 0.0
O443 O 0.27576 0.48935 0.15278 0.0
H444 H 0.35046 0.57802 0.17755 0.0
H445 H 0.27224 0.52282 0.18626 0.0
O446 O 0.29071 0.5845 0.14122 0.0
C447 C 0.28308 0.44935 0.16046 0.0
O448 O 0.30852 0.44407 0.16562 0.0
N449 N 0.3441 0.54497 0.14253 0.0
C450 C 0.398 0.54413 0.13049 0.0
C451 C 0.37921 0.57558 0.12183 0.0
C452 C 0.35205 0.57468 0.1278 0.0
C453 C 0.36225 0.51451 0.15099 0.0
C454 C 0.38926 0.51422 0.14553 0.0
H455 H 0.3373 0.59551 0.11981 0.0
H456 H 0.35542 0.48878 0.16166 0.0
H457 H 0.29261 0.55925 0.10472 0.0
H458 H 0.31954 0.42058 0.08901 0.0
H459 H 0.3368 0.59351 0.21362 0.0
H460 H 0.38511 0.5985 0.10988 0.0
H461 H 0.40304 0.4896 0.15271 0.0
C462 C 0.67893 0.46422 0.92048 0.0
C463 C 0.6803 0.45953 0.94023 0.0
N464 N 0.69038 0.50067 0.94775 0.0
N465 N 0.68811 0.50805 0.91533 0.0
C466 C 0.69495 0.5296 0.93225 0.0
H467 H 0.67117 0.43766 0.91046 0.0
Co468 Co 0.68792 0.52837 0.88951 0.0
C469 C 0.69619 0.63378 0.89155 0.0
O470 O 0.67426 0.63832 0.88097 0.0
N471 N 0.68785 0.54828 0.86249 0.0
C472 C 0.67526 0.57371 0.83312 0.0
C473 C 0.66731 0.56735 0.85193 0.0
C474 C 0.7083 0.54429 0.84936 0.0
N475 N 0.70109 0.55902 0.83135 0.0
O476 O 0.72247 0.4978 0.88635 0.0
H477 H 0.64754 0.57703 0.85731 0.0
H478 H 0.72823 0.53078 0.85289 0.0
O479 O 0.70431 0.59155 0.89656 0.0
C480 C 0.71647 0.45688 0.87894 0.0
O481 O 0.69144 0.44919 0.87335 0.0
N482 N 0.65233 0.54892 0.89314 0.0
C483 C 0.59672 0.55229 0.89937 0.0
C484 C 0.61406 0.58309 0.9097 0.0
C485 C 0.64213 0.58033 0.90655 0.0
C486 C 0.63573 0.51678 0.88416 0.0
C487 C 0.60796 0.51859 0.88666 0.0
H488 H 0.65556 0.60203 0.9153 0.0
H489 H 0.64424 0.48929 0.8749 0.0
H490 H 0.70285 0.56589 0.93317 0.0
H491 H 0.67348 0.42858 0.9484 0.0
H492 H 0.66255 0.5872 0.82156 0.0
H493 H 0.60607 0.60841 0.92018 0.0
H494 H 0.5954 0.49277 0.87905 0.0
C495 C 0.31281 0.60625 0.92159 0.0
C496 C 0.3108 0.60984 0.94134 0.0
N497 N 0.30253 0.56701 0.94844 0.0
N498 N 0.30581 0.56147 0.91602 0.0
C499 C 0.29967 0.53819 0.93269 0.0
H500 H 0.31959 0.63429 0.91187 0.0
Co501 Co 0.30773 0.54231 0.89016 0.0
C502 C 0.29711 0.43751 0.89033 0.0
O503 O 0.31885 0.43296 0.87959 0.0
N504 N 0.30971 0.5238 0.86306 0.0
C505 C 0.32454 0.50174 0.8338 0.0
C506 C 0.33125 0.507 0.85293 0.0
C507 C 0.28995 0.52748 0.84937 0.0
N508 N 0.29859 0.5151 0.83143 0.0
O509 O 0.274 0.5751 0.88574 0.0
H510 H 0.3508 0.49777 0.85884 0.0
H511 H 0.26969 0.54024 0.85235 0.0
O512 O 0.28976 0.47962 0.89608 0.0
C513 C 0.28083 0.61543 0.87817 0.0
O514 O 0.30617 0.62173 0.87304 0.0
N515 N 0.34255 0.51941 0.89514 0.0
C516 C 0.39756 0.50971 0.90239 0.0
C517 C 0.37907 0.4783 0.91119 0.0
C518 C 0.35127 0.48435 0.90761 0.0
C519 C 0.36033 0.55228 0.88792 0.0
C520 C 0.38791 0.54739 0.89091 0.0
H521 H 0.33693 0.46177 0.91515 0.0
H522 H 0.35295 0.58221 0.8794 0.0
H523 H 0.29356 0.50078 0.93327 0.0
H524 H 0.316 0.64129 0.94983 0.0
H525 H 0.33784 0.48856 0.82255 0.0
H526 H 0.38602 0.44973 0.92067 0.0
H527 H 0.40165 0.5731 0.88437 0.0
H528 H 0.24887 0.01302 0.21072 0.0
H529 H 0.2404 0.01505 0.32682 0.0
H530 H 0.17366 0.02052 0.24237 0.0
H531 H 0.31531 0.01896 0.29473 0.0
H532 H 0.21546 0.01669 0.29615 0.0
H533 H 0.27348 0.01463 0.24141 0.0
C534 C 0.23745 0.01519 0.22404 0.0
C535 C 0.209 0.01637 0.22376 0.0
C536 C 0.23738 0.01715 0.29586 0.0
C537 C 0.23722 0.01779 0.2592 0.0
C538 C 0.25166 0.01643 0.31341 0.0
C539 C 0.28012 0.01643 0.31353 0.0
C540 C 0.25159 0.01792 0.27822 0.0
C541 C 0.29347 0.01789 0.29553 0.0
C542 C 0.25156 0.0159 0.24163 0.0
C543 C 0.19549 0.01866 0.24169 0.0
N544 N 0.27915 0.01847 0.27872 0.0
N545 N 0.20967 0.01923 0.25859 0.0
H546 H 0.74504 0.05313 0.21163 0.0
H547 H 0.75535 0.04595 0.32771 0.0
H548 H 0.82057 0.04171 0.24281 0.0
H549 H 0.68 0.05548 0.29625 0.0
H550 H 0.77961 0.042 0.29683 0.0
H551 H 0.72083 0.05185 0.24249 0.0
C552 C 0.75659 0.05013 0.22489 0.0
C553 C 0.78501 0.04789 0.22446 0.0
C554 C 0.75775 0.04495 0.29671 0.0
C555 C 0.7573 0.04675 0.26005 0.0
C556 C 0.74386 0.04697 0.31438 0.0
C557 C 0.71552 0.05155 0.31472 0.0
C558 C 0.74325 0.04735 0.27918 0.0
C559 C 0.70183 0.053 0.29684 0.0
C560 C 0.74272 0.04962 0.24257 0.0
C561 C 0.79874 0.04446 0.24229 0.0
N562 N 0.71577 0.05102 0.2799 0.0
N563 N 0.78481 0.04407 0.25927 0.0
H564 H 0.26558 0.9804 0.72047 0.0
H565 H 0.2064 0.13295 0.8078 0.0
H566 H 0.29266 0.12537 0.73154 0.0
H567 H 0.22347 0.98165 0.81481 0.0
H568 H 0.23051 0.13182 0.7767 0.0
H569 H 0.24196 0.98066 0.75193 0.0
C570 C 0.26623 0.0124 0.72945 0.0
C571 C 0.28098 0.05297 0.72348 0.0
C572 C 0.22906 0.09892 0.78508 0.0
C573 C 0.25401 0.05372 0.75915 0.0
C574 C 0.21533 0.09957 0.80275 0.0
C575 C 0.21317 0.05742 0.81385 0.0
C576 C 0.24001 0.05547 0.77816 0.0
C577 C 0.22502 0.01495 0.80672 0.0
C578 C 0.25303 0.01239 0.74739 0.0
C579 C 0.28154 0.0934 0.7357 0.0
N580 N 0.23767 0.01485 0.78918 0.0
N581 N 0.26806 0.09296 0.75286 0.0
H582 H 0.70697 0.92385 0.73098 0.0
H583 H 0.76499 0.08266 0.81713 0.0
H584 H 0.72157 0.07565 0.72314 0.0
H585 H 0.7932 0.93776 0.80716 0.0
H586 H 0.74087 0.08012 0.78584 0.0
H587 H 0.73103 0.92723 0.76211 0.0
C588 C 0.71531 0.95784 0.73586 0.0
C589 C 0.71248 0.99946 0.7245 0.0
C590 C 0.75229 0.0489 0.79058 0.0
C591 C 0.73932 1.00392 0.76022 0.0
C592 C 0.76578 0.05019 0.80844 0.0
C593 C 0.78102 1.01033 0.81465 0.0
C594 C 0.75348 1.00697 0.77917 0.0
C595 C 0.78173 0.96924 0.8028 0.0
C596 C 0.72903 0.95976 0.75355 0.0
C597 C 0.72363 0.04272 0.73143 0.0
N598 N 0.76799 0.96843 0.78572 0.0
N599 N 0.73631 0.04401 0.74896 0.0
H600 H 0.17584 0.51146 0.74213 0.0
H601 H 0.31976 0.52443 0.79528 0.0
H602 H 0.25187 0.5198 0.71161 0.0
H603 H 0.24386 0.51163 0.82572 0.0
H604 H 0.29522 0.52557 0.76471 0.0
H605 H 0.20026 0.51443 0.77274 0.0
C606 C 0.1977 0.51365 0.7418 0.0
C607 C 0.21177 0.51479 0.72411 0.0
C608 C 0.28388 0.52253 0.77805 0.0
C609 C 0.24 0.51886 0.75943 0.0
C610 C 0.29792 0.52154 0.79561 0.0
C611 C 0.28396 0.51737 0.81326 0.0
C612 C 0.25553 0.51938 0.77798 0.0
C613 C 0.25555 0.51507 0.81258 0.0
C614 C 0.21165 0.51565 0.75937 0.0
C615 C 0.24011 0.51897 0.72479 0.0
N616 N 0.24232 0.51589 0.79526 0.0
N617 N 0.25326 0.52061 0.74213 0.0
H618 H 0.75083 0.57927 0.71151 0.0
H619 H 0.74603 0.50446 0.82361 0.0
H620 H 0.81517 0.50184 0.74017 0.0
H621 H 0.69199 0.60915 0.79798 0.0
H622 H 0.77026 0.49917 0.79284 0.0
H623 H 0.72695 0.58541 0.74255 0.0
C624 C 0.75988 0.5634 0.72429 0.0
C625 C 0.78515 0.54032 0.7232 0.0
C626 C 0.7531 0.52336 0.794 0.0
C627 C 0.75797 0.54715 0.75883 0.0
C628 C 0.73931 0.52665 0.81166 0.0
C629 C 0.71669 0.55715 0.81358 0.0
C630 C 0.7442 0.55048 0.778 0.0
C631 C 0.7089 0.58443 0.79729 0.0
C632 C 0.74634 0.56716 0.74204 0.0
C633 C 0.79598 0.52066 0.74032 0.0
N634 N 0.7225 0.58027 0.78026 0.0
N635 N 0.78234 0.5244 0.75735 0.0
H636 H 0.29552 0.63231 0.23071 0.0
H637 H 0.22816 0.48208 0.31606 0.0
H638 H 0.27081 0.48501 0.22198 0.0
H639 H 0.21382 0.63423 0.30869 0.0
H640 H 0.25142 0.48055 0.28446 0.0
H641 H 0.2727 0.63221 0.26222 0.0
C642 C 0.28522 0.59999 0.23547 0.0
C643 C 0.28488 0.55871 0.22375 0.0
C644 C 0.24322 0.51422 0.28984 0.0
C645 C 0.25929 0.55789 0.25991 0.0
C646 C 0.23024 0.51517 0.30788 0.0
C647 C 0.21912 0.55836 0.3149 0.0
C648 C 0.24564 0.55701 0.27907 0.0
C649 C 0.22203 0.60023 0.3037 0.0
C650 C 0.27219 0.59994 0.2534 0.0
C651 C 0.27123 0.51768 0.23055 0.0
N652 N 0.23515 0.59861 0.28643 0.0
N653 N 0.25919 0.51808 0.2483 0.0
H654 H 0.67141 0.517 0.24278 0.0
H655 H 0.81661 0.51728 0.29426 0.0
H656 H 0.74703 0.50849 0.21165 0.0
H657 H 0.74131 0.51144 0.32585 0.0
H658 H 0.79135 0.51645 0.26406 0.0
H659 H 0.69643 0.51715 0.27314 0.0
C660 C 0.69325 0.51477 0.24222 0.0
C661 C 0.70698 0.51241 0.22439 0.0
C662 C 0.7803 0.51524 0.27758 0.0
C663 C 0.73596 0.51339 0.25951 0.0
C664 C 0.79476 0.5154 0.29495 0.0
C665 C 0.78121 0.51393 0.31285 0.0
C666 C 0.75191 0.51381 0.27788 0.0
C667 C 0.75274 0.51286 0.31253 0.0
C668 C 0.70757 0.51517 0.25968 0.0
C669 C 0.73543 0.51073 0.22488 0.0
N670 N 0.73908 0.51275 0.29536 0.0
N671 N 0.74891 0.51123 0.2421 0.0
H672 H 0.22994 0.16359 0.19051 0.0
H673 H 0.25642 0.40615 0.13043 0.0
H674 H 0.23076 0.1676 0.12827 0.0
H675 H 0.27447 0.39124 0.1911 0.0
H676 H 0.24212 0.32113 0.12965 0.0
H677 H 0.24461 0.24785 0.19125 0.0
C678 C 0.23434 0.1818 0.177 0.0
C679 C 0.23003 0.15831 0.15932 0.0
C680 C 0.24873 0.33675 0.14321 0.0
C681 C 0.24504 0.25572 0.15995 0.0
C682 C 0.25627 0.38551 0.14374 0.0
C683 C 0.26603 0.40585 0.16096 0.0
C684 C 0.25095 0.30843 0.16005 0.0
C685 C 0.26657 0.37704 0.17763 0.0
C686 C 0.2422 0.23015 0.17739 0.0
C687 C 0.23476 0.18407 0.14219 0.0
N688 N 0.25926 0.32986 0.17676 0.0
N689 N 0.2417 0.23162 0.14291 0.0
H690 H 0.73779 0.65856 0.13144 0.0
H691 H 0.76309 0.90255 0.19088 0.0
H692 H 0.71846 0.67495 0.19182 0.0
H693 H 0.76329 0.89699 0.12865 0.0
H694 H 0.74843 0.81829 0.1918 0.0
H695 H 0.75213 0.74353 0.13052 0.0
C696 C 0.73765 0.67952 0.14467 0.0
C697 C 0.72749 0.65963 0.16184 0.0
C698 C 0.75106 0.83566 0.1779 0.0
C699 C 0.74264 0.75697 0.16076 0.0
C700 C 0.75891 0.88401 0.1774 0.0
C701 C 0.7635 0.90704 0.15967 0.0
C702 C 0.74853 0.80966 0.16053 0.0
C703 C 0.75906 0.88086 0.14259 0.0
C704 C 0.74522 0.72825 0.14406 0.0
C705 C 0.72664 0.68882 0.1784 0.0
N706 N 0.75213 0.83333 0.14342 0.0
N707 N 0.73398 0.73596 0.17744 0.0
H708 H 0.22711 0.89908 0.84646 0.0
H709 H 0.25636 0.66054 0.90857 0.0
H710 H 0.2312 0.89936 0.90867 0.0
H711 H 0.26909 0.67017 0.84708 0.0
H712 H 0.24222 0.7457 0.90883 0.0
H713 H 0.24086 0.81431 0.84629 0.0
C714 C 0.23201 0.88163 0.86006 0.0
C715 C 0.22888 0.90644 0.87756 0.0
C716 C 0.24757 0.72887 0.89522 0.0
C717 C 0.24292 0.80859 0.87764 0.0
C718 C 0.25499 0.68004 0.89502 0.0
C719 C 0.26324 0.65822 0.87769 0.0
C720 C 0.24844 0.75577 0.87796 0.0
C721 C 0.26232 0.68555 0.86065 0.0
C722 C 0.23936 0.83301 0.86001 0.0
C723 C 0.2343 0.88177 0.89485 0.0
N724 N 0.25521 0.73287 0.86122 0.0
N725 N 0.24076 0.83395 0.89449 0.0
H726 H 0.73772 0.41144 0.84799 0.0
H727 H 0.75687 0.16512 0.90724 0.0
H728 H 0.73199 0.40391 0.91004 0.0
H729 H 0.77561 0.18074 0.84673 0.0
H730 H 0.74402 0.25089 0.90835 0.0
H731 H 0.75145 0.32668 0.84723 0.0
C732 C 0.74056 0.39233 0.86153 0.0
C733 C 0.73459 0.41491 0.87913 0.0
C734 C 0.75047 0.2353 0.89475 0.0
C735 C 0.74847 0.317 0.87839 0.0
C736 C 0.75717 0.18615 0.89403 0.0
C737 C 0.76675 0.16581 0.87677 0.0
C738 C 0.7534 0.26399 0.87808 0.0
C739 C 0.76787 0.19501 0.86024 0.0
C740 C 0.74784 0.34368 0.86109 0.0
C741 C 0.73732 0.38807 0.89623 0.0
N742 N 0.76144 0.24257 0.86131 0.0
N743 N 0.74373 0.34029 0.89544 0.0
H744 H 0.74274 0.93461 0.89958 0.0
H745 H 0.74989 0.64445 0.90203 0.0
H746 H 0.8168 0.85263 0.89541 0.0
H747 H 0.67623 0.72523 0.89301 0.0
H748 H 0.77438 0.72093 0.90628 0.0
H749 H 0.71767 0.85862 0.90383 0.0
C750 C 0.75375 0.90081 0.89989 0.0
C751 C 0.78183 0.89995 0.8969 0.0
C752 C 0.75278 0.72181 0.90358 0.0
C753 C 0.75344 0.81304 0.90172 0.0
C754 C 0.73881 0.67813 0.90125 0.0
C755 C 0.71106 0.6784 0.89692 0.0
C756 C 0.73883 0.76598 0.90174 0.0
C757 C 0.69772 0.72325 0.89605 0.0
C758 C 0.73947 0.85742 0.9022 0.0
C759 C 0.79509 0.85501 0.89738 0.0
N760 N 0.7117 0.76508 0.89831 0.0
N761 N 0.78082 0.81352 0.89961 0.0
H762 H 0.2438 0.42707 0.90195 0.0
H763 H 0.25033 0.13682 0.89846 0.0
H764 H 0.31662 0.34574 0.89064 0.0
H765 H 0.17605 0.21881 0.89738 0.0
H766 H 0.27568 0.2127 0.90202 0.0
H767 H 0.21933 0.35066 0.90661 0.0
C768 C 0.2547 0.39329 0.90071 0.0
C769 C 0.28219 0.39287 0.89564 0.0
C770 C 0.25379 0.21394 0.90122 0.0
C771 C 0.25446 0.30539 0.90098 0.0
C772 C 0.23935 0.17059 0.89932 0.0
C773 C 0.21108 0.17147 0.89739 0.0
C774 C 0.23982 0.25834 0.90139 0.0
C775 C 0.19788 0.21641 0.89853 0.0
C776 C 0.24074 0.34966 0.90329 0.0
C777 C 0.29532 0.3479 0.89423 0.0
N778 N 0.21231 0.25789 0.90033 0.0
N779 N 0.28136 0.30616 0.89677 0.0
H780 H 0.75022 0.4286 0.13911 0.0
H781 H 0.74427 0.13805 0.1381 0.0
H782 H 0.6766 0.34675 0.14568 0.0
H783 H 0.81762 0.21942 0.14692 0.0
H784 H 0.71928 0.21444 0.13447 0.0
H785 H 0.77541 0.35237 0.13555 0.0
C786 C 0.73931 0.39475 0.13951 0.0
C787 C 0.71131 0.39413 0.14291 0.0
C788 C 0.74091 0.21546 0.13703 0.0
C789 C 0.73989 0.30684 0.13883 0.0
C790 C 0.75517 0.17184 0.139 0.0
C791 C 0.78302 0.17223 0.14304 0.0
C792 C 0.75467 0.25976 0.13886 0.0
C793 C 0.7961 0.21726 0.14408 0.0
C794 C 0.75369 0.35123 0.13759 0.0
C795 C 0.69824 0.34905 0.14334 0.0
N796 N 0.78186 0.25901 0.14209 0.0
N797 N 0.71258 0.30742 0.14142 0.0
H798 H 0.24848 0.92693 0.1355 0.0
H799 H 0.24325 0.63646 0.14001 0.0
H800 H 0.17622 0.8456 0.14811 0.0
H801 H 0.31724 0.71888 0.13998 0.0
H802 H 0.21751 0.71226 0.13702 0.0
H803 H 0.27322 0.8505 0.13127 0.0
C804 C 0.23775 0.89314 0.13714 0.0
C805 C 0.2103 0.89283 0.14239 0.0
C806 C 0.23941 0.71362 0.13747 0.0
C807 C 0.2384 0.8052 0.13754 0.0
C808 C 0.25408 0.6703 0.13904 0.0
C809 C 0.28242 0.67126 0.14044 0.0
C810 C 0.2532 0.75813 0.13709 0.0
C811 C 0.29539 0.71635 0.1392 0.0
C812 C 0.25187 0.84949 0.13481 0.0
C813 C 0.19745 0.84777 0.14433 0.0
N814 N 0.28075 0.75778 0.1377 0.0
N815 N 0.21156 0.806 0.14199 0.0
H816 H 0.23614 0.65487 0.68808 0.0
H817 H 0.25479 0.9034 0.63024 0.0
H818 H 0.2281 0.66553 0.62623 0.0
H819 H 0.27505 0.88487 0.69041 0.0
H820 H 0.24135 0.81803 0.62875 0.0
H821 H 0.25027 0.73936 0.68925 0.0
C822 C 0.23856 0.67458 0.67465 0.0
C823 C 0.23188 0.65295 0.65699 0.0
C824 C 0.24827 0.8329 0.64237 0.0
C825 C 0.24619 0.75058 0.65823 0.0
C826 C 0.25532 0.88184 0.64331 0.0
C827 C 0.26551 0.90123 0.66058 0.0
C828 C 0.25146 0.80346 0.65882 0.0
C829 C 0.26687 0.87134 0.67691 0.0
C830 C 0.24606 0.72309 0.67533 0.0
C831 C 0.234 0.6806 0.64006 0.0
N832 N 0.2601 0.824 0.67562 0.0
N833 N 0.24068 0.7282 0.6411 0.0
H834 H 0.76436 0.39028 0.69189 0.0
H835 H 0.73216 0.15368 0.62987 0.0
H836 H 0.75282 0.39337 0.63016 0.0
H837 H 0.72246 0.16099 0.69169 0.0
H838 H 0.74476 0.23951 0.62965 0.0
H839 H 0.75047 0.3057 0.69229 0.0
C840 C 0.75776 0.37355 0.67852 0.0
C841 C 0.75911 0.39901 0.66104 0.0
C842 C 0.74039 0.22207 0.64331 0.0
C843 C 0.74493 0.30133 0.66113 0.0
C844 C 0.73388 0.17288 0.64347 0.0
C845 C 0.72699 0.15017 0.6609 0.0
C846 C 0.74 0.24841 0.66071 0.0
C847 C 0.72826 0.17708 0.67804 0.0
C848 C 0.75035 0.32502 0.67867 0.0
C849 C 0.75139 0.37525 0.64399 0.0
N850 N 0.73452 0.22476 0.67752 0.0
N851 N 0.74504 0.32743 0.64439 0.0
H852 H 0.23509 0.40457 0.34903 0.0
H853 H 0.25655 0.16055 0.40948 0.0
H854 H 0.23175 0.39958 0.41121 0.0
H855 H 0.26896 0.17243 0.34802 0.0
H856 H 0.24404 0.24646 0.41047 0.0
H857 H 0.24774 0.31933 0.3485 0.0
C858 C 0.23823 0.38585 0.36262 0.0
C859 C 0.23326 0.40931 0.38019 0.0
C860 C 0.24895 0.23001 0.3967 0.0
C861 C 0.24593 0.31088 0.37977 0.0
C862 C 0.25543 0.18076 0.39609 0.0
C863 C 0.26316 0.15934 0.37856 0.0
C864 C 0.25032 0.25772 0.37967 0.0
C865 C 0.26259 0.18752 0.36174 0.0
C866 C 0.24488 0.33693 0.36233 0.0
C867 C 0.23634 0.38302 0.3974 0.0
N868 N 0.25649 0.23522 0.36272 0.0
N869 N 0.24218 0.33498 0.39677 0.0
H870 H 0.75415 0.66063 0.4065 0.0
H871 H 0.73871 0.91256 0.35051 0.0
H872 H 0.7722 0.68047 0.34607 0.0
H873 H 0.72958 0.8991 0.41218 0.0
H874 H 0.75166 0.82752 0.34875 0.0
H875 H 0.74201 0.74654 0.40876 0.0
C876 C 0.75445 0.68264 0.39355 0.0
C877 C 0.76373 0.66347 0.37599 0.0
C878 C 0.74747 0.84325 0.36277 0.0
C879 C 0.75119 0.76177 0.37861 0.0
C880 C 0.74069 0.89207 0.36379 0.0
C881 C 0.73397 0.91304 0.38157 0.0
C882 C 0.74689 0.81487 0.37963 0.0
C883 C 0.73552 0.88447 0.39828 0.0
C884 C 0.74815 0.73186 0.39492 0.0
C885 C 0.76476 0.69386 0.3598 0.0
N886 N 0.7415 0.83662 0.3969 0.0
N887 N 0.75879 0.74146 0.36152 0.0
H888 H 0.74201 0.43294 0.40181 0.0
H889 H 0.75035 0.14297 0.40207 0.0
H890 H 0.81559 0.35185 0.39304 0.0
H891 H 0.67566 0.22332 0.3983 0.0
H892 H 0.77501 0.21947 0.40567 0.0
H893 H 0.71779 0.35662 0.40736 0.0
C894 C 0.75312 0.39926 0.40136 0.0
C895 C 0.78075 0.39874 0.39668 0.0
C896 C 0.75317 0.22023 0.40429 0.0
C897 C 0.75334 0.31149 0.40301 0.0
C898 C 0.73911 0.17654 0.40235 0.0
C899 C 0.71097 0.17677 0.39962 0.0
C900 C 0.73893 0.26431 0.40367 0.0
C901 C 0.69743 0.22144 0.40006 0.0
C902 C 0.73932 0.35569 0.40443 0.0
C903 C 0.79418 0.35396 0.39628 0.0
N904 N 0.7115 0.26329 0.40188 0.0
N905 N 0.78037 0.31229 0.39926 0.0
H906 H 0.1756 0.7184 0.40318 0.0
H907 H 0.31823 0.84778 0.39208 0.0
H908 H 0.25109 0.64071 0.39906 0.0
H909 H 0.24404 0.92552 0.40288 0.0
H910 H 0.29466 0.77209 0.39778 0.0
H911 H 0.20061 0.79369 0.4065 0.0
C912 C 0.19753 0.7171 0.40325 0.0
C913 C 0.21129 0.67314 0.40064 0.0
C914 C 0.2835 0.80557 0.39912 0.0
C915 C 0.24016 0.75983 0.40419 0.0
C916 C 0.29693 0.849 0.3958 0.0
C917 C 0.283 0.89321 0.39674 0.0
C918 C 0.25571 0.80591 0.40321 0.0
C919 C 0.25555 0.89235 0.40193 0.0
C920 C 0.2118 0.76025 0.40515 0.0
C921 C 0.23967 0.67371 0.40104 0.0
N922 N 0.24271 0.84933 0.4047 0.0
N923 N 0.25317 0.71648 0.40246 0.0
H924 H 0.81381 0.70762 0.65562 0.0
H925 H 0.67448 0.84085 0.63447 0.0
H926 H 0.74347 0.63294 0.63391 0.0
H927 H 0.74919 0.91718 0.6444 0.0
H928 H 0.69971 0.76531 0.63221 0.0
H929 H 0.79111 0.78438 0.65007 0.0
C930 C 0.79355 0.70728 0.6496 0.0
C931 C 0.78042 0.66349 0.64544 0.0
C932 C 0.71072 0.79854 0.63459 0.0
C933 C 0.75413 0.7521 0.63907 0.0
C934 C 0.69633 0.8418 0.63587 0.0
C935 C 0.70975 0.88543 0.63974 0.0
C936 C 0.73882 0.79848 0.63753 0.0
C937 C 0.73805 0.88446 0.64133 0.0
C938 C 0.78064 0.75136 0.64634 0.0
C939 C 0.75433 0.66569 0.63741 0.0
N940 N 0.75161 0.84155 0.64053 0.0
N941 N 0.74191 0.70923 0.63472 0.0
H942 H 0.24879 0.42309 0.63684 0.0
H943 H 0.24254 0.13275 0.63667 0.0
H944 H 0.17471 0.34154 0.64099 0.0
H945 H 0.31588 0.21489 0.6444 0.0
H946 H 0.21756 0.20881 0.63198 0.0
H947 H 0.27395 0.34695 0.63327 0.0
C948 C 0.23779 0.38933 0.63667 0.0
C949 C 0.20966 0.38872 0.63945 0.0
C950 C 0.23919 0.21004 0.63451 0.0
C951 C 0.2382 0.3015 0.63544 0.0
C952 C 0.25343 0.16661 0.63709 0.0
C953 C 0.28126 0.16741 0.64118 0.0
C954 C 0.25294 0.25446 0.63584 0.0
C955 C 0.29435 0.21247 0.64158 0.0
C956 C 0.25213 0.34583 0.63475 0.0
C957 C 0.19644 0.34377 0.63917 0.0
N958 N 0.28012 0.25399 0.63907 0.0
N959 N 0.21079 0.30213 0.63734 0.0
H960 H 0.93306 0.12009 0.12511 0.0
H961 H 0.06036 0.94453 0.12521 0.0
H962 H 0.92673 0.9653 0.12065 0.0
H963 H 0.06658 0.09912 0.11973 0.0
H964 H 0.01146 0.95086 0.11974 0.0
H965 H 0.98186 0.11351 0.11934 0.0
C966 C 0.94186 0.08484 0.12258 0.0
C967 C 0.92594 0.04314 0.1238 0.0
C968 C 0.02358 0.98336 0.11948 0.0
C969 C 0.9817 0.03514 0.11748 0.0
C970 C 0.05151 0.97966 0.12251 0.0
C971 C 0.06743 0.02141 0.12336 0.0
C972 C 0.01157 0.02915 0.11739 0.0
C973 C 0.05491 0.06609 0.11976 0.0
C974 C 0.96973 0.08101 0.11938 0.0
C975 C 0.9384 0.99831 0.1204 0.0
N976 N 0.0277 0.06886 0.11722 0.0
N977 N 0.96556 0.99544 0.11769 0.0
H978 H 0.06074 0.11923 0.91396 0.0
H979 H 0.93248 0.94486 0.91148 0.0
H980 H 0.06607 0.96413 0.91055 0.0
H981 H 0.92731 0.0997 0.91622 0.0
H982 H 0.98151 0.95005 0.91667 0.0
H983 H 0.01211 0.11209 0.92024 0.0
C984 C 0.05174 0.0837 0.91483 0.0
C985 C 0.06728 0.04231 0.9113 0.0
C986 C 0.96959 0.98286 0.91684 0.0
C987 C 0.01176 0.03373 0.91829 0.0
C988 C 0.94162 0.97981 0.91398 0.0
C989 C 0.92601 0.02196 0.91302 0.0
C990 C 0.9819 0.0284 0.9187 0.0
C991 C 0.93879 0.06641 0.91637 0.0
C992 C 0.02398 0.07957 0.91834 0.0
C993 C 0.05463 0.99707 0.91264 0.0
N994 N 0.96602 0.06853 0.9188 0.0
N995 N 0.02758 0.99401 0.91578 0.0
H996 H 0.92696 0.54958 0.60093 0.0
H997 H 0.05788 0.4986 0.66613 0.0
H998 H 0.92794 0.546 0.66323 0.0
H999 H 0.06406 0.52481 0.60483 0.0
H1000 H 0.00914 0.51016 0.66418 0.0
H1001 H 0.97663 0.53949 0.6009 0.0
C1002 C 0.93779 0.54794 0.61455 0.0
C1003 C 0.92368 0.54892 0.63212 0.0
C1004 C 0.02099 0.51321 0.65107 0.0
C1005 C 0.97968 0.5359 0.63225 0.0
C1006 C 0.04878 0.50617 0.65218 0.0
C1007 C 0.06486 0.51092 0.63564 0.0
C1008 C 0.00905 0.5253 0.63326 0.0
C1009 C 0.05219 0.52059 0.61787 0.0
C1010 C 0.96596 0.54164 0.61455 0.0
C1011 C 0.93828 0.54566 0.64942 0.0
N1012 N 0.02491 0.52788 0.61715 0.0
N1013 N 0.96542 0.53896 0.64905 0.0
H1014 H 0.92784 0.51769 0.43363 0.0
H1015 H 0.05932 0.5633 0.36974 0.0
H1016 H 0.9321 0.49926 0.37179 0.0
H1017 H 0.06623 0.53448 0.43087 0.0
H1018 H 0.01079 0.54963 0.37168 0.0
H1019 H 0.97746 0.52817 0.43446 0.0
C1020 C 0.93936 0.51453 0.42036 0.0
C1021 C 0.92614 0.50774 0.4026 0.0
C1022 C 0.02281 0.54636 0.38473 0.0
C1023 C 0.98203 0.52113 0.40333 0.0
C1024 C 0.05046 0.55455 0.38364 0.0
C1025 C 0.06672 0.5495 0.40012 0.0
C1026 C 0.01116 0.5331 0.40246 0.0
C1027 C 0.05425 0.53878 0.41785 0.0
C1028 C 0.96749 0.52101 0.4208 0.0
C1029 C 0.94167 0.50463 0.38574 0.0
N1030 N 0.02707 0.53055 0.41857 0.0
N1031 N 0.96873 0.51188 0.38649 0.0
H1032 H 0.42462 0.96569 0.6194 0.0
H1033 H 0.56661 0.09879 0.62914 0.0
H1034 H 0.43305 0.11878 0.62844 0.0
H1035 H 0.55787 0.94466 0.62353 0.0
H1036 H 0.5183 0.10846 0.62281 0.0
H1037 H 0.47344 0.95935 0.61451 0.0
C1038 C 0.43681 0.99811 0.62009 0.0
C1039 C 0.42498 0.04272 0.62467 0.0
C1040 C 0.52693 0.07254 0.62275 0.0
C1041 C 0.48084 0.03572 0.61925 0.0
C1042 C 0.55448 0.06695 0.62645 0.0
C1043 C 0.56608 0.02072 0.62729 0.0
C1044 C 0.51077 0.03158 0.61995 0.0
C1045 C 0.54965 0.98087 0.62316 0.0
C1046 C 0.46465 0.99448 0.61729 0.0
C1047 C 0.44148 0.08373 0.62504 0.0
N1048 N 0.5227 0.98716 0.61994 0.0
N1049 N 0.46871 0.07913 0.62269 0.0
H1050 H 0.43279 0.99029 0.37261 0.0
H1051 H 0.56668 0.04288 0.43364 0.0
H1052 H 0.42823 0.02224 0.43353 0.0
H1053 H 0.55907 0.05948 0.37183 0.0
H1054 H 0.51756 0.02759 0.43554 0.0
H1055 H 0.48166 1.00173 0.37375 0.0
C1056 C 0.44233 0.99867 0.38634 0.0
C1057 C 0.42672 1.00536 0.40299 0.0
C1058 C 0.52672 0.0351 0.42163 0.0
C1059 C 0.48242 0.0201 0.40436 0.0
C1060 C 0.55457 0.04431 0.42057 0.0
C1061 C 0.56682 0.05202 0.40252 0.0
C1062 C 0.51141 0.03326 0.4045 0.0
C1063 C 0.55042 0.05305 0.38599 0.0
C1064 C 0.47011 1.00582 0.38696 0.0
C1065 C 0.43982 0.01647 0.42044 0.0
N1066 N 0.52366 0.04325 0.38735 0.0
N1067 N 0.46708 0.02402 0.42068 0.0
H1068 H 0.56083 0.44149 0.1256 0.0
H1069 H 0.43338 0.61726 0.12165 0.0
H1070 H 0.56678 0.59532 0.11739 0.0
H1071 H 0.42727 0.46217 0.12389 0.0
H1072 H 0.48201 0.60933 0.11538 0.0
H1073 H 0.51187 0.44698 0.12021 0.0
C1074 C 0.5519 0.47622 0.12228 0.0
C1075 C 0.56774 0.51811 0.12236 0.0
C1076 C 0.46996 0.57699 0.11701 0.0
C1077 C 0.51183 0.52494 0.11648 0.0
C1078 C 0.4422 0.58158 0.1205 0.0
C1079 C 0.42643 0.54039 0.12374 0.0
C1080 C 0.48197 0.5309 0.1168 0.0
C1081 C 0.43886 0.49495 0.12204 0.0
C1082 C 0.52394 0.47946 0.11932 0.0
C1083 C 0.55515 0.56228 0.11797 0.0
N1084 N 0.46592 0.49144 0.11897 0.0
N1085 N 0.52792 0.56465 0.11551 0.0
H1086 H 0.4327 0.4851 0.87443 0.0
H1087 H 0.56729 0.54829 0.93317 0.0
H1088 H 0.42889 0.52626 0.93447 0.0
H1089 H 0.55884 0.55511 0.87112 0.0
H1090 H 0.51827 0.53248 0.93576 0.0
H1091 H 0.4816 0.4968 0.87496 0.0
C1092 C 0.44243 0.49539 0.88788 0.0
C1093 C 0.42704 0.50448 0.90445 0.0
C1094 C 0.52722 0.53795 0.92164 0.0
C1095 C 0.48274 0.51975 0.90507 0.0
C1096 C 0.55502 0.54746 0.92017 0.0
C1097 C 0.56701 0.55261 0.90189 0.0
C1098 C 0.51171 0.53321 0.90469 0.0
C1099 C 0.5504 0.55074 0.88547 0.0
C1100 C 0.47023 0.50276 0.88814 0.0
C1101 C 0.44034 0.51843 0.92149 0.0
N1102 N 0.52371 0.54071 0.88725 0.0
N1103 N 0.46759 0.52612 0.92135 0.0
H1104 H 0.19388 0.08255 0.96416 0.0
H1105 H 0.18882 0.97757 0.07214 0.0
H1106 H 0.19297 0.9303 0.9772 0.0
H1107 H 0.20084 0.12807 0.0588 0.0
H1108 H 0.19123 0.9591 0.03754 0.0
H1109 H 0.19734 0.09973 0.99875 0.0
C1110 C 0.19466 0.05265 0.97419 0.0
C1111 C 0.19288 1.00483 0.96757 0.0
C1112 C 0.19346 0.99616 0.04222 0.0
C1113 C 0.19647 0.0244 1.00746 0.0
C1114 C 0.19222 1.00671 0.06204 0.0
C1115 C 0.19433 0.05459 0.06854 0.0
C1116 C 0.19676 0.03371 0.02873 0.0
C1117 C 0.19849 0.09078 0.05458 0.0
C1118 C 0.1965 0.06253 0.99402 0.0
C1119 C 0.19372 0.96776 0.9815 0.0
N1120 N 0.1994 0.07965 0.03542 0.0
N1121 N 0.19529 0.97832 1.0007 0.0
H1122 H 0.80199 0.98614 0.96451 0.0
H1123 H 0.80382 0.08873 0.07291 0.0
H1124 H 0.79847 0.13801 0.97811 0.0
H1125 H 0.79416 0.938 0.05892 0.0
H1126 H 0.80153 0.10784 0.03836 0.0
H1127 H 0.79885 0.96792 0.99901 0.0
C1128 C 0.80032 0.01573 0.97464 0.0
C1129 C 0.80073 0.0638 0.96818 0.0
C1130 C 0.79981 0.07058 0.04289 0.0
C1131 C 0.79751 0.04302 1.008 0.0
C1132 C 0.80097 0.05965 0.06268 0.0
C1133 C 0.79948 0.01154 0.069 0.0
C1134 C 0.79721 0.03321 0.02924 0.0
C1135 C 0.79603 0.97549 0.05486 0.0
C1136 C 0.79866 1.00525 0.99443 0.0
C1137 C 0.79879 0.10043 0.98225 0.0
N1138 N 0.79519 0.98701 0.03574 0.0
N1139 N 0.79743 0.08931 1.00141 0.0
H1140 H 0.19675 0.62994 0.55984 0.0
H1141 H 0.19386 0.42779 0.47706 0.0
H1142 H 0.19047 0.47763 0.57174 0.0
H1143 H 0.19331 0.58069 0.46544 0.0
H1144 H 0.19653 0.44495 0.51164 0.0
H1145 H 0.1995 0.61211 0.52536 0.0
C1146 C 0.19593 0.59267 0.55524 0.0
C1147 C 0.19302 0.55529 0.56883 0.0
C1148 C 0.19594 0.47478 0.50154 0.0
C1149 C 0.19645 0.53452 0.52908 0.0
C1150 C 0.19428 0.46503 0.48173 0.0
C1151 C 0.19305 0.50283 0.46817 0.0
C1152 C 0.19641 0.52276 0.50801 0.0
C1153 C 0.19433 0.55032 0.47522 0.0
C1154 C 0.19763 0.58251 0.53548 0.0
C1155 C 0.19277 0.50764 0.56189 0.0
N1156 N 0.19577 0.55889 0.49461 0.0
N1157 N 0.19427 0.49867 0.54252 0.0
H1158 H 0.82503 0.62809 0.47707 0.0
H1159 H 0.77301 0.44502 0.55838 0.0
H1160 H 0.77844 0.50031 0.46433 0.0
H1161 H 0.81493 0.5775 0.57132 0.0
H1162 H 0.77418 0.46531 0.52404 0.0
H1163 H 0.82106 0.61066 0.51144 0.0
C1164 C 0.81375 0.59651 0.4814 0.0
C1165 C 0.8019 0.56584 0.46755 0.0
C1166 C 0.78304 0.49011 0.53435 0.0
C1167 C 0.79762 0.54525 0.50731 0.0
C1168 C 0.78246 0.47847 0.55401 0.0
C1169 C 0.79411 0.50939 0.56782 0.0
C1170 C 0.79546 0.53301 0.52829 0.0
C1171 C 0.80559 0.5527 0.56125 0.0
C1172 C 0.81162 0.58647 0.50115 0.0
C1173 C 0.7881 0.52487 0.47433 0.0
N1174 N 0.80615 0.56303 0.54197 0.0
N1175 N 0.78636 0.51583 0.49367 0.0
H1176 H 0.69344 0.13215 0.56247 0.0
H1177 H 0.69719 0.93324 0.47843 0.0
H1178 H 0.69146 0.97886 0.57313 0.0
H1179 H 0.69129 0.08604 0.46742 0.0
H1180 H 0.69926 0.94968 0.51305 0.0
H1181 H 0.69672 0.11626 0.52783 0.0
C1182 C 0.69367 0.09509 0.55759 0.0
C1183 C 0.69184 0.05682 0.5709 0.0
C1184 C 0.69761 0.97969 0.50309 0.0
C1185 C 0.69592 0.03834 0.53096 0.0
C1186 C 0.6963 0.97033 0.48325 0.0
C1187 C 0.6937 1.00825 0.46986 0.0
C1188 C 0.69635 0.02743 0.50979 0.0
C1189 C 0.69336 0.05562 0.4771 0.0
C1190 C 0.69567 0.08606 0.53774 0.0
C1191 C 0.69292 1.00957 0.56356 0.0
N1192 N 0.69448 0.06381 0.49655 0.0
N1193 N 0.69472 1.00173 0.54413 0.0
H1194 H 0.30269 0.97827 0.46488 0.0
H1195 H 0.30311 0.0817 0.57319 0.0
H1196 H 0.29702 0.12986 0.47861 0.0
H1197 H 0.29656 0.93018 0.55961 0.0
H1198 H 0.30051 0.10007 0.53865 0.0
H1199 H 0.30005 0.95977 0.49943 0.0
C1200 C 0.30067 1.00771 0.47505 0.0
C1201 C 0.30035 0.05582 0.46864 0.0
C1202 C 0.29954 0.06279 0.54325 0.0
C1203 C 0.29768 0.03478 0.50844 0.0
C1204 C 0.30088 0.05225 0.56305 0.0
C1205 C 0.30029 1.00419 0.56951 0.0
C1206 C 0.29768 0.02508 0.52969 0.0
C1207 C 0.29766 0.96769 0.55545 0.0
C1208 C 0.29929 0.99709 0.49485 0.0
C1209 C 0.29793 0.09229 0.48272 0.0
N1210 N 0.29661 0.97886 0.53629 0.0
N1211 N 0.29685 0.08105 0.50186 0.0
H1212 H 0.68867 0.48116 0.07252 0.0
H1213 H 0.69371 0.58922 0.96504 0.0
H1214 H 0.70117 0.63206 0.06008 0.0
H1215 H 0.69494 0.43667 0.97754 0.0
H1216 H 0.69662 0.60572 0.99974 0.0
H1217 H 0.69111 0.46398 0.03785 0.0
C1218 C 0.69216 0.51068 0.06261 0.0
C1219 C 0.69444 0.55828 0.06941 0.0
C1220 C 0.69635 0.56862 0.99486 0.0
C1221 C 0.69687 0.53883 0.02947 0.0
C1222 C 0.69482 0.55914 0.97497 0.0
C1223 C 0.69379 0.5114 0.96816 0.0
C1224 C 0.69677 0.53016 1.00814 0.0
C1225 C 0.69507 0.47406 0.98195 0.0
C1226 C 0.69342 0.50085 0.04274 0.0
C1227 C 0.6987 0.59495 0.05565 0.0
N1228 N 0.69631 0.48422 1.00119 0.0
N1229 N 0.6996 0.58451 0.03642 0.0
H1230 H 0.30369 0.47756 0.96509 0.0
H1231 H 0.30136 0.58245 0.07307 0.0
H1232 H 0.29387 0.62865 0.9785 0.0
H1233 H 0.29766 0.43033 0.05997 0.0
H1234 H 0.29831 0.59999 0.03851 0.0
H1235 H 0.30117 0.45923 0.99968 0.0
C1236 C 0.30077 0.50689 0.9752 0.0
C1237 C 0.29929 0.55486 0.96871 0.0
C1238 C 0.29805 0.56275 0.04322 0.0
C1239 C 0.29675 0.53407 1.00851 0.0
C1240 C 0.29966 0.55267 0.06304 0.0
C1241 C 0.30001 0.50472 0.06964 0.0
C1242 C 0.2969 0.52471 0.02977 0.0
C1243 C 0.29803 0.46782 0.0557 0.0
C1244 C 0.29947 0.49639 0.99501 0.0
C1245 C 0.29573 0.59124 0.9827 0.0
N1246 N 0.29673 0.47856 0.03651 0.0
N1247 N 0.29476 0.58014 1.00185 0.0
loop_
_geom_bond_atom_site_label_1
_geom_bond_atom_site_label_2
_geom_bond_distance
_geom_bond_site_symmetry_2
_ccdc_geom_bond_type
C0 C1 1.351 . S
C0 N3 1.368 . S
C0 H5 0.931 . S
C1 C0 1.351 . S
C1 N2 1.373 . S
C1 H29 0.930 . S
N2 C1 1.373 . S
N2 C4 1.340 . S
N3 C0 1.368 . S
N3 C4 1.321 . S
N3 Co6 2.135 . S
C4 N2 1.340 . S
C4 N3 1.321 . S
C4 H28 0.930 1_545 S
H5 C0 0.931 . S
Co6 N3 2.135 . S
Co6 N9 2.121 . S
Co6 O14 2.055 . S
Co6 O17 2.039 1_545 S
Co6 N20 2.140 . S
C7 O8 1.227 . S
C7 O17 1.265 . S
O8 C7 1.227 . S
N9 Co6 2.121 . S
N9 C11 1.375 1_545 S
N9 C12 1.313 . S
C10 C11 1.338 . S
C10 N13 1.377 1_565 S
C10 H30 0.930 . S
C11 N9 1.375 1_565 S
C11 C10 1.338 . S
C11 H15 0.931 . S
C12 N9 1.313 . S
C12 N13 1.344 . S
C12 H16 0.930 . S
N13 C10 1.377 1_545 S
N13 C12 1.344 . S
O14 Co6 2.055 . S
O14 C18 1.253 . S
H15 C11 0.931 . S
H16 C12 0.930 . S
O17 Co6 2.039 1_565 S
O17 C7 1.265 . S
C18 O14 1.253 . S
C18 O19 1.227 . S
O19 C18 1.227 . S
N20 Co6 2.140 . S
N20 C23 1.346 . S
N20 C24 1.345 . S
C21 C22 1.387 . S
C21 C25 1.391 . S
C22 C21 1.387 . S
C22 C23 1.369 . S
C22 H31 0.929 1_545 S
C23 N20 1.346 . S
C23 C22 1.369 . S
C23 H26 0.928 1_545 S
C24 N20 1.345 . S
C24 C25 1.371 . S
C24 H27 0.931 . S
C25 C21 1.391 . S
C25 C24 1.371 . S
C25 H32 0.930 . S
H26 C23 0.928 1_565 S
H27 C24 0.931 . S
H28 C4 0.930 1_565 S
H29 C1 0.930 . S
H30 C10 0.930 . S
H31 C22 0.929 1_565 S
H32 C25 0.930 . S
C33 C34 1.351 . S
C33 N36 1.368 . S
C33 H38 0.931 . S
C34 C33 1.351 . S
C34 N35 1.373 1_565 S
C34 H62 0.930 . S
N35 C34 1.373 1_545 S
N35 C37 1.340 . S
N36 C33 1.368 . S
N36 C37 1.321 1_565 S
N36 Co39 2.135 1_565 S
C37 N35 1.340 . S
C37 N36 1.321 1_545 S
C37 H61 0.930 . S
H38 C33 0.931 . S
Co39 N36 2.135 1_545 S
Co39 N42 2.121 . S
Co39 O47 2.055 1_545 S
Co39 O50 2.039 . S
Co39 N53 2.140 . S
C40 O41 1.227 . S
C40 O50 1.265 . S
O41 C40 1.227 . S
N42 Co39 2.121 . S
N42 C44 1.375 . S
N42 C45 1.313 1_545 S
C43 C44 1.338 . S
C43 N46 1.377 . S
C43 H63 0.930 . S
C44 N42 1.375 . S
C44 C43 1.338 . S
C44 H48 0.931 . S
C45 N42 1.313 1_565 S
C45 N46 1.344 1_565 S
C45 H49 0.930 . S
N46 C43 1.377 . S
N46 C45 1.344 1_545 S
O47 Co39 2.055 1_565 S
O47 C51 1.253 . S
H48 C44 0.931 . S
H49 C45 0.930 . S
O50 Co39 2.039 . S
O50 C40 1.265 . S
C51 O47 1.253 . S
C51 O52 1.227 . S
O52 C51 1.227 . S
N53 Co39 2.140 . S
N53 C56 1.346 . S
N53 C57 1.345 1_545 S
C54 C55 1.387 . S
C54 C58 1.391 1_545 S
C55 C54 1.387 . S
C55 C56 1.369 . S
C55 H64 0.929 . S
C56 N53 1.346 . S
C56 C55 1.369 . S
C56 H59 0.928 . S
C57 N53 1.345 1_565 S
C57 C58 1.371 . S
C57 H60 0.931 . S
C58 C54 1.391 1_565 S
C58 C57 1.371 . S
C58 H65 0.930 . S
H59 C56 0.928 . S
H60 C57 0.931 . S
H61 C37 0.930 . S
H62 C34 0.930 . S
H63 C43 0.930 . S
H64 C55 0.929 . S
H65 C58 0.930 . S
C66 C67 1.351 . S
C66 N69 1.368 . S
C66 H71 0.931 . S
C67 C66 1.351 . S
C67 N68 1.373 1_565 S
C67 H95 0.930 . S
N68 C67 1.373 1_545 S
N68 C70 1.340 . S
N69 C66 1.368 . S
N69 C70 1.321 1_565 S
N69 Co72 2.135 1_565 S
C70 N68 1.340 . S
C70 N69 1.321 1_545 S
C70 H94 0.930 . S
H71 C66 0.931 . S
Co72 N69 2.135 1_545 S
Co72 N75 2.121 . S
Co72 O80 2.055 1_545 S
Co72 O83 2.039 . S
Co72 N86 2.140 . S
C73 O74 1.227 . S
C73 O83 1.265 . S
O74 C73 1.227 . S
N75 Co72 2.121 . S
N75 C77 1.375 . S
N75 C78 1.313 1_545 S
C76 C77 1.338 . S
C76 N79 1.377 . S
C76 H96 0.930 . S
C77 N75 1.375 . S
C77 C76 1.338 . S
C77 H81 0.931 . S
C78 N75 1.313 1_565 S
C78 N79 1.344 1_565 S
C78 H82 0.930 . S
N79 C76 1.377 . S
N79 C78 1.344 1_545 S
O80 Co72 2.055 1_565 S
O80 C84 1.253 . S
H81 C77 0.931 . S
H82 C78 0.930 . S
O83 Co72 2.039 . S
O83 C73 1.265 . S
C84 O80 1.253 . S
C84 O85 1.227 . S
O85 C84 1.227 . S
N86 Co72 2.140 . S
N86 C89 1.346 . S
N86 C90 1.345 1_545 S
C87 C88 1.387 . S
C87 C91 1.391 1_545 S
C88 C87 1.387 . S
C88 C89 1.369 . S
C88 H97 0.929 . S
C89 N86 1.346 . S
C89 C88 1.369 . S
C89 H92 0.928 . S
C90 N86 1.345 1_565 S
C90 C91 1.371 . S
C90 H93 0.931 . S
C91 C87 1.391 1_565 S
C91 C90 1.371 . S
C91 H98 0.930 . S
H92 C89 0.928 . S
H93 C90 0.931 . S
H94 C70 0.930 . S
H95 C67 0.930 . S
H96 C76 0.930 . S
H97 C88 0.929 . S
H98 C91 0.930 . S
C99 C100 1.351 . S
C99 N102 1.368 . S
C99 H104 0.931 . S
C100 C99 1.351 . S
C100 N101 1.373 . S
C100 H128 0.930 . S
N101 C100 1.373 . S
N101 C103 1.340 . S
N102 C99 1.368 . S
N102 C103 1.321 . S
N102 Co105 2.135 . S
C103 N101 1.340 . S
C103 N102 1.321 . S
C103 H127 0.930 1_545 S
H104 C99 0.931 . S
Co105 N102 2.135 . S
Co105 N108 2.121 . S
Co105 O113 2.055 . S
Co105 O116 2.039 1_545 S
Co105 N119 2.140 . S
C106 O107 1.227 . S
C106 O116 1.265 . S
O107 C106 1.227 . S
N108 Co105 2.121 . S
N108 C110 1.375 1_545 S
N108 C111 1.313 . S
C109 C110 1.338 . S
C109 N112 1.377 1_565 S
C109 H129 0.930 . S
C110 N108 1.375 1_565 S
C110 C109 1.338 . S
C110 H114 0.931 . S
C111 N108 1.313 . S
C111 N112 1.344 . S
C111 H115 0.930 . S
N112 C109 1.377 1_545 S
N112 C111 1.344 . S
O113 Co105 2.055 . S
O113 C117 1.253 . S
H114 C110 0.931 . S
H115 C111 0.930 . S
O116 Co105 2.039 1_565 S
O116 C106 1.265 . S
C117 O113 1.253 . S
C117 O118 1.227 . S
O118 C117 1.227 . S
N119 Co105 2.140 . S
N119 C122 1.346 . S
N119 C123 1.345 . S
C120 C121 1.387 . S
C120 C124 1.391 . S
C121 C120 1.387 . S
C121 C122 1.369 . S
C121 H130 0.929 1_545 S
C122 N119 1.346 . S
C122 C121 1.369 . S
C122 H125 0.928 1_545 S
C123 N119 1.345 . S
C123 C124 1.371 . S
C123 H126 0.931 . S
C124 C120 1.391 . S
C124 C123 1.371 . S
C124 H131 0.930 . S
H125 C122 0.928 1_565 S
H126 C123 0.931 . S
H127 C103 0.930 1_565 S
H128 C100 0.930 . S
H129 C109 0.930 . S
H130 C121 0.929 1_565 S
H131 C124 0.930 . S
C132 C133 1.351 . S
C132 N135 1.368 . S
C132 H137 0.931 . S
C133 C132 1.351 . S
C133 N134 1.373 . S
C133 H161 0.930 . S
N134 C133 1.373 . S
N134 C136 1.340 . S
N135 C132 1.368 . S
N135 C136 1.321 . S
N135 Co138 2.135 . S
C136 N134 1.340 . S
C136 N135 1.321 . S
C136 H160 0.930 . S
H137 C132 0.931 . S
Co138 N135 2.135 . S
Co138 N141 2.121 . S
Co138 O146 2.055 . S
Co138 O149 2.039 . S
Co138 N152 2.140 . S
C139 O140 1.227 . S
C139 O149 1.265 . S
O140 C139 1.227 . S
N141 Co138 2.121 . S
N141 C143 1.375 . S
N141 C144 1.313 . S
C142 C143 1.338 . S
C142 N145 1.377 . S
C142 H162 0.930 . S
C143 N141 1.375 . S
C143 C142 1.338 . S
C143 H147 0.931 . S
C144 N141 1.313 . S
C144 N145 1.344 . S
C144 H148 0.930 . S
N145 C142 1.377 . S
N145 C144 1.344 . S
O146 Co138 2.055 . S
O146 C150 1.253 . S
H147 C143 0.931 . S
H148 C144 0.930 . S
O149 Co138 2.039 . S
O149 C139 1.265 . S
C150 O146 1.253 . S
C150 O151 1.227 . S
O151 C150 1.227 . S
N152 Co138 2.140 . S
N152 C155 1.346 . S
N152 C156 1.345 . S
C153 C154 1.387 . S
C153 C157 1.391 . S
C154 C153 1.387 . S
C154 C155 1.369 . S
C154 H163 0.929 . S
C155 N152 1.346 . S
C155 C154 1.369 . S
C155 H158 0.928 . S
C156 N152 1.345 . S
C156 C157 1.371 . S
C156 H159 0.931 . S
C157 C153 1.391 . S
C157 C156 1.371 . S
C157 H164 0.930 . S
H158 C155 0.928 . S
H159 C156 0.931 . S
H160 C136 0.930 . S
H161 C133 0.930 . S
H162 C142 0.930 . S
H163 C154 0.929 . S
H164 C157 0.930 . S
C165 C166 1.351 . S
C165 N168 1.368 . S
C165 H170 0.931 . S
C166 C165 1.351 . S
C166 N167 1.373 . S
C166 H194 0.930 . S
N167 C166 1.373 . S
N167 C169 1.340 . S
N168 C165 1.368 . S
N168 C169 1.321 . S
N168 Co171 2.135 . S
C169 N167 1.340 . S
C169 N168 1.321 . S
C169 H193 0.930 . S
H170 C165 0.931 . S
Co171 N168 2.135 . S
Co171 N174 2.121 . S
Co171 O179 2.055 . S
Co171 O182 2.039 . S
Co171 N185 2.140 . S
C172 O173 1.227 . S
C172 O182 1.265 . S
O173 C172 1.227 . S
N174 Co171 2.121 . S
N174 C176 1.375 . S
N174 C177 1.313 . S
C175 C176 1.338 . S
C175 N178 1.377 . S
C175 H195 0.930 . S
C176 N174 1.375 . S
C176 C175 1.338 . S
C176 H180 0.931 . S
C177 N174 1.313 . S
C177 N178 1.344 . S
C177 H181 0.930 . S
N178 C175 1.377 . S
N178 C177 1.344 . S
O179 Co171 2.055 . S
O179 C183 1.253 . S
H180 C176 0.931 . S
H181 C177 0.930 . S
O182 Co171 2.039 . S
O182 C172 1.265 . S
C183 O179 1.253 . S
C183 O184 1.227 . S
O184 C183 1.227 . S
N185 Co171 2.140 . S
N185 C188 1.346 . S
N185 C189 1.345 . S
C186 C187 1.387 . S
C186 C190 1.391 . S
C187 C186 1.387 . S
C187 C188 1.369 . S
C187 H196 0.929 . S
C188 N185 1.346 . S
C188 C187 1.369 . S
C188 H191 0.928 . S
C189 N185 1.345 . S
C189 C190 1.371 . S
C189 H192 0.931 . S
C190 C186 1.391 . S
C190 C189 1.371 . S
C190 H197 0.930 . S
H191 C188 0.928 . S
H192 C189 0.931 . S
H193 C169 0.930 . S
H194 C166 0.930 . S
H195 C175 0.930 . S
H196 C187 0.929 . S
H197 C190 0.930 . S
C198 C199 1.351 . S
C198 N201 1.368 . S
C198 H203 0.931 . S
C199 C198 1.351 . S
C199 N200 1.373 . S
C199 H227 0.930 . S
N200 C199 1.373 . S
N200 C202 1.340 . S
N201 C198 1.368 . S
N201 C202 1.321 . S
N201 Co204 2.135 . S
C202 N200 1.340 . S
C202 N201 1.321 . S
C202 H226 0.930 . S
H203 C198 0.931 . S
Co204 N201 2.135 . S
Co204 N207 2.121 . S
Co204 O212 2.055 . S
Co204 O215 2.039 . S
Co204 N218 2.140 . S
C205 O206 1.227 . S
C205 O215 1.265 . S
O206 C205 1.227 . S
N207 Co204 2.121 . S
N207 C209 1.375 . S
N207 C210 1.313 . S
C208 C209 1.338 . S
C208 N211 1.377 . S
C208 H228 0.930 . S
C209 N207 1.375 . S
C209 C208 1.338 . S
C209 H213 0.931 . S
C210 N207 1.313 . S
C210 N211 1.344 . S
C210 H214 0.930 . S
N211 C208 1.377 . S
N211 C210 1.344 . S
O212 Co204 2.055 . S
O212 C216 1.253 . S
H213 C209 0.931 . S
H214 C210 0.930 . S
O215 Co204 2.039 . S
O215 C205 1.265 . S
C216 O212 1.253 . S
C216 O217 1.227 . S
O217 C216 1.227 . S
N218 Co204 2.140 . S
N218 C221 1.346 . S
N218 C222 1.345 . S
C219 C220 1.387 . S
C219 C223 1.391 . S
C220 C219 1.387 . S
C220 C221 1.369 . S
C220 H229 0.929 . S
C221 N218 1.346 . S
C221 C220 1.369 . S
C221 H224 0.928 . S
C222 N218 1.345 . S
C222 C223 1.371 . S
C222 H225 0.931 . S
C223 C219 1.391 . S
C223 C222 1.371 . S
C223 H230 0.930 . S
H224 C221 0.928 . S
H225 C222 0.931 . S
H226 C202 0.930 . S
H227 C199 0.930 . S
H228 C208 0.930 . S
H229 C220 0.929 . S
H230 C223 0.930 . S
C231 C232 1.351 . S
C231 N234 1.368 . S
C231 H236 0.931 . S
C232 C231 1.351 . S
C232 N233 1.373 . S
C232 H260 0.930 . S
N233 C232 1.373 . S
N233 C235 1.340 . S
N234 C231 1.368 . S
N234 C235 1.321 . S
N234 Co237 2.135 . S
C235 N233 1.340 . S
C235 N234 1.321 . S
C235 H259 0.930 . S
H236 C231 0.931 . S
Co237 N234 2.135 . S
Co237 N240 2.121 . S
Co237 O245 2.055 . S
Co237 O248 2.039 . S
Co237 N251 2.140 . S
C238 O239 1.227 . S
C238 O248 1.265 . S
O239 C238 1.227 . S
N240 Co237 2.121 . S
N240 C242 1.375 . S
N240 C243 1.313 . S
C241 C242 1.338 . S
C241 N244 1.377 . S
C241 H261 0.930 . S
C242 N240 1.375 . S
C242 C241 1.338 . S
C242 H246 0.931 . S
C243 N240 1.313 . S
C243 N244 1.344 . S
C243 H247 0.930 . S
N244 C241 1.377 . S
N244 C243 1.344 . S
O245 Co237 2.055 . S
O245 C249 1.253 . S
H246 C242 0.931 . S
H247 C243 0.930 . S
O248 Co237 2.039 . S
O248 C238 1.265 . S
C249 O245 1.253 . S
C249 O250 1.227 . S
O250 C249 1.227 . S
N251 Co237 2.140 . S
N251 C254 1.346 . S
N251 C255 1.345 . S
C252 C253 1.387 . S
C252 C256 1.391 . S
C253 C252 1.387 . S
C253 C254 1.369 . S
C253 H262 0.929 . S
C254 N251 1.346 . S
C254 C253 1.369 . S
C254 H257 0.928 . S
C255 N251 1.345 . S
C255 C256 1.371 . S
C255 H258 0.931 . S
C256 C252 1.391 . S
C256 C255 1.371 . S
C256 H263 0.930 . S
H257 C254 0.928 . S
H258 C255 0.931 . S
H259 C235 0.930 . S
H260 C232 0.930 . S
H261 C241 0.930 . S
H262 C253 0.929 . S
H263 C256 0.930 . S
C264 C265 1.351 . S
C264 N267 1.368 . S
C264 H269 0.931 . S
C265 C264 1.351 . S
C265 N266 1.373 . S
C265 H293 0.930 . S
N266 C265 1.373 . S
N266 C268 1.340 . S
N267 C264 1.368 . S
N267 C268 1.321 . S
N267 Co270 2.135 . S
C268 N266 1.340 . S
C268 N267 1.321 . S
C268 H292 0.930 1_545 S
H269 C264 0.931 . S
Co270 N267 2.135 . S
Co270 N273 2.121 . S
Co270 O278 2.055 . S
Co270 O281 2.039 1_545 S
Co270 N284 2.140 . S
C271 O272 1.227 . S
C271 O281 1.265 . S
O272 C271 1.227 . S
N273 Co270 2.121 . S
N273 C275 1.375 1_545 S
N273 C276 1.313 . S
C274 C275 1.338 . S
C274 N277 1.377 1_565 S
C274 H294 0.930 . S
C275 N273 1.375 1_565 S
C275 C274 1.338 . S
C275 H279 0.931 . S
C276 N273 1.313 . S
C276 N277 1.344 . S
C276 H280 0.930 . S
N277 C274 1.377 1_545 S
N277 C276 1.344 . S
O278 Co270 2.055 . S
O278 C282 1.253 . S
H279 C275 0.931 . S
H280 C276 0.930 . S
O281 Co270 2.039 1_565 S
O281 C271 1.265 . S
C282 O278 1.253 . S
C282 O283 1.227 . S
O283 C282 1.227 . S
N284 Co270 2.140 . S
N284 C287 1.346 . S
N284 C288 1.345 . S
C285 C286 1.387 . S
C285 C289 1.391 . S
C286 C285 1.387 . S
C286 C287 1.369 . S
C286 H295 0.929 1_545 S
C287 N284 1.346 . S
C287 C286 1.369 . S
C287 H290 0.928 1_545 S
C288 N284 1.345 . S
C288 C289 1.371 . S
C288 H291 0.931 . S
C289 C285 1.391 . S
C289 C288 1.371 . S
C289 H296 0.930 . S
H290 C287 0.928 1_565 S
H291 C288 0.931 . S
H292 C268 0.930 1_565 S
H293 C265 0.930 . S
H294 C274 0.930 . S
H295 C286 0.929 1_565 S
H296 C289 0.930 . S
C297 C298 1.351 . S
C297 N300 1.368 . S
C297 H302 0.931 . S
C298 C297 1.351 . S
C298 N299 1.373 1_565 S
C298 H326 0.930 . S
N299 C298 1.373 1_545 S
N299 C301 1.340 . S
N300 C297 1.368 . S
N300 C301 1.321 1_565 S
N300 Co303 2.135 1_565 S
C301 N299 1.340 . S
C301 N300 1.321 1_545 S
C301 H325 0.930 . S
H302 C297 0.931 . S
Co303 N300 2.135 1_545 S
Co303 N306 2.121 . S
Co303 O311 2.055 1_545 S
Co303 O314 2.039 . S
Co303 N317 2.140 . S
C304 O305 1.227 . S
C304 O314 1.265 . S
O305 C304 1.227 . S
N306 Co303 2.121 . S
N306 C308 1.375 . S
N306 C309 1.313 1_545 S
C307 C308 1.338 . S
C307 N310 1.377 . S
C307 H327 0.930 . S
C308 N306 1.375 . S
C308 C307 1.338 . S
C308 H312 0.931 . S
C309 N306 1.313 1_565 S
C309 N310 1.344 1_565 S
C309 H313 0.930 . S
N310 C307 1.377 . S
N310 C309 1.344 1_545 S
O311 Co303 2.055 1_565 S
O311 C315 1.253 . S
H312 C308 0.931 . S
H313 C309 0.930 . S
O314 Co303 2.039 . S
O314 C304 1.265 . S
C315 O311 1.253 . S
C315 O316 1.227 . S
O316 C315 1.227 . S
N317 Co303 2.140 . S
N317 C320 1.346 . S
N317 C321 1.345 1_545 S
C318 C319 1.387 . S
C318 C322 1.391 1_545 S
C319 C318 1.387 . S
C319 C320 1.369 . S
C319 H328 0.929 . S
C320 N317 1.346 . S
C320 C319 1.369 . S
C320 H323 0.928 . S
C321 N317 1.345 1_565 S
C321 C322 1.371 . S
C321 H324 0.931 . S
C322 C318 1.391 1_565 S
C322 C321 1.371 . S
C322 H329 0.930 . S
H323 C320 0.928 . S
H324 C321 0.931 . S
H325 C301 0.930 . S
H326 C298 0.930 . S
H327 C307 0.930 . S
H328 C319 0.929 . S
H329 C322 0.930 . S
C330 C331 1.351 . S
C330 N333 1.368 . S
C330 H335 0.931 . S
C331 C330 1.351 . S
C331 N332 1.373 1_565 S
C331 H359 0.930 . S
N332 C331 1.373 1_545 S
N332 C334 1.340 . S
N333 C330 1.368 . S
N333 C334 1.321 1_565 S
N333 Co336 2.135 1_565 S
C334 N332 1.340 . S
C334 N333 1.321 1_545 S
C334 H358 0.930 . S
H335 C330 0.931 . S
Co336 N333 2.135 1_545 S
Co336 N339 2.121 . S
Co336 O344 2.055 1_545 S
Co336 O347 2.039 . S
Co336 N350 2.140 . S
C337 O338 1.227 . S
C337 O347 1.265 . S
O338 C337 1.227 . S
N339 Co336 2.121 . S
N339 C341 1.375 . S
N339 C342 1.313 1_545 S
C340 C341 1.338 . S
C340 N343 1.377 . S
C340 H360 0.930 . S
C341 N339 1.375 . S
C341 C340 1.338 . S
C341 H345 0.931 . S
C342 N339 1.313 1_565 S
C342 N343 1.344 1_565 S
C342 H346 0.930 . S
N343 C340 1.377 . S
N343 C342 1.344 1_545 S
O344 Co336 2.055 1_565 S
O344 C348 1.253 . S
H345 C341 0.931 . S
H346 C342 0.930 . S
O347 Co336 2.039 . S
O347 C337 1.265 . S
C348 O344 1.253 . S
C348 O349 1.227 . S
O349 C348 1.227 . S
N350 Co336 2.140 . S
N350 C353 1.346 . S
N350 C354 1.345 1_545 S
C351 C352 1.387 . S
C351 C355 1.391 1_545 S
C352 C351 1.387 . S
C352 C353 1.369 . S
C352 H361 0.929 . S
C353 N350 1.346 . S
C353 C352 1.369 . S
C353 H356 0.928 . S
C354 N350 1.345 1_565 S
C354 C355 1.371 . S
C354 H357 0.931 . S
C355 C351 1.391 1_565 S
C355 C354 1.371 . S
C355 H362 0.930 . S
H356 C353 0.928 . S
H357 C354 0.931 . S
H358 C334 0.930 . S
H359 C331 0.930 . S
H360 C340 0.930 . S
H361 C352 0.929 . S
H362 C355 0.930 . S
C363 C364 1.351 . S
C363 N366 1.368 . S
C363 H368 0.931 . S
C364 C363 1.351 . S
C364 N365 1.373 . S
C364 H392 0.930 . S
N365 C364 1.373 . S
N365 C367 1.340 . S
N366 C363 1.368 . S
N366 C367 1.321 . S
N366 Co369 2.135 . S
C367 N365 1.340 . S
C367 N366 1.321 . S
C367 H391 0.930 1_545 S
H368 C363 0.931 . S
Co369 N366 2.135 . S
Co369 N372 2.121 . S
Co369 O377 2.055 . S
Co369 O380 2.039 1_545 S
Co369 N383 2.140 . S
C370 O371 1.227 . S
C370 O380 1.265 . S
O371 C370 1.227 . S
N372 Co369 2.121 . S
N372 C374 1.375 1_545 S
N372 C375 1.313 . S
C373 C374 1.338 . S
C373 N376 1.377 1_565 S
C373 H393 0.930 . S
C374 N372 1.375 1_565 S
C374 C373 1.338 . S
C374 H378 0.931 . S
C375 N372 1.313 . S
C375 N376 1.344 . S
C375 H379 0.930 . S
N376 C373 1.377 1_545 S
N376 C375 1.344 . S
O377 Co369 2.055 . S
O377 C381 1.253 . S
H378 C374 0.931 . S
H379 C375 0.930 . S
O380 Co369 2.039 1_565 S
O380 C370 1.265 . S
C381 O377 1.253 . S
C381 O382 1.227 . S
O382 C381 1.227 . S
N383 Co369 2.140 . S
N383 C386 1.346 . S
N383 C387 1.345 . S
C384 C385 1.387 . S
C384 C388 1.391 . S
C385 C384 1.387 . S
C385 C386 1.369 . S
C385 H394 0.929 1_545 S
C386 N383 1.346 . S
C386 C385 1.369 . S
C386 H389 0.928 1_545 S
C387 N383 1.345 . S
C387 C388 1.371 . S
C387 H390 0.931 . S
C388 C384 1.391 . S
C388 C387 1.371 . S
C388 H395 0.930 . S
H389 C386 0.928 1_565 S
H390 C387 0.931 . S
H391 C367 0.930 1_565 S
H392 C364 0.930 . S
H393 C373 0.930 . S
H394 C385 0.929 1_565 S
H395 C388 0.930 . S
C396 C397 1.351 . S
C396 N399 1.368 . S
C396 H401 0.931 . S
C397 C396 1.351 . S
C397 N398 1.373 . S
C397 H425 0.930 . S
N398 C397 1.373 . S
N398 C400 1.340 . S
N399 C396 1.368 . S
N399 C400 1.321 . S
N399 Co402 2.135 . S
C400 N398 1.340 . S
C400 N399 1.321 . S
C400 H424 0.930 . S
H401 C396 0.931 . S
Co402 N399 2.135 . S
Co402 N405 2.121 . S
Co402 O410 2.055 . S
Co402 O413 2.039 . S
Co402 N416 2.140 . S
C403 O404 1.227 . S
C403 O413 1.265 . S
O404 C403 1.227 . S
N405 Co402 2.121 . S
N405 C407 1.375 . S
N405 C408 1.313 . S
C406 C407 1.338 . S
C406 N409 1.377 . S
C406 H426 0.930 . S
C407 N405 1.375 . S
C407 C406 1.338 . S
C407 H411 0.931 . S
C408 N405 1.313 . S
C408 N409 1.344 . S
C408 H412 0.930 . S
N409 C406 1.377 . S
N409 C408 1.344 . S
O410 Co402 2.055 . S
O410 C414 1.253 . S
H411 C407 0.931 . S
H412 C408 0.930 . S
O413 Co402 2.039 . S
O413 C403 1.265 . S
C414 O410 1.253 . S
C414 O415 1.227 . S
O415 C414 1.227 . S
N416 Co402 2.140 . S
N416 C419 1.346 . S
N416 C420 1.345 . S
C417 C418 1.387 . S
C417 C421 1.391 . S
C418 C417 1.387 . S
C418 C419 1.369 . S
C418 H427 0.929 . S
C419 N416 1.346 . S
C419 C418 1.369 . S
C419 H422 0.928 . S
C420 N416 1.345 . S
C420 C421 1.371 . S
C420 H423 0.931 . S
C421 C417 1.391 . S
C421 C420 1.371 . S
C421 H428 0.930 . S
H422 C419 0.928 . S
H423 C420 0.931 . S
H424 C400 0.930 . S
H425 C397 0.930 . S
H426 C406 0.930 . S
H427 C418 0.929 . S
H428 C421 0.930 . S
C429 C430 1.351 . S
C429 N432 1.368 . S
C429 H434 0.931 . S
C430 C429 1.351 . S
C430 N431 1.373 . S
C430 H458 0.930 . S
N431 C430 1.373 . S
N431 C433 1.340 . S
N432 C429 1.368 . S
N432 C433 1.321 . S
N432 Co435 2.135 . S
C433 N431 1.340 . S
C433 N432 1.321 . S
C433 H457 0.930 . S
H434 C429 0.931 . S
Co435 N432 2.135 . S
Co435 N438 2.121 . S
Co435 O443 2.055 . S
Co435 O446 2.039 . S
Co435 N449 2.140 . S
C436 O437 1.227 . S
C436 O446 1.265 . S
O437 C436 1.227 . S
N438 Co435 2.121 . S
N438 C440 1.375 . S
N438 C441 1.313 . S
C439 C440 1.338 . S
C439 N442 1.377 . S
C439 H459 0.930 . S
C440 N438 1.375 . S
C440 C439 1.338 . S
C440 H444 0.931 . S
C441 N438 1.313 . S
C441 N442 1.344 . S
C441 H445 0.930 . S
N442 C439 1.377 . S
N442 C441 1.344 . S
O443 Co435 2.055 . S
O443 C447 1.253 . S
H444 C440 0.931 . S
H445 C441 0.930 . S
O446 Co435 2.039 . S
O446 C436 1.265 . S
C447 O443 1.253 . S
C447 O448 1.227 . S
O448 C447 1.227 . S
N449 Co435 2.140 . S
N449 C452 1.346 . S
N449 C453 1.345 . S
C450 C451 1.387 . S
C450 C454 1.391 . S
C451 C450 1.387 . S
C451 C452 1.369 . S
C451 H460 0.929 . S
C452 N449 1.346 . S
C452 C451 1.369 . S
C452 H455 0.928 . S
C453 N449 1.345 . S
C453 C454 1.371 . S
C453 H456 0.931 . S
C454 C450 1.391 . S
C454 C453 1.371 . S
C454 H461 0.930 . S
H455 C452 0.928 . S
H456 C453 0.931 . S
H457 C433 0.930 . S
H458 C430 0.930 . S
H459 C439 0.930 . S
H460 C451 0.929 . S
H461 C454 0.930 . S
C462 C463 1.351 . S
C462 N465 1.368 . S
C462 H467 0.931 . S
C463 C462 1.351 . S
C463 N464 1.373 . S
C463 H491 0.930 . S
N464 C463 1.373 . S
N464 C466 1.340 . S
N465 C462 1.368 . S
N465 C466 1.321 . S
N465 Co468 2.135 . S
C466 N464 1.340 . S
C466 N465 1.321 . S
C466 H490 0.930 . S
H467 C462 0.931 . S
Co468 N465 2.135 . S
Co468 N471 2.121 . S
Co468 O476 2.055 . S
Co468 O479 2.039 . S
Co468 N482 2.140 . S
C469 O470 1.227 . S
C469 O479 1.265 . S
O470 C469 1.227 . S
N471 Co468 2.121 . S
N471 C473 1.375 . S
N471 C474 1.313 . S
C472 C473 1.338 . S
C472 N475 1.377 . S
C472 H492 0.930 . S
C473 N471 1.375 . S
C473 C472 1.338 . S
C473 H477 0.931 . S
C474 N471 1.313 . S
C474 N475 1.344 . S
C474 H478 0.930 . S
N475 C472 1.377 . S
N475 C474 1.344 . S
O476 Co468 2.055 . S
O476 C480 1.253 . S
H477 C473 0.931 . S
H478 C474 0.930 . S
O479 Co468 2.039 . S
O479 C469 1.265 . S
C480 O476 1.253 . S
C480 O481 1.227 . S
O481 C480 1.227 . S
N482 Co468 2.140 . S
N482 C485 1.346 . S
N482 C486 1.345 . S
C483 C484 1.387 . S
C483 C487 1.391 . S
C484 C483 1.387 . S
C484 C485 1.369 . S
C484 H493 0.929 . S
C485 N482 1.346 . S
C485 C484 1.369 . S
C485 H488 0.928 . S
C486 N482 1.345 . S
C486 C487 1.371 . S
C486 H489 0.931 . S
C487 C483 1.391 . S
C487 C486 1.371 . S
C487 H494 0.930 . S
H488 C485 0.928 . S
H489 C486 0.931 . S
H490 C466 0.930 . S
H491 C463 0.930 . S
H492 C472 0.930 . S
H493 C484 0.929 . S
H494 C487 0.930 . S
C495 C496 1.351 . S
C495 N498 1.368 . S
C495 H500 0.931 . S
C496 C495 1.351 . S
C496 N497 1.373 . S
C496 H524 0.930 . S
N497 C496 1.373 . S
N497 C499 1.340 . S
N498 C495 1.368 . S
N498 C499 1.321 . S
N498 Co501 2.135 . S
C499 N497 1.340 . S
C499 N498 1.321 . S
C499 H523 0.930 . S
H500 C495 0.931 . S
Co501 N498 2.135 . S
Co501 N504 2.121 . S
Co501 O509 2.055 . S
Co501 O512 2.039 . S
Co501 N515 2.140 . S
C502 O503 1.227 . S
C502 O512 1.265 . S
O503 C502 1.227 . S
N504 Co501 2.121 . S
N504 C506 1.375 . S
N504 C507 1.313 . S
C505 C506 1.338 . S
C505 N508 1.377 . S
C505 H525 0.930 . S
C506 N504 1.375 . S
C506 C505 1.338 . S
C506 H510 0.931 . S
C507 N504 1.313 . S
C507 N508 1.344 . S
C507 H511 0.930 . S
N508 C505 1.377 . S
N508 C507 1.344 . S
O509 Co501 2.055 . S
O509 C513 1.253 . S
H510 C506 0.931 . S
H511 C507 0.930 . S
O512 Co501 2.039 . S
O512 C502 1.265 . S
C513 O509 1.253 . S
C513 O514 1.227 . S
O514 C513 1.227 . S
N515 Co501 2.140 . S
N515 C518 1.346 . S
N515 C519 1.345 . S
C516 C517 1.387 . S
C516 C520 1.391 . S
C517 C516 1.387 . S
C517 C518 1.369 . S
C517 H526 0.929 . S
C518 N515 1.346 . S
C518 C517 1.369 . S
C518 H521 0.928 . S
C519 N515 1.345 . S
C519 C520 1.371 . S
C519 H522 0.931 . S
C520 C516 1.391 . S
C520 C519 1.371 . S
C520 H527 0.930 . S
H521 C518 0.928 . S
H522 C519 0.931 . S
H523 C499 0.930 . S
H524 C496 0.930 . S
H525 C505 0.930 . S
H526 C517 0.929 . S
H527 C520 0.930 . S
H528 C534 0.930 . S
H529 C538 0.930 . S
H530 C543 0.929 . S
H531 C541 0.929 . S
H532 C536 0.929 . S
H533 C542 0.929 . S
C534 H528 0.930 . S
C534 C535 1.367 . S
C534 C542 1.378 . S
C535 C534 1.367 . S
C535 C543 1.433 . S
C536 H532 0.929 . S
C536 C538 1.378 . S
C536 C540 1.350 . S
C537 C540 1.463 . S
C537 C542 1.350 . S
C537 N545 1.427 . S
C538 H529 0.930 . S
C538 C536 1.378 . S
C538 C539 1.367 . S
C539 C538 1.367 . S
C539 C541 1.433 . S
C540 C536 1.350 . S
C540 C537 1.463 . S
C540 N544 1.427 . S
C541 H531 0.929 . S
C541 C539 1.433 . S
C541 N544 1.384 . S
C542 H533 0.929 . S
C542 C534 1.378 . S
C542 C537 1.350 . S
C543 H530 0.929 . S
C543 C535 1.433 . S
C543 N545 1.384 . S
N544 C540 1.427 . S
N544 C541 1.384 . S
N545 C537 1.427 . S
N545 C543 1.384 . S
H546 C552 0.930 . S
H547 C556 0.930 . S
H548 C561 0.929 . S
H549 C559 0.929 . S
H550 C554 0.929 . S
H551 C560 0.929 . S
C552 H546 0.930 . S
C552 C553 1.367 1_545 S
C552 C560 1.378 . S
C553 C552 1.367 1_565 S
C553 C561 1.433 . S
C554 H550 0.929 . S
C554 C556 1.378 . S
C554 C558 1.350 . S
C555 C558 1.463 . S
C555 C560 1.350 1_565 S
C555 N563 1.427 . S
C556 H547 0.930 . S
C556 C554 1.378 . S
C556 C557 1.367 . S
C557 C556 1.367 . S
C557 C559 1.433 1_565 S
C558 C554 1.350 . S
C558 C555 1.463 . S
C558 N562 1.427 1_565 S
C559 H549 0.929 . S
C559 C557 1.433 1_545 S
C559 N562 1.384 . S
C560 H551 0.929 . S
C560 C552 1.378 . S
C560 C555 1.350 1_545 S
C561 H548 0.929 . S
C561 C553 1.433 . S
C561 N563 1.384 . S
N562 C558 1.427 1_545 S
N562 C559 1.384 . S
N563 C555 1.427 . S
N563 C561 1.384 . S
H564 C570 0.930 . S
H565 C574 0.930 . S
H566 C579 0.929 . S
H567 C577 0.929 . S
H568 C572 0.929 . S
H569 C578 0.929 . S
C570 H564 0.930 . S
C570 C571 1.367 . S
C570 C578 1.378 . S
C571 C570 1.367 . S
C571 C579 1.433 1_565 S
C572 H568 0.929 . S
C572 C574 1.378 . S
C572 C576 1.350 1_545 S
C573 C576 1.463 . S
C573 C578 1.350 . S
C573 N581 1.427 1_565 S
C574 H565 0.930 . S
C574 C572 1.378 . S
C574 C575 1.367 1_545 S
C575 C574 1.367 1_565 S
C575 C577 1.433 . S
C576 C572 1.350 1_565 S
C576 C573 1.463 . S
C576 N580 1.427 . S
C577 H567 0.929 . S
C577 C575 1.433 . S
C577 N580 1.384 . S
C578 H569 0.929 . S
C578 C570 1.378 . S
C578 C573 1.350 . S
C579 H566 0.929 . S
C579 C571 1.433 1_545 S
C579 N581 1.384 . S
N580 C576 1.427 . S
N580 C577 1.384 . S
N581 C573 1.427 1_545 S
N581 C579 1.384 . S
H582 C588 0.930 1_565 S
H583 C592 0.930 . S
H584 C597 0.929 . S
H585 C595 0.929 1_565 S
H586 C590 0.929 . S
H587 C596 0.929 1_565 S
C588 H582 0.930 1_545 S
C588 C589 1.367 . S
C588 C596 1.378 . S
C589 C588 1.367 . S
C589 C597 1.433 . S
C590 H586 0.929 . S
C590 C592 1.378 . S
C590 C594 1.350 . S
C591 C594 1.463 . S
C591 C596 1.350 . S
C591 N599 1.427 . S
C592 H583 0.930 . S
C592 C590 1.378 . S
C592 C593 1.367 . S
C593 C592 1.367 . S
C593 C595 1.433 . S
C594 C590 1.350 . S
C594 C591 1.463 . S
C594 N598 1.427 . S
C595 H585 0.929 1_545 S
C595 C593 1.433 . S
C595 N598 1.384 . S
C596 H587 0.929 1_545 S
C596 C588 1.378 . S
C596 C591 1.350 . S
C597 H584 0.929 . S
C597 C589 1.433 . S
C597 N599 1.384 . S
N598 C594 1.427 . S
N598 C595 1.384 . S
N599 C591 1.427 . S
N599 C597 1.384 . S
H600 C606 0.930 . S
H601 C610 0.930 . S
H602 C615 0.929 . S
H603 C613 0.929 . S
H604 C608 0.929 . S
H605 C614 0.929 . S
C606 H600 0.930 . S
C606 C607 1.367 . S
C606 C614 1.378 . S
C607 C606 1.367 . S
C607 C615 1.433 . S
C608 H604 0.929 . S
C608 C610 1.378 . S
C608 C612 1.350 . S
C609 C612 1.463 . S
C609 C614 1.350 . S
C609 N617 1.427 . S
C610 H601 0.930 . S
C610 C608 1.378 . S
C610 C611 1.367 . S
C611 C610 1.367 . S
C611 C613 1.433 . S
C612 C608 1.350 . S
C612 C609 1.463 . S
C612 N616 1.427 . S
C613 H603 0.929 . S
C613 C611 1.433 . S
C613 N616 1.384 . S
C614 H605 0.929 . S
C614 C606 1.378 . S
C614 C609 1.350 . S
C615 H602 0.929 . S
C615 C607 1.433 . S
C615 N617 1.384 . S
N616 C612 1.427 . S
N616 C613 1.384 . S
N617 C609 1.427 . S
N617 C615 1.384 . S
H618 C624 0.930 . S
H619 C628 0.930 . S
H620 C633 0.929 . S
H621 C631 0.929 . S
H622 C626 0.929 . S
H623 C632 0.929 . S
C624 H618 0.930 . S
C624 C625 1.367 . S
C624 C632 1.378 . S
C625 C624 1.367 . S
C625 C633 1.433 . S
C626 H622 0.929 . S
C626 C628 1.378 . S
C626 C630 1.350 . S
C627 C630 1.463 . S
C627 C632 1.350 . S
C627 N635 1.427 . S
C628 H619 0.930 . S
C628 C626 1.378 . S
C628 C629 1.367 . S
C629 C628 1.367 . S
C629 C631 1.433 . S
C630 C626 1.350 . S
C630 C627 1.463 . S
C630 N634 1.427 . S
C631 H621 0.929 . S
C631 C629 1.433 . S
C631 N634 1.384 . S
C632 H623 0.929 . S
C632 C624 1.378 . S
C632 C627 1.350 . S
C633 H620 0.929 . S
C633 C625 1.433 . S
C633 N635 1.384 . S
N634 C630 1.427 . S
N634 C631 1.384 . S
N635 C627 1.427 . S
N635 C633 1.384 . S
H636 C642 0.930 . S
H637 C646 0.930 . S
H638 C651 0.929 . S
H639 C649 0.929 . S
H640 C644 0.929 . S
H641 C650 0.929 . S
C642 H636 0.930 . S
C642 C643 1.367 . S
C642 C650 1.378 . S
C643 C642 1.367 . S
C643 C651 1.433 . S
C644 H640 0.929 . S
C644 C646 1.378 . S
C644 C648 1.350 . S
C645 C648 1.463 . S
C645 C650 1.350 . S
C645 N653 1.427 . S
C646 H637 0.930 . S
C646 C644 1.378 . S
C646 C647 1.367 . S
C647 C646 1.367 . S
C647 C649 1.433 . S
C648 C644 1.350 . S
C648 C645 1.463 . S
C648 N652 1.427 . S
C649 H639 0.929 . S
C649 C647 1.433 . S
C649 N652 1.384 . S
C650 H641 0.929 . S
C650 C642 1.378 . S
C650 C645 1.350 . S
C651 H638 0.929 . S
C651 C643 1.433 . S
C651 N653 1.384 . S
N652 C648 1.427 . S
N652 C649 1.384 . S
N653 C645 1.427 . S
N653 C651 1.384 . S
H654 C660 0.930 . S
H655 C664 0.930 . S
H656 C669 0.929 . S
H657 C667 0.929 . S
H658 C662 0.929 . S
H659 C668 0.929 . S
C660 H654 0.930 . S
C660 C661 1.367 . S
C660 C668 1.378 . S
C661 C660 1.367 . S
C661 C669 1.433 . S
C662 H658 0.929 . S
C662 C664 1.378 . S
C662 C666 1.350 . S
C663 C666 1.463 . S
C663 C668 1.350 . S
C663 N671 1.427 . S
C664 H655 0.930 . S
C664 C662 1.378 . S
C664 C665 1.367 . S
C665 C664 1.367 . S
C665 C667 1.433 . S
C666 C662 1.350 . S
C666 C663 1.463 . S
C666 N670 1.427 . S
C667 H657 0.929 . S
C667 C665 1.433 . S
C667 N670 1.384 . S
C668 H659 0.929 . S
C668 C660 1.378 . S
C668 C663 1.350 . S
C669 H656 0.929 . S
C669 C661 1.433 . S
C669 N671 1.384 . S
N670 C666 1.427 . S
N670 C667 1.384 . S
N671 C663 1.427 . S
N671 C669 1.384 . S
H672 C678 0.930 . S
H673 C682 0.930 . S
H674 C687 0.929 . S
H675 C685 0.929 . S
H676 C680 0.929 . S
H677 C686 0.929 . S
C678 H672 0.930 . S
C678 C679 1.367 . S
C678 C686 1.378 . S
C679 C678 1.367 . S
C679 C687 1.433 . S
C680 H676 0.929 . S
C680 C682 1.378 . S
C680 C684 1.350 . S
C681 C684 1.463 . S
C681 C686 1.350 . S
C681 N689 1.427 . S
C682 H673 0.930 . S
C682 C680 1.378 . S
C682 C683 1.367 . S
C683 C682 1.367 . S
C683 C685 1.433 . S
C684 C680 1.350 . S
C684 C681 1.463 . S
C684 N688 1.427 . S
C685 H675 0.929 . S
C685 C683 1.433 . S
C685 N688 1.384 . S
C686 H677 0.929 . S
C686 C678 1.378 . S
C686 C681 1.350 . S
C687 H674 0.929 . S
C687 C679 1.433 . S
C687 N689 1.384 . S
N688 C684 1.427 . S
N688 C685 1.384 . S
N689 C681 1.427 . S
N689 C687 1.384 . S
H690 C696 0.930 . S
H691 C700 0.930 . S
H692 C705 0.929 . S
H693 C703 0.929 . S
H694 C698 0.929 . S
H695 C704 0.929 . S
C696 H690 0.930 . S
C696 C697 1.367 . S
C696 C704 1.378 . S
C697 C696 1.367 . S
C697 C705 1.433 . S
C698 H694 0.929 . S
C698 C700 1.378 . S
C698 C702 1.350 . S
C699 C702 1.463 . S
C699 C704 1.350 . S
C699 N707 1.427 . S
C700 H691 0.930 . S
C700 C698 1.378 . S
C700 C701 1.367 . S
C701 C700 1.367 . S
C701 C703 1.433 . S
C702 C698 1.350 . S
C702 C699 1.463 . S
C702 N706 1.427 . S
C703 H693 0.929 . S
C703 C701 1.433 . S
C703 N706 1.384 . S
C704 H695 0.929 . S
C704 C696 1.378 . S
C704 C699 1.350 . S
C705 H692 0.929 . S
C705 C697 1.433 . S
C705 N707 1.384 . S
N706 C702 1.427 . S
N706 C703 1.384 . S
N707 C699 1.427 . S
N707 C705 1.384 . S
H708 C714 0.930 . S
H709 C718 0.930 . S
H710 C723 0.929 . S
H711 C721 0.929 . S
H712 C716 0.929 . S
H713 C722 0.929 . S
C714 H708 0.930 . S
C714 C715 1.367 . S
C714 C722 1.378 . S
C715 C714 1.367 . S
C715 C723 1.433 . S
C716 H712 0.929 . S
C716 C718 1.378 . S
C716 C720 1.350 . S
C717 C720 1.463 . S
C717 C722 1.350 . S
C717 N725 1.427 . S
C718 H709 0.930 . S
C718 C716 1.378 . S
C718 C719 1.367 . S
C719 C718 1.367 . S
C719 C721 1.433 . S
C720 C716 1.350 . S
C720 C717 1.463 . S
C720 N724 1.427 . S
C721 H711 0.929 . S
C721 C719 1.433 . S
C721 N724 1.384 . S
C722 H713 0.929 . S
C722 C714 1.378 . S
C722 C717 1.350 . S
C723 H710 0.929 . S
C723 C715 1.433 . S
C723 N725 1.384 . S
N724 C720 1.427 . S
N724 C721 1.384 . S
N725 C717 1.427 . S
N725 C723 1.384 . S
H726 C732 0.930 . S
H727 C736 0.930 . S
H728 C741 0.929 . S
H729 C739 0.929 . S
H730 C734 0.929 . S
H731 C740 0.929 . S
C732 H726 0.930 . S
C732 C733 1.367 . S
C732 C740 1.378 . S
C733 C732 1.367 . S
C733 C741 1.433 . S
C734 H730 0.929 . S
C734 C736 1.378 . S
C734 C738 1.350 . S
C735 C738 1.463 . S
C735 C740 1.350 . S
C735 N743 1.427 . S
C736 H727 0.930 . S
C736 C734 1.378 . S
C736 C737 1.367 . S
C737 C736 1.367 . S
C737 C739 1.433 . S
C738 C734 1.350 . S
C738 C735 1.463 . S
C738 N742 1.427 . S
C739 H729 0.929 . S
C739 C737 1.433 . S
C739 N742 1.384 . S
C740 H731 0.929 . S
C740 C732 1.378 . S
C740 C735 1.350 . S
C741 H728 0.929 . S
C741 C733 1.433 . S
C741 N743 1.384 . S
N742 C738 1.427 . S
N742 C739 1.384 . S
N743 C735 1.427 . S
N743 C741 1.384 . S
H744 C750 0.930 . S
H745 C754 0.930 . S
H746 C759 0.929 . S
H747 C757 0.929 . S
H748 C752 0.929 . S
H749 C758 0.929 . S
C750 H744 0.930 . S
C750 C751 1.367 . S
C750 C758 1.378 . S
C751 C750 1.367 . S
C751 C759 1.433 . S
C752 H748 0.929 . S
C752 C754 1.378 . S
C752 C756 1.350 . S
C753 C756 1.463 . S
C753 C758 1.350 . S
C753 N761 1.427 . S
C754 H745 0.930 . S
C754 C752 1.378 . S
C754 C755 1.367 . S
C755 C754 1.367 . S
C755 C757 1.433 . S
C756 C752 1.350 . S
C756 C753 1.463 . S
C756 N760 1.427 . S
C757 H747 0.929 . S
C757 C755 1.433 . S
C757 N760 1.384 . S
C758 H749 0.929 . S
C758 C750 1.378 . S
C758 C753 1.350 . S
C759 H746 0.929 . S
C759 C751 1.433 . S
C759 N761 1.384 . S
N760 C756 1.427 . S
N760 C757 1.384 . S
N761 C753 1.427 . S
N761 C759 1.384 . S
H762 C768 0.930 . S
H763 C772 0.930 . S
H764 C777 0.929 . S
H765 C775 0.929 . S
H766 C770 0.929 . S
H767 C776 0.929 . S
C768 H762 0.930 . S
C768 C769 1.367 . S
C768 C776 1.378 . S
C769 C768 1.367 . S
C769 C777 1.433 . S
C770 H766 0.929 . S
C770 C772 1.378 . S
C770 C774 1.350 . S
C771 C774 1.463 . S
C771 C776 1.350 . S
C771 N779 1.427 . S
C772 H763 0.930 . S
C772 C770 1.378 . S
C772 C773 1.367 . S
C773 C772 1.367 . S
C773 C775 1.433 . S
C774 C770 1.350 . S
C774 C771 1.463 . S
C774 N778 1.427 . S
C775 H765 0.929 . S
C775 C773 1.433 . S
C775 N778 1.384 . S
C776 H767 0.929 . S
C776 C768 1.378 . S
C776 C771 1.350 . S
C777 H764 0.929 . S
C777 C769 1.433 . S
C777 N779 1.384 . S
N778 C774 1.427 . S
N778 C775 1.384 . S
N779 C771 1.427 . S
N779 C777 1.384 . S
H780 C786 0.930 . S
H781 C790 0.930 . S
H782 C795 0.929 . S
H783 C793 0.929 . S
H784 C788 0.929 . S
H785 C794 0.929 . S
C786 H780 0.930 . S
C786 C787 1.367 . S
C786 C794 1.378 . S
C787 C786 1.367 . S
C787 C795 1.433 . S
C788 H784 0.929 . S
C788 C790 1.378 . S
C788 C792 1.350 . S
C789 C792 1.463 . S
C789 C794 1.350 . S
C789 N797 1.427 . S
C790 H781 0.930 . S
C790 C788 1.378 . S
C790 C791 1.367 . S
C791 C790 1.367 . S
C791 C793 1.433 . S
C792 C788 1.350 . S
C792 C789 1.463 . S
C792 N796 1.427 . S
C793 H783 0.929 . S
C793 C791 1.433 . S
C793 N796 1.384 . S
C794 H785 0.929 . S
C794 C786 1.378 . S
C794 C789 1.350 . S
C795 H782 0.929 . S
C795 C787 1.433 . S
C795 N797 1.384 . S
N796 C792 1.427 . S
N796 C793 1.384 . S
N797 C789 1.427 . S
N797 C795 1.384 . S
H798 C804 0.930 . S
H799 C808 0.930 . S
H800 C813 0.929 . S
H801 C811 0.929 . S
H802 C806 0.929 . S
H803 C812 0.929 . S
C804 H798 0.930 . S
C804 C805 1.367 . S
C804 C812 1.378 . S
C805 C804 1.367 . S
C805 C813 1.433 . S
C806 H802 0.929 . S
C806 C808 1.378 . S
C806 C810 1.350 . S
C807 C810 1.463 . S
C807 C812 1.350 . S
C807 N815 1.427 . S
C808 H799 0.930 . S
C808 C806 1.378 . S
C808 C809 1.367 . S
C809 C808 1.367 . S
C809 C811 1.433 . S
C810 C806 1.350 . S
C810 C807 1.463 . S
C810 N814 1.427 . S
C811 H801 0.929 . S
C811 C809 1.433 . S
C811 N814 1.384 . S
C812 H803 0.929 . S
C812 C804 1.378 . S
C812 C807 1.350 . S
C813 H800 0.929 . S
C813 C805 1.433 . S
C813 N815 1.384 . S
N814 C810 1.427 . S
N814 C811 1.384 . S
N815 C807 1.427 . S
N815 C813 1.384 . S
H816 C822 0.930 . S
H817 C826 0.930 . S
H818 C831 0.929 . S
H819 C829 0.929 . S
H820 C824 0.929 . S
H821 C830 0.929 . S
C822 H816 0.930 . S
C822 C823 1.367 . S
C822 C830 1.378 . S
C823 C822 1.367 . S
C823 C831 1.433 . S
C824 H820 0.929 . S
C824 C826 1.378 . S
C824 C828 1.350 . S
C825 C828 1.463 . S
C825 C830 1.350 . S
C825 N833 1.427 . S
C826 H817 0.930 . S
C826 C824 1.378 . S
C826 C827 1.367 . S
C827 C826 1.367 . S
C827 C829 1.433 . S
C828 C824 1.350 . S
C828 C825 1.463 . S
C828 N832 1.427 . S
C829 H819 0.929 . S
C829 C827 1.433 . S
C829 N832 1.384 . S
C830 H821 0.929 . S
C830 C822 1.378 . S
C830 C825 1.350 . S
C831 H818 0.929 . S
C831 C823 1.433 . S
C831 N833 1.384 . S
N832 C828 1.427 . S
N832 C829 1.384 . S
N833 C825 1.427 . S
N833 C831 1.384 . S
H834 C840 0.930 . S
H835 C844 0.930 . S
H836 C849 0.929 . S
H837 C847 0.929 . S
H838 C842 0.929 . S
H839 C848 0.929 . S
C840 H834 0.930 . S
C840 C841 1.367 . S
C840 C848 1.378 . S
C841 C840 1.367 . S
C841 C849 1.433 . S
C842 H838 0.929 . S
C842 C844 1.378 . S
C842 C846 1.350 . S
C843 C846 1.463 . S
C843 C848 1.350 . S
C843 N851 1.427 . S
C844 H835 0.930 . S
C844 C842 1.378 . S
C844 C845 1.367 . S
C845 C844 1.367 . S
C845 C847 1.433 . S
C846 C842 1.350 . S
C846 C843 1.463 . S
C846 N850 1.427 . S
C847 H837 0.929 . S
C847 C845 1.433 . S
C847 N850 1.384 . S
C848 H839 0.929 . S
C848 C840 1.378 . S
C848 C843 1.350 . S
C849 H836 0.929 . S
C849 C841 1.433 . S
C849 N851 1.384 . S
N850 C846 1.427 . S
N850 C847 1.384 . S
N851 C843 1.427 . S
N851 C849 1.384 . S
H852 C858 0.930 . S
H853 C862 0.930 . S
H854 C867 0.929 . S
H855 C865 0.929 . S
H856 C860 0.929 . S
H857 C866 0.929 . S
C858 H852 0.930 . S
C858 C859 1.367 . S
C858 C866 1.378 . S
C859 C858 1.367 . S
C859 C867 1.433 . S
C860 H856 0.929 . S
C860 C862 1.378 . S
C860 C864 1.350 . S
C861 C864 1.463 . S
C861 C866 1.350 . S
C861 N869 1.427 . S
C862 H853 0.930 . S
C862 C860 1.378 . S
C862 C863 1.367 . S
C863 C862 1.367 . S
C863 C865 1.433 . S
C864 C860 1.350 . S
C864 C861 1.463 . S
C864 N868 1.427 . S
C865 H855 0.929 . S
C865 C863 1.433 . S
C865 N868 1.384 . S
C866 H857 0.929 . S
C866 C858 1.378 . S
C866 C861 1.350 . S
C867 H854 0.929 . S
C867 C859 1.433 . S
C867 N869 1.384 . S
N868 C864 1.427 . S
N868 C865 1.384 . S
N869 C861 1.427 . S
N869 C867 1.384 . S
H870 C876 0.930 . S
H871 C880 0.930 . S
H872 C885 0.929 . S
H873 C883 0.929 . S
H874 C878 0.929 . S
H875 C884 0.929 . S
C876 H870 0.930 . S
C876 C877 1.367 . S
C876 C884 1.378 . S
C877 C876 1.367 . S
C877 C885 1.433 . S
C878 H874 0.929 . S
C878 C880 1.378 . S
C878 C882 1.350 . S
C879 C882 1.463 . S
C879 C884 1.350 . S
C879 N887 1.427 . S
C880 H871 0.930 . S
C880 C878 1.378 . S
C880 C881 1.367 . S
C881 C880 1.367 . S
C881 C883 1.433 . S
C882 C878 1.350 . S
C882 C879 1.463 . S
C882 N886 1.427 . S
C883 H873 0.929 . S
C883 C881 1.433 . S
C883 N886 1.384 . S
C884 H875 0.929 . S
C884 C876 1.378 . S
C884 C879 1.350 . S
C885 H872 0.929 . S
C885 C877 1.433 . S
C885 N887 1.384 . S
N886 C882 1.427 . S
N886 C883 1.384 . S
N887 C879 1.427 . S
N887 C885 1.384 . S
H888 C894 0.930 . S
H889 C898 0.930 . S
H890 C903 0.929 . S
H891 C901 0.929 . S
H892 C896 0.929 . S
H893 C902 0.929 . S
C894 H888 0.930 . S
C894 C895 1.367 . S
C894 C902 1.378 . S
C895 C894 1.367 . S
C895 C903 1.433 . S
C896 H892 0.929 . S
C896 C898 1.378 . S
C896 C900 1.350 . S
C897 C900 1.463 . S
C897 C902 1.350 . S
C897 N905 1.427 . S
C898 H889 0.930 . S
C898 C896 1.378 . S
C898 C899 1.367 . S
C899 C898 1.367 . S
C899 C901 1.433 . S
C900 C896 1.350 . S
C900 C897 1.463 . S
C900 N904 1.427 . S
C901 H891 0.929 . S
C901 C899 1.433 . S
C901 N904 1.384 . S
C902 H893 0.929 . S
C902 C894 1.378 . S
C902 C897 1.350 . S
C903 H890 0.929 . S
C903 C895 1.433 . S
C903 N905 1.384 . S
N904 C900 1.427 . S
N904 C901 1.384 . S
N905 C897 1.427 . S
N905 C903 1.384 . S
H906 C912 0.930 . S
H907 C916 0.930 . S
H908 C921 0.929 . S
H909 C919 0.929 . S
H910 C914 0.929 . S
H911 C920 0.929 . S
C912 H906 0.930 . S
C912 C913 1.367 . S
C912 C920 1.378 . S
C913 C912 1.367 . S
C913 C921 1.433 . S
C914 H910 0.929 . S
C914 C916 1.378 . S
C914 C918 1.350 . S
C915 C918 1.463 . S
C915 C920 1.350 . S
C915 N923 1.427 . S
C916 H907 0.930 . S
C916 C914 1.378 . S
C916 C917 1.367 . S
C917 C916 1.367 . S
C917 C919 1.433 . S
C918 C914 1.350 . S
C918 C915 1.463 . S
C918 N922 1.427 . S
C919 H909 0.929 . S
C919 C917 1.433 . S
C919 N922 1.384 . S
C920 H911 0.929 . S
C920 C912 1.378 . S
C920 C915 1.350 . S
C921 H908 0.929 . S
C921 C913 1.433 . S
C921 N923 1.384 . S
N922 C918 1.427 . S
N922 C919 1.384 . S
N923 C915 1.427 . S
N923 C921 1.384 . S
H924 C930 0.930 . S
H925 C934 0.930 . S
H926 C939 0.929 . S
H927 C937 0.929 . S
H928 C932 0.929 . S
H929 C938 0.929 . S
C930 H924 0.930 . S
C930 C931 1.367 . S
C930 C938 1.378 . S
C931 C930 1.367 . S
C931 C939 1.433 . S
C932 H928 0.929 . S
C932 C934 1.378 . S
C932 C936 1.350 . S
C933 C936 1.463 . S
C933 C938 1.350 . S
C933 N941 1.427 . S
C934 H925 0.930 . S
C934 C932 1.378 . S
C934 C935 1.367 . S
C935 C934 1.367 . S
C935 C937 1.433 . S
C936 C932 1.350 . S
C936 C933 1.463 . S
C936 N940 1.427 . S
C937 H927 0.929 . S
C937 C935 1.433 . S
C937 N940 1.384 . S
C938 H929 0.929 . S
C938 C930 1.378 . S
C938 C933 1.350 . S
C939 H926 0.929 . S
C939 C931 1.433 . S
C939 N941 1.384 . S
N940 C936 1.427 . S
N940 C937 1.384 . S
N941 C933 1.427 . S
N941 C939 1.384 . S
H942 C948 0.930 . S
H943 C952 0.930 . S
H944 C957 0.929 . S
H945 C955 0.929 . S
H946 C950 0.929 . S
H947 C956 0.929 . S
C948 H942 0.930 . S
C948 C949 1.367 . S
C948 C956 1.378 . S
C949 C948 1.367 . S
C949 C957 1.433 . S
C950 H946 0.929 . S
C950 C952 1.378 . S
C950 C954 1.350 . S
C951 C954 1.463 . S
C951 C956 1.350 . S
C951 N959 1.427 . S
C952 H943 0.930 . S
C952 C950 1.378 . S
C952 C953 1.367 . S
C953 C952 1.367 . S
C953 C955 1.433 . S
C954 C950 1.350 . S
C954 C951 1.463 . S
C954 N958 1.427 . S
C955 H945 0.929 . S
C955 C953 1.433 . S
C955 N958 1.384 . S
C956 H947 0.929 . S
C956 C948 1.378 . S
C956 C951 1.350 . S
C957 H944 0.929 . S
C957 C949 1.433 . S
C957 N959 1.384 . S
N958 C954 1.427 . S
N958 C955 1.384 . S
N959 C951 1.427 . S
N959 C957 1.384 . S
H960 C966 0.930 . S
H961 C970 0.930 . S
H962 C975 0.929 . S
H963 C973 0.929 . S
H964 C968 0.929 . S
H965 C974 0.929 . S
C966 H960 0.930 . S
C966 C967 1.367 . S
C966 C974 1.378 . S
C967 C966 1.367 . S
C967 C975 1.433 1_545 S
C968 H964 0.929 . S
C968 C970 1.378 . S
C968 C972 1.350 1_565 S
C969 C972 1.463 1_655 S
C969 C974 1.350 . S
C969 N977 1.427 1_545 S
C970 H961 0.930 . S
C970 C968 1.378 . S
C970 C971 1.367 1_565 S
C971 C970 1.367 1_545 S
C971 C973 1.433 . S
C972 C968 1.350 1_545 S
C972 C969 1.463 1_455 S
C972 N976 1.427 . S
C973 H963 0.929 . S
C973 C971 1.433 . S
C973 N976 1.384 . S
C974 H965 0.929 . S
C974 C966 1.378 . S
C974 C969 1.350 . S
C975 H962 0.929 . S
C975 C967 1.433 1_565 S
C975 N977 1.384 . S
N976 C972 1.427 . S
N976 C973 1.384 . S
N977 C969 1.427 1_565 S
N977 C975 1.384 . S
H978 C984 0.930 . S
H979 C988 0.930 . S
H980 C993 0.929 . S
H981 C991 0.929 . S
H982 C986 0.929 . S
H983 C992 0.929 . S
C984 H978 0.930 . S
C984 C985 1.367 . S
C984 C992 1.378 . S
C985 C984 1.367 . S
C985 C993 1.433 1_545 S
C986 H982 0.929 . S
C986 C988 1.378 . S
C986 C990 1.350 1_565 S
C987 C990 1.463 1_455 S
C987 C992 1.350 . S
C987 N995 1.427 1_545 S
C988 H979 0.930 . S
C988 C986 1.378 . S
C988 C989 1.367 1_565 S
C989 C988 1.367 1_545 S
C989 C991 1.433 . S
C990 C986 1.350 1_545 S
C990 C987 1.463 1_655 S
C990 N994 1.427 . S
C991 H981 0.929 . S
C991 C989 1.433 . S
C991 N994 1.384 . S
C992 H983 0.929 . S
C992 C984 1.378 . S
C992 C987 1.350 . S
C993 H980 0.929 . S
C993 C985 1.433 1_565 S
C993 N995 1.384 . S
N994 C990 1.427 . S
N994 C991 1.384 . S
N995 C987 1.427 1_565 S
N995 C993 1.384 . S
H996 C1002 0.930 . S
H997 C1006 0.930 . S
H998 C1011 0.929 . S
H999 C1009 0.929 . S
H1000 C1004 0.929 . S
H1001 C1010 0.929 . S
C1002 H996 0.930 . S
C1002 C1003 1.367 . S
C1002 C1010 1.378 . S
C1003 C1002 1.367 . S
C1003 C1011 1.433 . S
C1004 H1000 0.929 . S
C1004 C1006 1.378 . S
C1004 C1008 1.350 . S
C1005 C1008 1.463 1_655 S
C1005 C1010 1.350 . S
C1005 N1013 1.427 . S
C1006 H997 0.930 . S
C1006 C1004 1.378 . S
C1006 C1007 1.367 . S
C1007 C1006 1.367 . S
C1007 C1009 1.433 . S
C1008 C1004 1.350 . S
C1008 C1005 1.463 1_455 S
C1008 N1012 1.427 . S
C1009 H999 0.929 . S
C1009 C1007 1.433 . S
C1009 N1012 1.384 . S
C1010 H1001 0.929 . S
C1010 C1002 1.378 . S
C1010 C1005 1.350 . S
C1011 H998 0.929 . S
C1011 C1003 1.433 . S
C1011 N1013 1.384 . S
N1012 C1008 1.427 . S
N1012 C1009 1.384 . S
N1013 C1005 1.427 . S
N1013 C1011 1.384 . S
H1014 C1020 0.930 . S
H1015 C1024 0.930 . S
H1016 C1029 0.929 . S
H1017 C1027 0.929 . S
H1018 C1022 0.929 . S
H1019 C1028 0.929 . S
C1020 H1014 0.930 . S
C1020 C1021 1.367 . S
C1020 C1028 1.378 . S
C1021 C1020 1.367 . S
C1021 C1029 1.433 . S
C1022 H1018 0.929 . S
C1022 C1024 1.378 . S
C1022 C1026 1.350 . S
C1023 C1026 1.463 1_655 S
C1023 C1028 1.350 . S
C1023 N1031 1.427 . S
C1024 H1015 0.930 . S
C1024 C1022 1.378 . S
C1024 C1025 1.367 . S
C1025 C1024 1.367 . S
C1025 C1027 1.433 . S
C1026 C1022 1.350 . S
C1026 C1023 1.463 1_455 S
C1026 N1030 1.427 . S
C1027 H1017 0.929 . S
C1027 C1025 1.433 . S
C1027 N1030 1.384 . S
C1028 H1019 0.929 . S
C1028 C1020 1.378 . S
C1028 C1023 1.350 . S
C1029 H1016 0.929 . S
C1029 C1021 1.433 . S
C1029 N1031 1.384 . S
N1030 C1026 1.427 . S
N1030 C1027 1.384 . S
N1031 C1023 1.427 . S
N1031 C1029 1.384 . S
H1032 C1038 0.930 . S
H1033 C1042 0.930 . S
H1034 C1047 0.929 . S
H1035 C1045 0.929 . S
H1036 C1040 0.929 . S
H1037 C1046 0.929 . S
C1038 H1032 0.930 . S
C1038 C1039 1.367 1_565 S
C1038 C1046 1.378 . S
C1039 C1038 1.367 1_545 S
C1039 C1047 1.433 . S
C1040 H1036 0.929 . S
C1040 C1042 1.378 . S
C1040 C1044 1.350 . S
C1041 C1044 1.463 . S
C1041 C1046 1.350 1_545 S
C1041 N1049 1.427 . S
C1042 H1033 0.930 . S
C1042 C1040 1.378 . S
C1042 C1043 1.367 . S
C1043 C1042 1.367 . S
C1043 C1045 1.433 1_545 S
C1044 C1040 1.350 . S
C1044 C1041 1.463 . S
C1044 N1048 1.427 1_545 S
C1045 H1035 0.929 . S
C1045 C1043 1.433 1_565 S
C1045 N1048 1.384 . S
C1046 H1037 0.929 . S
C1046 C1038 1.378 . S
C1046 C1041 1.350 1_565 S
C1047 H1034 0.929 . S
C1047 C1039 1.433 . S
C1047 N1049 1.384 . S
N1048 C1044 1.427 1_565 S
N1048 C1045 1.384 . S
N1049 C1041 1.427 . S
N1049 C1047 1.384 . S
H1050 C1056 0.930 . S
H1051 C1060 0.930 . S
H1052 C1065 0.929 . S
H1053 C1063 0.929 . S
H1054 C1058 0.929 . S
H1055 C1064 0.929 . S
C1056 H1050 0.930 . S
C1056 C1057 1.367 . S
C1056 C1064 1.378 . S
C1057 C1056 1.367 . S
C1057 C1065 1.433 . S
C1058 H1054 0.929 . S
C1058 C1060 1.378 . S
C1058 C1062 1.350 . S
C1059 C1062 1.463 . S
C1059 C1064 1.350 . S
C1059 N1067 1.427 . S
C1060 H1051 0.930 . S
C1060 C1058 1.378 . S
C1060 C1061 1.367 . S
C1061 C1060 1.367 . S
C1061 C1063 1.433 . S
C1062 C1058 1.350 . S
C1062 C1059 1.463 . S
C1062 N1066 1.427 . S
C1063 H1053 0.929 . S
C1063 C1061 1.433 . S
C1063 N1066 1.384 . S
C1064 H1055 0.929 . S
C1064 C1056 1.378 . S
C1064 C1059 1.350 . S
C1065 H1052 0.929 . S
C1065 C1057 1.433 . S
C1065 N1067 1.384 . S
N1066 C1062 1.427 . S
N1066 C1063 1.384 . S
N1067 C1059 1.427 . S
N1067 C1065 1.384 . S
H1068 C1074 0.930 . S
H1069 C1078 0.930 . S
H1070 C1083 0.929 . S
H1071 C1081 0.929 . S
H1072 C1076 0.929 . S
H1073 C1082 0.929 . S
C1074 H1068 0.930 . S
C1074 C1075 1.367 . S
C1074 C1082 1.378 . S
C1075 C1074 1.367 . S
C1075 C1083 1.433 . S
C1076 H1072 0.929 . S
C1076 C1078 1.378 . S
C1076 C1080 1.350 . S
C1077 C1080 1.463 . S
C1077 C1082 1.350 . S
C1077 N1085 1.427 . S
C1078 H1069 0.930 . S
C1078 C1076 1.378 . S
C1078 C1079 1.367 . S
C1079 C1078 1.367 . S
C1079 C1081 1.433 . S
C1080 C1076 1.350 . S
C1080 C1077 1.463 . S
C1080 N1084 1.427 . S
C1081 H1071 0.929 . S
C1081 C1079 1.433 . S
C1081 N1084 1.384 . S
C1082 H1073 0.929 . S
C1082 C1074 1.378 . S
C1082 C1077 1.350 . S
C1083 H1070 0.929 . S
C1083 C1075 1.433 . S
C1083 N1085 1.384 . S
N1084 C1080 1.427 . S
N1084 C1081 1.384 . S
N1085 C1077 1.427 . S
N1085 C1083 1.384 . S
H1086 C1092 0.930 . S
H1087 C1096 0.930 . S
H1088 C1101 0.929 . S
H1089 C1099 0.929 . S
H1090 C1094 0.929 . S
H1091 C1100 0.929 . S
C1092 H1086 0.930 . S
C1092 C1093 1.367 . S
C1092 C1100 1.378 . S
C1093 C1092 1.367 . S
C1093 C1101 1.433 . S
C1094 H1090 0.929 . S
C1094 C1096 1.378 . S
C1094 C1098 1.350 . S
C1095 C1098 1.463 . S
C1095 C1100 1.350 . S
C1095 N1103 1.427 . S
C1096 H1087 0.930 . S
C1096 C1094 1.378 . S
C1096 C1097 1.367 . S
C1097 C1096 1.367 . S
C1097 C1099 1.433 . S
C1098 C1094 1.350 . S
C1098 C1095 1.463 . S
C1098 N1102 1.427 . S
C1099 H1089 0.929 . S
C1099 C1097 1.433 . S
C1099 N1102 1.384 . S
C1100 H1091 0.929 . S
C1100 C1092 1.378 . S
C1100 C1095 1.350 . S
C1101 H1088 0.929 . S
C1101 C1093 1.433 . S
C1101 N1103 1.384 . S
N1102 C1098 1.427 . S
N1102 C1099 1.384 . S
N1103 C1095 1.427 . S
N1103 C1101 1.384 . S
H1104 C1110 0.930 . S
H1105 C1114 0.930 . S
H1106 C1119 0.929 . S
H1107 C1117 0.929 . S
H1108 C1112 0.929 . S
H1109 C1118 0.929 . S
C1110 H1104 0.930 . S
C1110 C1111 1.367 . S
C1110 C1118 1.378 . S
C1111 C1110 1.367 . S
C1111 C1119 1.433 1_545 S
C1112 H1108 0.929 . S
C1112 C1114 1.378 . S
C1112 C1116 1.350 1_565 S
C1113 C1116 1.463 1_556 S
C1113 C1118 1.350 . S
C1113 N1121 1.427 1_545 S
C1114 H1105 0.930 . S
C1114 C1112 1.378 . S
C1114 C1115 1.367 1_565 S
C1115 C1114 1.367 1_545 S
C1115 C1117 1.433 . S
C1116 C1112 1.350 1_545 S
C1116 C1113 1.463 1_554 S
C1116 N1120 1.427 . S
C1117 H1107 0.929 . S
C1117 C1115 1.433 . S
C1117 N1120 1.384 . S
C1118 H1109 0.929 . S
C1118 C1110 1.378 . S
C1118 C1113 1.350 . S
C1119 H1106 0.929 . S
C1119 C1111 1.433 1_565 S
C1119 N1121 1.384 . S
N1120 C1116 1.427 . S
N1120 C1117 1.384 . S
N1121 C1113 1.427 1_565 S
N1121 C1119 1.384 . S
H1122 C1128 0.930 . S
H1123 C1132 0.930 . S
H1124 C1137 0.929 . S
H1125 C1135 0.929 . S
H1126 C1130 0.929 . S
H1127 C1136 0.929 . S
C1128 H1122 0.930 . S
C1128 C1129 1.367 1_565 S
C1128 C1136 1.378 . S
C1129 C1128 1.367 1_545 S
C1129 C1137 1.433 . S
C1130 H1126 0.929 . S
C1130 C1132 1.378 . S
C1130 C1134 1.350 . S
C1131 C1134 1.463 1_556 S
C1131 C1136 1.350 1_545 S
C1131 N1139 1.427 . S
C1132 H1123 0.930 . S
C1132 C1130 1.378 . S
C1132 C1133 1.367 . S
C1133 C1132 1.367 . S
C1133 C1135 1.433 1_545 S
C1134 C1130 1.350 . S
C1134 C1131 1.463 1_554 S
C1134 N1138 1.427 1_545 S
C1135 H1125 0.929 . S
C1135 C1133 1.433 1_565 S
C1135 N1138 1.384 . S
C1136 H1127 0.929 . S
C1136 C1128 1.378 . S
C1136 C1131 1.350 1_565 S
C1137 H1124 0.929 . S
C1137 C1129 1.433 . S
C1137 N1139 1.384 . S
N1138 C1134 1.427 1_565 S
N1138 C1135 1.384 . S
N1139 C1131 1.427 . S
N1139 C1137 1.384 . S
H1140 C1146 0.930 . S
H1141 C1150 0.930 . S
H1142 C1155 0.929 . S
H1143 C1153 0.929 . S
H1144 C1148 0.929 . S
H1145 C1154 0.929 . S
C1146 H1140 0.930 . S
C1146 C1147 1.367 . S
C1146 C1154 1.378 . S
C1147 C1146 1.367 . S
C1147 C1155 1.433 . S
C1148 H1144 0.929 . S
C1148 C1150 1.378 . S
C1148 C1152 1.350 . S
C1149 C1152 1.463 . S
C1149 C1154 1.350 . S
C1149 N1157 1.427 . S
C1150 H1141 0.930 . S
C1150 C1148 1.378 . S
C1150 C1151 1.367 . S
C1151 C1150 1.367 . S
C1151 C1153 1.433 . S
C1152 C1148 1.350 . S
C1152 C1149 1.463 . S
C1152 N1156 1.427 . S
C1153 H1143 0.929 . S
C1153 C1151 1.433 . S
C1153 N1156 1.384 . S
C1154 H1145 0.929 . S
C1154 C1146 1.378 . S
C1154 C1149 1.350 . S
C1155 H1142 0.929 . S
C1155 C1147 1.433 . S
C1155 N1157 1.384 . S
N1156 C1152 1.427 . S
N1156 C1153 1.384 . S
N1157 C1149 1.427 . S
N1157 C1155 1.384 . S
H1158 C1164 0.930 . S
H1159 C1168 0.930 . S
H1160 C1173 0.929 . S
H1161 C1171 0.929 . S
H1162 C1166 0.929 . S
H1163 C1172 0.929 . S
C1164 H1158 0.930 . S
C1164 C1165 1.367 . S
C1164 C1172 1.378 . S
C1165 C1164 1.367 . S
C1165 C1173 1.433 . S
C1166 H1162 0.929 . S
C1166 C1168 1.378 . S
C1166 C1170 1.350 . S
C1167 C1170 1.463 . S
C1167 C1172 1.350 . S
C1167 N1175 1.427 . S
C1168 H1159 0.930 . S
C1168 C1166 1.378 . S
C1168 C1169 1.367 . S
C1169 C1168 1.367 . S
C1169 C1171 1.433 . S
C1170 C1166 1.350 . S
C1170 C1167 1.463 . S
C1170 N1174 1.427 . S
C1171 H1161 0.929 . S
C1171 C1169 1.433 . S
C1171 N1174 1.384 . S
C1172 H1163 0.929 . S
C1172 C1164 1.378 . S
C1172 C1167 1.350 . S
C1173 H1160 0.929 . S
C1173 C1165 1.433 . S
C1173 N1175 1.384 . S
N1174 C1170 1.427 . S
N1174 C1171 1.384 . S
N1175 C1167 1.427 . S
N1175 C1173 1.384 . S
H1176 C1182 0.930 . S
H1177 C1186 0.930 . S
H1178 C1191 0.929 . S
H1179 C1189 0.929 . S
H1180 C1184 0.929 . S
H1181 C1190 0.929 . S
C1182 H1176 0.930 . S
C1182 C1183 1.367 . S
C1182 C1190 1.378 . S
C1183 C1182 1.367 . S
C1183 C1191 1.433 1_545 S
C1184 H1180 0.929 . S
C1184 C1186 1.378 . S
C1184 C1188 1.350 1_565 S
C1185 C1188 1.463 . S
C1185 C1190 1.350 . S
C1185 N1193 1.427 1_545 S
C1186 H1177 0.930 . S
C1186 C1184 1.378 . S
C1186 C1187 1.367 1_565 S
C1187 C1186 1.367 1_545 S
C1187 C1189 1.433 . S
C1188 C1184 1.350 1_545 S
C1188 C1185 1.463 . S
C1188 N1192 1.427 . S
C1189 H1179 0.929 . S
C1189 C1187 1.433 . S
C1189 N1192 1.384 . S
C1190 H1181 0.929 . S
C1190 C1182 1.378 . S
C1190 C1185 1.350 . S
C1191 H1178 0.929 . S
C1191 C1183 1.433 1_565 S
C1191 N1193 1.384 . S
N1192 C1188 1.427 . S
N1192 C1189 1.384 . S
N1193 C1185 1.427 1_565 S
N1193 C1191 1.384 . S
H1194 C1200 0.930 . S
H1195 C1204 0.930 . S
H1196 C1209 0.929 . S
H1197 C1207 0.929 . S
H1198 C1202 0.929 . S
H1199 C1208 0.929 . S
C1200 H1194 0.930 . S
C1200 C1201 1.367 1_565 S
C1200 C1208 1.378 . S
C1201 C1200 1.367 1_545 S
C1201 C1209 1.433 . S
C1202 H1198 0.929 . S
C1202 C1204 1.378 . S
C1202 C1206 1.350 . S
C1203 C1206 1.463 . S
C1203 C1208 1.350 1_545 S
C1203 N1211 1.427 . S
C1204 H1195 0.930 . S
C1204 C1202 1.378 . S
C1204 C1205 1.367 . S
C1205 C1204 1.367 . S
C1205 C1207 1.433 1_545 S
C1206 C1202 1.350 . S
C1206 C1203 1.463 . S
C1206 N1210 1.427 1_545 S
C1207 H1197 0.929 . S
C1207 C1205 1.433 1_565 S
C1207 N1210 1.384 . S
C1208 H1199 0.929 . S
C1208 C1200 1.378 . S
C1208 C1203 1.350 1_565 S
C1209 H1196 0.929 . S
C1209 C1201 1.433 . S
C1209 N1211 1.384 . S
N1210 C1206 1.427 1_565 S
N1210 C1207 1.384 . S
N1211 C1203 1.427 . S
N1211 C1209 1.384 . S
H1212 C1218 0.930 . S
H1213 C1222 0.930 . S
H1214 C1227 0.929 . S
H1215 C1225 0.929 . S
H1216 C1220 0.929 . S
H1217 C1226 0.929 . S
C1218 H1212 0.930 . S
C1218 C1219 1.367 . S
C1218 C1226 1.378 . S
C1219 C1218 1.367 . S
C1219 C1227 1.433 . S
C1220 H1216 0.929 . S
C1220 C1222 1.378 . S
C1220 C1224 1.350 . S
C1221 C1224 1.463 1_554 S
C1221 C1226 1.350 . S
C1221 N1229 1.427 . S
C1222 H1213 0.930 . S
C1222 C1220 1.378 . S
C1222 C1223 1.367 . S
C1223 C1222 1.367 . S
C1223 C1225 1.433 . S
C1224 C1220 1.350 . S
C1224 C1221 1.463 1_556 S
C1224 N1228 1.427 . S
C1225 H1215 0.929 . S
C1225 C1223 1.433 . S
C1225 N1228 1.384 . S
C1226 H1217 0.929 . S
C1226 C1218 1.378 . S
C1226 C1221 1.350 . S
C1227 H1214 0.929 . S
C1227 C1219 1.433 . S
C1227 N1229 1.384 . S
N1228 C1224 1.427 . S
N1228 C1225 1.384 . S
N1229 C1221 1.427 . S
N1229 C1227 1.384 . S
H1230 C1236 0.930 . S
H1231 C1240 0.930 . S
H1232 C1245 0.929 . S
H1233 C1243 0.929 . S
H1234 C1238 0.929 . S
H1235 C1244 0.929 . S
C1236 H1230 0.930 . S
C1236 C1237 1.367 . S
C1236 C1244 1.378 . S
C1237 C1236 1.367 . S
C1237 C1245 1.433 . S
C1238 H1234 0.929 . S
C1238 C1240 1.378 . S
C1238 C1242 1.350 . S
C1239 C1242 1.463 1_556 S
C1239 C1244 1.350 . S
C1239 N1247 1.427 . S
C1240 H1231 0.930 . S
C1240 C1238 1.378 . S
C1240 C1241 1.367 . S
C1241 C1240 1.367 . S
C1241 C1243 1.433 . S
C1242 C1238 1.350 . S
C1242 C1239 1.463 1_554 S
C1242 N1246 1.427 . S
C1243 H1233 0.929 . S
C1243 C1241 1.433 . S
C1243 N1246 1.384 . S
C1244 H1235 0.929 . S
C1244 C1236 1.378 . S
C1244 C1239 1.350 . S
C1245 H1232 0.929 . S
C1245 C1237 1.433 . S
C1245 N1247 1.384 . S
N1246 C1242 1.427 . S
N1246 C1243 1.384 . S
N1247 C1239 1.427 . S
N1247 C1245 1.384 . S
C535 N13 1.559 . S
C539 N376 1.550 . S
C553 N46 1.550 1_565 S
C557 N343 1.559 1_565 S
C571 N310 1.564 1_565 S
C575 N79 1.551 1_565 S
C589 N277 1.551 . S
C593 N112 1.564 . S
C607 N145 1.564 . S
C611 N508 1.555 . S
C625 N178 1.551 . S
C629 N475 1.564 . S
C643 N442 1.552 . S
C647 N211 1.564 . S
C661 N409 1.564 . S
C665 N244 1.552 . S
C679 C18 1.029 . S
C683 C447 1.029 . S
C697 C414 1.029 . S
C701 C51 1.029 . S
C715 C84 1.028 . S
C719 C513 1.028 . S
C733 C480 1.033 . S
C737 C117 1.033 . S
C751 C106 1.636 . S
C755 C469 1.636 . S
C769 C502 1.636 . S
C773 C73 1.637 . S
C787 C403 1.637 . S
C791 C40 1.638 . S
C805 C7 1.637 . S
C809 C436 1.637 . S
C823 C150 1.033 . S
C827 C315 1.033 . S
C841 C183 1.033 . S
C845 C282 1.033 . S
C859 C216 1.035 . S
C863 C381 1.035 . S
C877 C249 1.032 . S
C881 C348 1.032 . S
C895 C238 1.636 . S
C899 C337 1.637 . S
C913 C205 1.633 . S
C917 C370 1.633 . S
C931 C172 1.634 . S
C935 C271 1.633 . S
C949 C139 1.635 . S
C953 C304 1.634 . S
C967 C54 1.493 . S
C971 C21 1.493 . S
C985 C87 1.493 . S
C989 C120 1.493 . S
C1003 C186 1.492 . S
C1007 C153 1.494 . S
C1021 C252 1.492 . S
C1025 C219 1.494 . S
C1039 C318 1.492 . S
C1043 C285 1.494 . S
C1057 C384 1.494 . S
C1061 C351 1.492 . S
C1075 C417 1.492 . S
C1079 C450 1.494 . S
C1093 C516 1.494 . S
C1097 C483 1.492 . S
C1111 N68 1.493 . S
C1115 N2 1.493 . S
C1129 N101 1.493 . S
C1133 N35 1.489 . S
C1147 N134 1.479 . S
C1151 N200 1.483 . S
C1165 N233 1.485 . S
C1169 N167 1.481 . S
C1183 N266 1.479 . S
C1187 N332 1.482 . S
C1201 N365 1.493 . S
C1205 N299 1.493 . S
C1219 N398 1.492 . S
C1223 N464 1.489 . S
C1237 N497 1.493 . S
C1241 N431 1.493 . S
