# Generated by pormake.
# Topology whv, (6)-cn, num edge types: 1
# Building blocks:
#     Node 0, Type 0, BuildingBlock: MIDCAF_clean_sbu_0, # of connection points: 6
#     Node 1, Type 0, BuildingBlock: MIDCAF_clean_sbu_0, # of connection points: 6
#     Node 2, Type 0, BuildingBlock: MIDCAF_clean_sbu_0, # of connection points: 6
#     Node 3, Type 0, BuildingBlock: MIDCAF_clean_sbu_0, # of connection points: 6
#     Node 4, Type 0, BuildingBlock: MIDCAF_clean_sbu_0, # of connection points: 6
#     Node 5, Type 0, BuildingBlock: MIDCAF_clean_sbu_0, # of connection points: 6
#     Node 6, Type 0, BuildingBlock: MIDCAF_clean_sbu_0, # of connection points: 6
#     Node 7, Type 0, BuildingBlock: MIDCAF_clean_sbu_0, # of connection points: 6
#     Node 8, Type 0, BuildingBlock: MIDCAF_clean_sbu_0, # of connection points: 6
#     Node 9, Type 0, BuildingBlock: MIDCAF_clean_sbu_0, # of connection points: 6
#     Node 10, Type 0, BuildingBlock: MIDCAF_clean_sbu_0, # of connection points: 6
#     Node 11, Type 0, BuildingBlock: MIDCAF_clean_sbu_0, # of connection points: 6
#     Node 12, Type 0, BuildingBlock: MIDCAF_clean_sbu_0, # of connection points: 6
#     Node 13, Type 0, BuildingBlock: MIDCAF_clean_sbu_0, # of connection points: 6
#     Node 14, Type 0, BuildingBlock: MIDCAF_clean_sbu_0, # of connection points: 6
#     Node 15, Type 0, BuildingBlock: MIDCAF_clean_sbu_0, # of connection points: 6
#     Edge 16, Type (0, 0), BuildingBlock: CIFDUS_clean_linker_0, # of connection points: 2
#     Edge 17, Type (0, 0), BuildingBlock: CIFDUS_clean_linker_0, # of connection points: 2
#     Edge 18, Type (0, 0), BuildingBlock: CIFDUS_clean_linker_0, # of connection points: 2
#     Edge 19, Type (0, 0), BuildingBlock: CIFDUS_clean_linker_0, # of connection points: 2
#     Edge 20, Type (0, 0), BuildingBlock: CIFDUS_clean_linker_0, # of connection points: 2
#     Edge 21, Type (0, 0), BuildingBlock: CIFDUS_clean_linker_0, # of connection points: 2
#     Edge 22, Type (0, 0), BuildingBlock: CIFDUS_clean_linker_0, # of connection points: 2
#     Edge 23, Type (0, 0), BuildingBlock: CIFDUS_clean_linker_0, # of connection points: 2
#     Edge 24, Type (0, 0), BuildingBlock: CIFDUS_clean_linker_0, # of connection points: 2
#     Edge 25, Type (0, 0), BuildingBlock: CIFDUS_clean_linker_0, # of connection points: 2
#     Edge 26, Type (0, 0), BuildingBlock: CIFDUS_clean_linker_0, # of connection points: 2
#     Edge 27, Type (0, 0), BuildingBlock: CIFDUS_clean_linker_0, # of connection points: 2
#     Edge 28, Type (0, 0), BuildingBlock: CIFDUS_clean_linker_0, # of connection points: 2
#     Edge 29, Type (0, 0), BuildingBlock: CIFDUS_clean_linker_0, # of connection points: 2
#     Edge 30, Type (0, 0), BuildingBlock: CIFDUS_clean_linker_0, # of connection points: 2
#     Edge 31, Type (0, 0), BuildingBlock: CIFDUS_clean_linker_0, # of connection points: 2
#     Edge 32, Type (0, 0), BuildingBlock: CIFDUS_clean_linker_0, # of connection points: 2
#     Edge 33, Type (0, 0), BuildingBlock: CIFDUS_clean_linker_0, # of connection points: 2
#     Edge 34, Type (0, 0), BuildingBlock: CIFDUS_clean_linker_0, # of connection points: 2
#     Edge 35, Type (0, 0), BuildingBlock: CIFDUS_clean_linker_0, # of connection points: 2
#     Edge 36, Type (0, 0), BuildingBlock: CIFDUS_clean_linker_0, # of connection points: 2
#     Edge 37, Type (0, 0), BuildingBlock: CIFDUS_clean_linker_0, # of connection points: 2
#     Edge 38, Type (0, 0), BuildingBlock: CIFDUS_clean_linker_0, # of connection points: 2
#     Edge 39, Type (0, 0), BuildingBlock: CIFDUS_clean_linker_0, # of connection points: 2
#     Edge 40, Type (0, 0), BuildingBlock: CIFDUS_clean_linker_0, # of connection points: 2
#     Edge 41, Type (0, 0), BuildingBlock: CIFDUS_clean_linker_0, # of connection points: 2
#     Edge 42, Type (0, 0), BuildingBlock: CIFDUS_clean_linker_0, # of connection points: 2
#     Edge 43, Type (0, 0), BuildingBlock: CIFDUS_clean_linker_0, # of connection points: 2
#     Edge 44, Type (0, 0), BuildingBlock: CIFDUS_clean_linker_0, # of connection points: 2
#     Edge 45, Type (0, 0), BuildingBlock: CIFDUS_clean_linker_0, # of connection points: 2
#     Edge 46, Type (0, 0), BuildingBlock: CIFDUS_clean_linker_0, # of connection points: 2
#     Edge 47, Type (0, 0), BuildingBlock: CIFDUS_clean_linker_0, # of connection points: 2
#     Edge 48, Type (0, 0), BuildingBlock: CIFDUS_clean_linker_0, # of connection points: 2
#     Edge 49, Type (0, 0), BuildingBlock: CIFDUS_clean_linker_0, # of connection points: 2
#     Edge 50, Type (0, 0), BuildingBlock: CIFDUS_clean_linker_0, # of connection points: 2
#     Edge 51, Type (0, 0), BuildingBlock: CIFDUS_clean_linker_0, # of connection points: 2
#     Edge 52, Type (0, 0), BuildingBlock: CIFDUS_clean_linker_0, # of connection points: 2
#     Edge 53, Type (0, 0), BuildingBlock: CIFDUS_clean_linker_0, # of connection points: 2
#     Edge 54, Type (0, 0), BuildingBlock: CIFDUS_clean_linker_0, # of connection points: 2
#     Edge 55, Type (0, 0), BuildingBlock: CIFDUS_clean_linker_0, # of connection points: 2
#     Edge 56, Type (0, 0), BuildingBlock: CIFDUS_clean_linker_0, # of connection points: 2
#     Edge 57, Type (0, 0), BuildingBlock: CIFDUS_clean_linker_0, # of connection points: 2
#     Edge 58, Type (0, 0), BuildingBlock: CIFDUS_clean_linker_0, # of connection points: 2
#     Edge 59, Type (0, 0), BuildingBlock: CIFDUS_clean_linker_0, # of connection points: 2
#     Edge 60, Type (0, 0), BuildingBlock: CIFDUS_clean_linker_0, # of connection points: 2
#     Edge 61, Type (0, 0), BuildingBlock: CIFDUS_clean_linker_0, # of connection points: 2
#     Edge 62, Type (0, 0), BuildingBlock: CIFDUS_clean_linker_0, # of connection points: 2
#     Edge 63, Type (0, 0), BuildingBlock: CIFDUS_clean_linker_0, # of connection points: 2
# Relax obj value: 0.267
# Max RMSD: 0.245
# Mean RMSD: 0.245
data_MOF--net-whv--node1-MIDCAF_clean_sbu_0--edge1-CIFDUS_clean_linker_0
_symmetry_space_group_name_H-M    P1
_symmetry_Int_Tables_number       1
_symmetry_cell_setting            triclinic
loop_
_symmetry_equiv_pos_as_xyz
'x, y, z'
_cell_length_a     45.648682
_cell_length_b     45.871017
_cell_length_c     21.266424
_cell_angle_alpha  90.016291
_cell_angle_beta   90.159125
_cell_angle_gamma 90.090209
loop_
_atom_site_label
_atom_site_type_symbol
_atom_site_fract_x
_atom_site_fract_y
_atom_site_fract_z
_atom_type_partial_charge
Zn0 Zn 0.27276 0.14738 0.06146 0.0
Zn1 Zn 0.37727 0.225 0.98664 0.0
Zn2 Zn 0.3059 0.17914 0.00927 0.0
C3 C 0.33287 0.23749 0.06852 0.0
C4 C 0.37327 0.15928 0.95956 0.0
O5 O 0.27004 0.16934 0.94383 0.0
O6 O 0.25186 0.13056 0.99019 0.0
C7 C 0.26739 0.19527 0.12921 0.0
O8 O 0.30968 0.22471 0.04776 0.0
O9 O 0.35582 0.22219 0.07147 0.0
O10 O 0.38586 0.18404 0.96033 0.0
O11 O 0.34687 0.15528 0.9806 0.0
O12 O 0.25084 0.17423 0.11525 0.0
O13 O 0.29093 0.19946 0.09756 0.0
O14 O 0.3323 0.14094 0.03735 0.0
O15 O 0.30073 0.12145 0.10298 0.0
C16 C 0.32569 0.12124 0.0778 0.0
O17 O 0.32856 0.20879 0.957 0.0
O18 O 0.35389 0.24207 0.91063 0.0
C19 C 0.2527 0.14746 0.94364 0.0
C20 C 0.33023 0.22765 0.91375 0.0
Zn21 Zn 0.58318 0.52359 0.33011 0.0
Zn22 Zn 0.52446 0.5776 0.18458 0.0
Zn23 Zn 0.5472 0.55266 0.26268 0.0
C24 C 0.49229 0.58712 0.28185 0.0
C25 C 0.57426 0.60097 0.17838 0.0
O26 O 0.56082 0.51506 0.20831 0.0
O27 O 0.59083 0.49088 0.27139 0.0
C28 C 0.52749 0.52629 0.39234 0.0
O29 O 0.50232 0.56152 0.2932 0.0
O30 O 0.50843 0.60436 0.25122 0.0
O31 O 0.56058 0.58725 0.13646 0.0
O32 O 0.56959 0.59421 0.23644 0.0
O33 O 0.5537 0.5177 0.39705 0.0
O34 O 0.51931 0.54113 0.34397 0.0
O35 O 0.58506 0.58201 0.29017 0.0
O36 O 0.61487 0.5526 0.34191 0.0
C37 C 0.60939 0.5775 0.31967 0.0
O38 O 0.53716 0.52619 0.17681 0.0
O39 O 0.49828 0.54978 0.1416 0.0
C40 C 0.57788 0.49344 0.21924 0.0
C41 C 0.51467 0.5277 0.14003 0.0
Zn42 Zn 0.20234 0.83344 0.60477 0.0
Zn43 Zn 0.14009 0.79046 0.45008 0.0
Zn44 Zn 0.17019 0.80409 0.52904 0.0
C45 C 0.13255 0.75092 0.53434 0.0
C46 C 0.11816 0.83898 0.46114 0.0
O47 O 0.20966 0.81769 0.47794 0.0
O48 O 0.23693 0.83977 0.5498 0.0
C49 C 0.19525 0.77558 0.65234 0.0
O50 O 0.15896 0.75859 0.54696 0.0
O51 O 0.11524 0.77046 0.51509 0.0
O52 O 0.12927 0.82863 0.41204 0.0
O53 O 0.12811 0.83017 0.51491 0.0
O54 O 0.20493 0.80078 0.66441 0.0
O55 O 0.18078 0.77083 0.60127 0.0
O56 O 0.14442 0.84021 0.56828 0.0
O57 O 0.1755 0.86591 0.62609 0.0
C58 C 0.15011 0.86212 0.60399 0.0
O59 O 0.19378 0.79951 0.43909 0.0
O60 O 0.16428 0.76672 0.39649 0.0
C61 C 0.23354 0.83056 0.49433 0.0
C62 C 0.18803 0.7807 0.39581 0.0
Zn63 Zn 0.88992 0.45186 0.91653 0.0
Zn64 Zn 0.94218 0.40554 0.69605 0.0
Zn65 Zn 0.92862 0.42663 0.78299 0.0
C66 C 0.98704 0.39432 0.7648 0.0
C67 C 0.89634 0.37685 0.7 0.0
O68 O 0.90476 0.46862 0.76528 0.0
O69 O 0.8781 0.48037 0.85079 0.0
C70 C 0.95428 0.4437 0.89399 0.0
O71 O 0.97656 0.41806 0.7878 0.0
O72 O 0.97035 0.37776 0.73364 0.0
O73 O 0.9069 0.39041 0.65384 0.0
O74 O 0.90393 0.38471 0.75635 0.0
O75 O 0.92731 0.44234 0.88691 0.0
O76 O 0.96829 0.43361 0.84739 0.0
O77 O 0.89461 0.39585 0.81898 0.0
O78 O 0.87102 0.41335 0.90421 0.0
C79 C 0.87536 0.39356 0.86335 0.0
O80 O 0.92415 0.46141 0.71378 0.0
O81 O 0.95969 0.44027 0.66112 0.0
C82 C 0.88586 0.48492 0.79414 0.0
C83 C 0.9442 0.46238 0.67164 0.0
Zn84 Zn 0.69475 0.82355 0.989 0.0
Zn85 Zn 0.64129 0.77889 0.13378 0.0
Zn86 Zn 0.66884 0.79857 0.05744 0.0
C87 C 0.6308 0.74709 0.03433 0.0
C88 C 0.62202 0.83201 0.14418 0.0
O89 O 0.7096 0.81138 0.10339 0.0
O90 O 0.71301 0.85147 0.04755 0.0
C91 C 0.70273 0.77152 0.94432 0.0
O92 O 0.65704 0.75548 0.02362 0.0
O93 O 0.61474 0.76394 0.06593 0.0
O94 O 0.6283 0.81241 0.18333 0.0
O95 O 0.63165 0.82941 0.08716 0.0
O96 O 0.72004 0.79206 0.95745 0.0
O97 O 0.67773 0.77053 0.97258 0.0
O98 O 0.64174 0.83538 0.02781 0.0
O99 O 0.66208 0.83667 0.93421 0.0
C100 C 0.6416 0.84413 0.97036 0.0
O101 O 0.69713 0.78915 0.13815 0.0
O102 O 0.67016 0.75338 0.17654 0.0
C103 C 0.72154 0.83631 0.09357 0.0
C104 C 0.69388 0.76752 0.17592 0.0
Zn105 Zn 0.40223 0.45185 0.75366 0.0
Zn106 Zn 0.47141 0.34478 0.8506 0.0
Zn107 Zn 0.43144 0.41791 0.81164 0.0
C108 C 0.48894 0.39003 0.77266 0.0
C109 C 0.4063 0.35109 0.86527 0.0
O110 O 0.41911 0.45221 0.87395 0.0
O111 O 0.4056 0.48663 0.80881 0.0
C112 C 0.44826 0.44611 0.67672 0.0
O113 O 0.47727 0.41527 0.77855 0.0
O114 O 0.47127 0.36882 0.7697 0.0
O115 O 0.42923 0.33539 0.86886 0.0
O116 O 0.40703 0.37771 0.84493 0.0
O117 O 0.42189 0.45383 0.67207 0.0
O118 O 0.45705 0.4334 0.72741 0.0
O119 O 0.3948 0.39198 0.77578 0.0
O120 O 0.36563 0.42884 0.7546 0.0
C121 C 0.36972 0.40168 0.7583 0.0
O122 O 0.45674 0.39702 0.87869 0.0
O123 O 0.48425 0.36732 0.93144 0.0
C124 C 0.41121 0.4784 0.86406 0.0
C125 C 0.47168 0.39191 0.92778 0.0
Zn126 Zn 0.77928 0.13606 0.48226 0.0
Zn127 Zn 0.82728 0.19478 0.63716 0.0
Zn128 Zn 0.80985 0.1702 0.55428 0.0
C129 C 0.81494 0.23717 0.56588 0.0
C130 C 0.87227 0.16436 0.61454 0.0
O131 O 0.76764 0.15614 0.5944 0.0
O132 O 0.74662 0.12223 0.53555 0.0
C133 C 0.78287 0.1938 0.42962 0.0
O134 O 0.82165 0.21646 0.5276 0.0
O135 O 0.80299 0.22993 0.61653 0.0
O136 O 0.86944 0.19174 0.61575 0.0
O137 O 0.85114 0.14932 0.59058 0.0
O138 O 0.77003 0.16943 0.42751 0.0
O139 O 0.80246 0.19896 0.47192 0.0
O140 O 0.83957 0.1339 0.53478 0.0
O141 O 0.81311 0.11042 0.46344 0.0
C142 C 0.83658 0.11327 0.49447 0.0
O143 O 0.78139 0.17472 0.63771 0.0
O144 O 0.8133 0.17592 0.71549 0.0
C145 C 0.74673 0.13787 0.58427 0.0
C146 C 0.787 0.17755 0.69696 0.0
Zn147 Zn 0.00684 0.58622 0.44631 0.0
Zn148 Zn 0.09572 0.50738 0.17095 0.0
Zn149 Zn 0.04536 0.55084 0.29247 0.0
C150 C 0.0976 0.56727 0.24636 0.0
C151 C 0.03414 0.53495 0.16925 0.0
O152 O 0.04414 0.51506 0.35872 0.0
O153 O 0.02588 0.55419 0.39631 0.0
C154 C 0.06321 0.61019 0.38901 0.0
O155 O 0.08154 0.58099 0.28507 0.0
O156 O 0.08655 0.5442 0.22326 0.0
O157 O 0.06041 0.5326 0.18756 0.0
O158 O 0.01733 0.54832 0.20745 0.0
O159 O 0.04338 0.61012 0.43163 0.0
O160 O 0.0642 0.59191 0.34183 0.0
O161 O 0.0011 0.56354 0.25766 0.0
O162 O 0.00546 0.57065 0.35696 0.0
C163 C -0.00962 0.57424 0.30794 0.0
O164 O 0.06441 0.50467 0.30953 0.0
O165 O 0.09222 0.47777 0.24226 0.0
C166 C 0.03268 0.52791 0.40513 0.0
C167 C 0.07903 0.48115 0.29501 0.0
Zn168 Zn 0.76628 0.6489 0.57221 0.0
Zn169 Zn 0.88283 0.71154 0.43612 0.0
Zn170 Zn 0.8047 0.67458 0.52 0.0
C171 C 0.84046 0.72686 0.53876 0.0
C172 C 0.86374 0.65298 0.48611 0.0
O173 O 0.77027 0.66758 0.4479 0.0
O174 O 0.74221 0.63714 0.50065 0.0
C175 C 0.76826 0.70173 0.6328 0.0
O176 O 0.81487 0.7185 0.55559 0.0
O177 O 0.85773 0.70727 0.51849 0.0
O178 O 0.86713 0.68021 0.49353 0.0
O179 O 0.84043 0.64251 0.51052 0.0
O180 O 0.75082 0.68098 0.62215 0.0
O181 O 0.79235 0.70348 0.60131 0.0
O182 O 0.82439 0.63451 0.56211 0.0
O183 O 0.78783 0.61855 0.61962 0.0
C184 C 0.81424 0.6165 0.60298 0.0
O185 O 0.81742 0.69419 0.43059 0.0
O186 O 0.85119 0.71398 0.3672 0.0
C187 C 0.7479 0.65064 0.45058 0.0
C188 C 0.82483 0.70572 0.378 0.0
Zn189 Zn 0.08258 0.02922 0.82749 0.0
Zn190 Zn 0.00881 0.10872 0.7154 0.0
Zn191 Zn 0.04784 0.05904 0.77301 0.0
C192 C -0.00613 0.08778 0.82042 0.0
C193 C 0.06887 0.11825 0.69422 0.0
O194 O 0.05622 0.0218 0.71027 0.0
O195 O 0.09555 0.00474 0.7579 0.0
C196 C 0.03328 0.02268 0.89773 0.0
O197 O 0.00518 0.06245 0.81897 0.0
O198 O 0.01147 0.10833 0.81013 0.0
O199 O 0.04339 0.12496 0.67606 0.0
O200 O 0.07292 0.09855 0.73729 0.0
O201 O 0.05696 0.00932 0.88842 0.0
O202 O 0.02646 0.04457 0.86266 0.0
O203 O 0.08551 0.08784 0.79372 0.0
O204 O 0.11017 0.05909 0.85811 0.0
C205 C 0.10707 0.08352 0.8318 0.0
O206 O 0.03273 0.04126 0.68794 0.0
O207 O -0.00283 0.07286 0.66408 0.0
C208 C 0.07768 0.00377 0.7127 0.0
C209 C 0.01048 0.04892 0.65476 0.0
Zn210 Zn 0.69909 0.33491 0.11251 0.0
Zn211 Zn 0.63324 0.26055 0.91039 0.0
Zn212 Zn 0.67616 0.30102 0.0337 0.0
C213 C 0.66252 0.24113 0.01312 0.0
C214 C 0.61121 0.30827 0.96894 0.0
O215 O 0.72078 0.31451 0.00098 0.0
O216 O 0.73658 0.34544 0.07326 0.0
C217 C 0.69503 0.27867 0.16765 0.0
O218 O 0.66547 0.25568 0.06404 0.0
O219 O 0.66899 0.25445 0.96376 0.0
O220 O 0.60799 0.28103 0.97432 0.0
O221 O 0.63501 0.32016 0.98991 0.0
O222 O 0.70313 0.30459 0.17726 0.0
O223 O 0.68212 0.27158 0.11583 0.0
O224 O 0.64513 0.33609 0.04655 0.0
O225 O 0.66738 0.36375 0.11711 0.0
C226 C 0.64567 0.35861 0.08199 0.0
O227 O 0.70588 0.30006 0.95423 0.0
O228 O 0.67594 0.27524 0.89246 0.0
C229 C 0.74085 0.33154 0.023 0.0
C230 C 0.70038 0.28832 0.90064 0.0
Zn231 Zn 0.46799 0.85491 0.21092 0.0
Zn232 Zn 0.39095 0.95037 0.33242 0.0
Zn233 Zn 0.42291 0.92291 0.26337 0.0
C234 C 0.37326 0.89456 0.34692 0.0
C235 C 0.44451 0.95925 0.38399 0.0
O236 O 0.44834 0.90337 0.19758 0.0
O237 O 0.4786 0.88125 0.13636 0.0
C238 C 0.40133 0.85682 0.20314 0.0
O239 O 0.39023 0.89234 0.29924 0.0
O240 O 0.3708 0.91846 0.37547 0.0
O241 O 0.41995 0.97175 0.38241 0.0
O242 O 0.44961 0.93818 0.34553 0.0
O243 O 0.42603 0.84505 0.1928 0.0
O244 O 0.39854 0.8817 0.23205 0.0
O245 O 0.47014 0.9204 0.2883 0.0
O246 O 0.47262 0.87302 0.29947 0.0
C247 C 0.48543 0.89755 0.30033 0.0
O248 O 0.4071 0.96014 0.20922 0.0
O249 O 0.36928 0.97191 0.2676 0.0
C250 C 0.4641 0.90407 0.14881 0.0
C251 C 0.38381 0.975 0.21771 0.0
Zn252 Zn 0.20127 0.33098 0.47538 0.0
Zn253 Zn 0.16409 0.27557 0.63269 0.0
Zn254 Zn 0.17702 0.30183 0.54849 0.0
C255 C 0.17004 0.23356 0.55165 0.0
C256 C 0.1173 0.3089 0.61882 0.0
O257 O 0.21943 0.31927 0.58347 0.0
O258 O 0.22447 0.35898 0.52608 0.0
C259 C 0.20575 0.27569 0.4313 0.0
O260 O 0.16586 0.25641 0.51753 0.0
O261 O 0.17926 0.23715 0.60683 0.0
O262 O 0.12183 0.28239 0.63116 0.0
O263 O 0.13642 0.32279 0.58582 0.0
O264 O 0.22199 0.29785 0.43652 0.0
O265 O 0.18267 0.27368 0.46559 0.0
O266 O 0.14492 0.33683 0.52536 0.0
O267 O 0.16543 0.34464 0.43324 0.0
C268 C 0.14399 0.34793 0.46976 0.0
O269 O 0.21065 0.29723 0.6258 0.0
O270 O 0.18399 0.28796 0.70978 0.0
C271 C 0.23252 0.34356 0.57195 0.0
C272 C 0.20885 0.29148 0.68524 0.0
Zn273 Zn 0.90368 0.95284 0.24647 0.0
Zn274 Zn 0.95108 0.85233 0.41614 0.0
Zn275 Zn 0.92136 0.91519 0.29771 0.0
C276 C 0.97008 0.87927 0.29467 0.0
C277 C 0.89366 0.86461 0.34841 0.0
O278 O 0.91811 0.95068 0.367 0.0
O279 O 0.88437 0.97421 0.31335 0.0
C280 C 0.95542 0.95048 0.19375 0.0
O281 O 0.96244 0.90015 0.25872 0.0
O282 O 0.94938 0.86666 0.32385 0.0
O283 O 0.92089 0.86638 0.35698 0.0
O284 O 0.88397 0.88281 0.3083 0.0
O285 O 0.93923 0.97063 0.21372 0.0
O286 O 0.95144 0.92441 0.21527 0.0
O287 O 0.8784 0.90192 0.26021 0.0
O288 O 0.87778 0.93468 0.18457 0.0
C289 C 0.8667 0.91248 0.21001 0.0
O290 O 0.94021 0.92629 0.39287 0.0
O291 O 0.95995 0.89109 0.45585 0.0
C292 C 0.89907 0.97127 0.36308 0.0
C293 C 0.95448 0.9178 0.44279 0.0
Zn294 Zn 0.2721 0.63235 0.98497 0.0
Zn295 Zn 0.3505 0.7232 0.19935 0.0
Zn296 Zn 0.29885 0.66655 0.05495 0.0
C297 C 0.3213 0.72578 0.06331 0.0
C298 C 0.35583 0.66135 0.12564 0.0
O299 O 0.25859 0.65489 0.10754 0.0
O300 O 0.23886 0.62319 0.04171 0.0
C301 C 0.27425 0.68749 0.92409 0.0
O302 O 0.30717 0.71161 0.02098 0.0
O303 O 0.32971 0.71154 0.11166 0.0
O304 O 0.34487 0.68635 0.13838 0.0
O305 O 0.34174 0.64641 0.08462 0.0
O306 O 0.2659 0.66142 0.91687 0.0
O307 O 0.28846 0.69496 0.97407 0.0
O308 O 0.32925 0.63037 0.03615 0.0
O309 O 0.30218 0.60196 0.97521 0.0
C310 C 0.32597 0.60694 0.0036 0.0
O311 O 0.27563 0.67384 0.14216 0.0
O312 O 0.3164 0.69518 0.16845 0.0
C313 C 0.2381 0.63677 0.09332 0.0
C314 C 0.29004 0.68887 0.18235 0.0
Zn315 Zn 0.51522 0.07437 0.91805 0.0
Zn316 Zn 0.58955 0.02549 0.73579 0.0
Zn317 Zn 0.5538 0.05247 0.80592 0.0
C318 C 0.61205 0.08118 0.75483 0.0
C319 C 0.53621 0.02739 0.6702 0.0
O320 O 0.54725 0.02514 0.89107 0.0
O321 O 0.53702 0.05017 0.97782 0.0
C322 C 0.56061 0.11514 0.87508 0.0
O323 O 0.58919 0.08385 0.78947 0.0
O324 O 0.61719 0.05772 0.72606 0.0
O325 O 0.56176 0.01705 0.66771 0.0
O326 O 0.52868 0.04336 0.71736 0.0
O327 O 0.53632 0.11257 0.90328 0.0
O328 O 0.57031 0.09483 0.83859 0.0
O329 O 0.51121 0.06133 0.76574 0.0
O330 O 0.49577 0.04623 0.85554 0.0
C331 C 0.4898 0.05766 0.80357 0.0
O332 O 0.56831 0.01144 0.84939 0.0
O333 O 0.60126 -0.00802 0.78613 0.0
C334 C 0.54175 0.0261 0.95074 0.0
C335 C 0.58676 -0.00881 0.83636 0.0
H336 H 0.20067 0.17352 0.92406 0.0
H337 H 0.25739 0.10541 0.85697 0.0
H338 H 0.21575 0.08057 0.80855 0.0
H339 H 0.16281 0.07349 0.80458 0.0
H340 H 0.10487 0.1401 0.87355 0.0
H341 H 0.14729 0.17066 0.90199 0.0
C342 C 0.20397 0.15413 0.89572 0.0
C343 C 0.23197 0.14148 0.89275 0.0
C344 C 0.17963 0.13934 0.87038 0.0
C345 C 0.23609 0.11581 0.85815 0.0
C346 C 0.21222 0.10135 0.83159 0.0
C347 C 0.15957 0.09501 0.82462 0.0
C348 C 0.13112 0.10457 0.83812 0.0
C349 C 0.18383 0.11214 0.84044 0.0
C350 C 0.12678 0.13246 0.86321 0.0
C351 C 0.15098 0.14979 0.87948 0.0
H352 H 0.6461 0.41338 0.0415 0.0
H353 H 0.59199 0.34887 0.13132 0.0
H354 H 0.56065 0.38726 0.17455 0.0
H355 H 0.55742 0.43875 0.20773 0.0
H356 H 0.6134 0.50277 0.12127 0.0
H357 H 0.6353 0.4652 0.05472 0.0
C358 C 0.6266 0.40787 0.0681 0.0
C359 C 0.62119 0.37881 0.08408 0.0
C360 C 0.60962 0.42998 0.09445 0.0
C361 C 0.59619 0.37136 0.11861 0.0
C362 C 0.57861 0.39327 0.14394 0.0
C363 C 0.57371 0.44436 0.17266 0.0
C364 C 0.5844 0.4729 0.1693 0.0
C365 C 0.58639 0.42261 0.13556 0.0
C366 C 0.60523 0.48061 0.1241 0.0
C367 C 0.61775 0.45921 0.08644 0.0
H368 H 0.31896 0.88719 0.30383 0.0
H369 H 0.38237 0.85229 0.43361 0.0
H370 H 0.34371 0.82485 0.48748 0.0
H371 H 0.29094 0.81914 0.50883 0.0
H372 H 0.22769 0.8533 0.37751 0.0
H373 H 0.26725 0.87241 0.31163 0.0
C374 C 0.3243 0.87265 0.34244 0.0
C375 C 0.35316 0.87135 0.36491 0.0
C376 C 0.30201 0.85736 0.37316 0.0
C377 C 0.3602 0.85304 0.41538 0.0
C378 C 0.3381 0.83767 0.44638 0.0
C379 C 0.28601 0.83018 0.46494 0.0
C380 C 0.25677 0.83563 0.44832 0.0
C381 C 0.30879 0.84091 0.42753 0.0
C382 C 0.25022 0.84927 0.39106 0.0
C383 C 0.27277 0.86026 0.35372 0.0
H384 H 0.79962 0.58098 0.69776 0.0
H385 H 0.87051 0.59968 0.57023 0.0
H386 H 0.89914 0.55968 0.61577 0.0
H387 H 0.90382 0.51935 0.69427 0.0
H388 H 0.83142 0.50308 0.82016 0.0
H389 H 0.80386 0.54226 0.77294 0.0
C390 C 0.82129 0.57638 0.67947 0.0
C391 C 0.83267 0.59311 0.63013 0.0
C392 C 0.83751 0.55373 0.70592 0.0
C393 C 0.86103 0.58699 0.60787 0.0
C394 C 0.87744 0.56411 0.63397 0.0
C395 C 0.88193 0.52424 0.71062 0.0
C396 C 0.86985 0.50828 0.76083 0.0
C397 C 0.86585 0.54723 0.68315 0.0
C398 C 0.84152 0.51515 0.78214 0.0
C399 C 0.82557 0.53755 0.75509 0.0
H400 H 0.74257 0.89047 0.09699 0.0
H401 H 0.75806 0.80395 0.16912 0.0
H402 H 0.80519 0.8199 0.21284 0.0
H403 H 0.84378 0.85794 0.22107 0.0
H404 H 0.82693 0.94355 0.14509 0.0
H405 H 0.77902 0.92795 0.1089 0.0
C406 C 0.75609 0.87511 0.12279 0.0
C407 C 0.74706 0.84615 0.1297 0.0
C408 C 0.78321 0.88408 0.1454 0.0
C409 C 0.76457 0.8265 0.16374 0.0
C410 C 0.79162 0.8355 0.18796 0.0
C411 C 0.82923 0.87317 0.19796 0.0
C412 C 0.83856 0.90181 0.1865 0.0
C413 C 0.80143 0.86413 0.17772 0.0
C414 C 0.82023 0.92126 0.15408 0.0
C415 C 0.79274 0.91251 0.13388 0.0
H416 H 0.42857 0.53229 0.90082 0.0
H417 H 0.36564 0.46413 0.93573 0.0
H418 H 0.33403 0.49841 0.99089 0.0
H419 H 0.32078 0.54908 0.0116 0.0
H420 H 0.38374 0.61762 0.98114 0.0
H421 H 0.41962 0.58179 0.94378 0.0
C422 C 0.4086 0.52485 0.92328 0.0
C423 C 0.39935 0.49593 0.91512 0.0
C424 C 0.39054 0.54474 0.95489 0.0
C425 C 0.37329 0.48627 0.94299 0.0
C426 C 0.35507 0.50592 0.9737 0.0
C427 C 0.34268 0.55597 -0.00162 0.0
C428 C 0.34968 0.5857 -0.00245 0.0
C429 C 0.36292 0.53539 0.97737 0.0
C430 C 0.37805 0.59469 0.98148 0.0
C431 C 0.3984 0.57427 0.95982 0.0
H432 H 0.66682 0.08959 0.79631 0.0
H433 H 0.60021 0.12506 0.67509 0.0
H434 H 0.63755 0.14965 0.61211 0.0
H435 H 0.68925 0.15096 0.57842 0.0
H436 H 0.75588 0.1149 0.69903 0.0
H437 H 0.71865 0.10044 0.7757 0.0
C438 C 0.66057 0.10398 0.75806 0.0
C439 C 0.63112 0.10572 0.74 0.0
C440 C 0.68221 0.11689 0.72072 0.0
C441 C 0.62291 0.12387 0.68992 0.0
C442 C 0.64426 0.13743 0.65329 0.0
C443 C 0.69543 0.14034 0.62205 0.0
C444 C 0.72477 0.13306 0.63295 0.0
C445 C 0.67398 0.13241 0.66589 0.0
C446 C 0.73311 0.12006 0.68984 0.0
C447 C 0.71192 0.11194 0.73357 0.0
H448 H 0.12339 0.39994 0.51308 0.0
H449 H 0.11223 0.33569 0.36724 0.0
H450 H 0.08788 0.37143 0.30042 0.0
H451 H 0.07824 0.42282 0.27628 0.0
H452 H 0.08936 0.48778 0.42077 0.0
H453 H 0.1048 0.45016 0.49537 0.0
C454 C 0.11424 0.39352 0.46804 0.0
C455 C 0.11932 0.36521 0.44524 0.0
C456 C 0.10096 0.41457 0.42885 0.0
C457 C 0.10812 0.35727 0.38602 0.0
C458 C 0.09462 0.37783 0.34736 0.0
C459 C 0.08341 0.42859 0.32454 0.0
C460 C 0.08284 0.458 0.3429 0.0
C461 C 0.09228 0.40686 0.36706 0.0
C462 C 0.08942 0.46524 0.40561 0.0
C463 C 0.09845 0.44374 0.44821 0.0
H464 H 0.66693 0.57211 0.29627 0.0
H465 H 0.60263 0.63368 0.36118 0.0
H466 H 0.64192 0.66655 0.39666 0.0
H467 H 0.69423 0.67271 0.42653 0.0
H468 H 0.75785 0.61069 0.36083 0.0
H469 H 0.71936 0.5833 0.30673 0.0
C470 C 0.66157 0.59313 0.3166 0.0
C471 C 0.63203 0.60041 0.32685 0.0
C472 C 0.68421 0.61176 0.3366 0.0
C473 C 0.62523 0.62769 0.35282 0.0
C474 C 0.64771 0.64635 0.3734 0.0
C475 C 0.69978 0.65415 0.39726 0.0
C476 C 0.72891 0.64404 0.39642 0.0
C477 C 0.67727 0.63807 0.3677 0.0
C478 C 0.73578 0.61937 0.36042 0.0
C479 C 0.71364 0.60338 0.33058 0.0
H480 H 0.13142 0.9096 0.53994 0.0
H481 H 0.11836 0.85988 0.70942 0.0
H482 H 0.0874 0.89844 0.75229 0.0
H483 H 0.07234 0.9492 0.74937 0.0
H484 H 0.08937 0.00183 0.58605 0.0
H485 H 0.10941 0.95906 0.5311 0.0
C486 C 0.121 0.9071 0.58541 0.0
C487 C 0.12691 0.88231 0.62199 0.0
C488 C 0.10404 0.92985 0.61046 0.0
C489 C 0.1138 0.87894 0.68092 0.0
C490 C 0.09625 0.90095 0.70534 0.0
C491 C 0.07952 0.95095 0.70086 0.0
C492 C 0.07967 0.97829 0.67149 0.0
C493 C 0.09232 0.92692 0.67166 0.0
C494 C 0.08902 0.98077 0.60904 0.0
C495 C 0.1008 0.95645 0.5782 0.0
H496 H 0.87111 0.35708 0.95945 0.0
H497 H 0.83369 0.37671 0.77863 0.0
H498 H 0.78723 0.35422 0.81037 0.0
H499 H 0.75449 0.34038 0.89908 0.0
H500 H 0.79224 0.32652 0.08273 0.0
H501 H 0.8411 0.33566 0.04135 0.0
C502 C 0.85317 0.35505 0.92609 0.0
C503 C 0.85553 0.36848 0.86721 0.0
C504 C 0.82616 0.34427 0.94643 0.0
C505 C 0.83231 0.36616 0.8241 0.0
C506 C 0.80556 0.35393 0.84285 0.0
C507 C 0.77358 0.33878 0.92933 0.0
C508 C 0.76997 0.33324 -0.00612 0.0
C509 C 0.80169 0.34479 0.90539 0.0
C510 C 0.79465 0.33122 0.03306 0.0
C511 C 0.82256 0.33625 0.0094 0.0
H512 H 0.41211 0.02227 0.16779 0.0
H513 H 0.32994 0.97572 0.16944 0.0
H514 H 0.30556 0.01672 0.11934 0.0
H515 H 0.30594 0.06729 0.08916 0.0
H516 H 0.38617 0.11684 0.09004 0.0
H517 H 0.41338 0.07303 0.12371 0.0
C518 C 0.38917 0.02089 0.15477 0.0
C519 C 0.37276 -0.00396 0.17147 0.0
C520 C 0.37496 0.04516 0.12766 0.0
C521 C 0.34291 -0.00546 0.15614 0.0
C522 C 0.32893 0.01805 0.12811 0.0
C523 C 0.32947 0.06853 0.09628 0.0
C524 C 0.34401 0.09527 0.08885 0.0
C525 C 0.34448 0.04374 0.11604 0.0
C526 C 0.37454 0.09646 0.0964 0.0
C527 C 0.38997 0.07147 0.11573 0.0
H528 H 0.31219 0.41326 0.7585 0.0
H529 H 0.37467 0.3475 0.70458 0.0
H530 H 0.33662 0.32226 0.64345 0.0
H531 H 0.28763 0.32371 0.59269 0.0
H532 H 0.22598 0.38998 0.64713 0.0
H533 H 0.26226 0.41144 0.71833 0.0
C534 C 0.31737 0.3931 0.73426 0.0
C535 C 0.34617 0.38238 0.73533 0.0
C536 C 0.29584 0.37948 0.69781 0.0
C537 C 0.3526 0.35613 0.70434 0.0
C538 C 0.33097 0.34194 0.66884 0.0
C539 C 0.28198 0.34221 0.62193 0.0
C540 C 0.25424 0.35507 0.61616 0.0
C541 C 0.30284 0.3541 0.6633 0.0
C542 C 0.24731 0.37983 0.65155 0.0
C543 C 0.26792 0.39194 0.69231 0.0
H544 H 0.85055 0.0626 0.55217 0.0
H545 H 0.87346 0.11886 0.39781 0.0
H546 H 0.90033 0.07924 0.34765 0.0
H547 H 0.90876 0.02699 0.33847 0.0
H548 H 0.88326 0.969 0.48775 0.0
H549 H 0.86678 0.01089 0.55078 0.0
C550 C 0.86268 0.06635 0.50913 0.0
C551 C 0.86064 0.09353 0.47896 0.0
C552 C 0.87719 0.04307 0.47952 0.0
C553 C 0.87548 0.09822 0.42226 0.0
C554 C 0.89048 0.07549 0.39328 0.0
C555 C 0.90038 0.02369 0.38569 0.0
C556 C 0.8969 -0.00478 0.40869 0.0
C557 C 0.89025 0.04758 0.42009 0.0
C558 C 0.88609 -0.00913 0.46954 0.0
C559 C 0.87649 0.01477 0.50511 0.0
H560 H 0.12139 0.62234 0.24761 0.0
H561 H 0.14109 0.53217 0.20789 0.0
H562 H 0.18803 0.54601 0.16354 0.0
H563 H 0.2206 0.58353 0.12416 0.0
H564 H 0.20281 0.67409 0.16055 0.0
H565 H 0.15817 0.66052 0.21862 0.0
C566 C 0.13626 0.60582 0.23016 0.0
C567 C 0.12757 0.57633 0.22964 0.0
C568 C 0.16334 0.61402 0.2036 0.0
C569 C 0.14701 0.55504 0.20737 0.0
C570 C 0.1739 0.5629 0.18213 0.0
C571 C 0.20714 0.60025 0.1457 0.0
C572 C 0.21451 0.62964 0.13772 0.0
C573 C 0.18179 0.59229 0.17804 0.0
C574 C 0.19735 0.65125 0.16633 0.0
C575 C 0.17181 0.64348 0.19906 0.0
H576 H 0.62987 0.89592 0.02386 0.0
H577 H 0.60975 0.8417 0.86395 0.0
H578 H 0.58686 0.88299 0.81055 0.0
H579 H 0.58035 0.93571 0.80294 0.0
H580 H 0.6013 -0.00923 0.96083 0.0
H581 H 0.61556 0.94785 0.02283 0.0
C582 C 0.61928 0.89302 0.97853 0.0
C583 C 0.62097 0.86603 0.94781 0.0
C584 C 0.60688 0.91702 0.94768 0.0
C585 C 0.60824 0.86241 0.88829 0.0
C586 C 0.59542 0.88598 0.85772 0.0
C587 C 0.58756 0.93811 0.85136 0.0
C588 C 0.59036 0.96596 0.87749 0.0
C589 C 0.59585 0.91359 0.88586 0.0
C590 C 0.59925 0.96927 0.94021 0.0
C591 C 0.60745 0.94483 0.97533 0.0
H592 H 0.4199 0.16579 0.88358 0.0
H593 H 0.36192 0.09987 0.95809 0.0
H594 H 0.39067 0.06206 0.90501 0.0
H595 H 0.43528 0.04804 0.84614 0.0
H596 H 0.49201 0.11501 0.77231 0.0
H597 H 0.45988 0.1525 0.81492 0.0
C598 C 0.41336 0.14318 0.88868 0.0
C599 C 0.38932 0.13562 0.92698 0.0
C600 C 0.42942 0.12191 0.85694 0.0
C601 C 0.38081 0.10625 0.93075 0.0
C602 C 0.39709 0.08469 0.89983 0.0
C603 C 0.43982 0.0709 0.83717 0.0
C604 C 0.46573 0.07883 0.80552 0.0
C605 C 0.42172 0.0923 0.86367 0.0
C606 C 0.47185 0.10839 0.795 0.0
C607 C 0.45379 0.1298 0.82056 0.0
H608 H 0.62542 0.61665 0.12093 0.0
H609 H 0.54286 0.64891 0.1899 0.0
H610 H 0.54971 0.69431 0.13265 0.0
H611 H 0.57872 0.72477 0.06535 0.0
H612 H 0.66636 0.69905 0.01427 0.0
H613 H 0.65736 0.65024 0.05793 0.0
C614 C 0.60959 0.63416 0.12491 0.0
C615 C 0.58407 0.63006 0.16074 0.0
C616 C 0.61405 0.66067 0.09292 0.0
C617 C 0.56311 0.65225 0.16435 0.0
C618 C 0.5667 0.67786 0.13054 0.0
C619 C 0.5959 0.70848 0.06298 0.0
C620 C 0.62327 0.71574 0.0373 0.0
C621 C 0.59192 0.68216 0.09447 0.0
C622 C 0.64498 0.69406 0.03351 0.0
C623 C 0.64009 0.6664 0.05985 0.0
H624 H -0.00863 0.83804 0.37344 0.0
H625 H 0.01804 0.91437 0.26999 0.0
H626 H 0.06658 0.91179 0.32005 0.0
H627 H 0.10152 0.88585 0.39131 0.0
H628 H 0.06906 0.81689 0.51 0.0
H629 H 0.02085 0.82083 0.46124 0.0
C630 C 0.00689 0.85532 0.36426 0.0
C631 C 0.00044 0.87697 0.31955 0.0
C632 C 0.0333 0.85556 0.3976 0.0
C633 C 0.02228 0.89742 0.30428 0.0
C634 C 0.04986 0.89624 0.3336 0.0
C635 C 0.08342 0.87278 0.40853 0.0
C636 C 0.08866 0.85116 0.45424 0.0
C637 C 0.05554 0.87542 0.38065 0.0
C638 C 0.06533 0.83401 0.47579 0.0
C639 C 0.03798 0.83578 0.44684 0.0
H640 H 0.85483 0.24819 0.6533 0.0
H641 H 0.81147 0.28768 0.49469 0.0
H642 H 0.83169 0.33555 0.52534 0.0
H643 H 0.86003 0.36607 0.60105 0.0
H644 H 0.89816 0.32599 0.76548 0.0
H645 H 0.88067 0.27826 0.73009 0.0
C646 C 0.85035 0.2672 0.62447 0.0
C647 C 0.83234 0.26433 0.57074 0.0
C648 C 0.86025 0.29453 0.64489 0.0
C649 C 0.82603 0.28918 0.53487 0.0
C650 C 0.83712 0.31655 0.55327 0.0
C651 C 0.86399 0.3469 0.62967 0.0
C652 C 0.88013 0.34957 0.68629 0.0
C653 C 0.85374 0.31953 0.60899 0.0
C654 C 0.88529 0.32463 0.72268 0.0
C655 C 0.87571 0.2973 0.70186 0.0
H656 H 0.60856 0.84591 0.2638 0.0
H657 H 0.58802 0.8692 0.0724 0.0
H658 H 0.54884 0.90129 0.10953 0.0
H659 H 0.51548 0.91546 0.19554 0.0
H660 H 0.52769 0.87856 0.37951 0.0
H661 H 0.5761 0.86089 0.34855 0.0
C662 C 0.59583 0.85828 0.22995 0.0
C663 C 0.60159 0.85536 0.16506 0.0
C664 C 0.57177 0.8744 0.25131 0.0
C665 C 0.58485 0.87172 0.12235 0.0
C666 C 0.56206 0.88969 0.14374 0.0
C667 C 0.52847 0.90334 0.22854 0.0
C668 C 0.51744 0.89741 0.28902 0.0
C669 C 0.55455 0.89013 0.20792 0.0
C670 C 0.53559 0.88324 0.33258 0.0
C671 C 0.56304 0.87276 0.3145 0.0
H672 H 0.30676 0.27382 0.98017 0.0
H673 H 0.37016 0.27315 0.13027 0.0
H674 H 0.39491 0.31507 0.08422 0.0
H675 H 0.40681 0.34161 0.98815 0.0
H676 H 0.35036 0.33511 0.82642 0.0
H677 H 0.31538 0.30585 0.88737 0.0
C678 C 0.32586 0.28295 0.00277 0.0
C679 C 0.33764 0.26917 0.05652 0.0
C680 C 0.3419 0.30518 0.97218 0.0
C681 C 0.36111 0.28274 0.0879 0.0
C682 C 0.37558 0.30646 0.06098 0.0
C683 C 0.3864 0.33445 0.96679 0.0
C684 C 0.38115 0.34049 0.90289 0.0
C685 C 0.36754 0.31623 0.00091 0.0
C686 C 0.35477 0.33106 0.87555 0.0
C687 C 0.33492 0.31405 0.91044 0.0
H688 H 0.89016 0.10625 0.62941 0.0
H689 H 0.90201 0.1933 0.70426 0.0
H690 H 0.93386 0.17498 0.7849 0.0
H691 H 0.96281 0.13645 0.82891 0.0
H692 H 0.9576 0.04963 0.75295 0.0
H693 H 0.91843 0.06519 0.68074 0.0
C694 C 0.90003 0.12115 0.66295 0.0
C695 C 0.89399 0.15136 0.65895 0.0
C696 C 0.91941 0.11048 0.71003 0.0
C697 C 0.90659 0.17014 0.7041 0.0
C698 C 0.9247 0.15967 0.75131 0.0
C699 C 0.9526 0.12067 0.79767 0.0
C700 C 0.96366 0.09224 0.79537 0.0
C701 C 0.9317 0.13015 0.75406 0.0
C702 C 0.94971 0.07185 0.7556 0.0
C703 C 0.92764 0.08091 0.71335 0.0
H704 H 0.10667 0.61817 0.47418 0.0
H705 H 0.06204 0.65832 0.31794 0.0
H706 H 0.08005 0.70614 0.35071 0.0
H707 H 0.10293 0.73654 0.43011 0.0
H708 H 0.14982 0.69806 0.58561 0.0
H709 H 0.13685 0.64908 0.54634 0.0
C710 C 0.10217 0.63731 0.44582 0.0
C711 C 0.08359 0.63485 0.39298 0.0
C712 C 0.11226 0.66483 0.4658 0.0
C713 C 0.07706 0.65969 0.35741 0.0
C714 C 0.08687 0.68704 0.37695 0.0
C715 C 0.11028 0.7175 0.45596 0.0
C716 C 0.12627 0.72088 0.51235 0.0
C717 C 0.10346 0.68988 0.43231 0.0
C718 C 0.13673 0.69597 0.54328 0.0
C719 C 0.12946 0.66807 0.52054 0.0
H720 H 0.91277 0.67002 0.42198 0.0
H721 H 0.85571 0.59623 0.45158 0.0
H722 H 0.88724 0.56598 0.38606 0.0
H723 H 0.93446 0.55898 0.33178 0.0
H724 H -0.00868 0.6326 0.30274 0.0
H725 H 0.95613 0.66464 0.35467 0.0
C726 C 0.90688 0.6475 0.41328 0.0
C727 C 0.88204 0.63541 0.44254 0.0
C728 C 0.925 0.63022 0.37489 0.0
C729 C 0.87492 0.60607 0.43058 0.0
C730 C 0.89288 0.58874 0.39277 0.0
C731 C 0.93829 0.58231 0.33386 0.0
C732 C 0.96492 0.59365 0.31161 0.0
C733 C 0.91834 0.60039 0.36581 0.0
C734 C 0.9704 0.62367 0.31723 0.0
C735 C 0.95056 0.64185 0.34821 0.0
H736 H 0.18345 0.18058 0.5991 0.0
H737 H 0.11986 0.22513 0.48382 0.0
H738 H 0.08215 0.19065 0.51687 0.0
H739 H 0.06547 0.15592 0.59616 0.0
H740 H 0.12831 0.11167 0.71383 0.0
H741 H 0.16806 0.13908 0.66466 0.0
C742 C 0.1616 0.18194 0.57905 0.0
C743 C 0.15426 0.20589 0.54045 0.0
C744 C 0.13962 0.16335 0.60187 0.0
C745 C 0.12611 0.20709 0.51383 0.0
C746 C 0.10434 0.18779 0.53408 0.0
C747 C 0.08784 0.15206 0.61129 0.0
C748 C 0.0937 0.13292 0.66186 0.0
C749 C 0.1105 0.16727 0.58136 0.0
C750 C 0.12297 0.1275 0.67827 0.0
C751 C 0.14575 0.14275 0.649 0.0
H752 H 0.5938 0.36651 0.96028 0.0
H753 H 0.58751 0.28309 0.86655 0.0
H754 H 0.55334 0.30293 0.79124 0.0
H755 H 0.52031 0.34126 0.75924 0.0
H756 H 0.52379 0.42518 0.84949 0.0
H757 H 0.56396 0.40825 0.91738 0.0
C758 C 0.58516 0.35288 0.92296 0.0
C759 C 0.59283 0.32306 0.92048 0.0
C760 C 0.56472 0.36444 0.87913 0.0
C761 C 0.58161 0.30585 0.87109 0.0
C762 C 0.56205 0.3172 0.82742 0.0
C763 C 0.53022 0.35612 0.79288 0.0
C764 C 0.51833 0.38407 0.80069 0.0
C765 C 0.55275 0.34608 0.83215 0.0
C766 C 0.532 0.40327 0.84341 0.0
C767 C 0.55492 0.3935 0.88256 0.0
H768 H 0.30499 0.76384 0.15087 0.0
H769 H 0.35315 0.75695 0.97782 0.0
H770 H 0.37941 0.80227 0.00267 0.0
H771 H 0.39573 0.83702 0.08454 0.0
H772 H 0.35184 0.83864 0.26279 0.0
H773 H 0.31606 0.80316 0.22517 0.0
C774 C 0.32026 0.7731 0.11727 0.0
C775 C 0.32706 0.75736 0.06241 0.0
C776 C 0.33626 0.79812 0.13371 0.0
C777 C 0.34721 0.76904 0.01963 0.0
C778 C 0.36257 0.79466 0.03454 0.0
C779 C 0.37771 0.83023 0.11432 0.0
C780 C 0.37584 0.84111 0.17632 0.0
C781 C 0.35839 0.80839 0.09307 0.0
C782 C 0.3528 0.83185 0.21459 0.0
C783 C 0.33278 0.81095 0.19319 0.0
H784 H 0.09924 0.36682 0.61524 0.0
H785 H 0.08291 0.28412 0.70675 0.0
H786 H 0.04728 0.30634 0.77442 0.0
H787 H 0.01593 0.3469 0.79995 0.0
H788 H 0.02661 0.42893 0.70513 0.0
H789 H 0.06941 0.40995 0.6487 0.0
C790 C 0.08766 0.35372 0.64959 0.0
C791 C 0.09356 0.32362 0.65438 0.0
C792 C 0.06637 0.36665 0.68897 0.0
C793 C 0.07863 0.30714 0.7003 0.0
C794 C 0.05832 0.31987 0.74001 0.0
C795 C 0.02855 0.36099 0.76917 0.0
C796 C 0.01855 0.38921 0.75736 0.0
C797 C 0.05161 0.34935 0.73408 0.0
C798 C 0.03451 0.40726 0.71628 0.0
C799 C 0.05849 0.39613 0.68273 0.0
H800 H 0.81339 0.76294 0.4542 0.0
H801 H 0.88508 0.75806 0.58576 0.0
H802 H 0.9062 0.8026 0.54214 0.0
H803 H 0.9076 0.83891 0.45888 0.0
H804 H 0.83804 0.84332 0.32208 0.0
H805 H 0.81253 0.80327 0.3753 0.0
C806 C 0.83308 0.77225 0.4744 0.0
C807 C 0.84746 0.75754 0.52379 0.0
C808 C 0.84583 0.79732 0.44702 0.0
C809 C 0.8734 0.76933 0.54859 0.0
C810 C 0.88565 0.79459 0.52314 0.0
C811 C 0.88697 0.83113 0.44017 0.0
C812 C 0.87549 0.8434 0.38461 0.0
C813 C 0.87265 0.80808 0.47089 0.0
C814 C 0.8479 0.83384 0.36343 0.0
C815 C 0.83324 0.81094 0.39416 0.0
H816 H 0.3745 0.60448 0.14067 0.0
H817 H 0.39308 0.69312 0.19665 0.0
H818 H 0.43234 0.67651 0.2646 0.0
H819 H 0.46491 0.63795 0.29996 0.0
H820 H 0.44978 0.5494 0.24117 0.0
H821 H 0.40532 0.56445 0.18506 0.0
C822 C 0.38726 0.62008 0.16761 0.0
C823 C 0.38088 0.65009 0.16305 0.0
C824 C 0.41018 0.61032 0.20724 0.0
C825 C 0.39738 0.66996 0.19902 0.0
C826 C 0.41986 0.66048 0.23829 0.0
C827 C 0.45115 0.62176 0.27716 0.0
C828 C 0.46053 0.59264 0.27522 0.0
C829 C 0.42669 0.63083 0.24225 0.0
C830 C 0.44275 0.57189 0.24463 0.0
C831 C 0.41769 0.58065 0.21113 0.0
H832 H 0.56624 0.14159 0.98979 0.0
H833 H 0.59747 0.1449 0.79904 0.0
H834 H 0.63519 0.17994 0.8295 0.0
H835 H 0.65874 0.20925 0.90892 0.0
H836 H 0.62378 0.21396 0.09701 0.0
H837 H 0.58844 0.17504 0.07009 0.0
C838 C 0.5811 0.15033 0.95483 0.0
C839 C 0.5799 0.13989 0.8922 0.0
C840 C 0.60213 0.17137 0.97272 0.0
C841 C 0.59908 0.15147 0.8476 0.0
C842 C 0.62035 0.17171 0.86507 0.0
C843 C 0.64336 0.20202 0.94452 0.0
C844 C 0.64371 0.21486 0.00488 0.0
C845 C 0.62221 0.18149 0.92749 0.0
C846 C 0.62402 0.20454 0.05032 0.0
C847 C 0.60362 0.18258 0.03454 0.0
H848 H 0.21478 0.1991 0.18732 0.0
H849 H 0.30441 0.22894 0.19944 0.0
H850 H 0.29362 0.25311 0.29916 0.0
H851 H 0.25873 0.26664 0.38064 0.0
H852 H 0.16864 0.2386 0.36798 0.0
H853 H 0.17986 0.21179 0.27105 0.0
C854 C 0.23194 0.21104 0.21162 0.0
C855 C 0.26034 0.2125 0.18575 0.0
C856 C 0.2256 0.2247 0.26896 0.0
C857 C 0.28231 0.22797 0.21775 0.0
C858 C 0.27622 0.24148 0.27504 0.0
C859 C 0.24155 0.25442 0.35705 0.0
C860 C 0.21285 0.25469 0.38108 0.0
C861 C 0.24797 0.24001 0.30085 0.0
C862 C 0.19092 0.23849 0.35059 0.0
C863 C 0.19728 0.22352 0.29486 0.0
H864 H 0.43559 0.45653 0.55421 0.0
H865 H 0.50557 0.46231 0.69044 0.0
H866 H 0.53462 0.49112 0.61625 0.0
H867 H 0.53959 0.51552 0.51412 0.0
H868 H 0.47015 0.50947 0.37683 0.0
H869 H 0.4409 0.4805 0.45083 0.0
C870 C 0.45745 0.46366 0.56725 0.0
C871 C 0.46855 0.45702 0.62769 0.0
C872 C 0.47368 0.48077 0.52487 0.0
C873 C 0.4968 0.4665 0.64393 0.0
C874 C 0.51318 0.48341 0.60187 0.0
C875 C 0.5178 0.5083 0.50074 0.0
C876 C 0.50684 0.51507 0.44036 0.0
C877 C 0.50163 0.49101 0.54272 0.0
C878 C 0.47873 0.50532 0.42352 0.0
C879 C 0.46228 0.4883 0.46545 0.0
H880 H 0.19778 0.7788 0.778 0.0
H881 H 0.21792 0.72208 0.62255 0.0
H882 H 0.24763 0.69132 0.6925 0.0
H883 H 0.26891 0.68163 0.79781 0.0
H884 H 0.25028 0.74015 0.9512 0.0
H885 H 0.21934 0.76964 0.88185 0.0
C886 C 0.20805 0.75922 0.75983 0.0
C887 C 0.20509 0.75229 0.69554 0.0
C888 C 0.22603 0.74257 0.79958 0.0
C889 C 0.21896 0.72725 0.67223 0.0
C890 C 0.23646 0.71008 0.71198 0.0
C891 C 0.2586 0.70127 0.81551 0.0
C892 C 0.26236 0.7091 0.87922 0.0
C893 C 0.24055 0.71786 0.77547 0.0
C894 C 0.24854 0.73426 0.90198 0.0
C895 C 0.2304 0.75076 0.86262 0.0
H896 H 0.9792 0.51408 0.14487 0.0
H897 H 0.06593 0.51925 0.06642 0.0
H898 H 0.0501 0.49079 0.97497 0.0
H899 H 0.01095 0.46411 0.91609 0.0
H900 H 0.9253 0.45724 0.00042 0.0
H901 H 0.94132 0.48603 0.08952 0.0
C902 C -0.00545 0.50919 0.1075 0.0
C903 C 0.0236 0.51908 0.11233 0.0
C904 C 0.98551 0.49211 0.05571 0.0
C905 C 0.04335 0.51202 0.06387 0.0
C906 C 0.03434 0.49563 0.0115 0.0
C907 C -0.00404 0.46865 0.9543 0.0
C908 C 0.96681 0.45857 0.95063 0.0
C909 C 0.00542 0.48536 0.00682 0.0
C910 C 0.94775 0.46485 0.00094 0.0
C911 C 0.95686 0.48143 0.05238 0.0
H912 H 0.75691 0.76074 0.89881 0.0
H913 H 0.66539 0.74378 0.86262 0.0
H914 H 0.67782 0.72436 0.75865 0.0
H915 H 0.71443 0.71344 0.6778 0.0
H916 H 0.80608 0.72958 0.714 0.0
H917 H 0.79371 0.74945 0.81783 0.0
C918 C 0.73967 0.75237 0.86854 0.0
C919 C 0.71019 0.75352 0.88869 0.0
C920 C 0.74696 0.74202 0.8084 0.0
C921 C 0.6882 0.74263 0.84892 0.0
C922 C 0.6953 0.73201 0.78908 0.0
C923 C 0.73174 0.72173 0.708 0.0
C924 C 0.7612 0.72028 0.68787 0.0
C925 C 0.72452 0.73205 0.76811 0.0
C926 C 0.78328 0.73104 0.72761 0.0
C927 C 0.7762 0.74188 0.78739 0.0
H928 H 0.75047 0.26172 0.18299 0.0
H929 H 0.66392 0.25153 0.25996 0.0
H930 H 0.68473 0.22822 0.35395 0.0
H931 H 0.72766 0.2114 0.41413 0.0
H932 H 0.81438 0.22165 0.3379 0.0
H933 H 0.79364 0.24525 0.24398 0.0
C934 C 0.73617 0.25347 0.21962 0.0
C935 C 0.70561 0.25718 0.21375 0.0
C936 C 0.74846 0.24119 0.27421 0.0
C937 C 0.6873 0.24767 0.26235 0.0
C938 C 0.6993 0.23497 0.31651 0.0
C939 C 0.74205 0.21955 0.37757 0.0
C940 C 0.77257 0.2155 0.3834 0.0
C941 C 0.72984 0.23202 0.32322 0.0
C942 C 0.79099 0.22548 0.33538 0.0
C943 C 0.77903 0.23835 0.28122 0.0
H944 H 0.02139 0.96743 0.93502 0.0
H945 H 0.0072 0.05751 0.98428 0.0
H946 H 0.98591 0.04246 0.08478 0.0
H947 H 0.97184 0.00425 0.15786 0.0
H948 H 0.98123 0.91367 0.10686 0.0
H949 H 0.00486 0.92833 0.00792 0.0
C950 C 0.01316 0.98369 0.96751 0.0
C951 C 0.01555 0.01358 0.95228 0.0
C952 C 0.00077 0.97479 0.02496 0.0
C953 C 0.005 0.03447 -0.00549 0.0
C954 C -0.00676 0.02585 0.0522 0.0
C955 C 0.97921 -0.01247 0.1255 0.0
C956 C 0.97487 0.9578 0.14008 0.0
C957 C -0.00875 -0.00386 0.06795 0.0
C958 C 0.98473 0.93662 0.09747 0.0
C959 C -0.00218 0.94506 0.04053 0.0
H960 H 0.54366 0.98428 0.5848 0.0
H961 H 0.48208 0.05063 0.64153 0.0
H962 H 0.44897 0.03558 0.55638 0.0
H963 H 0.43778 0.00369 0.46696 0.0
H964 H 0.49888 0.93651 0.41222 0.0
H965 H 0.53228 0.95209 0.49615 0.0
C966 C 0.52307 -0.0043 0.57857 0.0
C967 C 0.5155 0.01887 0.61935 0.0
C968 C 0.5042 0.98679 0.53004 0.0
C969 C 0.4885 0.0329 0.6109 0.0
C970 C 0.46963 0.02429 0.56218 0.0
C971 C 0.45845 -0.00761 0.47294 0.0
C972 C 0.46584 0.96893 0.43277 0.0
C973 C 0.47731 0.00129 0.52156 0.0
C974 C 0.49269 0.95467 0.44184 0.0
C975 C 0.51172 0.96355 0.49 0.0
H976 H 0.21123 0.27415 0.80677 0.0
H977 H 0.26458 0.28614 0.64201 0.0
H978 H 0.30757 0.26894 0.69898 0.0
H979 H 0.32943 0.2484 0.79517 0.0
H980 H 0.27342 0.2272 0.95164 0.0
H981 H 0.23155 0.2485 0.89737 0.0
C982 C 0.23235 0.27349 0.78356 0.0
C983 C 0.23521 0.28355 0.72148 0.0
C984 C 0.2562 0.26082 0.81458 0.0
C985 C 0.26241 0.28105 0.69129 0.0
C986 C 0.28677 0.27027 0.72328 0.0
C987 C 0.30795 0.24823 0.81688 0.0
C988 C 0.30444 0.23644 0.87716 0.0
C989 C 0.28385 0.25991 0.78485 0.0
C990 C 0.27654 0.23588 0.90484 0.0
C991 C 0.25268 0.24841 0.87424 0.0
H992 H 0.48559 0.44834 0.90741 0.0
H993 H 0.46917 0.38586 0.05434 0.0
H994 H 0.48111 0.42257 0.13431 0.0
H995 H 0.49853 0.47199 0.16191 0.0
H996 H 0.51708 0.53352 0.01435 0.0
H997 H 0.50366 0.49727 0.93462 0.0
C998 C 0.48481 0.44282 0.95695 0.0
C999 C 0.47694 0.41453 0.97539 0.0
C1000 C 0.49286 0.4636 0.00222 0.0
C1001 C 0.47561 0.40753 0.0395 0.0
C1002 C 0.4825 0.42842 0.08504 0.0
C1003 C 0.49981 0.47717 0.11221 0.0
C1004 C 0.50881 0.50502 0.09335 0.0
C1005 C 0.49171 0.45636 0.06692 0.0
C1006 C 0.51013 0.51201 0.02926 0.0
C1007 C 0.50236 0.49141 0.98391 0.0
H1008 H 0.24269 0.76031 0.41152 0.0
H1009 H 0.17819 0.78357 0.27205 0.0
H1010 H 0.20458 0.75599 0.19213 0.0
H1011 H 0.24199 0.72025 0.16619 0.0
H1012 H 0.30734 0.69669 0.30334 0.0
H1013 H 0.28418 0.72871 0.38141 0.0
C1014 C 0.23522 0.76011 0.36302 0.0
C1015 C 0.20886 0.77371 0.34682 0.0
C1016 C 0.24981 0.74319 0.31821 0.0
C1017 C 0.19872 0.77322 0.28459 0.0
C1018 C 0.21347 0.75715 0.23939 0.0
C1019 C 0.25081 0.72192 0.21354 0.0
C1020 C 0.27529 0.70555 0.23071 0.0
C1021 C 0.23817 0.74098 0.25654 0.0
C1022 C 0.28774 0.70865 0.29065 0.0
C1023 C 0.2748 0.72713 0.33465 0.0
H1024 H 0.97811 0.50967 0.41818 0.0
H1025 H 0.06049 0.51846 0.51542 0.0
H1026 H 0.03634 0.50812 0.61595 0.0
H1027 H -0.00772 0.4943 0.6739 0.0
H1028 H 0.91063 0.48208 0.57574 0.0
H1029 H 0.93328 0.4985 0.47763 0.0
C1030 C -0.00925 0.50838 0.46142 0.0
C1031 C 0.02104 0.51335 0.46006 0.0
C1032 C 0.97655 0.50351 0.51855 0.0
C1033 C 0.03734 0.5132 0.51585 0.0
C1034 C 0.02342 0.5081 0.57311 0.0
C1035 C 0.97917 0.49678 0.63154 0.0
C1036 C 0.94994 0.48733 0.63154 0.0
C1037 C -0.00697 0.50344 0.57489 0.0
C1038 C 0.93303 0.48995 0.57674 0.0
C1039 C 0.94625 0.49831 0.5204 0.0
H1040 H 0.74205 0.73622 0.15122 0.0
H1041 H 0.69606 0.78104 0.29888 0.0
H1042 H 0.73219 0.76424 0.37627 0.0
H1043 H 0.77587 0.73552 0.40156 0.0
H1044 H 0.82396 0.69325 0.25341 0.0
H1045 H 0.78732 0.7092 0.1761 0.0
C1046 C 0.74029 0.74238 0.20034 0.0
C1047 C 0.71689 0.7597 0.22016 0.0
C1048 C 0.76096 0.73253 0.24414 0.0
C1049 C 0.71421 0.76766 0.28344 0.0
C1050 C 0.73466 0.75797 0.32742 0.0
C1051 C 0.77817 0.72982 0.35231 0.0
C1052 C 0.80212 0.7132 0.33255 0.0
C1053 C 0.75787 0.74009 0.30836 0.0
C1054 C 0.80539 0.70601 0.26896 0.0
C1055 C 0.78463 0.71522 0.22502 0.0
H1056 H 0.79724 0.2057 0.80731 0.0
H1057 H 0.73062 0.1907 0.66603 0.0
H1058 H 0.70187 0.23049 0.7074 0.0
H1059 H 0.69561 0.26972 0.78221 0.0
H1060 H 0.75791 0.28012 0.93342 0.0
H1061 H 0.7902 0.2447 0.8847 0.0
C1062 C 0.77612 0.21062 0.78645 0.0
C1063 C 0.76607 0.19481 0.73396 0.0
C1064 C 0.75991 0.23418 0.80942 0.0
C1065 C 0.73872 0.20184 0.70731 0.0
C1066 C 0.72255 0.22519 0.72985 0.0
C1067 C 0.71664 0.26478 0.80365 0.0
C1068 C 0.72442 0.27789 0.86089 0.0
C1069 C 0.73321 0.24178 0.78004 0.0
C1070 C 0.75173 0.27134 0.88818 0.0
C1071 C 0.76972 0.25013 0.86161 0.0
H1072 H 0.94787 0.9772 0.44283 0.0
H1073 H -0.00373 0.90785 0.53184 0.0
H1074 H 0.01979 0.94287 0.60081 0.0
H1075 H 0.02247 -0.00833 0.64298 0.0
H1076 H 0.97161 0.06108 0.5603 0.0
H1077 H 0.95091 0.02678 0.48426 0.0
C1078 C 0.96239 0.96944 0.47864 0.0
C1079 C 0.96859 0.93963 0.48407 0.0
C1080 C 0.975 -0.01045 0.51993 0.0
C1081 C -0.01013 0.93051 0.52798 0.0
C1082 C 0.00352 0.95051 0.56743 0.0
C1083 C 0.00759 -0.00038 0.60745 0.0
C1084 C -0.00091 0.02893 0.60665 0.0
C1085 C -0.00436 0.97991 0.56479 0.0
C1086 C 0.97866 0.03854 0.56163 0.0
C1087 C 0.96684 0.019 0.51817 0.0
H1088 H 0.52277 0.02076 0.07083 0.0
H1089 H 0.53158 0.97305 0.89651 0.0
H1090 H 0.50544 0.9322 0.94096 0.0
H1091 H 0.47981 0.90986 0.02884 0.0
H1092 H 0.46607 0.95888 0.19919 0.0
H1093 H 0.49249 0.00032 0.1549 0.0
C1094 C 0.51941 0.00126 0.04282 0.0
C1095 C 0.53056 -0.00042 0.98136 0.0
C1096 C 0.50233 0.97858 0.06693 0.0
C1097 C 0.52505 0.97446 0.94518 0.0
C1098 C 0.50926 0.95129 0.96991 0.0
C1099 C 0.48213 0.92988 0.05563 0.0
C1100 C 0.47146 0.93134 0.11706 0.0
C1101 C 0.49768 0.95323 0.03045 0.0
C1102 C 0.47402 0.95738 0.15145 0.0
C1103 C 0.48959 0.98086 0.12664 0.0
loop_
_geom_bond_atom_site_label_1
_geom_bond_atom_site_label_2
_geom_bond_distance
_geom_bond_site_symmetry_2
_ccdc_geom_bond_type
Zn0 O6 1.920 . S
Zn0 O12 1.898 . S
Zn0 O15 1.905 . S
Zn1 O9 1.905 . S
Zn1 O10 1.898 . S
Zn1 O18 1.920 . S
Zn2 O5 2.080 . S
Zn2 O8 2.114 . S
Zn2 O11 2.120 1_554 S
Zn2 O13 2.120 . S
Zn2 O14 2.114 . S
Zn2 O17 2.080 1_554 S
C3 O8 1.166 . S
C3 O9 1.182 1_554 S
C4 O10 1.167 . S
C4 O11 1.299 . S
O5 Zn2 2.080 . S
O5 C19 1.305 . S
O6 Zn0 1.920 . S
O6 C19 1.234 . S
C7 O12 1.167 . S
C7 O13 1.299 . S
O8 Zn2 2.114 . S
O8 C3 1.166 . S
O9 Zn1 1.905 . S
O9 C3 1.182 1_556 S
O10 Zn1 1.898 . S
O10 C4 1.167 . S
O11 Zn2 2.120 1_556 S
O11 C4 1.299 . S
O12 Zn0 1.898 . S
O12 C7 1.167 . S
O13 Zn2 2.120 . S
O13 C7 1.299 . S
O14 Zn2 2.114 . S
O14 C16 1.166 . S
O15 Zn0 1.905 . S
O15 C16 1.182 . S
C16 O14 1.166 . S
C16 O15 1.182 . S
O17 Zn2 2.080 1_556 S
O17 C20 1.305 . S
O18 Zn1 1.920 . S
O18 C20 1.234 . S
C19 O5 1.305 . S
C19 O6 1.234 . S
C20 O17 1.305 . S
C20 O18 1.234 . S
Zn21 O27 1.920 . S
Zn21 O33 1.898 . S
Zn21 O36 1.905 . S
Zn22 O30 1.905 . S
Zn22 O31 1.898 . S
Zn22 O39 1.920 . S
Zn23 O26 2.080 . S
Zn23 O29 2.114 . S
Zn23 O32 2.120 . S
Zn23 O34 2.120 . S
Zn23 O35 2.114 . S
Zn23 O38 2.080 . S
C24 O29 1.166 . S
C24 O30 1.182 . S
C25 O31 1.167 . S
C25 O32 1.299 . S
O26 Zn23 2.080 . S
O26 C40 1.305 . S
O27 Zn21 1.920 . S
O27 C40 1.234 . S
C28 O33 1.167 . S
C28 O34 1.299 . S
O29 Zn23 2.114 . S
O29 C24 1.166 . S
O30 Zn22 1.905 . S
O30 C24 1.182 . S
O31 Zn22 1.898 . S
O31 C25 1.167 . S
O32 Zn23 2.120 . S
O32 C25 1.299 . S
O33 Zn21 1.898 . S
O33 C28 1.167 . S
O34 Zn23 2.120 . S
O34 C28 1.299 . S
O35 Zn23 2.114 . S
O35 C37 1.166 . S
O36 Zn21 1.905 . S
O36 C37 1.182 . S
C37 O35 1.166 . S
C37 O36 1.182 . S
O38 Zn23 2.080 . S
O38 C41 1.305 . S
O39 Zn22 1.920 . S
O39 C41 1.234 . S
C40 O26 1.305 . S
C40 O27 1.234 . S
C41 O38 1.305 . S
C41 O39 1.234 . S
Zn42 O48 1.920 . S
Zn42 O54 1.898 . S
Zn42 O57 1.905 . S
Zn43 O51 1.905 . S
Zn43 O52 1.898 . S
Zn43 O60 1.920 . S
Zn44 O47 2.080 . S
Zn44 O50 2.114 . S
Zn44 O53 2.120 . S
Zn44 O55 2.120 . S
Zn44 O56 2.114 . S
Zn44 O59 2.080 . S
C45 O50 1.166 . S
C45 O51 1.182 . S
C46 O52 1.167 . S
C46 O53 1.299 . S
O47 Zn44 2.080 . S
O47 C61 1.305 . S
O48 Zn42 1.920 . S
O48 C61 1.234 . S
C49 O54 1.167 . S
C49 O55 1.299 . S
O50 Zn44 2.114 . S
O50 C45 1.166 . S
O51 Zn43 1.905 . S
O51 C45 1.182 . S
O52 Zn43 1.898 . S
O52 C46 1.167 . S
O53 Zn44 2.120 . S
O53 C46 1.299 . S
O54 Zn42 1.898 . S
O54 C49 1.167 . S
O55 Zn44 2.120 . S
O55 C49 1.299 . S
O56 Zn44 2.114 . S
O56 C58 1.166 . S
O57 Zn42 1.905 . S
O57 C58 1.182 . S
C58 O56 1.166 . S
C58 O57 1.182 . S
O59 Zn44 2.080 . S
O59 C62 1.305 . S
O60 Zn43 1.920 . S
O60 C62 1.234 . S
C61 O47 1.305 . S
C61 O48 1.234 . S
C62 O59 1.305 . S
C62 O60 1.234 . S
Zn63 O69 1.920 . S
Zn63 O75 1.898 . S
Zn63 O78 1.905 . S
Zn64 O72 1.905 1_655 S
Zn64 O73 1.898 . S
Zn64 O81 1.920 . S
Zn65 O68 2.080 . S
Zn65 O71 2.114 . S
Zn65 O74 2.120 . S
Zn65 O76 2.120 . S
Zn65 O77 2.114 . S
Zn65 O80 2.080 . S
C66 O71 1.166 . S
C66 O72 1.182 1_655 S
C67 O73 1.167 . S
C67 O74 1.299 . S
O68 Zn65 2.080 . S
O68 C82 1.305 . S
O69 Zn63 1.920 . S
O69 C82 1.234 . S
C70 O75 1.167 . S
C70 O76 1.299 . S
O71 Zn65 2.114 . S
O71 C66 1.166 . S
O72 Zn64 1.905 1_455 S
O72 C66 1.182 1_455 S
O73 Zn64 1.898 . S
O73 C67 1.167 . S
O74 Zn65 2.120 . S
O74 C67 1.299 . S
O75 Zn63 1.898 . S
O75 C70 1.167 . S
O76 Zn65 2.120 . S
O76 C70 1.299 . S
O77 Zn65 2.114 . S
O77 C79 1.166 . S
O78 Zn63 1.905 . S
O78 C79 1.182 . S
C79 O77 1.166 . S
C79 O78 1.182 . S
O80 Zn65 2.080 . S
O80 C83 1.305 . S
O81 Zn64 1.920 . S
O81 C83 1.234 . S
C82 O68 1.305 . S
C82 O69 1.234 . S
C83 O80 1.305 . S
C83 O81 1.234 . S
Zn84 O90 1.920 1_556 S
Zn84 O96 1.898 . S
Zn84 O99 1.905 . S
Zn85 O93 1.905 . S
Zn85 O94 1.898 . S
Zn85 O102 1.920 . S
Zn86 O89 2.080 . S
Zn86 O92 2.114 . S
Zn86 O95 2.120 . S
Zn86 O97 2.120 . S
Zn86 O98 2.112 1_554 S
Zn86 O101 2.080 . S
C87 O92 1.166 . S
C87 O93 1.182 . S
C88 O94 1.167 . S
C88 O95 1.299 . S
O89 Zn86 2.080 . S
O89 C103 1.305 . S
O90 Zn84 1.920 1_554 S
O90 C103 1.234 . S
C91 O96 1.167 . S
C91 O97 1.299 1_556 S
O92 Zn86 2.114 . S
O92 C87 1.166 . S
O93 Zn85 1.905 . S
O93 C87 1.182 . S
O94 Zn85 1.898 . S
O94 C88 1.167 . S
O95 Zn86 2.120 . S
O95 C88 1.299 . S
O96 Zn84 1.898 . S
O96 C91 1.167 . S
O97 Zn86 2.120 . S
O97 C91 1.299 1_554 S
O98 Zn86 2.112 1_556 S
O98 C100 1.167 . S
O99 Zn84 1.905 . S
O99 C100 1.182 . S
C100 O98 1.167 . S
C100 O99 1.182 . S
O101 Zn86 2.080 . S
O101 C104 1.305 . S
O102 Zn85 1.920 . S
O102 C104 1.234 . S
C103 O89 1.305 . S
C103 O90 1.234 . S
C104 O101 1.305 . S
C104 O102 1.234 . S
Zn105 O111 1.920 . S
Zn105 O117 1.898 . S
Zn105 O120 1.905 . S
Zn106 O114 1.905 . S
Zn106 O115 1.898 . S
Zn106 O123 1.920 . S
Zn107 O110 2.080 . S
Zn107 O113 2.114 . S
Zn107 O116 2.120 . S
Zn107 O118 2.120 . S
Zn107 O119 2.114 . S
Zn107 O122 2.080 . S
C108 O113 1.166 . S
C108 O114 1.182 . S
C109 O115 1.167 . S
C109 O116 1.299 . S
O110 Zn107 2.080 . S
O110 C124 1.305 . S
O111 Zn105 1.920 . S
O111 C124 1.234 . S
C112 O117 1.167 . S
C112 O118 1.299 . S
O113 Zn107 2.114 . S
O113 C108 1.166 . S
O114 Zn106 1.905 . S
O114 C108 1.182 . S
O115 Zn106 1.898 . S
O115 C109 1.167 . S
O116 Zn107 2.120 . S
O116 C109 1.299 . S
O117 Zn105 1.898 . S
O117 C112 1.167 . S
O118 Zn107 2.120 . S
O118 C112 1.299 . S
O119 Zn107 2.114 . S
O119 C121 1.166 . S
O120 Zn105 1.905 . S
O120 C121 1.182 . S
C121 O119 1.166 . S
C121 O120 1.182 . S
O122 Zn107 2.080 . S
O122 C125 1.305 . S
O123 Zn106 1.920 . S
O123 C125 1.234 . S
C124 O110 1.305 . S
C124 O111 1.234 . S
C125 O122 1.305 . S
C125 O123 1.234 . S
Zn126 O132 1.920 . S
Zn126 O138 1.898 . S
Zn126 O141 1.905 . S
Zn127 O135 1.905 . S
Zn127 O136 1.898 . S
Zn127 O144 1.920 . S
Zn128 O131 2.080 . S
Zn128 O134 2.114 . S
Zn128 O137 2.120 . S
Zn128 O139 2.120 . S
Zn128 O140 2.114 . S
Zn128 O143 2.080 . S
C129 O134 1.166 . S
C129 O135 1.182 . S
C130 O136 1.167 . S
C130 O137 1.299 . S
O131 Zn128 2.080 . S
O131 C145 1.305 . S
O132 Zn126 1.920 . S
O132 C145 1.234 . S
C133 O138 1.167 . S
C133 O139 1.299 . S
O134 Zn128 2.114 . S
O134 C129 1.166 . S
O135 Zn127 1.905 . S
O135 C129 1.182 . S
O136 Zn127 1.898 . S
O136 C130 1.167 . S
O137 Zn128 2.120 . S
O137 C130 1.299 . S
O138 Zn126 1.898 . S
O138 C133 1.167 . S
O139 Zn128 2.120 . S
O139 C133 1.299 . S
O140 Zn128 2.114 . S
O140 C142 1.166 . S
O141 Zn126 1.905 . S
O141 C142 1.182 . S
C142 O140 1.166 . S
C142 O141 1.182 . S
O143 Zn128 2.080 . S
O143 C146 1.305 . S
O144 Zn127 1.920 . S
O144 C146 1.234 . S
C145 O131 1.305 . S
C145 O132 1.234 . S
C146 O143 1.305 . S
C146 O144 1.234 . S
Zn147 O153 1.920 . S
Zn147 O159 1.898 . S
Zn147 O162 1.905 1_455 S
Zn148 O156 1.905 . S
Zn148 O157 1.898 . S
Zn148 O165 1.920 . S
Zn149 O152 2.080 . S
Zn149 O155 2.114 . S
Zn149 O158 2.120 . S
Zn149 O160 2.120 . S
Zn149 O161 2.114 . S
Zn149 O164 2.080 . S
C150 O155 1.166 . S
C150 O156 1.182 . S
C151 O157 1.167 . S
C151 O158 1.299 . S
O152 Zn149 2.080 . S
O152 C166 1.305 . S
O153 Zn147 1.920 . S
O153 C166 1.234 . S
C154 O159 1.167 . S
C154 O160 1.299 . S
O155 Zn149 2.114 . S
O155 C150 1.166 . S
O156 Zn148 1.905 . S
O156 C150 1.182 . S
O157 Zn148 1.898 . S
O157 C151 1.167 . S
O158 Zn149 2.120 . S
O158 C151 1.299 . S
O159 Zn147 1.898 . S
O159 C154 1.167 . S
O160 Zn149 2.120 . S
O160 C154 1.299 . S
O161 Zn149 2.114 . S
O161 C163 1.166 . S
O162 Zn147 1.905 1_655 S
O162 C163 1.182 1_655 S
C163 O161 1.166 . S
C163 O162 1.182 1_455 S
O164 Zn149 2.080 . S
O164 C167 1.305 . S
O165 Zn148 1.920 . S
O165 C167 1.234 . S
C166 O152 1.305 . S
C166 O153 1.234 . S
C167 O164 1.305 . S
C167 O165 1.234 . S
Zn168 O174 1.920 . S
Zn168 O180 1.898 . S
Zn168 O183 1.905 . S
Zn169 O177 1.905 . S
Zn169 O178 1.898 . S
Zn169 O186 1.920 . S
Zn170 O173 2.080 . S
Zn170 O176 2.114 . S
Zn170 O179 2.120 . S
Zn170 O181 2.120 . S
Zn170 O182 2.114 . S
Zn170 O185 2.080 . S
C171 O176 1.166 . S
C171 O177 1.182 . S
C172 O178 1.167 . S
C172 O179 1.299 . S
O173 Zn170 2.080 . S
O173 C187 1.305 . S
O174 Zn168 1.920 . S
O174 C187 1.234 . S
C175 O180 1.167 . S
C175 O181 1.299 . S
O176 Zn170 2.114 . S
O176 C171 1.166 . S
O177 Zn169 1.905 . S
O177 C171 1.182 . S
O178 Zn169 1.898 . S
O178 C172 1.167 . S
O179 Zn170 2.120 . S
O179 C172 1.299 . S
O180 Zn168 1.898 . S
O180 C175 1.167 . S
O181 Zn170 2.120 . S
O181 C175 1.299 . S
O182 Zn170 2.114 . S
O182 C184 1.166 . S
O183 Zn168 1.905 . S
O183 C184 1.182 . S
C184 O182 1.166 . S
C184 O183 1.182 . S
O185 Zn170 2.080 . S
O185 C188 1.305 . S
O186 Zn169 1.920 . S
O186 C188 1.234 . S
C187 O173 1.305 . S
C187 O174 1.234 . S
C188 O185 1.305 . S
C188 O186 1.234 . S
Zn189 O195 1.920 1_545 S
Zn189 O201 1.898 . S
Zn189 O204 1.905 . S
Zn190 O198 1.905 1_455 S
Zn190 O199 1.898 . S
Zn190 O207 1.920 . S
Zn191 O194 2.080 . S
Zn191 O197 2.114 . S
Zn191 O200 2.120 . S
Zn191 O202 2.120 . S
Zn191 O203 2.114 . S
Zn191 O206 2.080 . S
C192 O197 1.166 . S
C192 O198 1.182 1_455 S
C193 O199 1.167 . S
C193 O200 1.299 . S
O194 Zn191 2.080 . S
O194 C208 1.305 1_545 S
O195 Zn189 1.920 1_565 S
O195 C208 1.234 . S
C196 O201 1.167 . S
C196 O202 1.299 . S
O197 Zn191 2.114 . S
O197 C192 1.166 . S
O198 Zn190 1.905 1_655 S
O198 C192 1.182 1_655 S
O199 Zn190 1.898 . S
O199 C193 1.167 . S
O200 Zn191 2.120 . S
O200 C193 1.299 . S
O201 Zn189 1.898 . S
O201 C196 1.167 . S
O202 Zn191 2.120 . S
O202 C196 1.299 . S
O203 Zn191 2.114 . S
O203 C205 1.166 . S
O204 Zn189 1.905 . S
O204 C205 1.182 . S
C205 O203 1.166 . S
C205 O204 1.182 . S
O206 Zn191 2.080 . S
O206 C209 1.305 . S
O207 Zn190 1.920 . S
O207 C209 1.234 . S
C208 O194 1.305 1_565 S
C208 O195 1.234 . S
C209 O206 1.305 . S
C209 O207 1.234 . S
Zn210 O216 1.920 . S
Zn210 O222 1.898 . S
Zn210 O225 1.905 . S
Zn211 O219 1.905 . S
Zn211 O220 1.898 . S
Zn211 O228 1.920 . S
Zn212 O215 2.080 . S
Zn212 O218 2.114 . S
Zn212 O221 2.120 1_554 S
Zn212 O223 2.120 . S
Zn212 O224 2.114 . S
Zn212 O227 2.080 1_554 S
C213 O218 1.166 . S
C213 O219 1.182 1_554 S
C214 O220 1.167 . S
C214 O221 1.299 . S
O215 Zn212 2.080 . S
O215 C229 1.305 . S
O216 Zn210 1.920 . S
O216 C229 1.234 . S
C217 O222 1.167 . S
C217 O223 1.299 . S
O218 Zn212 2.114 . S
O218 C213 1.166 . S
O219 Zn211 1.905 . S
O219 C213 1.182 1_556 S
O220 Zn211 1.898 . S
O220 C214 1.167 . S
O221 Zn212 2.120 1_556 S
O221 C214 1.299 . S
O222 Zn210 1.898 . S
O222 C217 1.167 . S
O223 Zn212 2.120 . S
O223 C217 1.299 . S
O224 Zn212 2.114 . S
O224 C226 1.166 . S
O225 Zn210 1.905 . S
O225 C226 1.182 . S
C226 O224 1.166 . S
C226 O225 1.182 . S
O227 Zn212 2.080 1_556 S
O227 C230 1.305 . S
O228 Zn211 1.920 . S
O228 C230 1.234 . S
C229 O215 1.305 . S
C229 O216 1.234 . S
C230 O227 1.305 . S
C230 O228 1.234 . S
Zn231 O237 1.920 . S
Zn231 O243 1.898 . S
Zn231 O246 1.905 . S
Zn232 O240 1.905 . S
Zn232 O241 1.898 . S
Zn232 O249 1.920 1_565 S
Zn233 O236 2.080 . S
Zn233 O239 2.114 . S
Zn233 O242 2.120 . S
Zn233 O244 2.120 . S
Zn233 O245 2.114 . S
Zn233 O248 2.080 . S
C234 O239 1.166 . S
C234 O240 1.182 . S
C235 O241 1.167 . S
C235 O242 1.299 . S
O236 Zn233 2.080 . S
O236 C250 1.305 . S
O237 Zn231 1.920 . S
O237 C250 1.234 . S
C238 O243 1.167 . S
C238 O244 1.299 . S
O239 Zn233 2.114 . S
O239 C234 1.166 . S
O240 Zn232 1.905 . S
O240 C234 1.182 . S
O241 Zn232 1.898 . S
O241 C235 1.167 . S
O242 Zn233 2.120 . S
O242 C235 1.299 . S
O243 Zn231 1.898 . S
O243 C238 1.167 . S
O244 Zn233 2.120 . S
O244 C238 1.299 . S
O245 Zn233 2.114 . S
O245 C247 1.166 . S
O246 Zn231 1.905 . S
O246 C247 1.182 . S
C247 O245 1.166 . S
C247 O246 1.182 . S
O248 Zn233 2.080 . S
O248 C251 1.305 1_565 S
O249 Zn232 1.920 1_545 S
O249 C251 1.234 . S
C250 O236 1.305 . S
C250 O237 1.234 . S
C251 O248 1.305 1_545 S
C251 O249 1.234 . S
Zn252 O258 1.920 . S
Zn252 O264 1.898 . S
Zn252 O267 1.905 . S
Zn253 O261 1.905 . S
Zn253 O262 1.898 . S
Zn253 O270 1.920 . S
Zn254 O257 2.080 . S
Zn254 O260 2.114 . S
Zn254 O263 2.120 . S
Zn254 O265 2.120 . S
Zn254 O266 2.114 . S
Zn254 O269 2.080 . S
C255 O260 1.166 . S
C255 O261 1.182 . S
C256 O262 1.167 . S
C256 O263 1.299 . S
O257 Zn254 2.080 . S
O257 C271 1.305 . S
O258 Zn252 1.920 . S
O258 C271 1.234 . S
C259 O264 1.167 . S
C259 O265 1.299 . S
O260 Zn254 2.114 . S
O260 C255 1.166 . S
O261 Zn253 1.905 . S
O261 C255 1.182 . S
O262 Zn253 1.898 . S
O262 C256 1.167 . S
O263 Zn254 2.120 . S
O263 C256 1.299 . S
O264 Zn252 1.898 . S
O264 C259 1.167 . S
O265 Zn254 2.120 . S
O265 C259 1.299 . S
O266 Zn254 2.114 . S
O266 C268 1.166 . S
O267 Zn252 1.905 . S
O267 C268 1.182 . S
C268 O266 1.166 . S
C268 O267 1.182 . S
O269 Zn254 2.080 . S
O269 C272 1.305 . S
O270 Zn253 1.920 . S
O270 C272 1.234 . S
C271 O257 1.305 . S
C271 O258 1.234 . S
C272 O269 1.305 . S
C272 O270 1.234 . S
Zn273 O279 1.920 1_565 S
Zn273 O285 1.898 . S
Zn273 O288 1.905 . S
Zn274 O282 1.905 1_655 S
Zn274 O283 1.898 . S
Zn274 O291 1.920 . S
Zn275 O278 2.080 . S
Zn275 O281 2.114 . S
Zn275 O284 2.120 . S
Zn275 O286 2.120 . S
Zn275 O287 2.114 . S
Zn275 O290 2.080 . S
C276 O281 1.166 . S
C276 O282 1.182 1_655 S
C277 O283 1.167 . S
C277 O284 1.299 . S
O278 Zn275 2.080 . S
O278 C292 1.305 1_565 S
O279 Zn273 1.920 1_545 S
O279 C292 1.234 . S
C280 O285 1.167 . S
C280 O286 1.299 . S
O281 Zn275 2.114 . S
O281 C276 1.166 . S
O282 Zn274 1.905 1_455 S
O282 C276 1.182 1_455 S
O283 Zn274 1.898 . S
O283 C277 1.167 . S
O284 Zn275 2.120 . S
O284 C277 1.299 . S
O285 Zn273 1.898 . S
O285 C280 1.167 . S
O286 Zn275 2.120 . S
O286 C280 1.299 . S
O287 Zn275 2.114 . S
O287 C289 1.166 . S
O288 Zn273 1.905 . S
O288 C289 1.182 . S
C289 O287 1.166 . S
C289 O288 1.182 . S
O290 Zn275 2.080 . S
O290 C293 1.305 . S
O291 Zn274 1.920 . S
O291 C293 1.234 . S
C292 O278 1.305 1_545 S
C292 O279 1.234 . S
C293 O290 1.305 . S
C293 O291 1.234 . S
Zn294 O300 1.920 1_556 S
Zn294 O306 1.898 . S
Zn294 O309 1.905 . S
Zn295 O303 1.905 . S
Zn295 O304 1.898 . S
Zn295 O312 1.920 . S
Zn296 O299 2.080 . S
Zn296 O302 2.114 . S
Zn296 O305 2.120 . S
Zn296 O307 2.120 . S
Zn296 O308 2.112 1_554 S
Zn296 O311 2.080 . S
C297 O302 1.166 . S
C297 O303 1.182 . S
C298 O304 1.167 . S
C298 O305 1.299 . S
O299 Zn296 2.080 . S
O299 C313 1.305 . S
O300 Zn294 1.920 1_554 S
O300 C313 1.234 . S
C301 O306 1.167 . S
C301 O307 1.299 1_556 S
O302 Zn296 2.114 . S
O302 C297 1.166 . S
O303 Zn295 1.905 . S
O303 C297 1.182 . S
O304 Zn295 1.898 . S
O304 C298 1.167 . S
O305 Zn296 2.120 . S
O305 C298 1.299 . S
O306 Zn294 1.898 . S
O306 C301 1.167 . S
O307 Zn296 2.120 . S
O307 C301 1.299 1_554 S
O308 Zn296 2.112 1_556 S
O308 C310 1.167 . S
O309 Zn294 1.905 . S
O309 C310 1.182 . S
C310 O308 1.167 . S
C310 O309 1.182 . S
O311 Zn296 2.080 . S
O311 C314 1.305 . S
O312 Zn295 1.920 . S
O312 C314 1.234 . S
C313 O299 1.305 . S
C313 O300 1.234 . S
C314 O311 1.305 . S
C314 O312 1.234 . S
Zn315 O321 1.920 . S
Zn315 O327 1.898 . S
Zn315 O330 1.905 . S
Zn316 O324 1.905 . S
Zn316 O325 1.898 . S
Zn316 O333 1.920 1_545 S
Zn317 O320 2.080 . S
Zn317 O323 2.114 . S
Zn317 O326 2.120 . S
Zn317 O328 2.120 . S
Zn317 O329 2.114 . S
Zn317 O332 2.080 . S
C318 O323 1.166 . S
C318 O324 1.182 . S
C319 O325 1.167 . S
C319 O326 1.299 . S
O320 Zn317 2.080 . S
O320 C334 1.305 . S
O321 Zn315 1.920 . S
O321 C334 1.234 . S
C322 O327 1.167 . S
C322 O328 1.299 . S
O323 Zn317 2.114 . S
O323 C318 1.166 . S
O324 Zn316 1.905 . S
O324 C318 1.182 . S
O325 Zn316 1.898 . S
O325 C319 1.167 . S
O326 Zn317 2.120 . S
O326 C319 1.299 . S
O327 Zn315 1.898 . S
O327 C322 1.167 . S
O328 Zn317 2.120 . S
O328 C322 1.299 . S
O329 Zn317 2.114 . S
O329 C331 1.166 . S
O330 Zn315 1.905 . S
O330 C331 1.182 . S
C331 O329 1.166 . S
C331 O330 1.182 . S
O332 Zn317 2.080 . S
O332 C335 1.305 1_545 S
O333 Zn316 1.920 1_565 S
O333 C335 1.234 . S
C334 O320 1.305 . S
C334 O321 1.234 . S
C335 O332 1.305 1_565 S
C335 O333 1.234 . S
H336 C342 0.930 . S
H337 C345 0.930 . S
H338 C346 0.930 . S
H339 C347 0.930 . S
H340 C350 0.930 . S
H341 C351 0.930 . S
C342 H336 0.930 . S
C342 C343 1.355 . S
C342 C344 1.415 . S
C343 C342 1.355 . S
C343 C345 1.419 . S
C344 C342 1.415 . S
C344 C349 1.425 . S
C344 C351 1.409 . S
C345 H337 0.930 . S
C345 C343 1.419 . S
C345 C346 1.362 . S
C346 H338 0.930 . S
C346 C345 1.362 . S
C346 C349 1.409 . S
C347 H339 0.930 . S
C347 C348 1.355 . S
C347 C349 1.415 . S
C348 C347 1.355 . S
C348 C350 1.419 . S
C349 C344 1.425 . S
C349 C346 1.409 . S
C349 C347 1.415 . S
C350 H340 0.930 . S
C350 C348 1.419 . S
C350 C351 1.362 . S
C351 H341 0.930 . S
C351 C344 1.409 . S
C351 C350 1.362 . S
H352 C358 0.930 . S
H353 C361 0.930 . S
H354 C362 0.930 . S
H355 C363 0.930 . S
H356 C366 0.930 . S
H357 C367 0.930 . S
C358 H352 0.930 . S
C358 C359 1.355 . S
C358 C360 1.415 . S
C359 C358 1.355 . S
C359 C361 1.419 . S
C360 C358 1.415 . S
C360 C365 1.425 . S
C360 C367 1.409 . S
C361 H353 0.930 . S
C361 C359 1.419 . S
C361 C362 1.362 . S
C362 H354 0.930 . S
C362 C361 1.362 . S
C362 C365 1.409 . S
C363 H355 0.930 . S
C363 C364 1.355 . S
C363 C365 1.415 . S
C364 C363 1.355 . S
C364 C366 1.419 . S
C365 C360 1.425 . S
C365 C362 1.409 . S
C365 C363 1.415 . S
C366 H356 0.930 . S
C366 C364 1.419 . S
C366 C367 1.362 . S
C367 H357 0.930 . S
C367 C360 1.409 . S
C367 C366 1.362 . S
H368 C374 0.930 . S
H369 C377 0.930 . S
H370 C378 0.930 . S
H371 C379 0.930 . S
H372 C382 0.930 . S
H373 C383 0.930 . S
C374 H368 0.930 . S
C374 C375 1.355 . S
C374 C376 1.415 . S
C375 C374 1.355 . S
C375 C377 1.419 . S
C376 C374 1.415 . S
C376 C381 1.425 . S
C376 C383 1.409 . S
C377 H369 0.930 . S
C377 C375 1.419 . S
C377 C378 1.362 . S
C378 H370 0.930 . S
C378 C377 1.362 . S
C378 C381 1.409 . S
C379 H371 0.930 . S
C379 C380 1.355 . S
C379 C381 1.415 . S
C380 C379 1.355 . S
C380 C382 1.419 . S
C381 C376 1.425 . S
C381 C378 1.409 . S
C381 C379 1.415 . S
C382 H372 0.930 . S
C382 C380 1.419 . S
C382 C383 1.362 . S
C383 H373 0.930 . S
C383 C376 1.409 . S
C383 C382 1.362 . S
H384 C390 0.930 . S
H385 C393 0.930 . S
H386 C394 0.930 . S
H387 C395 0.930 . S
H388 C398 0.930 . S
H389 C399 0.930 . S
C390 H384 0.930 . S
C390 C391 1.355 . S
C390 C392 1.415 . S
C391 C390 1.355 . S
C391 C393 1.419 . S
C392 C390 1.415 . S
C392 C397 1.425 . S
C392 C399 1.409 . S
C393 H385 0.930 . S
C393 C391 1.419 . S
C393 C394 1.362 . S
C394 H386 0.930 . S
C394 C393 1.362 . S
C394 C397 1.409 . S
C395 H387 0.930 . S
C395 C396 1.355 . S
C395 C397 1.415 . S
C396 C395 1.355 . S
C396 C398 1.419 . S
C397 C392 1.425 . S
C397 C394 1.409 . S
C397 C395 1.415 . S
C398 H388 0.930 . S
C398 C396 1.419 . S
C398 C399 1.362 . S
C399 H389 0.930 . S
C399 C392 1.409 . S
C399 C398 1.362 . S
H400 C406 0.930 . S
H401 C409 0.930 . S
H402 C410 0.930 . S
H403 C411 0.930 . S
H404 C414 0.930 . S
H405 C415 0.930 . S
C406 H400 0.930 . S
C406 C407 1.355 . S
C406 C408 1.415 . S
C407 C406 1.355 . S
C407 C409 1.419 . S
C408 C406 1.415 . S
C408 C413 1.425 . S
C408 C415 1.409 . S
C409 H401 0.930 . S
C409 C407 1.419 . S
C409 C410 1.362 . S
C410 H402 0.930 . S
C410 C409 1.362 . S
C410 C413 1.409 . S
C411 H403 0.930 . S
C411 C412 1.355 . S
C411 C413 1.415 . S
C412 C411 1.355 . S
C412 C414 1.419 . S
C413 C408 1.425 . S
C413 C410 1.409 . S
C413 C411 1.415 . S
C414 H404 0.930 . S
C414 C412 1.419 . S
C414 C415 1.362 . S
C415 H405 0.930 . S
C415 C408 1.409 . S
C415 C414 1.362 . S
H416 C422 0.930 . S
H417 C425 0.930 . S
H418 C426 0.930 . S
H419 C427 0.930 . S
H420 C430 0.930 . S
H421 C431 0.930 . S
C422 H416 0.930 . S
C422 C423 1.355 . S
C422 C424 1.415 . S
C423 C422 1.355 . S
C423 C425 1.419 . S
C424 C422 1.415 . S
C424 C429 1.425 . S
C424 C431 1.409 . S
C425 H417 0.930 . S
C425 C423 1.419 . S
C425 C426 1.362 . S
C426 H418 0.930 . S
C426 C425 1.362 . S
C426 C429 1.409 . S
C427 H419 0.930 . S
C427 C428 1.355 . S
C427 C429 1.415 . S
C428 C427 1.355 . S
C428 C430 1.419 . S
C429 C424 1.425 . S
C429 C426 1.409 . S
C429 C427 1.415 . S
C430 H420 0.930 . S
C430 C428 1.419 . S
C430 C431 1.362 . S
C431 H421 0.930 . S
C431 C424 1.409 . S
C431 C430 1.362 . S
H432 C438 0.930 . S
H433 C441 0.930 . S
H434 C442 0.930 . S
H435 C443 0.930 . S
H436 C446 0.930 . S
H437 C447 0.930 . S
C438 H432 0.930 . S
C438 C439 1.355 . S
C438 C440 1.415 . S
C439 C438 1.355 . S
C439 C441 1.419 . S
C440 C438 1.415 . S
C440 C445 1.425 . S
C440 C447 1.409 . S
C441 H433 0.930 . S
C441 C439 1.419 . S
C441 C442 1.362 . S
C442 H434 0.930 . S
C442 C441 1.362 . S
C442 C445 1.409 . S
C443 H435 0.930 . S
C443 C444 1.355 . S
C443 C445 1.415 . S
C444 C443 1.355 . S
C444 C446 1.419 . S
C445 C440 1.425 . S
C445 C442 1.409 . S
C445 C443 1.415 . S
C446 H436 0.930 . S
C446 C444 1.419 . S
C446 C447 1.362 . S
C447 H437 0.930 . S
C447 C440 1.409 . S
C447 C446 1.362 . S
H448 C454 0.930 . S
H449 C457 0.930 . S
H450 C458 0.930 . S
H451 C459 0.930 . S
H452 C462 0.930 . S
H453 C463 0.930 . S
C454 H448 0.930 . S
C454 C455 1.355 . S
C454 C456 1.415 . S
C455 C454 1.355 . S
C455 C457 1.419 . S
C456 C454 1.415 . S
C456 C461 1.425 . S
C456 C463 1.409 . S
C457 H449 0.930 . S
C457 C455 1.419 . S
C457 C458 1.362 . S
C458 H450 0.930 . S
C458 C457 1.362 . S
C458 C461 1.409 . S
C459 H451 0.930 . S
C459 C460 1.355 . S
C459 C461 1.415 . S
C460 C459 1.355 . S
C460 C462 1.419 . S
C461 C456 1.425 . S
C461 C458 1.409 . S
C461 C459 1.415 . S
C462 H452 0.930 . S
C462 C460 1.419 . S
C462 C463 1.362 . S
C463 H453 0.930 . S
C463 C456 1.409 . S
C463 C462 1.362 . S
H464 C470 0.930 . S
H465 C473 0.930 . S
H466 C474 0.930 . S
H467 C475 0.930 . S
H468 C478 0.930 . S
H469 C479 0.930 . S
C470 H464 0.930 . S
C470 C471 1.355 . S
C470 C472 1.415 . S
C471 C470 1.355 . S
C471 C473 1.419 . S
C472 C470 1.415 . S
C472 C477 1.425 . S
C472 C479 1.409 . S
C473 H465 0.930 . S
C473 C471 1.419 . S
C473 C474 1.362 . S
C474 H466 0.930 . S
C474 C473 1.362 . S
C474 C477 1.409 . S
C475 H467 0.930 . S
C475 C476 1.355 . S
C475 C477 1.415 . S
C476 C475 1.355 . S
C476 C478 1.419 . S
C477 C472 1.425 . S
C477 C474 1.409 . S
C477 C475 1.415 . S
C478 H468 0.930 . S
C478 C476 1.419 . S
C478 C479 1.362 . S
C479 H469 0.930 . S
C479 C472 1.409 . S
C479 C478 1.362 . S
H480 C486 0.930 . S
H481 C489 0.930 . S
H482 C490 0.930 . S
H483 C491 0.930 . S
H484 C494 0.930 . S
H485 C495 0.930 . S
C486 H480 0.930 . S
C486 C487 1.355 . S
C486 C488 1.415 . S
C487 C486 1.355 . S
C487 C489 1.419 . S
C488 C486 1.415 . S
C488 C493 1.425 . S
C488 C495 1.409 . S
C489 H481 0.930 . S
C489 C487 1.419 . S
C489 C490 1.362 . S
C490 H482 0.930 . S
C490 C489 1.362 . S
C490 C493 1.409 . S
C491 H483 0.930 . S
C491 C492 1.355 . S
C491 C493 1.415 . S
C492 C491 1.355 . S
C492 C494 1.419 . S
C493 C488 1.425 . S
C493 C490 1.409 . S
C493 C491 1.415 . S
C494 H484 0.930 . S
C494 C492 1.419 . S
C494 C495 1.362 . S
C495 H485 0.930 . S
C495 C488 1.409 . S
C495 C494 1.362 . S
H496 C502 0.930 . S
H497 C505 0.930 . S
H498 C506 0.930 . S
H499 C507 0.930 . S
H500 C510 0.930 . S
H501 C511 0.930 . S
C502 H496 0.930 . S
C502 C503 1.355 . S
C502 C504 1.415 . S
C503 C502 1.355 . S
C503 C505 1.419 . S
C504 C502 1.415 . S
C504 C509 1.425 . S
C504 C511 1.409 1_556 S
C505 H497 0.930 . S
C505 C503 1.419 . S
C505 C506 1.362 . S
C506 H498 0.930 . S
C506 C505 1.362 . S
C506 C509 1.409 . S
C507 H499 0.930 . S
C507 C508 1.355 . S
C507 C509 1.415 . S
C508 C507 1.355 . S
C508 C510 1.419 1_556 S
C509 C504 1.425 . S
C509 C506 1.409 . S
C509 C507 1.415 . S
C510 H500 0.930 . S
C510 C508 1.419 1_554 S
C510 C511 1.362 . S
C511 H501 0.930 . S
C511 C504 1.409 1_554 S
C511 C510 1.362 . S
H512 C518 0.930 . S
H513 C521 0.930 . S
H514 C522 0.930 . S
H515 C523 0.930 . S
H516 C526 0.930 . S
H517 C527 0.930 . S
C518 H512 0.930 . S
C518 C519 1.355 . S
C518 C520 1.415 . S
C519 C518 1.355 . S
C519 C521 1.419 . S
C520 C518 1.415 . S
C520 C525 1.425 . S
C520 C527 1.409 . S
C521 H513 0.930 . S
C521 C519 1.419 . S
C521 C522 1.362 . S
C522 H514 0.930 . S
C522 C521 1.362 . S
C522 C525 1.409 . S
C523 H515 0.930 . S
C523 C524 1.355 . S
C523 C525 1.415 . S
C524 C523 1.355 . S
C524 C526 1.419 . S
C525 C520 1.425 . S
C525 C522 1.409 . S
C525 C523 1.415 . S
C526 H516 0.930 . S
C526 C524 1.419 . S
C526 C527 1.362 . S
C527 H517 0.930 . S
C527 C520 1.409 . S
C527 C526 1.362 . S
H528 C534 0.930 . S
H529 C537 0.930 . S
H530 C538 0.930 . S
H531 C539 0.930 . S
H532 C542 0.930 . S
H533 C543 0.930 . S
C534 H528 0.930 . S
C534 C535 1.355 . S
C534 C536 1.415 . S
C535 C534 1.355 . S
C535 C537 1.419 . S
C536 C534 1.415 . S
C536 C541 1.425 . S
C536 C543 1.409 . S
C537 H529 0.930 . S
C537 C535 1.419 . S
C537 C538 1.362 . S
C538 H530 0.930 . S
C538 C537 1.362 . S
C538 C541 1.409 . S
C539 H531 0.930 . S
C539 C540 1.355 . S
C539 C541 1.415 . S
C540 C539 1.355 . S
C540 C542 1.419 . S
C541 C536 1.425 . S
C541 C538 1.409 . S
C541 C539 1.415 . S
C542 H532 0.930 . S
C542 C540 1.419 . S
C542 C543 1.362 . S
C543 H533 0.930 . S
C543 C536 1.409 . S
C543 C542 1.362 . S
H544 C550 0.930 . S
H545 C553 0.930 . S
H546 C554 0.930 . S
H547 C555 0.930 . S
H548 C558 0.930 . S
H549 C559 0.930 . S
C550 H544 0.930 . S
C550 C551 1.355 . S
C550 C552 1.415 . S
C551 C550 1.355 . S
C551 C553 1.419 . S
C552 C550 1.415 . S
C552 C557 1.425 . S
C552 C559 1.409 . S
C553 H545 0.930 . S
C553 C551 1.419 . S
C553 C554 1.362 . S
C554 H546 0.930 . S
C554 C553 1.362 . S
C554 C557 1.409 . S
C555 H547 0.930 . S
C555 C556 1.355 . S
C555 C557 1.415 . S
C556 C555 1.355 . S
C556 C558 1.419 . S
C557 C552 1.425 . S
C557 C554 1.409 . S
C557 C555 1.415 . S
C558 H548 0.930 . S
C558 C556 1.419 . S
C558 C559 1.362 . S
C559 H549 0.930 . S
C559 C552 1.409 . S
C559 C558 1.362 . S
H560 C566 0.930 . S
H561 C569 0.930 . S
H562 C570 0.930 . S
H563 C571 0.930 . S
H564 C574 0.930 . S
H565 C575 0.930 . S
C566 H560 0.930 . S
C566 C567 1.355 . S
C566 C568 1.415 . S
C567 C566 1.355 . S
C567 C569 1.419 . S
C568 C566 1.415 . S
C568 C573 1.425 . S
C568 C575 1.409 . S
C569 H561 0.930 . S
C569 C567 1.419 . S
C569 C570 1.362 . S
C570 H562 0.930 . S
C570 C569 1.362 . S
C570 C573 1.409 . S
C571 H563 0.930 . S
C571 C572 1.355 . S
C571 C573 1.415 . S
C572 C571 1.355 . S
C572 C574 1.419 . S
C573 C568 1.425 . S
C573 C570 1.409 . S
C573 C571 1.415 . S
C574 H564 0.930 . S
C574 C572 1.419 . S
C574 C575 1.362 . S
C575 H565 0.930 . S
C575 C568 1.409 . S
C575 C574 1.362 . S
H576 C582 0.930 1_554 S
H577 C585 0.930 . S
H578 C586 0.930 . S
H579 C587 0.930 . S
H580 C590 0.930 1_545 S
H581 C591 0.930 . S
C582 H576 0.930 1_556 S
C582 C583 1.355 . S
C582 C584 1.415 . S
C583 C582 1.355 . S
C583 C585 1.419 . S
C584 C582 1.415 . S
C584 C589 1.425 . S
C584 C591 1.409 . S
C585 H577 0.930 . S
C585 C583 1.419 . S
C585 C586 1.362 . S
C586 H578 0.930 . S
C586 C585 1.362 . S
C586 C589 1.409 . S
C587 H579 0.930 . S
C587 C588 1.355 . S
C587 C589 1.415 . S
C588 C587 1.355 . S
C588 C590 1.419 . S
C589 C584 1.425 . S
C589 C586 1.409 . S
C589 C587 1.415 . S
C590 H580 0.930 1_565 S
C590 C588 1.419 . S
C590 C591 1.362 . S
C591 H581 0.930 . S
C591 C584 1.409 . S
C591 C590 1.362 . S
H592 C598 0.930 . S
H593 C601 0.930 . S
H594 C602 0.930 . S
H595 C603 0.930 . S
H596 C606 0.930 . S
H597 C607 0.930 . S
C598 H592 0.930 . S
C598 C599 1.355 . S
C598 C600 1.415 . S
C599 C598 1.355 . S
C599 C601 1.419 . S
C600 C598 1.415 . S
C600 C605 1.425 . S
C600 C607 1.409 . S
C601 H593 0.930 . S
C601 C599 1.419 . S
C601 C602 1.362 . S
C602 H594 0.930 . S
C602 C601 1.362 . S
C602 C605 1.409 . S
C603 H595 0.930 . S
C603 C604 1.355 . S
C603 C605 1.415 . S
C604 C603 1.355 . S
C604 C606 1.419 . S
C605 C600 1.425 . S
C605 C602 1.409 . S
C605 C603 1.415 . S
C606 H596 0.930 . S
C606 C604 1.419 . S
C606 C607 1.362 . S
C607 H597 0.930 . S
C607 C600 1.409 . S
C607 C606 1.362 . S
H608 C614 0.930 . S
H609 C617 0.930 . S
H610 C618 0.930 . S
H611 C619 0.930 . S
H612 C622 0.930 . S
H613 C623 0.930 . S
C614 H608 0.930 . S
C614 C615 1.355 . S
C614 C616 1.415 . S
C615 C614 1.355 . S
C615 C617 1.419 . S
C616 C614 1.415 . S
C616 C621 1.425 . S
C616 C623 1.409 . S
C617 H609 0.930 . S
C617 C615 1.419 . S
C617 C618 1.362 . S
C618 H610 0.930 . S
C618 C617 1.362 . S
C618 C621 1.409 . S
C619 H611 0.930 . S
C619 C620 1.355 . S
C619 C621 1.415 . S
C620 C619 1.355 . S
C620 C622 1.419 . S
C621 C616 1.425 . S
C621 C618 1.409 . S
C621 C619 1.415 . S
C622 H612 0.930 . S
C622 C620 1.419 . S
C622 C623 1.362 . S
C623 H613 0.930 . S
C623 C616 1.409 . S
C623 C622 1.362 . S
H624 C630 0.930 . S
H625 C633 0.930 . S
H626 C634 0.930 . S
H627 C635 0.930 . S
H628 C638 0.930 . S
H629 C639 0.930 . S
C630 H624 0.930 . S
C630 C631 1.355 . S
C630 C632 1.415 . S
C631 C630 1.355 . S
C631 C633 1.419 . S
C632 C630 1.415 . S
C632 C637 1.425 . S
C632 C639 1.409 . S
C633 H625 0.930 . S
C633 C631 1.419 . S
C633 C634 1.362 . S
C634 H626 0.930 . S
C634 C633 1.362 . S
C634 C637 1.409 . S
C635 H627 0.930 . S
C635 C636 1.355 . S
C635 C637 1.415 . S
C636 C635 1.355 . S
C636 C638 1.419 . S
C637 C632 1.425 . S
C637 C634 1.409 . S
C637 C635 1.415 . S
C638 H628 0.930 . S
C638 C636 1.419 . S
C638 C639 1.362 . S
C639 H629 0.930 . S
C639 C632 1.409 . S
C639 C638 1.362 . S
H640 C646 0.930 . S
H641 C649 0.930 . S
H642 C650 0.930 . S
H643 C651 0.930 . S
H644 C654 0.930 . S
H645 C655 0.930 . S
C646 H640 0.930 . S
C646 C647 1.355 . S
C646 C648 1.415 . S
C647 C646 1.355 . S
C647 C649 1.419 . S
C648 C646 1.415 . S
C648 C653 1.425 . S
C648 C655 1.409 . S
C649 H641 0.930 . S
C649 C647 1.419 . S
C649 C650 1.362 . S
C650 H642 0.930 . S
C650 C649 1.362 . S
C650 C653 1.409 . S
C651 H643 0.930 . S
C651 C652 1.355 . S
C651 C653 1.415 . S
C652 C651 1.355 . S
C652 C654 1.419 . S
C653 C648 1.425 . S
C653 C650 1.409 . S
C653 C651 1.415 . S
C654 H644 0.930 . S
C654 C652 1.419 . S
C654 C655 1.362 . S
C655 H645 0.930 . S
C655 C648 1.409 . S
C655 C654 1.362 . S
H656 C662 0.930 . S
H657 C665 0.930 . S
H658 C666 0.930 . S
H659 C667 0.930 . S
H660 C670 0.930 . S
H661 C671 0.930 . S
C662 H656 0.930 . S
C662 C663 1.355 . S
C662 C664 1.415 . S
C663 C662 1.355 . S
C663 C665 1.419 . S
C664 C662 1.415 . S
C664 C669 1.425 . S
C664 C671 1.409 . S
C665 H657 0.930 . S
C665 C663 1.419 . S
C665 C666 1.362 . S
C666 H658 0.930 . S
C666 C665 1.362 . S
C666 C669 1.409 . S
C667 H659 0.930 . S
C667 C668 1.355 . S
C667 C669 1.415 . S
C668 C667 1.355 . S
C668 C670 1.419 . S
C669 C664 1.425 . S
C669 C666 1.409 . S
C669 C667 1.415 . S
C670 H660 0.930 . S
C670 C668 1.419 . S
C670 C671 1.362 . S
C671 H661 0.930 . S
C671 C664 1.409 . S
C671 C670 1.362 . S
H672 C678 0.930 . S
H673 C681 0.930 . S
H674 C682 0.930 . S
H675 C683 0.930 . S
H676 C686 0.930 . S
H677 C687 0.930 . S
C678 H672 0.930 . S
C678 C679 1.355 1_556 S
C678 C680 1.415 . S
C679 C678 1.355 1_554 S
C679 C681 1.419 . S
C680 C678 1.415 . S
C680 C685 1.425 . S
C680 C687 1.409 . S
C681 H673 0.930 . S
C681 C679 1.419 . S
C681 C682 1.362 . S
C682 H674 0.930 . S
C682 C681 1.362 . S
C682 C685 1.409 1_554 S
C683 H675 0.930 . S
C683 C684 1.355 . S
C683 C685 1.415 . S
C684 C683 1.355 . S
C684 C686 1.419 . S
C685 C680 1.425 . S
C685 C682 1.409 1_556 S
C685 C683 1.415 . S
C686 H676 0.930 . S
C686 C684 1.419 . S
C686 C687 1.362 . S
C687 H677 0.930 . S
C687 C680 1.409 . S
C687 C686 1.362 . S
H688 C694 0.930 . S
H689 C697 0.930 . S
H690 C698 0.930 . S
H691 C699 0.930 . S
H692 C702 0.930 . S
H693 C703 0.930 . S
C694 H688 0.930 . S
C694 C695 1.355 . S
C694 C696 1.415 . S
C695 C694 1.355 . S
C695 C697 1.419 . S
C696 C694 1.415 . S
C696 C701 1.425 . S
C696 C703 1.409 . S
C697 H689 0.930 . S
C697 C695 1.419 . S
C697 C698 1.362 . S
C698 H690 0.930 . S
C698 C697 1.362 . S
C698 C701 1.409 . S
C699 H691 0.930 . S
C699 C700 1.355 . S
C699 C701 1.415 . S
C700 C699 1.355 . S
C700 C702 1.419 . S
C701 C696 1.425 . S
C701 C698 1.409 . S
C701 C699 1.415 . S
C702 H692 0.930 . S
C702 C700 1.419 . S
C702 C703 1.362 . S
C703 H693 0.930 . S
C703 C696 1.409 . S
C703 C702 1.362 . S
H704 C710 0.930 . S
H705 C713 0.930 . S
H706 C714 0.930 . S
H707 C715 0.930 . S
H708 C718 0.930 . S
H709 C719 0.930 . S
C710 H704 0.930 . S
C710 C711 1.355 . S
C710 C712 1.415 . S
C711 C710 1.355 . S
C711 C713 1.419 . S
C712 C710 1.415 . S
C712 C717 1.425 . S
C712 C719 1.409 . S
C713 H705 0.930 . S
C713 C711 1.419 . S
C713 C714 1.362 . S
C714 H706 0.930 . S
C714 C713 1.362 . S
C714 C717 1.409 . S
C715 H707 0.930 . S
C715 C716 1.355 . S
C715 C717 1.415 . S
C716 C715 1.355 . S
C716 C718 1.419 . S
C717 C712 1.425 . S
C717 C714 1.409 . S
C717 C715 1.415 . S
C718 H708 0.930 . S
C718 C716 1.419 . S
C718 C719 1.362 . S
C719 H709 0.930 . S
C719 C712 1.409 . S
C719 C718 1.362 . S
H720 C726 0.930 . S
H721 C729 0.930 . S
H722 C730 0.930 . S
H723 C731 0.930 . S
H724 C734 0.926 . S
H725 C735 0.930 . S
C726 H720 0.930 . S
C726 C727 1.355 . S
C726 C728 1.415 . S
C727 C726 1.355 . S
C727 C729 1.419 . S
C728 C726 1.415 . S
C728 C733 1.425 . S
C728 C735 1.409 . S
C729 H721 0.930 . S
C729 C727 1.419 . S
C729 C730 1.362 . S
C730 H722 0.930 . S
C730 C729 1.362 . S
C730 C733 1.409 . S
C731 H723 0.930 . S
C731 C732 1.355 . S
C731 C733 1.415 . S
C732 C731 1.355 . S
C732 C734 1.419 . S
C733 C728 1.425 . S
C733 C730 1.409 . S
C733 C731 1.415 . S
C734 H724 0.926 . S
C734 C732 1.419 . S
C734 C735 1.362 . S
C735 H725 0.930 . S
C735 C728 1.409 . S
C735 C734 1.362 . S
H736 C742 0.930 . S
H737 C745 0.930 . S
H738 C746 0.930 . S
H739 C747 0.930 . S
H740 C750 0.930 . S
H741 C751 0.930 . S
C742 H736 0.930 . S
C742 C743 1.355 . S
C742 C744 1.415 . S
C743 C742 1.355 . S
C743 C745 1.419 . S
C744 C742 1.415 . S
C744 C749 1.425 . S
C744 C751 1.409 . S
C745 H737 0.930 . S
C745 C743 1.419 . S
C745 C746 1.362 . S
C746 H738 0.930 . S
C746 C745 1.362 . S
C746 C749 1.409 . S
C747 H739 0.930 . S
C747 C748 1.355 . S
C747 C749 1.415 . S
C748 C747 1.355 . S
C748 C750 1.419 . S
C749 C744 1.425 . S
C749 C746 1.409 . S
C749 C747 1.415 . S
C750 H740 0.930 . S
C750 C748 1.419 . S
C750 C751 1.362 . S
C751 H741 0.930 . S
C751 C744 1.409 . S
C751 C750 1.362 . S
H752 C758 0.930 . S
H753 C761 0.930 . S
H754 C762 0.930 . S
H755 C763 0.930 . S
H756 C766 0.930 . S
H757 C767 0.930 . S
C758 H752 0.930 . S
C758 C759 1.355 . S
C758 C760 1.415 . S
C759 C758 1.355 . S
C759 C761 1.419 . S
C760 C758 1.415 . S
C760 C765 1.425 . S
C760 C767 1.409 . S
C761 H753 0.930 . S
C761 C759 1.419 . S
C761 C762 1.362 . S
C762 H754 0.930 . S
C762 C761 1.362 . S
C762 C765 1.409 . S
C763 H755 0.930 . S
C763 C764 1.355 . S
C763 C765 1.415 . S
C764 C763 1.355 . S
C764 C766 1.419 . S
C765 C760 1.425 . S
C765 C762 1.409 . S
C765 C763 1.415 . S
C766 H756 0.930 . S
C766 C764 1.419 . S
C766 C767 1.362 . S
C767 H757 0.930 . S
C767 C760 1.409 . S
C767 C766 1.362 . S
H768 C774 0.930 . S
H769 C777 0.930 . S
H770 C778 0.930 . S
H771 C779 0.930 . S
H772 C782 0.930 . S
H773 C783 0.930 . S
C774 H768 0.930 . S
C774 C775 1.355 . S
C774 C776 1.415 . S
C775 C774 1.355 . S
C775 C777 1.419 . S
C776 C774 1.415 . S
C776 C781 1.425 . S
C776 C783 1.409 . S
C777 H769 0.930 . S
C777 C775 1.419 . S
C777 C778 1.362 . S
C778 H770 0.930 . S
C778 C777 1.362 . S
C778 C781 1.409 . S
C779 H771 0.930 . S
C779 C780 1.355 . S
C779 C781 1.415 . S
C780 C779 1.355 . S
C780 C782 1.419 . S
C781 C776 1.425 . S
C781 C778 1.409 . S
C781 C779 1.415 . S
C782 H772 0.930 . S
C782 C780 1.419 . S
C782 C783 1.362 . S
C783 H773 0.930 . S
C783 C776 1.409 . S
C783 C782 1.362 . S
H784 C790 0.930 . S
H785 C793 0.930 . S
H786 C794 0.930 . S
H787 C795 0.930 . S
H788 C798 0.930 . S
H789 C799 0.930 . S
C790 H784 0.930 . S
C790 C791 1.355 . S
C790 C792 1.415 . S
C791 C790 1.355 . S
C791 C793 1.419 . S
C792 C790 1.415 . S
C792 C797 1.425 . S
C792 C799 1.409 . S
C793 H785 0.930 . S
C793 C791 1.419 . S
C793 C794 1.362 . S
C794 H786 0.930 . S
C794 C793 1.362 . S
C794 C797 1.409 . S
C795 H787 0.930 . S
C795 C796 1.355 . S
C795 C797 1.415 . S
C796 C795 1.355 . S
C796 C798 1.419 . S
C797 C792 1.425 . S
C797 C794 1.409 . S
C797 C795 1.415 . S
C798 H788 0.930 . S
C798 C796 1.419 . S
C798 C799 1.362 . S
C799 H789 0.930 . S
C799 C792 1.409 . S
C799 C798 1.362 . S
H800 C806 0.930 . S
H801 C809 0.930 . S
H802 C810 0.930 . S
H803 C811 0.930 . S
H804 C814 0.930 . S
H805 C815 0.930 . S
C806 H800 0.930 . S
C806 C807 1.355 . S
C806 C808 1.415 . S
C807 C806 1.355 . S
C807 C809 1.419 . S
C808 C806 1.415 . S
C808 C813 1.425 . S
C808 C815 1.409 . S
C809 H801 0.930 . S
C809 C807 1.419 . S
C809 C810 1.362 . S
C810 H802 0.930 . S
C810 C809 1.362 . S
C810 C813 1.409 . S
C811 H803 0.930 . S
C811 C812 1.355 . S
C811 C813 1.415 . S
C812 C811 1.355 . S
C812 C814 1.419 . S
C813 C808 1.425 . S
C813 C810 1.409 . S
C813 C811 1.415 . S
C814 H804 0.930 . S
C814 C812 1.419 . S
C814 C815 1.362 . S
C815 H805 0.930 . S
C815 C808 1.409 . S
C815 C814 1.362 . S
H816 C822 0.930 . S
H817 C825 0.930 . S
H818 C826 0.930 . S
H819 C827 0.930 . S
H820 C830 0.930 . S
H821 C831 0.930 . S
C822 H816 0.930 . S
C822 C823 1.355 . S
C822 C824 1.415 . S
C823 C822 1.355 . S
C823 C825 1.419 . S
C824 C822 1.415 . S
C824 C829 1.425 . S
C824 C831 1.409 . S
C825 H817 0.930 . S
C825 C823 1.419 . S
C825 C826 1.362 . S
C826 H818 0.930 . S
C826 C825 1.362 . S
C826 C829 1.409 . S
C827 H819 0.930 . S
C827 C828 1.355 . S
C827 C829 1.415 . S
C828 C827 1.355 . S
C828 C830 1.419 . S
C829 C824 1.425 . S
C829 C826 1.409 . S
C829 C827 1.415 . S
C830 H820 0.930 . S
C830 C828 1.419 . S
C830 C831 1.362 . S
C831 H821 0.930 . S
C831 C824 1.409 . S
C831 C830 1.362 . S
H832 C838 0.930 1_554 S
H833 C841 0.930 . S
H834 C842 0.930 . S
H835 C843 0.930 . S
H836 C846 0.930 . S
H837 C847 0.930 . S
C838 H832 0.930 1_556 S
C838 C839 1.355 . S
C838 C840 1.415 1_556 S
C839 C838 1.355 . S
C839 C841 1.419 . S
C840 C838 1.415 1_554 S
C840 C845 1.425 1_554 S
C840 C847 1.409 . S
C841 H833 0.930 . S
C841 C839 1.419 . S
C841 C842 1.362 . S
C842 H834 0.930 . S
C842 C841 1.362 . S
C842 C845 1.409 . S
C843 H835 0.930 . S
C843 C844 1.355 1_556 S
C843 C845 1.415 . S
C844 C843 1.355 1_554 S
C844 C846 1.419 . S
C845 C840 1.425 1_556 S
C845 C842 1.409 . S
C845 C843 1.415 . S
C846 H836 0.930 . S
C846 C844 1.419 . S
C846 C847 1.362 . S
C847 H837 0.930 . S
C847 C840 1.409 . S
C847 C846 1.362 . S
H848 C854 0.930 . S
H849 C857 0.930 . S
H850 C858 0.930 . S
H851 C859 0.930 . S
H852 C862 0.930 . S
H853 C863 0.930 . S
C854 H848 0.930 . S
C854 C855 1.355 . S
C854 C856 1.415 . S
C855 C854 1.355 . S
C855 C857 1.419 . S
C856 C854 1.415 . S
C856 C861 1.425 . S
C856 C863 1.409 . S
C857 H849 0.930 . S
C857 C855 1.419 . S
C857 C858 1.362 . S
C858 H850 0.930 . S
C858 C857 1.362 . S
C858 C861 1.409 . S
C859 H851 0.930 . S
C859 C860 1.355 . S
C859 C861 1.415 . S
C860 C859 1.355 . S
C860 C862 1.419 . S
C861 C856 1.425 . S
C861 C858 1.409 . S
C861 C859 1.415 . S
C862 H852 0.930 . S
C862 C860 1.419 . S
C862 C863 1.362 . S
C863 H853 0.930 . S
C863 C856 1.409 . S
C863 C862 1.362 . S
H864 C870 0.930 . S
H865 C873 0.930 . S
H866 C874 0.930 . S
H867 C875 0.930 . S
H868 C878 0.930 . S
H869 C879 0.930 . S
C870 H864 0.930 . S
C870 C871 1.355 . S
C870 C872 1.415 . S
C871 C870 1.355 . S
C871 C873 1.419 . S
C872 C870 1.415 . S
C872 C877 1.425 . S
C872 C879 1.409 . S
C873 H865 0.930 . S
C873 C871 1.419 . S
C873 C874 1.362 . S
C874 H866 0.930 . S
C874 C873 1.362 . S
C874 C877 1.409 . S
C875 H867 0.930 . S
C875 C876 1.355 . S
C875 C877 1.415 . S
C876 C875 1.355 . S
C876 C878 1.419 . S
C877 C872 1.425 . S
C877 C874 1.409 . S
C877 C875 1.415 . S
C878 H868 0.930 . S
C878 C876 1.419 . S
C878 C879 1.362 . S
C879 H869 0.930 . S
C879 C872 1.409 . S
C879 C878 1.362 . S
H880 C886 0.930 . S
H881 C889 0.930 . S
H882 C890 0.930 . S
H883 C891 0.930 . S
H884 C894 0.930 . S
H885 C895 0.930 . S
C886 H880 0.930 . S
C886 C887 1.355 . S
C886 C888 1.415 . S
C887 C886 1.355 . S
C887 C889 1.419 . S
C888 C886 1.415 . S
C888 C893 1.425 . S
C888 C895 1.409 . S
C889 H881 0.930 . S
C889 C887 1.419 . S
C889 C890 1.362 . S
C890 H882 0.930 . S
C890 C889 1.362 . S
C890 C893 1.409 . S
C891 H883 0.930 . S
C891 C892 1.355 . S
C891 C893 1.415 . S
C892 C891 1.355 . S
C892 C894 1.419 . S
C893 C888 1.425 . S
C893 C890 1.409 . S
C893 C891 1.415 . S
C894 H884 0.930 . S
C894 C892 1.419 . S
C894 C895 1.362 . S
C895 H885 0.930 . S
C895 C888 1.409 . S
C895 C894 1.362 . S
H896 C902 0.930 . S
H897 C905 0.930 . S
H898 C906 0.930 . S
H899 C907 0.930 . S
H900 C910 0.930 . S
H901 C911 0.930 . S
C902 H896 0.930 . S
C902 C903 1.355 1_655 S
C902 C904 1.415 . S
C903 C902 1.355 1_455 S
C903 C905 1.419 . S
C904 C902 1.415 . S
C904 C909 1.425 1_655 S
C904 C911 1.409 . S
C905 H897 0.930 . S
C905 C903 1.419 . S
C905 C906 1.362 . S
C906 H898 0.930 . S
C906 C905 1.362 . S
C906 C909 1.409 . S
C907 H899 0.930 . S
C907 C908 1.355 1_455 S
C907 C909 1.415 1_556 S
C908 C907 1.355 1_655 S
C908 C910 1.419 . S
C909 C904 1.425 1_455 S
C909 C906 1.409 . S
C909 C907 1.415 1_554 S
C910 H900 0.930 . S
C910 C908 1.419 . S
C910 C911 1.362 1_556 S
C911 H901 0.930 . S
C911 C904 1.409 . S
C911 C910 1.362 1_554 S
H912 C918 0.930 . S
H913 C921 0.930 . S
H914 C922 0.930 . S
H915 C923 0.930 . S
H916 C926 0.930 . S
H917 C927 0.930 . S
C918 H912 0.930 . S
C918 C919 1.355 . S
C918 C920 1.415 . S
C919 C918 1.355 . S
C919 C921 1.419 . S
C920 C918 1.415 . S
C920 C925 1.425 . S
C920 C927 1.409 . S
C921 H913 0.930 . S
C921 C919 1.419 . S
C921 C922 1.362 . S
C922 H914 0.930 . S
C922 C921 1.362 . S
C922 C925 1.409 . S
C923 H915 0.930 . S
C923 C924 1.355 . S
C923 C925 1.415 . S
C924 C923 1.355 . S
C924 C926 1.419 . S
C925 C920 1.425 . S
C925 C922 1.409 . S
C925 C923 1.415 . S
C926 H916 0.930 . S
C926 C924 1.419 . S
C926 C927 1.362 . S
C927 H917 0.930 . S
C927 C920 1.409 . S
C927 C926 1.362 . S
H928 C934 0.930 . S
H929 C937 0.930 . S
H930 C938 0.930 . S
H931 C939 0.930 . S
H932 C942 0.930 . S
H933 C943 0.930 . S
C934 H928 0.930 . S
C934 C935 1.355 . S
C934 C936 1.415 . S
C935 C934 1.355 . S
C935 C937 1.419 . S
C936 C934 1.415 . S
C936 C941 1.425 . S
C936 C943 1.409 . S
C937 H929 0.930 . S
C937 C935 1.419 . S
C937 C938 1.362 . S
C938 H930 0.930 . S
C938 C937 1.362 . S
C938 C941 1.409 . S
C939 H931 0.930 . S
C939 C940 1.355 . S
C939 C941 1.415 . S
C940 C939 1.355 . S
C940 C942 1.419 . S
C941 C936 1.425 . S
C941 C938 1.409 . S
C941 C939 1.415 . S
C942 H932 0.930 . S
C942 C940 1.419 . S
C942 C943 1.362 . S
C943 H933 0.930 . S
C943 C936 1.409 . S
C943 C942 1.362 . S
H944 C950 0.930 . S
H945 C953 0.930 . S
H946 C954 0.930 . S
H947 C955 0.930 . S
H948 C958 0.930 . S
H949 C959 0.930 . S
C950 H944 0.930 . S
C950 C951 1.355 1_655 S
C950 C952 1.412 1_546 S
C951 C950 1.355 1_455 S
C951 C953 1.419 . S
C952 C950 1.412 1_564 S
C952 C957 1.425 1_665 S
C952 C959 1.412 . S
C953 H945 0.930 . S
C953 C951 1.419 . S
C953 C954 1.362 1_556 S
C954 H946 0.930 . S
C954 C953 1.362 1_554 S
C954 C957 1.412 . S
C955 H947 0.930 . S
C955 C956 1.355 1_455 S
C955 C957 1.412 1_565 S
C956 C955 1.355 1_655 S
C956 C958 1.419 . S
C957 C952 1.425 1_445 S
C957 C954 1.412 . S
C957 C955 1.412 1_545 S
C958 H948 0.930 . S
C958 C956 1.419 . S
C958 C959 1.362 . S
C959 H949 0.930 . S
C959 C952 1.412 . S
C959 C958 1.362 . S
H960 C966 0.930 . S
H961 C969 0.930 . S
H962 C970 0.930 . S
H963 C971 0.930 . S
H964 C974 0.930 . S
H965 C975 0.930 . S
C966 H960 0.930 . S
C966 C967 1.355 1_565 S
C966 C968 1.415 . S
C967 C966 1.355 1_545 S
C967 C969 1.419 . S
C968 C966 1.415 . S
C968 C973 1.425 1_565 S
C968 C975 1.409 . S
C969 H961 0.930 . S
C969 C967 1.419 . S
C969 C970 1.362 . S
C970 H962 0.930 . S
C970 C969 1.362 . S
C970 C973 1.409 . S
C971 H963 0.930 . S
C971 C972 1.355 1_545 S
C971 C973 1.415 . S
C972 C971 1.355 1_565 S
C972 C974 1.419 . S
C973 C968 1.425 1_545 S
C973 C970 1.409 . S
C973 C971 1.415 . S
C974 H964 0.930 . S
C974 C972 1.419 . S
C974 C975 1.362 . S
C975 H965 0.930 . S
C975 C968 1.409 . S
C975 C974 1.362 . S
H976 C982 0.930 . S
H977 C985 0.930 . S
H978 C986 0.930 . S
H979 C987 0.930 . S
H980 C990 0.930 . S
H981 C991 0.930 . S
C982 H976 0.930 . S
C982 C983 1.355 . S
C982 C984 1.415 . S
C983 C982 1.355 . S
C983 C985 1.419 . S
C984 C982 1.415 . S
C984 C989 1.425 . S
C984 C991 1.409 . S
C985 H977 0.930 . S
C985 C983 1.419 . S
C985 C986 1.362 . S
C986 H978 0.930 . S
C986 C985 1.362 . S
C986 C989 1.409 . S
C987 H979 0.930 . S
C987 C988 1.355 . S
C987 C989 1.415 . S
C988 C987 1.355 . S
C988 C990 1.419 . S
C989 C984 1.425 . S
C989 C986 1.409 . S
C989 C987 1.415 . S
C990 H980 0.930 . S
C990 C988 1.419 . S
C990 C991 1.362 . S
C991 H981 0.930 . S
C991 C984 1.409 . S
C991 C990 1.362 . S
H992 C998 0.930 . S
H993 C1001 0.930 . S
H994 C1002 0.930 . S
H995 C1003 0.930 . S
H996 C1006 0.930 . S
H997 C1007 0.930 1_556 S
C998 H992 0.930 . S
C998 C999 1.355 . S
C998 C1000 1.415 1_556 S
C999 C998 1.355 . S
C999 C1001 1.419 1_556 S
C1000 C998 1.415 1_554 S
C1000 C1005 1.425 . S
C1000 C1007 1.409 . S
C1001 H993 0.930 . S
C1001 C999 1.419 1_554 S
C1001 C1002 1.362 . S
C1002 H994 0.930 . S
C1002 C1001 1.362 . S
C1002 C1005 1.409 . S
C1003 H995 0.930 . S
C1003 C1004 1.355 . S
C1003 C1005 1.415 . S
C1004 C1003 1.355 . S
C1004 C1006 1.419 . S
C1005 C1000 1.425 . S
C1005 C1002 1.409 . S
C1005 C1003 1.415 . S
C1006 H996 0.930 . S
C1006 C1004 1.419 . S
C1006 C1007 1.362 . S
C1007 H997 0.930 1_554 S
C1007 C1000 1.409 . S
C1007 C1006 1.362 . S
H1008 C1014 0.930 . S
H1009 C1017 0.930 . S
H1010 C1018 0.930 . S
H1011 C1019 0.930 . S
H1012 C1022 0.930 . S
H1013 C1023 0.930 . S
C1014 H1008 0.930 . S
C1014 C1015 1.355 . S
C1014 C1016 1.415 . S
C1015 C1014 1.355 . S
C1015 C1017 1.419 . S
C1016 C1014 1.415 . S
C1016 C1021 1.425 . S
C1016 C1023 1.409 . S
C1017 H1009 0.930 . S
C1017 C1015 1.419 . S
C1017 C1018 1.362 . S
C1018 H1010 0.930 . S
C1018 C1017 1.362 . S
C1018 C1021 1.409 . S
C1019 H1011 0.930 . S
C1019 C1020 1.355 . S
C1019 C1021 1.415 . S
C1020 C1019 1.355 . S
C1020 C1022 1.419 . S
C1021 C1016 1.425 . S
C1021 C1018 1.409 . S
C1021 C1019 1.415 . S
C1022 H1012 0.930 . S
C1022 C1020 1.419 . S
C1022 C1023 1.362 . S
C1023 H1013 0.930 . S
C1023 C1016 1.409 . S
C1023 C1022 1.362 . S
H1024 C1030 0.930 . S
H1025 C1033 0.930 . S
H1026 C1034 0.939 . S
H1027 C1035 0.930 . S
H1028 C1038 0.930 . S
H1029 C1039 0.939 . S
C1030 H1024 0.930 . S
C1030 C1031 1.355 . S
C1030 C1032 1.415 . S
C1031 C1030 1.355 . S
C1031 C1033 1.419 . S
C1032 C1030 1.415 . S
C1032 C1037 1.425 1_455 S
C1032 C1039 1.409 1_455 S
C1033 H1025 0.930 . S
C1033 C1031 1.419 . S
C1033 C1034 1.362 . S
C1034 H1026 0.939 . S
C1034 C1033 1.362 . S
C1034 C1037 1.409 1_455 S
C1035 H1027 0.930 . S
C1035 C1036 1.355 . S
C1035 C1037 1.415 . S
C1036 C1035 1.355 . S
C1036 C1038 1.419 . S
C1037 C1032 1.425 1_655 S
C1037 C1034 1.409 1_655 S
C1037 C1035 1.415 . S
C1038 H1028 0.930 . S
C1038 C1036 1.419 . S
C1038 C1039 1.362 . S
C1039 H1029 0.939 . S
C1039 C1032 1.409 1_655 S
C1039 C1038 1.362 . S
H1040 C1046 0.930 . S
H1041 C1049 0.930 . S
H1042 C1050 0.930 . S
H1043 C1051 0.930 . S
H1044 C1054 0.930 . S
H1045 C1055 0.930 . S
C1046 H1040 0.930 . S
C1046 C1047 1.355 . S
C1046 C1048 1.415 . S
C1047 C1046 1.355 . S
C1047 C1049 1.419 . S
C1048 C1046 1.415 . S
C1048 C1053 1.425 . S
C1048 C1055 1.409 . S
C1049 H1041 0.930 . S
C1049 C1047 1.419 . S
C1049 C1050 1.362 . S
C1050 H1042 0.930 . S
C1050 C1049 1.362 . S
C1050 C1053 1.409 . S
C1051 H1043 0.930 . S
C1051 C1052 1.355 . S
C1051 C1053 1.415 . S
C1052 C1051 1.355 . S
C1052 C1054 1.419 . S
C1053 C1048 1.425 . S
C1053 C1050 1.409 . S
C1053 C1051 1.415 . S
C1054 H1044 0.930 . S
C1054 C1052 1.419 . S
C1054 C1055 1.362 . S
C1055 H1045 0.930 . S
C1055 C1048 1.409 . S
C1055 C1054 1.362 . S
H1056 C1062 0.930 . S
H1057 C1065 0.930 . S
H1058 C1066 0.930 . S
H1059 C1067 0.930 . S
H1060 C1070 0.930 . S
H1061 C1071 0.930 . S
C1062 H1056 0.930 . S
C1062 C1063 1.355 . S
C1062 C1064 1.415 . S
C1063 C1062 1.355 . S
C1063 C1065 1.419 . S
C1064 C1062 1.415 . S
C1064 C1069 1.425 . S
C1064 C1071 1.409 . S
C1065 H1057 0.930 . S
C1065 C1063 1.419 . S
C1065 C1066 1.362 . S
C1066 H1058 0.930 . S
C1066 C1065 1.362 . S
C1066 C1069 1.409 . S
C1067 H1059 0.930 . S
C1067 C1068 1.355 . S
C1067 C1069 1.415 . S
C1068 C1067 1.355 . S
C1068 C1070 1.419 . S
C1069 C1064 1.425 . S
C1069 C1066 1.409 . S
C1069 C1067 1.415 . S
C1070 H1060 0.930 . S
C1070 C1068 1.419 . S
C1070 C1071 1.362 . S
C1071 H1061 0.930 . S
C1071 C1064 1.409 . S
C1071 C1070 1.362 . S
H1072 C1078 0.946 . S
H1073 C1081 0.929 1_455 S
H1074 C1082 0.930 . S
H1075 C1083 0.946 . S
H1076 C1086 0.929 1_655 S
H1077 C1087 0.930 . S
C1078 H1072 0.946 . S
C1078 C1079 1.331 1_545 S
C1078 C1080 1.422 . S
C1079 C1078 1.331 1_565 S
C1079 C1081 1.419 . S
C1080 C1078 1.422 . S
C1080 C1085 1.425 1_645 S
C1080 C1087 1.409 . S
C1081 H1073 0.929 1_655 S
C1081 C1079 1.419 . S
C1081 C1082 1.362 1_655 S
C1082 H1074 0.930 . S
C1082 C1081 1.362 1_455 S
C1082 C1085 1.409 . S
C1083 H1075 0.946 . S
C1083 C1084 1.332 1_565 S
C1083 C1085 1.422 . S
C1084 C1083 1.332 1_545 S
C1084 C1086 1.419 . S
C1085 C1080 1.425 1_465 S
C1085 C1082 1.409 . S
C1085 C1083 1.422 . S
C1086 H1076 0.929 1_455 S
C1086 C1084 1.419 . S
C1086 C1087 1.362 1_455 S
C1087 H1077 0.930 . S
C1087 C1080 1.409 . S
C1087 C1086 1.362 1_655 S
H1088 C1094 0.930 . S
H1089 C1097 0.930 . S
H1090 C1098 0.930 . S
H1091 C1099 0.930 . S
H1092 C1102 0.930 . S
H1093 C1103 0.930 . S
C1094 H1088 0.930 . S
C1094 C1095 1.355 1_554 S
C1094 C1096 1.415 1_545 S
C1095 C1094 1.355 1_556 S
C1095 C1097 1.419 . S
C1096 C1094 1.415 1_565 S
C1096 C1101 1.425 1_565 S
C1096 C1103 1.409 . S
C1097 H1089 0.930 . S
C1097 C1095 1.419 . S
C1097 C1098 1.362 . S
C1098 H1090 0.930 . S
C1098 C1097 1.362 . S
C1098 C1101 1.409 1_556 S
C1099 H1091 0.930 . S
C1099 C1100 1.355 . S
C1099 C1101 1.415 1_565 S
C1100 C1099 1.355 . S
C1100 C1102 1.419 . S
C1101 C1096 1.425 1_545 S
C1101 C1098 1.409 1_554 S
C1101 C1099 1.415 1_545 S
C1102 H1092 0.930 . S
C1102 C1100 1.419 . S
C1102 C1103 1.362 . S
C1103 H1093 0.930 . S
C1103 C1096 1.409 . S
C1103 C1102 1.362 . S
C343 C19 1.491 1_556 S
C348 C205 1.497 . S
C359 C226 1.477 . S
C364 C40 1.515 . S
C375 C234 1.467 . S
C380 C61 1.522 . S
C391 C184 1.499 . S
C396 C82 1.467 . S
C407 C103 1.493 . S
C412 C289 1.411 . S
C423 C124 1.489 . S
C428 C310 1.498 . S
C439 C318 1.489 . S
C444 C145 1.503 . S
C455 C268 1.446 . S
C460 C167 1.531 . S
C471 C37 1.488 . S
C476 C187 1.504 . S
C487 C58 1.405 . S
C492 C208 1.520 . S
C503 C79 1.482 . S
C508 C229 1.457 1_556 S
C519 C251 1.466 . S
C524 C16 1.498 . S
C535 C121 1.498 . S
C540 C271 1.467 . S
C551 C142 1.440 . S
C556 C292 1.532 . S
C567 C150 1.404 . S
C572 C313 1.511 . S
C583 C100 1.483 . S
C588 C335 1.510 . S
C599 C4 1.475 . S
C604 C331 1.200 . S
C615 C25 1.468 . S
C620 C87 1.328 . S
C631 C276 1.250 1_455 S
C636 C46 1.440 . S
C647 C129 1.289 . S
C652 C67 1.447 . S
C663 C88 1.512 . S
C668 C247 1.355 . S
C679 C3 1.303 . S
C684 C109 1.542 . S
C695 C130 1.459 . S
C700 C192 1.204 1_655 S
C711 C154 1.448 . S
C716 C45 1.290 . S
C727 C172 1.458 . S
C732 C163 1.204 1_655 S
C743 C255 1.262 . S
C748 C193 1.532 . S
C759 C214 1.441 . S
C764 C108 1.236 . S
C775 C297 1.333 . S
C780 C238 1.539 . S
C791 C256 1.476 . S
C796 C66 1.200 1_455 S
C807 C171 1.322 . S
C812 C277 1.541 . S
C823 C298 1.476 . S
C828 C24 1.200 . S
C839 C322 1.486 . S
C844 C213 1.346 . S
C855 C7 1.352 . S
C860 C259 1.352 . S
C871 C112 1.354 . S
C876 C28 1.354 . S
C887 C49 1.307 . S
C892 C301 1.307 . S
C903 C151 1.304 . S
C908 C70 1.304 . S
C919 C91 1.304 . S
C924 C175 1.304 . S
C935 C217 1.316 . S
C940 C133 1.316 . S
C951 C196 1.320 . S
C956 C280 1.320 . S
C967 C319 1.406 . S
C972 C235 1.406 . S
C983 C272 0.751 . S
C988 C20 0.751 . S
C999 C125 0.635 . S
C1004 C41 0.635 . S
C1015 C62 0.562 . S
C1020 C314 0.562 . S
C1031 C166 0.522 . S
C1036 C83 0.522 . S
C1047 C104 0.697 . S
C1052 C188 0.697 . S
C1063 C146 0.768 . S
C1068 C230 0.768 . S
C1079 C293 0.554 . S
C1084 C209 0.554 . S
C1095 C334 0.627 . S
C1100 C250 0.627 . S
