# Generated by pormake.
# Topology snp, (6)-cn, num edge types: 1
# Building blocks:
#     Node 0, Type 0, BuildingBlock: BETGAK_clean_sbu_0, # of connection points: 6
#     Node 1, Type 0, BuildingBlock: BETGAK_clean_sbu_0, # of connection points: 6
#     Node 2, Type 0, BuildingBlock: BETGAK_clean_sbu_0, # of connection points: 6
#     Node 3, Type 0, BuildingBlock: BETGAK_clean_sbu_0, # of connection points: 6
#     Edge 4, Type (0, 0), BuildingBlock: XIVTED_clean_linker_0, # of connection points: 2
#     Edge 5, Type (0, 0), BuildingBlock: XIVTED_clean_linker_0, # of connection points: 2
#     Edge 6, Type (0, 0), BuildingBlock: XIVTED_clean_linker_0, # of connection points: 2
#     Edge 7, Type (0, 0), BuildingBlock: XIVTED_clean_linker_0, # of connection points: 2
#     Edge 8, Type (0, 0), BuildingBlock: XIVTED_clean_linker_0, # of connection points: 2
#     Edge 9, Type (0, 0), BuildingBlock: XIVTED_clean_linker_0, # of connection points: 2
#     Edge 10, Type (0, 0), BuildingBlock: XIVTED_clean_linker_0, # of connection points: 2
#     Edge 11, Type (0, 0), BuildingBlock: XIVTED_clean_linker_0, # of connection points: 2
#     Edge 12, Type (0, 0), BuildingBlock: XIVTED_clean_linker_0, # of connection points: 2
#     Edge 13, Type (0, 0), BuildingBlock: XIVTED_clean_linker_0, # of connection points: 2
#     Edge 14, Type (0, 0), BuildingBlock: XIVTED_clean_linker_0, # of connection points: 2
#     Edge 15, Type (0, 0), BuildingBlock: XIVTED_clean_linker_0, # of connection points: 2
# Relax obj value: 0.743
# Max RMSD: 0.176
# Mean RMSD: 0.176
data_MOF--net-snp--node1-BETGAK_clean_sbu_0--edge1-XIVTED_clean_linker_0
_symmetry_space_group_name_H-M    P1
_symmetry_Int_Tables_number       1
_symmetry_cell_setting            triclinic
loop_
_symmetry_equiv_pos_as_xyz
'x, y, z'
_cell_length_a     25.011168
_cell_length_b     25.802065
_cell_length_c     27.331374
_cell_angle_alpha  90.755266
_cell_angle_beta   88.436956
_cell_angle_gamma 88.111351
loop_
_atom_site_label
_atom_site_type_symbol
_atom_site_fract_x
_atom_site_fract_y
_atom_site_fract_z
_atom_type_partial_charge
La0 La 0.27619 0.08361 0.24346 0.0
La1 La 0.28729 0.97742 1.19748 0.0
C2 C 0.25661 0.17079 0.28126 0.0
C3 C 0.24286 0.22264 0.30185 0.0
C4 C 0.19906 0.25152 0.28396 0.0
C5 C 0.19114 0.30385 0.29669 0.0
C6 C 0.22723 0.32839 0.32705 0.0
C7 C 0.27019 0.29907 0.34595 0.0
C8 C 0.27783 0.24661 0.33359 0.0
C9 C 0.37639 0.05075 0.21983 0.0
C10 C 0.24832 0.98636 0.3111 0.0
C11 C 0.32389 0.89124 1.16643 0.0
C12 C 0.35538 0.8426 1.17318 0.0
C13 C 0.40241 0.83453 1.14474 0.0
C14 C 0.42109 0.78434 1.13282 0.0
C15 C 0.39279 0.74102 1.14899 0.0
C16 C 0.35228 0.74962 1.18544 0.0
C17 C 0.33289 0.80005 1.19664 0.0
C18 C 0.1921 0.02116 1.18913 0.0
C19 C 0.27463 0.07746 1.12786 0.0
O20 O 0.28972 0.13702 0.3012 0.0
O21 O 0.23315 0.15394 0.24222 0.0
O22 O 0.35761 0.09752 0.2164 0.0
O23 O 0.33968 0.02429 0.23794 0.0
O24 O 0.24518 0.03766 0.30553 0.0
O25 O 0.26786 0.9553 0.27478 0.0
O26 O 0.34951 0.93459 1.16156 0.0
O27 O 0.2768 0.89761 1.18851 0.0
O28 O 0.2127 0.98718 1.1581 0.0
O29 O 0.22302 0.02501 0.22431 0.0
O30 O 0.29398 0.02856 1.13104 0.0
O31 O 0.26102 0.10414 1.16803 0.0
H32 H 0.17168 0.23406 0.25902 0.0
H33 H 0.15749 0.3254 0.28194 0.0
H34 H 0.29787 0.31669 0.37048 0.0
H35 H 0.31222 0.22539 0.34737 0.0
H36 H 0.42115 0.86669 1.12671 0.0
H37 H 0.45336 0.7806 1.10577 0.0
H38 H 0.33145 0.71754 1.20133 0.0
H39 H 0.29725 0.80515 0.21984 0.0
La40 La 0.01741 0.249 0.75243 0.0
La41 La 0.12213 0.28972 0.71162 0.0
C42 C 0.93718 0.20817 0.7917 0.0
C43 C 0.8785 0.21712 0.793 0.0
C44 C 0.84589 0.18153 0.7698 0.0
C45 C 0.79022 0.1858 0.77559 0.0
C46 C 0.76606 0.22541 0.80525 0.0
C47 C 0.79874 0.26293 0.82579 0.0
C48 C 0.85431 0.25884 0.81975 0.0
C49 C 0.01921 0.35027 0.73839 0.0
C50 C 0.12194 0.24393 0.82005 0.0
C51 C 0.18699 0.35496 0.68074 0.0
C52 C 0.18155 0.40177 0.65127 0.0
C53 C 0.13832 0.4084 0.6203 0.0
C54 C 0.1369 0.44945 0.58771 0.0
C55 C 0.17866 0.48495 0.58565 0.0
C56 C 0.21821 0.48163 0.62136 0.0
C57 C 0.21995 0.43994 0.65354 0.0
C58 C 0.12341 0.18928 0.72035 0.0
C59 C 0.02749 0.25545 0.6379 0.0
O60 O 0.95881 0.19268 0.74977 0.0
O61 O 0.96596 0.2425 0.81373 0.0
O62 O 0.9775 0.3229 0.73279 0.0
O63 O 0.05622 0.3215 0.75401 0.0
O64 O 0.07227 0.22944 0.81232 0.0
O65 O 0.14859 0.2716 0.78697 0.0
O66 O 0.17912 0.31066 0.65827 0.0
O67 O 0.16285 0.35805 0.72368 0.0
O68 O 0.16673 0.21595 0.72012 0.0
O69 O 0.08451 0.21902 0.71036 0.0
O70 O 0.07004 0.28519 0.64463 0.0
O71 O 0.00431 0.23245 0.67552 0.0
H72 H 0.86352 0.14914 0.74871 0.0
H73 H 0.76627 0.1566 0.75879 0.0
H74 H 0.78183 0.29354 0.84952 0.0
H75 H 0.87824 0.28712 0.83793 0.0
H76 H 0.10723 0.3802 0.61929 0.0
H77 H 0.10544 0.45007 0.56131 0.0
H78 H 0.25001 0.50907 0.6222 0.0
H79 H 0.2526 0.43628 0.67866 0.0
La80 La 0.8778 0.03145 0.24101 0.0
La81 La 0.80272 0.11645 0.22058 0.0
C82 C 0.94212 0.96014 0.26596 0.0
C83 C 0.93704 0.90347 0.26479 0.0
C84 C 0.98179 0.87044 0.25499 0.0
C85 C 0.97699 0.81651 0.25673 0.0
C86 C 0.92731 0.79488 0.2685 0.0
C87 C 0.88213 0.82848 0.27534 0.0
C88 C 0.88696 0.88198 0.27343 0.0
C89 C 0.7738 0.01144 0.25049 0.0
C90 C 0.87014 0.12391 0.318 0.0
C91 C 0.71674 0.16649 1.20284 0.0
C92 C 0.67615 0.16622 1.16522 0.0
C93 C 0.6792 0.12916 1.12733 0.0
C94 C 0.64649 0.13464 1.08707 0.0
C95 C 0.61009 0.17734 1.08408 0.0
C96 C 0.60372 0.21148 1.12457 0.0
C97 C 0.6368 0.20609 1.16473 0.0
C98 C 0.89949 0.14602 1.20799 0.0
C99 C 0.85042 0.0361 1.13247 0.0
O100 O 0.9446 0.98229 0.22333 0.0
O101 O 0.90963 0.98568 0.29669 0.0
O102 O 0.80884 0.98111 0.22844 0.0
O103 O 0.7973 0.05066 0.26463 0.0
O104 O 0.9009 0.0867 0.29734 0.0
O105 O 0.82473 0.13934 0.2969 0.0
O106 O 0.76422 0.18044 1.18822 0.0
O107 O 0.71946 0.12582 0.23052 0.0
O108 O 0.86056 0.17616 0.22471 0.0
O109 O 0.88323 0.10118 1.19791 0.0
O110 O 0.81037 0.06944 1.1479 0.0
O111 O 0.88683 0.02125 1.16338 0.0
H112 H 0.02064 0.88634 0.24734 0.0
H113 H 0.01253 0.7919 0.25076 0.0
H114 H 0.84335 0.8139 0.28552 0.0
H115 H 0.85165 0.90655 0.28073 0.0
H116 H 0.70899 0.09775 1.12748 0.0
H117 H 0.65319 0.10774 1.05662 0.0
H118 H 0.57554 0.24423 1.12389 0.0
H119 H 0.63354 0.23464 1.19418 0.0
La120 La 0.08715 0.82582 0.74231 0.0
La121 La 0.97725 0.82917 0.7031 0.0
C122 C 0.17356 0.82832 0.78766 0.0
C123 C 0.20598 0.78859 0.81313 0.0
C124 C 0.2583 0.77554 0.79627 0.0
C125 C 0.28987 0.73917 0.82109 0.0
C126 C 0.26986 0.71542 0.86359 0.0
C127 C 0.2168 0.72757 0.87939 0.0
C128 C 0.18525 0.76348 0.85443 0.0
C129 C 0.05357 0.73424 0.71275 0.0
C130 C 0.98385 0.84819 0.81715 0.0
C131 C 0.89573 0.7958 0.66266 0.0
C132 C 0.88945 0.75851 0.6225 0.0
C133 C 0.93447 0.74034 0.59513 0.0
C134 C 0.92906 0.70516 0.55666 0.0
C135 C 0.87844 0.68675 0.54502 0.0
C136 C 0.83374 0.70298 0.57453 0.0
C137 C 0.83924 0.73874 0.61292 0.0
C138 C 0.01078 0.91897 0.73347 0.0
C139 C 0.07896 0.85026 0.62987 0.0
O140 O 0.17142 0.82299 0.74021 0.0
O141 O 0.12674 0.84121 0.8074 0.0
O142 O 0.10198 0.74915 0.7101 0.0
O143 O 0.02606 0.76925 0.73515 0.0
O144 O 0.03692 0.84492 0.80976 0.0
O145 O 0.95131 0.83895 0.78061 0.0
O146 O 0.91751 0.83977 0.65113 0.0
O147 O 0.91655 0.77546 0.70162 0.0
O148 O 0.96028 0.90799 0.73243 0.0
O149 O 0.0374 0.88314 0.71207 0.0
O150 O 0.02918 0.83282 0.63435 0.0
O151 O 0.10667 0.85858 0.66995 0.0
H152 H 0.27505 0.79404 0.76424 0.0
H153 H 0.33029 0.73049 0.80751 0.0
H154 H 0.2001 0.71121 0.91249 0.0
H155 H 0.14495 0.77231 0.86831 0.0
H156 H 0.9738 0.75415 0.60287 0.0
H157 H 0.96445 0.69472 0.53459 0.0
H158 H 0.7943 0.68918 0.56721 0.0
H159 H 0.80427 0.75142 0.63469 0.0
H160 H 0.96562 0.22071 0.23855 0.0
H161 H 0.1532 0.04022 1.0986 0.0
H162 H 0.92943 0.12695 1.11306 0.0
H163 H 0.14992 0.0976 0.24762 0.0
H164 H 0.09725 0.11526 1.07564 0.0
H165 H 0.05492 0.23353 1.20285 0.0
C166 C 0.9763 0.20381 1.20297 0.0
C167 C 0.94362 0.16802 1.18086 0.0
C168 C 0.11028 0.11213 1.11301 0.0
C169 C 0.04413 0.18004 1.14217 0.0
C170 C 0.14062 0.06871 1.1264 0.0
C171 C 0.15504 0.06277 1.17522 0.0
C172 C 0.09332 0.14882 1.14904 0.0
C173 C 0.13926 0.10097 1.20963 0.0
C174 C 0.02662 0.21196 1.18201 0.0
C175 C 0.95666 0.15024 1.13338 0.0
N176 N 0.10906 0.1423 1.19592 0.0
N177 N 0.00693 0.15596 1.11539 0.0
H178 H 0.95855 0.97531 0.80747 0.0
H179 H 0.19567 0.1396 0.77972 0.0
H180 H 0.11574 0.92477 0.75397 0.0
H181 H 0.03469 0.13602 0.72825 0.0
H182 H 0.17391 0.07063 0.83818 0.0
H183 H 1.0008 0.03301 0.8658 0.0
C184 C 1.00178 0.97665 0.80777 0.0
C185 C 0.03386 0.94995 0.77229 0.0
C186 C 0.14288 0.08735 0.81579 0.0
C187 C 0.08072 0.01705 0.83552 0.0
C188 C 0.15561 0.12492 0.78143 0.0
C189 C 0.11621 0.14359 0.74999 0.0
C190 C 0.09061 0.06912 0.81816 0.0
C191 C 0.06523 0.12395 0.75319 0.0
C192 C 0.02601 0.00744 0.8426 0.0
C193 C 0.08952 0.9488 0.77753 0.0
N194 N 0.0538 0.08827 0.78685 0.0
N195 N 0.11158 0.98134 0.80988 0.0
H196 H 0.70069 0.06292 0.3098 0.0
H197 H 0.42922 0.95466 0.22211 0.0
H198 H 0.71213 0.95046 1.19164 0.0
H199 H 0.45665 0.11884 0.22551 0.0
H200 H 0.52653 0.93771 0.23005 0.0
H201 H 0.60337 0.06794 0.30162 0.0
C202 C 0.68261 0.03871 0.28254 0.0
C203 C 0.71464 0.00731 0.25046 0.0
C204 C 0.51087 0.97729 0.22878 0.0
C205 C 0.60311 0.01167 0.2421 0.0
C206 C 0.45554 0.98702 0.22425 0.0
C207 C 0.43472 0.03827 0.22287 0.0
C208 C 0.54497 0.01914 0.23368 0.0
C209 C 0.47074 0.07874 0.22625 0.0
C210 C 0.62718 0.04171 0.2779 0.0
C211 C 0.6889 0.97577 0.21661 0.0
N212 N 0.52377 0.06833 0.23221 0.0
N213 N 0.63444 0.97889 1.21308 0.0
H214 H 0.0969 0.41407 0.76865 0.0
H215 H 0.95797 0.68571 0.7326 0.0
H216 H 0.94363 0.41686 0.70028 0.0
H217 H 0.12312 0.65515 0.68845 0.0
H218 H 0.94544 0.59115 0.73573 0.0
H219 H 0.1022 0.5073 0.75635 0.0
C220 C 0.06491 0.43406 0.75007 0.0
C221 C 0.02096 0.40727 0.73348 0.0
C222 C 0.9841 0.6056 0.72491 0.0
C223 C 0.02492 0.51471 0.72253 0.0
C224 C 0.99126 0.65934 0.72308 0.0
C225 C 0.04173 0.67837 0.71059 0.0
C226 C 0.02809 0.57127 0.71545 0.0
C227 C 0.08362 0.64239 0.69874 0.0
C228 C 0.06756 0.4874 0.74376 0.0
C229 C 0.97869 0.43603 0.71284 0.0
N230 N 0.07612 0.59077 0.70227 0.0
N231 N 0.9815 0.48847 0.70812 0.0
H232 H 0.27479 0.50918 0.54115 0.0
H233 H 0.301 0.40464 0.3304 0.0
H234 H 0.1046 0.52961 0.52308 0.0
H235 H 0.13342 0.3781 0.35656 0.0
H236 H 0.29019 0.48737 0.37465 0.0
H237 H 0.288 0.50744 0.45422 0.0
C238 C 0.23991 0.51547 0.51917 0.0
C239 C 0.18784 0.51456 0.53979 0.0
C240 C 0.25559 0.46379 0.37045 0.0
C241 C 0.20284 0.51038 0.43876 0.0
C242 C 0.26178 0.41659 0.34508 0.0
C243 C 0.21859 0.38346 0.34199 0.0
C244 C 0.20636 0.47669 0.39439 0.0
C245 C 0.16817 0.40177 0.3594 0.0
C246 C 0.2476 0.51411 0.46852 0.0
C247 C 0.14526 0.52549 0.50862 0.0
N248 N 0.16376 0.44651 0.38607 0.0
N249 N 0.15329 0.52014 0.45943 0.0
H250 H 0.69116 0.30511 0.82314 0.0
H251 H 0.59928 0.27438 1.04528 0.0
H252 H 0.71106 0.13847 0.8277 0.0
H253 H 0.57326 0.11357 1.01112 0.0
H254 H 0.60224 0.29302 0.95936 0.0
H255 H 0.6134 0.3003 0.87866 0.0
C256 C 0.67863 0.26742 0.83508 0.0
C257 C 0.70944 0.22239 0.82271 0.0
C258 C 0.5937 0.25388 0.96999 0.0
C259 C 0.62188 0.2167 0.88763 0.0
C260 C 0.59179 0.24313 1.01982 0.0
C261 C 0.58877 0.19169 1.03561 0.0
C262 C 0.59364 0.21269 0.93576 0.0
C263 C 0.57852 0.15338 1.00046 0.0
C264 C 0.63436 0.26469 0.86713 0.0
C265 C 0.6897 0.17449 0.8372 0.0
N266 N 0.58332 0.16426 0.95208 0.0
N267 N 0.64814 0.17305 0.86999 0.0
H268 H 0.7945 0.69395 0.48227 0.0
H269 H 0.8443 0.72792 0.25562 0.0
H270 H 0.94755 0.61467 0.49851 0.0
H271 H 1.00167 0.73464 0.31595 0.0
H272 H 0.82326 0.65883 0.31267 0.0
H273 H 0.80199 0.67904 0.39517 0.0
C274 C 0.82885 0.67142 0.468 0.0
C275 C 0.87207 0.65848 0.49774 0.0
C276 C 0.86294 0.67443 0.31227 0.0
C277 C 0.88171 0.64263 0.39683 0.0
C278 C 0.87504 0.71395 0.27977 0.0
C279 C 0.92351 0.73978 0.28339 0.0
C280 C 0.89963 0.66116 0.34838 0.0
C281 C 0.96287 0.71772 0.31308 0.0
C282 C 0.83316 0.66273 0.41759 0.0
C283 C 0.9148 0.62846 0.47654 0.0
N284 N 0.94946 0.68074 0.34558 0.0
N285 N 0.91979 0.62363 0.42707 0.0
H286 H 0.37657 0.72763 0.88103 0.0
H287 H 0.31265 0.67063 1.13527 0.0
H288 H 0.24499 0.63025 0.91894 0.0
H289 H 0.476 0.69759 1.08944 0.0
H290 H 0.29885 0.62808 1.05826 0.0
H291 H 0.42468 0.69426 0.95032 0.0
C292 C 0.35827 0.69794 0.90284 0.0
C293 C 0.3054 0.68362 0.89523 0.0
C294 C 0.3383 0.64211 1.06527 0.0
C295 C 0.36003 0.64641 0.97612 0.0
C296 C 0.34662 0.66654 1.11006 0.0
C297 C 0.39434 0.69269 1.11772 0.0
C298 C 0.3773 0.64509 1.02762 0.0
C299 C 0.43676 0.68262 1.08358 0.0
C300 C 0.38597 0.67882 0.94277 0.0
C301 C 0.28452 0.64456 0.92487 0.0
N302 N 0.42651 0.66216 1.03884 0.0
N303 N 0.31108 0.62863 0.96498 0.0
H304 H 0.78256 0.99528 1.06064 0.0
H305 H 0.03779 0.88432 0.89713 0.0
H306 H 0.947 0.02985 1.08543 0.0
H307 H 0.87721 0.87055 0.84636 0.0
H308 H 1.00217 0.93296 0.9688 0.0
H309 H 0.81213 0.94835 0.98402 0.0
C310 C 0.82448 0.9944 1.0496 0.0
C311 C 0.86199 0.01753 1.08001 0.0
C312 C 0.97436 0.9191 0.94234 0.0
C313 C 0.89671 0.96174 0.99272 0.0
C314 C 0.99486 0.89058 0.9012 0.0
C315 C 0.96091 0.87225 0.86494 0.0
C316 C 0.91886 0.92982 0.94864 0.0
C317 C 0.90541 0.88312 0.87303 0.0
C318 C 0.84158 0.96687 1.00601 0.0
C319 C 0.91613 0.01322 1.0637 0.0
N320 N 0.88632 0.91085 0.91362 0.0
N321 N 0.93151 0.98601 1.02218 0.0
H322 H 0.279 0.8971 0.36143 0.0
H323 H 0.02754 0.89242 0.54977 0.0
H324 H 0.16141 0.02287 0.36748 0.0
H325 H 0.1847 0.84626 0.59686 0.0
H326 H 0.0682 0.92453 0.473 0.0
H327 H 0.23847 0.86255 0.43738 0.0
C328 C 0.24462 0.91745 0.37841 0.0
C329 C 0.22425 0.96353 0.3576 0.0
C330 C 0.09377 0.90699 0.49997 0.0
C331 C 0.17608 0.92276 0.44459 0.0
C332 C 0.07047 0.88825 0.54388 0.0
C333 C 0.1024 0.86626 0.58048 0.0
C334 C 0.14961 0.90246 0.49119 0.0
C335 C 0.15813 0.8628 0.57018 0.0
C336 C 0.22149 0.89767 0.422 0.0
C337 C 0.17923 0.98768 0.38194 0.0
N338 N 0.17964 0.88 0.52676 0.0
N339 N 0.15656 0.96689 0.42329 0.0
H340 H 0.22987 0.21778 0.83299 0.0
H341 H 0.22066 0.17036 1.11543 0.0
H342 H 0.0771 0.21849 0.90963 0.0
H343 H 0.29189 0.04376 1.02893 0.0
H344 H 0.18635 0.20898 1.04132 0.0
H345 H 0.27085 0.17453 0.90386 0.0
C346 C 0.20495 0.20972 0.86482 0.0
C347 C 0.14959 0.22257 0.86487 0.0
C348 C 0.20999 0.17308 1.03834 0.0
C349 C 0.19693 0.17309 0.94692 0.0
C350 C 0.23014 0.15063 1.08091 0.0
C351 C 0.25958 0.1028 1.0796 0.0
C352 C 0.22046 0.14935 0.99253 0.0
C353 C 0.26957 0.08031 1.0326 0.0
C354 C 0.2284 0.18433 0.90509 0.0
C355 C 0.11975 0.20989 0.90741 0.0
N356 N 0.25048 0.10384 0.99116 0.0
N357 N 0.14371 0.18691 0.94652 0.0
H358 H 0.91947 0.07262 0.39138 0.0
H359 H 0.01543 0.3145 0.55194 0.0
H360 H 0.86747 0.22736 0.3536 0.0
H361 H 0.99209 0.16178 0.60889 0.0
H362 H 0.97453 0.28638 0.47438 0.0
H363 H 0.95837 0.10682 0.46565 0.0
C364 C 0.9158 0.11397 0.39876 0.0
C365 C 0.88913 0.14671 0.36582 0.0
C366 C 0.97853 0.25913 0.50395 0.0
C367 C 0.93602 0.18718 0.45194 0.0
C368 C 1.00243 0.27507 0.54818 0.0
C369 C 0.00761 0.24065 0.58765 0.0
C370 C 0.96074 0.20795 0.49841 0.0
C371 C 0.98913 0.19011 0.58013 0.0
C372 C 0.93832 0.1336 0.44147 0.0
C373 C 0.88663 0.20022 0.37796 0.0
N374 N 0.9673 0.17552 0.53698 0.0
N375 N 0.91007 0.21875 0.41957 0.0
loop_
_geom_bond_atom_site_label_1
_geom_bond_atom_site_label_2
_geom_bond_distance
_geom_bond_site_symmetry_2
_ccdc_geom_bond_type
La0 C2 2.928 . S
La0 O20 2.521 . S
La0 O21 2.628 . S
La0 O22 2.554 . S
La0 O23 2.757 1_554 S
La0 O24 2.470 . S
La0 O29 2.482 . S
La0 O31 2.503 1_554 S
La1 C11 2.928 1_545 S
La1 O23 2.482 . S
La1 O25 2.503 1_556 S
La1 O26 2.521 1_545 S
La1 O27 2.628 . S
La1 O28 2.554 . S
La1 O29 2.757 1_556 S
La1 O30 2.470 . S
C2 La0 2.928 . S
C2 C3 1.503 . S
C2 O20 1.261 . S
C2 O21 1.243 . S
C3 C2 1.503 . S
C3 C4 1.394 . S
C3 C8 1.373 . S
C4 C3 1.394 . S
C4 C5 1.380 . S
C4 H32 0.930 . S
C5 C4 1.380 . S
C5 C6 1.376 . S
C5 H33 0.930 . S
C6 C5 1.376 . S
C6 C7 1.370 . S
C7 C6 1.370 . S
C7 C8 1.396 . S
C7 H34 0.929 . S
C8 C3 1.373 . S
C8 C7 1.396 . S
C8 H35 0.929 . S
C9 O22 1.240 . S
C9 O23 1.289 1_554 S
C10 O24 1.258 . S
C10 O25 1.256 . S
C11 La1 2.928 1_565 S
C11 C12 1.503 . S
C11 O26 1.261 . S
C11 O27 1.243 1_565 S
C12 C11 1.503 . S
C12 C13 1.394 . S
C12 C17 1.373 . S
C13 C12 1.394 . S
C13 C14 1.380 . S
C13 H36 0.930 . S
C14 C13 1.380 . S
C14 C15 1.376 . S
C14 H37 0.930 . S
C15 C14 1.376 . S
C15 C16 1.370 . S
C16 C15 1.370 . S
C16 C17 1.396 . S
C16 H38 0.929 . S
C17 C12 1.373 . S
C17 C16 1.396 . S
C17 H39 0.929 . S
C18 O28 1.235 1_554 S
C18 O29 1.293 . S
C19 O30 1.258 . S
C19 O31 1.256 . S
O20 La0 2.521 . S
O20 C2 1.261 . S
O21 La0 2.628 . S
O21 C2 1.243 . S
O22 La0 2.554 . S
O22 C9 1.240 . S
O23 La0 2.757 1_556 S
O23 La1 2.482 . S
O23 C9 1.289 1_556 S
O24 La0 2.470 . S
O24 C10 1.258 . S
O25 La1 2.503 1_554 S
O25 C10 1.256 . S
O26 La1 2.521 1_565 S
O26 C11 1.261 . S
O27 La1 2.628 . S
O27 C11 1.243 1_545 S
O28 La1 2.554 . S
O28 C18 1.235 1_556 S
O29 La0 2.482 . S
O29 La1 2.757 1_554 S
O29 C18 1.293 . S
O30 La1 2.470 . S
O30 C19 1.258 . S
O31 La0 2.503 1_556 S
O31 C19 1.256 . S
H32 C4 0.930 . S
H33 C5 0.930 . S
H34 C7 0.929 . S
H35 C8 0.929 . S
H36 C13 0.930 . S
H37 C14 0.930 . S
H38 C16 0.929 . S
H39 C17 0.929 . S
La40 C42 2.928 . S
La40 O60 2.521 . S
La40 O61 2.628 . S
La40 O62 2.554 . S
La40 O63 2.757 1_655 S
La40 O64 2.470 1_655 S
La40 O69 2.482 . S
La40 O71 2.503 . S
La41 C51 2.928 . S
La41 O63 2.482 . S
La41 O65 2.503 . S
La41 O66 2.521 . S
La41 O67 2.628 . S
La41 O68 2.554 . S
La41 O69 2.757 1_455 S
La41 O70 2.470 1_455 S
C42 La40 2.928 . S
C42 C43 1.503 . S
C42 O60 1.261 . S
C42 O61 1.243 . S
C43 C42 1.503 . S
C43 C44 1.394 . S
C43 C48 1.373 . S
C44 C43 1.394 . S
C44 C45 1.380 . S
C44 H72 0.930 . S
C45 C44 1.380 . S
C45 C46 1.376 . S
C45 H73 0.930 . S
C46 C45 1.376 . S
C46 C47 1.370 . S
C47 C46 1.370 . S
C47 C48 1.396 . S
C47 H74 0.929 . S
C48 C43 1.373 . S
C48 C47 1.396 . S
C48 H75 0.929 . S
C49 O62 1.240 . S
C49 O63 1.289 1_655 S
C50 O64 1.258 . S
C50 O65 1.256 . S
C51 La41 2.928 . S
C51 C52 1.503 . S
C51 O66 1.261 . S
C51 O67 1.243 . S
C52 C51 1.503 . S
C52 C53 1.394 . S
C52 C57 1.373 . S
C53 C52 1.394 . S
C53 C54 1.380 . S
C53 H76 0.930 . S
C54 C53 1.380 . S
C54 C55 1.376 . S
C54 H77 0.930 . S
C55 C54 1.376 . S
C55 C56 1.370 . S
C56 C55 1.370 . S
C56 C57 1.396 . S
C56 H78 0.929 . S
C57 C52 1.373 . S
C57 C56 1.396 . S
C57 H79 0.929 . S
C58 O68 1.240 . S
C58 O69 1.289 1_455 S
C59 O70 1.258 . S
C59 O71 1.256 . S
O60 La40 2.521 . S
O60 C42 1.261 . S
O61 La40 2.628 . S
O61 C42 1.243 . S
O62 La40 2.554 . S
O62 C49 1.240 . S
O63 La40 2.757 1_455 S
O63 La41 2.482 . S
O63 C49 1.289 1_455 S
O64 La40 2.470 1_455 S
O64 C50 1.258 . S
O65 La41 2.503 . S
O65 C50 1.256 . S
O66 La41 2.521 . S
O66 C51 1.261 . S
O67 La41 2.628 . S
O67 C51 1.243 . S
O68 La41 2.554 . S
O68 C58 1.240 . S
O69 La40 2.482 . S
O69 La41 2.757 1_655 S
O69 C58 1.289 1_655 S
O70 La41 2.470 1_655 S
O70 C59 1.258 . S
O71 La40 2.503 . S
O71 C59 1.256 . S
H72 C44 0.930 . S
H73 C45 0.930 . S
H74 C47 0.929 . S
H75 C48 0.929 . S
H76 C53 0.930 . S
H77 C54 0.930 . S
H78 C56 0.929 . S
H79 C57 0.929 . S
La80 C82 2.928 . S
La80 O100 2.521 . S
La80 O101 2.628 . S
La80 O102 2.554 . S
La80 O103 2.757 1_564 S
La80 O104 2.470 1_565 S
La80 O109 2.482 . S
La80 O111 2.503 1_554 S
La81 C91 2.928 . S
La81 O103 2.482 . S
La81 O105 2.503 1_556 S
La81 O106 2.521 . S
La81 O107 2.628 . S
La81 O108 2.554 . S
La81 O109 2.757 1_546 S
La81 O110 2.470 1_545 S
C82 La80 2.928 . S
C82 C83 1.503 . S
C82 O100 1.261 . S
C82 O101 1.243 . S
C83 C82 1.503 . S
C83 C84 1.394 . S
C83 C88 1.373 . S
C84 C83 1.394 . S
C84 C85 1.380 . S
C84 H112 0.930 . S
C85 C84 1.380 . S
C85 C86 1.376 . S
C85 H113 0.930 . S
C86 C85 1.376 . S
C86 C87 1.370 . S
C87 C86 1.370 . S
C87 C88 1.396 . S
C87 H114 0.929 . S
C88 C83 1.373 . S
C88 C87 1.396 . S
C88 H115 0.929 . S
C89 O102 1.240 . S
C89 O103 1.289 1_564 S
C90 O104 1.258 . S
C90 O105 1.256 . S
C91 La81 2.928 . S
C91 C92 1.503 . S
C91 O106 1.261 . S
C91 O107 1.243 . S
C92 C91 1.503 . S
C92 C93 1.394 . S
C92 C97 1.373 . S
C93 C92 1.394 . S
C93 C94 1.380 . S
C93 H116 0.930 . S
C94 C93 1.380 . S
C94 C95 1.376 . S
C94 H117 0.930 . S
C95 C94 1.376 . S
C95 C96 1.370 . S
C96 C95 1.370 . S
C96 C97 1.396 . S
C96 H118 0.929 . S
C97 C92 1.373 . S
C97 C96 1.396 . S
C97 H119 0.929 . S
C98 O108 1.235 1_554 S
C98 O109 1.293 1_545 S
C99 O110 1.258 . S
C99 O111 1.256 . S
O100 La80 2.521 . S
O100 C82 1.261 . S
O101 La80 2.628 . S
O101 C82 1.243 . S
O102 La80 2.554 . S
O102 C89 1.240 . S
O103 La80 2.757 1_546 S
O103 La81 2.482 . S
O103 C89 1.289 1_546 S
O104 La80 2.470 1_545 S
O104 C90 1.258 . S
O105 La81 2.503 1_554 S
O105 C90 1.256 . S
O106 La81 2.521 . S
O106 C91 1.261 . S
O107 La81 2.628 . S
O107 C91 1.243 . S
O108 La81 2.554 . S
O108 C98 1.235 1_556 S
O109 La80 2.482 . S
O109 La81 2.757 1_564 S
O109 C98 1.293 1_565 S
O110 La81 2.470 1_565 S
O110 C99 1.258 . S
O111 La80 2.503 1_556 S
O111 C99 1.256 . S
H112 C84 0.930 . S
H113 C85 0.930 . S
H114 C87 0.929 . S
H115 C88 0.929 . S
H116 C93 0.930 . S
H117 C94 0.930 . S
H118 C96 0.929 . S
H119 C97 0.929 . S
La120 C122 2.928 . S
La120 O140 2.521 . S
La120 O141 2.628 . S
La120 O142 2.554 . S
La120 O143 2.757 . S
La120 O144 2.470 . S
La120 O149 2.482 . S
La120 O151 2.503 . S
La121 C131 2.928 1_455 S
La121 O143 2.482 . S
La121 O145 2.503 . S
La121 O146 2.521 1_455 S
La121 O147 2.628 . S
La121 O148 2.554 . S
La121 O149 2.757 . S
La121 O150 2.470 . S
C122 La120 2.928 . S
C122 C123 1.503 . S
C122 O140 1.261 . S
C122 O141 1.243 . S
C123 C122 1.503 . S
C123 C124 1.394 . S
C123 C128 1.373 . S
C124 C123 1.394 . S
C124 C125 1.380 . S
C124 H152 0.930 . S
C125 C124 1.380 . S
C125 C126 1.376 . S
C125 H153 0.930 . S
C126 C125 1.376 . S
C126 C127 1.370 . S
C127 C126 1.370 . S
C127 C128 1.396 . S
C127 H154 0.929 . S
C128 C123 1.373 . S
C128 C127 1.396 . S
C128 H155 0.929 . S
C129 O142 1.240 . S
C129 O143 1.289 . S
C130 O144 1.258 . S
C130 O145 1.256 . S
C131 La121 2.928 1_655 S
C131 C132 1.503 . S
C131 O146 1.261 . S
C131 O147 1.243 1_655 S
C132 C131 1.503 . S
C132 C133 1.394 . S
C132 C137 1.373 . S
C133 C132 1.394 . S
C133 C134 1.380 . S
C133 H156 0.930 . S
C134 C133 1.380 . S
C134 C135 1.376 . S
C134 H157 0.930 . S
C135 C134 1.376 . S
C135 C136 1.370 . S
C136 C135 1.370 . S
C136 C137 1.396 . S
C136 H158 0.929 . S
C137 C132 1.373 . S
C137 C136 1.396 . S
C137 H159 0.929 . S
C138 O148 1.240 . S
C138 O149 1.289 . S
C139 O150 1.258 . S
C139 O151 1.256 . S
O140 La120 2.521 . S
O140 C122 1.261 . S
O141 La120 2.628 . S
O141 C122 1.243 . S
O142 La120 2.554 . S
O142 C129 1.240 . S
O143 La120 2.757 . S
O143 La121 2.482 . S
O143 C129 1.289 . S
O144 La120 2.470 . S
O144 C130 1.258 . S
O145 La121 2.503 . S
O145 C130 1.256 . S
O146 La121 2.521 1_655 S
O146 C131 1.261 . S
O147 La121 2.628 . S
O147 C131 1.243 1_455 S
O148 La121 2.554 . S
O148 C138 1.240 . S
O149 La120 2.482 . S
O149 La121 2.757 . S
O149 C138 1.289 . S
O150 La121 2.470 . S
O150 C139 1.258 . S
O151 La120 2.503 . S
O151 C139 1.256 . S
H152 C124 0.930 . S
H153 C125 0.930 . S
H154 C127 0.929 . S
H155 C128 0.929 . S
H156 C133 0.930 . S
H157 C134 0.930 . S
H158 C136 0.929 . S
H159 C137 0.929 . S
H160 C166 0.930 . S
H161 C170 0.930 . S
H162 C175 0.929 . S
H163 C173 0.929 . S
H164 C168 0.929 . S
H165 C174 0.929 . S
C166 H160 0.930 . S
C166 C167 1.368 . S
C166 C174 1.378 1_655 S
C167 C166 1.368 . S
C167 C175 1.430 1_564 S
C168 H164 0.929 . S
C168 C170 1.378 . S
C168 C172 1.350 1_556 S
C169 C172 1.463 . S
C169 C174 1.350 1_545 S
C169 N177 1.427 1_454 S
C170 H161 0.930 . S
C170 C168 1.378 . S
C170 C171 1.367 1_556 S
C171 C170 1.367 1_554 S
C171 C173 1.433 . S
C172 C168 1.350 1_554 S
C172 C169 1.463 . S
C172 N176 1.427 . S
C173 H163 0.929 . S
C173 C171 1.433 . S
C173 N176 1.384 . S
C174 H165 0.929 . S
C174 C166 1.378 1_455 S
C174 C169 1.350 1_565 S
C175 H162 0.929 . S
C175 C167 1.430 1_546 S
C175 N177 1.384 . S
N176 C172 1.427 . S
N176 C173 1.384 . S
N177 C169 1.427 1_656 S
N177 C175 1.384 . S
H178 C184 0.930 . S
H179 C188 0.930 . S
H180 C193 0.929 . S
H181 C191 0.929 . S
H182 C186 0.929 . S
H183 C192 0.929 . S
C184 H178 0.930 . S
C184 C185 1.367 . S
C184 C192 1.378 . S
C185 C184 1.367 . S
C185 C193 1.433 . S
C186 H182 0.929 . S
C186 C188 1.378 . S
C186 C190 1.350 . S
C187 C190 1.463 . S
C187 C192 1.350 1_545 S
C187 N195 1.427 . S
C188 H179 0.930 . S
C188 C186 1.378 . S
C188 C189 1.367 . S
C189 C188 1.367 . S
C189 C191 1.433 1_455 S
C190 C186 1.350 . S
C190 C187 1.463 . S
C190 N194 1.427 1_455 S
C191 H181 0.929 . S
C191 C189 1.433 1_655 S
C191 N194 1.384 . S
C192 H183 0.929 . S
C192 C184 1.378 . S
C192 C187 1.350 1_565 S
C193 H180 0.929 . S
C193 C185 1.433 . S
C193 N195 1.384 1_565 S
N194 C190 1.427 1_655 S
N194 C191 1.384 . S
N195 C187 1.427 . S
N195 C193 1.384 1_545 S
H196 C202 0.930 . S
H197 C206 0.930 . S
H198 C211 0.929 . S
H199 C209 0.929 . S
H200 C204 0.929 . S
H201 C210 0.929 . S
C202 H196 0.930 . S
C202 C203 1.367 1_544 S
C202 C210 1.378 . S
C203 C202 1.367 1_566 S
C203 C211 1.433 . S
C204 H200 0.929 . S
C204 C206 1.378 . S
C204 C208 1.350 . S
C205 C208 1.463 . S
C205 C210 1.350 1_556 S
C205 N213 1.427 . S
C206 H197 0.930 . S
C206 C204 1.378 . S
C206 C207 1.367 . S
C207 C206 1.367 . S
C207 C209 1.433 1_556 S
C208 C204 1.350 . S
C208 C205 1.463 . S
C208 N212 1.427 1_556 S
C209 H199 0.929 . S
C209 C207 1.433 1_554 S
C209 N212 1.384 . S
C210 H201 0.929 . S
C210 C202 1.378 . S
C210 C205 1.350 1_554 S
C211 H198 0.929 . S
C211 C203 1.433 . S
C211 N213 1.384 1_565 S
N212 C208 1.427 1_554 S
N212 C209 1.384 . S
N213 C205 1.427 . S
N213 C211 1.384 1_545 S
H214 C220 0.930 1_655 S
H215 C224 0.930 . S
H216 C229 0.929 . S
H217 C227 0.929 . S
H218 C222 0.929 . S
H219 C228 0.929 . S
C220 H214 0.930 1_455 S
C220 C221 1.367 1_455 S
C220 C228 1.378 . S
C221 C220 1.367 1_655 S
C221 C229 1.433 1_655 S
C222 H218 0.929 . S
C222 C224 1.378 . S
C222 C226 1.350 . S
C223 C226 1.463 . S
C223 C228 1.350 . S
C223 N231 1.427 . S
C224 H215 0.930 . S
C224 C222 1.378 . S
C224 C225 1.367 . S
C225 C224 1.367 . S
C225 C227 1.433 . S
C226 C222 1.350 . S
C226 C223 1.463 . S
C226 N230 1.427 . S
C227 H217 0.929 . S
C227 C225 1.433 . S
C227 N230 1.384 . S
C228 H219 0.929 . S
C228 C220 1.378 . S
C228 C223 1.350 . S
C229 H216 0.929 . S
C229 C221 1.433 1_455 S
C229 N231 1.384 . S
N230 C226 1.427 . S
N230 C227 1.384 . S
N231 C223 1.427 . S
N231 C229 1.384 . S
H232 C238 0.930 . S
H233 C242 0.930 . S
H234 C247 0.929 . S
H235 C245 0.929 . S
H236 C240 0.929 . S
H237 C246 0.929 . S
C238 H232 0.930 . S
C238 C239 1.367 . S
C238 C246 1.378 . S
C239 C238 1.367 . S
C239 C247 1.433 . S
C240 H236 0.929 . S
C240 C242 1.378 . S
C240 C244 1.350 . S
C241 C244 1.463 . S
C241 C246 1.350 . S
C241 N249 1.427 . S
C242 H233 0.930 . S
C242 C240 1.378 . S
C242 C243 1.367 . S
C243 C242 1.367 . S
C243 C245 1.433 . S
C244 C240 1.350 . S
C244 C241 1.463 . S
C244 N248 1.427 . S
C245 H235 0.929 . S
C245 C243 1.433 . S
C245 N248 1.384 . S
C246 H237 0.929 . S
C246 C238 1.378 . S
C246 C241 1.350 . S
C247 H234 0.929 . S
C247 C239 1.433 . S
C247 N249 1.384 . S
N248 C244 1.427 . S
N248 C245 1.384 . S
N249 C241 1.427 . S
N249 C247 1.384 . S
H250 C256 0.930 . S
H251 C260 0.930 . S
H252 C265 0.929 . S
H253 C263 0.929 . S
H254 C258 0.929 . S
H255 C264 0.929 . S
C256 H250 0.930 . S
C256 C257 1.367 . S
C256 C264 1.378 . S
C257 C256 1.367 . S
C257 C265 1.433 . S
C258 H254 0.929 . S
C258 C260 1.378 . S
C258 C262 1.350 . S
C259 C262 1.463 . S
C259 C264 1.350 . S
C259 N267 1.427 . S
C260 H251 0.930 . S
C260 C258 1.378 . S
C260 C261 1.367 . S
C261 C260 1.367 . S
C261 C263 1.433 . S
C262 C258 1.350 . S
C262 C259 1.463 . S
C262 N266 1.427 . S
C263 H253 0.929 . S
C263 C261 1.433 . S
C263 N266 1.384 . S
C264 H255 0.929 . S
C264 C256 1.378 . S
C264 C259 1.350 . S
C265 H252 0.929 . S
C265 C257 1.433 . S
C265 N267 1.384 . S
N266 C262 1.427 . S
N266 C263 1.384 . S
N267 C259 1.427 . S
N267 C265 1.384 . S
H268 C274 0.930 . S
H269 C278 0.930 . S
H270 C283 0.929 . S
H271 C281 0.929 . S
H272 C276 0.929 . S
H273 C282 0.929 . S
C274 H268 0.930 . S
C274 C275 1.367 . S
C274 C282 1.378 . S
C275 C274 1.367 . S
C275 C283 1.433 . S
C276 H272 0.929 . S
C276 C278 1.378 . S
C276 C280 1.350 . S
C277 C280 1.463 . S
C277 C282 1.350 . S
C277 N285 1.427 . S
C278 H269 0.930 . S
C278 C276 1.378 . S
C278 C279 1.367 . S
C279 C278 1.367 . S
C279 C281 1.433 . S
C280 C276 1.350 . S
C280 C277 1.463 . S
C280 N284 1.427 . S
C281 H271 0.929 . S
C281 C279 1.433 . S
C281 N284 1.384 . S
C282 H273 0.929 . S
C282 C274 1.378 . S
C282 C277 1.350 . S
C283 H270 0.929 . S
C283 C275 1.433 . S
C283 N285 1.384 . S
N284 C280 1.427 . S
N284 C281 1.384 . S
N285 C277 1.427 . S
N285 C283 1.384 . S
H286 C292 0.930 . S
H287 C296 0.930 . S
H288 C301 0.929 . S
H289 C299 0.929 1_545 S
H290 C294 0.929 . S
H291 C300 0.929 . S
C292 H286 0.930 . S
C292 C293 1.367 . S
C292 C300 1.378 . S
C293 C292 1.367 . S
C293 C301 1.433 . S
C294 H290 0.929 . S
C294 C296 1.378 . S
C294 C298 1.350 . S
C295 C298 1.463 . S
C295 C300 1.350 . S
C295 N303 1.427 . S
C296 H287 0.930 . S
C296 C294 1.378 . S
C296 C297 1.367 . S
C297 C296 1.367 . S
C297 C299 1.433 . S
C298 C294 1.350 . S
C298 C295 1.463 . S
C298 N302 1.427 . S
C299 H289 0.929 1_565 S
C299 C297 1.433 . S
C299 N302 1.384 . S
C300 H291 0.929 . S
C300 C292 1.378 . S
C300 C295 1.350 . S
C301 H288 0.929 . S
C301 C293 1.433 . S
C301 N303 1.384 . S
N302 C298 1.427 . S
N302 C299 1.384 . S
N303 C295 1.427 . S
N303 C301 1.384 . S
H304 C310 0.930 . S
H305 C314 0.930 . S
H306 C319 0.929 . S
H307 C317 0.929 . S
H308 C312 0.929 . S
H309 C318 0.929 . S
C310 H304 0.930 . S
C310 C311 1.367 . S
C310 C318 1.378 . S
C311 C310 1.367 . S
C311 C319 1.433 . S
C312 H308 0.929 . S
C312 C314 1.378 . S
C312 C316 1.350 . S
C313 C316 1.463 . S
C313 C318 1.350 . S
C313 N321 1.427 . S
C314 H305 0.930 . S
C314 C312 1.378 . S
C314 C315 1.367 . S
C315 C314 1.367 . S
C315 C317 1.433 . S
C316 C312 1.350 . S
C316 C313 1.463 . S
C316 N320 1.427 . S
C317 H307 0.929 . S
C317 C315 1.433 . S
C317 N320 1.384 . S
C318 H309 0.929 . S
C318 C310 1.378 . S
C318 C313 1.350 . S
C319 H306 0.929 . S
C319 C311 1.433 . S
C319 N321 1.384 . S
N320 C316 1.427 . S
N320 C317 1.384 . S
N321 C313 1.427 . S
N321 C319 1.384 . S
H322 C328 0.930 . S
H323 C332 0.930 . S
H324 C337 0.929 1_545 S
H325 C335 0.929 . S
H326 C330 0.929 . S
H327 C336 0.929 . S
C328 H322 0.930 . S
C328 C329 1.367 . S
C328 C336 1.378 . S
C329 C328 1.367 . S
C329 C337 1.433 . S
C330 H326 0.929 . S
C330 C332 1.378 . S
C330 C334 1.350 . S
C331 C334 1.463 . S
C331 C336 1.350 . S
C331 N339 1.427 . S
C332 H323 0.930 . S
C332 C330 1.378 . S
C332 C333 1.367 . S
C333 C332 1.367 . S
C333 C335 1.433 . S
C334 C330 1.350 . S
C334 C331 1.463 . S
C334 N338 1.427 . S
C335 H325 0.929 . S
C335 C333 1.433 . S
C335 N338 1.384 . S
C336 H327 0.929 . S
C336 C328 1.378 . S
C336 C331 1.350 . S
C337 H324 0.929 1_565 S
C337 C329 1.433 . S
C337 N339 1.384 . S
N338 C334 1.427 . S
N338 C335 1.384 . S
N339 C331 1.427 . S
N339 C337 1.384 . S
H340 C346 0.930 . S
H341 C350 0.930 . S
H342 C355 0.929 . S
H343 C353 0.929 . S
H344 C348 0.929 . S
H345 C354 0.929 . S
C346 H340 0.930 . S
C346 C347 1.367 . S
C346 C354 1.378 . S
C347 C346 1.367 . S
C347 C355 1.433 . S
C348 H344 0.929 . S
C348 C350 1.378 . S
C348 C352 1.350 . S
C349 C352 1.463 . S
C349 C354 1.350 . S
C349 N357 1.427 . S
C350 H341 0.930 . S
C350 C348 1.378 . S
C350 C351 1.367 . S
C351 C350 1.367 . S
C351 C353 1.433 . S
C352 C348 1.350 . S
C352 C349 1.463 . S
C352 N356 1.427 . S
C353 H343 0.929 . S
C353 C351 1.433 . S
C353 N356 1.384 . S
C354 H345 0.929 . S
C354 C346 1.378 . S
C354 C349 1.350 . S
C355 H342 0.929 . S
C355 C347 1.433 . S
C355 N357 1.384 . S
N356 C352 1.427 . S
N356 C353 1.384 . S
N357 C349 1.427 . S
N357 C355 1.384 . S
H358 C364 0.930 . S
H359 C368 0.930 . S
H360 C373 0.929 . S
H361 C371 0.929 . S
H362 C366 0.929 . S
H363 C372 0.929 . S
C364 H358 0.930 . S
C364 C365 1.367 . S
C364 C372 1.378 . S
C365 C364 1.367 . S
C365 C373 1.433 . S
C366 H362 0.929 . S
C366 C368 1.378 . S
C366 C370 1.350 . S
C367 C370 1.463 . S
C367 C372 1.350 . S
C367 N375 1.427 . S
C368 H359 0.930 . S
C368 C366 1.378 . S
C368 C369 1.367 . S
C369 C368 1.367 . S
C369 C371 1.433 . S
C370 C366 1.350 . S
C370 C367 1.463 . S
C370 N374 1.427 . S
C371 H361 0.929 . S
C371 C369 1.433 . S
C371 N374 1.384 . S
C372 H363 0.929 . S
C372 C364 1.378 . S
C372 C367 1.350 . S
C373 H360 0.929 . S
C373 C365 1.433 . S
C373 N375 1.384 . S
N374 C370 1.427 . S
N374 C371 1.384 . S
N375 C367 1.427 . S
N375 C373 1.384 . S
C167 C98 0.563 1_565 S
C171 C18 0.553 . S
C185 C138 0.530 . S
C189 C58 0.514 . S
C203 C89 0.863 1_556 S
C207 C9 0.875 1_556 S
C221 C49 0.863 . S
C225 C129 0.875 . S
C239 C55 1.060 . S
C243 C6 1.087 . S
C257 C46 1.082 . S
C261 C95 1.059 . S
C275 C135 1.056 . S
C279 C86 1.075 . S
C293 C126 1.070 . S
C297 C15 1.044 . S
C311 C99 4.564 . S
C315 C130 4.697 1_655 S
C329 C10 4.696 1_565 S
C333 C139 4.562 . S
C347 C50 4.697 . S
C351 C19 4.562 . S
C365 C90 4.697 . S
C369 C59 4.567 . S
