# Generated by pormake.
# Topology afw, (4)-cn, num edge types: 1
# Building blocks:
#     Node 0, Type 0, BuildingBlock: UXUYUI_clean_sbu_0, # of connection points: 4
#     Node 1, Type 0, BuildingBlock: UXUYUI_clean_sbu_0, # of connection points: 4
#     Node 2, Type 0, BuildingBlock: UXUYUI_clean_sbu_0, # of connection points: 4
#     Node 3, Type 0, BuildingBlock: UXUYUI_clean_sbu_0, # of connection points: 4
#     Node 4, Type 0, BuildingBlock: UXUYUI_clean_sbu_0, # of connection points: 4
#     Node 5, Type 0, BuildingBlock: UXUYUI_clean_sbu_0, # of connection points: 4
#     Node 6, Type 0, BuildingBlock: UXUYUI_clean_sbu_0, # of connection points: 4
#     Node 7, Type 0, BuildingBlock: UXUYUI_clean_sbu_0, # of connection points: 4
#     Node 8, Type 0, BuildingBlock: UXUYUI_clean_sbu_0, # of connection points: 4
#     Edge 9, Type (0, 0), BuildingBlock: AJUNOK_clean_linker_0, # of connection points: 2
#     Edge 10, Type (0, 0), BuildingBlock: AJUNOK_clean_linker_0, # of connection points: 2
#     Edge 11, Type (0, 0), BuildingBlock: AJUNOK_clean_linker_0, # of connection points: 2
#     Edge 12, Type (0, 0), BuildingBlock: AJUNOK_clean_linker_0, # of connection points: 2
#     Edge 13, Type (0, 0), BuildingBlock: AJUNOK_clean_linker_0, # of connection points: 2
#     Edge 14, Type (0, 0), BuildingBlock: AJUNOK_clean_linker_0, # of connection points: 2
#     Edge 15, Type (0, 0), BuildingBlock: AJUNOK_clean_linker_0, # of connection points: 2
#     Edge 16, Type (0, 0), BuildingBlock: AJUNOK_clean_linker_0, # of connection points: 2
#     Edge 17, Type (0, 0), BuildingBlock: AJUNOK_clean_linker_0, # of connection points: 2
#     Edge 18, Type (0, 0), BuildingBlock: AJUNOK_clean_linker_0, # of connection points: 2
#     Edge 19, Type (0, 0), BuildingBlock: AJUNOK_clean_linker_0, # of connection points: 2
#     Edge 20, Type (0, 0), BuildingBlock: AJUNOK_clean_linker_0, # of connection points: 2
#     Edge 21, Type (0, 0), BuildingBlock: AJUNOK_clean_linker_0, # of connection points: 2
#     Edge 22, Type (0, 0), BuildingBlock: AJUNOK_clean_linker_0, # of connection points: 2
#     Edge 23, Type (0, 0), BuildingBlock: AJUNOK_clean_linker_0, # of connection points: 2
#     Edge 24, Type (0, 0), BuildingBlock: AJUNOK_clean_linker_0, # of connection points: 2
#     Edge 25, Type (0, 0), BuildingBlock: AJUNOK_clean_linker_0, # of connection points: 2
#     Edge 26, Type (0, 0), BuildingBlock: AJUNOK_clean_linker_0, # of connection points: 2
# Relax obj value: 0.350
# Max RMSD: 0.270
# Mean RMSD: 0.270
data_MOF--net-afw--node1-UXUYUI_clean_sbu_0--edge1-AJUNOK_clean_linker_0
_symmetry_space_group_name_H-M    P1
_symmetry_Int_Tables_number       1
_symmetry_cell_setting            triclinic
loop_
_symmetry_equiv_pos_as_xyz
'x, y, z'
_cell_length_a     47.398348
_cell_length_b     47.37221
_cell_length_c     44.365803
_cell_angle_alpha  90.0089
_cell_angle_beta   90.002035
_cell_angle_gamma 119.97998
loop_
_atom_site_label
_atom_site_type_symbol
_atom_site_fract_x
_atom_site_fract_y
_atom_site_fract_z
_atom_type_partial_charge
Li0 Li 0.01163 0.24177 0.0284 0.0
Li1 Li 0.98328 0.19368 0.99601 0.0
Li2 Li 0.04278 0.22258 -0.00072 0.0
Li3 Li 0.01472 0.24551 0.97302 0.0
C4 C 0.01835 0.17819 0.04459 0.0
N5 N 0.03566 0.13498 0.0684 0.0
C6 C 0.00835 0.14821 0.03053 0.0
C7 C 0.03704 0.18603 0.0709 0.0
C8 C 0.01736 0.12674 0.04288 0.0
C9 C 0.04558 0.16391 0.08254 0.0
C10 C 0.94298 0.21451 0.00157 0.0
C11 C 0.88961 0.18312 0.97942 0.0
N12 N 0.87611 0.17751 0.0074 0.0
C13 C 0.9286 0.2085 0.03009 0.0
C14 C 0.92337 0.20181 0.976 0.0
C15 C 0.89474 0.18973 0.03256 0.0
C16 C 0.00814 0.29025 0.06134 0.0
N17 N 0.00815 0.26168 0.06394 0.0
C18 C -0.00129 0.26002 0.11689 0.0
C19 C 0.00369 0.24648 0.09093 0.0
C20 C -0.00211 0.28915 0.11478 0.0
C21 C 0.00284 0.30445 0.08666 0.0
H22 H 0.01143 0.3015 0.03943 0.0
H23 H 0.00311 0.22341 0.09213 0.0
C24 C 0.93673 0.13486 0.96776 0.0
N25 N 0.94608 0.15109 0.99441 0.0
C26 C 0.91395 0.10163 0.96726 0.0
C27 C 0.90994 0.10273 0.02151 0.0
C28 C 0.93238 0.13609 0.02092 0.0
C29 C 0.90147 0.08486 0.99452 0.0
H30 H 0.94813 0.14726 0.94707 0.0
H31 H 0.94053 0.1496 0.0418 0.0
C32 C 0.07825 0.28811 0.01875 0.0
N33 N 0.1329 0.32976 0.05175 0.0
C34 C 0.10263 0.31695 0.00582 0.0
C35 C 0.08159 0.28058 0.0485 0.0
C36 C 0.13012 0.33765 0.02285 0.0
C37 C 0.10939 0.30191 0.06482 0.0
C38 C 0.02104 0.20926 0.93299 0.0
C39 C 0.05242 0.21986 0.92199 0.0
C40 C 0.99625 0.20449 0.91295 0.0
C41 C 0.05846 0.22556 0.89113 0.0
C42 C 0.00332 0.21056 0.88227 0.0
N43 N 0.03401 0.22087 0.87209 0.0
C44 C 0.06971 0.18455 0.98661 0.0
C45 C 0.10879 0.23388 0.00977 0.0
C46 C 0.09138 0.17283 0.98697 0.0
N47 N 0.07828 0.21416 -0.00133 0.0
C48 C 0.13154 0.22325 0.01016 0.0
C49 C 0.12247 0.19212 -0.0008 0.0
H50 H 0.04562 0.16966 0.97728 0.0
H51 H 0.11552 0.25755 0.01872 0.0
C52 C 0.99522 0.27574 0.92761 0.0
N53 N 0.02003 0.27313 0.94007 0.0
C54 C 0.00095 0.29554 0.90233 0.0
C55 C 0.05758 0.30978 0.90383 0.0
C56 C 0.0508 0.28993 0.929 0.0
C57 C 0.03246 0.31261 0.89003 0.0
H58 H 0.97103 0.26227 0.93709 0.0
H59 H 0.06996 0.28724 0.9394 0.0
O60 O 0.01019 0.19983 0.03254 0.0
O61 O 0.97612 0.23209 -0.00126 0.0
O62 O 0.05089 0.26797 0.00253 0.0
O63 O 0.01481 0.20431 0.96325 0.0
H64 H 0.99451 0.14182 0.00984 0.0
H65 H 0.04497 0.20892 0.08232 0.0
H66 H 0.00999 0.10362 0.03204 0.0
H67 H 0.06011 0.16976 0.10283 0.0
H68 H 0.87414 0.17297 0.95985 0.0
H69 H 0.9434 0.21796 0.05013 0.0
H70 H 0.93412 0.20596 0.95378 0.0
H71 H 0.88328 0.18477 0.0545 0.0
H72 H 0.99425 0.24722 0.13815 0.0
H73 H 0.0021 0.32683 0.08428 0.0
H74 H 0.90736 0.0889 0.94587 0.0
H75 H 0.90092 0.09075 0.04301 0.0
H76 H 0.10031 0.32335 0.98291 0.0
H77 H 0.06307 0.25839 0.05877 0.0
H78 H 0.14921 0.36002 0.01311 0.0
H79 H 0.1123 0.29629 0.08784 0.0
H80 H 0.07205 0.22416 0.93712 0.0
H81 H 0.972 0.19696 0.92106 0.0
H82 H 0.08266 0.23392 0.88236 0.0
H83 H 0.98444 0.20728 0.86658 0.0
H84 H 0.08381 0.14876 0.97812 0.0
H85 H 0.15552 0.23869 0.01966 0.0
H86 H 0.98108 0.29755 0.89259 0.0
H87 H 0.08212 0.32229 0.89487 0.0
Li88 Li 0.83344 0.80385 0.00768 0.0
Li89 Li 0.78246 0.78316 0.03341 0.0
Li90 Li 0.7839 0.78659 0.97787 0.0
Li91 Li 0.80497 0.83503 0.00995 0.0
C92 C 0.79966 0.73714 0.9884 0.0
N93 N 0.80657 0.69136 0.95552 0.0
C94 C 0.79137 0.707 0.0012 0.0
C95 C 0.81104 0.74375 0.95875 0.0
C96 C 0.79519 0.68425 0.98427 0.0
C97 C 0.81448 0.72038 0.94252 0.0
C98 C 0.82415 0.81875 0.07373 0.0
C99 C 0.80502 0.82113 0.12354 0.0
N100 N 0.82165 0.80706 0.13499 0.0
C101 C 0.84109 0.80434 0.086 0.0
C102 C 0.80602 0.82729 0.09265 0.0
C103 C 0.83954 0.79866 0.11703 0.0
C104 C 0.89806 0.83696 0.02492 0.0
N105 N 0.87681 0.81047 0.00861 0.0
C106 C 0.92036 0.80304 0.99101 0.0
C107 C 0.88723 0.79309 0.99229 0.0
C108 C 0.94283 0.83107 0.00668 0.0
C109 C 0.93128 0.84767 0.02436 0.0
H110 H 0.88935 0.85069 0.0374 0.0
H111 H 0.87027 0.77219 0.97946 0.0
C112 C 0.73398 0.75724 0.08043 0.0
N113 N 0.75912 0.75638 0.06653 0.0
C114 C 0.71948 0.73802 0.10594 0.0
C115 C 0.75645 0.71694 0.10153 0.0
C116 C 0.77031 0.73665 0.07641 0.0
C117 C 0.73093 0.71771 0.11674 0.0
H118 H 0.72555 0.77314 0.07202 0.0
H119 H 0.7907 0.73696 0.06519 0.0
C120 C 0.85678 0.84819 0.96415 0.0
N121 N 0.9204 0.88869 0.94572 0.0
C122 C 0.87676 0.8773 0.97953 0.0
C123 C 0.86932 0.83973 0.9394 0.0
C124 C 0.90877 0.89746 0.96982 0.0
C125 C 0.90152 0.86049 0.93047 0.0
C126 C 0.74373 0.81584 0.00383 0.0
C127 C 0.73436 0.82066 0.97529 0.0
C128 C 0.73813 0.83004 0.02906 0.0
C129 C 0.71962 0.83974 0.97247 0.0
C130 C 0.72337 0.84899 0.02529 0.0
N131 N 0.7145 0.85341 0.99731 0.0
C132 C 0.72891 0.74379 0.94443 0.0
C133 C 0.77466 0.77932 0.91475 0.0
C134 C 0.70973 0.73127 0.91864 0.0
N135 N 0.76058 0.76758 0.94199 0.0
C136 C 0.75662 0.76699 0.88837 0.0
C137 C 0.72355 0.74298 0.89011 0.0
H138 H 0.71829 0.73546 0.96651 0.0
H139 H 0.7997 0.79871 0.91355 0.0
C140 C 0.82111 0.89718 0.03485 0.0
N141 N 0.81145 0.87805 0.00982 0.0
C142 C 0.83118 0.93031 0.03255 0.0
C143 C 0.82016 0.92302 0.97902 0.0
C144 C 0.81008 0.89007 0.98238 0.0
C145 C 0.83174 0.94364 0.00417 0.0
H146 H 0.8227 0.88719 0.05624 0.0
H147 H 0.8028 0.87435 0.96282 0.0
O148 O 0.79486 0.75918 0.00428 0.0
O149 O 0.82455 0.82357 0.04327 0.0
O150 O 0.82565 0.82754 0.97399 0.0
O151 O 0.75885 0.79783 0.007 0.0
H152 H 0.78187 0.70108 0.02389 0.0
H153 H 0.81768 0.76691 0.94858 0.0
H154 H 0.78896 0.66088 0.99394 0.0
H155 H 0.8235 0.72536 0.91962 0.0
H156 H 0.79084 0.82735 0.13839 0.0
H157 H 0.85481 0.79704 0.0717 0.0
H158 H 0.79231 0.83794 0.08354 0.0
H159 H 0.85237 0.78735 0.12679 0.0
H160 H 0.92841 0.7894 0.9774 0.0
H161 H 0.94792 0.86959 0.03655 0.0
H162 H 0.69967 0.73902 0.1171 0.0
H163 H 0.76615 0.70187 0.10947 0.0
H164 H 0.86808 0.88394 -0.00073 0.0
H165 H 0.85459 0.81726 0.9273 0.0
H166 H 0.92446 0.91994 0.98164 0.0
H167 H 0.91152 0.85411 0.91147 0.0
H168 H 0.73873 0.81013 0.95547 0.0
H169 H 0.74553 0.82687 0.05127 0.0
H170 H 0.71236 0.84378 0.9505 0.0
H171 H 0.71907 0.86028 0.0446 0.0
H172 H 0.68411 0.71363 0.92118 0.0
H173 H 0.76825 0.7767 0.86686 0.0
H174 H 0.84037 0.94572 0.05231 0.0
H175 H 0.82035 0.93261 0.95681 0.0
Li176 Li 0.22128 0.04201 -0.00214 0.0
Li177 Li 0.24118 0.01448 0.03098 0.0
Li178 Li 0.24492 0.01318 0.97595 0.0
Li179 Li 0.19289 0.98242 -0.0005 0.0
C180 C 0.28206 0.08426 0.00641 0.0
N181 N 0.31074 0.15091 0.01395 0.0
C182 C 0.2918 0.09806 0.03506 0.0
C183 C 0.28702 0.1044 0.98158 0.0
C184 C 0.30626 0.1318 0.0384 0.0
C185 C 0.3015 0.13802 0.98587 0.0
C186 C 0.16817 0.00398 0.04224 0.0
C187 C 0.12316 0.97459 0.07647 0.0
N188 N 0.10469 0.98318 0.05959 0.0
C189 C 0.14866 0.01247 0.02524 0.0
C190 C 0.15527 0.98485 0.06809 0.0
C191 C 0.11669 0.00176 0.03439 0.0
C192 C 0.20618 0.08763 0.97113 0.0
N193 N 0.21463 0.07838 0.99701 0.0
C194 C 0.20595 0.11597 0.02576 0.0
C195 C 0.21528 0.09238 0.02393 0.0
C196 C 0.19607 0.12522 -0.00043 0.0
C197 C 0.19695 0.11136 0.97187 0.0
H198 H 0.20508 0.07552 0.95019 0.0
H199 H 0.22165 0.08412 0.04419 0.0
C200 C 0.29322 0.02237 0.06676 0.0
N201 N 0.2629 0.01861 0.06773 0.0
C202 C 0.31136 0.02858 0.09318 0.0
C203 C 0.26613 0.0257 0.12107 0.0
C204 C 0.24912 0.02013 0.09407 0.0
C205 C 0.29785 0.03044 0.12079 0.0
H206 H 0.30367 0.02164 0.0453 0.0
H207 H 0.22521 0.01769 0.094 0.0
C208 C 0.20443 0.0057 0.93393 0.0
N209 N 0.20824 0.99403 0.87343 0.0
C210 C 0.18922 0.97375 0.923 0.0
C211 C 0.22158 0.03171 0.91406 0.0
C212 C 0.19139 0.96836 0.89234 0.0
C213 C 0.22324 0.0253 0.88357 0.0
C214 C 0.22373 0.94898 0.02169 0.0
C215 C 0.22967 0.92489 0.01036 0.0
C216 C 0.21161 0.946 0.05093 0.0
C217 C 0.22302 0.89806 0.02837 0.0
C218 C 0.20535 0.91887 0.06828 0.0
N219 N 0.21111 0.89564 0.05673 0.0
C220 C 0.29332 0.03846 0.9294 0.0
C221 C 0.26233 0.98097 0.93442 0.0
C222 C 0.30865 0.03548 0.90369 0.0
N223 N 0.27025 0.01134 0.94378 0.0
C224 C 0.2773 0.97686 0.90916 0.0
C225 C 0.30048 0.00433 0.89334 0.0
H226 H 0.29904 0.0623 0.93727 0.0
H227 H 0.24338 0.95991 0.94592 0.0
C228 C 0.12915 0.95181 0.97983 0.0
N229 N 0.14937 0.94591 0.99707 0.0
C230 C 0.09589 0.92953 0.97885 0.0
C231 C 0.10462 0.89465 0.01264 0.0
C232 C 0.13785 0.91767 0.01293 0.0
C233 C 0.08321 0.9007 0.99569 0.0
H234 H 0.13868 0.9746 0.96777 0.0
H235 H 0.15395 0.91318 0.02654 0.0
O236 O 0.26728 0.0512 0.00274 0.0
O237 O 0.1993 0.01347 0.03314 0.0
O238 O 0.20339 0.01142 0.96405 0.0
O239 O 0.23132 0.97601 0.00471 0.0
H240 H 0.28805 0.08292 0.05458 0.0
H241 H 0.27913 0.09414 0.95933 0.0
H242 H 0.31382 0.14278 0.06046 0.0
H243 H 0.30523 0.15385 0.96689 0.0
H244 H 0.11289 0.95971 0.09637 0.0
H245 H 0.15772 0.02644 0.00473 0.0
H246 H 0.16973 0.97778 0.08154 0.0
H247 H 0.10132 0.008 0.0213 0.0
H248 H 0.20528 0.12598 0.04752 0.0
H249 H 0.18873 0.11736 0.95134 0.0
H250 H 0.33609 0.03313 0.09178 0.0
H251 H 0.25486 0.02698 0.14187 0.0
H252 H 0.17636 0.95328 0.93808 0.0
H253 H 0.23414 0.05656 0.92216 0.0
H254 H 0.17987 0.94376 0.88362 0.0
H255 H 0.23667 0.04518 0.868 0.0
H256 H 0.2395 0.92693 0.98796 0.0
H257 H 0.20649 0.96408 0.05993 0.0
H258 H 0.22745 0.87924 0.01984 0.0
H259 H 0.19579 0.91624 0.09089 0.0
H260 H 0.32629 0.05712 0.89178 0.0
H261 H 0.2699 0.95246 0.90136 0.0
H262 H 0.08009 0.93554 0.96614 0.0
H263 H 0.09564 0.87268 0.02601 0.0
Li264 Li 0.65093 0.52852 0.33892 0.0
Li265 Li 0.67859 0.57787 0.36945 0.0
Li266 Li 0.68394 0.58126 0.31322 0.0
Li267 Li 0.71176 0.55986 0.34424 0.0
C268 C 0.61289 0.55803 0.33039 0.0
N269 N 0.54992 0.54065 0.31424 0.0
C270 C 0.59064 0.55577 0.35229 0.0
C271 C 0.60322 0.55196 0.30021 0.0
C272 C 0.55889 0.54682 0.3437 0.0
C273 C 0.57125 0.54306 0.29252 0.0
C274 C 0.67168 0.52842 0.40499 0.0
C275 C 0.68898 0.5366 0.45694 0.0
N276 N 0.65852 0.51333 0.46539 0.0
C277 C 0.64063 0.50436 0.41415 0.0
C278 C 0.69616 0.54446 0.4265 0.0
C279 C 0.63443 0.49716 0.4448 0.0
C280 C 0.62713 0.46399 0.32938 0.0
N281 N 0.61622 0.48494 0.33565 0.0
C282 C 0.56132 0.44082 0.33857 0.0
C283 C 0.58404 0.47415 0.34036 0.0
C284 C 0.57204 0.41875 0.33179 0.0
C285 C 0.60541 0.4307 0.32732 0.0
H286 H 0.65294 0.47325 0.3264 0.0
H287 H 0.57598 0.49113 0.34603 0.0
C288 C 0.69695 0.6293 0.41147 0.0
N289 N 0.6741 0.59814 0.40449 0.0
C290 C 0.6933 0.64421 0.43719 0.0
C291 C 0.64291 0.59457 0.44799 0.0
C292 C 0.64734 0.58081 0.42198 0.0
C293 C 0.66598 0.62667 0.45572 0.0
H294 H 0.71786 0.64261 0.39699 0.0
H295 H 0.6293 0.5563 0.41564 0.0
C296 C 0.68049 0.52848 0.27911 0.0
N297 N 0.67125 0.50381 0.22122 0.0
C298 C 0.70666 0.53039 0.26287 0.0
C299 C 0.6495 0.51347 0.26608 0.0
C300 C 0.70154 0.51796 0.23357 0.0
C301 C 0.64535 0.50128 0.23675 0.0
C302 C 0.75128 0.62313 0.34677 0.0
C303 C 0.7699 0.64026 0.32176 0.0
C304 C 0.76673 0.62467 0.37404 0.0
C305 C 0.8038 0.65825 0.32434 0.0
C306 C 0.80068 0.64289 0.3757 0.0
N307 N 0.81836 0.65914 0.35101 0.0
C308 C 0.67108 0.62182 0.27509 0.0
C309 C 0.70889 0.60717 0.25643 0.0
C310 C 0.67442 0.63976 0.24899 0.0
N311 N 0.688 0.60575 0.2781 0.0
C312 C 0.71295 0.62473 0.23006 0.0
C313 C 0.69558 0.64128 0.2261 0.0
H314 H 0.655 0.62069 0.29293 0.0
H315 H 0.72286 0.59512 0.25986 0.0
C316 C 0.74587 0.53071 0.36654 0.0
N317 N 0.74793 0.55299 0.34609 0.0
C318 C 0.76778 0.51924 0.36554 0.0
C319 C 0.79468 0.55507 0.32336 0.0
C320 C 0.77206 0.56577 0.32508 0.0
C321 C 0.79197 0.53079 0.34323 0.0
H322 H 0.72607 0.52041 0.38256 0.0
H323 H 0.77259 0.58277 0.30853 0.0
O324 O 0.64411 0.56686 0.33845 0.0
O325 O 0.67815 0.53593 0.37509 0.0
O326 O 0.68512 0.54046 0.3079 0.0
O327 O 0.71809 0.60508 0.34461 0.0
H328 H 0.59773 0.56078 0.37568 0.0
H329 H 0.62026 0.55441 0.28284 0.0
H330 H 0.54138 0.54479 0.36044 0.0
H331 H 0.56345 0.5382 0.26925 0.0
H332 H 0.70765 0.54897 0.47385 0.0
H333 H 0.62142 0.49158 0.39783 0.0
H334 H 0.72041 0.56283 0.41979 0.0
H335 H 0.61045 0.47875 0.45223 0.0
H336 H 0.53577 0.43236 0.34252 0.0
H337 H 0.61476 0.41437 0.32298 0.0
H338 H 0.7116 0.66903 0.44262 0.0
H339 H 0.62137 0.58048 0.46164 0.0
H340 H 0.73074 0.54158 0.27267 0.0
H341 H 0.62877 0.51082 0.27855 0.0
H342 H 0.72164 0.51953 0.22068 0.0
H343 H 0.62149 0.48966 0.2264 0.0
H344 H 0.75834 0.6396 0.30057 0.0
H345 H 0.75266 0.61186 0.39367 0.0
H346 H 0.81852 0.67148 0.30512 0.0
H347 H 0.81297 0.64413 0.39663 0.0
H348 H 0.6605 0.6521 0.24663 0.0
H349 H 0.72996 0.62583 0.21314 0.0
H350 H 0.76493 0.50039 0.38114 0.0
H351 H 0.81268 0.56406 0.30551 0.0
Li352 Li 0.49954 0.13843 0.33342 0.0
Li353 Li 0.45314 0.11864 0.36709 0.0
Li354 Li 0.44688 0.12133 0.31092 0.0
Li355 Li 0.47339 0.16996 0.34142 0.0
C356 C 0.4714 0.07244 0.33578 0.0
N357 N 0.4937 0.02864 0.33926 0.0
C358 C 0.47929 0.06457 0.36371 0.0
C359 C 0.47433 0.05759 0.30967 0.0
C360 C 0.49068 0.0425 0.36499 0.0
C361 C 0.48579 0.03563 0.31188 0.0
C362 C 0.52633 0.18419 0.37876 0.0
C363 C 0.57073 0.21366 0.41358 0.0
N364 N 0.58812 0.23516 0.39137 0.0
C365 C 0.54474 0.2066 0.35626 0.0
C366 C 0.53949 0.18773 0.40764 0.0
C367 C 0.57587 0.2322 0.3631 0.0
C368 C 0.56194 0.15774 0.30687 0.0
N369 N 0.54153 0.14209 0.33031 0.0
C370 C 0.58503 0.14308 0.35845 0.0
C371 C 0.5523 0.13407 0.35553 0.0
C372 C 0.60695 0.16105 0.3354 0.0
C373 C 0.59489 0.16728 0.30889 0.0
H374 H 0.55347 0.16501 0.2875 0.0
H375 H 0.53599 0.12282 0.37435 0.0
C376 C 0.40342 0.06624 0.39838 0.0
N377 N 0.43299 0.09356 0.40154 0.0
C378 C 0.38918 0.04519 0.42276 0.0
C379 C 0.43585 0.08132 0.45317 0.0
C380 C 0.44909 0.10172 0.42827 0.0
C381 C 0.40585 0.05236 0.45033 0.0
H382 H 0.3914 0.06041 0.37668 0.0
H383 H 0.4726 0.12358 0.42997 0.0
C384 C 0.49827 0.16483 0.27374 0.0
N385 N 0.51767 0.17114 0.21423 0.0
C386 C 0.5112 0.19497 0.25927 0.0
C387 C 0.49522 0.13791 0.25797 0.0
C388 C 0.52089 0.19767 0.22917 0.0
C389 C 0.50516 0.14159 0.22789 0.0
C390 C 0.41276 0.15106 0.35306 0.0
C391 C 0.39695 0.16013 0.33188 0.0
C392 C 0.41447 0.16054 0.38314 0.0
C393 C 0.38323 0.17882 0.34116 0.0
C394 C 0.40045 0.17923 0.39152 0.0
N395 N 0.38527 0.18792 0.37053 0.0
C396 C 0.40235 0.0693 0.27412 0.0
C397 C 0.41721 0.12254 0.25744 0.0
C398 C 0.38196 0.05559 0.2492 0.0
N399 N 0.4194 0.10217 0.27761 0.0
C400 C 0.3975 0.10996 0.23208 0.0
C401 C 0.37954 0.07609 0.22772 0.0
H402 H 0.40445 0.05379 0.2908 0.0
H403 H 0.43093 0.1486 0.26105 0.0
C404 C 0.49277 0.23243 0.36753 0.0
N405 N 0.47955 0.21278 0.34313 0.0
C406 C 0.50223 0.26541 0.36569 0.0
C407 C 0.48106 0.25638 0.31486 0.0
C408 C 0.4726 0.22376 0.31748 0.0
C409 C 0.49753 0.27798 0.33865 0.0
H410 H 0.49746 0.22291 0.38788 0.0
H411 H 0.46155 0.20737 0.29863 0.0
O412 O 0.46019 0.09399 0.33409 0.0
O413 O 0.49632 0.15797 0.37235 0.0
O414 O 0.48795 0.16164 0.30298 0.0
O415 O 0.4271 0.13353 0.34432 0.0
H416 H 0.47709 0.0757 0.38418 0.0
H417 H 0.4676 0.06273 0.28793 0.0
H418 H 0.49714 0.03643 0.38644 0.0
H419 H 0.48829 0.02406 0.29183 0.0
H420 H 0.58121 0.2166 0.43582 0.0
H421 H 0.53532 0.20427 0.33369 0.0
H422 H 0.52587 0.17047 0.42527 0.0
H423 H 0.59034 0.24963 0.34589 0.0
H424 H 0.59343 0.13764 0.37919 0.0
H425 H 0.61115 0.18148 0.29078 0.0
H426 H 0.36602 0.02301 0.41983 0.0
H427 H 0.44912 0.08779 0.47428 0.0
H428 H 0.51377 0.21607 0.27117 0.0
H429 H 0.48524 0.11448 0.26885 0.0
H430 H 0.53092 0.22086 0.21768 0.0
H431 H 0.50288 0.12093 0.2154 0.0
H432 H 0.39555 0.15304 0.30849 0.0
H433 H 0.42682 0.15382 0.39974 0.0
H434 H 0.37103 0.18617 0.32501 0.0
H435 H 0.40172 0.1869 0.41468 0.0
H436 H 0.36789 0.02933 0.24705 0.0
H437 H 0.39641 0.12659 0.21599 0.0
H438 H 0.51473 0.28122 0.38462 0.0
H439 H 0.47598 0.26486 0.294 0.0
Li440 Li 0.9096 0.35182 0.36145 0.0
Li441 Li 0.88864 0.37877 0.32857 0.0
Li442 Li 0.85665 0.31834 0.33618 0.0
Li443 Li 0.90584 0.34404 0.30547 0.0
C444 C 0.85493 0.34875 0.39374 0.0
N445 N 0.82542 0.33818 0.44957 0.0
C446 C 0.85298 0.37388 0.40834 0.0
C447 C 0.84145 0.31813 0.40738 0.0
C448 C 0.83811 0.3681 0.43661 0.0
C449 C 0.82673 0.31329 0.43563 0.0
C450 C 0.9518 0.41767 0.32772 0.0
C451 C 0.97375 0.46796 0.29983 0.0
N452 N 0.98809 0.48486 0.32544 0.0
C453 C 0.96694 0.4355 0.35372 0.0
C454 C 0.9554 0.43396 0.30049 0.0
C455 C 0.98513 0.46947 0.35212 0.0
C456 C 0.95598 0.34552 0.3958 0.0
N457 N 0.9347 0.35688 0.39631 0.0
C458 C 0.95153 0.37792 0.44598 0.0
C459 C 0.93219 0.37288 0.42066 0.0
C460 C 0.97397 0.36682 0.44599 0.0
C461 C 0.97599 0.35023 0.42062 0.0
H462 H 0.9576 0.33312 0.37597 0.0
H463 H 0.91582 0.3825 0.42016 0.0
C464 C 0.86324 0.41505 0.30242 0.0
N465 N 0.88288 0.41553 0.32496 0.0
C466 C 0.85252 0.43759 0.30213 0.0
C467 C 0.88381 0.46188 0.34738 0.0
C468 C 0.89388 0.43874 0.34685 0.0
C469 C 0.86203 0.46072 0.32532 0.0
H470 H 0.85432 0.39597 0.28566 0.0
H471 H 0.90879 0.43804 0.36494 0.0
C472 C 0.88722 0.28075 0.34789 0.0
N473 N 0.87343 0.21998 0.36818 0.0
C474 C 0.88411 0.25692 0.32741 0.0
C475 C 0.88392 0.27383 0.37874 0.0
C476 C 0.87696 0.2263 0.3381 0.0
C477 C 0.87678 0.24293 0.38854 0.0
C478 C 0.85755 0.33686 0.26894 0.0
C479 C 0.8326 0.30612 0.26005 0.0
C480 C 0.87561 0.36029 0.24711 0.0
C481 C 0.82648 0.29915 0.22935 0.0
C482 C 0.86877 0.35235 0.21664 0.0
N483 N 0.84457 0.3222 0.20847 0.0
C484 C 0.79168 0.2943 0.34546 0.0
C485 C 0.80292 0.25157 0.33633 0.0
C486 C 0.75849 0.27213 0.34761 0.0
N487 N 0.8131 0.28377 0.34005 0.0
C488 C 0.76975 0.22844 0.33821 0.0
C489 C 0.74718 0.23873 0.34405 0.0
H490 H 0.80045 0.32012 0.34765 0.0
H491 H 0.82028 0.24382 0.33136 0.0
C492 C 0.95667 0.35969 0.26336 0.0
N493 N 0.92563 0.33736 0.2712 0.0
C494 C 0.97095 0.35461 0.2379 0.0
C495 C 0.92094 0.30387 0.22916 0.0
C496 C 0.90786 0.30967 0.25492 0.0
C497 C 0.95284 0.32646 0.22049 0.0
H498 H 0.9703 0.38139 0.27686 0.0
H499 H 0.88341 0.29216 0.26189 0.0
O500 O 0.8693 0.35404 0.36595 0.0
O501 O 0.93357 0.38443 0.32891 0.0
O502 O 0.89453 0.31097 0.33776 0.0
O503 O 0.86414 0.34401 0.29889 0.0
H504 H 0.86296 0.39765 0.39803 0.0
H505 H 0.84183 0.29814 0.39612 0.0
H506 H 0.83661 0.38739 0.44822 0.0
H507 H 0.8162 0.28969 0.44642 0.0
H508 H 0.97658 0.48091 0.27895 0.0
H509 H 0.96452 0.42327 0.37494 0.0
H510 H 0.94402 0.42049 0.28014 0.0
H511 H 0.99684 0.4836 0.37209 0.0
H512 H 0.94969 0.39124 0.46502 0.0
H513 H 0.99294 0.3412 0.41997 0.0
H514 H 0.83561 0.43592 0.28484 0.0
H515 H 0.89112 0.47897 0.36594 0.0
H516 H 0.88702 0.2619 0.30351 0.0
H517 H 0.88713 0.29214 0.39503 0.0
H518 H 0.87426 0.20758 0.32247 0.0
H519 H 0.87405 0.23724 0.41234 0.0
H520 H 0.8183 0.28774 0.27664 0.0
H521 H 0.89485 0.38425 0.25363 0.0
H522 H 0.80738 0.2754 0.22213 0.0
H523 H 0.88272 0.37016 0.1995 0.0
H524 H 0.74176 0.28112 0.35122 0.0
H525 H 0.7618 0.20287 0.33498 0.0
H526 H 0.99563 0.37255 0.23169 0.0
H527 H 0.90643 0.28177 0.21631 0.0
Li528 Li 0.3341 0.9106 0.69631 0.0
Li529 Li 0.30314 0.85892 0.67415 0.0
Li530 Li 0.36187 0.88554 0.67434 0.0
Li531 Li 0.33333 0.90524 0.64034 0.0
C532 C 0.32931 0.87267 0.7395 0.0
N533 N 0.32311 0.88101 0.80036 0.0
C534 C 0.29856 0.86198 0.75209 0.0
C535 C 0.35691 0.88755 0.75795 0.0
C536 C 0.29594 0.86645 0.78287 0.0
C537 C 0.35326 0.89153 0.78865 0.0
C538 C 0.26432 0.88247 0.66082 0.0
C539 C 0.22128 0.86722 0.62439 0.0
N540 N 0.19884 0.853 0.64671 0.0
C541 C 0.24081 0.86786 0.68342 0.0
C542 C 0.25449 0.88226 0.63107 0.0
C543 C 0.20784 0.85302 0.67582 0.0
C544 C 0.36282 0.95681 0.74376 0.0
N545 N 0.3351 0.9384 0.7277 0.0
C546 C 0.30486 0.95332 0.76053 0.0
C547 C 0.30668 0.93718 0.735 0.0
C548 C 0.33254 0.97067 0.77865 0.0
C549 C 0.36204 0.97308 0.76969 0.0
H550 H 0.38513 0.95754 0.73734 0.0
H551 H 0.28513 0.92263 0.72169 0.0
C552 C 0.26668 0.79643 0.69848 0.0
N553 N 0.26616 0.81574 0.67608 0.0
C554 C 0.24418 0.76318 0.69876 0.0
C555 C 0.22038 0.77011 0.6532 0.0
C556 C 0.24336 0.80334 0.65383 0.0
C557 C 0.22123 0.74952 0.67548 0.0
H558 H 0.28574 0.80644 0.71523 0.0
H559 H 0.24409 0.81878 0.6356 0.0
C560 C 0.40421 0.94646 0.66346 0.0
N561 N 0.47063 0.97574 0.65409 0.0
C562 C 0.41733 0.9585 0.63497 0.0
C563 C 0.42495 0.94959 0.68724 0.0
C564 C 0.45095 0.97318 0.63068 0.0
C565 C 0.45843 0.96435 0.68202 0.0
C566 C 0.32032 0.83302 0.62886 0.0
C567 C 0.32572 0.81042 0.64429 0.0
C568 C 0.30141 0.82359 0.60267 0.0
C569 C 0.31192 0.77861 0.63328 0.0
C570 C 0.28808 0.79155 0.59237 0.0
N571 N 0.29355 0.76992 0.60777 0.0
C572 C 0.40477 0.86575 0.69881 0.0
C573 C 0.4116 0.87954 0.64688 0.0
C574 C 0.428 0.85595 0.69705 0.0
N575 N 0.39701 0.87713 0.67389 0.0
C576 C 0.43469 0.86965 0.64403 0.0
C577 C 0.44281 0.85737 0.66928 0.0
H578 H 0.39192 0.86289 0.71967 0.0
H579 H 0.40436 0.88803 0.62732 0.0
C580 C 0.33453 0.95304 0.60244 0.0
N581 N 0.3371 0.92574 0.60313 0.0
C582 C 0.34264 0.97188 0.5763 0.0
C583 C 0.35478 0.93344 0.55197 0.0
C584 C 0.34638 0.91532 0.57853 0.0
C585 C 0.35382 0.96256 0.55101 0.0
H586 H 0.32755 0.96087 0.62261 0.0
H587 H 0.34881 0.89385 0.58004 0.0
O588 O 0.33237 0.86923 0.7092 0.0
O589 O 0.29676 0.89727 0.66781 0.0
O590 O 0.37128 0.93155 0.66801 0.0
O591 O 0.33281 0.864 0.63978 0.0
H592 H 0.27695 0.85057 0.7382 0.0
H593 H 0.38099 0.89671 0.74862 0.0
H594 H 0.2723 0.85843 0.79283 0.0
H595 H 0.37444 0.90327 0.80311 0.0
H596 H 0.21335 0.86677 0.60144 0.0
H597 H 0.24786 0.86773 0.70655 0.0
H598 H 0.27222 0.89333 0.61324 0.0
H599 H 0.18941 0.84148 0.69306 0.0
H600 H 0.28168 0.95089 0.7669 0.0
H601 H 0.38389 0.98651 0.7831 0.0
H602 H 0.24598 0.74799 0.71603 0.0
H603 H 0.203 0.76042 0.63487 0.0
H604 H 0.4018 0.95655 0.61633 0.0
H605 H 0.41526 0.94002 0.70931 0.0
H606 H 0.46138 0.98251 0.60873 0.0
H607 H 0.4747 0.96662 0.70015 0.0
H608 H 0.33996 0.81721 0.6648 0.0
H609 H 0.29669 0.8407 0.59068 0.0
H610 H 0.31569 0.76079 0.64509 0.0
H611 H 0.27322 0.78383 0.57224 0.0
H612 H 0.43307 0.84575 0.71679 0.0
H613 H 0.44541 0.87071 0.6222 0.0
H614 H 0.34179 0.99431 0.57633 0.0
H615 H 0.36302 0.92541 0.53273 0.0
Li616 Li 0.1204 0.4502 0.69383 0.0
Li617 Li 0.17063 0.47354 0.66458 0.0
Li618 Li 0.13835 0.50212 0.67039 0.0
Li619 Li 0.11861 0.45433 0.63761 0.0
C620 C 0.16753 0.49137 0.73138 0.0
N621 N 0.17834 0.48941 0.79235 0.0
C622 C 0.1918 0.48503 0.74132 0.0
C623 C 0.14906 0.49716 0.75244 0.0
C624 C 0.19683 0.48405 0.77225 0.0
C625 C 0.15479 0.49591 0.78316 0.0
C626 C 0.14003 0.40541 0.65239 0.0
C627 C 0.15255 0.37923 0.61208 0.0
N628 N 0.15415 0.35856 0.63237 0.0
C629 C 0.14133 0.38358 0.67277 0.0
C630 C 0.14528 0.40294 0.62174 0.0
C631 C 0.14869 0.36021 0.66224 0.0
C632 C 0.0692 0.41673 0.73637 0.0
N633 N 0.09979 0.42414 0.72815 0.0
C634 C 0.10433 0.39631 0.77103 0.0
C635 C 0.11719 0.41391 0.74458 0.0
C636 C 0.07303 0.38864 0.7803 0.0
C637 C 0.05514 0.39869 0.76257 0.0
H638 H 0.05586 0.42504 0.72276 0.0
H639 H 0.14131 0.4199 0.73736 0.0
C640 C 0.23637 0.51315 0.65576 0.0
N641 N 0.21409 0.48174 0.66231 0.0
C642 C 0.26941 0.52314 0.65492 0.0
C643 C 0.25619 0.46828 0.66779 0.0
C644 C 0.22323 0.45927 0.66828 0.0
C645 C 0.2797 0.50067 0.66126 0.0
H646 H 0.22842 0.53059 0.65166 0.0
H647 H 0.20518 0.43463 0.67406 0.0
C648 C 0.07468 0.47715 0.66986 0.0
N649 N 0.03715 0.50677 0.67129 0.0
C650 C 0.05916 0.47888 0.64372 0.0
C651 C 0.0708 0.49011 0.69681 0.0
C652 C 0.04035 0.49404 0.64489 0.0
C653 C 0.05183 0.50511 0.69704 0.0
C654 C 0.17415 0.50641 0.60651 0.0
C655 C 0.17579 0.53332 0.59186 0.0
C656 C 0.18855 0.48996 0.59321 0.0
C657 C 0.19118 0.54287 0.56385 0.0
C658 C 0.20377 0.50027 0.5652 0.0
N659 N 0.20471 0.52626 0.55119 0.0
C660 C 0.16078 0.56375 0.69652 0.0
C661 C 0.13124 0.55524 0.65108 0.0
C662 C 0.16848 0.59626 0.69735 0.0
N663 N 0.14293 0.54419 0.67337 0.0
C664 C 0.13834 0.58762 0.65103 0.0
C665 C 0.15793 0.60874 0.67397 0.0
H666 H 0.17023 0.55451 0.71366 0.0
H667 H 0.11749 0.53927 0.63272 0.0
C668 C 0.07456 0.40228 0.60057 0.0
N669 N 0.09495 0.43507 0.60186 0.0
C670 C 0.05592 0.38808 0.57473 0.0
C671 C 0.07976 0.44166 0.55223 0.0
C672 C 0.09768 0.4548 0.57849 0.0
C673 C 0.05857 0.40793 0.55018 0.0
H674 H 0.07253 0.38727 0.61974 0.0
H675 H 0.11304 0.48085 0.58053 0.0
O676 O 0.16195 0.49197 0.7012 0.0
O677 O 0.13265 0.42832 0.66237 0.0
O678 O 0.09351 0.46275 0.66909 0.0
O679 O 0.15921 0.49684 0.63402 0.0
H680 H 0.20642 0.48063 0.72536 0.0
H681 H 0.13035 0.50233 0.74513 0.0
H682 H 0.21539 0.47896 0.78026 0.0
H683 H 0.1405 0.50008 0.7997 0.0
H684 H 0.15677 0.37716 0.58843 0.0
H685 H 0.13687 0.38473 0.6965 0.0
H686 H 0.1434 0.41888 0.60547 0.0
H687 H 0.15002 0.34334 0.67782 0.0
H688 H 0.11866 0.38867 0.7841 0.0
H689 H 0.03092 0.39318 0.7692 0.0
H690 H 0.28684 0.54844 0.6502 0.0
H691 H 0.26322 0.45024 0.67265 0.0
H692 H 0.06172 0.4688 0.62273 0.0
H693 H 0.08244 0.48876 0.71727 0.0
H694 H 0.02834 0.49571 0.6248 0.0
H695 H 0.04878 0.51543 0.7177 0.0
H696 H 0.16516 0.54663 0.60192 0.0
H697 H 0.18851 0.4698 0.60456 0.0
H698 H 0.19241 0.56351 0.5522 0.0
H699 H 0.21498 0.48771 0.55467 0.0
H700 H 0.1839 0.61189 0.71527 0.0
H701 H 0.12948 0.59629 0.63278 0.0
H702 H 0.0395 0.36199 0.57398 0.0
H703 H 0.08165 0.45781 0.53407 0.0
Li704 Li 0.55036 0.7124 0.66866 0.0
Li705 Li 0.57509 0.68878 0.6992 0.0
Li706 Li 0.57546 0.68507 0.64281 0.0
Li707 Li 0.52524 0.65341 0.67322 0.0
C708 C 0.61763 0.75541 0.65979 0.0
N709 N 0.66022 0.81841 0.64124 0.0
C710 C 0.63464 0.77993 0.68107 0.0
C711 C 0.62251 0.76288 0.62907 0.0
C712 C 0.65599 0.81165 0.67124 0.0
C713 C 0.64409 0.79489 0.62015 0.0
C714 C 0.53048 0.68958 0.73496 0.0
C715 C 0.52549 0.67039 0.78612 0.0
N716 N 0.52877 0.69897 0.79626 0.0
C717 C 0.53367 0.71872 0.74589 0.0
C718 C 0.5262 0.66514 0.75521 0.0
C719 C 0.53277 0.72301 0.77696 0.0
C720 C 0.50629 0.73328 0.67367 0.0
N721 N 0.53813 0.74517 0.66647 0.0
C722 C 0.54502 0.79807 0.65756 0.0
C723 C 0.5576 0.77694 0.65845 0.0
C724 C 0.51212 0.78608 0.66451 0.0
C725 C 0.49263 0.7533 0.67254 0.0
H726 H 0.49142 0.70802 0.68019 0.0
H727 H 0.58272 0.78603 0.65261 0.0
C728 C 0.61225 0.67484 0.74043 0.0
N729 N 0.60074 0.6953 0.734 0.0
C730 C 0.63222 0.6806 0.76554 0.0
C731 C 0.62751 0.72797 0.77704 0.0
C732 C 0.60826 0.72168 0.75147 0.0
C733 C 0.63994 0.70743 0.7843 0.0
H734 H 0.6064 0.65441 0.72575 0.0
H735 H 0.59938 0.73794 0.74547 0.0
C736 C 0.51362 0.68856 0.6197 0.0
N737 N 0.47711 0.70981 0.58872 0.0
C738 C 0.47984 0.67278 0.62353 0.0
C739 C 0.52878 0.715 0.59994 0.0
C740 C 0.46182 0.68392 0.60768 0.0
C741 C 0.50992 0.72543 0.58456 0.0
C742 C 0.55309 0.61771 0.67261 0.0
C743 C 0.55125 0.60256 0.64506 0.0
C744 C 0.54106 0.59889 0.6987 0.0
C745 C 0.53708 0.56868 0.64405 0.0
C746 C 0.52703 0.56507 0.69674 0.0
N747 N 0.52534 0.55079 0.66969 0.0
C748 C 0.62618 0.68193 0.61334 0.0
C749 C 0.58544 0.68036 0.58113 0.0
C750 C 0.64182 0.67714 0.58886 0.0
N751 N 0.59838 0.68306 0.60901 0.0
C752 C 0.60042 0.67585 0.55602 0.0
C753 C 0.62874 0.67381 0.55984 0.0
H754 H 0.63558 0.68377 0.63591 0.0
H755 H 0.56295 0.68071 0.57851 0.0
C756 C 0.46415 0.60942 0.69776 0.0
N757 N 0.48428 0.61441 0.67408 0.0
C758 C 0.43167 0.5847 0.69662 0.0
C759 C 0.44153 0.56983 0.64722 0.0
C760 C 0.47388 0.59493 0.6493 0.0
C761 C 0.4198 0.56503 0.67081 0.0
H762 H 0.47271 0.62587 0.71673 0.0
H763 H 0.49018 0.60009 0.63043 0.0
O764 O 0.59697 0.72417 0.66905 0.0
O765 O 0.53153 0.685 0.70462 0.0
O766 O 0.53179 0.6785 0.63556 0.0
O767 O 0.56637 0.65078 0.67399 0.0
H768 H 0.63136 0.77458 0.70492 0.0
H769 H 0.60973 0.74428 0.61227 0.0
H770 H 0.66923 0.83088 0.68747 0.0
H771 H 0.64799 0.80103 0.59646 0.0
H772 H 0.52238 0.65176 0.80204 0.0
H773 H 0.53722 0.73801 0.73061 0.0
H774 H 0.52373 0.64247 0.74715 0.0
H775 H 0.53538 0.7455 0.78573 0.0
H776 H 0.56061 0.82331 0.65116 0.0
H777 H 0.46716 0.74339 0.6782 0.0
H778 H 0.64207 0.6647 0.76976 0.0
H779 H 0.63274 0.74885 0.7909 0.0
H780 H 0.46766 0.65246 0.63887 0.0
H781 H 0.55488 0.72759 0.59679 0.0
H782 H 0.4357 0.67205 0.61056 0.0
H783 H 0.52138 0.746 0.56936 0.0
H784 H 0.56037 0.61676 0.62463 0.0
H785 H 0.54242 0.61028 0.7202 0.0
H786 H 0.53534 0.55659 0.62287 0.0
H787 H 0.51748 0.55018 0.71673 0.0
H788 H 0.66349 0.6754 0.59258 0.0
H789 H 0.58921 0.67257 0.53406 0.0
H790 H 0.41554 0.58253 0.71488 0.0
H791 H 0.43319 0.55537 0.62683 0.0
C792 C 0.15369 0.13575 0.02088 0.0
C793 C 0.18062 0.14561 0.00168 0.0
C794 C 0.13571 0.15183 0.02067 0.0
C795 C 0.14437 0.17858 0.00162 0.0
H796 H 0.14557 0.11453 0.03518 0.0
H797 H 0.11435 0.14276 0.03492 0.0
S798 S 0.21402 0.21541 0.94869 0.0
N799 N 0.21601 0.18472 0.96418 0.0
N800 N 0.18226 0.21532 0.96418 0.0
C801 C 0.17197 0.1896 0.98326 0.0
C802 C 0.19008 0.17296 0.98315 0.0
C803 C 0.83772 0.99815 0.016 0.0
C804 C 0.84821 0.97936 0.00018 0.0
C805 C 0.85448 0.03226 0.01344 0.0
C806 C 0.88245 0.04866 0.9952 0.0
H807 H 0.81654 0.98639 0.0305 0.0
H808 H 0.84567 0.04591 0.026 0.0
S809 S 0.92121 0.01024 0.95145 0.0
N810 N 0.88879 0.97933 0.96685 0.0
N811 N 0.92081 0.04329 0.96257 0.0
C812 C 0.89323 0.02995 0.97953 0.0
C813 C 0.876 0.99534 0.98192 0.0
C814 C -0.00155 0.85364 0.02888 0.0
C815 C 0.97835 0.8446 0.00323 0.0
C816 C 0.03244 0.8703 0.02616 0.0
C817 C 0.0475 0.87878 0.99771 0.0
H818 H 0.9878 0.84855 0.05122 0.0
H819 H 0.04701 0.87795 0.04652 0.0
S820 S 0.00577 0.85912 0.92359 0.0
N821 N 0.97587 0.8442 0.94849 0.0
N822 N 0.03982 0.87516 0.94338 0.0
C823 C 0.02767 0.86875 0.97188 0.0
C824 C 0.99307 0.85169 0.97463 0.0
C825 C 0.8112 0.46349 0.32949 0.0
C826 C 0.84542 0.47995 0.32887 0.0
C827 C 0.79435 0.48028 0.33426 0.0
C828 C 0.81104 0.51424 0.33836 0.0
H829 H 0.79729 0.43725 0.32681 0.0
H830 H 0.76796 0.46656 0.3346 0.0
S831 S 0.90057 0.56886 0.33814 0.0
N832 N 0.89552 0.53213 0.33245 0.0
N833 N 0.86361 0.56393 0.34115 0.0
C834 C 0.84524 0.53116 0.33741 0.0
C835 C 0.8625 0.51393 0.33286 0.0
C836 C 0.51077 0.33329 0.35737 0.0
C837 C 0.51273 0.31376 0.33447 0.0
C838 C 0.52861 0.36742 0.35558 0.0
C839 C 0.54915 0.38315 0.3309 0.0
H840 H 0.49607 0.32212 0.37723 0.0
H841 H 0.52754 0.38154 0.3743 0.0
S842 S 0.56106 0.34346 0.26392 0.0
N843 N 0.53583 0.31292 0.28566 0.0
N844 N 0.56842 0.37692 0.282 0.0
C845 C 0.55002 0.36398 0.30716 0.0
C846 C 0.53203 0.32933 0.309 0.0
C847 C 0.6628 0.17538 0.31788 0.0
C848 C 0.64259 0.17697 0.34023 0.0
C849 C 0.69682 0.19409 0.3201 0.0
C850 C 0.71172 0.21529 0.34459 0.0
H851 H 0.6522 0.16029 0.2981 0.0
H852 H 0.71149 0.19317 0.30182 0.0
S853 S 0.6698 0.22697 0.40991 0.0
N854 N 0.64001 0.20049 0.3882 0.0
N855 N 0.70389 0.23515 0.39259 0.0
C856 C 0.69183 0.21601 0.36772 0.0
C857 C 0.65728 0.19696 0.3655 0.0
C858 C 0.45465 0.81692 0.64529 0.0
C859 C 0.46359 0.84247 0.66602 0.0
C860 C 0.47126 0.79945 0.64426 0.0
C861 C 0.49766 0.80732 0.66357 0.0
H862 H 0.43379 0.80948 0.63067 0.0
H863 H 0.46295 0.77915 0.62876 0.0
S864 S 0.53195 0.87339 0.72044 0.0
N865 N 0.50134 0.87574 0.70531 0.0
N866 N 0.53295 0.84306 0.70303 0.0
C867 C 0.50772 0.83364 0.6835 0.0
C868 C 0.49052 0.85115 0.68485 0.0
C869 C 0.184 0.69507 0.69852 0.0
C870 C 0.20088 0.71361 0.67312 0.0
C871 C 0.16877 0.66098 0.69818 0.0
C872 C 0.16991 0.64423 0.67245 0.0
H873 H 0.1834 0.7071 0.71908 0.0
H874 H 0.15678 0.64767 0.71848 0.0
S875 S 0.21133 0.68152 0.60025 0.0
N876 N 0.21773 0.71276 0.62154 0.0
N877 N 0.1892 0.64873 0.62091 0.0
C878 C 0.18584 0.66243 0.64659 0.0
C879 C 0.2013 0.69711 0.64693 0.0
C880 C 0.33518 0.53116 0.63847 0.0
C881 C 0.31502 0.51196 0.66216 0.0
C882 C 0.36913 0.54652 0.6407 0.0
C883 C 0.38421 0.54337 0.66679 0.0
H884 H 0.32463 0.53532 0.61848 0.0
H885 H 0.38364 0.56247 0.62255 0.0
S886 S 0.34234 0.49319 0.73394 0.0
N887 N 0.31247 0.48877 0.71167 0.0
N888 N 0.37642 0.51727 0.71565 0.0
C889 C 0.36432 0.52271 0.68992 0.0
C890 C 0.32969 0.50702 0.68763 0.0
C891 C 0.06757 0.36426 0.86205 0.0
C892 C 0.03966 0.33307 0.86269 0.0
C893 C 0.07749 0.38257 0.83549 0.0
C894 C 0.0597 0.3705 0.80866 0.0
H895 H 0.08233 0.37428 0.8821 0.0
H896 H 0.09964 0.40609 0.83575 0.0
S897 S 0.98461 0.29072 0.79829 0.0
N898 N 0.99412 0.29114 0.83417 0.0
N899 N 0.01257 0.32605 0.78426 0.0
C900 C 0.03109 0.33999 0.80915 0.0
C901 C 0.02108 0.32115 0.83619 0.0
C902 C 0.70633 0.75608 0.84136 0.0
C903 C 0.70308 0.73249 0.86249 0.0
C904 C 0.68627 0.74754 0.81597 0.0
C905 C 0.66185 0.71509 0.81072 0.0
H906 H 0.72403 0.78158 0.84478 0.0
H907 H 0.68985 0.76666 0.80039 0.0
S908 S 0.64399 0.64376 0.85852 0.0
N909 N 0.67467 0.67493 0.87565 0.0
N910 N 0.63575 0.65908 0.82859 0.0
C911 C 0.65858 0.6911 0.83137 0.0
C912 C 0.67937 0.69976 0.85713 0.0
C913 C 0.31583 0.00371 0.80989 0.0
C914 C 0.32948 0.98337 0.80811 0.0
C915 C 0.30834 0.01211 0.83784 0.0
C916 C 0.3138 -3e-05 0.86479 0.0
H917 H 0.30999 0.01233 0.7895 0.0
H918 H 0.29665 0.02677 0.8383 0.0
S919 S 0.35045 0.94718 0.87231 0.0
N920 N 0.34948 0.95251 0.83562 0.0
N921 N 0.33513 0.96813 0.88818 0.0
C922 C 0.32855 0.98065 0.86335 0.0
C923 C 0.3365 0.97241 0.83497 0.0
C924 C 0.33751 0.0751 0.19319 0.0
C925 C 0.35784 0.06258 0.20116 0.0
C926 C 0.31786 0.0641 0.16751 0.0
C927 C 0.31758 0.03999 0.1488 0.0
H928 H 0.3369 0.09375 0.20685 0.0
H929 H 0.30332 0.07518 0.16191 0.0
S930 S 0.36546 0.99836 0.16028 0.0
N931 N 0.37637 0.02453 0.18846 0.0
N932 N 0.33831 0.00283 0.14072 0.0
C933 C 0.33723 0.02667 0.15685 0.0
C934 C 0.35752 0.03811 0.18294 0.0
C935 C 0.96166 0.30598 0.13992 0.0
C936 C 0.98902 0.30187 0.14134 0.0
C937 C 0.95059 0.31476 0.16555 0.0
C938 C 0.96682 0.32021 0.19329 0.0
H939 H 0.94804 0.30123 0.11912 0.0
H940 H 0.92888 0.31681 0.1638 0.0
S941 S 0.04064 0.3144 0.20838 0.0
N942 N 0.03282 0.30509 0.1723 0.0
N943 N 0.01215 0.32201 0.22054 0.0
C944 C 0.99484 0.31731 0.19478 0.0
C945 C 0.00588 0.30795 0.16877 0.0
C946 C 0.69918 0.6461 0.17009 0.0
C947 C 0.70033 0.66033 0.19822 0.0
C948 C 0.7076 0.66455 0.1436 0.0
C949 C 0.71738 0.69786 0.14426 0.0
H950 H 0.69252 0.62068 0.16865 0.0
H951 H 0.70734 0.65288 0.12251 0.0
S952 S 0.72389 0.74659 0.21197 0.0
N953 N 0.71133 0.70955 0.2251 0.0
N954 N 0.72707 0.74425 0.1751 0.0
C955 C 0.71741 0.71213 0.17202 0.0
C956 C 0.70889 0.69334 0.19908 0.0
C957 C 0.00368 0.37594 0.52657 0.0
C958 C 0.03771 0.39411 0.52327 0.0
C959 C 0.98317 0.36626 0.50135 0.0
C960 C 0.99603 0.37405 0.47201 0.0
H961 H 0.99282 0.37039 0.54883 0.0
H962 H 0.95705 0.35319 0.50482 0.0
S963 S 0.08351 0.41926 0.45132 0.0
N964 N 0.08343 0.41798 0.48852 0.0
N965 N 0.04484 0.39978 0.44103 0.0
C966 C 0.03002 0.39102 0.46838 0.0
C967 C 0.05088 0.4011 0.49405 0.0
C968 C 0.65469 0.62563 0.51069 0.0
C969 C 0.66069 0.64163 0.48276 0.0
C970 C 0.64595 0.63723 0.53596 0.0
C971 C 0.6425 0.66498 0.53403 0.0
H972 H 0.65602 0.60354 0.5128 0.0
H973 H 0.64044 0.62356 0.55681 0.0
S974 S 0.65727 0.7166 0.4665 0.0
N975 N 0.66408 0.68739 0.4549 0.0
N976 N 0.6475 0.70921 0.50252 0.0
C977 C 0.64953 0.68184 0.50651 0.0
C978 C 0.65874 0.67019 0.48084 0.0
C979 C 0.34827 0.99628 0.51053 0.0
C980 C 0.36691 0.98453 0.5247 0.0
C981 C 0.36086 0.01799 0.48619 0.0
C982 C 0.39267 0.02904 0.47565 0.0
H983 H 0.32379 0.98856 0.51828 0.0
H984 H 0.34583 0.02659 0.47585 0.0
S985 S 0.45128 0.00557 0.50511 0.0
N986 N 0.4187 0.98559 0.52657 0.0
N987 N 0.44225 0.02621 0.48074 0.0
C988 C 0.41147 0.01738 0.48958 0.0
C989 C 0.3986 0.99514 0.51413 0.0
loop_
_geom_bond_atom_site_label_1
_geom_bond_atom_site_label_2
_geom_bond_distance
_geom_bond_site_symmetry_2
_ccdc_geom_bond_type
Li0 N17 1.990 . S
Li0 O60 1.956 . S
Li0 O61 1.939 1_454 S
Li0 O62 1.961 . S
Li1 N25 1.990 . S
Li1 O60 1.970 1_656 S
Li1 O61 1.957 . S
Li1 O63 1.961 1_655 S
Li2 N47 1.990 . S
Li2 O60 1.961 . S
Li2 O62 1.956 . S
Li2 O63 1.970 1_554 S
Li3 N53 1.990 . S
Li3 O61 1.983 1_455 S
Li3 O62 1.970 1_556 S
Li3 O63 1.956 . S
C4 C6 1.348 1_455 S
C4 C7 1.356 . S
C4 O60 1.325 . S
N5 C8 1.314 . S
N5 C9 1.279 1_655 S
C6 C4 1.348 1_655 S
C6 C8 1.353 . S
C6 H64 0.929 . S
C7 C4 1.356 . S
C7 C9 1.358 . S
C7 H65 0.930 . S
C8 N5 1.314 . S
C8 C6 1.353 . S
C8 H66 0.930 . S
C9 N5 1.279 1_455 S
C9 C7 1.358 . S
C9 H67 0.930 . S
C10 C13 1.348 1_556 S
C10 C14 1.356 . S
C10 O61 1.332 . S
C11 N12 1.279 . S
C11 C14 1.358 . S
C11 H68 0.930 . S
N12 C11 1.279 . S
N12 C15 1.314 1_556 S
C13 C10 1.348 1_554 S
C13 C15 1.353 . S
C13 H69 0.929 . S
C14 C10 1.356 . S
C14 C11 1.358 . S
C14 H70 0.930 . S
C15 N12 1.314 1_554 S
C15 C13 1.353 . S
C15 H71 0.930 . S
C16 N17 1.314 . S
C16 C21 1.353 . S
C16 H22 0.930 . S
N17 Li0 1.990 . S
N17 C16 1.314 . S
N17 C19 1.279 1_455 S
C18 C19 1.358 . S
C18 C20 1.356 . S
C18 H72 0.930 . S
C19 N17 1.279 1_655 S
C19 C18 1.358 . S
C19 H23 0.930 . S
C20 C18 1.356 . S
C20 C21 1.348 1_655 S
C21 C16 1.353 . S
C21 C20 1.348 1_455 S
C21 H73 0.929 . S
H22 C16 0.930 . S
H23 C19 0.930 . S
C24 N25 1.314 . S
C24 C26 1.353 . S
C24 H30 0.930 . S
N25 Li1 1.990 . S
N25 C24 1.314 . S
N25 C28 1.279 . S
C26 C24 1.353 . S
C26 C29 1.348 . S
C26 H74 0.929 . S
C27 C28 1.358 . S
C27 C29 1.356 . S
C27 H75 0.930 . S
C28 N25 1.279 . S
C28 C27 1.358 . S
C28 H31 0.930 . S
C29 C26 1.348 . S
C29 C27 1.356 . S
H30 C24 0.930 . S
H31 C28 0.930 . S
C32 C34 1.348 1_554 S
C32 C35 1.356 . S
C32 O62 1.325 . S
N33 C36 1.314 . S
N33 C37 1.279 . S
C34 C32 1.348 1_556 S
C34 C36 1.353 1_556 S
C34 H76 0.929 . S
C35 C32 1.356 . S
C35 C37 1.358 . S
C35 H77 0.930 . S
C36 N33 1.314 . S
C36 C34 1.353 1_554 S
C36 H78 0.930 1_554 S
C37 N33 1.279 . S
C37 C35 1.358 . S
C37 H79 0.930 . S
C38 C39 1.348 . S
C38 C40 1.356 . S
C38 O63 1.325 . S
C39 C38 1.348 . S
C39 C41 1.353 . S
C39 H80 0.929 . S
C40 C38 1.356 . S
C40 C42 1.358 . S
C40 H81 0.930 1_455 S
C41 C39 1.353 . S
C41 N43 1.314 . S
C41 H82 0.930 . S
C42 C40 1.358 . S
C42 N43 1.279 . S
C42 H83 0.930 1_455 S
N43 C41 1.314 . S
N43 C42 1.279 . S
C44 C46 1.353 . S
C44 N47 1.314 . S
C44 H50 0.930 . S
C45 N47 1.279 . S
C45 C48 1.358 . S
C45 H51 0.930 . S
C46 C44 1.353 . S
C46 C49 1.348 . S
C46 H84 0.929 . S
N47 Li2 1.990 . S
N47 C44 1.314 . S
N47 C45 1.279 . S
C48 C45 1.358 . S
C48 C49 1.356 . S
C48 H85 0.930 . S
C49 C46 1.348 . S
C49 C48 1.356 . S
H50 C44 0.930 . S
H51 C45 0.930 . S
C52 N53 1.314 . S
C52 C54 1.353 . S
C52 H58 0.930 . S
N53 Li3 1.990 . S
N53 C52 1.314 . S
N53 C56 1.279 . S
C54 C52 1.353 . S
C54 C57 1.348 . S
C54 H86 0.929 . S
C55 C56 1.358 . S
C55 C57 1.356 . S
C55 H87 0.930 . S
C56 N53 1.279 . S
C56 C55 1.358 . S
C56 H59 0.930 . S
C57 C54 1.348 . S
C57 C55 1.356 . S
H58 C52 0.930 . S
H59 C56 0.930 . S
O60 Li0 1.956 . S
O60 Li1 1.970 1_454 S
O60 Li2 1.961 . S
O60 C4 1.325 . S
O61 Li0 1.939 1_656 S
O61 Li1 1.957 . S
O61 Li3 1.983 1_655 S
O61 C10 1.332 . S
O62 Li0 1.961 . S
O62 Li2 1.956 . S
O62 Li3 1.970 1_554 S
O62 C32 1.325 . S
O63 Li1 1.961 1_455 S
O63 Li2 1.970 1_556 S
O63 Li3 1.956 . S
O63 C38 1.325 . S
H64 C6 0.929 . S
H65 C7 0.930 . S
H66 C8 0.930 . S
H67 C9 0.930 . S
H68 C11 0.930 . S
H69 C13 0.929 . S
H70 C14 0.930 . S
H71 C15 0.930 . S
H72 C18 0.930 . S
H73 C21 0.929 . S
H74 C26 0.929 . S
H75 C27 0.930 . S
H76 C34 0.929 . S
H77 C35 0.930 . S
H78 C36 0.930 1_556 S
H79 C37 0.930 . S
H80 C39 0.929 . S
H81 C40 0.930 1_655 S
H82 C41 0.930 . S
H83 C42 0.930 1_655 S
H84 C46 0.929 . S
H85 C48 0.930 . S
H86 C54 0.929 . S
H87 C55 0.930 . S
Li88 N105 1.990 . S
Li88 O148 1.957 . S
Li88 O149 1.970 1_556 S
Li88 O150 1.961 . S
Li89 N113 1.990 . S
Li89 O148 1.939 1_554 S
Li89 O149 1.956 . S
Li89 O151 1.961 . S
Li90 N135 1.990 . S
Li90 O148 1.982 . S
Li90 O150 1.956 . S
Li90 O151 1.970 1_556 S
Li91 N141 1.990 . S
Li91 O149 1.961 . S
Li91 O150 1.970 1_554 S
Li91 O151 1.956 . S
C92 C94 1.348 1_556 S
C92 C95 1.356 . S
C92 O148 1.332 . S
N93 C96 1.314 1_556 S
N93 C97 1.279 . S
C94 C92 1.348 1_554 S
C94 C96 1.353 . S
C94 H152 0.929 . S
C95 C92 1.356 . S
C95 C97 1.358 . S
C95 H153 0.930 . S
C96 N93 1.314 1_554 S
C96 C94 1.353 . S
C96 H154 0.930 . S
C97 N93 1.279 . S
C97 C95 1.358 . S
C97 H155 0.930 . S
C98 C101 1.348 . S
C98 C102 1.356 . S
C98 O149 1.325 . S
C99 N100 1.279 . S
C99 C102 1.358 . S
C99 H156 0.930 . S
N100 C99 1.279 . S
N100 C103 1.314 . S
C101 C98 1.348 . S
C101 C103 1.353 . S
C101 H157 0.929 . S
C102 C98 1.356 . S
C102 C99 1.358 . S
C102 H158 0.930 . S
C103 N100 1.314 . S
C103 C101 1.353 . S
C103 H159 0.930 . S
C104 N105 1.314 . S
C104 C109 1.353 . S
C104 H110 0.930 . S
N105 Li88 1.990 . S
N105 C104 1.314 . S
N105 C107 1.279 . S
C106 C107 1.358 . S
C106 C108 1.356 . S
C106 H160 0.930 . S
C107 N105 1.279 . S
C107 C106 1.358 . S
C107 H111 0.930 . S
C108 C106 1.356 . S
C108 C109 1.348 . S
C109 C104 1.353 . S
C109 C108 1.348 . S
C109 H161 0.929 . S
H110 C104 0.930 . S
H111 C107 0.930 . S
C112 N113 1.314 . S
C112 C114 1.353 . S
C112 H118 0.930 . S
N113 Li89 1.990 . S
N113 C112 1.314 . S
N113 C116 1.279 . S
C114 C112 1.353 . S
C114 C117 1.348 . S
C114 H162 0.929 . S
C115 C116 1.358 . S
C115 C117 1.356 . S
C115 H163 0.930 . S
C116 N113 1.279 . S
C116 C115 1.358 . S
C116 H119 0.930 . S
C117 C114 1.348 . S
C117 C115 1.356 . S
H118 C112 0.930 . S
H119 C116 0.930 . S
C120 C122 1.348 . S
C120 C123 1.356 . S
C120 O150 1.325 . S
N121 C124 1.314 . S
N121 C125 1.279 . S
C122 C120 1.348 . S
C122 C124 1.353 . S
C122 H164 0.929 . S
C123 C120 1.356 . S
C123 C125 1.358 . S
C123 H165 0.930 . S
C124 N121 1.314 . S
C124 C122 1.353 . S
C124 H166 0.930 . S
C125 N121 1.279 . S
C125 C123 1.358 . S
C125 H167 0.930 . S
C126 C127 1.348 1_554 S
C126 C128 1.356 . S
C126 O151 1.325 . S
C127 C126 1.348 1_556 S
C127 C129 1.353 1_556 S
C127 H168 0.929 . S
C128 C126 1.356 . S
C128 C130 1.358 . S
C128 H169 0.930 . S
C129 C127 1.353 1_554 S
C129 N131 1.314 . S
C129 H170 0.930 1_554 S
C130 C128 1.358 . S
C130 N131 1.279 . S
C130 H171 0.930 . S
N131 C129 1.314 . S
N131 C130 1.279 . S
C132 C134 1.353 . S
C132 N135 1.314 . S
C132 H138 0.930 . S
C133 N135 1.279 . S
C133 C136 1.358 . S
C133 H139 0.930 . S
C134 C132 1.353 . S
C134 C137 1.348 . S
C134 H172 0.929 . S
N135 Li90 1.990 . S
N135 C132 1.314 . S
N135 C133 1.279 . S
C136 C133 1.358 . S
C136 C137 1.356 . S
C136 H173 0.930 . S
C137 C134 1.348 . S
C137 C136 1.356 . S
H138 C132 0.930 . S
H139 C133 0.930 . S
C140 N141 1.314 . S
C140 C142 1.353 . S
C140 H146 0.930 . S
N141 Li91 1.990 . S
N141 C140 1.314 . S
N141 C144 1.279 . S
C142 C140 1.353 . S
C142 C145 1.348 . S
C142 H174 0.929 . S
C143 C144 1.358 . S
C143 C145 1.356 . S
C143 H175 0.930 . S
C144 N141 1.279 . S
C144 C143 1.358 . S
C144 H147 0.930 . S
C145 C142 1.348 . S
C145 C143 1.356 . S
H146 C140 0.930 . S
H147 C144 0.930 . S
O148 Li88 1.957 . S
O148 Li89 1.939 1_556 S
O148 Li90 1.982 . S
O148 C92 1.332 . S
O149 Li88 1.970 1_554 S
O149 Li89 1.956 . S
O149 Li91 1.961 . S
O149 C98 1.325 . S
O150 Li88 1.961 . S
O150 Li90 1.956 . S
O150 Li91 1.970 1_556 S
O150 C120 1.325 . S
O151 Li89 1.961 . S
O151 Li90 1.970 1_554 S
O151 Li91 1.956 . S
O151 C126 1.325 . S
H152 C94 0.929 . S
H153 C95 0.930 . S
H154 C96 0.930 . S
H155 C97 0.930 . S
H156 C99 0.930 . S
H157 C101 0.929 . S
H158 C102 0.930 . S
H159 C103 0.930 . S
H160 C106 0.930 . S
H161 C109 0.929 . S
H162 C114 0.929 . S
H163 C115 0.930 . S
H164 C122 0.929 . S
H165 C123 0.930 . S
H166 C124 0.930 . S
H167 C125 0.930 . S
H168 C127 0.929 . S
H169 C128 0.930 . S
H170 C129 0.930 1_556 S
H171 C130 0.930 . S
H172 C134 0.929 . S
H173 C136 0.930 . S
H174 C142 0.929 . S
H175 C143 0.930 . S
Li176 N193 1.990 . S
Li176 O236 1.957 . S
Li176 O237 1.970 1_556 S
Li176 O238 1.961 . S
Li177 N201 1.990 . S
Li177 O236 1.939 1_554 S
Li177 O237 1.956 . S
Li177 O239 1.961 1_545 S
Li178 N223 1.990 . S
Li178 O236 1.982 . S
Li178 O238 1.956 . S
Li178 O239 1.970 1_546 S
Li179 N229 1.990 . S
Li179 O237 1.961 1_565 S
Li179 O238 1.970 1_564 S
Li179 O239 1.956 . S
C180 C182 1.348 1_556 S
C180 C183 1.356 . S
C180 O236 1.332 . S
N181 C184 1.314 1_556 S
N181 C185 1.279 . S
C182 C180 1.348 1_554 S
C182 C184 1.353 . S
C182 H240 0.929 . S
C183 C180 1.356 . S
C183 C185 1.358 . S
C183 H241 0.930 . S
C184 N181 1.314 1_554 S
C184 C182 1.353 . S
C184 H242 0.930 . S
C185 N181 1.279 . S
C185 C183 1.358 . S
C185 H243 0.930 . S
C186 C189 1.348 . S
C186 C190 1.356 . S
C186 O237 1.325 . S
C187 N188 1.279 . S
C187 C190 1.358 . S
C187 H244 0.930 1_545 S
N188 C187 1.279 . S
N188 C191 1.314 . S
C189 C186 1.348 . S
C189 C191 1.353 . S
C189 H245 0.929 . S
C190 C186 1.356 . S
C190 C187 1.358 . S
C190 H246 0.930 1_545 S
C191 N188 1.314 . S
C191 C189 1.353 . S
C191 H247 0.930 . S
C192 N193 1.314 . S
C192 C197 1.353 . S
C192 H198 0.930 . S
N193 Li176 1.990 . S
N193 C192 1.314 . S
N193 C195 1.279 . S
C194 C195 1.358 . S
C194 C196 1.356 . S
C194 H248 0.930 . S
C195 N193 1.279 . S
C195 C194 1.358 . S
C195 H199 0.930 . S
C196 C194 1.356 . S
C196 C197 1.348 . S
C197 C192 1.353 . S
C197 C196 1.348 . S
C197 H249 0.929 . S
H198 C192 0.930 . S
H199 C195 0.930 . S
C200 N201 1.314 . S
C200 C202 1.353 . S
C200 H206 0.930 . S
N201 Li177 1.990 . S
N201 C200 1.314 . S
N201 C204 1.279 . S
C202 C200 1.353 . S
C202 C205 1.348 . S
C202 H250 0.929 . S
C203 C204 1.358 . S
C203 C205 1.356 . S
C203 H251 0.930 . S
C204 N201 1.279 . S
C204 C203 1.358 . S
C204 H207 0.930 . S
C205 C202 1.348 . S
C205 C203 1.356 . S
H206 C200 0.930 . S
H207 C204 0.930 . S
C208 C210 1.348 1_545 S
C208 C211 1.356 . S
C208 O238 1.325 . S
N209 C212 1.314 . S
N209 C213 1.279 1_565 S
C210 C208 1.348 1_565 S
C210 C212 1.353 . S
C210 H252 0.929 . S
C211 C208 1.356 . S
C211 C213 1.358 . S
C211 H253 0.930 . S
C212 N209 1.314 . S
C212 C210 1.353 . S
C212 H254 0.930 . S
C213 N209 1.279 1_545 S
C213 C211 1.358 . S
C213 H255 0.930 . S
C214 C215 1.348 1_554 S
C214 C216 1.356 . S
C214 O239 1.325 . S
C215 C214 1.348 1_556 S
C215 C217 1.353 1_556 S
C215 H256 0.929 . S
C216 C214 1.356 . S
C216 C218 1.358 . S
C216 H257 0.930 . S
C217 C215 1.353 1_554 S
C217 N219 1.314 . S
C217 H258 0.930 1_554 S
C218 C216 1.358 . S
C218 N219 1.279 . S
C218 H259 0.930 . S
N219 C217 1.314 . S
N219 C218 1.279 . S
C220 C222 1.353 . S
C220 N223 1.314 . S
C220 H226 0.930 . S
C221 N223 1.279 1_565 S
C221 C224 1.358 . S
C221 H227 0.930 . S
C222 C220 1.353 . S
C222 C225 1.348 1_545 S
C222 H260 0.929 . S
N223 Li178 1.990 . S
N223 C220 1.314 . S
N223 C221 1.279 1_545 S
C224 C221 1.358 . S
C224 C225 1.356 . S
C224 H261 0.930 . S
C225 C222 1.348 1_565 S
C225 C224 1.356 . S
H226 C220 0.930 . S
H227 C221 0.930 . S
C228 N229 1.314 . S
C228 C230 1.353 . S
C228 H234 0.930 . S
N229 Li179 1.990 . S
N229 C228 1.314 . S
N229 C232 1.279 . S
C230 C228 1.353 . S
C230 C233 1.348 . S
C230 H262 0.929 . S
C231 C232 1.358 . S
C231 C233 1.356 . S
C231 H263 0.930 . S
C232 N229 1.279 . S
C232 C231 1.358 . S
C232 H235 0.930 . S
C233 C230 1.348 . S
C233 C231 1.356 . S
H234 C228 0.930 . S
H235 C232 0.930 . S
O236 Li176 1.957 . S
O236 Li177 1.939 1_556 S
O236 Li178 1.982 . S
O236 C180 1.332 . S
O237 Li176 1.970 1_554 S
O237 Li177 1.956 . S
O237 Li179 1.961 1_545 S
O237 C186 1.325 . S
O238 Li176 1.961 . S
O238 Li178 1.956 . S
O238 Li179 1.970 1_546 S
O238 C208 1.325 . S
O239 Li177 1.961 1_565 S
O239 Li178 1.970 1_564 S
O239 Li179 1.956 . S
O239 C214 1.325 . S
H240 C182 0.929 . S
H241 C183 0.930 . S
H242 C184 0.930 . S
H243 C185 0.930 . S
H244 C187 0.930 1_565 S
H245 C189 0.929 . S
H246 C190 0.930 1_565 S
H247 C191 0.930 . S
H248 C194 0.930 . S
H249 C197 0.929 . S
H250 C202 0.929 . S
H251 C203 0.930 . S
H252 C210 0.929 . S
H253 C211 0.930 . S
H254 C212 0.930 . S
H255 C213 0.930 . S
H256 C215 0.929 . S
H257 C216 0.930 . S
H258 C217 0.930 1_556 S
H259 C218 0.930 . S
H260 C222 0.929 . S
H261 C224 0.930 . S
H262 C230 0.929 . S
H263 C231 0.930 . S
Li264 N281 1.990 . S
Li264 O324 1.956 . S
Li264 O325 1.970 . S
Li264 O326 1.961 . S
Li265 N289 1.990 . S
Li265 O324 1.970 . S
Li265 O325 1.956 . S
Li265 O327 1.961 . S
Li266 N311 1.990 . S
Li266 O324 1.961 . S
Li266 O326 1.956 . S
Li266 O327 1.970 . S
Li267 N317 1.990 . S
Li267 O325 1.961 . S
Li267 O326 1.970 . S
Li267 O327 1.956 . S
C268 C270 1.348 . S
C268 C271 1.356 . S
C268 O324 1.325 . S
N269 C272 1.314 . S
N269 C273 1.279 . S
C270 C268 1.348 . S
C270 C272 1.353 . S
C270 H328 0.929 . S
C271 C268 1.356 . S
C271 C273 1.358 . S
C271 H329 0.930 . S
C272 N269 1.314 . S
C272 C270 1.353 . S
C272 H330 0.930 . S
C273 N269 1.279 . S
C273 C271 1.358 . S
C273 H331 0.930 . S
C274 C277 1.348 . S
C274 C278 1.356 . S
C274 O325 1.325 . S
C275 N276 1.279 . S
C275 C278 1.358 . S
C275 H332 0.930 . S
N276 C275 1.279 . S
N276 C279 1.314 . S
C277 C274 1.348 . S
C277 C279 1.353 . S
C277 H333 0.929 . S
C278 C274 1.356 . S
C278 C275 1.358 . S
C278 H334 0.930 . S
C279 N276 1.314 . S
C279 C277 1.353 . S
C279 H335 0.930 . S
C280 N281 1.314 . S
C280 C285 1.353 . S
C280 H286 0.930 . S
N281 Li264 1.990 . S
N281 C280 1.314 . S
N281 C283 1.279 . S
C282 C283 1.358 . S
C282 C284 1.356 . S
C282 H336 0.930 . S
C283 N281 1.279 . S
C283 C282 1.358 . S
C283 H287 0.930 . S
C284 C282 1.356 . S
C284 C285 1.348 . S
C285 C280 1.353 . S
C285 C284 1.348 . S
C285 H337 0.929 . S
H286 C280 0.930 . S
H287 C283 0.930 . S
C288 N289 1.314 . S
C288 C290 1.353 . S
C288 H294 0.930 . S
N289 Li265 1.990 . S
N289 C288 1.314 . S
N289 C292 1.279 . S
C290 C288 1.353 . S
C290 C293 1.348 . S
C290 H338 0.929 . S
C291 C292 1.358 . S
C291 C293 1.356 . S
C291 H339 0.930 . S
C292 N289 1.279 . S
C292 C291 1.358 . S
C292 H295 0.930 . S
C293 C290 1.348 . S
C293 C291 1.356 . S
H294 C288 0.930 . S
H295 C292 0.930 . S
C296 C298 1.348 . S
C296 C299 1.356 . S
C296 O326 1.325 . S
N297 C300 1.314 . S
N297 C301 1.279 . S
C298 C296 1.348 . S
C298 C300 1.353 . S
C298 H340 0.929 . S
C299 C296 1.356 . S
C299 C301 1.358 . S
C299 H341 0.930 . S
C300 N297 1.314 . S
C300 C298 1.353 . S
C300 H342 0.930 . S
C301 N297 1.279 . S
C301 C299 1.358 . S
C301 H343 0.930 . S
C302 C303 1.348 . S
C302 C304 1.356 . S
C302 O327 1.325 . S
C303 C302 1.348 . S
C303 C305 1.353 . S
C303 H344 0.929 . S
C304 C302 1.356 . S
C304 C306 1.358 . S
C304 H345 0.930 . S
C305 C303 1.353 . S
C305 N307 1.314 . S
C305 H346 0.930 . S
C306 C304 1.358 . S
C306 N307 1.279 . S
C306 H347 0.930 . S
N307 C305 1.314 . S
N307 C306 1.279 . S
C308 C310 1.353 . S
C308 N311 1.314 . S
C308 H314 0.930 . S
C309 N311 1.279 . S
C309 C312 1.358 . S
C309 H315 0.930 . S
C310 C308 1.353 . S
C310 C313 1.348 . S
C310 H348 0.929 . S
N311 Li266 1.990 . S
N311 C308 1.314 . S
N311 C309 1.279 . S
C312 C309 1.358 . S
C312 C313 1.356 . S
C312 H349 0.930 . S
C313 C310 1.348 . S
C313 C312 1.356 . S
H314 C308 0.930 . S
H315 C309 0.930 . S
C316 N317 1.314 . S
C316 C318 1.353 . S
C316 H322 0.930 . S
N317 Li267 1.990 . S
N317 C316 1.314 . S
N317 C320 1.279 . S
C318 C316 1.353 . S
C318 C321 1.348 . S
C318 H350 0.929 . S
C319 C320 1.358 . S
C319 C321 1.356 . S
C319 H351 0.930 . S
C320 N317 1.279 . S
C320 C319 1.358 . S
C320 H323 0.930 . S
C321 C318 1.348 . S
C321 C319 1.356 . S
H322 C316 0.930 . S
H323 C320 0.930 . S
O324 Li264 1.956 . S
O324 Li265 1.970 . S
O324 Li266 1.961 . S
O324 C268 1.325 . S
O325 Li264 1.970 . S
O325 Li265 1.956 . S
O325 Li267 1.961 . S
O325 C274 1.325 . S
O326 Li264 1.961 . S
O326 Li266 1.956 . S
O326 Li267 1.970 . S
O326 C296 1.325 . S
O327 Li265 1.961 . S
O327 Li266 1.970 . S
O327 Li267 1.956 . S
O327 C302 1.325 . S
H328 C270 0.929 . S
H329 C271 0.930 . S
H330 C272 0.930 . S
H331 C273 0.930 . S
H332 C275 0.930 . S
H333 C277 0.929 . S
H334 C278 0.930 . S
H335 C279 0.930 . S
H336 C282 0.930 . S
H337 C285 0.929 . S
H338 C290 0.929 . S
H339 C291 0.930 . S
H340 C298 0.929 . S
H341 C299 0.930 . S
H342 C300 0.930 . S
H343 C301 0.930 . S
H344 C303 0.929 . S
H345 C304 0.930 . S
H346 C305 0.930 . S
H347 C306 0.930 . S
H348 C310 0.929 . S
H349 C312 0.930 . S
H350 C318 0.929 . S
H351 C319 0.930 . S
Li352 N369 1.990 . S
Li352 O412 1.956 . S
Li352 O413 1.970 . S
Li352 O414 1.961 . S
Li353 N377 1.990 . S
Li353 O412 1.970 . S
Li353 O413 1.956 . S
Li353 O415 1.961 . S
Li354 N399 1.990 . S
Li354 O412 1.961 . S
Li354 O414 1.956 . S
Li354 O415 1.970 . S
Li355 N405 1.990 . S
Li355 O413 1.961 . S
Li355 O414 1.970 . S
Li355 O415 1.956 . S
C356 C358 1.348 . S
C356 C359 1.356 . S
C356 O412 1.325 . S
N357 C360 1.314 . S
N357 C361 1.279 . S
C358 C356 1.348 . S
C358 C360 1.353 . S
C358 H416 0.929 . S
C359 C356 1.356 . S
C359 C361 1.358 . S
C359 H417 0.930 . S
C360 N357 1.314 . S
C360 C358 1.353 . S
C360 H418 0.930 . S
C361 N357 1.279 . S
C361 C359 1.358 . S
C361 H419 0.930 . S
C362 C365 1.348 . S
C362 C366 1.356 . S
C362 O413 1.325 . S
C363 N364 1.279 . S
C363 C366 1.358 . S
C363 H420 0.930 . S
N364 C363 1.279 . S
N364 C367 1.314 . S
C365 C362 1.348 . S
C365 C367 1.353 . S
C365 H421 0.929 . S
C366 C362 1.356 . S
C366 C363 1.358 . S
C366 H422 0.930 . S
C367 N364 1.314 . S
C367 C365 1.353 . S
C367 H423 0.930 . S
C368 N369 1.314 . S
C368 C373 1.353 . S
C368 H374 0.930 . S
N369 Li352 1.990 . S
N369 C368 1.314 . S
N369 C371 1.279 . S
C370 C371 1.358 . S
C370 C372 1.356 . S
C370 H424 0.930 . S
C371 N369 1.279 . S
C371 C370 1.358 . S
C371 H375 0.930 . S
C372 C370 1.356 . S
C372 C373 1.348 . S
C373 C368 1.353 . S
C373 C372 1.348 . S
C373 H425 0.929 . S
H374 C368 0.930 . S
H375 C371 0.930 . S
C376 N377 1.314 . S
C376 C378 1.353 . S
C376 H382 0.930 . S
N377 Li353 1.990 . S
N377 C376 1.314 . S
N377 C380 1.279 . S
C378 C376 1.353 . S
C378 C381 1.348 . S
C378 H426 0.929 . S
C379 C380 1.358 . S
C379 C381 1.356 . S
C379 H427 0.930 . S
C380 N377 1.279 . S
C380 C379 1.358 . S
C380 H383 0.930 . S
C381 C378 1.348 . S
C381 C379 1.356 . S
H382 C376 0.930 . S
H383 C380 0.930 . S
C384 C386 1.348 . S
C384 C387 1.356 . S
C384 O414 1.325 . S
N385 C388 1.314 . S
N385 C389 1.279 . S
C386 C384 1.348 . S
C386 C388 1.353 . S
C386 H428 0.929 . S
C387 C384 1.356 . S
C387 C389 1.358 . S
C387 H429 0.930 . S
C388 N385 1.314 . S
C388 C386 1.353 . S
C388 H430 0.930 . S
C389 N385 1.279 . S
C389 C387 1.358 . S
C389 H431 0.930 . S
C390 C391 1.348 . S
C390 C392 1.356 . S
C390 O415 1.325 . S
C391 C390 1.348 . S
C391 C393 1.353 . S
C391 H432 0.929 . S
C392 C390 1.356 . S
C392 C394 1.358 . S
C392 H433 0.930 . S
C393 C391 1.353 . S
C393 N395 1.314 . S
C393 H434 0.930 . S
C394 C392 1.358 . S
C394 N395 1.279 . S
C394 H435 0.930 . S
N395 C393 1.314 . S
N395 C394 1.279 . S
C396 C398 1.353 . S
C396 N399 1.314 . S
C396 H402 0.930 . S
C397 N399 1.279 . S
C397 C400 1.358 . S
C397 H403 0.930 . S
C398 C396 1.353 . S
C398 C401 1.348 . S
C398 H436 0.929 . S
N399 Li354 1.990 . S
N399 C396 1.314 . S
N399 C397 1.279 . S
C400 C397 1.358 . S
C400 C401 1.356 . S
C400 H437 0.930 . S
C401 C398 1.348 . S
C401 C400 1.356 . S
H402 C396 0.930 . S
H403 C397 0.930 . S
C404 N405 1.314 . S
C404 C406 1.353 . S
C404 H410 0.930 . S
N405 Li355 1.990 . S
N405 C404 1.314 . S
N405 C408 1.279 . S
C406 C404 1.353 . S
C406 C409 1.348 . S
C406 H438 0.929 . S
C407 C408 1.358 . S
C407 C409 1.356 . S
C407 H439 0.930 . S
C408 N405 1.279 . S
C408 C407 1.358 . S
C408 H411 0.930 . S
C409 C406 1.348 . S
C409 C407 1.356 . S
H410 C404 0.930 . S
H411 C408 0.930 . S
O412 Li352 1.956 . S
O412 Li353 1.970 . S
O412 Li354 1.961 . S
O412 C356 1.325 . S
O413 Li352 1.970 . S
O413 Li353 1.956 . S
O413 Li355 1.961 . S
O413 C362 1.325 . S
O414 Li352 1.961 . S
O414 Li354 1.956 . S
O414 Li355 1.970 . S
O414 C384 1.325 . S
O415 Li353 1.961 . S
O415 Li354 1.970 . S
O415 Li355 1.956 . S
O415 C390 1.325 . S
H416 C358 0.929 . S
H417 C359 0.930 . S
H418 C360 0.930 . S
H419 C361 0.930 . S
H420 C363 0.930 . S
H421 C365 0.929 . S
H422 C366 0.930 . S
H423 C367 0.930 . S
H424 C370 0.930 . S
H425 C373 0.929 . S
H426 C378 0.929 . S
H427 C379 0.930 . S
H428 C386 0.929 . S
H429 C387 0.930 . S
H430 C388 0.930 . S
H431 C389 0.930 . S
H432 C391 0.929 . S
H433 C392 0.930 . S
H434 C393 0.930 . S
H435 C394 0.930 . S
H436 C398 0.929 . S
H437 C400 0.930 . S
H438 C406 0.929 . S
H439 C407 0.930 . S
Li440 N457 1.990 . S
Li440 O500 1.956 . S
Li440 O501 1.970 . S
Li440 O502 1.961 . S
Li441 N465 1.990 . S
Li441 O500 1.970 . S
Li441 O501 1.956 . S
Li441 O503 1.961 . S
Li442 N487 1.990 . S
Li442 O500 1.961 . S
Li442 O502 1.956 . S
Li442 O503 1.970 . S
Li443 N493 1.990 . S
Li443 O501 1.961 . S
Li443 O502 1.970 . S
Li443 O503 1.956 . S
C444 C446 1.348 . S
C444 C447 1.356 . S
C444 O500 1.325 . S
N445 C448 1.314 . S
N445 C449 1.279 . S
C446 C444 1.348 . S
C446 C448 1.353 . S
C446 H504 0.929 . S
C447 C444 1.356 . S
C447 C449 1.358 . S
C447 H505 0.930 . S
C448 N445 1.314 . S
C448 C446 1.353 . S
C448 H506 0.930 . S
C449 N445 1.279 . S
C449 C447 1.358 . S
C449 H507 0.930 . S
C450 C453 1.348 . S
C450 C454 1.356 . S
C450 O501 1.325 . S
C451 N452 1.279 1_655 S
C451 C454 1.358 . S
C451 H508 0.930 . S
N452 C451 1.279 1_455 S
N452 C455 1.314 . S
C453 C450 1.348 . S
C453 C455 1.353 1_655 S
C453 H509 0.929 . S
C454 C450 1.356 . S
C454 C451 1.358 . S
C454 H510 0.930 . S
C455 N452 1.314 . S
C455 C453 1.353 1_455 S
C455 H511 0.930 . S
C456 N457 1.314 . S
C456 C461 1.353 . S
C456 H462 0.930 . S
N457 Li440 1.990 . S
N457 C456 1.314 . S
N457 C459 1.279 . S
C458 C459 1.358 . S
C458 C460 1.356 . S
C458 H512 0.930 . S
C459 N457 1.279 . S
C459 C458 1.358 . S
C459 H463 0.930 . S
C460 C458 1.356 . S
C460 C461 1.348 . S
C461 C456 1.353 . S
C461 C460 1.348 . S
C461 H513 0.929 . S
H462 C456 0.930 . S
H463 C459 0.930 . S
C464 N465 1.314 . S
C464 C466 1.353 . S
C464 H470 0.930 . S
N465 Li441 1.990 . S
N465 C464 1.314 . S
N465 C468 1.279 . S
C466 C464 1.353 . S
C466 C469 1.348 . S
C466 H514 0.929 . S
C467 C468 1.358 . S
C467 C469 1.356 . S
C467 H515 0.930 . S
C468 N465 1.279 . S
C468 C467 1.358 . S
C468 H471 0.930 . S
C469 C466 1.348 . S
C469 C467 1.356 . S
H470 C464 0.930 . S
H471 C468 0.930 . S
C472 C474 1.348 . S
C472 C475 1.356 . S
C472 O502 1.325 . S
N473 C476 1.314 . S
N473 C477 1.279 . S
C474 C472 1.348 . S
C474 C476 1.353 . S
C474 H516 0.929 . S
C475 C472 1.356 . S
C475 C477 1.358 . S
C475 H517 0.930 . S
C476 N473 1.314 . S
C476 C474 1.353 . S
C476 H518 0.930 . S
C477 N473 1.279 . S
C477 C475 1.358 . S
C477 H519 0.930 . S
C478 C479 1.348 . S
C478 C480 1.356 . S
C478 O503 1.325 . S
C479 C478 1.348 . S
C479 C481 1.353 . S
C479 H520 0.929 . S
C480 C478 1.356 . S
C480 C482 1.358 . S
C480 H521 0.930 . S
C481 C479 1.353 . S
C481 N483 1.314 . S
C481 H522 0.930 . S
C482 C480 1.358 . S
C482 N483 1.279 . S
C482 H523 0.930 . S
N483 C481 1.314 . S
N483 C482 1.279 . S
C484 C486 1.353 . S
C484 N487 1.314 . S
C484 H490 0.930 . S
C485 N487 1.279 . S
C485 C488 1.358 . S
C485 H491 0.930 . S
C486 C484 1.353 . S
C486 C489 1.348 . S
C486 H524 0.929 . S
N487 Li442 1.990 . S
N487 C484 1.314 . S
N487 C485 1.279 . S
C488 C485 1.358 . S
C488 C489 1.356 . S
C488 H525 0.930 . S
C489 C486 1.348 . S
C489 C488 1.356 . S
H490 C484 0.930 . S
H491 C485 0.930 . S
C492 N493 1.314 . S
C492 C494 1.353 . S
C492 H498 0.930 . S
N493 Li443 1.990 . S
N493 C492 1.314 . S
N493 C496 1.279 . S
C494 C492 1.353 . S
C494 C497 1.348 . S
C494 H526 0.929 . S
C495 C496 1.358 . S
C495 C497 1.356 . S
C495 H527 0.930 . S
C496 N493 1.279 . S
C496 C495 1.358 . S
C496 H499 0.930 . S
C497 C494 1.348 . S
C497 C495 1.356 . S
H498 C492 0.930 . S
H499 C496 0.930 . S
O500 Li440 1.956 . S
O500 Li441 1.970 . S
O500 Li442 1.961 . S
O500 C444 1.325 . S
O501 Li440 1.970 . S
O501 Li441 1.956 . S
O501 Li443 1.961 . S
O501 C450 1.325 . S
O502 Li440 1.961 . S
O502 Li442 1.956 . S
O502 Li443 1.970 . S
O502 C472 1.325 . S
O503 Li441 1.961 . S
O503 Li442 1.970 . S
O503 Li443 1.956 . S
O503 C478 1.325 . S
H504 C446 0.929 . S
H505 C447 0.930 . S
H506 C448 0.930 . S
H507 C449 0.930 . S
H508 C451 0.930 . S
H509 C453 0.929 . S
H510 C454 0.930 . S
H511 C455 0.930 . S
H512 C458 0.930 . S
H513 C461 0.929 . S
H514 C466 0.929 . S
H515 C467 0.930 . S
H516 C474 0.929 . S
H517 C475 0.930 . S
H518 C476 0.930 . S
H519 C477 0.930 . S
H520 C479 0.929 . S
H521 C480 0.930 . S
H522 C481 0.930 . S
H523 C482 0.930 . S
H524 C486 0.929 . S
H525 C488 0.930 . S
H526 C494 0.929 . S
H527 C495 0.930 . S
Li528 N545 1.990 . S
Li528 O588 1.956 . S
Li528 O589 1.970 . S
Li528 O590 1.961 . S
Li529 N553 1.990 . S
Li529 O588 1.970 . S
Li529 O589 1.956 . S
Li529 O591 1.961 . S
Li530 N575 1.990 . S
Li530 O588 1.961 . S
Li530 O590 1.956 . S
Li530 O591 1.970 . S
Li531 N581 1.990 . S
Li531 O589 1.961 . S
Li531 O590 1.970 . S
Li531 O591 1.956 . S
C532 C534 1.348 . S
C532 C535 1.356 . S
C532 O588 1.325 . S
N533 C536 1.314 . S
N533 C537 1.279 . S
C534 C532 1.348 . S
C534 C536 1.353 . S
C534 H592 0.929 . S
C535 C532 1.356 . S
C535 C537 1.358 . S
C535 H593 0.930 . S
C536 N533 1.314 . S
C536 C534 1.353 . S
C536 H594 0.930 . S
C537 N533 1.279 . S
C537 C535 1.358 . S
C537 H595 0.930 . S
C538 C541 1.348 . S
C538 C542 1.356 . S
C538 O589 1.325 . S
C539 N540 1.279 . S
C539 C542 1.358 . S
C539 H596 0.930 . S
N540 C539 1.279 . S
N540 C543 1.314 . S
C541 C538 1.348 . S
C541 C543 1.353 . S
C541 H597 0.929 . S
C542 C538 1.356 . S
C542 C539 1.358 . S
C542 H598 0.930 . S
C543 N540 1.314 . S
C543 C541 1.353 . S
C543 H599 0.930 . S
C544 N545 1.314 . S
C544 C549 1.353 . S
C544 H550 0.930 . S
N545 Li528 1.990 . S
N545 C544 1.314 . S
N545 C547 1.279 . S
C546 C547 1.358 . S
C546 C548 1.356 . S
C546 H600 0.930 . S
C547 N545 1.279 . S
C547 C546 1.358 . S
C547 H551 0.930 . S
C548 C546 1.356 . S
C548 C549 1.348 . S
C549 C544 1.353 . S
C549 C548 1.348 . S
C549 H601 0.929 . S
H550 C544 0.930 . S
H551 C547 0.930 . S
C552 N553 1.314 . S
C552 C554 1.353 . S
C552 H558 0.930 . S
N553 Li529 1.990 . S
N553 C552 1.314 . S
N553 C556 1.279 . S
C554 C552 1.353 . S
C554 C557 1.348 . S
C554 H602 0.929 . S
C555 C556 1.358 . S
C555 C557 1.356 . S
C555 H603 0.930 . S
C556 N553 1.279 . S
C556 C555 1.358 . S
C556 H559 0.930 . S
C557 C554 1.348 . S
C557 C555 1.356 . S
H558 C552 0.930 . S
H559 C556 0.930 . S
C560 C562 1.348 . S
C560 C563 1.356 . S
C560 O590 1.325 . S
N561 C564 1.314 . S
N561 C565 1.279 1_545 S
C562 C560 1.348 . S
C562 C564 1.353 1_565 S
C562 H604 0.929 . S
C563 C560 1.356 . S
C563 C565 1.358 . S
C563 H605 0.930 . S
C564 N561 1.314 . S
C564 C562 1.353 1_545 S
C564 H606 0.930 . S
C565 N561 1.279 1_565 S
C565 C563 1.358 . S
C565 H607 0.930 . S
C566 C567 1.348 . S
C566 C568 1.356 . S
C566 O591 1.325 . S
C567 C566 1.348 . S
C567 C569 1.353 . S
C567 H608 0.929 . S
C568 C566 1.356 . S
C568 C570 1.358 . S
C568 H609 0.930 . S
C569 C567 1.353 . S
C569 N571 1.314 . S
C569 H610 0.930 . S
C570 C568 1.358 . S
C570 N571 1.279 . S
C570 H611 0.930 . S
N571 C569 1.314 . S
N571 C570 1.279 . S
C572 C574 1.353 . S
C572 N575 1.314 . S
C572 H578 0.930 . S
C573 N575 1.279 . S
C573 C576 1.358 . S
C573 H579 0.930 . S
C574 C572 1.353 . S
C574 C577 1.348 . S
C574 H612 0.929 . S
N575 Li530 1.990 . S
N575 C572 1.314 . S
N575 C573 1.279 . S
C576 C573 1.358 . S
C576 C577 1.356 . S
C576 H613 0.930 . S
C577 C574 1.348 . S
C577 C576 1.356 . S
H578 C572 0.930 . S
H579 C573 0.930 . S
C580 N581 1.314 . S
C580 C582 1.353 . S
C580 H586 0.930 . S
N581 Li531 1.990 . S
N581 C580 1.314 . S
N581 C584 1.279 . S
C582 C580 1.353 . S
C582 C585 1.348 . S
C582 H614 0.929 . S
C583 C584 1.358 . S
C583 C585 1.356 . S
C583 H615 0.930 . S
C584 N581 1.279 . S
C584 C583 1.358 . S
C584 H587 0.930 . S
C585 C582 1.348 . S
C585 C583 1.356 . S
H586 C580 0.930 . S
H587 C584 0.930 . S
O588 Li528 1.956 . S
O588 Li529 1.970 . S
O588 Li530 1.961 . S
O588 C532 1.325 . S
O589 Li528 1.970 . S
O589 Li529 1.956 . S
O589 Li531 1.961 . S
O589 C538 1.325 . S
O590 Li528 1.961 . S
O590 Li530 1.956 . S
O590 Li531 1.970 . S
O590 C560 1.325 . S
O591 Li529 1.961 . S
O591 Li530 1.970 . S
O591 Li531 1.956 . S
O591 C566 1.325 . S
H592 C534 0.929 . S
H593 C535 0.930 . S
H594 C536 0.930 . S
H595 C537 0.930 . S
H596 C539 0.930 . S
H597 C541 0.929 . S
H598 C542 0.930 . S
H599 C543 0.930 . S
H600 C546 0.930 . S
H601 C549 0.929 . S
H602 C554 0.929 . S
H603 C555 0.930 . S
H604 C562 0.929 . S
H605 C563 0.930 . S
H606 C564 0.930 . S
H607 C565 0.930 . S
H608 C567 0.929 . S
H609 C568 0.930 . S
H610 C569 0.930 . S
H611 C570 0.930 . S
H612 C574 0.929 . S
H613 C576 0.930 . S
H614 C582 0.929 . S
H615 C583 0.930 . S
Li616 N633 1.990 . S
Li616 O676 1.956 . S
Li616 O677 1.970 . S
Li616 O678 1.961 . S
Li617 N641 1.990 . S
Li617 O676 1.970 . S
Li617 O677 1.956 . S
Li617 O679 1.961 . S
Li618 N663 1.990 . S
Li618 O676 1.961 . S
Li618 O678 1.956 . S
Li618 O679 1.970 . S
Li619 N669 1.990 . S
Li619 O677 1.961 . S
Li619 O678 1.970 . S
Li619 O679 1.956 . S
C620 C622 1.348 . S
C620 C623 1.356 . S
C620 O676 1.325 . S
N621 C624 1.314 . S
N621 C625 1.279 . S
C622 C620 1.348 . S
C622 C624 1.353 . S
C622 H680 0.929 . S
C623 C620 1.356 . S
C623 C625 1.358 . S
C623 H681 0.930 . S
C624 N621 1.314 . S
C624 C622 1.353 . S
C624 H682 0.930 . S
C625 N621 1.279 . S
C625 C623 1.358 . S
C625 H683 0.930 . S
C626 C629 1.348 . S
C626 C630 1.356 . S
C626 O677 1.325 . S
C627 N628 1.279 . S
C627 C630 1.358 . S
C627 H684 0.930 . S
N628 C627 1.279 . S
N628 C631 1.314 . S
C629 C626 1.348 . S
C629 C631 1.353 . S
C629 H685 0.929 . S
C630 C626 1.356 . S
C630 C627 1.358 . S
C630 H686 0.930 . S
C631 N628 1.314 . S
C631 C629 1.353 . S
C631 H687 0.930 . S
C632 N633 1.314 . S
C632 C637 1.353 . S
C632 H638 0.930 . S
N633 Li616 1.990 . S
N633 C632 1.314 . S
N633 C635 1.279 . S
C634 C635 1.358 . S
C634 C636 1.356 . S
C634 H688 0.930 . S
C635 N633 1.279 . S
C635 C634 1.358 . S
C635 H639 0.930 . S
C636 C634 1.356 . S
C636 C637 1.348 . S
C637 C632 1.353 . S
C637 C636 1.348 . S
C637 H689 0.929 . S
H638 C632 0.930 . S
H639 C635 0.930 . S
C640 N641 1.314 . S
C640 C642 1.353 . S
C640 H646 0.930 . S
N641 Li617 1.990 . S
N641 C640 1.314 . S
N641 C644 1.279 . S
C642 C640 1.353 . S
C642 C645 1.348 . S
C642 H690 0.929 . S
C643 C644 1.358 . S
C643 C645 1.356 . S
C643 H691 0.930 . S
C644 N641 1.279 . S
C644 C643 1.358 . S
C644 H647 0.930 . S
C645 C642 1.348 . S
C645 C643 1.356 . S
H646 C640 0.930 . S
H647 C644 0.930 . S
C648 C650 1.348 . S
C648 C651 1.356 . S
C648 O678 1.325 . S
N649 C652 1.314 . S
N649 C653 1.279 . S
C650 C648 1.348 . S
C650 C652 1.353 . S
C650 H692 0.929 . S
C651 C648 1.356 . S
C651 C653 1.358 . S
C651 H693 0.930 . S
C652 N649 1.314 . S
C652 C650 1.353 . S
C652 H694 0.930 . S
C653 N649 1.279 . S
C653 C651 1.358 . S
C653 H695 0.930 . S
C654 C655 1.348 . S
C654 C656 1.356 . S
C654 O679 1.325 . S
C655 C654 1.348 . S
C655 C657 1.353 . S
C655 H696 0.929 . S
C656 C654 1.356 . S
C656 C658 1.358 . S
C656 H697 0.930 . S
C657 C655 1.353 . S
C657 N659 1.314 . S
C657 H698 0.930 . S
C658 C656 1.358 . S
C658 N659 1.279 . S
C658 H699 0.930 . S
N659 C657 1.314 . S
N659 C658 1.279 . S
C660 C662 1.353 . S
C660 N663 1.314 . S
C660 H666 0.930 . S
C661 N663 1.279 . S
C661 C664 1.358 . S
C661 H667 0.930 . S
C662 C660 1.353 . S
C662 C665 1.348 . S
C662 H700 0.929 . S
N663 Li618 1.990 . S
N663 C660 1.314 . S
N663 C661 1.279 . S
C664 C661 1.358 . S
C664 C665 1.356 . S
C664 H701 0.930 . S
C665 C662 1.348 . S
C665 C664 1.356 . S
H666 C660 0.930 . S
H667 C661 0.930 . S
C668 N669 1.314 . S
C668 C670 1.353 . S
C668 H674 0.930 . S
N669 Li619 1.990 . S
N669 C668 1.314 . S
N669 C672 1.279 . S
C670 C668 1.353 . S
C670 C673 1.348 . S
C670 H702 0.929 . S
C671 C672 1.358 . S
C671 C673 1.356 . S
C671 H703 0.930 . S
C672 N669 1.279 . S
C672 C671 1.358 . S
C672 H675 0.930 . S
C673 C670 1.348 . S
C673 C671 1.356 . S
H674 C668 0.930 . S
H675 C672 0.930 . S
O676 Li616 1.956 . S
O676 Li617 1.970 . S
O676 Li618 1.961 . S
O676 C620 1.325 . S
O677 Li616 1.970 . S
O677 Li617 1.956 . S
O677 Li619 1.961 . S
O677 C626 1.325 . S
O678 Li616 1.961 . S
O678 Li618 1.956 . S
O678 Li619 1.970 . S
O678 C648 1.325 . S
O679 Li617 1.961 . S
O679 Li618 1.970 . S
O679 Li619 1.956 . S
O679 C654 1.325 . S
H680 C622 0.929 . S
H681 C623 0.930 . S
H682 C624 0.930 . S
H683 C625 0.930 . S
H684 C627 0.930 . S
H685 C629 0.929 . S
H686 C630 0.930 . S
H687 C631 0.930 . S
H688 C634 0.930 . S
H689 C637 0.929 . S
H690 C642 0.929 . S
H691 C643 0.930 . S
H692 C650 0.929 . S
H693 C651 0.930 . S
H694 C652 0.930 . S
H695 C653 0.930 . S
H696 C655 0.929 . S
H697 C656 0.930 . S
H698 C657 0.930 . S
H699 C658 0.930 . S
H700 C662 0.929 . S
H701 C664 0.930 . S
H702 C670 0.929 . S
H703 C671 0.930 . S
Li704 N721 1.990 . S
Li704 O764 1.956 . S
Li704 O765 1.970 . S
Li704 O766 1.961 . S
Li705 N729 1.990 . S
Li705 O764 1.970 . S
Li705 O765 1.956 . S
Li705 O767 1.961 . S
Li706 N751 1.990 . S
Li706 O764 1.961 . S
Li706 O766 1.956 . S
Li706 O767 1.970 . S
Li707 N757 1.990 . S
Li707 O765 1.961 . S
Li707 O766 1.970 . S
Li707 O767 1.956 . S
C708 C710 1.348 . S
C708 C711 1.356 . S
C708 O764 1.325 . S
N709 C712 1.314 . S
N709 C713 1.279 . S
C710 C708 1.348 . S
C710 C712 1.353 . S
C710 H768 0.929 . S
C711 C708 1.356 . S
C711 C713 1.358 . S
C711 H769 0.930 . S
C712 N709 1.314 . S
C712 C710 1.353 . S
C712 H770 0.930 . S
C713 N709 1.279 . S
C713 C711 1.358 . S
C713 H771 0.930 . S
C714 C717 1.348 . S
C714 C718 1.356 . S
C714 O765 1.325 . S
C715 N716 1.279 . S
C715 C718 1.358 . S
C715 H772 0.930 . S
N716 C715 1.279 . S
N716 C719 1.314 . S
C717 C714 1.348 . S
C717 C719 1.353 . S
C717 H773 0.929 . S
C718 C714 1.356 . S
C718 C715 1.358 . S
C718 H774 0.930 . S
C719 N716 1.314 . S
C719 C717 1.353 . S
C719 H775 0.930 . S
C720 N721 1.314 . S
C720 C725 1.353 . S
C720 H726 0.930 . S
N721 Li704 1.990 . S
N721 C720 1.314 . S
N721 C723 1.279 . S
C722 C723 1.358 . S
C722 C724 1.356 . S
C722 H776 0.930 . S
C723 N721 1.279 . S
C723 C722 1.358 . S
C723 H727 0.930 . S
C724 C722 1.356 . S
C724 C725 1.348 . S
C725 C720 1.353 . S
C725 C724 1.348 . S
C725 H777 0.929 . S
H726 C720 0.930 . S
H727 C723 0.930 . S
C728 N729 1.314 . S
C728 C730 1.353 . S
C728 H734 0.930 . S
N729 Li705 1.990 . S
N729 C728 1.314 . S
N729 C732 1.279 . S
C730 C728 1.353 . S
C730 C733 1.348 . S
C730 H778 0.929 . S
C731 C732 1.358 . S
C731 C733 1.356 . S
C731 H779 0.930 . S
C732 N729 1.279 . S
C732 C731 1.358 . S
C732 H735 0.930 . S
C733 C730 1.348 . S
C733 C731 1.356 . S
H734 C728 0.930 . S
H735 C732 0.930 . S
C736 C738 1.348 . S
C736 C739 1.356 . S
C736 O766 1.325 . S
N737 C740 1.314 . S
N737 C741 1.279 . S
C738 C736 1.348 . S
C738 C740 1.353 . S
C738 H780 0.929 . S
C739 C736 1.356 . S
C739 C741 1.358 . S
C739 H781 0.930 . S
C740 N737 1.314 . S
C740 C738 1.353 . S
C740 H782 0.930 . S
C741 N737 1.279 . S
C741 C739 1.358 . S
C741 H783 0.930 . S
C742 C743 1.348 . S
C742 C744 1.356 . S
C742 O767 1.325 . S
C743 C742 1.348 . S
C743 C745 1.353 . S
C743 H784 0.929 . S
C744 C742 1.356 . S
C744 C746 1.358 . S
C744 H785 0.930 . S
C745 C743 1.353 . S
C745 N747 1.314 . S
C745 H786 0.930 . S
C746 C744 1.358 . S
C746 N747 1.279 . S
C746 H787 0.930 . S
N747 C745 1.314 . S
N747 C746 1.279 . S
C748 C750 1.353 . S
C748 N751 1.314 . S
C748 H754 0.930 . S
C749 N751 1.279 . S
C749 C752 1.358 . S
C749 H755 0.930 . S
C750 C748 1.353 . S
C750 C753 1.348 . S
C750 H788 0.929 . S
N751 Li706 1.990 . S
N751 C748 1.314 . S
N751 C749 1.279 . S
C752 C749 1.358 . S
C752 C753 1.356 . S
C752 H789 0.930 . S
C753 C750 1.348 . S
C753 C752 1.356 . S
H754 C748 0.930 . S
H755 C749 0.930 . S
C756 N757 1.314 . S
C756 C758 1.353 . S
C756 H762 0.930 . S
N757 Li707 1.990 . S
N757 C756 1.314 . S
N757 C760 1.279 . S
C758 C756 1.353 . S
C758 C761 1.348 . S
C758 H790 0.929 . S
C759 C760 1.358 . S
C759 C761 1.356 . S
C759 H791 0.930 . S
C760 N757 1.279 . S
C760 C759 1.358 . S
C760 H763 0.930 . S
C761 C758 1.348 . S
C761 C759 1.356 . S
H762 C756 0.930 . S
H763 C760 0.930 . S
O764 Li704 1.956 . S
O764 Li705 1.970 . S
O764 Li706 1.961 . S
O764 C708 1.325 . S
O765 Li704 1.970 . S
O765 Li705 1.956 . S
O765 Li707 1.961 . S
O765 C714 1.325 . S
O766 Li704 1.961 . S
O766 Li706 1.956 . S
O766 Li707 1.970 . S
O766 C736 1.325 . S
O767 Li705 1.961 . S
O767 Li706 1.970 . S
O767 Li707 1.956 . S
O767 C742 1.325 . S
H768 C710 0.929 . S
H769 C711 0.930 . S
H770 C712 0.930 . S
H771 C713 0.930 . S
H772 C715 0.930 . S
H773 C717 0.929 . S
H774 C718 0.930 . S
H775 C719 0.930 . S
H776 C722 0.930 . S
H777 C725 0.929 . S
H778 C730 0.929 . S
H779 C731 0.930 . S
H780 C738 0.929 . S
H781 C739 0.930 . S
H782 C740 0.930 . S
H783 C741 0.930 . S
H784 C743 0.929 . S
H785 C744 0.930 . S
H786 C745 0.930 . S
H787 C746 0.930 . S
H788 C750 0.929 . S
H789 C752 0.930 . S
H790 C758 0.929 . S
H791 C759 0.930 . S
C792 C793 1.369 1_554 S
C792 C794 1.419 . S
C792 H796 0.930 . S
C793 C792 1.369 1_556 S
C793 C802 1.429 . S
C794 C792 1.419 . S
C794 C795 1.363 . S
C794 H797 0.929 . S
C795 C794 1.363 . S
C795 C801 1.428 1_554 S
H796 C792 0.930 . S
H797 C794 0.929 . S
S798 N799 1.613 . S
S798 N800 1.610 . S
N799 S798 1.613 . S
N799 C802 1.350 . S
N800 S798 1.610 . S
N800 C801 1.351 . S
C801 C795 1.428 1_556 S
C801 N800 1.351 . S
C801 C802 1.434 . S
C802 C793 1.429 . S
C802 N799 1.350 . S
C802 C801 1.434 . S
C803 C804 1.369 1_545 S
C803 C805 1.419 . S
C803 H807 0.930 1_545 S
C804 C803 1.369 1_565 S
C804 C813 1.429 . S
C805 C803 1.419 . S
C805 C806 1.363 1_554 S
C805 H808 0.929 . S
C806 C805 1.363 1_556 S
C806 C812 1.428 . S
H807 C803 0.930 1_565 S
H808 C805 0.929 . S
S809 N810 1.613 1_546 S
S809 N811 1.610 . S
N810 S809 1.613 1_564 S
N810 C813 1.350 . S
N811 S809 1.610 . S
N811 C812 1.351 . S
C812 C806 1.428 . S
C812 N811 1.351 . S
C812 C813 1.434 1_546 S
C813 C804 1.429 . S
C813 N810 1.350 . S
C813 C812 1.434 1_564 S
C814 C815 1.369 1_554 S
C814 C816 1.419 1_655 S
C814 H818 0.930 . S
C815 C814 1.369 1_556 S
C815 C824 1.429 1_655 S
C816 C814 1.419 1_455 S
C816 C817 1.363 . S
C816 H819 0.929 . S
C817 C816 1.363 . S
C817 C823 1.428 1_554 S
H818 C814 0.930 . S
H819 C816 0.929 . S
S820 N821 1.613 . S
S820 N822 1.610 . S
N821 S820 1.613 . S
N821 C824 1.350 . S
N822 S820 1.610 . S
N822 C823 1.351 . S
C823 C817 1.428 1_556 S
C823 N822 1.351 . S
C823 C824 1.434 . S
C824 C815 1.429 1_455 S
C824 N821 1.350 . S
C824 C823 1.434 . S
C825 C826 1.369 . S
C825 C827 1.419 . S
C825 H829 0.930 . S
C826 C825 1.369 . S
C826 C835 1.429 . S
C827 C825 1.419 . S
C827 C828 1.363 . S
C827 H830 0.929 . S
C828 C827 1.363 . S
C828 C834 1.428 . S
H829 C825 0.930 . S
H830 C827 0.929 . S
S831 N832 1.613 . S
S831 N833 1.610 . S
N832 S831 1.613 . S
N832 C835 1.350 . S
N833 S831 1.610 . S
N833 C834 1.351 . S
C834 C828 1.428 . S
C834 N833 1.351 . S
C834 C835 1.434 . S
C835 C826 1.429 . S
C835 N832 1.350 . S
C835 C834 1.434 . S
C836 C837 1.369 . S
C836 C838 1.419 . S
C836 H840 0.930 . S
C837 C836 1.369 . S
C837 C846 1.429 . S
C838 C836 1.419 . S
C838 C839 1.363 . S
C838 H841 0.929 . S
C839 C838 1.363 . S
C839 C845 1.428 . S
H840 C836 0.930 . S
H841 C838 0.929 . S
S842 N843 1.613 . S
S842 N844 1.610 . S
N843 S842 1.613 . S
N843 C846 1.350 . S
N844 S842 1.610 . S
N844 C845 1.351 . S
C845 C839 1.428 . S
C845 N844 1.351 . S
C845 C846 1.434 . S
C846 C837 1.429 . S
C846 N843 1.350 . S
C846 C845 1.434 . S
C847 C848 1.369 . S
C847 C849 1.419 . S
C847 H851 0.930 . S
C848 C847 1.369 . S
C848 C857 1.429 . S
C849 C847 1.419 . S
C849 C850 1.363 . S
C849 H852 0.929 . S
C850 C849 1.363 . S
C850 C856 1.428 . S
H851 C847 0.930 . S
H852 C849 0.929 . S
S853 N854 1.613 . S
S853 N855 1.610 . S
N854 S853 1.613 . S
N854 C857 1.350 . S
N855 S853 1.610 . S
N855 C856 1.351 . S
C856 C850 1.428 . S
C856 N855 1.351 . S
C856 C857 1.434 . S
C857 C848 1.429 . S
C857 N854 1.350 . S
C857 C856 1.434 . S
C858 C859 1.369 . S
C858 C860 1.419 . S
C858 H862 0.930 . S
C859 C858 1.369 . S
C859 C868 1.429 . S
C860 C858 1.419 . S
C860 C861 1.363 . S
C860 H863 0.929 . S
C861 C860 1.363 . S
C861 C867 1.428 . S
H862 C858 0.930 . S
H863 C860 0.929 . S
S864 N865 1.613 . S
S864 N866 1.610 . S
N865 S864 1.613 . S
N865 C868 1.350 . S
N866 S864 1.610 . S
N866 C867 1.351 . S
C867 C861 1.428 . S
C867 N866 1.351 . S
C867 C868 1.434 . S
C868 C859 1.429 . S
C868 N865 1.350 . S
C868 C867 1.434 . S
C869 C870 1.369 . S
C869 C871 1.419 . S
C869 H873 0.930 . S
C870 C869 1.369 . S
C870 C879 1.429 . S
C871 C869 1.419 . S
C871 C872 1.363 . S
C871 H874 0.929 . S
C872 C871 1.363 . S
C872 C878 1.428 . S
H873 C869 0.930 . S
H874 C871 0.929 . S
S875 N876 1.613 . S
S875 N877 1.610 . S
N876 S875 1.613 . S
N876 C879 1.350 . S
N877 S875 1.610 . S
N877 C878 1.351 . S
C878 C872 1.428 . S
C878 N877 1.351 . S
C878 C879 1.434 . S
C879 C870 1.429 . S
C879 N876 1.350 . S
C879 C878 1.434 . S
C880 C881 1.369 . S
C880 C882 1.419 . S
C880 H884 0.930 . S
C881 C880 1.369 . S
C881 C890 1.429 . S
C882 C880 1.419 . S
C882 C883 1.363 . S
C882 H885 0.929 . S
C883 C882 1.363 . S
C883 C889 1.428 . S
H884 C880 0.930 . S
H885 C882 0.929 . S
S886 N887 1.613 . S
S886 N888 1.610 . S
N887 S886 1.613 . S
N887 C890 1.350 . S
N888 S886 1.610 . S
N888 C889 1.351 . S
C889 C883 1.428 . S
C889 N888 1.351 . S
C889 C890 1.434 . S
C890 C881 1.429 . S
C890 N887 1.350 . S
C890 C889 1.434 . S
C891 C892 1.369 . S
C891 C893 1.419 . S
C891 H895 0.930 . S
C892 C891 1.369 . S
C892 C901 1.429 . S
C893 C891 1.419 . S
C893 C894 1.363 . S
C893 H896 0.929 . S
C894 C893 1.363 . S
C894 C900 1.428 . S
H895 C891 0.930 . S
H896 C893 0.929 . S
S897 N898 1.613 . S
S897 N899 1.610 . S
N898 S897 1.613 . S
N898 C901 1.350 . S
N899 S897 1.610 . S
N899 C900 1.351 . S
C900 C894 1.428 . S
C900 N899 1.351 . S
C900 C901 1.434 . S
C901 C892 1.429 . S
C901 N898 1.350 . S
C901 C900 1.434 . S
C902 C903 1.369 . S
C902 C904 1.419 . S
C902 H906 0.930 . S
C903 C902 1.369 . S
C903 C912 1.429 . S
C904 C902 1.419 . S
C904 C905 1.363 . S
C904 H907 0.929 . S
C905 C904 1.363 . S
C905 C911 1.428 . S
H906 C902 0.930 . S
H907 C904 0.929 . S
S908 N909 1.613 . S
S908 N910 1.610 . S
N909 S908 1.613 . S
N909 C912 1.350 . S
N910 S908 1.610 . S
N910 C911 1.351 . S
C911 C905 1.428 . S
C911 N910 1.351 . S
C911 C912 1.434 . S
C912 C903 1.429 . S
C912 N909 1.350 . S
C912 C911 1.434 . S
C913 C914 1.369 . S
C913 C915 1.419 . S
C913 H917 0.930 . S
C914 C913 1.369 . S
C914 C923 1.429 . S
C915 C913 1.419 . S
C915 C916 1.363 . S
C915 H918 0.929 1_565 S
C916 C915 1.363 . S
C916 C922 1.428 . S
H917 C913 0.930 . S
H918 C915 0.929 1_545 S
S919 N920 1.613 . S
S919 N921 1.610 . S
N920 S919 1.613 . S
N920 C923 1.350 . S
N921 S919 1.610 . S
N921 C922 1.351 . S
C922 C916 1.428 . S
C922 N921 1.351 . S
C922 C923 1.434 . S
C923 C914 1.429 . S
C923 N920 1.350 . S
C923 C922 1.434 . S
C924 C925 1.369 . S
C924 C926 1.419 . S
C924 H928 0.930 . S
C925 C924 1.369 . S
C925 C934 1.429 . S
C926 C924 1.419 . S
C926 C927 1.363 . S
C926 H929 0.929 . S
C927 C926 1.363 . S
C927 C933 1.428 . S
H928 C924 0.930 . S
H929 C926 0.929 . S
S930 N931 1.613 1_565 S
S930 N932 1.610 1_565 S
N931 S930 1.613 1_545 S
N931 C934 1.350 . S
N932 S930 1.610 1_545 S
N932 C933 1.351 . S
C933 C927 1.428 . S
C933 N932 1.351 . S
C933 C934 1.434 . S
C934 C925 1.429 . S
C934 N931 1.350 . S
C934 C933 1.434 . S
C935 C936 1.369 . S
C935 C937 1.419 . S
C935 H939 0.930 . S
C936 C935 1.369 . S
C936 C945 1.429 1_655 S
C937 C935 1.419 . S
C937 C938 1.363 . S
C937 H940 0.929 . S
C938 C937 1.363 . S
C938 C944 1.428 . S
H939 C935 0.930 . S
H940 C937 0.929 . S
S941 N942 1.613 . S
S941 N943 1.610 . S
N942 S941 1.613 . S
N942 C945 1.350 . S
N943 S941 1.610 . S
N943 C944 1.351 1_455 S
C944 C938 1.428 . S
C944 N943 1.351 1_655 S
C944 C945 1.434 1_655 S
C945 C936 1.429 1_455 S
C945 N942 1.350 . S
C945 C944 1.434 1_455 S
C946 C947 1.369 . S
C946 C948 1.419 . S
C946 H950 0.930 . S
C947 C946 1.369 . S
C947 C956 1.429 . S
C948 C946 1.419 . S
C948 C949 1.363 . S
C948 H951 0.929 . S
C949 C948 1.363 . S
C949 C955 1.428 . S
H950 C946 0.930 . S
H951 C948 0.929 . S
S952 N953 1.613 . S
S952 N954 1.610 . S
N953 S952 1.613 . S
N953 C956 1.350 . S
N954 S952 1.610 . S
N954 C955 1.351 . S
C955 C949 1.428 . S
C955 N954 1.351 . S
C955 C956 1.434 . S
C956 C947 1.429 . S
C956 N953 1.350 . S
C956 C955 1.434 . S
C957 C958 1.369 . S
C957 C959 1.419 1_455 S
C957 H961 0.930 1_455 S
C958 C957 1.369 . S
C958 C967 1.429 . S
C959 C957 1.419 1_655 S
C959 C960 1.363 . S
C959 H962 0.929 . S
C960 C959 1.363 . S
C960 C966 1.428 1_655 S
H961 C957 0.930 1_655 S
H962 C959 0.929 . S
S963 N964 1.613 . S
S963 N965 1.610 . S
N964 S963 1.613 . S
N964 C967 1.350 . S
N965 S963 1.610 . S
N965 C966 1.351 . S
C966 C960 1.428 1_455 S
C966 N965 1.351 . S
C966 C967 1.434 . S
C967 C958 1.429 . S
C967 N964 1.350 . S
C967 C966 1.434 . S
C968 C969 1.369 . S
C968 C970 1.419 . S
C968 H972 0.930 . S
C969 C968 1.369 . S
C969 C978 1.429 . S
C970 C968 1.419 . S
C970 C971 1.363 . S
C970 H973 0.929 . S
C971 C970 1.363 . S
C971 C977 1.428 . S
H972 C968 0.930 . S
H973 C970 0.929 . S
S974 N975 1.613 . S
S974 N976 1.610 . S
N975 S974 1.613 . S
N975 C978 1.350 . S
N976 S974 1.610 . S
N976 C977 1.351 . S
C977 C971 1.428 . S
C977 N976 1.351 . S
C977 C978 1.434 . S
C978 C969 1.429 . S
C978 N975 1.350 . S
C978 C977 1.434 . S
C979 C980 1.369 1_545 S
C979 C981 1.419 . S
C979 H983 0.926 . S
C980 C979 1.369 1_565 S
C980 C989 1.429 1_565 S
C981 C979 1.419 . S
C981 C982 1.363 . S
C981 H984 0.929 . S
C982 C981 1.363 . S
C982 C988 1.428 . S
H983 C979 0.926 . S
H984 C981 0.929 . S
S985 N986 1.612 1_545 S
S985 N987 1.610 . S
N986 S985 1.612 1_565 S
N986 C989 1.344 1_565 S
N987 S985 1.610 . S
N987 C988 1.351 . S
C988 C982 1.428 . S
C988 N987 1.351 . S
C988 C989 1.434 . S
C989 C980 1.429 1_545 S
C989 N986 1.344 1_545 S
C989 C988 1.434 . S
C793 C196 1.344 . S
C795 C49 1.340 . S
C804 C145 1.336 . S
C806 C29 1.336 . S
C815 C108 1.346 . S
C817 C233 1.336 . S
C826 C469 1.340 . S
C828 C321 1.342 . S
C837 C409 1.332 . S
C839 C284 1.341 . S
C848 C372 1.332 . S
C850 C489 1.342 . S
C859 C577 1.344 . S
C861 C724 1.340 . S
C870 C557 1.345 . S
C872 C665 1.335 . S
C881 C645 1.333 . S
C883 C761 1.339 . S
C892 C57 1.273 . S
C894 C636 1.275 . S
C903 C137 1.276 . S
C905 C733 1.275 . S
C914 C548 1.273 . S
C916 C225 1.274 . S
C925 C401 1.275 . S
C927 C205 1.276 . S
C936 C20 1.274 . S
C938 C497 1.275 . S
C947 C313 1.275 . S
C949 C117 1.274 . S
C958 C673 1.273 . S
C960 C460 1.274 . S
C969 C293 1.276 . S
C971 C753 1.274 . S
C980 C585 1.273 . S
C982 C381 1.273 . S
