# Generated by pormake.
# Topology wko, (6)-cn, num edge types: 1
# Building blocks:
#     Node 0, Type 0, BuildingBlock: IZENUY_clean_sbu_0, # of connection points: 6
#     Node 1, Type 0, BuildingBlock: IZENUY_clean_sbu_0, # of connection points: 6
#     Node 2, Type 0, BuildingBlock: IZENUY_clean_sbu_0, # of connection points: 6
#     Node 3, Type 0, BuildingBlock: IZENUY_clean_sbu_0, # of connection points: 6
#     Node 4, Type 0, BuildingBlock: IZENUY_clean_sbu_0, # of connection points: 6
#     Node 5, Type 0, BuildingBlock: IZENUY_clean_sbu_0, # of connection points: 6
#     Node 6, Type 0, BuildingBlock: IZENUY_clean_sbu_0, # of connection points: 6
#     Node 7, Type 0, BuildingBlock: IZENUY_clean_sbu_0, # of connection points: 6
#     Node 8, Type 0, BuildingBlock: IZENUY_clean_sbu_0, # of connection points: 6
#     Node 9, Type 0, BuildingBlock: IZENUY_clean_sbu_0, # of connection points: 6
#     Node 10, Type 0, BuildingBlock: IZENUY_clean_sbu_0, # of connection points: 6
#     Node 11, Type 0, BuildingBlock: IZENUY_clean_sbu_0, # of connection points: 6
#     Edge 12, Type (0, 0), None
#     Edge 13, Type (0, 0), None
#     Edge 14, Type (0, 0), None
#     Edge 15, Type (0, 0), None
#     Edge 16, Type (0, 0), None
#     Edge 17, Type (0, 0), None
#     Edge 18, Type (0, 0), None
#     Edge 19, Type (0, 0), None
#     Edge 20, Type (0, 0), None
#     Edge 21, Type (0, 0), None
#     Edge 22, Type (0, 0), None
#     Edge 23, Type (0, 0), None
#     Edge 24, Type (0, 0), None
#     Edge 25, Type (0, 0), None
#     Edge 26, Type (0, 0), None
#     Edge 27, Type (0, 0), None
#     Edge 28, Type (0, 0), None
#     Edge 29, Type (0, 0), None
#     Edge 30, Type (0, 0), None
#     Edge 31, Type (0, 0), None
#     Edge 32, Type (0, 0), None
#     Edge 33, Type (0, 0), None
#     Edge 34, Type (0, 0), None
#     Edge 35, Type (0, 0), None
#     Edge 36, Type (0, 0), None
#     Edge 37, Type (0, 0), None
#     Edge 38, Type (0, 0), None
#     Edge 39, Type (0, 0), None
#     Edge 40, Type (0, 0), None
#     Edge 41, Type (0, 0), None
#     Edge 42, Type (0, 0), None
#     Edge 43, Type (0, 0), None
#     Edge 44, Type (0, 0), None
#     Edge 45, Type (0, 0), None
#     Edge 46, Type (0, 0), None
#     Edge 47, Type (0, 0), None
# Relax obj value: 0.318
# Max RMSD: 0.278
# Mean RMSD: 0.278
data_MOF--net-wko--node1-IZENUY_clean_sbu_0--edge1-none
_symmetry_space_group_name_H-M    P1
_symmetry_Int_Tables_number       1
_symmetry_cell_setting            triclinic
loop_
_symmetry_equiv_pos_as_xyz
'x, y, z'
_cell_length_a     21.792385
_cell_length_b     21.792437
_cell_length_c     13.098521
_cell_angle_alpha  89.999192
_cell_angle_beta   90.000538
_cell_angle_gamma 120.00076
loop_
_atom_site_label
_atom_site_type_symbol
_atom_site_fract_x
_atom_site_fract_y
_atom_site_fract_z
_atom_type_partial_charge
Fe0 Fe 0.38153 0.40064 0.46116 0.0
Fe1 Fe 0.2965 0.23868 0.48077 0.0
O2 O 0.37616 0.31808 0.44647 0.0
Fe3 Fe 0.45175 0.31575 0.40423 0.0
O4 O 0.52316 0.39827 0.45675 0.0
O5 O 0.47397 0.46155 0.44662 0.0
O6 O 0.38974 0.39267 0.59873 0.0
C7 C 0.34821 0.33639 0.64927 0.0
C8 C 0.40768 0.38732 0.25923 0.0
O9 O 0.30162 0.27826 0.60702 0.0
C10 C 0.33698 0.18683 0.32018 0.0
O11 O 0.2904 0.37087 0.479 0.0
O12 O 0.2308 0.26189 0.4338 0.0
O13 O 0.4456 0.35864 0.28388 0.0
O14 O 0.37404 0.4038 0.32407 0.0
C15 C 0.4054 0.22486 0.57205 0.0
O16 O 0.28674 0.19224 0.35905 0.0
O17 O 0.40026 0.2311 0.34299 0.0
C18 C 0.2327 0.31864 0.45597 0.0
O19 O 0.34453 0.19844 0.53324 0.0
O20 O 0.45838 0.27488 0.52647 0.0
C21 C 0.52829 0.45746 0.45229 0.0
Fe22 Fe 0.15727 0.44113 0.57089 0.0
Fe23 Fe 1.00217 0.3709 0.62782 0.0
O24 O 0.07935 0.36553 0.61312 0.0
Fe25 Fe 0.0791 0.28587 0.64743 0.0
O26 O 0.16737 0.3339 0.6999 0.0
O27 O 0.20478 0.44775 0.69311 0.0
O28 O 0.14615 0.51252 0.62346 0.0
C29 C 0.0921 0.51765 0.61896 0.0
C30 C 0.17138 0.32636 0.4868 0.0
O31 O 0.03369 0.46334 0.61325 0.0
C32 C 0.93533 0.22207 0.62265 0.0
O33 O 0.10821 0.43499 0.45055 0.0
O34 O 0.9915 0.36339 0.49074 0.0
O35 O 0.11578 0.2761 0.52573 0.0
O36 O 0.19042 0.38965 0.5096 0.0
C37 C 0.0331 0.33758 0.81593 0.0
O38 O 0.9408 0.27977 0.64569 0.0
O39 O 0.99018 0.22018 0.60046 0.0
C40 C 0.04162 0.39705 0.4259 0.0
O41 O 1.01836 0.37912 0.76539 0.0
O42 O 0.04463 0.291 0.77368 0.0
C43 C 0.20182 0.39477 0.7387 0.0
Fe44 Fe 0.65253 0.99154 0.79449 0.0
Fe45 Fe 0.81449 0.06847 0.8141 0.0
O46 O 0.73509 0.06872 0.77979 0.0
Fe47 Fe 0.73741 0.14664 0.73756 0.0
O48 O 0.6549 0.13553 0.79012 0.0
O49 O 0.59162 0.02307 0.77993 0.0
O50 O 0.66049 1.00772 0.93205 0.0
C51 C 0.71677 0.02246 0.9826 0.0
C52 C 0.66583 0.03099 0.59257 0.0
O53 O 0.77489 0.034 0.94036 0.0
C54 C 0.86629 0.16075 0.65348 0.0
O55 O 0.68229 0.93017 0.81235 0.0
O56 O 0.79127 0.97956 0.76713 0.0
O57 O 0.69449 0.09759 0.61721 0.0
O58 O 0.64937 0.98087 0.6574 0.0
C59 C 0.82831 0.19119 0.90537 0.0
O60 O 0.86094 0.10515 0.6924 0.0
O61 O 0.82204 0.17979 0.67627 0.0
C62 C 0.73452 0.9247 0.78931 0.0
O63 O 0.85473 0.15674 0.86657 0.0
O64 O 0.7783 0.19415 0.85977 0.0
C65 C 0.5957 0.08147 0.78562 0.0
Fe66 Fe 0.76729 0.80386 0.98076 0.0
Fe67 Fe 0.61202 0.72678 0.90422 0.0
O68 O 0.68763 0.72446 0.94645 0.0
Fe69 Fe 0.68225 0.6419 0.96114 0.0
O70 O 0.67403 0.64986 0.0987 0.0
O71 O 0.76216 0.76426 0.10701 0.0
O72 O 0.71926 0.8441 1.03324 0.0
C73 C 0.65839 0.81767 0.07204 0.0
C74 C 0.83109 0.72389 0.95596 0.0
O75 O 0.60541 0.76766 1.02645 0.0
C76 C 0.65611 0.65522 0.75921 0.0
O77 O 0.77706 0.85032 0.85906 0.0
O78 O 0.66351 0.81141 0.84294 0.0
O79 O 0.77339 0.67166 0.979 0.0
O80 O 0.83298 0.78065 0.93378 0.0
C81 C 0.5355 0.58507 0.95228 0.0
O82 O 0.61817 0.68387 0.78387 0.0
O83 O 0.68976 0.63875 0.82405 0.0
C84 C 0.7268 0.85566 0.82014 0.0
O85 O 0.54063 0.64426 0.95679 0.0
O86 O 0.58982 0.58099 0.94657 0.0
C87 C 0.71557 0.70614 0.14925 0.0
Fe88 Fe 0.06161 0.67162 0.12781 0.0
Fe89 Fe 0.98469 0.75666 0.14741 0.0
O90 O 0.98443 0.677 0.1131 0.0
Fe91 Fe 0.90651 0.60139 0.07088 0.0
O92 O 0.91763 0.53 0.12345 0.0
O93 O 1.03009 0.57918 0.11324 0.0
O94 O 0.04543 0.6634 0.26537 0.0
C95 C 1.03069 0.70494 0.31591 0.0
C96 C 1.02216 0.64547 0.92588 0.0
O97 O 1.01916 0.75153 0.27366 0.0
C98 C 0.8924 0.71617 0.98679 0.0
O99 O 0.12299 0.76276 0.14566 0.0
O100 O 0.0736 0.82235 0.10044 0.0
O101 O 0.95556 0.60754 0.95053 0.0
O102 O 0.07228 0.67913 0.99072 0.0
C103 C 0.86197 0.64777 0.23869 0.0
O104 O 0.94801 0.76643 1.0257 0.0
O105 O 0.87336 0.65288 1.00958 0.0
C106 C 0.12846 0.82045 0.12262 0.0
O107 O 0.89642 0.70863 0.19987 0.0
O108 O 0.859 0.59479 0.1931 0.0
C109 C 0.97168 0.52487 0.11895 0.0
Fe110 Fe 0.32638 0.89587 0.23754 0.0
Fe111 Fe 0.41126 0.05098 0.29447 0.0
O112 O 0.3287 0.97379 0.27977 0.0
Fe113 Fe 0.24929 0.97404 0.31409 0.0
O114 O 0.20905 0.88576 0.36652 0.0
O115 O 0.28549 0.84837 0.35977 0.0
O116 O 0.40889 0.90699 0.29008 0.0
C117 C 0.46808 0.96105 0.28562 0.0
C118 C 0.1975 0.88177 0.15345 0.0
O119 O 0.47217 1.01945 0.27995 0.0
C120 C 0.32925 0.11781 0.28931 0.0
O121 O 0.36929 0.94493 0.11719 0.0
O122 O 0.41443 0.06164 0.15738 0.0
O123 O 0.20285 0.93738 0.19237 0.0
O124 O 0.24174 0.86272 0.17626 0.0
C125 C 0.347 1.02006 0.48258 0.0
O126 O 0.3815 0.11236 0.31229 0.0
O127 O 0.27249 0.06296 0.26715 0.0
C128 C 0.39796 1.01152 0.09255 0.0
O129 O 0.40329 0.03481 0.43204 0.0
O130 O 0.28887 1.0085 0.44034 0.0
C131 C 0.23547 0.85133 0.40535 0.0
Fe132 Fe 0.65251 0.67162 0.44878 0.0
Fe133 Fe 0.81447 0.75665 0.42918 0.0
O134 O 0.73507 0.67699 0.46348 0.0
Fe135 Fe 0.7374 0.6014 0.5057 0.0
O136 O 0.65488 0.52999 0.45319 0.0
O137 O 0.5916 0.57918 0.46333 0.0
O138 O 0.66047 0.6634 0.31122 0.0
C139 C 0.71677 0.70494 0.26068 0.0
C140 C 0.66583 0.64547 0.65071 0.0
O141 O 0.77488 0.75154 0.30293 0.0
C142 C 0.86631 0.71617 0.58976 0.0
O143 O 0.68227 0.76275 0.43094 0.0
O144 O 0.79125 0.82234 0.47617 0.0
O145 O 0.69451 0.60755 0.62607 0.0
O146 O 0.64935 0.67911 0.58588 0.0
C147 C 0.82828 0.64776 0.33788 0.0
O148 O 0.86091 0.76641 0.5509 0.0
O149 O 0.82204 0.65289 0.56694 0.0
C150 C 0.7345 0.82045 0.45398 0.0
O151 O 0.8547 0.70863 0.3767 0.0
O152 O 0.77827 0.59478 0.38346 0.0
C153 C 0.59568 0.52486 0.45765 0.0
Fe154 Fe 0.0791 0.80385 0.59584 0.0
Fe155 Fe 0.15727 0.72676 0.67238 0.0
O156 O 0.07935 0.72444 0.63015 0.0
Fe157 Fe 1.00216 0.64188 0.61545 0.0
O158 O 1.01832 0.64985 0.47788 0.0
O159 O 0.04463 0.76426 0.46959 0.0
O160 O 0.16738 0.84408 0.54339 0.0
C161 C 0.2018 0.81765 0.50455 0.0
C162 C 0.93534 0.72388 0.62063 0.0
O163 O 0.20476 0.76763 0.55013 0.0
C164 C 0.04164 0.65519 0.81738 0.0
O165 O 0.11577 0.85027 0.71757 0.0
O166 O 0.19043 0.81142 0.73361 0.0
O167 O 0.94078 0.67163 0.59765 0.0
O168 O 0.99019 0.78064 0.64279 0.0
C169 C 0.09209 0.58505 0.62432 0.0
O170 O 0.10823 0.68389 0.79274 0.0
O171 O 0.99151 0.6387 0.75255 0.0
C172 C 0.17141 0.85568 0.75643 0.0
O173 O 0.14616 0.64424 0.6199 0.0
O174 O 0.03369 0.58096 0.62995 0.0
C175 C 0.03309 0.70614 0.42734 0.0
Fe176 Fe 0.38155 0.99154 0.78212 0.0
Fe177 Fe 0.29651 0.06847 0.76253 0.0
O178 O 0.37617 0.06872 0.79682 0.0
Fe179 Fe 0.45177 0.14664 0.83905 0.0
O180 O 0.52318 0.13554 0.78656 0.0
O181 O 0.47399 0.02307 0.79662 0.0
O182 O 0.38974 1.0077 0.64455 0.0
C183 C 0.34821 0.02247 0.59402 0.0
C184 C 0.40771 0.031 0.98405 0.0
O185 O 0.30163 0.03401 0.63627 0.0
C186 C 0.33699 0.16078 0.92312 0.0
O187 O 0.29042 0.93016 0.76432 0.0
O188 O 0.23081 0.97955 0.80947 0.0
O189 O 0.44561 0.0976 0.95941 0.0
O190 O 0.37408 0.98088 0.91921 0.0
C191 C 0.40541 0.19118 0.67124 0.0
O192 O 0.28675 0.10513 0.88425 0.0
O193 O 0.40027 0.17979 0.90029 0.0
C194 C 0.23272 0.92471 0.7873 0.0
O195 O 0.34455 0.15674 0.71008 0.0
O196 O 0.45839 0.19413 0.71681 0.0
C197 C 0.52831 0.08148 0.79098 0.0
Fe198 Fe 0.41128 0.37092 0.9488 0.0
Fe199 Fe 0.24931 0.28588 0.9292 0.0
O200 O 0.32872 0.36554 0.9635 0.0
Fe201 Fe 0.32639 0.44114 1.00572 0.0
O202 O 0.40891 0.51255 0.95322 0.0
O203 O 0.47219 0.46336 0.9633 0.0
O204 O 0.4033 0.37911 0.81123 0.0
C205 C 0.34701 0.33758 0.7607 0.0
C206 C 0.39796 0.39708 0.15073 0.0
O207 O 0.28889 0.291 0.80295 0.0
C208 C 0.19747 0.32637 0.08979 0.0
O209 O 0.38152 0.27978 0.931 0.0
O210 O 0.27251 0.22018 0.97615 0.0
O211 O 0.36927 0.43498 0.12609 0.0
O212 O 0.41445 0.36344 0.0859 0.0
C213 C 0.2355 0.39478 0.8379 0.0
O214 O 0.20288 0.27612 0.05093 0.0
O215 O 0.24174 0.38964 0.06695 0.0
C216 C 0.32927 0.22209 0.95399 0.0
O217 O 0.20907 0.33392 0.87675 0.0
O218 O 0.28553 0.44776 0.88347 0.0
C219 C 0.4681 0.51767 0.95766 0.0
Fe220 Fe 0.06162 0.40065 0.11547 0.0
Fe221 Fe 0.98469 0.23868 0.09587 0.0
O222 O 0.98444 0.31809 0.13017 0.0
Fe223 Fe 0.90651 0.31576 0.17239 0.0
O224 O 0.91762 0.39828 0.11991 0.0
O225 O 1.03009 0.46156 0.12996 0.0
O226 O 0.04547 0.39268 0.9779 0.0
C227 C 1.0307 0.33639 0.92736 0.0
C228 C 1.02214 0.38733 0.3174 0.0
O229 O 1.01915 0.27826 0.96961 0.0
C230 C 0.89237 0.18684 0.25645 0.0
O231 O 0.123 0.3709 0.09768 0.0
O232 O 0.0736 0.26189 0.14281 0.0
O233 O 0.95555 0.35863 0.29276 0.0
O234 O 0.07227 0.40383 0.25256 0.0
C235 C 0.86199 0.22487 1.00457 0.0
O236 O 0.94802 0.19225 0.21759 0.0
O237 O 0.87336 0.2311 0.23362 0.0
C238 C 0.12845 0.31865 0.12066 0.0
O239 O 0.89641 0.19844 0.04341 0.0
O240 O 0.85903 0.2749 0.05014 0.0
C241 C 0.97168 0.45747 0.12433 0.0
Fe242 Fe 0.68224 0.05098 0.28214 0.0
Fe243 Fe 0.76728 0.97405 0.26254 0.0
O244 O 0.68761 0.9738 0.29684 0.0
Fe245 Fe 0.61201 0.89587 0.33906 0.0
O246 O 0.54061 0.90699 0.28652 0.0
O247 O 0.5898 1.01945 0.29667 0.0
O248 O 0.67404 0.03481 0.14457 0.0
C249 C 0.71557 1.02005 0.09404 0.0
C250 C 0.65608 1.01151 0.48407 0.0
O251 O 0.76215 1.00852 0.13628 0.0
C252 C 0.72678 0.88176 0.42316 0.0
O253 O 0.77337 0.11236 0.26432 0.0
O254 O 0.83298 0.06296 0.30948 0.0
O255 O 0.61816 0.94492 0.45942 0.0
O256 O 0.68973 0.06164 0.41923 0.0
C257 C 0.65838 0.85135 0.17125 0.0
O258 O 0.77704 0.93738 0.38425 0.0
O259 O 0.66349 0.86272 0.40034 0.0
C260 C 0.83107 0.11781 0.28732 0.0
O261 O 0.71924 0.88578 0.21009 0.0
O262 O 0.6054 0.84838 0.21683 0.0
C263 C 0.53548 0.96105 0.29099 0.0
loop_
_geom_bond_atom_site_label_1
_geom_bond_atom_site_label_2
_geom_bond_distance
_geom_bond_site_symmetry_2
_ccdc_geom_bond_type
Fe0 O2 1.918 . S
Fe0 O5 1.997 . S
Fe0 O6 2.002 . S
Fe0 O11 1.976 . S
Fe0 O14 1.996 . S
Fe1 O2 1.918 . S
Fe1 O9 1.997 . S
Fe1 O12 1.996 . S
Fe1 O16 1.976 . S
Fe1 O19 2.002 . S
O2 Fe0 1.918 . S
O2 Fe1 1.918 . S
O2 Fe3 1.918 . S
Fe3 O2 1.918 . S
Fe3 O4 2.002 . S
Fe3 O13 1.976 . S
Fe3 O17 1.996 . S
Fe3 O20 1.997 . S
O4 Fe3 2.002 . S
O4 C21 1.295 . S
O5 Fe0 1.997 . S
O5 C21 1.235 . S
O6 Fe0 2.002 . S
O6 C7 1.295 . S
C7 O6 1.295 . S
C7 O9 1.235 . S
C8 O13 1.287 . S
C8 O14 1.255 . S
O9 Fe1 1.997 . S
O9 C7 1.235 . S
C10 O16 1.287 . S
C10 O17 1.255 . S
O11 Fe0 1.976 . S
O11 C18 1.287 . S
O12 Fe1 1.996 . S
O12 C18 1.255 . S
O13 Fe3 1.976 . S
O13 C8 1.287 . S
O14 Fe0 1.996 . S
O14 C8 1.255 . S
C15 O19 1.295 . S
C15 O20 1.235 . S
O16 Fe1 1.976 . S
O16 C10 1.287 . S
O17 Fe3 1.996 . S
O17 C10 1.255 . S
C18 O11 1.287 . S
C18 O12 1.255 . S
O19 Fe1 2.002 . S
O19 C15 1.295 . S
O20 Fe3 1.997 . S
O20 C15 1.235 . S
C21 O4 1.295 . S
C21 O5 1.235 . S
Fe22 O24 1.918 . S
Fe22 O27 1.997 . S
Fe22 O28 2.002 . S
Fe22 O33 1.976 . S
Fe22 O36 1.996 . S
Fe23 O24 1.918 1_655 S
Fe23 O31 1.997 1_655 S
Fe23 O34 1.996 . S
Fe23 O38 1.976 . S
Fe23 O41 2.002 . S
O24 Fe22 1.918 . S
O24 Fe23 1.918 1_455 S
O24 Fe25 1.918 . S
Fe25 O24 1.918 . S
Fe25 O26 2.002 . S
Fe25 O35 1.976 . S
Fe25 O39 1.996 1_455 S
Fe25 O42 1.997 . S
O26 Fe25 2.002 . S
O26 C43 1.295 . S
O27 Fe22 1.997 . S
O27 C43 1.235 . S
O28 Fe22 2.002 . S
O28 C29 1.295 . S
C29 O28 1.295 . S
C29 O31 1.235 . S
C30 O35 1.287 . S
C30 O36 1.255 . S
O31 Fe23 1.997 1_455 S
O31 C29 1.235 . S
C32 O38 1.287 . S
C32 O39 1.255 . S
O33 Fe22 1.976 . S
O33 C40 1.287 . S
O34 Fe23 1.996 . S
O34 C40 1.255 1_655 S
O35 Fe25 1.976 . S
O35 C30 1.287 . S
O36 Fe22 1.996 . S
O36 C30 1.255 . S
C37 O41 1.295 . S
C37 O42 1.235 1_655 S
O38 Fe23 1.976 . S
O38 C32 1.287 . S
O39 Fe25 1.996 1_655 S
O39 C32 1.255 . S
C40 O33 1.287 . S
C40 O34 1.255 1_455 S
O41 Fe23 2.002 . S
O41 C37 1.295 . S
O42 Fe25 1.997 . S
O42 C37 1.235 1_455 S
C43 O26 1.295 . S
C43 O27 1.235 . S
Fe44 O46 1.918 1_565 S
Fe44 O49 1.997 1_565 S
Fe44 O50 2.002 . S
Fe44 O55 1.976 . S
Fe44 O58 1.996 . S
Fe45 O46 1.918 . S
Fe45 O53 1.997 . S
Fe45 O56 1.996 1_545 S
Fe45 O60 1.976 . S
Fe45 O63 2.002 . S
O46 Fe44 1.918 1_545 S
O46 Fe45 1.918 . S
O46 Fe47 1.918 . S
Fe47 O46 1.918 . S
Fe47 O48 2.002 . S
Fe47 O57 1.976 . S
Fe47 O61 1.996 . S
Fe47 O64 1.997 . S
O48 Fe47 2.002 . S
O48 C65 1.295 . S
O49 Fe44 1.997 1_545 S
O49 C65 1.235 . S
O50 Fe44 2.002 . S
O50 C51 1.295 . S
C51 O50 1.295 . S
C51 O53 1.235 1_565 S
C52 O57 1.287 . S
C52 O58 1.255 1_545 S
O53 Fe45 1.997 . S
O53 C51 1.235 1_545 S
C54 O60 1.287 . S
C54 O61 1.255 . S
O55 Fe44 1.976 . S
O55 C62 1.287 . S
O56 Fe45 1.996 1_565 S
O56 C62 1.255 . S
O57 Fe47 1.976 . S
O57 C52 1.287 . S
O58 Fe44 1.996 . S
O58 C52 1.255 1_565 S
C59 O63 1.295 . S
C59 O64 1.235 . S
O60 Fe45 1.976 . S
O60 C54 1.287 . S
O61 Fe47 1.996 . S
O61 C54 1.255 . S
C62 O55 1.287 . S
C62 O56 1.255 . S
O63 Fe45 2.002 . S
O63 C59 1.295 . S
O64 Fe47 1.997 . S
O64 C59 1.235 . S
C65 O48 1.295 . S
C65 O49 1.235 . S
Fe66 O68 1.918 1_554 S
Fe66 O71 1.997 . S
Fe66 O72 2.002 . S
Fe66 O77 1.976 1_554 S
Fe66 O80 1.996 1_554 S
Fe67 O68 1.918 . S
Fe67 O75 1.997 . S
Fe67 O78 1.996 . S
Fe67 O82 1.976 . S
Fe67 O85 2.002 . S
O68 Fe66 1.918 1_556 S
O68 Fe67 1.918 . S
O68 Fe69 1.918 . S
Fe69 O68 1.918 . S
Fe69 O70 2.002 1_556 S
Fe69 O79 1.976 . S
Fe69 O83 1.996 . S
Fe69 O86 1.997 . S
O70 Fe69 2.002 1_554 S
O70 C87 1.295 . S
O71 Fe66 1.997 . S
O71 C87 1.235 . S
O72 Fe66 2.002 . S
O72 C73 1.295 . S
C73 O72 1.295 . S
C73 O75 1.235 1_554 S
C74 O79 1.287 . S
C74 O80 1.255 . S
O75 Fe67 1.997 . S
O75 C73 1.235 1_556 S
C76 O82 1.287 . S
C76 O83 1.255 . S
O77 Fe66 1.976 1_556 S
O77 C84 1.287 . S
O78 Fe67 1.996 . S
O78 C84 1.255 . S
O79 Fe69 1.976 . S
O79 C74 1.287 . S
O80 Fe66 1.996 1_556 S
O80 C74 1.255 . S
C81 O85 1.295 . S
C81 O86 1.235 . S
O82 Fe67 1.976 . S
O82 C76 1.287 . S
O83 Fe69 1.996 . S
O83 C76 1.255 . S
C84 O77 1.287 . S
C84 O78 1.255 . S
O85 Fe67 2.002 . S
O85 C81 1.295 . S
O86 Fe69 1.997 . S
O86 C81 1.235 . S
C87 O70 1.295 . S
C87 O71 1.235 . S
Fe88 O90 1.918 1_455 S
Fe88 O93 1.997 1_455 S
Fe88 O94 2.002 . S
Fe88 O99 1.976 . S
Fe88 O102 1.996 1_554 S
Fe89 O90 1.918 . S
Fe89 O97 1.997 . S
Fe89 O100 1.996 1_655 S
Fe89 O104 1.976 . S
Fe89 O107 2.002 . S
O90 Fe88 1.918 1_655 S
O90 Fe89 1.918 . S
O90 Fe91 1.918 . S
Fe91 O90 1.918 . S
Fe91 O92 2.002 . S
Fe91 O101 1.976 1_554 S
Fe91 O105 1.996 1_554 S
Fe91 O108 1.997 . S
O92 Fe91 2.002 . S
O92 C109 1.295 . S
O93 Fe88 1.997 1_655 S
O93 C109 1.235 . S
O94 Fe88 2.002 . S
O94 C95 1.295 . S
C95 O94 1.295 . S
C95 O97 1.235 1_455 S
C96 O101 1.287 . S
C96 O102 1.255 1_655 S
O97 Fe89 1.997 . S
O97 C95 1.235 1_655 S
C98 O104 1.287 . S
C98 O105 1.255 1_554 S
O99 Fe88 1.976 . S
O99 C106 1.287 . S
O100 Fe89 1.996 1_455 S
O100 C106 1.255 . S
O101 Fe91 1.976 1_556 S
O101 C96 1.287 . S
O102 Fe88 1.996 1_556 S
O102 C96 1.255 1_455 S
C103 O107 1.295 . S
C103 O108 1.235 . S
O104 Fe89 1.976 . S
O104 C98 1.287 . S
O105 Fe91 1.996 1_556 S
O105 C98 1.255 1_556 S
C106 O99 1.287 . S
C106 O100 1.255 . S
O107 Fe89 2.002 . S
O107 C103 1.295 . S
O108 Fe91 1.997 . S
O108 C103 1.235 . S
C109 O92 1.295 . S
C109 O93 1.235 . S
Fe110 O112 1.918 . S
Fe110 O115 1.997 . S
Fe110 O116 2.002 . S
Fe110 O121 1.976 . S
Fe110 O124 1.996 . S
Fe111 O112 1.918 1_545 S
Fe111 O119 1.997 1_545 S
Fe111 O122 1.996 . S
Fe111 O126 1.976 . S
Fe111 O129 2.002 . S
O112 Fe110 1.918 . S
O112 Fe111 1.918 1_565 S
O112 Fe113 1.918 . S
Fe113 O112 1.918 . S
Fe113 O114 2.002 . S
Fe113 O123 1.976 . S
Fe113 O127 1.996 1_565 S
Fe113 O130 1.997 . S
O114 Fe113 2.002 . S
O114 C131 1.295 . S
O115 Fe110 1.997 . S
O115 C131 1.235 . S
O116 Fe110 2.002 . S
O116 C117 1.295 . S
C117 O116 1.295 . S
C117 O119 1.235 . S
C118 O123 1.287 . S
C118 O124 1.255 . S
O119 Fe111 1.997 1_565 S
O119 C117 1.235 . S
C120 O126 1.287 . S
C120 O127 1.255 . S
O121 Fe110 1.976 . S
O121 C128 1.287 . S
O122 Fe111 1.996 . S
O122 C128 1.255 1_545 S
O123 Fe113 1.976 . S
O123 C118 1.287 . S
O124 Fe110 1.996 . S
O124 C118 1.255 . S
C125 O129 1.295 . S
C125 O130 1.235 1_545 S
O126 Fe111 1.976 . S
O126 C120 1.287 . S
O127 Fe113 1.996 1_545 S
O127 C120 1.255 . S
C128 O121 1.287 . S
C128 O122 1.255 1_565 S
O129 Fe111 2.002 . S
O129 C125 1.295 . S
O130 Fe113 1.997 . S
O130 C125 1.235 1_565 S
C131 O114 1.295 . S
C131 O115 1.235 . S
Fe132 O134 1.918 . S
Fe132 O137 1.997 . S
Fe132 O138 2.002 . S
Fe132 O143 1.976 . S
Fe132 O146 1.996 . S
Fe133 O134 1.918 . S
Fe133 O141 1.997 . S
Fe133 O144 1.996 . S
Fe133 O148 1.976 . S
Fe133 O151 2.002 . S
O134 Fe132 1.918 . S
O134 Fe133 1.918 . S
O134 Fe135 1.918 . S
Fe135 O134 1.918 . S
Fe135 O136 2.002 . S
Fe135 O145 1.976 . S
Fe135 O149 1.996 . S
Fe135 O152 1.997 . S
O136 Fe135 2.002 . S
O136 C153 1.295 . S
O137 Fe132 1.997 . S
O137 C153 1.235 . S
O138 Fe132 2.002 . S
O138 C139 1.295 . S
C139 O138 1.295 . S
C139 O141 1.235 . S
C140 O145 1.287 . S
C140 O146 1.255 . S
O141 Fe133 1.997 . S
O141 C139 1.235 . S
C142 O148 1.287 . S
C142 O149 1.255 . S
O143 Fe132 1.976 . S
O143 C150 1.287 . S
O144 Fe133 1.996 . S
O144 C150 1.255 . S
O145 Fe135 1.976 . S
O145 C140 1.287 . S
O146 Fe132 1.996 . S
O146 C140 1.255 . S
C147 O151 1.295 . S
C147 O152 1.235 . S
O148 Fe133 1.976 . S
O148 C142 1.287 . S
O149 Fe135 1.996 . S
O149 C142 1.255 . S
C150 O143 1.287 . S
C150 O144 1.255 . S
O151 Fe133 2.002 . S
O151 C147 1.295 . S
O152 Fe135 1.997 . S
O152 C147 1.235 . S
C153 O136 1.295 . S
C153 O137 1.235 . S
Fe154 O156 1.918 . S
Fe154 O159 1.997 . S
Fe154 O160 2.002 . S
Fe154 O165 1.976 . S
Fe154 O168 1.996 1_455 S
Fe155 O156 1.918 . S
Fe155 O163 1.997 . S
Fe155 O166 1.996 . S
Fe155 O170 1.976 . S
Fe155 O173 2.002 . S
O156 Fe154 1.918 . S
O156 Fe155 1.918 . S
O156 Fe157 1.918 1_455 S
Fe157 O156 1.918 1_655 S
Fe157 O158 2.002 . S
Fe157 O167 1.976 . S
Fe157 O171 1.996 . S
Fe157 O174 1.997 1_655 S
O158 Fe157 2.002 . S
O158 C175 1.295 . S
O159 Fe154 1.997 . S
O159 C175 1.235 1_455 S
O160 Fe154 2.002 . S
O160 C161 1.295 . S
C161 O160 1.295 . S
C161 O163 1.235 . S
C162 O167 1.287 . S
C162 O168 1.255 . S
O163 Fe155 1.997 . S
O163 C161 1.235 . S
C164 O170 1.287 . S
C164 O171 1.255 1_455 S
O165 Fe154 1.976 . S
O165 C172 1.287 . S
O166 Fe155 1.996 . S
O166 C172 1.255 . S
O167 Fe157 1.976 . S
O167 C162 1.287 . S
O168 Fe154 1.996 1_655 S
O168 C162 1.255 . S
C169 O173 1.295 . S
C169 O174 1.235 . S
O170 Fe155 1.976 . S
O170 C164 1.287 . S
O171 Fe157 1.996 . S
O171 C164 1.255 1_655 S
C172 O165 1.287 . S
C172 O166 1.255 . S
O173 Fe155 2.002 . S
O173 C169 1.295 . S
O174 Fe157 1.997 1_455 S
O174 C169 1.235 . S
C175 O158 1.295 . S
C175 O159 1.235 1_655 S
Fe176 O178 1.918 1_565 S
Fe176 O181 1.997 1_565 S
Fe176 O182 2.002 . S
Fe176 O187 1.976 . S
Fe176 O190 1.996 . S
Fe177 O178 1.918 . S
Fe177 O185 1.997 . S
Fe177 O188 1.996 1_545 S
Fe177 O192 1.976 . S
Fe177 O195 2.002 . S
O178 Fe176 1.918 1_545 S
O178 Fe177 1.918 . S
O178 Fe179 1.918 . S
Fe179 O178 1.918 . S
Fe179 O180 2.002 . S
Fe179 O189 1.976 . S
Fe179 O193 1.996 . S
Fe179 O196 1.997 . S
O180 Fe179 2.002 . S
O180 C197 1.295 . S
O181 Fe176 1.997 1_545 S
O181 C197 1.235 . S
O182 Fe176 2.002 . S
O182 C183 1.295 . S
C183 O182 1.295 . S
C183 O185 1.235 1_565 S
C184 O189 1.287 . S
C184 O190 1.255 1_545 S
O185 Fe177 1.997 . S
O185 C183 1.235 1_545 S
C186 O192 1.287 . S
C186 O193 1.255 . S
O187 Fe176 1.976 . S
O187 C194 1.287 . S
O188 Fe177 1.996 1_565 S
O188 C194 1.255 . S
O189 Fe179 1.976 . S
O189 C184 1.287 . S
O190 Fe176 1.996 . S
O190 C184 1.255 1_565 S
C191 O195 1.295 . S
C191 O196 1.235 . S
O192 Fe177 1.976 . S
O192 C186 1.287 . S
O193 Fe179 1.996 . S
O193 C186 1.255 . S
C194 O187 1.287 . S
C194 O188 1.255 . S
O195 Fe177 2.002 . S
O195 C191 1.295 . S
O196 Fe179 1.997 . S
O196 C191 1.235 . S
C197 O180 1.295 . S
C197 O181 1.235 . S
Fe198 O200 1.918 . S
Fe198 O203 1.997 . S
Fe198 O204 2.002 . S
Fe198 O209 1.976 . S
Fe198 O212 1.996 1_556 S
Fe199 O200 1.918 . S
Fe199 O207 1.997 . S
Fe199 O210 1.996 . S
Fe199 O214 1.976 . S
Fe199 O217 2.002 . S
O200 Fe198 1.918 . S
O200 Fe199 1.918 . S
O200 Fe201 1.918 . S
Fe201 O200 1.918 . S
Fe201 O202 2.002 . S
Fe201 O211 1.976 1_556 S
Fe201 O215 1.996 1_556 S
Fe201 O218 1.997 . S
O202 Fe201 2.002 . S
O202 C219 1.295 . S
O203 Fe198 1.997 . S
O203 C219 1.235 . S
O204 Fe198 2.002 . S
O204 C205 1.295 . S
C205 O204 1.295 . S
C205 O207 1.235 . S
C206 O211 1.287 . S
C206 O212 1.255 . S
O207 Fe199 1.997 . S
O207 C205 1.235 . S
C208 O214 1.287 . S
C208 O215 1.255 1_556 S
O209 Fe198 1.976 . S
O209 C216 1.287 . S
O210 Fe199 1.996 . S
O210 C216 1.255 . S
O211 Fe201 1.976 1_554 S
O211 C206 1.287 . S
O212 Fe198 1.996 1_554 S
O212 C206 1.255 . S
C213 O217 1.295 . S
C213 O218 1.235 . S
O214 Fe199 1.976 . S
O214 C208 1.287 . S
O215 Fe201 1.996 1_554 S
O215 C208 1.255 1_554 S
C216 O209 1.287 . S
C216 O210 1.255 . S
O217 Fe199 2.002 . S
O217 C213 1.295 . S
O218 Fe201 1.997 . S
O218 C213 1.235 . S
C219 O202 1.295 . S
C219 O203 1.235 . S
Fe220 O222 1.918 1_455 S
Fe220 O225 1.997 1_455 S
Fe220 O226 2.002 1_554 S
Fe220 O231 1.976 . S
Fe220 O234 1.996 . S
Fe221 O222 1.918 1_556 S
Fe221 O229 1.997 . S
Fe221 O232 1.996 1_656 S
Fe221 O236 1.976 1_556 S
Fe221 O239 2.002 . S
O222 Fe220 1.918 1_655 S
O222 Fe221 1.918 1_554 S
O222 Fe223 1.918 . S
Fe223 O222 1.918 . S
Fe223 O224 2.002 . S
Fe223 O233 1.976 . S
Fe223 O237 1.996 . S
Fe223 O240 1.997 . S
O224 Fe223 2.002 . S
O224 C241 1.295 . S
O225 Fe220 1.997 1_655 S
O225 C241 1.235 . S
O226 Fe220 2.002 1_556 S
O226 C227 1.295 . S
C227 O226 1.295 . S
C227 O229 1.235 1_455 S
C228 O233 1.287 . S
C228 O234 1.255 1_655 S
O229 Fe221 1.997 . S
O229 C227 1.235 1_655 S
C230 O236 1.287 . S
C230 O237 1.255 . S
O231 Fe220 1.976 . S
O231 C238 1.287 . S
O232 Fe221 1.996 1_454 S
O232 C238 1.255 . S
O233 Fe223 1.976 . S
O233 C228 1.287 . S
O234 Fe220 1.996 . S
O234 C228 1.255 1_455 S
C235 O239 1.295 . S
C235 O240 1.235 1_556 S
O236 Fe221 1.976 1_554 S
O236 C230 1.287 . S
O237 Fe223 1.996 . S
O237 C230 1.255 . S
C238 O231 1.287 . S
C238 O232 1.255 . S
O239 Fe221 2.002 . S
O239 C235 1.295 . S
O240 Fe223 1.997 . S
O240 C235 1.235 1_554 S
C241 O224 1.295 . S
C241 O225 1.235 . S
Fe242 O244 1.918 1_545 S
Fe242 O247 1.997 1_545 S
Fe242 O248 2.002 . S
Fe242 O253 1.976 . S
Fe242 O256 1.996 . S
Fe243 O244 1.918 . S
Fe243 O251 1.997 . S
Fe243 O254 1.996 1_565 S
Fe243 O258 1.976 . S
Fe243 O261 2.002 . S
O244 Fe242 1.918 1_565 S
O244 Fe243 1.918 . S
O244 Fe245 1.918 . S
Fe245 O244 1.918 . S
Fe245 O246 2.002 . S
Fe245 O255 1.976 . S
Fe245 O259 1.996 . S
Fe245 O262 1.997 . S
O246 Fe245 2.002 . S
O246 C263 1.295 . S
O247 Fe242 1.997 1_565 S
O247 C263 1.235 . S
O248 Fe242 2.002 . S
O248 C249 1.295 . S
C249 O248 1.295 . S
C249 O251 1.235 1_545 S
C250 O255 1.287 . S
C250 O256 1.255 1_565 S
O251 Fe243 1.997 . S
O251 C249 1.235 1_565 S
C252 O258 1.287 . S
C252 O259 1.255 . S
O253 Fe242 1.976 . S
O253 C260 1.287 . S
O254 Fe243 1.996 1_545 S
O254 C260 1.255 . S
O255 Fe245 1.976 . S
O255 C250 1.287 . S
O256 Fe242 1.996 . S
O256 C250 1.255 1_545 S
C257 O261 1.295 . S
C257 O262 1.235 . S
O258 Fe243 1.976 . S
O258 C252 1.287 . S
O259 Fe245 1.996 . S
O259 C252 1.255 . S
C260 O253 1.287 . S
C260 O254 1.255 . S
O261 Fe243 2.002 . S
O261 C257 1.295 . S
O262 Fe245 1.997 . S
O262 C257 1.235 . S
C263 O246 1.295 . S
C263 O247 1.235 . S
C15 C191 1.461 . S
C213 C43 1.461 . S
C235 C59 1.461 . S
C257 C73 1.461 . S
C147 C103 1.461 . S
C161 C131 1.461 . S
C21 C153 1.665 . S
C29 C169 1.665 . S
C65 C197 1.665 . S
C219 C81 1.665 . S
C241 C109 1.665 . S
C117 C263 1.665 . S
C7 C205 1.245 . S
C227 C37 1.245 1_455 S
C51 C249 1.245 1_566 S
C139 C87 1.245 . S
C175 C95 1.245 1_655 S
C125 C183 1.245 1_545 S
C10 C120 1.752 . S
C18 C30 1.752 . S
C54 C32 1.752 . S
C62 C84 1.752 . S
C74 C98 1.752 1_556 S
C118 C106 1.752 . S
C162 C142 1.752 . S
C172 C194 1.752 . S
C186 C216 1.751 . S
C208 C238 1.752 1_556 S
C260 C230 1.752 . S
C150 C252 1.752 . S
C8 C206 1.484 . S
C40 C228 1.484 1_455 S
C52 C250 1.484 1_545 S
C140 C76 1.484 . S
C164 C96 1.484 1_455 S
C184 C128 1.484 1_546 S
