# Generated by pormake.
# Topology wiv, (6)-cn, num edge types: 1
# Building blocks:
#     Node 0, Type 0, BuildingBlock: MIFKUJ_clean_sbu_0, # of connection points: 6
#     Node 1, Type 0, BuildingBlock: MIFKUJ_clean_sbu_0, # of connection points: 6
#     Node 2, Type 0, BuildingBlock: MIFKUJ_clean_sbu_0, # of connection points: 6
#     Node 3, Type 0, BuildingBlock: MIFKUJ_clean_sbu_0, # of connection points: 6
#     Node 4, Type 0, BuildingBlock: MIFKUJ_clean_sbu_0, # of connection points: 6
#     Node 5, Type 0, BuildingBlock: MIFKUJ_clean_sbu_0, # of connection points: 6
#     Node 6, Type 0, BuildingBlock: MIFKUJ_clean_sbu_0, # of connection points: 6
#     Node 7, Type 0, BuildingBlock: MIFKUJ_clean_sbu_0, # of connection points: 6
#     Node 8, Type 0, BuildingBlock: MIFKUJ_clean_sbu_0, # of connection points: 6
#     Node 9, Type 0, BuildingBlock: MIFKUJ_clean_sbu_0, # of connection points: 6
#     Node 10, Type 0, BuildingBlock: MIFKUJ_clean_sbu_0, # of connection points: 6
#     Node 11, Type 0, BuildingBlock: MIFKUJ_clean_sbu_0, # of connection points: 6
#     Node 12, Type 0, BuildingBlock: MIFKUJ_clean_sbu_0, # of connection points: 6
#     Node 13, Type 0, BuildingBlock: MIFKUJ_clean_sbu_0, # of connection points: 6
#     Node 14, Type 0, BuildingBlock: MIFKUJ_clean_sbu_0, # of connection points: 6
#     Node 15, Type 0, BuildingBlock: MIFKUJ_clean_sbu_0, # of connection points: 6
#     Edge 16, Type (0, 0), BuildingBlock: MIFKUJ_clean_linker_0, # of connection points: 2
#     Edge 17, Type (0, 0), BuildingBlock: MIFKUJ_clean_linker_0, # of connection points: 2
#     Edge 18, Type (0, 0), BuildingBlock: MIFKUJ_clean_linker_0, # of connection points: 2
#     Edge 19, Type (0, 0), BuildingBlock: MIFKUJ_clean_linker_0, # of connection points: 2
#     Edge 20, Type (0, 0), BuildingBlock: MIFKUJ_clean_linker_0, # of connection points: 2
#     Edge 21, Type (0, 0), BuildingBlock: MIFKUJ_clean_linker_0, # of connection points: 2
#     Edge 22, Type (0, 0), BuildingBlock: MIFKUJ_clean_linker_0, # of connection points: 2
#     Edge 23, Type (0, 0), BuildingBlock: MIFKUJ_clean_linker_0, # of connection points: 2
#     Edge 24, Type (0, 0), BuildingBlock: MIFKUJ_clean_linker_0, # of connection points: 2
#     Edge 25, Type (0, 0), BuildingBlock: MIFKUJ_clean_linker_0, # of connection points: 2
#     Edge 26, Type (0, 0), BuildingBlock: MIFKUJ_clean_linker_0, # of connection points: 2
#     Edge 27, Type (0, 0), BuildingBlock: MIFKUJ_clean_linker_0, # of connection points: 2
#     Edge 28, Type (0, 0), BuildingBlock: MIFKUJ_clean_linker_0, # of connection points: 2
#     Edge 29, Type (0, 0), BuildingBlock: MIFKUJ_clean_linker_0, # of connection points: 2
#     Edge 30, Type (0, 0), BuildingBlock: MIFKUJ_clean_linker_0, # of connection points: 2
#     Edge 31, Type (0, 0), BuildingBlock: MIFKUJ_clean_linker_0, # of connection points: 2
#     Edge 32, Type (0, 0), BuildingBlock: MIFKUJ_clean_linker_0, # of connection points: 2
#     Edge 33, Type (0, 0), BuildingBlock: MIFKUJ_clean_linker_0, # of connection points: 2
#     Edge 34, Type (0, 0), BuildingBlock: MIFKUJ_clean_linker_0, # of connection points: 2
#     Edge 35, Type (0, 0), BuildingBlock: MIFKUJ_clean_linker_0, # of connection points: 2
#     Edge 36, Type (0, 0), BuildingBlock: MIFKUJ_clean_linker_0, # of connection points: 2
#     Edge 37, Type (0, 0), BuildingBlock: MIFKUJ_clean_linker_0, # of connection points: 2
#     Edge 38, Type (0, 0), BuildingBlock: MIFKUJ_clean_linker_0, # of connection points: 2
#     Edge 39, Type (0, 0), BuildingBlock: MIFKUJ_clean_linker_0, # of connection points: 2
#     Edge 40, Type (0, 0), BuildingBlock: MIFKUJ_clean_linker_0, # of connection points: 2
#     Edge 41, Type (0, 0), BuildingBlock: MIFKUJ_clean_linker_0, # of connection points: 2
#     Edge 42, Type (0, 0), BuildingBlock: MIFKUJ_clean_linker_0, # of connection points: 2
#     Edge 43, Type (0, 0), BuildingBlock: MIFKUJ_clean_linker_0, # of connection points: 2
#     Edge 44, Type (0, 0), BuildingBlock: MIFKUJ_clean_linker_0, # of connection points: 2
#     Edge 45, Type (0, 0), BuildingBlock: MIFKUJ_clean_linker_0, # of connection points: 2
#     Edge 46, Type (0, 0), BuildingBlock: MIFKUJ_clean_linker_0, # of connection points: 2
#     Edge 47, Type (0, 0), BuildingBlock: MIFKUJ_clean_linker_0, # of connection points: 2
#     Edge 48, Type (0, 0), BuildingBlock: MIFKUJ_clean_linker_0, # of connection points: 2
#     Edge 49, Type (0, 0), BuildingBlock: MIFKUJ_clean_linker_0, # of connection points: 2
#     Edge 50, Type (0, 0), BuildingBlock: MIFKUJ_clean_linker_0, # of connection points: 2
#     Edge 51, Type (0, 0), BuildingBlock: MIFKUJ_clean_linker_0, # of connection points: 2
#     Edge 52, Type (0, 0), BuildingBlock: MIFKUJ_clean_linker_0, # of connection points: 2
#     Edge 53, Type (0, 0), BuildingBlock: MIFKUJ_clean_linker_0, # of connection points: 2
#     Edge 54, Type (0, 0), BuildingBlock: MIFKUJ_clean_linker_0, # of connection points: 2
#     Edge 55, Type (0, 0), BuildingBlock: MIFKUJ_clean_linker_0, # of connection points: 2
#     Edge 56, Type (0, 0), BuildingBlock: MIFKUJ_clean_linker_0, # of connection points: 2
#     Edge 57, Type (0, 0), BuildingBlock: MIFKUJ_clean_linker_0, # of connection points: 2
#     Edge 58, Type (0, 0), BuildingBlock: MIFKUJ_clean_linker_0, # of connection points: 2
#     Edge 59, Type (0, 0), BuildingBlock: MIFKUJ_clean_linker_0, # of connection points: 2
#     Edge 60, Type (0, 0), BuildingBlock: MIFKUJ_clean_linker_0, # of connection points: 2
#     Edge 61, Type (0, 0), BuildingBlock: MIFKUJ_clean_linker_0, # of connection points: 2
#     Edge 62, Type (0, 0), BuildingBlock: MIFKUJ_clean_linker_0, # of connection points: 2
#     Edge 63, Type (0, 0), BuildingBlock: MIFKUJ_clean_linker_0, # of connection points: 2
# Relax obj value: 0.041
# Max RMSD: 0.115
# Mean RMSD: 0.115
data_MOF--net-wiv--node1-MIFKUJ_clean_sbu_0--edge1-MIFKUJ_clean_linker_0
_symmetry_space_group_name_H-M    P1
_symmetry_Int_Tables_number       1
_symmetry_cell_setting            triclinic
loop_
_symmetry_equiv_pos_as_xyz
'x, y, z'
_cell_length_a     76.336522
_cell_length_b     76.533524
_cell_length_c     22.796223
_cell_angle_alpha  89.989458
_cell_angle_beta   89.926138
_cell_angle_gamma 89.99877
loop_
_atom_site_label
_atom_site_type_symbol
_atom_site_fract_x
_atom_site_fract_y
_atom_site_fract_z
_atom_type_partial_charge
Zn0 Zn 0.37361 0.11948 0.10823 0.0
Zn1 Zn 0.36975 0.12304 0.24345 0.0
C2 C 0.34198 0.10606 0.06686 0.0
O3 O 0.35327 0.09395 0.05133 0.0
C4 C 0.40489 0.13298 0.26787 0.0
O5 O 0.39658 0.14286 0.30593 0.0
O6 O 0.3822 0.11847 0.02441 0.0
O7 O 0.38075 0.14321 0.13928 0.0
O8 O 0.36001 0.14465 0.20607 0.0
C9 C 0.37663 0.13059 0.99103 0.0
O10 O 0.36731 0.14329 0.01413 0.0
O11 O 0.34739 0.11891 0.09725 0.0
C12 C 0.37233 0.11267 0.36304 0.0
O13 O 0.38071 0.09969 0.33775 0.0
O14 O 0.3656 0.12449 0.33096 0.0
O15 O 0.36047 0.0999 0.21748 0.0
O16 O 0.38072 0.09706 0.14942 0.0
O17 O 0.39609 0.12324 0.23367 0.0
C18 C 0.37017 0.15223 0.17 0.0
C19 C 0.37046 0.09022 0.18699 0.0
Zn20 Zn 0.13482 0.61801 0.76659 0.0
Zn21 Zn 0.12905 0.6508 0.91276 0.0
C22 C 0.14145 0.58219 0.81101 0.0
O23 O 0.15148 0.58945 0.85096 0.0
C24 C 0.11564 0.68418 0.95 0.0
O25 O 0.10061 0.67599 0.94445 0.0
O26 O 0.13577 0.62249 0.67998 0.0
O27 O 0.11229 0.62859 0.79368 0.0
O28 O 0.10676 0.64652 0.86767 0.0
C29 C 0.12451 0.61517 0.64713 0.0
O30 O 0.11253 0.60508 0.67098 0.0
O31 O 0.13349 0.59181 0.77427 0.0
C32 C 0.1393 0.64308 0.02691 0.0
O33 O 0.15147 0.65411 0.0098 0.0
O34 O 0.12763 0.63845 0.99035 0.0
O35 O 0.15237 0.64472 0.87623 0.0
O36 O 0.15731 0.62735 0.79982 0.0
O37 O 0.1297 0.67632 0.93582 0.0
C38 C 0.10167 0.63765 0.8238 0.0
C39 C 0.16279 0.63736 0.84033 0.0
Zn40 Zn 0.63039 0.88304 0.07607 0.0
Zn41 Zn 0.631 0.88023 0.21757 0.0
C42 C 0.66366 0.89603 0.03872 0.0
O43 O 0.65377 0.9096 0.02638 0.0
C44 C 0.59596 0.87233 0.24923 0.0
O45 O 0.60482 0.86158 0.28296 0.0
O46 O 0.62212 0.88541 0.99303 0.0
O47 O 0.62278 0.859 0.10333 0.0
O48 O 0.63803 0.85702 0.18539 0.0
C49 C 0.62616 0.87303 0.95843 0.0
O50 O 0.63395 0.85911 0.97975 0.0
O51 O 0.6568 0.88302 0.06494 0.0
C52 C 0.63467 0.89321 0.33481 0.0
O53 O 0.62978 0.90787 0.30968 0.0
O54 O 0.63666 0.87963 0.30347 0.0
O55 O 0.64281 0.90166 0.18581 0.0
O56 O 0.62255 0.90497 0.1188 0.0
O57 O 0.60438 0.88214 0.2139 0.0
C58 C 0.63008 0.84983 0.14289 0.0
C59 C 0.63302 0.91161 0.15586 0.0
Zn60 Zn 0.87354 0.3697 0.77129 0.0
Zn61 Zn 0.87803 0.37069 0.90463 0.0
C62 C 0.85998 0.40368 0.7527 0.0
O63 O 0.84859 0.39412 0.72379 0.0
C64 C 0.89171 0.33626 0.92465 0.0
O65 O 0.90575 0.34533 0.93817 0.0
O66 O 0.87173 0.36573 0.68438 0.0
O67 O 0.89748 0.36092 0.7934 0.0
O68 O 0.90007 0.37999 0.86456 0.0
C69 C 0.88334 0.373 0.65264 0.0
O70 O 0.89589 0.38194 0.6782 0.0
O71 O 0.87231 0.39604 0.78013 0.0
C72 C 0.86854 0.36949 0.02394 0.0
O73 O 0.85607 0.35996 0.0004 0.0
O74 O 0.87993 0.37645 0.99053 0.0
O75 O 0.85362 0.37836 0.88018 0.0
O76 O 0.85218 0.35912 0.80893 0.0
O77 O 0.87835 0.34425 0.90492 0.0
C78 C 0.90708 0.37079 0.82448 0.0
C79 C 0.84457 0.36823 0.84798 0.0
Zn80 Zn 0.37256 0.37107 0.16559 0.0
Zn81 Zn 0.37207 0.36775 0.02538 0.0
C82 C 0.33928 0.38347 0.20291 0.0
O83 O 0.34894 0.39743 0.2117 0.0
C84 C 0.40689 0.35619 0.00138 0.0
O85 O 0.39788 0.34557 0.96767 0.0
O86 O 0.38127 0.37171 0.24839 0.0
O87 O 0.38112 0.34802 0.13268 0.0
O88 O 0.36143 0.34657 0.06287 0.0
C89 C 0.37589 0.35928 0.2807 0.0
O90 O 0.36664 0.34667 0.25676 0.0
O91 O 0.34623 0.3702 0.17855 0.0
C92 C 0.37452 0.37771 0.90656 0.0
O93 O 0.3838 0.39014 0.93136 0.0
O94 O 0.36751 0.3661 0.93882 0.0
O95 O 0.36296 0.39121 0.04846 0.0
O96 O 0.3791 0.39418 0.12794 0.0
O97 O 0.39864 0.36703 0.03355 0.0
C98 C 0.37103 0.33899 0.10042 0.0
C99 C 0.37084 0.40088 0.08508 0.0
Zn100 Zn 0.37713 0.62146 0.99042 0.0
Zn101 Zn 0.38308 0.64916 0.83479 0.0
C102 C 0.36539 0.5872 0.01009 0.0
O103 O 0.35512 0.59617 0.04523 0.0
C104 C 0.37168 0.67821 0.7669 0.0
O105 O 0.35991 0.66659 0.75127 0.0
O106 O 0.37667 0.62457 0.0787 0.0
O107 O 0.40034 0.63102 0.96462 0.0
O108 O 0.40498 0.64633 0.88336 0.0
C109 C 0.3866 0.61473 0.10898 0.0
O110 O 0.39712 0.60381 0.08177 0.0
O111 O 0.37618 0.59533 0.97746 0.0
C112 C 0.3738 0.62636 0.73513 0.0
O113 O 0.35874 0.62399 0.76186 0.0
O114 O 0.38569 0.63529 0.76012 0.0
O115 O 0.35941 0.64533 0.87211 0.0
O116 O 0.35507 0.63185 0.9574 0.0
O117 O 0.38305 0.67403 0.8052 0.0
C118 C 0.4105 0.63935 0.93046 0.0
C119 C 0.34933 0.64 0.91279 0.0
Zn120 Zn 0.63039 0.62898 0.16739 0.0
Zn121 Zn 0.631 0.63353 0.02669 0.0
C122 C 0.67015 0.62875 0.15812 0.0
O123 O 0.66935 0.62903 0.10062 0.0
C124 C 0.59641 0.64526 0.01747 0.0
O125 O 0.60504 0.65705 0.98702 0.0
O126 O 0.61958 0.62696 0.24779 0.0
O127 O 0.62399 0.65325 0.13855 0.0
O128 O 0.64095 0.65538 0.0605 0.0
C129 C 0.62403 0.63893 0.2835 0.0
O130 O 0.63379 0.65187 0.26422 0.0
O131 O 0.65614 0.62869 0.18829 0.0
C132 C 0.62559 0.62289 0.90927 0.0
O133 O 0.61818 0.60985 0.93742 0.0
O134 O 0.6328 0.63503 0.93871 0.0
O135 O 0.64206 0.6109 0.04879 0.0
O136 O 0.62409 0.60673 0.12291 0.0
O137 O 0.60498 0.63316 0.04269 0.0
C138 C 0.63261 0.66252 0.1023 0.0
C139 C 0.63355 0.60062 0.08175 0.0
Zn140 Zn 0.6268 0.38144 0.98025 0.0
Zn141 Zn 0.62321 0.35198 0.8303 0.0
C142 C 0.63763 0.41714 0.95229 0.0
O143 O 0.65279 0.41007 0.93881 0.0
C144 C 0.60992 0.32256 0.76897 0.0
O145 O 0.59654 0.33327 0.7641 0.0
O146 O 0.6288 0.37883 0.0678 0.0
O147 O 0.60374 0.37063 0.95837 0.0
O148 O 0.60088 0.35459 0.8779 0.0
C149 C 0.61747 0.38636 0.10001 0.0
O150 O 0.60471 0.39513 0.07497 0.0
O151 O 0.62498 0.40736 0.96768 0.0
C152 C 0.63388 0.36364 0.72022 0.0
O153 O 0.64664 0.35302 0.7353 0.0
O154 O 0.62165 0.36653 0.75689 0.0
O155 O 0.6472 0.35603 0.86583 0.0
O156 O 0.64935 0.37228 0.94615 0.0
O157 O 0.62318 0.32737 0.79857 0.0
C158 C 0.59444 0.36147 0.92393 0.0
C159 C 0.65635 0.36322 0.9057 0.0
Zn160 Zn 0.85575 0.61876 0.57256 0.0
Zn161 Zn 0.88267 0.62271 0.72655 0.0
C162 C 0.82913 0.6091 0.48964 0.0
O163 O 0.84182 0.59899 0.47046 0.0
C164 C 0.91647 0.63699 0.72651 0.0
O165 O 0.90751 0.64929 0.75333 0.0
O166 O 0.87224 0.61814 0.50309 0.0
O167 O 0.85751 0.64235 0.61217 0.0
O168 O 0.87144 0.64473 0.69726 0.0
C169 C 0.87036 0.63058 0.4666 0.0
O170 O 0.85974 0.64348 0.48019 0.0
O171 O 0.8317 0.6184 0.53508 0.0
C172 C 0.88952 0.61263 0.84597 0.0
O173 O 0.89814 0.59999 0.8197 0.0
O174 O 0.88148 0.62386 0.81492 0.0
O175 O 0.87267 0.59943 0.70342 0.0
O176 O 0.85775 0.59647 0.62032 0.0
O177 O 0.90836 0.62364 0.70746 0.0
C178 C 0.86273 0.65142 0.65548 0.0
C179 C 0.86408 0.59011 0.66737 0.0
Zn180 Zn 0.62527 0.13159 0.2605 0.0
Zn181 Zn 0.62155 0.13133 0.39824 0.0
C182 C 0.63811 0.09634 0.26127 0.0
O183 O 0.65241 0.10409 0.24243 0.0
C184 C 0.60839 0.16498 0.42864 0.0
O185 O 0.59405 0.15576 0.43614 0.0
O186 O 0.62758 0.13368 0.1731 0.0
O187 O 0.60176 0.14133 0.28066 0.0
O188 O 0.59899 0.12426 0.35799 0.0
C189 C 0.61677 0.12496 0.14246 0.0
O190 O 0.60462 0.11577 0.16926 0.0
O191 O 0.62486 0.10557 0.27479 0.0
C192 C 0.63196 0.12864 0.51543 0.0
O193 O 0.64439 0.13856 0.49338 0.0
O194 O 0.62009 0.12288 0.48147 0.0
O195 O 0.64534 0.12362 0.36929 0.0
O196 O 0.64661 0.14242 0.29669 0.0
O197 O 0.62196 0.15751 0.40819 0.0
C198 C 0.59216 0.13282 0.31602 0.0
C199 C 0.65426 0.13362 0.3363 0.0
Zn200 Zn 0.14618 0.37172 0.58614 0.0
Zn201 Zn 0.12903 0.36811 0.74185 0.0
C202 C 0.17552 0.38502 0.51808 0.0
O203 O 0.16426 0.39742 0.50502 0.0
C204 C 0.09253 0.36284 0.70981 0.0
O205 O 0.09801 0.34691 0.6986 0.0
O206 O 0.13141 0.37145 0.51405 0.0
O207 O 0.14439 0.34777 0.6235 0.0
O208 O 0.13532 0.34414 0.71495 0.0
C209 C 0.13487 0.35916 0.47848 0.0
O210 O 0.14633 0.34722 0.49403 0.0
O211 O 0.171 0.37314 0.55411 0.0
C212 C 0.12348 0.37928 0.85912 0.0
O213 O 0.11663 0.39282 0.83212 0.0
O214 O 0.1298 0.36682 0.82899 0.0
O215 O 0.14637 0.38698 0.72232 0.0
O216 O 0.14063 0.39407 0.6306 0.0
O217 O 0.10366 0.37444 0.72426 0.0
C218 C 0.14095 0.33794 0.66694 0.0
C219 C 0.14326 0.39845 0.68364 0.0
Zn220 Zn 0.37566 0.86855 0.27095 0.0
Zn221 Zn 0.37889 0.87115 0.40678 0.0
C222 C 0.36497 0.90342 0.25056 0.0
O223 O 0.35363 0.89494 0.2179 0.0
C224 C 0.39169 0.83913 0.44895 0.0
O225 O 0.40388 0.85001 0.46685 0.0
O226 O 0.37462 0.86469 0.18366 0.0
O227 O 0.3988 0.85877 0.29743 0.0
O228 O 0.40124 0.87891 0.36543 0.0
C229 C 0.38668 0.87133 0.15225 0.0
O230 O 0.39959 0.87965 0.17812 0.0
O231 O 0.37601 0.89475 0.28045 0.0
C232 C 0.36859 0.87333 0.52468 0.0
O233 O 0.35601 0.86372 0.50218 0.0
O234 O 0.38035 0.87935 0.49068 0.0
O235 O 0.3546 0.87809 0.3789 0.0
O236 O 0.35309 0.85955 0.30526 0.0
O237 O 0.37948 0.84493 0.41644 0.0
C238 C 0.40836 0.8689 0.32773 0.0
C239 C 0.34553 0.86868 0.34437 0.0
Zn240 Zn 0.86257 0.87361 0.69766 0.0
Zn241 Zn 0.87228 0.86929 0.53931 0.0
C242 C 0.83181 0.88979 0.74959 0.0
O243 O 0.84272 0.90284 0.75772 0.0
C244 C 0.9079 0.86618 0.50872 0.0
O245 O 0.90028 0.85477 0.47407 0.0
O246 O 0.87526 0.87581 0.77374 0.0
O247 O 0.86489 0.84856 0.66769 0.0
O248 O 0.86766 0.84555 0.57127 0.0
C249 C 0.88057 0.86324 0.80536 0.0
O250 O 0.87918 0.84716 0.78581 0.0
O251 O 0.83711 0.87629 0.7222 0.0
C252 C 0.86953 0.88202 0.4233 0.0
O253 O 0.87352 0.89667 0.45013 0.0
O254 O 0.86764 0.86816 0.4532 0.0
O255 O 0.85664 0.88845 0.56886 0.0
O256 O 0.87011 0.89495 0.65072 0.0
O257 O 0.89849 0.87457 0.54544 0.0
C258 C 0.86593 0.83899 0.6221 0.0
C259 C 0.86375 0.89967 0.60185 0.0
Zn260 Zn 0.87126 0.11603 0.46263 0.0
Zn261 Zn 0.875 0.14691 0.313 0.0
C262 C 0.86423 0.07947 0.42816 0.0
O263 O 0.84963 0.08541 0.40519 0.0
C264 C 0.88692 0.17617 0.2481 0.0
O265 O 0.90077 0.166 0.24576 0.0
O266 O 0.86914 0.11892 0.55031 0.0
O267 O 0.8928 0.12908 0.43956 0.0
O268 O 0.89703 0.14616 0.36229 0.0
C269 C 0.8813 0.11305 0.58291 0.0
O270 O 0.89488 0.10542 0.55843 0.0
O271 O 0.875 0.09015 0.45099 0.0
C272 C 0.86497 0.13296 0.20536 0.0
O273 O 0.85102 0.14188 0.22107 0.0
O274 O 0.87771 0.13187 0.24108 0.0
O275 O 0.85144 0.14157 0.35012 0.0
O276 O 0.84861 0.12439 0.42836 0.0
O277 O 0.8737 0.17118 0.27778 0.0
C278 C 0.90252 0.13905 0.4092 0.0
C279 C 0.842 0.1339 0.38834 0.0
Zn280 Zn 0.14713 0.11813 0.70186 0.0
Zn281 Zn 0.11898 0.12364 0.5492 0.0
C282 C 0.18179 0.10501 0.73789 0.0
O283 O 0.17721 0.09037 0.71206 0.0
C284 C 0.0862 0.13857 0.53173 0.0
O285 O 0.09652 0.14874 0.50062 0.0
O286 O 0.13183 0.11765 0.77365 0.0
O287 O 0.14499 0.14158 0.66197 0.0
O288 O 0.13065 0.14536 0.57823 0.0
C289 C 0.13495 0.12974 0.81038 0.0
O290 O 0.14596 0.14219 0.79554 0.0
O291 O 0.17144 0.118 0.73655 0.0
C292 C 0.11445 0.11193 0.43115 0.0
O293 O 0.10457 0.10027 0.45753 0.0
O294 O 0.12234 0.12334 0.46184 0.0
O295 O 0.12773 0.10041 0.57658 0.0
O296 O 0.14381 0.09573 0.65605 0.0
O297 O 0.09299 0.12615 0.56101 0.0
C298 C 0.13977 0.15129 0.62027 0.0
C299 C 0.13601 0.09018 0.61048 0.0
Zn300 Zn 0.12831 0.87363 0.47067 0.0
Zn301 Zn 0.12366 0.87274 0.33286 0.0
C302 C 0.14321 0.90725 0.47555 0.0
O303 O 0.15529 0.89792 0.50212 0.0
C304 C 0.10934 0.84075 0.29471 0.0
O305 O 0.09662 0.85161 0.28137 0.0
O306 O 0.1303 0.8718 0.55816 0.0
O307 O 0.10409 0.86508 0.45277 0.0
O308 O 0.10117 0.88094 0.37276 0.0
C309 C 0.12068 0.88187 0.58869 0.0
O310 O 0.10989 0.89259 0.56186 0.0
O311 O 0.12995 0.89948 0.45426 0.0
C312 C 0.13401 0.87432 0.21577 0.0
O313 O 0.14551 0.86343 0.23816 0.0
O314 O 0.12269 0.88121 0.24954 0.0
O315 O 0.14824 0.87911 0.35987 0.0
O316 O 0.14938 0.86165 0.43631 0.0
O317 O 0.1225 0.84656 0.32273 0.0
C318 C 0.09442 0.87332 0.41696 0.0
C319 C 0.15709 0.86969 0.39497 0.0
H320 H 0.38487 0.9253 0.31848 0.0
H321 H 0.38593 0.95727 0.31448 0.0
H322 H 0.34786 0.957 0.17471 0.0
H323 H 0.34637 0.92523 0.17953 0.0
H324 H 0.39564 0.97914 0.2321 0.0
H325 H 0.32225 0.99249 0.18065 0.0
H326 H 0.29333 0.97964 0.20244 0.0
H327 H 0.31391 0.95626 0.35913 0.0
H328 H 0.34288 0.96917 0.33874 0.0
H329 H 0.38515 0.06476 0.11821 0.0
H330 H 0.38461 0.03317 0.13466 0.0
H331 H 0.3554 0.04098 0.29474 0.0
H332 H 0.35547 0.07244 0.27775 0.0
H333 H 0.34173 0.01532 0.23759 0.0
H334 H 0.39976 0.03074 0.29497 0.0
H335 H 0.42905 0.04397 0.28441 0.0
H336 H 0.43986 0.01059 0.13738 0.0
H337 H 0.41053 0.99733 0.14653 0.0
C338 C 0.37663 0.93208 0.28721 0.0
C339 C 0.36544 0.92274 0.2496 0.0
C340 C 0.3773 0.95033 0.28481 0.0
C341 C 0.36683 0.95956 0.24477 0.0
C342 C 0.3558 0.95021 0.20682 0.0
C343 C 0.35501 0.93202 0.20952 0.0
C344 C 0.36756 0.97893 0.24181 0.0
C345 C 0.38386 0.98706 0.23346 0.0
C346 C 0.35223 0.98931 0.24475 0.0
C347 C 0.33478 0.98168 0.25782 0.0
C348 C 0.32058 0.98467 0.21989 0.0
C349 C 0.30418 0.97736 0.23198 0.0
C350 C 0.3018 0.9671 0.28204 0.0
C351 C 0.31579 0.96417 0.32025 0.0
C352 C 0.33221 0.97146 0.30841 0.0
C353 C 0.37865 0.05974 0.15694 0.0
C354 C 0.37035 0.0711 0.19665 0.0
C355 C 0.37841 0.04168 0.16646 0.0
C356 C 0.37014 0.03469 0.21633 0.0
C357 C 0.36184 0.04605 0.25591 0.0
C358 C 0.36191 0.06405 0.24614 0.0
C359 C 0.36978 0.01554 0.22681 0.0
C360 C 0.35353 0.00743 0.23644 0.0
C361 C 0.3852 0.00525 0.22667 0.0
C362 C 0.40288 0.01315 0.22112 0.0
C363 C 0.40833 0.02631 0.26011 0.0
C364 C 0.42495 0.0338 0.25442 0.0
C365 C 0.43629 0.02815 0.21017 0.0
C366 C 0.43105 0.01497 0.1716 0.0
C367 C 0.41444 0.00745 0.17704 0.0
H368 H 0.44915 0.03397 0.20584 0.0
H369 H 0.2891 0.96144 0.29128 0.0
H370 H 0.93931 0.61313 0.67947 0.0
H371 H 0.97131 0.6135 0.68532 0.0
H372 H 0.96933 0.66292 0.77607 0.0
H373 H 0.93744 0.66284 0.76943 0.0
H374 H 0.99597 0.66245 0.69987 0.0
H375 H 0.97354 0.62472 0.85111 0.0
H376 H 0.95637 0.60007 0.89058 0.0
H377 H 0.98655 0.56413 0.78697 0.0
H378 H 0.00373 0.58861 0.74619 0.0
H379 H 0.07635 0.66083 0.85826 0.0
H380 H 0.04535 0.6608 0.83102 0.0
H381 H 0.05354 0.6148 0.72528 0.0
H382 H 0.08458 0.61478 0.75181 0.0
H383 H 0.02441 0.61269 0.80189 0.0
H384 H 0.04835 0.65114 0.65651 0.0
H385 H 0.06558 0.67624 0.62077 0.0
H386 H 0.03268 0.71134 0.71816 0.0
H387 H 0.01539 0.68641 0.75517 0.0
C388 C 0.9457 0.62418 0.70003 0.0
C389 C 0.93582 0.63788 0.72448 0.0
C390 C 0.96398 0.62434 0.70353 0.0
C391 C 0.97268 0.6381 0.73198 0.0
C392 C 0.96289 0.65215 0.75405 0.0
C393 C 0.94464 0.65204 0.75038 0.0
C394 C 0.99189 0.63752 0.74161 0.0
C395 C 0.00217 0.65163 0.72253 0.0
C396 C 1.00002 0.62326 0.77038 0.0
C397 C 0.98978 0.60851 0.7951 0.0
C398 C 0.97642 0.61157 0.8364 0.0
C399 C 0.9667 0.59763 0.85906 0.0
C400 C 0.97033 0.58055 0.84116 0.0
C401 C 0.98373 0.57737 0.80069 0.0
C402 C 0.99346 0.59127 0.77781 0.0
C403 C 0.07158 0.65072 0.82915 0.0
C404 C 0.08293 0.63782 0.80716 0.0
C405 C 0.05389 0.65078 0.81344 0.0
C406 C 0.04723 0.63786 0.77591 0.0
C407 C 0.05848 0.6249 0.7542 0.0
C408 C 0.0762 0.62496 0.76927 0.0
C409 C 0.02841 0.63766 0.76049 0.0
C410 C 0.01822 0.62342 0.77867 0.0
C411 C 0.02036 0.65186 0.73141 0.0
C412 C 0.03067 0.66689 0.70904 0.0
C413 C 0.04488 0.6642 0.67072 0.0
C414 C 0.05463 0.67839 0.65014 0.0
C415 C 0.05025 0.69537 0.6673 0.0
C416 C 0.03607 0.69818 0.70495 0.0
C417 C 0.02627 0.68402 0.72569 0.0
H418 H 0.05782 0.70634 0.65133 0.0
H419 H 0.9628 0.56977 0.85876 0.0
H420 H 0.60745 0.9354 0.13025 0.0
H421 H 0.60738 0.96663 0.15269 0.0
H422 H 0.65918 0.96204 0.22697 0.0
H423 H 0.65893 0.93069 0.20717 0.0
H424 H 0.64119 0.98174 0.29382 0.0
H425 H 0.65064 0.98031 0.08658 0.0
H426 H 0.64477 0.9723 0.98369 0.0
H427 H 0.59508 0.9985 0.99166 0.0
H428 H 0.60055 0.00646 0.09491 0.0
H429 H 0.66483 0.07272 0.26455 0.0
H430 H 0.66278 0.04095 0.25248 0.0
H431 H 0.60658 0.04488 0.23962 0.0
H432 H 0.60845 0.0766 0.25313 0.0
H433 H 0.62587 0.02603 0.14347 0.0
H434 H 0.6188 0.02826 0.35395 0.0
H435 H 0.62725 0.0369 0.4542 0.0
H436 H 0.67616 0.00977 0.4352 0.0
H437 H 0.66812 0.0012 0.33443 0.0
C438 C 0.61885 0.94109 0.1511 0.0
C439 C 0.63322 0.93063 0.16675 0.0
C440 C 0.61883 0.95896 0.16374 0.0
C441 C 0.63339 0.96681 0.19079 0.0
C442 C 0.64777 0.95634 0.20621 0.0
C443 C 0.64765 0.93842 0.19463 0.0
C444 C 0.63359 0.98586 0.20372 0.0
C445 C 0.63803 0.99139 0.26061 0.0
C446 C 0.62924 0.99854 0.16081 0.0
C447 C 0.62593 0.99382 0.09867 0.0
C448 C 0.6384 0.98425 0.06652 0.0
C449 C 0.63516 0.97973 0.00812 0.0
C450 C 0.61954 0.98485 0.9812 0.0
C451 C 0.60716 0.99452 0.0126 0.0
C452 C 0.61033 0.99905 0.07105 0.0
C453 C 0.65203 0.06678 0.25995 0.0
C454 C 0.6368 0.0771 0.25982 0.0
C455 C 0.65088 0.04867 0.25311 0.0
C456 C 0.63454 0.04066 0.24508 0.0
C457 C 0.6193 0.05088 0.2458 0.0
C458 C 0.6204 0.06895 0.25383 0.0
C459 C 0.63348 0.02171 0.23313 0.0
C460 C 0.62893 0.01627 0.17646 0.0
C461 C 0.6381 0.00916 0.27577 0.0
C462 C 0.64293 0.01425 0.33641 0.0
C463 C 0.63143 0.02429 0.37092 0.0
C464 C 0.63613 0.02914 0.4279 0.0
C465 C 0.65225 0.02393 0.451 0.0
C466 C 0.66369 0.01382 0.41722 0.0
C467 C 0.65906 0.00895 0.36019 0.0
H468 H 0.65586 0.02769 0.49512 0.0
H469 H 0.61705 0.98134 0.93598 0.0
H470 H 0.92599 0.35109 0.74716 0.0
H471 H 0.95745 0.35192 0.72862 0.0
H472 H 0.96331 0.39286 0.85699 0.0
H473 H 0.93165 0.39214 0.87598 0.0
H474 H 0.98274 0.39898 0.75396 0.0
H475 H 0.97468 0.35322 0.89419 0.0
H476 H 0.96105 0.32659 0.93446 0.0
H477 H 0.9783 0.29736 0.78436 0.0
H478 H 0.99177 0.3239 0.74264 0.0
H479 H 0.07624 0.38978 0.76744 0.0
H480 H 0.04492 0.393 0.78728 0.0
H481 H 0.03432 0.34706 0.68341 0.0
H482 H 0.06566 0.34343 0.66539 0.0
H483 H 0.01734 0.3447 0.78083 0.0
H484 H 0.02418 0.39082 0.63806 0.0
H485 H 0.03753 0.41755 0.59731 0.0
H486 H 0.02275 0.4461 0.75175 0.0
H487 H 0.00945 0.41948 0.79369 0.0
C488 C 0.93391 0.3603 0.77159 0.0
C489 C 0.92626 0.37147 0.81341 0.0
C490 C 0.95193 0.36074 0.7609 0.0
C491 C 0.96277 0.37235 0.79173 0.0
C492 C 0.95519 0.38379 0.83271 0.0
C493 C 0.93711 0.38329 0.84372 0.0
C494 C 0.98205 0.37211 0.78182 0.0
C495 C 0.99039 0.3872 0.76057 0.0
C496 C 0.99197 0.35667 0.78964 0.0
C497 C 0.98412 0.3406 0.81505 0.0
C498 C 0.97547 0.34114 0.86956 0.0
C499 C 0.96777 0.32606 0.89267 0.0
C500 C 0.96877 0.3103 0.86194 0.0
C501 C 0.97752 0.30958 0.8081 0.0
C502 C 0.9852 0.32464 0.78471 0.0
C503 C 0.06721 0.38054 0.748 0.0
C504 C 0.07346 0.36634 0.71478 0.0
C505 C 0.04925 0.3824 0.75932 0.0
C506 C 0.03713 0.37034 0.7366 0.0
C507 C 0.04335 0.35651 0.70175 0.0
C508 C 0.06129 0.35449 0.69117 0.0
C509 C 0.01809 0.37147 0.75143 0.0
C510 C 0.00977 0.35653 0.77407 0.0
C511 C 0.00823 0.38705 0.74478 0.0
C512 C 0.01596 0.40312 0.71921 0.0
C513 C 0.02385 0.40278 0.66344 0.0
C514 C 0.03139 0.41791 0.64011 0.0
C515 C 0.03101 0.4335 0.67196 0.0
C516 C 0.02303 0.43401 0.72713 0.0
C517 C 0.01547 0.41891 0.75067 0.0
H518 H 0.0369 0.4452 0.6539 0.0
H519 H 0.9628 0.29864 0.87989 0.0
H520 H 0.36494 0.41869 0.98354 0.0
H521 H 0.36452 0.45037 0.96918 0.0
H522 H 0.37514 0.45805 0.15306 0.0
H523 H 0.37605 0.42627 0.16769 0.0
H524 H 0.34466 0.47791 0.09584 0.0
H525 H 0.40686 0.46464 0.0763 0.0
H526 H 0.43151 0.44834 0.03269 0.0
H527 H 0.41726 0.46691 0.8615 0.0
H528 H 0.39232 0.48308 0.90403 0.0
H529 H 0.35957 0.56791 0.1075 0.0
H530 H 0.36095 0.53628 0.11783 0.0
H531 H 0.37302 0.53139 0.93338 0.0
H532 H 0.37281 0.56335 0.92398 0.0
H533 H 0.39137 0.50926 0.98677 0.0
H534 H 0.3306 0.52212 0.996 0.0
H535 H 0.30359 0.53687 0.02875 0.0
H536 H 0.31163 0.5178 0.20381 0.0
H537 H 0.33883 0.50312 0.17229 0.0
C538 C 0.36723 0.42711 0.02095 0.0
C539 C 0.37057 0.42002 0.07678 0.0
C540 C 0.36701 0.44517 0.01259 0.0
C541 C 0.36983 0.45645 0.06004 0.0
C542 C 0.37296 0.44947 0.11597 0.0
C543 C 0.37353 0.43137 0.12418 0.0
C544 C 0.36935 0.47555 0.05116 0.0
C545 C 0.35496 0.48488 0.07279 0.0
C546 C 0.38241 0.48434 0.01859 0.0
C547 C 0.39762 0.47492 0.99328 0.0
C548 C 0.4089 0.46513 0.0293 0.0
C549 C 0.42294 0.45594 0.00478 0.0
C550 C 0.42592 0.45655 0.94432 0.0
C551 C 0.41491 0.46642 0.90831 0.0
C552 C 0.40084 0.47561 0.93261 0.0
C553 C 0.36243 0.56007 0.06907 0.0
C554 C 0.36586 0.568 0.01475 0.0
C555 C 0.36312 0.54195 0.07492 0.0
C556 C 0.36659 0.53131 0.02607 0.0
C557 C 0.37021 0.53927 0.97172 0.0
C558 C 0.37002 0.5575 0.96625 0.0
C559 C 0.36671 0.51194 0.03233 0.0
C560 C 0.381 0.50245 0.00993 0.0
C561 C 0.35323 0.50288 0.06268 0.0
C562 C 0.33684 0.51165 0.08186 0.0
C563 C 0.32668 0.52117 0.04157 0.0
C564 C 0.31132 0.5295 0.0599 0.0
C565 C 0.30592 0.52831 0.11835 0.0
C566 C 0.31584 0.51873 0.15856 0.0
C567 C 0.33122 0.51038 0.14047 0.0
H568 H 0.29403 0.53477 0.13245 0.0
H569 H 0.43677 0.44941 0.92533 0.0
H570 H 0.57488 0.66624 0.9536 0.0
H571 H 0.54306 0.66555 0.94885 0.0
H572 H 0.542 0.62432 0.07798 0.0
H573 H 0.5741 0.62456 0.08159 0.0
H574 H 0.52071 0.6167 0.99194 0.0
H575 H 0.52921 0.66704 0.11122 0.0
H576 H 0.54178 0.69546 0.13992 0.0
H577 H 0.52013 0.7192 0.98551 0.0
H578 H 0.50764 0.69087 0.95541 0.0
H579 H 0.42784 0.62278 0.01961 0.0
H580 H 0.45902 0.62429 0.04298 0.0
H581 H 0.46705 0.6603 0.89996 0.0
H582 H 0.43585 0.65891 0.87607 0.0
H583 H 0.48418 0.67024 0.00308 0.0
H584 H 0.4777 0.61882 0.88187 0.0
H585 H 0.46502 0.59027 0.85523 0.0
H586 H 0.48268 0.56858 0.01851 0.0
H587 H 0.49527 0.59709 0.04647 0.0
C588 C 0.56792 0.65711 0.98147 0.0
C589 C 0.57703 0.64547 0.0181 0.0
C590 C 0.54967 0.6568 0.97892 0.0
C591 C 0.54007 0.64508 0.01375 0.0
C592 C 0.54912 0.63352 0.05085 0.0
C593 C 0.56745 0.6337 0.05299 0.0
C594 C 0.52067 0.64441 0.009 0.0
C595 C 0.5127 0.62837 0.9956 0.0
C596 C 0.5102 0.65967 0.01271 0.0
C597 C 0.51759 0.67678 0.03085 0.0
C598 C 0.52723 0.67829 0.08317 0.0
C599 C 0.53432 0.69439 0.09972 0.0
C600 C 0.53178 0.70912 0.0645 0.0
C601 C 0.5221 0.70778 0.01273 0.0
C602 C 0.51499 0.69171 0.99594 0.0
C603 C 0.4362 0.63108 0.99314 0.0
C604 C 0.42933 0.64066 0.94571 0.0
C605 C 0.45403 0.63188 0.00655 0.0
C606 C 0.46534 0.6423 0.97292 0.0
C607 C 0.45851 0.65218 0.92642 0.0
C608 C 0.44069 0.6513 0.9127 0.0
C609 C 0.48438 0.64263 0.9854 0.0
C610 C 0.49223 0.65859 0.00018 0.0
C611 C 0.49472 0.62729 0.98347 0.0
C612 C 0.48726 0.61013 0.96653 0.0
C613 C 0.47876 0.608 0.9123 0.0
C614 C 0.47161 0.59182 0.89692 0.0
C615 C 0.473 0.57763 0.93523 0.0
C616 C 0.48159 0.57959 0.98892 0.0
C617 C 0.48874 0.59575 0.00454 0.0
H618 H 0.46746 0.56512 0.92325 0.0
H619 H 0.5373 0.72157 0.07738 0.0
H620 H 0.61153 0.5753 0.12404 0.0
H621 H 0.61148 0.54423 0.09909 0.0
H622 H 0.65652 0.55202 0.98743 0.0
H623 H 0.65628 0.58313 0.01063 0.0
H624 H 0.63414 0.53227 0.9336 0.0
H625 H 0.65942 0.5325 0.12574 0.0
H626 H 0.66121 0.53928 0.2313 0.0
H627 H 0.61395 0.5103 0.26252 0.0
H628 H 0.61174 0.50354 0.15696 0.0
H629 H 0.66071 0.44228 0.91554 0.0
H630 H 0.65893 0.4738 0.93344 0.0
H631 H 0.60913 0.46679 0.01974 0.0
H632 H 0.61068 0.43538 0.00176 0.0
H633 H 0.63347 0.4859 0.08563 0.0
H634 H 0.6096 0.48499 0.89047 0.0
H635 H 0.60931 0.47803 0.78488 0.0
H636 H 0.6562 0.50812 0.75981 0.0
H637 H 0.65694 0.51503 0.86548 0.0
C638 C 0.62148 0.57037 0.09446 0.0
C639 C 0.63392 0.58166 0.06942 0.0
C640 C 0.62147 0.55259 0.08033 0.0
C641 C 0.63412 0.54573 0.04183 0.0
C642 C 0.64661 0.557 0.01711 0.0
C643 C 0.64649 0.57478 0.03062 0.0
C644 C 0.63423 0.52688 0.02646 0.0
C645 C 0.63423 0.52214 0.96691 0.0
C646 C 0.63403 0.51364 0.06983 0.0
C647 C 0.63532 0.51767 0.13335 0.0
C648 C 0.64933 0.52769 0.15504 0.0
C649 C 0.65044 0.53151 0.21489 0.0
C650 C 0.63767 0.52527 0.25357 0.0
C651 C 0.62381 0.51515 0.23249 0.0
C652 C 0.62263 0.51131 0.17267 0.0
C653 C 0.64928 0.44748 0.93764 0.0
C654 C 0.63586 0.43633 0.95733 0.0
C655 C 0.64827 0.46548 0.94774 0.0
C656 C 0.6339 0.47257 0.97793 0.0
C657 C 0.62033 0.46153 0.99645 0.0
C658 C 0.62122 0.4436 0.98586 0.0
C659 C 0.63342 0.49137 0.99298 0.0
C660 C 0.63337 0.49607 0.05246 0.0
C661 C 0.63383 0.50455 0.94958 0.0
C662 C 0.63343 0.50036 0.88604 0.0
C663 C 0.61995 0.48997 0.86257 0.0
C664 C 0.61968 0.48607 0.80267 0.0
C665 C 0.63275 0.49259 0.76569 0.0
C666 C 0.6461 0.50305 0.78852 0.0
C667 C 0.64645 0.50697 0.84841 0.0
H668 H 0.63251 0.48956 0.71932 0.0
H669 H 0.63855 0.52824 0.29989 0.0
H670 H 0.43022 0.37285 0.07419 0.0
H671 H 0.46226 0.37306 0.06672 0.0
H672 H 0.45936 0.34024 0.91312 0.0
H673 H 0.42755 0.33952 0.92146 0.0
H674 H 0.48474 0.32931 0.97946 0.0
H675 H 0.46676 0.38581 0.90729 0.0
H676 H 0.45218 0.41455 0.91213 0.0
H677 H 0.48349 0.42848 0.0613 0.0
H678 H 0.49809 0.39973 0.05788 0.0
H679 H 0.56955 0.34421 0.85894 0.0
H680 H 0.53803 0.34268 0.87736 0.0
H681 H 0.54456 0.37293 0.03542 0.0
H682 H 0.57602 0.37472 0.01712 0.0
H683 H 0.51772 0.3851 0.97191 0.0
H684 H 0.53646 0.32901 0.04139 0.0
H685 H 0.55143 0.30051 0.03516 0.0
H686 H 0.51889 0.28597 0.88964 0.0
H687 H 0.50387 0.31448 0.89449 0.0
C688 C 0.43644 0.36563 0.03899 0.0
C689 C 0.42631 0.35617 0.99845 0.0
C690 C 0.45476 0.36584 0.03454 0.0
C691 C 0.46329 0.35685 0.98883 0.0
C692 C 0.45316 0.34725 0.94883 0.0
C693 C 0.43492 0.34688 0.95363 0.0
C694 C 0.48272 0.35739 0.9822 0.0
C695 C 0.4919 0.34153 0.97717 0.0
C696 C 0.49221 0.37329 0.98058 0.0
C697 C 0.48339 0.39055 0.98269 0.0
C698 C 0.47043 0.39495 0.94141 0.0
C699 C 0.46218 0.41125 0.94386 0.0
C700 C 0.46689 0.42331 0.98707 0.0
C701 C 0.47985 0.41911 0.02791 0.0
C702 C 0.48812 0.40282 0.02572 0.0
C703 C 0.56433 0.35045 0.89787 0.0
C704 C 0.5754 0.3596 0.93649 0.0
C705 C 0.54628 0.34951 0.90844 0.0
C706 C 0.53891 0.35759 0.95804 0.0
C707 C 0.54993 0.36661 0.99685 0.0
C708 C 0.56796 0.36756 0.98635 0.0
C709 C 0.51966 0.35704 0.96866 0.0
C710 C 0.51053 0.37289 0.97443 0.0
C711 C 0.51021 0.34114 0.97077 0.0
C712 C 0.51914 0.32394 0.96799 0.0
C713 C 0.53258 0.31978 0.00779 0.0
C714 C 0.54106 0.30362 0.00455 0.0
C715 C 0.53614 0.29146 0.96195 0.0
C716 C 0.52269 0.29541 0.92259 0.0
C717 C 0.51418 0.31156 0.9256 0.0
H718 H 0.54272 0.27895 0.9595 0.0
H719 H 0.46055 0.43594 0.98884 0.0
H720 H 0.87992 0.42778 0.81186 0.0
H721 H 0.8792 0.45966 0.80119 0.0
H722 H 0.83752 0.45506 0.6746 0.0
H723 H 0.83809 0.42332 0.68503 0.0
H724 H 0.86417 0.47649 0.63663 0.0
H725 H 0.82856 0.46929 0.80899 0.0
H726 H 0.8218 0.45899 0.90898 0.0
H727 H 0.86515 0.48844 0.97689 0.0
H728 H 0.87233 0.49871 0.87711 0.0
H729 H 0.84352 0.56624 0.60957 0.0
H730 H 0.84141 0.53483 0.62779 0.0
H731 H 0.87846 0.53953 0.76968 0.0
H732 H 0.88023 0.57095 0.75302 0.0
H733 H 0.85374 0.51786 0.80048 0.0
H734 H 0.89037 0.52426 0.63066 0.0
H735 H 0.89822 0.53439 0.53134 0.0
H736 H 0.85459 0.50624 0.45942 0.0
H737 H 0.84634 0.49612 0.55847 0.0
C738 C 0.87051 0.43357 0.7821 0.0
C739 C 0.85907 0.423 0.7493 0.0
C740 C 0.87009 0.45179 0.77616 0.0
C741 C 0.85826 0.45973 0.73721 0.0
C742 C 0.84675 0.44921 0.70484 0.0
C743 C 0.84707 0.43105 0.71107 0.0
C744 C 0.85822 0.47896 0.72859 0.0
C745 C 0.86165 0.48554 0.67227 0.0
C746 C 0.8554 0.49076 0.77543 0.0
C747 C 0.8511 0.48462 0.83547 0.0
C748 C 0.83675 0.47344 0.84516 0.0
C749 C 0.83283 0.46764 0.90182 0.0
C750 C 0.84307 0.47302 0.94923 0.0
C751 C 0.85724 0.48426 0.9401 0.0
C752 C 0.86124 0.49008 0.88351 0.0
C753 C 0.85116 0.56061 0.64483 0.0
C754 C 0.86213 0.57114 0.67955 0.0
C755 C 0.85 0.54261 0.65505 0.0
C756 C 0.86001 0.53471 0.69949 0.0
C757 C 0.87063 0.54527 0.73508 0.0
C758 C 0.87166 0.56327 0.72533 0.0
C759 C 0.85969 0.51544 0.70838 0.0
C760 C 0.85623 0.50883 0.76475 0.0
C761 C 0.86266 0.50359 0.66168 0.0
C762 C 0.86764 0.50958 0.60204 0.0
C763 C 0.88238 0.52033 0.59371 0.0
C764 C 0.88691 0.52606 0.53746 0.0
C765 C 0.87688 0.52101 0.48912 0.0
C766 C 0.86233 0.51017 0.49692 0.0
C767 C 0.85773 0.50442 0.55309 0.0
H768 H 0.88041 0.52545 0.44561 0.0
H769 H 0.84001 0.46852 0.99307 0.0
H770 H 0.56691 0.12812 0.399 0.0
H771 H 0.53523 0.12743 0.38461 0.0
H772 H 0.54261 0.13498 0.19845 0.0
H773 H 0.57428 0.13675 0.21338 0.0
H774 H 0.5167 0.15314 0.22831 0.0
H775 H 0.53139 0.09384 0.26341 0.0
H776 H 0.54472 0.06863 0.31383 0.0
H777 H 0.51331 0.07882 0.46644 0.0
H778 H 0.49997 0.10424 0.41723 0.0
H779 H 0.42673 0.12341 0.17806 0.0
H780 H 0.45895 0.12262 0.17961 0.0
H781 H 0.45859 0.13989 0.35958 0.0
H782 H 0.42658 0.14123 0.35795 0.0
H783 H 0.48054 0.1072 0.323 0.0
H784 H 0.46811 0.1689 0.28108 0.0
H785 H 0.45449 0.19219 0.22191 0.0
H786 H 0.4818 0.17397 0.06889 0.0
H787 H 0.49536 0.15038 0.12708 0.0
C788 C 0.56174 0.12964 0.35504 0.0
C789 C 0.57302 0.13242 0.30728 0.0
C790 C 0.54363 0.1291 0.34672 0.0
C791 C 0.53646 0.13072 0.29018 0.0
C792 C 0.54776 0.13365 0.24247 0.0
C793 C 0.56587 0.13463 0.25101 0.0
C794 C 0.51718 0.12973 0.28117 0.0
C795 C 0.5089 0.1429 0.24831 0.0
C796 C 0.50684 0.11637 0.30699 0.0
C797 C 0.51478 0.10104 0.33676 0.0
C798 C 0.52741 0.09077 0.30786 0.0
C799 C 0.53496 0.07644 0.33621 0.0
C800 C 0.52989 0.07215 0.39334 0.0
C801 C 0.51723 0.08216 0.42219 0.0
C802 C 0.50966 0.09653 0.39407 0.0
C803 C 0.43356 0.12707 0.21783 0.0
C804 C 0.4242 0.13246 0.26781 0.0
C805 C 0.45189 0.12662 0.21862 0.0
C806 C 0.46102 0.13119 0.26974 0.0
C807 C 0.4517 0.13632 0.31981 0.0
C808 C 0.43345 0.13716 0.31867 0.0
C809 C 0.48034 0.13072 0.27145 0.0
C810 C 0.48853 0.11727 0.30274 0.0
C811 C 0.49061 0.14349 0.24295 0.0
C812 C 0.48256 0.15775 0.20823 0.0
C813 C 0.47106 0.16975 0.23469 0.0
C814 C 0.46339 0.18303 0.20137 0.0
C815 C 0.46723 0.18452 0.14163 0.0
C816 C 0.4788 0.17277 0.11514 0.0
C817 C 0.48649 0.15945 0.14827 0.0
H818 H 0.46127 0.19482 0.1159 0.0
H819 H 0.53575 0.06105 0.41522 0.0
H820 H 0.15675 0.55725 0.88074 0.0
H821 H 0.15619 0.52553 0.86697 0.0
H822 H 0.1234 0.53191 0.71445 0.0
H823 H 0.12356 0.56348 0.72859 0.0
H824 H 0.11264 0.50467 0.77653 0.0
H825 H 0.16792 0.52552 0.70245 0.0
H826 H 0.19623 0.54095 0.70754 0.0
H827 H 0.21275 0.5072 0.84742 0.0
H828 H 0.18442 0.49171 0.84367 0.0
H829 H 0.13065 0.42611 0.62048 0.0
H830 H 0.12964 0.45684 0.65005 0.0
H831 H 0.15474 0.44387 0.81367 0.0
H832 H 0.15557 0.41306 0.78501 0.0
H833 H 0.16928 0.47358 0.75332 0.0
H834 H 0.11423 0.45126 0.82071 0.0
H835 H 0.08624 0.43547 0.81094 0.0
H836 H 0.06943 0.47183 0.67909 0.0
H837 H 0.09749 0.48768 0.68729 0.0
C838 C 0.1493 0.55189 0.84457 0.0
C839 C 0.14031 0.56293 0.80554 0.0
C840 C 0.14904 0.53376 0.83662 0.0
C841 C 0.13995 0.52634 0.78914 0.0
C842 C 0.13051 0.53731 0.75135 0.0
C843 C 0.13068 0.55539 0.75941 0.0
C844 C 0.14076 0.50726 0.77725 0.0
C845 C 0.12503 0.49792 0.77103 0.0
C846 C 0.15692 0.49834 0.77104 0.0
C847 C 0.17398 0.50759 0.77324 0.0
C848 C 0.17754 0.52148 0.7346 0.0
C849 C 0.1936 0.53022 0.73719 0.0
C850 C 0.20626 0.5251 0.77791 0.0
C851 C 0.20292 0.51118 0.81599 0.0
C852 C 0.18686 0.50241 0.81364 0.0
C853 C 0.13602 0.42979 0.66266 0.0
C854 C 0.14321 0.41714 0.70035 0.0
C855 C 0.13536 0.44733 0.67955 0.0
C856 C 0.14204 0.45256 0.73412 0.0
C857 C 0.14952 0.44005 0.7714 0.0
C858 C 0.14995 0.42247 0.75495 0.0
C859 C 0.1412 0.47112 0.75215 0.0
C860 C 0.15692 0.48034 0.75938 0.0
C861 C 0.12504 0.47993 0.75882 0.0
C862 C 0.10805 0.47057 0.75422 0.0
C863 C 0.10464 0.45581 0.78925 0.0
C864 C 0.08875 0.44686 0.78406 0.0
C865 C 0.07609 0.45262 0.74433 0.0
C866 C 0.07927 0.46738 0.7098 0.0
C867 C 0.09516 0.47636 0.71473 0.0
H868 H 0.0638 0.44568 0.74041 0.0
H869 H 0.21869 0.53188 0.77984 0.0
H870 H 0.57541 0.85657 0.33146 0.0
H871 H 0.5436 0.85696 0.33936 0.0
H872 H 0.54046 0.88977 0.18586 0.0
H873 H 0.57256 0.88973 0.17826 0.0
H874 H 0.5176 0.90055 0.26684 0.0
H875 H 0.5313 0.8462 0.17665 0.0
H876 H 0.54657 0.81806 0.16454 0.0
H877 H 0.52568 0.80018 0.3289 0.0
H878 H 0.51047 0.82835 0.34243 0.0
H879 H 0.42698 0.85254 0.241 0.0
H880 H 0.45842 0.85415 0.22191 0.0
H881 H 0.46482 0.88807 0.37148 0.0
H882 H 0.43328 0.88681 0.39014 0.0
H883 H 0.48572 0.8442 0.28085 0.0
H884 H 0.49845 0.91633 0.34825 0.0
H885 H 0.48279 0.94453 0.3488 0.0
H886 H 0.44978 0.92686 0.20844 0.0
H887 H 0.4654 0.89867 0.20646 0.0
C888 C 0.56801 0.86387 0.29918 0.0
C889 C 0.57656 0.87298 0.25379 0.0
C890 C 0.54977 0.86404 0.30375 0.0
C891 C 0.53956 0.87314 0.26265 0.0
C892 C 0.54804 0.8826 0.21798 0.0
C893 C 0.56638 0.88252 0.21356 0.0
C894 C 0.52007 0.87252 0.26635 0.0
C895 C 0.51062 0.88824 0.26984 0.0
C896 C 0.51086 0.85647 0.26885 0.0
C897 C 0.51986 0.83944 0.26076 0.0
C898 C 0.53006 0.83631 0.2104 0.0
C899 C 0.53869 0.82035 0.20326 0.0
C900 C 0.53713 0.80734 0.24597 0.0
C901 C 0.52689 0.81027 0.29587 0.0
C902 C 0.51824 0.82623 0.30327 0.0
C903 C 0.43505 0.86035 0.26991 0.0
C904 C 0.42756 0.86958 0.31709 0.0
C905 C 0.45307 0.86124 0.25893 0.0
C906 C 0.46403 0.87138 0.29479 0.0
C907 C 0.45662 0.88042 0.34244 0.0
C908 C 0.43858 0.87961 0.35327 0.0
C909 C 0.48323 0.87223 0.28285 0.0
C910 C 0.49265 0.85654 0.2778 0.0
C911 C 0.49232 0.88831 0.27734 0.0
C912 C 0.483 0.90532 0.27765 0.0
C913 C 0.4879 0.9185 0.31734 0.0
C914 C 0.47902 0.93448 0.31792 0.0
C915 C 0.46526 0.93747 0.27881 0.0
C916 C 0.4604 0.92451 0.23886 0.0
C917 C 0.46925 0.90852 0.23804 0.0
H918 H 0.4584 0.94984 0.27938 0.0
H919 H 0.54384 0.79499 0.24034 0.0
H920 H 0.84728 0.91509 0.50894 0.0
H921 H 0.85029 0.94511 0.4744 0.0
H922 H 0.88637 0.95604 0.61519 0.0
H923 H 0.88342 0.92593 0.65017 0.0
H924 H 0.86315 0.98154 0.6052 0.0
H925 H 0.90126 0.95165 0.47617 0.0
H926 H 0.91111 0.92913 0.40621 0.0
H927 H 0.87202 0.94571 0.28294 0.0
H928 H 0.86176 0.96822 0.35252 0.0
H929 H 0.8898 0.06322 0.49178 0.0
H930 H 0.89214 0.03215 0.51469 0.0
H931 H 0.84761 0.02136 0.40445 0.0
H932 H 0.84498 0.05257 0.38158 0.0
H933 H 0.87733 0.99592 0.39812 0.0
H934 H 0.83896 0.02526 0.53798 0.0
H935 H 0.83222 0.04855 0.60931 0.0
H936 H 0.87611 0.03291 0.71462 0.0
H937 H 0.88325 0.00968 0.64339 0.0
C938 C 0.85596 0.92382 0.53241 0.0
C939 C 0.86525 0.91805 0.58201 0.0
C940 C 0.85771 0.94099 0.51244 0.0
C941 C 0.86877 0.95276 0.54162 0.0
C942 C 0.87783 0.94715 0.5918 0.0
C943 C 0.87611 0.92994 0.61178 0.0
C944 C 0.87037 0.97108 0.52077 0.0
C945 C 0.86652 0.98465 0.56012 0.0
C946 C 0.87465 0.97517 0.46181 0.0
C947 C 0.88064 0.96155 0.41984 0.0
C948 C 0.89465 0.95041 0.43437 0.0
C949 C 0.90034 0.93768 0.39471 0.0
C950 C 0.89222 0.93602 0.34014 0.0
C951 C 0.87834 0.94706 0.32519 0.0
C952 C 0.87258 0.95981 0.36471 0.0
C953 C 0.88065 0.05425 0.47153 0.0
C954 C 0.86708 0.06042 0.43523 0.0
C955 C 0.88203 0.03649 0.48472 0.0
C956 C 0.86998 0.02452 0.46156 0.0
C957 C 0.85705 0.03043 0.42264 0.0
C958 C 0.85553 0.04826 0.40985 0.0
C959 C 0.8699 0.00618 0.48242 0.0
C960 C 0.87403 0.99269 0.44313 0.0
C961 C 0.86624 0.00212 0.54172 0.0
C962 C 0.86174 0.01586 0.58509 0.0
C963 C 0.84724 0.02687 0.57614 0.0
C964 C 0.84334 0.04005 0.61657 0.0
C965 C 0.85376 0.04224 0.66639 0.0
C966 C 0.86806 0.03121 0.67598 0.0
C967 C 0.87203 0.01803 0.63562 0.0
H968 H 0.85073 0.05246 0.69761 0.0
H969 H 0.89666 0.92617 0.30947 0.0
H970 H 0.06806 0.15872 0.45451 0.0
H971 H 0.03646 0.16071 0.44256 0.0
H972 H 0.02911 0.12558 0.58868 0.0
H973 H 0.06093 0.123 0.59949 0.0
H974 H 0.00915 0.11603 0.50321 0.0
H975 H 0.01968 0.1707 0.59679 0.0
H976 H 0.03393 0.19919 0.6133 0.0
H977 H 0.01705 0.21671 0.4436 0.0
H978 H 0.0029 0.18823 0.4257 0.0
H979 H 0.91768 0.12821 0.51132 0.0
H980 H 0.94836 0.13035 0.53955 0.0
H981 H 0.95979 0.15815 0.37948 0.0
H982 H 0.92895 0.15611 0.35062 0.0
H983 H 0.97698 0.1719 0.47857 0.0
H984 H 0.96799 0.11585 0.38515 0.0
H985 H 0.95318 0.08748 0.37214 0.0
H986 H 0.96683 0.07286 0.54811 0.0
H987 H 0.98153 0.10126 0.56242 0.0
C988 C 0.05975 0.15155 0.48459 0.0
C989 C 0.067 0.14071 0.52803 0.0
C990 C 0.04164 0.15279 0.4779 0.0
C991 C 0.03035 0.14352 0.51529 0.0
C992 C 0.03755 0.13289 0.55939 0.0
C993 C 0.05572 0.13145 0.56562 0.0
C994 C 0.01111 0.14412 0.50582 0.0
C995 C 0.0021 0.12827 0.49901 0.0
C996 C 0.0019 0.16008 0.49905 0.0
C997 C 0.01034 0.17727 0.50973 0.0
C998 C 0.01911 0.18058 0.56281 0.0
C999 C 0.02715 0.19674 0.57245 0.0
C1000 C 0.02643 0.20974 0.52948 0.0
C1001 C 0.01761 0.20662 0.47683 0.0
C1002 C 0.00956 0.19048 0.46695 0.0
C1003 C 0.92664 0.13485 0.48206 0.0
C1004 C 0.92087 0.14176 0.42823 0.0
C1005 C 0.94419 0.13608 0.4984 0.0
C1006 C 0.95635 0.14418 0.4612 0.0
C1007 C 0.95057 0.1518 0.40867 0.0
C1008 C 0.93296 0.15057 0.3922 0.0
C1009 C 0.97523 0.14386 0.47584 0.0
C1010 C 0.98412 0.15972 0.48341 0.0
C1011 C 0.98431 0.12792 0.4839 0.0
C1012 C 0.97571 0.11074 0.47502 0.0
C1013 C 0.96774 0.10663 0.42118 0.0
C1014 C 0.95938 0.09054 0.41356 0.0
C1015 C 0.95903 0.07839 0.45932 0.0
C1016 C 0.9671 0.08229 0.51273 0.0
C1017 C 0.97546 0.09837 0.5206 0.0
H1018 H 0.95254 0.06595 0.45335 0.0
H1019 H 0.03267 0.22223 0.53702 0.0
H1020 H 0.16805 0.92741 0.52833 0.0
H1021 H 0.1672 0.9589 0.54475 0.0
H1022 H 0.11921 0.96242 0.44593 0.0
H1023 H 0.11987 0.93078 0.42935 0.0
H1024 H 0.14348 0.99052 0.42502 0.0
H1025 H 0.11535 0.96051 0.58453 0.0
H1026 H 0.11339 0.93823 0.66242 0.0
H1027 H 0.15794 0.96077 0.74877 0.0
H1028 H 0.16039 0.98299 0.6707 0.0
H1029 H 0.11552 0.07257 0.53222 0.0
H1030 H 0.11702 0.04179 0.5054 0.0
H1031 H 0.15983 0.03437 0.6263 0.0
H1032 H 0.15801 0.06511 0.65488 0.0
H1033 H 0.13788 0.00805 0.6339 0.0
H1034 H 0.16617 0.03811 0.47429 0.0
H1035 H 0.1682 0.06033 0.39616 0.0
H1036 H 0.12356 0.03791 0.31006 0.0
H1037 H 0.12112 0.01567 0.38807 0.0
C1038 C 0.15743 0.93487 0.5093 0.0
C1039 C 0.14391 0.92655 0.47811 0.0
C1040 C 0.15697 0.95287 0.51879 0.0
C1041 C 0.14303 0.96291 0.49718 0.0
C1042 C 0.13005 0.95486 0.46305 0.0
C1043 C 0.13044 0.93679 0.45379 0.0
C1044 C 0.14137 0.9815 0.51418 0.0
C1045 C 0.14206 0.99439 0.47056 0.0
C1046 C 0.1398 0.98647 0.57375 0.0
C1047 C 0.13816 0.97332 0.62141 0.0
C1048 C 0.12482 0.96064 0.61987 0.0
C1049 C 0.12361 0.94802 0.66407 0.0
C1050 C 0.13556 0.94805 0.71044 0.0
C1051 C 0.14871 0.96074 0.71277 0.0
C1052 C 0.15001 0.97336 0.66856 0.0
C1053 C 0.12528 0.06442 0.55313 0.0
C1054 C 0.13676 0.07136 0.59537 0.0
C1055 C 0.12617 0.04681 0.53753 0.0
C1056 C 0.13878 0.03582 0.5629 0.0
C1057 C 0.15004 0.04262 0.6059 0.0
C1058 C 0.14901 0.06021 0.62213 0.0
C1059 C 0.14016 0.01723 0.5448 0.0
C1060 C 0.13936 0.00426 0.5883 0.0
C1061 C 0.14166 0.01223 0.4851 0.0
C1062 C 0.14338 0.02531 0.4373 0.0
C1063 C 0.15674 0.03796 0.43882 0.0
C1064 C 0.15797 0.05056 0.39455 0.0
C1065 C 0.14599 0.05056 0.34826 0.0
C1066 C 0.13282 0.0379 0.34597 0.0
C1067 C 0.13153 0.02528 0.39015 0.0
H1068 H 0.14693 0.06036 0.31413 0.0
H1069 H 0.13461 0.93827 0.74461 0.0
H1070 H 0.07791 0.87483 0.52266 0.0
H1071 H 0.04649 0.87643 0.54193 0.0
H1072 H 0.0363 0.8747 0.35571 0.0
H1073 H 0.06789 0.87445 0.33644 0.0
H1074 H 0.01411 0.89496 0.39842 0.0
H1075 H 0.03196 0.8376 0.45656 0.0
H1076 H 0.04947 0.8155 0.5091 0.0
H1077 H 0.03242 0.8365 0.67424 0.0
H1078 H 0.01495 0.85885 0.62265 0.0
H1079 H 0.92816 0.85923 0.41366 0.0
H1080 H 0.95975 0.86297 0.40304 0.0
H1081 H 0.96273 0.88355 0.5787 0.0
H1082 H 0.93081 0.88004 0.58964 0.0
H1083 H 0.98796 0.85526 0.54668 0.0
H1084 H 0.96741 0.91141 0.47866 0.0
H1085 H 0.94848 0.93038 0.41847 0.0
H1086 H 0.96944 0.90745 0.26148 0.0
H1087 H 0.98831 0.88815 0.32076 0.0
C1088 C 0.06894 0.87484 0.48586 0.0
C1089 C 0.07533 0.87438 0.42805 0.0
C1090 C 0.05093 0.87563 0.49689 0.0
C1091 C 0.03881 0.87519 0.45045 0.0
C1092 C 0.04525 0.875 0.39252 0.0
C1093 C 0.06332 0.87479 0.38144 0.0
C1094 C 0.01951 0.87483 0.4622 0.0
C1095 C 0.00848 0.88613 0.4305 0.0
C1096 C 0.01191 0.8635 0.50458 0.0
C1097 C 0.0223 0.85 0.53574 0.0
C1098 C 0.03203 0.83756 0.50408 0.0
C1099 C 0.04194 0.82499 0.53369 0.0
C1100 C 0.0421 0.82463 0.59497 0.0
C1101 C 0.0323 0.83681 0.62678 0.0
C1102 C 0.02238 0.84942 0.59738 0.0
C1103 C 0.93548 0.86461 0.45014 0.0
C1104 C 0.92699 0.86928 0.50267 0.0
C1105 C 0.95354 0.8668 0.4438 0.0
C1106 C 0.96356 0.87357 0.48994 0.0
C1107 C 0.95519 0.8783 0.54256 0.0
C1108 C 0.93698 0.87636 0.54866 0.0
C1109 C 0.98283 0.87529 0.48288 0.0
C1110 C 0.99377 0.86418 0.51519 0.0
C1111 C 0.99026 0.8864 0.43996 0.0
C1112 C 0.97923 0.89829 0.40419 0.0
C1113 C 0.96793 0.91036 0.43131 0.0
C1114 C 0.95722 0.92118 0.39736 0.0
C1115 C 0.95778 0.92015 0.3362 0.0
C1116 C 0.96907 0.90829 0.30886 0.0
C1117 C 0.97978 0.89741 0.34262 0.0
H1118 H 0.94944 0.9285 0.30999 0.0
H1119 H 0.04979 0.81489 0.61781 0.0
H1120 H 0.34734 0.17536 0.22054 0.0
H1121 H 0.3466 0.2071 0.20832 0.0
H1122 H 0.39203 0.20439 0.09587 0.0
H1123 H 0.3926 0.17268 0.10661 0.0
H1124 H 0.3688 0.23246 0.23467 0.0
H1125 H 0.38931 0.23494 0.98985 0.0
H1126 H 0.38738 0.21631 0.90176 0.0
H1127 H 0.34131 0.19157 0.97102 0.0
H1128 H 0.34279 0.21023 0.05905 0.0
H1129 H 0.39382 0.31832 0.1612 0.0
H1130 H 0.39305 0.28658 0.17169 0.0
H1131 H 0.34658 0.28442 0.06434 0.0
H1132 H 0.34759 0.31615 0.05208 0.0
H1133 H 0.36777 0.25878 0.03569 0.0
H1134 H 0.34456 0.28152 0.21538 0.0
H1135 H 0.34474 0.30026 0.30341 0.0
H1136 H 0.39119 0.27452 0.36503 0.0
H1137 H 0.39146 0.25584 0.27685 0.0
C1138 C 0.35717 0.18152 0.19318 0.0
C1139 C 0.36995 0.17148 0.16419 0.0
C1140 C 0.35676 0.19966 0.18641 0.0
C1141 C 0.36912 0.20809 0.15059 0.0
C1142 C 0.38215 0.19814 0.12282 0.0
C1143 C 0.38249 0.18 0.12917 0.0
C1144 C 0.36829 0.22728 0.14178 0.0
C1145 C 0.36855 0.23822 0.19119 0.0
C1146 C 0.36763 0.23478 0.08503 0.0
C1147 C 0.36627 0.22389 0.03131 0.0
C1148 C 0.3787 0.22561 0.9861 0.0
C1149 C 0.3777 0.21502 0.93621 0.0
C1150 C 0.36427 0.20272 0.93089 0.0
C1151 C 0.35174 0.20106 0.97528 0.0
C1152 C 0.35266 0.21163 0.02519 0.0
C1153 C 0.38345 0.31109 0.13972 0.0
C1154 C 0.3707 0.31975 0.10608 0.0
C1155 C 0.383 0.29295 0.14592 0.0
C1156 C 0.3696 0.28315 0.11958 0.0
C1157 C 0.35703 0.29173 0.08512 0.0
C1158 C 0.35759 0.30986 0.07832 0.0
C1159 C 0.36858 0.26397 0.12856 0.0
C1160 C 0.36797 0.25303 0.07918 0.0
C1161 C 0.36851 0.25647 0.18537 0.0
C1162 C 0.3681 0.26736 0.23926 0.0
C1163 C 0.35486 0.27991 0.24758 0.0
C1164 C 0.35488 0.29053 0.29749 0.0
C1165 C 0.36799 0.28861 0.33972 0.0
C1166 C 0.38106 0.27601 0.33225 0.0
C1167 C 0.38112 0.26539 0.28234 0.0
H1168 H 0.36801 0.29687 0.37827 0.0
H1169 H 0.36356 0.19449 0.89234 0.0
H1170 H 0.33077 0.64453 0.81173 0.0
H1171 H 0.29906 0.64621 0.80076 0.0
H1172 H 0.29297 0.6436 0.98892 0.0
H1173 H 0.3247 0.64087 -0.0002 0.0
H1174 H 0.2706 0.62347 0.94415 0.0
H1175 H 0.28638 0.68256 0.90299 0.0
H1176 H 0.3026 0.70648 0.85489 0.0
H1177 H 0.2822 0.69082 0.68753 0.0
H1178 H 0.26603 0.66665 0.73451 0.0
H1179 H 0.18037 0.64815 0.93823 0.0
H1180 H 0.21208 0.65088 0.95099 0.0
H1181 H 0.2201 0.63552 0.77102 0.0
H1182 H 0.18839 0.63243 0.75803 0.0
H1183 H 0.24076 0.6661 0.81416 0.0
H1184 H 0.22611 0.60588 0.86056 0.0
H1185 H 0.20944 0.58312 0.91305 0.0
H1186 H 0.22745 0.60332 0.07803 0.0
H1187 H 0.24403 0.62638 0.02647 0.0
C1188 C 0.32268 0.64447 0.85081 0.0
C1189 C 0.33022 0.64257 0.90665 0.0
C1190 C 0.30452 0.64555 0.84452 0.0
C1191 C 0.29353 0.64533 0.89406 0.0
C1192 C 0.30111 0.64379 0.94998 0.0
C1193 C 0.31926 0.64228 0.95619 0.0
C1194 C 0.27414 0.64579 0.8874 0.0
C1195 C 0.26413 0.63303 0.91651 0.0
C1196 C 0.26557 0.65804 0.85061 0.0
C1197 C 0.2751 0.6727 0.82225 0.0
C1198 C 0.28543 0.68415 0.85589 0.0
C1199 C 0.29461 0.69776 0.82882 0.0
C1200 C 0.29347 0.70014 0.76818 0.0
C1201 C 0.28309 0.68895 0.73449 0.0
C1202 C 0.27389 0.67531 0.76133 0.0
C1203 C 0.18885 0.64549 0.9012 0.0
C1204 C 0.18188 0.64 0.84717 0.0
C1205 C 0.20695 0.64704 0.90862 0.0
C1206 C 0.21835 0.64338 0.86194 0.0
C1207 C 0.21145 0.63844 0.80745 0.0
C1208 C 0.19337 0.63659 0.80025 0.0
C1209 C 0.23752 0.64386 0.87085 0.0
C1210 C 0.24739 0.65672 0.84211 0.0
C1211 C 0.24595 0.63193 0.90874 0.0
C1212 C 0.23615 0.61797 0.9397 0.0
C1213 C 0.22639 0.60556 0.90804 0.0
C1214 C 0.21698 0.59259 0.93762 0.0
C1215 C 0.21734 0.59181 0.99885 0.0
C1216 C 0.22716 0.60396 0.03061 0.0
C1217 C 0.23657 0.61698 0.00124 0.0
H1218 H 0.21005 0.58176 0.02167 0.0
H1219 H 0.3006 0.71067 0.7473 0.0
H1220 H 0.62705 0.82958 0.04499 0.0
H1221 H 0.62691 0.79774 0.03952 0.0
H1222 H 0.63018 0.79481 0.22841 0.0
H1223 H 0.63142 0.82668 0.23359 0.0
H1224 H 0.65031 0.77195 0.18831 0.0
H1225 H 0.59103 0.78602 0.14635 0.0
H1226 H 0.56624 0.80066 0.09761 0.0
H1227 H 0.5815 0.77827 0.93262 0.0
H1228 H 0.60654 0.76365 0.98021 0.0
H1229 H 0.62368 0.68196 0.19811 0.0
H1230 H 0.62264 0.71384 0.2059 0.0
H1231 H 0.63868 0.71843 0.02515 0.0
H1232 H 0.64008 0.68653 0.01713 0.0
H1233 H 0.60794 0.73972 0.06389 0.0
H1234 H 0.66818 0.72543 0.11727 0.0
H1235 H 0.68999 0.7094 0.17627 0.0
H1236 H 0.66858 0.73144 0.33403 0.0
H1237 H 0.64649 0.7474 0.27603 0.0
C1238 C 0.6277 0.82213 0.0853 0.0
C1239 C 0.62927 0.83059 0.13968 0.0
C1240 C 0.62749 0.8039 0.08222 0.0
C1241 C 0.62822 0.79377 0.13363 0.0
C1242 C 0.62964 0.80227 0.18807 0.0
C1243 C 0.63031 0.82049 0.19103 0.0
C1244 C 0.62805 0.77435 0.13052 0.0
C1245 C 0.64085 0.76497 0.16168 0.0
C1246 C 0.61579 0.76508 0.09566 0.0
C1247 C 0.60077 0.77387 0.06677 0.0
C1248 C 0.58918 0.78432 0.09958 0.0
C1249 C 0.57507 0.7926 0.07218 0.0
C1250 C 0.57232 0.79043 0.01204 0.0
C1251 C 0.58366 0.77995 0.97919 0.0
C1252 C 0.5978 0.77165 0.00637 0.0
C1253 C 0.62702 0.68975 0.16003 0.0
C1254 C 0.63206 0.68176 0.10708 0.0
C1255 C 0.62641 0.70793 0.1646 0.0
C1256 C 0.63062 0.7184 0.11611 0.0
C1257 C 0.6354 0.7105 0.06297 0.0
C1258 C 0.63628 0.69232 0.05861 0.0
C1259 C 0.63021 0.73763 0.12109 0.0
C1260 C 0.61731 0.74687 0.0904 0.0
C1261 C 0.64199 0.74672 0.15776 0.0
C1262 C 0.65559 0.73748 0.19235 0.0
C1263 C 0.66806 0.72677 0.16456 0.0
C1264 C 0.68048 0.71771 0.19781 0.0
C1265 C 0.68062 0.71936 0.25886 0.0
C1266 C 0.66843 0.73016 0.28675 0.0
C1267 C 0.65597 0.73923 0.25371 0.0
H1268 H 0.69018 0.71229 0.28458 0.0
H1269 H 0.56138 0.79685 0.99092 0.0
H1270 H 0.82112 0.35023 0.78023 0.0
H1271 H 0.78933 0.34872 0.79169 0.0
H1272 H 0.79236 0.38243 0.94291 0.0
H1273 H 0.82425 0.3839 0.93212 0.0
H1274 H 0.77035 0.35499 0.9619 0.0
H1275 H 0.77897 0.39832 0.81278 0.0
H1276 H 0.79071 0.41002 0.71992 0.0
H1277 H 0.76339 0.37024 0.6237 0.0
H1278 H 0.75172 0.35812 0.71613 0.0
H1279 H 0.68034 0.37813 0.97979 0.0
H1280 H 0.71219 0.37799 0.971 0.0
H1281 H 0.70848 0.34587 0.81609 0.0
H1282 H 0.67653 0.34614 0.82395 0.0
H1283 H 0.73093 0.37218 0.79891 0.0
H1284 H 0.72217 0.32891 0.94806 0.0
H1285 H 0.71074 0.31702 0.04106 0.0
H1286 H 0.73836 0.35659 0.13724 0.0
H1287 H 0.74978 0.36887 0.0447 0.0
C1288 C 0.81506 0.35733 0.81599 0.0
C1289 C 0.82525 0.36726 0.85511 0.0
C1290 C 0.79685 0.3565 0.82235 0.0
C1291 C 0.78842 0.36561 0.8678 0.0
C1292 C 0.79858 0.37532 0.90745 0.0
C1293 C 0.8168 0.3762 0.90105 0.0
C1294 C 0.76902 0.36503 0.87379 0.0
C1295 C 0.76172 0.35896 0.92655 0.0
C1296 C 0.75776 0.36983 0.82718 0.0
C1297 C 0.76461 0.37721 0.77146 0.0
C1298 C 0.77557 0.39198 0.77186 0.0
C1299 C 0.7822 0.3987 0.7193 0.0
C1300 C 0.77783 0.39085 0.66595 0.0
C1301 C 0.76679 0.3763 0.66507 0.0
C1302 C 0.76015 0.3695 0.71753 0.0
C1303 C 0.68625 0.37089 0.94406 0.0
C1304 C 0.67579 0.3621 0.90265 0.0
C1305 C 0.70452 0.37079 0.93921 0.0
C1306 C 0.71279 0.36179 0.89317 0.0
C1307 C 0.70242 0.3529 0.85201 0.0
C1308 C 0.68413 0.35301 0.85675 0.0
C1309 C 0.73222 0.3621 0.88706 0.0
C1310 C 0.73954 0.36816 0.83426 0.0
C1311 C 0.7435 0.35729 0.93365 0.0
C1312 C 0.73669 0.34991 0.98939 0.0
C1313 C 0.7257 0.33516 0.989 0.0
C1314 C 0.71924 0.32834 0.04165 0.0
C1315 C 0.72378 0.33607 0.09502 0.0
C1316 C 0.73483 0.35062 0.09586 0.0
C1317 C 0.74132 0.35751 0.04333 0.0
H1318 H 0.71877 0.33076 0.13573 0.0
H1319 H 0.78298 0.39607 0.6253 0.0
H1320 H 0.86615 0.67432 0.74701 0.0
H1321 H 0.86474 0.70625 0.74336 0.0
H1322 H 0.85253 0.70398 0.55892 0.0
H1323 H 0.85368 0.67205 0.56218 0.0
H1324 H 0.88108 0.7263 0.58829 0.0
H1325 H 0.8215 0.71535 0.64737 0.0
H1326 H 0.79831 0.70277 0.70978 0.0
H1327 H 0.81858 0.73041 0.85889 0.0
H1328 H 0.84206 0.74296 0.7975 0.0
H1329 H 0.86331 0.81489 0.53408 0.0
H1330 H 0.86134 0.78324 0.54283 0.0
H1331 H 0.86413 0.78748 0.7313 0.0
H1332 H 0.86554 0.81932 0.72304 0.0
H1333 H 0.84054 0.76393 0.70239 0.0
H1334 H 0.89991 0.77468 0.64827 0.0
H1335 H 0.92418 0.78703 0.59007 0.0
H1336 H 0.90613 0.75946 0.43766 0.0
H1337 H 0.88159 0.74712 0.49477 0.0
C1338 C 0.86293 0.68059 0.7058 0.0
C1339 C 0.86006 0.67061 0.65484 0.0
C1340 C 0.86211 0.69883 0.70386 0.0
C1341 C 0.85854 0.70744 0.65087 0.0
C1342 C 0.85531 0.69755 0.60023 0.0
C1343 C 0.85589 0.6793 0.60227 0.0
C1344 C 0.85913 0.72677 0.64761 0.0
C1345 C 0.87205 0.73455 0.6125 0.0
C1346 C 0.84777 0.73747 0.68099 0.0
C1347 C 0.83365 0.72995 0.71795 0.0
C1348 C 0.82111 0.71862 0.69358 0.0
C1349 C 0.80789 0.71152 0.72874 0.0
C1350 C 0.807 0.71575 0.7883 0.0
C1351 C 0.8193 0.72712 0.81277 0.0
C1352 C 0.83256 0.73425 0.7778 0.0
C1353 C 0.86352 0.80915 0.57751 0.0
C1354 C 0.86473 0.8197 0.62788 0.0
C1355 C 0.86247 0.79099 0.5824 0.0
C1356 C 0.8629 0.78292 0.63768 0.0
C1357 C 0.86383 0.7934 0.68815 0.0
C1358 C 0.86472 0.81162 0.68333 0.0
C1359 C 0.86241 0.76354 0.64249 0.0
C1360 C 0.84957 0.75572 0.67806 0.0
C1361 C 0.87403 0.75277 0.61019 0.0
C1362 C 0.88881 0.76011 0.57569 0.0
C1363 C 0.90104 0.77135 0.60224 0.0
C1364 C 0.91485 0.77834 0.56946 0.0
C1365 C 0.91667 0.77407 0.51017 0.0
C1366 C 0.90469 0.76277 0.48358 0.0
C1367 C 0.89084 0.75576 0.51614 0.0
H1368 H 0.92737 0.77949 0.48486 0.0
H1369 H 0.79675 0.71024 0.81545 0.0
H1370 H 0.81763 0.11939 0.46171 0.0
H1371 H 0.78583 0.12041 0.45281 0.0
H1372 H 0.79057 0.15235 0.29771 0.0
H1373 H 0.8225 0.15162 0.30658 0.0
H1374 H 0.76453 0.16391 0.37053 0.0
H1375 H 0.78236 0.10942 0.28473 0.0
H1376 H 0.79773 0.08109 0.28235 0.0
H1377 H 0.76771 0.06348 0.4304 0.0
H1378 H 0.75233 0.09182 0.43421 0.0
H1379 H 0.67762 0.1513 0.26704 0.0
H1380 H 0.70949 0.15214 0.27649 0.0
H1381 H 0.70643 0.11864 0.42838 0.0
H1382 H 0.67458 0.1175 0.41877 0.0
H1383 H 0.73176 0.10809 0.35552 0.0
H1384 H 0.71405 0.1624 0.44232 0.0
H1385 H 0.69885 0.1908 0.44632 0.0
H1386 H 0.72858 0.20878 0.2981 0.0
H1387 H 0.74379 0.18038 0.29268 0.0
C1388 C 0.81197 0.12672 0.4258 0.0
C1389 C 0.82267 0.13532 0.3846 0.0
C1390 C 0.79376 0.12724 0.42071 0.0
C1391 C 0.78586 0.13624 0.37411 0.0
C1392 C 0.79643 0.14528 0.33389 0.0
C1393 C 0.81468 0.1448 0.33896 0.0
C1394 C 0.76658 0.13587 0.36683 0.0
C1395 C 0.75736 0.15173 0.36642 0.0
C1396 C 0.75724 0.11994 0.36274 0.0
C1397 C 0.76631 0.1028 0.36007 0.0
C1398 C 0.77912 0.09955 0.31703 0.0
C1399 C 0.78782 0.08348 0.31539 0.0
C1400 C 0.78373 0.07051 0.35629 0.0
C1401 C 0.77088 0.07355 0.39879 0.0
C1402 C 0.76216 0.08961 0.40068 0.0
C1403 C 0.68371 0.14414 0.30256 0.0
C1404 C 0.67355 0.13435 0.34221 0.0
C1405 C 0.70193 0.14469 0.30801 0.0
C1406 C 0.71032 0.1356 0.35352 0.0
C1407 C 0.70022 0.12575 0.39296 0.0
C1408 C 0.68201 0.12515 0.38745 0.0
C1409 C 0.72966 0.13613 0.35952 0.0
C1410 C 0.7389 0.12029 0.35958 0.0
C1411 C 0.739 0.15207 0.36341 0.0
C1412 C 0.72993 0.1692 0.36674 0.0
C1413 C 0.71725 0.17236 0.41029 0.0
C1414 C 0.70865 0.18847 0.41286 0.0
C1415 C 0.71271 0.20157 0.37239 0.0
C1416 C 0.72542 0.19861 0.32936 0.0
C1417 C 0.73405 0.18251 0.32655 0.0
H1418 H 0.70604 0.21403 0.37446 0.0
H1419 H 0.79049 0.05808 0.35497 0.0
H1420 H 0.14567 0.31903 0.56626 0.0
H1421 H 0.14821 0.28732 0.5566 0.0
H1422 H 0.14427 0.28176 0.74436 0.0
H1423 H 0.14157 0.31349 0.75456 0.0
H1424 H 0.17101 0.26051 0.6899 0.0
H1425 H 0.10948 0.27464 0.67056 0.0
H1426 H 0.08436 0.29036 0.62773 0.0
H1427 H 0.09693 0.26972 0.45766 0.0
H1428 H 0.1223 0.25409 0.49937 0.0
H1429 H 0.14847 0.17095 0.71601 0.0
H1430 H 0.15138 0.20265 0.72121 0.0
H1431 H 0.14257 0.20627 0.53457 0.0
H1432 H 0.13886 0.1746 0.52962 0.0
H1433 H 0.12357 0.22902 0.58546 0.0
H1434 H 0.18399 0.21366 0.60191 0.0
H1435 H 0.2097 0.19814 0.64141 0.0
H1436 H 0.20071 0.22101 0.81076 0.0
H1437 H 0.17478 0.23649 0.77249 0.0
C1438 C 0.14547 0.31111 0.60558 0.0
C1439 C 0.14332 0.3188 0.66117 0.0
C1440 C 0.14691 0.29299 0.59994 0.0
C1441 C 0.14636 0.28225 0.64977 0.0
C1442 C 0.14475 0.28987 0.70543 0.0
C1443 C 0.14311 0.30799 0.71109 0.0
C1444 C 0.1466 0.26301 0.64356 0.0
C1445 C 0.1606 0.25354 0.66756 0.0
C1446 C 0.13323 0.25407 0.61299 0.0
C1447 C 0.1179 0.26335 0.58797 0.0
C1448 C 0.10698 0.27358 0.62394 0.0
C1449 C 0.09268 0.28245 0.59989 0.0
C1450 C 0.08908 0.28108 0.53998 0.0
C1451 C 0.09975 0.27079 0.50404 0.0
C1452 C 0.11408 0.26192 0.52786 0.0
C1453 C 0.14738 0.17847 0.67595 0.0
C1454 C 0.1434 0.17026 0.62242 0.0
C1455 C 0.14913 0.19662 0.67891 0.0
C1456 C 0.1474 0.2069 0.62815 0.0
C1457 C 0.14393 0.19865 0.57437 0.0
C1458 C 0.14186 0.18054 0.57156 0.0
C1459 C 0.14806 0.22629 0.63171 0.0
C1460 C 0.13415 0.23586 0.60737 0.0
C1461 C 0.16165 0.2353 0.66134 0.0
C1462 C 0.17734 0.22613 0.68442 0.0
C1463 C 0.18742 0.2153 0.64768 0.0
C1464 C 0.20205 0.20651 0.66983 0.0
C1465 C 0.20681 0.20855 0.72859 0.0
C1466 C 0.19699 0.21943 0.76526 0.0
C1467 C 0.18234 0.22823 0.74334 0.0
H1468 H 0.21813 0.20172 0.74568 0.0
H1469 H 0.078 0.28795 0.52144 0.0
H1470 H 0.32563 0.87662 0.44048 0.0
H1471 H 0.29359 0.8763 0.44863 0.0
H1472 H 0.28956 0.86111 0.26714 0.0
H1473 H 0.32163 0.86083 0.25902 0.0
H1474 H 0.26729 0.89321 0.32003 0.0
H1475 H 0.28167 0.83105 0.33686 0.0
H1476 H 0.29797 0.80656 0.3811 0.0
H1477 H 0.27783 0.82013 0.55107 0.0
H1478 H 0.26162 0.84489 0.50786 0.0
H1479 H 0.17692 0.87571 0.29737 0.0
H1480 H 0.20879 0.87507 0.28869 0.0
H1481 H 0.21298 0.86259 0.47284 0.0
H1482 H 0.18101 0.86226 0.48079 0.0
H1483 H 0.23594 0.84486 0.4203 0.0
H1484 H 0.22108 0.90515 0.41247 0.0
H1485 H 0.20578 0.93166 0.37856 0.0
H1486 H 0.22756 0.92495 0.20626 0.0
H1487 H 0.2428 0.89824 0.23892 0.0
C1488 C 0.31794 0.87318 0.40231 0.0
C1489 C 0.32616 0.86867 0.34915 0.0
C1490 C 0.29965 0.873 0.40708 0.0
C1491 C 0.28927 0.86868 0.3585 0.0
C1492 C 0.29739 0.86447 0.3051 0.0
C1493 C 0.31569 0.86425 0.30064 0.0
C1494 C 0.26992 0.86846 0.36369 0.0
C1495 C 0.26034 0.88256 0.34114 0.0
C1496 C 0.26103 0.85491 0.39343 0.0
C1497 C 0.27061 0.83993 0.41924 0.0
C1498 C 0.28086 0.82891 0.38374 0.0
C1499 C 0.29005 0.81496 0.40861 0.0
C1500 C 0.28898 0.81182 0.46889 0.0
C1501 C 0.27867 0.82259 0.5044 0.0
C1502 C 0.26947 0.83658 0.47974 0.0
C1503 C 0.18464 0.87278 0.33597 0.0
C1504 C 0.17644 0.86908 0.38979 0.0
C1505 C 0.20291 0.87255 0.3311 0.0
C1506 C 0.21345 0.86917 0.38039 0.0
C1507 C 0.20523 0.86526 0.43409 0.0
C1508 C 0.18693 0.86511 0.43865 0.0
C1509 C 0.23298 0.86959 0.37583 0.0
C1510 C 0.24271 0.85557 0.39887 0.0
C1511 C 0.24204 0.8835 0.34784 0.0
C1512 C 0.23294 0.89959 0.32801 0.0
C1513 C 0.22251 0.90925 0.36723 0.0
C1514 C 0.21386 0.92433 0.34826 0.0
C1515 C 0.21566 0.92996 0.29026 0.0
C1516 C 0.22615 0.92055 0.25115 0.0
C1517 C 0.23481 0.90545 0.26989 0.0
H1518 H 0.20896 0.94163 0.27564 0.0
H1519 H 0.2961 0.80101 0.48807 0.0
H1520 H 0.19203 0.13096 0.81273 0.0
H1521 H 0.21823 0.1318 0.87393 0.0
H1522 H 0.23493 0.08235 0.80213 0.0
H1523 H 0.20847 0.08118 0.74185 0.0
H1524 H 0.23854 0.08247 0.91758 0.0
H1525 H 0.25392 0.1221 0.76076 0.0
H1526 H 0.24935 0.1476 0.69638 0.0
H1527 H 0.24911 0.18153 0.84636 0.0
H1528 H 0.2535 0.15619 0.91172 0.0
H1529 H 0.32754 0.0811 0.99695 0.0
H1530 H 0.2993 0.08185 0.94773 0.0
H1531 H 0.28735 0.13102 0.0312 0.0
H1532 H 0.31597 0.13058 0.07993 0.0
H1533 H 0.28008 0.13232 0.91674 0.0
H1534 H 0.26662 0.09307 0.07316 0.0
H1535 H 0.2709 0.06764 0.13803 0.0
H1536 H 0.26715 0.03314 0.99008 0.0
H1537 H 0.26309 0.05837 0.92418 0.0
C1538 C 0.20134 0.12031 0.80957 0.0
C1539 C 0.19819 0.10601 0.77226 0.0
C1540 C 0.21635 0.12084 0.84454 0.0
C1541 C 0.22866 0.10723 0.84222 0.0
C1542 C 0.2256 0.093 0.80469 0.0
C1543 C 0.21051 0.09238 0.77008 0.0
C1544 C 0.24452 0.10758 0.87986 0.0
C1545 C 0.24774 0.09328 0.91687 0.0
C1546 C 0.2562 0.12196 0.8805 0.0
C1547 C 0.25387 0.13723 0.84116 0.0
C1548 C 0.2528 0.13499 0.78003 0.0
C1549 C 0.25026 0.14941 0.74337 0.0
C1550 C 0.24889 0.16617 0.76728 0.0
C1551 C 0.25015 0.16854 0.8279 0.0
C1552 C 0.25269 0.15416 0.86477 0.0
C1553 C 0.31886 0.09201 0.00553 0.0
C1554 C 0.32402 0.10578 0.0425 0.0
C1555 C 0.30265 0.09237 0.97744 0.0
C1556 C 0.2911 0.1064 0.9862 0.0
C1557 C 0.29605 0.12005 0.02389 0.0
C1558 C 0.31236 0.11973 0.05195 0.0
C1559 C 0.27426 0.10706 0.95371 0.0
C1560 C 0.27083 0.12156 0.91775 0.0
C1561 C 0.26236 0.09287 0.95408 0.0
C1562 C 0.26468 0.07764 0.99367 0.0
C1563 C 0.26683 0.08007 0.05439 0.0
C1564 C 0.26919 0.06569 0.09136 0.0
C1565 C 0.26933 0.04879 0.06818 0.0
C1566 C 0.26705 0.04624 0.00798 0.0
C1567 C 0.26469 0.06057 0.97081 0.0
H1568 H 0.27117 0.03767 0.09687 0.0
H1569 H 0.24688 0.17731 0.73884 0.0
H1570 H 0.08867 0.70701 0.96732 0.0
H1571 H 0.08902 0.73399 0.02487 0.0
H1572 H 0.14415 0.72699 0.05868 0.0
H1573 H 0.14396 0.70005 0.00062 0.0
H1574 H 0.1242 0.73309 0.16006 0.0
H1575 H 0.13271 0.75833 0.97049 0.0
H1576 H 0.12667 0.76401 0.866 0.0
H1577 H 0.07612 0.78474 0.9106 0.0
H1578 H 0.08174 0.77893 0.01536 0.0
H1579 H 0.13656 0.81733 0.29255 0.0
H1580 H 0.13835 0.79031 0.23554 0.0
H1581 H 0.08492 0.79737 0.1788 0.0
H1582 H 0.0831 0.82446 0.23494 0.0
H1583 H 0.1057 0.79135 0.08769 0.0
H1584 H 0.09652 0.76524 0.27649 0.0
H1585 H 0.10213 0.75918 0.38101 0.0
H1586 H 0.15338 0.73983 0.33835 0.0
H1587 H 0.14818 0.74604 0.2336 0.0
C1588 C 0.10092 0.71133 0.98633 0.0
C1589 C 0.11628 0.70141 0.9794 0.0
C1590 C 0.10111 0.72676 0.01909 0.0
C1591 C 0.11662 0.73248 0.04595 0.0
C1592 C 0.13205 0.72279 0.03826 0.0
C1593 C 0.13193 0.70746 0.00481 0.0
C1594 C 0.11643 0.74808 0.08451 0.0
C1595 C 0.12044 0.74592 0.14416 0.0
C1596 C 0.1111 0.76467 0.06386 0.0
C1597 C 0.10757 0.76799 0.00079 0.0
C1598 C 0.12022 0.76391 0.958 0.0
C1599 C 0.11689 0.76719 0.89872 0.0
C1600 C 0.10099 0.77465 0.88167 0.0
C1601 C 0.08841 0.77891 0.92388 0.0
C1602 C 0.09167 0.77564 0.98322 0.0
C1603 C 0.12508 0.81296 0.26884 0.0
C1604 C 0.1097 0.82309 0.26812 0.0
C1605 C 0.12612 0.7975 0.23625 0.0
C1606 C 0.11177 0.79181 0.2028 0.0
C1607 C 0.09619 0.80155 0.20398 0.0
C1608 C 0.09516 0.81701 0.23634 0.0
C1609 C 0.11325 0.77636 0.16363 0.0
C1610 C 0.10951 0.77855 0.10373 0.0
C1611 C 0.11877 0.75979 0.18414 0.0
C1612 C 0.12203 0.75631 0.24724 0.0
C1613 C 0.10906 0.75988 0.28945 0.0
C1614 C 0.11215 0.75638 0.34873 0.0
C1615 C 0.12812 0.74917 0.36633 0.0
C1616 C 0.14103 0.74545 0.32467 0.0
C1617 C 0.13802 0.74895 0.26534 0.0
H1618 H 0.13047 0.74643 0.41223 0.0
H1619 H 0.09843 0.77716 0.83576 0.0
H1620 H 0.68389 0.86694 0.02072 0.0
H1621 H 0.71239 0.8654 0.97192 0.0
H1622 H 0.71291 0.92157 0.95507 0.0
H1623 H 0.68411 0.92307 0.00151 0.0
H1624 H 0.72288 0.90875 0.85801 0.0
H1625 H 0.73943 0.89734 0.05732 0.0
H1626 H 0.73857 0.88237 0.15309 0.0
H1627 H 0.75262 0.83396 0.07028 0.0
H1628 H 0.75334 0.8486 0.97387 0.0
H1629 H 0.81413 0.91821 0.79193 0.0
H1630 H 0.78554 0.91874 0.84076 0.0
H1631 H 0.78108 0.86296 0.81919 0.0
H1632 H 0.80957 0.86233 0.76958 0.0
H1633 H 0.77337 0.8749 0.93427 0.0
H1634 H 0.7576 0.88784 0.73448 0.0
H1635 H 0.75912 0.90398 0.641 0.0
H1636 H 0.74443 0.95132 0.72934 0.0
H1637 H 0.74308 0.93551 0.82355 0.0
C1638 C 0.69021 0.87897 0.00736 0.0
C1639 C 0.68178 0.89514 0.01534 0.0
C1640 C 0.70656 0.87809 0.97951 0.0
C1641 C 0.71503 0.89339 0.9603 0.0
C1642 C 0.70672 0.90956 0.96929 0.0
C1643 C 0.69026 0.91042 0.9962 0.0
C1644 C 0.73221 0.89259 0.9289 0.0
C1645 C 0.73396 0.90155 0.87535 0.0
C1646 C 0.74667 0.88286 0.95038 0.0
C1647 C 0.74626 0.87404 0.00831 0.0
C1648 C 0.74221 0.88348 0.05948 0.0
C1649 C 0.74177 0.87506 0.11389 0.0
C1650 C 0.74549 0.85722 0.11775 0.0
C1651 C 0.74972 0.84777 0.06722 0.0
C1652 C 0.75016 0.85613 0.01269 0.0
C1653 C 0.80701 0.90606 0.79711 0.0
C1654 C 0.81409 0.89024 0.77647 0.0
C1655 C 0.79066 0.9064 0.82499 0.0
C1656 C 0.78114 0.8909 0.83337 0.0
C1657 C 0.78819 0.87507 0.81308 0.0
C1658 C 0.80443 0.87476 0.78443 0.0
C1659 C 0.76395 0.89119 0.86414 0.0
C1660 C 0.76222 0.88211 0.91732 0.0
C1661 C 0.7496 0.901 0.84282 0.0
C1662 C 0.75043 0.91052 0.78619 0.0
C1663 C 0.75486 0.90173 0.73408 0.0
C1664 C 0.75566 0.91081 0.68094 0.0
C1665 C 0.75193 0.92868 0.67926 0.0
C1666 C 0.74735 0.93749 0.73071 0.0
C1667 C 0.74655 0.92847 0.78399 0.0
H1668 H 0.75254 0.93568 0.63806 0.0
H1669 H 0.74515 0.85072 0.15991 0.0
H1670 H 0.86214 0.31626 0.93534 0.0
H1671 H 0.85978 0.28733 0.98045 0.0
H1672 H 0.91593 0.28532 0.99962 0.0
H1673 H 0.91842 0.3143 0.95493 0.0
H1674 H 0.8995 0.25249 0.96591 0.0
H1675 H 0.89254 0.30053 0.10416 0.0
H1676 H 0.87768 0.3273 0.13776 0.0
H1677 H 0.82958 0.2989 0.15817 0.0
H1678 H 0.84387 0.27216 0.12136 0.0
H1679 H 0.91417 0.19227 0.1927 0.0
H1680 H 0.91326 0.21803 0.12987 0.0
H1681 H 0.85753 0.22235 0.15835 0.0
H1682 H 0.85845 0.19675 0.22282 0.0
H1683 H 0.87112 0.25323 0.16189 0.0
H1684 H 0.87485 0.20628 0.02793 0.0
H1685 H 0.88577 0.17912 0.9826 0.0
H1686 H 0.93525 0.20371 0.94773 0.0
H1687 H 0.92473 0.23095 0.99367 0.0
C1688 C 0.87402 0.30951 0.94794 0.0
C1689 C 0.89047 0.31765 0.9421 0.0
C1690 C 0.87264 0.29299 0.97381 0.0
C1691 C 0.88766 0.28429 0.99393 0.0
C1692 C 0.90417 0.29184 0.98445 0.0
C1693 C 0.90556 0.30843 0.95913 0.0
C1694 C 0.88614 0.26823 0.03001 0.0
C1695 C 0.89344 0.25262 0.00898 0.0
C1696 C 0.87761 0.26834 0.08524 0.0
C1697 C 0.86924 0.28435 0.10926 0.0
C1698 C 0.87875 0.30001 0.11519 0.0
C1699 C 0.87043 0.31519 0.13485 0.0
C1700 C 0.85273 0.31478 0.15048 0.0
C1701 C 0.84329 0.2992 0.14607 0.0
C1702 C 0.85147 0.28405 0.12547 0.0
C1703 C 0.90171 0.19872 0.18582 0.0
C1704 C 0.88637 0.19241 0.21268 0.0
C1705 C 0.90119 0.2134 0.14944 0.0
C1706 C 0.88527 0.22196 0.13823 0.0
C1707 C 0.86997 0.21593 0.16602 0.0
C1708 C 0.87051 0.2013 0.20295 0.0
C1709 C 0.88474 0.23738 0.09835 0.0
C1710 C 0.87708 0.25294 0.11869 0.0
C1711 C 0.89252 0.23709 0.04179 0.0
C1712 C 0.89904 0.22064 0.01479 0.0
C1713 C 0.88812 0.20586 0.01113 0.0
C1714 C 0.89423 0.19045 0.98521 0.0
C1715 C 0.9112 0.18968 0.96238 0.0
C1716 C 0.92211 0.20432 0.96547 0.0
C1717 C 0.91608 0.21975 0.99142 0.0
H1718 H 0.91589 0.17776 0.94219 0.0
H1719 H 0.84632 0.3265 0.16601 0.0
H1720 H 0.32064 0.35436 0.2349 0.0
H1721 H 0.29283 0.35342 0.28846 0.0
H1722 H 0.28988 0.40971 0.28237 0.0
H1723 H 0.31797 0.4107 0.23114 0.0
H1724 H 0.28233 0.39993 0.38629 0.0
H1725 H 0.26325 0.38117 0.19579 0.0
H1726 H 0.26312 0.36293 0.10662 0.0
H1727 H 0.25184 0.31748 0.21045 0.0
H1728 H 0.25213 0.33541 0.30038 0.0
H1729 H 0.19203 0.4111 0.4576 0.0
H1730 H 0.21989 0.40951 0.40453 0.0
H1731 H 0.22548 0.3555 0.45468 0.0
H1732 H 0.19771 0.35703 0.50868 0.0
H1733 H 0.23181 0.36253 0.33224 0.0
H1734 H 0.24992 0.38269 0.52234 0.0
H1735 H 0.2491 0.40189 0.60915 0.0
H1736 H 0.26109 0.44626 0.50097 0.0
H1737 H 0.26174 0.42734 0.41335 0.0
C1738 C 0.3139 0.36651 0.24418 0.0
C1739 C 0.32144 0.38261 0.2285 0.0
C1740 C 0.29797 0.36596 0.27481 0.0
C1741 C 0.28907 0.38149 0.28915 0.0
C1742 C 0.29645 0.39754 0.27215 0.0
C1743 C 0.31248 0.3981 0.24251 0.0
C1744 C 0.27247 0.38121 0.32383 0.0
C1745 C 0.27122 0.39193 0.37373 0.0
C1746 C 0.25804 0.37042 0.30884 0.0
C1747 C 0.25791 0.3596 0.25487 0.0
C1748 C 0.26089 0.36726 0.19966 0.0
C1749 C 0.26076 0.35698 0.14897 0.0
C1750 C 0.25753 0.33905 0.15289 0.0
C1751 C 0.25438 0.33136 0.2075 0.0
C1752 C 0.25451 0.34158 0.25833 0.0
C1753 C 0.19924 0.39891 0.45771 0.0
C1754 C 0.19272 0.38423 0.48778 0.0
C1755 C 0.21515 0.39803 0.42736 0.0
C1756 C 0.22479 0.38241 0.42592 0.0
C1757 C 0.21826 0.36768 0.45535 0.0
C1758 C 0.20245 0.36862 0.48648 0.0
C1759 C 0.24166 0.38153 0.39343 0.0
C1760 C 0.24295 0.37054 0.34435 0.0
C1761 C 0.25605 0.39224 0.4086 0.0
C1762 C 0.2557 0.40363 0.46122 0.0
C1763 C 0.25222 0.39657 0.51699 0.0
C1764 C 0.25182 0.40739 0.56636 0.0
C1765 C 0.25499 0.42529 0.56056 0.0
C1766 C 0.25862 0.43239 0.50539 0.0
C1767 C 0.25902 0.42162 0.45587 0.0
H1768 H 0.25468 0.43365 0.59884 0.0
H1769 H 0.25743 0.33111 0.11359 0.0
H1770 H 0.39476 0.70504 0.78604 0.0
H1771 H 0.39739 0.73228 0.73059 0.0
H1772 H 0.35345 0.71722 0.62309 0.0
H1773 H 0.35079 0.68992 0.67796 0.0
H1774 H 0.38033 0.72878 0.55683 0.0
H1775 H 0.34886 0.74873 0.7251 0.0
H1776 H 0.34277 0.75274 0.83046 0.0
H1777 H 0.39106 0.78088 0.85049 0.0
H1778 H 0.39756 0.77683 0.74536 0.0
H1779 H 0.36768 0.81335 0.42553 0.0
H1780 H 0.36415 0.78551 0.47734 0.0
H1781 H 0.4094 0.79721 0.58334 0.0
H1782 H 0.41308 0.82492 0.53191 0.0
H1783 H 0.38082 0.78742 0.64945 0.0
H1784 H 0.4123 0.7668 0.48042 0.0
H1785 H 0.41793 0.76282 0.37474 0.0
H1786 H 0.36877 0.73616 0.3559 0.0
H1787 H 0.36272 0.74021 0.4614 0.0
C1788 C 0.38555 0.70759 0.75094 0.0
C1789 C 0.37257 0.69529 0.73644 0.0
C1790 C 0.38705 0.72319 0.71936 0.0
C1791 C 0.37556 0.72682 0.67283 0.0
C1792 C 0.36247 0.71467 0.65873 0.0
C1793 C 0.36093 0.6991 0.69035 0.0
C1794 C 0.37754 0.74306 0.63777 0.0
C1795 C 0.38017 0.74162 0.57696 0.0
C1796 C 0.37767 0.7598 0.66418 0.0
C1797 C 0.37379 0.7623 0.72745 0.0
C1798 C 0.35826 0.75564 0.75206 0.0
C1799 C 0.35471 0.75795 0.81173 0.0
C1800 C 0.36654 0.767 0.84719 0.0
C1801 C 0.38191 0.77384 0.823 0.0
C1802 C 0.38553 0.77156 0.76335 0.0
C1803 C 0.37703 0.80987 0.45925 0.0
C1804 C 0.39065 0.82138 0.4746 0.0
C1805 C 0.37499 0.79397 0.48882 0.0
C1806 C 0.3865 0.78932 0.53426 0.0
C1807 C 0.40034 0.80058 0.54858 0.0
C1808 C 0.40247 0.81638 0.51885 0.0
C1809 C 0.38374 0.77311 0.56869 0.0
C1810 C 0.38094 0.77457 0.62936 0.0
C1811 C 0.38338 0.75642 0.54212 0.0
C1812 C 0.38697 0.75398 0.47868 0.0
C1813 C 0.40261 0.76024 0.45364 0.0
C1814 C 0.4059 0.75794 0.3938 0.0
C1815 C 0.39369 0.74929 0.35859 0.0
C1816 C 0.37819 0.74289 0.3832 0.0
C1817 C 0.37484 0.74517 0.44303 0.0
H1818 H 0.39626 0.74752 0.31227 0.0
H1819 H 0.36377 0.76873 0.89339 0.0
H1820 H 0.67681 0.63676 0.27233 0.0
H1821 H 0.70458 0.63421 0.32479 0.0
H1822 H 0.72978 0.61609 0.16669 0.0
H1823 H 0.70198 0.61884 0.11338 0.0
H1824 H 0.73599 0.59503 0.26859 0.0
H1825 H 0.73892 0.65495 0.20841 0.0
H1826 H 0.72837 0.6852 0.19707 0.0
H1827 H 0.72508 0.69062 0.38421 0.0
H1828 H 0.73534 0.66027 0.3967 0.0
H1829 H 0.82257 0.59691 0.37941 0.0
H1830 H 0.79608 0.60076 0.32116 0.0
H1831 H 0.77182 0.62853 0.4646 0.0
H1832 H 0.79859 0.62521 0.52257 0.0
H1833 H 0.7654 0.64491 0.36658 0.0
H1834 H 0.76094 0.58526 0.42858 0.0
H1835 H 0.77079 0.55486 0.44255 0.0
H1836 H 0.77581 0.54855 0.25612 0.0
H1837 H 0.7662 0.57901 0.24106 0.0
C1838 C 0.68828 0.63233 0.24853 0.0
C1839 C 0.68722 0.62798 0.18868 0.0
C1840 C 0.70414 0.63094 0.27857 0.0
C1841 C 0.71922 0.62502 0.24954 0.0
C1842 C 0.71826 0.62071 0.18977 0.0
C1843 C 0.70242 0.62235 0.15937 0.0
C1844 C 0.7358 0.62284 0.28245 0.0
C1845 C 0.74262 0.60595 0.28925 0.0
C1846 C 0.74406 0.63704 0.31081 0.0
C1847 C 0.73776 0.65527 0.30346 0.0
C1848 C 0.73578 0.66252 0.24715 0.0
C1849 C 0.72988 0.6797 0.24051 0.0
C1850 C 0.72605 0.68982 0.28988 0.0
C1851 C 0.72806 0.68276 0.34601 0.0
C1852 C 0.73392 0.66557 0.35289 0.0
C1853 C 0.81156 0.60372 0.39882 0.0
C1854 C 0.81265 0.61067 0.4558 0.0
C1855 C 0.79638 0.60587 0.36545 0.0
C1856 C 0.78182 0.61472 0.3887 0.0
C1857 C 0.78287 0.62164 0.44568 0.0
C1858 C 0.79815 0.61967 0.47888 0.0
C1859 C 0.76565 0.61703 0.35315 0.0
C1860 C 0.75885 0.63395 0.34587 0.0
C1861 C 0.75729 0.60281 0.32484 0.0
C1862 C 0.76302 0.58447 0.33374 0.0
C1863 C 0.76427 0.57743 0.39059 0.0
C1864 C 0.76979 0.56019 0.3987 0.0
C1865 C 0.77397 0.5498 0.35026 0.0
C1866 C 0.77259 0.55662 0.2936 0.0
C1867 C 0.76709 0.57387 0.28525 0.0
H1868 H 0.77824 0.53645 0.35663 0.0
H1869 H 0.72161 0.70315 0.28465 0.0
H1870 H 0.58139 0.18689 0.45554 0.0
H1871 H 0.58301 0.21473 0.50813 0.0
H1872 H 0.63935 0.2109 0.51211 0.0
H1873 H 0.63787 0.18315 0.45878 0.0
H1874 H 0.62331 0.21674 0.6234 0.0
H1875 H 0.62279 0.24048 0.42873 0.0
H1876 H 0.61173 0.24439 0.32803 0.0
H1877 H 0.56275 0.26328 0.39572 0.0
H1878 H 0.57342 0.25923 0.49691 0.0
H1879 H 0.63767 0.30055 0.75037 0.0
H1880 H 0.63832 0.27432 0.68919 0.0
H1881 H 0.58329 0.28066 0.65178 0.0
H1882 H 0.58265 0.30712 0.7116 0.0
H1883 H 0.60006 0.27369 0.55468 0.0
H1884 H 0.59891 0.24878 0.74732 0.0
H1885 H 0.60852 0.24405 0.84931 0.0
H1886 H 0.65871 0.22644 0.78791 0.0
H1887 H 0.64947 0.2313 0.6855 0.0
C1888 C 0.59414 0.19212 0.46671 0.0
C1889 C 0.60949 0.18284 0.45301 0.0
C1890 C 0.59504 0.20802 0.49669 0.0
C1891 C 0.6113 0.21483 0.51401 0.0
C1892 C 0.62669 0.20584 0.49909 0.0
C1893 C 0.62581 0.19006 0.4683 0.0
C1894 C 0.61209 0.23078 0.55074 0.0
C1895 C 0.61852 0.22929 0.60815 0.0
C1896 C 0.60532 0.24695 0.53126 0.0
C1897 C 0.59886 0.24939 0.47044 0.0
C1898 C 0.6096 0.24531 0.42218 0.0
C1899 C 0.60341 0.24759 0.36499 0.0
C1900 C 0.58653 0.25404 0.35548 0.0
C1901 C 0.57581 0.25826 0.40315 0.0
C1902 C 0.58194 0.256 0.46044 0.0
C1903 C 0.62567 0.29626 0.72958 0.0
C1904 C 0.6101 0.3059 0.73593 0.0
C1905 C 0.62605 0.28124 0.69467 0.0
C1906 C 0.61082 0.27541 0.66615 0.0
C1907 C 0.59522 0.28491 0.67315 0.0
C1908 C 0.59486 0.3 0.7076 0.0
C1909 C 0.61119 0.2597 0.6278 0.0
C1910 C 0.60496 0.2612 0.57003 0.0
C1911 C 0.61794 0.24346 0.64723 0.0
C1912 C 0.62356 0.24059 0.70877 0.0
C1913 C 0.61205 0.24405 0.75558 0.0
C1914 C 0.61742 0.24132 0.81346 0.0
C1915 C 0.63423 0.235 0.82509 0.0
C1916 C 0.6457 0.23137 0.77884 0.0
C1917 C 0.6404 0.2341 0.72086 0.0
H1918 H 0.63836 0.23288 0.86993 0.0
H1919 H 0.58177 0.25579 0.31117 0.0
H1920 H 0.38512 0.08938 0.44304 0.0
H1921 H 0.38644 0.0926 0.54948 0.0
H1922 H 0.36068 0.14262 0.53658 0.0
H1923 H 0.35947 0.13958 0.42974 0.0
H1924 H 0.38875 0.1441 0.60896 0.0
H1925 H 0.33858 0.10714 0.58558 0.0
H1926 H 0.3221 0.08158 0.54978 0.0
H1927 H 0.35727 0.04728 0.64105 0.0
H1928 H 0.37411 0.07265 0.67676 0.0
H1929 H 0.36626 0.15447 0.90926 0.0
H1930 H 0.36668 0.15141 0.80281 0.0
H1931 H 0.39172 0.10113 0.81957 0.0
H1932 H 0.39109 0.10396 0.92658 0.0
H1933 H 0.36455 0.09962 0.74512 0.0
H1934 H 0.41446 0.13687 0.77003 0.0
H1935 H 0.4305 0.16261 0.80663 0.0
H1936 H 0.3955 0.19654 0.71311 0.0
H1937 H 0.3791 0.171 0.67652 0.0
C1938 C 0.37962 0.10103 0.46277 0.0
C1939 C 0.37214 0.11421 0.42784 0.0
C1940 C 0.38035 0.10283 0.52372 0.0
C1941 C 0.37355 0.11779 0.55108 0.0
C1942 C 0.36601 0.13096 0.51638 0.0
C1943 C 0.36525 0.12916 0.45536 0.0
C1944 C 0.37461 0.11983 0.61579 0.0
C1945 C 0.38326 0.13449 0.63877 0.0
C1946 C 0.36783 0.10708 0.65466 0.0
C1947 C 0.35771 0.09179 0.63335 0.0
C1948 C 0.34289 0.09415 0.59762 0.0
C1949 C 0.33346 0.07969 0.57742 0.0
C1950 C 0.33866 0.06281 0.593 0.0
C1951 C 0.35327 0.06036 0.62895 0.0
C1952 C 0.36275 0.07477 0.64922 0.0
C1953 C 0.37204 0.14282 0.89042 0.0
C1954 C 0.37864 0.12944 0.92649 0.0
C1955 C 0.37232 0.14113 0.82942 0.0
C1956 C 0.37934 0.12609 0.8031 0.0
C1957 C 0.38625 0.11285 0.83894 0.0
C1958 C 0.38596 0.11453 0.90007 0.0
C1959 C 0.37871 0.12389 0.73837 0.0
C1960 C 0.37011 0.1092 0.71535 0.0
C1961 C 0.38552 0.13663 0.69949 0.0
C1962 C 0.39546 0.15202 0.72095 0.0
C1963 C 0.41011 0.14983 0.75759 0.0
C1964 C 0.41928 0.16438 0.77828 0.0
C1965 C 0.414 0.1812 0.76233 0.0
C1966 C 0.39957 0.1835 0.72548 0.0
C1967 C 0.39034 0.16899 0.70468 0.0
H1968 H 0.42111 0.19245 0.77842 0.0
H1969 H 0.33135 0.05164 0.57732 0.0
H1970 H 0.14713 0.6356 0.58432 0.0
H1971 H 0.14835 0.63935 0.47802 0.0
H1972 H 0.1045 0.60431 0.45807 0.0
H1973 H 0.10327 0.60034 0.56447 0.0
H1974 H 0.13027 0.59695 0.38043 0.0
H1975 H 0.09879 0.64744 0.44264 0.0
H1976 H 0.09277 0.67408 0.49995 0.0
H1977 H 0.13921 0.6981 0.43046 0.0
H1978 H 0.1457 0.67146 0.37357 0.0
H1979 H 0.11544 0.62116 0.0789 0.0
H1980 H 0.11223 0.61506 0.18392 0.0
H1981 H 0.15715 0.64743 0.22058 0.0
H1982 H 0.16047 0.65359 0.11622 0.0
H1983 H 0.12862 0.65573 0.28878 0.0
H1984 H 0.16059 0.60425 0.23048 0.0
H1985 H 0.16594 0.57767 0.17204 0.0
H1986 H 0.11742 0.55577 0.23294 0.0
H1987 H 0.11166 0.58235 0.29113 0.0
C1988 C 0.13771 0.62872 0.5574 0.0
C1989 C 0.12508 0.6177 0.58286 0.0
C1990 C 0.13838 0.63093 0.49666 0.0
C1991 C 0.1264 0.62224 0.46024 0.0
C1992 C 0.11385 0.61115 0.48544 0.0
C1993 C 0.11314 0.60894 0.54625 0.0
C1994 C 0.1272 0.62457 0.39579 0.0
C1995 C 0.12963 0.60978 0.36027 0.0
C1996 C 0.12661 0.64134 0.36968 0.0
C1997 C 0.12283 0.65736 0.40427 0.0
C1998 C 0.10783 0.65832 0.44004 0.0
C1999 C 0.10431 0.67344 0.47239 0.0
C2000 C 0.11563 0.68776 0.46898 0.0
C2001 C 0.13047 0.68699 0.43316 0.0
C2002 C 0.13408 0.67188 0.40084 0.0
C2003 C 0.12475 0.62681 0.10929 0.0
C2004 C 0.13817 0.6379 0.08926 0.0
C2005 C 0.1229 0.62329 0.16921 0.0
C2006 C 0.13445 0.63082 0.20989 0.0
C2007 C 0.14807 0.64156 0.18984 0.0
C2008 C 0.14997 0.645 0.13012 0.0
C2009 C 0.13199 0.62816 0.27367 0.0
C2010 C 0.12918 0.64291 0.30901 0.0
C2011 C 0.13214 0.61137 0.2995 0.0
C2012 C 0.1356 0.59537 0.26463 0.0
C2013 C 0.15098 0.59384 0.23099 0.0
C2014 C 0.15411 0.57876 0.198 0.0
C2015 C 0.142 0.56506 0.19863 0.0
C2016 C 0.12677 0.5664 0.2324 0.0
C2017 C 0.12358 0.58147 0.26543 0.0
H2018 H 0.14444 0.5534 0.17307 0.0
H2019 H 0.11287 0.69946 0.49397 0.0
H2020 H 0.63964 0.86387 0.40084 0.0
H2021 H 0.63849 0.8614 0.50755 0.0
H2022 H 0.63121 0.91711 0.52193 0.0
H2023 H 0.63234 0.91975 0.41489 0.0
H2024 H 0.65444 0.90275 0.60736 0.0
H2025 H 0.59675 0.89318 0.52892 0.0
H2026 H 0.57545 0.87938 0.46215 0.0
H2027 H 0.58731 0.82906 0.53532 0.0
H2028 H 0.60894 0.84252 0.60178 0.0
H2029 H 0.62077 0.90331 0.89751 0.0
H2030 H 0.62198 0.90728 0.79103 0.0
H2031 H 0.62933 0.85182 0.76824 0.0
H2032 H 0.62829 0.84773 0.87465 0.0
H2033 H 0.60573 0.86685 0.6872 0.0
H2034 H 0.66356 0.87571 0.7637 0.0
H2035 H 0.68563 0.8888 0.8293 0.0
H2036 H 0.67418 0.93966 0.75973 0.0
H2037 H 0.65179 0.92692 0.69445 0.0
C2038 C 0.63802 0.87565 0.42661 0.0
C2039 C 0.63592 0.892 0.39938 0.0
C2040 C 0.63734 0.87419 0.48757 0.0
C2041 C 0.63456 0.88905 0.52239 0.0
C2042 C 0.63333 0.9055 0.49566 0.0
C2043 C 0.63391 0.90697 0.43455 0.0
C2044 C 0.63181 0.88717 0.5863 0.0
C2045 C 0.64366 0.89513 0.62494 0.0
C2046 C 0.61791 0.87693 0.60889 0.0
C2047 C 0.60459 0.86884 0.56997 0.0
C2048 C 0.5949 0.87915 0.53051 0.0
C2049 C 0.58277 0.8714 0.49273 0.0
C2050 C 0.58006 0.85335 0.49439 0.0
C2051 C 0.58944 0.84304 0.53402 0.0
C2052 C 0.60163 0.85072 0.57179 0.0
C2053 C 0.62236 0.89193 0.8698 0.0
C2054 C 0.62453 0.87521 0.89436 0.0
C2055 C 0.62313 0.89423 0.80908 0.0
C2056 C 0.62593 0.87985 0.77205 0.0
C2057 C 0.62721 0.86306 0.79623 0.0
C2058 C 0.62665 0.86077 0.85696 0.0
C2059 C 0.62836 0.88241 0.7083 0.0
C2060 C 0.61645 0.87457 0.66968 0.0
C2061 C 0.64225 0.89269 0.68579 0.0
C2062 C 0.65584 0.90038 0.72464 0.0
C2063 C 0.66562 0.88971 0.76276 0.0
C2064 C 0.67821 0.89706 0.79983 0.0
C2065 C 0.68127 0.91505 0.7988 0.0
C2066 C 0.67177 0.92572 0.76056 0.0
C2067 C 0.65913 0.91845 0.7235 0.0
H2068 H 0.69101 0.92072 0.82754 0.0
H2069 H 0.57067 0.84737 0.46505 0.0
H2070 H 0.89448 0.3852 0.08808 0.0
H2071 H 0.89711 0.38638 0.19497 0.0
H2072 H 0.8484 0.35827 0.21253 0.0
H2073 H 0.84556 0.35721 0.10591 0.0
H2074 H 0.85003 0.38484 0.28938 0.0
H2075 H 0.88726 0.3365 0.23534 0.0
H2076 H 0.91079 0.32215 0.17851 0.0
H2077 H 0.94794 0.35963 0.24298 0.0
H2078 H 0.92455 0.37429 0.29949 0.0
H2079 H 0.85787 0.35774 0.58548 0.0
H2080 H 0.85563 0.35776 0.47847 0.0
H2081 H 0.90389 0.38687 0.46651 0.0
H2082 H 0.90635 0.38675 0.57335 0.0
H2083 H 0.90278 0.36056 0.38693 0.0
H2084 H 0.86521 0.4073 0.44924 0.0
H2085 H 0.84133 0.42065 0.50676 0.0
H2086 H 0.80429 0.3856 0.42789 0.0
H2087 H 0.82801 0.37185 0.37053 0.0
C2088 C 0.88427 0.37935 0.11469 0.0
C2089 C 0.86984 0.37106 0.08849 0.0
C2090 C 0.88585 0.37995 0.17576 0.0
C2091 C 0.87306 0.3722 0.21169 0.0
C2092 C 0.85844 0.36429 0.18564 0.0
C2093 C 0.85686 0.36368 0.12465 0.0
C2094 C 0.87496 0.3722 0.27645 0.0
C2095 C 0.86147 0.37936 0.31077 0.0
C2096 C 0.89003 0.36538 0.30431 0.0
C2097 C 0.90415 0.35659 0.27083 0.0
C2098 C 0.90043 0.34175 0.23678 0.0
C2099 C 0.91373 0.33355 0.2048 0.0
C2100 C 0.93083 0.34002 0.20692 0.0
C2101 C 0.93468 0.35466 0.24125 0.0
C2102 C 0.92141 0.3629 0.27331 0.0
C2103 C 0.86805 0.36408 0.56009 0.0
C2104 C 0.88226 0.3723 0.58792 0.0
C2105 C 0.86671 0.36415 0.49897 0.0
C2106 C 0.87948 0.37251 0.46463 0.0
C2107 C 0.89387 0.38038 0.49222 0.0
C2108 C 0.89522 0.38033 0.55331 0.0
C2109 C 0.87782 0.37313 0.39991 0.0
C2110 C 0.89136 0.3661 0.36559 0.0
C2111 C 0.86275 0.38003 0.37214 0.0
C2112 C 0.84842 0.38844 0.40598 0.0
C2113 C 0.852 0.40236 0.44445 0.0
C2114 C 0.83849 0.41 0.47699 0.0
C2115 C 0.82131 0.40394 0.47109 0.0
C2116 C 0.81761 0.39026 0.43247 0.0
C2117 C 0.83108 0.38255 0.39989 0.0
H2118 H 0.81087 0.40987 0.49636 0.0
H2119 H 0.94112 0.33367 0.18213 0.0
H2120 H 0.36261 0.33666 0.36185 0.0
H2121 H 0.36268 0.33996 0.46836 0.0
H2122 H 0.39326 0.3871 0.45217 0.0
H2123 H 0.39325 0.38396 0.34529 0.0
H2124 H 0.40432 0.3654 0.54361 0.0
H2125 H 0.35119 0.39077 0.47053 0.0
H2126 H 0.32375 0.39117 0.41353 0.0
H2127 H 0.30353 0.34895 0.51751 0.0
H2128 H 0.331 0.34805 0.57439 0.0
H2129 H 0.38918 0.3997 0.82605 0.0
H2130 H 0.38908 0.39671 0.71942 0.0
H2131 H 0.35739 0.35025 0.73396 0.0
H2132 H 0.35729 0.35319 0.84088 0.0
H2133 H 0.34676 0.37184 0.64304 0.0
H2134 H 0.40005 0.34615 0.7147 0.0
H2135 H 0.42746 0.34579 0.77183 0.0
H2136 H 0.44725 0.38875 0.67029 0.0
H2137 H 0.41982 0.38956 0.61319 0.0
C2138 C 0.36952 0.34764 0.38085 0.0
C2139 C 0.37779 0.36015 0.3451 0.0
C2140 C 0.36949 0.34952 0.44172 0.0
C2141 C 0.37774 0.36391 0.46789 0.0
C2142 C 0.38675 0.37595 0.43263 0.0
C2143 C 0.38672 0.37414 0.37164 0.0
C2144 C 0.37636 0.36673 0.53189 0.0
C2145 C 0.39176 0.36703 0.56531 0.0
C2146 C 0.35991 0.36854 0.56004 0.0
C2147 C 0.34325 0.36922 0.52638 0.0
C2148 C 0.34096 0.38146 0.48095 0.0
C2149 C 0.32539 0.3818 0.44868 0.0
C2150 C 0.31192 0.37006 0.4618 0.0
C2151 C 0.31398 0.35801 0.50733 0.0
C2152 C 0.32955 0.35758 0.53962 0.0
C2153 C 0.38207 0.38891 0.80665 0.0
C2154 C 0.37337 0.37659 0.84196 0.0
C2155 C 0.38205 0.38722 0.7457 0.0
C2156 C 0.37342 0.37314 0.71895 0.0
C2157 C 0.36416 0.36119 0.75385 0.0
C2158 C 0.36417 0.36286 0.8149 0.0
C2159 C 0.37472 0.37048 0.65478 0.0
C2160 C 0.35931 0.37022 0.62132 0.0
C2161 C 0.39115 0.3687 0.62652 0.0
C2162 C 0.40781 0.36802 0.66002 0.0
C2163 C 0.4102 0.3556 0.7048 0.0
C2164 C 0.42574 0.3553 0.73716 0.0
C2165 C 0.43907 0.36726 0.72479 0.0
C2166 C 0.4369 0.3795 0.67987 0.0
C2167 C 0.42136 0.37988 0.64747 0.0
H2168 H 0.45109 0.36703 0.74993 0.0
H2169 H 0.29989 0.37033 0.43676 0.0
H2170 H 0.39761 0.58896 0.18255 0.0
H2171 H 0.39466 0.58767 0.28904 0.0
H2172 H 0.37046 0.63866 0.28863 0.0
H2173 H 0.37268 0.63964 0.18159 0.0
H2174 H 0.40755 0.60478 0.3731 0.0
H2175 H 0.34226 0.6434 0.4 0.0
H2176 H 0.31472 0.64807 0.34569 0.0
H2177 H 0.32177 0.59918 0.25638 0.0
H2178 H 0.34921 0.5941 0.31071 0.0
H2179 H 0.39939 0.63697 0.65956 0.0
H2180 H 0.4012 0.63173 0.55457 0.0
H2181 H 0.35519 0.59905 0.56368 0.0
H2182 H 0.35288 0.60488 0.66908 0.0
H2183 H 0.35203 0.6193 0.47533 0.0
H2184 H 0.39762 0.582 0.53958 0.0
H2185 H 0.42409 0.57311 0.5938 0.0
H2186 H 0.45438 0.61148 0.50092 0.0
H2187 H 0.42804 0.62077 0.44668 0.0
C2188 C 0.39165 0.59991 0.20514 0.0
C2189 C 0.38534 0.6144 0.1737 0.0
C2190 C 0.38998 0.59916 0.2661 0.0
C2191 C 0.38213 0.61295 0.29708 0.0
C2192 C 0.37617 0.62764 0.26578 0.0
C2193 C 0.37756 0.62826 0.20461 0.0
C2194 C 0.38048 0.61208 0.36211 0.0
C2195 C 0.39538 0.60791 0.39538 0.0
C2196 C 0.3645 0.61561 0.39144 0.0
C2197 C 0.34788 0.61846 0.35908 0.0
C2198 C 0.33789 0.63361 0.36897 0.0
C2199 C 0.3223 0.63634 0.33814 0.0
C2200 C 0.31653 0.62396 0.29749 0.0
C2201 C 0.32629 0.60879 0.28773 0.0
C2202 C 0.34187 0.60599 0.31848 0.0
C2203 C 0.38977 0.62845 0.63955 0.0
C2204 C 0.376 0.6213 0.67282 0.0
C2205 C 0.39087 0.6254 0.57932 0.0
C2206 C 0.37847 0.61479 0.55104 0.0
C2207 C 0.36493 0.60728 0.58441 0.0
C2208 C 0.36366 0.61055 0.64472 0.0
C2209 C 0.37921 0.61241 0.48627 0.0
C2210 C 0.36415 0.61602 0.45304 0.0
C2211 C 0.39489 0.60772 0.45694 0.0
C2212 C 0.41081 0.60216 0.48935 0.0
C2213 C 0.40989 0.58863 0.531 0.0
C2214 C 0.42488 0.5835 0.56169 0.0
C2215 C 0.44089 0.59175 0.55089 0.0
C2216 C 0.44196 0.60511 0.50926 0.0
C2217 C 0.42701 0.61029 0.47846 0.0
H2218 H 0.45248 0.58776 0.57471 0.0
H2219 H 0.30447 0.6261 0.27363 0.0
H2220 H 0.61243 0.59842 0.83405 0.0
H2221 H 0.60976 0.60047 0.72746 0.0
H2222 H 0.63369 0.65151 0.73125 0.0
H2223 H 0.6363 0.64964 0.83803 0.0
H2224 H 0.6044 0.65074 0.66214 0.0
H2225 H 0.65689 0.61644 0.68714 0.0
H2226 H 0.67429 0.59175 0.72497 0.0
H2227 H 0.6402 0.55554 0.63756 0.0
H2228 H 0.62245 0.58003 0.59981 0.0
H2229 H 0.63095 0.66289 0.36867 0.0
H2230 H 0.62808 0.65927 0.47439 0.0
H2231 H 0.60598 0.60796 0.44869 0.0
H2232 H 0.60905 0.6114 0.34225 0.0
H2233 H 0.63172 0.60732 0.52883 0.0
H2234 H 0.58048 0.64141 0.49733 0.0
H2235 H 0.56283 0.66591 0.45948 0.0
H2236 H 0.59381 0.70217 0.55881 0.0
H2237 H 0.61182 0.67791 0.59663 0.0
C2238 C 0.61719 0.61006 0.81224 0.0
C2239 C 0.62463 0.62386 0.84452 0.0
C2240 C 0.61568 0.61119 0.75128 0.0
C2241 C 0.62162 0.62609 0.72142 0.0
C2242 C 0.62902 0.63989 0.75349 0.0
C2243 C 0.63058 0.63876 0.81446 0.0
C2244 C 0.62003 0.62738 0.65675 0.0
C2245 C 0.61051 0.64136 0.6329 0.0
C2246 C 0.62752 0.61479 0.61879 0.0
C2247 C 0.63823 0.60006 0.64119 0.0
C2248 C 0.65302 0.60321 0.67638 0.0
C2249 C 0.66296 0.58925 0.69773 0.0
C2250 C 0.65832 0.57208 0.68383 0.0
C2251 C 0.64376 0.56884 0.64838 0.0
C2252 C 0.63376 0.58276 0.62695 0.0
C2253 C 0.62526 0.6509 0.38531 0.0
C2254 C 0.62026 0.63741 0.347 0.0
C2255 C 0.62356 0.64889 0.44587 0.0
C2256 C 0.6167 0.6334 0.46949 0.0
C2257 C 0.61129 0.62004 0.43136 0.0
C2258 C 0.61297 0.62206 0.37057 0.0
C2259 C 0.61629 0.63085 0.53402 0.0
C2260 C 0.62544 0.61662 0.55794 0.0
C2261 C 0.60841 0.64318 0.57204 0.0
C2262 C 0.59759 0.65784 0.54946 0.0
C2263 C 0.58362 0.65462 0.51075 0.0
C2264 C 0.57353 0.66847 0.48936 0.0
C2265 C 0.57722 0.68559 0.50663 0.0
C2266 C 0.59098 0.6889 0.54543 0.0
C2267 C 0.60112 0.6751 0.56692 0.0
H2268 H 0.56939 0.69629 0.49003 0.0
H2269 H 0.66603 0.5613 0.70042 0.0
H2270 H 0.65717 0.35801 0.63167 0.0
H2271 H 0.65394 0.3655 0.52854 0.0
H2272 H 0.60499 0.39136 0.56639 0.0
H2273 H 0.60794 0.38351 0.67014 0.0
H2274 H 0.6015 0.37004 0.47578 0.0
H2275 H 0.64202 0.41476 0.52753 0.0
H2276 H 0.66869 0.42734 0.57144 0.0
H2277 H 0.70067 0.39618 0.45703 0.0
H2278 H 0.6742 0.38322 0.41295 0.0
H2279 H 0.59503 0.40044 0.18071 0.0
H2280 H 0.59754 0.39967 0.28755 0.0
H2281 H 0.64545 0.3701 0.27276 0.0
H2282 H 0.64315 0.37094 0.1658 0.0
H2283 H 0.64819 0.39649 0.35295 0.0
H2284 H 0.60755 0.35002 0.30839 0.0
H2285 H 0.58086 0.33734 0.26495 0.0
H2286 H 0.54901 0.37229 0.36675 0.0
H2287 H 0.57555 0.38535 0.41024 0.0
C2288 C 0.64581 0.3655 0.61838 0.0
C2289 C 0.63279 0.37013 0.65917 0.0
C2290 C 0.64404 0.36986 0.55929 0.0
C2291 C 0.62931 0.37915 0.53971 0.0
C2292 C 0.61648 0.38422 0.58055 0.0
C2293 C 0.61822 0.37978 0.63984 0.0
C2294 C 0.62685 0.38243 0.47605 0.0
C2295 C 0.61155 0.37617 0.44914 0.0
C2296 C 0.64013 0.39009 0.44103 0.0
C2297 C 0.6561 0.39793 0.4672 0.0
C2298 C 0.65474 0.41049 0.51199 0.0
C2299 C 0.66982 0.41771 0.53687 0.0
C2300 C 0.68636 0.41254 0.51711 0.0
C2301 C 0.68785 0.40017 0.47231 0.0
C2302 C 0.67281 0.3929 0.4473 0.0
C2303 C 0.6061 0.39375 0.20012 0.0
C2304 C 0.61886 0.38569 0.16472 0.0
C2305 C 0.60749 0.3933 0.26122 0.0
C2306 C 0.62161 0.38472 0.28807 0.0
C2307 C 0.63445 0.37681 0.25288 0.0
C2308 C 0.63307 0.37723 0.19178 0.0
C2309 C 0.62298 0.38388 0.35289 0.0
C2310 C 0.63806 0.39058 0.37986 0.0
C2311 C 0.6095 0.37667 0.38802 0.0
C2312 C 0.59354 0.36879 0.36206 0.0
C2313 C 0.59486 0.3551 0.32115 0.0
C2314 C 0.57976 0.34782 0.29659 0.0
C2315 C 0.56325 0.35404 0.31294 0.0
C2316 C 0.56181 0.36751 0.35404 0.0
C2317 C 0.57688 0.37484 0.37869 0.0
H2318 H 0.55157 0.34839 0.29388 0.0
H2319 H 0.69803 0.41813 0.53645 0.0
H2320 H 0.9027 0.58924 0.92532 0.0
H2321 H 0.90289 0.5917 0.03235 0.0
H2322 H 0.87687 0.64159 0.02039 0.0
H2323 H 0.87661 0.63926 0.9134 0.0
H2324 H 0.90461 0.6419 0.09869 0.0
H2325 H 0.85396 0.6062 0.05664 0.0
H2326 H 0.83851 0.58096 0.01381 0.0
H2327 H 0.87076 0.5459 0.11349 0.0
H2328 H 0.88658 0.57095 0.15633 0.0
H2329 H 0.86776 0.65465 0.37895 0.0
H2330 H 0.87506 0.65084 0.27578 0.0
H2331 H 0.89577 0.59956 0.3128 0.0
H2332 H 0.88811 0.60314 0.41653 0.0
H2333 H 0.87401 0.59824 0.22283 0.0
H2334 H 0.92288 0.63373 0.27259 0.0
H2335 H 0.93853 0.65879 0.31573 0.0
H2336 H 0.91059 0.69389 0.20253 0.0
H2337 H 0.89457 0.66906 0.15924 0.0
C2338 C 0.897 0.60074 0.94542 0.0
C2339 C 0.88956 0.61402 0.91081 0.0
C2340 C 0.89711 0.6021 0.00661 0.0
C2341 C 0.88981 0.61678 0.03431 0.0
C2342 C 0.88258 0.63016 -0.00013 0.0
C2343 C 0.88236 0.62875 0.93874 0.0
C2344 C 0.88949 0.61816 0.09924 0.0
C2345 C 0.89781 0.63245 0.12591 0.0
C2346 C 0.88111 0.6055 0.13475 0.0
C2347 C 0.87158 0.59044 0.10915 0.0
C2348 C 0.85786 0.59311 0.06903 0.0
C2349 C 0.84902 0.57883 0.04483 0.0
C2350 C 0.85369 0.56183 0.06077 0.0
C2351 C 0.86718 0.55907 0.10109 0.0
C2352 C 0.87608 0.5733 0.12537 0.0
C2353 C 0.87413 0.64265 0.36549 0.0
C2354 C 0.87731 0.62918 0.40606 0.0
C2355 C 0.87838 0.64053 0.30635 0.0
C2356 C 0.88609 0.62496 0.28644 0.0
C2357 C 0.88984 0.6117 0.32715 0.0
C2358 C 0.88555 0.6138 0.38648 0.0
C2359 C 0.88893 0.62215 0.22257 0.0
C2360 C 0.88105 0.6076 0.19592 0.0
C2361 C 0.89779 0.63453 0.18714 0.0
C2362 C 0.90742 0.64953 0.21295 0.0
C2363 C 0.91997 0.6468 0.25718 0.0
C2364 C 0.92892 0.66097 0.28161 0.0
C2365 C 0.92553 0.67793 0.26196 0.0
C2366 C 0.9132 0.68075 0.21773 0.0
C2367 C 0.90419 0.66663 0.19317 0.0
H2368 H 0.93248 0.68887 0.28094 0.0
H2369 H 0.84683 0.5508 0.04199 0.0
H2370 H 0.65397 0.14136 0.5992 0.0
H2371 H 0.65133 0.13841 0.70523 0.0
H2372 H 0.60542 0.1062 0.68316 0.0
H2373 H 0.60776 0.10939 0.57655 0.0
H2374 H 0.59987 0.13075 0.76361 0.0
H2375 H 0.64461 0.08852 0.72742 0.0
H2376 H 0.67239 0.07722 0.68726 0.0
H2377 H 0.7011 0.11525 0.78675 0.0
H2378 H 0.67347 0.12695 0.8269 0.0
H2379 H 0.59583 0.10741 0.0654 0.0
H2380 H 0.59848 0.10623 0.95872 0.0
H2381 H 0.64337 0.14038 0.96627 0.0
H2382 H 0.64096 0.14148 0.07323 0.0
H2383 H 0.64886 0.11282 0.89315 0.0
H2384 H 0.60379 0.15592 0.92464 0.0
H2385 H 0.57592 0.16706 0.96471 0.0
H2386 H 0.54775 0.12679 0.8737 0.0
H2387 H 0.5755 0.11527 0.83369 0.0
C2388 C 0.64339 0.13349 0.61674 0.0
C2389 C 0.63106 0.12561 0.57941 0.0
C2390 C 0.64195 0.13175 0.67746 0.0
C2391 C 0.62829 0.12193 0.70214 0.0
C2392 C 0.61609 0.11382 0.665 0.0
C2393 C 0.61747 0.11561 0.60412 0.0
C2394 C 0.6263 0.12091 0.76677 0.0
C2395 C 0.61047 0.12652 0.79188 0.0
C2396 C 0.64027 0.11575 0.8037 0.0
C2397 C 0.65694 0.10871 0.77981 0.0
C2398 C 0.65683 0.09456 0.74041 0.0
C2399 C 0.67256 0.08807 0.7177 0.0
C2400 C 0.68849 0.09554 0.73435 0.0
C2401 C 0.68874 0.10949 0.77386 0.0
C2402 C 0.67305 0.11604 0.79666 0.0
C2403 C 0.60625 0.11472 0.04443 0.0
C2404 C 0.61815 0.1246 0.07778 0.0
C2405 C 0.60771 0.11405 0.98342 0.0
C2406 C 0.62103 0.12334 0.95458 0.0
C2407 C 0.633 0.13312 0.98773 0.0
C2408 C 0.63156 0.1338 0.0488 0.0
C2409 C 0.62251 0.12281 0.8898 0.0
C2410 C 0.63823 0.11692 0.86475 0.0
C2411 C 0.60843 0.12766 0.85291 0.0
C2412 C 0.59174 0.13463 0.87667 0.0
C2413 C 0.59167 0.14936 0.91354 0.0
C2414 C 0.57589 0.15576 0.93617 0.0
C2415 C 0.56008 0.14761 0.92189 0.0
C2416 C 0.56001 0.13308 0.88479 0.0
C2417 C 0.57576 0.12662 0.86209 0.0
H2418 H 0.54788 0.15258 0.93947 0.0
H2419 H 0.70065 0.09049 0.71671 0.0
H2420 H 0.14246 0.33652 0.38999 0.0
H2421 H 0.13757 0.34107 0.28544 0.0
H2422 H 0.10924 0.38854 0.32274 0.0
H2423 H 0.11408 0.38414 0.42791 0.0
H2424 H 0.09519 0.36809 0.2275 0.0
H2425 H 0.14883 0.39364 0.29234 0.0
H2426 H 0.17703 0.39415 0.34488 0.0
H2427 H 0.19654 0.35315 0.23411 0.0
H2428 H 0.16829 0.35214 0.18162 0.0
H2429 H 0.10795 0.40167 0.93695 0.0
H2430 H 0.10774 0.39945 0.04414 0.0
H2431 H 0.13902 0.35259 0.03406 0.0
H2432 H 0.13935 0.3547 0.92728 0.0
H2433 H 0.15091 0.37577 0.11778 0.0
H2434 H 0.09618 0.34947 0.05694 0.0
H2435 H 0.06768 0.34912 0.00615 0.0
H2436 H 0.05029 0.39262 0.10993 0.0
H2437 H 0.0788 0.39339 0.16079 0.0
C2438 C 0.13488 0.34775 0.37621 0.0
C2439 C 0.12891 0.36013 0.41709 0.0
C2440 C 0.13212 0.35032 0.31647 0.0
C2441 C 0.12333 0.36528 0.2967 0.0
C2442 C 0.11612 0.37696 0.33744 0.0
C2443 C 0.11894 0.37443 0.39738 0.0
C2444 C 0.12329 0.36948 0.2336 0.0
C2445 C 0.10731 0.37004 0.2035 0.0
C2446 C 0.13919 0.37193 0.20272 0.0
C2447 C 0.15636 0.3727 0.23339 0.0
C2448 C 0.15907 0.38463 0.27947 0.0
C2449 C 0.17507 0.38501 0.30924 0.0
C2450 C 0.18855 0.37366 0.29295 0.0
C2451 C 0.18607 0.36192 0.24673 0.0
C2452 C 0.17006 0.36144 0.21693 0.0
C2453 C 0.11482 0.39093 0.9576 0.0
C2454 C 0.12362 0.37832 0.92372 0.0
C2455 C 0.11465 0.38966 0.01873 0.0
C2456 C 0.12327 0.3758 0.04676 0.0
C2457 C 0.1323 0.36339 0.01311 0.0
C2458 C 0.13241 0.36459 0.95212 0.0
C2459 C 0.12281 0.37399 0.11122 0.0
C2460 C 0.13875 0.37396 0.14172 0.0
C2461 C 0.10687 0.37215 0.14241 0.0
C2462 C 0.08969 0.37161 0.11219 0.0
C2463 C 0.08633 0.35905 0.06859 0.0
C2464 C 0.07017 0.35876 0.03985 0.0
C2465 C 0.0572 0.37087 0.05467 0.0
C2466 C 0.06035 0.38327 0.09842 0.0
C2467 C 0.07651 0.38363 0.12724 0.0
H2468 H 0.04469 0.37063 0.03237 0.0
H2469 H 0.20091 0.37399 0.31606 0.0
H2470 H 0.36021 0.85807 0.08468 0.0
H2471 H 0.35782 0.85873 0.97783 0.0
H2472 H 0.40823 0.884 0.96627 0.0
H2473 H 0.41059 0.88366 0.07317 0.0
H2474 H 0.38499 0.8999 0.89725 0.0
H2475 H 0.40319 0.84087 0.93073 0.0
H2476 H 0.4019 0.81162 0.97584 0.0
H2477 H 0.3507 0.80353 0.903 0.0
H2478 H 0.35156 0.83286 0.85813 0.0
H2479 H 0.39549 0.88782 0.58775 0.0
H2480 H 0.39893 0.88805 0.69448 0.0
H2481 H 0.34858 0.86309 0.7138 0.0
H2482 H 0.34515 0.86259 0.60743 0.0
H2483 H 0.37281 0.84697 0.77853 0.0
H2484 H 0.35446 0.90638 0.74703 0.0
H2485 H 0.35578 0.93575 0.70275 0.0
H2486 H 0.40761 0.94298 0.77155 0.0
H2487 H 0.40669 0.91354 0.81559 0.0
C2488 C 0.37085 0.86365 0.05942 0.0
C2489 C 0.38561 0.87079 0.08745 0.0
C2490 C 0.36949 0.86398 0.9983 0.0
C2491 C 0.38292 0.87128 0.964 0.0
C2492 C 0.39771 0.87831 0.99186 0.0
C2493 C 0.39906 0.87805 0.05298 0.0
C2494 C 0.38134 0.87198 0.89914 0.0
C2495 C 0.38259 0.88829 0.87117 0.0
C2496 C 0.37785 0.85689 0.86526 0.0
C2497 C 0.37736 0.83916 0.89164 0.0
C2498 C 0.39159 0.83292 0.92471 0.0
C2499 C 0.39095 0.81632 0.9502 0.0
C2500 C 0.37619 0.80578 0.94261 0.0
C2501 C 0.3621 0.81175 0.90908 0.0
C2502 C 0.36266 0.82835 0.88355 0.0
C2503 C 0.38506 0.88258 0.61476 0.0
C2504 C 0.37005 0.87518 0.58909 0.0
C2505 C 0.38703 0.88274 0.67576 0.0
C2506 C 0.37398 0.87564 0.71214 0.0
C2507 C 0.35884 0.86859 0.68659 0.0
C2508 C 0.35688 0.86838 0.62573 0.0
C2509 C 0.37632 0.8749 0.77671 0.0
C2510 C 0.37525 0.85858 0.80461 0.0
C2511 C 0.38001 0.88997 0.81047 0.0
C2512 C 0.38057 0.90768 0.78408 0.0
C2513 C 0.36619 0.91417 0.7523 0.0
C2514 C 0.36686 0.93084 0.72733 0.0
C2515 C 0.38179 0.9412 0.73419 0.0
C2516 C 0.39607 0.93493 0.76619 0.0
C2517 C 0.39547 0.91826 0.79121 0.0
H2518 H 0.38228 0.95411 0.71484 0.0
H2519 H 0.37571 0.79294 0.96249 0.0
H2520 H 0.875 0.85336 0.35531 0.0
H2521 H 0.87867 0.85252 0.24888 0.0
H2522 H 0.86834 0.90786 0.23927 0.0
H2523 H 0.86471 0.90882 0.34627 0.0
H2524 H 0.85115 0.88643 0.15076 0.0
H2525 H 0.90712 0.89798 0.23283 0.0
H2526 H 0.93163 0.89353 0.30129 0.0
H2527 H 0.94102 0.8427 0.22814 0.0
H2528 H 0.91611 0.84657 0.16052 0.0
H2529 H 0.88092 0.89472 0.86129 0.0
H2530 H 0.88177 0.89973 0.9668 0.0
H2531 H 0.89047 0.84476 0.99618 0.0
H2532 H 0.8895 0.8395 0.89024 0.0
H2533 H 0.9095 0.86864 0.07457 0.0
H2534 H 0.85125 0.85659 -0.00013 0.0
H2535 H 0.82637 0.86133 0.93277 0.0
H2536 H 0.82179 0.91434 0.99235 0.0
H2537 H 0.84687 0.91001 0.05909 0.0
C2538 C 0.87326 0.8653 0.33049 0.0
C2539 C 0.86972 0.8812 0.35887 0.0
C2540 C 0.87544 0.86481 0.26985 0.0
C2541 C 0.87395 0.88016 0.23667 0.0
C2542 C 0.86959 0.89591 0.26443 0.0
C2543 C 0.86761 0.89646 0.32533 0.0
C2544 C 0.87769 0.8797 0.17327 0.0
C2545 C 0.86396 0.88284 0.13397 0.0
C2546 C 0.8944 0.87482 0.1519 0.0
C2547 C 0.9096 0.8725 0.1919 0.0
C2548 C 0.91428 0.88577 0.23169 0.0
C2549 C 0.92827 0.88336 0.27033 0.0
C2550 C 0.93792 0.86786 0.26899 0.0
C2551 C 0.93354 0.85471 0.22911 0.0
C2552 C 0.91945 0.85698 0.19067 0.0
C2553 C 0.8834 0.88371 0.88994 0.0
C2554 C 0.88483 0.86664 0.86747 0.0
C2555 C 0.88389 0.88663 0.95021 0.0
C2556 C 0.88592 0.87258 0.98893 0.0
C2557 C 0.88885 0.85575 0.96668 0.0
C2558 C 0.88823 0.85277 0.90624 0.0
C2559 C 0.88289 0.87515 0.05221 0.0
C2560 C 0.89674 0.87239 0.09142 0.0
C2561 C 0.86631 0.88048 0.07356 0.0
C2562 C 0.85107 0.88304 0.03399 0.0
C2563 C 0.84504 0.86931 0.99829 0.0
C2564 C 0.83089 0.87191 0.96038 0.0
C2565 C 0.82253 0.88814 0.9582 0.0
C2566 C 0.8283 0.90179 0.99402 0.0
C2567 C 0.84248 0.89927 0.03191 0.0
H2568 H 0.81156 0.89011 0.92892 0.0
H2569 H 0.9488 0.86607 0.29873 0.0
H2570 H 0.83971 0.13255 0.12112 0.0
H2571 H 0.84335 0.1265 0.01688 0.0
H2572 H 0.89771 0.11373 0.04567 0.0
H2573 H 0.89423 0.12003 0.15042 0.0
H2574 H 0.89386 0.13669 0.95719 0.0
H2575 H 0.86814 0.08199 0.01023 0.0
H2576 H 0.8464 0.06244 0.05603 0.0
H2577 H 0.80598 0.08403 0.94707 0.0
H2578 H 0.82743 0.10389 0.90117 0.0
H2579 H 0.90699 0.10655 0.66334 0.0
H2580 H 0.90487 0.10832 0.77026 0.0
H2581 H 0.85087 0.12429 0.75583 0.0
H2582 H 0.85288 0.12262 0.64879 0.0
H2583 H 0.85575 0.09814 0.83772 0.0
H2584 H 0.88088 0.15374 0.78902 0.0
H2585 H 0.90215 0.17427 0.74561 0.0
H2586 H 0.9434 0.15145 0.84802 0.0
H2587 H 0.92242 0.13059 0.89141 0.0
C2588 C 0.85239 0.12819 0.10556 0.0
C2589 C 0.8667 0.12681 0.14408 0.0
C2590 C 0.85443 0.12466 0.04589 0.0
C2591 C 0.87077 0.11957 0.02349 0.0
C2592 C 0.88497 0.11764 0.06208 0.0
C2593 C 0.88294 0.12114 0.12195 0.0
C2594 C 0.87324 0.11749 0.95928 0.0
C2595 C 0.88579 0.12797 0.93118 0.0
C2596 C 0.86232 0.10652 0.92522 0.0
C2597 C 0.84939 0.09453 0.95257 0.0
C2598 C 0.85459 0.08267 0.99633 0.0
C2599 C 0.84232 0.07151 0.02227 0.0
C2600 C 0.82481 0.07202 0.00456 0.0
C2601 C 0.81955 0.08365 0.96077 0.0
C2602 C 0.83176 0.09485 0.93473 0.0
C2603 C 0.89467 0.11048 0.68287 0.0
C2604 C 0.8801 0.11446 0.64757 0.0
C2605 C 0.89351 0.11155 0.74397 0.0
C2606 C 0.87774 0.11653 0.77092 0.0
C2607 C 0.86316 0.12043 0.73585 0.0
C2608 C 0.86435 0.11953 0.67471 0.0
C2609 C 0.87635 0.11735 0.83575 0.0
C2610 C 0.86396 0.10668 0.86387 0.0
C2611 C 0.88741 0.12815 0.86986 0.0
C2612 C 0.90012 0.14043 0.84283 0.0
C2613 C 0.89453 0.15294 0.80172 0.0
C2614 C 0.90652 0.16468 0.77727 0.0
C2615 C 0.92412 0.16412 0.79389 0.0
C2616 C 0.92977 0.15183 0.83506 0.0
C2617 C 0.91783 0.14005 0.8596 0.0
H2618 H 0.93338 0.17325 0.77499 0.0
H2619 H 0.81533 0.06337 0.0247 0.0
H2620 H 0.11516 0.10372 0.86037 0.0
H2621 H 0.10943 0.09934 0.96517 0.0
H2622 H 0.13588 0.14774 0.00423 0.0
H2623 H 0.14164 0.15224 0.90012 0.0
H2624 H 0.14871 0.11956 0.06717 0.0
H2625 H 0.09249 0.14503 0.01799 0.0
H2626 H 0.06469 0.14683 0.96335 0.0
H2627 H 0.05045 0.09559 0.02361 0.0
H2628 H 0.07829 0.0934 0.078 0.0
H2629 H 0.13122 0.13608 0.36325 0.0
H2630 H 0.13284 0.13713 0.25649 0.0
H2631 H 0.10246 0.08971 0.24546 0.0
H2632 H 0.10055 0.08868 0.35268 0.0
H2633 H 0.0912 0.11378 0.16691 0.0
H2634 H 0.1455 0.08822 0.22009 0.0
H2635 H 0.17318 0.08506 0.27464 0.0
H2636 H 0.1913 0.13403 0.20547 0.0
H2637 H 0.1636 0.13764 0.15122 0.0
C2638 C 0.11946 0.11359 0.89119 0.0
C2639 C 0.12897 0.12827 0.87194 0.0
C2640 C 0.11618 0.11106 0.95101 0.0
C2641 C 0.12233 0.12318 0.99236 0.0
C2642 C 0.13113 0.13819 0.97299 0.0
C2643 C 0.13435 0.14076 0.91339 0.0
C2644 C 0.1207 0.11979 0.05608 0.0
C2645 C 0.13614 0.11849 0.08912 0.0
C2646 C 0.1043 0.11762 0.0841 0.0
C2647 C 0.08756 0.11897 0.05151 0.0
C2648 C 0.0835 0.13408 0.01916 0.0
C2649 C 0.06772 0.13519 0.98833 0.0
C2650 C 0.05583 0.12131 0.98986 0.0
C2651 C 0.05968 0.10632 0.02238 0.0
C2652 C 0.07545 0.10514 0.05325 0.0
C2653 C 0.12493 0.12582 0.33824 0.0
C2654 C 0.1158 0.11226 0.36647 0.0
C2655 C 0.1259 0.12642 0.27718 0.0
C2656 C 0.11792 0.11339 0.24307 0.0
C2657 C 0.10871 0.09988 0.271 0.0
C2658 C 0.10769 0.09929 0.33224 0.0
C2659 C 0.11922 0.11408 0.17824 0.0
C2660 C 0.10378 0.11475 0.14494 0.0
C2661 C 0.13563 0.11542 0.1497 0.0
C2662 C 0.1524 0.11326 0.1819 0.0
C2663 C 0.15533 0.09838 0.21682 0.0
C2664 C 0.17104 0.0965 0.24766 0.0
C2665 C 0.18398 0.10935 0.24359 0.0
C2666 C 0.18126 0.1241 0.20859 0.0
C2667 C 0.16556 0.12606 0.17774 0.0
H2668 H 0.19613 0.10788 0.2675 0.0
H2669 H 0.04362 0.12219 0.96597 0.0
H2670 H 0.14062 0.86057 0.65797 0.0
H2671 H 0.14227 0.86042 0.76496 0.0
H2672 H 0.10478 0.90255 0.77276 0.0
H2673 H 0.10323 0.90296 0.66571 0.0
H2674 H 0.13124 0.90826 0.84646 0.0
H2675 H 0.09271 0.86091 0.80383 0.0
H2676 H 0.08271 0.83356 0.7576 0.0
H2677 H 0.12552 0.80577 0.83632 0.0
H2678 H 0.13597 0.83302 0.88222 0.0
H2679 H 0.11287 0.89674 0.15423 0.0
H2680 H 0.11054 0.89943 0.04736 0.0
H2681 H 0.15102 0.86062 0.02604 0.0
H2682 H 0.15348 0.85787 0.13229 0.0
H2683 H 0.12144 0.85382 0.96004 0.0
H2684 H 0.16018 0.90206 0.00024 0.0
H2685 H 0.16917 0.92952 0.048 0.0
H2686 H 0.12441 0.95569 0.97535 0.0
H2687 H 0.11501 0.92829 0.92784 0.0
C2688 C 0.13271 0.86979 0.68242 0.0
C2689 C 0.12171 0.88171 0.65338 0.0
C2690 C 0.13361 0.86964 0.74357 0.0
C2691 C 0.12345 0.88131 0.77681 0.0
C2692 C 0.11266 0.89339 0.74793 0.0
C2693 C 0.11175 0.89355 0.68676 0.0
C2694 C 0.12427 0.88101 0.84171 0.0
C2695 C 0.12884 0.89642 0.87138 0.0
C2696 C 0.12138 0.86548 0.87408 0.0
C2697 C 0.11525 0.84908 0.84594 0.0
C2698 C 0.10011 0.84901 0.81079 0.0
C2699 C 0.09434 0.83351 0.78474 0.0
C2700 C 0.1035 0.81795 0.79387 0.0
C2701 C 0.11845 0.81785 0.82918 0.0
C2702 C 0.12431 0.83332 0.85523 0.0
C2703 C 0.12138 0.88891 0.12675 0.0
C2704 C 0.13333 0.87707 0.15168 0.0
C2705 C 0.12006 0.89049 0.06579 0.0
C2706 C 0.13063 0.88023 0.02898 0.0
C2707 C 0.14273 0.86862 0.0538 0.0
C2708 C 0.14415 0.86712 0.11455 0.0
C2709 C 0.12865 0.88098 0.96452 0.0
C2710 C 0.12379 0.86566 0.93501 0.0
C2711 C 0.13115 0.89659 0.93244 0.0
C2712 C 0.13677 0.91307 0.96107 0.0
C2713 C 0.15215 0.91362 0.99493 0.0
C2714 C 0.15735 0.92919 0.02185 0.0
C2715 C 0.14734 0.94433 0.01488 0.0
C2716 C 0.13213 0.94394 0.98082 0.0
C2717 C 0.12687 0.9284 0.95386 0.0
H2718 H 0.15138 0.95637 0.03573 0.0
H2719 H 0.099 0.80597 0.77367 0.0
loop_
_geom_bond_atom_site_label_1
_geom_bond_atom_site_label_2
_geom_bond_distance
_geom_bond_site_symmetry_2
_ccdc_geom_bond_type
Zn0 O6 1.969 1_554 S
Zn0 O7 1.965 . S
Zn0 O11 2.024 . S
Zn0 O16 1.969 . S
Zn1 O8 1.969 . S
Zn1 O14 1.969 . S
Zn1 O15 1.965 . S
Zn1 O17 2.024 . S
C2 O3 1.229 . S
C2 O11 1.058 . S
O3 C2 1.229 . S
C4 O5 1.229 . S
C4 O17 1.058 . S
O5 C4 1.229 . S
O6 Zn0 1.969 1_556 S
O6 C9 1.267 . S
O7 Zn0 1.965 . S
O7 C18 1.260 . S
O8 Zn1 1.969 . S
O8 C18 1.258 . S
C9 O6 1.267 . S
C9 O10 1.228 . S
O10 C9 1.228 . S
O11 Zn0 2.024 . S
O11 C2 1.058 . S
C12 O13 1.228 . S
C12 O14 1.267 . S
O13 C12 1.228 . S
O14 Zn1 1.969 . S
O14 C12 1.267 . S
O15 Zn1 1.965 . S
O15 C19 1.260 . S
O16 Zn0 1.969 . S
O16 C19 1.258 . S
O17 Zn1 2.024 . S
O17 C4 1.058 . S
C18 O7 1.260 . S
C18 O8 1.258 . S
C19 O15 1.260 . S
C19 O16 1.258 . S
Zn20 O26 1.969 . S
Zn20 O27 1.965 . S
Zn20 O31 2.024 . S
Zn20 O36 1.969 . S
Zn21 O28 1.969 . S
Zn21 O34 1.969 1_556 S
Zn21 O35 1.965 . S
Zn21 O37 2.024 . S
C22 O23 1.229 . S
C22 O31 1.058 . S
O23 C22 1.229 . S
C24 O25 1.229 . S
C24 O37 1.058 . S
O25 C24 1.229 . S
O26 Zn20 1.969 . S
O26 C29 1.267 . S
O27 Zn20 1.965 . S
O27 C38 1.260 . S
O28 Zn21 1.969 . S
O28 C38 1.258 . S
C29 O26 1.267 . S
C29 O30 1.228 . S
O30 C29 1.228 . S
O31 Zn20 2.024 . S
O31 C22 1.058 . S
C32 O33 1.228 . S
C32 O34 1.267 . S
O33 C32 1.228 . S
O34 Zn21 1.969 1_554 S
O34 C32 1.267 . S
O35 Zn21 1.965 . S
O35 C39 1.260 . S
O36 Zn20 1.969 . S
O36 C39 1.258 . S
O37 Zn21 2.024 . S
O37 C24 1.058 . S
C38 O27 1.260 . S
C38 O28 1.258 . S
C39 O35 1.260 . S
C39 O36 1.258 . S
Zn40 O46 1.969 1_554 S
Zn40 O47 1.965 . S
Zn40 O51 2.024 . S
Zn40 O56 1.969 . S
Zn41 O48 1.969 . S
Zn41 O54 1.969 . S
Zn41 O55 1.965 . S
Zn41 O57 2.024 . S
C42 O43 1.229 . S
C42 O51 1.058 . S
O43 C42 1.229 . S
C44 O45 1.229 . S
C44 O57 1.058 . S
O45 C44 1.229 . S
O46 Zn40 1.969 1_556 S
O46 C49 1.267 . S
O47 Zn40 1.965 . S
O47 C58 1.260 . S
O48 Zn41 1.969 . S
O48 C58 1.258 . S
C49 O46 1.267 . S
C49 O50 1.228 . S
O50 C49 1.228 . S
O51 Zn40 2.024 . S
O51 C42 1.058 . S
C52 O53 1.228 . S
C52 O54 1.267 . S
O53 C52 1.228 . S
O54 Zn41 1.969 . S
O54 C52 1.267 . S
O55 Zn41 1.965 . S
O55 C59 1.260 . S
O56 Zn40 1.969 . S
O56 C59 1.258 . S
O57 Zn41 2.024 . S
O57 C44 1.058 . S
C58 O47 1.260 . S
C58 O48 1.258 . S
C59 O55 1.260 . S
C59 O56 1.258 . S
Zn60 O66 1.969 . S
Zn60 O67 1.965 . S
Zn60 O71 2.024 . S
Zn60 O76 1.969 . S
Zn61 O68 1.969 . S
Zn61 O74 1.969 1_556 S
Zn61 O75 1.965 . S
Zn61 O77 2.024 . S
C62 O63 1.229 . S
C62 O71 1.058 . S
O63 C62 1.229 . S
C64 O65 1.229 . S
C64 O77 1.058 . S
O65 C64 1.229 . S
O66 Zn60 1.969 . S
O66 C69 1.267 . S
O67 Zn60 1.965 . S
O67 C78 1.260 . S
O68 Zn61 1.969 . S
O68 C78 1.258 . S
C69 O66 1.267 . S
C69 O70 1.228 . S
O70 C69 1.228 . S
O71 Zn60 2.024 . S
O71 C62 1.058 . S
C72 O73 1.228 . S
C72 O74 1.267 . S
O73 C72 1.228 . S
O74 Zn61 1.969 1_554 S
O74 C72 1.267 . S
O75 Zn61 1.965 . S
O75 C79 1.260 . S
O76 Zn60 1.969 . S
O76 C79 1.258 . S
O77 Zn61 2.024 . S
O77 C64 1.058 . S
C78 O67 1.260 . S
C78 O68 1.258 . S
C79 O75 1.260 . S
C79 O76 1.258 . S
Zn80 O86 1.969 . S
Zn80 O87 1.965 . S
Zn80 O91 2.024 . S
Zn80 O96 1.969 . S
Zn81 O88 1.969 . S
Zn81 O94 1.969 1_554 S
Zn81 O95 1.965 . S
Zn81 O97 2.024 . S
C82 O83 1.229 . S
C82 O91 1.058 . S
O83 C82 1.229 . S
C84 O85 1.229 1_554 S
C84 O97 1.058 . S
O85 C84 1.229 1_556 S
O86 Zn80 1.969 . S
O86 C89 1.267 . S
O87 Zn80 1.965 . S
O87 C98 1.260 . S
O88 Zn81 1.969 . S
O88 C98 1.258 . S
C89 O86 1.267 . S
C89 O90 1.228 . S
O90 C89 1.228 . S
O91 Zn80 2.024 . S
O91 C82 1.058 . S
C92 O93 1.228 . S
C92 O94 1.267 . S
O93 C92 1.228 . S
O94 Zn81 1.969 1_556 S
O94 C92 1.267 . S
O95 Zn81 1.965 . S
O95 C99 1.260 . S
O96 Zn80 1.969 . S
O96 C99 1.258 . S
O97 Zn81 2.024 . S
O97 C84 1.058 . S
C98 O87 1.260 . S
C98 O88 1.258 . S
C99 O95 1.260 . S
C99 O96 1.258 . S
Zn100 O106 1.969 1_556 S
Zn100 O107 1.965 . S
Zn100 O111 2.024 . S
Zn100 O116 1.969 . S
Zn101 O108 1.969 . S
Zn101 O114 1.969 . S
Zn101 O115 1.965 . S
Zn101 O117 2.024 . S
C102 O103 1.229 1_556 S
C102 O111 1.058 . S
O103 C102 1.229 1_554 S
C104 O105 1.229 . S
C104 O117 1.058 . S
O105 C104 1.229 . S
O106 Zn100 1.969 1_554 S
O106 C109 1.267 . S
O107 Zn100 1.965 . S
O107 C118 1.260 . S
O108 Zn101 1.969 . S
O108 C118 1.258 . S
C109 O106 1.267 . S
C109 O110 1.228 . S
O110 C109 1.228 . S
O111 Zn100 2.024 . S
O111 C102 1.058 . S
C112 O113 1.228 . S
C112 O114 1.267 . S
O113 C112 1.228 . S
O114 Zn101 1.969 . S
O114 C112 1.267 . S
O115 Zn101 1.965 . S
O115 C119 1.260 . S
O116 Zn100 1.969 . S
O116 C119 1.258 . S
O117 Zn101 2.024 . S
O117 C104 1.058 . S
C118 O107 1.260 . S
C118 O108 1.258 . S
C119 O115 1.260 . S
C119 O116 1.258 . S
Zn120 O126 1.969 . S
Zn120 O127 1.965 . S
Zn120 O131 2.024 . S
Zn120 O136 1.969 . S
Zn121 O128 1.969 . S
Zn121 O134 1.969 1_554 S
Zn121 O135 1.965 . S
Zn121 O137 2.024 . S
C122 O123 1.229 . S
C122 O131 1.058 . S
O123 C122 1.229 . S
C124 O125 1.229 1_554 S
C124 O137 1.058 . S
O125 C124 1.229 1_556 S
O126 Zn120 1.969 . S
O126 C129 1.267 . S
O127 Zn120 1.965 . S
O127 C138 1.260 . S
O128 Zn121 1.969 . S
O128 C138 1.258 . S
C129 O126 1.267 . S
C129 O130 1.228 . S
O130 C129 1.228 . S
O131 Zn120 2.024 . S
O131 C122 1.058 . S
C132 O133 1.228 . S
C132 O134 1.267 . S
O133 C132 1.228 . S
O134 Zn121 1.969 1_556 S
O134 C132 1.267 . S
O135 Zn121 1.965 . S
O135 C139 1.260 . S
O136 Zn120 1.969 . S
O136 C139 1.258 . S
O137 Zn121 2.024 . S
O137 C124 1.058 . S
C138 O127 1.260 . S
C138 O128 1.258 . S
C139 O135 1.260 . S
C139 O136 1.258 . S
Zn140 O146 1.969 1_556 S
Zn140 O147 1.965 . S
Zn140 O151 2.024 . S
Zn140 O156 1.969 . S
Zn141 O148 1.969 . S
Zn141 O154 1.969 . S
Zn141 O155 1.965 . S
Zn141 O157 2.024 . S
C142 O143 1.229 1_556 S
C142 O151 1.058 . S
O143 C142 1.229 1_554 S
C144 O145 1.229 . S
C144 O157 1.058 . S
O145 C144 1.229 . S
O146 Zn140 1.969 1_554 S
O146 C149 1.267 . S
O147 Zn140 1.965 . S
O147 C158 1.260 . S
O148 Zn141 1.969 . S
O148 C158 1.258 . S
C149 O146 1.267 . S
C149 O150 1.228 . S
O150 C149 1.228 . S
O151 Zn140 2.024 . S
O151 C142 1.058 . S
C152 O153 1.228 . S
C152 O154 1.267 . S
O153 C152 1.228 . S
O154 Zn141 1.969 . S
O154 C152 1.267 . S
O155 Zn141 1.965 . S
O155 C159 1.260 . S
O156 Zn140 1.969 . S
O156 C159 1.258 . S
O157 Zn141 2.024 . S
O157 C144 1.058 . S
C158 O147 1.260 . S
C158 O148 1.258 . S
C159 O155 1.260 . S
C159 O156 1.258 . S
Zn160 O166 1.969 . S
Zn160 O167 1.965 . S
Zn160 O171 2.024 . S
Zn160 O176 1.969 . S
Zn161 O168 1.969 . S
Zn161 O174 1.969 . S
Zn161 O175 1.965 . S
Zn161 O177 2.024 . S
C162 O163 1.229 . S
C162 O171 1.058 . S
O163 C162 1.229 . S
C164 O165 1.229 . S
C164 O177 1.058 . S
O165 C164 1.229 . S
O166 Zn160 1.969 . S
O166 C169 1.267 . S
O167 Zn160 1.965 . S
O167 C178 1.260 . S
O168 Zn161 1.969 . S
O168 C178 1.258 . S
C169 O166 1.267 . S
C169 O170 1.228 . S
O170 C169 1.228 . S
O171 Zn160 2.024 . S
O171 C162 1.058 . S
C172 O173 1.228 . S
C172 O174 1.267 . S
O173 C172 1.228 . S
O174 Zn161 1.969 . S
O174 C172 1.267 . S
O175 Zn161 1.965 . S
O175 C179 1.260 . S
O176 Zn160 1.969 . S
O176 C179 1.258 . S
O177 Zn161 2.024 . S
O177 C164 1.058 . S
C178 O167 1.260 . S
C178 O168 1.258 . S
C179 O175 1.260 . S
C179 O176 1.258 . S
Zn180 O186 1.969 . S
Zn180 O187 1.965 . S
Zn180 O191 2.024 . S
Zn180 O196 1.969 . S
Zn181 O188 1.969 . S
Zn181 O194 1.969 . S
Zn181 O195 1.965 . S
Zn181 O197 2.024 . S
C182 O183 1.229 . S
C182 O191 1.058 . S
O183 C182 1.229 . S
C184 O185 1.229 . S
C184 O197 1.058 . S
O185 C184 1.229 . S
O186 Zn180 1.969 . S
O186 C189 1.267 . S
O187 Zn180 1.965 . S
O187 C198 1.260 . S
O188 Zn181 1.969 . S
O188 C198 1.258 . S
C189 O186 1.267 . S
C189 O190 1.228 . S
O190 C189 1.228 . S
O191 Zn180 2.024 . S
O191 C182 1.058 . S
C192 O193 1.228 . S
C192 O194 1.267 . S
O193 C192 1.228 . S
O194 Zn181 1.969 . S
O194 C192 1.267 . S
O195 Zn181 1.965 . S
O195 C199 1.260 . S
O196 Zn180 1.969 . S
O196 C199 1.258 . S
O197 Zn181 2.024 . S
O197 C184 1.058 . S
C198 O187 1.260 . S
C198 O188 1.258 . S
C199 O195 1.260 . S
C199 O196 1.258 . S
Zn200 O206 1.969 . S
Zn200 O207 1.965 . S
Zn200 O211 2.024 . S
Zn200 O216 1.969 . S
Zn201 O208 1.969 . S
Zn201 O214 1.969 . S
Zn201 O215 1.965 . S
Zn201 O217 2.024 . S
C202 O203 1.229 . S
C202 O211 1.058 . S
O203 C202 1.229 . S
C204 O205 1.229 . S
C204 O217 1.058 . S
O205 C204 1.229 . S
O206 Zn200 1.969 . S
O206 C209 1.267 . S
O207 Zn200 1.965 . S
O207 C218 1.260 . S
O208 Zn201 1.969 . S
O208 C218 1.258 . S
C209 O206 1.267 . S
C209 O210 1.228 . S
O210 C209 1.228 . S
O211 Zn200 2.024 . S
O211 C202 1.058 . S
C212 O213 1.228 . S
C212 O214 1.267 . S
O213 C212 1.228 . S
O214 Zn201 1.969 . S
O214 C212 1.267 . S
O215 Zn201 1.965 . S
O215 C219 1.260 . S
O216 Zn200 1.969 . S
O216 C219 1.258 . S
O217 Zn201 2.024 . S
O217 C204 1.058 . S
C218 O207 1.260 . S
C218 O208 1.258 . S
C219 O215 1.260 . S
C219 O216 1.258 . S
Zn220 O226 1.969 . S
Zn220 O227 1.965 . S
Zn220 O231 2.024 . S
Zn220 O236 1.969 . S
Zn221 O228 1.969 . S
Zn221 O234 1.969 . S
Zn221 O235 1.965 . S
Zn221 O237 2.024 . S
C222 O223 1.229 . S
C222 O231 1.058 . S
O223 C222 1.229 . S
C224 O225 1.229 . S
C224 O237 1.058 . S
O225 C224 1.229 . S
O226 Zn220 1.969 . S
O226 C229 1.267 . S
O227 Zn220 1.965 . S
O227 C238 1.260 . S
O228 Zn221 1.969 . S
O228 C238 1.258 . S
C229 O226 1.267 . S
C229 O230 1.228 . S
O230 C229 1.228 . S
O231 Zn220 2.024 . S
O231 C222 1.058 . S
C232 O233 1.228 . S
C232 O234 1.267 . S
O233 C232 1.228 . S
O234 Zn221 1.969 . S
O234 C232 1.267 . S
O235 Zn221 1.965 . S
O235 C239 1.260 . S
O236 Zn220 1.969 . S
O236 C239 1.258 . S
O237 Zn221 2.024 . S
O237 C224 1.058 . S
C238 O227 1.260 . S
C238 O228 1.258 . S
C239 O235 1.260 . S
C239 O236 1.258 . S
Zn240 O246 1.969 . S
Zn240 O247 1.965 . S
Zn240 O251 2.024 . S
Zn240 O256 1.969 . S
Zn241 O248 1.969 . S
Zn241 O254 1.969 . S
Zn241 O255 1.965 . S
Zn241 O257 2.024 . S
C242 O243 1.229 . S
C242 O251 1.058 . S
O243 C242 1.229 . S
C244 O245 1.229 . S
C244 O257 1.058 . S
O245 C244 1.229 . S
O246 Zn240 1.969 . S
O246 C249 1.267 . S
O247 Zn240 1.965 . S
O247 C258 1.260 . S
O248 Zn241 1.969 . S
O248 C258 1.258 . S
C249 O246 1.267 . S
C249 O250 1.228 . S
O250 C249 1.228 . S
O251 Zn240 2.024 . S
O251 C242 1.058 . S
C252 O253 1.228 . S
C252 O254 1.267 . S
O253 C252 1.228 . S
O254 Zn241 1.969 . S
O254 C252 1.267 . S
O255 Zn241 1.965 . S
O255 C259 1.260 . S
O256 Zn240 1.969 . S
O256 C259 1.258 . S
O257 Zn241 2.024 . S
O257 C244 1.058 . S
C258 O247 1.260 . S
C258 O248 1.258 . S
C259 O255 1.260 . S
C259 O256 1.258 . S
Zn260 O266 1.969 . S
Zn260 O267 1.965 . S
Zn260 O271 2.024 . S
Zn260 O276 1.969 . S
Zn261 O268 1.969 . S
Zn261 O274 1.969 . S
Zn261 O275 1.965 . S
Zn261 O277 2.024 . S
C262 O263 1.229 . S
C262 O271 1.058 . S
O263 C262 1.229 . S
C264 O265 1.229 . S
C264 O277 1.058 . S
O265 C264 1.229 . S
O266 Zn260 1.969 . S
O266 C269 1.267 . S
O267 Zn260 1.965 . S
O267 C278 1.260 . S
O268 Zn261 1.969 . S
O268 C278 1.258 . S
C269 O266 1.267 . S
C269 O270 1.228 . S
O270 C269 1.228 . S
O271 Zn260 2.024 . S
O271 C262 1.058 . S
C272 O273 1.228 . S
C272 O274 1.267 . S
O273 C272 1.228 . S
O274 Zn261 1.969 . S
O274 C272 1.267 . S
O275 Zn261 1.965 . S
O275 C279 1.260 . S
O276 Zn260 1.969 . S
O276 C279 1.258 . S
O277 Zn261 2.024 . S
O277 C264 1.058 . S
C278 O267 1.260 . S
C278 O268 1.258 . S
C279 O275 1.260 . S
C279 O276 1.258 . S
Zn280 O286 1.969 . S
Zn280 O287 1.965 . S
Zn280 O291 2.024 . S
Zn280 O296 1.969 . S
Zn281 O288 1.969 . S
Zn281 O294 1.969 . S
Zn281 O295 1.965 . S
Zn281 O297 2.024 . S
C282 O283 1.229 . S
C282 O291 1.058 . S
O283 C282 1.229 . S
C284 O285 1.229 . S
C284 O297 1.058 . S
O285 C284 1.229 . S
O286 Zn280 1.969 . S
O286 C289 1.267 . S
O287 Zn280 1.965 . S
O287 C298 1.260 . S
O288 Zn281 1.969 . S
O288 C298 1.258 . S
C289 O286 1.267 . S
C289 O290 1.228 . S
O290 C289 1.228 . S
O291 Zn280 2.024 . S
O291 C282 1.058 . S
C292 O293 1.228 . S
C292 O294 1.267 . S
O293 C292 1.228 . S
O294 Zn281 1.969 . S
O294 C292 1.267 . S
O295 Zn281 1.965 . S
O295 C299 1.260 . S
O296 Zn280 1.969 . S
O296 C299 1.258 . S
O297 Zn281 2.024 . S
O297 C284 1.058 . S
C298 O287 1.260 . S
C298 O288 1.258 . S
C299 O295 1.260 . S
C299 O296 1.258 . S
Zn300 O306 1.969 . S
Zn300 O307 1.965 . S
Zn300 O311 2.024 . S
Zn300 O316 1.969 . S
Zn301 O308 1.969 . S
Zn301 O314 1.969 . S
Zn301 O315 1.965 . S
Zn301 O317 2.024 . S
C302 O303 1.229 . S
C302 O311 1.058 . S
O303 C302 1.229 . S
C304 O305 1.229 . S
C304 O317 1.058 . S
O305 C304 1.229 . S
O306 Zn300 1.969 . S
O306 C309 1.267 . S
O307 Zn300 1.965 . S
O307 C318 1.260 . S
O308 Zn301 1.969 . S
O308 C318 1.258 . S
C309 O306 1.267 . S
C309 O310 1.228 . S
O310 C309 1.228 . S
O311 Zn300 2.024 . S
O311 C302 1.058 . S
C312 O313 1.228 . S
C312 O314 1.267 . S
O313 C312 1.228 . S
O314 Zn301 1.969 . S
O314 C312 1.267 . S
O315 Zn301 1.965 . S
O315 C319 1.260 . S
O316 Zn300 1.969 . S
O316 C319 1.258 . S
O317 Zn301 2.024 . S
O317 C304 1.058 . S
C318 O307 1.260 . S
C318 O308 1.258 . S
C319 O315 1.260 . S
C319 O316 1.258 . S
H320 C338 0.951 . S
H321 C340 0.951 . S
H322 C342 0.950 . S
H323 C343 0.950 . S
H324 C345 0.950 1_565 S
H325 C348 0.950 . S
H326 C349 0.950 . S
H327 C351 0.950 . S
H328 C352 0.950 . S
H329 C353 0.951 . S
H330 C355 0.951 . S
H331 C357 0.950 . S
H332 C358 0.950 . S
H333 C360 0.950 . S
H334 C363 0.950 . S
H335 C364 0.950 . S
H336 C366 0.950 . S
H337 C367 0.950 . S
C338 H320 0.951 . S
C338 C339 1.366 . S
C338 C340 1.388 . S
C339 C338 1.366 . S
C339 C343 1.385 . S
C340 H321 0.951 . S
C340 C338 1.388 . S
C340 C341 1.366 . S
C341 C340 1.366 . S
C341 C342 1.414 . S
C341 C344 1.499 . S
C342 H322 0.950 . S
C342 C341 1.414 . S
C342 C343 1.374 . S
C343 H323 0.950 . S
C343 C339 1.385 . S
C343 C342 1.374 . S
C344 C341 1.499 . S
C344 C345 1.373 1_565 S
C344 C346 1.389 1_565 S
C345 H324 0.950 1_545 S
C345 C344 1.373 1_545 S
C345 C361 1.377 . S
C346 C344 1.389 1_545 S
C346 C347 1.533 . S
C346 C360 1.377 . S
C347 C346 1.533 . S
C347 C348 1.377 1_545 S
C347 C352 1.376 . S
C348 H325 0.950 . S
C348 C347 1.377 1_565 S
C348 C349 1.334 . S
C349 H326 0.950 . S
C349 C348 1.334 . S
C349 C350 1.287 . S
C350 C349 1.287 . S
C350 C351 1.524 1_565 S
C350 H369 0.913 . S
C351 H327 0.950 . S
C351 C350 1.524 1_545 S
C351 C352 1.415 . S
C352 H328 0.950 . S
C352 C347 1.376 . S
C352 C351 1.415 . S
C353 H329 0.951 . S
C353 C354 1.366 . S
C353 C355 1.388 . S
C354 C353 1.366 . S
C354 C358 1.385 . S
C355 H330 0.951 . S
C355 C353 1.388 . S
C355 C356 1.366 . S
C356 C355 1.366 . S
C356 C357 1.414 . S
C356 C359 1.499 . S
C357 H331 0.950 . S
C357 C356 1.414 . S
C357 C358 1.374 . S
C358 H332 0.950 . S
C358 C354 1.385 . S
C358 C357 1.374 . S
C359 C356 1.499 . S
C359 C360 1.373 . S
C359 C361 1.389 . S
C360 H333 0.950 . S
C360 C346 1.377 . S
C360 C359 1.373 . S
C361 C345 1.377 . S
C361 C359 1.389 . S
C361 C362 1.524 . S
C362 C361 1.524 . S
C362 C363 1.397 . S
C362 C367 1.363 . S
C363 H334 0.950 . S
C363 C362 1.397 . S
C363 C364 1.334 . S
C364 H335 0.950 . S
C364 C363 1.334 . S
C364 C365 1.287 . S
C365 C364 1.287 . S
C365 C366 1.524 . S
C365 H368 0.999 . S
C366 H336 0.950 . S
C366 C365 1.524 . S
C366 C367 1.415 . S
C367 H337 0.950 . S
C367 C362 1.363 . S
C367 C366 1.415 . S
H368 C365 0.999 . S
H369 C350 0.913 . S
H370 C388 0.951 . S
H371 C390 0.951 . S
H372 C392 0.950 . S
H373 C393 0.950 . S
H374 C395 0.974 . S
H375 C398 0.950 . S
H376 C399 0.950 . S
H377 C401 0.950 . S
H378 C402 0.950 1_455 S
H379 C403 0.951 . S
H380 C405 0.951 . S
H381 C407 0.950 . S
H382 C408 0.950 . S
H383 C410 0.950 . S
H384 C413 0.950 . S
H385 C414 0.950 . S
H386 C416 0.950 . S
H387 C417 0.950 . S
C388 H370 0.951 . S
C388 C389 1.366 . S
C388 C390 1.388 . S
C389 C388 1.366 . S
C389 C393 1.385 . S
C390 H371 0.951 . S
C390 C388 1.388 . S
C390 C391 1.366 . S
C391 C390 1.366 . S
C391 C392 1.414 . S
C391 C394 1.499 . S
C392 H372 0.950 . S
C392 C391 1.414 . S
C392 C393 1.374 . S
C393 H373 0.950 . S
C393 C389 1.385 . S
C393 C392 1.374 . S
C394 C391 1.499 . S
C394 C395 1.373 1_655 S
C394 C396 1.389 1_655 S
C395 H374 0.974 . S
C395 C394 1.373 1_455 S
C395 C411 1.377 . S
C396 C394 1.389 1_455 S
C396 C397 1.524 1_455 S
C396 C410 1.377 . S
C397 C396 1.524 1_655 S
C397 C398 1.397 . S
C397 C402 1.363 . S
C398 H375 0.950 . S
C398 C397 1.397 . S
C398 C399 1.334 . S
C399 H376 0.950 . S
C399 C398 1.334 . S
C399 C400 1.287 . S
C400 C399 1.287 . S
C400 C401 1.524 . S
C400 H419 0.913 . S
C401 H377 0.950 . S
C401 C400 1.524 . S
C401 C402 1.415 . S
C402 H378 0.950 1_655 S
C402 C397 1.363 . S
C402 C401 1.415 . S
C403 H379 0.951 . S
C403 C404 1.366 . S
C403 C405 1.388 . S
C404 C403 1.366 . S
C404 C408 1.385 . S
C405 H380 0.951 . S
C405 C403 1.388 . S
C405 C406 1.366 . S
C406 C405 1.366 . S
C406 C407 1.414 . S
C406 C409 1.499 . S
C407 H381 0.950 . S
C407 C406 1.414 . S
C407 C408 1.374 . S
C408 H382 0.950 . S
C408 C404 1.385 . S
C408 C407 1.374 . S
C409 C406 1.499 . S
C409 C410 1.373 . S
C409 C411 1.389 . S
C410 H383 0.950 . S
C410 C396 1.377 . S
C410 C409 1.373 . S
C411 C395 1.377 . S
C411 C409 1.389 . S
C411 C412 1.524 . S
C412 C411 1.524 . S
C412 C413 1.397 . S
C412 C417 1.363 . S
C413 H384 0.950 . S
C413 C412 1.397 . S
C413 C414 1.334 . S
C414 H385 0.950 . S
C414 C413 1.334 . S
C414 C415 1.287 . S
C415 C414 1.287 . S
C415 C416 1.524 . S
C415 H418 0.999 . S
C416 H386 0.950 . S
C416 C415 1.524 . S
C416 C417 1.415 . S
C417 H387 0.950 . S
C417 C412 1.363 . S
C417 C416 1.415 . S
H418 C415 0.999 . S
H419 C400 0.913 . S
H420 C438 0.951 . S
H421 C440 0.951 . S
H422 C442 0.950 . S
H423 C443 0.950 . S
H424 C445 0.950 . S
H425 C448 0.950 . S
H426 C449 0.950 1_556 S
H427 C451 0.950 . S
H428 C452 0.950 . S
H429 C453 0.951 . S
H430 C455 0.951 . S
H431 C457 0.950 . S
H432 C458 0.950 . S
H433 C460 0.951 . S
H434 C463 0.950 . S
H435 C464 0.950 . S
H436 C466 0.950 . S
H437 C467 0.950 . S
C438 H420 0.951 . S
C438 C439 1.366 . S
C438 C440 1.388 . S
C439 C438 1.366 . S
C439 C443 1.385 . S
C440 H421 0.951 . S
C440 C438 1.388 . S
C440 C441 1.366 . S
C441 C440 1.366 . S
C441 C442 1.414 . S
C441 C444 1.499 . S
C442 H422 0.950 . S
C442 C441 1.414 . S
C442 C443 1.374 . S
C443 H423 0.950 . S
C443 C439 1.385 . S
C443 C442 1.374 . S
C444 C441 1.499 . S
C444 C445 1.373 . S
C444 C446 1.389 . S
C445 H424 0.950 . S
C445 C444 1.373 . S
C445 C461 1.377 . S
C446 C444 1.389 . S
C446 C447 1.524 . S
C446 C460 1.376 1_565 S
C447 C446 1.524 . S
C447 C448 1.397 . S
C447 C452 1.363 . S
C448 H425 0.950 . S
C448 C447 1.397 . S
C448 C449 1.334 . S
C449 H426 0.950 1_554 S
C449 C448 1.334 . S
C449 C450 1.287 1_554 S
C450 C449 1.287 1_556 S
C450 C451 1.524 1_556 S
C450 H469 0.913 . S
C451 H427 0.950 . S
C451 C450 1.524 1_554 S
C451 C452 1.415 . S
C452 H428 0.950 . S
C452 C447 1.363 . S
C452 C451 1.415 . S
C453 H429 0.951 . S
C453 C454 1.366 . S
C453 C455 1.388 . S
C454 C453 1.366 . S
C454 C458 1.385 . S
C455 H430 0.951 . S
C455 C453 1.388 . S
C455 C456 1.366 . S
C456 C455 1.366 . S
C456 C457 1.414 . S
C456 C459 1.499 . S
C457 H431 0.950 . S
C457 C456 1.414 . S
C457 C458 1.374 . S
C458 H432 0.950 . S
C458 C454 1.385 . S
C458 C457 1.374 . S
C459 C456 1.499 . S
C459 C460 1.373 . S
C459 C461 1.389 1_545 S
C460 H433 0.951 . S
C460 C446 1.376 1_545 S
C460 C459 1.373 . S
C461 C445 1.377 . S
C461 C459 1.389 1_565 S
C461 C462 1.524 . S
C462 C461 1.524 . S
C462 C463 1.397 1_565 S
C462 C467 1.363 . S
C463 H434 0.950 . S
C463 C462 1.397 1_545 S
C463 C464 1.334 . S
C464 H435 0.950 . S
C464 C463 1.334 . S
C464 C465 1.287 . S
C465 C464 1.287 . S
C465 C466 1.524 1_545 S
C465 H468 0.999 . S
C466 H436 0.950 . S
C466 C465 1.524 1_565 S
C466 C467 1.415 . S
C467 H437 0.950 . S
C467 C462 1.363 . S
C467 C466 1.415 . S
H468 C465 0.999 . S
H469 C450 0.913 . S
H470 C488 0.951 . S
H471 C490 0.951 . S
H472 C492 0.950 . S
H473 C493 0.950 . S
H474 C495 0.950 . S
H475 C498 0.950 . S
H476 C499 0.950 . S
H477 C501 0.950 . S
H478 C502 0.950 . S
H479 C503 0.951 . S
H480 C505 0.951 . S
H481 C507 0.950 . S
H482 C508 0.950 . S
H483 C510 0.950 1_455 S
H484 C513 0.950 . S
H485 C514 0.950 . S
H486 C516 0.953 . S
H487 C517 0.950 . S
C488 H470 0.951 . S
C488 C489 1.366 . S
C488 C490 1.388 . S
C489 C488 1.366 . S
C489 C493 1.385 . S
C490 H471 0.951 . S
C490 C488 1.388 . S
C490 C491 1.366 . S
C491 C490 1.366 . S
C491 C492 1.414 . S
C491 C494 1.499 . S
C492 H472 0.950 . S
C492 C491 1.414 . S
C492 C493 1.374 . S
C493 H473 0.950 . S
C493 C489 1.385 . S
C493 C492 1.374 . S
C494 C491 1.499 . S
C494 C495 1.373 . S
C494 C496 1.389 . S
C495 H474 0.950 . S
C495 C494 1.373 . S
C495 C511 1.377 . S
C496 C494 1.389 . S
C496 C497 1.524 . S
C496 C510 1.377 . S
C497 C496 1.524 . S
C497 C498 1.397 . S
C497 C502 1.363 . S
C498 H475 0.950 . S
C498 C497 1.397 . S
C498 C499 1.334 . S
C499 H476 0.950 . S
C499 C498 1.334 . S
C499 C500 1.287 . S
C500 C499 1.287 . S
C500 C501 1.524 . S
C500 H519 0.913 . S
C501 H477 0.950 . S
C501 C500 1.524 . S
C501 C502 1.415 . S
C502 H478 0.950 . S
C502 C497 1.363 . S
C502 C501 1.415 . S
C503 H479 0.951 . S
C503 C504 1.366 . S
C503 C505 1.388 . S
C504 C503 1.366 . S
C504 C508 1.385 . S
C505 H480 0.951 . S
C505 C503 1.388 . S
C505 C506 1.366 . S
C506 C505 1.366 . S
C506 C507 1.414 . S
C506 C509 1.499 . S
C507 H481 0.950 . S
C507 C506 1.414 . S
C507 C508 1.374 . S
C508 H482 0.950 . S
C508 C504 1.385 . S
C508 C507 1.374 . S
C509 C506 1.499 . S
C509 C510 1.373 1_455 S
C509 C511 1.389 1_455 S
C510 H483 0.950 1_655 S
C510 C496 1.377 . S
C510 C509 1.373 1_655 S
C511 C495 1.377 . S
C511 C509 1.389 1_655 S
C511 C512 1.526 . S
C512 C511 1.526 . S
C512 C513 1.395 1_655 S
C512 C517 1.364 . S
C513 H484 0.950 . S
C513 C512 1.395 1_455 S
C513 C514 1.334 . S
C514 H485 0.950 . S
C514 C513 1.334 . S
C514 C515 1.287 . S
C515 C514 1.287 . S
C515 C516 1.524 . S
C515 H518 0.999 . S
C516 H486 0.953 . S
C516 C515 1.524 . S
C516 C517 1.415 1_455 S
C517 H487 0.950 . S
C517 C512 1.364 . S
C517 C516 1.415 1_655 S
H518 C515 0.999 . S
H519 C500 0.913 . S
H520 C538 0.951 . S
H521 C540 0.951 1_556 S
H522 C542 0.950 . S
H523 C543 0.950 . S
H524 C545 0.950 . S
H525 C548 0.950 1_554 S
H526 C549 0.950 . S
H527 C551 0.950 . S
H528 C552 0.950 . S
H529 C553 0.951 . S
H530 C555 0.951 . S
H531 C557 0.950 . S
H532 C558 0.950 . S
H533 C560 0.950 . S
H534 C563 0.950 . S
H535 C564 0.950 . S
H536 C566 0.950 . S
H537 C567 0.950 . S
C538 H520 0.951 . S
C538 C539 1.366 . S
C538 C540 1.388 . S
C539 C538 1.366 . S
C539 C543 1.385 . S
C540 H521 0.951 1_554 S
C540 C538 1.388 . S
C540 C541 1.366 . S
C541 C540 1.366 . S
C541 C542 1.414 . S
C541 C544 1.499 . S
C542 H522 0.950 . S
C542 C541 1.414 . S
C542 C543 1.374 . S
C543 H523 0.950 . S
C543 C539 1.385 . S
C543 C542 1.374 . S
C544 C541 1.499 . S
C544 C545 1.373 . S
C544 C546 1.389 1_554 S
C545 H524 0.950 . S
C545 C544 1.373 . S
C545 C561 1.377 . S
C546 C544 1.389 1_556 S
C546 C547 1.524 . S
C546 C560 1.377 . S
C547 C546 1.524 . S
C547 C548 1.397 . S
C547 C552 1.363 . S
C548 H525 0.950 1_556 S
C548 C547 1.397 . S
C548 C549 1.334 . S
C549 H526 0.950 . S
C549 C548 1.334 . S
C549 C550 1.287 . S
C550 C549 1.287 . S
C550 C551 1.524 . S
C550 H569 0.913 . S
C551 H527 0.950 . S
C551 C550 1.524 . S
C551 C552 1.415 . S
C552 H528 0.950 . S
C552 C547 1.363 . S
C552 C551 1.415 . S
C553 H529 0.951 . S
C553 C554 1.366 1_554 S
C553 C555 1.388 . S
C554 C553 1.366 1_556 S
C554 C558 1.385 . S
C555 H530 0.951 . S
C555 C553 1.388 . S
C555 C556 1.366 . S
C556 C555 1.366 . S
C556 C557 1.414 1_554 S
C556 C559 1.499 . S
C557 H531 0.950 . S
C557 C556 1.414 1_556 S
C557 C558 1.374 . S
C558 H532 0.950 . S
C558 C554 1.385 . S
C558 C557 1.374 . S
C559 C556 1.499 . S
C559 C560 1.373 1_554 S
C559 C561 1.389 . S
C560 H533 0.950 . S
C560 C546 1.377 . S
C560 C559 1.373 1_556 S
C561 C545 1.377 . S
C561 C559 1.389 . S
C561 C562 1.524 . S
C562 C561 1.524 . S
C562 C563 1.397 . S
C562 C567 1.363 . S
C563 H534 0.950 . S
C563 C562 1.397 . S
C563 C564 1.334 . S
C564 H535 0.950 . S
C564 C563 1.334 . S
C564 C565 1.287 . S
C565 C564 1.287 . S
C565 C566 1.524 . S
C565 H568 0.999 . S
C566 H536 0.950 . S
C566 C565 1.524 . S
C566 C567 1.415 . S
C567 H537 0.950 . S
C567 C562 1.363 . S
C567 C566 1.415 . S
H568 C565 0.999 . S
H569 C550 0.913 . S
H570 C588 0.951 . S
H571 C590 0.951 . S
H572 C592 0.950 . S
H573 C593 0.950 . S
H574 C595 0.950 1_554 S
H575 C598 0.950 . S
H576 C599 0.950 . S
H577 C601 0.950 . S
H578 C602 0.950 . S
H579 C603 0.951 . S
H580 C605 0.951 1_554 S
H581 C607 0.950 . S
H582 C608 0.950 . S
H583 C610 0.950 . S
H584 C613 0.950 . S
H585 C614 0.950 . S
H586 C616 0.950 . S
H587 C617 0.950 . S
C588 H570 0.951 . S
C588 C589 1.366 1_556 S
C588 C590 1.388 . S
C589 C588 1.366 1_554 S
C589 C593 1.385 . S
C590 H571 0.951 . S
C590 C588 1.388 . S
C590 C591 1.359 1_556 S
C591 C590 1.359 1_554 S
C591 C592 1.423 . S
C591 C594 1.496 1_554 S
C592 H572 0.950 . S
C592 C591 1.423 . S
C592 C593 1.374 . S
C593 H573 0.950 . S
C593 C589 1.385 . S
C593 C592 1.374 . S
C594 C591 1.496 1_556 S
C594 C595 1.373 . S
C594 C596 1.389 . S
C595 H574 0.950 1_556 S
C595 C594 1.373 . S
C595 C611 1.377 . S
C596 C594 1.389 . S
C596 C597 1.524 . S
C596 C610 1.377 . S
C597 C596 1.524 . S
C597 C598 1.397 1_556 S
C597 C602 1.363 . S
C598 H575 0.950 . S
C598 C597 1.397 1_554 S
C598 C599 1.334 . S
C599 H576 0.950 . S
C599 C598 1.334 . S
C599 C600 1.287 1_554 S
C600 C599 1.287 1_556 S
C600 C601 1.524 . S
C600 H619 0.913 . S
C601 H577 0.950 . S
C601 C600 1.524 . S
C601 C602 1.415 . S
C602 H578 0.950 . S
C602 C597 1.363 . S
C602 C601 1.415 . S
C603 H579 0.951 . S
C603 C604 1.366 . S
C603 C605 1.388 . S
C604 C603 1.366 . S
C604 C608 1.385 . S
C605 H580 0.951 1_556 S
C605 C603 1.388 . S
C605 C606 1.366 . S
C606 C605 1.366 . S
C606 C607 1.414 . S
C606 C609 1.499 . S
C607 H581 0.950 . S
C607 C606 1.414 . S
C607 C608 1.374 . S
C608 H582 0.950 . S
C608 C604 1.385 . S
C608 C607 1.374 . S
C609 C606 1.499 . S
C609 C610 1.373 . S
C609 C611 1.389 . S
C610 H583 0.950 . S
C610 C596 1.377 . S
C610 C609 1.373 . S
C611 C595 1.377 . S
C611 C609 1.389 . S
C611 C612 1.524 . S
C612 C611 1.524 . S
C612 C613 1.397 . S
C612 C617 1.363 1_556 S
C613 H584 0.950 . S
C613 C612 1.397 . S
C613 C614 1.334 . S
C614 H585 0.950 . S
C614 C613 1.334 . S
C614 C615 1.287 . S
C615 C614 1.287 . S
C615 C616 1.524 1_556 S
C615 H618 0.999 . S
C616 H586 0.950 . S
C616 C615 1.524 1_554 S
C616 C617 1.415 . S
C617 H587 0.950 . S
C617 C612 1.363 1_554 S
C617 C616 1.415 . S
H618 C615 0.999 . S
H619 C600 0.913 . S
H620 C638 0.951 . S
H621 C640 0.951 . S
H622 C642 0.950 1_556 S
H623 C643 0.950 . S
H624 C645 0.950 . S
H625 C648 0.950 . S
H626 C649 0.950 . S
H627 C651 0.950 . S
H628 C652 0.950 . S
H629 C653 0.951 . S
H630 C655 0.951 . S
H631 C657 0.950 . S
H632 C658 0.950 . S
H633 C660 0.950 . S
H634 C663 0.950 . S
H635 C664 0.950 . S
H636 C666 0.950 . S
H637 C667 0.950 . S
C638 H620 0.951 . S
C638 C639 1.366 . S
C638 C640 1.388 . S
C639 C638 1.366 . S
C639 C643 1.385 . S
C640 H621 0.951 . S
C640 C638 1.388 . S
C640 C641 1.366 . S
C641 C640 1.366 . S
C641 C642 1.414 . S
C641 C644 1.499 . S
C642 H622 0.950 1_554 S
C642 C641 1.414 . S
C642 C643 1.374 . S
C643 H623 0.950 . S
C643 C639 1.385 . S
C643 C642 1.374 . S
C644 C641 1.499 . S
C644 C645 1.373 1_554 S
C644 C646 1.389 . S
C645 H624 0.950 . S
C645 C644 1.373 1_556 S
C645 C661 1.377 . S
C646 C644 1.389 . S
C646 C647 1.524 . S
C646 C660 1.377 . S
C647 C646 1.524 . S
C647 C648 1.397 . S
C647 C652 1.363 . S
C648 H625 0.950 . S
C648 C647 1.397 . S
C648 C649 1.334 . S
C649 H626 0.950 . S
C649 C648 1.334 . S
C649 C650 1.287 . S
C650 C649 1.287 . S
C650 C651 1.524 . S
C650 H669 0.913 . S
C651 H627 0.950 . S
C651 C650 1.524 . S
C651 C652 1.415 . S
C652 H628 0.950 . S
C652 C647 1.363 . S
C652 C651 1.415 . S
C653 H629 0.951 . S
C653 C654 1.366 . S
C653 C655 1.388 . S
C654 C653 1.366 . S
C654 C658 1.385 1_556 S
C655 H630 0.951 . S
C655 C653 1.388 . S
C655 C656 1.379 . S
C656 C655 1.379 . S
C656 C657 1.404 1_556 S
C656 C659 1.494 1_556 S
C657 H631 0.950 . S
C657 C656 1.404 1_554 S
C657 C658 1.374 . S
C658 H632 0.950 . S
C658 C654 1.385 1_554 S
C658 C657 1.374 . S
C659 C656 1.494 1_554 S
C659 C660 1.373 . S
C659 C661 1.389 1_554 S
C660 H633 0.950 . S
C660 C646 1.377 . S
C660 C659 1.373 . S
C661 C645 1.377 . S
C661 C659 1.389 1_556 S
C661 C662 1.524 . S
C662 C661 1.524 . S
C662 C663 1.397 . S
C662 C667 1.363 . S
C663 H634 0.950 . S
C663 C662 1.397 . S
C663 C664 1.334 . S
C664 H635 0.950 . S
C664 C663 1.334 . S
C664 C665 1.287 . S
C665 C664 1.287 . S
C665 C666 1.524 . S
C665 H668 0.999 . S
C666 H636 0.950 . S
C666 C665 1.524 . S
C666 C667 1.415 . S
C667 H637 0.950 . S
C667 C662 1.363 . S
C667 C666 1.415 . S
H668 C665 0.999 . S
H669 C650 0.913 . S
H670 C688 0.951 . S
H671 C690 0.951 . S
H672 C692 0.950 . S
H673 C693 0.950 . S
H674 C695 0.950 . S
H675 C698 0.950 . S
H676 C699 0.950 . S
H677 C701 0.950 . S
H678 C702 0.950 . S
H679 C703 0.951 . S
H680 C705 0.951 . S
H681 C707 0.950 1_554 S
H682 C708 0.950 . S
H683 C710 0.950 . S
H684 C713 0.950 . S
H685 C714 0.950 . S
H686 C716 0.950 . S
H687 C717 0.950 . S
C688 H670 0.951 . S
C688 C689 1.366 . S
C688 C690 1.388 . S
C689 C688 1.366 . S
C689 C693 1.385 1_554 S
C690 H671 0.951 . S
C690 C688 1.388 . S
C690 C691 1.360 1_554 S
C691 C690 1.360 1_556 S
C691 C692 1.418 . S
C691 C694 1.500 . S
C692 H672 0.950 . S
C692 C691 1.418 . S
C692 C693 1.374 . S
C693 H673 0.950 . S
C693 C689 1.385 1_556 S
C693 C692 1.374 . S
C694 C691 1.500 . S
C694 C695 1.373 . S
C694 C696 1.389 1_556 S
C695 H674 0.950 . S
C695 C694 1.373 . S
C695 C711 1.377 . S
C696 C694 1.389 1_554 S
C696 C697 1.524 . S
C696 C710 1.377 . S
C697 C696 1.524 . S
C697 C698 1.397 . S
C697 C702 1.363 . S
C698 H675 0.950 . S
C698 C697 1.397 . S
C698 C699 1.334 . S
C699 H676 0.950 . S
C699 C698 1.334 . S
C699 C700 1.287 . S
C700 C699 1.287 . S
C700 C701 1.524 . S
C700 H719 0.913 . S
C701 H677 0.950 . S
C701 C700 1.524 . S
C701 C702 1.415 . S
C702 H678 0.950 . S
C702 C697 1.363 . S
C702 C701 1.415 . S
C703 H679 0.951 . S
C703 C704 1.366 . S
C703 C705 1.388 . S
C704 C703 1.366 . S
C704 C708 1.385 . S
C705 H680 0.951 . S
C705 C703 1.388 . S
C705 C706 1.366 . S
C706 C705 1.366 . S
C706 C707 1.414 . S
C706 C709 1.499 . S
C707 H681 0.950 1_556 S
C707 C706 1.414 . S
C707 C708 1.374 . S
C708 H682 0.950 . S
C708 C704 1.385 . S
C708 C707 1.374 . S
C709 C706 1.499 . S
C709 C710 1.373 1_556 S
C709 C711 1.389 . S
C710 H683 0.950 . S
C710 C696 1.377 . S
C710 C709 1.373 1_554 S
C711 C695 1.377 . S
C711 C709 1.389 . S
C711 C712 1.524 . S
C712 C711 1.524 . S
C712 C713 1.397 . S
C712 C717 1.363 . S
C713 H684 0.950 . S
C713 C712 1.397 . S
C713 C714 1.334 . S
C714 H685 0.950 . S
C714 C713 1.334 . S
C714 C715 1.287 . S
C715 C714 1.287 . S
C715 C716 1.524 . S
C715 H718 0.999 . S
C716 H686 0.950 . S
C716 C715 1.524 . S
C716 C717 1.415 . S
C717 H687 0.950 . S
C717 C712 1.363 . S
C717 C716 1.415 . S
H718 C715 0.999 . S
H719 C700 0.913 . S
H720 C738 0.951 . S
H721 C740 0.951 . S
H722 C742 0.950 . S
H723 C743 0.950 . S
H724 C745 0.950 . S
H725 C748 0.950 . S
H726 C749 0.950 . S
H727 C751 0.950 . S
H728 C752 0.950 . S
H729 C753 0.951 . S
H730 C755 0.951 . S
H731 C757 0.950 . S
H732 C758 0.950 . S
H733 C760 0.950 . S
H734 C763 0.950 . S
H735 C764 0.950 . S
H736 C766 0.950 . S
H737 C767 0.950 . S
C738 H720 0.951 . S
C738 C739 1.366 . S
C738 C740 1.388 . S
C739 C738 1.366 . S
C739 C743 1.385 . S
C740 H721 0.951 . S
C740 C738 1.388 . S
C740 C741 1.366 . S
C741 C740 1.366 . S
C741 C742 1.414 . S
C741 C744 1.499 . S
C742 H722 0.950 . S
C742 C741 1.414 . S
C742 C743 1.374 . S
C743 H723 0.950 . S
C743 C739 1.385 . S
C743 C742 1.374 . S
C744 C741 1.499 . S
C744 C745 1.373 . S
C744 C746 1.389 . S
C745 H724 0.950 . S
C745 C744 1.373 . S
C745 C761 1.377 . S
C746 C744 1.389 . S
C746 C747 1.524 . S
C746 C760 1.377 . S
C747 C746 1.524 . S
C747 C748 1.397 . S
C747 C752 1.363 . S
C748 H725 0.950 . S
C748 C747 1.397 . S
C748 C749 1.334 . S
C749 H726 0.950 . S
C749 C748 1.334 . S
C749 C750 1.287 . S
C750 C749 1.287 . S
C750 C751 1.524 . S
C750 H769 0.913 . S
C751 H727 0.950 . S
C751 C750 1.524 . S
C751 C752 1.415 . S
C752 H728 0.950 . S
C752 C747 1.363 . S
C752 C751 1.415 . S
C753 H729 0.951 . S
C753 C754 1.366 . S
C753 C755 1.388 . S
C754 C753 1.366 . S
C754 C758 1.385 . S
C755 H730 0.951 . S
C755 C753 1.388 . S
C755 C756 1.366 . S
C756 C755 1.366 . S
C756 C757 1.414 . S
C756 C759 1.499 . S
C757 H731 0.950 . S
C757 C756 1.414 . S
C757 C758 1.374 . S
C758 H732 0.950 . S
C758 C754 1.385 . S
C758 C757 1.374 . S
C759 C756 1.499 . S
C759 C760 1.373 . S
C759 C761 1.389 . S
C760 H733 0.950 . S
C760 C746 1.377 . S
C760 C759 1.373 . S
C761 C745 1.377 . S
C761 C759 1.389 . S
C761 C762 1.524 . S
C762 C761 1.524 . S
C762 C763 1.397 . S
C762 C767 1.363 . S
C763 H734 0.950 . S
C763 C762 1.397 . S
C763 C764 1.334 . S
C764 H735 0.950 . S
C764 C763 1.334 . S
C764 C765 1.287 . S
C765 C764 1.287 . S
C765 C766 1.524 . S
C765 H768 0.999 . S
C766 H736 0.950 . S
C766 C765 1.524 . S
C766 C767 1.415 . S
C767 H737 0.950 . S
C767 C762 1.363 . S
C767 C766 1.415 . S
H768 C765 0.999 . S
H769 C750 0.913 . S
H770 C788 0.951 . S
H771 C790 0.951 . S
H772 C792 0.950 . S
H773 C793 0.950 . S
H774 C795 0.950 . S
H775 C798 0.950 . S
H776 C799 0.950 . S
H777 C801 0.950 . S
H778 C802 0.950 . S
H779 C803 0.951 . S
H780 C805 0.951 . S
H781 C807 0.950 . S
H782 C808 0.950 . S
H783 C810 0.950 . S
H784 C813 0.950 . S
H785 C814 0.950 . S
H786 C816 0.950 . S
H787 C817 0.950 . S
C788 H770 0.951 . S
C788 C789 1.366 . S
C788 C790 1.388 . S
C789 C788 1.366 . S
C789 C793 1.385 . S
C790 H771 0.951 . S
C790 C788 1.388 . S
C790 C791 1.366 . S
C791 C790 1.366 . S
C791 C792 1.414 . S
C791 C794 1.499 . S
C792 H772 0.950 . S
C792 C791 1.414 . S
C792 C793 1.374 . S
C793 H773 0.950 . S
C793 C789 1.385 . S
C793 C792 1.374 . S
C794 C791 1.499 . S
C794 C795 1.373 . S
C794 C796 1.389 . S
C795 H774 0.950 . S
C795 C794 1.373 . S
C795 C811 1.377 . S
C796 C794 1.389 . S
C796 C797 1.524 . S
C796 C810 1.377 . S
C797 C796 1.524 . S
C797 C798 1.397 . S
C797 C802 1.363 . S
C798 H775 0.950 . S
C798 C797 1.397 . S
C798 C799 1.334 . S
C799 H776 0.950 . S
C799 C798 1.334 . S
C799 C800 1.287 . S
C800 C799 1.287 . S
C800 C801 1.524 . S
C800 H819 0.913 . S
C801 H777 0.950 . S
C801 C800 1.524 . S
C801 C802 1.415 . S
C802 H778 0.950 . S
C802 C797 1.363 . S
C802 C801 1.415 . S
C803 H779 0.951 . S
C803 C804 1.366 . S
C803 C805 1.388 . S
C804 C803 1.366 . S
C804 C808 1.385 . S
C805 H780 0.951 . S
C805 C803 1.388 . S
C805 C806 1.366 . S
C806 C805 1.366 . S
C806 C807 1.414 . S
C806 C809 1.499 . S
C807 H781 0.950 . S
C807 C806 1.414 . S
C807 C808 1.374 . S
C808 H782 0.950 . S
C808 C804 1.385 . S
C808 C807 1.374 . S
C809 C806 1.499 . S
C809 C810 1.373 . S
C809 C811 1.389 . S
C810 H783 0.950 . S
C810 C796 1.377 . S
C810 C809 1.373 . S
C811 C795 1.377 . S
C811 C809 1.389 . S
C811 C812 1.524 . S
C812 C811 1.524 . S
C812 C813 1.397 . S
C812 C817 1.363 . S
C813 H784 0.950 . S
C813 C812 1.397 . S
C813 C814 1.334 . S
C814 H785 0.950 . S
C814 C813 1.334 . S
C814 C815 1.287 . S
C815 C814 1.287 . S
C815 C816 1.524 . S
C815 H818 0.999 . S
C816 H786 0.950 . S
C816 C815 1.524 . S
C816 C817 1.415 . S
C817 H787 0.950 . S
C817 C812 1.363 . S
C817 C816 1.415 . S
H818 C815 0.999 . S
H819 C800 0.913 . S
H820 C838 0.951 . S
H821 C840 0.951 . S
H822 C842 0.950 . S
H823 C843 0.950 . S
H824 C845 0.950 . S
H825 C848 0.950 . S
H826 C849 0.950 . S
H827 C851 0.950 . S
H828 C852 0.950 . S
H829 C853 0.951 . S
H830 C855 0.951 . S
H831 C857 0.950 . S
H832 C858 0.950 . S
H833 C860 0.950 . S
H834 C863 0.950 . S
H835 C864 0.950 . S
H836 C866 0.950 . S
H837 C867 0.950 . S
C838 H820 0.951 . S
C838 C839 1.366 . S
C838 C840 1.388 . S
C839 C838 1.366 . S
C839 C843 1.385 . S
C840 H821 0.951 . S
C840 C838 1.388 . S
C840 C841 1.366 . S
C841 C840 1.366 . S
C841 C842 1.414 . S
C841 C844 1.499 . S
C842 H822 0.950 . S
C842 C841 1.414 . S
C842 C843 1.374 . S
C843 H823 0.950 . S
C843 C839 1.385 . S
C843 C842 1.374 . S
C844 C841 1.499 . S
C844 C845 1.373 . S
C844 C846 1.389 . S
C845 H824 0.950 . S
C845 C844 1.373 . S
C845 C861 1.377 . S
C846 C844 1.389 . S
C846 C847 1.524 . S
C846 C860 1.377 . S
C847 C846 1.524 . S
C847 C848 1.397 . S
C847 C852 1.363 . S
C848 H825 0.950 . S
C848 C847 1.397 . S
C848 C849 1.334 . S
C849 H826 0.950 . S
C849 C848 1.334 . S
C849 C850 1.287 . S
C850 C849 1.287 . S
C850 C851 1.524 . S
C850 H869 0.913 . S
C851 H827 0.950 . S
C851 C850 1.524 . S
C851 C852 1.415 . S
C852 H828 0.950 . S
C852 C847 1.363 . S
C852 C851 1.415 . S
C853 H829 0.951 . S
C853 C854 1.366 . S
C853 C855 1.388 . S
C854 C853 1.366 . S
C854 C858 1.385 . S
C855 H830 0.951 . S
C855 C853 1.388 . S
C855 C856 1.366 . S
C856 C855 1.366 . S
C856 C857 1.414 . S
C856 C859 1.499 . S
C857 H831 0.950 . S
C857 C856 1.414 . S
C857 C858 1.374 . S
C858 H832 0.950 . S
C858 C854 1.385 . S
C858 C857 1.374 . S
C859 C856 1.499 . S
C859 C860 1.373 . S
C859 C861 1.389 . S
C860 H833 0.950 . S
C860 C846 1.377 . S
C860 C859 1.373 . S
C861 C845 1.377 . S
C861 C859 1.389 . S
C861 C862 1.524 . S
C862 C861 1.524 . S
C862 C863 1.397 . S
C862 C867 1.363 . S
C863 H834 0.950 . S
C863 C862 1.397 . S
C863 C864 1.334 . S
C864 H835 0.950 . S
C864 C863 1.334 . S
C864 C865 1.287 . S
C865 C864 1.287 . S
C865 C866 1.524 . S
C865 H868 0.999 . S
C866 H836 0.950 . S
C866 C865 1.524 . S
C866 C867 1.415 . S
C867 H837 0.950 . S
C867 C862 1.363 . S
C867 C866 1.415 . S
H868 C865 0.999 . S
H869 C850 0.913 . S
H870 C888 0.951 . S
H871 C890 0.951 . S
H872 C892 0.950 . S
H873 C893 0.950 . S
H874 C895 0.950 . S
H875 C898 0.950 . S
H876 C899 0.950 . S
H877 C901 0.950 . S
H878 C902 0.950 . S
H879 C903 0.951 . S
H880 C905 0.951 . S
H881 C907 0.950 . S
H882 C908 0.950 . S
H883 C910 0.950 . S
H884 C913 0.950 . S
H885 C914 0.950 . S
H886 C916 0.950 . S
H887 C917 0.950 . S
C888 H870 0.951 . S
C888 C889 1.366 . S
C888 C890 1.388 . S
C889 C888 1.366 . S
C889 C893 1.385 . S
C890 H871 0.951 . S
C890 C888 1.388 . S
C890 C891 1.366 . S
C891 C890 1.366 . S
C891 C892 1.414 . S
C891 C894 1.499 . S
C892 H872 0.950 . S
C892 C891 1.414 . S
C892 C893 1.374 . S
C893 H873 0.950 . S
C893 C889 1.385 . S
C893 C892 1.374 . S
C894 C891 1.499 . S
C894 C895 1.373 . S
C894 C896 1.389 . S
C895 H874 0.950 . S
C895 C894 1.373 . S
C895 C911 1.377 . S
C896 C894 1.389 . S
C896 C897 1.524 . S
C896 C910 1.377 . S
C897 C896 1.524 . S
C897 C898 1.397 . S
C897 C902 1.363 . S
C898 H875 0.950 . S
C898 C897 1.397 . S
C898 C899 1.334 . S
C899 H876 0.950 . S
C899 C898 1.334 . S
C899 C900 1.287 . S
C900 C899 1.287 . S
C900 C901 1.524 . S
C900 H919 0.913 . S
C901 H877 0.950 . S
C901 C900 1.524 . S
C901 C902 1.415 . S
C902 H878 0.950 . S
C902 C897 1.363 . S
C902 C901 1.415 . S
C903 H879 0.951 . S
C903 C904 1.366 . S
C903 C905 1.388 . S
C904 C903 1.366 . S
C904 C908 1.385 . S
C905 H880 0.951 . S
C905 C903 1.388 . S
C905 C906 1.366 . S
C906 C905 1.366 . S
C906 C907 1.414 . S
C906 C909 1.499 . S
C907 H881 0.950 . S
C907 C906 1.414 . S
C907 C908 1.374 . S
C908 H882 0.950 . S
C908 C904 1.385 . S
C908 C907 1.374 . S
C909 C906 1.499 . S
C909 C910 1.373 . S
C909 C911 1.389 . S
C910 H883 0.950 . S
C910 C896 1.377 . S
C910 C909 1.373 . S
C911 C895 1.377 . S
C911 C909 1.389 . S
C911 C912 1.524 . S
C912 C911 1.524 . S
C912 C913 1.397 . S
C912 C917 1.363 . S
C913 H884 0.950 . S
C913 C912 1.397 . S
C913 C914 1.334 . S
C914 H885 0.950 . S
C914 C913 1.334 . S
C914 C915 1.287 . S
C915 C914 1.287 . S
C915 C916 1.524 . S
C915 H918 0.999 . S
C916 H886 0.950 . S
C916 C915 1.524 . S
C916 C917 1.415 . S
C917 H887 0.950 . S
C917 C912 1.363 . S
C917 C916 1.415 . S
H918 C915 0.999 . S
H919 C900 0.913 . S
H920 C938 0.951 . S
H921 C940 0.951 . S
H922 C942 0.950 . S
H923 C943 0.950 . S
H924 C945 0.950 . S
H925 C948 0.950 . S
H926 C949 0.950 . S
H927 C951 0.950 . S
H928 C952 0.950 . S
H929 C953 0.951 . S
H930 C955 0.951 . S
H931 C957 0.950 . S
H932 C958 0.950 . S
H933 C960 0.950 . S
H934 C963 0.950 . S
H935 C964 0.950 . S
H936 C966 0.950 . S
H937 C967 0.950 . S
C938 H920 0.951 . S
C938 C939 1.366 . S
C938 C940 1.388 . S
C939 C938 1.366 . S
C939 C943 1.385 . S
C940 H921 0.951 . S
C940 C938 1.388 . S
C940 C941 1.366 . S
C941 C940 1.366 . S
C941 C942 1.414 . S
C941 C944 1.499 . S
C942 H922 0.950 . S
C942 C941 1.414 . S
C942 C943 1.374 . S
C943 H923 0.950 . S
C943 C939 1.385 . S
C943 C942 1.374 . S
C944 C941 1.499 . S
C944 C945 1.373 . S
C944 C946 1.389 . S
C945 H924 0.950 . S
C945 C944 1.373 . S
C945 C961 1.414 . S
C946 C944 1.389 . S
C946 C947 1.524 . S
C946 C960 1.377 . S
C947 C946 1.524 . S
C947 C948 1.397 . S
C947 C952 1.363 . S
C948 H925 0.950 . S
C948 C947 1.397 . S
C948 C949 1.334 . S
C949 H926 0.950 . S
C949 C948 1.334 . S
C949 C950 1.287 . S
C950 C949 1.287 . S
C950 C951 1.524 . S
C950 H969 0.913 . S
C951 H927 0.950 . S
C951 C950 1.524 . S
C951 C952 1.415 . S
C952 H928 0.950 . S
C952 C947 1.363 . S
C952 C951 1.415 . S
C953 H929 0.951 . S
C953 C954 1.366 . S
C953 C955 1.388 . S
C954 C953 1.366 . S
C954 C958 1.385 . S
C955 H930 0.951 . S
C955 C953 1.388 . S
C955 C956 1.366 . S
C956 C955 1.366 . S
C956 C957 1.414 . S
C956 C959 1.499 . S
C957 H931 0.950 . S
C957 C956 1.414 . S
C957 C958 1.374 . S
C958 H932 0.950 . S
C958 C954 1.385 . S
C958 C957 1.374 . S
C959 C956 1.499 . S
C959 C960 1.373 1_545 S
C959 C961 1.378 1_545 S
C960 H933 0.950 . S
C960 C946 1.377 . S
C960 C959 1.373 1_565 S
C961 C945 1.414 . S
C961 C959 1.378 1_565 S
C961 C962 1.501 1_565 S
C962 C961 1.501 1_545 S
C962 C963 1.397 . S
C962 C967 1.363 . S
C963 H934 0.950 . S
C963 C962 1.397 . S
C963 C964 1.334 . S
C964 H935 0.950 . S
C964 C963 1.334 . S
C964 C965 1.287 . S
C965 C964 1.287 . S
C965 C966 1.524 . S
C965 H968 0.999 . S
C966 H936 0.950 . S
C966 C965 1.524 . S
C966 C967 1.415 . S
C967 H937 0.950 . S
C967 C962 1.363 . S
C967 C966 1.415 . S
H968 C965 0.999 . S
H969 C950 0.913 . S
H970 C988 0.951 . S
H971 C990 0.951 . S
H972 C992 0.950 . S
H973 C993 0.950 . S
H974 C995 0.950 . S
H975 C998 0.950 . S
H976 C999 0.950 . S
H977 C1001 0.950 . S
H978 C1002 0.950 . S
H979 C1003 0.951 . S
H980 C1005 0.951 . S
H981 C1007 0.950 . S
H982 C1008 0.950 . S
H983 C1010 0.950 . S
H984 C1013 0.950 . S
H985 C1014 0.950 . S
H986 C1016 0.950 . S
H987 C1017 0.950 . S
C988 H970 0.951 . S
C988 C989 1.366 . S
C988 C990 1.388 . S
C989 C988 1.366 . S
C989 C993 1.385 . S
C990 H971 0.951 . S
C990 C988 1.388 . S
C990 C991 1.366 . S
C991 C990 1.366 . S
C991 C992 1.414 . S
C991 C994 1.499 . S
C992 H972 0.950 . S
C992 C991 1.414 . S
C992 C993 1.374 . S
C993 H973 0.950 . S
C993 C989 1.385 . S
C993 C992 1.374 . S
C994 C991 1.499 . S
C994 C995 1.373 1_455 S
C994 C996 1.389 1_455 S
C995 H974 0.950 . S
C995 C994 1.373 1_655 S
C995 C1011 1.377 . S
C996 C994 1.389 1_655 S
C996 C997 1.524 1_655 S
C996 C1010 1.377 . S
C997 C996 1.524 1_455 S
C997 C998 1.397 . S
C997 C1002 1.363 . S
C998 H975 0.950 . S
C998 C997 1.397 . S
C998 C999 1.334 . S
C999 H976 0.950 . S
C999 C998 1.334 . S
C999 C1000 1.287 . S
C1000 C999 1.287 . S
C1000 C1001 1.524 . S
C1000 H1019 0.913 . S
C1001 H977 0.950 . S
C1001 C1000 1.524 . S
C1001 C1002 1.415 . S
C1002 H978 0.950 . S
C1002 C997 1.363 . S
C1002 C1001 1.415 . S
C1003 H979 0.951 . S
C1003 C1004 1.366 . S
C1003 C1005 1.388 . S
C1004 C1003 1.366 . S
C1004 C1008 1.385 . S
C1005 H980 0.951 . S
C1005 C1003 1.388 . S
C1005 C1006 1.366 . S
C1006 C1005 1.366 . S
C1006 C1007 1.414 . S
C1006 C1009 1.499 . S
C1007 H981 0.950 . S
C1007 C1006 1.414 . S
C1007 C1008 1.374 . S
C1008 H982 0.950 . S
C1008 C1004 1.385 . S
C1008 C1007 1.374 . S
C1009 C1006 1.499 . S
C1009 C1010 1.373 . S
C1009 C1011 1.389 . S
C1010 H983 0.950 . S
C1010 C996 1.377 . S
C1010 C1009 1.373 . S
C1011 C995 1.377 . S
C1011 C1009 1.389 . S
C1011 C1012 1.524 . S
C1012 C1011 1.524 . S
C1012 C1013 1.397 . S
C1012 C1017 1.363 . S
C1013 H984 0.950 . S
C1013 C1012 1.397 . S
C1013 C1014 1.334 . S
C1014 H985 0.950 . S
C1014 C1013 1.334 . S
C1014 C1015 1.287 . S
C1015 C1014 1.287 . S
C1015 C1016 1.524 . S
C1015 H1018 0.999 . S
C1016 H986 0.950 . S
C1016 C1015 1.524 . S
C1016 C1017 1.415 . S
C1017 H987 0.950 . S
C1017 C1012 1.363 . S
C1017 C1016 1.415 . S
H1018 C1015 0.999 . S
H1019 C1000 0.913 . S
H1020 C1038 0.951 . S
H1021 C1040 0.951 . S
H1022 C1042 0.950 . S
H1023 C1043 0.950 . S
H1024 C1045 0.950 . S
H1025 C1048 0.950 . S
H1026 C1049 0.950 . S
H1027 C1051 0.950 . S
H1028 C1052 0.954 . S
H1029 C1053 0.951 . S
H1030 C1055 0.951 . S
H1031 C1057 0.950 . S
H1032 C1058 0.950 . S
H1033 C1060 0.950 . S
H1034 C1063 0.950 . S
H1035 C1064 0.950 . S
H1036 C1066 0.950 . S
H1037 C1067 0.950 . S
C1038 H1020 0.951 . S
C1038 C1039 1.366 . S
C1038 C1040 1.388 . S
C1039 C1038 1.366 . S
C1039 C1043 1.385 . S
C1040 H1021 0.951 . S
C1040 C1038 1.388 . S
C1040 C1041 1.366 . S
C1041 C1040 1.366 . S
C1041 C1042 1.414 . S
C1041 C1044 1.499 . S
C1042 H1022 0.950 . S
C1042 C1041 1.414 . S
C1042 C1043 1.374 . S
C1043 H1023 0.950 . S
C1043 C1039 1.385 . S
C1043 C1042 1.374 . S
C1044 C1041 1.499 . S
C1044 C1045 1.373 1_565 S
C1044 C1046 1.372 1_565 S
C1045 H1024 0.950 . S
C1045 C1044 1.373 1_545 S
C1045 C1061 1.377 . S
C1046 C1044 1.372 1_545 S
C1046 C1047 1.492 1_545 S
C1046 C1060 1.430 . S
C1047 C1046 1.492 1_565 S
C1047 C1048 1.397 . S
C1047 C1052 1.363 . S
C1048 H1025 0.950 . S
C1048 C1047 1.397 . S
C1048 C1049 1.334 . S
C1049 H1026 0.950 . S
C1049 C1048 1.334 . S
C1049 C1050 1.287 . S
C1050 C1049 1.287 . S
C1050 C1051 1.524 . S
C1050 H1069 0.913 . S
C1051 H1027 0.950 . S
C1051 C1050 1.524 . S
C1051 C1052 1.415 . S
C1052 H1028 0.954 . S
C1052 C1047 1.363 . S
C1052 C1051 1.415 . S
C1053 H1029 0.951 . S
C1053 C1054 1.366 . S
C1053 C1055 1.388 . S
C1054 C1053 1.366 . S
C1054 C1058 1.385 . S
C1055 H1030 0.951 . S
C1055 C1053 1.388 . S
C1055 C1056 1.366 . S
C1056 C1055 1.366 . S
C1056 C1057 1.414 . S
C1056 C1059 1.499 . S
C1057 H1031 0.950 . S
C1057 C1056 1.414 . S
C1057 C1058 1.374 . S
C1058 H1032 0.950 . S
C1058 C1054 1.385 . S
C1058 C1057 1.374 . S
C1059 C1056 1.499 . S
C1059 C1060 1.373 . S
C1059 C1061 1.389 . S
C1060 H1033 0.950 . S
C1060 C1046 1.430 . S
C1060 C1059 1.373 . S
C1061 C1045 1.377 . S
C1061 C1059 1.389 . S
C1061 C1062 1.524 . S
C1062 C1061 1.524 . S
C1062 C1063 1.397 . S
C1062 C1067 1.363 . S
C1063 H1034 0.950 . S
C1063 C1062 1.397 . S
C1063 C1064 1.334 . S
C1064 H1035 0.950 . S
C1064 C1063 1.334 . S
C1064 C1065 1.287 . S
C1065 C1064 1.287 . S
C1065 C1066 1.524 . S
C1065 H1068 0.999 . S
C1066 H1036 0.950 . S
C1066 C1065 1.524 . S
C1066 C1067 1.415 . S
C1067 H1037 0.950 . S
C1067 C1062 1.363 . S
C1067 C1066 1.415 . S
H1068 C1065 0.999 . S
H1069 C1050 0.913 . S
H1070 C1088 0.951 . S
H1071 C1090 0.951 . S
H1072 C1092 0.950 . S
H1073 C1093 0.950 . S
H1074 C1095 0.950 . S
H1075 C1098 0.950 . S
H1076 C1099 0.950 . S
H1077 C1101 0.950 . S
H1078 C1102 0.950 . S
H1079 C1103 0.951 . S
H1080 C1105 0.951 . S
H1081 C1107 0.950 . S
H1082 C1108 0.950 . S
H1083 C1110 0.950 . S
H1084 C1113 0.950 . S
H1085 C1114 0.950 . S
H1086 C1116 0.950 . S
H1087 C1117 0.950 . S
C1088 H1070 0.951 . S
C1088 C1089 1.366 . S
C1088 C1090 1.388 . S
C1089 C1088 1.366 . S
C1089 C1093 1.385 . S
C1090 H1071 0.951 . S
C1090 C1088 1.388 . S
C1090 C1091 1.366 . S
C1091 C1090 1.366 . S
C1091 C1092 1.414 . S
C1091 C1094 1.499 . S
C1092 H1072 0.950 . S
C1092 C1091 1.414 . S
C1092 C1093 1.374 . S
C1093 H1073 0.950 . S
C1093 C1089 1.385 . S
C1093 C1092 1.374 . S
C1094 C1091 1.499 . S
C1094 C1095 1.373 . S
C1094 C1096 1.389 . S
C1095 H1074 0.950 . S
C1095 C1094 1.373 . S
C1095 C1111 1.377 . S
C1096 C1094 1.389 . S
C1096 C1097 1.524 . S
C1096 C1110 1.377 . S
C1097 C1096 1.524 . S
C1097 C1098 1.397 . S
C1097 C1102 1.363 . S
C1098 H1075 0.950 . S
C1098 C1097 1.397 . S
C1098 C1099 1.334 . S
C1099 H1076 0.950 . S
C1099 C1098 1.334 . S
C1099 C1100 1.287 . S
C1100 C1099 1.287 . S
C1100 C1101 1.524 . S
C1100 H1119 0.913 . S
C1101 H1077 0.950 . S
C1101 C1100 1.524 . S
C1101 C1102 1.415 . S
C1102 H1078 0.950 . S
C1102 C1097 1.363 . S
C1102 C1101 1.415 . S
C1103 H1079 0.951 . S
C1103 C1104 1.366 . S
C1103 C1105 1.388 . S
C1104 C1103 1.366 . S
C1104 C1108 1.385 . S
C1105 H1080 0.951 . S
C1105 C1103 1.388 . S
C1105 C1106 1.366 . S
C1106 C1105 1.366 . S
C1106 C1107 1.414 . S
C1106 C1109 1.499 . S
C1107 H1081 0.950 . S
C1107 C1106 1.414 . S
C1107 C1108 1.374 . S
C1108 H1082 0.950 . S
C1108 C1104 1.385 . S
C1108 C1107 1.374 . S
C1109 C1106 1.499 . S
C1109 C1110 1.373 1_655 S
C1109 C1111 1.389 1_655 S
C1110 H1083 0.950 . S
C1110 C1096 1.377 . S
C1110 C1109 1.373 1_455 S
C1111 C1095 1.377 . S
C1111 C1109 1.389 1_455 S
C1111 C1112 1.524 1_455 S
C1112 C1111 1.524 1_655 S
C1112 C1113 1.397 . S
C1112 C1117 1.363 . S
C1113 H1084 0.950 . S
C1113 C1112 1.397 . S
C1113 C1114 1.334 . S
C1114 H1085 0.950 . S
C1114 C1113 1.334 . S
C1114 C1115 1.287 . S
C1115 C1114 1.287 . S
C1115 C1116 1.524 . S
C1115 H1118 0.999 . S
C1116 H1086 0.950 . S
C1116 C1115 1.524 . S
C1116 C1117 1.415 . S
C1117 H1087 0.950 . S
C1117 C1112 1.363 . S
C1117 C1116 1.415 . S
H1118 C1115 0.999 . S
H1119 C1100 0.913 . S
H1120 C1138 0.951 . S
H1121 C1140 0.951 . S
H1122 C1142 0.950 . S
H1123 C1143 0.950 . S
H1124 C1145 0.950 . S
H1125 C1148 0.950 . S
H1126 C1149 0.950 . S
H1127 C1151 0.950 . S
H1128 C1152 0.950 . S
H1129 C1153 0.951 . S
H1130 C1155 0.951 . S
H1131 C1157 0.950 . S
H1132 C1158 0.950 . S
H1133 C1160 0.950 . S
H1134 C1163 0.950 . S
H1135 C1164 0.950 . S
H1136 C1166 0.950 . S
H1137 C1167 0.950 . S
C1138 H1120 0.951 . S
C1138 C1139 1.366 . S
C1138 C1140 1.388 . S
C1139 C1138 1.366 . S
C1139 C1143 1.385 . S
C1140 H1121 0.951 . S
C1140 C1138 1.388 . S
C1140 C1141 1.366 . S
C1141 C1140 1.366 . S
C1141 C1142 1.414 . S
C1141 C1144 1.499 . S
C1142 H1122 0.950 . S
C1142 C1141 1.414 . S
C1142 C1143 1.374 . S
C1143 H1123 0.950 . S
C1143 C1139 1.385 . S
C1143 C1142 1.374 . S
C1144 C1141 1.499 . S
C1144 C1145 1.373 . S
C1144 C1146 1.389 . S
C1145 H1124 0.950 . S
C1145 C1144 1.373 . S
C1145 C1161 1.377 . S
C1146 C1144 1.389 . S
C1146 C1147 1.524 . S
C1146 C1160 1.377 . S
C1147 C1146 1.524 . S
C1147 C1148 1.396 1_554 S
C1147 C1152 1.363 . S
C1148 H1125 0.950 . S
C1148 C1147 1.396 1_556 S
C1148 C1149 1.335 . S
C1149 H1126 0.950 . S
C1149 C1148 1.335 . S
C1149 C1150 1.287 . S
C1150 C1149 1.287 . S
C1150 C1151 1.524 1_556 S
C1150 H1169 0.913 . S
C1151 H1127 0.950 . S
C1151 C1150 1.524 1_554 S
C1151 C1152 1.415 . S
C1152 H1128 0.950 . S
C1152 C1147 1.363 . S
C1152 C1151 1.415 . S
C1153 H1129 0.951 . S
C1153 C1154 1.366 . S
C1153 C1155 1.388 . S
C1154 C1153 1.366 . S
C1154 C1158 1.385 . S
C1155 H1130 0.951 . S
C1155 C1153 1.388 . S
C1155 C1156 1.366 . S
C1156 C1155 1.366 . S
C1156 C1157 1.414 . S
C1156 C1159 1.499 . S
C1157 H1131 0.950 . S
C1157 C1156 1.414 . S
C1157 C1158 1.374 . S
C1158 H1132 0.950 . S
C1158 C1154 1.385 . S
C1158 C1157 1.374 . S
C1159 C1156 1.499 . S
C1159 C1160 1.373 . S
C1159 C1161 1.389 . S
C1160 H1133 0.950 . S
C1160 C1146 1.377 . S
C1160 C1159 1.373 . S
C1161 C1145 1.377 . S
C1161 C1159 1.389 . S
C1161 C1162 1.524 . S
C1162 C1161 1.524 . S
C1162 C1163 1.397 . S
C1162 C1167 1.363 . S
C1163 H1134 0.950 . S
C1163 C1162 1.397 . S
C1163 C1164 1.334 . S
C1164 H1135 0.950 . S
C1164 C1163 1.334 . S
C1164 C1165 1.287 . S
C1165 C1164 1.287 . S
C1165 C1166 1.524 . S
C1165 H1168 0.999 . S
C1166 H1136 0.950 . S
C1166 C1165 1.524 . S
C1166 C1167 1.415 . S
C1167 H1137 0.950 . S
C1167 C1162 1.363 . S
C1167 C1166 1.415 . S
H1168 C1165 0.999 . S
H1169 C1150 0.913 . S
H1170 C1188 0.951 . S
H1171 C1190 0.951 . S
H1172 C1192 0.950 . S
H1173 C1193 0.950 . S
H1174 C1195 0.950 . S
H1175 C1198 0.950 . S
H1176 C1199 0.950 . S
H1177 C1201 0.950 . S
H1178 C1202 0.950 . S
H1179 C1203 0.951 . S
H1180 C1205 0.951 . S
H1181 C1207 0.950 . S
H1182 C1208 0.950 . S
H1183 C1210 0.950 . S
H1184 C1213 0.950 . S
H1185 C1214 0.950 . S
H1186 C1216 0.950 . S
H1187 C1217 0.950 . S
C1188 H1170 0.951 . S
C1188 C1189 1.366 . S
C1188 C1190 1.388 . S
C1189 C1188 1.366 . S
C1189 C1193 1.385 . S
C1190 H1171 0.951 . S
C1190 C1188 1.388 . S
C1190 C1191 1.366 . S
C1191 C1190 1.366 . S
C1191 C1192 1.414 . S
C1191 C1194 1.499 . S
C1192 H1172 0.950 . S
C1192 C1191 1.414 . S
C1192 C1193 1.374 . S
C1193 H1173 0.950 . S
C1193 C1189 1.385 . S
C1193 C1192 1.374 . S
C1194 C1191 1.499 . S
C1194 C1195 1.373 . S
C1194 C1196 1.389 . S
C1195 H1174 0.950 . S
C1195 C1194 1.373 . S
C1195 C1211 1.377 . S
C1196 C1194 1.389 . S
C1196 C1197 1.524 . S
C1196 C1210 1.377 . S
C1197 C1196 1.524 . S
C1197 C1198 1.397 . S
C1197 C1202 1.363 . S
C1198 H1175 0.950 . S
C1198 C1197 1.397 . S
C1198 C1199 1.334 . S
C1199 H1176 0.950 . S
C1199 C1198 1.334 . S
C1199 C1200 1.287 . S
C1200 C1199 1.287 . S
C1200 C1201 1.524 . S
C1200 H1219 0.913 . S
C1201 H1177 0.950 . S
C1201 C1200 1.524 . S
C1201 C1202 1.415 . S
C1202 H1178 0.950 . S
C1202 C1197 1.363 . S
C1202 C1201 1.415 . S
C1203 H1179 0.951 . S
C1203 C1204 1.366 . S
C1203 C1205 1.388 . S
C1204 C1203 1.366 . S
C1204 C1208 1.385 . S
C1205 H1180 0.951 . S
C1205 C1203 1.388 . S
C1205 C1206 1.366 . S
C1206 C1205 1.366 . S
C1206 C1207 1.414 . S
C1206 C1209 1.499 . S
C1207 H1181 0.950 . S
C1207 C1206 1.414 . S
C1207 C1208 1.374 . S
C1208 H1182 0.950 . S
C1208 C1204 1.385 . S
C1208 C1207 1.374 . S
C1209 C1206 1.499 . S
C1209 C1210 1.373 . S
C1209 C1211 1.389 . S
C1210 H1183 0.950 . S
C1210 C1196 1.377 . S
C1210 C1209 1.373 . S
C1211 C1195 1.377 . S
C1211 C1209 1.389 . S
C1211 C1212 1.524 . S
C1212 C1211 1.524 . S
C1212 C1213 1.397 . S
C1212 C1217 1.363 1_556 S
C1213 H1184 0.950 . S
C1213 C1212 1.397 . S
C1213 C1214 1.334 . S
C1214 H1185 0.950 . S
C1214 C1213 1.334 . S
C1214 C1215 1.287 1_556 S
C1215 C1214 1.287 1_554 S
C1215 C1216 1.524 . S
C1215 H1218 0.999 . S
C1216 H1186 0.950 . S
C1216 C1215 1.524 . S
C1216 C1217 1.415 . S
C1217 H1187 0.950 . S
C1217 C1212 1.363 1_554 S
C1217 C1216 1.415 . S
H1218 C1215 0.999 . S
H1219 C1200 0.913 . S
H1220 C1238 0.951 . S
H1221 C1240 0.951 . S
H1222 C1242 0.950 . S
H1223 C1243 0.950 . S
H1224 C1245 0.950 . S
H1225 C1248 0.950 . S
H1226 C1249 0.950 . S
H1227 C1251 0.950 . S
H1228 C1252 0.950 . S
H1229 C1253 0.951 . S
H1230 C1255 0.951 . S
H1231 C1257 0.950 . S
H1232 C1258 0.950 . S
H1233 C1260 0.950 . S
H1234 C1263 0.950 . S
H1235 C1264 0.950 . S
H1236 C1266 0.950 . S
H1237 C1267 0.950 . S
C1238 H1220 0.951 . S
C1238 C1239 1.366 . S
C1238 C1240 1.388 . S
C1239 C1238 1.366 . S
C1239 C1243 1.385 . S
C1240 H1221 0.951 . S
C1240 C1238 1.388 . S
C1240 C1241 1.366 . S
C1241 C1240 1.366 . S
C1241 C1242 1.414 . S
C1241 C1244 1.499 . S
C1242 H1222 0.950 . S
C1242 C1241 1.414 . S
C1242 C1243 1.374 . S
C1243 H1223 0.950 . S
C1243 C1239 1.385 . S
C1243 C1242 1.374 . S
C1244 C1241 1.499 . S
C1244 C1245 1.373 . S
C1244 C1246 1.389 . S
C1245 H1224 0.950 . S
C1245 C1244 1.373 . S
C1245 C1261 1.377 . S
C1246 C1244 1.389 . S
C1246 C1247 1.524 . S
C1246 C1260 1.377 . S
C1247 C1246 1.524 . S
C1247 C1248 1.397 . S
C1247 C1252 1.363 1_554 S
C1248 H1225 0.950 . S
C1248 C1247 1.397 . S
C1248 C1249 1.334 1_554 S
C1249 H1226 0.950 . S
C1249 C1248 1.334 1_556 S
C1249 C1250 1.287 . S
C1250 C1249 1.287 . S
C1250 C1251 1.524 . S
C1250 H1269 0.913 . S
C1251 H1227 0.950 . S
C1251 C1250 1.524 . S
C1251 C1252 1.415 . S
C1252 H1228 0.950 . S
C1252 C1247 1.363 1_556 S
C1252 C1251 1.415 . S
C1253 H1229 0.951 . S
C1253 C1254 1.366 . S
C1253 C1255 1.388 . S
C1254 C1253 1.366 . S
C1254 C1258 1.385 . S
C1255 H1230 0.951 . S
C1255 C1253 1.388 . S
C1255 C1256 1.366 . S
C1256 C1255 1.366 . S
C1256 C1257 1.414 . S
C1256 C1259 1.499 . S
C1257 H1231 0.950 . S
C1257 C1256 1.414 . S
C1257 C1258 1.374 . S
C1258 H1232 0.950 . S
C1258 C1254 1.385 . S
C1258 C1257 1.374 . S
C1259 C1256 1.499 . S
C1259 C1260 1.373 . S
C1259 C1261 1.389 . S
C1260 H1233 0.950 . S
C1260 C1246 1.377 . S
C1260 C1259 1.373 . S
C1261 C1245 1.377 . S
C1261 C1259 1.389 . S
C1261 C1262 1.524 . S
C1262 C1261 1.524 . S
C1262 C1263 1.397 . S
C1262 C1267 1.363 . S
C1263 H1234 0.950 . S
C1263 C1262 1.397 . S
C1263 C1264 1.334 . S
C1264 H1235 0.950 . S
C1264 C1263 1.334 . S
C1264 C1265 1.287 . S
C1265 C1264 1.287 . S
C1265 C1266 1.524 . S
C1265 H1268 0.999 . S
C1266 H1236 0.950 . S
C1266 C1265 1.524 . S
C1266 C1267 1.415 . S
C1267 H1237 0.950 . S
C1267 C1262 1.363 . S
C1267 C1266 1.415 . S
H1268 C1265 0.999 . S
H1269 C1250 0.913 . S
H1270 C1288 0.951 . S
H1271 C1290 0.951 . S
H1272 C1292 0.950 . S
H1273 C1293 0.950 . S
H1274 C1295 0.950 . S
H1275 C1298 0.950 . S
H1276 C1299 0.950 . S
H1277 C1301 0.950 . S
H1278 C1302 0.950 . S
H1279 C1303 0.951 . S
H1280 C1305 0.951 . S
H1281 C1307 0.950 . S
H1282 C1308 0.950 . S
H1283 C1310 0.950 . S
H1284 C1313 0.950 . S
H1285 C1314 0.950 . S
H1286 C1316 0.950 . S
H1287 C1317 0.950 . S
C1288 H1270 0.951 . S
C1288 C1289 1.366 . S
C1288 C1290 1.388 . S
C1289 C1288 1.366 . S
C1289 C1293 1.385 . S
C1290 H1271 0.951 . S
C1290 C1288 1.388 . S
C1290 C1291 1.366 . S
C1291 C1290 1.366 . S
C1291 C1292 1.414 . S
C1291 C1294 1.499 . S
C1292 H1272 0.950 . S
C1292 C1291 1.414 . S
C1292 C1293 1.374 . S
C1293 H1273 0.950 . S
C1293 C1289 1.385 . S
C1293 C1292 1.374 . S
C1294 C1291 1.499 . S
C1294 C1295 1.373 . S
C1294 C1296 1.389 . S
C1295 H1274 0.950 . S
C1295 C1294 1.373 . S
C1295 C1311 1.377 . S
C1296 C1294 1.389 . S
C1296 C1297 1.524 . S
C1296 C1310 1.377 . S
C1297 C1296 1.524 . S
C1297 C1298 1.397 . S
C1297 C1302 1.363 . S
C1298 H1275 0.950 . S
C1298 C1297 1.397 . S
C1298 C1299 1.334 . S
C1299 H1276 0.950 . S
C1299 C1298 1.334 . S
C1299 C1300 1.287 . S
C1300 C1299 1.287 . S
C1300 C1301 1.524 . S
C1300 H1319 0.913 . S
C1301 H1277 0.950 . S
C1301 C1300 1.524 . S
C1301 C1302 1.415 . S
C1302 H1278 0.950 . S
C1302 C1297 1.363 . S
C1302 C1301 1.415 . S
C1303 H1279 0.951 . S
C1303 C1304 1.366 . S
C1303 C1305 1.388 . S
C1304 C1303 1.366 . S
C1304 C1308 1.385 . S
C1305 H1280 0.951 . S
C1305 C1303 1.388 . S
C1305 C1306 1.366 . S
C1306 C1305 1.366 . S
C1306 C1307 1.414 . S
C1306 C1309 1.499 . S
C1307 H1281 0.950 . S
C1307 C1306 1.414 . S
C1307 C1308 1.374 . S
C1308 H1282 0.950 . S
C1308 C1304 1.385 . S
C1308 C1307 1.374 . S
C1309 C1306 1.499 . S
C1309 C1310 1.373 . S
C1309 C1311 1.389 . S
C1310 H1283 0.950 . S
C1310 C1296 1.377 . S
C1310 C1309 1.373 . S
C1311 C1295 1.377 . S
C1311 C1309 1.389 . S
C1311 C1312 1.524 . S
C1312 C1311 1.524 . S
C1312 C1313 1.397 . S
C1312 C1317 1.363 1_556 S
C1313 H1284 0.950 . S
C1313 C1312 1.397 . S
C1313 C1314 1.334 . S
C1314 H1285 0.950 . S
C1314 C1313 1.334 . S
C1314 C1315 1.287 1_556 S
C1315 C1314 1.287 1_554 S
C1315 C1316 1.524 . S
C1315 H1318 0.999 . S
C1316 H1286 0.950 . S
C1316 C1315 1.524 . S
C1316 C1317 1.415 . S
C1317 H1287 0.950 . S
C1317 C1312 1.363 1_554 S
C1317 C1316 1.415 . S
H1318 C1315 0.999 . S
H1319 C1300 0.913 . S
H1320 C1338 0.951 . S
H1321 C1340 0.951 . S
H1322 C1342 0.950 . S
H1323 C1343 0.950 . S
H1324 C1345 0.950 . S
H1325 C1348 0.950 . S
H1326 C1349 0.950 . S
H1327 C1351 0.950 . S
H1328 C1352 0.950 . S
H1329 C1353 0.951 . S
H1330 C1355 0.951 . S
H1331 C1357 0.950 . S
H1332 C1358 0.950 . S
H1333 C1360 0.950 . S
H1334 C1363 0.950 . S
H1335 C1364 0.950 . S
H1336 C1366 0.950 . S
H1337 C1367 0.950 . S
C1338 H1320 0.951 . S
C1338 C1339 1.366 . S
C1338 C1340 1.388 . S
C1339 C1338 1.366 . S
C1339 C1343 1.385 . S
C1340 H1321 0.951 . S
C1340 C1338 1.388 . S
C1340 C1341 1.366 . S
C1341 C1340 1.366 . S
C1341 C1342 1.414 . S
C1341 C1344 1.499 . S
C1342 H1322 0.950 . S
C1342 C1341 1.414 . S
C1342 C1343 1.374 . S
C1343 H1323 0.950 . S
C1343 C1339 1.385 . S
C1343 C1342 1.374 . S
C1344 C1341 1.499 . S
C1344 C1345 1.373 . S
C1344 C1346 1.389 . S
C1345 H1324 0.950 . S
C1345 C1344 1.373 . S
C1345 C1361 1.377 . S
C1346 C1344 1.389 . S
C1346 C1347 1.524 . S
C1346 C1360 1.377 . S
C1347 C1346 1.524 . S
C1347 C1348 1.397 . S
C1347 C1352 1.363 . S
C1348 H1325 0.950 . S
C1348 C1347 1.397 . S
C1348 C1349 1.334 . S
C1349 H1326 0.950 . S
C1349 C1348 1.334 . S
C1349 C1350 1.287 . S
C1350 C1349 1.287 . S
C1350 C1351 1.524 . S
C1350 H1369 0.913 . S
C1351 H1327 0.950 . S
C1351 C1350 1.524 . S
C1351 C1352 1.415 . S
C1352 H1328 0.950 . S
C1352 C1347 1.363 . S
C1352 C1351 1.415 . S
C1353 H1329 0.951 . S
C1353 C1354 1.366 . S
C1353 C1355 1.388 . S
C1354 C1353 1.366 . S
C1354 C1358 1.385 . S
C1355 H1330 0.951 . S
C1355 C1353 1.388 . S
C1355 C1356 1.366 . S
C1356 C1355 1.366 . S
C1356 C1357 1.414 . S
C1356 C1359 1.499 . S
C1357 H1331 0.950 . S
C1357 C1356 1.414 . S
C1357 C1358 1.374 . S
C1358 H1332 0.950 . S
C1358 C1354 1.385 . S
C1358 C1357 1.374 . S
C1359 C1356 1.499 . S
C1359 C1360 1.373 . S
C1359 C1361 1.389 . S
C1360 H1333 0.950 . S
C1360 C1346 1.377 . S
C1360 C1359 1.373 . S
C1361 C1345 1.377 . S
C1361 C1359 1.389 . S
C1361 C1362 1.524 . S
C1362 C1361 1.524 . S
C1362 C1363 1.397 . S
C1362 C1367 1.363 . S
C1363 H1334 0.950 . S
C1363 C1362 1.397 . S
C1363 C1364 1.334 . S
C1364 H1335 0.950 . S
C1364 C1363 1.334 . S
C1364 C1365 1.287 . S
C1365 C1364 1.287 . S
C1365 C1366 1.524 . S
C1365 H1368 0.999 . S
C1366 H1336 0.950 . S
C1366 C1365 1.524 . S
C1366 C1367 1.415 . S
C1367 H1337 0.950 . S
C1367 C1362 1.363 . S
C1367 C1366 1.415 . S
H1368 C1365 0.999 . S
H1369 C1350 0.913 . S
H1370 C1388 0.951 . S
H1371 C1390 0.951 . S
H1372 C1392 0.950 . S
H1373 C1393 0.950 . S
H1374 C1395 0.950 . S
H1375 C1398 0.950 . S
H1376 C1399 0.950 . S
H1377 C1401 0.950 . S
H1378 C1402 0.950 . S
H1379 C1403 0.951 . S
H1380 C1405 0.951 . S
H1381 C1407 0.950 . S
H1382 C1408 0.950 . S
H1383 C1410 0.950 . S
H1384 C1413 0.950 . S
H1385 C1414 0.950 . S
H1386 C1416 0.950 . S
H1387 C1417 0.950 . S
C1388 H1370 0.951 . S
C1388 C1389 1.366 . S
C1388 C1390 1.388 . S
C1389 C1388 1.366 . S
C1389 C1393 1.385 . S
C1390 H1371 0.951 . S
C1390 C1388 1.388 . S
C1390 C1391 1.366 . S
C1391 C1390 1.366 . S
C1391 C1392 1.414 . S
C1391 C1394 1.499 . S
C1392 H1372 0.950 . S
C1392 C1391 1.414 . S
C1392 C1393 1.374 . S
C1393 H1373 0.950 . S
C1393 C1389 1.385 . S
C1393 C1392 1.374 . S
C1394 C1391 1.499 . S
C1394 C1395 1.373 . S
C1394 C1396 1.389 . S
C1395 H1374 0.950 . S
C1395 C1394 1.373 . S
C1395 C1411 1.377 . S
C1396 C1394 1.389 . S
C1396 C1397 1.524 . S
C1396 C1410 1.377 . S
C1397 C1396 1.524 . S
C1397 C1398 1.397 . S
C1397 C1402 1.363 . S
C1398 H1375 0.950 . S
C1398 C1397 1.397 . S
C1398 C1399 1.334 . S
C1399 H1376 0.950 . S
C1399 C1398 1.334 . S
C1399 C1400 1.287 . S
C1400 C1399 1.287 . S
C1400 C1401 1.524 . S
C1400 H1419 0.913 . S
C1401 H1377 0.950 . S
C1401 C1400 1.524 . S
C1401 C1402 1.415 . S
C1402 H1378 0.950 . S
C1402 C1397 1.363 . S
C1402 C1401 1.415 . S
C1403 H1379 0.951 . S
C1403 C1404 1.366 . S
C1403 C1405 1.388 . S
C1404 C1403 1.366 . S
C1404 C1408 1.385 . S
C1405 H1380 0.951 . S
C1405 C1403 1.388 . S
C1405 C1406 1.366 . S
C1406 C1405 1.366 . S
C1406 C1407 1.414 . S
C1406 C1409 1.499 . S
C1407 H1381 0.950 . S
C1407 C1406 1.414 . S
C1407 C1408 1.374 . S
C1408 H1382 0.950 . S
C1408 C1404 1.385 . S
C1408 C1407 1.374 . S
C1409 C1406 1.499 . S
C1409 C1410 1.373 . S
C1409 C1411 1.389 . S
C1410 H1383 0.950 . S
C1410 C1396 1.377 . S
C1410 C1409 1.373 . S
C1411 C1395 1.377 . S
C1411 C1409 1.389 . S
C1411 C1412 1.524 . S
C1412 C1411 1.524 . S
C1412 C1413 1.397 . S
C1412 C1417 1.363 . S
C1413 H1384 0.950 . S
C1413 C1412 1.397 . S
C1413 C1414 1.334 . S
C1414 H1385 0.950 . S
C1414 C1413 1.334 . S
C1414 C1415 1.287 . S
C1415 C1414 1.287 . S
C1415 C1416 1.524 . S
C1415 H1418 0.999 . S
C1416 H1386 0.950 . S
C1416 C1415 1.524 . S
C1416 C1417 1.415 . S
C1417 H1387 0.950 . S
C1417 C1412 1.363 . S
C1417 C1416 1.415 . S
H1418 C1415 0.999 . S
H1419 C1400 0.913 . S
H1420 C1438 0.951 . S
H1421 C1440 0.951 . S
H1422 C1442 0.950 . S
H1423 C1443 0.950 . S
H1424 C1445 0.950 . S
H1425 C1448 0.950 . S
H1426 C1449 0.950 . S
H1427 C1451 0.950 . S
H1428 C1452 0.950 . S
H1429 C1453 0.951 . S
H1430 C1455 0.951 . S
H1431 C1457 0.950 . S
H1432 C1458 0.950 . S
H1433 C1460 0.950 . S
H1434 C1463 0.950 . S
H1435 C1464 0.950 . S
H1436 C1466 0.950 . S
H1437 C1467 0.950 . S
C1438 H1420 0.951 . S
C1438 C1439 1.366 . S
C1438 C1440 1.388 . S
C1439 C1438 1.366 . S
C1439 C1443 1.385 . S
C1440 H1421 0.951 . S
C1440 C1438 1.388 . S
C1440 C1441 1.366 . S
C1441 C1440 1.366 . S
C1441 C1442 1.414 . S
C1441 C1444 1.499 . S
C1442 H1422 0.950 . S
C1442 C1441 1.414 . S
C1442 C1443 1.374 . S
C1443 H1423 0.950 . S
C1443 C1439 1.385 . S
C1443 C1442 1.374 . S
C1444 C1441 1.499 . S
C1444 C1445 1.373 . S
C1444 C1446 1.389 . S
C1445 H1424 0.950 . S
C1445 C1444 1.373 . S
C1445 C1461 1.377 . S
C1446 C1444 1.389 . S
C1446 C1447 1.524 . S
C1446 C1460 1.377 . S
C1447 C1446 1.524 . S
C1447 C1448 1.397 . S
C1447 C1452 1.363 . S
C1448 H1425 0.950 . S
C1448 C1447 1.397 . S
C1448 C1449 1.334 . S
C1449 H1426 0.950 . S
C1449 C1448 1.334 . S
C1449 C1450 1.287 . S
C1450 C1449 1.287 . S
C1450 C1451 1.524 . S
C1450 H1469 0.913 . S
C1451 H1427 0.950 . S
C1451 C1450 1.524 . S
C1451 C1452 1.415 . S
C1452 H1428 0.950 . S
C1452 C1447 1.363 . S
C1452 C1451 1.415 . S
C1453 H1429 0.951 . S
C1453 C1454 1.366 . S
C1453 C1455 1.388 . S
C1454 C1453 1.366 . S
C1454 C1458 1.385 . S
C1455 H1430 0.951 . S
C1455 C1453 1.388 . S
C1455 C1456 1.366 . S
C1456 C1455 1.366 . S
C1456 C1457 1.414 . S
C1456 C1459 1.499 . S
C1457 H1431 0.950 . S
C1457 C1456 1.414 . S
C1457 C1458 1.374 . S
C1458 H1432 0.950 . S
C1458 C1454 1.385 . S
C1458 C1457 1.374 . S
C1459 C1456 1.499 . S
C1459 C1460 1.373 . S
C1459 C1461 1.389 . S
C1460 H1433 0.950 . S
C1460 C1446 1.377 . S
C1460 C1459 1.373 . S
C1461 C1445 1.377 . S
C1461 C1459 1.389 . S
C1461 C1462 1.524 . S
C1462 C1461 1.524 . S
C1462 C1463 1.397 . S
C1462 C1467 1.363 . S
C1463 H1434 0.950 . S
C1463 C1462 1.397 . S
C1463 C1464 1.334 . S
C1464 H1435 0.950 . S
C1464 C1463 1.334 . S
C1464 C1465 1.287 . S
C1465 C1464 1.287 . S
C1465 C1466 1.524 . S
C1465 H1468 0.999 . S
C1466 H1436 0.950 . S
C1466 C1465 1.524 . S
C1466 C1467 1.415 . S
C1467 H1437 0.950 . S
C1467 C1462 1.363 . S
C1467 C1466 1.415 . S
H1468 C1465 0.999 . S
H1469 C1450 0.913 . S
H1470 C1488 0.951 . S
H1471 C1490 0.951 . S
H1472 C1492 0.950 . S
H1473 C1493 0.950 . S
H1474 C1495 0.950 . S
H1475 C1498 0.950 . S
H1476 C1499 0.950 . S
H1477 C1501 0.950 . S
H1478 C1502 0.950 . S
H1479 C1503 0.951 . S
H1480 C1505 0.951 . S
H1481 C1507 0.950 . S
H1482 C1508 0.950 . S
H1483 C1510 0.950 . S
H1484 C1513 0.950 . S
H1485 C1514 0.950 . S
H1486 C1516 0.950 . S
H1487 C1517 0.950 . S
C1488 H1470 0.951 . S
C1488 C1489 1.366 . S
C1488 C1490 1.388 . S
C1489 C1488 1.366 . S
C1489 C1493 1.385 . S
C1490 H1471 0.951 . S
C1490 C1488 1.388 . S
C1490 C1491 1.366 . S
C1491 C1490 1.366 . S
C1491 C1492 1.414 . S
C1491 C1494 1.499 . S
C1492 H1472 0.950 . S
C1492 C1491 1.414 . S
C1492 C1493 1.374 . S
C1493 H1473 0.950 . S
C1493 C1489 1.385 . S
C1493 C1492 1.374 . S
C1494 C1491 1.499 . S
C1494 C1495 1.373 . S
C1494 C1496 1.389 . S
C1495 H1474 0.950 . S
C1495 C1494 1.373 . S
C1495 C1511 1.377 . S
C1496 C1494 1.389 . S
C1496 C1497 1.524 . S
C1496 C1510 1.377 . S
C1497 C1496 1.524 . S
C1497 C1498 1.397 . S
C1497 C1502 1.363 . S
C1498 H1475 0.950 . S
C1498 C1497 1.397 . S
C1498 C1499 1.334 . S
C1499 H1476 0.950 . S
C1499 C1498 1.334 . S
C1499 C1500 1.287 . S
C1500 C1499 1.287 . S
C1500 C1501 1.524 . S
C1500 H1519 0.913 . S
C1501 H1477 0.950 . S
C1501 C1500 1.524 . S
C1501 C1502 1.415 . S
C1502 H1478 0.950 . S
C1502 C1497 1.363 . S
C1502 C1501 1.415 . S
C1503 H1479 0.951 . S
C1503 C1504 1.366 . S
C1503 C1505 1.388 . S
C1504 C1503 1.366 . S
C1504 C1508 1.385 . S
C1505 H1480 0.951 . S
C1505 C1503 1.388 . S
C1505 C1506 1.366 . S
C1506 C1505 1.366 . S
C1506 C1507 1.414 . S
C1506 C1509 1.499 . S
C1507 H1481 0.950 . S
C1507 C1506 1.414 . S
C1507 C1508 1.374 . S
C1508 H1482 0.950 . S
C1508 C1504 1.385 . S
C1508 C1507 1.374 . S
C1509 C1506 1.499 . S
C1509 C1510 1.373 . S
C1509 C1511 1.389 . S
C1510 H1483 0.950 . S
C1510 C1496 1.377 . S
C1510 C1509 1.373 . S
C1511 C1495 1.377 . S
C1511 C1509 1.389 . S
C1511 C1512 1.524 . S
C1512 C1511 1.524 . S
C1512 C1513 1.397 . S
C1512 C1517 1.363 . S
C1513 H1484 0.950 . S
C1513 C1512 1.397 . S
C1513 C1514 1.334 . S
C1514 H1485 0.950 . S
C1514 C1513 1.334 . S
C1514 C1515 1.287 . S
C1515 C1514 1.287 . S
C1515 C1516 1.524 . S
C1515 H1518 0.999 . S
C1516 H1486 0.950 . S
C1516 C1515 1.524 . S
C1516 C1517 1.415 . S
C1517 H1487 0.950 . S
C1517 C1512 1.363 . S
C1517 C1516 1.415 . S
H1518 C1515 0.999 . S
H1519 C1500 0.913 . S
H1520 C1538 0.951 . S
H1521 C1540 0.951 . S
H1522 C1542 0.950 . S
H1523 C1543 0.950 . S
H1524 C1545 0.950 . S
H1525 C1548 0.950 . S
H1526 C1549 0.950 . S
H1527 C1551 0.950 . S
H1528 C1552 0.950 . S
H1529 C1553 0.951 . S
H1530 C1555 0.951 . S
H1531 C1557 0.950 . S
H1532 C1558 0.950 . S
H1533 C1560 0.950 . S
H1534 C1563 0.950 . S
H1535 C1564 0.950 1_554 S
H1536 C1566 0.950 . S
H1537 C1567 0.950 . S
C1538 H1520 0.951 . S
C1538 C1539 1.366 . S
C1538 C1540 1.388 . S
C1539 C1538 1.366 . S
C1539 C1543 1.385 . S
C1540 H1521 0.951 . S
C1540 C1538 1.388 . S
C1540 C1541 1.366 . S
C1541 C1540 1.366 . S
C1541 C1542 1.414 . S
C1541 C1544 1.499 . S
C1542 H1522 0.950 . S
C1542 C1541 1.414 . S
C1542 C1543 1.374 . S
C1543 H1523 0.950 . S
C1543 C1539 1.385 . S
C1543 C1542 1.374 . S
C1544 C1541 1.499 . S
C1544 C1545 1.373 . S
C1544 C1546 1.389 . S
C1545 H1524 0.950 . S
C1545 C1544 1.373 . S
C1545 C1561 1.377 . S
C1546 C1544 1.389 . S
C1546 C1547 1.524 . S
C1546 C1560 1.377 . S
C1547 C1546 1.524 . S
C1547 C1548 1.397 . S
C1547 C1552 1.363 . S
C1548 H1525 0.950 . S
C1548 C1547 1.397 . S
C1548 C1549 1.334 . S
C1549 H1526 0.950 . S
C1549 C1548 1.334 . S
C1549 C1550 1.287 . S
C1550 C1549 1.287 . S
C1550 C1551 1.524 . S
C1550 H1569 0.913 . S
C1551 H1527 0.950 . S
C1551 C1550 1.524 . S
C1551 C1552 1.415 . S
C1552 H1528 0.950 . S
C1552 C1547 1.363 . S
C1552 C1551 1.415 . S
C1553 H1529 0.951 . S
C1553 C1554 1.366 1_556 S
C1553 C1555 1.388 . S
C1554 C1553 1.366 1_554 S
C1554 C1558 1.385 . S
C1555 H1530 0.951 . S
C1555 C1553 1.388 . S
C1555 C1556 1.366 . S
C1556 C1555 1.366 . S
C1556 C1557 1.414 1_556 S
C1556 C1559 1.499 . S
C1557 H1531 0.950 . S
C1557 C1556 1.414 1_554 S
C1557 C1558 1.374 . S
C1558 H1532 0.950 . S
C1558 C1554 1.385 . S
C1558 C1557 1.374 . S
C1559 C1556 1.499 . S
C1559 C1560 1.373 . S
C1559 C1561 1.389 . S
C1560 H1533 0.950 . S
C1560 C1546 1.377 . S
C1560 C1559 1.373 . S
C1561 C1545 1.377 . S
C1561 C1559 1.389 . S
C1561 C1562 1.524 . S
C1562 C1561 1.524 . S
C1562 C1563 1.397 . S
C1562 C1567 1.363 . S
C1563 H1534 0.950 . S
C1563 C1562 1.397 . S
C1563 C1564 1.334 . S
C1564 H1535 0.950 1_556 S
C1564 C1563 1.334 . S
C1564 C1565 1.287 . S
C1565 C1564 1.287 . S
C1565 C1566 1.524 . S
C1565 H1568 0.999 . S
C1566 H1536 0.950 . S
C1566 C1565 1.524 . S
C1566 C1567 1.415 . S
C1567 H1537 0.950 . S
C1567 C1562 1.363 . S
C1567 C1566 1.415 . S
H1568 C1565 0.999 . S
H1569 C1550 0.913 . S
H1570 C1588 0.951 . S
H1571 C1590 0.951 . S
H1572 C1592 0.950 . S
H1573 C1593 0.950 . S
H1574 C1595 0.950 . S
H1575 C1598 0.950 . S
H1576 C1599 0.950 . S
H1577 C1601 0.950 . S
H1578 C1602 0.950 . S
H1579 C1603 0.951 . S
H1580 C1605 0.951 . S
H1581 C1607 0.950 . S
H1582 C1608 0.950 . S
H1583 C1610 0.950 . S
H1584 C1613 0.950 . S
H1585 C1614 0.950 . S
H1586 C1616 0.950 . S
H1587 C1617 0.950 . S
C1588 H1570 0.951 . S
C1588 C1589 1.366 . S
C1588 C1590 1.388 1_556 S
C1589 C1588 1.366 . S
C1589 C1593 1.385 . S
C1590 H1571 0.951 . S
C1590 C1588 1.388 1_554 S
C1590 C1591 1.366 . S
C1591 C1590 1.366 . S
C1591 C1592 1.414 . S
C1591 C1594 1.499 . S
C1592 H1572 0.950 . S
C1592 C1591 1.414 . S
C1592 C1593 1.374 1_554 S
C1593 H1573 0.950 . S
C1593 C1589 1.385 . S
C1593 C1592 1.374 1_556 S
C1594 C1591 1.499 . S
C1594 C1595 1.373 . S
C1594 C1596 1.389 . S
C1595 H1574 0.950 . S
C1595 C1594 1.373 . S
C1595 C1611 1.377 . S
C1596 C1594 1.389 . S
C1596 C1597 1.524 . S
C1596 C1610 1.377 . S
C1597 C1596 1.524 . S
C1597 C1598 1.397 1_554 S
C1597 C1602 1.363 . S
C1598 H1575 0.950 . S
C1598 C1597 1.397 1_556 S
C1598 C1599 1.334 . S
C1599 H1576 0.950 . S
C1599 C1598 1.334 . S
C1599 C1600 1.287 . S
C1600 C1599 1.287 . S
C1600 C1601 1.524 . S
C1600 H1619 0.913 . S
C1601 H1577 0.950 . S
C1601 C1600 1.524 . S
C1601 C1602 1.415 1_556 S
C1602 H1578 0.950 . S
C1602 C1597 1.363 . S
C1602 C1601 1.415 1_554 S
C1603 H1579 0.951 . S
C1603 C1604 1.366 . S
C1603 C1605 1.388 . S
C1604 C1603 1.366 . S
C1604 C1608 1.385 . S
C1605 H1580 0.951 . S
C1605 C1603 1.388 . S
C1605 C1606 1.366 . S
C1606 C1605 1.366 . S
C1606 C1607 1.414 . S
C1606 C1609 1.499 . S
C1607 H1581 0.950 . S
C1607 C1606 1.414 . S
C1607 C1608 1.374 . S
C1608 H1582 0.950 . S
C1608 C1604 1.385 . S
C1608 C1607 1.374 . S
C1609 C1606 1.499 . S
C1609 C1610 1.373 . S
C1609 C1611 1.389 . S
C1610 H1583 0.950 . S
C1610 C1596 1.377 . S
C1610 C1609 1.373 . S
C1611 C1595 1.377 . S
C1611 C1609 1.389 . S
C1611 C1612 1.524 . S
C1612 C1611 1.524 . S
C1612 C1613 1.397 . S
C1612 C1617 1.363 . S
C1613 H1584 0.950 . S
C1613 C1612 1.397 . S
C1613 C1614 1.334 . S
C1614 H1585 0.950 . S
C1614 C1613 1.334 . S
C1614 C1615 1.287 . S
C1615 C1614 1.287 . S
C1615 C1616 1.524 . S
C1615 H1618 0.999 . S
C1616 H1586 0.950 . S
C1616 C1615 1.524 . S
C1616 C1617 1.415 . S
C1617 H1587 0.950 . S
C1617 C1612 1.363 . S
C1617 C1616 1.415 . S
H1618 C1615 0.999 . S
H1619 C1600 0.913 . S
H1620 C1638 0.951 . S
H1621 C1640 0.951 . S
H1622 C1642 0.950 . S
H1623 C1643 0.950 . S
H1624 C1645 0.950 . S
H1625 C1648 0.950 . S
H1626 C1649 0.950 1_554 S
H1627 C1651 0.950 . S
H1628 C1652 0.950 . S
H1629 C1653 0.951 . S
H1630 C1655 0.951 . S
H1631 C1657 0.950 . S
H1632 C1658 0.950 . S
H1633 C1660 0.950 . S
H1634 C1663 0.950 . S
H1635 C1664 0.950 . S
H1636 C1666 0.950 . S
H1637 C1667 0.950 . S
C1638 H1620 0.951 . S
C1638 C1639 1.366 1_556 S
C1638 C1640 1.388 . S
C1639 C1638 1.366 1_554 S
C1639 C1643 1.385 . S
C1640 H1621 0.951 . S
C1640 C1638 1.388 . S
C1640 C1641 1.366 . S
C1641 C1640 1.366 . S
C1641 C1642 1.414 1_556 S
C1641 C1644 1.499 . S
C1642 H1622 0.950 . S
C1642 C1641 1.414 1_554 S
C1642 C1643 1.374 . S
C1643 H1623 0.950 . S
C1643 C1639 1.385 . S
C1643 C1642 1.374 . S
C1644 C1641 1.499 . S
C1644 C1645 1.373 . S
C1644 C1646 1.389 . S
C1645 H1624 0.950 . S
C1645 C1644 1.373 . S
C1645 C1661 1.377 . S
C1646 C1644 1.389 . S
C1646 C1647 1.524 . S
C1646 C1660 1.377 . S
C1647 C1646 1.524 . S
C1647 C1648 1.397 . S
C1647 C1652 1.363 . S
C1648 H1625 0.950 . S
C1648 C1647 1.397 . S
C1648 C1649 1.334 . S
C1649 H1626 0.950 1_556 S
C1649 C1648 1.334 . S
C1649 C1650 1.287 . S
C1650 C1649 1.287 . S
C1650 C1651 1.524 . S
C1650 H1669 0.913 . S
C1651 H1627 0.950 . S
C1651 C1650 1.524 . S
C1651 C1652 1.415 . S
C1652 H1628 0.950 . S
C1652 C1647 1.363 . S
C1652 C1651 1.415 . S
C1653 H1629 0.951 . S
C1653 C1654 1.366 . S
C1653 C1655 1.388 . S
C1654 C1653 1.366 . S
C1654 C1658 1.385 . S
C1655 H1630 0.951 . S
C1655 C1653 1.388 . S
C1655 C1656 1.366 . S
C1656 C1655 1.366 . S
C1656 C1657 1.414 . S
C1656 C1659 1.499 . S
C1657 H1631 0.950 . S
C1657 C1656 1.414 . S
C1657 C1658 1.374 . S
C1658 H1632 0.950 . S
C1658 C1654 1.385 . S
C1658 C1657 1.374 . S
C1659 C1656 1.499 . S
C1659 C1660 1.373 . S
C1659 C1661 1.389 . S
C1660 H1633 0.950 . S
C1660 C1646 1.377 . S
C1660 C1659 1.373 . S
C1661 C1645 1.377 . S
C1661 C1659 1.389 . S
C1661 C1662 1.524 . S
C1662 C1661 1.524 . S
C1662 C1663 1.397 . S
C1662 C1667 1.363 . S
C1663 H1634 0.950 . S
C1663 C1662 1.397 . S
C1663 C1664 1.334 . S
C1664 H1635 0.950 . S
C1664 C1663 1.334 . S
C1664 C1665 1.287 . S
C1665 C1664 1.287 . S
C1665 C1666 1.524 . S
C1665 H1668 0.999 . S
C1666 H1636 0.950 . S
C1666 C1665 1.524 . S
C1666 C1667 1.415 . S
C1667 H1637 0.950 . S
C1667 C1662 1.363 . S
C1667 C1666 1.415 . S
H1668 C1665 0.999 . S
H1669 C1650 0.913 . S
H1670 C1688 0.951 . S
H1671 C1690 0.951 . S
H1672 C1692 0.950 . S
H1673 C1693 0.950 . S
H1674 C1695 0.950 . S
H1675 C1698 0.950 . S
H1676 C1699 0.950 . S
H1677 C1701 0.950 . S
H1678 C1702 0.950 . S
H1679 C1703 0.951 . S
H1680 C1705 0.951 . S
H1681 C1707 0.950 . S
H1682 C1708 0.950 . S
H1683 C1710 0.950 . S
H1684 C1713 0.950 . S
H1685 C1714 0.950 . S
H1686 C1716 0.950 . S
H1687 C1717 0.950 . S
C1688 H1670 0.951 . S
C1688 C1689 1.366 . S
C1688 C1690 1.388 1_556 S
C1689 C1688 1.366 . S
C1689 C1693 1.385 1_556 S
C1690 H1671 0.951 . S
C1690 C1688 1.388 1_554 S
C1690 C1691 1.366 . S
C1691 C1690 1.366 . S
C1691 C1692 1.414 . S
C1691 C1694 1.499 . S
C1692 H1672 0.950 . S
C1692 C1691 1.414 . S
C1692 C1693 1.374 . S
C1693 H1673 0.950 . S
C1693 C1689 1.385 1_554 S
C1693 C1692 1.374 . S
C1694 C1691 1.499 . S
C1694 C1695 1.373 . S
C1694 C1696 1.389 . S
C1695 H1674 0.950 . S
C1695 C1694 1.373 . S
C1695 C1711 1.377 . S
C1696 C1694 1.389 . S
C1696 C1697 1.524 . S
C1696 C1710 1.377 . S
C1697 C1696 1.524 . S
C1697 C1698 1.397 . S
C1697 C1702 1.363 . S
C1698 H1675 0.950 . S
C1698 C1697 1.397 . S
C1698 C1699 1.334 . S
C1699 H1676 0.950 . S
C1699 C1698 1.334 . S
C1699 C1700 1.287 . S
C1700 C1699 1.287 . S
C1700 C1701 1.524 . S
C1700 H1719 0.913 . S
C1701 H1677 0.950 . S
C1701 C1700 1.524 . S
C1701 C1702 1.415 . S
C1702 H1678 0.950 . S
C1702 C1697 1.363 . S
C1702 C1701 1.415 . S
C1703 H1679 0.951 . S
C1703 C1704 1.366 . S
C1703 C1705 1.388 . S
C1704 C1703 1.366 . S
C1704 C1708 1.385 . S
C1705 H1680 0.951 . S
C1705 C1703 1.388 . S
C1705 C1706 1.366 . S
C1706 C1705 1.366 . S
C1706 C1707 1.414 . S
C1706 C1709 1.499 . S
C1707 H1681 0.950 . S
C1707 C1706 1.414 . S
C1707 C1708 1.374 . S
C1708 H1682 0.950 . S
C1708 C1704 1.385 . S
C1708 C1707 1.374 . S
C1709 C1706 1.499 . S
C1709 C1710 1.373 . S
C1709 C1711 1.389 . S
C1710 H1683 0.950 . S
C1710 C1696 1.377 . S
C1710 C1709 1.373 . S
C1711 C1695 1.377 . S
C1711 C1709 1.389 . S
C1711 C1712 1.524 . S
C1712 C1711 1.524 . S
C1712 C1713 1.397 . S
C1712 C1717 1.363 . S
C1713 H1684 0.950 . S
C1713 C1712 1.397 . S
C1713 C1714 1.334 . S
C1714 H1685 0.950 . S
C1714 C1713 1.334 . S
C1714 C1715 1.287 . S
C1715 C1714 1.287 . S
C1715 C1716 1.524 . S
C1715 H1718 0.999 . S
C1716 H1686 0.950 . S
C1716 C1715 1.524 . S
C1716 C1717 1.415 . S
C1717 H1687 0.950 . S
C1717 C1712 1.363 . S
C1717 C1716 1.415 . S
H1718 C1715 0.999 . S
H1719 C1700 0.913 . S
H1720 C1738 0.951 . S
H1721 C1740 0.951 . S
H1722 C1742 0.950 . S
H1723 C1743 0.950 . S
H1724 C1745 0.950 . S
H1725 C1748 0.950 . S
H1726 C1749 0.950 . S
H1727 C1751 0.950 . S
H1728 C1752 0.950 . S
H1729 C1753 0.951 . S
H1730 C1755 0.951 . S
H1731 C1757 0.950 . S
H1732 C1758 0.950 . S
H1733 C1760 0.950 . S
H1734 C1763 0.950 . S
H1735 C1764 0.950 . S
H1736 C1766 0.950 . S
H1737 C1767 0.950 . S
C1738 H1720 0.951 . S
C1738 C1739 1.366 . S
C1738 C1740 1.388 . S
C1739 C1738 1.366 . S
C1739 C1743 1.385 . S
C1740 H1721 0.951 . S
C1740 C1738 1.388 . S
C1740 C1741 1.366 . S
C1741 C1740 1.366 . S
C1741 C1742 1.414 . S
C1741 C1744 1.499 . S
C1742 H1722 0.950 . S
C1742 C1741 1.414 . S
C1742 C1743 1.374 . S
C1743 H1723 0.950 . S
C1743 C1739 1.385 . S
C1743 C1742 1.374 . S
C1744 C1741 1.499 . S
C1744 C1745 1.373 . S
C1744 C1746 1.389 . S
C1745 H1724 0.950 . S
C1745 C1744 1.373 . S
C1745 C1761 1.377 . S
C1746 C1744 1.389 . S
C1746 C1747 1.524 . S
C1746 C1760 1.377 . S
C1747 C1746 1.524 . S
C1747 C1748 1.397 . S
C1747 C1752 1.363 . S
C1748 H1725 0.950 . S
C1748 C1747 1.397 . S
C1748 C1749 1.334 . S
C1749 H1726 0.950 . S
C1749 C1748 1.334 . S
C1749 C1750 1.287 . S
C1750 C1749 1.287 . S
C1750 C1751 1.524 . S
C1750 H1769 0.913 . S
C1751 H1727 0.950 . S
C1751 C1750 1.524 . S
C1751 C1752 1.415 . S
C1752 H1728 0.950 . S
C1752 C1747 1.363 . S
C1752 C1751 1.415 . S
C1753 H1729 0.951 . S
C1753 C1754 1.366 . S
C1753 C1755 1.388 . S
C1754 C1753 1.366 . S
C1754 C1758 1.385 . S
C1755 H1730 0.951 . S
C1755 C1753 1.388 . S
C1755 C1756 1.366 . S
C1756 C1755 1.366 . S
C1756 C1757 1.414 . S
C1756 C1759 1.499 . S
C1757 H1731 0.950 . S
C1757 C1756 1.414 . S
C1757 C1758 1.374 . S
C1758 H1732 0.950 . S
C1758 C1754 1.385 . S
C1758 C1757 1.374 . S
C1759 C1756 1.499 . S
C1759 C1760 1.373 . S
C1759 C1761 1.389 . S
C1760 H1733 0.950 . S
C1760 C1746 1.377 . S
C1760 C1759 1.373 . S
C1761 C1745 1.377 . S
C1761 C1759 1.389 . S
C1761 C1762 1.524 . S
C1762 C1761 1.524 . S
C1762 C1763 1.397 . S
C1762 C1767 1.363 . S
C1763 H1734 0.950 . S
C1763 C1762 1.397 . S
C1763 C1764 1.334 . S
C1764 H1735 0.950 . S
C1764 C1763 1.334 . S
C1764 C1765 1.287 . S
C1765 C1764 1.287 . S
C1765 C1766 1.524 . S
C1765 H1768 0.999 . S
C1766 H1736 0.950 . S
C1766 C1765 1.524 . S
C1766 C1767 1.415 . S
C1767 H1737 0.950 . S
C1767 C1762 1.363 . S
C1767 C1766 1.415 . S
H1768 C1765 0.999 . S
H1769 C1750 0.913 . S
H1770 C1788 0.951 . S
H1771 C1790 0.951 . S
H1772 C1792 0.950 . S
H1773 C1793 0.950 . S
H1774 C1795 0.950 . S
H1775 C1798 0.950 . S
H1776 C1799 0.950 . S
H1777 C1801 0.950 . S
H1778 C1802 0.950 . S
H1779 C1803 0.951 . S
H1780 C1805 0.951 . S
H1781 C1807 0.950 . S
H1782 C1808 0.950 . S
H1783 C1810 0.950 . S
H1784 C1813 0.950 . S
H1785 C1814 0.950 . S
H1786 C1816 0.950 . S
H1787 C1817 0.950 . S
C1788 H1770 0.951 . S
C1788 C1789 1.366 . S
C1788 C1790 1.388 . S
C1789 C1788 1.366 . S
C1789 C1793 1.385 . S
C1790 H1771 0.951 . S
C1790 C1788 1.388 . S
C1790 C1791 1.366 . S
C1791 C1790 1.366 . S
C1791 C1792 1.414 . S
C1791 C1794 1.499 . S
C1792 H1772 0.950 . S
C1792 C1791 1.414 . S
C1792 C1793 1.374 . S
C1793 H1773 0.950 . S
C1793 C1789 1.385 . S
C1793 C1792 1.374 . S
C1794 C1791 1.499 . S
C1794 C1795 1.373 . S
C1794 C1796 1.389 . S
C1795 H1774 0.950 . S
C1795 C1794 1.373 . S
C1795 C1811 1.377 . S
C1796 C1794 1.389 . S
C1796 C1797 1.524 . S
C1796 C1810 1.377 . S
C1797 C1796 1.524 . S
C1797 C1798 1.397 . S
C1797 C1802 1.363 . S
C1798 H1775 0.950 . S
C1798 C1797 1.397 . S
C1798 C1799 1.334 . S
C1799 H1776 0.950 . S
C1799 C1798 1.334 . S
C1799 C1800 1.287 . S
C1800 C1799 1.287 . S
C1800 C1801 1.524 . S
C1800 H1819 0.913 . S
C1801 H1777 0.950 . S
C1801 C1800 1.524 . S
C1801 C1802 1.415 . S
C1802 H1778 0.950 . S
C1802 C1797 1.363 . S
C1802 C1801 1.415 . S
C1803 H1779 0.951 . S
C1803 C1804 1.366 . S
C1803 C1805 1.388 . S
C1804 C1803 1.366 . S
C1804 C1808 1.385 . S
C1805 H1780 0.951 . S
C1805 C1803 1.388 . S
C1805 C1806 1.366 . S
C1806 C1805 1.366 . S
C1806 C1807 1.414 . S
C1806 C1809 1.499 . S
C1807 H1781 0.950 . S
C1807 C1806 1.414 . S
C1807 C1808 1.374 . S
C1808 H1782 0.950 . S
C1808 C1804 1.385 . S
C1808 C1807 1.374 . S
C1809 C1806 1.499 . S
C1809 C1810 1.373 . S
C1809 C1811 1.389 . S
C1810 H1783 0.950 . S
C1810 C1796 1.377 . S
C1810 C1809 1.373 . S
C1811 C1795 1.377 . S
C1811 C1809 1.389 . S
C1811 C1812 1.524 . S
C1812 C1811 1.524 . S
C1812 C1813 1.397 . S
C1812 C1817 1.363 . S
C1813 H1784 0.950 . S
C1813 C1812 1.397 . S
C1813 C1814 1.334 . S
C1814 H1785 0.950 . S
C1814 C1813 1.334 . S
C1814 C1815 1.287 . S
C1815 C1814 1.287 . S
C1815 C1816 1.524 . S
C1815 H1818 0.999 . S
C1816 H1786 0.950 . S
C1816 C1815 1.524 . S
C1816 C1817 1.415 . S
C1817 H1787 0.950 . S
C1817 C1812 1.363 . S
C1817 C1816 1.415 . S
H1818 C1815 0.999 . S
H1819 C1800 0.913 . S
H1820 C1838 0.951 . S
H1821 C1840 0.951 . S
H1822 C1842 0.950 . S
H1823 C1843 0.950 . S
H1824 C1845 0.950 . S
H1825 C1848 0.950 . S
H1826 C1849 0.950 . S
H1827 C1851 0.950 . S
H1828 C1852 0.950 . S
H1829 C1853 0.951 . S
H1830 C1855 0.951 . S
H1831 C1857 0.950 . S
H1832 C1858 0.950 . S
H1833 C1860 0.950 . S
H1834 C1863 0.950 . S
H1835 C1864 0.950 . S
H1836 C1866 0.950 . S
H1837 C1867 0.950 . S
C1838 H1820 0.951 . S
C1838 C1839 1.366 . S
C1838 C1840 1.388 . S
C1839 C1838 1.366 . S
C1839 C1843 1.385 . S
C1840 H1821 0.951 . S
C1840 C1838 1.388 . S
C1840 C1841 1.366 . S
C1841 C1840 1.366 . S
C1841 C1842 1.414 . S
C1841 C1844 1.499 . S
C1842 H1822 0.950 . S
C1842 C1841 1.414 . S
C1842 C1843 1.374 . S
C1843 H1823 0.950 . S
C1843 C1839 1.385 . S
C1843 C1842 1.374 . S
C1844 C1841 1.499 . S
C1844 C1845 1.373 . S
C1844 C1846 1.389 . S
C1845 H1824 0.950 . S
C1845 C1844 1.373 . S
C1845 C1861 1.377 . S
C1846 C1844 1.389 . S
C1846 C1847 1.524 . S
C1846 C1860 1.377 . S
C1847 C1846 1.524 . S
C1847 C1848 1.397 . S
C1847 C1852 1.363 . S
C1848 H1825 0.950 . S
C1848 C1847 1.397 . S
C1848 C1849 1.334 . S
C1849 H1826 0.950 . S
C1849 C1848 1.334 . S
C1849 C1850 1.287 . S
C1850 C1849 1.287 . S
C1850 C1851 1.524 . S
C1850 H1869 0.913 . S
C1851 H1827 0.950 . S
C1851 C1850 1.524 . S
C1851 C1852 1.415 . S
C1852 H1828 0.950 . S
C1852 C1847 1.363 . S
C1852 C1851 1.415 . S
C1853 H1829 0.951 . S
C1853 C1854 1.366 . S
C1853 C1855 1.388 . S
C1854 C1853 1.366 . S
C1854 C1858 1.385 . S
C1855 H1830 0.951 . S
C1855 C1853 1.388 . S
C1855 C1856 1.366 . S
C1856 C1855 1.366 . S
C1856 C1857 1.414 . S
C1856 C1859 1.499 . S
C1857 H1831 0.950 . S
C1857 C1856 1.414 . S
C1857 C1858 1.374 . S
C1858 H1832 0.950 . S
C1858 C1854 1.385 . S
C1858 C1857 1.374 . S
C1859 C1856 1.499 . S
C1859 C1860 1.373 . S
C1859 C1861 1.389 . S
C1860 H1833 0.950 . S
C1860 C1846 1.377 . S
C1860 C1859 1.373 . S
C1861 C1845 1.377 . S
C1861 C1859 1.389 . S
C1861 C1862 1.524 . S
C1862 C1861 1.524 . S
C1862 C1863 1.397 . S
C1862 C1867 1.363 . S
C1863 H1834 0.950 . S
C1863 C1862 1.397 . S
C1863 C1864 1.334 . S
C1864 H1835 0.950 . S
C1864 C1863 1.334 . S
C1864 C1865 1.287 . S
C1865 C1864 1.287 . S
C1865 C1866 1.524 . S
C1865 H1868 0.999 . S
C1866 H1836 0.950 . S
C1866 C1865 1.524 . S
C1866 C1867 1.415 . S
C1867 H1837 0.950 . S
C1867 C1862 1.363 . S
C1867 C1866 1.415 . S
H1868 C1865 0.999 . S
H1869 C1850 0.913 . S
H1870 C1888 0.951 . S
H1871 C1890 0.951 . S
H1872 C1892 0.950 . S
H1873 C1893 0.950 . S
H1874 C1895 0.950 . S
H1875 C1898 0.950 . S
H1876 C1899 0.950 . S
H1877 C1901 0.950 . S
H1878 C1902 0.950 . S
H1879 C1903 0.951 . S
H1880 C1905 0.951 . S
H1881 C1907 0.950 . S
H1882 C1908 0.950 . S
H1883 C1910 0.950 . S
H1884 C1913 0.950 . S
H1885 C1914 0.950 . S
H1886 C1916 0.950 . S
H1887 C1917 0.950 . S
C1888 H1870 0.951 . S
C1888 C1889 1.366 . S
C1888 C1890 1.388 . S
C1889 C1888 1.366 . S
C1889 C1893 1.385 . S
C1890 H1871 0.951 . S
C1890 C1888 1.388 . S
C1890 C1891 1.366 . S
C1891 C1890 1.366 . S
C1891 C1892 1.414 . S
C1891 C1894 1.499 . S
C1892 H1872 0.950 . S
C1892 C1891 1.414 . S
C1892 C1893 1.374 . S
C1893 H1873 0.950 . S
C1893 C1889 1.385 . S
C1893 C1892 1.374 . S
C1894 C1891 1.499 . S
C1894 C1895 1.373 . S
C1894 C1896 1.389 . S
C1895 H1874 0.950 . S
C1895 C1894 1.373 . S
C1895 C1911 1.377 . S
C1896 C1894 1.389 . S
C1896 C1897 1.524 . S
C1896 C1910 1.377 . S
C1897 C1896 1.524 . S
C1897 C1898 1.397 . S
C1897 C1902 1.363 . S
C1898 H1875 0.950 . S
C1898 C1897 1.397 . S
C1898 C1899 1.334 . S
C1899 H1876 0.950 . S
C1899 C1898 1.334 . S
C1899 C1900 1.287 . S
C1900 C1899 1.287 . S
C1900 C1901 1.524 . S
C1900 H1919 0.913 . S
C1901 H1877 0.950 . S
C1901 C1900 1.524 . S
C1901 C1902 1.415 . S
C1902 H1878 0.950 . S
C1902 C1897 1.363 . S
C1902 C1901 1.415 . S
C1903 H1879 0.951 . S
C1903 C1904 1.366 . S
C1903 C1905 1.388 . S
C1904 C1903 1.366 . S
C1904 C1908 1.385 . S
C1905 H1880 0.951 . S
C1905 C1903 1.388 . S
C1905 C1906 1.366 . S
C1906 C1905 1.366 . S
C1906 C1907 1.414 . S
C1906 C1909 1.499 . S
C1907 H1881 0.950 . S
C1907 C1906 1.414 . S
C1907 C1908 1.374 . S
C1908 H1882 0.950 . S
C1908 C1904 1.385 . S
C1908 C1907 1.374 . S
C1909 C1906 1.499 . S
C1909 C1910 1.373 . S
C1909 C1911 1.389 . S
C1910 H1883 0.950 . S
C1910 C1896 1.377 . S
C1910 C1909 1.373 . S
C1911 C1895 1.377 . S
C1911 C1909 1.389 . S
C1911 C1912 1.524 . S
C1912 C1911 1.524 . S
C1912 C1913 1.397 . S
C1912 C1917 1.363 . S
C1913 H1884 0.950 . S
C1913 C1912 1.397 . S
C1913 C1914 1.334 . S
C1914 H1885 0.950 . S
C1914 C1913 1.334 . S
C1914 C1915 1.287 . S
C1915 C1914 1.287 . S
C1915 C1916 1.524 . S
C1915 H1918 0.999 . S
C1916 H1886 0.950 . S
C1916 C1915 1.524 . S
C1916 C1917 1.415 . S
C1917 H1887 0.950 . S
C1917 C1912 1.363 . S
C1917 C1916 1.415 . S
H1918 C1915 0.999 . S
H1919 C1900 0.913 . S
H1920 C1938 0.951 . S
H1921 C1940 0.951 . S
H1922 C1942 0.950 . S
H1923 C1943 0.950 . S
H1924 C1945 0.950 . S
H1925 C1948 0.950 . S
H1926 C1949 0.950 . S
H1927 C1951 0.950 . S
H1928 C1952 0.950 . S
H1929 C1953 0.951 . S
H1930 C1955 0.951 . S
H1931 C1957 0.950 . S
H1932 C1958 0.950 . S
H1933 C1960 0.950 . S
H1934 C1963 0.950 . S
H1935 C1964 0.950 . S
H1936 C1966 0.950 . S
H1937 C1967 0.950 . S
C1938 H1920 0.951 . S
C1938 C1939 1.366 . S
C1938 C1940 1.388 . S
C1939 C1938 1.366 . S
C1939 C1943 1.385 . S
C1940 H1921 0.951 . S
C1940 C1938 1.388 . S
C1940 C1941 1.366 . S
C1941 C1940 1.366 . S
C1941 C1942 1.414 . S
C1941 C1944 1.499 . S
C1942 H1922 0.950 . S
C1942 C1941 1.414 . S
C1942 C1943 1.374 . S
C1943 H1923 0.950 . S
C1943 C1939 1.385 . S
C1943 C1942 1.374 . S
C1944 C1941 1.499 . S
C1944 C1945 1.373 . S
C1944 C1946 1.389 . S
C1945 H1924 0.950 . S
C1945 C1944 1.373 . S
C1945 C1961 1.377 . S
C1946 C1944 1.389 . S
C1946 C1947 1.524 . S
C1946 C1960 1.377 . S
C1947 C1946 1.524 . S
C1947 C1948 1.397 . S
C1947 C1952 1.363 . S
C1948 H1925 0.950 . S
C1948 C1947 1.397 . S
C1948 C1949 1.334 . S
C1949 H1926 0.950 . S
C1949 C1948 1.334 . S
C1949 C1950 1.287 . S
C1950 C1949 1.287 . S
C1950 C1951 1.524 . S
C1950 H1969 0.913 . S
C1951 H1927 0.950 . S
C1951 C1950 1.524 . S
C1951 C1952 1.415 . S
C1952 H1928 0.950 . S
C1952 C1947 1.363 . S
C1952 C1951 1.415 . S
C1953 H1929 0.951 . S
C1953 C1954 1.366 . S
C1953 C1955 1.388 . S
C1954 C1953 1.366 . S
C1954 C1958 1.385 . S
C1955 H1930 0.951 . S
C1955 C1953 1.388 . S
C1955 C1956 1.366 . S
C1956 C1955 1.366 . S
C1956 C1957 1.414 . S
C1956 C1959 1.499 . S
C1957 H1931 0.950 . S
C1957 C1956 1.414 . S
C1957 C1958 1.374 . S
C1958 H1932 0.950 . S
C1958 C1954 1.385 . S
C1958 C1957 1.374 . S
C1959 C1956 1.499 . S
C1959 C1960 1.373 . S
C1959 C1961 1.389 . S
C1960 H1933 0.950 . S
C1960 C1946 1.377 . S
C1960 C1959 1.373 . S
C1961 C1945 1.377 . S
C1961 C1959 1.389 . S
C1961 C1962 1.524 . S
C1962 C1961 1.524 . S
C1962 C1963 1.397 . S
C1962 C1967 1.363 . S
C1963 H1934 0.950 . S
C1963 C1962 1.397 . S
C1963 C1964 1.334 . S
C1964 H1935 0.950 . S
C1964 C1963 1.334 . S
C1964 C1965 1.287 . S
C1965 C1964 1.287 . S
C1965 C1966 1.524 . S
C1965 H1968 0.999 . S
C1966 H1936 0.950 . S
C1966 C1965 1.524 . S
C1966 C1967 1.415 . S
C1967 H1937 0.950 . S
C1967 C1962 1.363 . S
C1967 C1966 1.415 . S
H1968 C1965 0.999 . S
H1969 C1950 0.913 . S
H1970 C1988 0.951 . S
H1971 C1990 0.951 . S
H1972 C1992 0.950 . S
H1973 C1993 0.950 . S
H1974 C1995 0.950 . S
H1975 C1998 0.950 . S
H1976 C1999 0.950 . S
H1977 C2001 0.950 . S
H1978 C2002 0.950 . S
H1979 C2003 0.951 . S
H1980 C2005 0.951 . S
H1981 C2007 0.950 . S
H1982 C2008 0.950 . S
H1983 C2010 0.950 . S
H1984 C2013 0.950 . S
H1985 C2014 0.950 . S
H1986 C2016 0.950 . S
H1987 C2017 0.950 . S
C1988 H1970 0.951 . S
C1988 C1989 1.366 . S
C1988 C1990 1.388 . S
C1989 C1988 1.366 . S
C1989 C1993 1.385 . S
C1990 H1971 0.951 . S
C1990 C1988 1.388 . S
C1990 C1991 1.366 . S
C1991 C1990 1.366 . S
C1991 C1992 1.414 . S
C1991 C1994 1.499 . S
C1992 H1972 0.950 . S
C1992 C1991 1.414 . S
C1992 C1993 1.374 . S
C1993 H1973 0.950 . S
C1993 C1989 1.385 . S
C1993 C1992 1.374 . S
C1994 C1991 1.499 . S
C1994 C1995 1.373 . S
C1994 C1996 1.389 . S
C1995 H1974 0.950 . S
C1995 C1994 1.373 . S
C1995 C2011 1.377 . S
C1996 C1994 1.389 . S
C1996 C1997 1.524 . S
C1996 C2010 1.377 . S
C1997 C1996 1.524 . S
C1997 C1998 1.397 . S
C1997 C2002 1.363 . S
C1998 H1975 0.950 . S
C1998 C1997 1.397 . S
C1998 C1999 1.334 . S
C1999 H1976 0.950 . S
C1999 C1998 1.334 . S
C1999 C2000 1.287 . S
C2000 C1999 1.287 . S
C2000 C2001 1.524 . S
C2000 H2019 0.913 . S
C2001 H1977 0.950 . S
C2001 C2000 1.524 . S
C2001 C2002 1.415 . S
C2002 H1978 0.950 . S
C2002 C1997 1.363 . S
C2002 C2001 1.415 . S
C2003 H1979 0.951 . S
C2003 C2004 1.366 . S
C2003 C2005 1.388 . S
C2004 C2003 1.366 . S
C2004 C2008 1.385 . S
C2005 H1980 0.951 . S
C2005 C2003 1.388 . S
C2005 C2006 1.366 . S
C2006 C2005 1.366 . S
C2006 C2007 1.414 . S
C2006 C2009 1.499 . S
C2007 H1981 0.950 . S
C2007 C2006 1.414 . S
C2007 C2008 1.374 . S
C2008 H1982 0.950 . S
C2008 C2004 1.385 . S
C2008 C2007 1.374 . S
C2009 C2006 1.499 . S
C2009 C2010 1.373 . S
C2009 C2011 1.389 . S
C2010 H1983 0.950 . S
C2010 C1996 1.377 . S
C2010 C2009 1.373 . S
C2011 C1995 1.377 . S
C2011 C2009 1.389 . S
C2011 C2012 1.524 . S
C2012 C2011 1.524 . S
C2012 C2013 1.397 . S
C2012 C2017 1.363 . S
C2013 H1984 0.950 . S
C2013 C2012 1.397 . S
C2013 C2014 1.334 . S
C2014 H1985 0.950 . S
C2014 C2013 1.334 . S
C2014 C2015 1.287 . S
C2015 C2014 1.287 . S
C2015 C2016 1.524 . S
C2015 H2018 0.999 . S
C2016 H1986 0.950 . S
C2016 C2015 1.524 . S
C2016 C2017 1.415 . S
C2017 H1987 0.950 . S
C2017 C2012 1.363 . S
C2017 C2016 1.415 . S
H2018 C2015 0.999 . S
H2019 C2000 0.913 . S
H2020 C2038 0.951 . S
H2021 C2040 0.951 . S
H2022 C2042 0.950 . S
H2023 C2043 0.950 . S
H2024 C2045 0.950 . S
H2025 C2048 0.950 . S
H2026 C2049 0.950 . S
H2027 C2051 0.950 . S
H2028 C2052 0.950 . S
H2029 C2053 0.951 . S
H2030 C2055 0.951 . S
H2031 C2057 0.950 . S
H2032 C2058 0.950 . S
H2033 C2060 0.950 . S
H2034 C2063 0.950 . S
H2035 C2064 0.950 . S
H2036 C2066 0.950 . S
H2037 C2067 0.950 . S
C2038 H2020 0.951 . S
C2038 C2039 1.366 . S
C2038 C2040 1.388 . S
C2039 C2038 1.366 . S
C2039 C2043 1.385 . S
C2040 H2021 0.951 . S
C2040 C2038 1.388 . S
C2040 C2041 1.366 . S
C2041 C2040 1.366 . S
C2041 C2042 1.414 . S
C2041 C2044 1.499 . S
C2042 H2022 0.950 . S
C2042 C2041 1.414 . S
C2042 C2043 1.374 . S
C2043 H2023 0.950 . S
C2043 C2039 1.385 . S
C2043 C2042 1.374 . S
C2044 C2041 1.499 . S
C2044 C2045 1.373 . S
C2044 C2046 1.389 . S
C2045 H2024 0.950 . S
C2045 C2044 1.373 . S
C2045 C2061 1.377 . S
C2046 C2044 1.389 . S
C2046 C2047 1.524 . S
C2046 C2060 1.377 . S
C2047 C2046 1.524 . S
C2047 C2048 1.397 . S
C2047 C2052 1.363 . S
C2048 H2025 0.950 . S
C2048 C2047 1.397 . S
C2048 C2049 1.334 . S
C2049 H2026 0.950 . S
C2049 C2048 1.334 . S
C2049 C2050 1.287 . S
C2050 C2049 1.287 . S
C2050 C2051 1.524 . S
C2050 H2069 0.913 . S
C2051 H2027 0.950 . S
C2051 C2050 1.524 . S
C2051 C2052 1.415 . S
C2052 H2028 0.950 . S
C2052 C2047 1.363 . S
C2052 C2051 1.415 . S
C2053 H2029 0.951 . S
C2053 C2054 1.366 . S
C2053 C2055 1.388 . S
C2054 C2053 1.366 . S
C2054 C2058 1.385 . S
C2055 H2030 0.951 . S
C2055 C2053 1.388 . S
C2055 C2056 1.366 . S
C2056 C2055 1.366 . S
C2056 C2057 1.414 . S
C2056 C2059 1.499 . S
C2057 H2031 0.950 . S
C2057 C2056 1.414 . S
C2057 C2058 1.374 . S
C2058 H2032 0.950 . S
C2058 C2054 1.385 . S
C2058 C2057 1.374 . S
C2059 C2056 1.499 . S
C2059 C2060 1.373 . S
C2059 C2061 1.389 . S
C2060 H2033 0.950 . S
C2060 C2046 1.377 . S
C2060 C2059 1.373 . S
C2061 C2045 1.377 . S
C2061 C2059 1.389 . S
C2061 C2062 1.524 . S
C2062 C2061 1.524 . S
C2062 C2063 1.397 . S
C2062 C2067 1.363 . S
C2063 H2034 0.950 . S
C2063 C2062 1.397 . S
C2063 C2064 1.334 . S
C2064 H2035 0.950 . S
C2064 C2063 1.334 . S
C2064 C2065 1.287 . S
C2065 C2064 1.287 . S
C2065 C2066 1.524 . S
C2065 H2068 0.999 . S
C2066 H2036 0.950 . S
C2066 C2065 1.524 . S
C2066 C2067 1.415 . S
C2067 H2037 0.950 . S
C2067 C2062 1.363 . S
C2067 C2066 1.415 . S
H2068 C2065 0.999 . S
H2069 C2050 0.913 . S
H2070 C2088 0.951 . S
H2071 C2090 0.951 . S
H2072 C2092 0.950 . S
H2073 C2093 0.950 . S
H2074 C2095 0.950 . S
H2075 C2098 0.950 . S
H2076 C2099 0.950 . S
H2077 C2101 0.950 . S
H2078 C2102 0.950 . S
H2079 C2103 0.951 . S
H2080 C2105 0.951 . S
H2081 C2107 0.950 . S
H2082 C2108 0.950 . S
H2083 C2110 0.950 . S
H2084 C2113 0.950 . S
H2085 C2114 0.950 . S
H2086 C2116 0.950 . S
H2087 C2117 0.950 . S
C2088 H2070 0.951 . S
C2088 C2089 1.366 . S
C2088 C2090 1.388 . S
C2089 C2088 1.366 . S
C2089 C2093 1.385 . S
C2090 H2071 0.951 . S
C2090 C2088 1.388 . S
C2090 C2091 1.366 . S
C2091 C2090 1.366 . S
C2091 C2092 1.414 . S
C2091 C2094 1.499 . S
C2092 H2072 0.950 . S
C2092 C2091 1.414 . S
C2092 C2093 1.374 . S
C2093 H2073 0.950 . S
C2093 C2089 1.385 . S
C2093 C2092 1.374 . S
C2094 C2091 1.499 . S
C2094 C2095 1.373 . S
C2094 C2096 1.389 . S
C2095 H2074 0.950 . S
C2095 C2094 1.373 . S
C2095 C2111 1.377 . S
C2096 C2094 1.389 . S
C2096 C2097 1.524 . S
C2096 C2110 1.377 . S
C2097 C2096 1.524 . S
C2097 C2098 1.397 . S
C2097 C2102 1.363 . S
C2098 H2075 0.950 . S
C2098 C2097 1.397 . S
C2098 C2099 1.334 . S
C2099 H2076 0.950 . S
C2099 C2098 1.334 . S
C2099 C2100 1.287 . S
C2100 C2099 1.287 . S
C2100 C2101 1.524 . S
C2100 H2119 0.913 . S
C2101 H2077 0.950 . S
C2101 C2100 1.524 . S
C2101 C2102 1.415 . S
C2102 H2078 0.950 . S
C2102 C2097 1.363 . S
C2102 C2101 1.415 . S
C2103 H2079 0.951 . S
C2103 C2104 1.366 . S
C2103 C2105 1.388 . S
C2104 C2103 1.366 . S
C2104 C2108 1.385 . S
C2105 H2080 0.951 . S
C2105 C2103 1.388 . S
C2105 C2106 1.366 . S
C2106 C2105 1.366 . S
C2106 C2107 1.414 . S
C2106 C2109 1.499 . S
C2107 H2081 0.950 . S
C2107 C2106 1.414 . S
C2107 C2108 1.374 . S
C2108 H2082 0.950 . S
C2108 C2104 1.385 . S
C2108 C2107 1.374 . S
C2109 C2106 1.499 . S
C2109 C2110 1.373 . S
C2109 C2111 1.389 . S
C2110 H2083 0.950 . S
C2110 C2096 1.377 . S
C2110 C2109 1.373 . S
C2111 C2095 1.377 . S
C2111 C2109 1.389 . S
C2111 C2112 1.524 . S
C2112 C2111 1.524 . S
C2112 C2113 1.397 . S
C2112 C2117 1.363 . S
C2113 H2084 0.950 . S
C2113 C2112 1.397 . S
C2113 C2114 1.334 . S
C2114 H2085 0.950 . S
C2114 C2113 1.334 . S
C2114 C2115 1.287 . S
C2115 C2114 1.287 . S
C2115 C2116 1.524 . S
C2115 H2118 0.999 . S
C2116 H2086 0.950 . S
C2116 C2115 1.524 . S
C2116 C2117 1.415 . S
C2117 H2087 0.950 . S
C2117 C2112 1.363 . S
C2117 C2116 1.415 . S
H2118 C2115 0.999 . S
H2119 C2100 0.913 . S
H2120 C2138 0.951 . S
H2121 C2140 0.951 . S
H2122 C2142 0.950 . S
H2123 C2143 0.950 . S
H2124 C2145 0.950 . S
H2125 C2148 0.950 . S
H2126 C2149 0.950 . S
H2127 C2151 0.950 . S
H2128 C2152 0.950 . S
H2129 C2153 0.951 . S
H2130 C2155 0.951 . S
H2131 C2157 0.950 . S
H2132 C2158 0.950 . S
H2133 C2160 0.950 . S
H2134 C2163 0.950 . S
H2135 C2164 0.950 . S
H2136 C2166 0.950 . S
H2137 C2167 0.950 . S
C2138 H2120 0.951 . S
C2138 C2139 1.366 . S
C2138 C2140 1.388 . S
C2139 C2138 1.366 . S
C2139 C2143 1.385 . S
C2140 H2121 0.951 . S
C2140 C2138 1.388 . S
C2140 C2141 1.366 . S
C2141 C2140 1.366 . S
C2141 C2142 1.414 . S
C2141 C2144 1.499 . S
C2142 H2122 0.950 . S
C2142 C2141 1.414 . S
C2142 C2143 1.374 . S
C2143 H2123 0.950 . S
C2143 C2139 1.385 . S
C2143 C2142 1.374 . S
C2144 C2141 1.499 . S
C2144 C2145 1.373 . S
C2144 C2146 1.389 . S
C2145 H2124 0.950 . S
C2145 C2144 1.373 . S
C2145 C2161 1.377 . S
C2146 C2144 1.389 . S
C2146 C2147 1.524 . S
C2146 C2160 1.377 . S
C2147 C2146 1.524 . S
C2147 C2148 1.397 . S
C2147 C2152 1.363 . S
C2148 H2125 0.950 . S
C2148 C2147 1.397 . S
C2148 C2149 1.334 . S
C2149 H2126 0.950 . S
C2149 C2148 1.334 . S
C2149 C2150 1.287 . S
C2150 C2149 1.287 . S
C2150 C2151 1.524 . S
C2150 H2169 0.913 . S
C2151 H2127 0.950 . S
C2151 C2150 1.524 . S
C2151 C2152 1.415 . S
C2152 H2128 0.950 . S
C2152 C2147 1.363 . S
C2152 C2151 1.415 . S
C2153 H2129 0.951 . S
C2153 C2154 1.366 . S
C2153 C2155 1.388 . S
C2154 C2153 1.366 . S
C2154 C2158 1.385 . S
C2155 H2130 0.951 . S
C2155 C2153 1.388 . S
C2155 C2156 1.366 . S
C2156 C2155 1.366 . S
C2156 C2157 1.414 . S
C2156 C2159 1.499 . S
C2157 H2131 0.950 . S
C2157 C2156 1.414 . S
C2157 C2158 1.374 . S
C2158 H2132 0.950 . S
C2158 C2154 1.385 . S
C2158 C2157 1.374 . S
C2159 C2156 1.499 . S
C2159 C2160 1.373 . S
C2159 C2161 1.389 . S
C2160 H2133 0.950 . S
C2160 C2146 1.377 . S
C2160 C2159 1.373 . S
C2161 C2145 1.377 . S
C2161 C2159 1.389 . S
C2161 C2162 1.524 . S
C2162 C2161 1.524 . S
C2162 C2163 1.397 . S
C2162 C2167 1.363 . S
C2163 H2134 0.950 . S
C2163 C2162 1.397 . S
C2163 C2164 1.334 . S
C2164 H2135 0.950 . S
C2164 C2163 1.334 . S
C2164 C2165 1.287 . S
C2165 C2164 1.287 . S
C2165 C2166 1.524 . S
C2165 H2168 0.999 . S
C2166 H2136 0.950 . S
C2166 C2165 1.524 . S
C2166 C2167 1.415 . S
C2167 H2137 0.950 . S
C2167 C2162 1.363 . S
C2167 C2166 1.415 . S
H2168 C2165 0.999 . S
H2169 C2150 0.913 . S
H2170 C2188 0.951 . S
H2171 C2190 0.951 . S
H2172 C2192 0.950 . S
H2173 C2193 0.950 . S
H2174 C2195 0.950 . S
H2175 C2198 0.950 . S
H2176 C2199 0.950 . S
H2177 C2201 0.950 . S
H2178 C2202 0.950 . S
H2179 C2203 0.951 . S
H2180 C2205 0.951 . S
H2181 C2207 0.950 . S
H2182 C2208 0.950 . S
H2183 C2210 0.950 . S
H2184 C2213 0.950 . S
H2185 C2214 0.950 . S
H2186 C2216 0.950 . S
H2187 C2217 0.950 . S
C2188 H2170 0.951 . S
C2188 C2189 1.366 . S
C2188 C2190 1.388 . S
C2189 C2188 1.366 . S
C2189 C2193 1.385 . S
C2190 H2171 0.951 . S
C2190 C2188 1.388 . S
C2190 C2191 1.366 . S
C2191 C2190 1.366 . S
C2191 C2192 1.414 . S
C2191 C2194 1.499 . S
C2192 H2172 0.950 . S
C2192 C2191 1.414 . S
C2192 C2193 1.374 . S
C2193 H2173 0.950 . S
C2193 C2189 1.385 . S
C2193 C2192 1.374 . S
C2194 C2191 1.499 . S
C2194 C2195 1.373 . S
C2194 C2196 1.389 . S
C2195 H2174 0.950 . S
C2195 C2194 1.373 . S
C2195 C2211 1.377 . S
C2196 C2194 1.389 . S
C2196 C2197 1.524 . S
C2196 C2210 1.377 . S
C2197 C2196 1.524 . S
C2197 C2198 1.397 . S
C2197 C2202 1.363 . S
C2198 H2175 0.950 . S
C2198 C2197 1.397 . S
C2198 C2199 1.334 . S
C2199 H2176 0.950 . S
C2199 C2198 1.334 . S
C2199 C2200 1.287 . S
C2200 C2199 1.287 . S
C2200 C2201 1.524 . S
C2200 H2219 0.913 . S
C2201 H2177 0.950 . S
C2201 C2200 1.524 . S
C2201 C2202 1.415 . S
C2202 H2178 0.950 . S
C2202 C2197 1.363 . S
C2202 C2201 1.415 . S
C2203 H2179 0.951 . S
C2203 C2204 1.366 . S
C2203 C2205 1.388 . S
C2204 C2203 1.366 . S
C2204 C2208 1.385 . S
C2205 H2180 0.951 . S
C2205 C2203 1.388 . S
C2205 C2206 1.366 . S
C2206 C2205 1.366 . S
C2206 C2207 1.414 . S
C2206 C2209 1.499 . S
C2207 H2181 0.950 . S
C2207 C2206 1.414 . S
C2207 C2208 1.374 . S
C2208 H2182 0.950 . S
C2208 C2204 1.385 . S
C2208 C2207 1.374 . S
C2209 C2206 1.499 . S
C2209 C2210 1.373 . S
C2209 C2211 1.389 . S
C2210 H2183 0.950 . S
C2210 C2196 1.377 . S
C2210 C2209 1.373 . S
C2211 C2195 1.377 . S
C2211 C2209 1.389 . S
C2211 C2212 1.524 . S
C2212 C2211 1.524 . S
C2212 C2213 1.397 . S
C2212 C2217 1.363 . S
C2213 H2184 0.950 . S
C2213 C2212 1.397 . S
C2213 C2214 1.334 . S
C2214 H2185 0.950 . S
C2214 C2213 1.334 . S
C2214 C2215 1.287 . S
C2215 C2214 1.287 . S
C2215 C2216 1.524 . S
C2215 H2218 0.999 . S
C2216 H2186 0.950 . S
C2216 C2215 1.524 . S
C2216 C2217 1.415 . S
C2217 H2187 0.950 . S
C2217 C2212 1.363 . S
C2217 C2216 1.415 . S
H2218 C2215 0.999 . S
H2219 C2200 0.913 . S
H2220 C2238 0.951 . S
H2221 C2240 0.951 . S
H2222 C2242 0.950 . S
H2223 C2243 0.950 . S
H2224 C2245 0.950 . S
H2225 C2248 0.950 . S
H2226 C2249 0.950 . S
H2227 C2251 0.950 . S
H2228 C2252 0.950 . S
H2229 C2253 0.951 . S
H2230 C2255 0.951 . S
H2231 C2257 0.950 . S
H2232 C2258 0.950 . S
H2233 C2260 0.950 . S
H2234 C2263 0.950 . S
H2235 C2264 0.950 . S
H2236 C2266 0.950 . S
H2237 C2267 0.950 . S
C2238 H2220 0.951 . S
C2238 C2239 1.366 . S
C2238 C2240 1.388 . S
C2239 C2238 1.366 . S
C2239 C2243 1.385 . S
C2240 H2221 0.951 . S
C2240 C2238 1.388 . S
C2240 C2241 1.366 . S
C2241 C2240 1.366 . S
C2241 C2242 1.414 . S
C2241 C2244 1.499 . S
C2242 H2222 0.950 . S
C2242 C2241 1.414 . S
C2242 C2243 1.374 . S
C2243 H2223 0.950 . S
C2243 C2239 1.385 . S
C2243 C2242 1.374 . S
C2244 C2241 1.499 . S
C2244 C2245 1.373 . S
C2244 C2246 1.389 . S
C2245 H2224 0.950 . S
C2245 C2244 1.373 . S
C2245 C2261 1.377 . S
C2246 C2244 1.389 . S
C2246 C2247 1.524 . S
C2246 C2260 1.377 . S
C2247 C2246 1.524 . S
C2247 C2248 1.397 . S
C2247 C2252 1.363 . S
C2248 H2225 0.950 . S
C2248 C2247 1.397 . S
C2248 C2249 1.334 . S
C2249 H2226 0.950 . S
C2249 C2248 1.334 . S
C2249 C2250 1.287 . S
C2250 C2249 1.287 . S
C2250 C2251 1.524 . S
C2250 H2269 0.913 . S
C2251 H2227 0.950 . S
C2251 C2250 1.524 . S
C2251 C2252 1.415 . S
C2252 H2228 0.950 . S
C2252 C2247 1.363 . S
C2252 C2251 1.415 . S
C2253 H2229 0.951 . S
C2253 C2254 1.366 . S
C2253 C2255 1.388 . S
C2254 C2253 1.366 . S
C2254 C2258 1.385 . S
C2255 H2230 0.951 . S
C2255 C2253 1.388 . S
C2255 C2256 1.366 . S
C2256 C2255 1.366 . S
C2256 C2257 1.414 . S
C2256 C2259 1.499 . S
C2257 H2231 0.950 . S
C2257 C2256 1.414 . S
C2257 C2258 1.374 . S
C2258 H2232 0.950 . S
C2258 C2254 1.385 . S
C2258 C2257 1.374 . S
C2259 C2256 1.499 . S
C2259 C2260 1.373 . S
C2259 C2261 1.389 . S
C2260 H2233 0.950 . S
C2260 C2246 1.377 . S
C2260 C2259 1.373 . S
C2261 C2245 1.377 . S
C2261 C2259 1.389 . S
C2261 C2262 1.524 . S
C2262 C2261 1.524 . S
C2262 C2263 1.397 . S
C2262 C2267 1.363 . S
C2263 H2234 0.950 . S
C2263 C2262 1.397 . S
C2263 C2264 1.334 . S
C2264 H2235 0.950 . S
C2264 C2263 1.334 . S
C2264 C2265 1.287 . S
C2265 C2264 1.287 . S
C2265 C2266 1.524 . S
C2265 H2268 0.999 . S
C2266 H2236 0.950 . S
C2266 C2265 1.524 . S
C2266 C2267 1.415 . S
C2267 H2237 0.950 . S
C2267 C2262 1.363 . S
C2267 C2266 1.415 . S
H2268 C2265 0.999 . S
H2269 C2250 0.913 . S
H2270 C2288 0.951 . S
H2271 C2290 0.951 . S
H2272 C2292 0.950 . S
H2273 C2293 0.950 . S
H2274 C2295 0.950 . S
H2275 C2298 0.950 . S
H2276 C2299 0.950 . S
H2277 C2301 0.950 . S
H2278 C2302 0.950 . S
H2279 C2303 0.951 . S
H2280 C2305 0.951 . S
H2281 C2307 0.950 . S
H2282 C2308 0.950 . S
H2283 C2310 0.950 . S
H2284 C2313 0.950 . S
H2285 C2314 0.950 . S
H2286 C2316 0.950 . S
H2287 C2317 0.950 . S
C2288 H2270 0.951 . S
C2288 C2289 1.366 . S
C2288 C2290 1.388 . S
C2289 C2288 1.366 . S
C2289 C2293 1.385 . S
C2290 H2271 0.951 . S
C2290 C2288 1.388 . S
C2290 C2291 1.366 . S
C2291 C2290 1.366 . S
C2291 C2292 1.414 . S
C2291 C2294 1.499 . S
C2292 H2272 0.950 . S
C2292 C2291 1.414 . S
C2292 C2293 1.374 . S
C2293 H2273 0.950 . S
C2293 C2289 1.385 . S
C2293 C2292 1.374 . S
C2294 C2291 1.499 . S
C2294 C2295 1.373 . S
C2294 C2296 1.389 . S
C2295 H2274 0.950 . S
C2295 C2294 1.373 . S
C2295 C2311 1.377 . S
C2296 C2294 1.389 . S
C2296 C2297 1.524 . S
C2296 C2310 1.377 . S
C2297 C2296 1.524 . S
C2297 C2298 1.397 . S
C2297 C2302 1.363 . S
C2298 H2275 0.950 . S
C2298 C2297 1.397 . S
C2298 C2299 1.334 . S
C2299 H2276 0.950 . S
C2299 C2298 1.334 . S
C2299 C2300 1.287 . S
C2300 C2299 1.287 . S
C2300 C2301 1.524 . S
C2300 H2319 0.913 . S
C2301 H2277 0.950 . S
C2301 C2300 1.524 . S
C2301 C2302 1.415 . S
C2302 H2278 0.950 . S
C2302 C2297 1.363 . S
C2302 C2301 1.415 . S
C2303 H2279 0.951 . S
C2303 C2304 1.366 . S
C2303 C2305 1.388 . S
C2304 C2303 1.366 . S
C2304 C2308 1.385 . S
C2305 H2280 0.951 . S
C2305 C2303 1.388 . S
C2305 C2306 1.366 . S
C2306 C2305 1.366 . S
C2306 C2307 1.414 . S
C2306 C2309 1.499 . S
C2307 H2281 0.950 . S
C2307 C2306 1.414 . S
C2307 C2308 1.374 . S
C2308 H2282 0.950 . S
C2308 C2304 1.385 . S
C2308 C2307 1.374 . S
C2309 C2306 1.499 . S
C2309 C2310 1.373 . S
C2309 C2311 1.389 . S
C2310 H2283 0.950 . S
C2310 C2296 1.377 . S
C2310 C2309 1.373 . S
C2311 C2295 1.377 . S
C2311 C2309 1.389 . S
C2311 C2312 1.524 . S
C2312 C2311 1.524 . S
C2312 C2313 1.397 . S
C2312 C2317 1.363 . S
C2313 H2284 0.950 . S
C2313 C2312 1.397 . S
C2313 C2314 1.334 . S
C2314 H2285 0.950 . S
C2314 C2313 1.334 . S
C2314 C2315 1.287 . S
C2315 C2314 1.287 . S
C2315 C2316 1.524 . S
C2315 H2318 0.999 . S
C2316 H2286 0.950 . S
C2316 C2315 1.524 . S
C2316 C2317 1.415 . S
C2317 H2287 0.950 . S
C2317 C2312 1.363 . S
C2317 C2316 1.415 . S
H2318 C2315 0.999 . S
H2319 C2300 0.913 . S
H2320 C2338 0.951 . S
H2321 C2340 0.951 . S
H2322 C2342 0.950 . S
H2323 C2343 0.950 . S
H2324 C2345 0.950 . S
H2325 C2348 0.950 . S
H2326 C2349 0.950 1_556 S
H2327 C2351 0.950 . S
H2328 C2352 0.950 . S
H2329 C2353 0.951 . S
H2330 C2355 0.951 . S
H2331 C2357 0.950 . S
H2332 C2358 0.950 . S
H2333 C2360 0.950 . S
H2334 C2363 0.950 . S
H2335 C2364 0.950 . S
H2336 C2366 0.950 . S
H2337 C2367 0.950 . S
C2338 H2320 0.951 . S
C2338 C2339 1.366 . S
C2338 C2340 1.388 . S
C2339 C2338 1.366 . S
C2339 C2343 1.385 . S
C2340 H2321 0.951 . S
C2340 C2338 1.388 . S
C2340 C2341 1.366 1_556 S
C2341 C2340 1.366 1_554 S
C2341 C2342 1.414 1_554 S
C2341 C2344 1.499 . S
C2342 H2322 0.950 . S
C2342 C2341 1.414 1_556 S
C2342 C2343 1.374 . S
C2343 H2323 0.950 . S
C2343 C2339 1.385 . S
C2343 C2342 1.374 . S
C2344 C2341 1.499 . S
C2344 C2345 1.373 . S
C2344 C2346 1.389 . S
C2345 H2324 0.950 . S
C2345 C2344 1.373 . S
C2345 C2361 1.377 . S
C2346 C2344 1.389 . S
C2346 C2347 1.524 . S
C2346 C2360 1.377 . S
C2347 C2346 1.524 . S
C2347 C2348 1.397 . S
C2347 C2352 1.363 . S
C2348 H2325 0.950 . S
C2348 C2347 1.397 . S
C2348 C2349 1.334 . S
C2349 H2326 0.950 1_554 S
C2349 C2348 1.334 . S
C2349 C2350 1.287 . S
C2350 C2349 1.287 . S
C2350 C2351 1.524 . S
C2350 H2369 0.913 . S
C2351 H2327 0.950 . S
C2351 C2350 1.524 . S
C2351 C2352 1.415 . S
C2352 H2328 0.950 . S
C2352 C2347 1.363 . S
C2352 C2351 1.415 . S
C2353 H2329 0.951 . S
C2353 C2354 1.366 . S
C2353 C2355 1.388 . S
C2354 C2353 1.366 . S
C2354 C2358 1.385 . S
C2355 H2330 0.951 . S
C2355 C2353 1.388 . S
C2355 C2356 1.366 . S
C2356 C2355 1.366 . S
C2356 C2357 1.414 . S
C2356 C2359 1.499 . S
C2357 H2331 0.950 . S
C2357 C2356 1.414 . S
C2357 C2358 1.374 . S
C2358 H2332 0.950 . S
C2358 C2354 1.385 . S
C2358 C2357 1.374 . S
C2359 C2356 1.499 . S
C2359 C2360 1.373 . S
C2359 C2361 1.389 . S
C2360 H2333 0.950 . S
C2360 C2346 1.377 . S
C2360 C2359 1.373 . S
C2361 C2345 1.377 . S
C2361 C2359 1.389 . S
C2361 C2362 1.524 . S
C2362 C2361 1.524 . S
C2362 C2363 1.397 . S
C2362 C2367 1.363 . S
C2363 H2334 0.950 . S
C2363 C2362 1.397 . S
C2363 C2364 1.334 . S
C2364 H2335 0.950 . S
C2364 C2363 1.334 . S
C2364 C2365 1.287 . S
C2365 C2364 1.287 . S
C2365 C2366 1.524 . S
C2365 H2368 0.999 . S
C2366 H2336 0.950 . S
C2366 C2365 1.524 . S
C2366 C2367 1.415 . S
C2367 H2337 0.950 . S
C2367 C2362 1.363 . S
C2367 C2366 1.415 . S
H2368 C2365 0.999 . S
H2369 C2350 0.913 . S
H2370 C2388 0.951 . S
H2371 C2390 0.951 . S
H2372 C2392 0.950 . S
H2373 C2393 0.950 . S
H2374 C2395 0.950 . S
H2375 C2398 0.950 . S
H2376 C2399 0.950 . S
H2377 C2401 0.950 . S
H2378 C2402 0.950 . S
H2379 C2403 0.951 . S
H2380 C2405 0.951 . S
H2381 C2407 0.950 . S
H2382 C2408 0.950 . S
H2383 C2410 0.950 . S
H2384 C2413 0.950 . S
H2385 C2414 0.950 1_554 S
H2386 C2416 0.950 . S
H2387 C2417 0.950 . S
C2388 H2370 0.951 . S
C2388 C2389 1.366 . S
C2388 C2390 1.388 . S
C2389 C2388 1.366 . S
C2389 C2393 1.385 . S
C2390 H2371 0.951 . S
C2390 C2388 1.388 . S
C2390 C2391 1.366 . S
C2391 C2390 1.366 . S
C2391 C2392 1.414 . S
C2391 C2394 1.499 . S
C2392 H2372 0.950 . S
C2392 C2391 1.414 . S
C2392 C2393 1.374 . S
C2393 H2373 0.950 . S
C2393 C2389 1.385 . S
C2393 C2392 1.374 . S
C2394 C2391 1.499 . S
C2394 C2395 1.373 . S
C2394 C2396 1.389 . S
C2395 H2374 0.950 . S
C2395 C2394 1.373 . S
C2395 C2411 1.377 . S
C2396 C2394 1.389 . S
C2396 C2397 1.524 . S
C2396 C2410 1.377 . S
C2397 C2396 1.524 . S
C2397 C2398 1.397 . S
C2397 C2402 1.363 . S
C2398 H2375 0.950 . S
C2398 C2397 1.397 . S
C2398 C2399 1.334 . S
C2399 H2376 0.950 . S
C2399 C2398 1.334 . S
C2399 C2400 1.287 . S
C2400 C2399 1.287 . S
C2400 C2401 1.524 . S
C2400 H2419 0.913 . S
C2401 H2377 0.950 . S
C2401 C2400 1.524 . S
C2401 C2402 1.415 . S
C2402 H2378 0.950 . S
C2402 C2397 1.363 . S
C2402 C2401 1.415 . S
C2403 H2379 0.951 . S
C2403 C2404 1.366 . S
C2403 C2405 1.388 . S
C2404 C2403 1.366 . S
C2404 C2408 1.385 . S
C2405 H2380 0.951 . S
C2405 C2403 1.388 . S
C2405 C2406 1.366 1_554 S
C2406 C2405 1.366 1_556 S
C2406 C2407 1.414 1_556 S
C2406 C2409 1.499 . S
C2407 H2381 0.950 . S
C2407 C2406 1.414 1_554 S
C2407 C2408 1.374 . S
C2408 H2382 0.950 . S
C2408 C2404 1.385 . S
C2408 C2407 1.374 . S
C2409 C2406 1.499 . S
C2409 C2410 1.373 . S
C2409 C2411 1.389 . S
C2410 H2383 0.950 . S
C2410 C2396 1.377 . S
C2410 C2409 1.373 . S
C2411 C2395 1.377 . S
C2411 C2409 1.389 . S
C2411 C2412 1.524 . S
C2412 C2411 1.524 . S
C2412 C2413 1.397 . S
C2412 C2417 1.363 . S
C2413 H2384 0.950 . S
C2413 C2412 1.397 . S
C2413 C2414 1.334 . S
C2414 H2385 0.950 1_556 S
C2414 C2413 1.334 . S
C2414 C2415 1.287 . S
C2415 C2414 1.287 . S
C2415 C2416 1.524 . S
C2415 H2418 0.999 . S
C2416 H2386 0.950 . S
C2416 C2415 1.524 . S
C2416 C2417 1.415 . S
C2417 H2387 0.950 . S
C2417 C2412 1.363 . S
C2417 C2416 1.415 . S
H2418 C2415 0.999 . S
H2419 C2400 0.913 . S
H2420 C2438 0.951 . S
H2421 C2440 0.951 . S
H2422 C2442 0.950 . S
H2423 C2443 0.950 . S
H2424 C2445 0.950 . S
H2425 C2448 0.950 . S
H2426 C2449 0.950 . S
H2427 C2451 0.950 . S
H2428 C2452 0.950 . S
H2429 C2453 0.951 . S
H2430 C2455 0.951 . S
H2431 C2457 0.950 . S
H2432 C2458 0.950 . S
H2433 C2460 0.950 . S
H2434 C2463 0.950 . S
H2435 C2464 0.950 1_556 S
H2436 C2466 0.950 . S
H2437 C2467 0.950 . S
C2438 H2420 0.951 . S
C2438 C2439 1.366 . S
C2438 C2440 1.388 . S
C2439 C2438 1.366 . S
C2439 C2443 1.385 . S
C2440 H2421 0.951 . S
C2440 C2438 1.388 . S
C2440 C2441 1.366 . S
C2441 C2440 1.366 . S
C2441 C2442 1.414 . S
C2441 C2444 1.499 . S
C2442 H2422 0.950 . S
C2442 C2441 1.414 . S
C2442 C2443 1.374 . S
C2443 H2423 0.950 . S
C2443 C2439 1.385 . S
C2443 C2442 1.374 . S
C2444 C2441 1.499 . S
C2444 C2445 1.373 . S
C2444 C2446 1.389 . S
C2445 H2424 0.950 . S
C2445 C2444 1.373 . S
C2445 C2461 1.377 . S
C2446 C2444 1.389 . S
C2446 C2447 1.524 . S
C2446 C2460 1.377 . S
C2447 C2446 1.524 . S
C2447 C2448 1.397 . S
C2447 C2452 1.363 . S
C2448 H2425 0.950 . S
C2448 C2447 1.397 . S
C2448 C2449 1.334 . S
C2449 H2426 0.950 . S
C2449 C2448 1.334 . S
C2449 C2450 1.287 . S
C2450 C2449 1.287 . S
C2450 C2451 1.524 . S
C2450 H2469 0.913 . S
C2451 H2427 0.950 . S
C2451 C2450 1.524 . S
C2451 C2452 1.415 . S
C2452 H2428 0.950 . S
C2452 C2447 1.363 . S
C2452 C2451 1.415 . S
C2453 H2429 0.951 . S
C2453 C2454 1.366 . S
C2453 C2455 1.388 . S
C2454 C2453 1.366 . S
C2454 C2458 1.385 . S
C2455 H2430 0.951 . S
C2455 C2453 1.388 . S
C2455 C2456 1.366 1_556 S
C2456 C2455 1.366 1_554 S
C2456 C2457 1.414 1_554 S
C2456 C2459 1.499 . S
C2457 H2431 0.950 . S
C2457 C2456 1.414 1_556 S
C2457 C2458 1.374 . S
C2458 H2432 0.950 . S
C2458 C2454 1.385 . S
C2458 C2457 1.374 . S
C2459 C2456 1.499 . S
C2459 C2460 1.373 . S
C2459 C2461 1.389 . S
C2460 H2433 0.950 . S
C2460 C2446 1.377 . S
C2460 C2459 1.373 . S
C2461 C2445 1.377 . S
C2461 C2459 1.389 . S
C2461 C2462 1.524 . S
C2462 C2461 1.524 . S
C2462 C2463 1.397 . S
C2462 C2467 1.363 . S
C2463 H2434 0.950 . S
C2463 C2462 1.397 . S
C2463 C2464 1.334 . S
C2464 H2435 0.950 1_554 S
C2464 C2463 1.334 . S
C2464 C2465 1.287 . S
C2465 C2464 1.287 . S
C2465 C2466 1.524 . S
C2465 H2468 0.999 . S
C2466 H2436 0.950 . S
C2466 C2465 1.524 . S
C2466 C2467 1.415 . S
C2467 H2437 0.950 . S
C2467 C2462 1.363 . S
C2467 C2466 1.415 . S
H2468 C2465 0.999 . S
H2469 C2450 0.913 . S
H2470 C2488 0.951 . S
H2471 C2490 0.951 . S
H2472 C2492 0.950 . S
H2473 C2493 0.950 . S
H2474 C2495 0.950 . S
H2475 C2498 0.950 . S
H2476 C2499 0.950 1_554 S
H2477 C2501 0.950 . S
H2478 C2502 0.950 . S
H2479 C2503 0.951 . S
H2480 C2505 0.951 . S
H2481 C2507 0.950 . S
H2482 C2508 0.950 . S
H2483 C2510 0.950 . S
H2484 C2513 0.950 . S
H2485 C2514 0.950 . S
H2486 C2516 0.950 . S
H2487 C2517 0.950 . S
C2488 H2470 0.951 . S
C2488 C2489 1.366 . S
C2488 C2490 1.388 . S
C2489 C2488 1.366 . S
C2489 C2493 1.385 . S
C2490 H2471 0.951 . S
C2490 C2488 1.388 . S
C2490 C2491 1.366 1_554 S
C2491 C2490 1.366 1_556 S
C2491 C2492 1.414 1_556 S
C2491 C2494 1.499 . S
C2492 H2472 0.950 . S
C2492 C2491 1.414 1_554 S
C2492 C2493 1.374 . S
C2493 H2473 0.950 . S
C2493 C2489 1.385 . S
C2493 C2492 1.374 . S
C2494 C2491 1.499 . S
C2494 C2495 1.373 . S
C2494 C2496 1.389 . S
C2495 H2474 0.950 . S
C2495 C2494 1.373 . S
C2495 C2511 1.377 . S
C2496 C2494 1.389 . S
C2496 C2497 1.524 . S
C2496 C2510 1.377 . S
C2497 C2496 1.524 . S
C2497 C2498 1.397 . S
C2497 C2502 1.363 . S
C2498 H2475 0.950 . S
C2498 C2497 1.397 . S
C2498 C2499 1.334 . S
C2499 H2476 0.950 1_556 S
C2499 C2498 1.334 . S
C2499 C2500 1.287 . S
C2500 C2499 1.287 . S
C2500 C2501 1.524 . S
C2500 H2519 0.913 . S
C2501 H2477 0.950 . S
C2501 C2500 1.524 . S
C2501 C2502 1.415 . S
C2502 H2478 0.950 . S
C2502 C2497 1.363 . S
C2502 C2501 1.415 . S
C2503 H2479 0.951 . S
C2503 C2504 1.366 . S
C2503 C2505 1.388 . S
C2504 C2503 1.366 . S
C2504 C2508 1.385 . S
C2505 H2480 0.951 . S
C2505 C2503 1.388 . S
C2505 C2506 1.366 . S
C2506 C2505 1.366 . S
C2506 C2507 1.414 . S
C2506 C2509 1.499 . S
C2507 H2481 0.950 . S
C2507 C2506 1.414 . S
C2507 C2508 1.374 . S
C2508 H2482 0.950 . S
C2508 C2504 1.385 . S
C2508 C2507 1.374 . S
C2509 C2506 1.499 . S
C2509 C2510 1.373 . S
C2509 C2511 1.389 . S
C2510 H2483 0.950 . S
C2510 C2496 1.377 . S
C2510 C2509 1.373 . S
C2511 C2495 1.377 . S
C2511 C2509 1.389 . S
C2511 C2512 1.524 . S
C2512 C2511 1.524 . S
C2512 C2513 1.397 . S
C2512 C2517 1.363 . S
C2513 H2484 0.950 . S
C2513 C2512 1.397 . S
C2513 C2514 1.334 . S
C2514 H2485 0.950 . S
C2514 C2513 1.334 . S
C2514 C2515 1.287 . S
C2515 C2514 1.287 . S
C2515 C2516 1.524 . S
C2515 H2518 0.999 . S
C2516 H2486 0.950 . S
C2516 C2515 1.524 . S
C2516 C2517 1.415 . S
C2517 H2487 0.950 . S
C2517 C2512 1.363 . S
C2517 C2516 1.415 . S
H2518 C2515 0.999 . S
H2519 C2500 0.913 . S
H2520 C2538 0.951 . S
H2521 C2540 0.951 . S
H2522 C2542 0.950 . S
H2523 C2543 0.950 . S
H2524 C2545 0.950 . S
H2525 C2548 0.950 . S
H2526 C2549 0.950 . S
H2527 C2551 0.950 . S
H2528 C2552 0.950 . S
H2529 C2553 0.951 . S
H2530 C2555 0.951 . S
H2531 C2557 0.950 . S
H2532 C2558 0.950 . S
H2533 C2560 0.950 . S
H2534 C2563 0.950 . S
H2535 C2564 0.950 1_556 S
H2536 C2566 0.950 . S
H2537 C2567 0.950 . S
C2538 H2520 0.951 . S
C2538 C2539 1.366 . S
C2538 C2540 1.388 . S
C2539 C2538 1.366 . S
C2539 C2543 1.385 . S
C2540 H2521 0.951 . S
C2540 C2538 1.388 . S
C2540 C2541 1.366 . S
C2541 C2540 1.366 . S
C2541 C2542 1.414 . S
C2541 C2544 1.499 . S
C2542 H2522 0.950 . S
C2542 C2541 1.414 . S
C2542 C2543 1.374 . S
C2543 H2523 0.950 . S
C2543 C2539 1.385 . S
C2543 C2542 1.374 . S
C2544 C2541 1.499 . S
C2544 C2545 1.373 . S
C2544 C2546 1.389 . S
C2545 H2524 0.950 . S
C2545 C2544 1.373 . S
C2545 C2561 1.377 . S
C2546 C2544 1.389 . S
C2546 C2547 1.524 . S
C2546 C2560 1.377 . S
C2547 C2546 1.524 . S
C2547 C2548 1.397 . S
C2547 C2552 1.363 . S
C2548 H2525 0.950 . S
C2548 C2547 1.397 . S
C2548 C2549 1.334 . S
C2549 H2526 0.950 . S
C2549 C2548 1.334 . S
C2549 C2550 1.287 . S
C2550 C2549 1.287 . S
C2550 C2551 1.524 . S
C2550 H2569 0.913 . S
C2551 H2527 0.950 . S
C2551 C2550 1.524 . S
C2551 C2552 1.415 . S
C2552 H2528 0.950 . S
C2552 C2547 1.363 . S
C2552 C2551 1.415 . S
C2553 H2529 0.951 . S
C2553 C2554 1.366 . S
C2553 C2555 1.388 . S
C2554 C2553 1.366 . S
C2554 C2558 1.385 . S
C2555 H2530 0.951 . S
C2555 C2553 1.388 . S
C2555 C2556 1.366 . S
C2556 C2555 1.366 . S
C2556 C2557 1.414 . S
C2556 C2559 1.499 1_556 S
C2557 H2531 0.950 . S
C2557 C2556 1.414 . S
C2557 C2558 1.374 . S
C2558 H2532 0.950 . S
C2558 C2554 1.385 . S
C2558 C2557 1.374 . S
C2559 C2556 1.499 1_554 S
C2559 C2560 1.373 . S
C2559 C2561 1.389 . S
C2560 H2533 0.950 . S
C2560 C2546 1.377 . S
C2560 C2559 1.373 . S
C2561 C2545 1.377 . S
C2561 C2559 1.389 . S
C2561 C2562 1.524 . S
C2562 C2561 1.524 . S
C2562 C2563 1.397 . S
C2562 C2567 1.363 . S
C2563 H2534 0.950 . S
C2563 C2562 1.397 . S
C2563 C2564 1.334 . S
C2564 H2535 0.950 1_554 S
C2564 C2563 1.334 . S
C2564 C2565 1.287 . S
C2565 C2564 1.287 . S
C2565 C2566 1.524 . S
C2565 H2568 0.999 . S
C2566 H2536 0.950 . S
C2566 C2565 1.524 . S
C2566 C2567 1.415 . S
C2567 H2537 0.950 . S
C2567 C2562 1.363 . S
C2567 C2566 1.415 . S
H2568 C2565 0.999 . S
H2569 C2550 0.913 . S
H2570 C2588 0.951 . S
H2571 C2590 0.951 . S
H2572 C2592 0.950 . S
H2573 C2593 0.950 . S
H2574 C2595 0.950 . S
H2575 C2598 0.950 . S
H2576 C2599 0.950 1_554 S
H2577 C2601 0.950 . S
H2578 C2602 0.950 . S
H2579 C2603 0.951 . S
H2580 C2605 0.951 . S
H2581 C2607 0.950 . S
H2582 C2608 0.950 . S
H2583 C2610 0.950 . S
H2584 C2613 0.950 . S
H2585 C2614 0.950 . S
H2586 C2616 0.950 . S
H2587 C2617 0.950 . S
C2588 H2570 0.951 . S
C2588 C2589 1.366 . S
C2588 C2590 1.388 . S
C2589 C2588 1.366 . S
C2589 C2593 1.385 . S
C2590 H2571 0.951 . S
C2590 C2588 1.388 . S
C2590 C2591 1.366 . S
C2591 C2590 1.366 . S
C2591 C2592 1.414 . S
C2591 C2594 1.499 1_554 S
C2592 H2572 0.950 . S
C2592 C2591 1.414 . S
C2592 C2593 1.374 . S
C2593 H2573 0.950 . S
C2593 C2589 1.385 . S
C2593 C2592 1.374 . S
C2594 C2591 1.499 1_556 S
C2594 C2595 1.373 . S
C2594 C2596 1.389 . S
C2595 H2574 0.950 . S
C2595 C2594 1.373 . S
C2595 C2611 1.377 . S
C2596 C2594 1.389 . S
C2596 C2597 1.524 . S
C2596 C2610 1.377 . S
C2597 C2596 1.524 . S
C2597 C2598 1.397 . S
C2597 C2602 1.363 . S
C2598 H2575 0.950 . S
C2598 C2597 1.397 . S
C2598 C2599 1.334 . S
C2599 H2576 0.950 1_556 S
C2599 C2598 1.334 . S
C2599 C2600 1.287 . S
C2600 C2599 1.287 . S
C2600 C2601 1.524 . S
C2600 H2619 0.913 . S
C2601 H2577 0.950 . S
C2601 C2600 1.524 . S
C2601 C2602 1.415 . S
C2602 H2578 0.950 . S
C2602 C2597 1.363 . S
C2602 C2601 1.415 . S
C2603 H2579 0.951 . S
C2603 C2604 1.366 . S
C2603 C2605 1.388 . S
C2604 C2603 1.366 . S
C2604 C2608 1.385 . S
C2605 H2580 0.951 . S
C2605 C2603 1.388 . S
C2605 C2606 1.366 . S
C2606 C2605 1.366 . S
C2606 C2607 1.414 . S
C2606 C2609 1.499 . S
C2607 H2581 0.950 . S
C2607 C2606 1.414 . S
C2607 C2608 1.374 . S
C2608 H2582 0.950 . S
C2608 C2604 1.385 . S
C2608 C2607 1.374 . S
C2609 C2606 1.499 . S
C2609 C2610 1.373 . S
C2609 C2611 1.389 . S
C2610 H2583 0.950 . S
C2610 C2596 1.377 . S
C2610 C2609 1.373 . S
C2611 C2595 1.377 . S
C2611 C2609 1.389 . S
C2611 C2612 1.524 . S
C2612 C2611 1.524 . S
C2612 C2613 1.397 . S
C2612 C2617 1.363 . S
C2613 H2584 0.950 . S
C2613 C2612 1.397 . S
C2613 C2614 1.334 . S
C2614 H2585 0.950 . S
C2614 C2613 1.334 . S
C2614 C2615 1.287 . S
C2615 C2614 1.287 . S
C2615 C2616 1.524 . S
C2615 H2618 0.999 . S
C2616 H2586 0.950 . S
C2616 C2615 1.524 . S
C2616 C2617 1.415 . S
C2617 H2587 0.950 . S
C2617 C2612 1.363 . S
C2617 C2616 1.415 . S
H2618 C2615 0.999 . S
H2619 C2600 0.913 . S
H2620 C2638 0.951 . S
H2621 C2640 0.951 . S
H2622 C2642 0.950 . S
H2623 C2643 0.950 . S
H2624 C2645 0.950 . S
H2625 C2648 0.950 . S
H2626 C2649 0.950 1_556 S
H2627 C2651 0.950 . S
H2628 C2652 0.950 . S
H2629 C2653 0.951 . S
H2630 C2655 0.951 . S
H2631 C2657 0.950 . S
H2632 C2658 0.950 . S
H2633 C2660 0.950 . S
H2634 C2663 0.950 . S
H2635 C2664 0.950 . S
H2636 C2666 0.950 . S
H2637 C2667 0.950 . S
C2638 H2620 0.951 . S
C2638 C2639 1.366 . S
C2638 C2640 1.388 . S
C2639 C2638 1.366 . S
C2639 C2643 1.385 . S
C2640 H2621 0.951 . S
C2640 C2638 1.388 . S
C2640 C2641 1.366 . S
C2641 C2640 1.366 . S
C2641 C2642 1.414 . S
C2641 C2644 1.499 1_556 S
C2642 H2622 0.950 . S
C2642 C2641 1.414 . S
C2642 C2643 1.374 . S
C2643 H2623 0.950 . S
C2643 C2639 1.385 . S
C2643 C2642 1.374 . S
C2644 C2641 1.499 1_554 S
C2644 C2645 1.373 . S
C2644 C2646 1.389 . S
C2645 H2624 0.950 . S
C2645 C2644 1.373 . S
C2645 C2661 1.377 . S
C2646 C2644 1.389 . S
C2646 C2647 1.524 . S
C2646 C2660 1.377 . S
C2647 C2646 1.524 . S
C2647 C2648 1.397 . S
C2647 C2652 1.363 . S
C2648 H2625 0.950 . S
C2648 C2647 1.397 . S
C2648 C2649 1.334 . S
C2649 H2626 0.950 1_554 S
C2649 C2648 1.334 . S
C2649 C2650 1.287 . S
C2650 C2649 1.287 . S
C2650 C2651 1.524 . S
C2650 H2669 0.913 1_554 S
C2651 H2627 0.950 . S
C2651 C2650 1.524 . S
C2651 C2652 1.415 . S
C2652 H2628 0.950 . S
C2652 C2647 1.363 . S
C2652 C2651 1.415 . S
C2653 H2629 0.951 . S
C2653 C2654 1.366 . S
C2653 C2655 1.388 . S
C2654 C2653 1.366 . S
C2654 C2658 1.385 . S
C2655 H2630 0.951 . S
C2655 C2653 1.388 . S
C2655 C2656 1.366 . S
C2656 C2655 1.366 . S
C2656 C2657 1.414 . S
C2656 C2659 1.499 . S
C2657 H2631 0.950 . S
C2657 C2656 1.414 . S
C2657 C2658 1.374 . S
C2658 H2632 0.950 . S
C2658 C2654 1.385 . S
C2658 C2657 1.374 . S
C2659 C2656 1.499 . S
C2659 C2660 1.373 . S
C2659 C2661 1.389 . S
C2660 H2633 0.950 . S
C2660 C2646 1.377 . S
C2660 C2659 1.373 . S
C2661 C2645 1.377 . S
C2661 C2659 1.389 . S
C2661 C2662 1.524 . S
C2662 C2661 1.524 . S
C2662 C2663 1.397 . S
C2662 C2667 1.363 . S
C2663 H2634 0.950 . S
C2663 C2662 1.397 . S
C2663 C2664 1.334 . S
C2664 H2635 0.950 . S
C2664 C2663 1.334 . S
C2664 C2665 1.287 . S
C2665 C2664 1.287 . S
C2665 C2666 1.524 . S
C2665 H2668 0.999 . S
C2666 H2636 0.950 . S
C2666 C2665 1.524 . S
C2666 C2667 1.415 . S
C2667 H2637 0.950 . S
C2667 C2662 1.363 . S
C2667 C2666 1.415 . S
H2668 C2665 0.999 . S
H2669 C2650 0.913 1_556 S
H2670 C2688 0.951 . S
H2671 C2690 0.951 . S
H2672 C2692 0.950 . S
H2673 C2693 0.950 . S
H2674 C2695 0.950 . S
H2675 C2698 0.950 . S
H2676 C2699 0.950 . S
H2677 C2701 0.950 . S
H2678 C2702 0.950 . S
H2679 C2703 0.951 . S
H2680 C2705 0.951 . S
H2681 C2707 0.950 . S
H2682 C2708 0.950 . S
H2683 C2710 0.950 . S
H2684 C2713 0.950 . S
H2685 C2714 0.950 1_554 S
H2686 C2716 0.950 . S
H2687 C2717 0.950 . S
C2688 H2670 0.951 . S
C2688 C2689 1.366 . S
C2688 C2690 1.388 . S
C2689 C2688 1.366 . S
C2689 C2693 1.385 . S
C2690 H2671 0.951 . S
C2690 C2688 1.388 . S
C2690 C2691 1.366 . S
C2691 C2690 1.366 . S
C2691 C2692 1.414 . S
C2691 C2694 1.499 . S
C2692 H2672 0.950 . S
C2692 C2691 1.414 . S
C2692 C2693 1.374 . S
C2693 H2673 0.950 . S
C2693 C2689 1.385 . S
C2693 C2692 1.374 . S
C2694 C2691 1.499 . S
C2694 C2695 1.373 . S
C2694 C2696 1.389 . S
C2695 H2674 0.950 . S
C2695 C2694 1.373 . S
C2695 C2711 1.377 . S
C2696 C2694 1.389 . S
C2696 C2697 1.524 . S
C2696 C2710 1.377 . S
C2697 C2696 1.524 . S
C2697 C2698 1.397 . S
C2697 C2702 1.363 . S
C2698 H2675 0.950 . S
C2698 C2697 1.397 . S
C2698 C2699 1.334 . S
C2699 H2676 0.950 . S
C2699 C2698 1.334 . S
C2699 C2700 1.287 . S
C2700 C2699 1.287 . S
C2700 C2701 1.524 . S
C2700 H2719 0.913 . S
C2701 H2677 0.950 . S
C2701 C2700 1.524 . S
C2701 C2702 1.415 . S
C2702 H2678 0.950 . S
C2702 C2697 1.363 . S
C2702 C2701 1.415 . S
C2703 H2679 0.951 . S
C2703 C2704 1.366 . S
C2703 C2705 1.388 . S
C2704 C2703 1.366 . S
C2704 C2708 1.385 . S
C2705 H2680 0.951 . S
C2705 C2703 1.388 . S
C2705 C2706 1.366 . S
C2706 C2705 1.366 . S
C2706 C2707 1.414 . S
C2706 C2709 1.499 1_554 S
C2707 H2681 0.950 . S
C2707 C2706 1.414 . S
C2707 C2708 1.374 . S
C2708 H2682 0.950 . S
C2708 C2704 1.385 . S
C2708 C2707 1.374 . S
C2709 C2706 1.499 1_556 S
C2709 C2710 1.373 . S
C2709 C2711 1.389 . S
C2710 H2683 0.950 . S
C2710 C2696 1.377 . S
C2710 C2709 1.373 . S
C2711 C2695 1.377 . S
C2711 C2709 1.389 . S
C2711 C2712 1.524 . S
C2712 C2711 1.524 . S
C2712 C2713 1.397 . S
C2712 C2717 1.363 . S
C2713 H2684 0.950 . S
C2713 C2712 1.397 . S
C2713 C2714 1.334 . S
C2714 H2685 0.950 1_556 S
C2714 C2713 1.334 . S
C2714 C2715 1.287 . S
C2715 C2714 1.287 . S
C2715 C2716 1.524 . S
C2715 H2718 0.999 . S
C2716 H2686 0.950 . S
C2716 C2715 1.524 . S
C2716 C2717 1.415 . S
C2717 H2687 0.950 . S
C2717 C2712 1.363 . S
C2717 C2716 1.415 . S
H2718 C2715 0.999 . S
H2719 C2700 0.913 . S
C339 C222 1.551 . S
C354 C19 1.581 . S
C389 C164 1.551 . S
C404 C38 1.582 . S
C439 C59 1.582 . S
C454 C182 1.550 . S
C489 C78 1.582 . S
C504 C204 1.550 . S
C539 C99 1.581 . S
C554 C102 1.551 . S
C589 C124 1.551 . S
C604 C118 1.581 . S
C639 C139 1.582 . S
C654 C142 1.550 . S
C689 C84 1.550 . S
C704 C158 1.582 . S
C739 C62 1.550 . S
C754 C179 1.582 . S
C789 C198 1.581 . S
C804 C4 1.551 . S
C839 C22 1.551 . S
C854 C219 1.581 . S
C889 C44 1.551 . S
C904 C238 1.581 . S
C939 C259 1.582 . S
C954 C262 1.551 . S
C989 C284 1.551 . S
C1004 C278 1.581 . S
C1039 C302 1.551 . S
C1054 C299 1.582 . S
C1089 C318 1.582 . S
C1104 C244 1.551 . S
C1139 C18 1.443 . S
C1154 C98 1.444 . S
C1189 C119 1.443 . S
C1204 C39 1.444 . S
C1239 C58 1.444 . S
C1254 C138 1.443 . S
C1289 C79 1.444 . S
C1304 C159 1.444 . S
C1339 C178 1.443 . S
C1354 C258 1.444 . S
C1389 C279 1.444 . S
C1404 C199 1.444 . S
C1439 C218 1.444 . S
C1454 C298 1.443 . S
C1489 C239 1.444 . S
C1504 C319 1.444 . S
C1539 C282 1.574 . S
C1554 C2 1.574 . S
C1589 C24 1.573 . S
C1604 C304 1.573 . S
C1639 C42 1.574 . S
C1654 C242 1.574 . S
C1689 C64 1.575 . S
C1704 C264 1.575 . S
C1739 C82 1.574 . S
C1754 C202 1.574 . S
C1789 C104 1.574 . S
C1804 C224 1.574 . S
C1839 C122 1.574 . S
C1854 C162 1.574 . S
C1889 C184 1.573 . S
C1904 C144 1.574 . S
C1939 C12 1.304 . S
C1954 C9 1.304 . S
C1989 C29 1.305 . S
C2004 C32 1.305 . S
C2039 C52 1.305 . S
C2054 C49 1.305 . S
C2089 C72 1.305 . S
C2104 C69 1.305 . S
C2139 C89 1.305 . S
C2154 C92 1.305 . S
C2189 C109 1.304 . S
C2204 C112 1.304 . S
C2239 C132 1.304 . S
C2254 C129 1.304 . S
C2289 C152 1.305 . S
C2304 C149 1.305 . S
C2339 C172 1.304 . S
C2354 C169 1.304 . S
C2389 C192 1.305 . S
C2404 C189 1.305 . S
C2439 C209 1.305 . S
C2454 C212 1.305 . S
C2489 C229 1.304 . S
C2504 C232 1.304 . S
C2539 C252 1.305 . S
C2554 C249 1.305 . S
C2589 C272 1.304 . S
C2604 C269 1.304 . S
C2639 C289 1.304 . S
C2654 C292 1.304 . S
C2689 C309 1.305 . S
C2704 C312 1.305 . S
