# Generated by pormake.
# Topology wjd, (6)-cn, num edge types: 1
# Building blocks:
#     Node 0, Type 0, BuildingBlock: HISSIN_clean_sbu_0, # of connection points: 6
#     Node 1, Type 0, BuildingBlock: HISSIN_clean_sbu_0, # of connection points: 6
#     Node 2, Type 0, BuildingBlock: HISSIN_clean_sbu_0, # of connection points: 6
#     Node 3, Type 0, BuildingBlock: HISSIN_clean_sbu_0, # of connection points: 6
#     Node 4, Type 0, BuildingBlock: HISSIN_clean_sbu_0, # of connection points: 6
#     Node 5, Type 0, BuildingBlock: HISSIN_clean_sbu_0, # of connection points: 6
#     Node 6, Type 0, BuildingBlock: HISSIN_clean_sbu_0, # of connection points: 6
#     Node 7, Type 0, BuildingBlock: HISSIN_clean_sbu_0, # of connection points: 6
#     Node 8, Type 0, BuildingBlock: HISSIN_clean_sbu_0, # of connection points: 6
#     Node 9, Type 0, BuildingBlock: HISSIN_clean_sbu_0, # of connection points: 6
#     Node 10, Type 0, BuildingBlock: HISSIN_clean_sbu_0, # of connection points: 6
#     Node 11, Type 0, BuildingBlock: HISSIN_clean_sbu_0, # of connection points: 6
#     Edge 12, Type (0, 0), BuildingBlock: AJUNOK_clean_linker_0, # of connection points: 2
#     Edge 13, Type (0, 0), BuildingBlock: AJUNOK_clean_linker_0, # of connection points: 2
#     Edge 14, Type (0, 0), BuildingBlock: AJUNOK_clean_linker_0, # of connection points: 2
#     Edge 15, Type (0, 0), BuildingBlock: AJUNOK_clean_linker_0, # of connection points: 2
#     Edge 16, Type (0, 0), BuildingBlock: AJUNOK_clean_linker_0, # of connection points: 2
#     Edge 17, Type (0, 0), BuildingBlock: AJUNOK_clean_linker_0, # of connection points: 2
#     Edge 18, Type (0, 0), BuildingBlock: AJUNOK_clean_linker_0, # of connection points: 2
#     Edge 19, Type (0, 0), BuildingBlock: AJUNOK_clean_linker_0, # of connection points: 2
#     Edge 20, Type (0, 0), BuildingBlock: AJUNOK_clean_linker_0, # of connection points: 2
#     Edge 21, Type (0, 0), BuildingBlock: AJUNOK_clean_linker_0, # of connection points: 2
#     Edge 22, Type (0, 0), BuildingBlock: AJUNOK_clean_linker_0, # of connection points: 2
#     Edge 23, Type (0, 0), BuildingBlock: AJUNOK_clean_linker_0, # of connection points: 2
#     Edge 24, Type (0, 0), BuildingBlock: AJUNOK_clean_linker_0, # of connection points: 2
#     Edge 25, Type (0, 0), BuildingBlock: AJUNOK_clean_linker_0, # of connection points: 2
#     Edge 26, Type (0, 0), BuildingBlock: AJUNOK_clean_linker_0, # of connection points: 2
#     Edge 27, Type (0, 0), BuildingBlock: AJUNOK_clean_linker_0, # of connection points: 2
#     Edge 28, Type (0, 0), BuildingBlock: AJUNOK_clean_linker_0, # of connection points: 2
#     Edge 29, Type (0, 0), BuildingBlock: AJUNOK_clean_linker_0, # of connection points: 2
#     Edge 30, Type (0, 0), BuildingBlock: AJUNOK_clean_linker_0, # of connection points: 2
#     Edge 31, Type (0, 0), BuildingBlock: AJUNOK_clean_linker_0, # of connection points: 2
#     Edge 32, Type (0, 0), BuildingBlock: AJUNOK_clean_linker_0, # of connection points: 2
#     Edge 33, Type (0, 0), BuildingBlock: AJUNOK_clean_linker_0, # of connection points: 2
#     Edge 34, Type (0, 0), BuildingBlock: AJUNOK_clean_linker_0, # of connection points: 2
#     Edge 35, Type (0, 0), BuildingBlock: AJUNOK_clean_linker_0, # of connection points: 2
#     Edge 36, Type (0, 0), BuildingBlock: AJUNOK_clean_linker_0, # of connection points: 2
#     Edge 37, Type (0, 0), BuildingBlock: AJUNOK_clean_linker_0, # of connection points: 2
#     Edge 38, Type (0, 0), BuildingBlock: AJUNOK_clean_linker_0, # of connection points: 2
#     Edge 39, Type (0, 0), BuildingBlock: AJUNOK_clean_linker_0, # of connection points: 2
#     Edge 40, Type (0, 0), BuildingBlock: AJUNOK_clean_linker_0, # of connection points: 2
#     Edge 41, Type (0, 0), BuildingBlock: AJUNOK_clean_linker_0, # of connection points: 2
#     Edge 42, Type (0, 0), BuildingBlock: AJUNOK_clean_linker_0, # of connection points: 2
#     Edge 43, Type (0, 0), BuildingBlock: AJUNOK_clean_linker_0, # of connection points: 2
#     Edge 44, Type (0, 0), BuildingBlock: AJUNOK_clean_linker_0, # of connection points: 2
#     Edge 45, Type (0, 0), BuildingBlock: AJUNOK_clean_linker_0, # of connection points: 2
#     Edge 46, Type (0, 0), BuildingBlock: AJUNOK_clean_linker_0, # of connection points: 2
#     Edge 47, Type (0, 0), BuildingBlock: AJUNOK_clean_linker_0, # of connection points: 2
# Relax obj value: 0.101
# Max RMSD: 0.226
# Mean RMSD: 0.226
data_MOF--net-wjd--node1-HISSIN_clean_sbu_0--edge1-AJUNOK_clean_linker_0
_symmetry_space_group_name_H-M    P1
_symmetry_Int_Tables_number       1
_symmetry_cell_setting            triclinic
loop_
_symmetry_equiv_pos_as_xyz
'x, y, z'
_cell_length_a     31.751083
_cell_length_b     31.787998
_cell_length_c     39.501482
_cell_angle_alpha  90.472043
_cell_angle_beta   89.510216
_cell_angle_gamma 119.91039
loop_
_atom_site_label
_atom_site_type_symbol
_atom_site_fract_x
_atom_site_fract_y
_atom_site_fract_z
_atom_type_partial_charge
Eu0 Eu 0.42301 0.2027 0.1007 0.0
Eu1 Eu 0.35145 0.10248 0.14395 0.0
C2 C 0.42207 0.20174 0.1823 0.0
C3 C 0.51437 0.33671 0.08021 0.0
C4 C 0.5221 0.3518 0.11424 0.0
C5 C 0.57307 0.41942 0.06333 0.0
C6 C 0.55578 0.40008 0.12275 0.0
C7 C 0.53944 0.37114 0.05485 0.0
C8 C 0.58263 0.43425 0.09742 0.0
C9 C 0.48381 0.28479 0.07095 0.0
O10 O 0.30449 0.13142 0.12319 0.0
O11 O 0.36256 0.21137 0.12337 0.0
C12 C 0.31669 0.17746 0.12452 0.0
O13 O 0.37546 0.14719 0.05999 0.0
O14 O 0.29872 0.06768 0.18478 0.0
O15 O 0.31988 1.02486 0.15395 0.0
O16 O 0.34207 0.07615 0.09072 0.0
C17 C 0.34996 0.09904 0.06196 0.0
O18 O 0.44936 0.14989 0.09353 0.0
O19 O 0.42933 0.11545 0.14574 0.0
O20 O 0.37884 0.16323 0.18139 0.0
O21 O 0.49636 0.25531 0.08436 0.0
O22 O 0.43669 0.26643 0.07093 0.0
O23 O 0.45004 0.21758 0.15525 0.0
C24 C 0.23725 0.9894 0.16978 0.0
C25 C 0.21421 0.99565 0.14165 0.0
C26 C 0.16061 0.91898 0.18619 0.0
C27 C 0.1648 0.96382 0.13579 0.0
C28 C 0.21015 0.9509 0.19203 0.0
C29 C 0.13729 0.92522 0.15807 0.0
C30 C 0.28898 1.02407 0.17628 0.0
C31 C 0.45811 0.12919 0.11885 0.0
H32 H 0.50312 0.32591 0.13426 0.0
H33 H 0.59318 0.44465 0.04322 0.0
H34 H 0.56159 0.41044 0.14921 0.0
H35 H 0.53422 0.36032 0.02845 0.0
H36 H 0.23443 1.02542 0.12432 0.0
H37 H 0.14071 0.88907 0.20346 0.0
H38 H 0.14794 0.96974 0.11401 0.0
H39 H 0.22725 0.94557 0.21393 0.0
Eu40 Eu 0.81954 0.74153 0.37254 0.0
Eu41 Eu 0.86889 0.68119 0.40573 0.0
C42 C 0.83412 0.74374 0.45056 0.0
C43 C 0.80948 0.85201 0.35349 0.0
C44 C 0.85049 0.88009 0.37369 0.0
C45 C 0.80459 0.92436 0.34169 0.0
C46 C 0.86801 0.92987 0.37825 0.0
C47 C 0.78705 0.87459 0.3372 0.0
C48 C 0.84472 0.95243 0.36278 0.0
C49 C 0.7899 0.79926 0.34974 0.0
O50 O 0.79366 0.6238 0.39169 0.0
O51 O 0.75563 0.66949 0.39092 0.0
C52 C 0.75417 0.62725 0.39328 0.0
O53 O 0.80989 0.68633 0.33345 0.0
O54 O 0.86682 0.62197 0.43505 0.0
O55 O 0.93438 0.67578 0.41227 0.0
O56 O 0.87601 0.67965 0.34829 0.0
C57 C 0.84331 0.675 0.32598 0.0
O58 O 0.90011 0.78154 0.36043 0.0
O59 O 0.92526 0.76035 0.40777 0.0
O60 O 0.83294 0.70169 0.44858 0.0
O61 O 0.81654 0.78634 0.33206 0.0
O62 O 0.77311 0.77383 0.3774 0.0
O63 O 0.84618 0.77183 0.42418 0.0
C64 C 0.92336 0.5967 0.41801 0.0
C65 C 0.89367 0.55919 0.39549 0.0
C66 C 0.97624 0.56183 0.42226 0.0
C67 C 0.90491 0.52287 0.38681 0.0
C68 C 0.96499 0.59794 0.43091 0.0
C69 C 0.94617 0.52348 0.40036 0.0
C70 C 0.91207 0.6349 0.42862 0.0
C71 C 0.93477 0.78898 0.38168 0.0
H72 H 0.86855 0.86334 0.38629 0.0
H73 H 0.78657 0.94089 0.32876 0.0
H74 H 0.89899 0.95047 0.39456 0.0
H75 H 0.75572 0.85367 0.32123 0.0
H76 H 0.86144 0.55755 0.38505 0.0
H77 H 1.00831 0.56359 0.43309 0.0
H78 H 0.8804 0.49344 0.37043 0.0
H79 H 0.98863 0.62667 0.44812 0.0
Eu80 Eu 0.88449 0.22755 0.10177 0.0
Eu81 Eu 0.99097 0.27218 0.13888 0.0
C82 C 0.89803 0.24863 0.18267 0.0
C83 C 0.74708 0.1748 0.08533 0.0
C84 C 0.73782 0.20011 0.11097 0.0
C85 C 0.6599 0.12341 0.07727 0.0
C86 C 0.68979 0.18747 0.11936 0.0
C87 C 0.7077 0.13605 0.06891 0.0
C88 C 0.6502 0.14916 0.10237 0.0
C89 C 0.79708 0.18713 0.07553 0.0
O90 O 0.94811 0.19132 0.14959 0.0
O91 O 0.90481 0.16938 0.10073 0.0
C92 C 0.92075 0.15776 0.12752 0.0
O93 O 0.94393 0.26344 0.06106 0.0
O94 O 1.03774 0.27233 0.17922 0.0
O95 O 0.06975 0.31892 0.13571 0.0
O96 O 0.99645 0.24611 0.08736 0.0
C97 C 0.98432 0.26104 0.06053 0.0
O98 O 0.90117 0.30089 0.12033 0.0
O99 O 0.9845 0.33762 0.12187 0.0
O100 O 0.94412 0.28039 0.17793 0.0
O101 O 0.82956 0.23289 0.07182 0.0
O102 O 0.81464 0.16314 0.09083 0.0
O103 O 0.87128 0.21797 0.1587 0.0
C104 C 0.11181 0.28045 0.1572 0.0
C105 C 0.15051 0.30287 0.13399 0.0
C106 C 0.13717 0.22103 0.16906 0.0
C107 C 0.18176 0.28437 0.12811 0.0
C108 C 0.10571 0.23941 0.17484 0.0
C109 C 0.17541 0.24306 0.14541 0.0
C110 C 0.07762 0.29933 0.1621 0.0
C111 C 0.94412 0.3401 0.12118 0.0
H112 H 0.76765 0.22995 0.12418 0.0
H113 H 0.63037 0.09366 0.06378 0.0
H114 H 0.68373 0.20866 0.13836 0.0
H115 H 0.71394 0.11569 0.04932 0.0
H116 H 0.15641 0.33457 0.12004 0.0
H117 H 0.13198 0.19001 0.18354 0.0
H118 H 0.21076 0.30224 0.1097 0.0
H119 H 0.07657 0.22134 0.19313 0.0
Eu120 Eu 0.35273 0.10449 0.3601 0.0
Eu121 Eu 0.42441 0.20464 0.40323 0.0
C122 C 0.35574 0.10058 0.44144 0.0
C123 C 0.23725 0.99104 0.33626 0.0
C124 C 0.22028 0.98434 0.36985 0.0
C125 C 0.1549 0.93524 0.31741 0.0
C126 C 0.17112 0.95306 0.37718 0.0
C127 C 0.20421 0.96634 0.3101 0.0
C128 C 0.13783 0.92839 0.35104 0.0
C129 C 0.28841 1.02646 0.3283 0.0
O130 O 0.4552 0.15475 0.40619 0.0
O131 O 0.4304 0.11869 0.35425 0.0
C132 C 0.46111 0.13305 0.37977 0.0
O133 O 0.37944 0.16494 0.32277 0.0
O134 O 0.49713 0.25806 0.41985 0.0
O135 O 0.43621 0.26697 0.4346 0.0
O136 O 0.45016 0.22127 0.34839 0.0
C137 C 0.42212 0.20424 0.32161 0.0
O138 O 0.3066 0.13209 0.38471 0.0
O139 O 0.36288 0.21228 0.38211 0.0
O140 O 0.37656 0.14855 0.44326 0.0
O141 O 0.29691 0.06999 0.32135 0.0
O142 O 0.32128 1.02725 0.34835 0.0
O143 O 0.35055 0.0781 0.41256 0.0
C144 C 0.51357 0.3387 0.42789 0.0
C145 C 0.52556 0.35685 0.39474 0.0
C146 C 0.56823 0.41983 0.44963 0.0
C147 C 0.5594 0.40609 0.38911 0.0
C148 C 0.53438 0.37084 0.45521 0.0
C149 C 0.58195 0.43792 0.41655 0.0
C150 C 0.48338 0.28606 0.43467 0.0
C151 C 0.31732 0.17755 0.38258 0.0
H152 H 0.24496 1.00372 0.39041 0.0
H153 H 0.13021 0.91619 0.2968 0.0
H154 H 0.15896 0.94865 0.40328 0.0
H155 H 0.21647 0.97144 0.284 0.0
H156 H 0.51015 0.33263 0.37324 0.0
H157 H 0.58489 0.4434 0.47127 0.0
H158 H 0.56973 0.41867 0.36335 0.0
H159 H 0.5258 0.35765 0.48097 0.0
Eu160 Eu 0.86663 0.68087 0.10229 0.0
Eu161 Eu 0.81738 0.73995 0.13811 0.0
C162 C 0.84247 0.67386 0.18278 0.0
C163 C 0.91537 0.59293 0.08526 0.0
C164 C 0.91361 0.57886 0.11911 0.0
C165 C 0.93416 0.53028 0.06794 0.0
C166 C 0.92197 0.54076 0.12727 0.0
C167 C 0.92593 0.56846 0.05981 0.0
C168 C 0.93189 0.51562 0.10174 0.0
C169 C 0.90775 0.63377 0.07617 0.0
O170 O 0.89783 0.77911 0.1505 0.0
O171 O 0.92403 0.75976 0.10224 0.0
C172 C 0.93313 0.78699 0.12931 0.0
O173 O 0.83159 0.70367 0.06095 0.0
O174 O 0.81587 0.78567 0.17929 0.0
O175 O 0.76804 0.76904 0.13635 0.0
O176 O 0.84487 0.77284 0.08728 0.0
C177 C 0.83324 0.74602 0.06005 0.0
O178 O 0.79301 0.62305 0.11963 0.0
O179 O 0.75406 0.66759 0.11927 0.0
O180 O 0.809 0.68534 0.17654 0.0
O181 O 0.86344 0.6234 0.06932 0.0
O182 O 0.93047 0.673 0.09455 0.0
O183 O 0.87458 0.6783 0.15959 0.0
C184 C 0.8053 0.84938 0.15864 0.0
C185 C 0.81378 0.87 0.12621 0.0
C186 C 0.83673 0.93019 0.18315 0.0
C187 C 0.83367 0.92003 0.12229 0.0
C188 C 0.81683 0.87995 0.18708 0.0
C189 C 0.84568 0.95084 0.15065 0.0
C190 C 0.78726 0.79678 0.16291 0.0
C191 C 0.75293 0.6254 0.11899 0.0
H192 H 0.9059 0.59743 0.13925 0.0
H193 H 0.94137 0.51157 0.04765 0.0
H194 H 0.92082 0.53107 0.15362 0.0
H195 H 0.92771 0.57883 0.03355 0.0
H196 H 0.80548 0.84754 0.10377 0.0
H197 H 0.84456 0.95274 0.20553 0.0
H198 H 0.84016 0.93478 0.09695 0.0
H199 H 0.81072 0.86498 0.21237 0.0
Eu200 Eu 0.98772 0.26702 0.36477 0.0
Eu201 Eu 0.88561 0.24031 0.40508 0.0
C202 C 0.98662 0.27335 0.44601 0.0
C203 C 0.10485 0.26678 0.34369 0.0
C204 C 0.13077 0.28021 0.37433 0.0
C205 C 0.1455 0.22141 0.32825 0.0
C206 C 0.1638 0.26449 0.38174 0.0
C207 C 0.1128 0.23744 0.32071 0.0
C208 C 0.17118 0.23455 0.35893 0.0
C209 C 0.06826 0.28132 0.33577 0.0
O210 O 0.93707 0.3198 0.41132 0.0
O211 O 0.97574 0.33236 0.36026 0.0
C212 C 0.96062 0.34843 0.38599 0.0
O213 O 0.9306 0.23748 0.32503 0.0
O214 O 0.82074 0.19013 0.43413 0.0
O215 O 0.83126 0.26012 0.41915 0.0
O216 O 0.87438 0.25325 0.35012 0.0
C217 C 0.89204 0.24212 0.32347 0.0
O218 O 0.95575 0.19108 0.38646 0.0
O219 O 0.87698 0.17209 0.38158 0.0
O220 O 0.93857 0.24604 0.44673 0.0
O221 O 1.02531 0.24622 0.32744 0.0
O222 O 0.06578 0.31301 0.35567 0.0
O223 O 1.01074 0.29041 0.41776 0.0
C224 C 0.7502 0.19542 0.42153 0.0
C225 C 0.73758 0.18842 0.38708 0.0
C226 C 0.66543 0.16633 0.43597 0.0
C227 C 0.68922 0.17097 0.37716 0.0
C228 C 0.71364 0.18372 0.44582 0.0
C229 C 0.65248 0.1599 0.40149 0.0
C230 C 0.80149 0.21804 0.43244 0.0
C231 C 0.90948 0.15838 0.38349 0.0
H232 H 0.12534 0.30254 0.39273 0.0
H233 H 0.15114 0.19918 0.30988 0.0
H234 H 0.18315 0.27524 0.40554 0.0
H235 H 0.09343 0.22664 0.29691 0.0
H236 H 0.76528 0.19744 0.36784 0.0
H237 H 0.63859 0.15964 0.45541 0.0
H238 H 0.68063 0.16662 0.35043 0.0
H239 H 0.7226 0.18932 0.47249 0.0
Eu240 Eu 0.11612 0.33417 0.63916 0.0
Eu241 Eu 0.22177 0.39422 0.59972 0.0
C242 C 0.12037 0.329 0.56041 0.0
C243 C 0.99879 0.22327 0.66234 0.0
C244 C 1.00983 0.19733 0.63832 0.0
C245 C 0.92619 0.14809 0.67825 0.0
C246 C 0.97885 0.14744 0.63378 0.0
C247 C 0.95695 0.19828 0.68246 0.0
C248 C 0.93668 0.12224 0.65368 0.0
C249 C 1.03115 0.27617 0.66615 0.0
O250 O 0.20561 0.45103 0.61911 0.0
O251 O 0.12223 0.40532 0.62096 0.0
C252 C 0.16278 0.4478 0.6195 0.0
O253 O 0.16496 0.3899 0.67677 0.0
O254 O 0.27348 0.45125 0.56589 0.0
O255 O 0.29337 0.40268 0.58975 0.0
O256 O 0.23611 0.39687 0.65638 0.0
C257 C 0.21073 0.40252 0.68076 0.0
O258 O 0.15843 0.29496 0.64737 0.0
O259 O 0.20016 0.31549 0.59756 0.0
O260 O 0.1614 0.37102 0.56033 0.0
O261 O 0.07219 0.28956 0.6815 0.0
O262 O 1.03718 0.30186 0.63902 0.0
O263 O 0.10745 0.30217 0.58748 0.0
C264 C 0.35769 0.48339 0.57985 0.0
C265 C 0.39497 0.47462 0.59017 0.0
C266 C 0.41544 0.57029 0.58295 0.0
C267 C 0.44178 0.51317 0.59705 0.0
C268 C 0.36864 0.53179 0.57618 0.0
C269 C 0.4527 0.56157 0.59345 0.0
C270 C 0.30847 0.44198 0.57188 0.0
C271 C 0.18427 0.28772 0.62431 0.0
H272 H 1.04239 0.21579 0.62294 0.0
H273 H 0.89367 0.12966 0.69369 0.0
H274 H 0.98794 0.12843 0.61479 0.0
H275 H 0.94792 0.21758 0.70123 0.0
H276 H 0.38793 0.4378 0.593 0.0
H277 H 0.42262 0.60709 0.57964 0.0
H278 H 0.46919 0.50502 0.60567 0.0
H279 H 0.34113 0.54005 0.56794 0.0
Eu280 Eu 0.25945 0.86945 0.90127 0.0
Eu281 Eu 0.2881 0.97141 0.86086 0.0
C282 C 0.2602 0.87399 0.81933 0.0
C283 C 0.21139 0.7333 0.91711 0.0
C284 C 0.2268 0.71892 0.88789 0.0
C285 C 0.15602 0.64792 0.92964 0.0
C286 C 0.20789 0.66953 0.88015 0.0
C287 C 0.17505 0.69725 0.93744 0.0
C288 C 0.17293 0.63329 0.90131 0.0
C289 C 0.23506 0.78506 0.92805 0.0
O290 O 0.21243 0.94162 0.88298 0.0
O291 O 0.19103 0.86194 0.87942 0.0
C292 C 0.17882 0.89561 0.88105 0.0
O293 O 0.26626 0.92377 0.94298 0.0
O294 O 0.27013 1.00841 0.82218 0.0
O295 O 0.33317 0.04988 0.85347 0.0
O296 O 0.31126 0.99515 0.91387 0.0
C297 C 0.29335 0.97186 0.94221 0.0
O298 O 0.33978 0.91873 0.90603 0.0
O299 O 0.35201 0.95734 0.85525 0.0
O300 O 0.25744 0.91365 0.82113 0.0
O301 O 0.27784 0.81446 0.9153 0.0
O302 O 0.20801 0.80528 0.9304 0.0
O303 O 0.26969 0.85546 0.84589 0.0
C304 C 0.28581 0.08575 0.83964 0.0
C305 C 0.2506 0.07485 0.86503 0.0
C306 C 0.28622 0.16107 0.8286 0.0
C307 C 0.23322 0.10679 0.87209 0.0
C308 C 0.30344 0.12902 0.82146 0.0
C309 C 0.2508 0.15028 0.85392 0.0
C310 C 0.30336 0.05161 0.83176 0.0
C311 C 0.36787 0.94154 0.88024 0.0
H312 H 0.25471 0.74578 0.87159 0.0
H313 H 0.12901 0.62108 0.94643 0.0
H314 H 0.22253 0.65982 0.85853 0.0
H315 H 0.1624 0.7072 0.96003 0.0
H316 H 0.2366 0.04164 0.87943 0.0
H317 H 0.30039 0.19425 0.81413 0.0
H318 H 0.20667 0.09786 0.89215 0.0
H319 H 0.33045 0.138 0.80172 0.0
Eu320 Eu 0.75579 0.8021 0.63547 0.0
Eu321 Eu 0.69383 0.84775 0.60113 0.0
C322 C 0.75971 0.81612 0.55795 0.0
C323 C 0.86724 0.7923 0.65134 0.0
C324 C 0.89201 0.82573 0.62532 0.0
C325 C 0.94297 0.79615 0.66704 0.0
C326 C 0.9418 0.844 0.62005 0.0
C327 C 0.89311 0.77781 0.67224 0.0
C328 C 0.96794 0.82951 0.6409 0.0
C329 C 0.81473 0.77306 0.65682 0.0
O330 O 0.63754 0.77403 0.61874 0.0
O331 O 0.68438 0.73768 0.61652 0.0
C332 C 0.64138 0.7349 0.61669 0.0
O333 O 0.70118 0.79207 0.67533 0.0
O334 O 0.63458 0.84279 0.5701 0.0
O335 O 0.68566 0.91117 0.59326 0.0
O336 O 0.68982 0.85478 0.6585 0.0
C337 C 0.68679 0.82356 0.68157 0.0
O338 O 0.79331 0.88233 0.64872 0.0
O339 O 0.77226 0.90688 0.60101 0.0
O340 O 0.71619 0.81177 0.55937 0.0
O341 O 0.80307 0.80045 0.67475 0.0
O342 O 0.78737 0.75516 0.6301 0.0
O343 O 0.78733 0.83148 0.58458 0.0
C344 C 0.60534 0.89572 0.58693 0.0
C345 C 0.58157 0.87888 0.61819 0.0
C346 C 0.55479 0.93176 0.57596 0.0
C347 C 0.5444 0.88817 0.62815 0.0
C348 C 0.59183 0.92241 0.56603 0.0
C349 C 0.53032 0.91448 0.60702 0.0
C350 C 0.64541 0.88747 0.57628 0.0
C351 C 0.79989 0.91702 0.62776 0.0
H352 H 0.87274 0.83748 0.60889 0.0
H353 H 0.96212 0.78442 0.68359 0.0
H354 H 0.95963 0.8688 0.59928 0.0
H355 H 0.87475 0.75227 0.69256 0.0
H356 H 0.59186 0.8587 0.63491 0.0
H357 H 0.54464 0.95177 0.55898 0.0
H358 H 0.52682 0.87496 0.65245 0.0
H359 H 0.60994 0.93604 0.54192 0.0
Eu360 Eu 0.22036 0.40159 0.90291 0.0
Eu361 Eu 0.117 0.33043 0.8634 0.0
C362 C 0.21359 0.39801 0.82157 0.0
C363 C 0.35722 0.49105 0.91647 0.0
C364 C 0.39433 0.48735 0.93283 0.0
C365 C 0.41924 0.55699 0.88222 0.0
C366 C 0.44331 0.51853 0.92439 0.0
C367 C 0.37025 0.52561 0.89052 0.0
C368 C 0.45658 0.55446 0.8994 0.0
C369 C 0.30593 0.46157 0.92843 0.0
O370 O 0.14569 0.28371 0.885 0.0
O371 O 0.22564 0.33981 0.87952 0.0
C372 C 0.19107 0.29436 0.88088 0.0
O373 O 0.16665 0.35574 0.9452 0.0
O374 O 0.07899 0.27395 0.82523 0.0
O375 O 1.03899 0.29963 0.85513 0.0
O376 O 0.09453 0.3297 0.91684 0.0
C377 C 0.11858 0.33603 0.94488 0.0
O378 O 0.17069 0.43161 0.91093 0.0
O379 O 0.13088 0.40866 0.86046 0.0
O380 O 0.17458 0.35536 0.82361 0.0
O381 O 0.27524 0.47457 0.918 0.0
O382 O 0.28657 0.41439 0.92927 0.0
O383 O 0.23144 0.42672 0.84807 0.0
C384 C 1.00012 0.21478 0.84257 0.0
C385 C 0.97825 0.20139 0.87477 0.0
C386 C 0.95689 0.12944 0.82582 0.0
C387 C 0.94568 0.15264 0.88224 0.0
C388 C 0.98919 0.17827 0.81824 0.0
C389 C 0.93447 0.11616 0.85781 0.0
C390 C 1.0362 0.26597 0.83455 0.0
C391 C 0.14754 0.43901 0.88652 0.0
H392 H 0.38551 0.4612 0.95292 0.0
H393 H 0.42782 0.58478 0.86345 0.0
H394 H 0.47098 0.51535 0.93811 0.0
H395 H 0.34269 0.52961 0.87733 0.0
H396 H 0.98651 0.22847 0.89431 0.0
H397 H 0.94882 0.1021 0.8065 0.0
H398 H 0.92946 0.14337 0.90725 0.0
H399 H 1.00587 0.18754 0.79335 0.0
Eu400 Eu 0.28258 0.96913 0.64205 0.0
Eu401 Eu 0.25667 0.8702 0.59798 0.0
C402 C 0.2887 0.9735 0.56036 0.0
C403 C 0.28012 0.08222 0.66875 0.0
C404 C 0.23016 0.06643 0.66656 0.0
C405 C 0.29789 0.16444 0.65666 0.0
C406 C 0.21432 0.09928 0.65934 0.0
C407 C 0.31377 0.13161 0.66403 0.0
C408 C 0.24801 0.14849 0.65387 0.0
C409 C 0.29747 0.04736 0.6744 0.0
O410 O 0.33702 0.92078 0.59559 0.0
O411 O 0.34577 0.95467 0.648 0.0
C412 C 0.3631 0.94049 0.62266 0.0
O413 O 0.24646 0.9074 0.67826 0.0
O414 O 0.27997 0.8208 0.57825 0.0
O415 O 0.20609 0.80444 0.56993 0.0
O416 O 0.26632 0.8546 0.65275 0.0
C417 C 0.25253 0.86968 0.67949 0.0
O418 O 0.20794 0.94088 0.61935 0.0
O419 O 0.18659 0.86105 0.6192 0.0
O420 O 0.26393 0.92546 0.55794 0.0
O421 O 0.26491 1.00358 0.68341 0.0
O422 O 0.32765 0.04713 0.65189 0.0
O423 O 0.3051 0.99572 0.58934 0.0
C424 C 0.22013 0.73727 0.57717 0.0
C425 C 0.25365 0.72063 0.5766 0.0
C426 C 0.15717 0.65623 0.59475 0.0
C427 C 0.2394 0.67281 0.58528 0.0
C428 C 0.17154 0.70442 0.58615 0.0
C429 C 0.19107 0.63996 0.59455 0.0
C430 C 0.23685 0.78854 0.5678 0.0
C431 C 0.17429 0.89478 0.61994 0.0
H432 H 0.20321 1.02858 0.66998 0.0
H433 H 0.32464 0.20237 0.65317 0.0
H434 H 0.1757 0.08603 0.65734 0.0
H435 H 0.3524 0.14472 0.66566 0.0
H436 H 0.29118 0.74474 0.56944 0.0
H437 H 0.11978 0.63197 0.6021 0.0
H438 H 0.26634 0.66137 0.58449 0.0
H439 H 0.14467 0.71592 0.58672 0.0
Eu440 Eu 0.68592 0.83287 0.90492 0.0
Eu441 Eu 0.75914 0.80237 0.86506 0.0
C442 C 0.68842 0.827 0.82303 0.0
C443 C 0.59622 0.87917 0.92043 0.0
C444 C 0.5856 0.87928 0.88595 0.0
C445 C 0.54376 0.91275 0.93392 0.0
C446 C 0.55353 0.89505 0.87564 0.0
C447 C 0.57568 0.89683 0.94421 0.0
C448 C 0.53138 0.91106 0.89958 0.0
C449 C 0.62557 0.8576 0.9321 0.0
O450 O 0.80425 0.87916 0.88555 0.0
O451 O 0.74549 0.89956 0.88036 0.0
C452 C 0.79146 0.91237 0.88197 0.0
O453 O 0.7345 0.82854 0.94626 0.0
O454 O 0.81679 0.82112 0.82758 0.0
O455 O 0.79092 0.75579 0.85709 0.0
O456 O 0.7576 0.77939 0.91827 0.0
C457 C 0.75315 0.79932 0.94609 0.0
O458 O 0.65615 0.75312 0.91153 0.0
O459 O 0.68141 0.73785 0.86092 0.0
O460 O 0.73057 0.82917 0.82428 0.0
O461 O 0.67276 0.88553 0.93258 0.0
O462 O 0.61268 0.81436 0.92042 0.0
O463 O 0.66098 0.81941 0.85001 0.0
C464 C 0.87577 0.80142 0.84479 0.0
C465 C 0.88988 0.79831 0.87792 0.0
C466 C 0.96042 0.83825 0.82685 0.0
C467 C 0.93871 0.81452 0.88531 0.0
C468 C 0.91153 0.82164 0.81939 0.0
C469 C 0.97448 0.83455 0.85984 0.0
C470 C 0.82468 0.78638 0.83667 0.0
C471 C 0.65024 0.72337 0.88654 0.0
H472 H 0.60116 0.86602 0.86708 0.0
H473 H 0.52724 0.92459 0.95304 0.0
H474 H 0.54546 0.89401 0.84897 0.0
H475 H 0.58323 0.89701 0.97092 0.0
H476 H 0.86328 0.78372 0.8982 0.0
H477 H 0.98721 0.8534 0.80673 0.0
H478 H 0.94862 0.81184 0.91105 0.0
H479 H 0.90165 0.82488 0.79375 0.0
C480 C 0.26025 0.25758 0.13839 0.0
C481 C 0.20999 0.22461 0.13961 0.0
C482 C 0.29393 0.24184 0.13317 0.0
C483 C 0.2791 0.19228 0.12893 0.0
H484 H 0.27389 0.29605 0.14201 0.0
H485 H 0.33212 0.26908 0.13281 0.0
S486 S 0.1513 0.09095 0.12856 0.0
N487 N 0.14674 0.13995 0.13492 0.0
N488 N 0.21006 0.1102 0.12562 0.0
C489 C 0.22883 0.15876 0.12983 0.0
C490 C 0.19437 0.17492 0.1351 0.0
C491 C 0.07301 0.85868 0.38387 0.0
C492 C 0.0857 0.89463 0.35911 0.0
C493 C 1.02424 0.82551 0.39144 0.0
C494 C 0.98599 0.82691 0.3746 0.0
H495 H 0.10107 0.8555 0.39706 0.0
H496 H 1.01661 0.79792 0.4102 0.0
S497 S 0.99999 0.91769 0.31032 0.0
N498 N 0.05627 0.93215 0.31957 0.0
N499 N 0.96455 0.86983 0.33363 0.0
C500 C 0.99823 0.86364 0.35042 0.0
C501 C 1.04802 0.89741 0.3427 0.0
C502 C 0.86314 0.06987 0.11611 0.0
C503 C 0.90373 0.10559 0.13387 0.0
C504 C 0.84466 1.02033 0.12201 0.0
C505 C 0.86598 1.00405 0.14582 0.0
H506 H 0.8448 0.08012 0.09773 0.0
H507 H 0.81295 0.99449 0.10795 0.0
S508 S 0.97464 0.08235 0.19781 0.0
N509 N 0.96559 0.12104 0.17576 0.0
N510 N 0.93129 1.02769 0.1864 0.0
C511 C 0.90686 0.03923 0.16363 0.0
C512 C 0.92563 0.08995 0.15774 0.0
C513 C 0.28956 0.2389 0.38166 0.0
C514 C 0.27823 0.19013 0.37867 0.0
C515 C 0.25453 0.25266 0.37596 0.0
C516 C 0.20678 0.21837 0.36664 0.0
H517 H 0.32602 0.26697 0.38815 0.0
H518 H 0.26528 0.29072 0.37805 0.0
S519 S 0.15716 0.08567 0.35698 0.0
N520 N 0.21472 0.10709 0.36698 0.0
N521 N 0.14917 0.13318 0.35617 0.0
C522 C 0.19453 0.16938 0.36418 0.0
C523 C 0.2301 0.1552 0.37028 0.0
C524 C 0.06955 0.87114 0.11884 0.0
C525 C 0.08473 0.89113 0.15139 0.0
C526 C 1.02052 0.83823 0.11189 0.0
C527 C 0.98437 0.8242 0.13711 0.0
H528 H 0.09596 0.8803 0.09863 0.0
H529 H 1.01102 0.82349 0.0865 0.0
S530 S 1.00485 0.86753 0.22634 0.0
N531 N 0.05949 0.89568 0.20891 0.0
N532 N 0.96747 0.83379 0.19604 0.0
C533 C 0.99897 0.84457 0.1697 0.0
C534 C 1.04904 0.87788 0.1768 0.0
C535 C 0.91069 0.04037 0.36663 0.0
C536 C 0.86123 1.00469 0.36939 0.0
C537 C 0.92639 0.0899 0.37195 0.0
C538 C 0.89322 0.10565 0.38032 0.0
H539 H 0.93735 1.03003 0.3596 0.0
H540 H 0.96462 0.11605 0.36876 0.0
S541 S 0.76041 1.02593 0.39437 0.0
N542 N 0.7799 0.98823 0.38374 0.0
N543 N 0.80885 0.08061 0.39351 0.0
C544 C 0.84385 0.07 0.38419 0.0
C545 C 0.82801 1.0198 0.37877 0.0
C546 C 0.19534 0.18541 0.66501 0.0
C547 C 0.23103 0.18299 0.6451 0.0
C548 C 0.1798 0.21867 0.65771 0.0
C549 C 0.19897 0.25054 0.63001 0.0
H550 H 0.18001 0.16208 0.68683 0.0
H551 H 0.15286 0.21965 0.67421 0.0
S552 S 0.29095 0.25586 0.56856 0.0
N553 N 0.28327 0.21321 0.59555 0.0
N554 N 0.25445 0.27573 0.58169 0.0
C555 C 0.23385 0.24746 0.60935 0.0
C556 C 0.24981 0.21378 0.61697 0.0
C557 C 0.11257 0.91275 0.86432 0.0
C558 C 0.12658 0.88105 0.87842 0.0
C559 C 0.06334 0.89765 0.85859 0.0
C560 C 1.02626 0.85066 0.86736 0.0
H561 H 0.13986 0.94896 0.85665 0.0
H562 H 0.0542 0.92287 0.84708 0.0
S563 S 1.04332 0.75459 0.90651 0.0
N564 N 0.09895 0.80094 0.90206 0.0
N565 N 1.00687 0.77305 0.89158 0.0
C566 C 1.0397 0.81918 0.88234 0.0
C567 C 0.0897 0.83424 0.88778 0.0
C568 C 0.85235 1.00318 0.6089 0.0
C569 C 0.83679 0.96856 0.635 0.0
C570 C 0.88508 0.0525 0.61512 0.0
C571 C 0.90304 0.06947 0.64781 0.0
H572 H 0.83905 0.99219 0.58334 0.0
H573 H 0.89571 0.07776 0.59424 0.0
S574 S 0.87508 0.99423 0.72497 0.0
N575 N 0.84312 0.95505 0.69488 0.0
N576 N 0.90408 0.04782 0.70648 0.0
C577 C 0.88822 0.03541 0.67413 0.0
C578 C 0.85537 0.98498 0.66775 0.0
C579 C 0.25372 0.26896 0.87384 0.0
C580 C 0.20425 0.25573 0.87588 0.0
C581 C 0.26813 0.23464 0.86699 0.0
C582 C 0.23384 0.18537 0.86201 0.0
H583 H 0.28192 0.3064 0.87724 0.0
H584 H 0.30664 0.24685 0.86567 0.0
S585 S 0.09972 0.13113 0.86424 0.0
N586 N 0.12075 0.18931 0.87223 0.0
N587 N 0.14802 0.12483 0.85935 0.0
C588 C 0.18422 0.17126 0.86438 0.0
C589 C 0.16941 0.20637 0.87129 0.0
C590 C 0.08729 0.83029 0.62819 0.0
C591 C 0.12184 0.87981 0.62382 0.0
C592 C 1.03796 0.81462 0.63364 0.0
C593 C 1.0207 0.84763 0.6348 0.0
H594 H 0.09833 0.80309 0.62778 0.0
H595 H 1.01303 0.77613 0.63676 0.0
S596 S 0.09538 0.98125 0.62491 0.0
N597 N 0.1347 0.96187 0.62081 0.0
N598 N 1.042 0.93231 0.63137 0.0
C599 C 0.05453 0.89721 0.63018 0.0
C600 C 0.105 0.9133 0.62467 0.0
C601 C 0.91013 1.02764 0.8602 0.0
C602 C 0.89841 0.06454 0.86535 0.0
C603 C 0.876 0.97863 0.86666 0.0
C604 C 0.82861 0.96462 0.87795 0.0
H605 H 0.94599 0.03677 0.85115 0.0
H606 H 0.88649 0.95149 0.86195 0.0
S607 S 0.77995 0.0476 0.89531 0.0
N608 N 0.83634 0.08377 0.88251 0.0
N609 N 0.77232 0.9923 0.89453 0.0
C610 C 0.81672 1.00141 0.88341 0.0
C611 C 0.85155 0.05114 0.87716 0.0
C612 C 0.40561 0.23538 0.26954 0.0
C613 C 0.43802 0.22643 0.2879 0.0
C614 C 0.40567 0.23473 0.2341 0.0
C615 C 0.43804 0.22497 0.21581 0.0
H616 H 0.37657 0.23754 0.28258 0.0
H617 H 0.37668 0.23647 0.22106 0.0
S618 S 0.53609 0.20866 0.252 0.0
N619 N 0.50813 0.2152 0.28539 0.0
N620 N 0.50816 0.21376 0.21847 0.0
C621 C 0.47459 0.22221 0.23373 0.0
C622 C 0.47459 0.22299 0.26999 0.0
C623 C 0.80315 0.63546 0.2722 0.0
C624 C 0.8465 0.66277 0.29028 0.0
C625 C 0.80301 0.63488 0.23681 0.0
C626 C 0.8462 0.66172 0.21819 0.0
H627 H 0.76861 0.61721 0.28548 0.0
H628 H 0.76834 0.61626 0.22393 0.0
S629 S 0.97004 0.73471 0.25349 0.0
N630 N 0.93437 0.71339 0.28713 0.0
N631 N 0.93405 0.71249 0.22028 0.0
C632 C 0.89037 0.68548 0.23585 0.0
C633 C 0.89053 0.68598 0.27209 0.0
C634 C 0.8919 0.28569 0.23676 0.0
C635 C 0.87914 0.24362 0.21748 0.0
C636 C 0.88856 0.28382 0.27221 0.0
C637 C 0.87322 0.23999 0.28934 0.0
H638 H 0.9082 0.3208 0.22455 0.0
H639 H 0.90315 0.31756 0.28627 0.0
S640 S 0.83029 0.11903 0.25045 0.0
N641 N 0.84513 0.15619 0.21789 0.0
N642 N 0.84045 0.15304 0.28462 0.0
C643 C 0.85609 0.19713 0.27025 0.0
C644 C 0.85862 0.19884 0.23418 0.0
C645 C 0.24269 0.384 0.73206 0.0
C646 C 0.22994 0.41484 0.71539 0.0
C647 C 0.24372 0.38316 0.76754 0.0
C648 C 0.23316 0.41387 0.78725 0.0
H649 H 0.24666 0.35683 0.71789 0.0
H650 H 0.24829 0.35521 0.77962 0.0
S651 S 0.20743 0.50771 0.75512 0.0
N652 N 0.21332 0.48127 0.72066 0.0
N653 N 0.21676 0.4807 0.78744 0.0
C654 C 0.22623 0.44878 0.77073 0.0
C655 C 0.22414 0.44894 0.73465 0.0
C656 C 0.20976 0.83965 0.76851 0.0
C657 C 0.25314 0.85182 0.78543 0.0
C658 C 0.20768 0.83836 0.73309 0.0
C659 C 0.24891 0.84915 0.7134 0.0
H660 H 0.17872 0.83609 0.78262 0.0
H661 H 0.17514 0.83395 0.72107 0.0
S662 S 0.36922 0.87659 0.7455 0.0
N663 N 0.33656 0.86948 0.78001 0.0
N664 N 0.33252 0.86662 0.71326 0.0
C665 C 0.29079 0.8559 0.72997 0.0
C666 C 0.29298 0.85743 0.76615 0.0
C667 C 0.64609 0.78407 0.7356 0.0
C668 C 0.67316 0.82698 0.7169 0.0
C669 C 0.64494 0.78502 0.77109 0.0
C670 C 0.67133 0.82882 0.78895 0.0
H671 H 0.62881 0.74918 0.72282 0.0
H672 H 0.62759 0.75087 0.78458 0.0
S673 S 0.74315 0.95153 0.75198 0.0
N674 N 0.72237 0.91491 0.71881 0.0
N675 N 0.72134 0.91639 0.78562 0.0
C676 C 0.69489 0.87227 0.77056 0.0
C677 C 0.69545 0.87145 0.73441 0.0
C678 C 0.34309 0.05226 0.97177 0.0
C679 C 0.30567 1.003 0.9734 0.0
C680 C 0.35578 0.08373 0.99983 0.0
C681 C 0.33182 0.06757 0.03102 0.0
H682 H 0.36358 0.06689 0.9486 0.0
H683 H 0.38567 0.12056 0.99729 0.0
S684 S 0.22828 0.94364 0.0485 0.0
N685 N 0.24292 0.94083 0.00866 0.0
N686 N 0.26632 0.9995 0.06134 0.0
C687 C 0.29337 1.01879 0.03287 0.0
C688 C 0.28052 0.9867 0.00421 0.0
C689 C 0.84545 0.80181 0.4972 0.0
C690 C 0.81509 0.75798 0.48027 0.0
C691 C 0.82681 0.82076 0.52159 0.0
C692 C 0.77669 0.79777 0.5291 0.0
H693 H 0.88394 0.82184 0.49134 0.0
H694 H 0.85193 0.85402 0.53458 0.0
S695 S 0.68148 0.6829 0.49059 0.0
N696 N 0.73238 0.69237 0.47214 0.0
N697 N 0.69703 0.72856 0.5173 0.0
C698 C 0.74578 0.75423 0.51191 0.0
C699 C 0.76505 0.73425 0.48767 0.0
C700 C 1.04367 0.32057 0.97658 0.0
C701 C 0.08802 0.32015 0.97622 0.0
C702 C 1.0103 0.30096 0.00347 0.0
C703 C 1.01941 0.27963 0.03137 0.0
H704 H 1.03428 0.33602 0.9556 0.0
H705 H 0.97711 0.30264 0.0023 0.0
S706 S 0.13012 0.2688 0.04291 0.0
N707 N 0.13921 0.29663 0.00622 0.0
N708 N 0.07702 0.25954 0.05691 0.0
C709 C 0.06399 0.2793 0.03153 0.0
C710 C 0.09815 0.2997 0.00406 0.0
C711 C 0.32338 1.01938 0.46976 0.0
C712 C 0.33726 0.06916 0.47228 0.0
C713 C 0.30597 0.98819 0.49783 0.0
C714 C 0.30168 1.00519 0.52982 0.0
H715 H 0.3266 1.00418 0.44592 0.0
H716 H 0.29718 0.95078 0.49457 0.0
S717 S 0.32816 0.13082 0.54982 0.0
N718 N 0.34217 0.13279 0.5093 0.0
N719 N 0.30936 0.07457 0.56191 0.0
C720 C 0.31392 0.05451 0.53257 0.0
C721 C 0.33174 0.08627 0.50393 0.0
C722 C 0.7832 0.72632 0.00709 0.0
C723 C 0.81478 0.76111 0.03048 0.0
C724 C 0.76174 0.73894 0.98102 0.0
C725 C 0.77042 0.78677 0.97728 0.0
H726 H 0.77442 0.68885 0.00912 0.0
H727 H 0.73829 0.71088 0.96333 0.0
S728 S 0.85323 0.89255 0.02981 0.0
N729 N 0.85587 0.84658 0.04676 0.0
N730 N 0.81464 0.8695 0.99806 0.0
C731 C 0.80194 0.82199 1.00028 0.0
C732 C 0.82436 0.80938 0.02669 0.0
C733 C 0.09434 0.34482 0.50423 0.0
C734 C 0.08546 0.31334 0.53149 0.0
C735 C 0.061 0.33199 0.47766 0.0
C736 C 1.01696 0.28721 0.47709 0.0
H737 H 0.12729 0.37983 0.50333 0.0
H738 H 0.07013 0.3575 0.45708 0.0
S739 S 0.97564 0.19118 0.54205 0.0
N740 N 1.02859 0.2346 0.55607 0.0
N741 N 0.96626 0.21129 0.5061 0.0
C742 C 1.00705 0.25557 0.50429 0.0
C743 C 1.04122 0.26836 0.53137 0.0
C744 C 0.57036 0.13457 0.08018 0.0
C745 C 0.59922 0.13875 0.1082 0.0
C746 C 0.52382 0.12854 0.08425 0.0
C747 C 0.50353 0.12625 0.11656 0.0
H748 H 0.58454 0.13781 0.0547 0.0
H749 H 0.50411 0.12719 0.06162 0.0
S750 S 0.56167 0.12951 0.19833 0.0
N751 N 0.6025 0.13588 0.16956 0.0
N752 N 0.51475 0.12477 0.17724 0.0
C753 C 0.53085 0.12784 0.14491 0.0
C754 C 0.57876 0.13429 0.14073 0.0
C755 C 0.70888 0.54763 0.42239 0.0
C756 C 0.70794 0.58152 0.40012 0.0
C757 C 0.66771 0.50217 0.42798 0.0
C758 C 0.62374 0.48802 0.41115 0.0
H759 H 0.74205 0.55617 0.43554 0.0
H760 H 0.67079 0.4773 0.445 0.0
S761 S 0.60149 0.56351 0.35067 0.0
N762 N 0.65892 0.59834 0.36172 0.0
N763 N 0.58137 0.51219 0.3717 0.0
C764 C 0.62194 0.52169 0.38904 0.0
C765 C 0.66396 0.56864 0.38377 0.0
C766 C 0.98017 0.42651 0.10106 0.0
C767 C 0.94532 0.38754 0.12045 0.0
C768 C 0.97629 0.46829 0.09571 0.0
C769 C 0.93787 0.47297 0.10996 0.0
H770 H 1.00929 0.42381 0.08866 0.0
H771 H 1.00318 0.49684 0.07983 0.0
S772 S 0.8392 0.38238 0.16477 0.0
N773 N 0.87281 0.35755 0.15557 0.0
N774 N 0.86545 0.43534 0.1454 0.0
C775 C 0.90405 0.435 0.13053 0.0
C776 C 0.9078 0.39253 0.13577 0.0
C777 C 0.54649 0.16448 0.3602 0.0
C778 C 0.50607 0.12997 0.37867 0.0
C779 C 0.59341 0.17198 0.36627 0.0
C780 C 0.60165 0.14539 0.39122 0.0
H781 H 0.5424 0.18819 0.34267 0.0
H782 H 0.62378 0.20093 0.35283 0.0
S783 S 0.50631 0.04611 0.44308 0.0
N784 N 0.47634 0.06622 0.42066 0.0
N785 N 0.56384 0.07893 0.43145 0.0
C786 C 0.56076 0.10846 0.40812 0.0
C787 C 0.51321 0.10118 0.40206 0.0
C788 C 0.62783 0.52564 0.0902 0.0
C789 C 0.62314 0.48399 0.10629 0.0
C790 C 0.66839 0.57211 0.09597 0.0
C791 C 0.7062 0.57849 0.11755 0.0
H792 H 0.60037 0.52213 0.07252 0.0
H793 H 0.67126 0.60276 0.08217 0.0
S794 S 0.71082 0.482 0.16696 0.0
N795 N 0.65942 0.45305 0.14574 0.0
N796 N 0.73505 0.53965 0.15643 0.0
C797 C 0.70113 0.53745 0.13459 0.0
C798 C 0.65982 0.49046 0.12903 0.0
C799 C 0.96524 0.46115 0.42245 0.0
C800 C 0.9556 0.48222 0.39454 0.0
C801 C 0.97001 0.41981 0.41878 0.0
C802 C 0.96589 0.39769 0.38699 0.0
H803 H 0.96706 0.47544 0.44772 0.0
H804 H 0.97529 0.40396 0.4414 0.0
S805 S 0.94531 0.44083 0.30522 0.0
N806 N 0.94551 0.47965 0.33342 0.0
N807 N 0.95461 0.40179 0.32665 0.0
C808 C 0.95877 0.41966 0.35853 0.0
C809 C 0.95336 0.46174 0.3623 0.0
C810 C 0.20731 0.58216 0.62692 0.0
C811 C 0.1774 0.58939 0.60442 0.0
C812 C 0.20003 0.53568 0.63324 0.0
C813 C 0.16227 0.49419 0.61759 0.0
H814 H 0.23771 0.61294 0.63897 0.0
H815 H 0.22539 0.53242 0.64969 0.0
S816 S 0.07197 0.49256 0.55795 0.0
N817 N 0.10702 0.55059 0.56751 0.0
N818 N 0.09306 0.46297 0.57982 0.0
C819 C 0.13032 0.50036 0.59651 0.0
C820 C 0.13794 0.548 0.58983 0.0
C821 C 0.45458 0.97315 0.89655 0.0
C822 C 0.41377 0.94021 0.87775 0.0
C823 C 0.4936 0.96478 0.90216 0.0
C824 C 0.49308 0.9229 0.88943 0.0
H825 H 0.45526 1.00432 0.90842 0.0
H826 H 0.52366 0.99047 0.91758 0.0
S827 S 0.39306 0.82431 0.84009 0.0
N828 N 0.37449 0.86371 0.84732 0.0
N829 N 0.44737 0.84795 0.85744 0.0
C830 C 0.45283 0.89037 0.86988 0.0
C831 C 0.41326 0.89894 0.86427 0.0
C832 C 0.55198 0.68382 0.62648 0.0
C833 C 0.5953 0.6876 0.61366 0.0
C834 C 0.5066 0.64262 0.62052 0.0
C835 C 0.5022 0.60319 0.60129 0.0
H836 H 0.55294 0.71346 0.64086 0.0
H837 H 0.47453 0.64194 0.63082 0.0
S838 S 0.60436 0.5943 0.5622 0.0
N839 N 0.631 0.64766 0.58144 0.0
N840 N 0.54557 0.57034 0.56973 0.0
C841 C 0.54533 0.60575 0.58907 0.0
C842 C 0.59183 0.64785 0.59537 0.0
C843 C 0.16012 0.55469 0.92459 0.0
C844 C 0.15889 0.58102 0.89658 0.0
C845 C 0.15316 0.50778 0.92097 0.0
C846 C 0.14471 0.48455 0.88911 0.0
H847 H 0.16879 0.57124 0.94951 0.0
H848 H 0.15629 0.49031 0.94348 0.0
S849 S 0.1303 0.53458 0.80832 0.0
N850 N 0.14286 0.57819 0.83627 0.0
N851 N 0.1302 0.48981 0.8294 0.0
C852 C 0.14023 0.50908 0.86109 0.0
C853 C 0.14747 0.55733 0.8648 0.0
C854 C 0.45318 0.97551 0.61742 0.0
C855 C 0.40733 0.93656 0.62614 0.0
C856 C 0.49336 0.96858 0.61264 0.0
C857 C 0.48904 0.92243 0.61637 0.0
H858 H 0.45745 1.01094 0.6126 0.0
H859 H 0.52775 0.9993 0.60498 0.0
S860 S 0.37611 0.80882 0.63901 0.0
N861 N 0.35976 0.85063 0.63859 0.0
N862 N 0.43471 0.83744 0.62977 0.0
C863 C 0.44353 0.88364 0.62622 0.0
C864 C 0.40282 0.89074 0.63095 0.0
C865 C 0.58505 0.65507 0.91955 0.0
C866 C 0.60531 0.67477 0.88769 0.0
C867 C 0.53814 0.61495 0.92278 0.0
C868 C 0.50885 0.59259 0.8943 0.0
H869 H 0.60495 0.67206 0.9425 0.0
H870 H 0.52384 0.60304 0.94805 0.0
S871 S 0.54646 0.6266 0.80473 0.0
N872 N 0.59383 0.66639 0.82682 0.0
N873 N 0.50556 0.59061 0.83271 0.0
C874 C 0.52959 0.61019 0.86208 0.0
C875 C 0.57782 0.65114 0.85881 0.0
loop_
_geom_bond_atom_site_label_1
_geom_bond_atom_site_label_2
_geom_bond_distance
_geom_bond_site_symmetry_2
_ccdc_geom_bond_type
Eu0 C9 2.828 . S
Eu0 O11 2.392 . S
Eu0 O13 2.418 . S
Eu0 O18 2.373 . S
Eu0 O21 2.488 . S
Eu0 O22 2.471 . S
Eu0 O23 2.349 . S
Eu1 O10 2.373 . S
Eu1 O14 2.488 . S
Eu1 O15 2.471 . S
Eu1 O16 2.349 . S
Eu1 O19 2.392 . S
Eu1 O20 2.418 . S
Eu1 C30 2.828 1_545 S
C2 O20 1.244 . S
C2 O23 1.265 . S
C3 C4 1.379 . S
C3 C7 1.373 . S
C3 C9 1.505 . S
C4 C3 1.379 . S
C4 C6 1.369 . S
C4 H32 0.930 . S
C5 C7 1.383 . S
C5 C8 1.382 . S
C5 H33 0.930 . S
C6 C4 1.369 . S
C6 C8 1.392 . S
C6 H34 0.930 . S
C7 C3 1.373 . S
C7 C5 1.383 . S
C7 H35 0.931 . S
C8 C5 1.382 . S
C8 C6 1.392 . S
C9 Eu0 2.828 . S
C9 C3 1.505 . S
C9 O21 1.249 . S
C9 O22 1.244 . S
O10 Eu1 2.373 . S
O10 C12 1.258 . S
O11 Eu0 2.392 . S
O11 C12 1.242 . S
C12 O10 1.258 . S
C12 O11 1.242 . S
O13 Eu0 2.418 . S
O13 C17 1.244 . S
O14 Eu1 2.488 . S
O14 C30 1.249 1_545 S
O15 Eu1 2.471 . S
O15 C30 1.244 1_545 S
O16 Eu1 2.349 . S
O16 C17 1.265 . S
C17 O13 1.244 . S
C17 O16 1.265 . S
O18 Eu0 2.373 . S
O18 C31 1.258 . S
O19 Eu1 2.392 . S
O19 C31 1.242 . S
O20 Eu1 2.418 . S
O20 C2 1.244 . S
O21 Eu0 2.488 . S
O21 C9 1.249 . S
O22 Eu0 2.471 . S
O22 C9 1.244 . S
O23 Eu0 2.349 . S
O23 C2 1.265 . S
C24 C25 1.379 . S
C24 C28 1.373 . S
C24 C30 1.505 . S
C25 C24 1.379 . S
C25 C27 1.369 . S
C25 H36 0.930 . S
C26 C28 1.383 . S
C26 C29 1.382 . S
C26 H37 0.930 . S
C27 C25 1.369 . S
C27 C29 1.392 . S
C27 H38 0.930 . S
C28 C24 1.373 . S
C28 C26 1.383 . S
C28 H39 0.931 . S
C29 C26 1.382 . S
C29 C27 1.392 . S
C30 Eu1 2.828 1_565 S
C30 O14 1.249 1_565 S
C30 O15 1.244 1_565 S
C30 C24 1.505 . S
C31 O18 1.258 . S
C31 O19 1.242 . S
H32 C4 0.930 . S
H33 C5 0.930 . S
H34 C6 0.930 . S
H35 C7 0.931 . S
H36 C25 0.930 . S
H37 C26 0.930 . S
H38 C27 0.930 . S
H39 C28 0.931 . S
Eu40 C49 2.828 . S
Eu40 O51 2.392 . S
Eu40 O53 2.418 . S
Eu40 O58 2.373 . S
Eu40 O61 2.488 . S
Eu40 O62 2.471 . S
Eu40 O63 2.349 . S
Eu41 O50 2.373 . S
Eu41 O54 2.488 . S
Eu41 O55 2.471 . S
Eu41 O56 2.349 . S
Eu41 O59 2.392 . S
Eu41 O60 2.418 . S
Eu41 C70 2.828 . S
C42 O60 1.244 . S
C42 O63 1.265 . S
C43 C44 1.379 . S
C43 C47 1.373 . S
C43 C49 1.505 . S
C44 C43 1.379 . S
C44 C46 1.369 . S
C44 H72 0.930 . S
C45 C47 1.383 . S
C45 C48 1.382 . S
C45 H73 0.930 . S
C46 C44 1.369 . S
C46 C48 1.392 . S
C46 H74 0.930 . S
C47 C43 1.373 . S
C47 C45 1.383 . S
C47 H75 0.931 . S
C48 C45 1.382 . S
C48 C46 1.392 . S
C49 Eu40 2.828 . S
C49 C43 1.505 . S
C49 O61 1.249 . S
C49 O62 1.244 . S
O50 Eu41 2.373 . S
O50 C52 1.258 . S
O51 Eu40 2.392 . S
O51 C52 1.242 . S
C52 O50 1.258 . S
C52 O51 1.242 . S
O53 Eu40 2.418 . S
O53 C57 1.244 . S
O54 Eu41 2.488 . S
O54 C70 1.249 . S
O55 Eu41 2.471 . S
O55 C70 1.244 . S
O56 Eu41 2.349 . S
O56 C57 1.265 . S
C57 O53 1.244 . S
C57 O56 1.265 . S
O58 Eu40 2.373 . S
O58 C71 1.258 . S
O59 Eu41 2.392 . S
O59 C71 1.242 . S
O60 Eu41 2.418 . S
O60 C42 1.244 . S
O61 Eu40 2.488 . S
O61 C49 1.249 . S
O62 Eu40 2.471 . S
O62 C49 1.244 . S
O63 Eu40 2.349 . S
O63 C42 1.265 . S
C64 C65 1.379 . S
C64 C68 1.373 . S
C64 C70 1.505 . S
C65 C64 1.379 . S
C65 C67 1.369 . S
C65 H76 0.930 . S
C66 C68 1.383 . S
C66 C69 1.382 . S
C66 H77 0.930 . S
C67 C65 1.369 . S
C67 C69 1.392 . S
C67 H78 0.930 . S
C68 C64 1.373 . S
C68 C66 1.383 . S
C68 H79 0.931 . S
C69 C66 1.382 . S
C69 C67 1.392 . S
C70 Eu41 2.828 . S
C70 O54 1.249 . S
C70 O55 1.244 . S
C70 C64 1.505 . S
C71 O58 1.258 . S
C71 O59 1.242 . S
H72 C44 0.930 . S
H73 C45 0.930 . S
H74 C46 0.930 . S
H75 C47 0.931 . S
H76 C65 0.930 . S
H77 C66 0.930 . S
H78 C67 0.930 . S
H79 C68 0.931 . S
Eu80 C89 2.828 . S
Eu80 O91 2.392 . S
Eu80 O93 2.418 . S
Eu80 O98 2.373 . S
Eu80 O101 2.488 . S
Eu80 O102 2.471 . S
Eu80 O103 2.349 . S
Eu81 O90 2.373 . S
Eu81 O94 2.488 . S
Eu81 O95 2.471 . S
Eu81 O96 2.349 . S
Eu81 O99 2.392 . S
Eu81 O100 2.418 . S
Eu81 C110 2.828 1_655 S
C82 O100 1.244 . S
C82 O103 1.265 . S
C83 C84 1.379 . S
C83 C87 1.373 . S
C83 C89 1.505 . S
C84 C83 1.379 . S
C84 C86 1.369 . S
C84 H112 0.930 . S
C85 C87 1.383 . S
C85 C88 1.382 . S
C85 H113 0.930 . S
C86 C84 1.369 . S
C86 C88 1.392 . S
C86 H114 0.930 . S
C87 C83 1.373 . S
C87 C85 1.383 . S
C87 H115 0.931 . S
C88 C85 1.382 . S
C88 C86 1.392 . S
C89 Eu80 2.828 . S
C89 C83 1.505 . S
C89 O101 1.249 . S
C89 O102 1.244 . S
O90 Eu81 2.373 . S
O90 C92 1.258 . S
O91 Eu80 2.392 . S
O91 C92 1.242 . S
C92 O90 1.258 . S
C92 O91 1.242 . S
O93 Eu80 2.418 . S
O93 C97 1.244 . S
O94 Eu81 2.488 . S
O94 C110 1.249 1_655 S
O95 Eu81 2.471 . S
O95 C110 1.244 1_655 S
O96 Eu81 2.349 . S
O96 C97 1.265 . S
C97 O93 1.244 . S
C97 O96 1.265 . S
O98 Eu80 2.373 . S
O98 C111 1.258 . S
O99 Eu81 2.392 . S
O99 C111 1.242 . S
O100 Eu81 2.418 . S
O100 C82 1.244 . S
O101 Eu80 2.488 . S
O101 C89 1.249 . S
O102 Eu80 2.471 . S
O102 C89 1.244 . S
O103 Eu80 2.349 . S
O103 C82 1.265 . S
C104 C105 1.379 . S
C104 C108 1.373 . S
C104 C110 1.505 . S
C105 C104 1.379 . S
C105 C107 1.369 . S
C105 H116 0.930 . S
C106 C108 1.383 . S
C106 C109 1.382 . S
C106 H117 0.930 . S
C107 C105 1.369 . S
C107 C109 1.392 . S
C107 H118 0.930 . S
C108 C104 1.373 . S
C108 C106 1.383 . S
C108 H119 0.931 . S
C109 C106 1.382 . S
C109 C107 1.392 . S
C110 Eu81 2.828 1_455 S
C110 O94 1.249 1_455 S
C110 O95 1.244 1_455 S
C110 C104 1.505 . S
C111 O98 1.258 . S
C111 O99 1.242 . S
H112 C84 0.930 . S
H113 C85 0.930 . S
H114 C86 0.930 . S
H115 C87 0.931 . S
H116 C105 0.930 . S
H117 C106 0.930 . S
H118 C107 0.930 . S
H119 C108 0.931 . S
Eu120 C129 2.828 1_545 S
Eu120 O131 2.392 . S
Eu120 O133 2.418 . S
Eu120 O138 2.373 . S
Eu120 O141 2.488 . S
Eu120 O142 2.471 . S
Eu120 O143 2.349 . S
Eu121 O130 2.373 . S
Eu121 O134 2.488 . S
Eu121 O135 2.471 . S
Eu121 O136 2.349 . S
Eu121 O139 2.392 . S
Eu121 O140 2.418 . S
Eu121 C150 2.828 . S
C122 O140 1.244 . S
C122 O143 1.265 . S
C123 C124 1.379 . S
C123 C127 1.373 . S
C123 C129 1.505 . S
C124 C123 1.379 . S
C124 C126 1.369 . S
C124 H152 0.930 . S
C125 C127 1.383 . S
C125 C128 1.382 . S
C125 H153 0.930 . S
C126 C124 1.369 . S
C126 C128 1.392 . S
C126 H154 0.930 . S
C127 C123 1.373 . S
C127 C125 1.383 . S
C127 H155 0.931 . S
C128 C125 1.382 . S
C128 C126 1.392 . S
C129 Eu120 2.828 1_565 S
C129 C123 1.505 . S
C129 O141 1.249 1_565 S
C129 O142 1.244 1_565 S
O130 Eu121 2.373 . S
O130 C132 1.258 . S
O131 Eu120 2.392 . S
O131 C132 1.242 . S
C132 O130 1.258 . S
C132 O131 1.242 . S
O133 Eu120 2.418 . S
O133 C137 1.244 . S
O134 Eu121 2.488 . S
O134 C150 1.249 . S
O135 Eu121 2.471 . S
O135 C150 1.244 . S
O136 Eu121 2.349 . S
O136 C137 1.265 . S
C137 O133 1.244 . S
C137 O136 1.265 . S
O138 Eu120 2.373 . S
O138 C151 1.258 . S
O139 Eu121 2.392 . S
O139 C151 1.242 . S
O140 Eu121 2.418 . S
O140 C122 1.244 . S
O141 Eu120 2.488 . S
O141 C129 1.249 1_545 S
O142 Eu120 2.471 . S
O142 C129 1.244 1_545 S
O143 Eu120 2.349 . S
O143 C122 1.265 . S
C144 C145 1.379 . S
C144 C148 1.373 . S
C144 C150 1.505 . S
C145 C144 1.379 . S
C145 C147 1.369 . S
C145 H156 0.930 . S
C146 C148 1.383 . S
C146 C149 1.382 . S
C146 H157 0.930 . S
C147 C145 1.369 . S
C147 C149 1.392 . S
C147 H158 0.930 . S
C148 C144 1.373 . S
C148 C146 1.383 . S
C148 H159 0.931 . S
C149 C146 1.382 . S
C149 C147 1.392 . S
C150 Eu121 2.828 . S
C150 O134 1.249 . S
C150 O135 1.244 . S
C150 C144 1.505 . S
C151 O138 1.258 . S
C151 O139 1.242 . S
H152 C124 0.930 . S
H153 C125 0.930 . S
H154 C126 0.930 . S
H155 C127 0.931 . S
H156 C145 0.930 . S
H157 C146 0.930 . S
H158 C147 0.930 . S
H159 C148 0.931 . S
Eu160 C169 2.828 . S
Eu160 O171 2.392 . S
Eu160 O173 2.418 . S
Eu160 O178 2.373 . S
Eu160 O181 2.488 . S
Eu160 O182 2.471 . S
Eu160 O183 2.349 . S
Eu161 O170 2.373 . S
Eu161 O174 2.488 . S
Eu161 O175 2.471 . S
Eu161 O176 2.349 . S
Eu161 O179 2.392 . S
Eu161 O180 2.418 . S
Eu161 C190 2.828 . S
C162 O180 1.244 . S
C162 O183 1.265 . S
C163 C164 1.379 . S
C163 C167 1.373 . S
C163 C169 1.505 . S
C164 C163 1.379 . S
C164 C166 1.369 . S
C164 H192 0.930 . S
C165 C167 1.383 . S
C165 C168 1.382 . S
C165 H193 0.930 . S
C166 C164 1.369 . S
C166 C168 1.392 . S
C166 H194 0.930 . S
C167 C163 1.373 . S
C167 C165 1.383 . S
C167 H195 0.931 . S
C168 C165 1.382 . S
C168 C166 1.392 . S
C169 Eu160 2.828 . S
C169 C163 1.505 . S
C169 O181 1.249 . S
C169 O182 1.244 . S
O170 Eu161 2.373 . S
O170 C172 1.258 . S
O171 Eu160 2.392 . S
O171 C172 1.242 . S
C172 O170 1.258 . S
C172 O171 1.242 . S
O173 Eu160 2.418 . S
O173 C177 1.244 . S
O174 Eu161 2.488 . S
O174 C190 1.249 . S
O175 Eu161 2.471 . S
O175 C190 1.244 . S
O176 Eu161 2.349 . S
O176 C177 1.265 . S
C177 O173 1.244 . S
C177 O176 1.265 . S
O178 Eu160 2.373 . S
O178 C191 1.258 . S
O179 Eu161 2.392 . S
O179 C191 1.242 . S
O180 Eu161 2.418 . S
O180 C162 1.244 . S
O181 Eu160 2.488 . S
O181 C169 1.249 . S
O182 Eu160 2.471 . S
O182 C169 1.244 . S
O183 Eu160 2.349 . S
O183 C162 1.265 . S
C184 C185 1.379 . S
C184 C188 1.373 . S
C184 C190 1.505 . S
C185 C184 1.379 . S
C185 C187 1.369 . S
C185 H196 0.930 . S
C186 C188 1.383 . S
C186 C189 1.382 . S
C186 H197 0.930 . S
C187 C185 1.369 . S
C187 C189 1.392 . S
C187 H198 0.930 . S
C188 C184 1.373 . S
C188 C186 1.383 . S
C188 H199 0.931 . S
C189 C186 1.382 . S
C189 C187 1.392 . S
C190 Eu161 2.828 . S
C190 O174 1.249 . S
C190 O175 1.244 . S
C190 C184 1.505 . S
C191 O178 1.258 . S
C191 O179 1.242 . S
H192 C164 0.930 . S
H193 C165 0.930 . S
H194 C166 0.930 . S
H195 C167 0.931 . S
H196 C185 0.930 . S
H197 C186 0.930 . S
H198 C187 0.930 . S
H199 C188 0.931 . S
Eu200 C209 2.828 1_655 S
Eu200 O211 2.392 . S
Eu200 O213 2.418 . S
Eu200 O218 2.373 . S
Eu200 O221 2.488 . S
Eu200 O222 2.471 . S
Eu200 O223 2.349 . S
Eu201 O210 2.373 . S
Eu201 O214 2.488 . S
Eu201 O215 2.471 . S
Eu201 O216 2.349 . S
Eu201 O219 2.392 . S
Eu201 O220 2.418 . S
Eu201 C230 2.828 . S
C202 O220 1.244 . S
C202 O223 1.265 . S
C203 C204 1.379 . S
C203 C207 1.373 . S
C203 C209 1.505 . S
C204 C203 1.379 . S
C204 C206 1.369 . S
C204 H232 0.930 . S
C205 C207 1.383 . S
C205 C208 1.382 . S
C205 H233 0.930 . S
C206 C204 1.369 . S
C206 C208 1.392 . S
C206 H234 0.930 . S
C207 C203 1.373 . S
C207 C205 1.383 . S
C207 H235 0.931 . S
C208 C205 1.382 . S
C208 C206 1.392 . S
C209 Eu200 2.828 1_455 S
C209 C203 1.505 . S
C209 O221 1.249 1_455 S
C209 O222 1.244 1_455 S
O210 Eu201 2.373 . S
O210 C212 1.258 . S
O211 Eu200 2.392 . S
O211 C212 1.242 . S
C212 O210 1.258 . S
C212 O211 1.242 . S
O213 Eu200 2.418 . S
O213 C217 1.244 . S
O214 Eu201 2.488 . S
O214 C230 1.249 . S
O215 Eu201 2.471 . S
O215 C230 1.244 . S
O216 Eu201 2.349 . S
O216 C217 1.265 . S
C217 O213 1.244 . S
C217 O216 1.265 . S
O218 Eu200 2.373 . S
O218 C231 1.258 . S
O219 Eu201 2.392 . S
O219 C231 1.242 . S
O220 Eu201 2.418 . S
O220 C202 1.244 . S
O221 Eu200 2.488 . S
O221 C209 1.249 1_655 S
O222 Eu200 2.471 . S
O222 C209 1.244 1_655 S
O223 Eu200 2.349 . S
O223 C202 1.265 . S
C224 C225 1.379 . S
C224 C228 1.373 . S
C224 C230 1.505 . S
C225 C224 1.379 . S
C225 C227 1.369 . S
C225 H236 0.930 . S
C226 C228 1.383 . S
C226 C229 1.382 . S
C226 H237 0.930 . S
C227 C225 1.369 . S
C227 C229 1.392 . S
C227 H238 0.930 . S
C228 C224 1.373 . S
C228 C226 1.383 . S
C228 H239 0.931 . S
C229 C226 1.382 . S
C229 C227 1.392 . S
C230 Eu201 2.828 . S
C230 O214 1.249 . S
C230 O215 1.244 . S
C230 C224 1.505 . S
C231 O218 1.258 . S
C231 O219 1.242 . S
H232 C204 0.930 . S
H233 C205 0.930 . S
H234 C206 0.930 . S
H235 C207 0.931 . S
H236 C225 0.930 . S
H237 C226 0.930 . S
H238 C227 0.930 . S
H239 C228 0.931 . S
Eu240 C249 2.828 1_455 S
Eu240 O251 2.392 . S
Eu240 O253 2.418 . S
Eu240 O258 2.373 . S
Eu240 O261 2.488 . S
Eu240 O262 2.471 . S
Eu240 O263 2.349 . S
Eu241 O250 2.373 . S
Eu241 O254 2.488 . S
Eu241 O255 2.471 . S
Eu241 O256 2.349 . S
Eu241 O259 2.392 . S
Eu241 O260 2.418 . S
Eu241 C270 2.828 . S
C242 O260 1.244 . S
C242 O263 1.265 . S
C243 C244 1.379 . S
C243 C247 1.373 . S
C243 C249 1.505 . S
C244 C243 1.379 . S
C244 C246 1.369 . S
C244 H272 0.930 . S
C245 C247 1.383 . S
C245 C248 1.382 . S
C245 H273 0.930 . S
C246 C244 1.369 . S
C246 C248 1.392 . S
C246 H274 0.930 . S
C247 C243 1.373 . S
C247 C245 1.383 . S
C247 H275 0.931 . S
C248 C245 1.382 . S
C248 C246 1.392 . S
C249 Eu240 2.828 1_655 S
C249 C243 1.505 . S
C249 O261 1.249 1_655 S
C249 O262 1.244 1_655 S
O250 Eu241 2.373 . S
O250 C252 1.258 . S
O251 Eu240 2.392 . S
O251 C252 1.242 . S
C252 O250 1.258 . S
C252 O251 1.242 . S
O253 Eu240 2.418 . S
O253 C257 1.244 . S
O254 Eu241 2.488 . S
O254 C270 1.249 . S
O255 Eu241 2.471 . S
O255 C270 1.244 . S
O256 Eu241 2.349 . S
O256 C257 1.265 . S
C257 O253 1.244 . S
C257 O256 1.265 . S
O258 Eu240 2.373 . S
O258 C271 1.258 . S
O259 Eu241 2.392 . S
O259 C271 1.242 . S
O260 Eu241 2.418 . S
O260 C242 1.244 . S
O261 Eu240 2.488 . S
O261 C249 1.249 1_455 S
O262 Eu240 2.471 . S
O262 C249 1.244 1_455 S
O263 Eu240 2.349 . S
O263 C242 1.265 . S
C264 C265 1.379 . S
C264 C268 1.373 . S
C264 C270 1.505 . S
C265 C264 1.379 . S
C265 C267 1.369 . S
C265 H276 0.930 . S
C266 C268 1.383 . S
C266 C269 1.382 . S
C266 H277 0.930 . S
C267 C265 1.369 . S
C267 C269 1.392 . S
C267 H278 0.930 . S
C268 C264 1.373 . S
C268 C266 1.383 . S
C268 H279 0.931 . S
C269 C266 1.382 . S
C269 C267 1.392 . S
C270 Eu241 2.828 . S
C270 O254 1.249 . S
C270 O255 1.244 . S
C270 C264 1.505 . S
C271 O258 1.258 . S
C271 O259 1.242 . S
H272 C244 0.930 . S
H273 C245 0.930 . S
H274 C246 0.930 . S
H275 C247 0.931 . S
H276 C265 0.930 . S
H277 C266 0.930 . S
H278 C267 0.930 . S
H279 C268 0.931 . S
Eu280 C289 2.828 . S
Eu280 O291 2.392 . S
Eu280 O293 2.418 . S
Eu280 O298 2.373 . S
Eu280 O301 2.488 . S
Eu280 O302 2.471 . S
Eu280 O303 2.349 . S
Eu281 O290 2.373 . S
Eu281 O294 2.488 . S
Eu281 O295 2.471 . S
Eu281 O296 2.349 . S
Eu281 O299 2.392 . S
Eu281 O300 2.418 . S
Eu281 C310 2.828 1_565 S
C282 O300 1.244 . S
C282 O303 1.265 . S
C283 C284 1.379 . S
C283 C287 1.373 . S
C283 C289 1.505 . S
C284 C283 1.379 . S
C284 C286 1.369 . S
C284 H312 0.930 . S
C285 C287 1.383 . S
C285 C288 1.382 . S
C285 H313 0.930 . S
C286 C284 1.369 . S
C286 C288 1.392 . S
C286 H314 0.930 . S
C287 C283 1.373 . S
C287 C285 1.383 . S
C287 H315 0.931 . S
C288 C285 1.382 . S
C288 C286 1.392 . S
C289 Eu280 2.828 . S
C289 C283 1.505 . S
C289 O301 1.249 . S
C289 O302 1.244 . S
O290 Eu281 2.373 . S
O290 C292 1.258 . S
O291 Eu280 2.392 . S
O291 C292 1.242 . S
C292 O290 1.258 . S
C292 O291 1.242 . S
O293 Eu280 2.418 . S
O293 C297 1.244 . S
O294 Eu281 2.488 . S
O294 C310 1.249 1_565 S
O295 Eu281 2.471 . S
O295 C310 1.244 1_565 S
O296 Eu281 2.349 . S
O296 C297 1.265 . S
C297 O293 1.244 . S
C297 O296 1.265 . S
O298 Eu280 2.373 . S
O298 C311 1.258 . S
O299 Eu281 2.392 . S
O299 C311 1.242 . S
O300 Eu281 2.418 . S
O300 C282 1.244 . S
O301 Eu280 2.488 . S
O301 C289 1.249 . S
O302 Eu280 2.471 . S
O302 C289 1.244 . S
O303 Eu280 2.349 . S
O303 C282 1.265 . S
C304 C305 1.379 . S
C304 C308 1.373 . S
C304 C310 1.505 . S
C305 C304 1.379 . S
C305 C307 1.369 . S
C305 H316 0.930 . S
C306 C308 1.383 . S
C306 C309 1.382 . S
C306 H317 0.930 . S
C307 C305 1.369 . S
C307 C309 1.392 . S
C307 H318 0.930 . S
C308 C304 1.373 . S
C308 C306 1.383 . S
C308 H319 0.931 . S
C309 C306 1.382 . S
C309 C307 1.392 . S
C310 Eu281 2.828 1_545 S
C310 O294 1.249 1_545 S
C310 O295 1.244 1_545 S
C310 C304 1.505 . S
C311 O298 1.258 . S
C311 O299 1.242 . S
H312 C284 0.930 . S
H313 C285 0.930 . S
H314 C286 0.930 . S
H315 C287 0.931 . S
H316 C305 0.930 . S
H317 C306 0.930 . S
H318 C307 0.930 . S
H319 C308 0.931 . S
Eu320 C329 2.828 . S
Eu320 O331 2.392 . S
Eu320 O333 2.418 . S
Eu320 O338 2.373 . S
Eu320 O341 2.488 . S
Eu320 O342 2.471 . S
Eu320 O343 2.349 . S
Eu321 O330 2.373 . S
Eu321 O334 2.488 . S
Eu321 O335 2.471 . S
Eu321 O336 2.349 . S
Eu321 O339 2.392 . S
Eu321 O340 2.418 . S
Eu321 C350 2.828 . S
C322 O340 1.244 . S
C322 O343 1.265 . S
C323 C324 1.379 . S
C323 C327 1.373 . S
C323 C329 1.505 . S
C324 C323 1.379 . S
C324 C326 1.369 . S
C324 H352 0.930 . S
C325 C327 1.383 . S
C325 C328 1.382 . S
C325 H353 0.930 . S
C326 C324 1.369 . S
C326 C328 1.392 . S
C326 H354 0.930 . S
C327 C323 1.373 . S
C327 C325 1.383 . S
C327 H355 0.931 . S
C328 C325 1.382 . S
C328 C326 1.392 . S
C329 Eu320 2.828 . S
C329 C323 1.505 . S
C329 O341 1.249 . S
C329 O342 1.244 . S
O330 Eu321 2.373 . S
O330 C332 1.258 . S
O331 Eu320 2.392 . S
O331 C332 1.242 . S
C332 O330 1.258 . S
C332 O331 1.242 . S
O333 Eu320 2.418 . S
O333 C337 1.244 . S
O334 Eu321 2.488 . S
O334 C350 1.249 . S
O335 Eu321 2.471 . S
O335 C350 1.244 . S
O336 Eu321 2.349 . S
O336 C337 1.265 . S
C337 O333 1.244 . S
C337 O336 1.265 . S
O338 Eu320 2.373 . S
O338 C351 1.258 . S
O339 Eu321 2.392 . S
O339 C351 1.242 . S
O340 Eu321 2.418 . S
O340 C322 1.244 . S
O341 Eu320 2.488 . S
O341 C329 1.249 . S
O342 Eu320 2.471 . S
O342 C329 1.244 . S
O343 Eu320 2.349 . S
O343 C322 1.265 . S
C344 C345 1.379 . S
C344 C348 1.373 . S
C344 C350 1.505 . S
C345 C344 1.379 . S
C345 C347 1.369 . S
C345 H356 0.930 . S
C346 C348 1.383 . S
C346 C349 1.382 . S
C346 H357 0.930 . S
C347 C345 1.369 . S
C347 C349 1.392 . S
C347 H358 0.930 . S
C348 C344 1.373 . S
C348 C346 1.383 . S
C348 H359 0.931 . S
C349 C346 1.382 . S
C349 C347 1.392 . S
C350 Eu321 2.828 . S
C350 O334 1.249 . S
C350 O335 1.244 . S
C350 C344 1.505 . S
C351 O338 1.258 . S
C351 O339 1.242 . S
H352 C324 0.930 . S
H353 C325 0.930 . S
H354 C326 0.930 . S
H355 C327 0.931 . S
H356 C345 0.930 . S
H357 C346 0.930 . S
H358 C347 0.930 . S
H359 C348 0.931 . S
Eu360 C369 2.828 . S
Eu360 O371 2.392 . S
Eu360 O373 2.418 . S
Eu360 O378 2.373 . S
Eu360 O381 2.488 . S
Eu360 O382 2.471 . S
Eu360 O383 2.349 . S
Eu361 O370 2.373 . S
Eu361 O374 2.488 . S
Eu361 O375 2.471 . S
Eu361 O376 2.349 . S
Eu361 O379 2.392 . S
Eu361 O380 2.418 . S
Eu361 C390 2.828 1_455 S
C362 O380 1.244 . S
C362 O383 1.265 . S
C363 C364 1.379 . S
C363 C367 1.373 . S
C363 C369 1.505 . S
C364 C363 1.379 . S
C364 C366 1.369 . S
C364 H392 0.930 . S
C365 C367 1.383 . S
C365 C368 1.382 . S
C365 H393 0.930 . S
C366 C364 1.369 . S
C366 C368 1.392 . S
C366 H394 0.930 . S
C367 C363 1.373 . S
C367 C365 1.383 . S
C367 H395 0.931 . S
C368 C365 1.382 . S
C368 C366 1.392 . S
C369 Eu360 2.828 . S
C369 C363 1.505 . S
C369 O381 1.249 . S
C369 O382 1.244 . S
O370 Eu361 2.373 . S
O370 C372 1.258 . S
O371 Eu360 2.392 . S
O371 C372 1.242 . S
C372 O370 1.258 . S
C372 O371 1.242 . S
O373 Eu360 2.418 . S
O373 C377 1.244 . S
O374 Eu361 2.488 . S
O374 C390 1.249 1_455 S
O375 Eu361 2.471 . S
O375 C390 1.244 1_455 S
O376 Eu361 2.349 . S
O376 C377 1.265 . S
C377 O373 1.244 . S
C377 O376 1.265 . S
O378 Eu360 2.373 . S
O378 C391 1.258 . S
O379 Eu361 2.392 . S
O379 C391 1.242 . S
O380 Eu361 2.418 . S
O380 C362 1.244 . S
O381 Eu360 2.488 . S
O381 C369 1.249 . S
O382 Eu360 2.471 . S
O382 C369 1.244 . S
O383 Eu360 2.349 . S
O383 C362 1.265 . S
C384 C385 1.379 . S
C384 C388 1.373 . S
C384 C390 1.505 . S
C385 C384 1.379 . S
C385 C387 1.369 . S
C385 H396 0.930 . S
C386 C388 1.383 . S
C386 C389 1.382 . S
C386 H397 0.930 . S
C387 C385 1.369 . S
C387 C389 1.392 . S
C387 H398 0.930 . S
C388 C384 1.373 . S
C388 C386 1.383 . S
C388 H399 0.931 . S
C389 C386 1.382 . S
C389 C387 1.392 . S
C390 Eu361 2.828 1_655 S
C390 O374 1.249 1_655 S
C390 O375 1.244 1_655 S
C390 C384 1.505 . S
C391 O378 1.258 . S
C391 O379 1.242 . S
H392 C364 0.930 . S
H393 C365 0.930 . S
H394 C366 0.930 . S
H395 C367 0.931 . S
H396 C385 0.930 . S
H397 C386 0.930 . S
H398 C387 0.930 . S
H399 C388 0.931 . S
Eu400 C409 2.828 1_565 S
Eu400 O411 2.392 . S
Eu400 O413 2.418 . S
Eu400 O418 2.373 . S
Eu400 O421 2.488 . S
Eu400 O422 2.471 . S
Eu400 O423 2.349 . S
Eu401 O410 2.373 . S
Eu401 O414 2.488 . S
Eu401 O415 2.471 . S
Eu401 O416 2.349 . S
Eu401 O419 2.392 . S
Eu401 O420 2.418 . S
Eu401 C430 2.828 . S
C402 O420 1.244 . S
C402 O423 1.265 . S
C403 C404 1.379 . S
C403 C407 1.373 . S
C403 C409 1.505 . S
C404 C403 1.379 . S
C404 C406 1.369 . S
C404 H432 0.930 . S
C405 C407 1.383 . S
C405 C408 1.382 . S
C405 H433 0.930 . S
C406 C404 1.369 . S
C406 C408 1.392 . S
C406 H434 0.930 . S
C407 C403 1.373 . S
C407 C405 1.383 . S
C407 H435 0.931 . S
C408 C405 1.382 . S
C408 C406 1.392 . S
C409 Eu400 2.828 1_545 S
C409 C403 1.505 . S
C409 O421 1.249 1_545 S
C409 O422 1.244 1_545 S
O410 Eu401 2.373 . S
O410 C412 1.258 . S
O411 Eu400 2.392 . S
O411 C412 1.242 . S
C412 O410 1.258 . S
C412 O411 1.242 . S
O413 Eu400 2.418 . S
O413 C417 1.244 . S
O414 Eu401 2.488 . S
O414 C430 1.249 . S
O415 Eu401 2.471 . S
O415 C430 1.244 . S
O416 Eu401 2.349 . S
O416 C417 1.265 . S
C417 O413 1.244 . S
C417 O416 1.265 . S
O418 Eu400 2.373 . S
O418 C431 1.258 . S
O419 Eu401 2.392 . S
O419 C431 1.242 . S
O420 Eu401 2.418 . S
O420 C402 1.244 . S
O421 Eu400 2.488 . S
O421 C409 1.249 1_565 S
O422 Eu400 2.471 . S
O422 C409 1.244 1_565 S
O423 Eu400 2.349 . S
O423 C402 1.265 . S
C424 C425 1.379 . S
C424 C428 1.373 . S
C424 C430 1.505 . S
C425 C424 1.379 . S
C425 C427 1.369 . S
C425 H436 0.930 . S
C426 C428 1.383 . S
C426 C429 1.382 . S
C426 H437 0.930 . S
C427 C425 1.369 . S
C427 C429 1.392 . S
C427 H438 0.930 . S
C428 C424 1.373 . S
C428 C426 1.383 . S
C428 H439 0.931 . S
C429 C426 1.382 . S
C429 C427 1.392 . S
C430 Eu401 2.828 . S
C430 O414 1.249 . S
C430 O415 1.244 . S
C430 C424 1.505 . S
C431 O418 1.258 . S
C431 O419 1.242 . S
H432 C404 0.930 . S
H433 C405 0.930 . S
H434 C406 0.930 . S
H435 C407 0.931 . S
H436 C425 0.930 . S
H437 C426 0.930 . S
H438 C427 0.930 . S
H439 C428 0.931 . S
Eu440 C449 2.828 . S
Eu440 O451 2.392 . S
Eu440 O453 2.418 . S
Eu440 O458 2.373 . S
Eu440 O461 2.488 . S
Eu440 O462 2.471 . S
Eu440 O463 2.349 . S
Eu441 O450 2.373 . S
Eu441 O454 2.488 . S
Eu441 O455 2.471 . S
Eu441 O456 2.349 . S
Eu441 O459 2.392 . S
Eu441 O460 2.418 . S
Eu441 C470 2.828 . S
C442 O460 1.244 . S
C442 O463 1.265 . S
C443 C444 1.379 . S
C443 C447 1.373 . S
C443 C449 1.505 . S
C444 C443 1.379 . S
C444 C446 1.369 . S
C444 H472 0.930 . S
C445 C447 1.383 . S
C445 C448 1.382 . S
C445 H473 0.930 . S
C446 C444 1.369 . S
C446 C448 1.392 . S
C446 H474 0.930 . S
C447 C443 1.373 . S
C447 C445 1.383 . S
C447 H475 0.931 . S
C448 C445 1.382 . S
C448 C446 1.392 . S
C449 Eu440 2.828 . S
C449 C443 1.505 . S
C449 O461 1.249 . S
C449 O462 1.244 . S
O450 Eu441 2.373 . S
O450 C452 1.258 . S
O451 Eu440 2.392 . S
O451 C452 1.242 . S
C452 O450 1.258 . S
C452 O451 1.242 . S
O453 Eu440 2.418 . S
O453 C457 1.244 . S
O454 Eu441 2.488 . S
O454 C470 1.249 . S
O455 Eu441 2.471 . S
O455 C470 1.244 . S
O456 Eu441 2.349 . S
O456 C457 1.265 . S
C457 O453 1.244 . S
C457 O456 1.265 . S
O458 Eu440 2.373 . S
O458 C471 1.258 . S
O459 Eu441 2.392 . S
O459 C471 1.242 . S
O460 Eu441 2.418 . S
O460 C442 1.244 . S
O461 Eu440 2.488 . S
O461 C449 1.249 . S
O462 Eu440 2.471 . S
O462 C449 1.244 . S
O463 Eu440 2.349 . S
O463 C442 1.265 . S
C464 C465 1.379 . S
C464 C468 1.373 . S
C464 C470 1.505 . S
C465 C464 1.379 . S
C465 C467 1.369 . S
C465 H476 0.930 . S
C466 C468 1.383 . S
C466 C469 1.382 . S
C466 H477 0.930 . S
C467 C465 1.369 . S
C467 C469 1.392 . S
C467 H478 0.930 . S
C468 C464 1.373 . S
C468 C466 1.383 . S
C468 H479 0.931 . S
C469 C466 1.382 . S
C469 C467 1.392 . S
C470 Eu441 2.828 . S
C470 O454 1.249 . S
C470 O455 1.244 . S
C470 C464 1.505 . S
C471 O458 1.258 . S
C471 O459 1.242 . S
H472 C444 0.930 . S
H473 C445 0.930 . S
H474 C446 0.930 . S
H475 C447 0.931 . S
H476 C465 0.930 . S
H477 C466 0.930 . S
H478 C467 0.930 . S
H479 C468 0.931 . S
C480 C481 1.369 . S
C480 C482 1.419 . S
C480 H484 0.930 . S
C481 C480 1.369 . S
C481 C490 1.429 . S
C482 C480 1.419 . S
C482 C483 1.363 . S
C482 H485 0.929 . S
C483 C482 1.363 . S
C483 C489 1.428 . S
H484 C480 0.930 . S
H485 C482 0.929 . S
S486 N487 1.613 . S
S486 N488 1.610 . S
N487 S486 1.613 . S
N487 C490 1.350 . S
N488 S486 1.610 . S
N488 C489 1.351 . S
C489 C483 1.428 . S
C489 N488 1.351 . S
C489 C490 1.434 . S
C490 C481 1.429 . S
C490 N487 1.350 . S
C490 C489 1.434 . S
C491 C492 1.369 . S
C491 C493 1.419 1_455 S
C491 H495 0.930 . S
C492 C491 1.369 . S
C492 C501 1.429 1_455 S
C493 C491 1.419 1_655 S
C493 C494 1.363 . S
C493 H496 0.929 . S
C494 C493 1.363 . S
C494 C500 1.428 . S
H495 C491 0.930 . S
H496 C493 0.929 . S
S497 N498 1.613 . S
S497 N499 1.610 . S
N498 S497 1.613 . S
N498 C501 1.350 . S
N499 S497 1.610 . S
N499 C500 1.351 . S
C500 C494 1.428 . S
C500 N499 1.351 . S
C500 C501 1.434 . S
C501 C492 1.429 1_655 S
C501 N498 1.350 . S
C501 C500 1.434 . S
C502 C503 1.369 . S
C502 C504 1.419 1_545 S
C502 H506 0.930 . S
C503 C502 1.369 . S
C503 C512 1.429 . S
C504 C502 1.419 1_565 S
C504 C505 1.363 . S
C504 H507 0.929 . S
C505 C504 1.363 . S
C505 C511 1.428 1_565 S
H506 C502 0.930 . S
H507 C504 0.929 . S
S508 N509 1.613 . S
S508 N510 1.610 . S
N509 S508 1.613 . S
N509 C512 1.350 . S
N510 S508 1.610 . S
N510 C511 1.351 . S
C511 C505 1.428 1_545 S
C511 N510 1.351 . S
C511 C512 1.434 . S
C512 C503 1.429 . S
C512 N509 1.350 . S
C512 C511 1.434 . S
C513 C514 1.369 . S
C513 C515 1.419 . S
C513 H517 0.930 . S
C514 C513 1.369 . S
C514 C523 1.429 . S
C515 C513 1.419 . S
C515 C516 1.363 . S
C515 H518 0.929 . S
C516 C515 1.363 . S
C516 C522 1.428 . S
H517 C513 0.930 . S
H518 C515 0.929 . S
S519 N520 1.613 . S
S519 N521 1.610 . S
N520 S519 1.613 . S
N520 C523 1.350 . S
N521 S519 1.610 . S
N521 C522 1.351 . S
C522 C516 1.428 . S
C522 N521 1.351 . S
C522 C523 1.434 . S
C523 C514 1.429 . S
C523 N520 1.350 . S
C523 C522 1.434 . S
C524 C525 1.369 . S
C524 C526 1.419 1_455 S
C524 H528 0.930 . S
C525 C524 1.369 . S
C525 C534 1.429 1_455 S
C526 C524 1.419 1_655 S
C526 C527 1.363 . S
C526 H529 0.929 . S
C527 C526 1.363 . S
C527 C533 1.428 . S
H528 C524 0.930 . S
H529 C526 0.929 . S
S530 N531 1.613 . S
S530 N532 1.610 . S
N531 S530 1.613 . S
N531 C534 1.350 . S
N532 S530 1.610 . S
N532 C533 1.351 . S
C533 C527 1.428 . S
C533 N532 1.351 . S
C533 C534 1.434 . S
C534 C525 1.429 1_655 S
C534 N531 1.350 . S
C534 C533 1.434 . S
C535 C536 1.369 1_545 S
C535 C537 1.419 . S
C535 H539 0.930 . S
C536 C535 1.369 1_565 S
C536 C545 1.429 . S
C537 C535 1.419 . S
C537 C538 1.363 . S
C537 H540 0.929 . S
C538 C537 1.363 . S
C538 C544 1.428 . S
H539 C535 0.930 . S
H540 C537 0.929 . S
S541 N542 1.613 . S
S541 N543 1.610 1_565 S
N542 S541 1.613 . S
N542 C545 1.350 . S
N543 S541 1.610 1_545 S
N543 C544 1.351 . S
C544 C538 1.428 . S
C544 N543 1.351 . S
C544 C545 1.434 1_545 S
C545 C536 1.429 . S
C545 N542 1.350 . S
C545 C544 1.434 1_565 S
C546 C547 1.369 . S
C546 C548 1.419 . S
C546 H550 0.930 . S
C547 C546 1.369 . S
C547 C556 1.429 . S
C548 C546 1.419 . S
C548 C549 1.363 . S
C548 H551 0.929 . S
C549 C548 1.363 . S
C549 C555 1.428 . S
H550 C546 0.930 . S
H551 C548 0.929 . S
S552 N553 1.613 . S
S552 N554 1.610 . S
N553 S552 1.613 . S
N553 C556 1.350 . S
N554 S552 1.610 . S
N554 C555 1.351 . S
C555 C549 1.428 . S
C555 N554 1.351 . S
C555 C556 1.434 . S
C556 C547 1.429 . S
C556 N553 1.350 . S
C556 C555 1.434 . S
C557 C558 1.369 . S
C557 C559 1.419 . S
C557 H561 0.930 . S
C558 C557 1.369 . S
C558 C567 1.429 . S
C559 C557 1.419 . S
C559 C560 1.363 1_455 S
C559 H562 0.921 1_455 S
C560 C559 1.363 1_655 S
C560 C566 1.428 . S
H561 C557 0.930 . S
H562 C559 0.921 1_655 S
S563 N564 1.613 1_655 S
S563 N565 1.610 . S
N564 S563 1.613 1_455 S
N564 C567 1.350 . S
N565 S563 1.610 . S
N565 C566 1.351 . S
C566 C560 1.428 . S
C566 N565 1.351 . S
C566 C567 1.434 1_655 S
C567 C558 1.429 . S
C567 N564 1.350 . S
C567 C566 1.434 1_455 S
C568 C569 1.369 . S
C568 C570 1.419 1_565 S
C568 H572 0.930 . S
C569 C568 1.369 . S
C569 C578 1.429 . S
C570 C568 1.419 1_545 S
C570 C571 1.363 . S
C570 H573 0.929 . S
C571 C570 1.363 . S
C571 C577 1.428 1_545 S
H572 C568 0.930 . S
H573 C570 0.929 . S
S574 N575 1.613 . S
S574 N576 1.594 1_565 S
N575 S574 1.613 . S
N575 C578 1.350 . S
N576 S574 1.594 1_545 S
N576 C577 1.348 1_545 S
C577 C571 1.428 1_565 S
C577 N576 1.348 1_565 S
C577 C578 1.434 . S
C578 C569 1.429 . S
C578 N575 1.350 . S
C578 C577 1.434 . S
C579 C580 1.369 . S
C579 C581 1.419 . S
C579 H583 0.930 . S
C580 C579 1.369 . S
C580 C589 1.429 . S
C581 C579 1.419 . S
C581 C582 1.363 . S
C581 H584 0.929 . S
C582 C581 1.363 . S
C582 C588 1.428 . S
H583 C579 0.930 . S
H584 C581 0.929 . S
S585 N586 1.613 . S
S585 N587 1.610 . S
N586 S585 1.613 . S
N586 C589 1.350 . S
N587 S585 1.610 . S
N587 C588 1.351 . S
C588 C582 1.428 . S
C588 N587 1.351 . S
C588 C589 1.434 . S
C589 C580 1.429 . S
C589 N586 1.350 . S
C589 C588 1.434 . S
C590 C591 1.369 . S
C590 C592 1.419 1_455 S
C590 H594 0.930 . S
C591 C590 1.369 . S
C591 C600 1.429 . S
C592 C590 1.419 1_655 S
C592 C593 1.363 . S
C592 H595 0.929 . S
C593 C592 1.363 . S
C593 C599 1.426 1_655 S
H594 C590 0.930 . S
H595 C592 0.929 . S
S596 N597 1.613 . S
S596 N598 1.610 1_455 S
N597 S596 1.613 . S
N597 C600 1.350 . S
N598 S596 1.610 1_655 S
N598 C599 1.342 1_655 S
C599 C593 1.426 1_455 S
C599 N598 1.342 1_455 S
C599 C600 1.446 . S
C600 C591 1.429 . S
C600 N597 1.350 . S
C600 C599 1.446 . S
C601 C602 1.369 1_565 S
C601 C603 1.419 . S
C601 H605 0.930 . S
C602 C601 1.369 1_545 S
C602 C611 1.429 . S
C603 C601 1.419 . S
C603 C604 1.363 . S
C603 H606 0.929 . S
C604 C603 1.363 . S
C604 C610 1.428 . S
H605 C601 0.930 . S
H606 C603 0.929 . S
S607 N608 1.613 . S
S607 N609 1.610 1_545 S
N608 S607 1.613 . S
N608 C611 1.350 . S
N609 S607 1.610 1_565 S
N609 C610 1.351 . S
C610 C604 1.428 . S
C610 N609 1.351 . S
C610 C611 1.434 1_565 S
C611 C602 1.429 . S
C611 N608 1.350 . S
C611 C610 1.434 1_545 S
C612 C613 1.369 . S
C612 C614 1.419 . S
C612 H616 0.930 . S
C613 C612 1.369 . S
C613 C622 1.429 . S
C614 C612 1.419 . S
C614 C615 1.363 . S
C614 H617 0.929 . S
C615 C614 1.363 . S
C615 C621 1.428 . S
H616 C612 0.930 . S
H617 C614 0.929 . S
S618 N619 1.613 . S
S618 N620 1.610 . S
N619 S618 1.613 . S
N619 C622 1.350 . S
N620 S618 1.610 . S
N620 C621 1.351 . S
C621 C615 1.428 . S
C621 N620 1.351 . S
C621 C622 1.434 . S
C622 C613 1.429 . S
C622 N619 1.350 . S
C622 C621 1.434 . S
C623 C624 1.369 . S
C623 C625 1.419 . S
C623 H627 0.930 . S
C624 C623 1.369 . S
C624 C633 1.429 . S
C625 C623 1.419 . S
C625 C626 1.363 . S
C625 H628 0.929 . S
C626 C625 1.363 . S
C626 C632 1.428 . S
H627 C623 0.930 . S
H628 C625 0.929 . S
S629 N630 1.613 . S
S629 N631 1.610 . S
N630 S629 1.613 . S
N630 C633 1.350 . S
N631 S629 1.610 . S
N631 C632 1.351 . S
C632 C626 1.428 . S
C632 N631 1.351 . S
C632 C633 1.434 . S
C633 C624 1.429 . S
C633 N630 1.350 . S
C633 C632 1.434 . S
C634 C635 1.369 . S
C634 C636 1.419 . S
C634 H638 0.930 . S
C635 C634 1.369 . S
C635 C644 1.429 . S
C636 C634 1.419 . S
C636 C637 1.363 . S
C636 H639 0.929 . S
C637 C636 1.363 . S
C637 C643 1.428 . S
H638 C634 0.930 . S
H639 C636 0.929 . S
S640 N641 1.613 . S
S640 N642 1.610 . S
N641 S640 1.613 . S
N641 C644 1.350 . S
N642 S640 1.610 . S
N642 C643 1.351 . S
C643 C637 1.428 . S
C643 N642 1.351 . S
C643 C644 1.434 . S
C644 C635 1.429 . S
C644 N641 1.350 . S
C644 C643 1.434 . S
C645 C646 1.369 . S
C645 C647 1.419 . S
C645 H649 0.930 . S
C646 C645 1.369 . S
C646 C655 1.429 . S
C647 C645 1.419 . S
C647 C648 1.363 . S
C647 H650 0.929 . S
C648 C647 1.363 . S
C648 C654 1.428 . S
H649 C645 0.930 . S
H650 C647 0.929 . S
S651 N652 1.613 . S
S651 N653 1.610 . S
N652 S651 1.613 . S
N652 C655 1.350 . S
N653 S651 1.610 . S
N653 C654 1.351 . S
C654 C648 1.428 . S
C654 N653 1.351 . S
C654 C655 1.434 . S
C655 C646 1.429 . S
C655 N652 1.350 . S
C655 C654 1.434 . S
C656 C657 1.369 . S
C656 C658 1.419 . S
C656 H660 0.930 . S
C657 C656 1.369 . S
C657 C666 1.429 . S
C658 C656 1.419 . S
C658 C659 1.363 . S
C658 H661 0.929 . S
C659 C658 1.363 . S
C659 C665 1.428 . S
H660 C656 0.930 . S
H661 C658 0.929 . S
S662 N663 1.613 . S
S662 N664 1.610 . S
N663 S662 1.613 . S
N663 C666 1.350 . S
N664 S662 1.610 . S
N664 C665 1.351 . S
C665 C659 1.428 . S
C665 N664 1.351 . S
C665 C666 1.434 . S
C666 C657 1.429 . S
C666 N663 1.350 . S
C666 C665 1.434 . S
C667 C668 1.369 . S
C667 C669 1.419 . S
C667 H671 0.930 . S
C668 C667 1.369 . S
C668 C677 1.429 . S
C669 C667 1.419 . S
C669 C670 1.363 . S
C669 H672 0.929 . S
C670 C669 1.363 . S
C670 C676 1.428 . S
H671 C667 0.930 . S
H672 C669 0.929 . S
S673 N674 1.613 . S
S673 N675 1.610 . S
N674 S673 1.613 . S
N674 C677 1.350 . S
N675 S673 1.610 . S
N675 C676 1.351 . S
C676 C670 1.428 . S
C676 N675 1.351 . S
C676 C677 1.434 . S
C677 C668 1.429 . S
C677 N674 1.350 . S
C677 C676 1.434 . S
C678 C679 1.363 1_554 S
C678 C680 1.424 1_565 S
C678 H682 0.931 . S
C679 C678 1.363 1_556 S
C679 C688 1.429 . S
C680 C678 1.424 1_545 S
C680 C681 1.363 . S
C680 H683 0.929 . S
C681 C680 1.363 . S
C681 C687 1.428 1_554 S
H682 C678 0.931 . S
H683 C680 0.929 . S
S684 N685 1.613 1_545 S
S684 N686 1.610 . S
N685 S684 1.613 1_565 S
N685 C688 1.350 . S
N686 S684 1.610 . S
N686 C687 1.351 . S
C687 C681 1.428 1_556 S
C687 N686 1.351 . S
C687 C688 1.434 1_545 S
C688 C679 1.429 . S
C688 N685 1.350 . S
C688 C687 1.434 1_565 S
C689 C690 1.369 . S
C689 C691 1.419 . S
C689 H693 0.930 . S
C690 C689 1.369 . S
C690 C699 1.429 . S
C691 C689 1.419 . S
C691 C692 1.363 . S
C691 H694 0.929 . S
C692 C691 1.363 . S
C692 C698 1.428 . S
H693 C689 0.930 . S
H694 C691 0.929 . S
S695 N696 1.613 . S
S695 N697 1.610 . S
N696 S695 1.613 . S
N696 C699 1.350 . S
N697 S695 1.610 . S
N697 C698 1.351 . S
C698 C692 1.428 . S
C698 N697 1.351 . S
C698 C699 1.434 . S
C699 C690 1.429 . S
C699 N696 1.350 . S
C699 C698 1.434 . S
C700 C701 1.369 . S
C700 C702 1.419 1_455 S
C700 H704 0.930 . S
C701 C700 1.369 . S
C701 C710 1.429 1_556 S
C702 C700 1.419 1_655 S
C702 C703 1.363 1_556 S
C702 H705 0.929 . S
C703 C702 1.363 1_554 S
C703 C709 1.428 . S
H704 C700 0.930 . S
H705 C702 0.929 . S
S706 N707 1.613 . S
S706 N708 1.610 1_455 S
N707 S706 1.613 . S
N707 C710 1.350 . S
N708 S706 1.610 1_655 S
N708 C709 1.351 . S
C709 C703 1.428 . S
C709 N708 1.351 . S
C709 C710 1.434 1_655 S
C710 C701 1.429 1_554 S
C710 N707 1.350 . S
C710 C709 1.434 1_455 S
C711 C712 1.369 . S
C711 C713 1.419 1_545 S
C711 H715 0.930 . S
C712 C711 1.369 . S
C712 C721 1.429 . S
C713 C711 1.419 1_565 S
C713 C714 1.363 . S
C713 H716 0.929 . S
C714 C713 1.363 . S
C714 C720 1.428 . S
H715 C711 0.930 . S
H716 C713 0.929 . S
S717 N718 1.613 . S
S717 N719 1.610 1_545 S
N718 S717 1.613 . S
N718 C721 1.350 . S
N719 S717 1.610 1_565 S
N719 C720 1.351 . S
C720 C714 1.428 . S
C720 N719 1.351 . S
C720 C721 1.434 1_565 S
C721 C712 1.429 . S
C721 N718 1.350 . S
C721 C720 1.434 1_545 S
C722 C723 1.369 1_556 S
C722 C724 1.419 . S
C722 H726 0.930 . S
C723 C722 1.369 1_554 S
C723 C732 1.429 . S
C724 C722 1.419 . S
C724 C725 1.363 . S
C724 H727 0.929 . S
C725 C724 1.363 . S
C725 C731 1.428 1_556 S
H726 C722 0.930 . S
H727 C724 0.929 . S
S728 N729 1.613 . S
S728 N730 1.610 . S
N729 S728 1.613 . S
N729 C732 1.350 . S
N730 S728 1.610 . S
N730 C731 1.351 . S
C731 C725 1.428 1_554 S
C731 N730 1.351 . S
C731 C732 1.434 . S
C732 C723 1.429 . S
C732 N729 1.350 . S
C732 C731 1.434 . S
C733 C734 1.369 . S
C733 C735 1.419 1_455 S
C733 H737 0.930 . S
C734 C733 1.369 . S
C734 C743 1.429 . S
C735 C733 1.419 1_655 S
C735 C736 1.363 . S
C735 H738 0.929 . S
C736 C735 1.363 . S
C736 C742 1.428 . S
H737 C733 0.930 . S
H738 C735 0.929 . S
S739 N740 1.613 . S
S739 N741 1.610 1_455 S
N740 S739 1.613 . S
N740 C743 1.350 . S
N741 S739 1.610 1_655 S
N741 C742 1.351 . S
C742 C736 1.428 . S
C742 N741 1.351 . S
C742 C743 1.434 1_655 S
C743 C734 1.429 . S
C743 N740 1.350 . S
C743 C742 1.434 1_455 S
C744 C745 1.369 . S
C744 C746 1.419 . S
C744 H748 0.930 . S
C745 C744 1.369 . S
C745 C754 1.429 . S
C746 C744 1.419 . S
C746 C747 1.363 . S
C746 H749 0.929 . S
C747 C746 1.363 . S
C747 C753 1.428 . S
H748 C744 0.930 . S
H749 C746 0.929 . S
S750 N751 1.613 . S
S750 N752 1.610 . S
N751 S750 1.613 . S
N751 C754 1.350 . S
N752 S750 1.610 . S
N752 C753 1.351 . S
C753 C747 1.428 . S
C753 N752 1.351 . S
C753 C754 1.434 . S
C754 C745 1.429 . S
C754 N751 1.350 . S
C754 C753 1.434 . S
C755 C756 1.369 . S
C755 C757 1.419 . S
C755 H759 0.930 . S
C756 C755 1.369 . S
C756 C765 1.429 . S
C757 C755 1.419 . S
C757 C758 1.363 . S
C757 H760 0.929 . S
C758 C757 1.363 . S
C758 C764 1.428 . S
H759 C755 0.930 . S
H760 C757 0.929 . S
S761 N762 1.613 . S
S761 N763 1.610 . S
N762 S761 1.613 . S
N762 C765 1.350 . S
N763 S761 1.610 . S
N763 C764 1.351 . S
C764 C758 1.428 . S
C764 N763 1.351 . S
C764 C765 1.434 . S
C765 C756 1.429 . S
C765 N762 1.350 . S
C765 C764 1.434 . S
C766 C767 1.369 . S
C766 C768 1.419 . S
C766 H770 0.930 . S
C767 C766 1.369 . S
C767 C776 1.429 . S
C768 C766 1.419 . S
C768 C769 1.363 . S
C768 H771 0.929 . S
C769 C768 1.363 . S
C769 C775 1.428 . S
H770 C766 0.930 . S
H771 C768 0.929 . S
S772 N773 1.613 . S
S772 N774 1.610 . S
N773 S772 1.613 . S
N773 C776 1.350 . S
N774 S772 1.610 . S
N774 C775 1.351 . S
C775 C769 1.428 . S
C775 N774 1.351 . S
C775 C776 1.434 . S
C776 C767 1.429 . S
C776 N773 1.350 . S
C776 C775 1.434 . S
C777 C778 1.369 . S
C777 C779 1.419 . S
C777 H781 0.930 . S
C778 C777 1.369 . S
C778 C787 1.429 . S
C779 C777 1.419 . S
C779 C780 1.363 . S
C779 H782 0.929 . S
C780 C779 1.363 . S
C780 C786 1.428 . S
H781 C777 0.930 . S
H782 C779 0.929 . S
S783 N784 1.613 . S
S783 N785 1.610 . S
N784 S783 1.613 . S
N784 C787 1.350 . S
N785 S783 1.610 . S
N785 C786 1.351 . S
C786 C780 1.428 . S
C786 N785 1.351 . S
C786 C787 1.434 . S
C787 C778 1.429 . S
C787 N784 1.350 . S
C787 C786 1.434 . S
C788 C789 1.369 . S
C788 C790 1.419 . S
C788 H792 0.930 . S
C789 C788 1.369 . S
C789 C798 1.429 . S
C790 C788 1.419 . S
C790 C791 1.363 . S
C790 H793 0.929 . S
C791 C790 1.363 . S
C791 C797 1.428 . S
H792 C788 0.930 . S
H793 C790 0.929 . S
S794 N795 1.613 . S
S794 N796 1.610 . S
N795 S794 1.613 . S
N795 C798 1.350 . S
N796 S794 1.610 . S
N796 C797 1.351 . S
C797 C791 1.428 . S
C797 N796 1.351 . S
C797 C798 1.434 . S
C798 C789 1.429 . S
C798 N795 1.350 . S
C798 C797 1.434 . S
C799 C800 1.369 . S
C799 C801 1.419 . S
C799 H803 0.930 . S
C800 C799 1.369 . S
C800 C809 1.429 . S
C801 C799 1.419 . S
C801 C802 1.363 . S
C801 H804 0.929 . S
C802 C801 1.363 . S
C802 C808 1.428 . S
H803 C799 0.930 . S
H804 C801 0.929 . S
S805 N806 1.613 . S
S805 N807 1.610 . S
N806 S805 1.613 . S
N806 C809 1.350 . S
N807 S805 1.610 . S
N807 C808 1.351 . S
C808 C802 1.428 . S
C808 N807 1.351 . S
C808 C809 1.434 . S
C809 C800 1.429 . S
C809 N806 1.350 . S
C809 C808 1.434 . S
C810 C811 1.369 . S
C810 C812 1.419 . S
C810 H814 0.930 . S
C811 C810 1.369 . S
C811 C820 1.429 . S
C812 C810 1.419 . S
C812 C813 1.363 . S
C812 H815 0.929 . S
C813 C812 1.363 . S
C813 C819 1.428 . S
H814 C810 0.930 . S
H815 C812 0.929 . S
S816 N817 1.613 . S
S816 N818 1.610 . S
N817 S816 1.613 . S
N817 C820 1.350 . S
N818 S816 1.610 . S
N818 C819 1.351 . S
C819 C813 1.428 . S
C819 N818 1.351 . S
C819 C820 1.434 . S
C820 C811 1.429 . S
C820 N817 1.350 . S
C820 C819 1.434 . S
C821 C822 1.369 . S
C821 C823 1.419 . S
C821 H825 0.930 . S
C822 C821 1.369 . S
C822 C831 1.429 . S
C823 C821 1.419 . S
C823 C824 1.363 . S
C823 H826 0.929 . S
C824 C823 1.363 . S
C824 C830 1.428 . S
H825 C821 0.930 . S
H826 C823 0.929 . S
S827 N828 1.613 . S
S827 N829 1.610 . S
N828 S827 1.613 . S
N828 C831 1.350 . S
N829 S827 1.610 . S
N829 C830 1.351 . S
C830 C824 1.428 . S
C830 N829 1.351 . S
C830 C831 1.434 . S
C831 C822 1.429 . S
C831 N828 1.350 . S
C831 C830 1.434 . S
C832 C833 1.369 . S
C832 C834 1.419 . S
C832 H836 0.930 . S
C833 C832 1.369 . S
C833 C842 1.429 . S
C834 C832 1.419 . S
C834 C835 1.363 . S
C834 H837 0.929 . S
C835 C834 1.363 . S
C835 C841 1.428 . S
H836 C832 0.930 . S
H837 C834 0.929 . S
S838 N839 1.613 . S
S838 N840 1.610 . S
N839 S838 1.613 . S
N839 C842 1.350 . S
N840 S838 1.610 . S
N840 C841 1.351 . S
C841 C835 1.428 . S
C841 N840 1.351 . S
C841 C842 1.434 . S
C842 C833 1.429 . S
C842 N839 1.350 . S
C842 C841 1.434 . S
C843 C844 1.369 . S
C843 C845 1.419 . S
C843 H847 0.930 . S
C844 C843 1.369 . S
C844 C853 1.429 . S
C845 C843 1.419 . S
C845 C846 1.363 . S
C845 H848 0.929 . S
C846 C845 1.363 . S
C846 C852 1.428 . S
H847 C843 0.930 . S
H848 C845 0.929 . S
S849 N850 1.613 . S
S849 N851 1.610 . S
N850 S849 1.613 . S
N850 C853 1.350 . S
N851 S849 1.610 . S
N851 C852 1.351 . S
C852 C846 1.428 . S
C852 N851 1.351 . S
C852 C853 1.434 . S
C853 C844 1.429 . S
C853 N850 1.350 . S
C853 C852 1.434 . S
C854 C855 1.369 . S
C854 C856 1.419 . S
C854 H858 0.930 . S
C855 C854 1.369 . S
C855 C864 1.429 . S
C856 C854 1.419 . S
C856 C857 1.363 . S
C856 H859 0.929 . S
C857 C856 1.363 . S
C857 C863 1.428 . S
H858 C854 0.930 . S
H859 C856 0.929 . S
S860 N861 1.613 . S
S860 N862 1.610 . S
N861 S860 1.613 . S
N861 C864 1.350 . S
N862 S860 1.610 . S
N862 C863 1.351 . S
C863 C857 1.428 . S
C863 N862 1.351 . S
C863 C864 1.434 . S
C864 C855 1.429 . S
C864 N861 1.350 . S
C864 C863 1.434 . S
C865 C866 1.369 . S
C865 C867 1.419 . S
C865 H869 0.930 . S
C866 C865 1.369 . S
C866 C875 1.429 . S
C867 C865 1.419 . S
C867 C868 1.363 . S
C867 H870 0.929 . S
C868 C867 1.363 . S
C868 C874 1.428 . S
H869 C865 0.930 . S
H870 C867 0.929 . S
S871 N872 1.613 . S
S871 N873 1.610 . S
N872 S871 1.613 . S
N872 C875 1.350 . S
N873 S871 1.610 . S
N873 C874 1.351 . S
C874 C868 1.428 . S
C874 N873 1.351 . S
C874 C875 1.434 . S
C875 C866 1.429 . S
C875 N872 1.350 . S
C875 C874 1.434 . S
C481 C109 1.369 . S
C483 C12 1.342 . S
C492 C128 1.365 . S
C494 C71 1.346 . S
C503 C92 1.344 . S
C505 C189 1.367 . S
C514 C151 1.341 . S
C516 C208 1.368 . S
C525 C29 1.367 . S
C527 C172 1.345 . S
C536 C48 1.367 . S
C538 C231 1.341 . S
C547 C408 1.367 . S
C549 C271 1.341 . S
C558 C292 1.344 . S
C560 C469 1.365 . S
C569 C351 1.341 . S
C571 C248 1.368 . S
C580 C372 1.348 . S
C582 C309 1.366 . S
C591 C431 1.348 . S
C593 C328 1.365 . S
C602 C389 1.365 . S
C604 C452 1.344 . S
C613 C137 1.732 . S
C615 C2 1.731 . S
C624 C57 1.725 . S
C626 C162 1.726 . S
C635 C82 1.730 . S
C637 C217 1.730 . S
C646 C257 1.726 . S
C648 C362 1.727 . S
C657 C282 1.726 . S
C659 C417 1.727 . S
C668 C337 1.732 . S
C670 C442 1.732 . S
C679 C297 2.494 . S
C681 C17 2.497 . S
C690 C42 2.494 . S
C692 C322 2.498 . S
C701 C377 2.497 . S
C703 C97 2.494 . S
C712 C122 2.498 . S
C714 C402 2.494 . S
C723 C177 2.494 . S
C725 C457 2.497 . S
C734 C242 2.498 . S
C736 C202 2.494 . S
C745 C88 1.706 . S
C747 C31 1.773 . S
C756 C52 1.774 . S
C758 C149 1.706 . S
C767 C111 1.769 . S
C769 C168 1.713 . S
C778 C132 1.773 . S
C780 C229 1.707 . S
C789 C8 1.710 . S
C791 C191 1.772 . S
C800 C69 1.707 . S
C802 C212 1.773 . S
C811 C429 1.713 . S
C813 C252 1.770 . S
C822 C311 1.769 . S
C824 C448 1.713 . S
C833 C332 1.774 . S
C835 C269 1.706 . S
C844 C288 1.705 . S
C846 C391 1.774 . S
C855 C412 1.770 . S
C857 C349 1.713 . S
C866 C471 1.769 . S
C868 C368 1.712 . S
