# Generated by pormake.
# Topology bcu-j, (5)-cn, num edge types: 1
# Building blocks:
#     Node 0, Type 0, BuildingBlock: BEQFEK_clean_sbu_0, # of connection points: 5
#     Node 1, Type 0, BuildingBlock: BEQFEK_clean_sbu_0, # of connection points: 5
#     Node 2, Type 0, BuildingBlock: BEQFEK_clean_sbu_0, # of connection points: 5
#     Node 3, Type 0, BuildingBlock: BEQFEK_clean_sbu_0, # of connection points: 5
#     Node 4, Type 0, BuildingBlock: BEQFEK_clean_sbu_0, # of connection points: 5
#     Node 5, Type 0, BuildingBlock: BEQFEK_clean_sbu_0, # of connection points: 5
#     Node 6, Type 0, BuildingBlock: BEQFEK_clean_sbu_0, # of connection points: 5
#     Node 7, Type 0, BuildingBlock: BEQFEK_clean_sbu_0, # of connection points: 5
#     Node 8, Type 0, BuildingBlock: BEQFEK_clean_sbu_0, # of connection points: 5
#     Node 9, Type 0, BuildingBlock: BEQFEK_clean_sbu_0, # of connection points: 5
#     Node 10, Type 0, BuildingBlock: BEQFEK_clean_sbu_0, # of connection points: 5
#     Node 11, Type 0, BuildingBlock: BEQFEK_clean_sbu_0, # of connection points: 5
#     Node 12, Type 0, BuildingBlock: BEQFEK_clean_sbu_0, # of connection points: 5
#     Node 13, Type 0, BuildingBlock: BEQFEK_clean_sbu_0, # of connection points: 5
#     Node 14, Type 0, BuildingBlock: BEQFEK_clean_sbu_0, # of connection points: 5
#     Node 15, Type 0, BuildingBlock: BEQFEK_clean_sbu_0, # of connection points: 5
#     Edge 16, Type (0, 0), BuildingBlock: XUDNAN_clean_linker_2, # of connection points: 2
#     Edge 17, Type (0, 0), BuildingBlock: XUDNAN_clean_linker_2, # of connection points: 2
#     Edge 18, Type (0, 0), BuildingBlock: XUDNAN_clean_linker_2, # of connection points: 2
#     Edge 19, Type (0, 0), BuildingBlock: XUDNAN_clean_linker_2, # of connection points: 2
#     Edge 20, Type (0, 0), BuildingBlock: XUDNAN_clean_linker_2, # of connection points: 2
#     Edge 21, Type (0, 0), BuildingBlock: XUDNAN_clean_linker_2, # of connection points: 2
#     Edge 22, Type (0, 0), BuildingBlock: XUDNAN_clean_linker_2, # of connection points: 2
#     Edge 23, Type (0, 0), BuildingBlock: XUDNAN_clean_linker_2, # of connection points: 2
#     Edge 24, Type (0, 0), BuildingBlock: XUDNAN_clean_linker_2, # of connection points: 2
#     Edge 25, Type (0, 0), BuildingBlock: XUDNAN_clean_linker_2, # of connection points: 2
#     Edge 26, Type (0, 0), BuildingBlock: XUDNAN_clean_linker_2, # of connection points: 2
#     Edge 27, Type (0, 0), BuildingBlock: XUDNAN_clean_linker_2, # of connection points: 2
#     Edge 28, Type (0, 0), BuildingBlock: XUDNAN_clean_linker_2, # of connection points: 2
#     Edge 29, Type (0, 0), BuildingBlock: XUDNAN_clean_linker_2, # of connection points: 2
#     Edge 30, Type (0, 0), BuildingBlock: XUDNAN_clean_linker_2, # of connection points: 2
#     Edge 31, Type (0, 0), BuildingBlock: XUDNAN_clean_linker_2, # of connection points: 2
#     Edge 32, Type (0, 0), BuildingBlock: XUDNAN_clean_linker_2, # of connection points: 2
#     Edge 33, Type (0, 0), BuildingBlock: XUDNAN_clean_linker_2, # of connection points: 2
#     Edge 34, Type (0, 0), BuildingBlock: XUDNAN_clean_linker_2, # of connection points: 2
#     Edge 35, Type (0, 0), BuildingBlock: XUDNAN_clean_linker_2, # of connection points: 2
#     Edge 36, Type (0, 0), BuildingBlock: XUDNAN_clean_linker_2, # of connection points: 2
#     Edge 37, Type (0, 0), BuildingBlock: XUDNAN_clean_linker_2, # of connection points: 2
#     Edge 38, Type (0, 0), BuildingBlock: XUDNAN_clean_linker_2, # of connection points: 2
#     Edge 39, Type (0, 0), BuildingBlock: XUDNAN_clean_linker_2, # of connection points: 2
#     Edge 40, Type (0, 0), BuildingBlock: XUDNAN_clean_linker_2, # of connection points: 2
#     Edge 41, Type (0, 0), BuildingBlock: XUDNAN_clean_linker_2, # of connection points: 2
#     Edge 42, Type (0, 0), BuildingBlock: XUDNAN_clean_linker_2, # of connection points: 2
#     Edge 43, Type (0, 0), BuildingBlock: XUDNAN_clean_linker_2, # of connection points: 2
#     Edge 44, Type (0, 0), BuildingBlock: XUDNAN_clean_linker_2, # of connection points: 2
#     Edge 45, Type (0, 0), BuildingBlock: XUDNAN_clean_linker_2, # of connection points: 2
#     Edge 46, Type (0, 0), BuildingBlock: XUDNAN_clean_linker_2, # of connection points: 2
#     Edge 47, Type (0, 0), BuildingBlock: XUDNAN_clean_linker_2, # of connection points: 2
#     Edge 48, Type (0, 0), BuildingBlock: XUDNAN_clean_linker_2, # of connection points: 2
#     Edge 49, Type (0, 0), BuildingBlock: XUDNAN_clean_linker_2, # of connection points: 2
#     Edge 50, Type (0, 0), BuildingBlock: XUDNAN_clean_linker_2, # of connection points: 2
#     Edge 51, Type (0, 0), BuildingBlock: XUDNAN_clean_linker_2, # of connection points: 2
#     Edge 52, Type (0, 0), BuildingBlock: XUDNAN_clean_linker_2, # of connection points: 2
#     Edge 53, Type (0, 0), BuildingBlock: XUDNAN_clean_linker_2, # of connection points: 2
#     Edge 54, Type (0, 0), BuildingBlock: XUDNAN_clean_linker_2, # of connection points: 2
#     Edge 55, Type (0, 0), BuildingBlock: XUDNAN_clean_linker_2, # of connection points: 2
# Relax obj value: 0.918
# Max RMSD: 0.234
# Mean RMSD: 0.225
data_MOF--net-bcu-j--node1-BEQFEK_clean_sbu_0--edge1-XUDNAN_clean_linker_2
_symmetry_space_group_name_H-M    P1
_symmetry_Int_Tables_number       1
_symmetry_cell_setting            triclinic
loop_
_symmetry_equiv_pos_as_xyz
'x, y, z'
_cell_length_a     42.402853
_cell_length_b     42.298479
_cell_length_c     38.438568
_cell_angle_alpha  89.715831
_cell_angle_beta   90.397307
_cell_angle_gamma 90.177261
loop_
_atom_site_label
_atom_site_type_symbol
_atom_site_fract_x
_atom_site_fract_y
_atom_site_fract_z
_atom_type_partial_charge
Co0 Co 0.97776 0.10862 0.58747 0.0
Co1 Co 0.01865 0.16202 0.55421 0.0
C2 C 0.05082 0.10941 0.58384 0.0
O3 O 0.02351 0.09725 0.58761 0.0
O4 O 0.054 0.13843 0.57546 0.0
C5 C 0.9708 0.07583 0.64669 0.0
O6 O 0.99075 0.09858 0.65448 0.0
C7 C 0.058 0.21848 0.54456 0.0
C8 C 0.02953 0.24626 0.50727 0.0
C9 C 0.0553 0.24836 0.52956 0.0
N10 N 0.03415 0.20021 0.53291 0.0
N11 N 0.01787 0.21666 0.50967 0.0
C12 C 0.08228 0.20761 0.57046 0.0
H13 H 0.09475 0.18684 0.55971 0.0
H14 H 0.07081 0.1997 0.59483 0.0
H15 H 0.09987 0.22639 0.57618 0.0
C16 C 0.95133 0.16235 0.62721 0.0
N17 N 0.97053 0.14985 0.60309 0.0
N18 N 0.98748 0.17247 0.5888 0.0
C19 C 0.98011 0.20007 0.60421 0.0
C20 C 0.95681 0.19465 0.62887 0.0
C21 C 0.92776 0.14384 0.64779 0.0
H22 H 0.91903 0.1234 0.63249 0.0
H23 H 0.93917 0.13482 0.67191 0.0
H24 H 0.90764 0.15903 0.65531 0.0
O25 O 0.96404 0.10591 0.5395 0.0
O26 O 0.00563 0.12997 0.51796 0.0
H27 H 0.99349 0.23945 0.57249 0.0
H28 H 0.99266 0.24845 0.6183 0.0
C29 C 0.99821 0.23007 0.59896 0.0
H30 H 0.0235 0.22479 0.60173 0.0
H31 H 0.99728 0.20856 0.49762 0.0
O32 O 0.95817 0.07576 0.61673 0.0
C33 C 0.98614 0.10686 0.51742 0.0
Co34 Co 0.39076 0.99211 0.61014 0.0
Co35 Co 0.33616 0.98641 0.55528 0.0
C36 C 0.36924 0.04862 0.57301 0.0
O37 O 0.3862 0.03683 0.59718 0.0
O38 O 0.34998 0.03156 0.55575 0.0
C39 C 0.45192 0.98874 0.64107 0.0
O40 O 0.46201 0.99348 0.60922 0.0
C41 C 0.27262 0.00625 0.54167 0.0
C42 C 0.2535 0.97102 0.50497 0.0
C43 C 0.24517 0.99703 0.52475 0.0
N44 N 0.29602 0.98674 0.53241 0.0
N45 N 0.28465 0.96601 0.50994 0.0
C46 C 0.27566 0.03015 0.57017 0.0
H47 H 0.27951 0.05386 0.55844 0.0
H48 H 0.296 0.02456 0.58737 0.0
H49 H 0.25388 0.03096 0.58599 0.0
C50 C 0.34445 0.96243 0.65533 0.0
N51 N 0.35314 0.97385 0.6242 0.0
N52 N 0.33044 0.96932 0.6013 0.0
C53 C 0.30643 0.95418 0.61742 0.0
C54 C 0.31458 0.94956 0.65214 0.0
C55 C 0.36487 0.96338 0.68726 0.0
H56 H 0.38613 0.94877 0.68285 0.0
H57 H 0.37279 0.98803 0.692 0.0
H58 H 0.35254 0.95414 0.71055 0.0
O59 O 0.40684 0.96976 0.57027 0.0
O60 O 0.37025 0.96391 0.52902 0.0
H61 H 0.26335 0.92679 0.61546 0.0
H62 H 0.26025 0.96667 0.59974 0.0
C63 C 0.27569 0.94558 0.60059 0.0
H64 H 0.27971 0.93733 0.57368 0.0
H65 H 0.29765 0.94743 0.49957 0.0
O66 O 0.4225 0.98801 0.64696 0.0
C67 C 0.39829 0.95983 0.54058 0.0
Co68 Co 0.50555 0.40291 0.58743 0.0
Co69 Co 0.49148 0.34034 0.54735 0.0
C70 C 0.44188 0.38817 0.5541 0.0
O71 O 0.46157 0.40737 0.56784 0.0
O72 O 0.44956 0.35982 0.54725 0.0
C73 C 0.49667 0.46144 0.62142 0.0
O74 O 0.47052 0.46161 0.60293 0.0
C75 C 0.46215 0.27936 0.536 0.0
C76 C 0.49304 0.25644 0.49765 0.0
C77 C 0.466 0.25203 0.51708 0.0
N78 N 0.48588 0.29924 0.52837 0.0
N79 N 0.50424 0.28552 0.50527 0.0
C80 C 0.4356 0.28698 0.56 0.0
H81 H 0.41542 0.29601 0.54439 0.0
H82 H 0.44281 0.30547 0.57883 0.0
H83 H 0.42759 0.26554 0.57419 0.0
C84 C 0.51394 0.35976 0.64618 0.0
N85 N 0.50861 0.36536 0.61229 0.0
N86 N 0.50624 0.33847 0.59534 0.0
C87 C 0.50994 0.31456 0.61858 0.0
C88 C 0.5145 0.32738 0.6516 0.0
C89 C 0.51861 0.38524 0.67268 0.0
H90 H 0.53814 0.40097 0.66433 0.0
H91 H 0.49689 0.39973 0.67423 0.0
H92 H 0.52453 0.37549 0.69874 0.0
O93 O 0.5373 0.39772 0.55196 0.0
O94 O 0.51374 0.36923 0.51318 0.0
H95 H 0.51411 0.27562 0.5832 0.0
H96 H 0.52024 0.26526 0.62817 0.0
C97 C 0.50629 0.28023 0.61011 0.0
H98 H 0.4812 0.27329 0.6128 0.0
H99 H 0.52444 0.29593 0.49483 0.0
O100 O 0.51603 0.43894 0.61765 0.0
C101 C 0.52581 0.39569 0.52173 0.0
Co102 Co 0.09649 0.53849 0.5901 0.0
Co103 Co 0.15467 0.51714 0.54625 0.0
C104 C 0.11323 0.46904 0.57354 0.0
O105 O 0.09484 0.4906 0.58464 0.0
O106 O 0.13951 0.47557 0.55956 0.0
C107 C 0.06573 0.53311 0.65121 0.0
O108 O 0.08924 0.51306 0.65397 0.0
C109 C 0.21254 0.48712 0.52169 0.0
C110 C 0.23912 0.52768 0.50021 0.0
C111 C 0.24134 0.49569 0.5076 0.0
N112 N 0.19404 0.51289 0.52259 0.0
N113 N 0.20988 0.53693 0.50912 0.0
C114 C 0.20407 0.45594 0.53791 0.0
H115 H 0.19662 0.45955 0.56517 0.0
H116 H 0.22399 0.43908 0.53797 0.0
H117 H 0.18391 0.44544 0.52342 0.0
C118 C 0.14617 0.56442 0.63571 0.0
N119 N 0.13635 0.55112 0.60588 0.0
N120 N 0.1609 0.54086 0.58858 0.0
C121 C 0.18683 0.54488 0.60877 0.0
C122 C 0.17822 0.55957 0.63959 0.0
C123 C 0.12527 0.57976 0.66185 0.0
H124 H 0.10347 0.58879 0.64927 0.0
H125 H 0.11925 0.56254 0.68253 0.0
H126 H 0.138 0.59964 0.67452 0.0
O127 O 0.09232 0.56048 0.54619 0.0
O128 O 0.1193 0.52924 0.51301 0.0
H129 H 0.23495 0.5335 0.62346 0.0
H130 H 0.21475 0.50427 0.59727 0.0
C131 C 0.21805 0.52993 0.60166 0.0
H132 H 0.22817 0.54046 0.57775 0.0
H133 H 0.20136 0.56003 0.50781 0.0
O134 O 0.0628 0.54929 0.62349 0.0
C135 C 0.09312 0.54232 0.52026 0.0
Co136 Co 0.97879 0.40491 0.89545 0.0
Co137 Co 0.01331 0.34354 0.92083 0.0
C138 C 0.05105 0.39857 0.91084 0.0
O139 O 0.02505 0.413 0.90541 0.0
O140 O 0.05187 0.36858 0.91406 0.0
C141 C 0.98318 0.44897 0.84711 0.0
O142 O 0.00617 0.42885 0.84189 0.0
C143 C 0.04911 0.28418 0.9298 0.0
C144 C 0.00992 0.25009 0.93524 0.0
C145 C 0.04228 0.25184 0.9304 0.0
N146 N 0.02189 0.30028 0.93244 0.0
N147 N 0.99872 0.27974 0.93665 0.0
C148 C 0.08064 0.29996 0.92723 0.0
H149 H 0.08061 0.32228 0.94223 0.0
H150 H 0.08555 0.30579 0.89961 0.0
H151 H 0.09956 0.28452 0.93779 0.0
C152 C 0.95787 0.36323 0.8386 0.0
N153 N 0.97384 0.36897 0.86826 0.0
N154 N 0.98968 0.34372 0.8777 0.0
C155 C 0.98635 0.32173 0.85259 0.0
C156 C 0.9654 0.33297 0.82719 0.0
C157 C 0.93457 0.38587 0.82308 0.0
H158 H 0.9242 0.40073 0.84373 0.0
H159 H 0.94679 0.40167 0.80437 0.0
H160 H 0.9154 0.37305 0.80925 0.0
O161 O 0.95795 0.39519 0.93865 0.0
O162 O 0.99408 0.36578 0.96266 0.0
H163 H 0.99506 0.27289 0.86366 0.0
H164 H 0.01094 0.28638 0.82279 0.0
C165 C 0.00674 0.29297 0.85026 0.0
H166 H 0.02987 0.29752 0.86283 0.0
H167 H 0.97496 0.28593 0.93807 0.0
O168 O 0.9633 0.44318 0.87084 0.0
C169 C 0.97795 0.39123 0.96288 0.0
Co170 Co 0.10556 0.97407 0.88492 0.0
Co171 Co 0.16118 0.99691 0.9303 0.0
C172 C 0.13061 0.0422 0.88726 0.0
O173 O 0.10935 0.02137 0.88199 0.0
O174 O 0.15671 0.03504 0.90157 0.0
C175 C 0.07826 0.97245 0.81937 0.0
O176 O 0.10478 0.98739 0.81268 0.0
C177 C 0.22174 0.02117 0.95415 0.0
C178 C 0.23004 0.99519 0.00338 0.0
C179 C 0.24351 0.01677 0.98068 0.0
N180 N 0.19665 0.00258 0.9604 0.0
N181 N 0.2016 0.98727 0.99001 0.0
C182 C 0.22379 0.04406 0.92431 0.0
H183 H 0.20581 0.06275 0.92783 0.0
H184 H 0.21845 0.03182 0.89951 0.0
H185 H 0.24715 0.05572 0.92264 0.0
C186 C 0.15486 0.93211 0.8561 0.0
N187 N 0.1441 0.9529 0.8796 0.0
N188 N 0.16741 0.96159 0.90018 0.0
C189 C 0.19397 0.94716 0.88962 0.0
C190 C 0.18714 0.92858 0.86076 0.0
C191 C 0.13556 0.91893 0.8268 0.0
H192 H 0.11053 0.9168 0.83447 0.0
H193 H 0.13758 0.93469 0.80377 0.0
H194 H 0.14422 0.89523 0.81936 0.0
O195 O 0.0899 0.96416 0.9307 0.0
O196 O 0.12052 0.99871 0.9572 0.0
H197 H 0.22587 0.95272 0.93265 0.0
H198 H 0.2437 0.93678 0.89399 0.0
C199 C 0.22621 0.95398 0.90386 0.0
H200 H 0.2336 0.97808 0.89595 0.0
H201 H 0.18584 0.97098 0.00074 0.0
O202 O 0.07338 0.96242 0.85002 0.0
C203 C 0.09387 0.98502 0.95388 0.0
Co204 Co 0.50674 0.10827 0.89909 0.0
Co205 Co 0.50415 0.15904 0.9583 0.0
C206 C 0.45028 0.11267 0.93937 0.0
O207 O 0.46264 0.10106 0.91224 0.0
O208 O 0.46474 0.13337 0.95739 0.0
C209 C 0.51417 0.05123 0.86217 0.0
O210 O 0.50027 0.03883 0.8895 0.0
C211 C 0.46673 0.21376 0.97131 0.0
C212 C 0.49711 0.24537 0.0022 0.0
C213 C 0.46912 0.24459 0.98323 0.0
N214 N 0.49237 0.19745 0.98156 0.0
N215 N 0.51006 0.21621 0.00105 0.0
C216 C 0.44137 0.20038 0.94825 0.0
H217 H 0.42975 0.18047 0.96197 0.0
H218 H 0.45194 0.19116 0.92401 0.0
H219 H 0.42282 0.21792 0.94189 0.0
C220 C 0.51839 0.16417 0.85626 0.0
N221 N 0.51454 0.15001 0.88732 0.0
N222 N 0.51728 0.1709 0.9123 0.0
C223 C 0.52433 0.19911 0.89771 0.0
C224 C 0.52469 0.19592 0.86174 0.0
C225 C 0.51277 0.14806 0.82217 0.0
H226 H 0.49571 0.12834 0.82537 0.0
H227 H 0.50366 0.16486 0.80227 0.0
H228 H 0.53539 0.1382 0.81282 0.0
O229 O 0.53247 0.0959 0.93888 0.0
O230 O 0.53485 0.13029 0.98243 0.0
H231 H 0.54752 0.2443 0.902 0.0
H232 H 0.51027 0.24137 0.92344 0.0
C233 C 0.53213 0.22843 0.91757 0.0
H234 H 0.54419 0.22221 0.94234 0.0
H235 H 0.53222 0.21007 0.01088 0.0
O236 O 0.51884 0.08082 0.86074 0.0
C237 C 0.54262 0.10394 0.96874 0.0
Co238 Co 0.38903 0.51075 0.88409 0.0
Co239 Co 0.34024 0.50456 0.94463 0.0
C240 C 0.37701 0.44872 0.91672 0.0
O241 O 0.39019 0.46509 0.89304 0.0
O242 O 0.35778 0.46097 0.93811 0.0
C243 C 0.44513 0.52537 0.84564 0.0
O244 O 0.45966 0.52321 0.87585 0.0
C245 C 0.27931 0.4808 0.96502 0.0
C246 C 0.26423 0.51434 0.00537 0.0
C247 C 0.25364 0.48941 0.985 0.0
N248 N 0.30364 0.49998 0.97282 0.0
N249 N 0.29482 0.51942 -0.00229 0.0
C250 C 0.27925 0.4585 0.93482 0.0
H251 H 0.29897 0.46388 0.91693 0.0
H252 H 0.25662 0.45977 0.92022 0.0
H253 H 0.28205 0.43399 0.94474 0.0
C254 C 0.33392 0.53283 0.84586 0.0
N255 N 0.34809 0.52396 0.87568 0.0
N256 N 0.3277 0.52406 0.90125 0.0
C257 C 0.29985 0.53462 0.88848 0.0
C258 C 0.30278 0.54002 0.85293 0.0
C259 C 0.34905 0.53012 0.81086 0.0
H260 H 0.36346 0.5516 0.80592 0.0
H261 H 0.36485 0.50929 0.81042 0.0
H262 H 0.33136 0.52764 0.78968 0.0
O263 O 0.4073 0.53219 0.92416 0.0
O264 O 0.3744 0.52839 0.96877 0.0
H265 H 0.2776 0.54788 0.93626 0.0
H266 H 0.25633 0.55927 0.8973 0.0
C267 C 0.27096 0.54052 0.90959 0.0
H268 H 0.25645 0.51875 0.91087 0.0
H269 H 0.30882 0.53773 0.00743 0.0
O270 O 0.41554 0.52081 0.84387 0.0
C271 C 0.40052 0.53743 0.95572 0.0
Co272 Co 0.02462 0.89368 0.39879 0.0
Co273 Co 0.99071 0.84201 0.44226 0.0
C274 C 0.95513 0.89687 0.41933 0.0
O275 O 0.98071 0.90885 0.40791 0.0
O276 O 0.9542 0.86865 0.43095 0.0
C277 C 0.03637 0.95201 0.36557 0.0
O278 O 0.02011 0.96298 0.39184 0.0
C279 C 0.9484 0.78976 0.45981 0.0
C280 C 0.97942 0.75738 0.48926 0.0
C281 C 0.94986 0.75942 0.47377 0.0
N282 N 0.97609 0.80449 0.46568 0.0
N283 N 0.99424 0.78528 0.48416 0.0
C284 C 0.92116 0.80467 0.44098 0.0
H285 H 0.9281 0.81112 0.41411 0.0
H286 H 0.90014 0.78902 0.44042 0.0
H287 H 0.91468 0.82675 0.45454 0.0
C288 C 0.03224 0.84206 0.3495 0.0
N289 N 0.02453 0.85287 0.38115 0.0
N290 N 0.01105 0.83027 0.39936 0.0
C291 C 0.00962 0.80412 0.37925 0.0
C292 C 0.02298 0.81078 0.3471 0.0
C293 C 0.04385 0.86266 0.32047 0.0
H294 H 0.06561 0.87513 0.32896 0.0
H295 H 0.02577 0.88078 0.31421 0.0
H296 H 0.04894 0.84877 0.29675 0.0
O297 O 0.04971 0.89521 0.44093 0.0
O298 O 0.01476 0.87156 0.47463 0.0
H299 H 0.99794 0.75513 0.36998 0.0
H300 H 0.96684 0.77882 0.38776 0.0
C301 C 0.99253 0.77435 0.38856 0.0
H302 H 0.99937 0.76668 0.41511 0.0
H303 H 0.01753 0.79035 0.49117 0.0
O304 O 0.04288 0.92278 0.36461 0.0
C305 C 0.0375 0.89113 0.47061 0.0
Co306 Co 0.59956 0.00632 0.41171 0.0
Co307 Co 0.66322 0.99965 0.45087 0.0
C308 C 0.62415 0.9443 0.44414 0.0
O309 O 0.60246 0.96215 0.43176 0.0
O310 O 0.65186 0.9548 0.44998 0.0
C311 C 0.54174 0.98809 0.37932 0.0
O312 O 0.54314 0.96426 0.40125 0.0
C313 C 0.72917 0.9852 0.46726 0.0
C314 C 0.74628 0.03076 0.48807 0.0
C315 C 0.7563 0.0011 0.47776 0.0
N316 N 0.70441 0.00474 0.47079 0.0
N317 N 0.7147 0.03164 0.48412 0.0
C318 C 0.72743 0.95385 0.44929 0.0
H319 H 0.70708 0.95301 0.43113 0.0
H320 H 0.74923 0.94904 0.43447 0.0
H321 H 0.72444 0.93493 0.46911 0.0
C322 C 0.64001 0.01956 0.35218 0.0
N323 N 0.63557 0.01484 0.38635 0.0
N324 N 0.66285 0.01437 0.40279 0.0
C325 C 0.68588 0.01844 0.37888 0.0
C326 C 0.67209 0.0213 0.34594 0.0
C327 C 0.61386 0.02081 0.32586 0.0
H328 H 0.59558 0.03767 0.33452 0.0
H329 H 0.60283 0.99711 0.3239 0.0
H330 H 0.62247 0.02831 0.29989 0.0
O331 O 0.59937 0.03868 0.44679 0.0
O332 O 0.62903 0.0141 0.48409 0.0
H333 H 0.72619 0.02717 0.41139 0.0
H334 H 0.73511 0.02591 0.36597 0.0
C335 C 0.72038 0.0153 0.38659 0.0
H336 H 0.7265 0.98994 0.38848 0.0
H337 H 0.7005 0.05137 0.48816 0.0
O338 O 0.56231 0.00984 0.38127 0.0
C339 C 0.6025 0.02651 0.47657 0.0
Co340 Co 0.47691 0.60787 0.3972 0.0
Co341 Co 0.50171 0.65704 0.4496 0.0
C342 C 0.54233 0.60463 0.43099 0.0
O343 O 0.51914 0.5926 0.41421 0.0
O344 O 0.54055 0.63215 0.44416 0.0
C345 C 0.46632 0.55117 0.35909 0.0
O346 O 0.47932 0.53733 0.38628 0.0
C347 C 0.53669 0.71004 0.47884 0.0
C348 C 0.49982 0.73549 0.50767 0.0
C349 C 0.53091 0.73766 0.49698 0.0
N350 N 0.51019 0.69252 0.47861 0.0
N351 N 0.48845 0.70748 0.49662 0.0
C352 C 0.56525 0.70254 0.45768 0.0
H353 H 0.5587 0.68796 0.43487 0.0
H354 H 0.57717 0.72438 0.44846 0.0
H355 H 0.58211 0.68893 0.47404 0.0
C356 C 0.47624 0.6619 0.35014 0.0
N357 N 0.4791 0.64943 0.38215 0.0
N358 N 0.48772 0.6714 0.40433 0.0
C359 C 0.49046 0.69902 0.38661 0.0
C360 C 0.48362 0.69371 0.35172 0.0
C361 C 0.46975 0.64293 0.31808 0.0
H362 H 0.4472 0.62988 0.32122 0.0
H363 H 0.4888 0.6253 0.31465 0.0
H364 H 0.46809 0.65813 0.29452 0.0
O365 O 0.44514 0.60504 0.43291 0.0
O366 O 0.47474 0.62486 0.47456 0.0
H367 H 0.49327 0.73293 0.42783 0.0
H368 H 0.49612 0.74967 0.38469 0.0
C369 C 0.50281 0.72928 0.40144 0.0
H370 H 0.52888 0.72835 0.40282 0.0
H371 H 0.46525 0.69959 0.4993 0.0
O372 O 0.46295 0.58094 0.35882 0.0
C373 C 0.45355 0.60541 0.46452 0.0
Co374 Co 0.87795 0.48559 0.419 0.0
Co375 Co 0.82578 0.49292 0.47549 0.0
C376 C 0.85843 0.5492 0.44609 0.0
O377 O 0.87408 0.53171 0.42584 0.0
O378 O 0.83878 0.53763 0.46747 0.0
C379 C 0.8963 0.49816 0.35326 0.0
O380 O 0.86997 0.51423 0.35619 0.0
C381 C 0.76433 0.5149 0.49563 0.0
C382 C 0.74683 0.47707 0.5302 0.0
C383 C 0.73757 0.50428 0.51264 0.0
N384 N 0.78812 0.49482 0.50249 0.0
N385 N 0.77781 0.47275 0.52408 0.0
C386 C 0.76599 0.54042 0.46846 0.0
H387 H 0.78116 0.53286 0.44666 0.0
H388 H 0.74234 0.54667 0.45807 0.0
H389 H 0.77673 0.56184 0.4802 0.0
C390 C 0.82861 0.45023 0.38271 0.0
N391 N 0.8392 0.46623 0.41057 0.0
N392 N 0.81593 0.47079 0.43244 0.0
C393 C 0.78927 0.45869 0.41787 0.0
C394 C 0.79657 0.44575 0.38576 0.0
C395 C 0.84852 0.43907 0.35319 0.0
H396 H 0.87282 0.43392 0.3623 0.0
H397 H 0.84913 0.45737 0.33246 0.0
H398 H 0.83819 0.41734 0.34161 0.0
O399 O 0.89726 0.46703 0.45948 0.0
O400 O 0.86237 0.47315 0.50204 0.0
H401 H 0.75744 0.45334 0.46039 0.0
H402 H 0.73982 0.44601 0.41849 0.0
C403 C 0.75693 0.46101 0.43286 0.0
H404 H 0.74871 0.48579 0.43127 0.0
H405 H 0.79108 0.45327 0.53213 0.0
O406 O 0.9058 0.48163 0.37884 0.0
C407 C 0.88928 0.46396 0.49109 0.0
Co408 Co 0.01307 0.60605 0.08596 0.0
Co409 Co 0.00705 0.6583 0.02904 0.0
C410 C 0.95444 0.6153 0.04062 0.0
O411 O 0.97167 0.60036 0.06223 0.0
O412 O 0.96411 0.64057 0.02627 0.0
C413 C 0.98402 0.5778 0.14074 0.0
O414 O 0.96288 0.59836 0.13002 0.0
C415 C 0.98237 0.7154 -0.00271 0.0
C416 C 0.02477 0.73925 0.9769 0.0
C417 C 0.99279 0.7434 0.98248 0.0
N418 N 0.00696 0.69554 0.0004 0.0
N419 N 0.03213 0.70962 0.98731 0.0
C420 C 0.95068 0.70948 0.01317 0.0
H421 H 0.93739 0.69258 0.99661 0.0
H422 H 0.95352 0.69867 0.03934 0.0
H423 H 0.93673 0.7315 0.01544 0.0
C424 C 0.02491 0.6605 0.13146 0.0
N425 N 0.0201 0.64779 0.09981 0.0
N426 N 0.0172 0.6704 0.0764 0.0
C427 C 0.01932 0.69851 0.09303 0.0
C428 C 0.02421 0.69307 0.12834 0.0
C429 C 0.02682 0.64183 0.16459 0.0
H430 H 0.04002 0.61962 0.16035 0.0
H431 H 0.00262 0.63589 0.17329 0.0
H432 H 0.03862 0.65545 0.18555 0.0
O433 O 0.04577 0.59228 0.05483 0.0
O434 O 0.03337 0.62241 0.00925 0.0
H435 H 0.02228 0.74954 0.0943 0.0
H436 H 0.9905 0.73366 0.0685 0.0
C437 C 0.01546 0.73025 0.07624 0.0
H438 H 0.03041 0.73182 0.05283 0.0
H439 H 0.05477 0.70002 0.988 0.0
O440 O 0.01077 0.5773 0.12616 0.0
C441 C 0.04731 0.5983 0.0225 0.0
Co442 Co 0.89736 0.98983 0.10579 0.0
Co443 Co 0.84866 0.99827 0.04551 0.0
C444 C 0.88955 0.93959 0.0532 0.0
O445 O 0.90239 0.94916 0.0813 0.0
O446 O 0.86886 0.95622 0.03736 0.0
C447 C 0.95414 0.9887 0.14211 0.0
O448 O 0.96463 0.98395 0.11049 0.0
C449 C 0.79213 0.97759 0.01065 0.0
C450 C 0.77344 0.02121 0.98647 0.0
C451 C 0.76661 0.98961 0.99248 0.0
N452 N 0.81325 0.00086 0.01517 0.0
N453 N 0.80237 0.02678 -3e-05 0.0
C454 C 0.79436 0.94587 0.028 0.0
H455 H 0.80555 0.92904 0.00985 0.0
H456 H 0.80907 0.94733 0.05191 0.0
H457 H 0.77064 0.9366 0.03474 0.0
C458 C 0.84097 0.99917 0.14857 0.0
N459 N 0.85535 0.99767 0.11754 0.0
N460 N 0.83456 0.00215 0.09247 0.0
C461 C 0.80606 0.0069 0.107 0.0
C462 C 0.80923 0.00504 0.1429 0.0
C463 C 0.85716 0.99281 0.18261 0.0
H464 H 0.87237 0.01334 0.18928 0.0
H465 H 0.87259 0.97181 0.1802 0.0
H466 H 0.84003 0.98879 0.20387 0.0
O467 O 0.91395 0.02315 0.07587 0.0
O468 O 0.88006 0.03129 0.03276 0.0
H469 H 0.78109 0.03018 0.06555 0.0
H470 H 0.75821 0.02429 0.10441 0.0
C471 C 0.77625 0.01367 0.0873 0.0
H472 H 0.76658 0.99131 0.07669 0.0
H473 H 0.81372 0.04869 0.0008 0.0
O474 O 0.92463 0.99072 0.14699 0.0
C475 C 0.90604 0.03758 0.04815 0.0
Co476 Co 0.50504 0.9025 0.08451 0.0
Co477 Co 0.51241 0.84297 0.03618 0.0
C478 C 0.56324 0.89144 0.04172 0.0
O479 O 0.54635 0.90948 0.06041 0.0
O480 O 0.55351 0.86426 0.03244 0.0
C481 C 0.5212 0.94919 0.13261 0.0
O482 O 0.5492 0.94323 0.11988 0.0
C483 C 0.54357 0.78406 0.02281 0.0
C484 C 0.50846 0.75558 0.99405 0.0
C485 C 0.5382 0.75421 0.00928 0.0
N486 N 0.51834 0.80224 0.01595 0.0
N487 N 0.49757 0.78529 -0.00181 0.0
C488 C 0.57001 0.79383 0.0466 0.0
H489 H 0.5621 0.81236 0.06482 0.0
H490 H 0.57901 0.77344 0.06194 0.0
H491 H 0.58961 0.80355 0.03079 0.0
C492 C 0.50429 0.85347 0.13923 0.0
N493 N 0.50519 0.86283 0.10574 0.0
N494 N 0.50312 0.83801 0.08524 0.0
C495 C 0.50046 0.81195 0.10546 0.0
C496 C 0.50146 0.82088 0.14013 0.0
C497 C 0.50888 0.8752 0.16943 0.0
H498 H 0.48902 0.89216 0.17042 0.0
H499 H 0.53096 0.88878 0.16557 0.0
H500 H 0.5105 0.86229 0.19454 0.0
O501 O 0.46956 0.89792 0.05238 0.0
O502 O 0.48548 0.87273 0.00721 0.0
H503 H 0.48328 0.76428 0.11146 0.0
H504 H 0.51985 0.76797 0.08876 0.0
C505 C 0.49641 0.77892 0.09234 0.0
H506 H 0.48338 0.77901 0.06727 0.0
H507 H 0.47534 0.79342 0.99061 0.0
O508 O 0.49728 0.93549 0.11952 0.0
C509 C 0.47701 0.8988 0.02067 0.0
Co510 Co 0.60473 0.49135 0.11688 0.0
Co511 Co 0.66475 0.49804 0.07295 0.0
C512 C 0.62997 0.55441 0.09047 0.0
O513 O 0.60815 0.53679 0.10262 0.0
O514 O 0.65657 0.543 0.08198 0.0
C515 C 0.54276 0.49556 0.14237 0.0
O516 O 0.53733 0.50783 0.11146 0.0
C517 C 0.72921 0.51266 0.05353 0.0
C518 C 0.73474 0.48749 0.00374 0.0
C519 C 0.75 0.50778 0.02652 0.0
N520 N 0.70289 0.49583 0.04727 0.0
N521 N 0.70642 0.48055 0.01763 0.0
C522 C 0.73262 0.53596 0.08253 0.0
H523 H 0.73061 0.56027 0.07178 0.0
H524 H 0.71408 0.5322 0.10235 0.0
H525 H 0.75613 0.53379 0.09508 0.0
C526 C 0.6481 0.46166 0.16637 0.0
N527 N 0.64187 0.47498 0.13532 0.0
N528 N 0.66738 0.47523 0.11613 0.0
C529 C 0.69103 0.46186 0.13474 0.0
C530 C 0.67948 0.4527 0.16709 0.0
C531 C 0.62503 0.46071 0.19573 0.0
H532 H 0.6063 0.44314 0.18973 0.0
H533 H 0.61365 0.48416 0.19828 0.0
H534 H 0.63636 0.45447 0.22089 0.0
O535 O 0.59298 0.46648 0.07676 0.0
O536 O 0.62773 0.48837 0.04184 0.0
H537 H 0.72454 0.45378 0.09412 0.0
H538 H 0.73645 0.43917 0.1366 0.0
C539 C 0.72423 0.45857 0.12243 0.0
H540 H 0.73721 0.48088 0.12749 0.0
H541 H 0.68903 0.46642 0.00621 0.0
O542 O 0.57053 0.48697 0.15035 0.0
C543 C 0.60055 0.47627 0.04678 0.0
H544 H 0.01786 0.03493 0.64363 0.0
H545 H 0.93074 0.05411 0.69688 0.0
H546 H 0.94453 0.01414 0.74175 0.0
H547 H 0.02884 0.9474 0.67437 0.0
H548 H 0.0706 0.95446 0.67897 0.0
H549 H 0.0486 0.97387 0.64471 0.0
H550 H 0.06907 0.02796 0.66641 0.0
H551 H 0.09058 0.00912 0.70086 0.0
H552 H 0.06217 0.03931 0.7109 0.0
H553 H 0.97338 0.98434 0.78735 0.0
H554 H 0.01471 0.97112 0.83044 0.0
H555 H 0.08509 0.9745 0.74939 0.0
C556 C 0.00097 0.02909 0.66367 0.0
C557 C 0.973 0.04652 0.66667 0.0
C558 C 0.95184 0.04003 0.69389 0.0
C559 C 0.95956 0.01738 0.71936 0.0
C560 C 0.98849 0.00176 0.71701 0.0
C561 C 0.00879 0.00719 0.68949 0.0
C562 C 0.04117 0.99356 0.69654 0.0
C563 C 0.04767 0.96565 0.67221 0.0
C564 C 0.06722 0.01901 0.69354 0.0
C565 C 0.03694 0.98239 0.73362 0.0
C566 C 0.00604 0.98583 0.7444 0.0
C567 C 0.99739 0.98071 0.77893 0.0
C568 C 0.02103 0.97325 0.80327 0.0
C569 C 0.05296 0.97189 0.79302 0.0
C570 C 0.06073 0.97517 0.75763 0.0
H571 H 0.44027 0.96608 0.70579 0.0
H572 H 0.51277 0.01055 0.64329 0.0
H573 H 0.54478 0.01945 0.69621 0.0
H574 H 0.43892 0.01791 0.76775 0.0
H575 H 0.43287 0.99165 0.8042 0.0
H576 H 0.42065 0.97977 0.76154 0.0
H577 H 0.45485 0.92929 0.7666 0.0
H578 H 0.46712 0.94096 0.80971 0.0
H579 H 0.49623 0.93265 0.77707 0.0
H580 H 0.56037 0.0373 0.75461 0.0
H581 H 0.55958 0.06016 0.81349 0.0
H582 H 0.4787 0.0021 0.83927 0.0
C583 C 0.46345 0.97656 0.70314 0.0
C584 C 0.47406 0.9878 0.67067 0.0
C585 C 0.50434 0.00162 0.668 0.0
C586 C 0.52272 0.00663 0.69792 0.0
C587 C 0.51073 0.99695 0.73 0.0
C588 C 0.48204 0.98151 0.73269 0.0
C589 C 0.47198 0.97802 0.7702 0.0
C590 C 0.43921 0.99274 0.77624 0.0
C591 C 0.4726 0.94315 0.78156 0.0
C592 C 0.4979 0.99661 0.78798 0.0
C593 C 0.52053 0.00658 0.76448 0.0
C594 C 0.54362 0.02864 0.77353 0.0
C595 C 0.5429 0.04163 0.80693 0.0
C596 C 0.51935 0.03239 0.8308 0.0
C597 C 0.49755 0.00863 0.82175 0.0
H598 H 0.42162 0.53892 0.78145 0.0
H599 H 0.50877 0.51802 0.83642 0.0
H600 H 0.53601 0.51226 0.78029 0.0
H601 H 0.42616 0.48259 0.72411 0.0
H602 H 0.41 0.50345 0.68709 0.0
H603 H 0.40001 0.51563 0.73017 0.0
H604 H 0.42011 0.57228 0.71682 0.0
H605 H 0.43009 0.56026 0.67331 0.0
H606 H 0.45962 0.57809 0.70095 0.0
H607 H 0.54956 0.49499 0.72086 0.0
H608 H 0.54837 0.46865 0.66382 0.0
H609 H 0.45284 0.50189 0.64674 0.0
C610 C 0.44673 0.53435 0.78166 0.0
C611 C 0.4631 0.52878 0.81315 0.0
C612 C 0.49583 0.52255 0.81253 0.0
C613 C 0.51152 0.51938 0.78074 0.0
C614 C 0.49424 0.5232 0.74998 0.0
C615 C 0.46262 0.53117 0.75023 0.0
C616 C 0.44803 0.52894 0.7143 0.0
C617 C 0.41941 0.5063 0.71394 0.0
C618 C 0.43894 0.56186 0.70053 0.0
C619 C 0.47556 0.51567 0.6944 0.0
C620 C 0.50231 0.51345 0.71511 0.0
C621 C 0.52915 0.49754 0.70403 0.0
C622 C 0.52821 0.4825 0.67164 0.0
C623 C 0.50049 0.48329 0.65092 0.0
C624 C 0.47452 0.50137 0.66177 0.0
H625 H 0.03122 0.48854 0.83971 0.0
H626 H 0.93546 0.47158 0.80564 0.0
H627 H 0.94353 0.5077 0.75553 0.0
H628 H 0.04172 0.57312 0.79843 0.0
H629 H 0.08159 0.56276 0.78731 0.0
H630 H 0.06444 0.54794 0.82702 0.0
H631 H 0.07791 0.49091 0.8082 0.0
H632 H 0.09441 0.50527 0.76852 0.0
H633 H 0.06305 0.4764 0.76716 0.0
H634 H 0.96649 0.53147 0.70162 0.0
H635 H 0.00133 0.53842 0.65065 0.0
H636 H 0.08299 0.53526 0.71848 0.0
C637 C 0.01149 0.49416 0.82274 0.0
C638 C 0.98271 0.47803 0.82639 0.0
C639 C 0.95741 0.4846 0.80351 0.0
C640 C 0.96192 0.50501 0.77498 0.0
C641 C 0.99171 0.51863 0.77023 0.0
C642 C 0.01596 0.51386 0.79406 0.0
C643 C 0.04742 0.5245 0.77985 0.0
C644 C 0.05949 0.55384 0.7993 0.0
C645 C 0.07206 0.49766 0.78096 0.0
C646 C 0.03777 0.5328 0.74309 0.0
C647 C 0.00542 0.53092 0.73834 0.0
C648 C 0.9917 0.53389 0.70531 0.0
C649 C 0.01158 0.5377 0.67647 0.0
C650 C 0.04465 0.53733 0.68095 0.0
C651 C 0.0577 0.53605 0.71463 0.0
H652 H 0.99283 0.99295 0.34104 0.0
H653 H 0.08111 0.94787 0.3153 0.0
H654 H 0.0742 0.96395 0.25393 0.0
H655 H 0.95322 0.96193 0.27726 0.0
H656 H 0.92741 0.9945 0.26694 0.0
H657 H 0.94394 0.99095 0.30982 0.0
H658 H 0.96829 0.04701 0.3052 0.0
H659 H 0.95108 0.05123 0.26239 0.0
H660 H 0.99287 0.05702 0.26865 0.0
H661 H 0.05213 0.97287 0.19495 0.0
H662 H 0.0169 0.97373 0.14354 0.0
H663 H 0.94096 0.00909 0.20749 0.0
C664 C 0.01161 0.98827 0.32283 0.0
C665 C 0.0378 0.96985 0.33278 0.0
C666 C 0.06119 0.96256 0.30808 0.0
C667 C 0.05743 0.97162 0.27321 0.0
C668 C 0.03008 0.98776 0.26359 0.0
C669 C 0.00766 0.99634 0.28781 0.0
C670 C 0.97756 0.00745 0.27031 0.0
C671 C 0.94889 0.9875 0.28176 0.0
C672 C 0.97215 0.04279 0.27703 0.0
C673 C 0.98572 0.00163 0.23269 0.0
C674 C 0.01645 0.99137 0.2292 0.0
C675 C 0.02828 0.98161 0.19725 0.0
C676 C 0.00805 0.98196 0.16825 0.0
C677 C 0.97622 0.99129 0.17169 0.0
C678 C 0.96524 0.0019 0.20414 0.0
H679 H 0.56441 0.94919 0.33185 0.0
H680 H 0.49083 0.01783 0.34924 0.0
H681 H 0.47565 0.01513 0.28659 0.0
H682 H 0.59042 0.98374 0.25554 0.0
H683 H 0.60086 0.94733 0.23445 0.0
H684 H 0.60176 0.94973 0.28112 0.0
H685 H 0.56336 0.90213 0.28623 0.0
H686 H 0.56311 0.89876 0.23954 0.0
H687 H 0.5265 0.90281 0.26258 0.0
H688 H 0.46962 0.0039 0.22082 0.0
H689 H 0.4759 0.98874 0.15875 0.0
H690 H 0.56007 0.9361 0.18605 0.0
C691 C 0.54436 0.96275 0.32258 0.0
C692 C 0.52794 0.98286 0.34501 0.0
C693 C 0.5029 0.00161 0.33219 0.0
C694 C 0.49435 1.00033 0.29679 0.0
C695 C 0.51185 0.9809 0.2749 0.0
C696 C 0.53653 0.96269 0.28744 0.0
C697 C 0.55417 0.94665 0.2586 0.0
C698 C 0.58884 0.95754 0.25737 0.0
C699 C 0.55161 0.91045 0.26195 0.0
C700 C 0.53577 0.95873 0.22768 0.0
C701 C 0.5109 0.97774 0.23737 0.0
C702 C 0.48933 0.98947 0.21294 0.0
C703 C 0.49311 0.98096 0.17788 0.0
C704 C 0.51887 0.96199 0.16783 0.0
C705 C 0.54068 0.95141 0.19297 0.0
H706 H 0.49894 0.5 0.33714 0.0
H707 H 0.42562 0.5657 0.30644 0.0
H708 H 0.42849 0.54657 0.24614 0.0
H709 H 0.5459 0.51626 0.27362 0.0
H710 H 0.56157 0.47742 0.26563 0.0
H711 H 0.54623 0.48671 0.30762 0.0
H712 H 0.50737 0.43946 0.30388 0.0
H713 H 0.52299 0.42962 0.26178 0.0
H714 H 0.48126 0.43593 0.26688 0.0
H715 H 0.44875 0.53215 0.18877 0.0
H716 H 0.48473 0.52389 0.13962 0.0
H717 H 0.54612 0.46818 0.20643 0.0
C718 C 0.48229 0.50897 0.31805 0.0
C719 C 0.46185 0.53397 0.32629 0.0
C720 C 0.44125 0.54626 0.30053 0.0
C721 C 0.44261 0.53541 0.26625 0.0
C722 C 0.46464 0.51221 0.25825 0.0
C723 C 0.48389 0.49878 0.28356 0.0
C724 C 0.5098 0.47928 0.26743 0.0
C725 C 0.54278 0.49064 0.27926 0.0
C726 C 0.50505 0.44397 0.27547 0.0
C727 C 0.50387 0.48625 0.22933 0.0
C728 C 0.47702 0.50425 0.22444 0.0
C729 C 0.46924 0.5172 0.19206 0.0
C730 C 0.48988 0.51249 0.16427 0.0
C731 C 0.51817 0.49538 0.16927 0.0
C732 C 0.52448 0.48111 0.20182 0.0
H733 H 0.8745 0.51828 0.29067 0.0
H734 H 0.95787 0.48139 0.34257 0.0
H735 H 0.98877 0.49055 0.28906 0.0
H736 H 0.89379 0.48907 0.20097 0.0
H737 H 0.87776 0.52439 0.18139 0.0
H738 H 0.86123 0.50903 0.22116 0.0
H739 H 0.87046 0.56327 0.2507 0.0
H740 H 0.88715 0.57868 0.21131 0.0
H741 H 0.90957 0.58014 0.2513 0.0
H742 H 0.01197 0.51201 0.2337 0.0
H743 H 0.02516 0.54311 0.18099 0.0
H744 H 0.92609 0.56529 0.16641 0.0
C745 C 0.89909 0.51142 0.29052 0.0
C746 C 0.91394 0.49931 0.32059 0.0
C747 C 0.94611 0.49061 0.31958 0.0
C748 C 0.96377 0.49563 0.28933 0.0
C749 C 0.94863 0.50874 0.26039 0.0
C750 C 0.91685 0.51608 0.26065 0.0
C751 C 0.90674 0.53298 0.22778 0.0
C752 C 0.88351 0.51264 0.20657 0.0
C753 C 0.89269 0.56569 0.23578 0.0
C754 C 0.93815 0.53574 0.20988 0.0
C755 C 0.96197 0.52107 0.22859 0.0
C756 C 0.99344 0.52299 0.21843 0.0
C757 C 0.00072 0.54076 0.18862 0.0
C758 C 0.97662 0.55661 0.1699 0.0
C759 C 0.94499 0.5534 0.18029 0.0
H760 H 0.98998 0.91926 0.50592 0.0
H761 H 0.08963 0.92735 0.48316 0.0
H762 H 0.08746 0.98459 0.4948 0.0
H763 H 0.96657 0.98165 0.46232 0.0
H764 H 0.93676 0.99618 0.4913 0.0
H765 H 0.9469 0.95497 0.49188 0.0
H766 H 0.9607 0.95713 0.55764 0.0
H767 H 0.94899 0.99806 0.55783 0.0
H768 H 0.98761 0.98698 0.57339 0.0
H769 H 0.07156 0.04153 0.49338 0.0
H770 H 0.04627 0.09374 0.49497 0.0
H771 H 0.9565 0.04886 0.51843 0.0
C772 C 0.01181 0.93261 0.50577 0.0
C773 C 0.04007 0.91876 0.4939 0.0
C774 C 0.06788 0.9374 0.49268 0.0
C775 C 0.06673 0.97004 0.49875 0.0
C776 C 0.03771 0.98354 0.50657 0.0
C777 C 0.01097 0.96529 0.51153 0.0
C778 C 0.98214 0.9859 0.51659 0.0
C779 C 0.95661 0.97925 0.48888 0.0
C780 C 0.9691 0.98178 0.55356 0.0
C781 C 0.99652 0.01841 0.51163 0.0
C782 C 0.02859 0.01655 0.50602 0.0
C783 C 0.04658 0.04332 0.49861 0.0
C784 C 0.03178 0.07293 0.49899 0.0
C785 C 0.99924 0.0757 0.50701 0.0
C786 C 0.98136 0.04777 0.5123 0.0
H787 H 0.54133 0.04327 0.46428 0.0
H788 H 0.59834 0.97294 0.51795 0.0
H789 H 0.5505 0.94103 0.52873 0.0
H790 H 0.4754 0.03858 0.52128 0.0
H791 H 0.44706 0.04489 0.48682 0.0
H792 H 0.48622 0.06083 0.48302 0.0
H793 H 0.49287 0.03082 0.42393 0.0
H794 H 0.45334 0.0157 0.42877 0.0
H795 H 0.48558 0.98878 0.42289 0.0
H796 H 0.49607 0.91848 0.53654 0.0
H797 H 0.43945 0.91156 0.54849 0.0
H798 H 0.41839 0.9947 0.48687 0.0
C799 C 0.54379 0.02133 0.47869 0.0
C800 C 0.57373 0.01074 0.49024 0.0
C801 C 0.57575 0.98187 0.50909 0.0
C802 C 0.54874 0.96327 0.51481 0.0
C803 C 0.51989 0.97382 0.50158 0.0
C804 C 0.51721 0.00245 0.48443 0.0
C805 C 0.48325 0.00958 0.47491 0.0
C806 C 0.47234 0.04025 0.49257 0.0
C807 C 0.47854 0.01134 0.43526 0.0
C808 C 0.46703 0.98071 0.48996 0.0
C809 C 0.48863 0.96012 0.50481 0.0
C810 C 0.47902 0.93383 0.52403 0.0
C811 C 0.44671 0.92969 0.53019 0.0
C812 C 0.42454 0.95203 0.51766 0.0
C813 C 0.43467 0.97643 0.49523 0.0
H814 H 0.54234 0.45678 0.53545 0.0
H815 H 0.47267 0.40052 0.47989 0.0
H816 H 0.44122 0.4486 0.46895 0.0
H817 H 0.48949 0.51532 0.57537 0.0
H818 H 0.51787 0.54613 0.56798 0.0
H819 H 0.53109 0.50607 0.57428 0.0
H820 H 0.56086 0.51237 0.51501 0.0
H821 H 0.54487 0.55133 0.50855 0.0
H822 H 0.53817 0.52111 0.47638 0.0
H823 H 0.41809 0.50273 0.46292 0.0
H824 H 0.40893 0.55969 0.45418 0.0
H825 H 0.49433 0.5805 0.5127 0.0
C826 C 0.52051 0.45453 0.52085 0.0
C827 C 0.50986 0.42473 0.50892 0.0
C828 C 0.48146 0.42299 0.4893 0.0
C829 C 0.46315 0.45012 0.48343 0.0
C830 C 0.47373 0.47882 0.49694 0.0
C831 C 0.50205 0.48131 0.51467 0.0
C832 C 0.5098 0.51541 0.52319 0.0
C833 C 0.51222 0.52095 0.56257 0.0
C834 C 0.54024 0.52571 0.50471 0.0
C835 C 0.48113 0.53171 0.50793 0.0
C836 C 0.46047 0.51017 0.49323 0.0
C837 C 0.43364 0.5198 0.47508 0.0
C838 C 0.42851 0.55226 0.4705 0.0
C839 C 0.45077 0.57472 0.48291 0.0
C840 C 0.47638 0.56419 0.50362 0.0
H841 H 0.91094 0.50611 0.53678 0.0
H842 H 0.92943 0.41406 0.49331 0.0
H843 H 0.98658 0.42268 0.50095 0.0
H844 H 0.96164 0.54346 0.49036 0.0
H845 H 0.97587 0.57205 0.52139 0.0
H846 H 0.93727 0.55514 0.5263 0.0
H847 H 0.95088 0.5352 0.58834 0.0
H848 H 0.98926 0.55331 0.58458 0.0
H849 H 0.9859 0.51191 0.59541 0.0
H850 H 0.04032 0.4474 0.4967 0.0
H851 H 0.08735 0.48187 0.49355 0.0
H852 H 0.03296 0.55935 0.53587 0.0
C853 C 0.92694 0.48675 0.53175 0.0
C854 C 0.91591 0.45926 0.51501 0.0
C855 C 0.9375 0.43494 0.50699 0.0
C856 C 0.97007 0.43996 0.51062 0.0
C857 C 0.98043 0.46924 0.52273 0.0
C858 C 0.95948 0.4919 0.5343 0.0
C859 C 0.97603 0.52314 0.54072 0.0
C860 C 0.96185 0.54999 0.51835 0.0
C861 C 0.97549 0.53138 0.57958 0.0
C862 C 0.00898 0.51505 0.52906 0.0
C863 C 0.01126 0.48381 0.5192 0.0
C864 C 0.03899 0.47169 0.50525 0.0
C865 C 0.06547 0.49164 0.50299 0.0
C866 C 0.06402 0.52336 0.5147 0.0
C867 C 0.03501 0.5352 0.52695 0.0
H868 H 0.96139 0.45299 0.95028 0.0
H869 H 0.0335 0.3958 0.00072 0.0
H870 H 0.0655 0.44391 0.01059 0.0
H871 H 0.01449 0.50685 0.9067 0.0
H872 H 0.98954 0.54073 0.91292 0.0
H873 H 0.97233 0.50188 0.90916 0.0
H874 H 0.94434 0.50802 0.96866 0.0
H875 H 0.96016 0.54736 0.97162 0.0
H876 H 0.96725 0.51938 0.00627 0.0
H877 H 0.08857 0.49877 0.01697 0.0
H878 H 0.09523 0.55564 0.0295 0.0
H879 H 0.00999 0.57612 0.97113 0.0
C880 C 0.9838 0.45041 0.96365 0.0
C881 C 0.99489 0.42034 0.97446 0.0
C882 C 0.02433 0.41842 0.99215 0.0
C883 C 0.04288 0.44561 -0.00249 0.0
C884 C 0.0318 0.47455 0.98494 0.0
C885 C 0.00271 0.47712 0.96884 0.0
C886 C 0.9953 0.51108 0.95935 0.0
C887 C 0.99278 0.51536 0.91968 0.0
C888 C 0.96501 0.5221 0.97757 0.0
C889 C 0.02436 0.52752 0.97368 0.0
C890 C 0.04548 0.50599 0.98769 0.0
C891 C 0.07241 0.5158 0.00571 0.0
C892 C 0.07636 0.54824 0.01219 0.0
C893 C 0.05345 0.57036 0.00076 0.0
C894 C 0.02851 0.55998 0.97907 0.0
H895 H 0.07786 0.01158 0.01675 0.0
H896 H 0.04743 0.0018 0.90943 0.0
H897 H 0.00109 0.03446 0.92081 0.0
H898 H 0.00704 0.99788 0.05196 0.0
H899 H 0.01054 0.02554 0.08741 0.0
H900 H 0.0453 0.00974 0.06809 0.0
H901 H 0.06465 0.06735 0.05648 0.0
H902 H 0.02884 0.0825 0.07514 0.0
H903 H 0.04003 0.09406 0.03179 0.0
H904 H 0.95392 0.05741 0.94435 0.0
H905 H 0.90618 0.05689 0.97994 0.0
H906 H 0.96405 0.05359 0.07332 0.0
C907 C 0.06159 0.01693 0.99573 0.0
C908 C 0.06593 0.00392 0.96247 0.0
C909 C 0.04419 0.01103 0.93541 0.0
C910 C 0.01812 0.03021 0.94138 0.0
C911 C 0.01386 0.04218 0.97462 0.0
C912 C 0.03478 0.03557 0.00154 0.0
C913 C 0.02138 0.04576 0.03609 0.0
C914 C 0.02099 0.01807 0.06237 0.0
C915 C 0.03984 0.07411 0.05072 0.0
C916 C 0.98843 0.05559 0.02472 0.0
C917 C 0.98534 0.05532 0.98888 0.0
C918 C 0.95606 0.05837 0.9724 0.0
C919 C 0.92891 0.05822 0.99289 0.0
C920 C 0.93143 0.05438 0.02934 0.0
C921 C 0.96151 0.05646 0.04544 0.0
H922 H 0.51705 0.08152 0.02771 0.0
H923 H 0.59016 0.06425 0.95242 0.0
H924 H 0.58292 0.00692 0.95993 0.0
H925 H 0.53053 0.00536 0.08348 0.0
H926 H 0.48849 0.00191 0.08929 0.0
H927 H 0.50665 0.0404 0.08652 0.0
H928 H 0.46787 0.05447 0.03659 0.0
H929 H 0.45075 0.01562 0.03746 0.0
H930 H 0.46738 0.03081 -0.0023 0.0
H931 H 0.55774 0.95339 0.9629 0.0
H932 H 0.52441 0.90599 0.97178 0.0
H933 H 0.46758 0.9582 0.04526 0.0
C934 C 0.53355 0.06571 0.01534 0.0
C935 C 0.5543 0.07727 0.9897 0.0
C936 C 0.57456 0.05583 0.97269 0.0
C937 C 0.57015 0.02313 0.97631 0.0
C938 C 0.54659 0.01235 -0.00153 0.0
C939 C 0.52941 0.03294 0.01882 0.0
C940 C 0.50249 0.01586 0.0367 0.0
C941 C 0.50734 0.01586 0.07636 0.0
C942 C 0.47026 0.03005 0.02647 0.0
C943 C 0.50631 0.98303 0.02188 0.0
C944 C 0.53189 0.98136 -2e-05 0.0
C945 C 0.53821 0.95415 0.98084 0.0
C946 C 0.51881 0.92747 0.98561 0.0
C947 C 0.49364 0.92813 0.00969 0.0
C948 C 0.48698 0.95668 0.02716 0.0
H949 H 0.41918 0.50153 0.00941 0.0
H950 H 0.44479 0.58367 0.94812 0.0
H951 H 0.50071 0.57632 0.96475 0.0
H952 H 0.4817 0.50805 0.07782 0.0
H953 H 0.48814 0.46589 0.07886 0.0
H954 H 0.44948 0.48136 0.06932 0.0
H955 H 0.44706 0.45092 0.01168 0.0
H956 H 0.48551 0.4346 0.02004 0.0
H957 H 0.47797 0.45604 0.98021 0.0
H958 H 0.55413 0.55357 0.97807 0.0
H959 H 0.60088 0.52415 -0.00163 0.0
H960 H 0.53987 0.45436 0.04702 0.0
C961 C 0.43627 0.51924 0.00155 0.0
C962 C 0.42774 0.54365 0.97829 0.0
C963 C 0.45091 0.56541 0.96682 0.0
C964 C 0.48275 0.56101 0.97559 0.0
C965 C 0.4908 0.53464 0.99559 0.0
C966 C 0.46814 0.51454 0.00914 0.0
C967 C 0.48294 0.48597 0.02646 0.0
C968 C 0.47515 0.48525 0.06545 0.0
C969 C 0.47276 0.45508 0.00851 0.0
C970 C 0.51744 0.49291 0.02018 0.0
C971 C 0.5215 0.52098 0.00221 0.0
C972 C 0.55127 0.53177 0.99258 0.0
C973 C 0.57771 0.51449 0.00364 0.0
C974 C 0.57412 0.48685 0.02434 0.0
C975 C 0.54346 0.47528 0.03115 0.0
H976 H 0.95388 0.18739 0.6996 0.0
H977 H 0.93413 0.25383 0.61618 0.0
H978 H 0.92798 0.29656 0.65918 0.0
H979 H 0.89682 0.22556 0.76418 0.0
H980 H 0.92287 0.21632 0.80004 0.0
H981 H 0.92053 0.19027 0.76311 0.0
H982 H 0.981 0.19503 0.75572 0.0
H983 H 0.98352 0.22168 0.79191 0.0
H984 H 0.99857 0.23359 0.7501 0.0
H985 H 0.93869 0.3331 0.70873 0.0
H986 H 0.95374 0.35983 0.76292 0.0
H987 H 0.95539 0.26932 0.81663 0.0
C988 C 0.94676 0.21058 0.69055 0.0
C989 C 0.94494 0.21757 0.65464 0.0
C990 C 0.93607 0.24826 0.64365 0.0
C991 C 0.93248 0.27261 0.66786 0.0
C992 C 0.93644 0.26546 0.70302 0.0
C993 C 0.9421 0.23494 0.71451 0.0
C994 C 0.94691 0.23398 0.75362 0.0
C995 C 0.92018 0.21544 0.77128 0.0
C996 C 0.97943 0.22027 0.76337 0.0
C997 C 0.94511 0.2689 0.76191 0.0
C998 C 0.93925 0.28665 0.73234 0.0
C999 C 0.94164 0.3195 0.73245 0.0
C1000 C 0.95 0.33457 0.76359 0.0
C1001 C 0.95506 0.31694 0.79458 0.0
C1002 C 0.95181 0.28367 0.7936 0.0
H1003 H 0.29546 0.98489 0.70604 0.0
H1004 H 0.289 0.89074 0.66286 0.0
H1005 H 0.25791 0.87314 0.71413 0.0
H1006 H 0.30476 0.96163 0.79528 0.0
H1007 H 0.28141 0.99377 0.81162 0.0
H1008 H 0.30286 0.99849 0.77163 0.0
H1009 H 0.25123 0.01369 0.73905 0.0
H1010 H 0.22979 0.00958 0.77906 0.0
H1011 H 0.21764 0.98754 0.74123 0.0
H1012 H 0.22726 0.86668 0.77096 0.0
H1013 H 0.19701 0.87294 0.82566 0.0
H1014 H 0.2247 0.97154 0.82965 0.0
C1015 C 0.28736 0.96059 0.70745 0.0
C1016 C 0.29434 0.93904 0.68088 0.0
C1017 C 0.2835 0.90748 0.68314 0.0
C1018 C 0.26613 0.89732 0.71217 0.0
C1019 C 0.26005 0.91914 0.73842 0.0
C1020 C 0.27021 0.95018 0.73607 0.0
C1021 C 0.26023 0.96931 0.76709 0.0
C1022 C 0.28904 0.98151 0.78761 0.0
C1023 C 0.23842 0.99663 0.75593 0.0
C1024 C 0.24262 0.94432 0.78731 0.0
C1025 C 0.24286 0.91543 0.77066 0.0
C1026 C 0.22708 0.88916 0.78427 0.0
C1027 C 0.21006 0.89286 0.81524 0.0
C1028 C 0.20903 0.92255 0.83191 0.0
C1029 C 0.22588 0.94833 0.81794 0.0
H1030 H 0.55786 0.20196 0.80099 0.0
H1031 H 0.48527 0.24603 0.86279 0.0
H1032 H 0.47594 0.28524 0.81624 0.0
H1033 H 0.58834 0.27583 0.76157 0.0
H1034 H 0.59534 0.25748 0.72012 0.0
H1035 H 0.59798 0.2344 0.75955 0.0
H1036 H 0.55701 0.19488 0.73447 0.0
H1037 H 0.55387 0.21808 0.69518 0.0
H1038 H 0.51907 0.20921 0.72011 0.0
H1039 H 0.47049 0.31565 0.76132 0.0
H1040 H 0.47315 0.3399 0.70292 0.0
H1041 H 0.55127 0.27862 0.6769 0.0
C1042 C 0.54049 0.22032 0.80482 0.0
C1043 C 0.52253 0.22143 0.83556 0.0
C1044 C 0.49972 0.24538 0.83975 0.0
C1045 C 0.49407 0.26751 0.81332 0.0
C1046 C 0.51164 0.26542 0.78298 0.0
C1047 C 0.53474 0.24281 0.77871 0.0
C1048 C 0.54971 0.24552 0.7431 0.0
C1049 C 0.58493 0.25381 0.74628 0.0
C1050 C 0.5446 0.21511 0.72198 0.0
C1051 C 0.53099 0.27281 0.72789 0.0
C1052 C 0.50905 0.28373 0.75135 0.0
C1053 C 0.48794 0.30773 0.74292 0.0
C1054 C 0.48963 0.32133 0.70977 0.0
C1055 C 0.51251 0.31122 0.68565 0.0
C1056 C 0.53339 0.28658 0.69479 0.0
H1057 H 0.22954 0.58971 0.6691 0.0
H1058 H 0.15984 0.51621 0.68663 0.0
H1059 H 0.18111 0.50715 0.74564 0.0
H1060 H 0.29306 0.5499 0.71341 0.0
H1061 H 0.30977 0.58541 0.73169 0.0
H1062 H 0.28809 0.58727 0.69129 0.0
H1063 H 0.25118 0.62948 0.71769 0.0
H1064 H 0.27254 0.62742 0.75834 0.0
H1065 H 0.23053 0.62075 0.75746 0.0
H1066 H 0.21016 0.50459 0.80118 0.0
H1067 H 0.24894 0.50538 0.84916 0.0
H1068 H 0.30022 0.58078 0.79741 0.0
C1069 C 0.21892 0.57181 0.68556 0.0
C1070 C 0.19291 0.5539 0.67385 0.0
C1071 C 0.17958 0.53038 0.69561 0.0
C1072 C 0.19141 0.52514 0.72909 0.0
C1073 C 0.21669 0.54351 0.74031 0.0
C1074 C 0.2306 0.56613 0.71923 0.0
C1075 C 0.25852 0.58139 0.73745 0.0
C1076 C 0.28917 0.57563 0.71726 0.0
C1077 C 0.25284 0.61687 0.74306 0.0
C1078 C 0.25831 0.56342 0.77167 0.0
C1079 C 0.2337 0.54198 0.77283 0.0
C1080 C 0.22931 0.52155 0.8009 0.0
C1081 C 0.25124 0.5224 0.8282 0.0
C1082 C 0.27715 0.54349 0.82711 0.0
C1083 C 0.28031 0.56473 0.79889 0.0
H1084 H 0.06659 0.70954 0.17921 0.0
H1085 H 0.97111 0.72578 0.14267 0.0
H1086 H 0.96033 0.75772 0.19505 0.0
H1087 H 0.04902 0.70072 0.26825 0.0
H1088 H 0.08356 0.72119 0.28407 0.0
H1089 H 0.08455 0.70133 0.24277 0.0
H1090 H 0.10167 0.75335 0.21229 0.0
H1091 H 0.10119 0.77329 0.2536 0.0
H1092 H 0.07824 0.78847 0.21762 0.0
H1093 H 0.9587 0.78391 0.25334 0.0
H1094 H 0.96809 0.80801 0.31113 0.0
H1095 H 0.06516 0.77654 0.30921 0.0
C1096 C 0.04364 0.72035 0.18212 0.0
C1097 C 0.01963 0.71549 0.15713 0.0
C1098 C 0.98979 0.72965 0.16157 0.0
C1099 C 0.98344 0.74759 0.19125 0.0
C1100 C 0.00735 0.75132 0.21598 0.0
C1101 C 0.03703 0.73859 0.21148 0.0
C1102 C 0.05843 0.74598 0.24216 0.0
C1103 C 0.06954 0.71549 0.26038 0.0
C1104 C 0.08654 0.7665 0.23073 0.0
C1105 C 0.03601 0.7644 0.26485 0.0
C1106 C 0.00661 0.76704 0.24931 0.0
C1107 C 0.98167 0.78225 0.26562 0.0
C1108 C 0.98711 0.79563 0.29841 0.0
C1109 C 0.0172 0.7938 0.3143 0.0
C1110 C 0.04192 0.77797 0.29744 0.0
H1111 H 0.80352 0.04318 0.19967 0.0
H1112 H 0.75828 0.96621 0.14432 0.0
H1113 H 0.71677 0.96358 0.18919 0.0
H1114 H 0.78969 0.01482 0.28513 0.0
H1115 H 0.78178 0.05307 0.30354 0.0
H1116 H 0.80722 0.04981 0.26642 0.0
H1117 H 0.77199 0.0892 0.23205 0.0
H1118 H 0.74651 0.09272 0.26915 0.0
H1119 H 0.73036 0.08129 0.22755 0.0
H1120 H 0.68344 0.96614 0.24227 0.0
H1121 H 0.65775 0.9761 0.29846 0.0
H1122 H 0.72127 0.05491 0.31706 0.0
C1123 C 0.78466 0.026 0.19705 0.0
C1124 C 0.78383 0.00485 0.16882 0.0
C1125 C 0.75899 0.98265 0.16583 0.0
C1126 C 0.73546 0.98097 0.19115 0.0
C1127 C 0.73702 0.00197 0.21893 0.0
C1128 C 0.76072 0.02434 0.22185 0.0
C1129 C 0.75692 0.04394 0.25443 0.0
C1130 C 0.78561 0.04017 0.27881 0.0
C1131 C 0.75109 0.07886 0.24523 0.0
C1132 C 0.72776 0.02866 0.26971 0.0
C1133 C 0.7168 0.0044 0.24886 0.0
C1134 C 0.69141 0.98546 0.25849 0.0
C1135 C 0.67688 0.99141 0.29034 0.0
C1136 C 0.68741 0.01641 0.31192 0.0
C1137 C 0.71293 0.03549 0.30121 0.0
H1138 H 0.45555 0.74673 0.32458 0.0
H1139 H 0.5342 0.68283 0.31159 0.0
H1140 H 0.54869 0.71012 0.25697 0.0
H1141 H 0.43272 0.75006 0.23705 0.0
H1142 H 0.42264 0.79143 0.23636 0.0
H1143 H 0.42016 0.76927 0.27634 0.0
H1144 H 0.45761 0.80926 0.30667 0.0
H1145 H 0.45991 0.8318 0.26683 0.0
H1146 H 0.49547 0.81789 0.28772 0.0
H1147 H 0.55163 0.74043 0.20176 0.0
H1148 H 0.54513 0.7751 0.15025 0.0
H1149 H 0.46492 0.82005 0.19852 0.0
C1150 C 0.4762 0.73915 0.3105 0.0
C1151 C 0.49396 0.71296 0.32195 0.0
C1152 C 0.52054 0.70304 0.30295 0.0
C1153 C 0.52889 0.71834 0.27202 0.0
C1154 C 0.51048 0.74361 0.26074 0.0
C1155 C 0.48493 0.75429 0.27951 0.0
C1156 C 0.46839 0.78111 0.26061 0.0
C1157 C 0.43394 0.77243 0.25209 0.0
C1158 C 0.47048 0.81183 0.28172 0.0
C1159 C 0.48812 0.78317 0.22797 0.0
C1160 C 0.51234 0.76139 0.22871 0.0
C1161 C 0.533 0.75785 0.20099 0.0
C1162 C 0.52899 0.77737 0.17181 0.0
C1163 C 0.50459 0.80003 0.17072 0.0
C1164 C 0.4839 0.80298 0.19908 0.0
H1165 H 0.72978 0.48199 0.19684 0.0
H1166 H 0.66782 0.40104 0.20775 0.0
H1167 H 0.69182 0.38891 0.26529 0.0
H1168 H 0.79945 0.4472 0.24151 0.0
H1169 H 0.80975 0.48434 0.2614 0.0
H1170 H 0.79025 0.48385 0.21962 0.0
H1171 H 0.74634 0.51984 0.24405 0.0
H1172 H 0.76535 0.51997 0.28604 0.0
H1173 H 0.72486 0.50732 0.28205 0.0
H1174 H 0.71988 0.3887 0.32407 0.0
H1175 H 0.7522 0.39873 0.37723 0.0
H1176 H 0.79369 0.48072 0.3272 0.0
C1177 C 0.72209 0.46111 0.21087 0.0
C1178 C 0.69735 0.44216 0.19802 0.0
C1179 C 0.68705 0.41557 0.21735 0.0
C1180 C 0.70044 0.40861 0.24997 0.0
C1181 C 0.72413 0.42847 0.26261 0.0
C1182 C 0.73512 0.45396 0.24341 0.0
C1183 C 0.75937 0.4728 0.26354 0.0
C1184 C 0.79161 0.47198 0.24544 0.0
C1185 C 0.7483 0.50699 0.26926 0.0
C1186 C 0.75993 0.45429 0.29724 0.0
C1187 C 0.73964 0.42869 0.29632 0.0
C1188 C 0.73601 0.40857 0.32498 0.0
C1189 C 0.75412 0.4145 0.35506 0.0
C1190 C 0.77521 0.44039 0.35598 0.0
C1191 C 0.77778 0.46061 0.3269 0.0
H1192 H 0.2247 0.05827 0.52946 0.0
H1193 H 0.19296 0.96094 0.53668 0.0
H1194 H 0.14047 0.9792 0.55585 0.0
H1195 H 0.18528 0.08711 0.60417 0.0
H1196 H 0.17493 0.12468 0.58498 0.0
H1197 H 0.20962 0.10414 0.57064 0.0
H1198 H 0.18901 0.10553 0.50697 0.0
H1199 H 0.15457 0.12659 0.52106 0.0
H1200 H 0.15023 0.09024 0.49722 0.0
H1201 H 0.09274 0.00798 0.57743 0.0
H1202 H 0.05037 0.04511 0.59171 0.0
H1203 H 0.1129 0.12419 0.56968 0.0
C1204 C 0.20663 0.04086 0.53501 0.0
C1205 C 0.21286 0.0082 0.53201 0.0
C1206 C 0.18855 0.98607 0.53877 0.0
C1207 C 0.15882 0.99621 0.54996 0.0
C1208 C 0.15379 0.02856 0.55388 0.0
C1209 C 0.17681 0.05059 0.54597 0.0
C1210 C 0.1651 0.08399 0.55159 0.0
C1211 C 0.18492 0.10098 0.57951 0.0
C1212 C 0.1647 0.10268 0.51716 0.0
C1213 C 0.13199 0.07733 0.5643 0.0
C1214 C 0.12607 0.04519 0.56568 0.0
C1215 C 0.09713 0.03319 0.57643 0.0
C1216 C 0.07325 0.0546 0.58484 0.0
C1217 C 0.07824 0.08774 0.58214 0.0
C1218 C 0.10833 0.0991 0.57242 0.0
H1219 H 0.40465 0.09393 0.60619 0.0
H1220 H 0.34824 0.07741 0.51327 0.0
H1221 H 0.36541 0.12885 0.48949 0.0
H1222 H 0.39091 0.1804 0.60994 0.0
H1223 H 0.43049 0.18807 0.62515 0.0
H1224 H 0.41125 0.15135 0.63616 0.0
H1225 H 0.45804 0.12049 0.60989 0.0
H1226 H 0.47719 0.15703 0.59829 0.0
H1227 H 0.46915 0.12783 0.56538 0.0
H1228 H 0.39397 0.17893 0.4727 0.0
H1229 H 0.42716 0.22721 0.46752 0.0
H1230 H 0.46281 0.21192 0.57207 0.0
C1231 C 0.3953 0.10142 0.5812 0.0
C1232 C 0.3751 0.08158 0.56162 0.0
C1233 C 0.36359 0.09223 0.52889 0.0
C1234 C 0.37331 0.12138 0.51506 0.0
C1235 C 0.39413 0.13982 0.53451 0.0
C1236 C 0.40449 0.13056 0.56718 0.0
C1237 C 0.42756 0.15425 0.58229 0.0
C1238 C 0.41425 0.16942 0.61534 0.0
C1239 C 0.45989 0.13898 0.58936 0.0
C1240 C 0.42918 0.17785 0.55267 0.0
C1241 C 0.40981 0.1691 0.52527 0.0
C1242 C 0.40879 0.18633 0.49422 0.0
C1243 C 0.42775 0.21348 0.49137 0.0
C1244 C 0.44704 0.22305 0.51951 0.0
C1245 C 0.44782 0.20505 0.55043 0.0
H1246 H 0.41452 0.44589 0.56739 0.0
H1247 H 0.39763 0.3561 0.51597 0.0
H1248 H 0.34587 0.37521 0.49567 0.0
H1249 H 0.33529 0.45596 0.59715 0.0
H1250 H 0.3351 0.49819 0.59076 0.0
H1251 H 0.37159 0.47813 0.60019 0.0
H1252 H 0.39664 0.50103 0.54329 0.0
H1253 H 0.36029 0.52204 0.53571 0.0
H1254 H 0.37537 0.49621 0.50278 0.0
H1255 H 0.29587 0.40359 0.48104 0.0
H1256 H 0.24925 0.43858 0.47656 0.0
H1257 H 0.29793 0.50943 0.53798 0.0
C1258 C 0.39996 0.43022 0.55191 0.0
C1259 C 0.41022 0.39945 0.54337 0.0
C1260 C 0.39033 0.37972 0.52304 0.0
C1261 C 0.36091 0.3904 0.51119 0.0
C1262 C 0.3516 0.42083 0.51994 0.0
C1263 C 0.37037 0.44041 0.54004 0.0
C1264 C 0.35413 0.47161 0.5469 0.0
C1265 C 0.3487 0.47623 0.58608 0.0
C1266 C 0.37278 0.49938 0.53127 0.0
C1267 C 0.32335 0.46647 0.52746 0.0
C1268 C 0.32247 0.43708 0.51192 0.0
C1269 C 0.29628 0.42668 0.49304 0.0
C1270 C 0.27002 0.44663 0.49055 0.0
C1271 C 0.27024 0.47649 0.5069 0.0
C1272 C 0.29743 0.48677 0.52498 0.0
H1273 H 0.11003 0.42898 0.51888 0.0
H1274 H 0.09392 0.43461 0.62985 0.0
H1275 H 0.08076 0.37734 0.63115 0.0
H1276 H 0.04404 0.37656 0.50218 0.0
H1277 H 0.06378 0.35561 0.46793 0.0
H1278 H 0.07343 0.39637 0.47629 0.0
H1279 H 0.13223 0.38151 0.48404 0.0
H1280 H 0.12293 0.34061 0.47592 0.0
H1281 H 0.14321 0.35163 0.51543 0.0
H1282 H 0.07221 0.31918 0.62034 0.0
H1283 H 0.05999 0.26626 0.59763 0.0
H1284 H 0.07647 0.29962 0.49243 0.0
C1285 C 0.10367 0.41805 0.54341 0.0
C1286 C 0.10323 0.43578 0.5744 0.0
C1287 C 0.09436 0.42115 0.60596 0.0
C1288 C 0.08707 0.38873 0.6069 0.0
C1289 C 0.08812 0.37171 0.57588 0.0
C1290 C 0.09543 0.38604 0.54458 0.0
C1291 C 0.09277 0.36302 0.51462 0.0
C1292 C 0.06696 0.37351 0.48874 0.0
C1293 C 0.12469 0.35896 0.49644 0.0
C1294 C 0.08331 0.33323 0.53397 0.0
C1295 C 0.08129 0.33868 0.56934 0.0
C1296 C 0.07357 0.31469 0.59269 0.0
C1297 C 0.06695 0.28455 0.57951 0.0
C1298 C 0.06768 0.27866 0.54326 0.0
C1299 C 0.07609 0.30338 0.52028 0.0
H1300 H 0.22756 0.43042 0.97678 0.0
H1301 H 0.20497 0.53033 0.97597 0.0
H1302 H 0.15097 0.51794 0.95544 0.0
H1303 H 0.18598 0.40978 0.90039 0.0
H1304 H 0.17187 0.37221 0.9164 0.0
H1305 H 0.20819 0.38854 0.93307 0.0
H1306 H 0.18682 0.3851 0.99602 0.0
H1307 H 0.15067 0.3682 0.97957 0.0
H1308 H 0.14956 0.40321 0.00608 0.0
H1309 H 0.10144 0.49513 0.9298 0.0
H1310 H 0.05654 0.46301 0.90946 0.0
H1311 H 0.1104 0.37745 0.92906 0.0
C1312 C 0.21106 0.44958 0.97268 0.0
C1313 C 0.22031 0.48131 0.97784 0.0
C1314 C 0.19816 0.50585 0.97244 0.0
C1315 C 0.16758 0.49906 0.96049 0.0
C1316 C 0.1595 0.4676 0.95448 0.0
C1317 C 0.18033 0.44319 0.96108 0.0
C1318 C 0.16558 0.41144 0.95264 0.0
C1319 C 0.18401 0.3945 0.92392 0.0
C1320 C 0.163 0.39077 0.98554 0.0
C1321 C 0.1334 0.42185 0.93975 0.0
C1322 C 0.13051 0.45436 0.94075 0.0
C1323 C 0.10329 0.46963 0.9293 0.0
C1324 C 0.07795 0.45112 0.91759 0.0
C1325 C 0.07975 0.41762 0.91792 0.0
C1326 C 0.10817 0.40295 0.92855 0.0
H1327 H 0.07764 0.06801 0.91259 0.0
H1328 H 0.16513 0.09183 0.86108 0.0
H1329 H 0.15204 0.14891 0.86561 0.0
H1330 H 0.0283 0.1311 0.87901 0.0
H1331 H 0.00892 0.13685 0.92009 0.0
H1332 H 0.0238 0.09843 0.90891 0.0
H1333 H 0.05703 0.09729 0.96585 0.0
H1334 H 0.04189 0.13559 0.97708 0.0
H1335 H 0.08387 0.12931 0.975 0.0
H1336 H 0.12787 0.20324 0.87496 0.0
H1337 H 0.09765 0.25 0.89157 0.0
H1338 H 0.03038 0.18992 0.94548 0.0
C1339 C 0.09356 0.08524 0.90132 0.0
C1340 C 0.12183 0.07575 0.88537 0.0
C1341 C 0.14298 0.09885 0.87255 0.0
C1342 C 0.13578 0.13118 0.87517 0.0
C1343 C 0.10783 0.13978 0.89161 0.0
C1344 C 0.08727 0.11741 0.90481 0.0
C1345 C 0.0603 0.13257 0.92409 0.0
C1346 C 0.02845 0.12425 0.90698 0.0
C1347 C 0.06082 0.12314 0.9628 0.0
C1348 C 0.06851 0.16712 0.91919 0.0
C1349 C 0.09578 0.17083 0.90012 0.0
C1350 C 0.10699 0.20063 0.89077 0.0
C1351 C 0.08986 0.2273 0.9011 0.0
C1352 C 0.0623 0.22415 0.92162 0.0
C1353 C 0.05171 0.19344 0.9306 0.0
H1354 H 0.40896 0.07251 0.90592 0.0
H1355 H 0.42225 0.12546 0.00151 0.0
H1356 H 0.37239 0.1039 0.02404 0.0
H1357 H 0.32552 0.08391 0.89964 0.0
H1358 H 0.3177 0.04495 0.88281 0.0
H1359 H 0.35508 0.06377 0.87464 0.0
H1360 H 0.38396 0.0155 0.90164 0.0
H1361 H 0.34662 0.99665 0.91014 0.0
H1362 H 0.3744 0.00287 0.94518 0.0
H1363 H 0.32085 0.07687 0.03634 0.0
H1364 H 0.26908 0.04935 0.035 0.0
H1365 H 0.28934 0.01457 0.93172 0.0
C1366 C 0.40139 0.07959 0.93157 0.0
C1367 C 0.41955 0.10071 0.95188 0.0
C1368 C 0.40872 0.10943 0.98532 0.0
C1369 C 0.3805 0.09717 -0.0015 0.0
C1370 C 0.36329 0.07627 0.97794 0.0
C1371 C 0.37316 0.06772 0.94509 0.0
C1372 C 0.34969 0.0457 0.92783 0.0
C1373 C 0.3362 0.06048 0.89425 0.0
C1374 C 0.36456 0.01326 0.9208 0.0
C1375 C 0.32497 0.04354 0.95595 0.0
C1376 C 0.33339 0.06105 0.98482 0.0
C1377 C 0.31397 0.06307 0.01388 0.0
C1378 C 0.28477 0.04737 0.01301 0.0
C1379 C 0.27536 0.03041 0.98311 0.0
C1380 C 0.29602 0.02783 0.95468 0.0
H1381 H 0.38725 0.41561 0.97728 0.0
H1382 H 0.38911 0.40738 0.86486 0.0
H1383 H 0.41018 0.35325 0.87051 0.0
H1384 H 0.45981 0.37789 0.99198 0.0
H1385 H 0.44877 0.3573 0.03125 0.0
H1386 H 0.42976 0.3939 0.01975 0.0
H1387 H 0.37498 0.36741 0.02199 0.0
H1388 H 0.39335 0.33067 0.03456 0.0
H1389 H 0.36761 0.33212 0.99707 0.0
H1390 H 0.43331 0.30222 0.88747 0.0
H1391 H 0.45822 0.25611 0.91466 0.0
H1392 H 0.44485 0.29681 0.01684 0.0
C1393 C 0.39133 0.40199 0.95396 0.0
C1394 C 0.38609 0.4153 0.92058 0.0
C1395 C 0.39272 0.39738 0.89058 0.0
C1396 C 0.40465 0.36668 0.89356 0.0
C1397 C 0.41017 0.35443 0.92674 0.0
C1398 C 0.40384 0.3714 0.95648 0.0
C1399 C 0.41425 0.3533 0.98883 0.0
C1400 C 0.43967 0.3717 0.00912 0.0
C1401 C 0.38585 0.3454 0.01198 0.0
C1402 C 0.42772 0.3237 0.9725 0.0
C1403 C 0.42468 0.3249 0.93667 0.0
C1404 C 0.43553 0.30084 0.9155 0.0
C1405 C 0.44969 0.27466 0.93128 0.0
C1406 C 0.45305 0.27253 0.96792 0.0
C1407 C 0.44223 0.29763 0.9888 0.0
H1408 H 0.89926 0.88239 0.45135 0.0
H1409 H 0.94743 0.95775 0.39566 0.0
H1410 H 0.90285 0.99349 0.40734 0.0
H1411 H 0.82053 0.90157 0.42156 0.0
H1412 H 0.80273 0.8914 0.46257 0.0
H1413 H 0.8383 0.87189 0.44917 0.0
H1414 H 0.86555 0.8888 0.50673 0.0
H1415 H 0.83027 0.90885 0.52011 0.0
H1416 H 0.86714 0.93009 0.51804 0.0
H1417 H 0.85367 0.0215 0.42689 0.0
H1418 H 0.80107 0.03796 0.44732 0.0
H1419 H 0.78531 0.94419 0.48997 0.0
C1420 C 0.90035 0.90624 0.44114 0.0
C1421 C 0.92693 0.91719 0.42258 0.0
C1422 C 0.92734 0.94873 0.40991 0.0
C1423 C 0.9022 0.96928 0.41656 0.0
C1424 C 0.87679 0.9579 0.43576 0.0
C1425 C 0.8755 0.927 0.44746 0.0
C1426 C 0.84539 0.92049 0.46721 0.0
C1427 C 0.82557 0.89482 0.44903 0.0
C1428 C 0.85253 0.91153 0.50528 0.0
C1429 C 0.82978 0.95252 0.46463 0.0
C1430 C 0.84841 0.97388 0.4467 0.0
C1431 C 0.83886 0.00496 0.44088 0.0
C1432 C 0.8091 0.01416 0.45281 0.0
C1433 C 0.78918 0.99225 0.47 0.0
C1434 C 0.80001 0.96129 0.47663 0.0
H1435 H 0.56613 0.91545 0.44267 0.0
H1436 H 0.66453 0.89867 0.46875 0.0
H1437 H 0.65099 0.84463 0.48821 0.0
H1438 H 0.533 0.87343 0.51409 0.0
H1439 H 0.5004 0.85754 0.48932 0.0
H1440 H 0.51787 0.89474 0.47684 0.0
H1441 H 0.52818 0.87374 0.41499 0.0
H1442 H 0.51038 0.83655 0.42681 0.0
H1443 H 0.54983 0.83749 0.40968 0.0
H1444 H 0.62669 0.79197 0.50403 0.0
H1445 H 0.59354 0.74426 0.51296 0.0
H1446 H 0.51139 0.79622 0.47741 0.0
C1447 C 0.58494 0.90041 0.45218 0.0
C1448 C 0.61643 0.91133 0.45402 0.0
C1449 C 0.64022 0.89085 0.467 0.0
C1450 C 0.63277 0.86013 0.47822 0.0
C1451 C 0.60143 0.85027 0.47634 0.0
C1452 C 0.57795 0.86975 0.46345 0.0
C1453 C 0.54619 0.85339 0.46376 0.0
C1454 C 0.52299 0.8708 0.48744 0.0
C1455 C 0.53288 0.85009 0.4266 0.0
C1456 C 0.55543 0.82164 0.47891 0.0
C1457 C 0.58741 0.82026 0.48597 0.0
C1458 C 0.60161 0.79283 0.49879 0.0
C1459 C 0.58269 0.76593 0.50381 0.0
C1460 C 0.55005 0.76681 0.49608 0.0
C1461 C 0.53622 0.79517 0.48412 0.0
H1462 H 0.70802 0.56133 0.51982 0.0
H1463 H 0.69468 0.46605 0.48143 0.0
H1464 H 0.64366 0.48168 0.45501 0.0
H1465 H 0.6238 0.57509 0.5402 0.0
H1466 H 0.6259 0.61613 0.52758 0.0
H1467 H 0.66032 0.59664 0.54499 0.0
H1468 H 0.69146 0.6131 0.48994 0.0
H1469 H 0.65694 0.63198 0.47204 0.0
H1470 H 0.6768 0.60178 0.44765 0.0
H1471 H 0.59715 0.5091 0.42772 0.0
H1472 H 0.55338 0.54391 0.40972 0.0
H1473 H 0.59536 0.62087 0.46866 0.0
C1474 C 0.69386 0.54368 0.50658 0.0
C1475 C 0.70492 0.51247 0.5028 0.0
C1476 C 0.68622 0.48995 0.48496 0.0
C1477 C 0.65742 0.49869 0.46962 0.0
C1478 C 0.64754 0.52992 0.47287 0.0
C1479 C 0.66478 0.55189 0.49162 0.0
C1480 C 0.64871 0.58384 0.49124 0.0
C1481 C 0.63911 0.59348 0.5282 0.0
C1482 C 0.66974 0.60916 0.4742 0.0
C1483 C 0.6201 0.57654 0.46884 0.0
C1484 C 0.62006 0.5454 0.45821 0.0
C1485 C 0.59667 0.53342 0.4363 0.0
C1486 C 0.57199 0.55348 0.42603 0.0
C1487 C 0.57065 0.58508 0.43806 0.0
C1488 C 0.59547 0.5968 0.4592 0.0
H1489 H 0.8754 0.58715 0.50044 0.0
H1490 H 0.85734 0.58728 0.38935 0.0
H1491 H 0.87355 0.64342 0.38596 0.0
H1492 H 0.85321 0.67072 0.51801 0.0
H1493 H 0.88518 0.67617 0.54858 0.0
H1494 H 0.86741 0.63769 0.54338 0.0
H1495 H 0.92218 0.6142 0.53046 0.0
H1496 H 0.94031 0.65248 0.53479 0.0
H1497 H 0.94529 0.63026 0.49532 0.0
H1498 H 0.89573 0.69715 0.39338 0.0
H1499 H 0.92493 0.74495 0.41022 0.0
H1500 H 0.93163 0.71039 0.51644 0.0
C1501 C 0.87394 0.59946 0.4757 0.0
C1502 C 0.86442 0.58343 0.44523 0.0
C1503 C 0.86409 0.59954 0.41296 0.0
C1504 C 0.8732 0.63135 0.41084 0.0
C1505 C 0.88303 0.64646 0.4412 0.0
C1506 C 0.88367 0.63109 0.47302 0.0
C1507 C 0.89858 0.65181 0.50083 0.0
C1508 C 0.87466 0.65956 0.52939 0.0
C1509 C 0.92836 0.63626 0.51623 0.0
C1510 C 0.90668 0.68096 0.47949 0.0
C1511 C 0.89696 0.67747 0.44532 0.0
C1512 C 0.90288 0.70046 0.42019 0.0
C1513 C 0.91928 0.72774 0.43013 0.0
C1514 C 0.92962 0.73195 0.46493 0.0
C1515 C 0.92332 0.70812 0.48987 0.0
H1516 H 0.92019 0.57232 0.07793 0.0
H1517 H 0.91781 0.62896 0.98345 0.0
H1518 H 0.86609 0.60547 0.96801 0.0
H1519 H 0.88396 0.50245 0.04286 0.0
H1520 H 0.86177 0.49396 0.08166 0.0
H1521 H 0.89893 0.51453 0.08476 0.0
H1522 H 0.87204 0.56051 0.11721 0.0
H1523 H 0.83481 0.54009 0.11452 0.0
H1524 H 0.83837 0.57979 0.09771 0.0
H1525 H 0.81503 0.57492 0.96257 0.0
H1526 H 0.7661 0.54349 0.97038 0.0
H1527 H 0.80148 0.50874 0.06939 0.0
C1528 C 0.90886 0.57978 0.05394 0.0
C1529 C 0.92303 0.60239 0.0318 0.0
C1530 C 0.90728 0.61174 0.00083 0.0
C1531 C 0.87803 0.59841 0.99176 0.0
C1532 C 0.86481 0.57604 0.01412 0.0
C1533 C 0.87957 0.56707 0.04476 0.0
C1534 C 0.85991 0.5435 0.06498 0.0
C1535 C 0.87718 0.51173 0.06876 0.0
C1536 C 0.85074 0.55678 0.10071 0.0
C1537 C 0.8316 0.54073 0.04103 0.0
C1538 C 0.83505 0.55933 0.01159 0.0
C1539 C 0.81201 0.56039 0.98556 0.0
C1540 C 0.78445 0.54243 0.9901 0.0
C1541 C 0.78014 0.52419 0.02061 0.0
C1542 C 0.80415 0.52299 0.0461 0.0
H1543 H 0.00482 0.79275 0.02543 0.0
H1544 H 0.94149 0.76075 0.944 0.0
H1545 H 0.90844 0.80843 0.95213 0.0
H1546 H 0.94545 0.81986 0.08111 0.0
H1547 H 0.96742 0.85333 0.09724 0.0
H1548 H 0.98793 0.81881 0.08228 0.0
H1549 H 0.0196 0.85319 0.03869 0.0
H1550 H 0.99948 0.88789 0.05384 0.0
H1551 H 0.99879 0.87822 0.00823 0.0
H1552 H 0.88124 0.85842 0.97129 0.0
H1553 H 0.86191 0.90693 -0.00052 0.0
H1554 H 0.94186 0.90458 0.07066 0.0
C1555 C 0.98451 0.79641 0.00865 0.0
C1556 C 0.97594 0.77378 0.98346 0.0
C1557 C 0.9486 0.77839 0.96285 0.0
C1558 C 0.92971 0.80523 0.96745 0.0
C1559 C 0.93839 0.82691 0.99306 0.0
C1560 C 0.96519 0.82281 0.01328 0.0
C1561 C 0.96818 0.84841 0.04053 0.0
C1562 C 0.96718 0.83425 0.07747 0.0
C1563 C 0.9983 0.8681 0.03497 0.0
C1564 C 0.93885 0.86756 0.03258 0.0
C1565 C 0.92209 0.8549 0.00499 0.0
C1566 C 0.89421 0.86856 0.99288 0.0
C1567 C 0.88337 0.89609 0.00913 0.0
C1568 C 0.90022 0.90954 0.03743 0.0
C1569 C 0.92823 0.89481 0.04932 0.0
H1570 H 0.71282 0.0059 0.02554 0.0
H1571 H 0.75237 0.93736 0.95493 0.0
H1572 H 0.70287 0.90616 0.95738 0.0
H1573 H 0.67649 0.95003 0.08014 0.0
H1574 H 0.64227 0.97371 0.08924 0.0
H1575 H 0.6791 0.99255 0.07855 0.0
H1576 H 0.65139 0.02298 0.02914 0.0
H1577 H 0.61424 0.00371 0.03771 0.0
H1578 H 0.63157 0.00163 0.99499 0.0
H1579 H 0.65185 0.88035 0.97174 0.0
H1580 H 0.60128 0.86171 0.99522 0.0
H1581 H 0.59457 0.94683 0.05761 0.0
C1582 C 0.71046 0.98489 0.00971 0.0
C1583 C 0.73571 0.97424 0.98924 0.0
C1584 C 0.73275 0.94601 0.97003 0.0
C1585 C 0.70489 0.92818 0.97144 0.0
C1586 C 0.68056 0.93888 0.99252 0.0
C1587 C 0.683 0.96658 0.01129 0.0
C1588 C 0.65437 0.97147 0.03398 0.0
C1589 C 0.66362 0.97196 0.07277 0.0
C1590 C 0.63681 0.00175 0.02334 0.0
C1591 C 0.63546 0.94213 0.0251 0.0
C1592 C 0.65107 0.9237 0.00117 0.0
C1593 C 0.63921 0.89471 0.99019 0.0
C1594 C 0.6105 0.88427 0.00388 0.0
C1595 C 0.5939 0.90278 0.02833 0.0
C1596 C 0.60661 0.93217 0.03892 0.0
H1597 H 0.57156 0.58146 0.08411 0.0
H1598 H 0.67148 0.60149 0.07265 0.0
H1599 H 0.65858 0.65395 0.04796 0.0
H1600 H 0.54721 0.61723 0.00461 0.0
H1601 H 0.5109 0.6327 0.02156 0.0
H1602 H 0.52779 0.59737 0.04012 0.0
H1603 H 0.52825 0.62298 0.10126 0.0
H1604 H 0.51082 0.65817 0.08304 0.0
H1605 H 0.54724 0.66077 0.10733 0.0
H1606 H 0.63487 0.70335 0.02274 0.0
H1607 H 0.60198 0.74833 0.00332 0.0
H1608 H 0.51758 0.69594 0.03059 0.0
C1609 C 0.5908 0.59711 0.07714 0.0
C1610 C 0.62259 0.58747 0.08067 0.0
C1611 C 0.64698 0.60844 0.07043 0.0
C1612 C 0.63988 0.6382 0.05619 0.0
C1613 C 0.60829 0.64654 0.05216 0.0
C1614 C 0.58414 0.62675 0.0626 0.0
C1615 C 0.55215 0.64119 0.05491 0.0
C1616 C 0.53342 0.62092 0.02875 0.0
C1617 C 0.53353 0.64607 0.08865 0.0
C1618 C 0.5621 0.67244 0.03889 0.0
C1619 C 0.59459 0.67491 0.03732 0.0
C1620 C 0.60943 0.70175 0.02401 0.0
C1621 C 0.5906 0.72715 0.01307 0.0
C1622 C 0.55737 0.72562 0.01578 0.0
C1623 C 0.54295 0.69759 0.028 0.0
loop_
_geom_bond_atom_site_label_1
_geom_bond_atom_site_label_2
_geom_bond_distance
_geom_bond_site_symmetry_2
_ccdc_geom_bond_type
Co0 O3 1.972 . S
Co0 N17 1.988 1_455 S
Co0 O25 1.966 1_455 S
Co0 O32 1.920 1_455 S
Co1 O4 1.966 1_655 S
Co1 N10 2.022 . S
Co1 N18 1.993 . S
Co1 O26 1.941 . S
C2 O3 1.258 . S
C2 O4 1.263 . S
O3 Co0 1.972 . S
O3 C2 1.258 . S
O4 Co1 1.966 1_455 S
O4 C2 1.263 . S
C5 O6 1.235 . S
C5 O32 1.289 1_455 S
O6 C5 1.235 . S
C7 C9 1.400 . S
C7 N10 1.351 1_455 S
C7 C12 1.501 . S
C8 C9 1.387 1_655 S
C8 N11 1.341 . S
C9 C7 1.400 . S
C9 C8 1.387 1_455 S
N10 Co1 2.022 . S
N10 C7 1.351 1_655 S
N10 N11 1.365 . S
N11 C8 1.341 . S
N11 N10 1.365 . S
N11 H31 0.862 . S
C12 C7 1.501 . S
C12 H13 0.961 . S
C12 H14 0.961 . S
C12 H15 0.960 . S
H13 C12 0.961 . S
H14 C12 0.961 . S
H15 C12 0.960 . S
C16 N17 1.342 . S
C16 C20 1.401 . S
C16 C21 1.499 . S
N17 Co0 1.988 1_655 S
N17 C16 1.342 . S
N17 N18 1.388 . S
N18 Co1 1.993 . S
N18 N17 1.388 . S
N18 C19 1.346 . S
C19 N18 1.346 . S
C19 C20 1.396 . S
C19 C29 1.510 . S
C20 C16 1.401 . S
C20 C19 1.396 . S
C21 C16 1.499 . S
C21 H22 0.959 . S
C21 H23 0.960 . S
C21 H24 0.961 . S
H22 C21 0.959 . S
H23 C21 0.960 . S
H24 C21 0.961 . S
O25 Co0 1.966 1_655 S
O25 C33 1.258 . S
O26 Co1 1.941 . S
O26 C33 1.266 . S
H27 C29 0.959 . S
H28 C29 0.961 . S
C29 C19 1.510 . S
C29 H27 0.959 . S
C29 H28 0.961 . S
C29 H30 0.960 . S
H30 C29 0.960 . S
H31 N11 0.862 . S
O32 Co0 1.920 1_655 S
O32 C5 1.289 1_655 S
C33 O25 1.258 . S
C33 O26 1.266 . S
Co34 O37 1.948 1_565 S
Co34 N51 1.998 . S
Co34 O59 1.978 . S
Co34 O66 1.924 . S
Co35 O38 1.966 1_565 S
Co35 N44 2.022 . S
Co35 N52 1.993 . S
Co35 O60 1.941 . S
C36 O37 1.258 . S
C36 O38 1.263 . S
O37 Co34 1.948 1_545 S
O37 C36 1.258 . S
O38 Co35 1.966 1_545 S
O38 C36 1.263 . S
C39 O40 1.235 . S
C39 O66 1.289 1_545 S
O40 C39 1.235 . S
C41 C43 1.400 . S
C41 N44 1.351 1_545 S
C41 C46 1.501 . S
C42 C43 1.387 1_565 S
C42 N45 1.341 . S
C43 C41 1.400 . S
C43 C42 1.387 1_545 S
N44 Co35 2.022 . S
N44 C41 1.351 1_565 S
N44 N45 1.365 . S
N45 C42 1.341 . S
N45 N44 1.365 . S
N45 H65 0.862 . S
C46 C41 1.501 . S
C46 H47 0.961 . S
C46 H48 0.961 . S
C46 H49 0.960 . S
H47 C46 0.961 . S
H48 C46 0.961 . S
H49 C46 0.960 . S
C50 N51 1.342 . S
C50 C54 1.401 . S
C50 C55 1.499 . S
N51 Co34 1.998 . S
N51 C50 1.342 . S
N51 N52 1.388 . S
N52 Co35 1.993 . S
N52 N51 1.388 . S
N52 C53 1.346 . S
C53 N52 1.346 . S
C53 C54 1.396 . S
C53 C63 1.510 . S
C54 C50 1.401 . S
C54 C53 1.396 . S
C55 C50 1.499 . S
C55 H56 0.959 . S
C55 H57 0.960 . S
C55 H58 0.961 . S
H56 C55 0.959 . S
H57 C55 0.960 . S
H58 C55 0.961 . S
O59 Co34 1.978 . S
O59 C67 1.258 . S
O60 Co35 1.941 . S
O60 C67 1.266 . S
H61 C63 0.959 . S
H62 C63 0.961 . S
C63 C53 1.510 . S
C63 H61 0.959 . S
C63 H62 0.961 . S
C63 H64 0.960 . S
H64 C63 0.960 . S
H65 N45 0.862 . S
O66 Co34 1.924 . S
O66 C39 1.289 1_565 S
C67 O59 1.258 . S
C67 O60 1.266 . S
Co68 O71 1.970 . S
Co68 N85 1.989 . S
Co68 O93 1.967 . S
Co68 O100 1.920 . S
Co69 O72 1.966 . S
Co69 N78 2.022 . S
Co69 N86 1.993 . S
Co69 O94 1.941 . S
C70 O71 1.258 . S
C70 O72 1.263 . S
O71 Co68 1.970 . S
O71 C70 1.258 . S
O72 Co69 1.966 . S
O72 C70 1.263 . S
C73 O74 1.235 . S
C73 O100 1.289 . S
O74 C73 1.235 . S
C75 C77 1.400 . S
C75 N78 1.351 . S
C75 C80 1.501 . S
C76 C77 1.387 . S
C76 N79 1.341 . S
C77 C75 1.400 . S
C77 C76 1.387 . S
N78 Co69 2.022 . S
N78 C75 1.351 . S
N78 N79 1.365 . S
N79 C76 1.341 . S
N79 N78 1.365 . S
N79 H99 0.862 . S
C80 C75 1.501 . S
C80 H81 0.961 . S
C80 H82 0.961 . S
C80 H83 0.960 . S
H81 C80 0.961 . S
H82 C80 0.961 . S
H83 C80 0.960 . S
C84 N85 1.342 . S
C84 C88 1.401 . S
C84 C89 1.499 . S
N85 Co68 1.989 . S
N85 C84 1.342 . S
N85 N86 1.388 . S
N86 Co69 1.993 . S
N86 N85 1.388 . S
N86 C87 1.346 . S
C87 N86 1.346 . S
C87 C88 1.396 . S
C87 C97 1.510 . S
C88 C84 1.401 . S
C88 C87 1.396 . S
C89 C84 1.499 . S
C89 H90 0.959 . S
C89 H91 0.960 . S
C89 H92 0.961 . S
H90 C89 0.959 . S
H91 C89 0.960 . S
H92 C89 0.961 . S
O93 Co68 1.967 . S
O93 C101 1.258 . S
O94 Co69 1.941 . S
O94 C101 1.266 . S
H95 C97 0.959 . S
H96 C97 0.961 . S
C97 C87 1.510 . S
C97 H95 0.959 . S
C97 H96 0.961 . S
C97 H98 0.960 . S
H98 C97 0.960 . S
H99 N79 0.862 . S
O100 Co68 1.920 . S
O100 C73 1.289 . S
C101 O93 1.258 . S
C101 O94 1.266 . S
Co102 O105 1.970 . S
Co102 N119 1.989 . S
Co102 O127 1.967 . S
Co102 O134 1.920 . S
Co103 O106 1.966 . S
Co103 N112 2.022 . S
Co103 N120 1.993 . S
Co103 O128 1.941 . S
C104 O105 1.258 . S
C104 O106 1.263 . S
O105 Co102 1.970 . S
O105 C104 1.258 . S
O106 Co103 1.966 . S
O106 C104 1.263 . S
C107 O108 1.235 . S
C107 O134 1.289 . S
O108 C107 1.235 . S
C109 C111 1.400 . S
C109 N112 1.351 . S
C109 C114 1.501 . S
C110 C111 1.387 . S
C110 N113 1.341 . S
C111 C109 1.400 . S
C111 C110 1.387 . S
N112 Co103 2.022 . S
N112 C109 1.351 . S
N112 N113 1.365 . S
N113 C110 1.341 . S
N113 N112 1.365 . S
N113 H133 0.862 . S
C114 C109 1.501 . S
C114 H115 0.961 . S
C114 H116 0.961 . S
C114 H117 0.960 . S
H115 C114 0.961 . S
H116 C114 0.961 . S
H117 C114 0.960 . S
C118 N119 1.342 . S
C118 C122 1.401 . S
C118 C123 1.499 . S
N119 Co102 1.989 . S
N119 C118 1.342 . S
N119 N120 1.388 . S
N120 Co103 1.993 . S
N120 N119 1.388 . S
N120 C121 1.346 . S
C121 N120 1.346 . S
C121 C122 1.396 . S
C121 C131 1.510 . S
C122 C118 1.401 . S
C122 C121 1.396 . S
C123 C118 1.499 . S
C123 H124 0.959 . S
C123 H125 0.960 . S
C123 H126 0.961 . S
H124 C123 0.959 . S
H125 C123 0.960 . S
H126 C123 0.961 . S
O127 Co102 1.967 . S
O127 C135 1.258 . S
O128 Co103 1.941 . S
O128 C135 1.266 . S
H129 C131 0.959 . S
H130 C131 0.961 . S
C131 C121 1.510 . S
C131 H129 0.959 . S
C131 H130 0.961 . S
C131 H132 0.960 . S
H132 C131 0.960 . S
H133 N113 0.862 . S
O134 Co102 1.920 . S
O134 C107 1.289 . S
C135 O127 1.258 . S
C135 O128 1.266 . S
Co136 O139 1.948 1_655 S
Co136 N153 1.998 . S
Co136 O161 1.978 . S
Co136 O168 1.924 . S
Co137 O140 1.966 1_655 S
Co137 N146 2.022 . S
Co137 N154 1.993 . S
Co137 O162 1.941 . S
C138 O139 1.258 . S
C138 O140 1.263 . S
O139 Co136 1.948 1_455 S
O139 C138 1.258 . S
O140 Co137 1.966 1_455 S
O140 C138 1.263 . S
C141 O142 1.235 . S
C141 O168 1.289 1_455 S
O142 C141 1.235 . S
C143 C145 1.400 1_556 S
C143 N146 1.351 1_455 S
C143 C148 1.501 . S
C144 C145 1.387 1_655 S
C144 N147 1.341 1_554 S
C145 C143 1.400 1_554 S
C145 C144 1.387 1_455 S
N146 Co137 2.022 . S
N146 C143 1.351 1_655 S
N146 N147 1.365 . S
N147 C144 1.341 1_556 S
N147 N146 1.365 . S
N147 H167 0.862 . S
C148 C143 1.501 . S
C148 H149 0.961 . S
C148 H150 0.961 . S
C148 H151 0.960 1_556 S
H149 C148 0.961 . S
H150 C148 0.961 . S
H151 C148 0.960 1_554 S
C152 N153 1.342 . S
C152 C156 1.401 . S
C152 C157 1.499 . S
N153 Co136 1.998 . S
N153 C152 1.342 . S
N153 N154 1.388 . S
N154 Co137 1.993 . S
N154 N153 1.388 . S
N154 C155 1.346 . S
C155 N154 1.346 . S
C155 C156 1.396 . S
C155 C165 1.510 . S
C156 C152 1.401 . S
C156 C155 1.396 . S
C157 C152 1.499 . S
C157 H158 0.959 . S
C157 H159 0.960 . S
C157 H160 0.961 . S
H158 C157 0.959 . S
H159 C157 0.960 . S
H160 C157 0.961 . S
O161 Co136 1.978 . S
O161 C169 1.258 . S
O162 Co137 1.941 . S
O162 C169 1.266 . S
H163 C165 0.959 . S
H164 C165 0.961 . S
C165 C155 1.510 . S
C165 H163 0.959 . S
C165 H164 0.961 . S
C165 H166 0.960 . S
H166 C165 0.960 . S
H167 N147 0.862 . S
O168 Co136 1.924 . S
O168 C141 1.289 1_655 S
C169 O161 1.258 . S
C169 O162 1.266 . S
Co170 O173 1.972 . S
Co170 N187 1.988 1_545 S
Co170 O195 1.966 1_545 S
Co170 O202 1.920 1_545 S
Co171 O174 1.966 1_565 S
Co171 N180 2.022 . S
Co171 N188 1.993 . S
Co171 O196 1.941 . S
C172 O173 1.258 . S
C172 O174 1.263 . S
O173 Co170 1.972 . S
O173 C172 1.258 . S
O174 Co171 1.966 1_545 S
O174 C172 1.263 . S
C175 O176 1.235 . S
C175 O202 1.289 1_545 S
O176 C175 1.235 . S
C177 C179 1.401 . S
C177 N180 1.351 1_544 S
C177 C182 1.500 1_554 S
C178 C179 1.387 1_565 S
C178 N181 1.341 . S
C179 C177 1.401 . S
C179 C178 1.387 1_545 S
N180 Co171 2.022 . S
N180 C177 1.351 1_566 S
N180 N181 1.365 1_556 S
N181 C178 1.341 . S
N181 N180 1.365 1_554 S
N181 H201 0.863 . S
C182 C177 1.500 1_556 S
C182 H183 0.961 . S
C182 H184 0.961 . S
C182 H185 0.960 1_556 S
H183 C182 0.961 . S
H184 C182 0.961 . S
H185 C182 0.960 1_554 S
C186 N187 1.342 . S
C186 C190 1.401 . S
C186 C191 1.499 . S
N187 Co170 1.988 1_565 S
N187 C186 1.342 . S
N187 N188 1.388 . S
N188 Co171 1.993 . S
N188 N187 1.388 . S
N188 C189 1.346 . S
C189 N188 1.346 . S
C189 C190 1.396 . S
C189 C199 1.510 . S
C190 C186 1.401 . S
C190 C189 1.396 . S
C191 C186 1.499 . S
C191 H192 0.959 . S
C191 H193 0.960 . S
C191 H194 0.961 . S
H192 C191 0.959 . S
H193 C191 0.960 . S
H194 C191 0.961 . S
O195 Co170 1.966 1_565 S
O195 C203 1.258 . S
O196 Co171 1.941 . S
O196 C203 1.266 . S
H197 C199 0.959 . S
H198 C199 0.961 . S
C199 C189 1.510 . S
C199 H197 0.959 . S
C199 H198 0.961 . S
C199 H200 0.960 . S
H200 C199 0.960 . S
H201 N181 0.863 . S
O202 Co170 1.920 1_565 S
O202 C175 1.289 1_565 S
C203 O195 1.258 . S
C203 O196 1.266 . S
Co204 O207 1.970 . S
Co204 N221 1.989 . S
Co204 O229 1.967 . S
Co204 O236 1.920 . S
Co205 O208 1.966 . S
Co205 N214 2.022 . S
Co205 N222 1.993 . S
Co205 O230 1.941 . S
C206 O207 1.258 . S
C206 O208 1.263 . S
O207 Co204 1.970 . S
O207 C206 1.258 . S
O208 Co205 1.966 . S
O208 C206 1.263 . S
C209 O210 1.235 . S
C209 O236 1.289 . S
O210 C209 1.235 . S
C211 C213 1.401 1_556 S
C211 N214 1.351 . S
C211 C216 1.500 . S
C212 C213 1.387 . S
C212 N215 1.341 . S
C213 C211 1.401 1_554 S
C213 C212 1.387 . S
N214 Co205 2.022 . S
N214 C211 1.351 . S
N214 N215 1.365 1_556 S
N215 C212 1.341 . S
N215 N214 1.365 1_554 S
N215 H235 0.862 . S
C216 C211 1.500 . S
C216 H217 0.961 . S
C216 H218 0.961 . S
C216 H219 0.960 1_556 S
H217 C216 0.961 . S
H218 C216 0.961 . S
H219 C216 0.960 1_554 S
C220 N221 1.342 . S
C220 C224 1.401 . S
C220 C225 1.499 . S
N221 Co204 1.989 . S
N221 C220 1.342 . S
N221 N222 1.388 . S
N222 Co205 1.993 . S
N222 N221 1.388 . S
N222 C223 1.346 . S
C223 N222 1.346 . S
C223 C224 1.396 . S
C223 C233 1.510 . S
C224 C220 1.401 . S
C224 C223 1.396 . S
C225 C220 1.499 . S
C225 H226 0.959 . S
C225 H227 0.960 . S
C225 H228 0.961 . S
H226 C225 0.959 . S
H227 C225 0.960 . S
H228 C225 0.961 . S
O229 Co204 1.967 . S
O229 C237 1.258 . S
O230 Co205 1.941 . S
O230 C237 1.266 . S
H231 C233 0.959 . S
H232 C233 0.961 . S
C233 C223 1.510 . S
C233 H231 0.959 . S
C233 H232 0.961 . S
C233 H234 0.960 . S
H234 C233 0.960 . S
H235 N215 0.862 . S
O236 Co204 1.920 . S
O236 C209 1.289 . S
C237 O229 1.258 . S
C237 O230 1.266 . S
Co238 O241 1.970 . S
Co238 N255 1.989 . S
Co238 O263 1.967 . S
Co238 O270 1.920 . S
Co239 O242 1.966 . S
Co239 N248 2.022 . S
Co239 N256 1.993 . S
Co239 O264 1.941 . S
C240 O241 1.258 . S
C240 O242 1.263 . S
O241 Co238 1.970 . S
O241 C240 1.258 . S
O242 Co239 1.966 . S
O242 C240 1.263 . S
C243 O244 1.235 . S
C243 O270 1.289 . S
O244 C243 1.235 . S
C245 C247 1.400 1_556 S
C245 N248 1.351 . S
C245 C250 1.501 . S
C246 C247 1.387 . S
C246 N249 1.341 1_554 S
C247 C245 1.400 1_554 S
C247 C246 1.387 . S
N248 Co239 2.022 . S
N248 C245 1.351 . S
N248 N249 1.365 . S
N249 C246 1.341 1_556 S
N249 N248 1.365 . S
N249 H269 0.862 . S
C250 C245 1.501 . S
C250 H251 0.961 . S
C250 H252 0.961 . S
C250 H253 0.960 1_556 S
H251 C250 0.961 . S
H252 C250 0.961 . S
H253 C250 0.960 1_554 S
C254 N255 1.342 . S
C254 C258 1.401 . S
C254 C259 1.499 . S
N255 Co238 1.989 . S
N255 C254 1.342 . S
N255 N256 1.388 . S
N256 Co239 1.993 . S
N256 N255 1.388 . S
N256 C257 1.346 . S
C257 N256 1.346 . S
C257 C258 1.396 . S
C257 C267 1.510 . S
C258 C254 1.401 . S
C258 C257 1.396 . S
C259 C254 1.499 . S
C259 H260 0.959 . S
C259 H261 0.960 . S
C259 H262 0.961 . S
H260 C259 0.959 . S
H261 C259 0.960 . S
H262 C259 0.961 . S
O263 Co238 1.967 . S
O263 C271 1.258 . S
O264 Co239 1.941 . S
O264 C271 1.266 . S
H265 C267 0.959 . S
H266 C267 0.961 . S
C267 C257 1.510 . S
C267 H265 0.959 . S
C267 H266 0.961 . S
C267 H268 0.960 . S
H268 C267 0.960 . S
H269 N249 0.862 . S
O270 Co238 1.920 . S
O270 C243 1.289 . S
C271 O263 1.258 . S
C271 O264 1.266 . S
Co272 O275 1.972 . S
Co272 N289 1.988 1_655 S
Co272 O297 1.966 1_655 S
Co272 O304 1.920 1_655 S
Co273 O276 1.966 1_455 S
Co273 N282 2.022 . S
Co273 N290 1.993 . S
Co273 O298 1.941 . S
C274 O275 1.258 . S
C274 O276 1.263 . S
O275 Co272 1.972 . S
O275 C274 1.258 . S
O276 Co273 1.966 1_655 S
O276 C274 1.263 . S
C277 O278 1.235 . S
C277 O304 1.289 1_655 S
O278 C277 1.235 . S
C279 C281 1.400 . S
C279 N282 1.351 1_655 S
C279 C284 1.501 . S
C280 C281 1.387 1_455 S
C280 N283 1.341 . S
C281 C279 1.400 . S
C281 C280 1.387 1_655 S
N282 Co273 2.022 . S
N282 C279 1.351 1_455 S
N282 N283 1.365 . S
N283 C280 1.341 . S
N283 N282 1.365 . S
N283 H303 0.862 . S
C284 C279 1.501 . S
C284 H285 0.961 . S
C284 H286 0.961 . S
C284 H287 0.960 . S
H285 C284 0.961 . S
H286 C284 0.961 . S
H287 C284 0.960 . S
C288 N289 1.342 . S
C288 C292 1.401 . S
C288 C293 1.499 . S
N289 Co272 1.988 1_455 S
N289 C288 1.342 . S
N289 N290 1.388 . S
N290 Co273 1.993 . S
N290 N289 1.388 . S
N290 C291 1.346 . S
C291 N290 1.346 . S
C291 C292 1.396 . S
C291 C301 1.510 . S
C292 C288 1.401 . S
C292 C291 1.396 . S
C293 C288 1.499 . S
C293 H294 0.959 . S
C293 H295 0.960 . S
C293 H296 0.961 . S
H294 C293 0.959 . S
H295 C293 0.960 . S
H296 C293 0.961 . S
O297 Co272 1.966 1_455 S
O297 C305 1.258 . S
O298 Co273 1.941 . S
O298 C305 1.266 . S
H299 C301 0.959 . S
H300 C301 0.961 . S
C301 C291 1.510 . S
C301 H299 0.959 . S
C301 H300 0.961 . S
C301 H302 0.960 . S
H302 C301 0.960 . S
H303 N283 0.862 . S
O304 Co272 1.920 1_455 S
O304 C277 1.289 1_455 S
C305 O297 1.258 . S
C305 O298 1.266 . S
Co306 O309 1.948 1_545 S
Co306 N323 1.998 . S
Co306 O331 1.978 . S
Co306 O338 1.924 . S
Co307 O310 1.966 1_545 S
Co307 N316 2.022 . S
Co307 N324 1.993 . S
Co307 O332 1.941 . S
C308 O309 1.258 . S
C308 O310 1.263 . S
O309 Co306 1.948 1_565 S
O309 C308 1.258 . S
O310 Co307 1.966 1_565 S
O310 C308 1.263 . S
C311 O312 1.235 . S
C311 O338 1.289 1_565 S
O312 C311 1.235 . S
C313 C315 1.400 . S
C313 N316 1.351 1_565 S
C313 C318 1.501 . S
C314 C315 1.387 1_545 S
C314 N317 1.341 . S
C315 C313 1.400 . S
C315 C314 1.387 1_565 S
N316 Co307 2.022 . S
N316 C313 1.351 1_545 S
N316 N317 1.365 . S
N317 C314 1.341 . S
N317 N316 1.365 . S
N317 H337 0.862 . S
C318 C313 1.501 . S
C318 H319 0.961 . S
C318 H320 0.961 . S
C318 H321 0.960 . S
H319 C318 0.961 . S
H320 C318 0.961 . S
H321 C318 0.960 . S
C322 N323 1.342 . S
C322 C326 1.401 . S
C322 C327 1.499 . S
N323 Co306 1.998 . S
N323 C322 1.342 . S
N323 N324 1.388 . S
N324 Co307 1.993 . S
N324 N323 1.388 . S
N324 C325 1.346 . S
C325 N324 1.346 . S
C325 C326 1.396 . S
C325 C335 1.510 . S
C326 C322 1.401 . S
C326 C325 1.396 . S
C327 C322 1.499 . S
C327 H328 0.959 . S
C327 H329 0.960 . S
C327 H330 0.961 . S
H328 C327 0.959 . S
H329 C327 0.960 . S
H330 C327 0.961 . S
O331 Co306 1.978 . S
O331 C339 1.258 . S
O332 Co307 1.941 . S
O332 C339 1.266 . S
H333 C335 0.959 . S
H334 C335 0.961 . S
C335 C325 1.510 . S
C335 H333 0.959 . S
C335 H334 0.961 . S
C335 H336 0.960 . S
H336 C335 0.960 . S
H337 N317 0.862 . S
O338 Co306 1.924 . S
O338 C311 1.289 1_545 S
C339 O331 1.258 . S
C339 O332 1.266 . S
Co340 O343 1.970 . S
Co340 N357 1.989 . S
Co340 O365 1.967 . S
Co340 O372 1.920 . S
Co341 O344 1.966 . S
Co341 N350 2.022 . S
Co341 N358 1.993 . S
Co341 O366 1.941 . S
C342 O343 1.258 . S
C342 O344 1.263 . S
O343 Co340 1.970 . S
O343 C342 1.258 . S
O344 Co341 1.966 . S
O344 C342 1.263 . S
C345 O346 1.235 . S
C345 O372 1.289 . S
O346 C345 1.235 . S
C347 C349 1.400 . S
C347 N350 1.351 . S
C347 C352 1.501 . S
C348 C349 1.387 . S
C348 N351 1.341 . S
C349 C347 1.400 . S
C349 C348 1.387 . S
N350 Co341 2.022 . S
N350 C347 1.351 . S
N350 N351 1.365 . S
N351 C348 1.341 . S
N351 N350 1.365 . S
N351 H371 0.862 . S
C352 C347 1.501 . S
C352 H353 0.961 . S
C352 H354 0.961 . S
C352 H355 0.960 . S
H353 C352 0.961 . S
H354 C352 0.961 . S
H355 C352 0.960 . S
C356 N357 1.342 . S
C356 C360 1.401 . S
C356 C361 1.499 . S
N357 Co340 1.989 . S
N357 C356 1.342 . S
N357 N358 1.388 . S
N358 Co341 1.993 . S
N358 N357 1.388 . S
N358 C359 1.346 . S
C359 N358 1.346 . S
C359 C360 1.396 . S
C359 C369 1.510 . S
C360 C356 1.401 . S
C360 C359 1.396 . S
C361 C356 1.499 . S
C361 H362 0.959 . S
C361 H363 0.960 . S
C361 H364 0.961 . S
H362 C361 0.959 . S
H363 C361 0.960 . S
H364 C361 0.961 . S
O365 Co340 1.967 . S
O365 C373 1.258 . S
O366 Co341 1.941 . S
O366 C373 1.266 . S
H367 C369 0.959 . S
H368 C369 0.961 . S
C369 C359 1.510 . S
C369 H367 0.959 . S
C369 H368 0.961 . S
C369 H370 0.960 . S
H370 C369 0.960 . S
H371 N351 0.862 . S
O372 Co340 1.920 . S
O372 C345 1.289 . S
C373 O365 1.258 . S
C373 O366 1.266 . S
Co374 O377 1.970 . S
Co374 N391 1.989 . S
Co374 O399 1.967 . S
Co374 O406 1.920 . S
Co375 O378 1.966 . S
Co375 N384 2.022 . S
Co375 N392 1.993 . S
Co375 O400 1.941 . S
C376 O377 1.258 . S
C376 O378 1.263 . S
O377 Co374 1.970 . S
O377 C376 1.258 . S
O378 Co375 1.966 . S
O378 C376 1.263 . S
C379 O380 1.235 . S
C379 O406 1.289 . S
O380 C379 1.235 . S
C381 C383 1.400 . S
C381 N384 1.351 . S
C381 C386 1.501 . S
C382 C383 1.387 . S
C382 N385 1.341 . S
C383 C381 1.400 . S
C383 C382 1.387 . S
N384 Co375 2.022 . S
N384 C381 1.351 . S
N384 N385 1.365 . S
N385 C382 1.341 . S
N385 N384 1.365 . S
N385 H405 0.862 . S
C386 C381 1.501 . S
C386 H387 0.961 . S
C386 H388 0.961 . S
C386 H389 0.960 . S
H387 C386 0.961 . S
H388 C386 0.961 . S
H389 C386 0.960 . S
C390 N391 1.342 . S
C390 C394 1.401 . S
C390 C395 1.499 . S
N391 Co374 1.989 . S
N391 C390 1.342 . S
N391 N392 1.388 . S
N392 Co375 1.993 . S
N392 N391 1.388 . S
N392 C393 1.346 . S
C393 N392 1.346 . S
C393 C394 1.396 . S
C393 C403 1.510 . S
C394 C390 1.401 . S
C394 C393 1.396 . S
C395 C390 1.499 . S
C395 H396 0.959 . S
C395 H397 0.960 . S
C395 H398 0.961 . S
H396 C395 0.959 . S
H397 C395 0.960 . S
H398 C395 0.961 . S
O399 Co374 1.967 . S
O399 C407 1.258 . S
O400 Co375 1.941 . S
O400 C407 1.266 . S
H401 C403 0.959 . S
H402 C403 0.961 . S
C403 C393 1.510 . S
C403 H401 0.959 . S
C403 H402 0.961 . S
C403 H404 0.960 . S
H404 C403 0.960 . S
H405 N385 0.862 . S
O406 Co374 1.920 . S
O406 C379 1.289 . S
C407 O399 1.258 . S
C407 O400 1.266 . S
Co408 O411 1.948 1_455 S
Co408 N425 1.998 . S
Co408 O433 1.978 . S
Co408 O440 1.924 . S
Co409 O412 1.966 1_455 S
Co409 N418 2.022 . S
Co409 N426 1.993 . S
Co409 O434 1.941 . S
C410 O411 1.258 . S
C410 O412 1.263 . S
O411 Co408 1.948 1_655 S
O411 C410 1.258 . S
O412 Co409 1.966 1_655 S
O412 C410 1.263 . S
C413 O414 1.235 . S
C413 O440 1.289 1_655 S
O414 C413 1.235 . S
C415 C417 1.400 1_554 S
C415 N418 1.351 1_655 S
C415 C420 1.501 . S
C416 C417 1.387 1_455 S
C416 N419 1.341 1_556 S
C417 C415 1.400 1_556 S
C417 C416 1.387 1_655 S
N418 Co409 2.022 . S
N418 C415 1.351 1_455 S
N418 N419 1.365 . S
N419 C416 1.341 1_554 S
N419 N418 1.365 . S
N419 H439 0.862 . S
C420 C415 1.501 . S
C420 H421 0.961 . S
C420 H422 0.961 . S
C420 H423 0.960 1_554 S
H421 C420 0.961 . S
H422 C420 0.961 . S
H423 C420 0.960 1_556 S
C424 N425 1.342 . S
C424 C428 1.401 . S
C424 C429 1.499 . S
N425 Co408 1.998 . S
N425 C424 1.342 . S
N425 N426 1.388 . S
N426 Co409 1.993 . S
N426 N425 1.388 . S
N426 C427 1.346 . S
C427 N426 1.346 . S
C427 C428 1.396 . S
C427 C437 1.510 . S
C428 C424 1.401 . S
C428 C427 1.396 . S
C429 C424 1.499 . S
C429 H430 0.959 . S
C429 H431 0.960 . S
C429 H432 0.961 . S
H430 C429 0.959 . S
H431 C429 0.960 . S
H432 C429 0.961 . S
O433 Co408 1.978 . S
O433 C441 1.258 . S
O434 Co409 1.941 . S
O434 C441 1.266 . S
H435 C437 0.959 . S
H436 C437 0.961 . S
C437 C427 1.510 . S
C437 H435 0.959 . S
C437 H436 0.961 . S
C437 H438 0.960 . S
H438 C437 0.960 . S
H439 N419 0.862 . S
O440 Co408 1.924 . S
O440 C413 1.289 1_455 S
C441 O433 1.258 . S
C441 O434 1.266 . S
Co442 O445 1.972 . S
Co442 N459 1.988 1_565 S
Co442 O467 1.966 1_565 S
Co442 O474 1.920 1_565 S
Co443 O446 1.966 1_545 S
Co443 N452 2.022 . S
Co443 N460 1.993 . S
Co443 O468 1.941 . S
C444 O445 1.258 . S
C444 O446 1.263 . S
O445 Co442 1.972 . S
O445 C444 1.258 . S
O446 Co443 1.966 1_565 S
O446 C444 1.263 . S
C447 O448 1.235 . S
C447 O474 1.289 1_565 S
O448 C447 1.235 . S
C449 C451 1.401 . S
C449 N452 1.351 1_566 S
C449 C454 1.500 1_556 S
C450 C451 1.387 1_545 S
C450 N453 1.341 . S
C451 C449 1.401 . S
C451 C450 1.387 1_565 S
N452 Co443 2.022 . S
N452 C449 1.351 1_544 S
N452 N453 1.365 1_554 S
N453 C450 1.341 . S
N453 N452 1.365 1_556 S
N453 H473 0.863 . S
C454 C449 1.500 1_554 S
C454 H455 0.961 . S
C454 H456 0.961 . S
C454 H457 0.960 1_554 S
H455 C454 0.961 . S
H456 C454 0.961 . S
H457 C454 0.960 1_556 S
C458 N459 1.342 . S
C458 C462 1.401 . S
C458 C463 1.499 . S
N459 Co442 1.988 1_545 S
N459 C458 1.342 . S
N459 N460 1.388 . S
N460 Co443 1.993 . S
N460 N459 1.388 . S
N460 C461 1.346 . S
C461 N460 1.346 . S
C461 C462 1.396 . S
C461 C471 1.510 . S
C462 C458 1.401 . S
C462 C461 1.396 . S
C463 C458 1.499 . S
C463 H464 0.959 . S
C463 H465 0.960 . S
C463 H466 0.961 . S
H464 C463 0.959 . S
H465 C463 0.960 . S
H466 C463 0.961 . S
O467 Co442 1.966 1_545 S
O467 C475 1.258 . S
O468 Co443 1.941 . S
O468 C475 1.266 . S
H469 C471 0.959 . S
H470 C471 0.961 . S
C471 C461 1.510 . S
C471 H469 0.959 . S
C471 H470 0.961 . S
C471 H472 0.960 . S
H472 C471 0.960 . S
H473 N453 0.863 . S
O474 Co442 1.920 1_545 S
O474 C447 1.289 1_545 S
C475 O467 1.258 . S
C475 O468 1.266 . S
Co476 O479 1.970 . S
Co476 N493 1.989 . S
Co476 O501 1.967 . S
Co476 O508 1.920 . S
Co477 O480 1.966 . S
Co477 N486 2.022 . S
Co477 N494 1.993 . S
Co477 O502 1.941 . S
C478 O479 1.258 . S
C478 O480 1.263 . S
O479 Co476 1.970 . S
O479 C478 1.258 . S
O480 Co477 1.966 . S
O480 C478 1.263 . S
C481 O482 1.235 . S
C481 O508 1.289 . S
O482 C481 1.235 . S
C483 C485 1.401 1_554 S
C483 N486 1.351 . S
C483 C488 1.500 . S
C484 C485 1.387 . S
C484 N487 1.341 . S
C485 C483 1.401 1_556 S
C485 C484 1.387 . S
N486 Co477 2.022 . S
N486 C483 1.351 . S
N486 N487 1.365 1_554 S
N487 C484 1.341 . S
N487 N486 1.365 1_556 S
N487 H507 0.862 . S
C488 C483 1.500 . S
C488 H489 0.961 . S
C488 H490 0.961 . S
C488 H491 0.960 1_554 S
H489 C488 0.961 . S
H490 C488 0.961 . S
H491 C488 0.960 1_556 S
C492 N493 1.342 . S
C492 C496 1.401 . S
C492 C497 1.499 . S
N493 Co476 1.989 . S
N493 C492 1.342 . S
N493 N494 1.388 . S
N494 Co477 1.993 . S
N494 N493 1.388 . S
N494 C495 1.346 . S
C495 N494 1.346 . S
C495 C496 1.396 . S
C495 C505 1.510 . S
C496 C492 1.401 . S
C496 C495 1.396 . S
C497 C492 1.499 . S
C497 H498 0.959 . S
C497 H499 0.960 . S
C497 H500 0.961 . S
H498 C497 0.959 . S
H499 C497 0.960 . S
H500 C497 0.961 . S
O501 Co476 1.967 . S
O501 C509 1.258 . S
O502 Co477 1.941 . S
O502 C509 1.266 . S
H503 C505 0.959 . S
H504 C505 0.961 . S
C505 C495 1.510 . S
C505 H503 0.959 . S
C505 H504 0.961 . S
C505 H506 0.960 . S
H506 C505 0.960 . S
H507 N487 0.862 . S
O508 Co476 1.920 . S
O508 C481 1.289 . S
C509 O501 1.258 . S
C509 O502 1.266 . S
Co510 O513 1.970 . S
Co510 N527 1.989 . S
Co510 O535 1.967 . S
Co510 O542 1.920 . S
Co511 O514 1.966 . S
Co511 N520 2.022 . S
Co511 N528 1.993 . S
Co511 O536 1.941 . S
C512 O513 1.258 . S
C512 O514 1.263 . S
O513 Co510 1.970 . S
O513 C512 1.258 . S
O514 Co511 1.966 . S
O514 C512 1.263 . S
C515 O516 1.235 . S
C515 O542 1.289 . S
O516 C515 1.235 . S
C517 C519 1.400 1_554 S
C517 N520 1.351 . S
C517 C522 1.501 . S
C518 C519 1.387 . S
C518 N521 1.341 1_556 S
C519 C517 1.400 1_556 S
C519 C518 1.387 . S
N520 Co511 2.022 . S
N520 C517 1.351 . S
N520 N521 1.365 . S
N521 C518 1.341 1_554 S
N521 N520 1.365 . S
N521 H541 0.862 . S
C522 C517 1.501 . S
C522 H523 0.961 . S
C522 H524 0.961 . S
C522 H525 0.960 1_554 S
H523 C522 0.961 . S
H524 C522 0.961 . S
H525 C522 0.960 1_556 S
C526 N527 1.342 . S
C526 C530 1.401 . S
C526 C531 1.499 . S
N527 Co510 1.989 . S
N527 C526 1.342 . S
N527 N528 1.388 . S
N528 Co511 1.993 . S
N528 N527 1.388 . S
N528 C529 1.346 . S
C529 N528 1.346 . S
C529 C530 1.396 . S
C529 C539 1.510 . S
C530 C526 1.401 . S
C530 C529 1.396 . S
C531 C526 1.499 . S
C531 H532 0.959 . S
C531 H533 0.960 . S
C531 H534 0.961 . S
H532 C531 0.959 . S
H533 C531 0.960 . S
H534 C531 0.961 . S
O535 Co510 1.967 . S
O535 C543 1.258 . S
O536 Co511 1.941 . S
O536 C543 1.266 . S
H537 C539 0.959 . S
H538 C539 0.961 . S
C539 C529 1.510 . S
C539 H537 0.959 . S
C539 H538 0.961 . S
C539 H540 0.960 . S
H540 C539 0.960 . S
H541 N521 0.862 . S
O542 Co510 1.920 . S
O542 C515 1.289 . S
C543 O535 1.258 . S
C543 O536 1.266 . S
H544 C556 0.930 1_655 S
H545 C558 0.930 . S
H546 C559 0.930 . S
H547 C563 0.959 1_545 S
H548 C563 0.959 . S
H549 C563 0.961 . S
H550 C564 0.960 . S
H551 C564 0.961 . S
H552 C564 0.959 . S
H553 C567 0.929 . S
H554 C568 0.931 . S
H555 C570 0.930 . S
C556 H544 0.930 1_455 S
C556 C557 1.399 . S
C556 C561 1.399 . S
C557 C556 1.399 . S
C557 C558 1.376 . S
C558 H545 0.930 . S
C558 C557 1.376 . S
C558 C559 1.388 . S
C559 H546 0.930 . S
C559 C558 1.388 . S
C559 C560 1.390 . S
C560 C559 1.390 . S
C560 C561 1.394 . S
C560 C566 1.465 . S
C561 C556 1.399 . S
C561 C560 1.394 . S
C561 C562 1.516 . S
C562 C561 1.516 . S
C562 C563 1.502 1_445 S
C562 C564 1.561 1_545 S
C562 C565 1.526 . S
C563 H547 0.959 1_565 S
C563 H548 0.959 . S
C563 H549 0.961 . S
C563 C562 1.502 1_665 S
C564 H550 0.960 . S
C564 H551 0.961 . S
C564 H552 0.959 . S
C564 C562 1.561 1_565 S
C565 C562 1.526 . S
C565 C566 1.396 . S
C565 C570 1.390 1_545 S
C566 C560 1.465 . S
C566 C565 1.396 . S
C566 C567 1.399 . S
C567 H553 0.929 . S
C567 C566 1.399 . S
C567 C568 1.385 . S
C568 H554 0.931 . S
C568 C567 1.385 . S
C568 C569 1.389 . S
C569 C568 1.389 . S
C569 C570 1.387 1_545 S
C570 H555 0.930 . S
C570 C565 1.390 1_565 S
C570 C569 1.387 1_565 S
H571 C583 0.952 . S
H572 C585 0.930 . S
H573 C586 0.930 . S
H574 C590 0.959 . S
H575 C590 0.959 . S
H576 C590 0.961 1_565 S
H577 C591 0.960 . S
H578 C591 0.961 . S
H579 C591 0.959 . S
H580 C594 0.929 . S
H581 C595 0.931 . S
H582 C597 0.930 . S
C583 H571 0.952 . S
C583 C584 1.392 1_565 S
C583 C588 1.385 1_565 S
C584 C583 1.392 1_545 S
C584 C585 1.376 . S
C585 H572 0.930 . S
C585 C584 1.376 . S
C585 C586 1.388 . S
C586 H573 0.930 . S
C586 C585 1.388 . S
C586 C587 1.390 . S
C587 C586 1.390 . S
C587 C588 1.394 . S
C587 C593 1.465 . S
C588 C583 1.385 1_545 S
C588 C587 1.394 . S
C588 C589 1.516 . S
C589 C588 1.516 . S
C589 C590 1.502 . S
C589 C591 1.561 1_545 S
C589 C592 1.526 . S
C590 H574 0.959 . S
C590 H575 0.959 . S
C590 H576 0.961 1_545 S
C590 C589 1.502 . S
C591 H577 0.960 . S
C591 H578 0.961 . S
C591 H579 0.959 . S
C591 C589 1.561 1_565 S
C592 C589 1.526 . S
C592 C593 1.396 . S
C592 C597 1.390 . S
C593 C587 1.465 . S
C593 C592 1.396 . S
C593 C594 1.399 . S
C594 H580 0.929 . S
C594 C593 1.399 . S
C594 C595 1.385 . S
C595 H581 0.931 . S
C595 C594 1.385 . S
C595 C596 1.389 . S
C596 C595 1.389 . S
C596 C597 1.387 . S
C597 H582 0.930 . S
C597 C592 1.390 . S
C597 C596 1.387 . S
H598 C610 0.930 . S
H599 C612 0.930 . S
H600 C613 0.930 . S
H601 C617 0.959 . S
H602 C617 0.959 . S
H603 C617 0.961 . S
H604 C618 0.960 . S
H605 C618 0.961 . S
H606 C618 0.959 . S
H607 C621 0.929 . S
H608 C622 0.931 . S
H609 C624 0.930 . S
C610 H598 0.930 . S
C610 C611 1.399 . S
C610 C615 1.399 . S
C611 C610 1.399 . S
C611 C612 1.376 . S
C612 H599 0.930 . S
C612 C611 1.376 . S
C612 C613 1.388 . S
C613 H600 0.930 . S
C613 C612 1.388 . S
C613 C614 1.390 . S
C614 C613 1.390 . S
C614 C615 1.394 . S
C614 C620 1.465 . S
C615 C610 1.399 . S
C615 C614 1.394 . S
C615 C616 1.516 . S
C616 C615 1.516 . S
C616 C617 1.502 . S
C616 C618 1.561 . S
C616 C619 1.526 . S
C617 H601 0.959 . S
C617 H602 0.959 . S
C617 H603 0.961 . S
C617 C616 1.502 . S
C618 H604 0.960 . S
C618 H605 0.961 . S
C618 H606 0.959 . S
C618 C616 1.561 . S
C619 C616 1.526 . S
C619 C620 1.396 . S
C619 C624 1.390 . S
C620 C614 1.465 . S
C620 C619 1.396 . S
C620 C621 1.399 . S
C621 H607 0.929 . S
C621 C620 1.399 . S
C621 C622 1.385 . S
C622 H608 0.931 . S
C622 C621 1.385 . S
C622 C623 1.389 . S
C623 C622 1.389 . S
C623 C624 1.387 . S
C624 H609 0.930 . S
C624 C619 1.390 . S
C624 C623 1.387 . S
H625 C637 0.930 . S
H626 C639 0.930 . S
H627 C640 0.930 . S
H628 C644 0.959 . S
H629 C644 0.959 . S
H630 C644 0.961 . S
H631 C645 0.960 . S
H632 C645 0.961 . S
H633 C645 0.959 . S
H634 C648 0.929 1_655 S
H635 C649 0.931 . S
H636 C651 0.930 . S
C637 H625 0.930 . S
C637 C638 1.399 . S
C637 C642 1.399 . S
C638 C637 1.399 . S
C638 C639 1.376 1_455 S
C639 H626 0.930 . S
C639 C638 1.376 1_655 S
C639 C640 1.388 . S
C640 H627 0.930 . S
C640 C639 1.388 . S
C640 C641 1.390 1_655 S
C641 C640 1.390 1_455 S
C641 C642 1.394 . S
C641 C647 1.465 . S
C642 C637 1.399 . S
C642 C641 1.394 . S
C642 C643 1.516 . S
C643 C642 1.516 . S
C643 C644 1.502 . S
C643 C645 1.561 . S
C643 C646 1.526 . S
C644 H628 0.959 . S
C644 H629 0.959 . S
C644 H630 0.961 . S
C644 C643 1.502 . S
C645 H631 0.960 . S
C645 H632 0.961 . S
C645 H633 0.959 . S
C645 C643 1.561 . S
C646 C643 1.526 . S
C646 C647 1.396 . S
C646 C651 1.390 . S
C647 C641 1.465 . S
C647 C646 1.396 . S
C647 C648 1.399 . S
C648 H634 0.929 1_455 S
C648 C647 1.399 . S
C648 C649 1.385 . S
C649 H635 0.931 . S
C649 C648 1.385 . S
C649 C650 1.389 . S
C650 C649 1.389 . S
C650 C651 1.387 . S
C651 H636 0.930 . S
C651 C646 1.390 . S
C651 C650 1.387 . S
H652 C664 0.930 . S
H653 C666 0.930 . S
H654 C667 0.930 . S
H655 C671 0.959 . S
H656 C671 0.959 1_545 S
H657 C671 0.961 . S
H658 C672 0.960 . S
H659 C672 0.961 . S
H660 C672 0.959 . S
H661 C675 0.929 . S
H662 C676 0.931 . S
H663 C678 0.931 1_545 S
C664 H652 0.930 . S
C664 C665 1.399 . S
C664 C669 1.399 . S
C665 C664 1.399 . S
C665 C666 1.376 1_655 S
C666 H653 0.930 . S
C666 C665 1.376 1_455 S
C666 C667 1.388 . S
C667 H654 0.930 . S
C667 C666 1.388 . S
C667 C668 1.390 1_455 S
C668 C667 1.390 1_655 S
C668 C669 1.394 . S
C668 C674 1.465 . S
C669 C664 1.399 . S
C669 C668 1.394 . S
C669 C670 1.516 . S
C670 C669 1.516 . S
C670 C671 1.502 . S
C670 C672 1.561 1_565 S
C670 C673 1.526 . S
C671 H655 0.959 . S
C671 H656 0.959 1_565 S
C671 H657 0.961 . S
C671 C670 1.502 . S
C672 H658 0.960 . S
C672 H659 0.961 . S
C672 H660 0.959 . S
C672 C670 1.561 1_545 S
C673 C670 1.526 . S
C673 C674 1.396 . S
C673 C678 1.389 . S
C674 C668 1.465 . S
C674 C673 1.396 . S
C674 C675 1.399 . S
C675 H661 0.929 . S
C675 C674 1.399 . S
C675 C676 1.385 . S
C676 H662 0.931 . S
C676 C675 1.385 . S
C676 C677 1.389 . S
C677 C676 1.389 . S
C677 C678 1.386 . S
C678 H663 0.931 1_565 S
C678 C673 1.389 . S
C678 C677 1.386 . S
H679 C691 0.930 . S
H680 C693 0.930 . S
H681 C694 0.930 . S
H682 C698 0.959 . S
H683 C698 0.959 . S
H684 C698 0.961 . S
H685 C699 0.960 . S
H686 C699 0.961 . S
H687 C699 0.959 . S
H688 C702 0.929 1_545 S
H689 C703 0.931 . S
H690 C705 0.930 . S
C691 H679 0.930 . S
C691 C692 1.399 . S
C691 C696 1.399 . S
C692 C691 1.399 . S
C692 C693 1.376 1_565 S
C693 H680 0.930 . S
C693 C692 1.376 1_545 S
C693 C694 1.388 . S
C694 H681 0.930 . S
C694 C693 1.388 . S
C694 C695 1.390 1_545 S
C695 C694 1.390 1_565 S
C695 C696 1.394 . S
C695 C701 1.465 . S
C696 C691 1.399 . S
C696 C695 1.394 . S
C696 C697 1.516 . S
C697 C696 1.516 . S
C697 C698 1.502 . S
C697 C699 1.561 . S
C697 C700 1.526 . S
C698 H682 0.959 . S
C698 H683 0.959 . S
C698 H684 0.961 . S
C698 C697 1.502 . S
C699 H685 0.960 . S
C699 H686 0.961 . S
C699 H687 0.959 . S
C699 C697 1.561 . S
C700 C697 1.526 . S
C700 C701 1.396 . S
C700 C705 1.390 . S
C701 C695 1.465 . S
C701 C700 1.396 . S
C701 C702 1.399 . S
C702 H688 0.929 1_565 S
C702 C701 1.399 . S
C702 C703 1.385 . S
C703 H689 0.931 . S
C703 C702 1.385 . S
C703 C704 1.389 . S
C704 C703 1.389 . S
C704 C705 1.387 . S
C705 H690 0.930 . S
C705 C700 1.390 . S
C705 C704 1.387 . S
H706 C718 0.930 . S
H707 C720 0.930 . S
H708 C721 0.930 . S
H709 C725 0.959 . S
H710 C725 0.959 . S
H711 C725 0.961 . S
H712 C726 0.960 . S
H713 C726 0.961 . S
H714 C726 0.959 . S
H715 C729 0.929 . S
H716 C730 0.931 . S
H717 C732 0.930 . S
C718 H706 0.930 . S
C718 C719 1.399 . S
C718 C723 1.399 . S
C719 C718 1.399 . S
C719 C720 1.376 . S
C720 H707 0.930 . S
C720 C719 1.376 . S
C720 C721 1.388 . S
C721 H708 0.930 . S
C721 C720 1.388 . S
C721 C722 1.390 . S
C722 C721 1.390 . S
C722 C723 1.394 . S
C722 C728 1.465 . S
C723 C718 1.399 . S
C723 C722 1.394 . S
C723 C724 1.516 . S
C724 C723 1.516 . S
C724 C725 1.502 . S
C724 C726 1.561 . S
C724 C727 1.526 . S
C725 H709 0.959 . S
C725 H710 0.959 . S
C725 H711 0.961 . S
C725 C724 1.502 . S
C726 H712 0.960 . S
C726 H713 0.961 . S
C726 H714 0.959 . S
C726 C724 1.561 . S
C727 C724 1.526 . S
C727 C728 1.396 . S
C727 C732 1.390 . S
C728 C722 1.465 . S
C728 C727 1.396 . S
C728 C729 1.399 . S
C729 H715 0.929 . S
C729 C728 1.399 . S
C729 C730 1.385 . S
C730 H716 0.931 . S
C730 C729 1.385 . S
C730 C731 1.389 . S
C731 C730 1.389 . S
C731 C732 1.387 . S
C732 H717 0.930 . S
C732 C727 1.390 . S
C732 C731 1.387 . S
H733 C745 0.930 . S
H734 C747 0.930 . S
H735 C748 0.930 1_455 S
H736 C752 0.959 . S
H737 C752 0.959 . S
H738 C752 0.961 . S
H739 C753 0.960 . S
H740 C753 0.961 . S
H741 C753 0.959 . S
H742 C756 0.929 . S
H743 C757 0.931 . S
H744 C759 0.930 . S
C745 H733 0.930 . S
C745 C746 1.399 . S
C745 C750 1.399 . S
C746 C745 1.399 . S
C746 C747 1.376 . S
C747 H734 0.930 . S
C747 C746 1.376 . S
C747 C748 1.388 . S
C748 H735 0.930 1_655 S
C748 C747 1.388 . S
C748 C749 1.390 . S
C749 C748 1.390 . S
C749 C750 1.394 . S
C749 C755 1.465 . S
C750 C745 1.399 . S
C750 C749 1.394 . S
C750 C751 1.516 . S
C751 C750 1.516 . S
C751 C752 1.502 . S
C751 C753 1.561 . S
C751 C754 1.526 . S
C752 H736 0.959 . S
C752 H737 0.959 . S
C752 H738 0.961 . S
C752 C751 1.502 . S
C753 H739 0.960 . S
C753 H740 0.961 . S
C753 H741 0.959 . S
C753 C751 1.561 . S
C754 C751 1.526 . S
C754 C755 1.396 . S
C754 C759 1.390 . S
C755 C749 1.465 . S
C755 C754 1.396 . S
C755 C756 1.399 1_655 S
C756 H742 0.929 . S
C756 C755 1.399 1_455 S
C756 C757 1.385 . S
C757 H743 0.931 . S
C757 C756 1.385 . S
C757 C758 1.389 1_455 S
C758 C757 1.389 1_655 S
C758 C759 1.387 . S
C759 H744 0.930 . S
C759 C754 1.390 . S
C759 C758 1.387 . S
H760 C772 0.930 . S
H761 C774 0.930 . S
H762 C775 0.930 . S
H763 C779 0.959 . S
H764 C779 0.959 . S
H765 C779 0.961 . S
H766 C780 0.960 1_565 S
H767 C780 0.961 . S
H768 C780 0.959 . S
H769 C783 0.929 . S
H770 C784 0.931 . S
H771 C786 0.930 . S
C772 H760 0.930 . S
C772 C773 1.399 . S
C772 C777 1.399 . S
C773 C772 1.399 . S
C773 C774 1.376 . S
C774 H761 0.930 . S
C774 C773 1.376 . S
C774 C775 1.388 . S
C775 H762 0.930 . S
C775 C774 1.388 . S
C775 C776 1.390 . S
C776 C775 1.390 . S
C776 C777 1.394 . S
C776 C782 1.465 1_465 S
C777 C772 1.399 . S
C777 C776 1.394 . S
C777 C778 1.516 . S
C778 C777 1.516 . S
C778 C779 1.502 1_455 S
C778 C780 1.561 1_565 S
C778 C781 1.526 1_465 S
C779 H763 0.959 . S
C779 H764 0.959 . S
C779 H765 0.961 . S
C779 C778 1.502 1_655 S
C780 H766 0.960 1_545 S
C780 H767 0.961 . S
C780 H768 0.959 . S
C780 C778 1.561 1_545 S
C781 C778 1.526 1_645 S
C781 C782 1.396 . S
C781 C786 1.390 . S
C782 C776 1.465 1_645 S
C782 C781 1.396 . S
C782 C783 1.399 . S
C783 H769 0.929 . S
C783 C782 1.399 . S
C783 C784 1.385 . S
C784 H770 0.931 . S
C784 C783 1.385 . S
C784 C785 1.389 . S
C785 C784 1.389 . S
C785 C786 1.387 . S
C786 H771 0.930 . S
C786 C781 1.390 . S
C786 C785 1.387 . S
H787 C799 0.930 . S
H788 C801 0.930 . S
H789 C802 0.930 . S
H790 C806 0.932 1_545 S
H791 C806 0.959 . S
H792 C806 0.961 . S
H793 C807 0.960 . S
H794 C807 0.961 . S
H795 C807 0.959 . S
H796 C810 0.929 . S
H797 C811 0.931 . S
H798 C813 0.930 . S
C799 H787 0.930 . S
C799 C800 1.399 . S
C799 C804 1.399 . S
C800 C799 1.399 . S
C800 C801 1.376 . S
C801 H788 0.930 . S
C801 C800 1.376 . S
C801 C802 1.388 . S
C802 H789 0.930 . S
C802 C801 1.388 . S
C802 C803 1.390 . S
C803 C802 1.390 . S
C803 C804 1.394 . S
C803 C809 1.465 1_545 S
C804 C799 1.399 . S
C804 C803 1.394 . S
C804 C805 1.516 1_545 S
C805 C804 1.516 1_565 S
C805 C806 1.502 . S
C805 C807 1.561 . S
C805 C808 1.526 . S
C806 H790 0.932 1_565 S
C806 H791 0.959 . S
C806 H792 0.961 . S
C806 C805 1.502 . S
C807 H793 0.960 . S
C807 H794 0.961 . S
C807 H795 0.959 . S
C807 C805 1.561 . S
C808 C805 1.526 . S
C808 C809 1.396 . S
C808 C813 1.390 . S
C809 C803 1.465 1_565 S
C809 C808 1.396 . S
C809 C810 1.399 1_565 S
C810 H796 0.929 . S
C810 C809 1.399 1_545 S
C810 C811 1.385 1_545 S
C811 H797 0.931 . S
C811 C810 1.385 1_565 S
C811 C812 1.389 . S
C812 C811 1.389 . S
C812 C813 1.387 . S
C813 H798 0.930 . S
C813 C808 1.390 . S
C813 C812 1.387 . S
H814 C826 0.930 . S
H815 C828 0.930 . S
H816 C829 0.930 . S
H817 C833 0.959 . S
H818 C833 0.959 . S
H819 C833 0.961 . S
H820 C834 0.960 . S
H821 C834 0.961 . S
H822 C834 0.959 . S
H823 C837 0.929 . S
H824 C838 0.931 . S
H825 C840 0.930 . S
C826 H814 0.930 . S
C826 C827 1.399 . S
C826 C831 1.399 . S
C827 C826 1.399 . S
C827 C828 1.376 . S
C828 H815 0.930 . S
C828 C827 1.376 . S
C828 C829 1.388 . S
C829 H816 0.930 . S
C829 C828 1.388 . S
C829 C830 1.390 . S
C830 C829 1.390 . S
C830 C831 1.394 . S
C830 C836 1.465 . S
C831 C826 1.399 . S
C831 C830 1.394 . S
C831 C832 1.516 . S
C832 C831 1.516 . S
C832 C833 1.502 . S
C832 C834 1.561 . S
C832 C835 1.526 . S
C833 H817 0.959 . S
C833 H818 0.959 . S
C833 H819 0.961 . S
C833 C832 1.502 . S
C834 H820 0.960 . S
C834 H821 0.961 . S
C834 H822 0.959 . S
C834 C832 1.561 . S
C835 C832 1.526 . S
C835 C836 1.396 . S
C835 C840 1.390 . S
C836 C830 1.465 . S
C836 C835 1.396 . S
C836 C837 1.399 . S
C837 H823 0.929 . S
C837 C836 1.399 . S
C837 C838 1.385 . S
C838 H824 0.931 . S
C838 C837 1.385 . S
C838 C839 1.389 . S
C839 C838 1.389 . S
C839 C840 1.387 . S
C840 H825 0.930 . S
C840 C835 1.390 . S
C840 C839 1.387 . S
H841 C853 0.930 . S
H842 C855 0.930 . S
H843 C856 0.930 1_455 S
H844 C860 0.959 . S
H845 C860 0.959 . S
H846 C860 0.961 . S
H847 C861 0.960 . S
H848 C861 0.961 . S
H849 C861 0.938 1_455 S
H850 C864 0.929 . S
H851 C865 0.931 . S
H852 C867 0.930 . S
C853 H841 0.930 . S
C853 C854 1.399 . S
C853 C858 1.399 . S
C854 C853 1.399 . S
C854 C855 1.376 . S
C855 H842 0.930 . S
C855 C854 1.376 . S
C855 C856 1.388 . S
C856 H843 0.930 1_655 S
C856 C855 1.388 . S
C856 C857 1.390 . S
C857 C856 1.390 . S
C857 C858 1.394 . S
C857 C863 1.465 1_655 S
C858 C853 1.399 . S
C858 C857 1.394 . S
C858 C859 1.516 . S
C859 C858 1.516 . S
C859 C860 1.502 . S
C859 C861 1.561 . S
C859 C862 1.526 1_655 S
C860 H844 0.959 . S
C860 H845 0.959 . S
C860 H846 0.961 . S
C860 C859 1.502 . S
C861 H847 0.960 . S
C861 H848 0.961 . S
C861 H849 0.938 1_655 S
C861 C859 1.561 . S
C862 C859 1.526 1_455 S
C862 C863 1.396 . S
C862 C867 1.390 . S
C863 C857 1.465 1_455 S
C863 C862 1.396 . S
C863 C864 1.399 . S
C864 H850 0.929 . S
C864 C863 1.399 . S
C864 C865 1.385 . S
C865 H851 0.931 . S
C865 C864 1.385 . S
C865 C866 1.389 . S
C866 C865 1.389 . S
C866 C867 1.387 . S
C867 H852 0.930 . S
C867 C862 1.390 . S
C867 C866 1.387 . S
H868 C880 0.930 . S
H869 C882 0.930 . S
H870 C883 0.930 . S
H871 C887 0.959 . S
H872 C887 0.959 . S
H873 C887 0.961 . S
H874 C888 0.959 . S
H875 C888 0.963 1_455 S
H876 C888 0.955 . S
H877 C891 0.929 . S
H878 C892 0.931 . S
H879 C894 0.930 . S
C880 H868 0.930 . S
C880 C881 1.399 . S
C880 C885 1.399 . S
C881 C880 1.399 . S
C881 C882 1.376 1_556 S
C882 H869 0.930 . S
C882 C881 1.376 1_554 S
C882 C883 1.388 . S
C883 H870 0.930 . S
C883 C882 1.388 . S
C883 C884 1.390 . S
C884 C883 1.390 . S
C884 C885 1.394 1_554 S
C884 C890 1.465 . S
C885 C880 1.399 . S
C885 C884 1.394 1_556 S
C885 C886 1.516 1_655 S
C886 C885 1.516 1_455 S
C886 C887 1.502 . S
C886 C888 1.563 1_455 S
C886 C889 1.526 . S
C887 H871 0.959 . S
C887 H872 0.959 . S
C887 H873 0.961 . S
C887 C886 1.502 . S
C888 H874 0.959 . S
C888 H875 0.963 1_655 S
C888 H876 0.955 . S
C888 C886 1.563 1_655 S
C889 C886 1.526 . S
C889 C890 1.396 1_456 S
C889 C894 1.390 . S
C890 C884 1.465 . S
C890 C889 1.396 1_654 S
C890 C891 1.399 . S
C891 H877 0.929 . S
C891 C890 1.399 . S
C891 C892 1.385 1_655 S
C892 H878 0.931 . S
C892 C891 1.385 1_455 S
C892 C893 1.389 . S
C893 C892 1.389 . S
C893 C894 1.387 1_554 S
C894 H879 0.930 . S
C894 C889 1.390 . S
C894 C893 1.387 1_556 S
H895 C907 0.930 . S
H896 C909 0.937 . S
H897 C910 0.930 . S
H898 C914 0.959 . S
H899 C914 0.959 . S
H900 C914 0.961 . S
H901 C915 0.960 . S
H902 C915 0.961 1_655 S
H903 C915 0.959 1_545 S
H904 C918 0.929 . S
H905 C919 0.931 . S
H906 C921 0.930 . S
C907 H895 0.930 . S
C907 C908 1.399 1_554 S
C907 C912 1.399 . S
C908 C907 1.399 1_556 S
C908 C909 1.376 . S
C909 H896 0.937 . S
C909 C908 1.376 . S
C909 C910 1.388 1_565 S
C910 H897 0.930 . S
C910 C909 1.388 1_545 S
C910 C911 1.390 . S
C911 C910 1.390 . S
C911 C912 1.394 1_546 S
C911 C917 1.465 1_455 S
C912 C907 1.399 . S
C912 C911 1.394 1_564 S
C912 C913 1.516 1_455 S
C913 C912 1.516 1_655 S
C913 C914 1.502 . S
C913 C915 1.561 1_655 S
C913 C916 1.526 1_565 S
C914 H898 0.959 . S
C914 H899 0.959 . S
C914 H900 0.961 . S
C914 C913 1.502 . S
C915 H901 0.960 . S
C915 H902 0.961 1_455 S
C915 H903 0.959 1_565 S
C915 C913 1.561 1_455 S
C916 C913 1.526 1_545 S
C916 C917 1.396 1_554 S
C916 C921 1.390 . S
C917 C911 1.465 1_655 S
C917 C916 1.396 1_556 S
C917 C918 1.399 . S
C918 H904 0.929 . S
C918 C917 1.399 . S
C918 C919 1.385 . S
C919 H905 0.931 . S
C919 C918 1.385 . S
C919 C920 1.389 1_556 S
C920 C919 1.389 1_554 S
C920 C921 1.387 . S
C921 H906 0.930 . S
C921 C916 1.390 . S
C921 C920 1.387 . S
H922 C934 0.930 . S
H923 C936 0.930 . S
H924 C937 0.930 1_565 S
H925 C941 0.959 . S
H926 C941 0.959 . S
H927 C941 0.961 . S
H928 C942 0.960 . S
H929 C942 0.961 . S
H930 C942 0.959 . S
H931 C945 0.929 . S
H932 C946 0.931 . S
H933 C948 0.930 1_556 S
C934 H922 0.930 . S
C934 C935 1.399 . S
C934 C939 1.399 . S
C935 C934 1.399 . S
C935 C936 1.376 . S
C936 H923 0.930 . S
C936 C935 1.376 . S
C936 C937 1.388 1_556 S
C937 H924 0.930 1_545 S
C937 C936 1.388 1_554 S
C937 C938 1.390 1_554 S
C938 C937 1.390 1_556 S
C938 C939 1.394 . S
C938 C944 1.465 1_546 S
C939 C934 1.399 . S
C939 C938 1.394 . S
C939 C940 1.516 . S
C940 C939 1.516 . S
C940 C941 1.502 1_556 S
C940 C942 1.561 . S
C940 C943 1.526 1_545 S
C941 H925 0.959 . S
C941 H926 0.959 . S
C941 H927 0.961 . S
C941 C940 1.502 1_554 S
C942 H928 0.960 . S
C942 H929 0.961 . S
C942 H930 0.959 . S
C942 C940 1.561 . S
C943 C940 1.526 1_565 S
C943 C944 1.396 1_556 S
C943 C948 1.390 1_556 S
C944 C938 1.465 1_564 S
C944 C943 1.396 1_554 S
C944 C945 1.399 . S
C945 H931 0.929 . S
C945 C944 1.399 . S
C945 C946 1.385 . S
C946 H932 0.931 . S
C946 C945 1.385 . S
C946 C947 1.389 . S
C947 C946 1.389 . S
C947 C948 1.387 . S
C948 H933 0.930 1_554 S
C948 C943 1.390 1_554 S
C948 C947 1.387 . S
H949 C961 0.930 . S
H950 C963 0.930 . S
H951 C964 0.930 . S
H952 C968 0.959 . S
H953 C968 0.959 . S
H954 C968 0.961 . S
H955 C969 0.960 . S
H956 C969 0.961 . S
H957 C969 0.959 . S
H958 C972 0.929 . S
H959 C973 0.931 . S
H960 C975 0.930 . S
C961 H949 0.930 . S
C961 C962 1.399 1_554 S
C961 C966 1.399 . S
C962 C961 1.399 1_556 S
C962 C963 1.376 . S
C963 H950 0.930 . S
C963 C962 1.376 . S
C963 C964 1.388 . S
C964 H951 0.930 . S
C964 C963 1.388 . S
C964 C965 1.390 . S
C965 C964 1.390 . S
C965 C966 1.394 1_556 S
C965 C971 1.465 . S
C966 C961 1.399 . S
C966 C965 1.394 1_554 S
C966 C967 1.516 . S
C967 C966 1.516 . S
C967 C968 1.502 . S
C967 C969 1.561 . S
C967 C970 1.526 . S
C968 H952 0.959 . S
C968 H953 0.959 . S
C968 H954 0.961 . S
C968 C967 1.502 . S
C969 H955 0.960 . S
C969 H956 0.961 . S
C969 H957 0.959 . S
C969 C967 1.561 . S
C970 C967 1.526 . S
C970 C971 1.396 1_554 S
C970 C975 1.390 . S
C971 C965 1.465 . S
C971 C970 1.396 1_556 S
C971 C972 1.399 . S
C972 H958 0.929 . S
C972 C971 1.399 . S
C972 C973 1.385 . S
C973 H959 0.931 . S
C973 C972 1.385 . S
C973 C974 1.389 1_556 S
C974 C973 1.389 1_554 S
C974 C975 1.387 . S
C975 H960 0.930 . S
C975 C970 1.390 . S
C975 C974 1.387 . S
H976 C988 0.930 . S
H977 C990 0.930 . S
H978 C991 0.930 . S
H979 C995 0.959 . S
H980 C995 0.959 . S
H981 C995 0.961 . S
H982 C996 0.960 . S
H983 C996 0.961 . S
H984 C996 0.959 . S
H985 C999 0.929 . S
H986 C1000 0.931 . S
H987 C1002 0.930 . S
C988 H976 0.930 . S
C988 C989 1.399 . S
C988 C993 1.399 . S
C989 C988 1.399 . S
C989 C990 1.376 . S
C990 H977 0.930 . S
C990 C989 1.376 . S
C990 C991 1.388 . S
C991 H978 0.930 . S
C991 C990 1.388 . S
C991 C992 1.390 . S
C992 C991 1.390 . S
C992 C993 1.394 . S
C992 C998 1.465 . S
C993 C988 1.399 . S
C993 C992 1.394 . S
C993 C994 1.516 . S
C994 C993 1.516 . S
C994 C995 1.502 . S
C994 C996 1.561 . S
C994 C997 1.526 . S
C995 H979 0.959 . S
C995 H980 0.959 . S
C995 H981 0.961 . S
C995 C994 1.502 . S
C996 H982 0.960 . S
C996 H983 0.961 . S
C996 H984 0.959 . S
C996 C994 1.561 . S
C997 C994 1.526 . S
C997 C998 1.396 . S
C997 C1002 1.390 . S
C998 C992 1.465 . S
C998 C997 1.396 . S
C998 C999 1.399 . S
C999 H985 0.929 . S
C999 C998 1.399 . S
C999 C1000 1.385 . S
C1000 H986 0.931 . S
C1000 C999 1.385 . S
C1000 C1001 1.389 . S
C1001 C1000 1.389 . S
C1001 C1002 1.387 . S
C1002 H987 0.930 . S
C1002 C997 1.390 . S
C1002 C1001 1.387 . S
H1003 C1015 0.930 . S
H1004 C1017 0.930 . S
H1005 C1018 0.930 . S
H1006 C1022 0.959 1_565 S
H1007 C1022 0.959 . S
H1008 C1022 0.961 . S
H1009 C1023 0.960 . S
H1010 C1023 0.961 . S
H1011 C1023 0.959 . S
H1012 C1026 0.929 . S
H1013 C1027 0.931 . S
H1014 C1029 0.930 . S
C1015 H1003 0.930 . S
C1015 C1016 1.399 . S
C1015 C1020 1.399 . S
C1016 C1015 1.399 . S
C1016 C1017 1.376 . S
C1017 H1004 0.930 . S
C1017 C1016 1.376 . S
C1017 C1018 1.388 . S
C1018 H1005 0.930 . S
C1018 C1017 1.388 . S
C1018 C1019 1.390 . S
C1019 C1018 1.390 . S
C1019 C1020 1.394 . S
C1019 C1025 1.465 . S
C1020 C1015 1.399 . S
C1020 C1019 1.394 . S
C1020 C1021 1.516 . S
C1021 C1020 1.516 . S
C1021 C1022 1.502 1_565 S
C1021 C1023 1.561 1_565 S
C1021 C1024 1.526 . S
C1022 H1006 0.959 1_545 S
C1022 H1007 0.959 . S
C1022 H1008 0.961 . S
C1022 C1021 1.502 1_545 S
C1023 H1009 0.960 . S
C1023 H1010 0.961 . S
C1023 H1011 0.959 . S
C1023 C1021 1.561 1_545 S
C1024 C1021 1.526 . S
C1024 C1025 1.396 . S
C1024 C1029 1.390 . S
C1025 C1019 1.465 . S
C1025 C1024 1.396 . S
C1025 C1026 1.399 . S
C1026 H1012 0.929 . S
C1026 C1025 1.399 . S
C1026 C1027 1.385 . S
C1027 H1013 0.931 . S
C1027 C1026 1.385 . S
C1027 C1028 1.389 . S
C1028 C1027 1.389 . S
C1028 C1029 1.387 . S
C1029 H1014 0.930 . S
C1029 C1024 1.390 . S
C1029 C1028 1.387 . S
H1030 C1042 0.930 . S
H1031 C1044 0.930 . S
H1032 C1045 0.930 . S
H1033 C1049 0.959 . S
H1034 C1049 0.959 . S
H1035 C1049 0.961 . S
H1036 C1050 0.960 . S
H1037 C1050 0.961 . S
H1038 C1050 0.959 . S
H1039 C1053 0.929 . S
H1040 C1054 0.931 . S
H1041 C1056 0.930 . S
C1042 H1030 0.930 . S
C1042 C1043 1.399 . S
C1042 C1047 1.399 . S
C1043 C1042 1.399 . S
C1043 C1044 1.376 . S
C1044 H1031 0.930 . S
C1044 C1043 1.376 . S
C1044 C1045 1.388 . S
C1045 H1032 0.930 . S
C1045 C1044 1.388 . S
C1045 C1046 1.390 . S
C1046 C1045 1.390 . S
C1046 C1047 1.394 . S
C1046 C1052 1.465 . S
C1047 C1042 1.399 . S
C1047 C1046 1.394 . S
C1047 C1048 1.516 . S
C1048 C1047 1.516 . S
C1048 C1049 1.502 . S
C1048 C1050 1.561 . S
C1048 C1051 1.526 . S
C1049 H1033 0.959 . S
C1049 H1034 0.959 . S
C1049 H1035 0.961 . S
C1049 C1048 1.502 . S
C1050 H1036 0.960 . S
C1050 H1037 0.961 . S
C1050 H1038 0.959 . S
C1050 C1048 1.561 . S
C1051 C1048 1.526 . S
C1051 C1052 1.396 . S
C1051 C1056 1.390 . S
C1052 C1046 1.465 . S
C1052 C1051 1.396 . S
C1052 C1053 1.399 . S
C1053 H1039 0.929 . S
C1053 C1052 1.399 . S
C1053 C1054 1.385 . S
C1054 H1040 0.931 . S
C1054 C1053 1.385 . S
C1054 C1055 1.389 . S
C1055 C1054 1.389 . S
C1055 C1056 1.387 . S
C1056 H1041 0.930 . S
C1056 C1051 1.390 . S
C1056 C1055 1.387 . S
H1057 C1069 0.930 . S
H1058 C1071 0.930 . S
H1059 C1072 0.930 . S
H1060 C1076 0.959 . S
H1061 C1076 0.959 . S
H1062 C1076 0.961 . S
H1063 C1077 0.960 . S
H1064 C1077 0.961 . S
H1065 C1077 0.959 . S
H1066 C1080 0.929 . S
H1067 C1081 0.931 . S
H1068 C1083 0.930 . S
C1069 H1057 0.930 . S
C1069 C1070 1.399 . S
C1069 C1074 1.399 . S
C1070 C1069 1.399 . S
C1070 C1071 1.376 . S
C1071 H1058 0.930 . S
C1071 C1070 1.376 . S
C1071 C1072 1.388 . S
C1072 H1059 0.930 . S
C1072 C1071 1.388 . S
C1072 C1073 1.390 . S
C1073 C1072 1.390 . S
C1073 C1074 1.394 . S
C1073 C1079 1.465 . S
C1074 C1069 1.399 . S
C1074 C1073 1.394 . S
C1074 C1075 1.516 . S
C1075 C1074 1.516 . S
C1075 C1076 1.502 . S
C1075 C1077 1.561 . S
C1075 C1078 1.526 . S
C1076 H1060 0.959 . S
C1076 H1061 0.959 . S
C1076 H1062 0.961 . S
C1076 C1075 1.502 . S
C1077 H1063 0.960 . S
C1077 H1064 0.961 . S
C1077 H1065 0.959 . S
C1077 C1075 1.561 . S
C1078 C1075 1.526 . S
C1078 C1079 1.396 . S
C1078 C1083 1.390 . S
C1079 C1073 1.465 . S
C1079 C1078 1.396 . S
C1079 C1080 1.399 . S
C1080 H1066 0.929 . S
C1080 C1079 1.399 . S
C1080 C1081 1.385 . S
C1081 H1067 0.931 . S
C1081 C1080 1.385 . S
C1081 C1082 1.389 . S
C1082 C1081 1.389 . S
C1082 C1083 1.387 . S
C1083 H1068 0.930 . S
C1083 C1078 1.390 . S
C1083 C1082 1.387 . S
H1084 C1096 0.930 . S
H1085 C1098 0.930 . S
H1086 C1099 0.930 . S
H1087 C1103 0.959 . S
H1088 C1103 0.959 . S
H1089 C1103 0.961 . S
H1090 C1104 0.960 . S
H1091 C1104 0.961 . S
H1092 C1104 0.959 . S
H1093 C1107 0.929 . S
H1094 C1108 0.931 . S
H1095 C1110 0.930 . S
C1096 H1084 0.930 . S
C1096 C1097 1.399 . S
C1096 C1101 1.399 . S
C1097 C1096 1.399 . S
C1097 C1098 1.376 . S
C1098 H1085 0.930 . S
C1098 C1097 1.376 . S
C1098 C1099 1.388 . S
C1099 H1086 0.930 . S
C1099 C1098 1.388 . S
C1099 C1100 1.390 . S
C1100 C1099 1.390 . S
C1100 C1101 1.394 . S
C1100 C1106 1.465 . S
C1101 C1096 1.399 . S
C1101 C1100 1.394 . S
C1101 C1102 1.516 . S
C1102 C1101 1.516 . S
C1102 C1103 1.502 . S
C1102 C1104 1.561 . S
C1102 C1105 1.526 . S
C1103 H1087 0.959 . S
C1103 H1088 0.959 . S
C1103 H1089 0.961 . S
C1103 C1102 1.502 . S
C1104 H1090 0.960 . S
C1104 H1091 0.961 . S
C1104 H1092 0.959 . S
C1104 C1102 1.561 . S
C1105 C1102 1.526 . S
C1105 C1106 1.396 . S
C1105 C1110 1.390 . S
C1106 C1100 1.465 . S
C1106 C1105 1.396 . S
C1106 C1107 1.399 . S
C1107 H1093 0.929 . S
C1107 C1106 1.399 . S
C1107 C1108 1.385 . S
C1108 H1094 0.931 . S
C1108 C1107 1.385 . S
C1108 C1109 1.389 . S
C1109 C1108 1.389 . S
C1109 C1110 1.387 . S
C1110 H1095 0.930 . S
C1110 C1105 1.390 . S
C1110 C1109 1.387 . S
H1111 C1123 0.930 . S
H1112 C1125 0.930 . S
H1113 C1126 0.930 1_565 S
H1114 C1130 0.959 . S
H1115 C1130 0.959 . S
H1116 C1130 0.961 . S
H1117 C1131 0.960 . S
H1118 C1131 0.961 . S
H1119 C1131 0.959 . S
H1120 C1134 0.929 1_565 S
H1121 C1135 0.931 . S
H1122 C1137 0.930 . S
C1123 H1111 0.930 . S
C1123 C1124 1.399 . S
C1123 C1128 1.399 . S
C1124 C1123 1.399 . S
C1124 C1125 1.376 . S
C1125 H1112 0.930 . S
C1125 C1124 1.376 . S
C1125 C1126 1.388 . S
C1126 H1113 0.930 1_545 S
C1126 C1125 1.388 . S
C1126 C1127 1.390 . S
C1127 C1126 1.390 . S
C1127 C1128 1.394 . S
C1127 C1133 1.465 . S
C1128 C1123 1.399 . S
C1128 C1127 1.394 . S
C1128 C1129 1.516 . S
C1129 C1128 1.516 . S
C1129 C1130 1.502 . S
C1129 C1131 1.561 . S
C1129 C1132 1.526 . S
C1130 H1114 0.959 . S
C1130 H1115 0.959 . S
C1130 H1116 0.961 . S
C1130 C1129 1.502 . S
C1131 H1117 0.960 . S
C1131 H1118 0.961 . S
C1131 H1119 0.959 . S
C1131 C1129 1.561 . S
C1132 C1129 1.526 . S
C1132 C1133 1.396 . S
C1132 C1137 1.390 . S
C1133 C1127 1.465 . S
C1133 C1132 1.396 . S
C1133 C1134 1.399 . S
C1134 H1120 0.929 1_545 S
C1134 C1133 1.399 . S
C1134 C1135 1.385 . S
C1135 H1121 0.931 . S
C1135 C1134 1.385 . S
C1135 C1136 1.389 . S
C1136 C1135 1.389 . S
C1136 C1137 1.387 . S
C1137 H1122 0.930 . S
C1137 C1132 1.390 . S
C1137 C1136 1.387 . S
H1138 C1150 0.930 . S
H1139 C1152 0.930 . S
H1140 C1153 0.930 . S
H1141 C1157 0.959 . S
H1142 C1157 0.959 . S
H1143 C1157 0.961 . S
H1144 C1158 0.960 . S
H1145 C1158 0.961 . S
H1146 C1158 0.959 . S
H1147 C1161 0.929 . S
H1148 C1162 0.931 . S
H1149 C1164 0.930 . S
C1150 H1138 0.930 . S
C1150 C1151 1.399 . S
C1150 C1155 1.399 . S
C1151 C1150 1.399 . S
C1151 C1152 1.376 . S
C1152 H1139 0.930 . S
C1152 C1151 1.376 . S
C1152 C1153 1.388 . S
C1153 H1140 0.930 . S
C1153 C1152 1.388 . S
C1153 C1154 1.390 . S
C1154 C1153 1.390 . S
C1154 C1155 1.394 . S
C1154 C1160 1.465 . S
C1155 C1150 1.399 . S
C1155 C1154 1.394 . S
C1155 C1156 1.516 . S
C1156 C1155 1.516 . S
C1156 C1157 1.502 . S
C1156 C1158 1.561 . S
C1156 C1159 1.526 . S
C1157 H1141 0.959 . S
C1157 H1142 0.959 . S
C1157 H1143 0.961 . S
C1157 C1156 1.502 . S
C1158 H1144 0.960 . S
C1158 H1145 0.961 . S
C1158 H1146 0.959 . S
C1158 C1156 1.561 . S
C1159 C1156 1.526 . S
C1159 C1160 1.396 . S
C1159 C1164 1.390 . S
C1160 C1154 1.465 . S
C1160 C1159 1.396 . S
C1160 C1161 1.399 . S
C1161 H1147 0.929 . S
C1161 C1160 1.399 . S
C1161 C1162 1.385 . S
C1162 H1148 0.931 . S
C1162 C1161 1.385 . S
C1162 C1163 1.389 . S
C1163 C1162 1.389 . S
C1163 C1164 1.387 . S
C1164 H1149 0.930 . S
C1164 C1159 1.390 . S
C1164 C1163 1.387 . S
H1165 C1177 0.930 . S
H1166 C1179 0.930 . S
H1167 C1180 0.930 . S
H1168 C1184 0.959 . S
H1169 C1184 0.959 . S
H1170 C1184 0.961 . S
H1171 C1185 0.960 . S
H1172 C1185 0.961 . S
H1173 C1185 0.959 . S
H1174 C1188 0.929 . S
H1175 C1189 0.931 . S
H1176 C1191 0.930 . S
C1177 H1165 0.930 . S
C1177 C1178 1.399 . S
C1177 C1182 1.399 . S
C1178 C1177 1.399 . S
C1178 C1179 1.376 . S
C1179 H1166 0.930 . S
C1179 C1178 1.376 . S
C1179 C1180 1.388 . S
C1180 H1167 0.930 . S
C1180 C1179 1.388 . S
C1180 C1181 1.390 . S
C1181 C1180 1.390 . S
C1181 C1182 1.394 . S
C1181 C1187 1.465 . S
C1182 C1177 1.399 . S
C1182 C1181 1.394 . S
C1182 C1183 1.516 . S
C1183 C1182 1.516 . S
C1183 C1184 1.502 . S
C1183 C1185 1.561 . S
C1183 C1186 1.526 . S
C1184 H1168 0.959 . S
C1184 H1169 0.959 . S
C1184 H1170 0.961 . S
C1184 C1183 1.502 . S
C1185 H1171 0.960 . S
C1185 H1172 0.961 . S
C1185 H1173 0.959 . S
C1185 C1183 1.561 . S
C1186 C1183 1.526 . S
C1186 C1187 1.396 . S
C1186 C1191 1.390 . S
C1187 C1181 1.465 . S
C1187 C1186 1.396 . S
C1187 C1188 1.399 . S
C1188 H1174 0.929 . S
C1188 C1187 1.399 . S
C1188 C1189 1.385 . S
C1189 H1175 0.931 . S
C1189 C1188 1.385 . S
C1189 C1190 1.389 . S
C1190 C1189 1.389 . S
C1190 C1191 1.387 . S
C1191 H1176 0.930 . S
C1191 C1186 1.390 . S
C1191 C1190 1.387 . S
H1192 C1204 0.930 . S
H1193 C1206 0.930 . S
H1194 C1207 0.930 . S
H1195 C1211 0.959 . S
H1196 C1211 0.959 . S
H1197 C1211 0.961 . S
H1198 C1212 0.960 . S
H1199 C1212 0.961 . S
H1200 C1212 0.959 . S
H1201 C1215 0.929 . S
H1202 C1216 0.931 . S
H1203 C1218 0.930 . S
C1204 H1192 0.930 . S
C1204 C1205 1.399 . S
C1204 C1209 1.399 . S
C1205 C1204 1.399 . S
C1205 C1206 1.376 . S
C1206 H1193 0.930 . S
C1206 C1205 1.376 . S
C1206 C1207 1.388 . S
C1207 H1194 0.930 . S
C1207 C1206 1.388 . S
C1207 C1208 1.390 . S
C1208 C1207 1.390 . S
C1208 C1209 1.394 . S
C1208 C1214 1.465 . S
C1209 C1204 1.399 . S
C1209 C1208 1.394 . S
C1209 C1210 1.516 . S
C1210 C1209 1.516 . S
C1210 C1211 1.502 . S
C1210 C1212 1.561 . S
C1210 C1213 1.526 . S
C1211 H1195 0.959 . S
C1211 H1196 0.959 . S
C1211 H1197 0.961 . S
C1211 C1210 1.502 . S
C1212 H1198 0.960 . S
C1212 H1199 0.961 . S
C1212 H1200 0.959 . S
C1212 C1210 1.561 . S
C1213 C1210 1.526 . S
C1213 C1214 1.396 . S
C1213 C1218 1.390 . S
C1214 C1208 1.465 . S
C1214 C1213 1.396 . S
C1214 C1215 1.399 . S
C1215 H1201 0.929 . S
C1215 C1214 1.399 . S
C1215 C1216 1.385 . S
C1216 H1202 0.931 . S
C1216 C1215 1.385 . S
C1216 C1217 1.389 . S
C1217 C1216 1.389 . S
C1217 C1218 1.387 . S
C1218 H1203 0.930 . S
C1218 C1213 1.390 . S
C1218 C1217 1.387 . S
H1219 C1231 0.930 . S
H1220 C1233 0.930 . S
H1221 C1234 0.930 . S
H1222 C1238 0.959 . S
H1223 C1238 0.959 . S
H1224 C1238 0.961 . S
H1225 C1239 0.960 . S
H1226 C1239 0.961 . S
H1227 C1239 0.959 . S
H1228 C1242 0.929 . S
H1229 C1243 0.931 . S
H1230 C1245 0.930 . S
C1231 H1219 0.930 . S
C1231 C1232 1.399 . S
C1231 C1236 1.399 . S
C1232 C1231 1.399 . S
C1232 C1233 1.376 . S
C1233 H1220 0.930 . S
C1233 C1232 1.376 . S
C1233 C1234 1.388 . S
C1234 H1221 0.930 . S
C1234 C1233 1.388 . S
C1234 C1235 1.390 . S
C1235 C1234 1.390 . S
C1235 C1236 1.394 . S
C1235 C1241 1.465 . S
C1236 C1231 1.399 . S
C1236 C1235 1.394 . S
C1236 C1237 1.516 . S
C1237 C1236 1.516 . S
C1237 C1238 1.502 . S
C1237 C1239 1.561 . S
C1237 C1240 1.526 . S
C1238 H1222 0.959 . S
C1238 H1223 0.959 . S
C1238 H1224 0.961 . S
C1238 C1237 1.502 . S
C1239 H1225 0.960 . S
C1239 H1226 0.961 . S
C1239 H1227 0.959 . S
C1239 C1237 1.561 . S
C1240 C1237 1.526 . S
C1240 C1241 1.396 . S
C1240 C1245 1.390 . S
C1241 C1235 1.465 . S
C1241 C1240 1.396 . S
C1241 C1242 1.399 . S
C1242 H1228 0.929 . S
C1242 C1241 1.399 . S
C1242 C1243 1.385 . S
C1243 H1229 0.931 . S
C1243 C1242 1.385 . S
C1243 C1244 1.389 . S
C1244 C1243 1.389 . S
C1244 C1245 1.387 . S
C1245 H1230 0.930 . S
C1245 C1240 1.390 . S
C1245 C1244 1.387 . S
H1246 C1258 0.930 . S
H1247 C1260 0.930 . S
H1248 C1261 0.930 . S
H1249 C1265 0.959 . S
H1250 C1265 0.959 . S
H1251 C1265 0.961 . S
H1252 C1266 0.960 . S
H1253 C1266 0.961 . S
H1254 C1266 0.959 . S
H1255 C1269 0.929 . S
H1256 C1270 0.931 . S
H1257 C1272 0.930 . S
C1258 H1246 0.930 . S
C1258 C1259 1.399 . S
C1258 C1263 1.399 . S
C1259 C1258 1.399 . S
C1259 C1260 1.376 . S
C1260 H1247 0.930 . S
C1260 C1259 1.376 . S
C1260 C1261 1.388 . S
C1261 H1248 0.930 . S
C1261 C1260 1.388 . S
C1261 C1262 1.390 . S
C1262 C1261 1.390 . S
C1262 C1263 1.394 . S
C1262 C1268 1.465 . S
C1263 C1258 1.399 . S
C1263 C1262 1.394 . S
C1263 C1264 1.516 . S
C1264 C1263 1.516 . S
C1264 C1265 1.502 . S
C1264 C1266 1.561 . S
C1264 C1267 1.526 . S
C1265 H1249 0.959 . S
C1265 H1250 0.959 . S
C1265 H1251 0.961 . S
C1265 C1264 1.502 . S
C1266 H1252 0.960 . S
C1266 H1253 0.961 . S
C1266 H1254 0.959 . S
C1266 C1264 1.561 . S
C1267 C1264 1.526 . S
C1267 C1268 1.396 . S
C1267 C1272 1.390 . S
C1268 C1262 1.465 . S
C1268 C1267 1.396 . S
C1268 C1269 1.399 . S
C1269 H1255 0.929 . S
C1269 C1268 1.399 . S
C1269 C1270 1.385 . S
C1270 H1256 0.931 . S
C1270 C1269 1.385 . S
C1270 C1271 1.389 . S
C1271 C1270 1.389 . S
C1271 C1272 1.387 . S
C1272 H1257 0.930 . S
C1272 C1267 1.390 . S
C1272 C1271 1.387 . S
H1273 C1285 0.930 . S
H1274 C1287 0.930 . S
H1275 C1288 0.930 . S
H1276 C1292 0.959 . S
H1277 C1292 0.959 . S
H1278 C1292 0.961 . S
H1279 C1293 0.960 . S
H1280 C1293 0.961 . S
H1281 C1293 0.959 . S
H1282 C1296 0.929 . S
H1283 C1297 0.931 . S
H1284 C1299 0.930 . S
C1285 H1273 0.930 . S
C1285 C1286 1.399 . S
C1285 C1290 1.399 . S
C1286 C1285 1.399 . S
C1286 C1287 1.376 . S
C1287 H1274 0.930 . S
C1287 C1286 1.376 . S
C1287 C1288 1.388 . S
C1288 H1275 0.930 . S
C1288 C1287 1.388 . S
C1288 C1289 1.390 . S
C1289 C1288 1.390 . S
C1289 C1290 1.394 . S
C1289 C1295 1.465 . S
C1290 C1285 1.399 . S
C1290 C1289 1.394 . S
C1290 C1291 1.516 . S
C1291 C1290 1.516 . S
C1291 C1292 1.502 . S
C1291 C1293 1.561 . S
C1291 C1294 1.526 . S
C1292 H1276 0.959 . S
C1292 H1277 0.959 . S
C1292 H1278 0.961 . S
C1292 C1291 1.502 . S
C1293 H1279 0.960 . S
C1293 H1280 0.961 . S
C1293 H1281 0.959 . S
C1293 C1291 1.561 . S
C1294 C1291 1.526 . S
C1294 C1295 1.396 . S
C1294 C1299 1.390 . S
C1295 C1289 1.465 . S
C1295 C1294 1.396 . S
C1295 C1296 1.399 . S
C1296 H1282 0.929 . S
C1296 C1295 1.399 . S
C1296 C1297 1.385 . S
C1297 H1283 0.931 . S
C1297 C1296 1.385 . S
C1297 C1298 1.389 . S
C1298 C1297 1.389 . S
C1298 C1299 1.387 . S
C1299 H1284 0.930 . S
C1299 C1294 1.390 . S
C1299 C1298 1.387 . S
H1300 C1312 0.930 . S
H1301 C1314 0.930 . S
H1302 C1315 0.930 . S
H1303 C1319 0.959 . S
H1304 C1319 0.959 . S
H1305 C1319 0.961 . S
H1306 C1320 0.960 . S
H1307 C1320 0.961 . S
H1308 C1320 0.959 . S
H1309 C1323 0.929 . S
H1310 C1324 0.931 . S
H1311 C1326 0.930 1_554 S
C1312 H1300 0.930 . S
C1312 C1313 1.399 1_554 S
C1312 C1317 1.399 . S
C1313 C1312 1.399 1_556 S
C1313 C1314 1.376 . S
C1314 H1301 0.930 . S
C1314 C1313 1.376 . S
C1314 C1315 1.388 . S
C1315 H1302 0.930 . S
C1315 C1314 1.388 . S
C1315 C1316 1.390 . S
C1316 C1315 1.390 . S
C1316 C1317 1.394 1_556 S
C1316 C1322 1.465 . S
C1317 C1312 1.399 . S
C1317 C1316 1.394 1_554 S
C1317 C1318 1.516 . S
C1318 C1317 1.516 . S
C1318 C1319 1.502 . S
C1318 C1320 1.561 . S
C1318 C1321 1.526 1_554 S
C1319 H1303 0.959 . S
C1319 H1304 0.959 . S
C1319 H1305 0.961 . S
C1319 C1318 1.502 . S
C1320 H1306 0.960 . S
C1320 H1307 0.961 . S
C1320 H1308 0.959 . S
C1320 C1318 1.561 . S
C1321 C1318 1.526 1_556 S
C1321 C1322 1.396 . S
C1321 C1326 1.390 . S
C1322 C1316 1.465 . S
C1322 C1321 1.396 . S
C1322 C1323 1.399 . S
C1323 H1309 0.929 . S
C1323 C1322 1.399 . S
C1323 C1324 1.385 . S
C1324 H1310 0.931 . S
C1324 C1323 1.385 . S
C1324 C1325 1.389 . S
C1325 C1324 1.389 . S
C1325 C1326 1.387 . S
C1326 H1311 0.930 1_556 S
C1326 C1321 1.390 . S
C1326 C1325 1.387 . S
H1327 C1339 0.930 . S
H1328 C1341 0.930 . S
H1329 C1342 0.930 . S
H1330 C1346 0.959 1_556 S
H1331 C1346 0.959 . S
H1332 C1346 0.961 . S
H1333 C1347 0.960 . S
H1334 C1347 0.961 . S
H1335 C1347 0.959 . S
H1336 C1350 0.929 . S
H1337 C1351 0.931 . S
H1338 C1353 0.930 . S
C1339 H1327 0.930 . S
C1339 C1340 1.399 . S
C1339 C1344 1.399 . S
C1340 C1339 1.399 . S
C1340 C1341 1.376 . S
C1341 H1328 0.930 . S
C1341 C1340 1.376 . S
C1341 C1342 1.388 . S
C1342 H1329 0.930 . S
C1342 C1341 1.388 . S
C1342 C1343 1.390 . S
C1343 C1342 1.390 . S
C1343 C1344 1.394 . S
C1343 C1349 1.465 . S
C1344 C1339 1.399 . S
C1344 C1343 1.394 . S
C1344 C1345 1.516 1_556 S
C1345 C1344 1.516 1_554 S
C1345 C1346 1.502 . S
C1345 C1347 1.561 . S
C1345 C1348 1.528 . S
C1346 H1330 0.959 1_554 S
C1346 H1331 0.959 . S
C1346 H1332 0.961 . S
C1346 C1345 1.502 . S
C1347 H1333 0.960 . S
C1347 H1334 0.961 . S
C1347 H1335 0.959 . S
C1347 C1345 1.561 . S
C1348 C1345 1.528 . S
C1348 C1349 1.391 1_554 S
C1348 C1353 1.392 . S
C1349 C1343 1.465 . S
C1349 C1348 1.391 1_556 S
C1349 C1350 1.399 . S
C1350 H1336 0.929 . S
C1350 C1349 1.399 . S
C1350 C1351 1.385 . S
C1351 H1337 0.931 . S
C1351 C1350 1.385 . S
C1351 C1352 1.378 1_556 S
C1352 C1351 1.378 1_554 S
C1352 C1353 1.392 . S
C1353 H1338 0.930 . S
C1353 C1348 1.392 . S
C1353 C1352 1.392 . S
H1354 C1366 0.930 . S
H1355 C1368 0.930 . S
H1356 C1369 0.930 . S
H1357 C1373 0.959 . S
H1358 C1373 0.959 . S
H1359 C1373 0.961 . S
H1360 C1374 0.960 . S
H1361 C1374 0.961 . S
H1362 C1374 0.959 . S
H1363 C1377 0.929 . S
H1364 C1378 0.931 . S
H1365 C1380 0.930 . S
C1366 H1354 0.930 . S
C1366 C1367 1.399 . S
C1366 C1371 1.399 . S
C1367 C1366 1.399 . S
C1367 C1368 1.376 1_556 S
C1368 H1355 0.930 . S
C1368 C1367 1.376 1_554 S
C1368 C1369 1.388 . S
C1369 H1356 0.930 . S
C1369 C1368 1.388 . S
C1369 C1370 1.390 1_554 S
C1370 C1369 1.390 1_556 S
C1370 C1371 1.394 . S
C1370 C1376 1.465 1_556 S
C1371 C1366 1.399 . S
C1371 C1370 1.394 . S
C1371 C1372 1.516 . S
C1372 C1371 1.516 . S
C1372 C1373 1.502 . S
C1372 C1374 1.561 . S
C1372 C1375 1.526 . S
C1373 H1357 0.959 . S
C1373 H1358 0.959 . S
C1373 H1359 0.961 . S
C1373 C1372 1.502 . S
C1374 H1360 0.960 . S
C1374 H1361 0.961 . S
C1374 H1362 0.959 . S
C1374 C1372 1.561 . S
C1375 C1372 1.526 . S
C1375 C1376 1.396 1_556 S
C1375 C1380 1.390 . S
C1376 C1370 1.465 1_554 S
C1376 C1375 1.396 1_554 S
C1376 C1377 1.399 . S
C1377 H1363 0.929 . S
C1377 C1376 1.399 . S
C1377 C1378 1.385 . S
C1378 H1364 0.931 . S
C1378 C1377 1.385 . S
C1378 C1379 1.389 . S
C1379 C1378 1.389 . S
C1379 C1380 1.387 1_554 S
C1380 H1365 0.930 . S
C1380 C1375 1.390 . S
C1380 C1379 1.387 1_556 S
H1381 C1393 0.930 . S
H1382 C1395 0.930 . S
H1383 C1396 0.930 . S
H1384 C1400 0.959 1_556 S
H1385 C1400 0.959 . S
H1386 C1400 0.961 . S
H1387 C1401 0.960 . S
H1388 C1401 0.961 . S
H1389 C1401 0.959 . S
H1390 C1404 0.929 . S
H1391 C1405 0.931 . S
H1392 C1407 0.930 . S
C1393 H1381 0.930 . S
C1393 C1394 1.399 . S
C1393 C1398 1.399 . S
C1394 C1393 1.399 . S
C1394 C1395 1.376 . S
C1395 H1382 0.930 . S
C1395 C1394 1.376 . S
C1395 C1396 1.388 . S
C1396 H1383 0.930 . S
C1396 C1395 1.388 . S
C1396 C1397 1.390 . S
C1397 C1396 1.390 . S
C1397 C1398 1.394 . S
C1397 C1403 1.465 . S
C1398 C1393 1.399 . S
C1398 C1397 1.394 . S
C1398 C1399 1.516 1_556 S
C1399 C1398 1.516 1_554 S
C1399 C1400 1.502 . S
C1399 C1401 1.561 . S
C1399 C1402 1.526 . S
C1400 H1384 0.959 1_554 S
C1400 H1385 0.959 . S
C1400 H1386 0.961 . S
C1400 C1399 1.502 . S
C1401 H1387 0.960 . S
C1401 H1388 0.961 . S
C1401 H1389 0.959 . S
C1401 C1399 1.561 . S
C1402 C1399 1.526 . S
C1402 C1403 1.396 1_554 S
C1402 C1407 1.390 . S
C1403 C1397 1.465 . S
C1403 C1402 1.396 1_556 S
C1403 C1404 1.399 . S
C1404 H1390 0.929 . S
C1404 C1403 1.399 . S
C1404 C1405 1.385 . S
C1405 H1391 0.931 . S
C1405 C1404 1.385 . S
C1405 C1406 1.389 1_556 S
C1406 C1405 1.389 1_554 S
C1406 C1407 1.387 . S
C1407 H1392 0.930 . S
C1407 C1402 1.390 . S
C1407 C1406 1.387 . S
H1408 C1420 0.930 . S
H1409 C1422 0.930 . S
H1410 C1423 0.930 . S
H1411 C1427 0.959 . S
H1412 C1427 0.959 . S
H1413 C1427 0.961 . S
H1414 C1428 0.960 . S
H1415 C1428 0.961 . S
H1416 C1428 0.959 . S
H1417 C1431 0.929 . S
H1418 C1432 0.931 1_545 S
H1419 C1434 0.930 . S
C1420 H1408 0.930 . S
C1420 C1421 1.399 . S
C1420 C1425 1.399 . S
C1421 C1420 1.399 . S
C1421 C1422 1.376 . S
C1422 H1409 0.930 . S
C1422 C1421 1.376 . S
C1422 C1423 1.388 . S
C1423 H1410 0.930 . S
C1423 C1422 1.388 . S
C1423 C1424 1.390 . S
C1424 C1423 1.390 . S
C1424 C1425 1.394 . S
C1424 C1430 1.465 . S
C1425 C1420 1.399 . S
C1425 C1424 1.394 . S
C1425 C1426 1.516 . S
C1426 C1425 1.516 . S
C1426 C1427 1.502 . S
C1426 C1428 1.561 . S
C1426 C1429 1.526 . S
C1427 H1411 0.959 . S
C1427 H1412 0.959 . S
C1427 H1413 0.961 . S
C1427 C1426 1.502 . S
C1428 H1414 0.960 . S
C1428 H1415 0.961 . S
C1428 H1416 0.959 . S
C1428 C1426 1.561 . S
C1429 C1426 1.526 . S
C1429 C1430 1.396 . S
C1429 C1434 1.390 . S
C1430 C1424 1.465 . S
C1430 C1429 1.396 . S
C1430 C1431 1.399 . S
C1431 H1417 0.929 . S
C1431 C1430 1.399 . S
C1431 C1432 1.385 . S
C1432 H1418 0.931 1_565 S
C1432 C1431 1.385 . S
C1432 C1433 1.389 . S
C1433 C1432 1.389 . S
C1433 C1434 1.387 . S
C1434 H1419 0.930 . S
C1434 C1429 1.390 . S
C1434 C1433 1.387 . S
H1435 C1447 0.930 . S
H1436 C1449 0.930 . S
H1437 C1450 0.930 . S
H1438 C1454 0.959 . S
H1439 C1454 0.959 . S
H1440 C1454 0.961 . S
H1441 C1455 0.960 . S
H1442 C1455 0.961 . S
H1443 C1455 0.959 . S
H1444 C1458 0.929 . S
H1445 C1459 0.931 . S
H1446 C1461 0.930 . S
C1447 H1435 0.930 . S
C1447 C1448 1.399 . S
C1447 C1452 1.399 . S
C1448 C1447 1.399 . S
C1448 C1449 1.376 . S
C1449 H1436 0.930 . S
C1449 C1448 1.376 . S
C1449 C1450 1.388 . S
C1450 H1437 0.930 . S
C1450 C1449 1.388 . S
C1450 C1451 1.390 . S
C1451 C1450 1.390 . S
C1451 C1452 1.394 . S
C1451 C1457 1.465 . S
C1452 C1447 1.399 . S
C1452 C1451 1.394 . S
C1452 C1453 1.516 . S
C1453 C1452 1.516 . S
C1453 C1454 1.502 . S
C1453 C1455 1.561 . S
C1453 C1456 1.526 . S
C1454 H1438 0.959 . S
C1454 H1439 0.959 . S
C1454 H1440 0.961 . S
C1454 C1453 1.502 . S
C1455 H1441 0.960 . S
C1455 H1442 0.961 . S
C1455 H1443 0.959 . S
C1455 C1453 1.561 . S
C1456 C1453 1.526 . S
C1456 C1457 1.396 . S
C1456 C1461 1.390 . S
C1457 C1451 1.465 . S
C1457 C1456 1.396 . S
C1457 C1458 1.399 . S
C1458 H1444 0.929 . S
C1458 C1457 1.399 . S
C1458 C1459 1.385 . S
C1459 H1445 0.931 . S
C1459 C1458 1.385 . S
C1459 C1460 1.389 . S
C1460 C1459 1.389 . S
C1460 C1461 1.387 . S
C1461 H1446 0.930 . S
C1461 C1456 1.390 . S
C1461 C1460 1.387 . S
H1462 C1474 0.930 . S
H1463 C1476 0.930 . S
H1464 C1477 0.930 . S
H1465 C1481 0.959 . S
H1466 C1481 0.959 . S
H1467 C1481 0.961 . S
H1468 C1482 0.960 . S
H1469 C1482 0.961 . S
H1470 C1482 0.959 . S
H1471 C1485 0.929 . S
H1472 C1486 0.931 . S
H1473 C1488 0.930 . S
C1474 H1462 0.930 . S
C1474 C1475 1.399 . S
C1474 C1479 1.399 . S
C1475 C1474 1.399 . S
C1475 C1476 1.376 . S
C1476 H1463 0.930 . S
C1476 C1475 1.376 . S
C1476 C1477 1.388 . S
C1477 H1464 0.930 . S
C1477 C1476 1.388 . S
C1477 C1478 1.390 . S
C1478 C1477 1.390 . S
C1478 C1479 1.394 . S
C1478 C1484 1.465 . S
C1479 C1474 1.399 . S
C1479 C1478 1.394 . S
C1479 C1480 1.516 . S
C1480 C1479 1.516 . S
C1480 C1481 1.502 . S
C1480 C1482 1.561 . S
C1480 C1483 1.526 . S
C1481 H1465 0.959 . S
C1481 H1466 0.959 . S
C1481 H1467 0.961 . S
C1481 C1480 1.502 . S
C1482 H1468 0.960 . S
C1482 H1469 0.961 . S
C1482 H1470 0.959 . S
C1482 C1480 1.561 . S
C1483 C1480 1.526 . S
C1483 C1484 1.396 . S
C1483 C1488 1.390 . S
C1484 C1478 1.465 . S
C1484 C1483 1.396 . S
C1484 C1485 1.399 . S
C1485 H1471 0.929 . S
C1485 C1484 1.399 . S
C1485 C1486 1.385 . S
C1486 H1472 0.931 . S
C1486 C1485 1.385 . S
C1486 C1487 1.389 . S
C1487 C1486 1.389 . S
C1487 C1488 1.387 . S
C1488 H1473 0.930 . S
C1488 C1483 1.390 . S
C1488 C1487 1.387 . S
H1489 C1501 0.930 . S
H1490 C1503 0.930 . S
H1491 C1504 0.930 . S
H1492 C1508 0.959 . S
H1493 C1508 0.959 . S
H1494 C1508 0.961 . S
H1495 C1509 0.960 . S
H1496 C1509 0.961 . S
H1497 C1509 0.959 . S
H1498 C1512 0.929 . S
H1499 C1513 0.931 . S
H1500 C1515 0.930 . S
C1501 H1489 0.930 . S
C1501 C1502 1.399 . S
C1501 C1506 1.399 . S
C1502 C1501 1.399 . S
C1502 C1503 1.376 . S
C1503 H1490 0.930 . S
C1503 C1502 1.376 . S
C1503 C1504 1.388 . S
C1504 H1491 0.930 . S
C1504 C1503 1.388 . S
C1504 C1505 1.390 . S
C1505 C1504 1.390 . S
C1505 C1506 1.394 . S
C1505 C1511 1.465 . S
C1506 C1501 1.399 . S
C1506 C1505 1.394 . S
C1506 C1507 1.516 . S
C1507 C1506 1.516 . S
C1507 C1508 1.502 . S
C1507 C1509 1.561 . S
C1507 C1510 1.526 . S
C1508 H1492 0.959 . S
C1508 H1493 0.959 . S
C1508 H1494 0.961 . S
C1508 C1507 1.502 . S
C1509 H1495 0.960 . S
C1509 H1496 0.961 . S
C1509 H1497 0.959 . S
C1509 C1507 1.561 . S
C1510 C1507 1.526 . S
C1510 C1511 1.396 . S
C1510 C1515 1.390 . S
C1511 C1505 1.465 . S
C1511 C1510 1.396 . S
C1511 C1512 1.399 . S
C1512 H1498 0.929 . S
C1512 C1511 1.399 . S
C1512 C1513 1.385 . S
C1513 H1499 0.931 . S
C1513 C1512 1.385 . S
C1513 C1514 1.389 . S
C1514 C1513 1.389 . S
C1514 C1515 1.387 . S
C1515 H1500 0.930 . S
C1515 C1510 1.390 . S
C1515 C1514 1.387 . S
H1516 C1528 0.930 . S
H1517 C1530 0.930 . S
H1518 C1531 0.930 . S
H1519 C1535 0.959 . S
H1520 C1535 0.959 . S
H1521 C1535 0.961 . S
H1522 C1536 0.960 . S
H1523 C1536 0.961 . S
H1524 C1536 0.959 . S
H1525 C1539 0.929 . S
H1526 C1540 0.931 . S
H1527 C1542 0.930 . S
C1528 H1516 0.930 . S
C1528 C1529 1.399 . S
C1528 C1533 1.399 . S
C1529 C1528 1.399 . S
C1529 C1530 1.376 . S
C1530 H1517 0.930 . S
C1530 C1529 1.376 . S
C1530 C1531 1.388 1_554 S
C1531 H1518 0.930 . S
C1531 C1530 1.388 1_556 S
C1531 C1532 1.390 1_556 S
C1532 C1531 1.390 1_554 S
C1532 C1533 1.394 . S
C1532 C1538 1.465 . S
C1533 C1528 1.399 . S
C1533 C1532 1.394 . S
C1533 C1534 1.516 . S
C1534 C1533 1.516 . S
C1534 C1535 1.502 . S
C1534 C1536 1.561 . S
C1534 C1537 1.526 . S
C1535 H1519 0.959 . S
C1535 H1520 0.959 . S
C1535 H1521 0.961 . S
C1535 C1534 1.502 . S
C1536 H1522 0.960 . S
C1536 H1523 0.961 . S
C1536 H1524 0.959 . S
C1536 C1534 1.561 . S
C1537 C1534 1.526 . S
C1537 C1538 1.396 . S
C1537 C1542 1.390 . S
C1538 C1532 1.465 . S
C1538 C1537 1.396 . S
C1538 C1539 1.399 1_554 S
C1539 H1525 0.929 . S
C1539 C1538 1.399 1_556 S
C1539 C1540 1.385 . S
C1540 H1526 0.931 . S
C1540 C1539 1.385 . S
C1540 C1541 1.389 . S
C1541 C1540 1.389 . S
C1541 C1542 1.387 1_556 S
C1542 H1527 0.930 . S
C1542 C1537 1.390 . S
C1542 C1541 1.387 1_554 S
H1543 C1555 0.930 . S
H1544 C1557 0.930 . S
H1545 C1558 0.930 . S
H1546 C1562 0.959 . S
H1547 C1562 0.959 . S
H1548 C1562 0.961 1_456 S
H1549 C1563 0.960 . S
H1550 C1563 0.961 . S
H1551 C1563 0.959 . S
H1552 C1566 0.929 . S
H1553 C1567 0.931 . S
H1554 C1569 0.930 . S
C1555 H1543 0.930 . S
C1555 C1556 1.399 . S
C1555 C1560 1.399 1_556 S
C1556 C1555 1.399 . S
C1556 C1557 1.376 1_556 S
C1557 H1544 0.930 . S
C1557 C1556 1.376 1_554 S
C1557 C1558 1.388 . S
C1558 H1545 0.930 . S
C1558 C1557 1.388 . S
C1558 C1559 1.390 . S
C1559 C1558 1.390 . S
C1559 C1560 1.394 . S
C1559 C1565 1.465 . S
C1560 C1555 1.399 1_554 S
C1560 C1559 1.394 . S
C1560 C1561 1.516 1_554 S
C1561 C1560 1.516 1_556 S
C1561 C1562 1.502 1_556 S
C1561 C1563 1.561 . S
C1561 C1564 1.526 1_556 S
C1562 H1546 0.959 . S
C1562 H1547 0.959 . S
C1562 H1548 0.961 1_654 S
C1562 C1561 1.502 1_554 S
C1563 H1549 0.960 . S
C1563 H1550 0.961 . S
C1563 H1551 0.959 . S
C1563 C1561 1.561 . S
C1564 C1561 1.526 1_554 S
C1564 C1565 1.396 . S
C1564 C1569 1.390 . S
C1565 C1559 1.465 . S
C1565 C1564 1.396 . S
C1565 C1566 1.399 . S
C1566 H1552 0.929 . S
C1566 C1565 1.399 . S
C1566 C1567 1.385 . S
C1567 H1553 0.931 . S
C1567 C1566 1.385 . S
C1567 C1568 1.389 . S
C1568 C1567 1.389 . S
C1568 C1569 1.387 . S
C1569 H1554 0.930 . S
C1569 C1564 1.390 . S
C1569 C1568 1.387 . S
H1570 C1582 0.930 . S
H1571 C1584 0.930 . S
H1572 C1585 0.930 . S
H1573 C1589 0.959 . S
H1574 C1589 0.959 . S
H1575 C1589 0.961 . S
H1576 C1590 0.960 . S
H1577 C1590 0.961 . S
H1578 C1590 0.959 . S
H1579 C1593 0.929 . S
H1580 C1594 0.946 . S
H1581 C1596 0.930 . S
C1582 H1570 0.930 . S
C1582 C1583 1.399 1_554 S
C1582 C1587 1.399 . S
C1583 C1582 1.399 1_556 S
C1583 C1584 1.376 . S
C1584 H1571 0.930 . S
C1584 C1583 1.376 . S
C1584 C1585 1.388 . S
C1585 H1572 0.930 . S
C1585 C1584 1.388 . S
C1585 C1586 1.390 . S
C1586 C1585 1.390 . S
C1586 C1587 1.394 1_556 S
C1586 C1592 1.465 1_556 S
C1587 C1582 1.399 . S
C1587 C1586 1.394 1_554 S
C1587 C1588 1.516 . S
C1588 C1587 1.516 . S
C1588 C1589 1.502 . S
C1588 C1590 1.561 . S
C1588 C1591 1.526 . S
C1589 H1573 0.959 . S
C1589 H1574 0.959 . S
C1589 H1575 0.961 . S
C1589 C1588 1.502 . S
C1590 H1576 0.960 . S
C1590 H1577 0.961 . S
C1590 H1578 0.959 . S
C1590 C1588 1.561 . S
C1591 C1588 1.526 . S
C1591 C1592 1.396 . S
C1591 C1596 1.390 . S
C1592 C1586 1.465 1_554 S
C1592 C1591 1.396 . S
C1592 C1593 1.399 1_554 S
C1593 H1579 0.929 . S
C1593 C1592 1.399 1_556 S
C1593 C1594 1.398 . S
C1594 H1580 0.946 . S
C1594 C1593 1.398 . S
C1594 C1595 1.362 1_556 S
C1595 C1594 1.362 1_554 S
C1595 C1596 1.387 . S
C1596 H1581 0.930 . S
C1596 C1591 1.390 . S
C1596 C1595 1.387 . S
H1597 C1609 0.930 . S
H1598 C1611 0.930 1_556 S
H1599 C1612 0.930 . S
H1600 C1616 0.959 . S
H1601 C1616 0.959 . S
H1602 C1616 0.961 . S
H1603 C1617 0.960 . S
H1604 C1617 0.961 . S
H1605 C1617 0.959 . S
H1606 C1620 0.929 . S
H1607 C1621 0.931 . S
H1608 C1623 0.930 . S
C1609 H1597 0.930 . S
C1609 C1610 1.399 . S
C1609 C1614 1.399 . S
C1610 C1609 1.399 . S
C1610 C1611 1.376 . S
C1611 H1598 0.930 1_554 S
C1611 C1610 1.376 . S
C1611 C1612 1.388 1_554 S
C1612 H1599 0.930 . S
C1612 C1611 1.388 1_556 S
C1612 C1613 1.390 1_556 S
C1613 C1612 1.390 1_554 S
C1613 C1614 1.394 . S
C1613 C1619 1.465 1_554 S
C1614 C1609 1.399 . S
C1614 C1613 1.394 . S
C1614 C1615 1.516 . S
C1615 C1614 1.516 . S
C1615 C1616 1.502 . S
C1615 C1617 1.561 . S
C1615 C1618 1.526 . S
C1616 H1600 0.959 . S
C1616 H1601 0.959 . S
C1616 H1602 0.961 . S
C1616 C1615 1.502 . S
C1617 H1603 0.960 . S
C1617 H1604 0.961 . S
C1617 H1605 0.959 . S
C1617 C1615 1.561 . S
C1618 C1615 1.526 . S
C1618 C1619 1.396 1_554 S
C1618 C1623 1.390 . S
C1619 C1613 1.465 1_556 S
C1619 C1618 1.396 1_556 S
C1619 C1620 1.399 . S
C1620 H1606 0.929 . S
C1620 C1619 1.399 . S
C1620 C1621 1.385 . S
C1621 H1607 0.931 . S
C1621 C1620 1.385 . S
C1621 C1622 1.389 . S
C1622 C1621 1.389 . S
C1622 C1623 1.387 1_556 S
C1623 H1608 0.930 . S
C1623 C1618 1.390 . S
C1623 C1622 1.387 1_554 S
C557 C5 0.657 . S
C569 C175 0.651 . S
C584 C39 0.822 . S
C596 C209 0.765 . S
C611 C243 0.804 . S
C623 C73 0.753 . S
C638 C141 0.844 . S
C650 C107 0.858 . S
C665 C277 0.775 . S
C677 C447 0.773 . S
C692 C311 0.863 . S
C704 C481 0.857 . S
C719 C345 0.731 . S
C731 C515 0.727 . S
C746 C379 0.853 . S
C758 C413 0.853 . S
C773 C305 1.511 . S
C785 C33 1.528 . S
C800 C339 1.265 . S
C812 C67 1.153 . S
C827 C101 1.446 . S
C839 C373 1.308 . S
C854 C407 1.715 . S
C866 C135 1.656 . S
C881 C169 1.299 . S
C893 C441 1.143 . S
C908 C203 1.442 . S
C920 C475 1.573 . S
C935 C237 1.721 . S
C947 C509 1.622 . S
C962 C271 1.293 . S
C974 C543 1.441 . S
C989 C20 1.612 . S
C1001 C156 1.595 . S
C1016 C54 1.657 . S
C1028 C190 1.645 . S
C1043 C224 1.669 . S
C1055 C88 1.656 . S
C1070 C122 1.674 . S
C1082 C258 1.659 . S
C1097 C428 1.640 . S
C1109 C292 1.595 . S
C1124 C462 1.604 . S
C1136 C326 1.580 . S
C1151 C360 1.648 . S
C1163 C496 1.679 . S
C1178 C530 1.703 . S
C1190 C394 1.724 . S
C1205 C43 1.667 . S
C1217 C2 1.708 . S
C1232 C36 1.812 . S
C1244 C77 1.802 . S
C1259 C70 2.027 . S
C1271 C111 1.993 . S
C1286 C104 1.899 . S
C1298 C9 1.823 . S
C1313 C247 1.775 1_556 S
C1325 C138 1.811 . S
C1340 C172 1.740 . S
C1352 C145 1.680 . S
C1367 C206 1.892 . S
C1379 C179 1.876 . S
C1394 C240 2.028 . S
C1406 C213 1.961 . S
C1421 C274 1.708 . S
C1433 C315 1.664 . S
C1448 C308 1.843 . S
C1460 C349 1.817 . S
C1475 C383 1.948 . S
C1487 C342 2.004 . S
C1502 C376 1.884 . S
C1514 C281 1.819 . S
C1529 C410 1.828 . S
C1541 C519 1.814 . S
C1556 C417 1.697 . S
C1568 C444 1.733 . S
C1583 C451 1.870 . S
C1595 C478 1.891 . S
C1610 C512 2.027 . S
C1622 C485 2.000 . S
