# Generated by pormake.
# Topology sod, (4)-cn, num edge types: 1
# Building blocks:
#     Node 0, Type 0, BuildingBlock: KUFVIS_clean_sbu_0, # of connection points: 4
#     Node 1, Type 0, BuildingBlock: KUFVIS_clean_sbu_0, # of connection points: 4
#     Node 2, Type 0, BuildingBlock: KUFVIS_clean_sbu_0, # of connection points: 4
#     Node 3, Type 0, BuildingBlock: KUFVIS_clean_sbu_0, # of connection points: 4
#     Node 4, Type 0, BuildingBlock: KUFVIS_clean_sbu_0, # of connection points: 4
#     Node 5, Type 0, BuildingBlock: KUFVIS_clean_sbu_0, # of connection points: 4
#     Node 6, Type 0, BuildingBlock: KUFVIS_clean_sbu_0, # of connection points: 4
#     Node 7, Type 0, BuildingBlock: KUFVIS_clean_sbu_0, # of connection points: 4
#     Node 8, Type 0, BuildingBlock: KUFVIS_clean_sbu_0, # of connection points: 4
#     Node 9, Type 0, BuildingBlock: KUFVIS_clean_sbu_0, # of connection points: 4
#     Node 10, Type 0, BuildingBlock: KUFVIS_clean_sbu_0, # of connection points: 4
#     Node 11, Type 0, BuildingBlock: KUFVIS_clean_sbu_0, # of connection points: 4
#     Edge 12, Type (0, 0), BuildingBlock: ZUJKAS_clean_linker_0, # of connection points: 2
#     Edge 13, Type (0, 0), BuildingBlock: ZUJKAS_clean_linker_0, # of connection points: 2
#     Edge 14, Type (0, 0), BuildingBlock: ZUJKAS_clean_linker_0, # of connection points: 2
#     Edge 15, Type (0, 0), BuildingBlock: ZUJKAS_clean_linker_0, # of connection points: 2
#     Edge 16, Type (0, 0), BuildingBlock: ZUJKAS_clean_linker_0, # of connection points: 2
#     Edge 17, Type (0, 0), BuildingBlock: ZUJKAS_clean_linker_0, # of connection points: 2
#     Edge 18, Type (0, 0), BuildingBlock: ZUJKAS_clean_linker_0, # of connection points: 2
#     Edge 19, Type (0, 0), BuildingBlock: ZUJKAS_clean_linker_0, # of connection points: 2
#     Edge 20, Type (0, 0), BuildingBlock: ZUJKAS_clean_linker_0, # of connection points: 2
#     Edge 21, Type (0, 0), BuildingBlock: ZUJKAS_clean_linker_0, # of connection points: 2
#     Edge 22, Type (0, 0), BuildingBlock: ZUJKAS_clean_linker_0, # of connection points: 2
#     Edge 23, Type (0, 0), BuildingBlock: ZUJKAS_clean_linker_0, # of connection points: 2
#     Edge 24, Type (0, 0), BuildingBlock: ZUJKAS_clean_linker_0, # of connection points: 2
#     Edge 25, Type (0, 0), BuildingBlock: ZUJKAS_clean_linker_0, # of connection points: 2
#     Edge 26, Type (0, 0), BuildingBlock: ZUJKAS_clean_linker_0, # of connection points: 2
#     Edge 27, Type (0, 0), BuildingBlock: ZUJKAS_clean_linker_0, # of connection points: 2
#     Edge 28, Type (0, 0), BuildingBlock: ZUJKAS_clean_linker_0, # of connection points: 2
#     Edge 29, Type (0, 0), BuildingBlock: ZUJKAS_clean_linker_0, # of connection points: 2
#     Edge 30, Type (0, 0), BuildingBlock: ZUJKAS_clean_linker_0, # of connection points: 2
#     Edge 31, Type (0, 0), BuildingBlock: ZUJKAS_clean_linker_0, # of connection points: 2
#     Edge 32, Type (0, 0), BuildingBlock: ZUJKAS_clean_linker_0, # of connection points: 2
#     Edge 33, Type (0, 0), BuildingBlock: ZUJKAS_clean_linker_0, # of connection points: 2
#     Edge 34, Type (0, 0), BuildingBlock: ZUJKAS_clean_linker_0, # of connection points: 2
#     Edge 35, Type (0, 0), BuildingBlock: ZUJKAS_clean_linker_0, # of connection points: 2
# Relax obj value: 0.117
# Max RMSD: 0.165
# Mean RMSD: 0.150
data_MOF--net-sod--node1-KUFVIS_clean_sbu_0--edge1-ZUJKAS_clean_linker_0
_symmetry_space_group_name_H-M    P1
_symmetry_Int_Tables_number       1
_symmetry_cell_setting            triclinic
loop_
_symmetry_equiv_pos_as_xyz
'x, y, z'
_cell_length_a     54.381055
_cell_length_b     54.316299
_cell_length_c     54.788841
_cell_angle_alpha  91.072404
_cell_angle_beta   90.183043
_cell_angle_gamma 92.528354
loop_
_atom_site_label
_atom_site_type_symbol
_atom_site_fract_x
_atom_site_fract_y
_atom_site_fract_z
_atom_type_partial_charge
Mn0 Mn 0.03018 0.25966 0.51131 0.0
Mn1 Mn 0.97217 0.27688 0.50092 0.0
C2 C 0.99658 0.23405 0.52118 0.0
C3 C 0.06621 0.23966 0.50219 0.0
C4 C 0.00376 0.2982 0.54217 0.0
O5 O 0.03557 0.28652 0.48581 0.0
O6 O 0.99589 0.2966 0.48111 0.0
C7 C 0.96739 0.25951 0.44951 0.0
N8 N 0.95913 0.25921 0.47294 0.0
C9 C 0.92513 0.2313 0.46194 0.0
C10 C 0.93322 0.23137 0.43767 0.0
C11 C 0.95449 0.24548 0.43144 0.0
C12 C 0.93879 0.24558 0.47915 0.0
H13 H 0.9837 0.27036 0.44465 0.0
C14 C 0.0189 0.29935 0.47637 0.0
O15 O 0.06588 0.2577 0.51797 0.0
O16 O 0.04591 0.23432 0.49026 0.0
N17 N 0.94739 0.25906 0.51894 0.0
C18 C 0.94263 0.26028 0.54333 0.0
C19 C 0.92202 0.24715 0.55262 0.0
C20 C 0.90644 0.23308 0.53674 0.0
C21 C 0.91175 0.23205 0.51171 0.0
C22 C 0.93244 0.24567 0.50349 0.0
H23 H 0.95443 0.27127 0.55557 0.0
O24 O 0.01732 0.23241 0.5327 0.0
O25 O 0.99591 0.25109 0.50497 0.0
O26 O 0.02241 0.28578 0.53705 0.0
O27 O 0.98358 0.29596 0.53024 0.0
C28 C 0.8974 0.21797 0.49462 0.0
C29 C 0.90418 0.21746 0.46979 0.0
H30 H 0.92332 0.22057 0.42368 0.0
H31 H 0.96089 0.24557 0.41276 0.0
H32 H 0.91807 0.24797 0.57195 0.0
H33 H 0.89046 0.22313 0.54398 0.0
H34 H 0.88124 0.20728 0.50041 0.0
H35 H 0.89321 0.20629 0.45688 0.0
Mn36 Mn 0.77546 0.01534 0.51193 0.0
Mn37 Mn 0.75161 0.07071 0.52321 0.0
C38 C 0.79828 0.05164 0.50457 0.0
C39 C 0.79788 0.98079 0.52056 0.0
C40 C 0.73734 0.03931 0.47927 0.0
O41 O 0.74781 0.00636 0.53592 0.0
O42 O 0.73226 0.04411 0.53953 0.0
C43 C 0.76211 0.07393 0.57629 0.0
N44 N 0.76415 0.0837 0.55363 0.0
C45 C 0.78317 0.12129 0.57 0.0
C46 C 0.78125 0.11167 0.59353 0.0
C47 C 0.77085 0.08781 0.59666 0.0
C48 C 0.7746 0.10641 0.55037 0.0
H49 H 0.75375 0.05577 0.57883 0.0
C50 C 0.73191 0.02107 0.54407 0.0
O51 O 0.78086 0.98026 0.50395 0.0
O52 O 0.80111 1.00115 0.53326 0.0
N53 N 0.76853 0.09838 0.50887 0.0
C54 C 0.77026 0.10433 0.48488 0.0
C55 C 0.78095 0.12732 0.47852 0.0
C56 C 0.78915 0.14414 0.4969 0.0
C57 C 0.78701 0.13763 0.52148 0.0
C58 C 0.77675 0.11427 0.52667 0.0
H59 H 0.76341 0.09166 0.47075 0.0
O60 O 0.80248 0.03154 0.49236 0.0
O61 O 0.78036 0.05016 0.52016 0.0
O62 O 0.75016 0.02136 0.48528 0.0
O63 O 0.73733 0.05949 0.49152 0.0
C64 C 0.79458 0.15342 0.54105 0.0
C65 C 0.79303 0.14513 0.56526 0.0
H66 H 0.78771 0.12244 0.60931 0.0
H67 H 0.76931 0.08024 0.61475 0.0
H68 H 0.78254 0.13221 0.45951 0.0
H69 H 0.79713 0.16197 0.49193 0.0
H70 H 0.80208 0.17184 0.53764 0.0
H71 H 0.79948 0.15724 0.58009 0.0
Mn72 Mn 0.01457 0.77787 0.52204 0.0
Mn73 Mn 0.07345 0.76094 0.51795 0.0
C74 C 0.04694 0.80452 0.53458 0.0
C75 C 0.97961 0.79721 0.50866 0.0
C76 C 0.03801 0.74115 0.55608 0.0
O77 O 0.01198 0.7495 0.49667 0.0
O78 O 0.05214 0.74053 0.49546 0.0
C79 C 0.08374 0.77629 0.46728 0.0
N80 N 0.08935 0.77764 0.49153 0.0
C81 C 0.12424 0.8053 0.48428 0.0
C82 C 0.11889 0.80414 0.45922 0.0
C83 C 0.0985 0.78963 0.4507 0.0
C84 C 0.10883 0.79165 0.49993 0.0
H85 H 0.06812 0.76514 0.46063 0.0
C86 C 0.02976 0.73707 0.48833 0.0
O87 O 0.97831 0.77994 0.52468 0.0
O88 O 1.00102 0.80195 0.49892 0.0
N89 N 0.09593 0.77982 0.5386 0.0
C90 C 0.09768 0.78008 0.56341 0.0
C91 C 0.11677 0.79422 0.57493 0.0
C92 C 0.13395 0.80773 0.56083 0.0
C93 C 0.13178 0.80713 0.53531 0.0
C94 C 0.11239 0.79272 0.52486 0.0
H95 H 0.08461 0.7696 0.57432 0.0
O96 O 0.02522 0.80658 0.54395 0.0
O97 O 0.04917 0.78646 0.5191 0.0
O98 O 0.01994 0.75336 0.54908 0.0
O99 O 0.05912 0.74276 0.54597 0.0
C100 C 0.14797 0.82042 0.51984 0.0
C101 C 0.14409 0.81966 0.49436 0.0
H102 H 0.13022 0.81441 0.44638 0.0
H103 H 0.0942 0.78871 0.4314 0.0
H104 H 0.11828 0.79465 0.59464 0.0
H105 H 0.14864 0.8186 0.56979 0.0
H106 H 0.16333 0.83149 0.52734 0.0
H107 H 0.15641 0.83032 0.48271 0.0
Mn108 Mn 0.26885 0.01967 0.51291 0.0
Mn109 Mn 0.29326 0.96621 0.52895 0.0
C110 C 0.24618 0.98248 0.50843 0.0
C111 C 0.24659 0.05505 0.51915 0.0
C112 C 0.30895 0.99448 0.48403 0.0
O113 O 0.29696 0.03121 0.5361 0.0
O114 O 0.30978 0.99393 0.54744 0.0
C115 C 0.27785 0.9633 0.58065 0.0
N116 N 0.27812 0.9533 0.55768 0.0
C117 C 0.25855 0.91545 0.5713 0.0
C118 C 0.25804 0.92533 0.59511 0.0
C119 C 0.26755 0.94945 0.59976 0.0
C120 C 0.26855 0.93033 0.55293 0.0
H121 H 0.28554 0.98164 0.58433 0.0
C122 C 0.31058 0.01752 0.5487 0.0
O123 O 0.26318 0.05356 0.50238 0.0
O124 O 0.24366 0.03628 0.53345 0.0
N125 N 0.27837 0.93802 0.51242 0.0
C126 C 0.27861 0.93199 0.48818 0.0
C127 C 0.26873 0.90888 0.48024 0.0
C128 C 0.2592 0.89207 0.49735 0.0
C129 C 0.25923 0.89871 0.52221 0.0
C130 C 0.26875 0.92221 0.52895 0.0
H131 H 0.2864 0.94467 0.47505 0.0
O132 O 0.24142 1.00109 0.4949 0.0
O133 O 0.26444 0.986 0.52354 0.0
O134 O 0.2934 0.01104 0.48659 0.0
O135 O 0.31075 0.97697 0.49901 0.0
C136 C 0.25029 0.88293 0.54058 0.0
C137 C 0.24968 0.89138 0.56508 0.0
H138 H 0.25037 0.91459 0.60995 0.0
H139 H 0.26723 0.95722 0.61809 0.0
H140 H 0.26876 0.90391 0.46102 0.0
H141 H 0.25186 0.87414 0.4912 0.0
H142 H 0.24322 0.86446 0.53599 0.0
H143 H 0.24215 0.87929 0.57895 0.0
Mn144 Mn 0.52307 0.01924 0.25332 0.0
Mn145 Mn 0.51072 0.962 0.27453 0.0
C146 C 0.53034 0.98487 0.22902 0.0
C147 C 0.51367 0.05495 0.23283 0.0
C148 C 0.55387 0.99499 0.2921 0.0
O149 O 0.49919 0.02528 0.28147 0.0
O150 O 0.49004 0.98575 0.29202 0.0
C151 C 0.45913 0.95328 0.258 0.0
N152 N 0.48292 0.94644 0.25821 0.0
C153 C 0.47266 0.91024 0.2336 0.0
C154 C 0.44803 0.91687 0.23317 0.0
C155 C 0.44125 0.9385 0.24539 0.0
C156 C 0.48963 0.92563 0.24656 0.0
H157 H 0.45386 0.96989 0.26737 0.0
C158 C 0.48739 0.00903 0.29405 0.0
O159 O 0.53074 0.05491 0.24936 0.0
O160 O 0.5009 0.0344 0.22907 0.0
N161 N 0.52953 0.93751 0.25863 0.0
C162 C 0.55429 0.93475 0.25936 0.0
C163 C 0.56423 0.9143 0.24759 0.0
C164 C 0.54861 0.89693 0.23523 0.0
C165 C 0.52321 0.90034 0.23445 0.0
C166 C 0.51433 0.9209 0.24679 0.0
H167 H 0.56636 0.94799 0.26894 0.0
O168 O 0.54245 0.00562 0.22545 0.0
O169 O 0.51499 0.98471 0.24714 0.0
O170 O 0.55029 0.01232 0.27745 0.0
O171 O 0.53989 0.97554 0.29289 0.0
C172 C 0.5064 0.88433 0.22167 0.0
C173 C 0.48115 0.88931 0.22119 0.0
H174 H 0.43422 0.90561 0.22333 0.0
H175 H 0.4223 0.94378 0.24506 0.0
H176 H 0.58387 0.91188 0.24811 0.0
H177 H 0.55636 0.88112 0.22628 0.0
H178 H 0.51274 0.86833 0.21185 0.0
H179 H 0.46846 0.87709 0.21098 0.0
Mn180 Mn 0.0158 0.51624 0.25894 0.0
Mn181 Mn 0.95671 0.51721 0.27754 0.0
C182 C 0.98371 0.50366 0.23292 0.0
C183 C 0.05129 0.53106 0.23937 0.0
C184 C 0.99206 0.47962 0.2947 0.0
O185 O 0.01801 0.54094 0.28784 0.0
O186 O 0.97766 0.54027 0.29789 0.0
C187 C 0.94602 0.56833 0.26449 0.0
N188 N 0.94076 0.54364 0.26234 0.0
C189 C 0.90666 0.55011 0.23545 0.0
C190 C 0.91165 0.57562 0.23748 0.0
C191 C 0.93145 0.58475 0.25202 0.0
C192 C 0.92176 0.53465 0.24837 0.0
H193 H 0.96126 0.57545 0.27559 0.0
C194 C 1.00004 0.54831 0.30083 0.0
O195 O 0.05197 0.51458 0.2561 0.0
O196 O 0.03017 0.54069 0.23548 0.0
N197 N 0.9348 0.49591 0.25857 0.0
C198 C 0.93358 0.47081 0.25713 0.0
C199 C 0.91533 0.45872 0.24254 0.0
C200 C 0.89847 0.47253 0.22971 0.0
C201 C 0.90006 0.49834 0.23152 0.0
C202 C 0.91859 0.50936 0.24639 0.0
H203 H 0.94651 0.46013 0.26695 0.0
O204 O 0.00534 0.49488 0.22997 0.0
O205 O 0.98135 0.51835 0.25156 0.0
O206 O 0.01007 0.48793 0.28219 0.0
O207 O 0.97094 0.48898 0.29432 0.0
C208 C 0.88424 0.51356 0.21885 0.0
C209 C 0.88759 0.53942 0.22074 0.0
H210 H 0.90053 0.58834 0.22779 0.0
H211 H 0.9355 0.60441 0.25358 0.0
H212 H 0.91428 0.4388 0.24116 0.0
H213 H 0.88452 0.46314 0.21835 0.0
H214 H 0.86962 0.50557 0.20736 0.0
H215 H 0.87559 0.55091 0.21056 0.0
Mn216 Mn 0.52406 0.01635 0.75954 0.0
Mn217 Mn 0.46741 0.02369 0.78285 0.0
C218 C 0.48898 0.00638 0.73652 0.0
C219 C 0.55904 0.02783 0.73731 0.0
C220 C 0.50049 0.98347 0.79863 0.0
O221 O 0.53086 0.04135 0.78755 0.0
O222 O 0.49168 0.04569 0.80063 0.0
C223 C 0.45986 0.07509 0.76846 0.0
N224 N 0.45262 0.05077 0.7676 0.0
C225 C 0.41743 0.05897 0.74279 0.0
C226 C 0.42445 0.08412 0.74349 0.0
C227 C 0.44581 0.0922 0.75632 0.0
C228 C 0.43218 0.04278 0.7552 0.0
H229 H 0.47622 0.08139 0.77833 0.0
C230 C 0.51488 0.05099 0.80152 0.0
O231 O 0.55945 0.01131 0.75403 0.0
O232 O 0.53862 0.03912 0.73462 0.0
N233 N 0.44256 0.00346 0.76645 0.0
C234 C 0.43911 0.97847 0.76642 0.0
C235 C 0.41901 0.96731 0.75366 0.0
C236 C 0.40262 0.98195 0.74118 0.0
C237 C 0.40651 0.00765 0.74155 0.0
C238 C 0.42683 0.01773 0.75461 0.0
H239 H 0.45167 0.96714 0.77598 0.0
O240 O 0.50931 0.99552 0.73196 0.0
O241 O 0.48968 0.02162 0.75497 0.0
O242 O 0.51769 0.98916 0.7839 0.0
O243 O 0.48059 0.99504 0.79985 0.0
C244 C 0.39116 0.02364 0.72927 0.0
C245 C 0.39655 0.04929 0.73001 0.0
H246 H 0.41369 0.09736 0.73411 0.0
H247 H 0.4514 0.11157 0.75688 0.0
H248 H 0.41617 0.94746 0.75342 0.0
H249 H 0.3872 0.97327 0.73127 0.0
H250 H 0.3753 0.01639 0.71902 0.0
H251 H 0.3847 0.06138 0.72038 0.0
Mn252 Mn 0.02007 0.51872 0.7562 0.0
Mn253 Mn 0.0114 0.4605 0.77607 0.0
C254 C 0.02935 0.4852 0.73145 0.0
C255 C 0.00883 0.55405 0.73603 0.0
C256 C 0.05325 0.49489 0.79364 0.0
O257 O 0.9957 0.523 0.78439 0.0
O258 O 0.9911 0.48314 0.79528 0.0
C259 C 0.95928 0.45149 0.76143 0.0
N260 N 0.98319 0.44509 0.76034 0.0
C261 C 0.97241 0.40925 0.73545 0.0
C262 C 0.94765 0.4154 0.73636 0.0
C263 C 0.94108 0.43669 0.7493 0.0
C264 C 0.98974 0.42482 0.74769 0.0
H265 H 0.95414 0.46772 0.77152 0.0
C266 C 0.98624 0.50593 0.79773 0.0
O267 O 0.0258 0.55478 0.75271 0.0
O268 O 0.99719 0.53293 0.73202 0.0
N269 N 0.02993 0.43682 0.75864 0.0
C270 C 0.05473 0.43414 0.75861 0.0
C271 C 0.06445 0.41419 0.74579 0.0
C272 C 0.04857 0.39703 0.73343 0.0
C273 C 0.0231 0.40005 0.73394 0.0
C274 C 0.01449 0.42039 0.74686 0.0
H275 H 0.06698 0.44717 0.76826 0.0
O276 O 0.04032 0.50658 0.72813 0.0
O277 O 0.01395 0.48401 0.74942 0.0
O278 O 0.0476 0.51282 0.78046 0.0
O279 O 0.04107 0.47427 0.79338 0.0
C280 C 0.00591 0.38372 0.7221 0.0
C281 C 0.98058 0.38834 0.72281 0.0
H282 H 0.93355 0.40398 0.7271 0.0
H283 H 0.92202 0.44159 0.75004 0.0
H284 H 0.08413 0.41198 0.7455 0.0
H285 H 0.05613 0.38165 0.72358 0.0
H286 H 0.012 0.36774 0.71207 0.0
H287 H 0.96759 0.37585 0.7133 0.0
Mn288 Mn 0.26982 0.51784 0.01682 0.0
Mn289 Mn 0.2463 0.57329 0.0285 0.0
C290 C 0.29308 0.55401 0.01037 0.0
C291 C 0.2919 0.48292 0.02486 0.0
C292 C 0.23244 0.54258 0.98395 0.0
O293 O 0.24171 0.50876 0.04027 0.0
O294 O 0.22652 0.54666 0.04435 0.0
C295 C 0.25618 0.57589 0.08171 0.0
N296 N 0.25863 0.58585 0.05917 0.0
C297 C 0.27833 0.62288 0.07605 0.0
C298 C 0.27598 0.61307 0.09946 0.0
C299 C 0.26501 0.58939 0.10228 0.0
C300 C 0.26958 0.60839 0.05621 0.0
H301 H 0.24742 0.55786 0.08401 0.0
C302 C 0.2259 0.52354 0.04855 0.0
O303 O 0.27506 0.48295 0.00812 0.0
O304 O 0.29498 0.50288 0.03823 0.0
N305 N 0.26373 0.60091 0.0146 0.0
C306 C 0.26588 0.60703 0.99068 0.0
C307 C 0.27721 0.62983 0.98463 0.0
C308 C 0.28565 0.64629 0.00323 0.0
C309 C 0.28306 0.6396 0.02772 0.0
C310 C 0.27213 0.61644 0.03261 0.0
H311 H 0.25893 0.59463 0.97638 0.0
O312 O 0.29728 0.53407 0.99792 0.0
O313 O 0.2749 0.55248 0.02566 0.0
O314 O 0.24513 0.52453 0.9899 0.0
O315 O 0.23222 0.56255 0.99652 0.0
C316 C 0.29087 0.65502 0.0475 0.0
C317 C 0.28885 0.64653 0.07161 0.0
H318 H 0.28255 0.62353 0.11539 0.0
H319 H 0.26314 0.58167 0.12028 0.0
H320 H 0.27915 0.63485 0.96569 0.0
H321 H 0.29415 0.66396 0.9985 0.0
H322 H 0.29888 0.67328 0.04433 0.0
H323 H 0.29547 0.65833 0.08661 0.0
Mn324 Mn 0.51123 0.27843 0.01938 0.0
Mn325 Mn 0.56525 0.25357 0.00513 0.0
C326 C 0.54819 0.30128 0.02385 0.0
C327 C 0.47615 0.30077 0.01261 0.0
C328 C 0.53732 0.24103 0.05087 0.0
O329 O 0.50005 0.24975 0.99658 0.0
O330 O 0.53733 0.23392 0.99034 0.0
C331 C 0.56457 0.26231 0.95193 0.0
N332 N 0.57598 0.2651 0.97404 0.0
C333 C 0.61227 0.28352 0.9557 0.0
C334 C 0.60095 0.28083 0.93271 0.0
C335 C 0.57691 0.27035 0.93085 0.0
C336 C 0.59886 0.27566 0.97609 0.0
H337 H 0.54628 0.25387 0.95036 0.0
C338 C 0.51396 0.23359 0.98745 0.0
O339 O 0.47712 0.28458 0.02958 0.0
O340 O 0.49525 0.30319 0.99846 0.0
N341 N 0.59396 0.27087 0.01793 0.0
C342 C 0.60164 0.27344 0.04156 0.0
C343 C 0.62499 0.28444 0.04669 0.0
C344 C 0.6404 0.29207 0.02746 0.0
C345 C 0.63213 0.28901 0.00327 0.0
C346 C 0.60845 0.27857 0.99933 0.0
H347 H 0.59006 0.26705 0.05633 0.0
O348 O 0.52933 0.30626 0.03726 0.0
O349 O 0.54517 0.28259 0.00888 0.0
O350 O 0.51929 0.25421 0.04595 0.0
O351 O 0.55638 0.24022 0.03744 0.0
C352 C 0.64647 0.29581 0.9829 0.0
C353 C 0.63642 0.29346 0.95916 0.0
H354 H 0.61053 0.28673 0.91639 0.0
H355 H 0.56804 0.2682 0.91319 0.0
H356 H 0.63125 0.28671 0.0654 0.0
H357 H 0.65852 0.30026 0.03147 0.0
H358 H 0.66509 0.30342 0.98533 0.0
H359 H 0.64741 0.29937 0.94371 0.0
Mn360 Mn 0.76166 0.52512 0.01124 0.0
Mn361 Mn 0.77488 0.46505 0.01358 0.0
C362 C 0.73287 0.4944 0.99908 0.0
C363 C 0.74527 0.56146 0.02592 0.0
C364 C 0.79573 0.49938 0.97526 0.0
O365 O 0.79067 0.52591 0.03547 0.0
O366 O 0.79714 0.48512 0.03535 0.0
C367 C 0.76031 0.45587 0.06475 0.0
N368 N 0.75804 0.45022 0.0405 0.0
C369 C 0.72895 0.4167 0.0485 0.0
C370 C 0.73103 0.42211 0.07356 0.0
C371 C 0.74671 0.44185 0.08171 0.0
C372 C 0.74285 0.43142 0.03245 0.0
H373 H 0.77242 0.47096 0.07109 0.0
C374 C 0.8023 0.50731 0.04265 0.0
O375 O 0.76209 0.56154 0.00923 0.0
O376 O 0.73922 0.54034 0.03551 0.0
N377 N 0.75429 0.44358 0.99345 0.0
C378 C 0.7535 0.44157 0.96864 0.0
C379 C 0.73841 0.42293 0.95749 0.0
C380 C 0.72452 0.40643 0.97196 0.0
C381 C 0.72563 0.40887 0.99747 0.0
C382 C 0.741 0.42779 0.00754 0.0
H383 H 0.76436 0.45406 0.95746 0.0
O384 O 0.73196 0.51636 0.99028 0.0
O385 O 0.75096 0.49096 0.01388 0.0
O386 O 0.78494 0.51823 0.98309 0.0
O387 O 0.79307 0.47828 0.98504 0.0
C388 C 0.71206 0.39334 0.01331 0.0
C389 C 0.71352 0.3974 0.03879 0.0
H390 H 0.7206 0.41131 0.0867 0.0
H391 H 0.74836 0.44618 0.10102 0.0
H392 H 0.73759 0.4212 0.93779 0.0
H393 H 0.71301 0.392 0.96327 0.0
H394 H 0.70026 0.37833 0.00611 0.0
H395 H 0.70267 0.38559 0.05074 0.0
Mn396 Mn 0.52657 0.75959 0.01338 0.0
Mn397 Mn 0.46857 0.77329 0.99836 0.0
C398 C 0.49364 0.73318 0.02356 0.0
C399 C 0.56379 0.74115 0.00577 0.0
C400 C 0.49815 0.79951 0.03887 0.0
O401 O 0.53158 0.78583 0.98694 0.0
O402 O 0.4919 0.78945 0.9755 0.0
C403 C 0.464 0.74726 0.95048 0.0
N404 N 0.45555 0.75119 0.97353 0.0
C405 C 0.42106 0.72257 0.96675 0.0
C406 C 0.42919 0.71848 0.94281 0.0
C407 C 0.45085 0.73076 0.9347 0.0
C408 C 0.43497 0.73917 0.98165 0.0
H409 H 0.48072 0.75653 0.94427 0.0
C410 C 0.51503 0.79425 0.97301 0.0
O411 O 0.56229 0.75955 0.02102 0.0
O412 O 0.54394 0.73445 0.99367 0.0
N413 N 0.44418 0.75832 0.01912 0.0
C414 C 0.44 0.76281 0.04326 0.0
C415 C 0.41958 0.75117 0.05455 0.0
C416 C 0.40356 0.73526 0.04085 0.0
C417 C 0.40826 0.73091 0.01603 0.0
C418 C 0.42889 0.74302 0.00579 0.0
H419 H 0.45211 0.77522 0.05381 0.0
O420 O 0.51425 0.73264 0.03549 0.0
O421 O 0.49295 0.7492 0.00637 0.0
O422 O 0.51642 0.78576 0.03792 0.0
O423 O 0.47977 0.7973 0.02433 0.0
C424 C 0.39343 0.71486 1.0011 0.0
C425 C 0.39995 0.71052 0.97654 0.0
H426 H 0.41912 0.70574 0.9306 0.0
H427 H 0.45738 0.72752 0.91634 0.0
H428 H 0.41612 0.75454 0.07374 0.0
H429 H 0.38781 0.72636 0.04963 0.0
H430 H 0.37716 0.70548 0.00839 0.0
H431 H 0.38871 0.69771 0.96542 0.0
H432 H 0.00556 0.34636 0.47867 0.0
H433 H 0.00692 0.37606 0.44571 0.0
H434 H 0.04654 0.32535 0.40074 0.0
H435 H 0.04536 0.29543 0.43409 0.0
H436 H 0.04704 0.39798 0.41619 0.0
H437 H 0.97916 0.33711 0.36456 0.0
H438 H 0.9849 0.33354 0.39676 0.0
H439 H 0.00702 0.32375 0.37482 0.0
C440 C 0.01522 0.34187 0.46201 0.0
C441 C 0.02548 0.31875 0.45887 0.0
C442 C 0.01592 0.35879 0.44319 0.0
C443 C 0.02653 0.35275 0.42073 0.0
C444 C 0.03811 0.33023 0.41795 0.0
H445 H 0.03477 0.45555 0.30031 0.0
H446 H 0.0437 0.42393 0.32958 0.0
C447 C 0.03769 0.31331 0.43701 0.0
C448 C 0.0234 0.36937 0.39992 0.0
H449 H 0.98948 0.37582 0.34797 0.0
C450 C 0.03475 0.39306 0.40107 0.0
C451 C 0.00692 0.363 0.38054 0.0
C452 C 0.9936 0.33805 0.37899 0.0
C453 C 0.02991 0.41065 0.38341 0.0
C454 C 0.01337 0.40431 0.36408 0.0
C455 C 1.00218 0.38056 0.3628 0.0
C456 C 0.00726 0.42232 0.34524 0.0
C457 C 0.04191 0.43616 0.38598 0.0
C458 C 0.9835 0.43136 0.34382 0.0
C459 C 0.97822 0.44955 0.327 0.0
C460 C 0.99661 0.45889 0.31124 0.0
C461 C 0.02013 0.44902 0.31222 0.0
C462 C 0.02537 0.43095 0.32902 0.0
H463 H 0.05017 0.43955 0.40438 0.0
H464 H 0.05677 0.43832 0.37225 0.0
H465 H 0.02835 0.45041 0.38259 0.0
H466 H 0.96923 0.42479 0.35614 0.0
H467 H 0.95991 0.45663 0.32672 0.0
H468 H 0.73324 0.99973 0.44756 0.0
H469 H 0.70374 0.9927 0.41426 0.0
H470 H 0.67416 0.06383 0.42872 0.0
H471 H 0.70351 0.07106 0.46231 0.0
H472 H 0.63833 0.02481 0.42518 0.0
H473 H 0.70228 0.02379 0.34644 0.0
H474 H 0.71005 0.00366 0.37067 0.0
H475 H 0.71122 0.03643 0.37605 0.0
C476 C 0.72068 0.01406 0.44356 0.0
C477 C 0.7208 0.036 0.45771 0.0
C478 C 0.70389 0.01002 0.42439 0.0
C479 C 0.68693 0.02783 0.41886 0.0
C480 C 0.68718 0.04988 0.43265 0.0
H481 H 0.5891 0.03255 0.29442 0.0
H482 H 0.6214 0.03965 0.32506 0.0
C483 C 0.70402 0.054 0.45182 0.0
C484 C 0.66812 0.02286 0.39954 0.0
H485 H 0.66078 0.01027 0.33856 0.0
C486 C 0.64321 0.0217 0.40623 0.0
C487 C 0.67456 0.01897 0.37481 0.0
C488 C 0.70096 0.02097 0.36644 0.0
C489 C 0.62455 0.01646 0.38889 0.0
C490 C 0.63102 0.01194 0.36427 0.0
C491 C 0.65591 0.01344 0.35751 0.0
C492 C 0.61211 0.00665 0.34511 0.0
C493 C 0.59803 0.01622 0.39697 0.0
C494 C 0.59649 0.98539 0.34591 0.0
C495 C 0.57793 0.9812 0.32836 0.0
C496 C 0.57467 0.99821 0.30968 0.0
C497 C 0.59091 0.0191 0.30858 0.0
C498 C 0.60945 0.02321 0.32607 0.0
H499 H 0.596 0.02536 0.41512 0.0
H500 H 0.58651 0.02558 0.38352 0.0
H501 H 0.59086 0.99685 0.39832 0.0
H502 H 0.59852 0.97216 0.36024 0.0
H503 H 0.56587 0.96488 0.32973 0.0
H504 H 0.96525 0.57256 0.3262 0.0
H505 H 0.97099 0.60471 0.35714 0.0
H506 H 0.04975 0.60097 0.35072 0.0
H507 H 0.04421 0.56863 0.31891 0.0
H508 H 0.99311 0.60305 0.40142 0.0
H509 H 0.03965 0.67449 0.34437 0.0
H510 H 0.02448 0.64705 0.33138 0.0
H511 H 0.05452 0.64563 0.3449 0.0
C512 C 0.98391 0.57841 0.3312 0.0
C513 C 0.00432 0.56785 0.31994 0.0
C514 C 0.9871 0.59691 0.349 0.0
C515 C 0.01074 0.60545 0.35612 0.0
C516 C 0.03129 0.59496 0.34516 0.0
H517 H 0.06407 0.71074 0.46444 0.0
H518 H 0.05785 0.67938 0.43274 0.0
C519 C 0.02811 0.57638 0.3271 0.0
C520 C 0.01341 0.62503 0.37535 0.0
H521 H 0.0357 0.68394 0.38651 0.0
C522 C 1.00238 0.62077 0.39814 0.0
C523 C 0.02532 0.6482 0.37098 0.0
C524 C 0.03649 0.6543 0.34653 0.0
C525 C 0.00329 0.63887 0.41681 0.0
C526 C 0.01531 0.66195 0.41247 0.0
C527 C 0.02634 0.66625 0.3897 0.0
C528 C 0.01827 0.68127 0.43187 0.0
C529 C 0.99193 0.63296 0.44121 0.0
C530 C 0.99795 0.69295 0.44194 0.0
C531 C 1.00138 0.71113 0.46035 0.0
C532 C 0.0252 0.71786 0.46894 0.0
C533 C 0.04539 0.70609 0.45855 0.0
C534 C 0.04194 0.68812 0.44026 0.0
H535 H 0.98748 0.61292 0.44305 0.0
H536 H 0.00452 0.63917 0.45633 0.0
H537 H 0.97463 0.64288 0.44327 0.0
H538 H 0.97951 0.68812 0.43545 0.0
H539 H 0.98547 0.71987 0.46781 0.0
H540 H 0.30941 0.02811 0.44744 0.0
H541 H 0.33907 0.03309 0.41446 0.0
H542 H 0.37799 0.9712 0.44038 0.0
H543 H 0.34813 0.96577 0.47343 0.0
H544 H 0.38943 0.04285 0.41799 0.0
H545 H 0.36827 0.95471 0.36774 0.0
H546 H 0.34821 0.9666 0.3909 0.0
H547 H 0.37545 0.95122 0.39947 0.0
C548 C 0.32412 0.01535 0.44611 0.0
C549 C 0.32628 0.99645 0.46315 0.0
C550 C 0.34112 0.01832 0.42723 0.0
C551 C 0.36062 1.00243 0.42482 0.0
C552 C 0.36283 0.98344 0.44165 0.0
H553 H 0.49521 0.02142 0.34163 0.0
H554 H 0.4637 0.02293 0.37355 0.0
C555 C 0.34577 0.9804 0.46058 0.0
C556 C 0.37889 0.0062 0.405 0.0
H557 H 0.40337 0.97842 0.35483 0.0
C558 C 0.39245 0.0288 0.40412 0.0
C559 C 0.38255 0.98799 0.38675 0.0
C560 C 0.36771 0.96384 0.38604 0.0
C561 C 0.40987 0.03351 0.38569 0.0
C562 C 0.41403 0.01502 0.36787 0.0
C563 C 0.40021 0.99257 0.36856 0.0
C564 C 0.43289 0.01821 0.3485 0.0
C565 C 0.42341 0.05834 0.38528 0.0
C566 C 0.42606 0.01545 0.32382 0.0
C567 C 0.44403 0.01467 0.30567 0.0
C568 C 0.46907 0.01671 0.31191 0.0
C569 C 0.47594 0.02056 0.33642 0.0
C570 C 0.45796 0.02133 0.35462 0.0
H571 H 0.41352 0.07249 0.39581 0.0
H572 H 0.44187 0.05684 0.39367 0.0
H573 H 0.42597 0.0647 0.36627 0.0
H574 H 0.40685 0.01284 0.31871 0.0
H575 H 0.43841 0.01107 0.2869 0.0
H576 H 0.03053 0.60002 0.7413 0.0
H577 H 0.03135 0.63307 0.7118 0.0
H578 H 0.98136 0.58994 0.66508 0.0
H579 H 0.98079 0.55641 0.69447 0.0
H580 H 0.02215 0.60686 0.64083 0.0
H581 H 0.98307 0.684 0.693 0.0
H582 H 0.00782 0.67052 0.70898 0.0
H583 H 0.97988 0.65245 0.70274 0.0
C584 C 0.01926 0.59772 0.72501 0.0
C585 C 0.00559 0.57554 0.72024 0.0
C586 C 0.01967 0.61674 0.70818 0.0
C587 C 0.00624 0.61414 0.6863 0.0
C588 C 0.99179 0.5924 0.6819 0.0
H589 H 0.99486 0.73034 0.58005 0.0
H590 H 0.98705 0.69958 0.61125 0.0
C591 C 0.99138 0.5733 0.69876 0.0
C592 C 0.00917 0.63313 0.6672 0.0
H593 H 0.00594 0.69479 0.65712 0.0
C594 C 0.01838 0.62605 0.64432 0.0
C595 C 0.0041 0.65814 0.67166 0.0
C596 C 0.99294 0.66671 0.69534 0.0
C597 C 0.02321 0.64337 0.62602 0.0
C598 C 0.01922 0.66856 0.63089 0.0
C599 C 0.00939 0.67555 0.65353 0.0
C600 C 0.0245 0.68783 0.61248 0.0
C601 C 0.03228 0.63444 0.60154 0.0
C602 C 0.04834 0.69189 0.60311 0.0
C603 C 0.05292 0.70949 0.58512 0.0
C604 C 0.03377 0.72353 0.57627 0.0
C605 C 0.01009 0.71988 0.5863 0.0
C606 C 0.00554 0.70227 0.6042 0.0
H607 H 0.02805 0.6144 0.5986 0.0
H608 H 0.02392 0.64459 0.58643 0.0
H609 H 0.05255 0.6376 0.6007 0.0
H610 H 0.0634 0.68137 0.60964 0.0
H611 H 0.07141 0.7119 0.578 0.0
H612 H 0.46106 0.97047 0.71191 0.0
H613 H 0.43079 0.97678 0.6794 0.0
H614 H 0.44802 0.05514 0.68328 0.0
H615 H 0.47685 0.04891 0.71651 0.0
H616 H 0.40206 0.04918 0.67932 0.0
H617 H 0.44187 0.98839 0.6093 0.0
H618 H 0.43348 0.97161 0.63608 0.0
H619 H 0.4573 0.99575 0.63784 0.0
C620 C 0.45824 0.98895 0.70571 0.0
C621 C 0.4709 0.00923 0.71682 0.0
C622 C 0.44117 0.99258 0.68698 0.0
C623 C 0.4374 0.01644 0.67842 0.0
C624 C 0.45048 0.03657 0.68943 0.0
H625 H 0.35777 0.03398 0.5415 0.0
H626 H 0.38971 0.03856 0.57326 0.0
C627 C 0.46698 0.033 0.70843 0.0
C628 C 0.41945 0.0208 0.65849 0.0
H629 H 0.40168 1.00226 0.60096 0.0
C630 C 0.40205 0.03889 0.66222 0.0
C631 C 0.41984 0.00811 0.63569 0.0
C632 C 0.43931 0.9901 0.62936 0.0
C633 C 0.38463 0.04405 0.64428 0.0
C634 C 0.38409 0.03031 0.62209 0.0
C635 C 0.40191 0.01272 0.61802 0.0
C636 C 0.36451 0.03277 0.60336 0.0
C637 C 0.36723 0.06443 0.64927 0.0
C638 C 0.33963 0.02904 0.60972 0.0
C639 C 0.32143 0.02709 0.59165 0.0
C640 C 0.32778 0.02852 0.56692 0.0
C641 C 0.35241 0.03356 0.56053 0.0
C642 C 0.37065 0.03581 0.57864 0.0
H643 H 0.37554 0.07854 0.66213 0.0
H644 H 0.36201 0.07365 0.63222 0.0
H645 H 0.35029 0.05656 0.65791 0.0
H646 H 0.33439 0.02596 0.6285 0.0
H647 H 0.30261 0.02256 0.59692 0.0
H648 H 0.04461 0.31056 0.56992 0.0
H649 H 0.04925 0.34257 0.60166 0.0
H650 H 0.97358 0.36077 0.59154 0.0
H651 H 0.96858 0.3286 0.55984 0.0
H652 H 0.04194 0.39398 0.59728 0.0
H653 H 0.9795 0.35047 0.6656 0.0
H654 H 0.99113 0.33356 0.63973 0.0
H655 H 0.96607 0.35365 0.63588 0.0
C656 C 0.02883 0.32118 0.57452 0.0
C657 C 0.00615 0.31686 0.56232 0.0
C658 C 0.03159 0.33956 0.59262 0.0
C659 C 0.01173 0.35389 0.59907 0.0
C660 C 0.98905 0.34966 0.58706 0.0
H661 H 0.98837 0.46682 0.70893 0.0
H662 H 0.98499 0.43638 0.67563 0.0
C663 C 0.98625 0.33129 0.56889 0.0
C664 C 0.01488 0.37347 0.61818 0.0
H665 H 0.99392 0.39138 0.67386 0.0
C666 C 0.03169 0.39335 0.61423 0.0
C667 C 1.00134 0.37266 0.64011 0.0
C668 C 0.98363 0.35135 0.64577 0.0
C669 C 0.03501 0.41272 0.6315 0.0
C670 C 0.02159 0.41181 0.65363 0.0
C671 C 0.00466 0.39194 0.65732 0.0
C672 C 0.02422 0.43136 0.67305 0.0
C673 C 0.05207 0.43435 0.6253 0.0
C674 C 0.0474 0.4389 0.68283 0.0
C675 C 0.04935 0.45683 0.70158 0.0
C676 C 0.02809 0.46661 0.71153 0.0
C677 C 0.005 0.45915 0.70179 0.0
C678 C 0.00308 0.44177 0.68274 0.0
H679 H 0.0543 0.43607 0.60524 0.0
H680 H 0.04523 0.45191 0.63275 0.0
H681 H 0.07053 0.43157 0.63319 0.0
H682 H 0.06395 0.43065 0.6763 0.0
H683 H 0.06733 0.46245 0.70881 0.0
H684 H 0.60446 0.00892 0.74091 0.0
H685 H 0.63549 0.00638 0.70892 0.0
H686 H 0.5907 0.04858 0.66154 0.0
H687 H 0.5597 0.05153 0.69363 0.0
H688 H 0.62786 0.9838 0.66417 0.0
H689 H 0.65843 0.08157 0.65275 0.0
H690 H 0.6413 0.07111 0.67904 0.0
H691 H 0.62564 0.07658 0.65081 0.0
C692 C 0.60146 0.01819 0.72389 0.0
C693 C 0.57963 0.0305 0.71982 0.0
C694 C 0.61917 0.01659 0.70557 0.0
C695 C 0.61548 0.02734 0.68286 0.0
C696 C 0.59416 0.0405 0.67907 0.0
H697 H 0.68395 0.03141 0.54284 0.0
H698 H 0.65515 0.02911 0.5769 0.0
C699 C 0.57644 0.0422 0.69744 0.0
C700 C 0.63306 0.02331 0.66263 0.0
H701 H 0.66952 0.05338 0.62119 0.0
C702 C 0.63717 0.99899 0.6549 0.0
C703 C 0.64524 0.04313 0.65062 0.0
C704 C 0.64265 0.06955 0.65886 0.0
C705 C 0.65249 0.99403 0.63493 0.0
C706 C 0.6641 0.0139 0.62255 0.0
C707 C 0.66041 0.03816 0.63061 0.0
C708 C 0.67965 0.0103 0.60069 0.0
C709 C 0.65556 0.96769 0.62673 0.0
C710 C 0.70256 0.9994 0.60237 0.0
C711 C 0.71901 1.0004 0.58268 0.0
C712 C 0.71274 0.01255 0.56129 0.0
C713 C 0.68913 0.0218 0.55911 0.0
C714 C 0.67274 0.02065 0.57859 0.0
H715 H 0.6418 0.95483 0.63526 0.0
H716 H 0.65383 0.96586 0.60657 0.0
H717 H 0.67421 0.96208 0.63191 0.0
H718 H 0.70837 0.9916 0.61939 0.0
H719 H 0.73729 0.9936 0.58497 0.0
H720 H 0.43769 0.30269 0.04404 0.0
H721 H 0.40559 0.33244 0.04553 0.0
H722 H 0.43457 0.36622 0.9804 0.0
H723 H 0.46761 0.33681 0.97932 0.0
H724 H 0.4251 0.40032 0.01407 0.0
H725 H 0.34382 0.33589 0.00674 0.0
H726 H 0.36327 0.32825 0.03169 0.0
H727 H 0.37459 0.32627 1.00086 0.0
C728 C 0.43711 0.31619 0.02977 0.0
C729 C 0.45517 0.31726 0.01145 0.0
C730 C 0.41858 0.33316 0.03059 0.0
C731 C 0.41729 0.35134 0.01283 0.0
C732 C 0.43508 0.35226 0.99424 0.0
H733 H 0.29216 0.44246 0.99492 0.0
H734 H 0.32272 0.41114 0.99277 0.0
C735 C 0.45388 0.33538 0.99356 0.0
C736 C 0.39815 0.37008 0.01459 0.0
H737 H 0.33636 0.37666 0.02147 0.0
C738 C 0.40567 0.39516 0.01547 0.0
C739 C 0.37274 0.36341 0.01618 0.0
C740 C 0.36311 0.337 0.01355 0.0
C741 C 0.38858 0.41369 0.01825 0.0
C742 C 0.36328 0.40696 0.02104 0.0
C743 C 0.35576 0.38188 0.0198 0.0
C744 C 0.3441 0.42559 0.02364 0.0
C745 C 0.39781 0.44028 0.01751 0.0
C746 C 0.34538 0.44388 0.0422 0.0
C747 C 0.32794 0.46215 0.04332 0.0
C748 C 0.30865 0.46215 0.02617 0.0
C749 C 0.30675 0.44308 0.00844 0.0
C750 C 0.32428 0.4251 0.00715 0.0
H751 H 0.41604 0.44223 0.00847 0.0
H752 H 0.38469 0.45169 0.00768 0.0
H753 H 0.39995 0.44768 0.03645 0.0
H754 H 0.36005 0.44425 0.05562 0.0
H755 H 0.32986 0.47652 0.05725 0.0
H756 H 0.31066 0.57636 0.05182 0.0
H757 H 0.34582 0.60565 0.05624 0.0
H758 H 0.35588 0.60423 0.97816 0.0
H759 H 0.32055 0.57459 0.97375 0.0
H760 H 0.39916 0.59803 0.00374 0.0
H761 H 0.35209 0.67855 0.04249 0.0
H762 H 0.3441 0.64963 0.05641 0.0
H763 H 0.33642 0.65427 0.02483 0.0
C764 C 0.31987 0.58292 0.03554 0.0
C765 C 0.31242 0.57389 0.01237 0.0
C766 C 0.34006 0.59958 0.03809 0.0
C767 C 0.35326 0.60754 0.0175 0.0
C768 C 0.34585 0.5985 0.99429 0.0
H769 H 0.47701 0.7044 0.98598 0.0
H770 H 0.44515 0.67133 0.98659 0.0
C771 C 0.32565 0.5817 0.99175 0.0
C772 C 0.3755 0.62427 0.0204 0.0
H773 H 0.39516 0.68071 0.04301 0.0
C774 C 0.39826 0.61622 0.01211 0.0
C775 C 0.37447 0.64785 0.03164 0.0
C776 C 0.35045 0.65828 0.03925 0.0
C777 C 0.41989 0.63124 0.0146 0.0
C778 C 0.41866 0.65499 0.0255 0.0
C779 C 0.3961 0.6626 0.03455 0.0
C780 C 0.43981 0.67324 0.02573 0.0
C781 C 0.44386 0.62132 0.00585 0.0
C782 C 0.44721 0.68571 0.04747 0.0
C783 C 0.46515 0.70502 0.04702 0.0
C784 C 0.47543 0.71243 0.02477 0.0
C785 C 0.46879 0.69935 0.00326 0.0
C786 C 0.45094 0.68014 0.00368 0.0
H787 H 0.44349 0.60088 0.00657 0.0
H788 H 0.44681 0.62651 0.98655 0.0
H789 H 0.45968 0.62891 0.0169 0.0
H790 H 0.43876 0.68081 0.06468 0.0
H791 H 0.47037 0.71467 0.06386 0.0
H792 H 0.5657 0.31783 0.98077 0.0
H793 H 0.59426 0.35286 0.97385 0.0
H794 H 0.60301 0.36389 0.05165 0.0
H795 H 0.57341 0.32917 0.05857 0.0
H796 H 0.5965 0.4068 0.02966 0.0
H797 H 0.66738 0.35774 0.97748 0.0
H798 H 0.63645 0.35087 0.96722 0.0
H799 H 0.64559 0.3427 0.9976 0.0
C800 C 0.57422 0.32732 0.9964 0.0
C801 C 0.56793 0.3204 0.02022 0.0
C802 C 0.59059 0.34737 0.99242 0.0
C803 C 0.60135 0.36075 0.01219 0.0
C804 C 0.59511 0.35378 0.03608 0.0
H805 H 0.71016 0.47533 0.0384 0.0
H806 H 0.67503 0.44585 0.03945 0.0
C807 C 0.57836 0.3339 0.04005 0.0
C808 C 0.61827 0.38257 0.00789 0.0
H809 H 0.67105 0.40081 0.97847 0.0
C810 C 0.61292 0.40541 0.01864 0.0
C811 C 0.63959 0.38101 0.99325 0.0
C812 C 0.64782 0.35675 0.9833 0.0
C813 C 0.62853 0.42645 0.01549 0.0
C814 C 0.65 0.42463 1.00115 0.0
C815 C 0.65467 0.40217 0.9895 0.0
C816 C 0.6694 0.44469 1.0003 0.0
C817 C 0.62182 0.45045 0.02747 0.0
C818 C 0.67826 0.45364 0.97788 0.0
C819 C 0.69864 0.47038 0.97726 0.0
C820 C 0.71076 0.47776 0.999 0.0
C821 C 0.70137 0.46946 0.02136 0.0
C822 C 0.68105 0.45294 0.022 0.0
H823 H 0.60162 0.45113 0.03017 0.0
H824 H 0.63072 0.45214 0.04572 0.0
H825 H 0.62817 0.46648 0.01651 0.0
H826 H 0.66971 0.44731 0.96089 0.0
H827 H 0.70544 0.47684 0.95985 0.0
H828 H 0.75673 0.60849 0.01203 0.0
H829 H 0.72923 0.64284 0.01111 0.0
H830 H 0.67299 0.59846 0.04703 0.0
H831 H 0.70062 0.56419 0.0485 0.0
H832 H 0.68671 0.6412 0.98589 0.0
H833 H 0.66773 0.6637 0.08281 0.0
H834 H 0.69292 0.64509 0.07361 0.0
H835 H 0.66217 0.6316 0.07546 0.0
C836 C 0.73876 0.60627 0.02038 0.0
C837 C 0.73085 0.5836 0.03034 0.0
C838 C 0.72301 0.6259 0.01973 0.0
C839 C 0.69904 0.62331 0.02904 0.0
C840 C 0.69154 0.60111 0.04015 0.0
H841 H 0.56971 0.69689 0.98229 0.0
H842 H 0.60399 0.66964 0.98678 0.0
C843 C 0.70737 0.58149 0.04096 0.0
C844 C 0.6812 0.64278 0.02482 0.0
H845 H 0.6402 0.67941 0.0533 0.0
C846 C 0.67673 0.64973 1.00068 0.0
C847 C 0.6683 0.65409 0.04408 0.0
C848 C 0.67318 0.64844 0.07046 0.0
C849 C 0.65933 0.6672 0.99522 0.0
C850 C 0.64565 0.67768 0.01437 0.0
C851 C 0.65055 0.67122 0.03858 0.0
C852 C 0.62586 0.69507 0.00977 0.0
C853 C 0.65595 0.67439 0.96899 0.0
C854 C 0.6267 0.71846 0.02114 0.0
C855 C 0.60706 0.73402 0.01871 0.0
C856 C 0.58611 0.72646 0.00492 0.0
C857 C 0.58567 0.70339 0.99282 0.0
C858 C 0.6053 0.68779 0.99534 0.0
H859 H 0.67247 0.67062 0.95788 0.0
H860 H 0.64012 0.66343 0.96097 0.0
H861 H 0.65213 0.69424 0.96763 0.0
H862 H 0.64236 0.72447 0.03236 0.0
H863 H 0.60796 0.75164 0.02833 0.0
H864 H 0.49202 0.79706 0.92945 0.0
H865 H 0.49733 0.82888 0.89922 0.0
H866 H 0.55791 0.86231 0.94076 0.0
H867 H 0.55257 0.83002 0.97161 0.0
H868 H 0.52102 0.89502 0.92896 0.0
H869 H 0.54834 0.84298 0.84654 0.0
H870 H 0.52205 0.82858 0.861 0.0
H871 H 0.55111 0.83098 0.8769 0.0
C872 C 0.50691 0.81078 0.93197 0.0
C873 C 0.52193 0.81099 0.95292 0.0
C874 C 0.50998 0.82895 0.91454 0.0
C875 C 0.52816 0.84783 0.91755 0.0
C876 C 0.54388 0.84773 0.93801 0.0
H877 H 0.54187 0.95708 0.8031 0.0
H878 H 0.55031 0.92567 0.83266 0.0
C879 C 0.54095 0.82924 0.9555 0.0
C880 C 0.52867 0.86868 0.90042 0.0
H881 H 0.52851 0.88115 0.8396 0.0
C882 C 0.52312 0.89215 0.90945 0.0
C883 C 0.53153 0.86495 0.87499 0.0
C884 C 0.53884 0.84055 0.86431 0.0
C885 C 0.51917 0.91166 0.89361 0.0
C886 C 0.52034 0.90743 0.86807 0.0
C887 C 0.52713 0.8843 0.85915 0.0
C888 C 0.51482 0.92673 0.85023 0.0
C889 C 0.51371 0.93658 0.90439 0.0
C890 C 0.49179 0.93754 0.84991 0.0
C891 C 0.48683 0.95571 0.83296 0.0
C892 C 0.50475 0.96323 0.81585 0.0
C893 C 0.52756 0.95187 0.81594 0.0
C894 C 0.5325 0.93386 0.8329 0.0
H895 H 0.52048 0.93866 0.92351 0.0
H896 H 0.52224 0.95167 0.89345 0.0
H897 H 0.4935 0.93863 0.90456 0.0
H898 H 0.47761 0.93187 0.86272 0.0
H899 H 0.46905 0.96393 0.83336 0.0
H900 H 0.19699 0.5732 0.96809 0.0
H901 H 0.16816 0.56578 0.93402 0.0
H902 H 0.20228 0.49757 0.91642 0.0
H903 H 0.23121 0.50479 0.95018 0.0
H904 H 0.1918 0.52679 0.87517 0.0
H905 H 0.1111 0.51241 0.93615 0.0
H906 H 0.12879 0.54084 0.941 0.0
H907 H 0.14243 0.51207 0.94711 0.0
C908 C 0.19853 0.55673 0.95686 0.0
C909 C 0.21633 0.5395 0.96207 0.0
C910 C 0.18194 0.55245 0.93748 0.0
C911 C 0.18287 0.53094 0.92297 0.0
C912 C 0.20118 0.51423 0.9275 0.0
H913 H 0.06854 0.46377 0.82906 0.0
H914 H 0.10111 0.47191 0.85947 0.0
C915 C 0.21768 0.5184 0.94687 0.0
C916 C 0.16441 0.52537 0.90344 0.0
H917 H 0.10321 0.51178 0.89369 0.0
C918 C 0.17242 0.52355 0.87917 0.0
C919 C 0.13922 0.52075 0.90881 0.0
C920 C 0.12979 0.52138 0.93468 0.0
C921 C 0.15581 0.51756 0.86005 0.0
C922 C 0.13054 0.51349 0.86536 0.0
C923 C 0.12259 0.515 0.88967 0.0
C924 C 0.11193 0.50795 0.84597 0.0
C925 C 0.16548 0.51526 0.83436 0.0
C926 C 0.10729 0.52547 0.82826 0.0
C927 C 0.0887 0.52092 0.81089 0.0
C928 C 0.07426 0.49874 0.8109 0.0
C929 C 0.07929 0.48101 0.82843 0.0
C930 C 0.09786 0.48564 0.84588 0.0
H931 H 0.18567 0.51286 0.83413 0.0
H932 H 0.15617 0.49943 0.82445 0.0
H933 H 0.16175 0.53227 0.82435 0.0
H934 H 0.11766 0.54297 0.82825 0.0
H935 H 0.08537 0.53505 0.79774 0.0
H936 H 0.51848 0.10007 0.79461 0.0
H937 H 0.51812 0.13214 0.82679 0.0
H938 H 0.52507 0.07668 0.88141 0.0
H939 H 0.52526 0.04464 0.84922 0.0
H940 H 0.48017 0.13016 0.86379 0.0
H941 H 0.57435 0.1337 0.90371 0.0
H942 H 0.56771 0.12172 0.8733 0.0
H943 H 0.56024 0.10336 0.89939 0.0
C944 C 0.521 0.09495 0.81345 0.0
C945 C 0.52256 0.0701 0.81955 0.0
C946 C 0.52051 0.11319 0.83178 0.0
C947 C 0.52168 0.10679 0.85645 0.0
C948 C 0.52456 0.08206 0.86248 0.0
H949 H 0.5142 0.18466 0.99449 0.0
H950 H 0.51194 0.15274 0.96237 0.0
C951 C 0.52486 0.06381 0.84413 0.0
C952 C 0.51735 0.12544 0.87587 0.0
H953 H 0.54391 0.15476 0.92548 0.0
C954 C 0.49411 0.1357 0.87724 0.0
C955 C 0.53552 0.13241 0.89343 0.0
C956 C 0.56095 0.12242 0.89239 0.0
C957 C 0.48838 0.1524 0.89606 0.0
C958 C 0.50656 0.1594 0.91368 0.0
C959 C 0.52988 0.14925 0.91211 0.0
C960 C 0.50224 0.1775 0.93373 0.0
C961 C 0.46273 0.16186 0.89725 0.0
C962 C 0.49627 0.20181 0.9286 0.0
C963 C 0.49692 0.21995 0.94715 0.0
C964 C 0.50388 0.21405 0.97095 0.0
C965 C 0.50823 0.18947 0.97636 0.0
C966 C 0.50726 0.17133 0.95796 0.0
H967 H 0.44926 0.14935 0.8873 0.0
H968 H 0.45654 0.16401 0.91644 0.0
H969 H 0.46263 0.18014 0.88857 0.0
H970 H 0.49289 0.20719 0.91001 0.0
H971 H 0.49431 0.23894 0.94242 0.0
H972 H 0.95749 0.54657 0.80236 0.0
H973 H 0.92498 0.55291 0.83282 0.0
H974 H 0.94166 0.48438 0.86636 0.0
H975 H 0.97389 0.47815 0.83677 0.0
H976 H 0.88334 0.52111 0.84086 0.0
H977 H 0.93959 0.5312 0.92486 0.0
H978 H 0.95262 0.53485 0.89479 0.0
H979 H 0.94747 0.50459 0.90721 0.0
C980 C 0.95448 0.53316 0.81654 0.0
C981 C 0.96828 0.51186 0.81707 0.0
C982 C 0.93587 0.53673 0.83383 0.0
C983 C 0.93115 0.51927 0.85207 0.0
C984 C 0.94528 0.49836 0.85282 0.0
H985 H 0.82886 0.46675 0.95777 0.0
H986 H 0.86049 0.47413 0.92675 0.0
C987 C 0.96363 0.49475 0.83567 0.0
C988 C 0.91053 0.52148 0.86953 0.0
H989 H 0.89726 0.51672 0.93019 0.0
C990 C 0.88633 0.52073 0.86042 0.0
C991 C 0.91448 0.52096 0.89506 0.0
C992 C 0.93997 0.5232 0.90606 0.0
C993 C 0.86602 0.51793 0.87612 0.0
C994 C 0.87011 0.51592 0.90149 0.0
C995 C 0.89423 0.51788 0.91067 0.0
C996 C 0.84973 0.51101 0.91883 0.0
C997 C 0.84039 0.51596 0.86548 0.0
C998 C 0.83309 0.52924 0.92445 0.0
C999 C 0.81505 0.52514 0.94222 0.0
C1000 C 0.81328 0.50268 0.95473 0.0
C1001 C 0.8296 0.4842 0.9485 0.0
C1002 C 0.84774 0.48841 0.93083 0.0
H1003 H 0.84052 0.51452 0.84523 0.0
H1004 H 0.83005 0.49962 0.87276 0.0
H1005 H 0.83036 0.53254 0.8709 0.0
H1006 H 0.83449 0.54689 0.91555 0.0
H1007 H 0.80281 0.5398 0.94648 0.0
H1008 H 0.48369 0.05951 0.19283 0.0
H1009 H 0.48513 0.09313 0.16351 0.0
H1010 H 0.54072 0.13226 0.20727 0.0
H1011 H 0.53895 0.09924 0.23681 0.0
H1012 H 0.50804 0.16336 0.1889 0.0
H1013 H 0.54153 0.10151 0.11557 0.0
H1014 H 0.51231 0.09172 0.12806 0.0
H1015 H 0.53941 0.09235 0.14699 0.0
C1016 C 0.49589 0.07549 0.19641 0.0
C1017 C 0.51136 0.07659 0.21704 0.0
C1018 C 0.49687 0.09457 0.17951 0.0
C1019 C 0.5135 0.11493 0.18288 0.0
C1020 C 0.5279 0.11667 0.20417 0.0
H1021 H 0.57187 0.21091 0.06952 0.0
H1022 H 0.56646 0.18158 0.10269 0.0
C1023 C 0.52685 0.09772 0.22107 0.0
C1024 C 0.51682 0.134 0.16391 0.0
H1025 H 0.53402 0.1424 0.10462 0.0
C1026 C 0.51367 0.15878 0.17045 0.0
C1027 C 0.52471 0.12808 0.13999 0.0
C1028 C 0.52994 0.10202 0.13222 0.0
C1029 C 0.51796 0.17776 0.1537 0.0
C1030 C 0.5251 0.17175 0.12956 0.0
C1031 C 0.52844 0.14699 0.12308 0.0
C1032 C 0.52894 0.19075 0.1106 0.0
C1033 C 0.51537 0.2041 0.16222 0.0
C1034 C 0.50972 0.20574 0.10407 0.0
C1035 C 0.51281 0.22263 0.08529 0.0
C1036 C 0.53511 0.22471 0.07232 0.0
C1037 C 0.55447 0.20986 0.0791 0.0
C1038 C 0.55139 0.19303 0.09802 0.0
H1039 H 0.51726 0.20604 0.18237 0.0
H1040 H 0.52935 0.21663 0.15358 0.0
H1041 H 0.49683 0.2101 0.15713 0.0
H1042 H 0.49205 0.20393 0.11306 0.0
H1043 H 0.49738 0.23355 0.0805 0.0
H1044 H 0.96489 0.46532 0.20418 0.0
H1045 H 0.93546 0.46807 0.17012 0.0
H1046 H 0.93519 0.54694 0.18121 0.0
H1047 H 0.96492 0.54426 0.21433 0.0
H1048 H 0.88924 0.48437 0.17142 0.0
H1049 H 0.945 0.54285 0.10889 0.0
H1050 H 0.9582 0.52826 0.13486 0.0
H1051 H 0.94266 0.55666 0.13872 0.0
C1052 C 0.95864 0.48317 0.19905 0.0
C1053 C 0.96659 0.5045 0.21212 0.0
C1054 C 0.94188 0.48477 0.1797 0.0
C1055 C 0.93335 0.50778 0.17289 0.0
C1056 C 0.94188 0.52908 0.18567 0.0
H1057 H 0.81551 0.54805 0.07189 0.0
H1058 H 0.8472 0.55032 0.10427 0.0
C1059 C 0.95857 0.52748 0.20485 0.0
C1060 C 0.91454 0.50956 0.15338 0.0
H1061 H 0.90204 0.53814 0.09991 0.0
C1062 C 0.89206 0.49618 0.15585 0.0
C1063 C 0.91823 0.52494 0.13296 0.0
C1064 C 0.94242 0.5388 0.12854 0.0
C1065 C 0.87306 0.498 0.13869 0.0
C1066 C 0.87678 0.51326 0.11828 0.0
C1067 C 0.89916 0.52676 0.1158 0.0
C1068 C 0.85866 0.51308 0.09807 0.0
C1069 C 0.84912 0.48348 0.14243 0.0
C1070 C 0.85527 0.49174 0.08359 0.0
C1071 C 0.83751 0.49043 0.06524 0.0
C1072 C 0.82258 0.51047 0.06084 0.0
C1073 C 0.82663 0.53229 0.07481 0.0
C1074 C 0.84463 0.53359 0.09331 0.0
H1075 H 0.84691 0.47761 0.16165 0.0
H1076 H 0.8332 0.49449 0.13736 0.0
H1077 H 0.84875 0.46669 0.13054 0.0
H1078 H 0.8662 0.47588 0.08672 0.0
H1079 H 0.83529 0.47338 0.05473 0.0
H1080 H 0.50196 0.79437 0.08774 0.0
H1081 H 0.50647 0.82715 0.11894 0.0
H1082 H 0.50341 0.88173 0.0628 0.0
H1083 H 0.49699 0.84882 0.03191 0.0
H1084 H 0.54095 0.85881 0.12671 0.0
H1085 H 0.45838 0.91171 0.10916 0.0
H1086 H 0.46274 0.88213 0.09482 0.0
H1087 H 0.4772 0.9097 0.0825 0.0
C1088 C 0.50167 0.81342 0.08226 0.0
C1089 C 0.49876 0.81922 0.05763 0.0
C1090 C 0.50441 0.83216 0.10002 0.0
C1091 C 0.50493 0.85708 0.0934 0.0
C1092 C 0.5022 0.86279 0.06861 0.0
H1093 H 0.56714 0.96713 0.20046 0.0
H1094 H 0.56257 0.93776 0.16595 0.0
C1095 C 0.49868 0.84401 0.05093 0.0
C1096 C 0.50963 0.87681 0.11236 0.0
H1097 H 0.48911 0.93121 0.13474 0.0
C1098 C 0.5294 0.8745 0.12863 0.0
C1099 C 0.49463 0.89733 0.11502 0.0
C1100 C 0.47192 0.90024 0.0996 0.0
C1101 C 0.53429 0.89169 0.14769 0.0
C1102 C 0.51977 0.91268 0.14992 0.0
C1103 C 0.50035 0.91525 0.13323 0.0
C1104 C 0.52314 0.93138 0.17018 0.0
C1105 C 0.55439 0.88641 0.16563 0.0
C1106 C 0.50248 0.93904 0.18314 0.0
C1107 C 0.50503 0.95661 0.20195 0.0
C1108 C 0.52837 0.96607 0.20921 0.0
C1109 C 0.54904 0.95925 0.19586 0.0
C1110 C 0.54642 0.94225 0.17631 0.0
H1111 H 0.5575 0.86636 0.16645 0.0
H1112 H 0.57187 0.89576 0.15975 0.0
H1113 H 0.54994 0.89308 0.18421 0.0
H1114 H 0.48423 0.9314 0.17877 0.0
H1115 H 0.48862 0.96279 0.21088 0.0
H1116 H 0.23072 0.49525 0.08895 0.0
H1117 H 0.20121 0.49208 0.12286 0.0
H1118 H 0.14892 0.53145 0.08097 0.0
H1119 H 0.1781 0.53455 0.04737 0.0
H1120 H 0.18486 0.53462 0.14635 0.0
H1121 H 0.10525 0.4775 0.11119 0.0
H1122 H 0.1353 0.47714 0.09726 0.0
H1123 H 0.11484 0.5013 0.09057 0.0
C1124 C 0.21251 0.50221 0.08667 0.0
C1125 C 0.20653 0.51492 0.06552 0.0
C1126 C 0.19579 0.50065 0.1061 0.0
C1127 C 0.17279 0.5114 0.10439 0.0
C1128 C 0.16631 0.52261 0.08258 0.0
H1129 H 0.0519 0.55376 0.19514 0.0
H1130 H 0.08332 0.55039 0.16344 0.0
C1131 C 0.18301 0.52438 0.06338 0.0
C1132 C 0.15672 0.51385 0.12608 0.0
H1133 H 0.09748 0.50431 0.14536 0.0
C1134 C 0.16585 0.52766 0.14634 0.0
C1135 C 0.13187 0.505 0.12591 0.0
C1136 C 0.12129 0.48921 0.10515 0.0
C1137 C 0.15056 0.53363 0.16603 0.0
C1138 C 0.12555 0.52528 0.16556 0.0
C1139 C 0.11658 0.51098 0.14555 0.0
C1140 C 0.10839 0.53061 0.18581 0.0
C1141 C 0.16107 0.54952 0.18675 0.0
C1142 C 0.1124 0.52131 0.20913 0.0
C1143 C 0.09457 0.52333 0.22729 0.0
C1144 C 0.07229 0.53458 0.22245 0.0
C1145 C 0.06893 0.54519 0.19953 0.0
C1146 C 0.08678 0.54308 0.18133 0.0
H1147 H 0.1784 0.5596 0.18146 0.0
H1148 H 0.14766 0.5631 0.19301 0.0
H1149 H 0.16525 0.53764 0.20236 0.0
H1150 H 0.12874 0.51132 0.21292 0.0
H1151 H 0.09769 0.51485 0.2447 0.0
H1152 H 0.84237 0.98012 0.54429 0.0
H1153 H 0.87241 0.94777 0.54158 0.0
H1154 H 0.82102 0.90231 0.49856 0.0
H1155 H 0.79122 0.93461 0.50076 0.0
H1156 H 0.87206 0.89908 0.5545 0.0
H1157 H 0.88063 0.9068 0.45413 0.0
H1158 H 0.86515 0.92909 0.47267 0.0
H1159 H 0.84959 0.90034 0.46391 0.0
C1160 C 0.83736 0.96308 0.53456 0.0
C1161 C 0.81451 0.96002 0.52256 0.0
C1162 C 0.85457 0.94465 0.53293 0.0
C1163 C 0.84921 0.92288 0.51929 0.0
C1164 C 0.82585 0.91923 0.50856 0.0
H1165 H 0.93225 0.78971 0.52415 0.0
H1166 H 0.90006 0.81973 0.5254 0.0
C1167 C 0.80874 0.93765 0.51003 0.0
C1168 C 0.86814 0.90418 0.51585 0.0
H1169 H 0.89979 0.873 0.47214 0.0
C1170 C 0.87816 0.89342 0.5365 0.0
C1171 C 0.87644 0.8971 0.49236 0.0
C1172 C 0.8676 0.9091 0.46951 0.0
C1173 C 0.89587 0.87543 0.53431 0.0
C1174 C 0.90338 0.86758 0.51077 0.0
C1175 C 0.89375 0.87872 0.49014 0.0
C1176 C 0.92172 0.8483 0.5073 0.0
C1177 C 0.90673 0.86538 0.55726 0.0
C1178 C 0.94403 0.85378 0.49528 0.0
C1179 C 0.96236 0.83647 0.49416 0.0
C1180 C 0.95869 0.81337 0.50508 0.0
C1181 C 0.93574 0.80739 0.51571 0.0
C1182 C 0.91739 0.82463 0.51667 0.0
H1183 H 0.90419 0.87789 0.57325 0.0
H1184 H 0.89737 0.84736 0.56129 0.0
H1185 H 0.9267 0.86252 0.55507 0.0
H1186 H 0.94768 0.87184 0.48768 0.0
H1187 H 0.97984 0.84168 0.4859 0.0
H1188 H 0.97436 0.21166 0.56018 0.0
H1189 H 0.94281 0.17768 0.55874 0.0
H1190 H 0.94716 0.17554 0.4801 0.0
H1191 H 0.97871 0.209 0.4816 0.0
H1192 H 0.89794 0.18019 0.53601 0.0
H1193 H 0.94773 0.10271 0.49584 0.0
H1194 H 0.96341 0.12987 0.50896 0.0
H1195 H 0.95109 0.13033 0.47846 0.0
C1196 C 0.96868 0.20364 0.5427 0.0
C1197 C 0.97833 0.21322 0.52098 0.0
C1198 C 0.95079 0.18427 0.54185 0.0
C1199 C 0.9429 0.17382 0.51931 0.0
C1200 C 0.95334 0.18286 0.49771 0.0
H1201 H 0.82509 0.07197 0.46728 0.0
H1202 H 0.85989 0.10239 0.47081 0.0
C1203 C 0.97104 0.20224 0.49856 0.0
C1204 C 0.92197 0.15537 0.51806 0.0
H1205 H 0.9037 0.09849 0.49516 0.0
C1206 C 0.89924 0.16232 0.52717 0.0
C1207 C 0.92368 0.13202 0.50644 0.0
C1208 C 0.94785 0.12316 0.49706 0.0
C1209 C 0.87793 0.14715 0.52406 0.0
C1210 C 0.87949 0.12372 0.51259 0.0
C1211 C 0.9024 0.11648 0.50386 0.0
C1212 C 0.85769 0.10629 0.51014 0.0
C1213 C 0.8537 0.15697 0.53181 0.0
C1214 C 0.84492 0.09835 0.531 0.0
C1215 C 0.82503 0.08129 0.52894 0.0
C1216 C 0.81744 0.07176 0.506 0.0
C1217 C 0.8303 0.07945 0.48511 0.0
C1218 C 0.8502 0.0967 0.48715 0.0
H1219 H 0.85478 0.17732 0.53457 0.0
H1220 H 0.83954 0.15222 0.51771 0.0
H1221 H 0.84793 0.14857 0.54929 0.0
H1222 H 0.85079 0.10481 0.549 0.0
H1223 H 0.81613 0.07485 0.54544 0.0
H1224 H 0.06615 0.8311 0.57385 0.0
H1225 H 0.09723 0.86551 0.57263 0.0
H1226 H 0.09785 0.85996 0.49395 0.0
H1227 H 0.06669 0.82637 0.49519 0.0
H1228 H 0.14299 0.86282 0.55505 0.0
H1229 H 0.0962 0.93326 0.50327 0.0
H1230 H 0.07971 0.90721 0.51647 0.0
H1231 H 0.09449 0.90417 0.48724 0.0
C1232 C 0.07277 0.8376 0.55639 0.0
C1233 C 0.06463 0.82583 0.53465 0.0
C1234 C 0.09041 0.85721 0.55566 0.0
C1235 C 0.09959 0.86563 0.53316 0.0
C1236 C 0.09064 0.85434 0.51149 0.0
H1237 H 0.2193 0.9558 0.47399 0.0
H1238 H 0.18395 0.92702 0.48123 0.0
C1239 C 0.07315 0.83484 0.51223 0.0
C1240 C 0.12039 0.88424 0.53209 0.0
H1241 H 0.14066 0.93635 0.50296 0.0
C1242 C 0.14241 0.87902 0.54385 0.0
C1243 C 0.11961 0.90548 0.51756 0.0
C1244 C 0.09612 0.91299 0.50564 0.0
C1245 C 0.16409 0.89336 0.54013 0.0
C1246 C 0.16359 0.91426 0.5251 0.0
C1247 C 0.14124 0.92016 0.5142 0.0
C1248 C 0.18598 0.93036 0.52065 0.0
C1249 C 0.18771 0.88487 0.55079 0.0
C1250 C 0.19896 0.94172 0.54031 0.0
C1251 C 0.21927 0.95771 0.53616 0.0
C1252 C 0.22697 0.96288 0.51229 0.0
C1253 C 0.21399 0.95169 0.49256 0.0
C1254 C 0.19376 0.93541 0.49671 0.0
H1255 H 0.18609 0.86538 0.55662 0.0
H1256 H 0.2024 0.88663 0.53696 0.0
H1257 H 0.19304 0.89648 0.56697 0.0
H1258 H 0.1929 0.93891 0.55889 0.0
H1259 H 0.22831 0.96689 0.55168 0.0
H1260 H 0.1069 0.24196 0.53132 0.0
H1261 H 0.13882 0.2121 0.53386 0.0
H1262 H 0.10626 0.17121 0.47276 0.0
H1263 H 0.07344 0.20066 0.47078 0.0
H1264 H 0.11579 0.14121 0.50835 0.0
H1265 H 0.19891 0.20155 0.49478 0.0
H1266 H 0.18074 0.21255 0.51959 0.0
H1267 H 0.16835 0.21174 0.48901 0.0
C1268 C 0.10674 0.22691 0.51807 0.0
C1269 C 0.08765 0.22377 0.50075 0.0
C1270 C 0.12515 0.20985 0.51949 0.0
C1271 C 0.12526 0.18954 0.50328 0.0
C1272 C 0.10664 0.18677 0.48543 0.0
H1273 H 0.24574 0.09247 0.48703 0.0
H1274 H 0.21619 0.12459 0.48443 0.0
C1275 C 0.08797 0.2037 0.4842 0.0
C1276 C 0.14378 0.17039 0.50612 0.0
H1277 H 0.20542 0.16211 0.5118 0.0
C1278 C 0.13541 0.14576 0.50889 0.0
C1279 C 0.16942 0.17622 0.50667 0.0
C1280 C 0.17989 0.20191 0.50209 0.0
C1281 C 0.15187 0.12687 0.51234 0.0
C1282 C 0.17745 0.13288 0.51393 0.0
C1283 C 0.18581 0.1575 0.511 0.0
C1284 C 0.19601 0.11375 0.51677 0.0
C1285 C 0.14165 0.10063 0.51351 0.0
C1286 C 0.19502 0.09716 0.53621 0.0
C1287 C 0.21185 0.07836 0.53758 0.0
C1288 C 0.23023 0.07618 0.51979 0.0
C1289 C 0.23183 0.09355 0.50107 0.0
C1290 C 0.2149 0.11201 0.49953 0.0
H1291 H 0.12294 0.09853 0.50531 0.0
H1292 H 0.1538 0.08776 0.50387 0.0
H1293 H 0.14024 0.09517 0.53288 0.0
H1294 H 0.18109 0.09855 0.55017 0.0
H1295 H 0.21022 0.06536 0.55229 0.0
loop_
_geom_bond_atom_site_label_1
_geom_bond_atom_site_label_2
_geom_bond_distance
_geom_bond_site_symmetry_2
_ccdc_geom_bond_type
Mn0 O5 2.095 . S
Mn0 O15 2.162 . S
Mn0 O16 2.297 . S
Mn0 O24 2.385 1_455 S
Mn0 O25 2.209 1_455 S
Mn0 O26 2.094 . S
Mn1 O6 2.121 . S
Mn1 N8 2.257 . S
Mn1 N17 2.282 . S
Mn1 O25 2.215 . S
Mn1 O27 2.117 . S
C2 O24 1.234 . S
C2 O25 1.283 . S
C3 O15 1.281 . S
C3 O16 1.236 . S
C4 O26 1.240 . S
C4 O27 1.264 1_455 S
O5 Mn0 2.095 . S
O5 C14 1.250 . S
O6 Mn1 2.121 . S
O6 C14 1.258 1_655 S
C7 N8 1.326 . S
C7 C11 1.460 . S
C7 H13 0.929 . S
N8 Mn1 2.257 . S
N8 C7 1.326 . S
N8 C12 1.362 . S
C9 C10 1.258 . S
C9 C12 1.431 . S
C9 C29 1.449 . S
C10 C9 1.258 . S
C10 C11 1.477 . S
C10 H30 0.931 . S
C11 C7 1.460 . S
C11 C10 1.477 . S
C11 H31 0.930 . S
C12 N8 1.362 . S
C12 C9 1.431 . S
C12 C22 1.476 . S
H13 C7 0.929 . S
C14 O5 1.250 . S
C14 O6 1.258 1_455 S
O15 Mn0 2.162 . S
O15 C3 1.281 . S
O16 Mn0 2.297 . S
O16 C3 1.236 . S
N17 Mn1 2.282 . S
N17 C18 1.328 . S
N17 C22 1.318 . S
C18 N17 1.328 . S
C18 C19 1.457 . S
C18 H23 0.929 . S
C19 C18 1.457 . S
C19 C20 1.291 . S
C19 H32 0.931 . S
C20 C19 1.291 . S
C20 C21 1.373 . S
C20 H33 0.929 . S
C21 C20 1.373 . S
C21 C22 1.396 . S
C21 C28 1.403 . S
C22 C12 1.476 . S
C22 N17 1.318 . S
C22 C21 1.396 . S
H23 C18 0.929 . S
O24 Mn0 2.385 1_655 S
O24 C2 1.234 . S
O25 Mn0 2.209 1_655 S
O25 Mn1 2.215 . S
O25 C2 1.283 . S
O26 Mn0 2.094 . S
O26 C4 1.240 . S
O27 Mn1 2.117 . S
O27 C4 1.264 1_655 S
C28 C21 1.403 . S
C28 C29 1.399 . S
C28 H34 0.929 . S
C29 C9 1.449 . S
C29 C28 1.399 . S
C29 H35 0.930 . S
H30 C10 0.931 . S
H31 C11 0.930 . S
H32 C19 0.931 . S
H33 C20 0.929 . S
H34 C28 0.929 . S
H35 C29 0.930 . S
Mn36 O41 2.095 . S
Mn36 O51 2.162 1_545 S
Mn36 O52 2.297 1_545 S
Mn36 O60 2.385 . S
Mn36 O61 2.209 . S
Mn36 O62 2.094 . S
Mn37 O42 2.121 . S
Mn37 N44 2.257 . S
Mn37 N53 2.282 . S
Mn37 O61 2.215 . S
Mn37 O63 2.117 . S
C38 O60 1.234 . S
C38 O61 1.283 . S
C39 O51 1.281 . S
C39 O52 1.236 . S
C40 O62 1.240 . S
C40 O63 1.264 . S
O41 Mn36 2.095 . S
O41 C50 1.250 . S
O42 Mn37 2.121 . S
O42 C50 1.258 . S
C43 N44 1.326 . S
C43 C47 1.460 . S
C43 H49 0.929 . S
N44 Mn37 2.257 . S
N44 C43 1.326 . S
N44 C48 1.362 . S
C45 C46 1.258 . S
C45 C48 1.431 . S
C45 C65 1.449 . S
C46 C45 1.258 . S
C46 C47 1.477 . S
C46 H66 0.931 . S
C47 C43 1.460 . S
C47 C46 1.477 . S
C47 H67 0.930 . S
C48 N44 1.362 . S
C48 C45 1.431 . S
C48 C58 1.476 . S
H49 C43 0.929 . S
C50 O41 1.250 . S
C50 O42 1.258 . S
O51 Mn36 2.162 1_565 S
O51 C39 1.281 . S
O52 Mn36 2.297 1_565 S
O52 C39 1.236 . S
N53 Mn37 2.282 . S
N53 C54 1.328 . S
N53 C58 1.318 . S
C54 N53 1.328 . S
C54 C55 1.457 . S
C54 H59 0.929 . S
C55 C54 1.457 . S
C55 C56 1.291 . S
C55 H68 0.931 . S
C56 C55 1.291 . S
C56 C57 1.373 . S
C56 H69 0.929 . S
C57 C56 1.373 . S
C57 C58 1.396 . S
C57 C64 1.403 . S
C58 C48 1.476 . S
C58 N53 1.318 . S
C58 C57 1.396 . S
H59 C54 0.929 . S
O60 Mn36 2.385 . S
O60 C38 1.234 . S
O61 Mn36 2.209 . S
O61 Mn37 2.215 . S
O61 C38 1.283 . S
O62 Mn36 2.094 . S
O62 C40 1.240 . S
O63 Mn37 2.117 . S
O63 C40 1.264 . S
C64 C57 1.403 . S
C64 C65 1.399 . S
C64 H70 0.929 . S
C65 C45 1.449 . S
C65 C64 1.399 . S
C65 H71 0.930 . S
H66 C46 0.931 . S
H67 C47 0.930 . S
H68 C55 0.931 . S
H69 C56 0.929 . S
H70 C64 0.929 . S
H71 C65 0.930 . S
Mn72 O77 2.095 . S
Mn72 O87 2.162 1_455 S
Mn72 O88 2.297 1_455 S
Mn72 O96 2.385 . S
Mn72 O97 2.209 . S
Mn72 O98 2.094 . S
Mn73 O78 2.121 . S
Mn73 N80 2.257 . S
Mn73 N89 2.282 . S
Mn73 O97 2.215 . S
Mn73 O99 2.117 . S
C74 O96 1.234 . S
C74 O97 1.283 . S
C75 O87 1.281 . S
C75 O88 1.236 . S
C76 O98 1.240 . S
C76 O99 1.264 . S
O77 Mn72 2.095 . S
O77 C86 1.250 . S
O78 Mn73 2.121 . S
O78 C86 1.258 . S
C79 N80 1.326 . S
C79 C83 1.460 . S
C79 H85 0.929 . S
N80 Mn73 2.257 . S
N80 C79 1.326 . S
N80 C84 1.362 . S
C81 C82 1.258 . S
C81 C84 1.431 . S
C81 C101 1.449 . S
C82 C81 1.258 . S
C82 C83 1.477 . S
C82 H102 0.931 . S
C83 C79 1.460 . S
C83 C82 1.477 . S
C83 H103 0.930 . S
C84 N80 1.362 . S
C84 C81 1.431 . S
C84 C94 1.476 . S
H85 C79 0.929 . S
C86 O77 1.250 . S
C86 O78 1.258 . S
O87 Mn72 2.162 1_655 S
O87 C75 1.281 . S
O88 Mn72 2.297 1_655 S
O88 C75 1.236 . S
N89 Mn73 2.282 . S
N89 C90 1.328 . S
N89 C94 1.318 . S
C90 N89 1.328 . S
C90 C91 1.457 . S
C90 H95 0.929 . S
C91 C90 1.457 . S
C91 C92 1.291 . S
C91 H104 0.931 . S
C92 C91 1.291 . S
C92 C93 1.373 . S
C92 H105 0.929 . S
C93 C92 1.373 . S
C93 C94 1.396 . S
C93 C100 1.403 . S
C94 C84 1.476 . S
C94 N89 1.318 . S
C94 C93 1.396 . S
H95 C90 0.929 . S
O96 Mn72 2.385 . S
O96 C74 1.234 . S
O97 Mn72 2.209 . S
O97 Mn73 2.215 . S
O97 C74 1.283 . S
O98 Mn72 2.094 . S
O98 C76 1.240 . S
O99 Mn73 2.117 . S
O99 C76 1.264 . S
C100 C93 1.403 . S
C100 C101 1.399 . S
C100 H106 0.929 . S
C101 C81 1.449 . S
C101 C100 1.399 . S
C101 H107 0.930 . S
H102 C82 0.931 . S
H103 C83 0.930 . S
H104 C91 0.931 . S
H105 C92 0.929 . S
H106 C100 0.929 . S
H107 C101 0.930 . S
Mn108 O113 2.095 . S
Mn108 O123 2.162 . S
Mn108 O124 2.297 . S
Mn108 O132 2.385 1_545 S
Mn108 O133 2.209 1_545 S
Mn108 O134 2.094 . S
Mn109 O114 2.121 . S
Mn109 N116 2.257 . S
Mn109 N125 2.282 . S
Mn109 O133 2.215 . S
Mn109 O135 2.117 . S
C110 O132 1.234 . S
C110 O133 1.283 . S
C111 O123 1.281 . S
C111 O124 1.236 . S
C112 O134 1.240 . S
C112 O135 1.264 1_545 S
O113 Mn108 2.095 . S
O113 C122 1.250 . S
O114 Mn109 2.121 . S
O114 C122 1.258 1_565 S
C115 N116 1.326 . S
C115 C119 1.460 . S
C115 H121 0.929 . S
N116 Mn109 2.257 . S
N116 C115 1.326 . S
N116 C120 1.362 . S
C117 C118 1.258 . S
C117 C120 1.431 . S
C117 C137 1.449 . S
C118 C117 1.258 . S
C118 C119 1.477 . S
C118 H138 0.931 . S
C119 C115 1.460 . S
C119 C118 1.477 . S
C119 H139 0.930 . S
C120 N116 1.362 . S
C120 C117 1.431 . S
C120 C130 1.476 . S
H121 C115 0.929 . S
C122 O113 1.250 . S
C122 O114 1.258 1_545 S
O123 Mn108 2.162 . S
O123 C111 1.281 . S
O124 Mn108 2.297 . S
O124 C111 1.236 . S
N125 Mn109 2.282 . S
N125 C126 1.328 . S
N125 C130 1.318 . S
C126 N125 1.328 . S
C126 C127 1.457 . S
C126 H131 0.929 . S
C127 C126 1.457 . S
C127 C128 1.291 . S
C127 H140 0.931 . S
C128 C127 1.291 . S
C128 C129 1.373 . S
C128 H141 0.929 . S
C129 C128 1.373 . S
C129 C130 1.396 . S
C129 C136 1.403 . S
C130 C120 1.476 . S
C130 N125 1.318 . S
C130 C129 1.396 . S
H131 C126 0.929 . S
O132 Mn108 2.385 1_565 S
O132 C110 1.234 . S
O133 Mn108 2.209 1_565 S
O133 Mn109 2.215 . S
O133 C110 1.283 . S
O134 Mn108 2.094 . S
O134 C112 1.240 . S
O135 Mn109 2.117 . S
O135 C112 1.264 1_565 S
C136 C129 1.403 . S
C136 C137 1.399 . S
C136 H142 0.929 . S
C137 C117 1.449 . S
C137 C136 1.399 . S
C137 H143 0.930 . S
H138 C118 0.931 . S
H139 C119 0.930 . S
H140 C127 0.931 . S
H141 C128 0.929 . S
H142 C136 0.929 . S
H143 C137 0.930 . S
Mn144 O149 2.095 . S
Mn144 O159 2.162 . S
Mn144 O160 2.297 . S
Mn144 O168 2.385 . S
Mn144 O169 2.209 1_545 S
Mn144 O170 2.094 . S
Mn145 O150 2.121 . S
Mn145 N152 2.257 . S
Mn145 N161 2.282 . S
Mn145 O169 2.215 . S
Mn145 O171 2.117 . S
C146 O168 1.234 1_565 S
C146 O169 1.283 . S
C147 O159 1.281 . S
C147 O160 1.236 . S
C148 O170 1.240 . S
C148 O171 1.264 1_545 S
O149 Mn144 2.095 . S
O149 C158 1.250 . S
O150 Mn145 2.121 . S
O150 C158 1.258 1_565 S
C151 N152 1.326 . S
C151 C155 1.460 . S
C151 H157 0.929 . S
N152 Mn145 2.257 . S
N152 C151 1.326 . S
N152 C156 1.362 . S
C153 C154 1.258 . S
C153 C156 1.431 . S
C153 C173 1.449 . S
C154 C153 1.258 . S
C154 C155 1.477 . S
C154 H174 0.931 . S
C155 C151 1.460 . S
C155 C154 1.477 . S
C155 H175 0.930 . S
C156 N152 1.362 . S
C156 C153 1.431 . S
C156 C166 1.476 . S
H157 C151 0.929 . S
C158 O149 1.250 . S
C158 O150 1.258 1_545 S
O159 Mn144 2.162 . S
O159 C147 1.281 . S
O160 Mn144 2.297 . S
O160 C147 1.236 . S
N161 Mn145 2.282 . S
N161 C162 1.328 . S
N161 C166 1.318 . S
C162 N161 1.328 . S
C162 C163 1.457 . S
C162 H167 0.929 . S
C163 C162 1.457 . S
C163 C164 1.291 . S
C163 H176 0.931 . S
C164 C163 1.291 . S
C164 C165 1.373 . S
C164 H177 0.929 . S
C165 C164 1.373 . S
C165 C166 1.396 . S
C165 C172 1.403 . S
C166 C156 1.476 . S
C166 N161 1.318 . S
C166 C165 1.396 . S
H167 C162 0.929 . S
O168 Mn144 2.385 . S
O168 C146 1.234 1_545 S
O169 Mn144 2.209 1_565 S
O169 Mn145 2.215 . S
O169 C146 1.283 . S
O170 Mn144 2.094 . S
O170 C148 1.240 . S
O171 Mn145 2.117 . S
O171 C148 1.264 1_565 S
C172 C165 1.403 . S
C172 C173 1.399 . S
C172 H178 0.929 . S
C173 C153 1.449 . S
C173 C172 1.399 . S
C173 H179 0.930 . S
H174 C154 0.931 . S
H175 C155 0.930 . S
H176 C163 0.931 . S
H177 C164 0.929 . S
H178 C172 0.929 . S
H179 C173 0.930 . S
Mn180 O185 2.095 . S
Mn180 O195 2.162 . S
Mn180 O196 2.297 . S
Mn180 O204 2.385 1_455 S
Mn180 O205 2.209 1_455 S
Mn180 O206 2.094 . S
Mn181 O186 2.121 . S
Mn181 N188 2.257 . S
Mn181 N197 2.282 . S
Mn181 O205 2.215 . S
Mn181 O207 2.117 . S
C182 O204 1.234 . S
C182 O205 1.283 . S
C183 O195 1.281 . S
C183 O196 1.236 . S
C184 O206 1.240 . S
C184 O207 1.264 1_455 S
O185 Mn180 2.095 . S
O185 C194 1.250 . S
O186 Mn181 2.121 . S
O186 C194 1.258 1_655 S
C187 N188 1.326 . S
C187 C191 1.460 . S
C187 H193 0.929 . S
N188 Mn181 2.257 . S
N188 C187 1.326 . S
N188 C192 1.362 . S
C189 C190 1.258 . S
C189 C192 1.431 . S
C189 C209 1.449 . S
C190 C189 1.258 . S
C190 C191 1.477 . S
C190 H210 0.931 . S
C191 C187 1.460 . S
C191 C190 1.477 . S
C191 H211 0.930 . S
C192 N188 1.362 . S
C192 C189 1.431 . S
C192 C202 1.476 . S
H193 C187 0.929 . S
C194 O185 1.250 . S
C194 O186 1.258 1_455 S
O195 Mn180 2.162 . S
O195 C183 1.281 . S
O196 Mn180 2.297 . S
O196 C183 1.236 . S
N197 Mn181 2.282 . S
N197 C198 1.328 . S
N197 C202 1.318 . S
C198 N197 1.328 . S
C198 C199 1.457 . S
C198 H203 0.929 . S
C199 C198 1.457 . S
C199 C200 1.291 . S
C199 H212 0.931 . S
C200 C199 1.291 . S
C200 C201 1.373 . S
C200 H213 0.929 . S
C201 C200 1.373 . S
C201 C202 1.396 . S
C201 C208 1.403 . S
C202 C192 1.476 . S
C202 N197 1.318 . S
C202 C201 1.396 . S
H203 C198 0.929 . S
O204 Mn180 2.385 1_655 S
O204 C182 1.234 . S
O205 Mn180 2.209 1_655 S
O205 Mn181 2.215 . S
O205 C182 1.283 . S
O206 Mn180 2.094 . S
O206 C184 1.240 . S
O207 Mn181 2.117 . S
O207 C184 1.264 1_655 S
C208 C201 1.403 . S
C208 C209 1.399 . S
C208 H214 0.929 . S
C209 C189 1.449 . S
C209 C208 1.399 . S
C209 H215 0.930 . S
H210 C190 0.931 . S
H211 C191 0.930 . S
H212 C199 0.931 . S
H213 C200 0.929 . S
H214 C208 0.929 . S
H215 C209 0.930 . S
Mn216 O221 2.095 . S
Mn216 O231 2.162 . S
Mn216 O232 2.297 . S
Mn216 O240 2.385 1_545 S
Mn216 O241 2.209 . S
Mn216 O242 2.094 1_545 S
Mn217 O222 2.121 . S
Mn217 N224 2.257 . S
Mn217 N233 2.282 1_545 S
Mn217 O241 2.215 . S
Mn217 O243 2.117 1_545 S
C218 O240 1.234 1_545 S
C218 O241 1.283 . S
C219 O231 1.281 . S
C219 O232 1.236 . S
C220 O242 1.240 . S
C220 O243 1.264 . S
O221 Mn216 2.095 . S
O221 C230 1.250 . S
O222 Mn217 2.121 . S
O222 C230 1.258 . S
C223 N224 1.326 . S
C223 C227 1.460 . S
C223 H229 0.929 . S
N224 Mn217 2.257 . S
N224 C223 1.326 . S
N224 C228 1.362 . S
C225 C226 1.258 . S
C225 C228 1.431 . S
C225 C245 1.449 . S
C226 C225 1.258 . S
C226 C227 1.477 . S
C226 H246 0.931 . S
C227 C223 1.460 . S
C227 C226 1.477 . S
C227 H247 0.930 . S
C228 N224 1.362 . S
C228 C225 1.431 . S
C228 C238 1.476 . S
H229 C223 0.929 . S
C230 O221 1.250 . S
C230 O222 1.258 . S
O231 Mn216 2.162 . S
O231 C219 1.281 . S
O232 Mn216 2.297 . S
O232 C219 1.236 . S
N233 Mn217 2.282 1_565 S
N233 C234 1.328 . S
N233 C238 1.318 1_565 S
C234 N233 1.328 . S
C234 C235 1.457 . S
C234 H239 0.929 . S
C235 C234 1.457 . S
C235 C236 1.291 . S
C235 H248 0.931 . S
C236 C235 1.291 . S
C236 C237 1.373 . S
C236 H249 0.929 . S
C237 C236 1.373 . S
C237 C238 1.396 1_565 S
C237 C244 1.403 1_565 S
C238 C228 1.476 . S
C238 N233 1.318 1_545 S
C238 C237 1.396 1_545 S
H239 C234 0.929 . S
O240 Mn216 2.385 1_565 S
O240 C218 1.234 1_565 S
O241 Mn216 2.209 . S
O241 Mn217 2.215 . S
O241 C218 1.283 . S
O242 Mn216 2.094 1_565 S
O242 C220 1.240 . S
O243 Mn217 2.117 1_565 S
O243 C220 1.264 . S
C244 C237 1.403 1_545 S
C244 C245 1.399 . S
C244 H250 0.929 1_545 S
C245 C225 1.449 . S
C245 C244 1.399 . S
C245 H251 0.930 . S
H246 C226 0.931 . S
H247 C227 0.930 . S
H248 C235 0.931 . S
H249 C236 0.929 . S
H250 C244 0.929 1_565 S
H251 C245 0.930 . S
Mn252 O257 2.095 1_455 S
Mn252 O267 2.162 . S
Mn252 O268 2.297 1_455 S
Mn252 O276 2.385 . S
Mn252 O277 2.209 . S
Mn252 O278 2.094 . S
Mn253 O258 2.121 1_455 S
Mn253 N260 2.257 1_455 S
Mn253 N269 2.282 . S
Mn253 O277 2.215 . S
Mn253 O279 2.117 . S
C254 O276 1.234 . S
C254 O277 1.283 . S
C255 O267 1.281 . S
C255 O268 1.236 1_455 S
C256 O278 1.240 . S
C256 O279 1.264 . S
O257 Mn252 2.095 1_655 S
O257 C266 1.250 . S
O258 Mn253 2.121 1_655 S
O258 C266 1.258 . S
C259 N260 1.326 . S
C259 C263 1.460 . S
C259 H265 0.929 . S
N260 Mn253 2.257 1_655 S
N260 C259 1.326 . S
N260 C264 1.362 . S
C261 C262 1.258 . S
C261 C264 1.431 . S
C261 C281 1.449 . S
C262 C261 1.258 . S
C262 C263 1.477 . S
C262 H282 0.931 . S
C263 C259 1.460 . S
C263 C262 1.477 . S
C263 H283 0.930 . S
C264 N260 1.362 . S
C264 C261 1.431 . S
C264 C274 1.476 1_655 S
H265 C259 0.929 . S
C266 O257 1.250 . S
C266 O258 1.258 . S
O267 Mn252 2.162 . S
O267 C255 1.281 . S
O268 Mn252 2.297 1_655 S
O268 C255 1.236 1_655 S
N269 Mn253 2.282 . S
N269 C270 1.328 . S
N269 C274 1.318 . S
C270 N269 1.328 . S
C270 C271 1.457 . S
C270 H275 0.929 . S
C271 C270 1.457 . S
C271 C272 1.291 . S
C271 H284 0.931 . S
C272 C271 1.291 . S
C272 C273 1.373 . S
C272 H285 0.929 . S
C273 C272 1.373 . S
C273 C274 1.396 . S
C273 C280 1.403 . S
C274 C264 1.476 1_455 S
C274 N269 1.318 . S
C274 C273 1.396 . S
H275 C270 0.929 . S
O276 Mn252 2.385 . S
O276 C254 1.234 . S
O277 Mn252 2.209 . S
O277 Mn253 2.215 . S
O277 C254 1.283 . S
O278 Mn252 2.094 . S
O278 C256 1.240 . S
O279 Mn253 2.117 . S
O279 C256 1.264 . S
C280 C273 1.403 . S
C280 C281 1.399 1_455 S
C280 H286 0.929 . S
C281 C261 1.449 . S
C281 C280 1.399 1_655 S
C281 H287 0.930 . S
H282 C262 0.931 . S
H283 C263 0.930 . S
H284 C271 0.931 . S
H285 C272 0.929 . S
H286 C280 0.929 . S
H287 C281 0.930 . S
Mn288 O293 2.095 . S
Mn288 O303 2.162 1_554 S
Mn288 O304 2.297 . S
Mn288 O312 2.385 1_554 S
Mn288 O313 2.209 . S
Mn288 O314 2.094 1_554 S
Mn289 O294 2.121 . S
Mn289 N296 2.257 . S
Mn289 N305 2.282 1_554 S
Mn289 O313 2.215 . S
Mn289 O315 2.117 1_554 S
C290 O312 1.234 1_554 S
C290 O313 1.283 . S
C291 O303 1.281 1_554 S
C291 O304 1.236 . S
C292 O314 1.240 . S
C292 O315 1.264 . S
O293 Mn288 2.095 . S
O293 C302 1.250 . S
O294 Mn289 2.121 . S
O294 C302 1.258 . S
C295 N296 1.326 . S
C295 C299 1.460 . S
C295 H301 0.929 . S
N296 Mn289 2.257 . S
N296 C295 1.326 . S
N296 C300 1.362 . S
C297 C298 1.258 . S
C297 C300 1.431 . S
C297 C317 1.449 . S
C298 C297 1.258 . S
C298 C299 1.477 . S
C298 H318 0.931 . S
C299 C295 1.460 . S
C299 C298 1.477 . S
C299 H319 0.930 . S
C300 N296 1.362 . S
C300 C297 1.431 . S
C300 C310 1.476 . S
H301 C295 0.929 . S
C302 O293 1.250 . S
C302 O294 1.258 . S
O303 Mn288 2.162 1_556 S
O303 C291 1.281 1_556 S
O304 Mn288 2.297 . S
O304 C291 1.236 . S
N305 Mn289 2.282 1_556 S
N305 C306 1.328 . S
N305 C310 1.318 1_556 S
C306 N305 1.328 . S
C306 C307 1.457 . S
C306 H311 0.929 . S
C307 C306 1.457 . S
C307 C308 1.291 . S
C307 H320 0.931 . S
C308 C307 1.291 . S
C308 C309 1.373 . S
C308 H321 0.929 . S
C309 C308 1.373 . S
C309 C310 1.396 1_556 S
C309 C316 1.403 1_556 S
C310 C300 1.476 . S
C310 N305 1.318 1_554 S
C310 C309 1.396 1_554 S
H311 C306 0.929 . S
O312 Mn288 2.385 1_556 S
O312 C290 1.234 1_556 S
O313 Mn288 2.209 . S
O313 Mn289 2.215 . S
O313 C290 1.283 . S
O314 Mn288 2.094 1_556 S
O314 C292 1.240 . S
O315 Mn289 2.117 1_556 S
O315 C292 1.264 . S
C316 C309 1.403 1_554 S
C316 C317 1.399 . S
C316 H322 0.929 . S
C317 C297 1.449 . S
C317 C316 1.399 . S
C317 H323 0.930 . S
H318 C298 0.931 . S
H319 C299 0.930 . S
H320 C307 0.931 . S
H321 C308 0.929 . S
H322 C316 0.929 . S
H323 C317 0.930 . S
Mn324 O329 2.095 1_554 S
Mn324 O339 2.162 . S
Mn324 O340 2.297 1_554 S
Mn324 O348 2.385 . S
Mn324 O349 2.204 1_554 S
Mn324 O350 2.094 . S
Mn325 O330 2.119 1_554 S
Mn325 N332 2.255 1_554 S
Mn325 N341 2.283 . S
Mn325 O349 2.214 1_554 S
Mn325 O351 2.120 . S
C326 O348 1.234 . S
C326 O349 1.275 1_554 S
C327 O339 1.246 1_556 S
C327 O340 1.262 . S
C328 O350 1.240 . S
C328 O351 1.264 . S
O329 Mn324 2.095 1_556 S
O329 C338 1.250 . S
O330 Mn325 2.119 1_556 S
O330 C338 1.258 . S
C331 N332 1.326 . S
C331 C335 1.460 . S
C331 H337 0.929 . S
N332 Mn325 2.255 1_556 S
N332 C331 1.326 . S
N332 C336 1.362 . S
C333 C334 1.258 . S
C333 C336 1.431 . S
C333 C353 1.449 . S
C334 C333 1.258 . S
C334 C335 1.477 . S
C334 H354 0.931 . S
C335 C331 1.460 . S
C335 C334 1.477 . S
C335 H355 0.930 . S
C336 N332 1.362 . S
C336 C333 1.431 . S
C336 C346 1.476 1_556 S
H337 C331 0.929 . S
C338 O329 1.250 . S
C338 O330 1.258 . S
O339 Mn324 2.162 . S
O339 C327 1.246 1_554 S
O340 Mn324 2.297 1_556 S
O340 C327 1.262 . S
N341 Mn325 2.283 . S
N341 C342 1.328 . S
N341 C346 1.318 . S
C342 N341 1.328 . S
C342 C343 1.457 . S
C342 H347 0.929 . S
C343 C342 1.457 . S
C343 C344 1.291 . S
C343 H356 0.931 . S
C344 C343 1.291 . S
C344 C345 1.373 . S
C344 H357 0.929 . S
C345 C344 1.373 . S
C345 C346 1.396 . S
C345 C352 1.403 . S
C346 C336 1.476 1_554 S
C346 N341 1.318 . S
C346 C345 1.396 . S
H347 C342 0.929 . S
O348 Mn324 2.385 . S
O348 C326 1.234 . S
O349 Mn324 2.204 1_556 S
O349 Mn325 2.214 1_556 S
O349 C326 1.275 1_556 S
O350 Mn324 2.094 . S
O350 C328 1.240 . S
O351 Mn325 2.120 . S
O351 C328 1.264 . S
C352 C345 1.403 . S
C352 C353 1.399 1_554 S
C352 H358 0.929 . S
C353 C333 1.449 . S
C353 C352 1.399 1_556 S
C353 H359 0.930 . S
H354 C334 0.931 . S
H355 C335 0.930 . S
H356 C343 0.931 . S
H357 C344 0.929 . S
H358 C352 0.929 . S
H359 C353 0.930 . S
Mn360 O365 2.095 . S
Mn360 O375 2.162 . S
Mn360 O376 2.297 . S
Mn360 O384 2.385 1_554 S
Mn360 O385 2.209 . S
Mn360 O386 2.094 1_554 S
Mn361 O366 2.121 . S
Mn361 N368 2.257 . S
Mn361 N377 2.282 1_554 S
Mn361 O385 2.215 . S
Mn361 O387 2.117 1_554 S
C362 O384 1.234 1_554 S
C362 O385 1.283 . S
C363 O375 1.281 . S
C363 O376 1.236 . S
C364 O386 1.240 . S
C364 O387 1.264 . S
O365 Mn360 2.095 . S
O365 C374 1.250 . S
O366 Mn361 2.121 . S
O366 C374 1.258 . S
C367 N368 1.326 . S
C367 C371 1.460 . S
C367 H373 0.929 . S
N368 Mn361 2.257 . S
N368 C367 1.326 . S
N368 C372 1.362 . S
C369 C370 1.258 . S
C369 C372 1.431 . S
C369 C389 1.449 . S
C370 C369 1.258 . S
C370 C371 1.477 . S
C370 H390 0.931 . S
C371 C367 1.460 . S
C371 C370 1.477 . S
C371 H391 0.930 . S
C372 N368 1.362 . S
C372 C369 1.431 . S
C372 C382 1.476 . S
H373 C367 0.929 . S
C374 O365 1.250 . S
C374 O366 1.258 . S
O375 Mn360 2.162 . S
O375 C363 1.281 . S
O376 Mn360 2.297 . S
O376 C363 1.236 . S
N377 Mn361 2.282 1_556 S
N377 C378 1.328 . S
N377 C382 1.318 1_556 S
C378 N377 1.328 . S
C378 C379 1.457 . S
C378 H383 0.929 . S
C379 C378 1.457 . S
C379 C380 1.291 . S
C379 H392 0.931 . S
C380 C379 1.291 . S
C380 C381 1.373 . S
C380 H393 0.929 . S
C381 C380 1.373 . S
C381 C382 1.396 1_556 S
C381 C388 1.403 1_556 S
C382 C372 1.476 . S
C382 N377 1.318 1_554 S
C382 C381 1.396 1_554 S
H383 C378 0.929 . S
O384 Mn360 2.385 1_556 S
O384 C362 1.234 1_556 S
O385 Mn360 2.209 . S
O385 Mn361 2.215 . S
O385 C362 1.283 . S
O386 Mn360 2.094 1_556 S
O386 C364 1.240 . S
O387 Mn361 2.117 1_556 S
O387 C364 1.264 . S
C388 C381 1.403 1_554 S
C388 C389 1.399 . S
C388 H394 0.929 1_554 S
C389 C369 1.449 . S
C389 C388 1.399 . S
C389 H395 0.930 . S
H390 C370 0.931 . S
H391 C371 0.930 . S
H392 C379 0.931 . S
H393 C380 0.929 . S
H394 C388 0.929 1_556 S
H395 C389 0.930 . S
Mn396 O401 2.095 1_554 S
Mn396 O411 2.162 . S
Mn396 O412 2.297 1_554 S
Mn396 O420 2.385 . S
Mn396 O421 2.209 . S
Mn396 O422 2.094 . S
Mn397 O402 2.121 1_554 S
Mn397 N404 2.257 1_554 S
Mn397 N413 2.282 . S
Mn397 O421 2.215 . S
Mn397 O423 2.117 . S
C398 O420 1.234 . S
C398 O421 1.283 . S
C399 O411 1.281 . S
C399 O412 1.236 1_554 S
C400 O422 1.240 . S
C400 O423 1.264 . S
O401 Mn396 2.095 1_556 S
O401 C410 1.250 . S
O402 Mn397 2.121 1_556 S
O402 C410 1.258 . S
C403 N404 1.326 . S
C403 C407 1.460 . S
C403 H409 0.929 . S
N404 Mn397 2.257 1_556 S
N404 C403 1.326 . S
N404 C408 1.362 . S
C405 C406 1.258 . S
C405 C408 1.431 . S
C405 C425 1.449 . S
C406 C405 1.258 . S
C406 C407 1.477 . S
C406 H426 0.931 . S
C407 C403 1.460 . S
C407 C406 1.477 . S
C407 H427 0.930 . S
C408 N404 1.362 . S
C408 C405 1.431 . S
C408 C418 1.476 1_556 S
H409 C403 0.929 . S
C410 O401 1.250 . S
C410 O402 1.258 . S
O411 Mn396 2.162 . S
O411 C399 1.281 . S
O412 Mn396 2.297 1_556 S
O412 C399 1.236 1_556 S
N413 Mn397 2.282 . S
N413 C414 1.328 . S
N413 C418 1.318 . S
C414 N413 1.328 . S
C414 C415 1.457 . S
C414 H419 0.929 . S
C415 C414 1.457 . S
C415 C416 1.291 . S
C415 H428 0.931 . S
C416 C415 1.291 . S
C416 C417 1.373 . S
C416 H429 0.929 . S
C417 C416 1.373 . S
C417 C418 1.396 . S
C417 C424 1.403 . S
C418 C408 1.476 1_554 S
C418 N413 1.318 . S
C418 C417 1.396 . S
H419 C414 0.929 . S
O420 Mn396 2.385 . S
O420 C398 1.234 . S
O421 Mn396 2.209 . S
O421 Mn397 2.215 . S
O421 C398 1.283 . S
O422 Mn396 2.094 . S
O422 C400 1.240 . S
O423 Mn397 2.117 . S
O423 C400 1.264 . S
C424 C417 1.403 . S
C424 C425 1.399 1_554 S
C424 H430 0.929 . S
C425 C405 1.449 . S
C425 C424 1.399 1_556 S
C425 H431 0.930 . S
H426 C406 0.931 . S
H427 C407 0.930 . S
H428 C415 0.931 . S
H429 C416 0.929 . S
H430 C424 0.929 . S
H431 C425 0.930 . S
H432 C440 0.929 . S
H433 C442 0.930 . S
H434 C444 0.930 . S
H435 C447 0.929 . S
H436 C450 0.930 . S
H437 C452 0.960 . S
H438 C452 0.960 . S
H439 C452 0.960 . S
C440 H432 0.929 . S
C440 C441 1.377 . S
C440 C442 1.384 . S
C441 C440 1.377 . S
C441 C447 1.390 . S
C442 H433 0.930 . S
C442 C440 1.384 . S
C442 C443 1.372 . S
C443 C442 1.372 . S
C443 C444 1.400 . S
C443 C448 1.490 . S
C444 H434 0.930 . S
C444 C443 1.400 . S
C444 C447 1.386 . S
H445 C461 0.930 . S
H446 C462 0.931 . S
C447 H435 0.929 . S
C447 C441 1.390 . S
C447 C444 1.386 . S
C448 C443 1.490 . S
C448 C450 1.395 . S
C448 C451 1.403 1_455 S
H449 C455 0.930 . S
C450 H436 0.930 . S
C450 C448 1.395 . S
C450 C453 1.403 . S
C451 C448 1.403 1_655 S
C451 C452 1.524 . S
C451 C455 1.400 . S
C452 H437 0.960 . S
C452 H438 0.960 . S
C452 H439 0.960 . S
C452 C451 1.524 . S
C453 C450 1.403 . S
C453 C454 1.392 . S
C453 C457 1.495 . S
C454 C453 1.392 . S
C454 C455 1.385 1_455 S
C454 C456 1.478 . S
C455 H449 0.930 . S
C455 C451 1.400 . S
C455 C454 1.385 1_655 S
C456 C454 1.478 . S
C456 C458 1.381 . S
C456 C462 1.383 . S
C457 C453 1.495 . S
C457 H463 0.959 . S
C457 H464 0.961 . S
C457 H465 0.960 . S
C458 C456 1.381 . S
C458 C459 1.394 . S
C458 H466 0.930 . S
C459 C458 1.394 . S
C459 C460 1.383 . S
C459 H467 0.929 . S
C460 C459 1.383 . S
C460 C461 1.377 . S
C461 H445 0.930 . S
C461 C460 1.377 . S
C461 C462 1.379 . S
C462 H446 0.931 . S
C462 C456 1.383 . S
C462 C461 1.379 . S
H463 C457 0.959 . S
H464 C457 0.961 . S
H465 C457 0.960 . S
H466 C458 0.930 . S
H467 C459 0.929 . S
H468 C476 0.929 1_565 S
H469 C478 0.930 1_565 S
H470 C480 0.930 . S
H471 C483 0.929 . S
H472 C486 0.930 . S
H473 C488 0.960 . S
H474 C488 0.960 1_565 S
H475 C488 0.960 . S
C476 H468 0.929 1_545 S
C476 C477 1.377 . S
C476 C478 1.384 . S
C477 C476 1.377 . S
C477 C483 1.390 . S
C478 H469 0.930 1_545 S
C478 C476 1.384 . S
C478 C479 1.372 . S
C479 C478 1.372 . S
C479 C480 1.400 . S
C479 C484 1.490 . S
C480 H470 0.930 . S
C480 C479 1.400 . S
C480 C483 1.386 . S
H481 C497 0.930 . S
H482 C498 0.931 . S
C483 H471 0.929 . S
C483 C477 1.390 . S
C483 C480 1.386 . S
C484 C479 1.490 . S
C484 C486 1.395 . S
C484 C487 1.403 . S
H485 C491 0.930 . S
C486 H472 0.930 . S
C486 C484 1.395 . S
C486 C489 1.403 . S
C487 C484 1.403 . S
C487 C488 1.524 . S
C487 C491 1.400 . S
C488 H473 0.960 . S
C488 H474 0.960 1_545 S
C488 H475 0.960 . S
C488 C487 1.524 . S
C489 C486 1.403 . S
C489 C490 1.392 . S
C489 C493 1.495 . S
C490 C489 1.392 . S
C490 C491 1.385 . S
C490 C492 1.478 . S
C491 H485 0.930 . S
C491 C487 1.400 . S
C491 C490 1.385 . S
C492 C490 1.478 . S
C492 C494 1.381 1_545 S
C492 C498 1.383 . S
C493 C489 1.495 . S
C493 H499 0.959 . S
C493 H500 0.961 . S
C493 H501 0.960 . S
C494 C492 1.381 1_565 S
C494 C495 1.394 . S
C494 H502 0.930 . S
C495 C494 1.394 . S
C495 C496 1.383 1_565 S
C495 H503 0.929 . S
C496 C495 1.383 1_545 S
C496 C497 1.377 . S
C497 H481 0.930 . S
C497 C496 1.377 . S
C497 C498 1.379 . S
C498 H482 0.931 . S
C498 C492 1.383 . S
C498 C497 1.379 . S
H499 C493 0.959 . S
H500 C493 0.961 . S
H501 C493 0.960 . S
H502 C494 0.930 . S
H503 C495 0.929 . S
H504 C512 0.930 . S
H505 C514 0.930 . S
H506 C516 0.930 . S
H507 C519 0.929 . S
H508 C522 0.930 1_655 S
H509 C524 0.960 . S
H510 C524 0.960 . S
H511 C524 0.960 . S
C512 H504 0.930 . S
C512 C513 1.377 1_655 S
C512 C514 1.384 . S
C513 C512 1.377 1_455 S
C513 C519 1.390 . S
C514 H505 0.930 . S
C514 C512 1.384 . S
C514 C515 1.372 1_655 S
C515 C514 1.372 1_455 S
C515 C516 1.400 . S
C515 C520 1.490 . S
C516 H506 0.930 . S
C516 C515 1.400 . S
C516 C519 1.386 . S
H517 C533 0.930 . S
H518 C534 0.931 . S
C519 H507 0.929 . S
C519 C513 1.390 . S
C519 C516 1.386 . S
C520 C515 1.490 . S
C520 C522 1.395 . S
C520 C523 1.403 . S
H521 C527 0.930 . S
C522 H508 0.930 1_455 S
C522 C520 1.395 . S
C522 C525 1.408 . S
C523 C520 1.403 . S
C523 C524 1.524 . S
C523 C527 1.400 . S
C524 H509 0.960 . S
C524 H510 0.960 . S
C524 H511 0.960 . S
C524 C523 1.524 . S
C525 C522 1.408 . S
C525 C526 1.405 . S
C525 C529 1.480 1_455 S
C526 C525 1.405 . S
C526 C527 1.385 . S
C526 C528 1.478 . S
C527 H521 0.930 . S
C527 C523 1.400 . S
C527 C526 1.385 . S
C528 C526 1.478 . S
C528 C530 1.381 1_455 S
C528 C534 1.383 . S
C529 C525 1.480 1_655 S
C529 H535 0.959 . S
C529 H536 0.961 . S
C529 H537 0.960 . S
C530 C528 1.381 1_655 S
C530 C531 1.394 . S
C530 H538 0.930 . S
C531 C530 1.394 . S
C531 C532 1.383 1_655 S
C531 H539 0.929 . S
C532 C531 1.383 1_455 S
C532 C533 1.377 . S
C533 H517 0.930 . S
C533 C532 1.377 . S
C533 C534 1.379 . S
C534 H518 0.931 . S
C534 C528 1.383 . S
C534 C533 1.379 . S
H535 C529 0.959 . S
H536 C529 0.961 . S
H537 C529 0.960 . S
H538 C530 0.930 . S
H539 C531 0.929 . S
H540 C548 0.929 . S
H541 C550 0.930 . S
H542 C552 0.930 . S
H543 C555 0.929 . S
H544 C558 0.930 . S
H545 C560 0.960 . S
H546 C560 0.960 . S
H547 C560 0.960 . S
C548 H540 0.929 . S
C548 C549 1.377 1_565 S
C548 C550 1.384 . S
C549 C548 1.377 1_545 S
C549 C555 1.390 . S
C550 H541 0.930 . S
C550 C548 1.384 . S
C550 C551 1.372 1_565 S
C551 C550 1.372 1_545 S
C551 C552 1.400 . S
C551 C556 1.490 . S
C552 H542 0.930 . S
C552 C551 1.400 . S
C552 C555 1.386 . S
H553 C569 0.930 . S
H554 C570 0.931 . S
C555 H543 0.929 . S
C555 C549 1.390 . S
C555 C552 1.386 . S
C556 C551 1.490 . S
C556 C558 1.395 . S
C556 C559 1.422 . S
H557 C563 0.930 1_565 S
C558 H544 0.930 . S
C558 C556 1.395 . S
C558 C561 1.403 . S
C559 C556 1.422 . S
C559 C560 1.499 1_545 S
C559 C563 1.406 . S
C560 H545 0.960 . S
C560 H546 0.960 . S
C560 H547 0.960 . S
C560 C559 1.499 1_565 S
C561 C558 1.403 . S
C561 C562 1.392 . S
C561 C565 1.495 . S
C562 C561 1.392 . S
C562 C563 1.385 . S
C562 C564 1.478 . S
C563 H557 0.930 1_545 S
C563 C559 1.406 . S
C563 C562 1.385 . S
C564 C562 1.478 . S
C564 C566 1.381 . S
C564 C570 1.383 . S
C565 C561 1.495 . S
C565 H571 0.959 . S
C565 H572 0.961 . S
C565 H573 0.960 . S
C566 C564 1.381 . S
C566 C567 1.394 . S
C566 H574 0.930 . S
C567 C566 1.394 . S
C567 C568 1.383 . S
C567 H575 0.929 . S
C568 C567 1.383 . S
C568 C569 1.377 . S
C569 H553 0.930 . S
C569 C568 1.377 . S
C569 C570 1.379 . S
C570 H554 0.931 . S
C570 C564 1.383 . S
C570 C569 1.379 . S
H571 C565 0.959 . S
H572 C565 0.961 . S
H573 C565 0.960 . S
H574 C566 0.930 . S
H575 C567 0.929 . S
H576 C584 0.929 . S
H577 C586 0.930 . S
H578 C588 0.930 . S
H579 C591 0.929 . S
H580 C594 0.930 . S
H581 C596 0.960 . S
H582 C596 0.960 . S
H583 C596 0.960 1_655 S
C584 H576 0.929 . S
C584 C585 1.377 . S
C584 C586 1.384 . S
C585 C584 1.377 . S
C585 C591 1.390 1_455 S
C586 H577 0.930 . S
C586 C584 1.384 . S
C586 C587 1.372 . S
C587 C586 1.372 . S
C587 C588 1.400 1_455 S
C587 C592 1.490 . S
C588 H578 0.930 . S
C588 C587 1.400 1_655 S
C588 C591 1.386 . S
H589 C605 0.930 1_655 S
H590 C606 0.893 1_655 S
C591 H579 0.929 . S
C591 C585 1.390 1_655 S
C591 C588 1.386 . S
C592 C587 1.490 . S
C592 C594 1.395 . S
C592 C595 1.403 . S
H593 C599 0.930 . S
C594 H580 0.930 . S
C594 C592 1.395 . S
C594 C597 1.403 . S
C595 C592 1.403 . S
C595 C596 1.524 . S
C595 C599 1.400 . S
C596 H581 0.960 . S
C596 H582 0.960 . S
C596 H583 0.960 1_455 S
C596 C595 1.524 . S
C597 C594 1.403 . S
C597 C598 1.392 . S
C597 C601 1.495 . S
C598 C597 1.392 . S
C598 C599 1.385 . S
C598 C600 1.478 . S
C599 H593 0.930 . S
C599 C595 1.400 . S
C599 C598 1.385 . S
C600 C598 1.478 . S
C600 C602 1.381 . S
C600 C606 1.419 . S
C601 C597 1.495 . S
C601 H607 0.959 . S
C601 H608 0.961 . S
C601 H609 0.960 . S
C602 C600 1.381 . S
C602 C603 1.394 . S
C602 H610 0.930 . S
C603 C602 1.394 . S
C603 C604 1.383 . S
C603 H611 0.929 . S
C604 C603 1.383 . S
C604 C605 1.377 . S
C605 H589 0.930 1_455 S
C605 C604 1.377 . S
C605 C606 1.382 . S
C606 H590 0.893 1_455 S
C606 C600 1.419 . S
C606 C605 1.382 . S
H607 C601 0.959 . S
H608 C601 0.961 . S
H609 C601 0.960 . S
H610 C602 0.930 . S
H611 C603 0.929 . S
H612 C620 0.929 . S
H613 C622 0.930 . S
H614 C624 0.930 . S
H615 C627 0.929 . S
H616 C630 0.930 . S
H617 C632 0.960 . S
H618 C632 0.960 . S
H619 C632 0.960 . S
C620 H612 0.929 . S
C620 C621 1.377 1_565 S
C620 C622 1.384 . S
C621 C620 1.377 1_545 S
C621 C627 1.390 . S
C622 H613 0.930 . S
C622 C620 1.384 . S
C622 C623 1.372 1_565 S
C623 C622 1.372 1_545 S
C623 C624 1.400 . S
C623 C628 1.490 . S
C624 H614 0.930 . S
C624 C623 1.400 . S
C624 C627 1.386 . S
H625 C641 0.930 . S
H626 C642 0.931 . S
C627 H615 0.929 . S
C627 C621 1.390 . S
C627 C624 1.386 . S
C628 C623 1.490 . S
C628 C630 1.395 . S
C628 C631 1.403 1_545 S
H629 C635 0.930 1_565 S
C630 H616 0.930 . S
C630 C628 1.395 . S
C630 C633 1.403 . S
C631 C628 1.403 1_565 S
C631 C632 1.524 . S
C631 C635 1.400 1_565 S
C632 H617 0.960 . S
C632 H618 0.960 . S
C632 H619 0.960 . S
C632 C631 1.524 . S
C633 C630 1.403 . S
C633 C634 1.392 . S
C633 C637 1.495 . S
C634 C633 1.392 . S
C634 C635 1.385 . S
C634 C636 1.478 . S
C635 H629 0.930 1_545 S
C635 C631 1.400 1_545 S
C635 C634 1.385 . S
C636 C634 1.478 . S
C636 C638 1.381 . S
C636 C642 1.383 . S
C637 C633 1.495 . S
C637 H643 0.959 . S
C637 H644 0.961 . S
C637 H645 0.960 . S
C638 C636 1.381 . S
C638 C639 1.394 . S
C638 H646 0.939 . S
C639 C638 1.394 . S
C639 C640 1.383 . S
C639 H647 0.929 . S
C640 C639 1.383 . S
C640 C641 1.377 . S
C641 H625 0.930 . S
C641 C640 1.377 . S
C641 C642 1.379 . S
C642 H626 0.931 . S
C642 C636 1.383 . S
C642 C641 1.379 . S
H643 C637 0.959 . S
H644 C637 0.961 . S
H645 C637 0.960 . S
H646 C638 0.939 . S
H647 C639 0.929 . S
H648 C656 0.929 . S
H649 C658 0.930 . S
H650 C660 0.930 . S
H651 C663 0.929 . S
H652 C666 0.930 . S
H653 C668 0.960 . S
H654 C668 0.960 . S
H655 C668 0.960 . S
C656 H648 0.929 . S
C656 C657 1.377 . S
C656 C658 1.384 . S
C657 C656 1.377 . S
C657 C663 1.390 1_455 S
C658 H649 0.930 . S
C658 C656 1.384 . S
C658 C659 1.372 . S
C659 C658 1.372 . S
C659 C660 1.400 1_455 S
C659 C664 1.490 . S
C660 H650 0.930 . S
C660 C659 1.400 1_655 S
C660 C663 1.386 . S
H661 C677 0.927 . S
H662 C678 0.934 1_655 S
C663 H651 0.929 . S
C663 C657 1.390 1_655 S
C663 C660 1.386 . S
C664 C659 1.490 . S
C664 C666 1.395 . S
C664 C667 1.403 1_455 S
H665 C671 0.930 . S
C666 H652 0.930 . S
C666 C664 1.395 . S
C666 C669 1.403 . S
C667 C664 1.403 1_655 S
C667 C668 1.524 . S
C667 C671 1.400 . S
C668 H653 0.960 . S
C668 H654 0.960 . S
C668 H655 0.960 . S
C668 C667 1.524 . S
C669 C666 1.403 . S
C669 C670 1.392 . S
C669 C673 1.495 . S
C670 C669 1.392 . S
C670 C671 1.385 1_455 S
C670 C672 1.478 . S
C671 H665 0.930 . S
C671 C667 1.400 . S
C671 C670 1.385 1_655 S
C672 C670 1.478 . S
C672 C674 1.381 . S
C672 C678 1.383 . S
C673 C669 1.495 . S
C673 H679 0.959 . S
C673 H680 0.961 . S
C673 H681 0.960 . S
C674 C672 1.381 . S
C674 C675 1.394 . S
C674 H682 0.930 . S
C675 C674 1.394 . S
C675 C676 1.383 . S
C675 H683 0.929 . S
C676 C675 1.383 . S
C676 C677 1.377 . S
C677 H661 0.927 . S
C677 C676 1.377 . S
C677 C678 1.379 . S
C678 H662 0.934 1_455 S
C678 C672 1.383 . S
C678 C677 1.379 . S
H679 C673 0.959 . S
H680 C673 0.961 . S
H681 C673 0.960 . S
H682 C674 0.930 . S
H683 C675 0.929 . S
H684 C692 0.929 . S
H685 C694 0.930 . S
H686 C696 0.930 1_565 S
H687 C699 0.929 1_565 S
H688 C702 0.930 . S
H689 C704 0.960 . S
H690 C704 0.960 . S
H691 C704 0.960 . S
C692 H684 0.929 . S
C692 C693 1.377 . S
C692 C694 1.384 . S
C693 C692 1.377 . S
C693 C699 1.390 . S
C694 H685 0.930 . S
C694 C692 1.384 . S
C694 C695 1.372 . S
C695 C694 1.372 . S
C695 C696 1.400 . S
C695 C700 1.490 . S
C696 H686 0.930 1_545 S
C696 C695 1.400 . S
C696 C699 1.386 . S
H697 C713 0.930 . S
H698 C714 0.931 . S
C699 H687 0.929 1_545 S
C699 C693 1.390 . S
C699 C696 1.386 . S
C700 C695 1.490 . S
C700 C702 1.395 . S
C700 C703 1.403 . S
H701 C707 0.930 . S
C702 H688 0.930 . S
C702 C700 1.395 . S
C702 C705 1.403 . S
C703 C700 1.403 . S
C703 C704 1.524 . S
C703 C707 1.400 . S
C704 H689 0.960 . S
C704 H690 0.960 . S
C704 H691 0.960 . S
C704 C703 1.524 . S
C705 C702 1.403 . S
C705 C706 1.392 . S
C705 C709 1.495 . S
C706 C705 1.392 . S
C706 C707 1.385 . S
C706 C708 1.478 . S
C707 H701 0.930 . S
C707 C703 1.400 . S
C707 C706 1.385 . S
C708 C706 1.478 . S
C708 C710 1.381 . S
C708 C714 1.383 1_545 S
C709 C705 1.495 . S
C709 H715 0.959 . S
C709 H716 0.961 1_545 S
C709 H717 0.960 . S
C710 C708 1.381 . S
C710 C711 1.394 . S
C710 H718 0.930 . S
C711 C710 1.394 . S
C711 C712 1.383 . S
C711 H719 0.929 . S
C712 C711 1.383 . S
C712 C713 1.377 1_545 S
C713 H697 0.930 . S
C713 C712 1.377 1_565 S
C713 C714 1.379 . S
C714 H698 0.931 . S
C714 C708 1.383 1_565 S
C714 C713 1.379 . S
H715 C709 0.959 . S
H716 C709 0.961 1_565 S
H717 C709 0.960 . S
H718 C710 0.930 . S
H719 C711 0.929 . S
H720 C728 0.929 . S
H721 C730 0.930 . S
H722 C732 0.930 . S
H723 C735 0.929 . S
H724 C738 0.930 . S
H725 C740 0.960 . S
H726 C740 0.960 . S
H727 C740 0.931 1_556 S
C728 H720 0.929 . S
C728 C729 1.377 1_554 S
C728 C730 1.384 . S
C729 C728 1.377 1_556 S
C729 C735 1.390 . S
C730 H721 0.930 . S
C730 C728 1.384 . S
C730 C731 1.372 . S
C731 C730 1.372 . S
C731 C732 1.400 1_554 S
C731 C736 1.490 . S
C732 H722 0.930 . S
C732 C731 1.400 1_556 S
C732 C735 1.386 . S
H733 C749 0.930 . S
H734 C750 0.931 . S
C735 H723 0.929 . S
C735 C729 1.390 . S
C735 C732 1.386 . S
C736 C731 1.490 . S
C736 C738 1.395 . S
C736 C739 1.403 . S
H737 C743 0.930 . S
C738 H724 0.930 . S
C738 C736 1.395 . S
C738 C741 1.403 . S
C739 C736 1.403 . S
C739 C740 1.524 . S
C739 C743 1.400 . S
C740 H725 0.960 . S
C740 H726 0.960 . S
C740 H727 0.931 1_554 S
C740 C739 1.524 . S
C741 C738 1.403 . S
C741 C742 1.392 . S
C741 C745 1.495 . S
C742 C741 1.392 . S
C742 C743 1.385 . S
C742 C744 1.478 . S
C743 H737 0.930 . S
C743 C739 1.400 . S
C743 C742 1.385 . S
C744 C742 1.478 . S
C744 C746 1.381 . S
C744 C750 1.383 1_554 S
C745 C741 1.495 . S
C745 H751 0.965 . S
C745 H752 0.961 1_554 S
C745 H753 0.960 . S
C746 C744 1.381 . S
C746 C747 1.394 . S
C746 H754 0.930 . S
C747 C746 1.394 . S
C747 C748 1.383 . S
C747 H755 0.929 . S
C748 C747 1.383 . S
C748 C749 1.377 1_554 S
C749 H733 0.930 . S
C749 C748 1.377 1_556 S
C749 C750 1.379 . S
C750 H734 0.931 . S
C750 C744 1.383 1_556 S
C750 C749 1.379 . S
H751 C745 0.965 . S
H752 C745 0.961 1_556 S
H753 C745 0.960 . S
H754 C746 0.930 . S
H755 C747 0.929 . S
H756 C764 0.929 . S
H757 C766 0.930 . S
H758 C768 0.930 . S
H759 C771 0.929 . S
H760 C774 0.930 1_556 S
H761 C776 0.960 . S
H762 C776 0.960 . S
H763 C776 0.960 . S
C764 H756 0.929 . S
C764 C765 1.377 . S
C764 C766 1.384 . S
C765 C764 1.377 . S
C765 C771 1.390 1_554 S
C766 H757 0.930 . S
C766 C764 1.384 . S
C766 C767 1.372 . S
C767 C766 1.372 . S
C767 C768 1.400 1_554 S
C767 C772 1.490 . S
C768 H758 0.930 . S
C768 C767 1.400 1_556 S
C768 C771 1.386 . S
H769 C785 0.930 1_556 S
H770 C786 0.931 1_556 S
C771 H759 0.929 . S
C771 C765 1.390 1_556 S
C771 C768 1.386 . S
C772 C767 1.490 . S
C772 C774 1.395 . S
C772 C775 1.403 . S
H773 C779 0.930 . S
C774 H760 0.930 1_554 S
C774 C772 1.395 . S
C774 C777 1.403 . S
C775 C772 1.403 . S
C775 C776 1.524 . S
C775 C779 1.400 . S
C776 H761 0.960 . S
C776 H762 0.960 . S
C776 H763 0.960 . S
C776 C775 1.524 . S
C777 C774 1.403 . S
C777 C778 1.392 . S
C777 C781 1.495 1_554 S
C778 C777 1.392 . S
C778 C779 1.385 . S
C778 C780 1.478 . S
C779 H773 0.930 . S
C779 C775 1.400 . S
C779 C778 1.385 . S
C780 C778 1.478 . S
C780 C782 1.381 . S
C780 C786 1.383 . S
C781 C777 1.495 1_556 S
C781 H787 0.959 . S
C781 H788 0.961 . S
C781 H789 0.960 1_556 S
C782 C780 1.381 . S
C782 C783 1.394 . S
C782 H790 0.930 . S
C783 C782 1.394 . S
C783 C784 1.383 . S
C783 H791 0.929 . S
C784 C783 1.383 . S
C784 C785 1.377 . S
C785 H769 0.930 1_554 S
C785 C784 1.377 . S
C785 C786 1.379 . S
C786 H770 0.931 1_554 S
C786 C780 1.383 . S
C786 C785 1.379 . S
H787 C781 0.959 . S
H788 C781 0.961 . S
H789 C781 0.960 1_554 S
H790 C782 0.930 . S
H791 C783 0.929 . S
H792 C800 0.929 . S
H793 C802 0.930 . S
H794 C804 0.930 . S
H795 C807 0.929 . S
H796 C810 0.930 . S
H797 C812 0.960 . S
H798 C812 0.960 . S
H799 C812 0.960 1_554 S
C800 H792 0.929 . S
C800 C801 1.377 1_556 S
C800 C802 1.384 . S
C801 C800 1.377 1_554 S
C801 C807 1.390 . S
C802 H793 0.930 . S
C802 C800 1.384 . S
C802 C803 1.372 1_556 S
C803 C802 1.372 1_554 S
C803 C804 1.400 . S
C803 C808 1.490 . S
C804 H794 0.930 . S
C804 C803 1.400 . S
C804 C807 1.386 . S
H805 C821 0.930 . S
H806 C822 0.931 . S
C807 H795 0.929 . S
C807 C801 1.390 . S
C807 C804 1.386 . S
C808 C803 1.490 . S
C808 C810 1.395 . S
C808 C811 1.403 . S
H809 C815 0.930 1_556 S
C810 H796 0.930 . S
C810 C808 1.395 . S
C810 C813 1.403 . S
C811 C808 1.403 . S
C811 C812 1.524 1_554 S
C811 C815 1.400 . S
C812 H797 0.960 . S
C812 H798 0.960 . S
C812 H799 0.960 1_556 S
C812 C811 1.524 1_556 S
C813 C810 1.403 . S
C813 C814 1.392 . S
C813 C817 1.495 . S
C814 C813 1.392 . S
C814 C815 1.385 . S
C814 C816 1.478 . S
C815 H809 0.930 1_554 S
C815 C811 1.400 . S
C815 C814 1.385 . S
C816 C814 1.478 . S
C816 C818 1.381 1_554 S
C816 C822 1.383 . S
C817 C813 1.495 . S
C817 H823 0.959 . S
C817 H824 0.961 . S
C817 H825 0.960 . S
C818 C816 1.381 1_556 S
C818 C819 1.394 . S
C818 H826 0.930 . S
C819 C818 1.394 . S
C819 C820 1.383 1_556 S
C819 H827 0.929 . S
C820 C819 1.383 1_554 S
C820 C821 1.377 . S
C821 H805 0.930 . S
C821 C820 1.377 . S
C821 C822 1.379 . S
C822 H806 0.931 . S
C822 C816 1.383 . S
C822 C821 1.379 . S
H823 C817 0.959 . S
H824 C817 0.961 . S
H825 C817 0.960 . S
H826 C818 0.930 . S
H827 C819 0.929 . S
H828 C836 0.929 . S
H829 C838 0.930 . S
H830 C840 0.930 1_556 S
H831 C843 0.929 1_556 S
H832 C846 0.930 . S
H833 C848 0.960 . S
H834 C848 0.960 . S
H835 C848 0.960 . S
C836 H828 0.929 . S
C836 C837 1.377 . S
C836 C838 1.384 . S
C837 C836 1.377 . S
C837 C843 1.390 . S
C838 H829 0.930 . S
C838 C836 1.384 . S
C838 C839 1.372 . S
C839 C838 1.372 . S
C839 C840 1.400 . S
C839 C844 1.490 . S
C840 H830 0.930 1_554 S
C840 C839 1.400 . S
C840 C843 1.386 . S
H841 C857 0.930 . S
H842 C858 0.931 . S
C843 H831 0.929 1_554 S
C843 C837 1.390 . S
C843 C840 1.386 . S
C844 C839 1.490 . S
C844 C846 1.395 . S
C844 C847 1.403 . S
H845 C851 0.930 . S
C846 H832 0.930 . S
C846 C844 1.395 . S
C846 C849 1.403 . S
C847 C844 1.403 . S
C847 C848 1.524 . S
C847 C851 1.400 . S
C848 H833 0.960 . S
C848 H834 0.960 . S
C848 H835 0.960 . S
C848 C847 1.524 . S
C849 C846 1.403 . S
C849 C850 1.392 . S
C849 C853 1.506 . S
C850 C849 1.392 . S
C850 C851 1.385 . S
C850 C852 1.478 . S
C851 H845 0.930 . S
C851 C847 1.400 . S
C851 C850 1.385 . S
C852 C850 1.478 . S
C852 C854 1.381 . S
C852 C858 1.383 1_554 S
C853 C849 1.506 . S
C853 H859 0.954 1_554 S
C853 H860 0.929 1_554 S
C853 H861 0.985 . S
C854 C852 1.381 . S
C854 C855 1.394 . S
C854 H862 0.930 . S
C855 C854 1.394 . S
C855 C856 1.383 . S
C855 H863 0.929 . S
C856 C855 1.383 . S
C856 C857 1.377 1_554 S
C857 H841 0.930 . S
C857 C856 1.377 1_556 S
C857 C858 1.379 . S
C858 H842 0.931 . S
C858 C852 1.383 1_556 S
C858 C857 1.379 . S
H859 C853 0.954 1_556 S
H860 C853 0.929 1_556 S
H861 C853 0.985 . S
H862 C854 0.930 . S
H863 C855 0.929 . S
H864 C872 0.929 . S
H865 C874 0.930 . S
H866 C876 0.930 . S
H867 C879 0.929 . S
H868 C882 0.930 . S
H869 C884 0.960 . S
H870 C884 0.960 . S
H871 C884 0.960 . S
C872 H864 0.929 . S
C872 C873 1.377 . S
C872 C874 1.384 . S
C873 C872 1.377 . S
C873 C879 1.390 . S
C874 H865 0.930 . S
C874 C872 1.384 . S
C874 C875 1.372 . S
C875 C874 1.372 . S
C875 C876 1.400 . S
C875 C880 1.490 . S
C876 H866 0.930 . S
C876 C875 1.400 . S
C876 C879 1.386 . S
H877 C893 0.930 . S
H878 C894 0.931 . S
C879 H867 0.929 . S
C879 C873 1.390 . S
C879 C876 1.386 . S
C880 C875 1.490 . S
C880 C882 1.395 . S
C880 C883 1.403 . S
H881 C887 0.930 . S
C882 H868 0.930 . S
C882 C880 1.395 . S
C882 C885 1.403 . S
C883 C880 1.403 . S
C883 C884 1.524 . S
C883 C887 1.400 . S
C884 H869 0.960 . S
C884 H870 0.960 . S
C884 H871 0.960 . S
C884 C883 1.524 . S
C885 C882 1.403 . S
C885 C886 1.392 . S
C885 C889 1.495 . S
C886 C885 1.392 . S
C886 C887 1.385 . S
C886 C888 1.478 . S
C887 H881 0.930 . S
C887 C883 1.400 . S
C887 C886 1.385 . S
C888 C886 1.478 . S
C888 C890 1.381 . S
C888 C894 1.383 . S
C889 C885 1.495 . S
C889 H895 0.959 . S
C889 H896 0.961 . S
C889 H897 0.960 . S
C890 C888 1.381 . S
C890 C891 1.394 . S
C890 H898 0.930 . S
C891 C890 1.394 . S
C891 C892 1.383 . S
C891 H899 0.929 . S
C892 C891 1.383 . S
C892 C893 1.377 . S
C893 H877 0.930 . S
C893 C892 1.377 . S
C893 C894 1.379 . S
C894 H878 0.931 . S
C894 C888 1.383 . S
C894 C893 1.379 . S
H895 C889 0.959 . S
H896 C889 0.961 . S
H897 C889 0.960 . S
H898 C890 0.930 . S
H899 C891 0.929 . S
H900 C908 0.929 . S
H901 C910 0.930 . S
H902 C912 0.930 . S
H903 C915 0.929 . S
H904 C918 0.930 . S
H905 C920 0.960 . S
H906 C920 0.960 . S
H907 C920 0.960 . S
C908 H900 0.929 . S
C908 C909 1.377 . S
C908 C910 1.384 . S
C909 C908 1.377 . S
C909 C915 1.390 . S
C910 H901 0.930 . S
C910 C908 1.384 . S
C910 C911 1.372 . S
C911 C910 1.372 . S
C911 C912 1.400 . S
C911 C916 1.490 . S
C912 H902 0.930 . S
C912 C911 1.400 . S
C912 C915 1.386 . S
H913 C929 0.930 . S
H914 C930 0.931 . S
C915 H903 0.929 . S
C915 C909 1.390 . S
C915 C912 1.386 . S
C916 C911 1.490 . S
C916 C918 1.395 . S
C916 C919 1.403 . S
H917 C923 0.930 . S
C918 H904 0.930 . S
C918 C916 1.395 . S
C918 C921 1.403 . S
C919 C916 1.403 . S
C919 C920 1.524 . S
C919 C923 1.400 . S
C920 H905 0.960 . S
C920 H906 0.960 . S
C920 H907 0.960 . S
C920 C919 1.524 . S
C921 C918 1.403 . S
C921 C922 1.392 . S
C921 C925 1.495 . S
C922 C921 1.392 . S
C922 C923 1.385 . S
C922 C924 1.478 . S
C923 H917 0.930 . S
C923 C919 1.400 . S
C923 C922 1.385 . S
C924 C922 1.478 . S
C924 C926 1.381 . S
C924 C930 1.383 . S
C925 C921 1.495 . S
C925 H931 0.959 . S
C925 H932 0.961 . S
C925 H933 0.960 . S
C926 C924 1.381 . S
C926 C927 1.394 . S
C926 H934 0.930 . S
C927 C926 1.394 . S
C927 C928 1.383 . S
C927 H935 0.929 . S
C928 C927 1.383 . S
C928 C929 1.377 . S
C929 H913 0.930 . S
C929 C928 1.377 . S
C929 C930 1.379 . S
C930 H914 0.931 . S
C930 C924 1.383 . S
C930 C929 1.379 . S
H931 C925 0.959 . S
H932 C925 0.961 . S
H933 C925 0.960 . S
H934 C926 0.930 . S
H935 C927 0.929 . S
H936 C944 0.929 . S
H937 C946 0.930 . S
H938 C948 0.930 . S
H939 C951 0.929 . S
H940 C954 0.930 . S
H941 C956 0.960 . S
H942 C956 0.960 . S
H943 C956 0.960 . S
C944 H936 0.929 . S
C944 C945 1.377 . S
C944 C946 1.384 . S
C945 C944 1.377 . S
C945 C951 1.390 . S
C946 H937 0.930 . S
C946 C944 1.384 . S
C946 C947 1.372 . S
C947 C946 1.372 . S
C947 C948 1.400 . S
C947 C952 1.490 . S
C948 H938 0.930 . S
C948 C947 1.400 . S
C948 C951 1.386 . S
H949 C965 0.930 . S
H950 C966 0.931 . S
C951 H939 0.929 . S
C951 C945 1.390 . S
C951 C948 1.386 . S
C952 C947 1.490 . S
C952 C954 1.395 . S
C952 C955 1.403 . S
H953 C959 0.930 . S
C954 H940 0.930 . S
C954 C952 1.395 . S
C954 C957 1.403 . S
C955 C952 1.403 . S
C955 C956 1.524 . S
C955 C959 1.400 . S
C956 H941 0.960 . S
C956 H942 0.960 . S
C956 H943 0.960 . S
C956 C955 1.524 . S
C957 C954 1.403 . S
C957 C958 1.392 . S
C957 C961 1.495 . S
C958 C957 1.392 . S
C958 C959 1.385 . S
C958 C960 1.478 . S
C959 H953 0.930 . S
C959 C955 1.400 . S
C959 C958 1.385 . S
C960 C958 1.478 . S
C960 C962 1.381 . S
C960 C966 1.383 . S
C961 C957 1.495 . S
C961 H967 0.959 . S
C961 H968 0.961 . S
C961 H969 0.960 . S
C962 C960 1.381 . S
C962 C963 1.394 . S
C962 H970 0.930 . S
C963 C962 1.394 . S
C963 C964 1.383 . S
C963 H971 0.929 . S
C964 C963 1.383 . S
C964 C965 1.377 . S
C965 H949 0.930 . S
C965 C964 1.377 . S
C965 C966 1.379 . S
C966 H950 0.931 . S
C966 C960 1.383 . S
C966 C965 1.379 . S
H967 C961 0.959 . S
H968 C961 0.961 . S
H969 C961 0.960 . S
H970 C962 0.930 . S
H971 C963 0.929 . S
H972 C980 0.929 . S
H973 C982 0.930 . S
H974 C984 0.930 . S
H975 C987 0.929 . S
H976 C990 0.930 . S
H977 C992 0.960 . S
H978 C992 0.960 . S
H979 C992 0.960 . S
C980 H972 0.929 . S
C980 C981 1.377 . S
C980 C982 1.384 . S
C981 C980 1.377 . S
C981 C987 1.390 . S
C982 H973 0.930 . S
C982 C980 1.384 . S
C982 C983 1.372 . S
C983 C982 1.372 . S
C983 C984 1.400 . S
C983 C988 1.490 . S
C984 H974 0.930 . S
C984 C983 1.400 . S
C984 C987 1.386 . S
H985 C1001 0.930 . S
H986 C1002 0.931 . S
C987 H975 0.929 . S
C987 C981 1.390 . S
C987 C984 1.386 . S
C988 C983 1.490 . S
C988 C990 1.395 . S
C988 C991 1.403 . S
H989 C995 0.930 . S
C990 H976 0.930 . S
C990 C988 1.395 . S
C990 C993 1.403 . S
C991 C988 1.403 . S
C991 C992 1.524 . S
C991 C995 1.400 . S
C992 H977 0.960 . S
C992 H978 0.960 . S
C992 H979 0.960 . S
C992 C991 1.524 . S
C993 C990 1.403 . S
C993 C994 1.392 . S
C993 C997 1.495 . S
C994 C993 1.392 . S
C994 C995 1.385 . S
C994 C996 1.478 . S
C995 H989 0.930 . S
C995 C991 1.400 . S
C995 C994 1.385 . S
C996 C994 1.478 . S
C996 C998 1.381 . S
C996 C1002 1.383 . S
C997 C993 1.495 . S
C997 H1003 0.959 . S
C997 H1004 0.961 . S
C997 H1005 0.960 . S
C998 C996 1.381 . S
C998 C999 1.394 . S
C998 H1006 0.930 . S
C999 C998 1.394 . S
C999 C1000 1.383 . S
C999 H1007 0.929 . S
C1000 C999 1.383 . S
C1000 C1001 1.377 . S
C1001 H985 0.930 . S
C1001 C1000 1.377 . S
C1001 C1002 1.379 . S
C1002 H986 0.931 . S
C1002 C996 1.383 . S
C1002 C1001 1.379 . S
H1003 C997 0.959 . S
H1004 C997 0.961 . S
H1005 C997 0.960 . S
H1006 C998 0.930 . S
H1007 C999 0.929 . S
H1008 C1016 0.929 . S
H1009 C1018 0.930 . S
H1010 C1020 0.930 . S
H1011 C1023 0.929 . S
H1012 C1026 0.930 . S
H1013 C1028 0.960 . S
H1014 C1028 0.960 . S
H1015 C1028 0.960 . S
C1016 H1008 0.929 . S
C1016 C1017 1.377 . S
C1016 C1018 1.384 . S
C1017 C1016 1.377 . S
C1017 C1023 1.390 . S
C1018 H1009 0.930 . S
C1018 C1016 1.384 . S
C1018 C1019 1.372 . S
C1019 C1018 1.372 . S
C1019 C1020 1.400 . S
C1019 C1024 1.490 . S
C1020 H1010 0.930 . S
C1020 C1019 1.400 . S
C1020 C1023 1.386 . S
H1021 C1037 0.930 . S
H1022 C1038 0.931 . S
C1023 H1011 0.929 . S
C1023 C1017 1.390 . S
C1023 C1020 1.386 . S
C1024 C1019 1.490 . S
C1024 C1026 1.395 . S
C1024 C1027 1.403 . S
H1025 C1031 0.930 . S
C1026 H1012 0.930 . S
C1026 C1024 1.395 . S
C1026 C1029 1.403 . S
C1027 C1024 1.403 . S
C1027 C1028 1.524 . S
C1027 C1031 1.400 . S
C1028 H1013 0.960 . S
C1028 H1014 0.960 . S
C1028 H1015 0.960 . S
C1028 C1027 1.524 . S
C1029 C1026 1.403 . S
C1029 C1030 1.392 . S
C1029 C1033 1.495 . S
C1030 C1029 1.392 . S
C1030 C1031 1.385 . S
C1030 C1032 1.478 . S
C1031 H1025 0.930 . S
C1031 C1027 1.400 . S
C1031 C1030 1.385 . S
C1032 C1030 1.478 . S
C1032 C1034 1.381 . S
C1032 C1038 1.383 . S
C1033 C1029 1.495 . S
C1033 H1039 0.959 . S
C1033 H1040 0.961 . S
C1033 H1041 0.960 . S
C1034 C1032 1.381 . S
C1034 C1035 1.394 . S
C1034 H1042 0.930 . S
C1035 C1034 1.394 . S
C1035 C1036 1.383 . S
C1035 H1043 0.929 . S
C1036 C1035 1.383 . S
C1036 C1037 1.377 . S
C1037 H1021 0.930 . S
C1037 C1036 1.377 . S
C1037 C1038 1.379 . S
C1038 H1022 0.931 . S
C1038 C1032 1.383 . S
C1038 C1037 1.379 . S
H1039 C1033 0.959 . S
H1040 C1033 0.961 . S
H1041 C1033 0.960 . S
H1042 C1034 0.930 . S
H1043 C1035 0.929 . S
H1044 C1052 0.929 . S
H1045 C1054 0.930 . S
H1046 C1056 0.930 . S
H1047 C1059 0.929 . S
H1048 C1062 0.930 . S
H1049 C1064 0.960 . S
H1050 C1064 0.960 . S
H1051 C1064 0.960 . S
C1052 H1044 0.929 . S
C1052 C1053 1.377 . S
C1052 C1054 1.384 . S
C1053 C1052 1.377 . S
C1053 C1059 1.390 . S
C1054 H1045 0.930 . S
C1054 C1052 1.384 . S
C1054 C1055 1.372 . S
C1055 C1054 1.372 . S
C1055 C1056 1.400 . S
C1055 C1060 1.490 . S
C1056 H1046 0.930 . S
C1056 C1055 1.400 . S
C1056 C1059 1.386 . S
H1057 C1073 0.930 . S
H1058 C1074 0.931 . S
C1059 H1047 0.929 . S
C1059 C1053 1.390 . S
C1059 C1056 1.386 . S
C1060 C1055 1.490 . S
C1060 C1062 1.395 . S
C1060 C1063 1.403 . S
H1061 C1067 0.930 . S
C1062 H1048 0.930 . S
C1062 C1060 1.395 . S
C1062 C1065 1.403 . S
C1063 C1060 1.403 . S
C1063 C1064 1.524 . S
C1063 C1067 1.400 . S
C1064 H1049 0.960 . S
C1064 H1050 0.960 . S
C1064 H1051 0.960 . S
C1064 C1063 1.524 . S
C1065 C1062 1.403 . S
C1065 C1066 1.392 . S
C1065 C1069 1.495 . S
C1066 C1065 1.392 . S
C1066 C1067 1.385 . S
C1066 C1068 1.478 . S
C1067 H1061 0.930 . S
C1067 C1063 1.400 . S
C1067 C1066 1.385 . S
C1068 C1066 1.478 . S
C1068 C1070 1.381 . S
C1068 C1074 1.383 . S
C1069 C1065 1.495 . S
C1069 H1075 0.959 . S
C1069 H1076 0.961 . S
C1069 H1077 0.960 . S
C1070 C1068 1.381 . S
C1070 C1071 1.394 . S
C1070 H1078 0.930 . S
C1071 C1070 1.394 . S
C1071 C1072 1.383 . S
C1071 H1079 0.929 . S
C1072 C1071 1.383 . S
C1072 C1073 1.377 . S
C1073 H1057 0.930 . S
C1073 C1072 1.377 . S
C1073 C1074 1.379 . S
C1074 H1058 0.931 . S
C1074 C1068 1.383 . S
C1074 C1073 1.379 . S
H1075 C1069 0.959 . S
H1076 C1069 0.961 . S
H1077 C1069 0.960 . S
H1078 C1070 0.930 . S
H1079 C1071 0.929 . S
H1080 C1088 0.929 . S
H1081 C1090 0.930 . S
H1082 C1092 0.930 . S
H1083 C1095 0.929 . S
H1084 C1098 0.930 . S
H1085 C1100 0.960 . S
H1086 C1100 0.960 . S
H1087 C1100 0.960 . S
C1088 H1080 0.929 . S
C1088 C1089 1.377 . S
C1088 C1090 1.384 . S
C1089 C1088 1.377 . S
C1089 C1095 1.390 . S
C1090 H1081 0.930 . S
C1090 C1088 1.384 . S
C1090 C1091 1.372 . S
C1091 C1090 1.372 . S
C1091 C1092 1.400 . S
C1091 C1096 1.490 . S
C1092 H1082 0.930 . S
C1092 C1091 1.400 . S
C1092 C1095 1.386 . S
H1093 C1109 0.930 . S
H1094 C1110 0.931 . S
C1095 H1083 0.929 . S
C1095 C1089 1.390 . S
C1095 C1092 1.386 . S
C1096 C1091 1.490 . S
C1096 C1098 1.395 . S
C1096 C1099 1.403 . S
H1097 C1103 0.930 . S
C1098 H1084 0.930 . S
C1098 C1096 1.395 . S
C1098 C1101 1.403 . S
C1099 C1096 1.403 . S
C1099 C1100 1.524 . S
C1099 C1103 1.400 . S
C1100 H1085 0.960 . S
C1100 H1086 0.960 . S
C1100 H1087 0.960 . S
C1100 C1099 1.524 . S
C1101 C1098 1.403 . S
C1101 C1102 1.392 . S
C1101 C1105 1.495 . S
C1102 C1101 1.392 . S
C1102 C1103 1.385 . S
C1102 C1104 1.478 . S
C1103 H1097 0.930 . S
C1103 C1099 1.400 . S
C1103 C1102 1.385 . S
C1104 C1102 1.478 . S
C1104 C1106 1.381 . S
C1104 C1110 1.383 . S
C1105 C1101 1.495 . S
C1105 H1111 0.959 . S
C1105 H1112 0.961 . S
C1105 H1113 0.960 . S
C1106 C1104 1.381 . S
C1106 C1107 1.394 . S
C1106 H1114 0.930 . S
C1107 C1106 1.394 . S
C1107 C1108 1.383 . S
C1107 H1115 0.929 . S
C1108 C1107 1.383 . S
C1108 C1109 1.377 . S
C1109 H1093 0.930 . S
C1109 C1108 1.377 . S
C1109 C1110 1.379 . S
C1110 H1094 0.931 . S
C1110 C1104 1.383 . S
C1110 C1109 1.379 . S
H1111 C1105 0.959 . S
H1112 C1105 0.961 . S
H1113 C1105 0.960 . S
H1114 C1106 0.930 . S
H1115 C1107 0.929 . S
H1116 C1124 0.929 . S
H1117 C1126 0.930 . S
H1118 C1128 0.930 . S
H1119 C1131 0.929 . S
H1120 C1134 0.930 . S
H1121 C1136 0.960 . S
H1122 C1136 0.960 . S
H1123 C1136 0.960 . S
C1124 H1116 0.929 . S
C1124 C1125 1.377 . S
C1124 C1126 1.384 . S
C1125 C1124 1.377 . S
C1125 C1131 1.390 . S
C1126 H1117 0.930 . S
C1126 C1124 1.384 . S
C1126 C1127 1.372 . S
C1127 C1126 1.372 . S
C1127 C1128 1.400 . S
C1127 C1132 1.490 . S
C1128 H1118 0.930 . S
C1128 C1127 1.400 . S
C1128 C1131 1.386 . S
H1129 C1145 0.930 . S
H1130 C1146 0.931 . S
C1131 H1119 0.929 . S
C1131 C1125 1.390 . S
C1131 C1128 1.386 . S
C1132 C1127 1.490 . S
C1132 C1134 1.395 . S
C1132 C1135 1.403 . S
H1133 C1139 0.930 . S
C1134 H1120 0.930 . S
C1134 C1132 1.395 . S
C1134 C1137 1.403 . S
C1135 C1132 1.403 . S
C1135 C1136 1.524 . S
C1135 C1139 1.400 . S
C1136 H1121 0.960 . S
C1136 H1122 0.960 . S
C1136 H1123 0.960 . S
C1136 C1135 1.524 . S
C1137 C1134 1.403 . S
C1137 C1138 1.392 . S
C1137 C1141 1.495 . S
C1138 C1137 1.392 . S
C1138 C1139 1.385 . S
C1138 C1140 1.478 . S
C1139 H1133 0.930 . S
C1139 C1135 1.400 . S
C1139 C1138 1.385 . S
C1140 C1138 1.478 . S
C1140 C1142 1.381 . S
C1140 C1146 1.383 . S
C1141 C1137 1.495 . S
C1141 H1147 0.959 . S
C1141 H1148 0.961 . S
C1141 H1149 0.960 . S
C1142 C1140 1.381 . S
C1142 C1143 1.394 . S
C1142 H1150 0.930 . S
C1143 C1142 1.394 . S
C1143 C1144 1.383 . S
C1143 H1151 0.929 . S
C1144 C1143 1.383 . S
C1144 C1145 1.377 . S
C1145 H1129 0.930 . S
C1145 C1144 1.377 . S
C1145 C1146 1.379 . S
C1146 H1130 0.931 . S
C1146 C1140 1.383 . S
C1146 C1145 1.379 . S
H1147 C1141 0.959 . S
H1148 C1141 0.961 . S
H1149 C1141 0.960 . S
H1150 C1142 0.930 . S
H1151 C1143 0.929 . S
H1152 C1160 0.929 . S
H1153 C1162 0.930 . S
H1154 C1164 0.930 . S
H1155 C1167 0.929 . S
H1156 C1170 0.930 . S
H1157 C1172 0.960 . S
H1158 C1172 0.960 . S
H1159 C1172 0.960 . S
C1160 H1152 0.929 . S
C1160 C1161 1.377 . S
C1160 C1162 1.384 . S
C1161 C1160 1.377 . S
C1161 C1167 1.390 . S
C1162 H1153 0.930 . S
C1162 C1160 1.384 . S
C1162 C1163 1.372 . S
C1163 C1162 1.372 . S
C1163 C1164 1.400 . S
C1163 C1168 1.490 . S
C1164 H1154 0.930 . S
C1164 C1163 1.400 . S
C1164 C1167 1.386 . S
H1165 C1181 0.930 . S
H1166 C1182 0.931 . S
C1167 H1155 0.929 . S
C1167 C1161 1.390 . S
C1167 C1164 1.386 . S
C1168 C1163 1.490 . S
C1168 C1170 1.395 . S
C1168 C1171 1.403 . S
H1169 C1175 0.930 . S
C1170 H1156 0.930 . S
C1170 C1168 1.395 . S
C1170 C1173 1.403 . S
C1171 C1168 1.403 . S
C1171 C1172 1.524 . S
C1171 C1175 1.400 . S
C1172 H1157 0.960 . S
C1172 H1158 0.960 . S
C1172 H1159 0.960 . S
C1172 C1171 1.524 . S
C1173 C1170 1.403 . S
C1173 C1174 1.392 . S
C1173 C1177 1.495 . S
C1174 C1173 1.392 . S
C1174 C1175 1.385 . S
C1174 C1176 1.478 . S
C1175 H1169 0.930 . S
C1175 C1171 1.400 . S
C1175 C1174 1.385 . S
C1176 C1174 1.478 . S
C1176 C1178 1.381 . S
C1176 C1182 1.383 . S
C1177 C1173 1.495 . S
C1177 H1183 0.959 . S
C1177 H1184 0.961 . S
C1177 H1185 0.960 . S
C1178 C1176 1.381 . S
C1178 C1179 1.394 . S
C1178 H1186 0.930 . S
C1179 C1178 1.394 . S
C1179 C1180 1.383 . S
C1179 H1187 0.929 . S
C1180 C1179 1.383 . S
C1180 C1181 1.377 . S
C1181 H1165 0.930 . S
C1181 C1180 1.377 . S
C1181 C1182 1.379 . S
C1182 H1166 0.931 . S
C1182 C1176 1.383 . S
C1182 C1181 1.379 . S
H1183 C1177 0.959 . S
H1184 C1177 0.961 . S
H1185 C1177 0.960 . S
H1186 C1178 0.930 . S
H1187 C1179 0.929 . S
H1188 C1196 0.929 . S
H1189 C1198 0.930 . S
H1190 C1200 0.930 . S
H1191 C1203 0.929 . S
H1192 C1206 0.930 . S
H1193 C1208 0.960 . S
H1194 C1208 0.960 . S
H1195 C1208 0.960 . S
C1196 H1188 0.929 . S
C1196 C1197 1.377 . S
C1196 C1198 1.384 . S
C1197 C1196 1.377 . S
C1197 C1203 1.390 . S
C1198 H1189 0.930 . S
C1198 C1196 1.384 . S
C1198 C1199 1.372 . S
C1199 C1198 1.372 . S
C1199 C1200 1.400 . S
C1199 C1204 1.490 . S
C1200 H1190 0.930 . S
C1200 C1199 1.400 . S
C1200 C1203 1.386 . S
H1201 C1217 0.930 . S
H1202 C1218 0.931 . S
C1203 H1191 0.929 . S
C1203 C1197 1.390 . S
C1203 C1200 1.386 . S
C1204 C1199 1.490 . S
C1204 C1206 1.395 . S
C1204 C1207 1.403 . S
H1205 C1211 0.930 . S
C1206 H1192 0.930 . S
C1206 C1204 1.395 . S
C1206 C1209 1.403 . S
C1207 C1204 1.403 . S
C1207 C1208 1.524 . S
C1207 C1211 1.400 . S
C1208 H1193 0.960 . S
C1208 H1194 0.960 . S
C1208 H1195 0.960 . S
C1208 C1207 1.524 . S
C1209 C1206 1.403 . S
C1209 C1210 1.392 . S
C1209 C1213 1.495 . S
C1210 C1209 1.392 . S
C1210 C1211 1.385 . S
C1210 C1212 1.478 . S
C1211 H1205 0.930 . S
C1211 C1207 1.400 . S
C1211 C1210 1.385 . S
C1212 C1210 1.478 . S
C1212 C1214 1.381 . S
C1212 C1218 1.383 . S
C1213 C1209 1.495 . S
C1213 H1219 0.959 . S
C1213 H1220 0.961 . S
C1213 H1221 0.960 . S
C1214 C1212 1.381 . S
C1214 C1215 1.394 . S
C1214 H1222 0.930 . S
C1215 C1214 1.394 . S
C1215 C1216 1.383 . S
C1215 H1223 0.929 . S
C1216 C1215 1.383 . S
C1216 C1217 1.377 . S
C1217 H1201 0.930 . S
C1217 C1216 1.377 . S
C1217 C1218 1.379 . S
C1218 H1202 0.931 . S
C1218 C1212 1.383 . S
C1218 C1217 1.379 . S
H1219 C1213 0.959 . S
H1220 C1213 0.961 . S
H1221 C1213 0.960 . S
H1222 C1214 0.930 . S
H1223 C1215 0.929 . S
H1224 C1232 0.929 . S
H1225 C1234 0.930 . S
H1226 C1236 0.930 . S
H1227 C1239 0.929 . S
H1228 C1242 0.930 . S
H1229 C1244 0.960 . S
H1230 C1244 0.960 . S
H1231 C1244 0.960 . S
C1232 H1224 0.929 . S
C1232 C1233 1.377 . S
C1232 C1234 1.384 . S
C1233 C1232 1.377 . S
C1233 C1239 1.390 . S
C1234 H1225 0.930 . S
C1234 C1232 1.384 . S
C1234 C1235 1.372 . S
C1235 C1234 1.372 . S
C1235 C1236 1.400 . S
C1235 C1240 1.490 . S
C1236 H1226 0.930 . S
C1236 C1235 1.400 . S
C1236 C1239 1.386 . S
H1237 C1253 0.930 . S
H1238 C1254 0.931 . S
C1239 H1227 0.929 . S
C1239 C1233 1.390 . S
C1239 C1236 1.386 . S
C1240 C1235 1.490 . S
C1240 C1242 1.395 . S
C1240 C1243 1.403 . S
H1241 C1247 0.930 . S
C1242 H1228 0.930 . S
C1242 C1240 1.395 . S
C1242 C1245 1.403 . S
C1243 C1240 1.403 . S
C1243 C1244 1.524 . S
C1243 C1247 1.400 . S
C1244 H1229 0.960 . S
C1244 H1230 0.960 . S
C1244 H1231 0.960 . S
C1244 C1243 1.524 . S
C1245 C1242 1.403 . S
C1245 C1246 1.392 . S
C1245 C1249 1.495 . S
C1246 C1245 1.392 . S
C1246 C1247 1.385 . S
C1246 C1248 1.478 . S
C1247 H1241 0.930 . S
C1247 C1243 1.400 . S
C1247 C1246 1.385 . S
C1248 C1246 1.478 . S
C1248 C1250 1.381 . S
C1248 C1254 1.383 . S
C1249 C1245 1.495 . S
C1249 H1255 0.959 . S
C1249 H1256 0.961 . S
C1249 H1257 0.960 . S
C1250 C1248 1.381 . S
C1250 C1251 1.394 . S
C1250 H1258 0.930 . S
C1251 C1250 1.394 . S
C1251 C1252 1.383 . S
C1251 H1259 0.929 . S
C1252 C1251 1.383 . S
C1252 C1253 1.377 . S
C1253 H1237 0.930 . S
C1253 C1252 1.377 . S
C1253 C1254 1.379 . S
C1254 H1238 0.931 . S
C1254 C1248 1.383 . S
C1254 C1253 1.379 . S
H1255 C1249 0.959 . S
H1256 C1249 0.961 . S
H1257 C1249 0.960 . S
H1258 C1250 0.930 . S
H1259 C1251 0.929 . S
H1260 C1268 0.929 . S
H1261 C1270 0.930 . S
H1262 C1272 0.930 . S
H1263 C1275 0.929 . S
H1264 C1278 0.930 . S
H1265 C1280 0.960 . S
H1266 C1280 0.960 . S
H1267 C1280 0.960 . S
C1268 H1260 0.929 . S
C1268 C1269 1.377 . S
C1268 C1270 1.384 . S
C1269 C1268 1.377 . S
C1269 C1275 1.390 . S
C1270 H1261 0.930 . S
C1270 C1268 1.384 . S
C1270 C1271 1.372 . S
C1271 C1270 1.372 . S
C1271 C1272 1.400 . S
C1271 C1276 1.490 . S
C1272 H1262 0.930 . S
C1272 C1271 1.400 . S
C1272 C1275 1.386 . S
H1273 C1289 0.930 . S
H1274 C1290 0.931 . S
C1275 H1263 0.929 . S
C1275 C1269 1.390 . S
C1275 C1272 1.386 . S
C1276 C1271 1.490 . S
C1276 C1278 1.395 . S
C1276 C1279 1.403 . S
H1277 C1283 0.930 . S
C1278 H1264 0.930 . S
C1278 C1276 1.395 . S
C1278 C1281 1.403 . S
C1279 C1276 1.403 . S
C1279 C1280 1.524 . S
C1279 C1283 1.400 . S
C1280 H1265 0.960 . S
C1280 H1266 0.960 . S
C1280 H1267 0.960 . S
C1280 C1279 1.524 . S
C1281 C1278 1.403 . S
C1281 C1282 1.392 . S
C1281 C1285 1.495 . S
C1282 C1281 1.392 . S
C1282 C1283 1.385 . S
C1282 C1284 1.478 . S
C1283 H1277 0.930 . S
C1283 C1279 1.400 . S
C1283 C1282 1.385 . S
C1284 C1282 1.478 . S
C1284 C1286 1.381 . S
C1284 C1290 1.383 . S
C1285 C1281 1.495 . S
C1285 H1291 0.959 . S
C1285 H1292 0.961 . S
C1285 H1293 0.960 . S
C1286 C1284 1.381 . S
C1286 C1287 1.394 . S
C1286 H1294 0.930 . S
C1287 C1286 1.394 . S
C1287 C1288 1.383 . S
C1287 H1295 0.929 . S
C1288 C1287 1.383 . S
C1288 C1289 1.377 . S
C1289 H1273 0.930 . S
C1289 C1288 1.377 . S
C1289 C1290 1.379 . S
C1290 H1274 0.931 . S
C1290 C1284 1.383 . S
C1290 C1289 1.379 . S
H1291 C1285 0.959 . S
H1292 C1285 0.961 . S
H1293 C1285 0.960 . S
H1294 C1286 0.930 . S
H1295 C1287 0.929 . S
C441 C14 1.388 . S
C460 C184 1.475 . S
C477 C40 1.194 . S
C496 C148 1.185 . S
C513 C194 1.313 . S
C532 C86 1.305 . S
C549 C112 1.342 . S
C568 C158 1.296 . S
C585 C255 1.306 . S
C604 C76 1.305 . S
C621 C218 1.536 . S
C640 C122 1.478 . S
C657 C4 1.297 . S
C676 C254 1.283 . S
C693 C219 1.412 . S
C712 C50 1.354 . S
C729 C327 1.368 . S
C748 C291 1.365 . S
C765 C290 1.273 . S
C784 C398 1.260 . S
C801 C326 1.339 . S
C820 C362 1.325 . S
C837 C363 1.479 . S
C856 C399 1.478 . S
C873 C410 1.395 . S
C892 C220 1.473 . S
C909 C292 1.193 . S
C928 C256 1.199 . S
C945 C230 1.320 . S
C964 C338 1.341 . S
C981 C266 1.255 . S
C1000 C364 1.340 . S
C1017 C147 1.311 . S
C1036 C328 1.318 . S
C1053 C182 1.535 . S
C1072 C374 1.463 . S
C1089 C400 1.296 . S
C1108 C146 1.292 . S
C1125 C302 1.336 . S
C1144 C183 1.411 . S
C1161 C39 1.369 . S
C1180 C75 1.352 . S
C1197 C2 1.269 . S
C1216 C38 1.281 . S
C1233 C74 1.337 . S
C1252 C110 1.346 . S
C1269 C3 1.476 . S
C1288 C111 1.476 . S
