# Generated by pormake.
# Topology umx, (4)-cn, num edge types: 1
# Building blocks:
#     Node 0, Type 0, BuildingBlock: KUFVIS_clean_sbu_0, # of connection points: 4
#     Node 1, Type 0, BuildingBlock: KUFVIS_clean_sbu_0, # of connection points: 4
#     Node 2, Type 0, BuildingBlock: KUFVIS_clean_sbu_0, # of connection points: 4
#     Node 3, Type 0, BuildingBlock: KUFVIS_clean_sbu_0, # of connection points: 4
#     Node 4, Type 0, BuildingBlock: KUFVIS_clean_sbu_0, # of connection points: 4
#     Node 5, Type 0, BuildingBlock: KUFVIS_clean_sbu_0, # of connection points: 4
#     Node 6, Type 0, BuildingBlock: KUFVIS_clean_sbu_0, # of connection points: 4
#     Node 7, Type 0, BuildingBlock: KUFVIS_clean_sbu_0, # of connection points: 4
#     Edge 8, Type (0, 0), BuildingBlock: XIVTED_clean_linker_0, # of connection points: 2
#     Edge 9, Type (0, 0), BuildingBlock: XIVTED_clean_linker_0, # of connection points: 2
#     Edge 10, Type (0, 0), BuildingBlock: XIVTED_clean_linker_0, # of connection points: 2
#     Edge 11, Type (0, 0), BuildingBlock: XIVTED_clean_linker_0, # of connection points: 2
#     Edge 12, Type (0, 0), BuildingBlock: XIVTED_clean_linker_0, # of connection points: 2
#     Edge 13, Type (0, 0), BuildingBlock: XIVTED_clean_linker_0, # of connection points: 2
#     Edge 14, Type (0, 0), BuildingBlock: XIVTED_clean_linker_0, # of connection points: 2
#     Edge 15, Type (0, 0), BuildingBlock: XIVTED_clean_linker_0, # of connection points: 2
#     Edge 16, Type (0, 0), BuildingBlock: XIVTED_clean_linker_0, # of connection points: 2
#     Edge 17, Type (0, 0), BuildingBlock: XIVTED_clean_linker_0, # of connection points: 2
#     Edge 18, Type (0, 0), BuildingBlock: XIVTED_clean_linker_0, # of connection points: 2
#     Edge 19, Type (0, 0), BuildingBlock: XIVTED_clean_linker_0, # of connection points: 2
#     Edge 20, Type (0, 0), BuildingBlock: XIVTED_clean_linker_0, # of connection points: 2
#     Edge 21, Type (0, 0), BuildingBlock: XIVTED_clean_linker_0, # of connection points: 2
#     Edge 22, Type (0, 0), BuildingBlock: XIVTED_clean_linker_0, # of connection points: 2
#     Edge 23, Type (0, 0), BuildingBlock: XIVTED_clean_linker_0, # of connection points: 2
# Relax obj value: 0.123
# Max RMSD: 0.264
# Mean RMSD: 0.232
data_MOF--net-umx--node1-KUFVIS_clean_sbu_0--edge1-XIVTED_clean_linker_0
_symmetry_space_group_name_H-M    P1
_symmetry_Int_Tables_number       1
_symmetry_cell_setting            triclinic
loop_
_symmetry_equiv_pos_as_xyz
'x, y, z'
_cell_length_a     34.891119
_cell_length_b     42.168988
_cell_length_c     28.327117
_cell_angle_alpha  89.99182
_cell_angle_beta   89.992216
_cell_angle_gamma 90.072809
loop_
_atom_site_label
_atom_site_type_symbol
_atom_site_fract_x
_atom_site_fract_y
_atom_site_fract_z
_atom_type_partial_charge
Mn0 Mn 0.19198 0.44996 0.0144 0.0
Mn1 Mn 0.14391 0.40243 0.93895 0.0
C2 C 0.13142 0.46387 0.99071 0.0
C3 C 0.21002 0.4616 0.09143 0.0
C4 C 0.20871 0.44634 0.9093 0.0
O5 O 0.22152 0.40876 0.01573 0.0
O6 O 0.18304 0.37683 0.97286 0.0
C7 C 0.10408 0.36027 0.00661 0.0
N8 N 0.10262 0.38124 0.97009 0.0
C9 C 0.03396 0.37671 0.96541 0.0
C10 C 0.03475 0.35489 0.00277 0.0
C11 C 0.06995 0.3467 0.0235 0.0
C12 C 0.06891 0.38925 0.9498 0.0
H13 H 0.13108 0.35402 0.02273 0.0
C14 C 0.21215 0.38161 -0.00045 0.0
O15 O 0.23039 0.47126 0.05582 0.0
O16 O 0.17956 0.44506 0.08232 0.0
N17 N 0.10491 0.4242 0.90417 0.0
C18 C 0.10882 0.44745 0.87107 0.0
C19 C 0.07609 0.45941 0.84839 0.0
C20 C 0.03975 0.44722 0.8597 0.0
C21 C 0.03648 0.4231 0.89355 0.0
C22 C 0.07013 0.41196 0.91477 0.0
H23 H 0.13663 0.45698 0.86226 0.0
O24 O 0.15425 0.48499 0.00864 0.0
O25 O 0.14436 0.43497 0.98853 0.0
O26 O 0.21327 0.46028 0.94886 0.0
O27 O 0.18513 0.42354 0.9029 0.0
C28 C 0.00105 0.41028 0.90797 0.0
C29 C -0.00021 0.38711 0.94388 0.0
H30 H 0.00847 0.34456 0.01616 0.0
H31 H 0.07076 0.33002 0.05253 0.0
H32 H 0.07885 0.47806 0.82236 0.0
H33 H 0.01454 0.45675 0.84249 0.0
H34 H 0.97455 0.4185 0.89229 0.0
H35 H 0.97233 0.37784 0.95524 0.0
Mn36 Mn 0.52771 0.16658 0.52585 0.0
Mn37 Mn 0.48677 0.23898 0.5314 0.0
C38 C 0.52019 0.19049 0.59761 0.0
C39 C 0.52059 0.11202 0.52109 0.0
C40 C 0.56982 0.22901 0.5062 0.0
O41 O 0.50478 0.17191 0.46125 0.0
O42 O 0.47908 0.22057 0.46714 0.0
C43 C 0.40639 0.21702 0.52498 0.0
N44 N 0.43431 0.23308 0.54859 0.0
C45 C 0.39062 0.24692 0.61099 0.0
C46 C 0.3613 0.23072 0.58718 0.0
C47 C 0.36925 0.21567 0.54402 0.0
C48 C 0.42701 0.24758 0.59018 0.0
H49 H 0.41247 0.20528 0.49194 0.0
C50 C 0.48744 0.19557 0.44362 0.0
O51 O 0.55136 0.12582 0.50531 0.0
O52 O 0.49417 0.12982 0.53922 0.0
N53 N 0.49187 0.26043 0.59057 0.0
C54 C 0.52346 0.27473 0.60925 0.0
C55 C 0.52057 0.29043 0.65283 0.0
C56 C 0.48515 0.29169 0.67635 0.0
C57 C 0.45282 0.27752 0.65579 0.0
C58 C 0.45741 0.26236 0.61217 0.0
H59 H 0.55075 0.2738 0.5913 0.0
O60 O 0.54425 0.16732 0.59247 0.0
O61 O 0.49959 0.19808 0.5608 0.0
O62 O 0.56983 0.19874 0.50889 0.0
O63 O 0.54062 0.24641 0.51463 0.0
C64 C 0.41637 0.27741 0.6772 0.0
C65 C 0.3853 0.2621 0.65484 0.0
H66 H 0.33266 0.22951 0.60184 0.0
H67 H 0.34682 0.20299 0.52554 0.0
H68 H 0.54561 0.30143 0.66835 0.0
H69 H 0.48312 0.30356 0.71017 0.0
H70 H 0.41198 0.2888 0.71104 0.0
H71 H 0.35748 0.26196 0.67181 0.0
Mn72 Mn 0.80093 0.5429 0.01716 0.0
Mn73 Mn 0.84361 0.58826 0.93427 0.0
C74 C 0.8593 0.52799 0.98714 0.0
C75 C 0.79074 0.53276 0.09716 0.0
C76 C 0.77653 0.54428 0.914 0.0
O77 O 0.77234 0.58446 0.02054 0.0
O78 O 0.8066 0.6148 0.97027 0.0
C79 C 0.88752 0.63231 0.99503 0.0
N80 N 0.88673 0.61018 0.96006 0.0
C81 C 0.95502 0.61388 0.94932 0.0
C82 C 0.95652 0.63688 0.98502 0.0
C83 C 0.92263 0.6461 0.008 0.0
C84 C 0.91915 0.60124 0.93752 0.0
H85 H 0.86154 0.63934 0.01293 0.0
C86 C 0.77993 0.61096 0.00091 0.0
O87 O 0.76629 0.52317 0.06556 0.0
O88 O 0.82005 0.54872 0.08222 0.0
N89 N 0.88031 0.56536 0.89736 0.0
C90 C 0.87435 0.54105 0.86651 0.0
C91 C 0.90563 0.52796 0.84219 0.0
C92 C 0.94266 0.54006 0.84967 0.0
C93 C 0.94806 0.56521 0.88136 0.0
C94 C 0.91575 0.57748 0.90431 0.0
H95 H 0.846 0.53153 0.86076 0.0
O96 O 0.83753 0.50732 0.00802 0.0
O97 O 0.84638 0.55687 0.98515 0.0
O98 O 0.77398 0.53165 0.95488 0.0
O99 O 0.80032 0.56628 0.90378 0.0
C100 C 0.98435 0.57804 0.89199 0.0
C101 C 0.98782 0.60237 0.92591 0.0
H102 H 0.98359 0.64735 0.99545 0.0
H103 H 0.9236 0.6637 0.03577 0.0
H104 H 0.90123 0.50849 0.81787 0.0
H105 H 0.96677 0.52966 0.83122 0.0
H106 H 0.00985 0.56898 0.87488 0.0
H107 H 0.01596 0.61167 0.93434 0.0
Mn108 Mn 0.46541 0.82447 0.51862 0.0
Mn109 Mn 0.50235 0.75059 0.52422 0.0
C110 C 0.47165 0.80036 0.59043 0.0
C111 C 0.47571 0.87871 0.51369 0.0
C112 C 0.41997 0.76377 0.49881 0.0
O113 O 0.48769 0.81806 0.45387 0.0
O114 O 0.51144 0.76874 0.46009 0.0
C115 C 0.58393 0.76937 0.51861 0.0
N116 N 0.55497 0.7544 0.54192 0.0
C117 C 0.59742 0.7387 0.60463 0.0
C118 C 0.62779 0.75375 0.58113 0.0
C119 C 0.62099 0.7692 0.53797 0.0
C120 C 0.56116 0.73955 0.58352 0.0
H121 H 0.57873 0.78139 0.48556 0.0
C122 C 0.50402 0.79386 0.43638 0.0
O123 O 0.44412 0.86612 0.49813 0.0
O124 O 0.50115 0.85986 0.53161 0.0
N125 N 0.49565 0.72926 0.58325 0.0
C126 C 0.46317 0.71611 0.60151 0.0
C127 C 0.46488 0.70017 0.64501 0.0
C128 C 0.50003 0.69749 0.66885 0.0
C129 C 0.53326 0.71047 0.64871 0.0
C130 C 0.52982 0.72593 0.60515 0.0
H131 H 0.43609 0.71813 0.58329 0.0
O132 O 0.44907 0.82453 0.58534 0.0
O133 O 0.49171 0.79191 0.55359 0.0
O134 O 0.42138 0.794 0.50204 0.0
O135 O 0.44827 0.74533 0.50689 0.0
C136 C 0.56954 0.70908 0.67043 0.0
C137 C 0.60159 0.72321 0.64843 0.0
H138 H 0.65638 0.75378 0.59603 0.0
H139 H 0.64424 0.78099 0.51974 0.0
H140 H 0.43915 0.69009 0.6602 0.0
H141 H 0.50117 0.68545 0.7026 0.0
H142 H 0.57306 0.69742 0.70422 0.0
H143 H 0.62929 0.72219 0.66563 0.0
Mn144 Mn 0.19349 0.54149 0.50218 0.0
Mn145 Mn 0.14536 0.58838 0.57831 0.0
C146 C 0.13392 0.52623 0.52784 0.0
C147 C 0.21065 0.53002 0.42479 0.0
C148 C 0.21175 0.54596 0.60682 0.0
O149 O 0.22181 0.5833 0.49971 0.0
O150 O 0.18302 0.61467 0.54289 0.0
C151 C 0.10296 0.62902 0.5111 0.0
N152 N 0.10284 0.6083 0.54797 0.0
C153 C 0.03413 0.611 0.55425 0.0
C154 C 0.03354 0.63256 0.51656 0.0
C155 C 0.0681 0.64155 0.49485 0.0
C156 C 0.06976 0.59953 0.56919 0.0
H157 H 0.12946 0.63588 0.49422 0.0
C158 C 0.21185 0.61035 0.51561 0.0
O159 O 0.23186 0.52094 0.45995 0.0
O160 O 0.17982 0.54585 0.43455 0.0
N161 N 0.10774 0.56602 0.61466 0.0
C162 C 0.11303 0.54339 0.64841 0.0
C163 C 0.08113 0.53089 0.6723 0.0
C164 C 0.04419 0.54192 0.66154 0.0
C165 C 0.03949 0.56546 0.62706 0.0
C166 C 0.07237 0.57722 0.60467 0.0
H167 H 0.14131 0.53475 0.65684 0.0
O168 O 0.15699 0.50561 0.50921 0.0
O169 O 0.14589 0.55546 0.52928 0.0
O170 O 0.21603 0.53189 0.56731 0.0
O171 O 0.18786 0.56847 0.61347 0.0
C172 C 0.00339 0.57715 0.61322 0.0
C173 C 0.00071 0.59989 0.57683 0.0
H174 H 0.00669 0.6421 0.50367 0.0
H175 H 0.06785 0.65804 0.46556 0.0
H176 H 0.08501 0.5127 0.69883 0.0
H177 H 0.01963 0.53196 0.67966 0.0
H178 H 0.97746 0.56843 0.6298 0.0
H179 H 0.97275 0.60833 0.56601 0.0
Mn180 Mn 0.46488 0.16563 0.00567 0.0
Mn181 Mn 0.50539 0.23836 0.0047 0.0
C182 C 0.47758 0.18931 0.93492 0.0
C183 C 0.47333 0.11127 0.01275 0.0
C184 C 0.42087 0.22719 0.02165 0.0
O185 O 0.48172 0.17196 0.07285 0.0
O186 O 0.51105 0.21939 0.06896 0.0
C187 C 0.58591 0.21774 0.01539 0.0
N188 N 0.55857 0.23351 0.99045 0.0
C189 C 0.60416 0.24836 0.93065 0.0
C190 C 0.63291 0.23248 0.95587 0.0
C191 C 0.62372 0.21706 -0.00161 0.0
C192 C 0.56706 0.24832 0.94943 0.0
H193 H 0.57886 0.20571 0.04792 0.0
C194 C 0.49972 0.19486 0.09176 0.0
O195 O 0.44068 0.12442 0.023 0.0
O196 O 0.50072 0.1297 -0.00155 0.0
N197 N 0.50205 0.26026 0.9457 0.0
C198 C 0.47094 0.27439 0.92565 0.0
C199 C 0.47512 0.2905 0.88254 0.0
C200 C 0.51129 0.29232 0.86091 0.0
C201 C 0.54307 0.27836 0.88291 0.0
C202 C 0.5372 0.26279 0.92599 0.0
H203 H 0.44308 0.27304 0.94214 0.0
O204 O 0.45431 0.16537 0.9373 0.0
O205 O 0.49487 0.19753 0.97396 0.0
O206 O 0.42079 0.19707 0.01627 0.0
O207 O 0.45074 0.24466 0.01838 0.0
C208 C 0.58026 0.27892 0.86352 0.0
C209 C 0.61077 0.2639 0.88734 0.0
H210 H 0.66208 0.2318 0.94279 0.0
H211 H 0.64571 0.20462 0.01793 0.0
H212 H 0.45048 0.30136 0.86592 0.0
H213 H 0.51432 0.30451 0.82745 0.0
H214 H 0.58565 0.29065 0.83014 0.0
H215 H 0.63918 0.26431 0.87191 0.0
Mn216 Mn 0.80325 0.44848 0.5128 0.0
Mn217 Mn 0.8465 0.40011 0.59123 0.0
C218 C 0.8622 0.46202 0.54289 0.0
C219 C 0.79199 0.4617 0.43408 0.0
C220 C 0.77998 0.44343 0.6162 0.0
O221 O 0.77441 0.40714 0.50634 0.0
O222 O 0.80876 0.37505 0.55391 0.0
C223 C 0.88911 0.35796 0.5263 0.0
N224 N 0.88903 0.37889 0.5629 0.0
C225 C 0.95737 0.37431 0.57216 0.0
C226 C 0.95815 0.35255 0.53474 0.0
C227 C 0.92388 0.34438 0.51168 0.0
C228 C 0.92182 0.38681 0.5855 0.0
H229 H 0.86284 0.35172 0.50838 0.0
C230 C 0.78195 0.37999 0.52384 0.0
O231 O 0.76802 0.47001 0.46698 0.0
O232 O 0.82154 0.44529 0.44693 0.0
N233 N 0.88395 0.42151 0.62905 0.0
C234 C 0.87869 0.4448 0.66178 0.0
C235 C 0.91042 0.4568 0.68652 0.0
C236 C 0.94717 0.44467 0.67753 0.0
C237 C 0.95186 0.42061 0.64386 0.0
C238 C 0.91914 0.40943 0.62051 0.0
H239 H 0.85054 0.45431 0.66874 0.0
O240 O 0.8403 0.48356 0.52436 0.0
O241 O 0.84896 0.43319 0.54276 0.0
O242 O 0.77698 0.45731 0.5763 0.0
O243 O 0.80387 0.42117 0.62438 0.0
C244 C 0.98782 0.4078 0.63177 0.0
C245 C 0.99058 0.38469 0.59593 0.0
H246 H 0.98495 0.34223 0.52308 0.0
H247 H 0.92429 0.32774 0.48261 0.0
H248 H 0.90658 0.47543 0.71236 0.0
H249 H 0.97163 0.4542 0.69637 0.0
H250 H 0.01361 0.41595 0.64928 0.0
H251 H 0.01847 0.37544 0.58639 0.0
Mn252 Mn 0.52154 0.82233 -0.00091 0.0
Mn253 Mn 0.48163 0.74937 0.99758 0.0
C254 C 0.50928 0.79877 0.9282 0.0
C255 C 0.51286 0.87662 0.0068 0.0
C256 C 0.56604 0.76086 0.0146 0.0
O257 O 0.50451 0.81578 0.06608 0.0
O258 O 0.47612 0.76798 0.06213 0.0
C259 C 0.40107 0.76974 0.00896 0.0
N260 N 0.42838 0.75418 0.98367 0.0
C261 C 0.38266 0.73971 0.92383 0.0
C262 C 0.35395 0.75537 0.94942 0.0
C263 C 0.36322 0.77049 0.99213 0.0
C264 C 0.41982 0.73967 0.94245 0.0
H265 H 0.40818 0.78155 0.04164 0.0
C266 C 0.48698 0.79263 0.08497 0.0
O267 O 0.54552 0.86347 0.01697 0.0
O268 O 0.48559 0.85824 0.99199 0.0
N269 N 0.48482 0.72775 0.93834 0.0
C270 C 0.51585 0.71364 0.91809 0.0
C271 C 0.51158 0.69775 0.87482 0.0
C272 C 0.47538 0.69611 0.85326 0.0
C273 C 0.44365 0.71001 0.87549 0.0
C274 C 0.44963 0.72537 0.91871 0.0
H275 H 0.54373 0.71484 0.93455 0.0
O276 O 0.53236 0.82283 0.93082 0.0
O277 O 0.49186 0.79037 0.96709 0.0
O278 O 0.56574 0.79102 0.00976 0.0
O279 O 0.53638 0.74317 0.0109 0.0
C280 C 0.40643 0.70955 0.85623 0.0
C281 C 0.37596 0.72442 0.88035 0.0
H282 H 0.32475 0.7561 0.93647 0.0
H283 H 0.34126 0.78276 0.01195 0.0
H284 H 0.53616 0.68691 0.85804 0.0
H285 H 0.47226 0.68408 0.81968 0.0
H286 H 0.40095 0.69799 0.82275 0.0
H287 H 0.34751 0.72408 0.86505 0.0
H288 H 0.19986 0.42594 0.1704 0.0
H289 H 0.19778 0.56522 0.34599 0.0
H290 H 0.2408 0.51713 0.1233 0.0
H291 H 0.24339 0.47547 0.39232 0.0
H292 H 0.20653 0.54846 0.2637 0.0
H293 H 0.20888 0.44296 0.25253 0.0
C294 C 0.21116 0.44941 0.17747 0.0
C295 C 0.21961 0.47024 0.14034 0.0
C296 C 0.21515 0.5327 0.29196 0.0
C297 C 0.22895 0.48998 0.23353 0.0
C298 C 0.21002 0.54213 0.33872 0.0
C299 C 0.21987 0.52161 0.37569 0.0
C300 C 0.22895 0.50216 0.28232 0.0
C301 C 0.23563 0.49196 0.36463 0.0
C302 C 0.21644 0.459 0.22413 0.0
C303 C 0.23416 0.50039 0.15112 0.0
N304 N 0.23894 0.48277 0.31877 0.0
N305 N 0.23761 0.50968 0.19691 0.0
H306 H 0.57352 0.21207 0.65898 0.0
H307 H 0.42564 0.21255 0.87376 0.0
H308 H 0.45267 0.19333 0.64511 0.0
H309 H 0.54622 0.19356 0.8896 0.0
H310 H 0.43599 0.22359 0.78978 0.0
H311 H 0.56412 0.22276 0.7434 0.0
C312 C 0.54487 0.21109 0.67366 0.0
C313 C 0.51358 0.20276 0.64524 0.0
C314 C 0.46033 0.21778 0.81187 0.0
C315 C 0.50281 0.21409 0.74116 0.0
C316 C 0.45448 0.21165 0.85962 0.0
C317 C 0.48534 0.20296 0.88842 0.0
C318 C 0.49717 0.21443 0.79276 0.0
C319 C 0.522 0.20115 0.86858 0.0
C320 C 0.53956 0.21708 0.7216 0.0
C321 C 0.4772 0.20078 0.66574 0.0
N322 N 0.52693 0.20668 0.82171 0.0
N323 N 0.47277 0.20635 0.71262 0.0
H324 H 0.72753 0.4838 0.38788 0.0
H325 H 0.84588 0.53862 0.16388 0.0
H326 H 0.84748 0.46301 0.3674 0.0
H327 H 0.72884 0.50761 0.14555 0.0
H328 H 0.84333 0.5218 0.24591 0.0
H329 H 0.72398 0.50195 0.30503 0.0
C330 C 0.75298 0.48301 0.36603 0.0
C331 C 0.78785 0.47189 0.38444 0.0
C332 C 0.81813 0.51877 0.22401 0.0
C333 C 0.78412 0.49299 0.29098 0.0
C334 C 0.81945 0.5285 0.17719 0.0
C335 C 0.78757 0.52432 0.14768 0.0
C336 C 0.78454 0.50512 0.24201 0.0
C337 C 0.75412 0.51104 0.1671 0.0
C338 C 0.75089 0.49323 0.31895 0.0
C339 C 0.81998 0.47127 0.35471 0.0
N340 N 0.75339 0.5019 0.21332 0.0
N341 N 0.81741 0.48196 0.30973 0.0
H342 H 0.56176 0.77549 0.86783 0.0
H343 H 0.4166 0.78021 0.65054 0.0
H344 H 0.44106 0.79458 0.8819 0.0
H345 H 0.53844 0.79478 0.63896 0.0
H346 H 0.42446 0.76854 0.73488 0.0
H347 H 0.55234 0.7649 0.7836 0.0
C348 C 0.53308 0.7765 0.85322 0.0
C349 C 0.50193 0.78514 0.8816 0.0
C350 C 0.44955 0.77353 0.71361 0.0
C351 C 0.49117 0.77428 0.78558 0.0
C352 C 0.44511 0.78009 0.6657 0.0
C353 C 0.47712 0.78752 0.63795 0.0
C354 C 0.48619 0.77512 0.73386 0.0
C355 C 0.51332 0.78807 0.65908 0.0
C356 C 0.52776 0.77064 0.80532 0.0
C357 C 0.4655 0.78708 0.86119 0.0
N358 N 0.51691 0.78202 0.70595 0.0
N359 N 0.4611 0.78189 0.81415 0.0
H360 H 0.76158 0.41232 0.69766 0.0
H361 H 0.75287 0.57396 0.83368 0.0
H362 H 0.751 0.50327 0.62914 0.0
H363 H 0.7532 0.4827 0.90241 0.0
H364 H 0.73561 0.54826 0.75959 0.0
H365 H 0.74232 0.43655 0.77205 0.0
C366 C 0.75436 0.4373 0.69805 0.0
C367 C 0.75874 0.45597 0.65734 0.0
C368 C 0.73852 0.53385 0.79102 0.0
C369 C 0.73733 0.48402 0.74274 0.0
C370 C 0.74831 0.54854 0.83341 0.0
C371 C 0.75522 0.53034 0.874 0.0
C372 C 0.73639 0.50063 0.78897 0.0
C373 C 0.74844 0.49759 0.87184 0.0
C374 C 0.74334 0.45114 0.74062 0.0
C375 C 0.7484 0.48806 0.65975 0.0
N376 N 0.74033 0.48366 0.82969 0.0
N377 N 0.73904 0.50124 0.70202 0.0
H378 H 0.48732 0.84422 0.14286 0.0
H379 H 0.51212 0.74203 0.37871 0.0
H380 H 0.48145 0.74197 0.14536 0.0
H381 H 0.50484 0.84424 0.37575 0.0
H382 H 0.50571 0.74128 0.29272 0.0
H383 H 0.49503 0.84438 0.22827 0.0
C384 C 0.48706 0.82179 0.16152 0.0
C385 C 0.48379 0.79303 0.13693 0.0
C386 C 0.50586 0.76386 0.31093 0.0
C387 C 0.49351 0.793 0.23482 0.0
C388 C 0.51004 0.76435 0.35997 0.0
C389 C 0.50884 0.79325 0.38455 0.0
C390 C 0.50061 0.79247 0.28638 0.0
C391 C 0.50567 0.82139 0.35836 0.0
C392 C 0.49174 0.82188 0.2103 0.0
C393 C 0.48361 0.76469 0.16295 0.0
N394 N 0.50142 0.82026 0.3108 0.0
N395 N 0.48881 0.76537 0.21053 0.0
H396 H 0.2238 0.41582 0.82635 0.0
H397 H 0.22749 0.57663 0.68952 0.0
H398 H 0.23667 0.50641 0.89545 0.0
H399 H 0.23888 0.48577 0.62091 0.0
H400 H 0.24342 0.55183 0.76472 0.0
H401 H 0.2416 0.44039 0.75161 0.0
C402 C 0.23113 0.44079 0.82595 0.0
C403 C 0.22798 0.45924 0.86699 0.0
C404 C 0.24333 0.53739 0.73312 0.0
C405 C 0.24775 0.48768 0.78131 0.0
C406 C 0.23422 0.55156 0.69012 0.0
C407 C 0.23107 0.5331 0.64907 0.0
C408 C 0.24857 0.50441 0.73525 0.0
C409 C 0.24061 0.50084 0.65177 0.0
C410 C 0.24137 0.45482 0.78322 0.0
C411 C 0.23836 0.49136 0.86456 0.0
N412 N 0.24803 0.48736 0.69438 0.0
N413 N 0.24694 0.50473 0.82219 0.0
H414 H 0.47767 0.24678 0.38519 0.0
H415 H 0.49752 0.14335 0.14994 0.0
H416 H 0.48702 0.14467 0.38398 0.0
H417 H 0.5076 0.2454 0.1519 0.0
H418 H 0.49092 0.14355 0.23556 0.0
H419 H 0.48258 0.24687 0.29902 0.0
C420 C 0.47991 0.22434 0.3668 0.0
C421 C 0.48211 0.19567 0.39188 0.0
C422 C 0.4949 0.1659 0.21738 0.0
C423 C 0.48855 0.1957 0.29352 0.0
C424 C 0.49891 0.16579 0.16849 0.0
C425 C 0.5031 0.19441 0.14371 0.0
C426 C 0.49469 0.19486 0.2418 0.0
C427 C 0.50471 0.22277 0.16961 0.0
C428 C 0.48324 0.22446 0.31766 0.0
C429 C 0.48544 0.16735 0.36616 0.0
N430 N 0.50012 0.22231 0.21728 0.0
N431 N 0.48877 0.16811 0.31846 0.0
H432 H 0.92099 0.56122 0.01678 0.0
H433 H 0.06943 0.43313 0.02539 0.0
H434 H 0.88838 0.47528 0.94493 0.0
H435 H 0.10292 0.5148 0.94372 0.0
H436 H 0.00192 0.4485 0.01606 0.0
H437 H 0.98857 0.54597 0.0093 0.0
C438 C 0.92827 0.53965 0.9981 0.0
C439 C 0.89962 0.52023 0.97907 0.0
C440 C 0.02415 0.46261 -0.00048 0.0
C441 C 0.97574 0.50173 0.9738 0.0
C442 C 0.06235 0.45381 0.00447 0.0
C443 C 0.09116 0.4719 0.98309 0.0
C444 C 0.01524 0.49045 0.97503 0.0
C445 C 0.08111 0.4998 0.95929 0.0
C446 C 0.96654 0.53088 0.99435 0.0
C447 C 0.91001 0.49126 0.95857 0.0
N448 N 0.04373 0.50847 0.95609 0.0
N449 N 0.94748 0.48261 0.95684 0.0
H450 H 0.45407 0.92124 0.44573 0.0
H451 H 0.48975 0.07476 0.58891 0.0
H452 H 0.5128 0.91392 0.57926 0.0
H453 H 0.53932 0.07132 0.44954 0.0
H454 H 0.47967 0.01715 0.58575 0.0
H455 H 0.4672 0.9788 0.44538 0.0
C456 C 0.4695 0.93181 0.47495 0.0
C457 C 0.48244 0.91309 0.51259 0.0
C458 C 0.49273 0.02914 0.55597 0.0
C459 C 0.4966 0.97805 0.51277 0.0
C460 C 0.49842 0.0618 0.55766 0.0
C461 C 0.51559 0.07748 0.51953 0.0
C462 C 0.50305 0.01241 0.51523 0.0
C463 C 0.52634 0.05981 0.47975 0.0
C464 C 0.47716 0.96437 0.47453 0.0
C465 C 0.50254 0.92766 0.54956 0.0
N466 N 0.51941 0.02806 0.47828 0.0
N467 N 0.50853 0.95946 0.54911 0.0
H468 H 0.10984 0.47568 0.57924 0.0
H469 H 0.9222 0.42894 0.50852 0.0
H470 H 0.06916 0.55396 0.49537 0.0
H471 H 0.89377 0.51314 0.58718 0.0
H472 H 0.99027 0.44305 0.51389 0.0
H473 H 0.043 0.45805 0.59017 0.0
C474 C 0.08671 0.48944 0.56407 0.0
C475 C 0.09441 0.51698 0.5381 0.0
C476 C 0.96907 0.45796 0.53084 0.0
C477 C 0.01923 0.49723 0.55033 0.0
C478 C 0.93052 0.44982 0.52828 0.0
C479 C 0.9029 0.46905 0.54977 0.0
C480 C 0.9796 0.48631 0.55292 0.0
C481 C 0.91461 0.49726 0.57163 0.0
C482 C 0.04896 0.47946 0.57034 0.0
C483 C 0.06393 0.53348 0.5175 0.0
N484 N 0.95233 0.50533 0.57224 0.0
N485 N 0.02737 0.52352 0.52445 0.0
H486 H 0.44503 0.90843 0.00173 0.0
H487 H 0.54114 0.07952 0.00829 0.0
H488 H 0.56628 0.92301 0.02305 0.0
H489 H 0.41952 0.06462 0.02551 0.0
H490 H 0.55094 0.02228 0.01074 0.0
H491 H 0.43504 0.96559 0.00734 0.0
C492 C 0.46957 0.92367 0.00768 0.0
C493 C 0.5066 0.91101 0.01171 0.0
C494 C 0.52214 0.03151 0.01429 0.0
C495 C 0.49534 0.97641 0.01799 0.0
C496 C 0.51648 0.06418 0.01273 0.0
C497 C 0.47941 0.07679 0.01648 0.0
C498 C 0.49045 0.01125 0.01906 0.0
C499 C 0.44856 0.05584 0.02246 0.0
C500 C 0.4638 0.95628 0.01106 0.0
C501 C 0.53728 0.93182 0.01968 0.0
N502 N 0.45474 0.02403 0.02318 0.0
N503 N 0.531 0.96357 0.02222 0.0
H504 H 0.2099 0.32113 0.96334 0.0
H505 H 0.41009 0.27755 0.07897 0.0
H506 H 0.27035 0.37978 0.06393 0.0
H507 H 0.34989 0.2146 0.98458 0.0
H508 H 0.35352 0.31103 0.08344 0.0
H509 H 0.25527 0.27824 0.979 0.0
C510 C 0.23245 0.32492 0.98901 0.0
C511 C 0.23681 0.35436 0.0116 0.0
C512 C 0.3523 0.28971 0.06218 0.0
C513 C 0.28856 0.3054 0.02975 0.0
C514 C 0.38461 0.27061 0.05967 0.0
C515 C 0.38462 0.24365 0.03084 0.0
C516 C 0.31999 0.28217 0.03484 0.0
C517 C 0.35087 0.23535 0.00705 0.0
C518 C 0.25826 0.30038 0.998 0.0
C519 C 0.26627 0.35776 0.04492 0.0
N520 N 0.31997 0.25495 0.00882 0.0
N521 N 0.29119 0.33371 0.05258 0.0
H522 H 0.78352 0.3187 0.55699 0.0
H523 H 0.57756 0.28281 0.455 0.0
H524 H 0.7239 0.37977 0.459 0.0
H525 H 0.64299 0.21321 0.53202 0.0
H526 H 0.63476 0.3155 0.44772 0.0
H527 H 0.73675 0.27692 0.54084 0.0
C528 C 0.76091 0.32324 0.5317 0.0
C529 C 0.75714 0.35309 0.51018 0.0
C530 C 0.63695 0.29288 0.46561 0.0
C531 C 0.70365 0.3054 0.49159 0.0
C532 C 0.60426 0.27426 0.46981 0.0
C533 C 0.60563 0.24559 0.49469 0.0
C534 C 0.67108 0.28311 0.48741 0.0
C535 C 0.64089 0.2353 0.51271 0.0
C536 C 0.73429 0.29932 0.52239 0.0
C537 C 0.72757 0.35741 0.47721 0.0
N538 N 0.67221 0.25441 0.50956 0.0
N539 N 0.70172 0.33399 0.46945 0.0
H540 H 0.77931 0.6702 0.96023 0.0
H541 H 0.57683 0.70963 0.07029 0.0
H542 H 0.72428 0.6142 0.06862 0.0
H543 H 0.63753 0.77528 0.98049 0.0
H544 H 0.63462 0.6778 0.07711 0.0
H545 H 0.73225 0.71216 0.97352 0.0
C546 C 0.75768 0.66684 0.98721 0.0
C547 C 0.75523 0.63829 0.01258 0.0
C548 C 0.63567 0.69936 0.05639 0.0
C549 C 0.70142 0.68615 0.02786 0.0
C550 C 0.60262 0.71747 0.05242 0.0
C551 C 0.60246 0.74477 0.02428 0.0
C552 C 0.66862 0.70821 0.03115 0.0
C553 C 0.63663 0.75424 0.00238 0.0
C554 C 0.73088 0.69086 0.99482 0.0
C555 C 0.72688 0.63548 0.04747 0.0
N556 N 0.66831 0.73559 0.00553 0.0
N557 N 0.70084 0.65892 0.05362 0.0
H558 H 0.40978 0.71443 0.43948 0.0
H559 H 0.20885 0.67087 0.55157 0.0
H560 H 0.34825 0.77768 0.53184 0.0
H561 H 0.26888 0.61308 0.44967 0.0
H562 H 0.25362 0.7142 0.53553 0.0
H563 H 0.3526 0.68169 0.43211 0.0
C564 C 0.38383 0.72164 0.45754 0.0
C565 C 0.3836 0.7484 0.48674 0.0
C566 C 0.25661 0.69217 0.51625 0.0
C567 C 0.31837 0.71069 0.47971 0.0
C568 C 0.23114 0.66737 0.52547 0.0
C569 C 0.23568 0.63801 0.50276 0.0
C570 C 0.28677 0.68748 0.4842 0.0
C571 C 0.26475 0.63501 0.46886 0.0
C572 C 0.35119 0.70297 0.45342 0.0
C573 C 0.34937 0.75707 0.50908 0.0
N574 N 0.28941 0.65929 0.46106 0.0
N575 N 0.31817 0.73781 0.50593 0.0
loop_
_geom_bond_atom_site_label_1
_geom_bond_atom_site_label_2
_geom_bond_distance
_geom_bond_site_symmetry_2
_ccdc_geom_bond_type
Mn0 O5 2.095 . S
Mn0 O15 2.162 . S
Mn0 O16 2.297 . S
Mn0 O24 2.385 . S
Mn0 O25 2.209 . S
Mn0 O26 2.094 1_554 S
Mn1 O6 2.121 . S
Mn1 N8 2.257 . S
Mn1 N17 2.282 . S
Mn1 O25 2.215 1_556 S
Mn1 O27 2.117 . S
C2 O24 1.234 . S
C2 O25 1.283 . S
C3 O15 1.281 . S
C3 O16 1.236 . S
C4 O26 1.240 . S
C4 O27 1.264 . S
O5 Mn0 2.095 . S
O5 C14 1.250 . S
O6 Mn1 2.121 . S
O6 C14 1.258 1_556 S
C7 N8 1.326 . S
C7 C11 1.460 . S
C7 H13 0.929 . S
N8 Mn1 2.257 . S
N8 C7 1.326 . S
N8 C12 1.362 . S
C9 C10 1.258 . S
C9 C12 1.431 . S
C9 C29 1.449 . S
C10 C9 1.258 . S
C10 C11 1.477 . S
C10 H30 0.931 . S
C11 C7 1.460 . S
C11 C10 1.477 . S
C11 H31 0.930 . S
C12 N8 1.362 . S
C12 C9 1.431 . S
C12 C22 1.476 . S
H13 C7 0.929 . S
C14 O5 1.250 . S
C14 O6 1.258 1_554 S
O15 Mn0 2.162 . S
O15 C3 1.281 . S
O16 Mn0 2.297 . S
O16 C3 1.236 . S
N17 Mn1 2.282 . S
N17 C18 1.328 . S
N17 C22 1.318 . S
C18 N17 1.328 . S
C18 C19 1.457 . S
C18 H23 0.929 . S
C19 C18 1.457 . S
C19 C20 1.291 . S
C19 H32 0.931 . S
C20 C19 1.291 . S
C20 C21 1.373 . S
C20 H33 0.929 . S
C21 C20 1.373 . S
C21 C22 1.396 . S
C21 C28 1.403 . S
C22 C12 1.476 . S
C22 N17 1.318 . S
C22 C21 1.396 . S
H23 C18 0.929 . S
O24 Mn0 2.385 . S
O24 C2 1.234 . S
O25 Mn0 2.209 . S
O25 Mn1 2.215 1_554 S
O25 C2 1.283 . S
O26 Mn0 2.094 1_556 S
O26 C4 1.240 . S
O27 Mn1 2.117 . S
O27 C4 1.264 . S
C28 C21 1.403 . S
C28 C29 1.399 . S
C28 H34 0.929 1_455 S
C29 C9 1.449 . S
C29 C28 1.399 . S
C29 H35 0.908 1_455 S
H30 C10 0.931 . S
H31 C11 0.930 . S
H32 C19 0.931 . S
H33 C20 0.929 . S
H34 C28 0.929 1_655 S
H35 C29 0.908 1_655 S
Mn36 O41 2.095 . S
Mn36 O51 2.162 . S
Mn36 O52 2.297 . S
Mn36 O60 2.385 . S
Mn36 O61 2.209 . S
Mn36 O62 2.094 . S
Mn37 O42 2.121 . S
Mn37 N44 2.257 . S
Mn37 N53 2.282 . S
Mn37 O61 2.215 . S
Mn37 O63 2.117 . S
C38 O60 1.234 . S
C38 O61 1.283 . S
C39 O51 1.281 . S
C39 O52 1.236 . S
C40 O62 1.240 . S
C40 O63 1.264 . S
O41 Mn36 2.095 . S
O41 C50 1.250 . S
O42 Mn37 2.121 . S
O42 C50 1.258 . S
C43 N44 1.326 . S
C43 C47 1.460 . S
C43 H49 0.929 . S
N44 Mn37 2.257 . S
N44 C43 1.326 . S
N44 C48 1.362 . S
C45 C46 1.258 . S
C45 C48 1.431 . S
C45 C65 1.449 . S
C46 C45 1.258 . S
C46 C47 1.477 . S
C46 H66 0.931 . S
C47 C43 1.460 . S
C47 C46 1.477 . S
C47 H67 0.930 . S
C48 N44 1.362 . S
C48 C45 1.431 . S
C48 C58 1.476 . S
H49 C43 0.929 . S
C50 O41 1.250 . S
C50 O42 1.258 . S
O51 Mn36 2.162 . S
O51 C39 1.281 . S
O52 Mn36 2.297 . S
O52 C39 1.236 . S
N53 Mn37 2.282 . S
N53 C54 1.328 . S
N53 C58 1.318 . S
C54 N53 1.328 . S
C54 C55 1.457 . S
C54 H59 0.929 . S
C55 C54 1.457 . S
C55 C56 1.291 . S
C55 H68 0.931 . S
C56 C55 1.291 . S
C56 C57 1.373 . S
C56 H69 0.929 . S
C57 C56 1.373 . S
C57 C58 1.396 . S
C57 C64 1.403 . S
C58 C48 1.476 . S
C58 N53 1.318 . S
C58 C57 1.396 . S
H59 C54 0.929 . S
O60 Mn36 2.385 . S
O60 C38 1.234 . S
O61 Mn36 2.209 . S
O61 Mn37 2.215 . S
O61 C38 1.283 . S
O62 Mn36 2.094 . S
O62 C40 1.240 . S
O63 Mn37 2.117 . S
O63 C40 1.264 . S
C64 C57 1.403 . S
C64 C65 1.399 . S
C64 H70 0.929 . S
C65 C45 1.449 . S
C65 C64 1.399 . S
C65 H71 0.930 . S
H66 C46 0.931 . S
H67 C47 0.930 . S
H68 C55 0.931 . S
H69 C56 0.929 . S
H70 C64 0.929 . S
H71 C65 0.930 . S
Mn72 O77 2.095 . S
Mn72 O87 2.162 . S
Mn72 O88 2.297 . S
Mn72 O96 2.385 . S
Mn72 O97 2.209 . S
Mn72 O98 2.094 1_554 S
Mn73 O78 2.121 . S
Mn73 N80 2.257 . S
Mn73 N89 2.282 . S
Mn73 O97 2.215 1_556 S
Mn73 O99 2.117 . S
C74 O96 1.234 . S
C74 O97 1.283 . S
C75 O87 1.281 . S
C75 O88 1.236 . S
C76 O98 1.240 . S
C76 O99 1.264 . S
O77 Mn72 2.095 . S
O77 C86 1.250 . S
O78 Mn73 2.121 . S
O78 C86 1.258 1_556 S
C79 N80 1.326 . S
C79 C83 1.460 . S
C79 H85 0.929 . S
N80 Mn73 2.257 . S
N80 C79 1.326 . S
N80 C84 1.362 . S
C81 C82 1.258 . S
C81 C84 1.431 . S
C81 C101 1.449 . S
C82 C81 1.258 . S
C82 C83 1.477 . S
C82 H102 0.931 . S
C83 C79 1.460 . S
C83 C82 1.477 . S
C83 H103 0.930 . S
C84 N80 1.362 . S
C84 C81 1.431 . S
C84 C94 1.476 . S
H85 C79 0.929 . S
C86 O77 1.250 . S
C86 O78 1.258 1_554 S
O87 Mn72 2.162 . S
O87 C75 1.281 . S
O88 Mn72 2.297 . S
O88 C75 1.236 . S
N89 Mn73 2.282 . S
N89 C90 1.328 . S
N89 C94 1.318 . S
C90 N89 1.328 . S
C90 C91 1.457 . S
C90 H95 0.929 . S
C91 C90 1.457 . S
C91 C92 1.291 . S
C91 H104 0.931 . S
C92 C91 1.291 . S
C92 C93 1.373 . S
C92 H105 0.929 . S
C93 C92 1.373 . S
C93 C94 1.396 . S
C93 C100 1.403 . S
C94 C84 1.476 . S
C94 N89 1.318 . S
C94 C93 1.396 . S
H95 C90 0.929 . S
O96 Mn72 2.385 . S
O96 C74 1.234 . S
O97 Mn72 2.209 . S
O97 Mn73 2.215 1_554 S
O97 C74 1.283 . S
O98 Mn72 2.094 1_556 S
O98 C76 1.240 . S
O99 Mn73 2.117 . S
O99 C76 1.264 . S
C100 C93 1.403 . S
C100 C101 1.399 . S
C100 H106 0.929 1_655 S
C101 C81 1.449 . S
C101 C100 1.399 . S
C101 H107 0.908 1_655 S
H102 C82 0.931 . S
H103 C83 0.930 . S
H104 C91 0.931 . S
H105 C92 0.929 . S
H106 C100 0.929 1_455 S
H107 C101 0.908 1_455 S
Mn108 O113 2.095 . S
Mn108 O123 2.162 . S
Mn108 O124 2.297 . S
Mn108 O132 2.385 . S
Mn108 O133 2.209 . S
Mn108 O134 2.094 . S
Mn109 O114 2.121 . S
Mn109 N116 2.257 . S
Mn109 N125 2.282 . S
Mn109 O133 2.215 . S
Mn109 O135 2.117 . S
C110 O132 1.234 . S
C110 O133 1.283 . S
C111 O123 1.281 . S
C111 O124 1.236 . S
C112 O134 1.240 . S
C112 O135 1.264 . S
O113 Mn108 2.095 . S
O113 C122 1.250 . S
O114 Mn109 2.121 . S
O114 C122 1.258 . S
C115 N116 1.326 . S
C115 C119 1.460 . S
C115 H121 0.929 . S
N116 Mn109 2.257 . S
N116 C115 1.326 . S
N116 C120 1.362 . S
C117 C118 1.258 . S
C117 C120 1.431 . S
C117 C137 1.449 . S
C118 C117 1.258 . S
C118 C119 1.477 . S
C118 H138 0.931 . S
C119 C115 1.460 . S
C119 C118 1.477 . S
C119 H139 0.930 . S
C120 N116 1.362 . S
C120 C117 1.431 . S
C120 C130 1.476 . S
H121 C115 0.929 . S
C122 O113 1.250 . S
C122 O114 1.258 . S
O123 Mn108 2.162 . S
O123 C111 1.281 . S
O124 Mn108 2.297 . S
O124 C111 1.236 . S
N125 Mn109 2.282 . S
N125 C126 1.328 . S
N125 C130 1.318 . S
C126 N125 1.328 . S
C126 C127 1.457 . S
C126 H131 0.929 . S
C127 C126 1.457 . S
C127 C128 1.291 . S
C127 H140 0.931 . S
C128 C127 1.291 . S
C128 C129 1.373 . S
C128 H141 0.929 . S
C129 C128 1.373 . S
C129 C130 1.396 . S
C129 C136 1.403 . S
C130 C120 1.476 . S
C130 N125 1.318 . S
C130 C129 1.396 . S
H131 C126 0.929 . S
O132 Mn108 2.385 . S
O132 C110 1.234 . S
O133 Mn108 2.209 . S
O133 Mn109 2.215 . S
O133 C110 1.283 . S
O134 Mn108 2.094 . S
O134 C112 1.240 . S
O135 Mn109 2.117 . S
O135 C112 1.264 . S
C136 C129 1.403 . S
C136 C137 1.399 . S
C136 H142 0.929 . S
C137 C117 1.449 . S
C137 C136 1.399 . S
C137 H143 0.930 . S
H138 C118 0.931 . S
H139 C119 0.930 . S
H140 C127 0.931 . S
H141 C128 0.929 . S
H142 C136 0.929 . S
H143 C137 0.930 . S
Mn144 O149 2.095 . S
Mn144 O159 2.162 . S
Mn144 O160 2.297 . S
Mn144 O168 2.385 . S
Mn144 O169 2.209 . S
Mn144 O170 2.094 . S
Mn145 O150 2.121 . S
Mn145 N152 2.257 . S
Mn145 N161 2.282 . S
Mn145 O169 2.215 . S
Mn145 O171 2.117 . S
C146 O168 1.234 . S
C146 O169 1.283 . S
C147 O159 1.281 . S
C147 O160 1.236 . S
C148 O170 1.240 . S
C148 O171 1.264 . S
O149 Mn144 2.095 . S
O149 C158 1.250 . S
O150 Mn145 2.121 . S
O150 C158 1.258 . S
C151 N152 1.326 . S
C151 C155 1.460 . S
C151 H157 0.929 . S
N152 Mn145 2.257 . S
N152 C151 1.326 . S
N152 C156 1.362 . S
C153 C154 1.258 . S
C153 C156 1.431 . S
C153 C173 1.449 . S
C154 C153 1.258 . S
C154 C155 1.477 . S
C154 H174 0.931 . S
C155 C151 1.460 . S
C155 C154 1.477 . S
C155 H175 0.930 . S
C156 N152 1.362 . S
C156 C153 1.431 . S
C156 C166 1.476 . S
H157 C151 0.929 . S
C158 O149 1.250 . S
C158 O150 1.258 . S
O159 Mn144 2.162 . S
O159 C147 1.281 . S
O160 Mn144 2.297 . S
O160 C147 1.236 . S
N161 Mn145 2.282 . S
N161 C162 1.328 . S
N161 C166 1.318 . S
C162 N161 1.328 . S
C162 C163 1.457 . S
C162 H167 0.929 . S
C163 C162 1.457 . S
C163 C164 1.291 . S
C163 H176 0.931 . S
C164 C163 1.291 . S
C164 C165 1.373 . S
C164 H177 0.929 . S
C165 C164 1.373 . S
C165 C166 1.396 . S
C165 C172 1.403 . S
C166 C156 1.476 . S
C166 N161 1.318 . S
C166 C165 1.396 . S
H167 C162 0.929 . S
O168 Mn144 2.385 . S
O168 C146 1.234 . S
O169 Mn144 2.209 . S
O169 Mn145 2.215 . S
O169 C146 1.283 . S
O170 Mn144 2.094 . S
O170 C148 1.240 . S
O171 Mn145 2.117 . S
O171 C148 1.264 . S
C172 C165 1.403 . S
C172 C173 1.399 . S
C172 H178 0.929 1_455 S
C173 C153 1.449 . S
C173 C172 1.399 . S
C173 H179 0.914 1_455 S
H174 C154 0.931 . S
H175 C155 0.930 . S
H176 C163 0.931 . S
H177 C164 0.929 . S
H178 C172 0.929 1_655 S
H179 C173 0.914 1_655 S
Mn180 O185 2.095 . S
Mn180 O195 2.162 . S
Mn180 O196 2.297 . S
Mn180 O204 2.385 1_554 S
Mn180 O205 2.209 1_554 S
Mn180 O206 2.094 . S
Mn181 O186 2.121 . S
Mn181 N188 2.257 1_554 S
Mn181 N197 2.282 1_554 S
Mn181 O205 2.215 1_554 S
Mn181 O207 2.117 . S
C182 O204 1.234 . S
C182 O205 1.283 . S
C183 O195 1.281 . S
C183 O196 1.236 . S
C184 O206 1.240 . S
C184 O207 1.264 . S
O185 Mn180 2.095 . S
O185 C194 1.250 . S
O186 Mn181 2.121 . S
O186 C194 1.258 . S
C187 N188 1.326 1_554 S
C187 C191 1.466 . S
C187 H193 0.929 . S
N188 Mn181 2.257 1_556 S
N188 C187 1.326 1_556 S
N188 C192 1.362 . S
C189 C190 1.258 . S
C189 C192 1.431 . S
C189 C209 1.449 . S
C190 C189 1.258 . S
C190 C191 1.459 1_556 S
C190 H210 0.931 . S
C191 C187 1.466 . S
C191 C190 1.459 1_554 S
C191 H211 0.942 . S
C192 N188 1.362 . S
C192 C189 1.431 . S
C192 C202 1.476 . S
H193 C187 0.929 . S
C194 O185 1.250 . S
C194 O186 1.258 . S
O195 Mn180 2.162 . S
O195 C183 1.281 . S
O196 Mn180 2.297 . S
O196 C183 1.236 . S
N197 Mn181 2.282 1_556 S
N197 C198 1.328 . S
N197 C202 1.318 . S
C198 N197 1.328 . S
C198 C199 1.457 . S
C198 H203 0.929 . S
C199 C198 1.457 . S
C199 C200 1.291 . S
C199 H212 0.931 . S
C200 C199 1.291 . S
C200 C201 1.373 . S
C200 H213 0.929 . S
C201 C200 1.373 . S
C201 C202 1.396 . S
C201 C208 1.403 . S
C202 C192 1.476 . S
C202 N197 1.318 . S
C202 C201 1.396 . S
H203 C198 0.929 . S
O204 Mn180 2.385 1_556 S
O204 C182 1.234 . S
O205 Mn180 2.209 1_556 S
O205 Mn181 2.215 1_556 S
O205 C182 1.283 . S
O206 Mn180 2.094 . S
O206 C184 1.240 . S
O207 Mn181 2.117 . S
O207 C184 1.264 . S
C208 C201 1.403 . S
C208 C209 1.399 . S
C208 H214 0.929 . S
C209 C189 1.449 . S
C209 C208 1.399 . S
C209 H215 0.930 . S
H210 C190 0.931 . S
H211 C191 0.942 . S
H212 C199 0.931 . S
H213 C200 0.929 . S
H214 C208 0.929 . S
H215 C209 0.930 . S
Mn216 O221 2.095 . S
Mn216 O231 2.162 . S
Mn216 O232 2.297 . S
Mn216 O240 2.385 . S
Mn216 O241 2.209 . S
Mn216 O242 2.094 . S
Mn217 O222 2.121 . S
Mn217 N224 2.257 . S
Mn217 N233 2.282 . S
Mn217 O241 2.215 . S
Mn217 O243 2.117 . S
C218 O240 1.234 . S
C218 O241 1.283 . S
C219 O231 1.281 . S
C219 O232 1.236 . S
C220 O242 1.240 . S
C220 O243 1.264 . S
O221 Mn216 2.095 . S
O221 C230 1.250 . S
O222 Mn217 2.121 . S
O222 C230 1.258 . S
C223 N224 1.326 . S
C223 C227 1.460 . S
C223 H229 0.929 . S
N224 Mn217 2.257 . S
N224 C223 1.326 . S
N224 C228 1.362 . S
C225 C226 1.258 . S
C225 C228 1.431 . S
C225 C245 1.449 . S
C226 C225 1.258 . S
C226 C227 1.477 . S
C226 H246 0.931 . S
C227 C223 1.460 . S
C227 C226 1.477 . S
C227 H247 0.930 . S
C228 N224 1.362 . S
C228 C225 1.431 . S
C228 C238 1.476 . S
H229 C223 0.929 . S
C230 O221 1.250 . S
C230 O222 1.258 . S
O231 Mn216 2.162 . S
O231 C219 1.281 . S
O232 Mn216 2.297 . S
O232 C219 1.236 . S
N233 Mn217 2.282 . S
N233 C234 1.328 . S
N233 C238 1.318 . S
C234 N233 1.328 . S
C234 C235 1.457 . S
C234 H239 0.929 . S
C235 C234 1.457 . S
C235 C236 1.291 . S
C235 H248 0.931 . S
C236 C235 1.291 . S
C236 C237 1.373 . S
C236 H249 0.929 . S
C237 C236 1.373 . S
C237 C238 1.396 . S
C237 C244 1.403 . S
C238 C228 1.476 . S
C238 N233 1.318 . S
C238 C237 1.396 . S
H239 C234 0.929 . S
O240 Mn216 2.385 . S
O240 C218 1.234 . S
O241 Mn216 2.209 . S
O241 Mn217 2.215 . S
O241 C218 1.283 . S
O242 Mn216 2.094 . S
O242 C220 1.240 . S
O243 Mn217 2.117 . S
O243 C220 1.264 . S
C244 C237 1.403 . S
C244 C245 1.399 . S
C244 H250 0.929 1_655 S
C245 C225 1.449 . S
C245 C244 1.399 . S
C245 H251 0.914 1_655 S
H246 C226 0.931 . S
H247 C227 0.930 . S
H248 C235 0.931 . S
H249 C236 0.929 . S
H250 C244 0.929 1_455 S
H251 C245 0.914 1_455 S
Mn252 O257 2.095 . S
Mn252 O267 2.162 . S
Mn252 O268 2.297 . S
Mn252 O276 2.385 1_554 S
Mn252 O277 2.209 1_554 S
Mn252 O278 2.094 . S
Mn253 O258 2.121 . S
Mn253 N260 2.257 1_554 S
Mn253 N269 2.282 1_554 S
Mn253 O277 2.215 1_554 S
Mn253 O279 2.117 . S
C254 O276 1.234 . S
C254 O277 1.283 . S
C255 O267 1.281 . S
C255 O268 1.236 . S
C256 O278 1.240 . S
C256 O279 1.264 . S
O257 Mn252 2.095 . S
O257 C266 1.250 . S
O258 Mn253 2.121 . S
O258 C266 1.258 . S
C259 N260 1.326 1_554 S
C259 C263 1.466 . S
C259 H265 0.929 . S
N260 Mn253 2.257 1_556 S
N260 C259 1.326 1_556 S
N260 C264 1.362 . S
C261 C262 1.258 . S
C261 C264 1.431 . S
C261 C281 1.449 . S
C262 C261 1.258 . S
C262 C263 1.459 1_556 S
C262 H282 0.931 . S
C263 C259 1.466 . S
C263 C262 1.459 1_554 S
C263 H283 0.942 . S
C264 N260 1.362 . S
C264 C261 1.431 . S
C264 C274 1.476 . S
H265 C259 0.929 . S
C266 O257 1.250 . S
C266 O258 1.258 . S
O267 Mn252 2.162 . S
O267 C255 1.281 . S
O268 Mn252 2.297 . S
O268 C255 1.236 . S
N269 Mn253 2.282 1_556 S
N269 C270 1.328 . S
N269 C274 1.318 . S
C270 N269 1.328 . S
C270 C271 1.457 . S
C270 H275 0.929 . S
C271 C270 1.457 . S
C271 C272 1.291 . S
C271 H284 0.931 . S
C272 C271 1.291 . S
C272 C273 1.373 . S
C272 H285 0.929 . S
C273 C272 1.373 . S
C273 C274 1.396 . S
C273 C280 1.403 . S
C274 C264 1.476 . S
C274 N269 1.318 . S
C274 C273 1.396 . S
H275 C270 0.929 . S
O276 Mn252 2.385 1_556 S
O276 C254 1.234 . S
O277 Mn252 2.209 1_556 S
O277 Mn253 2.215 1_556 S
O277 C254 1.283 . S
O278 Mn252 2.094 . S
O278 C256 1.240 . S
O279 Mn253 2.117 . S
O279 C256 1.264 . S
C280 C273 1.403 . S
C280 C281 1.399 . S
C280 H286 0.929 . S
C281 C261 1.449 . S
C281 C280 1.399 . S
C281 H287 0.930 . S
H282 C262 0.931 . S
H283 C263 0.942 . S
H284 C271 0.931 . S
H285 C272 0.929 . S
H286 C280 0.929 . S
H287 C281 0.930 . S
H288 C294 0.930 . S
H289 C298 0.930 . S
H290 C303 0.929 . S
H291 C301 0.929 . S
H292 C296 0.929 . S
H293 C302 0.929 . S
C294 H288 0.930 . S
C294 C295 1.367 . S
C294 C302 1.378 . S
C295 C294 1.367 . S
C295 C303 1.433 . S
C296 H292 0.929 . S
C296 C298 1.378 . S
C296 C300 1.350 . S
C297 C300 1.463 . S
C297 C302 1.350 . S
C297 N305 1.427 . S
C298 H289 0.930 . S
C298 C296 1.378 . S
C298 C299 1.367 . S
C299 C298 1.367 . S
C299 C301 1.433 . S
C300 C296 1.350 . S
C300 C297 1.463 . S
C300 N304 1.427 . S
C301 H291 0.929 . S
C301 C299 1.433 . S
C301 N304 1.384 . S
C302 H293 0.929 . S
C302 C294 1.378 . S
C302 C297 1.350 . S
C303 H290 0.929 . S
C303 C295 1.433 . S
C303 N305 1.384 . S
N304 C300 1.427 . S
N304 C301 1.384 . S
N305 C297 1.427 . S
N305 C303 1.384 . S
H306 C312 0.930 . S
H307 C316 0.930 . S
H308 C321 0.929 . S
H309 C319 0.929 . S
H310 C314 0.929 . S
H311 C320 0.929 . S
C312 H306 0.930 . S
C312 C313 1.367 . S
C312 C320 1.378 . S
C313 C312 1.367 . S
C313 C321 1.433 . S
C314 H310 0.929 . S
C314 C316 1.378 . S
C314 C318 1.350 . S
C315 C318 1.463 . S
C315 C320 1.350 . S
C315 N323 1.427 . S
C316 H307 0.930 . S
C316 C314 1.378 . S
C316 C317 1.367 . S
C317 C316 1.367 . S
C317 C319 1.433 . S
C318 C314 1.350 . S
C318 C315 1.463 . S
C318 N322 1.427 . S
C319 H309 0.929 . S
C319 C317 1.433 . S
C319 N322 1.384 . S
C320 H311 0.929 . S
C320 C312 1.378 . S
C320 C315 1.350 . S
C321 H308 0.929 . S
C321 C313 1.433 . S
C321 N323 1.384 . S
N322 C318 1.427 . S
N322 C319 1.384 . S
N323 C315 1.427 . S
N323 C321 1.384 . S
H324 C330 0.930 . S
H325 C334 0.930 . S
H326 C339 0.929 . S
H327 C337 0.929 . S
H328 C332 0.929 . S
H329 C338 0.929 . S
C330 H324 0.930 . S
C330 C331 1.367 . S
C330 C338 1.378 . S
C331 C330 1.367 . S
C331 C339 1.433 . S
C332 H328 0.929 . S
C332 C334 1.378 . S
C332 C336 1.350 . S
C333 C336 1.463 . S
C333 C338 1.350 . S
C333 N341 1.427 . S
C334 H325 0.930 . S
C334 C332 1.378 . S
C334 C335 1.367 . S
C335 C334 1.367 . S
C335 C337 1.433 . S
C336 C332 1.350 . S
C336 C333 1.463 . S
C336 N340 1.427 . S
C337 H327 0.929 . S
C337 C335 1.433 . S
C337 N340 1.384 . S
C338 H329 0.929 . S
C338 C330 1.378 . S
C338 C333 1.350 . S
C339 H326 0.929 . S
C339 C331 1.433 . S
C339 N341 1.384 . S
N340 C336 1.427 . S
N340 C337 1.384 . S
N341 C333 1.427 . S
N341 C339 1.384 . S
H342 C348 0.930 . S
H343 C352 0.930 . S
H344 C357 0.929 . S
H345 C355 0.929 . S
H346 C350 0.929 . S
H347 C356 0.929 . S
C348 H342 0.930 . S
C348 C349 1.367 . S
C348 C356 1.378 . S
C349 C348 1.367 . S
C349 C357 1.433 . S
C350 H346 0.929 . S
C350 C352 1.378 . S
C350 C354 1.350 . S
C351 C354 1.463 . S
C351 C356 1.350 . S
C351 N359 1.427 . S
C352 H343 0.930 . S
C352 C350 1.378 . S
C352 C353 1.367 . S
C353 C352 1.367 . S
C353 C355 1.433 . S
C354 C350 1.350 . S
C354 C351 1.463 . S
C354 N358 1.427 . S
C355 H345 0.929 . S
C355 C353 1.433 . S
C355 N358 1.384 . S
C356 H347 0.929 . S
C356 C348 1.378 . S
C356 C351 1.350 . S
C357 H344 0.929 . S
C357 C349 1.433 . S
C357 N359 1.384 . S
N358 C354 1.427 . S
N358 C355 1.384 . S
N359 C351 1.427 . S
N359 C357 1.384 . S
H360 C366 0.930 . S
H361 C370 0.930 . S
H362 C375 0.929 . S
H363 C373 0.929 . S
H364 C368 0.929 . S
H365 C374 0.929 . S
C366 H360 0.930 . S
C366 C367 1.367 . S
C366 C374 1.378 . S
C367 C366 1.367 . S
C367 C375 1.433 . S
C368 H364 0.929 . S
C368 C370 1.378 . S
C368 C372 1.350 . S
C369 C372 1.463 . S
C369 C374 1.350 . S
C369 N377 1.427 . S
C370 H361 0.930 . S
C370 C368 1.378 . S
C370 C371 1.367 . S
C371 C370 1.367 . S
C371 C373 1.433 . S
C372 C368 1.350 . S
C372 C369 1.463 . S
C372 N376 1.427 . S
C373 H363 0.929 . S
C373 C371 1.433 . S
C373 N376 1.384 . S
C374 H365 0.929 . S
C374 C366 1.378 . S
C374 C369 1.350 . S
C375 H362 0.929 . S
C375 C367 1.433 . S
C375 N377 1.384 . S
N376 C372 1.427 . S
N376 C373 1.384 . S
N377 C369 1.427 . S
N377 C375 1.384 . S
H378 C384 0.930 . S
H379 C388 0.930 . S
H380 C393 0.929 . S
H381 C391 0.929 . S
H382 C386 0.929 . S
H383 C392 0.929 . S
C384 H378 0.930 . S
C384 C385 1.367 . S
C384 C392 1.378 . S
C385 C384 1.367 . S
C385 C393 1.433 . S
C386 H382 0.929 . S
C386 C388 1.378 . S
C386 C390 1.350 . S
C387 C390 1.463 . S
C387 C392 1.350 . S
C387 N395 1.427 . S
C388 H379 0.930 . S
C388 C386 1.378 . S
C388 C389 1.367 . S
C389 C388 1.367 . S
C389 C391 1.433 . S
C390 C386 1.350 . S
C390 C387 1.463 . S
C390 N394 1.427 . S
C391 H381 0.929 . S
C391 C389 1.433 . S
C391 N394 1.384 . S
C392 H383 0.929 . S
C392 C384 1.378 . S
C392 C387 1.350 . S
C393 H380 0.929 . S
C393 C385 1.433 . S
C393 N395 1.384 . S
N394 C390 1.427 . S
N394 C391 1.384 . S
N395 C387 1.427 . S
N395 C393 1.384 . S
H396 C402 0.930 . S
H397 C406 0.930 . S
H398 C411 0.929 . S
H399 C409 0.929 . S
H400 C404 0.929 . S
H401 C410 0.929 . S
C402 H396 0.930 . S
C402 C403 1.367 . S
C402 C410 1.378 . S
C403 C402 1.367 . S
C403 C411 1.433 . S
C404 H400 0.929 . S
C404 C406 1.378 . S
C404 C408 1.350 . S
C405 C408 1.463 . S
C405 C410 1.350 . S
C405 N413 1.427 . S
C406 H397 0.930 . S
C406 C404 1.378 . S
C406 C407 1.367 . S
C407 C406 1.367 . S
C407 C409 1.433 . S
C408 C404 1.350 . S
C408 C405 1.463 . S
C408 N412 1.427 . S
C409 H399 0.929 . S
C409 C407 1.433 . S
C409 N412 1.384 . S
C410 H401 0.929 . S
C410 C402 1.378 . S
C410 C405 1.350 . S
C411 H398 0.929 . S
C411 C403 1.433 . S
C411 N413 1.384 . S
N412 C408 1.427 . S
N412 C409 1.384 . S
N413 C405 1.427 . S
N413 C411 1.384 . S
H414 C420 0.930 . S
H415 C424 0.930 . S
H416 C429 0.929 . S
H417 C427 0.929 . S
H418 C422 0.929 . S
H419 C428 0.929 . S
C420 H414 0.930 . S
C420 C421 1.367 . S
C420 C428 1.378 . S
C421 C420 1.367 . S
C421 C429 1.433 . S
C422 H418 0.929 . S
C422 C424 1.378 . S
C422 C426 1.350 . S
C423 C426 1.463 . S
C423 C428 1.350 . S
C423 N431 1.427 . S
C424 H415 0.930 . S
C424 C422 1.378 . S
C424 C425 1.367 . S
C425 C424 1.367 . S
C425 C427 1.433 . S
C426 C422 1.350 . S
C426 C423 1.463 . S
C426 N430 1.427 . S
C427 H417 0.929 . S
C427 C425 1.433 . S
C427 N430 1.384 . S
C428 H419 0.929 . S
C428 C420 1.378 . S
C428 C423 1.350 . S
C429 H416 0.929 . S
C429 C421 1.433 . S
C429 N431 1.384 . S
N430 C426 1.427 . S
N430 C427 1.384 . S
N431 C423 1.427 . S
N431 C429 1.384 . S
H432 C438 0.930 . S
H433 C442 0.930 . S
H434 C447 0.929 . S
H435 C445 0.929 . S
H436 C440 0.929 . S
H437 C446 0.929 . S
C438 H432 0.930 . S
C438 C439 1.367 1_556 S
C438 C446 1.378 . S
C439 C438 1.367 1_554 S
C439 C447 1.433 . S
C440 H436 0.929 . S
C440 C442 1.378 . S
C440 C444 1.350 . S
C441 C444 1.463 1_655 S
C441 C446 1.350 1_554 S
C441 N449 1.427 . S
C442 H433 0.930 . S
C442 C440 1.378 . S
C442 C443 1.367 . S
C443 C442 1.367 . S
C443 C445 1.433 1_554 S
C444 C440 1.350 . S
C444 C441 1.463 1_455 S
C444 N448 1.427 1_554 S
C445 H435 0.929 . S
C445 C443 1.433 1_556 S
C445 N448 1.384 . S
C446 H437 0.929 . S
C446 C438 1.378 . S
C446 C441 1.350 1_556 S
C447 H434 0.929 . S
C447 C439 1.433 . S
C447 N449 1.384 . S
N448 C444 1.427 1_556 S
N448 C445 1.384 . S
N449 C441 1.427 . S
N449 C447 1.384 . S
H450 C456 0.930 . S
H451 C460 0.930 . S
H452 C465 0.929 . S
H453 C463 0.929 . S
H454 C458 0.929 . S
H455 C464 0.929 . S
C456 H450 0.930 . S
C456 C457 1.367 . S
C456 C464 1.378 . S
C457 C456 1.367 . S
C457 C465 1.433 . S
C458 H454 0.929 . S
C458 C460 1.378 . S
C458 C462 1.350 . S
C459 C462 1.463 1_565 S
C459 C464 1.350 . S
C459 N467 1.427 . S
C460 H451 0.930 . S
C460 C458 1.378 . S
C460 C461 1.367 . S
C461 C460 1.367 . S
C461 C463 1.433 . S
C462 C458 1.350 . S
C462 C459 1.463 1_545 S
C462 N466 1.427 . S
C463 H453 0.929 . S
C463 C461 1.433 . S
C463 N466 1.384 . S
C464 H455 0.929 . S
C464 C456 1.378 . S
C464 C459 1.350 . S
C465 H452 0.929 . S
C465 C457 1.433 . S
C465 N467 1.384 . S
N466 C462 1.427 . S
N466 C463 1.384 . S
N467 C459 1.427 . S
N467 C465 1.384 . S
H468 C474 0.930 . S
H469 C478 0.930 . S
H470 C483 0.929 . S
H471 C481 0.929 . S
H472 C476 0.929 . S
H473 C482 0.929 . S
C474 H468 0.930 . S
C474 C475 1.367 . S
C474 C482 1.378 . S
C475 C474 1.367 . S
C475 C483 1.433 . S
C476 H472 0.929 . S
C476 C478 1.378 . S
C476 C480 1.350 . S
C477 C480 1.463 1_455 S
C477 C482 1.350 . S
C477 N485 1.427 . S
C478 H469 0.930 . S
C478 C476 1.378 . S
C478 C479 1.367 . S
C479 C478 1.367 . S
C479 C481 1.433 . S
C480 C476 1.350 . S
C480 C477 1.463 1_655 S
C480 N484 1.427 . S
C481 H471 0.929 . S
C481 C479 1.433 . S
C481 N484 1.384 . S
C482 H473 0.929 . S
C482 C474 1.378 . S
C482 C477 1.350 . S
C483 H470 0.929 . S
C483 C475 1.433 . S
C483 N485 1.384 . S
N484 C480 1.427 . S
N484 C481 1.384 . S
N485 C477 1.427 . S
N485 C483 1.384 . S
H486 C492 0.930 . S
H487 C496 0.930 . S
H488 C501 0.929 . S
H489 C499 0.929 . S
H490 C494 0.929 . S
H491 C500 0.929 . S
C492 H486 0.930 . S
C492 C493 1.367 1_556 S
C492 C500 1.378 . S
C493 C492 1.367 1_554 S
C493 C501 1.433 . S
C494 H490 0.929 . S
C494 C496 1.378 . S
C494 C498 1.350 . S
C495 C498 1.463 1_565 S
C495 C500 1.350 1_554 S
C495 N503 1.427 . S
C496 H487 0.930 . S
C496 C494 1.378 . S
C496 C497 1.367 . S
C497 C496 1.367 . S
C497 C499 1.433 1_554 S
C498 C494 1.350 . S
C498 C495 1.463 1_545 S
C498 N502 1.427 1_554 S
C499 H489 0.929 . S
C499 C497 1.433 1_556 S
C499 N502 1.384 . S
C500 H491 0.929 . S
C500 C492 1.378 . S
C500 C495 1.350 1_556 S
C501 H488 0.929 . S
C501 C493 1.433 . S
C501 N503 1.384 . S
N502 C498 1.427 1_556 S
N502 C499 1.384 . S
N503 C495 1.427 . S
N503 C501 1.384 . S
H504 C510 0.930 . S
H505 C514 0.930 . S
H506 C519 0.929 . S
H507 C517 0.929 . S
H508 C512 0.929 . S
H509 C518 0.929 . S
C510 H504 0.930 . S
C510 C511 1.367 1_556 S
C510 C518 1.378 . S
C511 C510 1.367 1_554 S
C511 C519 1.433 . S
C512 H508 0.929 . S
C512 C514 1.378 . S
C512 C516 1.350 . S
C513 C516 1.463 . S
C513 C518 1.350 1_554 S
C513 N521 1.427 . S
C514 H505 0.930 . S
C514 C512 1.378 . S
C514 C515 1.367 . S
C515 C514 1.367 . S
C515 C517 1.433 1_554 S
C516 C512 1.350 . S
C516 C513 1.463 . S
C516 N520 1.427 1_554 S
C517 H507 0.929 . S
C517 C515 1.433 1_556 S
C517 N520 1.384 . S
C518 H509 0.929 . S
C518 C510 1.378 . S
C518 C513 1.350 1_556 S
C519 H506 0.929 . S
C519 C511 1.433 . S
C519 N521 1.384 . S
N520 C516 1.427 1_556 S
N520 C517 1.384 . S
N521 C513 1.427 . S
N521 C519 1.384 . S
H522 C528 0.930 . S
H523 C532 0.930 . S
H524 C537 0.929 . S
H525 C535 0.929 . S
H526 C530 0.929 . S
H527 C536 0.929 . S
C528 H522 0.930 . S
C528 C529 1.367 . S
C528 C536 1.378 . S
C529 C528 1.367 . S
C529 C537 1.433 . S
C530 H526 0.929 . S
C530 C532 1.378 . S
C530 C534 1.350 . S
C531 C534 1.463 . S
C531 C536 1.350 . S
C531 N539 1.427 . S
C532 H523 0.930 . S
C532 C530 1.378 . S
C532 C533 1.367 . S
C533 C532 1.367 . S
C533 C535 1.433 . S
C534 C530 1.350 . S
C534 C531 1.463 . S
C534 N538 1.427 . S
C535 H525 0.929 . S
C535 C533 1.433 . S
C535 N538 1.384 . S
C536 H527 0.929 . S
C536 C528 1.378 . S
C536 C531 1.350 . S
C537 H524 0.929 . S
C537 C529 1.433 . S
C537 N539 1.384 . S
N538 C534 1.427 . S
N538 C535 1.384 . S
N539 C531 1.427 . S
N539 C537 1.384 . S
H540 C546 0.930 . S
H541 C550 0.930 . S
H542 C555 0.927 1_556 S
H543 C553 0.929 . S
H544 C548 0.934 . S
H545 C554 0.929 . S
C546 H540 0.930 . S
C546 C547 1.367 . S
C546 C554 1.378 . S
C547 C546 1.367 . S
C547 C555 1.436 . S
C548 H544 0.934 . S
C548 C550 1.378 . S
C548 C552 1.345 1_556 S
C549 C552 1.463 . S
C549 C554 1.350 . S
C549 N557 1.428 . S
C550 H541 0.930 . S
C550 C548 1.378 . S
C550 C551 1.367 1_556 S
C551 C550 1.367 1_554 S
C551 C553 1.433 . S
C552 C548 1.345 1_554 S
C552 C549 1.463 . S
C552 N556 1.427 . S
C553 H543 0.929 . S
C553 C551 1.433 . S
C553 N556 1.384 . S
C554 H545 0.929 . S
C554 C546 1.378 . S
C554 C549 1.350 . S
C555 H542 0.927 1_554 S
C555 C547 1.436 . S
C555 N557 1.384 . S
N556 C552 1.427 . S
N556 C553 1.384 . S
N557 C549 1.428 . S
N557 C555 1.384 . S
H558 C564 0.930 . S
H559 C568 0.930 . S
H560 C573 0.929 . S
H561 C571 0.929 . S
H562 C566 0.929 . S
H563 C572 0.929 . S
C564 H558 0.930 . S
C564 C565 1.367 . S
C564 C572 1.378 . S
C565 C564 1.367 . S
C565 C573 1.433 . S
C566 H562 0.929 . S
C566 C568 1.378 . S
C566 C570 1.350 . S
C567 C570 1.463 . S
C567 C572 1.350 . S
C567 N575 1.427 . S
C568 H559 0.930 . S
C568 C566 1.378 . S
C568 C569 1.367 . S
C569 C568 1.367 . S
C569 C571 1.433 . S
C570 C566 1.350 . S
C570 C567 1.463 . S
C570 N574 1.427 . S
C571 H561 0.929 . S
C571 C569 1.433 . S
C571 N574 1.384 . S
C572 H563 0.929 . S
C572 C564 1.378 . S
C572 C567 1.350 . S
C573 H560 0.929 . S
C573 C565 1.433 . S
C573 N575 1.384 . S
N574 C570 1.427 . S
N574 C571 1.384 . S
N575 C567 1.427 . S
N575 C573 1.384 . S
C295 C3 1.037 . S
C299 C147 1.034 . S
C313 C38 1.372 . S
C317 C182 1.366 . S
C331 C219 1.044 . S
C335 C75 1.039 . S
C349 C254 1.366 . S
C353 C110 1.365 . S
C367 C220 1.034 . S
C371 C76 1.038 . S
C385 C266 1.500 . S
C389 C122 1.491 . S
C403 C4 1.034 . S
C407 C148 1.045 . S
C421 C50 1.487 . S
C425 C194 1.494 . S
C439 C74 1.338 . S
C443 C2 1.338 . S
C457 C111 1.352 . S
C461 C39 1.354 . S
C475 C146 1.330 . S
C479 C218 1.331 . S
C493 C255 1.354 . S
C497 C183 1.351 . S
C511 C14 1.251 . S
C515 C184 1.267 . S
C529 C230 1.259 . S
C533 C40 1.262 . S
C547 C86 1.259 . S
C551 C256 1.261 . S
C565 C112 1.264 . S
C569 C158 1.252 . S
