# Generated by pormake.
# Topology unu, (4)-cn, num edge types: 1
# Building blocks:
#     Node 0, Type 0, BuildingBlock: ICAMEG_clean_sbu_1, # of connection points: 4
#     Node 1, Type 0, BuildingBlock: ICAMEG_clean_sbu_1, # of connection points: 4
#     Node 2, Type 0, BuildingBlock: ICAMEG_clean_sbu_1, # of connection points: 4
#     Node 3, Type 0, BuildingBlock: ICAMEG_clean_sbu_1, # of connection points: 4
#     Node 4, Type 0, BuildingBlock: ICAMEG_clean_sbu_1, # of connection points: 4
#     Node 5, Type 0, BuildingBlock: ICAMEG_clean_sbu_1, # of connection points: 4
#     Node 6, Type 0, BuildingBlock: ICAMEG_clean_sbu_1, # of connection points: 4
#     Node 7, Type 0, BuildingBlock: ICAMEG_clean_sbu_1, # of connection points: 4
#     Node 8, Type 0, BuildingBlock: ICAMEG_clean_sbu_1, # of connection points: 4
#     Node 9, Type 0, BuildingBlock: ICAMEG_clean_sbu_1, # of connection points: 4
#     Node 10, Type 0, BuildingBlock: ICAMEG_clean_sbu_1, # of connection points: 4
#     Node 11, Type 0, BuildingBlock: ICAMEG_clean_sbu_1, # of connection points: 4
#     Node 12, Type 0, BuildingBlock: ICAMEG_clean_sbu_1, # of connection points: 4
#     Node 13, Type 0, BuildingBlock: ICAMEG_clean_sbu_1, # of connection points: 4
#     Node 14, Type 0, BuildingBlock: ICAMEG_clean_sbu_1, # of connection points: 4
#     Node 15, Type 0, BuildingBlock: ICAMEG_clean_sbu_1, # of connection points: 4
#     Node 16, Type 0, BuildingBlock: ICAMEG_clean_sbu_1, # of connection points: 4
#     Node 17, Type 0, BuildingBlock: ICAMEG_clean_sbu_1, # of connection points: 4
#     Node 18, Type 0, BuildingBlock: ICAMEG_clean_sbu_1, # of connection points: 4
#     Node 19, Type 0, BuildingBlock: ICAMEG_clean_sbu_1, # of connection points: 4
#     Node 20, Type 0, BuildingBlock: ICAMEG_clean_sbu_1, # of connection points: 4
#     Node 21, Type 0, BuildingBlock: ICAMEG_clean_sbu_1, # of connection points: 4
#     Node 22, Type 0, BuildingBlock: ICAMEG_clean_sbu_1, # of connection points: 4
#     Node 23, Type 0, BuildingBlock: ICAMEG_clean_sbu_1, # of connection points: 4
#     Node 24, Type 0, BuildingBlock: ICAMEG_clean_sbu_1, # of connection points: 4
#     Node 25, Type 0, BuildingBlock: ICAMEG_clean_sbu_1, # of connection points: 4
#     Node 26, Type 0, BuildingBlock: ICAMEG_clean_sbu_1, # of connection points: 4
#     Node 27, Type 0, BuildingBlock: ICAMEG_clean_sbu_1, # of connection points: 4
#     Node 28, Type 0, BuildingBlock: ICAMEG_clean_sbu_1, # of connection points: 4
#     Node 29, Type 0, BuildingBlock: ICAMEG_clean_sbu_1, # of connection points: 4
#     Node 30, Type 0, BuildingBlock: ICAMEG_clean_sbu_1, # of connection points: 4
#     Node 31, Type 0, BuildingBlock: ICAMEG_clean_sbu_1, # of connection points: 4
#     Node 32, Type 0, BuildingBlock: ICAMEG_clean_sbu_1, # of connection points: 4
#     Node 33, Type 0, BuildingBlock: ICAMEG_clean_sbu_1, # of connection points: 4
#     Node 34, Type 0, BuildingBlock: ICAMEG_clean_sbu_1, # of connection points: 4
#     Node 35, Type 0, BuildingBlock: ICAMEG_clean_sbu_1, # of connection points: 4
#     Edge 36, Type (0, 0), BuildingBlock: AJUNOK_clean_linker_0, # of connection points: 2
#     Edge 37, Type (0, 0), BuildingBlock: AJUNOK_clean_linker_0, # of connection points: 2
#     Edge 38, Type (0, 0), BuildingBlock: AJUNOK_clean_linker_0, # of connection points: 2
#     Edge 39, Type (0, 0), BuildingBlock: AJUNOK_clean_linker_0, # of connection points: 2
#     Edge 40, Type (0, 0), BuildingBlock: AJUNOK_clean_linker_0, # of connection points: 2
#     Edge 41, Type (0, 0), BuildingBlock: AJUNOK_clean_linker_0, # of connection points: 2
#     Edge 42, Type (0, 0), BuildingBlock: AJUNOK_clean_linker_0, # of connection points: 2
#     Edge 43, Type (0, 0), BuildingBlock: AJUNOK_clean_linker_0, # of connection points: 2
#     Edge 44, Type (0, 0), BuildingBlock: AJUNOK_clean_linker_0, # of connection points: 2
#     Edge 45, Type (0, 0), BuildingBlock: AJUNOK_clean_linker_0, # of connection points: 2
#     Edge 46, Type (0, 0), BuildingBlock: AJUNOK_clean_linker_0, # of connection points: 2
#     Edge 47, Type (0, 0), BuildingBlock: AJUNOK_clean_linker_0, # of connection points: 2
#     Edge 48, Type (0, 0), BuildingBlock: AJUNOK_clean_linker_0, # of connection points: 2
#     Edge 49, Type (0, 0), BuildingBlock: AJUNOK_clean_linker_0, # of connection points: 2
#     Edge 50, Type (0, 0), BuildingBlock: AJUNOK_clean_linker_0, # of connection points: 2
#     Edge 51, Type (0, 0), BuildingBlock: AJUNOK_clean_linker_0, # of connection points: 2
#     Edge 52, Type (0, 0), BuildingBlock: AJUNOK_clean_linker_0, # of connection points: 2
#     Edge 53, Type (0, 0), BuildingBlock: AJUNOK_clean_linker_0, # of connection points: 2
#     Edge 54, Type (0, 0), BuildingBlock: AJUNOK_clean_linker_0, # of connection points: 2
#     Edge 55, Type (0, 0), BuildingBlock: AJUNOK_clean_linker_0, # of connection points: 2
#     Edge 56, Type (0, 0), BuildingBlock: AJUNOK_clean_linker_0, # of connection points: 2
#     Edge 57, Type (0, 0), BuildingBlock: AJUNOK_clean_linker_0, # of connection points: 2
#     Edge 58, Type (0, 0), BuildingBlock: AJUNOK_clean_linker_0, # of connection points: 2
#     Edge 59, Type (0, 0), BuildingBlock: AJUNOK_clean_linker_0, # of connection points: 2
#     Edge 60, Type (0, 0), BuildingBlock: AJUNOK_clean_linker_0, # of connection points: 2
#     Edge 61, Type (0, 0), BuildingBlock: AJUNOK_clean_linker_0, # of connection points: 2
#     Edge 62, Type (0, 0), BuildingBlock: AJUNOK_clean_linker_0, # of connection points: 2
#     Edge 63, Type (0, 0), BuildingBlock: AJUNOK_clean_linker_0, # of connection points: 2
#     Edge 64, Type (0, 0), BuildingBlock: AJUNOK_clean_linker_0, # of connection points: 2
#     Edge 65, Type (0, 0), BuildingBlock: AJUNOK_clean_linker_0, # of connection points: 2
#     Edge 66, Type (0, 0), BuildingBlock: AJUNOK_clean_linker_0, # of connection points: 2
#     Edge 67, Type (0, 0), BuildingBlock: AJUNOK_clean_linker_0, # of connection points: 2
#     Edge 68, Type (0, 0), BuildingBlock: AJUNOK_clean_linker_0, # of connection points: 2
#     Edge 69, Type (0, 0), BuildingBlock: AJUNOK_clean_linker_0, # of connection points: 2
#     Edge 70, Type (0, 0), BuildingBlock: AJUNOK_clean_linker_0, # of connection points: 2
#     Edge 71, Type (0, 0), BuildingBlock: AJUNOK_clean_linker_0, # of connection points: 2
#     Edge 72, Type (0, 0), BuildingBlock: AJUNOK_clean_linker_0, # of connection points: 2
#     Edge 73, Type (0, 0), BuildingBlock: AJUNOK_clean_linker_0, # of connection points: 2
#     Edge 74, Type (0, 0), BuildingBlock: AJUNOK_clean_linker_0, # of connection points: 2
#     Edge 75, Type (0, 0), BuildingBlock: AJUNOK_clean_linker_0, # of connection points: 2
#     Edge 76, Type (0, 0), BuildingBlock: AJUNOK_clean_linker_0, # of connection points: 2
#     Edge 77, Type (0, 0), BuildingBlock: AJUNOK_clean_linker_0, # of connection points: 2
#     Edge 78, Type (0, 0), BuildingBlock: AJUNOK_clean_linker_0, # of connection points: 2
#     Edge 79, Type (0, 0), BuildingBlock: AJUNOK_clean_linker_0, # of connection points: 2
#     Edge 80, Type (0, 0), BuildingBlock: AJUNOK_clean_linker_0, # of connection points: 2
#     Edge 81, Type (0, 0), BuildingBlock: AJUNOK_clean_linker_0, # of connection points: 2
#     Edge 82, Type (0, 0), BuildingBlock: AJUNOK_clean_linker_0, # of connection points: 2
#     Edge 83, Type (0, 0), BuildingBlock: AJUNOK_clean_linker_0, # of connection points: 2
#     Edge 84, Type (0, 0), BuildingBlock: AJUNOK_clean_linker_0, # of connection points: 2
#     Edge 85, Type (0, 0), BuildingBlock: AJUNOK_clean_linker_0, # of connection points: 2
#     Edge 86, Type (0, 0), BuildingBlock: AJUNOK_clean_linker_0, # of connection points: 2
#     Edge 87, Type (0, 0), BuildingBlock: AJUNOK_clean_linker_0, # of connection points: 2
#     Edge 88, Type (0, 0), BuildingBlock: AJUNOK_clean_linker_0, # of connection points: 2
#     Edge 89, Type (0, 0), BuildingBlock: AJUNOK_clean_linker_0, # of connection points: 2
#     Edge 90, Type (0, 0), BuildingBlock: AJUNOK_clean_linker_0, # of connection points: 2
#     Edge 91, Type (0, 0), BuildingBlock: AJUNOK_clean_linker_0, # of connection points: 2
#     Edge 92, Type (0, 0), BuildingBlock: AJUNOK_clean_linker_0, # of connection points: 2
#     Edge 93, Type (0, 0), BuildingBlock: AJUNOK_clean_linker_0, # of connection points: 2
#     Edge 94, Type (0, 0), BuildingBlock: AJUNOK_clean_linker_0, # of connection points: 2
#     Edge 95, Type (0, 0), BuildingBlock: AJUNOK_clean_linker_0, # of connection points: 2
#     Edge 96, Type (0, 0), BuildingBlock: AJUNOK_clean_linker_0, # of connection points: 2
#     Edge 97, Type (0, 0), BuildingBlock: AJUNOK_clean_linker_0, # of connection points: 2
#     Edge 98, Type (0, 0), BuildingBlock: AJUNOK_clean_linker_0, # of connection points: 2
#     Edge 99, Type (0, 0), BuildingBlock: AJUNOK_clean_linker_0, # of connection points: 2
#     Edge 100, Type (0, 0), BuildingBlock: AJUNOK_clean_linker_0, # of connection points: 2
#     Edge 101, Type (0, 0), BuildingBlock: AJUNOK_clean_linker_0, # of connection points: 2
#     Edge 102, Type (0, 0), BuildingBlock: AJUNOK_clean_linker_0, # of connection points: 2
#     Edge 103, Type (0, 0), BuildingBlock: AJUNOK_clean_linker_0, # of connection points: 2
#     Edge 104, Type (0, 0), BuildingBlock: AJUNOK_clean_linker_0, # of connection points: 2
#     Edge 105, Type (0, 0), BuildingBlock: AJUNOK_clean_linker_0, # of connection points: 2
#     Edge 106, Type (0, 0), BuildingBlock: AJUNOK_clean_linker_0, # of connection points: 2
#     Edge 107, Type (0, 0), BuildingBlock: AJUNOK_clean_linker_0, # of connection points: 2
# Relax obj value: 0.067
# Max RMSD: 0.137
# Mean RMSD: 0.137
data_MOF--net-unu--node1-ICAMEG_clean_sbu_1--edge1-AJUNOK_clean_linker_0
_symmetry_space_group_name_H-M    P1
_symmetry_Int_Tables_number       1
_symmetry_cell_setting            triclinic
loop_
_symmetry_equiv_pos_as_xyz
'x, y, z'
_cell_length_a     35.645809
_cell_length_b     35.646476
_cell_length_c     85.713819
_cell_angle_alpha  90.011037
_cell_angle_beta   89.994285
_cell_angle_gamma 120.00353
loop_
_atom_site_label
_atom_site_type_symbol
_atom_site_fract_x
_atom_site_fract_y
_atom_site_fract_z
_atom_type_partial_charge
Co0 Co 0.18199 0.01745 0.14527 0.0
Co1 Co 0.17846 0.01935 0.10489 0.0
O2 O 0.20807 0.02348 0.12462 0.0
C3 C 0.26093 0.10382 0.14795 0.0
O4 O 0.25014 0.11369 0.13456 0.0
C5 C 0.20649 0.95406 0.10113 0.0
O6 O 0.19403 0.94179 0.11555 0.0
O7 O 0.12581 0.9646 0.11163 0.0
O8 O 0.12533 0.96931 0.13773 0.0
H9 H 0.05267 0.99652 0.0716 0.0
H10 H 0.26469 0.01737 0.14221 0.0
O11 O 0.23787 0.06596 0.15357 0.0
H12 H 0.16231 0.87609 0.16557 0.0
H13 H 0.18078 0.01156 0.204 0.0
H14 H 0.09793 0.00448 0.15698 0.0
H15 H 0.13931 0.92922 0.15956 0.0
H16 H 0.21232 0.01856 0.17782 0.0
O17 O 0.20321 0.98507 0.09522 0.0
H18 H 0.09068 0.00236 0.0963 0.0
H19 H 0.20413 0.02822 0.07137 0.0
H20 H 0.06498 0.99697 0.18289 0.0
H21 H 0.28926 0.96538 0.14816 0.0
H22 H 0.1065 1.00046 0.20666 0.0
H23 H 0.23784 0.89409 0.15988 0.0
O24 O 0.1621 0.05922 0.1398 0.0
H25 H 0.33819 0.11998 0.09777 0.0
H26 H 0.19287 0.10265 0.0913 0.0
H27 H 0.25735 0.17189 0.08411 0.0
H28 H 0.33066 0.18088 0.08733 0.0
H29 H 0.27282 0.05138 0.10494 0.0
H30 H 0.16722 0.02225 0.04638 0.0
H31 H 0.09097 0.00643 0.0464 0.0
O32 O 0.15286 0.05309 0.11374 0.0
C33 C 0.10737 0.95131 0.12488 0.0
C34 C 0.08591 0.00347 0.07144 0.0
C35 C 0.15018 0.01786 0.05728 0.0
N36 N 0.14958 0.01559 0.08528 0.0
C37 C 0.10763 0.00687 0.08539 0.0
C38 C 0.17087 0.02105 0.07147 0.0
C39 C 0.1074 0.009 0.0573 0.0
C40 C 0.24224 0.98655 0.14743 0.0
N41 N 0.20059 0.97634 0.15055 0.0
C42 C 0.25629 0.95719 0.15072 0.0
C43 C 0.22741 0.91717 0.15728 0.0
C44 C 0.18501 0.90703 0.16045 0.0
C45 C 0.17209 0.93717 0.15697 0.0
C46 C 0.16233 0.00991 0.19374 0.0
C47 C 0.11615 0.00593 0.16724 0.0
C48 C 0.18006 0.01394 0.17888 0.0
N49 N 0.15685 0.01161 0.16585 0.0
C50 C 0.09735 0.00171 0.1819 0.0
C51 C 0.12066 0.00368 0.19522 0.0
C52 C 0.14984 0.06768 0.12693 0.0
C53 C 0.30641 0.1164 0.09626 0.0
C54 C 0.22465 0.10629 0.09273 0.0
C55 C 0.26105 0.14557 0.08862 0.0
C56 C 0.30217 0.15058 0.09043 0.0
N57 N 0.22909 0.07291 0.09844 0.0
C58 C 0.26929 0.07758 0.10024 0.0
Co59 Co 0.97704 0.15586 0.14585 0.0
Co60 Co 0.98148 0.16006 0.10576 0.0
O61 O 0.97727 0.18347 0.12602 0.0
C62 C 0.89844 0.16352 0.14972 0.0
O63 O 0.88561 0.14493 0.13601 0.0
C64 C 0.04905 0.25329 0.10354 0.0
O65 O 0.06044 0.25135 0.11794 0.0
O66 O 0.03484 0.1596 0.11255 0.0
O67 O 0.01839 0.13857 0.13751 0.0
H68 H 0.00317 0.05969 0.07057 0.0
H69 H 0.99413 0.24614 0.14634 0.0
O70 O 0.93511 0.17177 0.15504 0.0
H71 H 0.12504 0.25311 0.1686 0.0
H72 H 0.97746 0.14472 0.20445 0.0
H73 H 0.97258 0.07319 0.15469 0.0
H74 H 0.06331 0.18327 0.16017 0.0
H75 H 0.97989 0.17983 0.1794 0.0
O76 O 0.01782 0.22008 0.09717 0.0
H77 H 0.99688 0.08914 0.09583 0.0
H78 H 0.97564 0.18212 0.07258 0.0
H79 H 0.9705 0.03705 0.17942 0.0
H80 H 0.05493 0.31663 0.1548 0.0
H81 H 0.97284 0.07282 0.20457 0.0
H82 H 0.12102 0.32041 0.16598 0.0
O83 O 0.92825 0.09939 0.13856 0.0
H84 H 0.88588 0.22527 0.09949 0.0
H85 H 0.89854 0.09535 0.09062 0.0
H86 H 0.83151 0.09461 0.08294 0.0
H87 H 0.82491 0.15995 0.08733 0.0
H88 H 0.95222 0.22447 0.10712 0.0
H89 H 0.98222 0.154 0.04705 0.0
H90 H 0.99591 0.09222 0.04593 0.0
O91 O 0.94518 0.09924 0.1134 0.0
C92 C 0.04067 0.14444 0.12521 0.0
C93 C 0.99715 0.08658 0.07089 0.0
C94 C 0.98542 0.13953 0.0577 0.0
N95 N 0.9858 0.13727 0.08569 0.0
C96 C 0.99348 0.10337 0.08517 0.0
C97 C 0.98186 0.15541 0.07219 0.0
C98 C 0.99309 0.10486 0.05708 0.0
C99 C 0.02263 0.2475 0.15134 0.0
N100 N 0.02511 0.21065 0.15282 0.0
C101 C 0.05701 0.28751 0.15604 0.0
C102 C 0.09412 0.28962 0.16229 0.0
C103 C 0.09641 0.25187 0.16375 0.0
C104 C 0.06142 0.21244 0.15891 0.0
C105 C 0.97644 0.1288 0.19358 0.0
C106 C 0.974 0.08915 0.16555 0.0
C107 C 0.97765 0.14848 0.17935 0.0
N108 N 0.97647 0.12865 0.16556 0.0
C109 C 0.97265 0.06844 0.17954 0.0
C110 C 0.97389 0.08849 0.19364 0.0
C111 C 0.92385 0.07989 0.12562 0.0
C112 C 0.88842 0.19664 0.09747 0.0
C113 C 0.89587 0.12386 0.09262 0.0
C114 C 0.85787 0.12328 0.08821 0.0
C115 C 0.85419 0.15996 0.09067 0.0
N116 N 0.92934 0.16001 0.09924 0.0
C117 C 0.92595 0.19606 0.10172 0.0
Co118 Co 0.83753 0.81878 0.1443 0.0
Co119 Co 0.84195 0.81997 0.10389 0.0
O120 O 0.81636 0.79167 0.12385 0.0
C121 C 0.84232 0.73806 0.14829 0.0
O122 O 0.86395 0.7467 0.13513 0.0
C123 C 0.74975 0.79637 0.10066 0.0
O124 O 0.75162 0.8101 0.115 0.0
O125 O 0.84292 0.87444 0.11028 0.0
O126 O 0.84641 0.87516 0.1364 0.0
H127 H 0.94801 0.94156 0.06974 0.0
H128 H 0.75382 0.73734 0.1412 0.0
O129 O 0.82898 0.76306 0.15316 0.0
H130 H 0.71796 0.84051 0.16579 0.0
H131 H 0.83726 0.82633 0.20305 0.0
H132 H 0.91058 0.90301 0.15473 0.0
H133 H 0.79361 0.86217 0.15957 0.0
H134 H 0.80986 0.79246 0.17736 0.0
O135 O 0.78281 0.79738 0.09455 0.0
H136 H 0.91537 0.90561 0.0947 0.0
H137 H 0.82256 0.79316 0.07053 0.0
H138 H 0.9387 0.93836 0.18014 0.0
H139 H 0.67768 0.71391 0.14741 0.0
H140 H 0.90202 0.89994 0.20455 0.0
H141 H 0.65929 0.76575 0.15972 0.0
O142 O 0.89858 0.83656 0.13854 0.0
H143 H 0.77509 0.65904 0.09728 0.0
H144 H 0.90732 0.80077 0.08998 0.0
H145 H 0.90772 0.73407 0.08264 0.0
H146 H 0.84122 0.66256 0.08625 0.0
H147 H 0.77623 0.72656 0.10458 0.0
H148 H 0.85384 0.82808 0.04529 0.0
H149 H 0.91716 0.90275 0.0448 0.0
O150 O 0.9014 0.84318 0.11247 0.0
C151 C 0.84717 0.89298 0.12344 0.0
C152 C 0.92044 0.909 0.0698 0.0
C153 C 0.86757 0.84533 0.05608 0.0
N154 N 0.8671 0.84732 0.08407 0.0
C155 C 0.90186 0.88844 0.0839 0.0
C156 C 0.84988 0.82578 0.0704 0.0
C157 C 0.9031 0.88722 0.05581 0.0
C158 C 0.74612 0.76005 0.14661 0.0
N159 N 0.77818 0.80136 0.14985 0.0
C160 C 0.70292 0.7466 0.15008 0.0
C161 C 0.69262 0.77572 0.15697 0.0
C162 C 0.7255 0.81768 0.16035 0.0
C163 C 0.76831 0.82997 0.15668 0.0
C164 C 0.85355 0.84339 0.1925 0.0
C165 C 0.89428 0.88611 0.16529 0.0
C166 C 0.8383 0.82424 0.17792 0.0
N167 N 0.85854 0.84566 0.16454 0.0
C168 C 0.91044 0.90629 0.17965 0.0
C169 C 0.88986 0.8847 0.19333 0.0
C170 C 0.91944 0.84696 0.12566 0.0
C171 C 0.80422 0.69001 0.09561 0.0
C172 C 0.87829 0.76977 0.09163 0.0
C173 C 0.87868 0.73212 0.08742 0.0
C174 C 0.84136 0.69201 0.08944 0.0
N175 N 0.84169 0.76755 0.09762 0.0
C176 C 0.80501 0.72835 0.09967 0.0
Co177 Co 0.02613 0.18035 0.35885 0.0
Co178 Co 0.02532 0.18207 0.39908 0.0
O179 O 0.02827 0.20869 0.3787 0.0
C180 C 0.10646 0.26514 0.35435 0.0
O181 O 0.1198 0.25935 0.36795 0.0
C182 C 0.95691 0.20604 0.40138 0.0
O183 O 0.94375 0.18887 0.3875 0.0
O184 O 0.97174 0.12756 0.39289 0.0
O185 O 0.98365 0.12263 0.36743 0.0
H186 H 0.00786 0.06292 0.435 0.0
H187 H 0.0125 0.25572 0.35881 0.0
O188 O 0.06906 0.23735 0.34937 0.0
H189 H 0.87757 0.1345 0.33762 0.0
H190 H 0.02131 0.16632 0.30029 0.0
H191 H 0.0265 0.09998 0.35012 0.0
H192 H 0.93835 0.1238 0.34515 0.0
H193 H 0.02174 0.20065 0.32532 0.0
O194 O 0.98931 0.20617 0.40769 0.0
H195 H 0.01188 0.09685 0.40953 0.0
H196 H 0.03181 0.21152 0.43208 0.0
H197 H 0.02579 0.06439 0.32539 0.0
H198 H 0.95268 0.26798 0.35126 0.0
H199 H 0.02326 0.09762 0.30022 0.0
H200 H 0.88455 0.20704 0.34065 0.0
O201 O 0.07399 0.17064 0.36567 0.0
H202 H 0.12094 0.34327 0.4041 0.0
H203 H 0.10922 0.20135 0.4136 0.0
H204 H 0.17664 0.26815 0.4206 0.0
H205 H 0.18278 0.33976 0.41587 0.0
H206 H 0.0542 0.27563 0.39717 0.0
H207 H 0.02759 0.17867 0.45781 0.0
H208 H 0.01573 0.10391 0.45938 0.0
O209 O 0.06127 0.15729 0.39126 0.0
C210 C 0.96304 0.10675 0.38005 0.0
C211 C 0.01315 0.09556 0.43447 0.0
C212 C 0.02417 0.1605 0.44727 0.0
N213 N 0.02236 0.15622 0.4193 0.0
C214 C 0.01555 0.11499 0.42007 0.0
C215 C 0.02642 0.1789 0.43266 0.0
C216 C 0.01753 0.11856 0.44814 0.0
C217 C 0.98313 0.22918 0.35403 0.0
N218 N 0.97901 0.18918 0.35235 0.0
C219 C 0.94931 0.23627 0.34984 0.0
C220 C 0.91106 0.20204 0.34391 0.0
C221 C 0.90711 0.16132 0.34222 0.0
C222 C 0.9416 0.15543 0.34654 0.0
C223 C 0.02246 0.15155 0.31117 0.0
C224 C 0.0252 0.11459 0.33923 0.0
C225 C 0.0229 0.17096 0.32538 0.0
N226 N 0.02426 0.15247 0.33918 0.0
C227 C 0.02488 0.09429 0.32526 0.0
C228 C 0.02352 0.11298 0.31114 0.0
C229 C 0.08031 0.1572 0.37867 0.0
C230 C 0.11861 0.31226 0.40625 0.0
C231 C 0.11167 0.23239 0.41148 0.0
C232 C 0.14991 0.2701 0.41549 0.0
C233 C 0.15332 0.31027 0.41284 0.0
N234 N 0.07773 0.23461 0.40506 0.0
C235 C 0.08086 0.27387 0.40241 0.0
Co236 Co 0.82117 0.84312 0.35595 0.0
Co237 Co 0.82423 0.84053 0.39615 0.0
O238 O 0.79443 0.81875 0.37616 0.0
C239 C 0.73986 0.84651 0.35366 0.0
O240 O 0.74926 0.86589 0.3673 0.0
C241 C 0.79391 0.74664 0.39788 0.0
O242 O 0.80909 0.74962 0.38371 0.0
O243 O 0.8754 0.83683 0.38876 0.0
O244 O 0.87847 0.8528 0.36333 0.0
H245 H 0.95094 0.93521 0.43061 0.0
H246 H 0.74072 0.75788 0.35749 0.0
O247 O 0.76473 0.83429 0.34775 0.0
H248 H 0.84832 0.72939 0.33226 0.0
H249 H 0.82667 0.84983 0.29723 0.0
H250 H 0.90408 0.91904 0.34593 0.0
H251 H 0.86764 0.80354 0.33997 0.0
H252 H 0.79382 0.81926 0.3228 0.0
O253 O 0.79693 0.77998 0.40453 0.0
H254 H 0.91289 0.90787 0.40558 0.0
H255 H 0.79809 0.81854 0.42946 0.0
H256 H 0.93823 0.95046 0.32063 0.0
H257 H 0.71975 0.68323 0.3498 0.0
H258 H 0.89949 0.91577 0.29604 0.0
H259 H 0.77383 0.66856 0.33717 0.0
O260 O 0.83779 0.90291 0.36303 0.0
H261 H 0.66561 0.787 0.40365 0.0
H262 H 0.81353 0.90953 0.41169 0.0
H263 H 0.75091 0.91646 0.41984 0.0
H264 H 0.6763 0.85489 0.41583 0.0
H265 H 0.72917 0.78157 0.39557 0.0
H266 H 0.83501 0.84475 0.45478 0.0
H267 H 0.91196 0.90358 0.45546 0.0
O268 O 0.85246 0.90132 0.38848 0.0
C269 C 0.89521 0.84751 0.37567 0.0
C270 C 0.91738 0.90962 0.43048 0.0
C271 C 0.85234 0.8588 0.44403 0.0
N272 N 0.85326 0.86173 0.41604 0.0
C273 C 0.89561 0.89405 0.41633 0.0
C274 C 0.83163 0.84401 0.42966 0.0
C275 C 0.8955 0.89183 0.44441 0.0
C276 C 0.76432 0.75182 0.35185 0.0
N277 N 0.80544 0.78508 0.3492 0.0
C278 C 0.75229 0.70946 0.34758 0.0
C279 C 0.78267 0.70124 0.34052 0.0
C280 C 0.82448 0.73535 0.33778 0.0
C281 C 0.83535 0.77728 0.34224 0.0
C282 C 0.84391 0.86518 0.30786 0.0
C283 C 0.88705 0.90364 0.33528 0.0
C284 C 0.82544 0.84806 0.32237 0.0
N285 N 0.84718 0.86709 0.33585 0.0
C286 C 0.90653 0.92165 0.32099 0.0
C287 C 0.88477 0.90218 0.3072 0.0
C288 C 0.85317 0.92138 0.37611 0.0
C289 C 0.69796 0.814 0.40551 0.0
C290 C 0.78117 0.88259 0.40991 0.0
C291 C 0.74583 0.88669 0.41457 0.0
C292 C 0.70398 0.85212 0.41232 0.0
N293 N 0.77499 0.84507 0.40325 0.0
C294 C 0.73407 0.81104 0.40101 0.0
Co295 Co 0.16663 0.98305 0.35828 0.0
Co296 Co 0.15867 0.97602 0.39861 0.0
O297 O 0.18557 0.97471 0.3788 0.0
C298 C 0.15814 0.89653 0.35436 0.0
O299 O 0.13726 0.88555 0.3677 0.0
C300 C 0.25068 0.04359 0.40267 0.0
O301 O 0.24953 0.05638 0.38841 0.0
O302 O 0.15856 0.03018 0.39262 0.0
O303 O 0.15897 0.03109 0.36646 0.0
H304 H 0.05064 0.98976 0.43222 0.0
H305 H 0.24863 0.98189 0.36166 0.0
O306 O 0.1736 0.93499 0.34927 0.0
H307 H 0.29049 0.12475 0.33909 0.0
H308 H 0.1718 0.99356 0.29961 0.0
H309 H 0.09712 0.99916 0.34722 0.0
H310 H 0.21384 0.07187 0.3444 0.0
H311 H 0.19578 0.9838 0.32553 0.0
O312 O 0.21717 0.01146 0.40851 0.0
H313 H 0.08494 0.9881 0.40745 0.0
H314 H 0.17557 0.96597 0.43202 0.0
H315 H 0.07239 0.00952 0.32158 0.0
H316 H 0.32572 0.03357 0.35641 0.0
H317 H 0.10982 0.00673 0.29752 0.0
H318 H 0.3471 0.10568 0.3451 0.0
O319 O 0.10468 0.94104 0.3633 0.0
H320 H 0.22385 0.8803 0.40467 0.0
H321 H 0.09196 0.89063 0.41155 0.0
H322 H 0.09035 0.82254 0.41821 0.0
H323 H 0.15666 0.81709 0.41479 0.0
H324 H 0.22391 0.94768 0.39803 0.0
H325 H 0.14261 0.96797 0.45709 0.0
H326 H 0.07954 0.97974 0.45729 0.0
O327 O 0.09989 0.94086 0.38941 0.0
C328 C 0.15652 0.04645 0.37959 0.0
C329 C 0.07807 0.98456 0.4323 0.0
C330 C 0.12972 0.97237 0.44625 0.0
N331 N 0.13219 0.97689 0.41829 0.0
C332 C 0.09758 0.9835 0.4183 0.0
C333 C 0.14836 0.97144 0.43202 0.0
C334 C 0.09432 0.97896 0.44635 0.0
C335 C 0.25766 0.0131 0.35665 0.0
N336 N 0.22675 0.02395 0.35341 0.0
C337 C 0.30137 0.04227 0.35374 0.0
C338 C 0.31335 0.08274 0.34741 0.0
C339 C 0.28162 0.09349 0.34406 0.0
C340 C 0.23824 0.06352 0.34716 0.0
C341 C 0.15529 0.99492 0.31001 0.0
C342 C 0.11378 0.99817 0.33683 0.0
C343 C 0.16865 0.98931 0.32471 0.0
N344 N 0.14809 0.99124 0.3379 0.0
C345 C 0.09953 0.00393 0.32233 0.0
C346 C 0.12051 0.00232 0.30884 0.0
C347 C 0.08284 0.92894 0.37595 0.0
C348 C 0.19479 0.88232 0.40625 0.0
C349 C 0.12092 0.88849 0.41 0.0
C350 C 0.11983 0.84987 0.41382 0.0
C351 C 0.15706 0.84684 0.41191 0.0
N352 N 0.15807 0.92316 0.40448 0.0
C353 C 0.19468 0.92043 0.40256 0.0
Co354 Co 0.8248 0.97872 0.85688 0.0
Co355 Co 0.82141 0.97976 0.89707 0.0
O356 O 0.79493 0.97493 0.87654 0.0
C357 C 0.7418 0.89632 0.85217 0.0
O358 O 0.7481 0.88333 0.86576 0.0
C359 C 0.79407 0.04552 0.89925 0.0
O360 O 0.81204 0.05971 0.88554 0.0
O361 O 0.87412 0.03499 0.89097 0.0
O362 O 0.88138 0.02372 0.86571 0.0
H363 H 0.94187 0.00501 0.93377 0.0
H364 H 0.74654 0.98762 0.85662 0.0
O365 O 0.76898 0.93389 0.84716 0.0
H366 H 0.86348 0.12521 0.83534 0.0
H367 H 0.84129 0.98506 0.7984 0.0
H368 H 0.90793 0.98357 0.84864 0.0
H369 H 0.87788 0.0669 0.84299 0.0
H370 H 0.80459 0.98139 0.82322 0.0
O371 O 0.79394 0.01293 0.90537 0.0
H372 H 0.90791 0.99793 0.90809 0.0
H373 H 0.79034 0.97209 0.92988 0.0
H374 H 0.94596 0.98771 0.82412 0.0
H375 H 0.73063 0.04496 0.849 0.0
H376 H 0.9126 0.98843 0.79876 0.0
H377 H 0.7894 0.11441 0.83833 0.0
O378 O 0.83763 0.93285 0.86392 0.0
H379 H 0.66141 0.87656 0.90157 0.0
H380 H 0.80692 0.8976 0.91168 0.0
H381 H 0.74238 0.82801 0.91854 0.0
H382 H 0.66898 0.81719 0.91351 0.0
H383 H 0.72687 0.94554 0.89479 0.0
H384 H 0.82317 0.97924 0.95583 0.0
H385 H 0.89944 0.99572 0.95789 0.0
O386 O 0.84999 0.94739 0.88954 0.0
C387 C 0.89616 0.04477 0.87837 0.0
C388 C 0.90857 0.99769 0.93303 0.0
C389 C 0.84198 0.98334 0.94541 0.0
N390 N 0.84714 0.98448 0.91746 0.0
C391 C 0.8891 0.9935 0.91851 0.0
C392 C 0.82361 0.97945 0.93068 0.0
C393 C 0.88477 0.99255 0.94656 0.0
C394 C 0.77217 0.01759 0.85183 0.0
N395 N 0.81303 0.02382 0.85019 0.0
C396 C 0.76301 0.04999 0.84759 0.0
C397 C 0.79601 0.08898 0.84163 0.0
C398 C 0.8376 0.09508 0.83997 0.0
C399 C 0.84558 0.06198 0.84435 0.0
C400 C 0.85615 0.98475 0.80938 0.0
C401 C 0.89324 0.98401 0.83766 0.0
C402 C 0.83542 0.9825 0.82346 0.0
N403 N 0.85407 0.9823 0.83737 0.0
C404 C 0.91492 0.9863 0.82381 0.0
C405 C 0.89617 0.98667 0.80958 0.0
C406 C 0.85168 0.92871 0.87713 0.0
C407 C 0.69322 0.88093 0.90387 0.0
C408 C 0.77508 0.8931 0.90943 0.0
C409 C 0.73866 0.85365 0.91336 0.0
C410 C 0.69749 0.84761 0.91055 0.0
N411 N 0.77061 0.92565 0.90293 0.0
C412 C 0.73037 0.91996 0.9001 0.0
Co413 Co 0.02546 0.84578 0.85867 0.0
Co414 Co 0.02715 0.84237 0.89893 0.0
O415 O 0.02877 0.81922 0.87827 0.0
C416 C 0.10626 0.8426 0.85359 0.0
O417 O 0.11956 0.86105 0.8673 0.0
C418 C 0.95866 0.74962 0.90126 0.0
O419 O 0.94598 0.75241 0.88714 0.0
O420 O 0.97349 0.84394 0.8934 0.0
O421 O 0.98243 0.85942 0.86776 0.0
H422 H 0.01144 0.94242 0.9363 0.0
H423 H 0.01354 0.75743 0.8579 0.0
O424 O 0.06881 0.83308 0.8487 0.0
H425 H 0.87708 0.74195 0.83756 0.0
H426 H 0.01841 0.85696 0.80025 0.0
H427 H 0.02388 0.92594 0.85072 0.0
H428 H 0.93705 0.81356 0.84543 0.0
H429 H 0.02043 0.8225 0.82494 0.0
O430 O 0.9911 0.78218 0.90742 0.0
H431 H 0.01413 0.9136 0.91044 0.0
H432 H 0.03662 0.81887 0.93153 0.0
H433 H 0.02155 0.96135 0.82634 0.0
H434 H 0.95455 0.68524 0.85001 0.0
H435 H 0.01886 0.92687 0.80085 0.0
H436 H 0.88568 0.67717 0.8398 0.0
O437 O 0.07289 0.90356 0.86554 0.0
H438 H 0.12174 0.77526 0.90213 0.0
H439 H 0.11228 0.90618 0.91291 0.0
H440 H 0.17977 0.90594 0.91901 0.0
H441 H 0.18477 0.8401 0.91364 0.0
H442 H 0.05495 0.77703 0.89609 0.0
H443 H 0.03367 0.84629 0.95765 0.0
H444 H 0.02118 0.90863 0.96016 0.0
O445 O 0.06292 0.90327 0.89136 0.0
C446 C 0.96304 0.85491 0.88066 0.0
C447 C 0.01695 0.91527 0.93537 0.0
C448 C 0.02941 0.86131 0.94735 0.0
N449 N 0.0256 0.86466 0.91945 0.0
C450 C 0.01857 0.89886 0.92074 0.0
C451 C 0.03091 0.84584 0.93252 0.0
C452 C 0.0224 0.89629 0.94874 0.0
C453 C 0.98382 0.75421 0.85332 0.0
N454 N 0.97883 0.78967 0.85205 0.0
C455 C 0.95047 0.71324 0.84893 0.0
C456 C 0.91181 0.70873 0.84323 0.0
C457 C 0.90695 0.74506 0.84198 0.0
C458 C 0.94098 0.78551 0.84649 0.0
C459 C 0.01962 0.87232 0.81128 0.0
C460 C 0.02253 0.91059 0.83969 0.0
C461 C 0.02096 0.85303 0.82529 0.0
N462 N 0.02239 0.87218 0.83926 0.0
C463 C 0.02129 0.93087 0.82591 0.0
C464 C 0.01984 0.91153 0.81162 0.0
C465 C 0.0805 0.92286 0.87868 0.0
C466 C 0.1199 0.8041 0.90456 0.0
C467 C 0.11423 0.87745 0.9105 0.0
C468 C 0.15251 0.87747 0.91401 0.0
C469 C 0.15528 0.84051 0.911 0.0
N470 N 0.07963 0.84155 0.90423 0.0
C471 C 0.08213 0.80523 0.90123 0.0
Co472 Co 0.16464 0.18258 0.85903 0.0
Co473 Co 0.16296 0.18402 0.89949 0.0
O474 O 0.18704 0.2107 0.87922 0.0
C475 C 0.15755 0.26171 0.85611 0.0
O476 O 0.13974 0.25316 0.87002 0.0
C477 C 0.25574 0.20821 0.90195 0.0
O478 O 0.25411 0.19564 0.88745 0.0
O479 O 0.16039 0.12858 0.89325 0.0
O480 O 0.15844 0.12743 0.86707 0.0
H481 H 0.05861 0.06534 0.93497 0.0
H482 H 0.24711 0.26583 0.8611 0.0
O483 O 0.1702 0.23715 0.85023 0.0
H484 H 0.28514 0.16437 0.83638 0.0
H485 H 0.16042 0.17415 0.80031 0.0
H486 H 0.0934 0.09646 0.84918 0.0
H487 H 0.20953 0.14072 0.84347 0.0
H488 H 0.18839 0.20931 0.82579 0.0
O489 O 0.22251 0.20622 0.90829 0.0
H490 H 0.08976 0.09939 0.90963 0.0
H491 H 0.18524 0.21284 0.93259 0.0
H492 H 0.06479 0.05991 0.82398 0.0
H493 H 0.32316 0.29117 0.85404 0.0
H494 H 0.09835 0.09882 0.7993 0.0
H495 H 0.34264 0.24021 0.84165 0.0
O496 O 0.10347 0.16276 0.86539 0.0
H497 H 0.23282 0.34586 0.90347 0.0
H498 H 0.10145 0.20663 0.91484 0.0
H499 H 0.10304 0.27478 0.92129 0.0
H500 H 0.16915 0.34513 0.91558 0.0
H501 H 0.22951 0.27682 0.89707 0.0
H502 H 0.15549 0.17978 0.9582 0.0
H503 H 0.09155 0.10559 0.9595 0.0
O504 O 0.10291 0.16116 0.89156 0.0
C505 C 0.15709 0.10992 0.88016 0.0
C506 C 0.08644 0.09771 0.93457 0.0
C507 C 0.14082 0.16193 0.9476 0.0
N508 N 0.13919 0.15813 0.91962 0.0
C509 C 0.10419 0.1172 0.92025 0.0
C510 C 0.15763 0.18042 0.93307 0.0
C511 C 0.10495 0.1203 0.94832 0.0
C512 C 0.25528 0.24351 0.85564 0.0
N513 N 0.22389 0.20164 0.85281 0.0
C514 C 0.29843 0.25803 0.8517 0.0
C515 C 0.30934 0.22942 0.84477 0.0
C516 C 0.27711 0.18685 0.84183 0.0
C517 C 0.23434 0.17348 0.84597 0.0
C518 C 0.14557 0.15685 0.81098 0.0
C519 C 0.10835 0.11355 0.8385 0.0
C520 C 0.16118 0.17664 0.82544 0.0
N521 N 0.14276 0.15487 0.83897 0.0
C522 C 0.09192 0.09271 0.82426 0.0
C523 C 0.11075 0.11457 0.81042 0.0
C524 C 0.08368 0.15449 0.87847 0.0
C525 C 0.20381 0.31543 0.90601 0.0
C526 C 0.1301 0.23699 0.91222 0.0
C527 C 0.13095 0.27554 0.91596 0.0
C528 C 0.16807 0.315 0.91278 0.0
N529 N 0.16517 0.23764 0.9055 0.0
C530 C 0.20179 0.27621 0.90245 0.0
Co531 Co 0.97863 0.82446 0.64537 0.0
Co532 Co 0.98178 0.82039 0.60527 0.0
O533 O 0.97546 0.79388 0.62593 0.0
C534 C 0.89579 0.7417 0.64991 0.0
O535 O 0.88419 0.74673 0.63587 0.0
C536 C 0.04524 0.78955 0.60352 0.0
O537 O 0.05806 0.8046 0.61767 0.0
O538 O 0.03766 0.87221 0.61155 0.0
O539 O 0.02447 0.88041 0.6365 0.0
H540 H 0.01318 0.94183 0.56813 0.0
H541 H 0.98618 0.74552 0.64664 0.0
O542 O 0.93288 0.76933 0.65519 0.0
H543 H 0.12349 0.86202 0.66828 0.0
H544 H 0.98488 0.84469 0.7037 0.0
H545 H 0.98288 0.90778 0.65274 0.0
H546 H 0.06649 0.87724 0.65962 0.0
H547 H 0.98195 0.80676 0.67927 0.0
O548 O 0.01397 0.79161 0.59723 0.0
H549 H 0.00432 0.90791 0.59392 0.0
H550 H 0.97218 0.78805 0.57257 0.0
H551 H 0.98647 0.94715 0.67684 0.0
H552 H 0.04214 0.72874 0.65533 0.0
H553 H 0.98737 0.91555 0.70258 0.0
H554 H 0.11144 0.78728 0.6662 0.0
O555 O 0.93333 0.83741 0.63775 0.0
H556 H 0.8757 0.66108 0.60081 0.0
H557 H 0.9006 0.80785 0.59033 0.0
H558 H 0.83033 0.74429 0.58342 0.0
H559 H 0.81756 0.67025 0.58863 0.0
H560 H 0.94539 0.72559 0.60765 0.0
H561 H 0.98109 0.82073 0.5465 0.0
H562 H 0.00166 0.89816 0.54415 0.0
O563 O 0.95053 0.85057 0.61236 0.0
C564 C 0.04686 0.8945 0.62407 0.0
C565 C 0.00414 0.90804 0.56898 0.0
C566 C 0.9862 0.84011 0.55685 0.0
N567 N 0.9878 0.84607 0.58478 0.0
C568 C 0.99897 0.88863 0.58357 0.0
C569 C 0.98134 0.82181 0.57165 0.0
C570 C 0.99772 0.88354 0.55554 0.0
C571 C 0.01609 0.77107 0.65149 0.0
N572 N 0.02297 0.81227 0.65267 0.0
C573 C 0.04773 0.76142 0.65634 0.0
C574 C 0.08663 0.79429 0.66241 0.0
C575 C 0.09343 0.83624 0.66356 0.0
C576 C 0.06109 0.8447 0.65858 0.0
C577 C 0.98434 0.85872 0.69257 0.0
C578 C 0.98325 0.89377 0.66388 0.0
C579 C 0.98236 0.83721 0.6787 0.0
N580 N 0.98182 0.85476 0.66459 0.0
C581 C 0.98529 0.91625 0.6775 0.0
C582 C 0.98578 0.8985 0.69193 0.0
C583 C 0.93079 0.85217 0.62448 0.0
C584 C 0.88092 0.69317 0.59843 0.0
C585 C 0.89525 0.77574 0.59267 0.0
C586 C 0.85543 0.73987 0.5887 0.0
C587 C 0.84829 0.69834 0.59162 0.0
N588 N 0.92713 0.77038 0.59931 0.0
C589 C 0.92036 0.72979 0.60223 0.0
Co590 Co 0.18024 0.15987 0.64463 0.0
Co591 Co 0.18832 0.16127 0.60432 0.0
O592 O 0.21143 0.1847 0.62509 0.0
C593 C 0.26231 0.15945 0.65002 0.0
O594 O 0.25701 0.14153 0.63621 0.0
C595 C 0.20846 0.25239 0.60192 0.0
O596 O 0.18997 0.2476 0.61559 0.0
O597 O 0.13163 0.15749 0.60919 0.0
O598 O 0.1251 0.14966 0.63516 0.0
H599 H 0.07675 0.05728 0.56663 0.0
H600 H 0.25997 0.24591 0.64491 0.0
O601 O 0.23488 0.16957 0.65498 0.0
H602 H 0.14441 0.27151 0.66429 0.0
H603 H 0.15984 0.15257 0.70295 0.0
H604 H 0.09551 0.08335 0.6526 0.0
H605 H 0.12839 0.19779 0.65737 0.0
H606 H 0.19858 0.18397 0.67829 0.0
O607 O 0.21097 0.22116 0.59585 0.0
H608 H 0.10644 0.08723 0.59257 0.0
H609 H 0.22181 0.1865 0.57181 0.0
H610 H 0.05541 0.05111 0.67695 0.0
H611 H 0.27752 0.32012 0.65183 0.0
H612 H 0.08761 0.08573 0.70237 0.0
H613 H 0.21945 0.33331 0.66153 0.0
O614 O 0.16625 0.10033 0.6382 0.0
H615 H 0.35071 0.23407 0.60322 0.0
H616 H 0.2145 0.10143 0.58989 0.0
H617 H 0.28416 0.10498 0.5846 0.0
H618 H 0.35299 0.17176 0.59126 0.0
H619 H 0.28019 0.22883 0.60845 0.0
H620 H 0.19314 0.15785 0.54561 0.0
H621 H 0.1202 0.09267 0.54291 0.0
O622 O 0.16503 0.10086 0.61202 0.0
C623 C 0.11004 0.15057 0.6218 0.0
C624 C 0.10863 0.08563 0.56765 0.0
C625 C 0.17393 0.14211 0.55586 0.0
N626 N 0.16595 0.1384 0.58372 0.0
C627 C 0.12568 0.10268 0.58232 0.0
C628 C 0.18994 0.15825 0.57072 0.0
C629 C 0.133 0.10552 0.55435 0.0
C630 C 0.23463 0.25133 0.64929 0.0
N631 N 0.19325 0.21753 0.6508 0.0
C632 C 0.24473 0.29344 0.65313 0.0
C633 C 0.21212 0.30082 0.65855 0.0
C634 C 0.17 0.26617 0.66008 0.0
C635 C 0.16109 0.2245 0.65611 0.0
C636 C 0.1455 0.13714 0.69195 0.0
C637 C 0.10972 0.09869 0.66361 0.0
C638 C 0.1674 0.15468 0.67796 0.0
N639 N 0.14942 0.1355 0.66402 0.0
C640 C 0.08686 0.08024 0.67736 0.0
C641 C 0.10495 0.09966 0.69162 0.0
C642 C 0.15883 0.0812 0.625 0.0
C643 C 0.32095 0.20479 0.60027 0.0
C644 C 0.2442 0.13035 0.59295 0.0
C645 C 0.28361 0.13231 0.58985 0.0
C646 C 0.3222 0.1698 0.59358 0.0
N647 N 0.2432 0.16474 0.59953 0.0
C648 C 0.28092 0.20166 0.60317 0.0
Co649 Co 0.84685 0.02419 0.64242 0.0
Co650 Co 0.84198 0.02625 0.60213 0.0
O651 O 0.8198 0.02767 0.62298 0.0
C652 C 0.84491 0.10562 0.6474 0.0
O653 O 0.86273 0.11829 0.63358 0.0
C654 C 0.74926 0.95716 0.60017 0.0
O655 O 0.75222 0.94466 0.61429 0.0
O656 O 0.84475 0.97302 0.60744 0.0
O657 O 0.859 0.98031 0.6332 0.0
H658 H 0.93995 0.01082 0.56365 0.0
H659 H 0.75921 0.01404 0.64363 0.0
O660 O 0.83555 0.06838 0.65247 0.0
H661 H 0.74176 0.87679 0.66395 0.0
H662 H 0.85964 0.0173 0.70077 0.0
H663 H 0.92607 0.02035 0.64998 0.0
H664 H 0.81357 0.93573 0.65576 0.0
H665 H 0.82516 0.02057 0.67626 0.0
O666 O 0.78158 0.98968 0.59396 0.0
H667 H 0.91244 0.01313 0.58979 0.0
H668 H 0.81679 0.03606 0.56983 0.0
H669 H 0.96142 0.01665 0.67418 0.0
H670 H 0.68685 0.95609 0.65185 0.0
H671 H 0.92821 0.01516 0.69982 0.0
H672 H 0.67779 0.88682 0.66206 0.0
O673 O 0.90498 0.07079 0.63531 0.0
H674 H 0.77259 0.11892 0.60026 0.0
H675 H 0.90378 0.11164 0.58776 0.0
H676 H 0.90207 0.17857 0.5821 0.0
H677 H 0.83605 0.18248 0.58833 0.0
H678 H 0.77591 0.05276 0.60586 0.0
H679 H 0.84293 0.03359 0.54343 0.0
H680 H 0.9051 0.0211 0.54021 0.0
O681 O 0.90312 0.06244 0.60933 0.0
C682 C 0.85505 0.96174 0.62015 0.0
C683 C 0.91288 0.01635 0.56489 0.0
C684 C 0.85846 0.02916 0.55354 0.0
N685 N 0.86324 0.02496 0.58138 0.0
C686 C 0.8972 0.01773 0.57968 0.0
C687 C 0.84375 0.03043 0.56853 0.0
C688 C 0.89332 0.02212 0.55175 0.0
C689 C 0.75557 0.98415 0.64821 0.0
N690 N 0.79059 0.97837 0.64929 0.0
C691 C 0.7145 0.95139 0.65278 0.0
C692 C 0.70943 0.9125 0.65848 0.0
C693 C 0.7453 0.90684 0.65954 0.0
C694 C 0.78587 0.94029 0.65484 0.0
C695 C 0.87445 0.01798 0.68967 0.0
C696 C 0.9113 0.01957 0.66108 0.0
C697 C 0.85515 0.02002 0.67576 0.0
N698 N 0.87356 0.02072 0.6617 0.0
C699 C 0.93153 0.01754 0.67475 0.0
C700 C 0.9129 0.01674 0.68913 0.0
C701 C 0.92352 0.07896 0.62199 0.0
C702 C 0.80151 0.11759 0.59746 0.0
C703 C 0.87507 0.11316 0.59058 0.0
C704 C 0.87421 0.1511 0.5873 0.0
C705 C 0.83715 0.15326 0.59079 0.0
N706 N 0.83997 0.07829 0.5971 0.0
C707 C 0.80352 0.08017 0.60055 0.0
Co708 Co 0.84519 0.35669 0.47778 0.0
Co709 Co 0.85424 0.35929 0.43753 0.0
O710 O 0.87648 0.35977 0.45855 0.0
C711 C 0.92909 0.43693 0.48313 0.0
O712 O 0.92477 0.44961 0.46919 0.0
C713 C 0.87701 0.28933 0.43567 0.0
O714 O 0.86148 0.27685 0.4498 0.0
O715 O 0.79744 0.30661 0.4425 0.0
O716 O 0.7893 0.31379 0.46818 0.0
H717 H 0.74366 0.34713 0.39836 0.0
H718 H 0.92147 0.34461 0.47961 0.0
O719 O 0.90055 0.39995 0.48817 0.0
H720 H 0.79878 0.20824 0.49921 0.0
H721 H 0.82281 0.34952 0.53599 0.0
H722 H 0.76261 0.35451 0.48474 0.0
H723 H 0.78789 0.26829 0.49081 0.0
H724 H 0.8614 0.3523 0.51174 0.0
O725 O 0.87744 0.32198 0.42949 0.0
H726 H 0.77193 0.34815 0.42468 0.0
H727 H 0.89063 0.36917 0.40544 0.0
H728 H 0.72278 0.35137 0.50867 0.0
H729 H 0.93391 0.28554 0.48806 0.0
H730 H 0.75289 0.34889 0.53454 0.0
H731 H 0.87224 0.21672 0.4979 0.0
O732 O 0.83522 0.40424 0.47054 0.0
H733 H 0.01661 0.44938 0.43679 0.0
H734 H 0.88031 0.44537 0.4232 0.0
H735 H 0.94996 0.5116 0.418 0.0
H736 H 0.01881 0.51386 0.42478 0.0
H737 H 0.94613 0.38395 0.44193 0.0
H738 H 0.86357 0.36795 0.37887 0.0
H739 H 0.78964 0.35709 0.37519 0.0
O740 O 0.83005 0.39635 0.44454 0.0
C741 C 0.77514 0.29555 0.45505 0.0
C742 C 0.77595 0.35195 0.39979 0.0
C743 C 0.84324 0.36367 0.38886 0.0
N744 N 0.83294 0.35895 0.41664 0.0
C745 C 0.79213 0.35259 0.41469 0.0
C746 C 0.85836 0.36423 0.40394 0.0
C747 C 0.80176 0.35754 0.38681 0.0
C748 C 0.89458 0.31491 0.48403 0.0
N749 N 0.85408 0.30999 0.4848 0.0
C750 C 0.90177 0.28151 0.48873 0.0
C751 C 0.86715 0.24288 0.49423 0.0
C752 C 0.82591 0.23809 0.49496 0.0
C753 C 0.81992 0.27216 0.49014 0.0
C754 C 0.80937 0.35061 0.52479 0.0
C755 C 0.77589 0.35328 0.49595 0.0
C756 C 0.83118 0.35236 0.51102 0.0
N757 N 0.81433 0.35358 0.49684 0.0
C758 C 0.75319 0.35158 0.50946 0.0
C759 C 0.77012 0.35022 0.52397 0.0
C760 C 0.82594 0.413 0.45712 0.0
C761 C 0.98684 0.44877 0.43376 0.0
C762 C 0.91005 0.44618 0.42627 0.0
C763 C 0.94944 0.48373 0.42324 0.0
C764 C 0.98805 0.48496 0.42704 0.0
N765 N 0.90912 0.4108 0.43284 0.0
C766 C 0.94684 0.41177 0.43659 0.0
Co767 Co 0.65198 0.49857 0.47736 0.0
Co768 Co 0.64453 0.49285 0.43703 0.0
O769 O 0.64427 0.51933 0.45709 0.0
C770 C 0.56722 0.49333 0.48154 0.0
O771 O 0.55626 0.47361 0.46798 0.0
C772 C 0.71241 0.58495 0.43303 0.0
O773 O 0.72567 0.58378 0.44722 0.0
O774 O 0.69867 0.49229 0.44261 0.0
O775 O 0.69835 0.48899 0.46873 0.0
H776 H 0.65689 0.38565 0.40247 0.0
H777 H 0.65453 0.58274 0.47549 0.0
O778 O 0.60536 0.50729 0.48676 0.0
H779 H 0.79742 0.61692 0.49602 0.0
H780 H 0.66304 0.50034 0.53598 0.0
H781 H 0.66504 0.42643 0.48762 0.0
H782 H 0.74191 0.54143 0.49014 0.0
H783 H 0.65449 0.52667 0.51035 0.0
O784 O 0.67996 0.55155 0.42729 0.0
H785 H 0.65574 0.41904 0.42752 0.0
H786 H 0.63362 0.51088 0.40383 0.0
H787 H 0.67403 0.39925 0.51297 0.0
H788 H 0.709 0.65868 0.48131 0.0
H789 H 0.67302 0.43626 0.53739 0.0
H790 H 0.78108 0.67615 0.49162 0.0
O791 O 0.60812 0.43753 0.47208 0.0
H792 H 0.54952 0.55918 0.43236 0.0
H793 H 0.55856 0.42699 0.42421 0.0
H794 H 0.49051 0.42611 0.41813 0.0
H795 H 0.4857 0.49257 0.4222 0.0
H796 H 0.61685 0.5585 0.43841 0.0
H797 H 0.63505 0.4788 0.37849 0.0
H798 H 0.6466 0.41562 0.37771 0.0
O799 O 0.60923 0.43369 0.44598 0.0
C800 C 0.71412 0.48806 0.4555 0.0
C801 C 0.65176 0.41313 0.40265 0.0
C802 C 0.63956 0.46544 0.3892 0.0
N803 N 0.64458 0.46686 0.41714 0.0
C804 C 0.65096 0.43211 0.41681 0.0
C805 C 0.63894 0.48357 0.40358 0.0
C806 C 0.64602 0.42998 0.38877 0.0
C807 C 0.68569 0.59009 0.48011 0.0
N808 N 0.69497 0.55771 0.48254 0.0
C809 C 0.71645 0.63314 0.48332 0.0
C810 C 0.75692 0.64293 0.48908 0.0
C811 C 0.76612 0.60971 0.49154 0.0
C812 C 0.73459 0.56704 0.48816 0.0
C813 C 0.6636 0.48398 0.52542 0.0
C814 C 0.66488 0.44293 0.49818 0.0
C815 C 0.65869 0.49869 0.51088 0.0
N816 N 0.65953 0.47828 0.49749 0.0
C817 C 0.66985 0.42729 0.51251 0.0
C818 C 0.66922 0.44803 0.5262 0.0
C819 C 0.59633 0.4162 0.45933 0.0
C820 C 0.55125 0.53005 0.4305 0.0
C821 C 0.5567 0.45601 0.42604 0.0
C822 C 0.5181 0.45534 0.42255 0.0
C823 C 0.51544 0.49265 0.42482 0.0
N824 N 0.59171 0.49283 0.43159 0.0
C825 C 0.58934 0.52953 0.43385 0.0
Co826 Co 0.51186 0.15549 0.47876 0.0
Co827 Co 0.50729 0.15791 0.43861 0.0
O828 O 0.48672 0.12834 0.4587 0.0
C829 C 0.51599 0.07456 0.48095 0.0
O830 O 0.53463 0.08369 0.46718 0.0
C831 C 0.41305 0.12618 0.4374 0.0
O832 O 0.41628 0.14155 0.45156 0.0
O833 O 0.503 0.20874 0.44607 0.0
O834 O 0.52051 0.21237 0.47137 0.0
H835 H 0.59809 0.28427 0.40342 0.0
H836 H 0.42696 0.07463 0.47753 0.0
O837 O 0.50398 0.09946 0.48697 0.0
H838 H 0.39829 0.18118 0.5035 0.0
H839 H 0.5218 0.16232 0.53743 0.0
H840 H 0.58764 0.23906 0.48829 0.0
H841 H 0.47227 0.20117 0.49533 0.0
H842 H 0.49002 0.12872 0.51207 0.0
O843 O 0.44635 0.12958 0.4306 0.0
H844 H 0.5725 0.24687 0.42865 0.0
H845 H 0.48415 0.13043 0.40547 0.0
H846 H 0.62024 0.27397 0.51338 0.0
H847 H 0.35247 0.05295 0.48567 0.0
H848 H 0.58724 0.23556 0.5382 0.0
H849 H 0.3377 0.1065 0.49867 0.0
O850 O 0.57141 0.17242 0.47128 0.0
H851 H 0.45587 0.99961 0.43139 0.0
H852 H 0.57645 0.14823 0.42271 0.0
H853 H 0.58427 0.08614 0.41453 0.0
H854 H 0.52369 0.01118 0.41887 0.0
H855 H 0.44954 0.06266 0.43948 0.0
H856 H 0.50851 0.16661 0.37995 0.0
H857 H 0.56599 0.24406 0.37881 0.0
O858 O 0.56853 0.18727 0.44593 0.0
C859 C 0.51423 0.22874 0.45912 0.0
C860 C 0.57312 0.25048 0.40375 0.0
C861 C 0.52279 0.18447 0.39059 0.0
N862 N 0.52708 0.18646 0.41856 0.0
C863 C 0.5586 0.22909 0.41802 0.0
C864 C 0.50906 0.16418 0.40508 0.0
C865 C 0.55506 0.22791 0.38996 0.0
C866 C 0.42086 0.09801 0.48331 0.0
N867 N 0.45398 0.13925 0.4859 0.0
C868 C 0.37859 0.08558 0.48785 0.0
C869 C 0.37031 0.11566 0.49512 0.0
C870 C 0.40427 0.15758 0.4978 0.0
C871 C 0.44612 0.16884 0.49308 0.0
C872 C 0.53641 0.17942 0.5267 0.0
C873 C 0.57298 0.22217 0.49904 0.0
C874 C 0.5186 0.16052 0.51231 0.0
N875 N 0.53671 0.18206 0.49871 0.0
C876 C 0.59165 0.24209 0.51321 0.0
C877 C 0.57313 0.22052 0.52712 0.0
C878 C 0.58929 0.1883 0.45816 0.0
C879 C 0.48243 0.03212 0.42939 0.0
C880 C 0.54994 0.11571 0.42463 0.0
C881 C 0.55454 0.08068 0.41996 0.0
C882 C 0.52052 0.03863 0.42239 0.0
N883 N 0.51246 0.10905 0.43148 0.0
C884 C 0.47896 0.06793 0.43389 0.0
Co885 Co 0.69205 0.51192 0.6918 0.0
Co886 Co 0.69587 0.51891 0.73216 0.0
O887 O 0.69598 0.54201 0.71139 0.0
C888 C 0.77389 0.59457 0.68802 0.0
O889 O 0.7839 0.58768 0.70206 0.0
C890 C 0.62577 0.54131 0.73444 0.0
O891 O 0.6134 0.52633 0.72025 0.0
O892 O 0.64343 0.4621 0.72694 0.0
O893 O 0.64721 0.45598 0.70088 0.0
H894 H 0.68523 0.40709 0.77044 0.0
H895 H 0.68397 0.59071 0.69119 0.0
O896 O 0.73745 0.56752 0.68212 0.0
H897 H 0.54572 0.47371 0.67033 0.0
H898 H 0.68684 0.49578 0.63333 0.0
H899 H 0.6851 0.4278 0.68363 0.0
H900 H 0.60361 0.45895 0.67825 0.0
H901 H 0.69099 0.53281 0.65814 0.0
O902 O 0.65834 0.54141 0.74057 0.0
H903 H 0.68567 0.43636 0.74436 0.0
H904 H 0.70583 0.55381 0.76449 0.0
H905 H 0.68061 0.38955 0.65912 0.0
H906 H 0.62707 0.607 0.68329 0.0
H907 H 0.68148 0.42357 0.63373 0.0
H908 H 0.55731 0.54821 0.67281 0.0
O909 O 0.73768 0.49855 0.69865 0.0
H910 H 0.78557 0.68131 0.73325 0.0
H911 H 0.78226 0.545 0.74624 0.0
H912 H 0.84872 0.61466 0.7512 0.0
H913 H 0.85068 0.68351 0.74466 0.0
H914 H 0.71991 0.61083 0.72835 0.0
H915 H 0.70516 0.52572 0.79083 0.0
H916 H 0.69501 0.45191 0.79394 0.0
O917 O 0.73308 0.49542 0.72475 0.0
C918 C 0.63043 0.44096 0.71415 0.0
C919 C 0.6897 0.43931 0.76925 0.0
C920 C 0.70091 0.50588 0.78069 0.0
N921 N 0.69591 0.49677 0.75286 0.0
C922 C 0.69 0.45605 0.75449 0.0
C923 C 0.70115 0.52157 0.76574 0.0
C924 C 0.6952 0.46447 0.78242 0.0
C925 C 0.65385 0.56507 0.6865 0.0
N926 N 0.64721 0.52401 0.6851 0.0
C927 C 0.62169 0.57444 0.6821 0.0
C928 C 0.58253 0.54142 0.67625 0.0
C929 C 0.57599 0.49961 0.67486 0.0
C930 C 0.60886 0.49143 0.6794 0.0
C931 C 0.68637 0.48061 0.64432 0.0
C932 C 0.68525 0.44273 0.67264 0.0
C933 C 0.68881 0.50146 0.6584 0.0
N934 N 0.68805 0.4824 0.67232 0.0
C935 C 0.68282 0.42095 0.65879 0.0
C936 C 0.68335 0.44008 0.64455 0.0
C937 C 0.74784 0.49 0.71193 0.0
C938 C 0.78509 0.65154 0.73617 0.0
C939 C 0.78288 0.57474 0.74333 0.0
C940 C 0.82057 0.61413 0.74621 0.0
C941 C 0.82163 0.65275 0.74256 0.0
N942 N 0.7472 0.57379 0.73703 0.0
C943 C 0.74795 0.61154 0.73349 0.0
Co944 Co 0.48728 0.17612 0.69161 0.0
Co945 Co 0.48998 0.1742 0.73187 0.0
O946 O 0.46033 0.15263 0.71184 0.0
C947 C 0.40719 0.18206 0.6889 0.0
O948 O 0.41661 0.20188 0.70246 0.0
C949 C 0.45973 0.08048 0.73355 0.0
O950 O 0.47586 0.08408 0.7195 0.0
O951 O 0.54121 0.17019 0.72468 0.0
O952 O 0.54385 0.18413 0.69906 0.0
H953 H 0.61597 0.26751 0.76686 0.0
H954 H 0.40554 0.09219 0.69359 0.0
O955 O 0.43151 0.16878 0.68328 0.0
H956 H 0.50943 0.059 0.66801 0.0
H957 H 0.49319 0.182 0.63287 0.0
H958 H 0.57147 0.25011 0.68155 0.0
H959 H 0.53102 0.13392 0.67542 0.0
H960 H 0.45969 0.15241 0.65844 0.0
O961 O 0.46209 0.11351 0.74021 0.0
H962 H 0.57871 0.24048 0.74168 0.0
H963 H 0.46261 0.15226 0.76506 0.0
H964 H 0.60632 0.28046 0.65624 0.0
H965 H 0.38224 0.0168 0.68619 0.0
H966 H 0.56713 0.24632 0.63166 0.0
H967 H 0.43445 0.99975 0.67339 0.0
O968 O 0.50552 0.23648 0.69853 0.0
H969 H 0.33144 0.12179 0.73898 0.0
H970 H 0.47965 0.24368 0.74716 0.0
H971 H 0.41721 0.25124 0.75508 0.0
H972 H 0.34247 0.18999 0.751 0.0
H973 H 0.39482 0.11574 0.73114 0.0
H974 H 0.49866 0.17806 0.79054 0.0
H975 H 0.57586 0.23621 0.79155 0.0
O976 O 0.51892 0.23506 0.72415 0.0
C977 C 0.56064 0.17945 0.71151 0.0
C978 C 0.58228 0.24225 0.76658 0.0
C979 C 0.51647 0.192 0.77987 0.0
N980 N 0.51848 0.19504 0.75187 0.0
C981 C 0.56098 0.22691 0.75234 0.0
C982 C 0.49626 0.17745 0.7654 0.0
C983 C 0.55978 0.22464 0.78043 0.0
C984 C 0.42835 0.0851 0.6879 0.0
N985 N 0.46976 0.11748 0.68502 0.0
C986 C 0.41499 0.04232 0.68378 0.0
C987 C 0.44432 0.03277 0.67662 0.0
C988 C 0.48641 0.06598 0.67363 0.0
C989 C 0.4986 0.10836 0.67793 0.0
C990 C 0.51062 0.1971 0.64349 0.0
C991 C 0.55424 0.23495 0.67091 0.0
C992 C 0.49177 0.18056 0.65801 0.0
N993 N 0.51372 0.19929 0.67148 0.0
C994 C 0.57413 0.25235 0.65661 0.0
C995 C 0.55212 0.23319 0.64282 0.0
C996 C 0.52076 0.2551 0.71161 0.0
C997 C 0.36386 0.14865 0.74087 0.0
C998 C 0.44722 0.21689 0.74535 0.0
C999 C 0.412 0.22134 0.74987 0.0
C1000 C 0.37006 0.18695 0.74759 0.0
N1001 N 0.44085 0.17919 0.73879 0.0
C1002 C 0.39985 0.14534 0.73651 0.0
Co1003 Co 0.82845 0.31223 0.69101 0.0
Co1004 Co 0.82695 0.30784 0.73136 0.0
O1005 O 0.85114 0.30574 0.71103 0.0
C1006 C 0.82387 0.22754 0.68701 0.0
O1007 O 0.80496 0.21676 0.70072 0.0
C1008 C 0.91959 0.37487 0.7339 0.0
O1009 O 0.91613 0.38809 0.71996 0.0
O1010 O 0.82694 0.36212 0.72565 0.0
O1011 O 0.81941 0.35896 0.69964 0.0
H1012 H 0.72449 0.32434 0.76717 0.0
H1013 H 0.91299 0.3153 0.69189 0.0
O1014 O 0.83667 0.26531 0.68162 0.0
H1015 H 0.94453 0.45686 0.67082 0.0
H1016 H 0.8245 0.31977 0.6324 0.0
H1017 H 0.75492 0.32396 0.68158 0.0
H1018 H 0.86974 0.40144 0.67763 0.0
H1019 H 0.85356 0.31314 0.65772 0.0
O1020 O 0.88686 0.34298 0.74023 0.0
H1021 H 0.75487 0.32084 0.74173 0.0
H1022 H 0.84876 0.29973 0.76436 0.0
H1023 H 0.72502 0.33103 0.65654 0.0
H1024 H 0.98822 0.36962 0.68507 0.0
H1025 H 0.75985 0.32891 0.6317 0.0
H1026 H 0.00439 0.44106 0.67453 0.0
O1027 O 0.76815 0.26854 0.69712 0.0
H1028 H 0.89063 0.21036 0.73539 0.0
H1029 H 0.76133 0.2234 0.74525 0.0
H1030 H 0.75945 0.15494 0.75148 0.0
H1031 H 0.82444 0.1481 0.74654 0.0
H1032 H 0.89099 0.27815 0.72923 0.0
H1033 H 0.81959 0.30335 0.79007 0.0
H1034 H 0.75693 0.31561 0.79158 0.0
O1035 O 0.76667 0.27283 0.7232 0.0
C1036 C 0.82071 0.37623 0.71278 0.0
C1037 C 0.75172 0.31885 0.76667 0.0
C1038 C 0.80515 0.30716 0.77951 0.0
N1039 N 0.80341 0.30986 0.75156 0.0
C1040 C 0.76899 0.3167 0.75229 0.0
C1041 C 0.82159 0.30524 0.76493 0.0
C1042 C 0.76997 0.31401 0.78036 0.0
C1043 C 0.91973 0.34614 0.68713 0.0
N1044 N 0.88701 0.35511 0.68508 0.0
C1045 C 0.96239 0.37682 0.68335 0.0
C1046 C 0.97145 0.41693 0.67746 0.0
C1047 C 0.93789 0.42583 0.67539 0.0
C1048 C 0.89562 0.39437 0.67931 0.0
C1049 C 0.80909 0.32081 0.64314 0.0
C1050 C 0.77047 0.32332 0.67083 0.0
C1051 C 0.82534 0.31698 0.65751 0.0
N1052 N 0.80613 0.31842 0.67112 0.0
C1053 C 0.7533 0.32721 0.65668 0.0
C1054 C 0.77282 0.32596 0.64276 0.0
C1055 C 0.74794 0.2585 0.71011 0.0
C1056 C 0.86215 0.21298 0.73763 0.0
C1057 C 0.78973 0.22068 0.74307 0.0
C1058 C 0.7885 0.18185 0.74664 0.0
C1059 C 0.82498 0.17804 0.74387 0.0
N1060 N 0.82632 0.25481 0.73696 0.0
C1061 C 0.86223 0.25134 0.73423 0.0
Co1062 Co 0.4871 0.3141 0.19028 0.0
Co1063 Co 0.48396 0.31191 0.23061 0.0
O1064 O 0.45773 0.30907 0.21016 0.0
C1065 C 0.40518 0.23074 0.18596 0.0
O1066 O 0.41207 0.21895 0.19969 0.0
C1067 C 0.45901 0.37953 0.23272 0.0
O1068 O 0.47603 0.39248 0.2188 0.0
O1069 O 0.53825 0.36593 0.22472 0.0
O1070 O 0.54341 0.35979 0.19892 0.0
H1071 H 0.60308 0.33028 0.26669 0.0
H1072 H 0.40738 0.32037 0.19052 0.0
O1073 O 0.4315 0.26833 0.18073 0.0
H1074 H 0.52132 0.46001 0.16946 0.0
H1075 H 0.50141 0.32173 0.13171 0.0
H1076 H 0.57078 0.32112 0.1814 0.0
H1077 H 0.53799 0.40298 0.17672 0.0
H1078 H 0.46554 0.31732 0.1568 0.0
O1079 O 0.4593 0.34749 0.23915 0.0
H1080 H 0.56909 0.32551 0.24117 0.0
H1081 H 0.45404 0.3051 0.26356 0.0
H1082 H 0.60799 0.32597 0.15661 0.0
H1083 H 0.38915 0.37633 0.18323 0.0
H1084 H 0.57324 0.32621 0.13152 0.0
H1085 H 0.44641 0.44682 0.17269 0.0
O1086 O 0.50135 0.26903 0.19682 0.0
H1087 H 0.32278 0.21521 0.23505 0.0
H1088 H 0.46497 0.22805 0.24507 0.0
H1089 H 0.3983 0.16023 0.25183 0.0
H1090 H 0.32655 0.15353 0.24684 0.0
H1091 H 0.3903 0.28235 0.22837 0.0
H1092 H 0.48692 0.30996 0.28935 0.0
H1093 H 0.56193 0.32252 0.29102 0.0
O1094 O 0.50914 0.27641 0.2228 0.0
C1095 C 0.5591 0.3784 0.2119 0.0
C1096 C 0.57032 0.32465 0.26612 0.0
C1097 C 0.50515 0.31333 0.27883 0.0
N1098 N 0.50952 0.31476 0.25087 0.0
C1099 C 0.55084 0.32179 0.2517 0.0
C1100 C 0.48673 0.31069 0.2642 0.0
C1101 C 0.54723 0.32035 0.27976 0.0
C1102 C 0.43234 0.35079 0.18577 0.0
N1103 N 0.47363 0.35832 0.18398 0.0
C1104 C 0.42187 0.3824 0.18172 0.0
C1105 C 0.45404 0.42198 0.17583 0.0
C1106 C 0.49608 0.42942 0.17404 0.0
C1107 C 0.50536 0.39705 0.17821 0.0
C1108 C 0.51687 0.3216 0.14257 0.0
C1109 C 0.5555 0.3214 0.17054 0.0
C1110 C 0.4966 0.31892 0.1568 0.0
N1111 N 0.51596 0.31887 0.17056 0.0
C1112 C 0.57672 0.32408 0.15654 0.0
C1113 C 0.55719 0.32416 0.14247 0.0
C1114 C 0.51221 0.26024 0.20992 0.0
C1115 C 0.35385 0.21778 0.23732 0.0
C1116 C 0.43388 0.22535 0.24283 0.0
C1117 C 0.39624 0.1869 0.24671 0.0
C1118 C 0.35599 0.18317 0.24392 0.0
N1119 N 0.4315 0.25919 0.2364 0.0
C1120 C 0.39218 0.25576 0.23361 0.0
Co1121 Co 0.68904 0.17681 0.1919 0.0
Co1122 Co 0.68603 0.17646 0.23221 0.0
O1123 O 0.69367 0.15442 0.21221 0.0
C1124 C 0.77612 0.18536 0.18879 0.0
O1125 O 0.78685 0.20615 0.20216 0.0
C1126 C 0.62338 0.08255 0.23437 0.0
O1127 O 0.61026 0.08538 0.22034 0.0
O1128 O 0.63031 0.17186 0.22522 0.0
O1129 O 0.64006 0.18396 0.19945 0.0
H1130 H 0.6539 0.27038 0.2671 0.0
H1131 H 0.68872 0.09387 0.19427 0.0
O1132 O 0.73793 0.17038 0.18349 0.0
H1133 H 0.55019 0.05699 0.16902 0.0
H1134 H 0.68699 0.18044 0.13315 0.0
H1135 H 0.67656 0.24923 0.18161 0.0
H1136 H 0.60272 0.13255 0.17598 0.0
H1137 H 0.69256 0.15231 0.15881 0.0
O1138 O 0.65394 0.11607 0.24084 0.0
H1139 H 0.66339 0.24265 0.24195 0.0
H1140 H 0.69285 0.15573 0.26544 0.0
H1141 H 0.67034 0.27808 0.15621 0.0
H1142 H 0.63746 0.01786 0.18733 0.0
H1143 H 0.67553 0.24361 0.13174 0.0
H1144 H 0.56748 0.99895 0.17471 0.0
O1145 O 0.73052 0.23767 0.19849 0.0
H1146 H 0.79326 0.12535 0.23908 0.0
H1147 H 0.76614 0.24678 0.24706 0.0
H1148 H 0.83662 0.25512 0.25473 0.0
H1149 H 0.85052 0.1941 0.25075 0.0
H1150 H 0.72334 0.11851 0.23149 0.0
H1151 H 0.68334 0.18221 0.29089 0.0
H1152 H 0.66389 0.24007 0.29183 0.0
O1153 O 0.71735 0.23702 0.22423 0.0
C1154 C 0.61924 0.17999 0.21201 0.0
C1155 C 0.66251 0.24525 0.26685 0.0
C1156 C 0.67896 0.19571 0.2802 0.0
N1157 N 0.6789 0.19781 0.2522 0.0
C1158 C 0.66805 0.22952 0.25263 0.0
C1159 C 0.68419 0.18077 0.26575 0.0
C1160 C 0.66806 0.22819 0.28072 0.0
C1161 C 0.65848 0.08596 0.18867 0.0
N1162 N 0.64858 0.11766 0.18563 0.0
C1163 C 0.62954 0.04284 0.1848 0.0
C1164 C 0.59026 0.03225 0.17774 0.0
C1165 C 0.58051 0.06477 0.17458 0.0
C1166 C 0.61023 0.10753 0.17863 0.0
C1167 C 0.6846 0.19569 0.14373 0.0
C1168 C 0.67868 0.23391 0.17102 0.0
C1169 C 0.68785 0.17997 0.15829 0.0
N1170 N 0.68454 0.19887 0.17171 0.0
C1171 C 0.67523 0.25047 0.15667 0.0
C1172 C 0.67816 0.23113 0.14294 0.0
C1173 C 0.73463 0.25666 0.21154 0.0
C1174 C 0.78753 0.15212 0.24092 0.0
C1175 C 0.77195 0.22008 0.2453 0.0
C1176 C 0.8119 0.22498 0.24968 0.0
C1177 C 0.81967 0.19072 0.24745 0.0
N1178 N 0.74057 0.18208 0.23893 0.0
C1179 C 0.74795 0.14837 0.2367 0.0
Co1180 Co 0.82463 0.51388 0.19164 0.0
Co1181 Co 0.82534 0.52114 0.23204 0.0
O1182 O 0.84939 0.54394 0.21134 0.0
C1183 C 0.8223 0.59492 0.1875 0.0
O1184 O 0.80502 0.58795 0.20147 0.0
C1185 C 0.91635 0.53941 0.23449 0.0
O1186 O 0.91309 0.52419 0.2203 0.0
O1187 O 0.8184 0.46319 0.22693 0.0
O1188 O 0.8147 0.45839 0.20068 0.0
H1189 H 0.71983 0.41197 0.27012 0.0
H1190 H 0.91037 0.59411 0.19154 0.0
O1191 O 0.83365 0.569 0.18192 0.0
H1192 H 0.93661 0.48006 0.17092 0.0
H1193 H 0.81671 0.4986 0.13313 0.0
H1194 H 0.74917 0.4289 0.18308 0.0
H1195 H 0.8629 0.46313 0.17834 0.0
H1196 H 0.84781 0.53565 0.1581 0.0
O1197 O 0.88476 0.54122 0.2406 0.0
H1198 H 0.7499 0.44056 0.2441 0.0
H1199 H 0.85113 0.5552 0.26442 0.0
H1200 H 0.71718 0.39062 0.15841 0.0
H1201 H 0.98457 0.61255 0.18415 0.0
H1202 H 0.751 0.4255 0.13319 0.0
H1203 H 0.99805 0.55526 0.1738 0.0
O1204 O 0.76478 0.4987 0.19817 0.0
H1205 H 0.90409 0.68378 0.23368 0.0
H1206 H 0.76725 0.55036 0.24581 0.0
H1207 H 0.77367 0.62135 0.25104 0.0
H1208 H 0.84254 0.68874 0.24498 0.0
H1209 H 0.89603 0.61204 0.22849 0.0
H1210 H 0.82252 0.52775 0.29071 0.0
H1211 H 0.75626 0.45571 0.29369 0.0
O1212 O 0.76535 0.5 0.22435 0.0
C1213 C 0.81319 0.44269 0.21413 0.0
C1214 C 0.74872 0.44341 0.26898 0.0
C1215 C 0.80633 0.50838 0.28053 0.0
N1216 N 0.80216 0.49948 0.25269 0.0
C1217 C 0.76588 0.45975 0.25426 0.0
C1218 C 0.82246 0.5237 0.26561 0.0
C1219 C 0.76916 0.46797 0.2822 0.0
C1220 C 0.91595 0.56912 0.18689 0.0
N1221 N 0.88234 0.52768 0.18528 0.0
C1222 C 0.95804 0.5797 0.18279 0.0
C1223 C 0.96559 0.54752 0.17701 0.0
C1224 C 0.93113 0.50532 0.1754 0.0
C1225 C 0.88949 0.49591 0.17965 0.0
C1226 C 0.80172 0.48304 0.14404 0.0
C1227 C 0.76424 0.44421 0.17216 0.0
C1228 C 0.81914 0.5039 0.15821 0.0
N1229 N 0.8005 0.48436 0.17204 0.0
C1230 C 0.7459 0.42241 0.15823 0.0
C1231 C 0.76486 0.44202 0.14409 0.0
C1232 C 0.74567 0.4925 0.21133 0.0
C1233 C 0.87394 0.65465 0.2364 0.0
C1234 C 0.7972 0.57948 0.24308 0.0
C1235 C 0.80072 0.61962 0.24611 0.0
C1236 C 0.83938 0.65742 0.24272 0.0
N1237 N 0.83122 0.57702 0.23688 0.0
C1238 C 0.86924 0.61394 0.23354 0.0
Co1239 Co 0.64663 0.15274 0.97765 0.0
Co1240 Co 0.64749 0.15322 0.93719 0.0
O1241 O 0.64343 0.12565 0.95741 0.0
C1242 C 0.56151 0.07205 0.97994 0.0
O1243 O 0.55256 0.08098 0.96605 0.0
C1244 C 0.71537 0.12775 0.93484 0.0
O1245 O 0.72592 0.13922 0.94945 0.0
O1246 O 0.70031 0.20808 0.94397 0.0
O1247 O 0.69482 0.20916 0.97005 0.0
H1248 H 0.66675 0.27438 0.90201 0.0
H1249 H 0.6494 0.07127 0.97581 0.0
O1250 O 0.59831 0.09693 0.98605 0.0
H1251 H 0.78613 0.17608 0.00139 0.0
H1252 H 0.64658 0.15903 0.03639 0.0
H1253 H 0.6568 0.23697 0.98762 0.0
H1254 H 0.73262 0.1972 0.99374 0.0
H1255 H 0.64282 0.12541 0.01084 0.0
O1256 O 0.68473 0.13079 0.92852 0.0
H1257 H 0.66153 0.239 0.92727 0.0
H1258 H 0.64171 0.12529 0.90399 0.0
H1259 H 0.66112 0.27194 0.0129 0.0
H1260 H 0.70173 0.04845 0.98343 0.0
H1261 H 0.65603 0.23291 0.03752 0.0
H1262 H 0.77077 0.10111 0.99626 0.0
O1263 O 0.60404 0.17056 0.97088 0.0
H1264 H 0.55451 0.99172 0.93223 0.0
H1265 H 0.56432 0.13206 0.92136 0.0
H1266 H 0.49777 0.06454 0.91435 0.0
H1267 H 0.49254 0.99363 0.9198 0.0
H1268 H 0.62026 0.06014 0.93919 0.0
H1269 H 0.64718 0.15961 0.87847 0.0
H1270 H 0.65957 0.23462 0.87737 0.0
O1271 O 0.61036 0.17637 0.94484 0.0
C1272 C 0.71309 0.2269 0.95721 0.0
C1273 C 0.66129 0.24166 0.90233 0.0
C1274 C 0.65031 0.17725 0.88912 0.0
N1275 N 0.65117 0.18006 0.91712 0.0
C1276 C 0.65826 0.22143 0.9166 0.0
C1277 C 0.64737 0.15804 0.90361 0.0
C1278 C 0.65727 0.21934 0.88852 0.0
C1279 C 0.67926 0.0943 0.98148 0.0
N1280 N 0.68807 0.13568 0.98425 0.0
C1281 C 0.70881 0.08122 0.98572 0.0
C1282 C 0.74756 0.11079 0.9929 0.0
C1283 C 0.75623 0.15287 0.99576 0.0
C1284 C 0.72594 0.16479 0.99132 0.0
C1285 C 0.64892 0.17639 0.02574 0.0
C1286 C 0.65475 0.21983 0.99828 0.0
C1287 C 0.6467 0.15747 0.01124 0.0
N1288 N 0.64993 0.17933 0.99775 0.0
C1289 C 0.65712 0.23978 0.01256 0.0
C1290 C 0.65423 0.21785 0.02637 0.0
C1291 C 0.59498 0.18074 0.95767 0.0
C1292 C 0.55638 0.0224 0.9298 0.0
C1293 C 0.5622 0.10145 0.92386 0.0
C1294 C 0.5245 0.06326 0.9198 0.0
C1295 C 0.52161 0.02349 0.92284 0.0
N1296 N 0.59611 0.10016 0.93073 0.0
C1297 C 0.59359 0.06127 0.93367 0.0
Co1298 Co 0.85173 0.49552 0.97797 0.0
Co1299 Co 0.84898 0.49351 0.93761 0.0
O1300 O 0.87825 0.51769 0.95755 0.0
C1301 C 0.93236 0.4904 0.98179 0.0
O1302 O 0.92287 0.46741 0.96892 0.0
C1303 C 0.87462 0.58619 0.93536 0.0
O1304 O 0.85906 0.5827 0.9495 0.0
O1305 O 0.79553 0.49384 0.94453 0.0
O1306 O 0.79484 0.48608 0.97048 0.0
H1307 H 0.72516 0.39122 0.90343 0.0
H1308 H 0.93274 0.57988 0.97541 0.0
O1309 O 0.90794 0.50459 0.98649 0.0
H1310 H 0.828 0.61295 1.00036 0.0
H1311 H 0.84643 0.49366 0.03676 0.0
H1312 H 0.76844 0.42118 0.98853 0.0
H1313 H 0.80711 0.53787 0.99348 0.0
H1314 H 0.87907 0.52227 0.01101 0.0
O1315 O 0.87306 0.55339 0.9288 0.0
H1316 H 0.76229 0.42185 0.9284 0.0
H1317 H 0.87463 0.51485 0.90422 0.0
H1318 H 0.73442 0.3917 0.01401 0.0
H1319 H 0.95541 0.65541 0.98234 0.0
H1320 H 0.77348 0.42799 0.03837 0.0
H1321 H 0.90276 0.67241 0.99481 0.0
O1322 O 0.83441 0.43496 0.97167 0.0
H1323 H 0.0092 0.55638 0.93021 0.0
H1324 H 0.86518 0.42734 0.92263 0.0
H1325 H 0.93045 0.42512 0.91456 0.0
H1326 H 0.00311 0.49001 0.91831 0.0
H1327 H 0.94307 0.55707 0.93822 0.0
H1328 H 0.83856 0.48544 0.87898 0.0
H1329 H 0.76335 0.42307 0.87848 0.0
O1330 O 0.82445 0.43335 0.94576 0.0
C1331 C 0.77696 0.48735 0.9578 0.0
C1332 C 0.75798 0.41833 0.90349 0.0
C1333 C 0.8216 0.47126 0.88977 0.0
N1334 N 0.82067 0.46996 0.91777 0.0
C1335 C 0.77922 0.43576 0.9176 0.0
C1336 C 0.84182 0.48785 0.9041 0.0
C1337 C 0.77941 0.43625 0.8895 0.0
C1338 C 0.90973 0.58694 0.98095 0.0
N1339 N 0.86847 0.55442 0.98396 0.0
C1340 C 0.92274 0.6298 0.98482 0.0
C1341 C 0.89317 0.63933 0.99179 0.0
C1342 C 0.8512 0.606 0.99487 0.0
C1343 C 0.83938 0.56352 0.99086 0.0
C1344 C 0.82907 0.47756 0.02623 0.0
C1345 C 0.78562 0.43729 0.99906 0.0
C1346 C 0.84748 0.49354 0.01161 0.0
N1347 N 0.82568 0.47354 0.99826 0.0
C1348 C 0.76619 0.42038 0.01347 0.0
C1349 C 0.78814 0.44073 0.02713 0.0
C1350 C 0.82203 0.41464 0.9587 0.0
C1351 C 0.97772 0.52794 0.92848 0.0
C1352 C 0.89668 0.45566 0.92434 0.0
C1353 C 0.93352 0.45424 0.91972 0.0
C1354 C 0.97428 0.49067 0.92182 0.0
N1355 N 0.90031 0.49239 0.93082 0.0
C1356 C 0.94016 0.52819 0.93294 0.0
Co1357 Co 0.51036 0.35439 0.97934 0.0
Co1358 Co 0.51019 0.35916 0.939 0.0
O1359 O 0.48656 0.36075 0.95954 0.0
C1360 C 0.51352 0.43831 0.98417 0.0
O1361 O 0.53104 0.44981 0.97025 0.0
C1362 C 0.41818 0.29037 0.93659 0.0
O1363 O 0.42241 0.27693 0.95039 0.0
O1364 O 0.51151 0.30535 0.94445 0.0
O1365 O 0.52018 0.30865 0.97039 0.0
H1366 H 0.61247 0.34508 0.90232 0.0
H1367 H 0.42518 0.34985 0.97916 0.0
O1368 O 0.50163 0.40043 0.98925 0.0
H1369 H 0.39623 0.20794 0.99895 0.0
H1370 H 0.51489 0.34196 0.03778 0.0
H1371 H 0.58669 0.3466 0.98806 0.0
H1372 H 0.47059 0.26457 0.99223 0.0
H1373 H 0.48419 0.34809 0.01276 0.0
O1374 O 0.45014 0.32324 0.93038 0.0
H1375 H 0.58284 0.34785 0.928 0.0
H1376 H 0.48666 0.36695 0.90621 0.0
H1377 H 0.61828 0.33998 0.01277 0.0
H1378 H 0.35035 0.29427 0.9859 0.0
H1379 H 0.5824 0.33775 0.03788 0.0
H1380 H 0.33549 0.22265 0.9958 0.0
O1381 O 0.57014 0.39907 0.973 0.0
H1382 H 0.44345 0.45404 0.9355 0.0
H1383 H 0.57428 0.44415 0.92505 0.0
H1384 H 0.57431 0.51172 0.91884 0.0
H1385 H 0.50852 0.51694 0.92405 0.0
H1386 H 0.44494 0.38716 0.94163 0.0
H1387 H 0.51505 0.36404 0.88026 0.0
H1388 H 0.57848 0.35315 0.8782 0.0
O1389 O 0.57059 0.39487 0.94689 0.0
C1390 C 0.51864 0.29153 0.95721 0.0
C1391 C 0.5849 0.34997 0.90306 0.0
C1392 C 0.53016 0.36052 0.89068 0.0
N1393 N 0.53317 0.35776 0.91862 0.0
C1394 C 0.56804 0.3517 0.91758 0.0
C1395 C 0.51416 0.36203 0.90541 0.0
C1396 C 0.56577 0.35444 0.88954 0.0
C1397 C 0.41901 0.31894 0.98364 0.0
N1398 N 0.45223 0.31056 0.98538 0.0
C1399 C 0.37657 0.28754 0.98738 0.0
C1400 C 0.36824 0.24733 0.99291 0.0
C1401 C 0.4023 0.23904 0.99466 0.0
C1402 C 0.44433 0.2712 0.99079 0.0
C1403 C 0.53091 0.34302 0.02693 0.0
C1404 C 0.57081 0.34556 0.99893 0.0
C1405 C 0.51379 0.34674 0.01273 0.0
N1406 N 0.53378 0.34807 0.99898 0.0
C1407 C 0.58888 0.34184 0.01289 0.0
C1408 C 0.56875 0.34062 0.02697 0.0
C1409 C 0.58979 0.40936 0.95989 0.0
C1410 C 0.47227 0.45212 0.93314 0.0
C1411 C 0.54556 0.4462 0.92738 0.0
C1412 C 0.54574 0.48452 0.92381 0.0
C1413 C 0.50881 0.48742 0.92673 0.0
N1414 N 0.50955 0.41168 0.93362 0.0
C1415 C 0.47324 0.41429 0.93653 0.0
Co1416 Co 0.51487 0.68908 0.81106 0.0
Co1417 Co 0.51022 0.68255 0.77087 0.0
O1418 O 0.54097 0.69155 0.79072 0.0
C1419 C 0.59537 0.77507 0.8136 0.0
O1420 O 0.58537 0.78591 0.80025 0.0
C1421 C 0.54125 0.61962 0.76898 0.0
O1422 O 0.52591 0.60726 0.78314 0.0
O1423 O 0.4597 0.62738 0.77849 0.0
O1424 O 0.45763 0.64073 0.80395 0.0
H1425 H 0.38191 0.64769 0.73686 0.0
H1426 H 0.59589 0.68557 0.80889 0.0
O1427 O 0.57131 0.73726 0.81911 0.0
H1428 H 0.4913 0.5496 0.83493 0.0
H1429 H 0.51114 0.69084 0.86982 0.0
H1430 H 0.43167 0.68068 0.82146 0.0
H1431 H 0.47049 0.60348 0.82747 0.0
H1432 H 0.54349 0.69348 0.84411 0.0
O1433 O 0.5381 0.64989 0.76237 0.0
H1434 H 0.42078 0.6592 0.76175 0.0
H1435 H 0.53563 0.68684 0.73747 0.0
H1436 H 0.39798 0.67751 0.84691 0.0
H1437 H 0.61839 0.6329 0.81634 0.0
H1438 H 0.43777 0.68254 0.87133 0.0
H1439 H 0.56582 0.5642 0.82937 0.0
O1440 O 0.49717 0.73156 0.80408 0.0
H1441 H 0.66808 0.78929 0.76255 0.0
H1442 H 0.51903 0.76146 0.75534 0.0
H1443 H 0.58066 0.83129 0.74684 0.0
H1444 H 0.65582 0.84555 0.75042 0.0
H1445 H 0.60549 0.72001 0.77098 0.0
H1446 H 0.49795 0.6753 0.71228 0.0
H1447 H 0.42057 0.65573 0.71186 0.0
O1448 O 0.48139 0.71446 0.77871 0.0
C1449 C 0.44051 0.61829 0.79171 0.0
C1450 C 0.41567 0.65633 0.73687 0.0
C1451 C 0.48077 0.67176 0.72309 0.0
N1452 N 0.48048 0.67391 0.75109 0.0
C1453 C 0.43788 0.66301 0.75095 0.0
C1454 C 0.50191 0.67814 0.73739 0.0
C1455 C 0.43736 0.6608 0.72286 0.0
C1456 C 0.57293 0.65593 0.81469 0.0
N1457 N 0.53178 0.64753 0.81769 0.0
C1458 C 0.58583 0.62617 0.81884 0.0
C1459 C 0.5563 0.5876 0.82612 0.0
C1460 C 0.51447 0.57936 0.82922 0.0
C1461 C 0.50274 0.60987 0.82489 0.0
C1462 C 0.49345 0.68852 0.85926 0.0
C1463 C 0.44916 0.68276 0.83203 0.0
C1464 C 0.51164 0.69009 0.84467 0.0
N1465 N 0.48935 0.68685 0.83129 0.0
C1466 C 0.42993 0.68102 0.84641 0.0
C1467 C 0.45228 0.68386 0.8601 0.0
C1468 C 0.4808 0.73387 0.79111 0.0
C1469 C 0.63547 0.78341 0.76088 0.0
C1470 C 0.55165 0.76743 0.75694 0.0
C1471 C 0.58641 0.80701 0.75208 0.0
C1472 C 0.62857 0.81498 0.75409 0.0
N1473 N 0.55868 0.7366 0.76355 0.0
C1474 C 0.59992 0.74418 0.76557 0.0
Co1475 Co 0.30875 0.8195 0.80973 0.0
Co1476 Co 0.30803 0.82366 0.7694 0.0
O1477 O 0.30591 0.84612 0.79009 0.0
C1478 C 0.22651 0.81988 0.81362 0.0
O1479 O 0.21578 0.80243 0.79967 0.0
C1480 C 0.37659 0.9167 0.76748 0.0
O1481 O 0.38858 0.91408 0.78173 0.0
O1482 O 0.36108 0.82102 0.77514 0.0
O1483 O 0.3534 0.80764 0.80096 0.0
H1484 H 0.32491 0.72495 0.73172 0.0
H1485 H 0.31803 0.90683 0.81039 0.0
O1486 O 0.26355 0.83028 0.8192 0.0
H1487 H 0.45471 0.92584 0.83197 0.0
H1488 H 0.31132 0.80733 0.86823 0.0
H1489 H 0.31376 0.74128 0.81796 0.0
H1490 H 0.39651 0.85365 0.82374 0.0
H1491 H 0.30897 0.84111 0.8434 0.0
O1492 O 0.34475 0.88398 0.76116 0.0
H1493 H 0.32174 0.75306 0.75766 0.0
H1494 H 0.29913 0.84803 0.73686 0.0
H1495 H 0.3164 0.7066 0.84249 0.0
H1496 H 0.37524 0.97958 0.8186 0.0
H1497 H 0.31518 0.73966 0.86787 0.0
H1498 H 0.44422 0.98941 0.82945 0.0
O1499 O 0.2629 0.76104 0.80261 0.0
H1500 H 0.21496 0.89255 0.76685 0.0
H1501 H 0.22319 0.76173 0.75465 0.0
H1502 H 0.15618 0.76304 0.74876 0.0
H1503 H 0.15176 0.82885 0.75487 0.0
H1504 H 0.28121 0.88962 0.77268 0.0
H1505 H 0.30251 0.82129 0.71066 0.0
H1506 H 0.31526 0.75916 0.70796 0.0
O1507 O 0.27155 0.76264 0.77667 0.0
C1508 C 0.37215 0.8111 0.78799 0.0
C1509 C 0.31928 0.75201 0.73273 0.0
C1510 C 0.30669 0.80606 0.72092 0.0
N1511 N 0.31004 0.80199 0.74881 0.0
C1512 C 0.31741 0.76804 0.74741 0.0
C1513 C 0.30491 0.82112 0.73579 0.0
C1514 C 0.31386 0.77121 0.71941 0.0
C1515 C 0.3478 0.91083 0.81524 0.0
N1516 N 0.35384 0.87604 0.81666 0.0
C1517 C 0.38014 0.9521 0.81981 0.0
C1518 C 0.41886 0.95761 0.82587 0.0
C1519 C 0.42478 0.92195 0.82728 0.0
C1520 C 0.39175 0.88118 0.82257 0.0
C1521 C 0.31194 0.79267 0.85724 0.0
C1522 C 0.31346 0.75603 0.82895 0.0
C1523 C 0.31054 0.8116 0.84315 0.0
N1524 N 0.31149 0.79335 0.82924 0.0
C1525 C 0.31486 0.73616 0.8428 0.0
C1526 C 0.31412 0.7547 0.85703 0.0
C1527 C 0.25482 0.74239 0.78932 0.0
C1528 C 0.21651 0.86371 0.76411 0.0
C1529 C 0.22147 0.79036 0.7574 0.0
C1530 C 0.18348 0.791 0.75399 0.0
C1531 C 0.18104 0.82794 0.75741 0.0
N1532 N 0.25612 0.82556 0.76399 0.0
C1533 C 0.25399 0.86193 0.76733 0.0
Co1534 Co 0.17253 0.48575 0.81213 0.0
Co1535 Co 0.17461 0.47931 0.77184 0.0
O1536 O 0.1498 0.45484 0.79236 0.0
C1537 C 0.17505 0.40496 0.81753 0.0
O1538 O 0.1932 0.41092 0.80373 0.0
C1539 C 0.08215 0.45466 0.76851 0.0
O1540 O 0.08421 0.47025 0.78255 0.0
O1541 O 0.1754 0.53452 0.77667 0.0
O1542 O 0.18234 0.54077 0.80267 0.0
H1543 H 0.27895 0.59459 0.73529 0.0
H1544 H 0.08756 0.40478 0.81183 0.0
O1545 O 0.16353 0.43136 0.82247 0.0
H1546 H 0.05723 0.51778 0.83054 0.0
H1547 H 0.17483 0.50444 0.87046 0.0
H1548 H 0.24737 0.57098 0.82078 0.0
H1549 H 0.13186 0.53576 0.82417 0.0
H1550 H 0.14561 0.46639 0.84551 0.0
O1551 O 0.11511 0.45493 0.76264 0.0
H1552 H 0.24772 0.56305 0.76091 0.0
H1553 H 0.15363 0.44659 0.73912 0.0
H1554 H 0.27741 0.61044 0.84541 0.0
H1555 H 0.01246 0.38527 0.81822 0.0
H1556 H 0.24115 0.5771 0.87051 0.0
H1557 H 0.99691 0.44204 0.8276 0.0
O1558 O 0.23279 0.50104 0.80639 0.0
H1559 H 0.10805 0.3176 0.76927 0.0
H1560 H 0.2396 0.45793 0.75906 0.0
H1561 H 0.24 0.39017 0.75367 0.0
H1562 H 0.17385 0.31935 0.75875 0.0
H1563 H 0.10919 0.38618 0.77461 0.0
H1564 H 0.18351 0.47708 0.71323 0.0
H1565 H 0.24673 0.55155 0.7112 0.0
O1566 O 0.23457 0.5044 0.78025 0.0
C1567 C 0.18148 0.55582 0.78929 0.0
C1568 C 0.25145 0.56208 0.73601 0.0
C1569 C 0.19785 0.49615 0.72364 0.0
N1570 N 0.1989 0.503 0.75152 0.0
C1571 C 0.23368 0.54399 0.7505 0.0
C1572 C 0.18097 0.47911 0.73833 0.0
C1573 C 0.23333 0.53793 0.72251 0.0
C1574 C 0.08108 0.42956 0.81606 0.0
N1575 N 0.11406 0.47131 0.81769 0.0
C1576 C 0.03848 0.41836 0.81959 0.0
C1577 C 0.02977 0.45025 0.82483 0.0
C1578 C 0.0636 0.49276 0.82647 0.0
C1579 C 0.10578 0.50278 0.8228 0.0
C1580 C 0.191 0.51926 0.85961 0.0
C1581 C 0.2313 0.55629 0.83164 0.0
C1582 C 0.17472 0.49773 0.84546 0.0
N1583 N 0.19488 0.51626 0.83172 0.0
C1584 C 0.24851 0.57879 0.84556 0.0
C1585 C 0.22817 0.56005 0.85963 0.0
C1586 C 0.25315 0.50986 0.79343 0.0
C1587 C 0.13703 0.34825 0.76696 0.0
C1588 C 0.21073 0.42725 0.76135 0.0
C1589 C 0.21111 0.38898 0.75823 0.0
C1590 C 0.17398 0.34926 0.76108 0.0
N1591 N 0.17432 0.42598 0.76708 0.0
C1592 C 0.13781 0.38717 0.76991 0.0
Co1593 Co 0.34971 0.84581 0.02174 0.0
Co1594 Co 0.35198 0.84609 0.06213 0.0
O1595 O 0.35582 0.87397 0.04198 0.0
C1596 C 0.43439 0.92668 0.01753 0.0
O1597 O 0.4462 0.91906 0.03114 0.0
C1598 C 0.28603 0.87319 0.06506 0.0
O1599 O 0.27244 0.85697 0.05108 0.0
O1600 O 0.29719 0.79263 0.05594 0.0
O1601 O 0.30336 0.78932 0.03003 0.0
H1602 H 0.33137 0.72399 0.09708 0.0
H1603 H 0.34673 0.92715 0.02345 0.0
O1604 O 0.39633 0.90137 0.01245 0.0
H1605 H 0.20487 0.81873 0.00211 0.0
H1606 H 0.33685 0.83478 0.96316 0.0
H1607 H 0.34214 0.76276 0.01151 0.0
H1608 H 0.26032 0.79893 0.00821 0.0
H1609 H 0.34368 0.86924 0.98875 0.0
O1610 O 0.31778 0.87168 0.07119 0.0
H1611 H 0.33648 0.7596 0.07189 0.0
H1612 H 0.35973 0.87429 0.09534 0.0
H1613 H 0.33473 0.72682 0.98622 0.0
H1614 H 0.29248 0.94863 0.01731 0.0
H1615 H 0.33208 0.7629 0.96179 0.0
H1616 H 0.22085 0.89415 0.00665 0.0
O1617 O 0.39356 0.82896 0.02771 0.0
H1618 H 0.45216 0.00639 0.06788 0.0
H1619 H 0.43531 0.8618 0.07606 0.0
H1620 H 0.50423 0.92691 0.0831 0.0
H1621 H 0.51295 0.99985 0.07904 0.0
H1622 H 0.38388 0.9404 0.0609 0.0
H1623 H 0.35455 0.83977 0.1208 0.0
H1624 H 0.34041 0.76414 0.12178 0.0
O1625 O 0.38573 0.81987 0.05377 0.0
C1626 C 0.28491 0.77256 0.04294 0.0
C1627 C 0.33763 0.75699 0.09681 0.0
C1628 C 0.35058 0.82196 0.11012 0.0
N1629 N 0.34853 0.81904 0.08213 0.0
C1630 C 0.34065 0.77738 0.08257 0.0
C1631 C 0.35335 0.84129 0.09567 0.0
C1632 C 0.34266 0.77952 0.11066 0.0
C1633 C 0.31581 0.90337 0.01865 0.0
N1634 N 0.30672 0.86178 0.01618 0.0
C1635 C 0.28517 0.91569 0.01525 0.0
C1636 C 0.24496 0.88509 0.00929 0.0
C1637 C 0.23595 0.84276 0.00677 0.0
C1638 C 0.26739 0.83162 0.01032 0.0
C1639 C 0.33807 0.81876 0.97371 0.0
C1640 C 0.34111 0.77873 1.00095 0.0
C1641 C 0.3422 0.83827 0.98823 0.0
N1642 N 0.34358 0.8182 0.00162 0.0
C1643 C 0.33687 0.75819 0.98665 0.0
C1644 C 0.33537 0.77843 0.97295 0.0
C1645 C 0.40144 0.81707 0.04078 0.0
C1646 C 0.4487 0.97478 0.06975 0.0
C1647 C 0.43887 0.89343 0.07424 0.0
C1648 C 0.47795 0.93018 0.07827 0.0
C1649 C 0.48282 0.97109 0.07599 0.0
N1650 N 0.40552 0.89733 0.06817 0.0
C1651 C 0.41007 0.93732 0.06588 0.0
Co1652 Co 0.15248 0.50165 0.02547 0.0
Co1653 Co 0.15301 0.50757 0.06585 0.0
O1654 O 0.12514 0.48156 0.0459 0.0
C1655 C 0.07406 0.50958 0.02158 0.0
O1656 O 0.08369 0.53051 0.03491 0.0
C1657 C 0.13034 0.41594 0.06894 0.0
O1658 O 0.14656 0.41945 0.05492 0.0
O1659 O 0.20789 0.50909 0.05969 0.0
O1660 O 0.20833 0.50958 0.03353 0.0
H1661 H 0.27313 0.615 0.10018 0.0
H1662 H 0.06985 0.41899 0.02853 0.0
O1663 O 0.09731 0.49437 0.01653 0.0
H1664 H 0.1718 0.37971 0.00503 0.0
H1665 H 0.15872 0.49976 0.96675 0.0
H1666 H 0.23776 0.57261 0.01478 0.0
H1667 H 0.19483 0.4559 0.01093 0.0
H1668 H 0.12475 0.47401 0.99255 0.0
O1669 O 0.13043 0.44841 0.07518 0.0
H1670 H 0.23794 0.58192 0.07518 0.0
H1671 H 0.126 0.4875 0.09916 0.0
H1672 H 0.27305 0.59911 0.98926 0.0
H1673 H 0.04509 0.34237 0.02261 0.0
H1674 H 0.23347 0.56261 0.965 0.0
H1675 H 0.09632 0.32227 0.01087 0.0
O1676 O 0.17171 0.56314 0.03098 0.0
H1677 H 0.99182 0.4401 0.07188 0.0
H1678 H 0.13311 0.57268 0.07948 0.0
H1679 H 0.06607 0.57288 0.08643 0.0
H1680 H 0.99478 0.50622 0.08266 0.0
H1681 H 0.05967 0.44144 0.06496 0.0
H1682 H 0.16016 0.51935 0.12445 0.0
H1683 H 0.23418 0.58367 0.12506 0.0
O1684 O 0.17605 0.56691 0.05712 0.0
C1685 C 0.22629 0.51191 0.04661 0.0
C1686 C 0.24083 0.58703 0.10007 0.0
C1687 C 0.17744 0.53331 0.11369 0.0
N1688 N 0.17987 0.53295 0.08571 0.0
C1689 C 0.22068 0.56821 0.08595 0.0
C1690 C 0.15831 0.51534 0.09934 0.0
C1691 C 0.21897 0.56941 0.11403 0.0
C1692 C 0.09225 0.41054 0.02331 0.0
N1693 N 0.13391 0.44192 0.02016 0.0
C1694 C 0.07806 0.36709 0.02001 0.0
C1695 C 0.10683 0.35583 0.01344 0.0
C1696 C 0.1492 0.38802 0.0102 0.0
C1697 C 0.16222 0.43113 0.01365 0.0
C1698 C 0.17633 0.51587 0.97724 0.0
C1699 C 0.22039 0.55634 0.00429 0.0
C1700 C 0.15722 0.50149 0.99188 0.0
N1701 N 0.17938 0.52152 0.00517 0.0
C1702 C 0.24052 0.5716 0.98987 0.0
C1703 C 0.21828 0.55113 0.97626 0.0
C1704 C 0.18112 0.58447 0.04375 0.0
C1705 C 0.0227 0.46931 0.07362 0.0
C1706 C 0.10221 0.54357 0.07778 0.0
C1707 C 0.06436 0.54385 0.08176 0.0
C1708 C 0.02437 0.50643 0.07965 0.0
N1709 N 0.1003 0.50699 0.07191 0.0
C1710 C 0.06122 0.4702 0.06978 0.0
Co1711 Co 0.49032 0.6442 0.02454 0.0
Co1712 Co 0.49365 0.64987 0.06469 0.0
O1713 O 0.51701 0.64476 0.04458 0.0
C1714 C 0.49537 0.56424 0.02236 0.0
O1715 O 0.47798 0.55461 0.03633 0.0
C1716 C 0.58653 0.71764 0.06638 0.0
O1717 O 0.58285 0.72933 0.0522 0.0
O1718 O 0.49275 0.70276 0.0575 0.0
O1719 O 0.47479 0.68739 0.03222 0.0
H1720 H 0.39262 0.67157 0.0995 0.0
H1721 H 0.57956 0.65839 0.02488 0.0
O1722 O 0.50432 0.60017 0.01613 0.0
H1723 H 0.5919 0.79006 1.0011 0.0
H1724 H 0.48011 0.64028 0.96589 0.0
H1725 H 0.40952 0.6427 0.01502 0.0
H1726 H 0.52074 0.72997 0.00933 0.0
H1727 H 0.51416 0.643 0.99123 0.0
O1728 O 0.55387 0.6866 0.07307 0.0
H1729 H 0.42219 0.6647 0.07435 0.0
H1730 H 0.5169 0.64681 0.09794 0.0
H1731 H 0.37445 0.64022 0.98998 0.0
H1732 H 0.65133 0.71753 0.01667 0.0
H1733 H 0.40978 0.63896 0.96515 0.0
H1734 H 0.65782 0.78402 0.00475 0.0
O1735 O 0.433 0.59706 0.03185 0.0
H1736 H 0.5587 0.55421 0.07134 0.0
H1737 H 0.42924 0.56763 0.08027 0.0
H1738 H 0.42828 0.50056 0.08806 0.0
H1739 H 0.49335 0.49353 0.08359 0.0
H1740 H 0.55816 0.62062 0.06364 0.0
H1741 H 0.48858 0.65388 0.12336 0.0
H1742 H 0.42589 0.66617 0.12425 0.0
O1743 O 0.4328 0.61305 0.05713 0.0
C1744 C 0.47956 0.70939 0.04451 0.0
C1745 C 0.41989 0.66611 0.09927 0.0
C1746 C 0.47378 0.65624 0.11266 0.0
N1747 N 0.47106 0.65508 0.08467 0.0
C1748 C 0.43672 0.6621 0.08506 0.0
C1749 C 0.48974 0.65237 0.09823 0.0
C1750 C 0.43859 0.66311 0.11315 0.0
C1751 C 0.5821 0.68703 0.01953 0.0
N1752 N 0.54603 0.69065 0.01751 0.0
C1753 C 0.62282 0.72047 0.01497 0.0
C1754 C 0.62645 0.75781 0.00831 0.0
C1755 C 0.58948 0.76123 0.00627 0.0
C1756 C 0.5493 0.72715 0.01098 0.0
C1757 C 0.46444 0.64091 0.97662 0.0
C1758 C 0.4253 0.64255 0.00429 0.0
C1759 C 0.48355 0.64239 0.99101 0.0
N1760 N 0.46402 0.64333 0.00461 0.0
C1761 C 0.4052 0.64098 0.99013 0.0
C1762 C 0.425 0.64019 0.97622 0.0
C1763 C 0.41351 0.59224 0.04482 0.0
C1764 C 0.5302 0.55694 0.0734 0.0
C1765 C 0.45769 0.56484 0.07829 0.0
C1766 C 0.45697 0.5268 0.08275 0.0
C1767 C 0.4935 0.52288 0.08025 0.0
N1768 N 0.49381 0.5981 0.07158 0.0
C1769 C 0.52978 0.59453 0.06912 0.0
Co1770 Co 0.15174 0.64492 0.52572 0.0
Co1771 Co 0.15567 0.64481 0.56608 0.0
O1772 O 0.12583 0.63987 0.54631 0.0
C1773 C 0.07216 0.55853 0.52276 0.0
O1774 O 0.08215 0.54745 0.53607 0.0
C1775 C 0.12946 0.71124 0.56883 0.0
O1776 O 0.14487 0.72372 0.5547 0.0
O1777 O 0.2088 0.6989 0.5591 0.0
O1778 O 0.20841 0.69323 0.53304 0.0
H1779 H 0.28064 0.66657 0.59963 0.0
H1780 H 0.06972 0.64611 0.52893 0.0
O1781 O 0.09577 0.59667 0.51746 0.0
H1782 H 0.1715 0.7852 0.50404 0.0
H1783 H 0.15398 0.64801 0.46694 0.0
H1784 H 0.23567 0.65672 0.51453 0.0
H1785 H 0.19413 0.73198 0.51035 0.0
H1786 H 0.12211 0.64279 0.49295 0.0
O1787 O 0.13141 0.68004 0.57523 0.0
H1788 H 0.24281 0.66032 0.57485 0.0
H1789 H 0.13076 0.6396 0.59959 0.0
H1790 H 0.26889 0.66245 0.48877 0.0
H1791 H 0.04539 0.69808 0.52263 0.0
H1792 H 0.22796 0.6581 0.46474 0.0
H1793 H 0.09653 0.76833 0.51018 0.0
O1794 O 0.1707 0.60272 0.53166 0.0
H1795 H 0.99569 0.54606 0.57355 0.0
H1796 H 0.14037 0.56232 0.58069 0.0
H1797 H 0.0755 0.49411 0.58849 0.0
H1798 H 0.00251 0.48567 0.58493 0.0
H1799 H 0.06143 0.61362 0.56581 0.0
H1800 H 0.16752 0.64598 0.62465 0.0
H1801 H 0.24294 0.65939 0.62477 0.0
O1802 O 0.18032 0.6097 0.5576 0.0
C1803 C 0.22673 0.71183 0.54576 0.0
C1804 C 0.24774 0.66062 0.59973 0.0
C1805 C 0.18427 0.64913 0.61378 0.0
N1806 N 0.18455 0.6494 0.58577 0.0
C1807 C 0.22611 0.65696 0.58574 0.0
C1808 C 0.16366 0.64566 0.59955 0.0
C1809 C 0.22658 0.65663 0.61383 0.0
C1810 C 0.09206 0.67646 0.52339 0.0
N1811 N 0.13344 0.68608 0.52007 0.0
C1812 C 0.07812 0.7058 0.51988 0.0
C1813 C 0.10685 0.74523 0.51292 0.0
C1814 C 0.14893 0.75475 0.50951 0.0
C1815 C 0.16171 0.72461 0.51318 0.0
C1816 C 0.17216 0.65002 0.47733 0.0
C1817 C 0.21771 0.65501 0.50413 0.0
C1818 C 0.15424 0.64698 0.49209 0.0
N1819 N 0.1771 0.64973 0.50526 0.0
C1820 C 0.23667 0.65817 0.48957 0.0
C1821 C 0.21368 0.65569 0.4761 0.0
C1822 C 0.18311 0.5943 0.54452 0.0
C1823 C 0.02733 0.5494 0.5752 0.0
C1824 C 0.10873 0.55889 0.57909 0.0
C1825 C 0.07211 0.52021 0.58355 0.0
C1826 C 0.03117 0.5155 0.58156 0.0
N1827 N 0.10469 0.59201 0.57288 0.0
C1828 C 0.06466 0.58763 0.57089 0.0
Co1829 Co 0.35829 0.50768 0.52469 0.0
Co1830 Co 0.35766 0.50703 0.56512 0.0
O1831 O 0.36159 0.48356 0.54485 0.0
C1832 C 0.44341 0.51143 0.52103 0.0
O1833 O 0.45612 0.53244 0.53433 0.0
C1834 C 0.28846 0.41448 0.56724 0.0
O1835 O 0.27778 0.41649 0.55273 0.0
O1836 O 0.30513 0.50959 0.55844 0.0
O1837 O 0.31107 0.51713 0.53244 0.0
H1838 H 0.33968 0.60947 0.60046 0.0
H1839 H 0.35383 0.42265 0.5263 0.0
O1840 O 0.40536 0.49874 0.51599 0.0
H1841 H 0.21711 0.39317 0.50135 0.0
H1842 H 0.3558 0.51363 0.46596 0.0
H1843 H 0.35059 0.58336 0.51496 0.0
H1844 H 0.27174 0.46744 0.50897 0.0
H1845 H 0.35922 0.48315 0.49138 0.0
O1846 O 0.31992 0.44733 0.57364 0.0
H1847 H 0.34479 0.57943 0.57515 0.0
H1848 H 0.36245 0.48401 0.59829 0.0
H1849 H 0.34661 0.61468 0.4898 0.0
H1850 H 0.30041 0.34786 0.51869 0.0
H1851 H 0.34921 0.57976 0.46506 0.0
H1852 H 0.23136 0.3327 0.50618 0.0
O1853 O 0.40186 0.56777 0.53146 0.0
H1854 H 0.44896 0.43678 0.57048 0.0
H1855 H 0.44079 0.56833 0.5811 0.0
H1856 H 0.50644 0.5662 0.58857 0.0
H1857 H 0.51078 0.49995 0.58329 0.0
H1858 H 0.38413 0.44064 0.56305 0.0
H1859 H 0.35701 0.51269 0.62385 0.0
H1860 H 0.34577 0.57602 0.62505 0.0
O1861 O 0.39518 0.56732 0.5575 0.0
C1862 C 0.29271 0.51633 0.54527 0.0
C1863 C 0.34465 0.58191 0.6001 0.0
C1864 C 0.35437 0.52759 0.61322 0.0
N1865 N 0.35411 0.53012 0.58523 0.0
C1866 C 0.34765 0.56479 0.5858 0.0
C1867 C 0.35729 0.5114 0.59871 0.0
C1868 C 0.34806 0.56312 0.61389 0.0
C1869 C 0.32398 0.41636 0.52078 0.0
N1870 N 0.31581 0.44943 0.51816 0.0
C1871 C 0.2938 0.37392 0.51653 0.0
C1872 C 0.25505 0.36543 0.50953 0.0
C1873 C 0.24701 0.39932 0.50685 0.0
C1874 C 0.27793 0.44134 0.51127 0.0
C1875 C 0.35463 0.52914 0.47666 0.0
C1876 C 0.35164 0.56789 0.50425 0.0
C1877 C 0.35673 0.51211 0.49109 0.0
N1878 N 0.355 0.53134 0.50466 0.0
C1879 C 0.34943 0.58582 0.49003 0.0
C1880 C 0.35091 0.56623 0.47616 0.0
C1881 C 0.41084 0.58701 0.54467 0.0
C1882 C 0.44748 0.46584 0.57284 0.0
C1883 C 0.4426 0.53966 0.57862 0.0
C1884 C 0.47977 0.5385 0.58296 0.0
C1885 C 0.48217 0.50131 0.58001 0.0
N1886 N 0.40872 0.50479 0.57158 0.0
C1887 C 0.41081 0.46818 0.56869 0.0
Co1888 Co 0.49258 0.84515 0.5233 0.0
Co1889 Co 0.49396 0.84975 0.56361 0.0
O1890 O 0.51727 0.87512 0.54307 0.0
C1891 C 0.49261 0.92763 0.51867 0.0
O1892 O 0.47431 0.92147 0.53245 0.0
C1893 C 0.58627 0.874 0.56591 0.0
O1894 O 0.58215 0.85633 0.55211 0.0
O1895 O 0.49335 0.79507 0.558 0.0
O1896 O 0.48163 0.78907 0.53221 0.0
H1897 H 0.39279 0.7326 0.60027 0.0
H1898 H 0.57896 0.92442 0.52339 0.0
O1899 O 0.5029 0.90055 0.51348 0.0
H1900 H 0.60342 0.80919 0.50284 0.0
H1901 H 0.48558 0.82865 0.46481 0.0
H1902 H 0.41534 0.76159 0.51473 0.0
H1903 H 0.5299 0.79335 0.50998 0.0
H1904 H 0.5174 0.86525 0.48976 0.0
O1905 O 0.55412 0.87445 0.57216 0.0
H1906 H 0.42203 0.76532 0.57459 0.0
H1907 H 0.51749 0.88098 0.59641 0.0
H1908 H 0.3826 0.72364 0.49009 0.0
H1909 H 0.65297 0.9418 0.51623 0.0
H1910 H 0.41772 0.75723 0.46488 0.0
H1911 H 0.66559 0.8839 0.50595 0.0
O1912 O 0.43332 0.83151 0.52983 0.0
H1913 H 0.55913 0.01116 0.56723 0.0
H1914 H 0.42937 0.86966 0.57777 0.0
H1915 H 0.42858 0.93676 0.58409 0.0
H1916 H 0.49383 0.00816 0.57884 0.0
H1917 H 0.5584 0.94322 0.56099 0.0
H1918 H 0.48948 0.84936 0.62235 0.0
H1919 H 0.42661 0.7747 0.62439 0.0
O1920 O 0.43336 0.82449 0.55583 0.0
C1921 C 0.48469 0.77379 0.54526 0.0
C1922 C 0.42013 0.76521 0.59953 0.0
C1923 C 0.47445 0.83071 0.61193 0.0
N1924 N 0.47131 0.82509 0.58399 0.0
C1925 C 0.43676 0.78397 0.58502 0.0
C1926 C 0.49024 0.8484 0.59721 0.0
C1927 C 0.43915 0.78883 0.61306 0.0
C1928 C 0.58413 0.89917 0.51876 0.0
N1929 N 0.55012 0.85798 0.51704 0.0
C1930 C 0.62613 0.90916 0.51478 0.0
C1931 C 0.63319 0.87664 0.50903 0.0
C1932 C 0.59833 0.8347 0.50731 0.0
C1933 C 0.55678 0.8259 0.51141 0.0
C1934 C 0.46993 0.81371 0.47571 0.0
C1935 C 0.43092 0.77637 0.50382 0.0
C1936 C 0.4877 0.8344 0.48987 0.0
N1937 N 0.46821 0.8157 0.50369 0.0
C1938 C 0.41219 0.75474 0.4899 0.0
C1939 C 0.43188 0.77362 0.47576 0.0
C1940 C 0.41389 0.82099 0.54298 0.0
C1941 C 0.53054 0.98025 0.56962 0.0
C1942 C 0.45786 0.9006 0.57542 0.0
C1943 C 0.45725 0.93849 0.57905 0.0
C1944 C 0.49388 0.97854 0.57611 0.0
N1945 N 0.49399 0.90255 0.56909 0.0
C1946 C 0.53 0.94169 0.56616 0.0
Co1947 Co 0.3123 0.48703 0.30976 0.0
Co1948 Co 0.30479 0.48077 0.26937 0.0
O1949 O 0.30572 0.45708 0.28994 0.0
C1950 C 0.22795 0.40691 0.31422 0.0
O1951 O 0.21706 0.41418 0.3004 0.0
C1952 C 0.37543 0.45954 0.26668 0.0
O1953 O 0.38774 0.47458 0.28087 0.0
O1954 O 0.35696 0.53795 0.27447 0.0
O1955 O 0.35832 0.54226 0.30073 0.0
H1956 H 0.31016 0.59158 0.23169 0.0
H1957 H 0.31596 0.40585 0.30946 0.0
O1958 O 0.26576 0.43226 0.31952 0.0
H1959 H 0.45774 0.51773 0.32978 0.0
H1960 H 0.32114 0.50164 0.36829 0.0
H1961 H 0.32357 0.57252 0.3186 0.0
H1962 H 0.40179 0.53621 0.32278 0.0
H1963 H 0.31423 0.46472 0.34321 0.0
O1964 O 0.34268 0.45912 0.26056 0.0
H1965 H 0.31108 0.56216 0.2576 0.0
H1966 H 0.29557 0.44711 0.23691 0.0
H1967 H 0.33082 0.61066 0.34339 0.0
H1968 H 0.37088 0.38586 0.31643 0.0
H1969 H 0.32961 0.57517 0.36848 0.0
H1970 H 0.44239 0.44207 0.32664 0.0
O1971 O 0.26834 0.50325 0.30354 0.0
H1972 H 0.21636 0.31833 0.26719 0.0
H1973 H 0.21758 0.45477 0.25629 0.0
H1974 H 0.15136 0.38501 0.25109 0.0
H1975 H 0.15049 0.31614 0.25654 0.0
H1976 H 0.28177 0.38882 0.27235 0.0
H1977 H 0.29492 0.47535 0.21072 0.0
H1978 H 0.3021 0.54804 0.20798 0.0
O1979 O 0.2674 0.50338 0.27737 0.0
C1980 C 0.37265 0.5581 0.2873 0.0
C1981 C 0.30703 0.55987 0.23272 0.0
C1982 C 0.29849 0.49466 0.22096 0.0
N1983 N 0.30352 0.50307 0.24882 0.0
C1984 C 0.30753 0.54307 0.24739 0.0
C1985 C 0.29905 0.47891 0.23582 0.0
C1986 C 0.30251 0.53544 0.21943 0.0
C1987 C 0.34687 0.43036 0.31404 0.0
N1988 N 0.35558 0.47205 0.3158 0.0
C1989 C 0.37789 0.41891 0.31791 0.0
C1990 C 0.41804 0.45048 0.32361 0.0
C1991 C 0.42668 0.49295 0.32537 0.0
C1992 C 0.3949 0.50323 0.32136 0.0
C1993 C 0.32179 0.51745 0.35744 0.0
C1994 C 0.32332 0.55696 0.32946 0.0
C1995 C 0.31782 0.49668 0.3432 0.0
N1996 N 0.31878 0.51654 0.32945 0.0
C1997 C 0.32731 0.57868 0.34346 0.0
C1998 C 0.32656 0.55873 0.35753 0.0
C1999 C 0.25556 0.51043 0.29055 0.0
C2000 C 0.21638 0.34811 0.26472 0.0
C2001 C 0.21745 0.42494 0.2587 0.0
C2002 C 0.17988 0.38554 0.25571 0.0
C2003 C 0.17942 0.34691 0.25876 0.0
N2004 N 0.25359 0.42584 0.26452 0.0
C2005 C 0.25339 0.38812 0.26755 0.0
Co2006 Co 0.50893 0.82031 0.31171 0.0
Co2007 Co 0.51222 0.8259 0.27158 0.0
O2008 O 0.53897 0.84706 0.29213 0.0
C2009 C 0.59191 0.82094 0.31605 0.0
O2010 O 0.58576 0.80268 0.30226 0.0
C2011 C 0.54356 0.92033 0.26932 0.0
O2012 O 0.52881 0.91879 0.28348 0.0
O2013 O 0.46042 0.83004 0.27783 0.0
O2014 O 0.45257 0.80943 0.30289 0.0
H2015 H 0.39035 0.73412 0.23482 0.0
H2016 H 0.58745 0.90725 0.31248 0.0
O2017 O 0.56452 0.83066 0.32136 0.0
H2018 H 0.4708 0.92736 0.33441 0.0
H2019 H 0.49163 0.80766 0.37015 0.0
H2020 H 0.42553 0.74192 0.31957 0.0
H2021 H 0.45598 0.85511 0.32594 0.0
H2022 H 0.52871 0.84173 0.34549 0.0
O2023 O 0.54088 0.88655 0.26319 0.0
H2024 H 0.4246 0.76033 0.2605 0.0
H2025 H 0.5441 0.84731 0.23879 0.0
H2026 H 0.3871 0.70702 0.34392 0.0
H2027 H 0.60383 0.98003 0.32097 0.0
H2028 H 0.42019 0.73989 0.36945 0.0
H2029 H 0.54521 0.99045 0.33199 0.0
O2030 O 0.49614 0.76184 0.3044 0.0
H2031 H 0.67153 0.87925 0.26697 0.0
H2032 H 0.52472 0.75678 0.25704 0.0
H2033 H 0.58825 0.74994 0.25021 0.0
H2034 H 0.66231 0.81152 0.25514 0.0
H2035 H 0.60705 0.88455 0.27374 0.0
H2036 H 0.51109 0.82244 0.21282 0.0
H2037 H 0.43367 0.76535 0.21071 0.0
O2038 O 0.48227 0.76474 0.27901 0.0
C2039 C 0.43822 0.81715 0.29039 0.0
C2040 C 0.42413 0.75896 0.23557 0.0
C2041 C 0.49186 0.80857 0.22323 0.0
N2042 N 0.48627 0.80534 0.25118 0.0
C2043 C 0.44373 0.77384 0.2501 0.0
C2044 C 0.51034 0.82263 0.23797 0.0
C2045 C 0.44844 0.77653 0.22206 0.0
C2046 C 0.56187 0.91148 0.31739 0.0
N2047 N 0.52085 0.87695 0.31876 0.0
C2048 C 0.5713 0.95278 0.32213 0.0
C2049 C 0.53838 0.95861 0.32828 0.0
C2050 C 0.49661 0.92324 0.32963 0.0
C2051 C 0.48838 0.88242 0.32476 0.0
C2052 C 0.4769 0.79301 0.3591 0.0
C2053 C 0.44012 0.75653 0.33062 0.0
C2054 C 0.49786 0.81207 0.3451 0.0
N2055 N 0.47937 0.79387 0.3311 0.0
C2056 C 0.4182 0.73656 0.34438 0.0
C2057 C 0.4368 0.755 0.3587 0.0
C2058 C 0.48105 0.74393 0.29124 0.0
C2059 C 0.63943 0.85225 0.26471 0.0
C2060 C 0.55684 0.78367 0.25926 0.0
C2061 C 0.59269 0.77964 0.25534 0.0
C2062 C 0.63424 0.81421 0.2581 0.0
N2063 N 0.56222 0.82114 0.2657 0.0
C2064 C 0.60283 0.85513 0.26847 0.0
Co2065 Co 0.17137 0.6872 0.31086 0.0
Co2066 Co 0.17137 0.68815 0.27042 0.0
O2067 O 0.14779 0.69145 0.29073 0.0
C2068 C 0.17561 0.77244 0.31479 0.0
O2069 O 0.19646 0.78516 0.30147 0.0
C2070 C 0.07946 0.61814 0.26861 0.0
O2071 O 0.08356 0.60652 0.28275 0.0
O2072 O 0.17469 0.63585 0.27685 0.0
O2073 O 0.18033 0.63988 0.30291 0.0
H2074 H 0.27585 0.67425 0.23487 0.0
H2075 H 0.08679 0.6837 0.30919 0.0
O2076 O 0.16284 0.73433 0.31977 0.0
H2077 H 0.05537 0.54552 0.33339 0.0
H2078 H 0.17633 0.68266 0.36957 0.0
H2079 H 0.24639 0.67831 0.32054 0.0
H2080 H 0.13005 0.60005 0.32619 0.0
H2081 H 0.14647 0.68733 0.34417 0.0
O2082 O 0.11148 0.65007 0.26202 0.0
H2083 H 0.24522 0.67789 0.26022 0.0
H2084 H 0.14692 0.69133 0.23729 0.0
H2085 H 0.27708 0.67308 0.34566 0.0
H2086 H 0.01163 0.63042 0.31641 0.0
H2087 H 0.24199 0.67524 0.37043 0.0
H2088 H 0.99546 0.56061 0.32852 0.0
O2089 O 0.23167 0.73057 0.30424 0.0
H2090 H 0.09988 0.7785 0.26575 0.0
H2091 H 0.23142 0.77117 0.25417 0.0
H2092 H 0.22852 0.83654 0.2469 0.0
H2093 H 0.16226 0.84046 0.25266 0.0
H2094 H 0.10453 0.71398 0.27298 0.0
H2095 H 0.17621 0.6873 0.21166 0.0
H2096 H 0.24128 0.67896 0.21034 0.0
O2097 O 0.23166 0.72618 0.27808 0.0
C2098 C 0.18041 0.62242 0.28997 0.0
C2099 C 0.24755 0.678 0.23528 0.0
C2100 C 0.19159 0.68528 0.22227 0.0
N2101 N 0.19452 0.68518 0.25025 0.0
C2102 C 0.23011 0.68021 0.24961 0.0
C2103 C 0.17507 0.68741 0.23681 0.0
C2104 C 0.22812 0.68061 0.22153 0.0
C2105 C 0.08009 0.65355 0.31457 0.0
N2106 N 0.11285 0.64491 0.3172 0.0
C2107 C 0.03744 0.62346 0.3186 0.0
C2108 C 0.02838 0.58428 0.32537 0.0
C2109 C 0.06196 0.57576 0.32808 0.0
C2110 C 0.10421 0.60664 0.32389 0.0
C2111 C 0.19191 0.68167 0.35886 0.0
C2112 C 0.23085 0.67918 0.33125 0.0
C2113 C 0.17523 0.68447 0.34444 0.0
N2114 N 0.19455 0.68297 0.33087 0.0
C2115 C 0.24843 0.67625 0.34545 0.0
C2116 C 0.22874 0.67749 0.35934 0.0
C2117 C 0.2511 0.74078 0.29105 0.0
C2118 C 0.12896 0.77722 0.2632 0.0
C2119 C 0.20281 0.77285 0.25688 0.0
C2120 C 0.20117 0.80983 0.25265 0.0
C2121 C 0.16398 0.81199 0.25587 0.0
N2122 N 0.16841 0.73892 0.2641 0.0
C2123 C 0.13176 0.74074 0.26724 0.0
C2124 C 0.30781 0.1259 0.17186 0.0
C2125 C 0.29834 0.13694 0.15716 0.0
C2126 C 0.34189 0.15646 0.18111 0.0
C2127 C 0.36818 0.19951 0.1761 0.0
H2128 H 0.28867 0.09328 0.17636 0.0
H2129 H 0.34772 0.14601 0.19226 0.0
S2130 S 0.35697 0.24553 0.13859 0.0
N2131 N 0.31821 0.1943 0.13805 0.0
N2132 N 0.38187 0.25175 0.15543 0.0
C2133 C 0.359 0.21112 0.16144 0.0
C2134 C 0.32429 0.1799 0.15198 0.0
C2135 C 0.7959 0.15919 0.1647 0.0
C2136 C 0.80844 0.18066 0.17921 0.0
C2137 C 0.82536 0.15471 0.15516 0.0
C2138 C 0.86877 0.17139 0.15967 0.0
H2139 H 0.76288 0.14548 0.1606 0.0
H2140 H 0.81368 0.13746 0.14423 0.0
S2141 S 0.91886 0.2317 0.19632 0.0
N2142 N 0.86779 0.21958 0.19748 0.0
N2143 N 0.92323 0.21149 0.17954 0.0
C2144 C 0.88201 0.19344 0.17407 0.0
C2145 C 0.85189 0.19795 0.18383 0.0
C2146 C 0.85203 0.64325 0.16404 0.0
C2147 C 0.82697 0.63162 0.17779 0.0
C2148 C 0.8563 0.67715 0.15446 0.0
C2149 C 0.83552 0.70075 0.15817 0.0
H2150 H 0.86882 0.62623 0.16065 0.0
H2151 H 0.87645 0.68512 0.14416 0.0
S2152 S 0.76381 0.68144 0.19239 0.0
N2153 N 0.77987 0.64558 0.19433 0.0
N2154 N 0.78708 0.70843 0.17629 0.0
C2155 C 0.80966 0.68886 0.17176 0.0
C2156 C 0.80565 0.65462 0.18157 0.0
C2157 C 0.17963 0.32914 0.34852 0.0
C2158 C 0.13612 0.30207 0.34415 0.0
C2159 C 0.20893 0.3626 0.33875 0.0
C2160 C 0.19609 0.37053 0.32413 0.0
H2161 H 0.19148 0.32426 0.35953 0.0
H2162 H 0.24204 0.3823 0.34273 0.0
S2163 S 0.08534 0.31005 0.30732 0.0
N2164 N 0.08132 0.28656 0.3243 0.0
N2165 N 0.13638 0.34888 0.30592 0.0
C2166 C 0.15257 0.344 0.31965 0.0
C2167 C 0.12263 0.31002 0.32965 0.0
C2168 C 0.69214 0.81873 0.33003 0.0
C2169 C 0.70151 0.84017 0.34455 0.0
C2170 C 0.65707 0.81311 0.32088 0.0
C2171 C 0.62969 0.82862 0.32582 0.0
H2172 H 0.71206 0.80607 0.32559 0.0
H2173 H 0.65136 0.79619 0.30987 0.0
S2174 S 0.64039 0.88787 0.3628 0.0
N2175 N 0.68051 0.87737 0.36338 0.0
N2176 N 0.61497 0.86723 0.3462 0.0
C2177 C 0.63877 0.85036 0.3403 0.0
C2178 C 0.67449 0.85598 0.34965 0.0
C2179 C 0.18801 0.87749 0.33107 0.0
C2180 C 0.1621 0.86407 0.34462 0.0
C2181 C 0.19156 0.84769 0.32136 0.0
C2182 C 0.16934 0.80312 0.32476 0.0
H2183 H 0.20598 0.91144 0.32789 0.0
H2184 H 0.21237 0.85989 0.31121 0.0
S2185 S 0.09529 0.75062 0.3584 0.0
N2186 N 0.11274 0.80275 0.36066 0.0
N2187 N 0.11889 0.74681 0.3424 0.0
C2188 C 0.14275 0.78913 0.33816 0.0
C2189 C 0.13932 0.81953 0.34809 0.0
C2190 C 0.64364 0.79369 0.83705 0.0
C2191 C 0.63337 0.80689 0.82294 0.0
C2192 C 0.67823 0.82283 0.84646 0.0
C2193 C 0.70429 0.86656 0.8422 0.0
H2194 H 0.62479 0.76043 0.84096 0.0
H2195 H 0.68469 0.81072 0.85712 0.0
S2196 S 0.69076 0.91825 0.80658 0.0
N2197 N 0.65203 0.86712 0.80528 0.0
N2198 N 0.71673 0.92191 0.82295 0.0
C2199 C 0.6943 0.88036 0.82815 0.0
C2200 C 0.65904 0.85058 0.81854 0.0
C2201 C 0.17893 0.85048 0.84784 0.0
C2202 C 0.13575 0.83532 0.8433 0.0
C2203 C 0.20793 0.84569 0.83811 0.0
C2204 C 0.19513 0.82556 0.82339 0.0
H2205 H 0.1907 0.86651 0.85897 0.0
H2206 H 0.24076 0.85798 0.84224 0.0
S2207 S 0.08531 0.77915 0.80604 0.0
N2208 N 0.08137 0.7983 0.8231 0.0
N2209 N 0.13591 0.78985 0.80483 0.0
C2210 C 0.152 0.81009 0.8187 0.0
C2211 C 0.12236 0.81476 0.82864 0.0
C2212 C 0.17705 0.30445 0.83125 0.0
C2213 C 0.16175 0.29878 0.84673 0.0
C2214 C 0.18082 0.33849 0.82193 0.0
C2215 C 0.1695 0.36849 0.82764 0.0
H2216 H 0.18615 0.28232 0.82617 0.0
H2217 H 0.19281 0.34119 0.81013 0.0
S2218 S 0.12821 0.36869 0.8675 0.0
N2219 N 0.13559 0.32654 0.86742 0.0
N2220 N 0.14242 0.39028 0.84995 0.0
C2221 C 0.15411 0.36325 0.84312 0.0
C2222 C 0.15034 0.32854 0.85264 0.0
C2223 C 0.79617 0.63702 0.66301 0.0
C2224 C 0.80529 0.63273 0.67871 0.0
C2225 C 0.82555 0.67211 0.65381 0.0
C2226 C 0.8654 0.70448 0.65989 0.0
H2227 H 0.76612 0.61293 0.65768 0.0
H2228 H 0.81687 0.67368 0.64182 0.0
S2229 S 0.90454 0.70922 0.7005 0.0
N2230 N 0.85683 0.66458 0.70002 0.0
N2231 N 0.91198 0.73006 0.68282 0.0
C2232 C 0.87484 0.70067 0.67561 0.0
C2233 C 0.84485 0.665 0.68498 0.0
C2234 C 0.36141 0.15628 0.66475 0.0
C2235 C 0.36954 0.17646 0.6795 0.0
C2236 C 0.32711 0.15137 0.65532 0.0
C2237 C 0.2992 0.16632 0.66017 0.0
H2238 H 0.38178 0.14411 0.66035 0.0
H2239 H 0.32244 0.13548 0.64413 0.0
S2240 S 0.30633 0.22187 0.69774 0.0
N2241 N 0.34662 0.21165 0.69849 0.0
N2242 N 0.28241 0.20275 0.68078 0.0
C2243 C 0.30695 0.18671 0.67489 0.0
C2244 C 0.34194 0.19165 0.68454 0.0
C2245 C 0.84957 0.20819 0.66267 0.0
C2246 C 0.82885 0.19562 0.67731 0.0
C2247 C 0.85401 0.17882 0.65304 0.0
C2248 C 0.83798 0.13552 0.65759 0.0
H2249 H 0.86263 0.24112 0.65855 0.0
H2250 H 0.87054 0.19043 0.64198 0.0
S2251 S 0.77988 0.08553 0.6946 0.0
N2252 N 0.7915 0.13643 0.69577 0.0
N2253 N 0.79941 0.08123 0.67767 0.0
C2254 C 0.81678 0.12233 0.67214 0.0
C2255 C 0.81238 0.15233 0.68199 0.0
C2256 C 0.02709 0.53907 0.49847 0.0
C2257 C 0.03499 0.52656 0.51316 0.0
C2258 C 0.99335 0.5098 0.48882 0.0
C2259 C 0.96574 0.46663 0.49341 0.0
H2260 H 0.04721 0.57187 0.49426 0.0
H2261 H 0.98877 0.52139 0.4777 0.0
S2262 S 0.97256 0.4169 0.53068 0.0
N2263 N 0.0123 0.46763 0.53178 0.0
N2264 N 0.94904 0.41255 0.51366 0.0
C2265 C 0.97328 0.4535 0.50806 0.0
C2266 C 0.00776 0.48342 0.51791 0.0
C2267 C 0.51861 0.52679 0.51462 0.0
C2268 C 0.47407 0.50495 0.51113 0.0
C2269 C 0.54838 0.52309 0.50493 0.0
C2270 C 0.53494 0.49747 0.49131 0.0
H2271 H 0.5308 0.54741 0.52481 0.0
H2272 H 0.58231 0.54073 0.50816 0.0
S2273 S 0.42156 0.4315 0.47734 0.0
N2274 N 0.41779 0.45498 0.49338 0.0
N2275 N 0.47365 0.44866 0.47515 0.0
C2276 C 0.49044 0.47503 0.48777 0.0
C2277 C 0.46008 0.47855 0.49768 0.0
C2278 C 0.49107 0.02841 0.50501 0.0
C2279 C 0.51021 0.03647 0.49008 0.0
C2280 C 0.48595 0.99357 0.51416 0.0
C2281 C 0.4997 0.96508 0.50882 0.0
H2282 H 0.47989 0.04924 0.50978 0.0
H2283 H 0.4709 0.98895 0.52551 0.0
S2284 S 0.5521 0.97177 0.47058 0.0
N2285 N 0.54302 0.01285 0.47037 0.0
N2286 N 0.5338 0.94766 0.48756 0.0
C2287 C 0.51905 0.97278 0.49391 0.0
C2288 C 0.52415 0.00829 0.48456 0.0
C2289 C 0.50685 0.99363 0.01369 0.0
C2290 C 0.46584 0.96367 0.0077 0.0
C2291 C 0.53746 0.02816 0.0046 0.0
C2292 C 0.52853 0.03434 0.98907 0.0
H2293 H 0.51554 0.99053 0.02553 0.0
H2294 H 0.56838 0.05029 0.00988 0.0
S2295 S 0.42639 0.96453 0.96757 0.0
N2296 N 0.41824 0.9424 0.98504 0.0
N2297 N 0.47574 0.00693 0.96803 0.0
C2298 C 0.48776 0.00455 0.98288 0.0
C2299 C 0.45649 0.96941 0.99216 0.0
C2300 C 0.99067 0.47352 0.98891 0.0
C2301 C 0.96953 0.49724 0.99173 0.0
C2302 C 0.02403 0.47748 0.9987 0.0
C2303 C 0.03766 0.50526 0.01177 0.0
H2304 H 0.98107 0.4512 0.97918 0.0
H2305 H 0.03906 0.45831 0.99601 0.0
S2306 S 0.99473 0.57667 0.02382 0.0
N2307 N 0.96626 0.55126 0.00821 0.0
N2308 N 0.02832 0.55811 0.02665 0.0
C2309 C 0.01719 0.52959 0.01463 0.0
C2310 C 0.98339 0.52578 0.00461 0.0
C2311 C 0.51662 0.50961 0.98802 0.0
C2312 C 0.50893 0.46986 0.99424 0.0
C2313 C 0.51287 0.54007 0.99725 0.0
C2314 C 0.50132 0.5322 0.01315 0.0
H2315 H 0.52532 0.51727 0.97585 0.0
H2316 H 0.51863 0.56986 0.99177 0.0
S2317 S 0.47995 0.43415 0.03544 0.0
N2318 N 0.49062 0.42503 0.01757 0.0
N2319 N 0.48375 0.4822 0.03485 0.0
C2320 C 0.49418 0.49289 0.01961 0.0
C2321 C 0.49789 0.46179 0.01019 0.0
C2322 C 0.24772 0.91426 0.09906 0.0
C2323 C 0.2254 0.93259 0.0917 0.0
C2324 C 0.2673 0.89531 0.09034 0.0
C2325 C 0.26456 0.89309 0.07393 0.0
H2326 H 0.25084 0.9153 0.11165 0.0
H2327 H 0.28451 0.88204 0.09655 0.0
S2328 S 0.20846 0.935 0.04903 0.0
N2329 N 0.20101 0.94661 0.06701 0.0
N2330 N 0.23709 0.91039 0.0507 0.0
C2331 C 0.24167 0.91061 0.06644 0.0
C2332 C 0.22234 0.93054 0.0753 0.0
C2333 C 0.10754 0.37357 0.09392 0.0
C2334 C 0.11112 0.37417 0.07753 0.0
C2335 C 0.08856 0.33446 0.10231 0.0
C2336 C 0.07155 0.29441 0.09461 0.0
H2337 H 0.11958 0.40359 0.10036 0.0
H2338 H 0.08621 0.33559 0.11489 0.0
S2339 S 0.07354 0.27802 0.05189 0.0
N2340 N 0.09692 0.33105 0.05398 0.0
N2341 N 0.06068 0.25777 0.06967 0.0
C2342 C 0.07525 0.29455 0.07825 0.0
C2343 C 0.09519 0.33435 0.06973 0.0
C2344 C 0.62946 0.7388 0.09119 0.0
C2345 C 0.62865 0.73969 0.07476 0.0
C2346 C 0.6687 0.75807 0.09948 0.0
C2347 C 0.70873 0.77821 0.09165 0.0
H2348 H 0.59947 0.7231 0.09775 0.0
H2349 H 0.6676 0.75626 0.1121 0.0
S2350 S 0.72467 0.79007 0.04873 0.0
N2351 N 0.67155 0.76333 0.05099 0.0
N2352 N 0.74519 0.79883 0.06651 0.0
C2353 C 0.70844 0.77961 0.07523 0.0
C2354 C 0.66847 0.76061 0.0668 0.0
C2355 C 0.91674 0.24784 0.43461 0.0
C2356 C 0.89515 0.26625 0.42681 0.0
C2357 C 0.93655 0.2284 0.42629 0.0
C2358 C 0.93464 0.22572 0.40986 0.0
H2359 H 0.91937 0.24946 0.44722 0.0
H2360 H 0.95344 0.2153 0.4328 0.0
S2361 S 0.88001 0.26708 0.38396 0.0
N2362 N 0.87189 0.27943 0.40173 0.0
N2363 N 0.90829 0.24228 0.38617 0.0
C2364 C 0.91214 0.24301 0.40196 0.0
C2365 C 0.89267 0.26346 0.41041 0.0
C2366 C 0.75424 0.66592 0.43141 0.0
C2367 C 0.73413 0.62557 0.4238 0.0
C2368 C 0.7733 0.70479 0.42291 0.0
C2369 C 0.77383 0.70488 0.40647 0.0
H2370 H 0.75449 0.66753 0.44403 0.0
H2371 H 0.78798 0.73505 0.42932 0.0
S2372 S 0.72695 0.60781 0.38094 0.0
N2373 N 0.71663 0.58804 0.39884 0.0
N2374 N 0.7531 0.66102 0.38292 0.0
C2375 C 0.75456 0.66476 0.39872 0.0
C2376 C 0.73451 0.62515 0.40736 0.0
C2377 C 0.37065 0.10508 0.41251 0.0
C2378 C 0.37108 0.10567 0.42895 0.0
C2379 C 0.33162 0.08572 0.40412 0.0
C2380 C 0.29142 0.06539 0.41183 0.0
H2381 H 0.40076 0.11998 0.40602 0.0
H2382 H 0.333 0.08598 0.39149 0.0
S2383 S 0.27456 0.0581 0.45474 0.0
N2384 N 0.32772 0.08465 0.45262 0.0
N2385 N 0.2544 0.04761 0.4369 0.0
C2386 C 0.29133 0.06576 0.42827 0.0
C2387 C 0.33112 0.08611 0.43681 0.0
C2388 C 0.7715 0.06427 0.92442 0.0
C2389 C 0.77507 0.06795 0.90804 0.0
C2390 C 0.75342 0.0848 0.93308 0.0
C2391 C 0.73742 0.1091 0.92565 0.0
H2392 H 0.78294 0.04548 0.93067 0.0
H2393 H 0.75096 0.08066 0.94563 0.0
S2394 S 0.73991 0.12974 0.88308 0.0
N2395 N 0.76197 0.09878 0.8848 0.0
N2396 N 0.72753 0.13682 0.90099 0.0
C2397 C 0.74116 0.1134 0.9093 0.0
C2398 C 0.76013 0.09302 0.90052 0.0
C2399 C 0.89691 0.62914 0.91052 0.0
C2400 C 0.89472 0.62825 0.92695 0.0
C2401 C 0.91665 0.66846 0.90226 0.0
C2402 C 0.93584 0.70841 0.91012 0.0
H2403 H 0.88315 0.59919 0.90395 0.0
H2404 H 0.91779 0.66753 0.88964 0.0
S2405 S 0.93827 0.7241 0.95303 0.0
N2406 N 0.91265 0.67102 0.95073 0.0
N2407 N 0.95036 0.7447 0.93527 0.0
C2408 C 0.93362 0.70801 0.92653 0.0
C2409 C 0.91288 0.66801 0.93492 0.0
C2410 C 0.37586 0.2703 0.91164 0.0
C2411 C 0.37641 0.26757 0.92804 0.0
C2412 C 0.33682 0.24992 0.90323 0.0
C2413 C 0.29677 0.2268 0.91093 0.0
H2414 H 0.40588 0.2883 0.90521 0.0
H2415 H 0.338 0.25329 0.89065 0.0
S2416 S 0.28031 0.20907 0.95367 0.0
N2417 N 0.33334 0.23888 0.9516 0.0
N2418 N 0.26007 0.20128 0.93587 0.0
C2419 C 0.29686 0.22347 0.9273 0.0
C2420 C 0.33663 0.24361 0.93583 0.0
C2421 C 0.08556 0.74871 0.60222 0.0
C2422 C 0.06758 0.77086 0.59453 0.0
C2423 C 0.10548 0.72955 0.59382 0.0
C2424 C 0.10904 0.73264 0.57742 0.0
H2425 H 0.08347 0.74538 0.61481 0.0
H2426 H 0.11836 0.71232 0.60025 0.0
S2427 S 0.06912 0.7892 0.55182 0.0
N2428 N 0.05583 0.796 0.56962 0.0
N2429 N 0.09367 0.76065 0.55389 0.0
C2430 C 0.09201 0.75555 0.56963 0.0
C2431 C 0.07116 0.77444 0.57817 0.0
C2432 C 0.23064 0.2945 0.57695 0.0
C2433 C 0.22674 0.29401 0.59333 0.0
C2434 C 0.24924 0.33346 0.56851 0.0
C2435 C 0.26551 0.37348 0.57617 0.0
H2436 H 0.21928 0.2645 0.57057 0.0
H2437 H 0.25208 0.33229 0.55596 0.0
S2438 S 0.26205 0.39004 0.61881 0.0
N2439 N 0.2395 0.33704 0.6168 0.0
N2440 N 0.27509 0.41022 0.60102 0.0
C2441 C 0.26126 0.37343 0.59251 0.0
C2442 C 0.24167 0.33373 0.60107 0.0
C2443 C 0.66812 0.91598 0.59911 0.0
C2444 C 0.7081 0.93418 0.59131 0.0
C2445 C 0.62891 0.89656 0.59079 0.0
C2446 C 0.62819 0.89371 0.57437 0.0
H2447 H 0.66712 0.91774 0.61171 0.0
H2448 H 0.5989 0.88358 0.59729 0.0
S2449 S 0.72413 0.93448 0.54848 0.0
N2450 N 0.74459 0.94698 0.56625 0.0
N2451 N 0.67104 0.90984 0.55069 0.0
C2452 C 0.66794 0.91079 0.56647 0.0
C2453 C 0.70784 0.93122 0.57491 0.0
C2454 C 0.58324 0.57995 0.73566 0.0
C2455 C 0.6028 0.55939 0.74341 0.0
C2456 C 0.56357 0.59943 0.74403 0.0
C2457 C 0.56188 0.5983 0.76047 0.0
H2458 H 0.58401 0.58192 0.72304 0.0
H2459 H 0.5494 0.61534 0.73753 0.0
S2460 S 0.60664 0.54669 0.7863 0.0
N2461 N 0.61822 0.53804 0.76848 0.0
N2462 N 0.58078 0.57395 0.78414 0.0
C2463 C 0.58049 0.57699 0.76834 0.0
C2464 C 0.60109 0.55777 0.75984 0.0
C2465 C 0.43692 0.03728 0.75834 0.0
C2466 C 0.43932 0.03832 0.74191 0.0
C2467 C 0.41762 0.99791 0.76657 0.0
C2468 C 0.39915 0.95804 0.75867 0.0
H2469 H 0.45029 0.06716 0.76494 0.0
H2470 H 0.4163 0.99873 0.77919 0.0
S2471 S 0.39742 0.94277 0.71575 0.0
N2472 N 0.42222 0.99581 0.7181 0.0
N2473 N 0.38545 0.92202 0.73348 0.0
C2474 C 0.40153 0.95861 0.74226 0.0
C2475 C 0.42176 0.99867 0.7339 0.0
C2476 C 0.96196 0.39538 0.75884 0.0
C2477 C 0.96147 0.39662 0.74241 0.0
C2478 C 1.00108 0.41506 0.76722 0.0
C2479 C 0.04122 0.43583 0.75947 0.0
H2480 H 0.93185 0.37926 0.76532 0.0
H2481 H 0.99985 0.41315 0.77984 0.0
S2482 S 0.05788 0.44855 0.7166 0.0
N2483 N 0.00474 0.42115 0.71874 0.0
N2484 N 0.07811 0.45724 0.73442 0.0
C2485 C 0.04121 0.43741 0.74305 0.0
C2486 C 0.0014 0.41809 0.73454 0.0
C2487 C 0.43695 0.40057 0.25751 0.0
C2488 C 0.4391 0.40173 0.24108 0.0
C2489 C 0.41742 0.4204 0.26573 0.0
C2490 C 0.39841 0.44129 0.25784 0.0
H2491 H 0.45057 0.38427 0.26409 0.0
H2492 H 0.41625 0.41838 0.27835 0.0
S2493 S 0.39588 0.45412 0.21492 0.0
N2494 N 0.42133 0.42649 0.21726 0.0
N2495 N 0.38392 0.46291 0.23266 0.0
C2496 C 0.40059 0.44295 0.24142 0.0
C2497 C 0.42115 0.42345 0.23307 0.0
C2498 C 0.58509 0.00148 0.26786 0.0
C2499 C 0.56305 0.96124 0.26022 0.0
C2500 C 0.60475 0.04046 0.2594 0.0
C2501 C 0.60236 0.04076 0.24298 0.0
H2502 H 0.58781 0.00289 0.28047 0.0
H2503 H 0.62165 0.07063 0.26581 0.0
S2504 S 0.54689 0.94402 0.21744 0.0
N2505 N 0.53914 0.9241 0.23529 0.0
N2506 N 0.57549 0.99714 0.21945 0.0
C2507 C 0.57981 1.00073 0.23522 0.0
C2508 C 0.56036 0.96106 0.24382 0.0
C2509 C 0.99737 0.57672 0.2355 0.0
C2510 C 0.95741 0.55649 0.24335 0.0
C2511 C 0.03663 0.59615 0.24378 0.0
C2512 C 0.03744 0.59526 0.26022 0.0
H2513 H 0.99836 0.57873 0.22287 0.0
H2514 H 0.06661 0.61218 0.23722 0.0
S2515 S 0.94152 0.54396 0.28626 0.0
N2516 N 0.92098 0.53526 0.26849 0.0
N2517 N 0.99463 0.57102 0.28399 0.0
C2518 C 0.99768 0.57389 0.26818 0.0
C2519 C 0.95773 0.55477 0.25977 0.0
C2520 C 0.11383 0.15083 0.12247 0.0
C2521 C 0.06904 0.1255 0.12519 0.0
C2522 C 0.1407 0.13242 0.12352 0.0
C2523 C 0.12329 0.08845 0.12739 0.0
H2524 H 0.1281 0.18492 0.11972 0.0
H2525 H 0.17504 0.15244 0.1212 0.0
S2526 S 0.00754 0.00768 0.13365 0.0
N2527 N 0.00824 0.05378 0.13061 0.0
N2528 N 0.05857 0.01951 0.13257 0.0
C2529 C 0.07853 0.06279 0.12968 0.0
C2530 C 0.0514 0.0813 0.12861 0.0
C2531 C 0.89294 0.00994 0.11078 0.0
C2532 C 0.89667 0.03179 0.12493 0.0
C2533 C 0.87423 0.96477 0.1102 0.0
C2534 C 0.85871 0.93938 0.12378 0.0
H2535 H 0.90623 0.0279 0.10007 0.0
H2536 H 0.87409 0.95006 0.09913 0.0
S2537 S 0.8547 0.97986 0.16343 0.0
N2538 N 0.87809 0.02377 0.15251 0.0
N2539 N 0.84415 0.93938 0.15155 0.0
C2540 C 0.85956 0.96055 0.13782 0.0
C2541 C 0.87814 0.00653 0.13836 0.0
C2542 C 0.99087 0.88084 0.11167 0.0
C2543 C 0.96757 0.86726 0.12582 0.0
C2544 C 0.03621 0.90529 0.11142 0.0
C2545 C 0.06052 0.9175 0.12531 0.0
H2546 H 0.97403 0.87408 0.10061 0.0
H2547 H 0.05202 0.91645 0.10023 0.0
S2548 S 0.01583 0.88458 0.16541 0.0
N2549 N 0.97277 0.86374 0.15403 0.0
N2550 N 0.05778 0.90938 0.1536 0.0
C2551 C 0.03782 0.90144 0.1395 0.0
C2552 C 0.99152 0.8765 0.13975 0.0
C2553 C 0.11131 0.11751 0.39303 0.0
C2554 C 0.10728 0.13601 0.37902 0.0
C2555 C 0.12994 0.09098 0.39329 0.0
C2556 C 0.14531 0.08156 0.37956 0.0
H2557 H 0.09824 0.12188 0.40384 0.0
H2558 H 0.13017 0.07602 0.40426 0.0
S2559 S 0.14877 0.12737 0.34022 0.0
N2560 N 0.12524 0.14727 0.35139 0.0
N2561 N 0.15978 0.09727 0.35184 0.0
C2562 C 0.14436 0.10242 0.36568 0.0
C2563 C 0.12554 0.12964 0.36543 0.0
C2564 C 0.88902 0.04101 0.37866 0.0
C2565 C 0.93416 0.05966 0.38016 0.0
C2566 C 0.86234 0.99587 0.37692 0.0
C2567 C 0.88039 0.96869 0.3766 0.0
H2568 H 0.87449 0.0614 0.37859 0.0
H2569 H 0.8276 0.98216 0.37597 0.0
S2570 S 0.99672 0.00219 0.37966 0.0
N2571 N 0.99562 0.04789 0.38085 0.0
N2572 N 0.94569 0.96345 0.37778 0.0
C2573 C 0.92539 0.98716 0.37807 0.0
C2574 C 0.9523 0.03267 0.37977 0.0
C2575 C 0.01054 0.88808 0.38919 0.0
C2576 C 0.03474 0.9018 0.37524 0.0
C2577 C 0.96525 0.86774 0.38915 0.0
C2578 C 0.94196 0.86044 0.37516 0.0
H2579 H 0.02665 0.89447 0.40039 0.0
H2580 H 0.94868 0.85968 0.40028 0.0
S2581 S 0.98921 0.88442 0.33519 0.0
N2582 N 0.03143 0.9021 0.34689 0.0
N2583 N 0.94656 0.86431 0.34677 0.0
C2584 C 0.96554 0.87133 0.36103 0.0
C2585 C 0.01176 0.89188 0.36108 0.0
C2586 C 0.86213 0.86409 0.87623 0.0
C2587 C 0.87925 0.909 0.87778 0.0
C2588 C 0.88903 0.84585 0.87785 0.0
C2589 C 0.93342 0.87219 0.88114 0.0
H2590 H 0.82795 0.84311 0.87386 0.0
H2591 H 0.87533 0.81128 0.87628 0.0
S2592 S 0.99396 0.99175 0.88505 0.0
N2593 N 0.94324 0.97929 0.88207 0.0
N2594 N 0.99355 0.94521 0.88492 0.0
C2595 C 0.95073 0.91706 0.88246 0.0
C2596 C 0.92362 0.93544 0.88086 0.0
C2597 C 0.11169 0.99328 0.89328 0.0
C2598 C 0.10742 0.97101 0.87918 0.0
C2599 C 0.13044 0.03849 0.89369 0.0
C2600 C 0.14571 0.06353 0.88002 0.0
H2601 H 0.09871 0.97564 0.90406 0.0
H2602 H 0.13083 0.05353 0.90472 0.0
S2603 S 0.14839 0.02183 0.84045 0.0
N2604 N 0.1249 0.9782 0.85151 0.0
N2605 N 0.15971 0.06272 0.85222 0.0
C2606 C 0.14446 0.04192 0.86604 0.0
C2607 C 0.12549 0.99589 0.86563 0.0
C2608 C 0.0122 0.11571 0.86459 0.0
C2609 C 0.0354 0.13256 0.87854 0.0
C2610 C 0.96701 0.08947 0.86459 0.0
C2611 C 0.94277 0.07897 0.87854 0.0
H2612 H 0.02909 0.12117 0.85358 0.0
H2613 H 0.95126 0.07599 0.85354 0.0
S2614 S 0.98706 0.11944 0.91809 0.0
N2615 N 0.02992 0.13988 0.90661 0.0
N2616 N 0.94519 0.09149 0.90651 0.0
C2617 C 0.96518 0.098 0.89245 0.0
C2618 C 0.01134 0.12443 0.89248 0.0
C2619 C 0.84713 0.88856 0.62407 0.0
C2620 C 0.87243 0.9322 0.61957 0.0
C2621 C 0.86599 0.86228 0.6259 0.0
C2622 C 0.91058 0.87929 0.62338 0.0
H2623 H 0.81291 0.87503 0.62645 0.0
H2624 H 0.84575 0.82867 0.62923 0.0
S2625 S 0.99125 0.99285 0.61338 0.0
N2626 N 0.94451 0.99196 0.61399 0.0
N2627 N 0.97977 0.94284 0.61726 0.0
C2628 C 0.9361 0.92304 0.61919 0.0
C2629 C 0.91705 0.94952 0.61736 0.0
C2630 C 0.11975 0.00934 0.6385 0.0
C2631 C 0.13735 0.03299 0.62469 0.0
C2632 C 0.09268 0.96432 0.63823 0.0
C2633 C 0.08214 0.94065 0.62415 0.0
H2634 H 0.125 0.02579 0.64959 0.0
H2635 H 0.07848 0.94834 0.64917 0.0
S2636 S 0.12535 0.98602 0.58496 0.0
N2637 N 0.14606 0.02845 0.59666 0.0
N2638 N 0.09603 0.94384 0.59627 0.0
C2639 C 0.10228 0.96336 0.61041 0.0
C2640 C 0.12957 0.00943 0.61065 0.0
C2641 C 0.04062 0.13273 0.63522 0.0
C2642 C 0.06385 0.13951 0.62118 0.0
C2643 C 0.99575 0.11579 0.6353 0.0
C2644 C 0.97178 0.10464 0.62135 0.0
H2645 H 0.05683 0.13889 0.64639 0.0
H2646 H 0.97962 0.10958 0.6465 0.0
S2647 S 0.01762 0.12175 0.58125 0.0
N2648 N 0.05991 0.13809 0.59284 0.0
N2649 N 0.97564 0.10627 0.59293 0.0
C2650 C 0.99494 0.11406 0.60716 0.0
C2651 C 0.04085 0.13145 0.60708 0.0
C2652 C 0.76432 0.4694 0.46958 0.0
C2653 C 0.74919 0.47682 0.45535 0.0
C2654 C 0.79131 0.45132 0.47001 0.0
C2655 C 0.80452 0.43978 0.45623 0.0
H2656 H 0.75378 0.47576 0.48062 0.0
H2657 H 0.8001 0.4445 0.48132 0.0
S2658 S 0.77982 0.45894 0.41578 0.0
N2659 N 0.75389 0.47602 0.42705 0.0
N2660 N 0.80451 0.44216 0.4278 0.0
C2661 C 0.79233 0.45007 0.44187 0.0
C2662 C 0.76479 0.46855 0.44144 0.0
C2663 C 0.53464 0.29897 0.44573 0.0
C2664 C 0.52685 0.2754 0.45968 0.0
C2665 C 0.55525 0.34431 0.44581 0.0
C2666 C 0.56858 0.36816 0.45984 0.0
H2667 H 0.5269 0.28262 0.43456 0.0
H2668 H 0.56222 0.36071 0.43465 0.0
S2669 S 0.54922 0.32172 0.49978 0.0
N2670 N 0.52954 0.27936 0.48808 0.0
N2671 N 0.56749 0.3642 0.48819 0.0
C2672 C 0.55786 0.34485 0.47394 0.0
C2673 C 0.5372 0.29866 0.47386 0.0
C2674 C 0.70888 0.2228 0.4584 0.0
C2675 C 0.72812 0.26669 0.45414 0.0
C2676 C 0.66359 0.19708 0.45992 0.0
C2677 C 0.63673 0.21489 0.45733 0.0
H2678 H 0.72897 0.20862 0.46084 0.0
H2679 H 0.64953 0.16327 0.46309 0.0
S2680 S 0.67203 0.32932 0.44785 0.0
N2681 N 0.71738 0.32749 0.44867 0.0
N2682 N 0.63271 0.27943 0.4514 0.0
C2683 C 0.65584 0.25888 0.45337 0.0
C2684 C 0.70154 0.2848 0.45184 0.0
C2685 C 0.78323 0.4531 0.69858 0.0
C2686 C 0.77409 0.46799 0.71248 0.0
C2687 C 0.80073 0.42559 0.69882 0.0
C2688 C 0.80995 0.41163 0.71297 0.0
H2689 H 0.77496 0.46097 0.68736 0.0
H2690 H 0.80523 0.41377 0.68774 0.0
S2691 S 0.79846 0.44657 0.75265 0.0
N2692 N 0.78052 0.47062 0.74083 0.0
N2693 N 0.81332 0.41906 0.74123 0.0
C2694 C 0.80403 0.42882 0.72693 0.0
C2695 C 0.78613 0.45687 0.72669 0.0
C2696 C 0.53083 0.32987 0.70932 0.0
C2697 C 0.54801 0.30253 0.71206 0.0
C2698 C 0.5572 0.37518 0.71062 0.0
C2699 C 0.60111 0.39394 0.7148 0.0
H2700 H 0.49698 0.31618 0.70627 0.0
H2701 H 0.54343 0.39562 0.70816 0.0
S2702 S 0.66225 0.33639 0.72128 0.0
N2703 N 0.61202 0.2975 0.71793 0.0
N2704 N 0.66126 0.38215 0.72027 0.0
C2705 C 0.61862 0.36685 0.71718 0.0
C2706 C 0.59206 0.32117 0.71586 0.0
C2707 C 0.67681 0.22106 0.72434 0.0
C2708 C 0.69978 0.23146 0.71011 0.0
C2709 C 0.63151 0.20128 0.72471 0.0
C2710 C 0.60712 0.19137 0.71087 0.0
H2711 H 0.69392 0.22975 0.73537 0.0
H2712 H 0.61588 0.19586 0.73597 0.0
S2713 S 0.65086 0.20588 0.67051 0.0
N2714 N 0.69399 0.22539 0.68182 0.0
N2715 N 0.60932 0.18906 0.68249 0.0
C2716 C 0.62946 0.19885 0.69658 0.0
C2717 C 0.67557 0.21865 0.6962 0.0
C2718 C 0.57151 0.20368 0.22512 0.0
C2719 C 0.58454 0.19174 0.21139 0.0
C2720 C 0.54636 0.22386 0.22456 0.0
C2721 C 0.53269 0.23261 0.21025 0.0
H2722 H 0.58268 0.19964 0.2364 0.0
H2723 H 0.53915 0.23422 0.23548 0.0
S2724 S 0.55168 0.20106 0.171 0.0
N2725 N 0.57721 0.18551 0.18311 0.0
N2726 N 0.52955 0.22254 0.1821 0.0
C2727 C 0.54248 0.21762 0.19651 0.0
C2728 C 0.56842 0.19743 0.19707 0.0
C2729 C 0.79955 0.33096 0.2086 0.0
C2730 C 0.75526 0.3041 0.21188 0.0
C2731 C 0.81914 0.37631 0.20991 0.0
C2732 C 0.79493 0.39559 0.21471 0.0
H2733 H 0.81906 0.31686 0.20514 0.0
H2734 H 0.85313 0.39637 0.20704 0.0
S2735 S 0.67683 0.33943 0.22245 0.0
N2736 N 0.68721 0.30008 0.21869 0.0
N2737 N 0.72384 0.38481 0.2211 0.0
C2738 C 0.75049 0.36898 0.21756 0.0
C2739 C 0.73068 0.32325 0.21619 0.0
C2740 C 0.67391 0.45343 0.19771 0.0
C2741 C 0.69741 0.47058 0.21159 0.0
C2742 C 0.62897 0.42568 0.1979 0.0
C2743 C 0.60529 0.41367 0.21198 0.0
H2744 H 0.69045 0.45971 0.18659 0.0
H2745 H 0.61308 0.41214 0.18687 0.0
S2746 S 0.65017 0.45486 0.25142 0.0
N2747 N 0.69255 0.47752 0.23972 0.0
N2748 N 0.60828 0.42524 0.24003 0.0
C2749 C 0.62784 0.43304 0.22585 0.0
C2750 C 0.67374 0.46145 0.22566 0.0
C2751 C 0.55821 0.21612 0.97115 0.0
C2752 C 0.56849 0.20249 0.9572 0.0
C2753 C 0.53963 0.24269 0.971 0.0
C2754 C 0.53034 0.25683 0.95689 0.0
H2755 H 0.56636 0.20796 0.98234 0.0
H2756 H 0.5343 0.25366 0.98213 0.0
S2757 S 0.54481 0.22509 0.91706 0.0
N2758 N 0.56345 0.20152 0.9288 0.0
N2759 N 0.52819 0.25087 0.9286 0.0
C2760 C 0.5374 0.24083 0.94287 0.0
C2761 C 0.55658 0.21392 0.94301 0.0
C2762 C 0.78568 0.34363 0.94433 0.0
C2763 C 0.80055 0.36638 0.95855 0.0
C2764 C 0.75983 0.29835 0.94391 0.0
C2765 C 0.74741 0.27362 0.9577 0.0
H2766 H 0.79257 0.36093 0.93336 0.0
H2767 H 0.74783 0.28296 0.9327 0.0
S2768 S 0.7827 0.31666 0.9979 0.0
N2769 N 0.80481 0.36001 0.98667 0.0
N2770 N 0.75612 0.27535 0.98595 0.0
C2771 C 0.76447 0.29573 0.97193 0.0
C2772 C 0.791 0.34188 0.97234 0.0
C2773 C 0.70558 0.46422 0.94475 0.0
C2774 C 0.73047 0.47546 0.9585 0.0
C2775 C 0.66036 0.44509 0.9453 0.0
C2776 C 0.63793 0.43643 0.95961 0.0
H2777 H 0.72077 0.46814 0.93346 0.0
H2778 H 0.64285 0.43537 0.93436 0.0
S2779 S 0.6883 0.46597 0.99892 0.0
N2780 N 0.72933 0.48099 0.98683 0.0
N2781 N 0.64479 0.44563 0.98779 0.0
C2782 C 0.66265 0.45055 0.97338 0.0
C2783 C 0.7087 0.46985 0.97284 0.0
C2784 C 0.44545 0.81837 0.79112 0.0
C2785 C 0.40112 0.79298 0.78756 0.0
C2786 C 0.47159 0.79921 0.79262 0.0
C2787 C 0.45378 0.75429 0.79067 0.0
H2788 H 0.45972 0.85292 0.79295 0.0
H2789 H 0.50576 0.81952 0.79516 0.0
S2790 S 0.33866 0.67365 0.78291 0.0
N2791 N 0.34016 0.7207 0.78329 0.0
N2792 N 0.38899 0.68491 0.78598 0.0
C2793 C 0.40939 0.72875 0.78743 0.0
C2794 C 0.38306 0.74807 0.78593 0.0
C2795 C 0.21699 0.67029 0.80269 0.0
C2796 C 0.22866 0.69418 0.78872 0.0
C2797 C 0.19937 0.62531 0.80265 0.0
C2798 C 0.19244 0.60196 0.78863 0.0
H2799 H 0.22335 0.68652 0.81387 0.0
H2800 H 0.19291 0.60911 0.81384 0.0
S2801 S 0.21111 0.64804 0.74866 0.0
N2802 N 0.22724 0.69018 0.76031 0.0
N2803 N 0.19397 0.60573 0.76028 0.0
C2804 C 0.20086 0.62493 0.77451 0.0
C2805 C 0.219 0.67091 0.77455 0.0
C2806 C 0.36957 0.56773 0.77881 0.0
C2807 C 0.394 0.5838 0.79258 0.0
C2808 C 0.32429 0.54206 0.77926 0.0
C2809 C 0.30133 0.53092 0.7935 0.0
H2810 H 0.38515 0.57676 0.76751 0.0
H2811 H 0.30717 0.53239 0.76824 0.0
S2812 S 0.35036 0.55872 0.83305 0.0
N2813 N 0.39187 0.58233 0.82101 0.0
N2814 N 0.30721 0.53372 0.82181 0.0
C2815 C 0.32558 0.54392 0.8074 0.0
C2816 C 0.3717 0.57039 0.80694 0.0
C2817 C 0.46715 0.80923 0.04367 0.0
C2818 C 0.42251 0.79075 0.04079 0.0
C2819 C 0.48601 0.78286 0.04527 0.0
C2820 C 0.46046 0.73756 0.04411 0.0
H2821 H 0.48736 0.84403 0.04482 0.0
H2822 H 0.52057 0.79786 0.04724 0.0
S2823 S 0.34158 0.6738 0.0381 0.0
N2824 N 0.35311 0.72481 0.03786 0.0
N2825 N 0.38829 0.67547 0.04076 0.0
C2826 C 0.41575 0.71898 0.04154 0.0
C2827 C 0.39678 0.74558 0.03994 0.0
C2828 C 0.21498 0.65683 0.05716 0.0
C2829 C 0.20159 0.63258 0.04321 0.0
C2830 C 0.23935 0.70222 0.05701 0.0
C2831 C 0.25163 0.72553 0.04291 0.0
H2832 H 0.20806 0.64072 0.06837 0.0
H2833 H 0.25033 0.71889 0.06808 0.0
S2834 S 0.21969 0.67797 0.00312 0.0
N2835 N 0.19859 0.63578 0.01491 0.0
N2836 N 0.24424 0.72069 0.01459 0.0
C2837 C 0.23598 0.70179 0.02889 0.0
C2838 C 0.21108 0.65553 0.02905 0.0
C2839 C 0.34333 0.56073 0.05952 0.0
C2840 C 0.36549 0.56448 0.04545 0.0
C2841 C 0.29806 0.54089 0.06002 0.0
C2842 C 0.27286 0.52412 0.04645 0.0
H2843 H 0.36107 0.57483 0.07021 0.0
H2844 H 0.28307 0.54088 0.07101 0.0
S2845 S 0.31433 0.51961 0.00705 0.0
N2846 N 0.35813 0.54484 0.01797 0.0
N2847 N 0.27343 0.5082 0.01883 0.0
C2848 C 0.29439 0.52488 0.03252 0.0
C2849 C 0.34051 0.54484 0.03204 0.0
C2850 C 0.21929 0.55903 0.55854 0.0
C2851 C 0.20495 0.56792 0.54439 0.0
C2852 C 0.24536 0.53986 0.55877 0.0
C2853 C 0.25853 0.52886 0.54486 0.0
H2854 H 0.21176 0.56839 0.56961 0.0
H2855 H 0.25687 0.53559 0.56995 0.0
S2856 S 0.22512 0.5399 0.50473 0.0
N2857 N 0.20216 0.55983 0.51617 0.0
N2858 N 0.25134 0.52441 0.51653 0.0
C2859 C 0.24212 0.53503 0.53067 0.0
C2860 C 0.21534 0.55435 0.53045 0.0
C2861 C 0.4462 0.65911 0.53118 0.0
C2862 C 0.43705 0.63526 0.54511 0.0
C2863 C 0.46389 0.70414 0.53136 0.0
C2864 C 0.4735 0.72754 0.54549 0.0
H2865 H 0.43773 0.64278 0.51999 0.0
H2866 H 0.46832 0.72035 0.52026 0.0
S2867 S 0.46199 0.68161 0.58523 0.0
N2868 N 0.44353 0.63945 0.57347 0.0
N2869 N 0.47722 0.72388 0.57374 0.0
C2870 C 0.46763 0.70462 0.55947 0.0
C2871 C 0.4493 0.65863 0.5593 0.0
C2872 C 0.34378 0.78561 0.55786 0.0
C2873 C 0.36573 0.79999 0.54348 0.0
C2874 C 0.29857 0.75961 0.55859 0.0
C2875 C 0.27315 0.74665 0.54496 0.0
H2876 H 0.36167 0.79285 0.56871 0.0
H2877 H 0.28382 0.74784 0.56991 0.0
S2878 S 0.31389 0.78125 0.50449 0.0
N2879 N 0.35785 0.80368 0.51542 0.0
N2880 N 0.27326 0.75482 0.51672 0.0
C2881 C 0.29442 0.76351 0.53059 0.0
C2882 C 0.3405 0.79013 0.52986 0.0
C2883 C 0.221 0.5473 0.27648 0.0
C2884 C 0.22924 0.53232 0.2906 0.0
C2885 C 0.20294 0.57438 0.27632 0.0
C2886 C 0.19222 0.58771 0.29026 0.0
H2887 H 0.23029 0.5397 0.26542 0.0
H2888 H 0.19927 0.58648 0.26517 0.0
S2889 S 0.20143 0.5525 0.33031 0.0
N2890 N 0.22065 0.52899 0.31881 0.0
N2891 N 0.18711 0.5798 0.31857 0.0
C2892 C 0.19761 0.57055 0.30441 0.0
C2893 C 0.21593 0.54291 0.30456 0.0
C2894 C 0.47121 0.6692 0.29355 0.0
C2895 C 0.45421 0.69649 0.29038 0.0
C2896 C 0.44524 0.62394 0.2919 0.0
C2897 C 0.40196 0.60517 0.28687 0.0
H2898 H 0.5046 0.68288 0.29722 0.0
H2899 H 0.45879 0.60352 0.29472 0.0
S2900 S 0.34098 0.66246 0.27944 0.0
N2901 N 0.39069 0.70135 0.28349 0.0
N2902 N 0.34223 0.61685 0.28049 0.0
C2903 C 0.38455 0.6322 0.28414 0.0
C2904 C 0.41068 0.67782 0.28584 0.0
C2905 C 0.36807 0.79254 0.30446 0.0
C2906 C 0.39187 0.80566 0.2904 0.0
C2907 C 0.32295 0.77409 0.30465 0.0
C2908 C 0.29935 0.76749 0.29079 0.0
H2909 H 0.38408 0.7948 0.31544 0.0
H2910 H 0.30641 0.76302 0.31574 0.0
S2911 S 0.34653 0.80187 0.25107 0.0
N2912 N 0.38872 0.81562 0.26246 0.0
N2913 N 0.30401 0.77989 0.26271 0.0
C2914 C 0.323 0.78306 0.27676 0.0
C2915 C 0.36913 0.80244 0.2766 0.0
loop_
_geom_bond_atom_site_label_1
_geom_bond_atom_site_label_2
_geom_bond_distance
_geom_bond_site_symmetry_2
_ccdc_geom_bond_type
Co0 O2 2.143 . S
Co0 O8 2.074 1_545 S
Co0 O11 2.093 . S
Co0 O24 2.097 . S
Co0 N41 2.151 1_545 S
Co0 N49 2.214 . S
Co1 O2 2.160 . S
Co1 O7 2.058 1_545 S
Co1 O17 2.057 . S
Co1 O32 2.037 . S
Co1 N36 2.145 . S
Co1 N57 2.257 . S
O2 Co0 2.143 . S
O2 Co1 2.160 . S
C3 O4 1.278 . S
C3 O11 1.224 . S
O4 C3 1.278 . S
C5 O6 1.245 . S
C5 O17 1.232 1_565 S
O6 C5 1.245 . S
O7 Co1 2.058 1_565 S
O7 C33 1.269 . S
O8 Co0 2.074 1_565 S
O8 C33 1.257 . S
H9 C34 0.930 . S
H10 C40 0.930 . S
O11 Co0 2.093 . S
O11 C3 1.224 . S
H12 C44 0.929 . S
H13 C46 0.930 . S
H14 C47 0.930 . S
H15 C45 0.929 . S
H16 C48 0.928 . S
O17 Co1 2.057 . S
O17 C5 1.232 1_545 S
H18 C37 0.929 . S
H19 C38 0.929 . S
H20 C50 0.931 . S
H21 C42 0.929 . S
H22 C51 0.930 . S
H23 C43 0.931 . S
O24 Co0 2.097 . S
O24 C52 1.214 . S
H25 C53 0.929 . S
H26 C54 0.929 . S
H27 C55 0.930 . S
H28 C56 0.929 . S
H29 C58 0.930 . S
H30 C35 0.930 1_565 S
H31 C39 0.930 . S
O32 Co1 2.037 . S
O32 C52 1.234 . S
C33 O7 1.269 . S
C33 O8 1.257 . S
C34 H9 0.930 . S
C34 C37 1.388 . S
C34 C39 1.418 . S
C35 H30 0.930 1_545 S
C35 C38 1.404 . S
C35 C39 1.353 . S
N36 Co1 2.145 . S
N36 C37 1.397 . S
N36 C38 1.334 . S
C37 H18 0.929 . S
C37 C34 1.388 . S
C37 N36 1.397 . S
C38 H19 0.929 . S
C38 C35 1.404 . S
C38 N36 1.334 . S
C39 H31 0.930 . S
C39 C34 1.418 . S
C39 C35 1.353 . S
C40 H10 0.930 . S
C40 N41 1.330 1_545 S
C40 C42 1.446 1_545 S
N41 Co0 2.151 1_565 S
N41 C40 1.330 1_565 S
N41 C45 1.418 . S
C42 H21 0.929 . S
C42 C40 1.446 1_565 S
C42 C43 1.332 . S
C43 H23 0.931 . S
C43 C42 1.332 . S
C43 C44 1.267 . S
C44 H12 0.929 . S
C44 C43 1.267 . S
C44 C45 1.251 . S
C45 H15 0.929 . S
C45 N41 1.418 . S
C45 C44 1.251 . S
C46 H13 0.930 . S
C46 C48 1.406 . S
C46 C51 1.261 . S
C47 H14 0.930 . S
C47 N49 1.325 . S
C47 C50 1.357 . S
C48 H16 0.928 . S
C48 C46 1.406 . S
C48 N49 1.261 . S
N49 Co0 2.214 . S
N49 C47 1.325 . S
N49 C48 1.261 . S
C50 H20 0.931 . S
C50 C47 1.357 . S
C50 C51 1.312 . S
C51 H22 0.930 . S
C51 C46 1.261 . S
C51 C50 1.312 . S
C52 O24 1.214 . S
C52 O32 1.234 . S
C53 H25 0.929 . S
C53 C56 1.391 . S
C53 C58 1.391 . S
C54 H26 0.929 . S
C54 C55 1.390 . S
C54 N57 1.391 . S
C55 H27 0.930 . S
C55 C54 1.390 . S
C55 C56 1.392 . S
C56 H28 0.929 . S
C56 C53 1.391 . S
C56 C55 1.392 . S
N57 Co1 2.257 . S
N57 C54 1.391 . S
N57 C58 1.388 . S
C58 H29 0.930 . S
C58 C53 1.391 . S
C58 N57 1.388 . S
Co59 O61 2.143 . S
Co59 O67 2.074 1_655 S
Co59 O70 2.093 . S
Co59 O83 2.097 . S
Co59 N100 2.151 1_655 S
Co59 N108 2.214 . S
Co60 O61 2.160 . S
Co60 O66 2.058 1_655 S
Co60 O76 2.057 . S
Co60 O91 2.037 . S
Co60 N95 2.145 . S
Co60 N116 2.257 . S
O61 Co59 2.143 . S
O61 Co60 2.160 . S
C62 O63 1.278 . S
C62 O70 1.224 . S
O63 C62 1.278 . S
C64 O65 1.245 . S
C64 O76 1.232 1_455 S
O65 C64 1.245 . S
O66 Co60 2.058 1_455 S
O66 C92 1.269 . S
O67 Co59 2.074 1_455 S
O67 C92 1.257 . S
H68 C93 0.930 . S
H69 C99 0.930 . S
O70 Co59 2.093 . S
O70 C62 1.224 . S
H71 C103 0.929 . S
H72 C105 0.930 . S
H73 C106 0.930 . S
H74 C104 0.929 . S
H75 C107 0.928 . S
O76 Co60 2.057 . S
O76 C64 1.232 1_655 S
H77 C96 0.929 . S
H78 C97 0.929 . S
H79 C109 0.931 . S
H80 C101 0.929 . S
H81 C110 0.930 . S
H82 C102 0.931 . S
O83 Co59 2.097 . S
O83 C111 1.214 . S
H84 C112 0.929 . S
H85 C113 0.929 . S
H86 C114 0.930 . S
H87 C115 0.929 . S
H88 C117 0.930 . S
H89 C94 0.930 1_455 S
H90 C98 0.930 . S
O91 Co60 2.037 . S
O91 C111 1.234 . S
C92 O66 1.269 . S
C92 O67 1.257 . S
C93 H68 0.930 . S
C93 C96 1.388 . S
C93 C98 1.418 . S
C94 H89 0.930 1_655 S
C94 C97 1.404 . S
C94 C98 1.353 . S
N95 Co60 2.145 . S
N95 C96 1.397 . S
N95 C97 1.334 . S
C96 H77 0.929 . S
C96 C93 1.388 . S
C96 N95 1.397 . S
C97 H78 0.929 . S
C97 C94 1.404 . S
C97 N95 1.334 . S
C98 H90 0.930 . S
C98 C93 1.418 . S
C98 C94 1.353 . S
C99 H69 0.930 . S
C99 N100 1.330 1_655 S
C99 C101 1.446 1_655 S
N100 Co59 2.151 1_455 S
N100 C99 1.330 1_455 S
N100 C104 1.418 . S
C101 H80 0.929 . S
C101 C99 1.446 1_455 S
C101 C102 1.332 . S
C102 H82 0.931 . S
C102 C101 1.332 . S
C102 C103 1.267 . S
C103 H71 0.929 . S
C103 C102 1.267 . S
C103 C104 1.251 . S
C104 H74 0.929 . S
C104 N100 1.418 . S
C104 C103 1.251 . S
C105 H72 0.930 . S
C105 C107 1.406 . S
C105 C110 1.261 . S
C106 H73 0.930 . S
C106 N108 1.325 . S
C106 C109 1.357 . S
C107 H75 0.928 . S
C107 C105 1.406 . S
C107 N108 1.261 . S
N108 Co59 2.214 . S
N108 C106 1.325 . S
N108 C107 1.261 . S
C109 H79 0.931 . S
C109 C106 1.357 . S
C109 C110 1.312 . S
C110 H81 0.930 . S
C110 C105 1.261 . S
C110 C109 1.312 . S
C111 O83 1.214 . S
C111 O91 1.234 . S
C112 H84 0.929 . S
C112 C115 1.391 . S
C112 C117 1.391 . S
C113 H85 0.929 . S
C113 C114 1.390 . S
C113 N116 1.391 . S
C114 H86 0.930 . S
C114 C113 1.390 . S
C114 C115 1.392 . S
C115 H87 0.929 . S
C115 C112 1.391 . S
C115 C114 1.392 . S
N116 Co60 2.257 . S
N116 C113 1.391 . S
N116 C117 1.388 . S
C117 H88 0.930 . S
C117 C112 1.391 . S
C117 N116 1.388 . S
Co118 O120 2.143 . S
Co118 O126 2.074 . S
Co118 O129 2.093 . S
Co118 O142 2.097 . S
Co118 N159 2.151 . S
Co118 N167 2.214 . S
Co119 O120 2.160 . S
Co119 O125 2.058 . S
Co119 O135 2.057 . S
Co119 O150 2.037 . S
Co119 N154 2.145 . S
Co119 N175 2.257 . S
O120 Co118 2.143 . S
O120 Co119 2.160 . S
C121 O122 1.278 . S
C121 O129 1.224 . S
O122 C121 1.278 . S
C123 O124 1.245 . S
C123 O135 1.232 . S
O124 C123 1.245 . S
O125 Co119 2.058 . S
O125 C151 1.269 . S
O126 Co118 2.074 . S
O126 C151 1.257 . S
H127 C152 0.930 . S
H128 C158 0.930 . S
O129 Co118 2.093 . S
O129 C121 1.224 . S
H130 C162 0.929 . S
H131 C164 0.930 . S
H132 C165 0.930 . S
H133 C163 0.929 . S
H134 C166 0.928 . S
O135 Co119 2.057 . S
O135 C123 1.232 . S
H136 C155 0.929 . S
H137 C156 0.929 . S
H138 C168 0.931 . S
H139 C160 0.929 . S
H140 C169 0.930 . S
H141 C161 0.931 . S
O142 Co118 2.097 . S
O142 C170 1.214 . S
H143 C171 0.929 . S
H144 C172 0.929 . S
H145 C173 0.930 . S
H146 C174 0.929 . S
H147 C176 0.930 . S
H148 C153 0.930 . S
H149 C157 0.930 . S
O150 Co119 2.037 . S
O150 C170 1.234 . S
C151 O125 1.269 . S
C151 O126 1.257 . S
C152 H127 0.930 . S
C152 C155 1.388 . S
C152 C157 1.418 . S
C153 H148 0.930 . S
C153 C156 1.404 . S
C153 C157 1.353 . S
N154 Co119 2.145 . S
N154 C155 1.397 . S
N154 C156 1.334 . S
C155 H136 0.929 . S
C155 C152 1.388 . S
C155 N154 1.397 . S
C156 H137 0.929 . S
C156 C153 1.404 . S
C156 N154 1.334 . S
C157 H149 0.930 . S
C157 C152 1.418 . S
C157 C153 1.353 . S
C158 H128 0.930 . S
C158 N159 1.330 . S
C158 C160 1.446 . S
N159 Co118 2.151 . S
N159 C158 1.330 . S
N159 C163 1.418 . S
C160 H139 0.929 . S
C160 C158 1.446 . S
C160 C161 1.332 . S
C161 H141 0.931 . S
C161 C160 1.332 . S
C161 C162 1.267 . S
C162 H130 0.929 . S
C162 C161 1.267 . S
C162 C163 1.251 . S
C163 H133 0.929 . S
C163 N159 1.418 . S
C163 C162 1.251 . S
C164 H131 0.930 . S
C164 C166 1.406 . S
C164 C169 1.261 . S
C165 H132 0.930 . S
C165 N167 1.325 . S
C165 C168 1.357 . S
C166 H134 0.928 . S
C166 C164 1.406 . S
C166 N167 1.261 . S
N167 Co118 2.214 . S
N167 C165 1.325 . S
N167 C166 1.261 . S
C168 H138 0.931 . S
C168 C165 1.357 . S
C168 C169 1.312 . S
C169 H140 0.930 . S
C169 C164 1.261 . S
C169 C168 1.312 . S
C170 O142 1.214 . S
C170 O150 1.234 . S
C171 H143 0.929 . S
C171 C174 1.391 . S
C171 C176 1.391 . S
C172 H144 0.929 . S
C172 C173 1.390 . S
C172 N175 1.391 . S
C173 H145 0.930 . S
C173 C172 1.390 . S
C173 C174 1.392 . S
C174 H146 0.929 . S
C174 C171 1.391 . S
C174 C173 1.392 . S
N175 Co119 2.257 . S
N175 C172 1.391 . S
N175 C176 1.388 . S
C176 H147 0.930 . S
C176 C171 1.391 . S
C176 N175 1.388 . S
Co177 O179 2.143 . S
Co177 O185 2.074 1_455 S
Co177 O188 2.093 . S
Co177 O201 2.097 . S
Co177 N218 2.151 1_455 S
Co177 N226 2.214 . S
Co178 O179 2.160 . S
Co178 O184 2.058 1_455 S
Co178 O194 2.057 . S
Co178 O209 2.037 . S
Co178 N213 2.145 . S
Co178 N234 2.257 . S
O179 Co177 2.143 . S
O179 Co178 2.160 . S
C180 O181 1.278 . S
C180 O188 1.224 . S
O181 C180 1.278 . S
C182 O183 1.245 . S
C182 O194 1.232 1_655 S
O183 C182 1.245 . S
O184 Co178 2.058 1_655 S
O184 C210 1.269 . S
O185 Co177 2.074 1_655 S
O185 C210 1.257 . S
H186 C211 0.930 . S
H187 C217 0.930 . S
O188 Co177 2.093 . S
O188 C180 1.224 . S
H189 C221 0.929 . S
H190 C223 0.930 . S
H191 C224 0.930 . S
H192 C222 0.929 . S
H193 C225 0.928 . S
O194 Co178 2.057 . S
O194 C182 1.232 1_455 S
H195 C214 0.929 . S
H196 C215 0.929 . S
H197 C227 0.931 . S
H198 C219 0.929 . S
H199 C228 0.930 . S
H200 C220 0.931 . S
O201 Co177 2.097 . S
O201 C229 1.214 . S
H202 C230 0.929 . S
H203 C231 0.929 . S
H204 C232 0.930 . S
H205 C233 0.929 . S
H206 C235 0.930 . S
H207 C212 0.930 1_655 S
H208 C216 0.930 . S
O209 Co178 2.037 . S
O209 C229 1.234 . S
C210 O184 1.269 . S
C210 O185 1.257 . S
C211 H186 0.930 . S
C211 C214 1.388 . S
C211 C216 1.418 . S
C212 H207 0.930 1_455 S
C212 C215 1.404 . S
C212 C216 1.353 . S
N213 Co178 2.145 . S
N213 C214 1.397 . S
N213 C215 1.334 . S
C214 H195 0.929 . S
C214 C211 1.388 . S
C214 N213 1.397 . S
C215 H196 0.929 . S
C215 C212 1.404 . S
C215 N213 1.334 . S
C216 H208 0.930 . S
C216 C211 1.418 . S
C216 C212 1.353 . S
C217 H187 0.930 . S
C217 N218 1.330 1_455 S
C217 C219 1.446 1_455 S
N218 Co177 2.151 1_655 S
N218 C217 1.330 1_655 S
N218 C222 1.418 . S
C219 H198 0.929 . S
C219 C217 1.446 1_655 S
C219 C220 1.332 . S
C220 H200 0.931 . S
C220 C219 1.332 . S
C220 C221 1.267 . S
C221 H189 0.929 . S
C221 C220 1.267 . S
C221 C222 1.251 . S
C222 H192 0.929 . S
C222 N218 1.418 . S
C222 C221 1.251 . S
C223 H190 0.930 . S
C223 C225 1.406 . S
C223 C228 1.261 . S
C224 H191 0.930 . S
C224 N226 1.325 . S
C224 C227 1.357 . S
C225 H193 0.928 . S
C225 C223 1.406 . S
C225 N226 1.261 . S
N226 Co177 2.214 . S
N226 C224 1.325 . S
N226 C225 1.261 . S
C227 H197 0.931 . S
C227 C224 1.357 . S
C227 C228 1.312 . S
C228 H199 0.930 . S
C228 C223 1.261 . S
C228 C227 1.312 . S
C229 O201 1.214 . S
C229 O209 1.234 . S
C230 H202 0.929 . S
C230 C233 1.391 . S
C230 C235 1.391 . S
C231 H203 0.929 . S
C231 C232 1.390 . S
C231 N234 1.391 . S
C232 H204 0.930 . S
C232 C231 1.390 . S
C232 C233 1.392 . S
C233 H205 0.929 . S
C233 C230 1.391 . S
C233 C232 1.392 . S
N234 Co178 2.257 . S
N234 C231 1.391 . S
N234 C235 1.388 . S
C235 H206 0.930 . S
C235 C230 1.391 . S
C235 N234 1.388 . S
Co236 O238 2.143 . S
Co236 O244 2.074 . S
Co236 O247 2.093 . S
Co236 O260 2.097 . S
Co236 N277 2.151 . S
Co236 N285 2.214 . S
Co237 O238 2.160 . S
Co237 O243 2.058 . S
Co237 O253 2.057 . S
Co237 O268 2.037 . S
Co237 N272 2.145 . S
Co237 N293 2.257 . S
O238 Co236 2.143 . S
O238 Co237 2.160 . S
C239 O240 1.278 . S
C239 O247 1.224 . S
O240 C239 1.278 . S
C241 O242 1.245 . S
C241 O253 1.232 . S
O242 C241 1.245 . S
O243 Co237 2.058 . S
O243 C269 1.269 . S
O244 Co236 2.074 . S
O244 C269 1.257 . S
H245 C270 0.930 . S
H246 C276 0.930 . S
O247 Co236 2.093 . S
O247 C239 1.224 . S
H248 C280 0.929 . S
H249 C282 0.930 . S
H250 C283 0.930 . S
H251 C281 0.929 . S
H252 C284 0.928 . S
O253 Co237 2.057 . S
O253 C241 1.232 . S
H254 C273 0.929 . S
H255 C274 0.929 . S
H256 C286 0.931 . S
H257 C278 0.929 . S
H258 C287 0.930 . S
H259 C279 0.931 . S
O260 Co236 2.097 . S
O260 C288 1.214 . S
H261 C289 0.929 . S
H262 C290 0.929 . S
H263 C291 0.930 . S
H264 C292 0.929 . S
H265 C294 0.930 . S
H266 C271 0.930 . S
H267 C275 0.930 . S
O268 Co237 2.037 . S
O268 C288 1.234 . S
C269 O243 1.269 . S
C269 O244 1.257 . S
C270 H245 0.930 . S
C270 C273 1.388 . S
C270 C275 1.418 . S
C271 H266 0.930 . S
C271 C274 1.404 . S
C271 C275 1.353 . S
N272 Co237 2.145 . S
N272 C273 1.397 . S
N272 C274 1.334 . S
C273 H254 0.929 . S
C273 C270 1.388 . S
C273 N272 1.397 . S
C274 H255 0.929 . S
C274 C271 1.404 . S
C274 N272 1.334 . S
C275 H267 0.930 . S
C275 C270 1.418 . S
C275 C271 1.353 . S
C276 H246 0.930 . S
C276 N277 1.330 . S
C276 C278 1.446 . S
N277 Co236 2.151 . S
N277 C276 1.330 . S
N277 C281 1.418 . S
C278 H257 0.929 . S
C278 C276 1.446 . S
C278 C279 1.332 . S
C279 H259 0.931 . S
C279 C278 1.332 . S
C279 C280 1.267 . S
C280 H248 0.929 . S
C280 C279 1.267 . S
C280 C281 1.251 . S
C281 H251 0.929 . S
C281 N277 1.418 . S
C281 C280 1.251 . S
C282 H249 0.930 . S
C282 C284 1.406 . S
C282 C287 1.261 . S
C283 H250 0.930 . S
C283 N285 1.325 . S
C283 C286 1.357 . S
C284 H252 0.928 . S
C284 C282 1.406 . S
C284 N285 1.261 . S
N285 Co236 2.214 . S
N285 C283 1.325 . S
N285 C284 1.261 . S
C286 H256 0.931 . S
C286 C283 1.357 . S
C286 C287 1.312 . S
C287 H258 0.930 . S
C287 C282 1.261 . S
C287 C286 1.312 . S
C288 O260 1.214 . S
C288 O268 1.234 . S
C289 H261 0.929 . S
C289 C292 1.391 . S
C289 C294 1.391 . S
C290 H262 0.929 . S
C290 C291 1.390 . S
C290 N293 1.391 . S
C291 H263 0.930 . S
C291 C290 1.390 . S
C291 C292 1.392 . S
C292 H264 0.929 . S
C292 C289 1.391 . S
C292 C291 1.392 . S
N293 Co237 2.257 . S
N293 C290 1.391 . S
N293 C294 1.388 . S
C294 H265 0.930 . S
C294 C289 1.391 . S
C294 N293 1.388 . S
Co295 O297 2.143 . S
Co295 O303 2.074 1_565 S
Co295 O306 2.093 . S
Co295 O319 2.097 . S
Co295 N336 2.151 1_565 S
Co295 N344 2.214 . S
Co296 O297 2.160 . S
Co296 O302 2.058 1_565 S
Co296 O312 2.057 . S
Co296 O327 2.037 . S
Co296 N331 2.145 . S
Co296 N352 2.257 . S
O297 Co295 2.143 . S
O297 Co296 2.160 . S
C298 O299 1.278 . S
C298 O306 1.224 . S
O299 C298 1.278 . S
C300 O301 1.245 . S
C300 O312 1.232 1_545 S
O301 C300 1.245 . S
O302 Co296 2.058 1_545 S
O302 C328 1.269 . S
O303 Co295 2.074 1_545 S
O303 C328 1.257 . S
H304 C329 0.930 . S
H305 C335 0.930 . S
O306 Co295 2.093 . S
O306 C298 1.224 . S
H307 C339 0.929 . S
H308 C341 0.930 . S
H309 C342 0.930 . S
H310 C340 0.929 . S
H311 C343 0.928 . S
O312 Co296 2.057 . S
O312 C300 1.232 1_565 S
H313 C332 0.929 . S
H314 C333 0.929 . S
H315 C345 0.931 . S
H316 C337 0.929 . S
H317 C346 0.930 . S
H318 C338 0.931 . S
O319 Co295 2.097 . S
O319 C347 1.214 . S
H320 C348 0.929 . S
H321 C349 0.929 . S
H322 C350 0.930 . S
H323 C351 0.929 . S
H324 C353 0.930 . S
H325 C330 0.930 1_545 S
H326 C334 0.930 . S
O327 Co296 2.037 . S
O327 C347 1.234 . S
C328 O302 1.269 . S
C328 O303 1.257 . S
C329 H304 0.930 . S
C329 C332 1.388 . S
C329 C334 1.418 . S
C330 H325 0.930 1_565 S
C330 C333 1.404 . S
C330 C334 1.353 . S
N331 Co296 2.145 . S
N331 C332 1.397 . S
N331 C333 1.334 . S
C332 H313 0.929 . S
C332 C329 1.388 . S
C332 N331 1.397 . S
C333 H314 0.929 . S
C333 C330 1.404 . S
C333 N331 1.334 . S
C334 H326 0.930 . S
C334 C329 1.418 . S
C334 C330 1.353 . S
C335 H305 0.930 . S
C335 N336 1.330 1_565 S
C335 C337 1.446 1_565 S
N336 Co295 2.151 1_545 S
N336 C335 1.330 1_545 S
N336 C340 1.418 . S
C337 H316 0.929 . S
C337 C335 1.446 1_545 S
C337 C338 1.332 . S
C338 H318 0.931 . S
C338 C337 1.332 . S
C338 C339 1.267 . S
C339 H307 0.929 . S
C339 C338 1.267 . S
C339 C340 1.251 . S
C340 H310 0.929 . S
C340 N336 1.418 . S
C340 C339 1.251 . S
C341 H308 0.930 . S
C341 C343 1.406 . S
C341 C346 1.261 . S
C342 H309 0.930 . S
C342 N344 1.325 . S
C342 C345 1.357 . S
C343 H311 0.928 . S
C343 C341 1.406 . S
C343 N344 1.261 . S
N344 Co295 2.214 . S
N344 C342 1.325 . S
N344 C343 1.261 . S
C345 H315 0.931 . S
C345 C342 1.357 . S
C345 C346 1.312 . S
C346 H317 0.930 . S
C346 C341 1.261 . S
C346 C345 1.312 . S
C347 O319 1.214 . S
C347 O327 1.234 . S
C348 H320 0.929 . S
C348 C351 1.391 . S
C348 C353 1.391 . S
C349 H321 0.929 . S
C349 C350 1.390 . S
C349 N352 1.391 . S
C350 H322 0.930 . S
C350 C349 1.390 . S
C350 C351 1.392 . S
C351 H323 0.929 . S
C351 C348 1.391 . S
C351 C350 1.392 . S
N352 Co296 2.257 . S
N352 C349 1.391 . S
N352 C353 1.388 . S
C353 H324 0.930 . S
C353 C348 1.391 . S
C353 N352 1.388 . S
Co354 O356 2.143 . S
Co354 O362 2.074 1_565 S
Co354 O365 2.093 . S
Co354 O378 2.097 . S
Co354 N395 2.151 1_565 S
Co354 N403 2.214 . S
Co355 O356 2.160 . S
Co355 O361 2.058 1_565 S
Co355 O371 2.057 . S
Co355 O386 2.037 . S
Co355 N390 2.145 . S
Co355 N411 2.257 . S
O356 Co354 2.143 . S
O356 Co355 2.160 . S
C357 O358 1.278 . S
C357 O365 1.224 . S
O358 C357 1.278 . S
C359 O360 1.245 . S
C359 O371 1.232 1_545 S
O360 C359 1.245 . S
O361 Co355 2.058 1_545 S
O361 C387 1.269 . S
O362 Co354 2.074 1_545 S
O362 C387 1.257 . S
H363 C388 0.930 . S
H364 C394 0.930 . S
O365 Co354 2.093 . S
O365 C357 1.224 . S
H366 C398 0.929 . S
H367 C400 0.930 . S
H368 C401 0.930 . S
H369 C399 0.929 . S
H370 C402 0.928 . S
O371 Co355 2.057 . S
O371 C359 1.232 1_565 S
H372 C391 0.929 . S
H373 C392 0.929 . S
H374 C404 0.931 . S
H375 C396 0.929 . S
H376 C405 0.930 . S
H377 C397 0.931 . S
O378 Co354 2.097 . S
O378 C406 1.214 . S
H379 C407 0.929 . S
H380 C408 0.929 . S
H381 C409 0.930 . S
H382 C410 0.929 . S
H383 C412 0.930 . S
H384 C389 0.930 1_545 S
H385 C393 0.930 . S
O386 Co355 2.037 . S
O386 C406 1.234 . S
C387 O361 1.269 . S
C387 O362 1.257 . S
C388 H363 0.930 . S
C388 C391 1.388 . S
C388 C393 1.418 . S
C389 H384 0.930 1_565 S
C389 C392 1.404 . S
C389 C393 1.353 . S
N390 Co355 2.145 . S
N390 C391 1.397 . S
N390 C392 1.334 . S
C391 H372 0.929 . S
C391 C388 1.388 . S
C391 N390 1.397 . S
C392 H373 0.929 . S
C392 C389 1.404 . S
C392 N390 1.334 . S
C393 H385 0.930 . S
C393 C388 1.418 . S
C393 C389 1.353 . S
C394 H364 0.930 . S
C394 N395 1.330 1_565 S
C394 C396 1.446 1_565 S
N395 Co354 2.151 1_545 S
N395 C394 1.330 1_545 S
N395 C399 1.418 . S
C396 H375 0.929 . S
C396 C394 1.446 1_545 S
C396 C397 1.332 . S
C397 H377 0.931 . S
C397 C396 1.332 . S
C397 C398 1.267 . S
C398 H366 0.929 . S
C398 C397 1.267 . S
C398 C399 1.251 . S
C399 H369 0.929 . S
C399 N395 1.418 . S
C399 C398 1.251 . S
C400 H367 0.930 . S
C400 C402 1.406 . S
C400 C405 1.261 . S
C401 H368 0.930 . S
C401 N403 1.325 . S
C401 C404 1.357 . S
C402 H370 0.928 . S
C402 C400 1.406 . S
C402 N403 1.261 . S
N403 Co354 2.214 . S
N403 C401 1.325 . S
N403 C402 1.261 . S
C404 H374 0.931 . S
C404 C401 1.357 . S
C404 C405 1.312 . S
C405 H376 0.930 . S
C405 C400 1.261 . S
C405 C404 1.312 . S
C406 O378 1.214 . S
C406 O386 1.234 . S
C407 H379 0.929 . S
C407 C410 1.391 . S
C407 C412 1.391 . S
C408 H380 0.929 . S
C408 C409 1.390 . S
C408 N411 1.391 . S
C409 H381 0.930 . S
C409 C408 1.390 . S
C409 C410 1.392 . S
C410 H382 0.929 . S
C410 C407 1.391 . S
C410 C409 1.392 . S
N411 Co355 2.257 . S
N411 C408 1.391 . S
N411 C412 1.388 . S
C412 H383 0.930 . S
C412 C407 1.391 . S
C412 N411 1.388 . S
Co413 O415 2.143 . S
Co413 O421 2.074 1_455 S
Co413 O424 2.093 . S
Co413 O437 2.097 . S
Co413 N454 2.151 1_455 S
Co413 N462 2.214 . S
Co414 O415 2.160 . S
Co414 O420 2.058 1_455 S
Co414 O430 2.057 . S
Co414 O445 2.037 . S
Co414 N449 2.145 . S
Co414 N470 2.257 . S
O415 Co413 2.143 . S
O415 Co414 2.160 . S
C416 O417 1.278 . S
C416 O424 1.224 . S
O417 C416 1.278 . S
C418 O419 1.245 . S
C418 O430 1.232 1_655 S
O419 C418 1.245 . S
O420 Co414 2.058 1_655 S
O420 C446 1.269 . S
O421 Co413 2.074 1_655 S
O421 C446 1.257 . S
H422 C447 0.930 . S
H423 C453 0.930 . S
O424 Co413 2.093 . S
O424 C416 1.224 . S
H425 C457 0.929 . S
H426 C459 0.930 . S
H427 C460 0.930 . S
H428 C458 0.929 . S
H429 C461 0.928 . S
O430 Co414 2.057 . S
O430 C418 1.232 1_455 S
H431 C450 0.929 . S
H432 C451 0.929 . S
H433 C463 0.931 . S
H434 C455 0.929 . S
H435 C464 0.930 . S
H436 C456 0.931 . S
O437 Co413 2.097 . S
O437 C465 1.214 . S
H438 C466 0.929 . S
H439 C467 0.929 . S
H440 C468 0.930 . S
H441 C469 0.929 . S
H442 C471 0.930 . S
H443 C448 0.930 1_655 S
H444 C452 0.930 . S
O445 Co414 2.037 . S
O445 C465 1.234 . S
C446 O420 1.269 . S
C446 O421 1.257 . S
C447 H422 0.930 . S
C447 C450 1.388 . S
C447 C452 1.418 . S
C448 H443 0.930 1_455 S
C448 C451 1.404 . S
C448 C452 1.353 . S
N449 Co414 2.145 . S
N449 C450 1.397 . S
N449 C451 1.334 . S
C450 H431 0.929 . S
C450 C447 1.388 . S
C450 N449 1.397 . S
C451 H432 0.929 . S
C451 C448 1.404 . S
C451 N449 1.334 . S
C452 H444 0.930 . S
C452 C447 1.418 . S
C452 C448 1.353 . S
C453 H423 0.930 . S
C453 N454 1.330 1_455 S
C453 C455 1.446 1_455 S
N454 Co413 2.151 1_655 S
N454 C453 1.330 1_655 S
N454 C458 1.418 . S
C455 H434 0.929 . S
C455 C453 1.446 1_655 S
C455 C456 1.332 . S
C456 H436 0.931 . S
C456 C455 1.332 . S
C456 C457 1.267 . S
C457 H425 0.929 . S
C457 C456 1.267 . S
C457 C458 1.251 . S
C458 H428 0.929 . S
C458 N454 1.418 . S
C458 C457 1.251 . S
C459 H426 0.930 . S
C459 C461 1.406 . S
C459 C464 1.261 . S
C460 H427 0.930 . S
C460 N462 1.325 . S
C460 C463 1.357 . S
C461 H429 0.928 . S
C461 C459 1.406 . S
C461 N462 1.261 . S
N462 Co413 2.214 . S
N462 C460 1.325 . S
N462 C461 1.261 . S
C463 H433 0.931 . S
C463 C460 1.357 . S
C463 C464 1.312 . S
C464 H435 0.930 . S
C464 C459 1.261 . S
C464 C463 1.312 . S
C465 O437 1.214 . S
C465 O445 1.234 . S
C466 H438 0.929 . S
C466 C469 1.391 . S
C466 C471 1.391 . S
C467 H439 0.929 . S
C467 C468 1.390 . S
C467 N470 1.391 . S
C468 H440 0.930 . S
C468 C467 1.390 . S
C468 C469 1.392 . S
C469 H441 0.929 . S
C469 C466 1.391 . S
C469 C468 1.392 . S
N470 Co414 2.257 . S
N470 C467 1.391 . S
N470 C471 1.388 . S
C471 H442 0.930 . S
C471 C466 1.391 . S
C471 N470 1.388 . S
Co472 O474 2.143 . S
Co472 O480 2.074 . S
Co472 O483 2.093 . S
Co472 O496 2.097 . S
Co472 N513 2.151 . S
Co472 N521 2.214 . S
Co473 O474 2.160 . S
Co473 O479 2.058 . S
Co473 O489 2.057 . S
Co473 O504 2.037 . S
Co473 N508 2.145 . S
Co473 N529 2.257 . S
O474 Co472 2.143 . S
O474 Co473 2.160 . S
C475 O476 1.278 . S
C475 O483 1.224 . S
O476 C475 1.278 . S
C477 O478 1.245 . S
C477 O489 1.232 . S
O478 C477 1.245 . S
O479 Co473 2.058 . S
O479 C505 1.269 . S
O480 Co472 2.074 . S
O480 C505 1.257 . S
H481 C506 0.930 . S
H482 C512 0.930 . S
O483 Co472 2.093 . S
O483 C475 1.224 . S
H484 C516 0.929 . S
H485 C518 0.930 . S
H486 C519 0.930 . S
H487 C517 0.929 . S
H488 C520 0.928 . S
O489 Co473 2.057 . S
O489 C477 1.232 . S
H490 C509 0.929 . S
H491 C510 0.929 . S
H492 C522 0.931 . S
H493 C514 0.929 . S
H494 C523 0.930 . S
H495 C515 0.931 . S
O496 Co472 2.097 . S
O496 C524 1.214 . S
H497 C525 0.929 . S
H498 C526 0.929 . S
H499 C527 0.930 . S
H500 C528 0.929 . S
H501 C530 0.930 . S
H502 C507 0.930 . S
H503 C511 0.930 . S
O504 Co473 2.037 . S
O504 C524 1.234 . S
C505 O479 1.269 . S
C505 O480 1.257 . S
C506 H481 0.930 . S
C506 C509 1.388 . S
C506 C511 1.418 . S
C507 H502 0.930 . S
C507 C510 1.404 . S
C507 C511 1.353 . S
N508 Co473 2.145 . S
N508 C509 1.397 . S
N508 C510 1.334 . S
C509 H490 0.929 . S
C509 C506 1.388 . S
C509 N508 1.397 . S
C510 H491 0.929 . S
C510 C507 1.404 . S
C510 N508 1.334 . S
C511 H503 0.930 . S
C511 C506 1.418 . S
C511 C507 1.353 . S
C512 H482 0.930 . S
C512 N513 1.330 . S
C512 C514 1.446 . S
N513 Co472 2.151 . S
N513 C512 1.330 . S
N513 C517 1.418 . S
C514 H493 0.929 . S
C514 C512 1.446 . S
C514 C515 1.332 . S
C515 H495 0.931 . S
C515 C514 1.332 . S
C515 C516 1.267 . S
C516 H484 0.929 . S
C516 C515 1.267 . S
C516 C517 1.251 . S
C517 H487 0.929 . S
C517 N513 1.418 . S
C517 C516 1.251 . S
C518 H485 0.930 . S
C518 C520 1.406 . S
C518 C523 1.261 . S
C519 H486 0.930 . S
C519 N521 1.325 . S
C519 C522 1.357 . S
C520 H488 0.928 . S
C520 C518 1.406 . S
C520 N521 1.261 . S
N521 Co472 2.214 . S
N521 C519 1.325 . S
N521 C520 1.261 . S
C522 H492 0.931 . S
C522 C519 1.357 . S
C522 C523 1.312 . S
C523 H494 0.930 . S
C523 C518 1.261 . S
C523 C522 1.312 . S
C524 O496 1.214 . S
C524 O504 1.234 . S
C525 H497 0.929 . S
C525 C528 1.391 . S
C525 C530 1.391 . S
C526 H498 0.929 . S
C526 C527 1.390 . S
C526 N529 1.391 . S
C527 H499 0.930 . S
C527 C526 1.390 . S
C527 C528 1.392 . S
C528 H500 0.929 . S
C528 C525 1.391 . S
C528 C527 1.392 . S
N529 Co473 2.257 . S
N529 C526 1.391 . S
N529 C530 1.388 . S
C530 H501 0.930 . S
C530 C525 1.391 . S
C530 N529 1.388 . S
Co531 O533 2.143 . S
Co531 O539 2.074 1_655 S
Co531 O542 2.093 . S
Co531 O555 2.097 . S
Co531 N572 2.151 1_655 S
Co531 N580 2.214 . S
Co532 O533 2.160 . S
Co532 O538 2.058 1_655 S
Co532 O548 2.057 . S
Co532 O563 2.037 . S
Co532 N567 2.145 . S
Co532 N588 2.257 . S
O533 Co531 2.143 . S
O533 Co532 2.160 . S
C534 O535 1.278 . S
C534 O542 1.224 . S
O535 C534 1.278 . S
C536 O537 1.245 . S
C536 O548 1.232 1_455 S
O537 C536 1.245 . S
O538 Co532 2.058 1_455 S
O538 C564 1.269 . S
O539 Co531 2.074 1_455 S
O539 C564 1.257 . S
H540 C565 0.930 . S
H541 C571 0.930 . S
O542 Co531 2.093 . S
O542 C534 1.224 . S
H543 C575 0.929 . S
H544 C577 0.930 . S
H545 C578 0.930 . S
H546 C576 0.929 . S
H547 C579 0.928 . S
O548 Co532 2.057 . S
O548 C536 1.232 1_655 S
H549 C568 0.929 . S
H550 C569 0.929 . S
H551 C581 0.931 . S
H552 C573 0.929 . S
H553 C582 0.930 . S
H554 C574 0.931 . S
O555 Co531 2.097 . S
O555 C583 1.214 . S
H556 C584 0.929 . S
H557 C585 0.929 . S
H558 C586 0.930 . S
H559 C587 0.929 . S
H560 C589 0.930 . S
H561 C566 0.930 1_455 S
H562 C570 0.930 . S
O563 Co532 2.037 . S
O563 C583 1.234 . S
C564 O538 1.269 . S
C564 O539 1.257 . S
C565 H540 0.930 . S
C565 C568 1.388 . S
C565 C570 1.418 . S
C566 H561 0.930 1_655 S
C566 C569 1.404 . S
C566 C570 1.353 . S
N567 Co532 2.145 . S
N567 C568 1.397 . S
N567 C569 1.334 . S
C568 H549 0.929 . S
C568 C565 1.388 . S
C568 N567 1.397 . S
C569 H550 0.929 . S
C569 C566 1.404 . S
C569 N567 1.334 . S
C570 H562 0.930 . S
C570 C565 1.418 . S
C570 C566 1.353 . S
C571 H541 0.930 . S
C571 N572 1.330 1_655 S
C571 C573 1.446 1_655 S
N572 Co531 2.151 1_455 S
N572 C571 1.330 1_455 S
N572 C576 1.418 . S
C573 H552 0.929 . S
C573 C571 1.446 1_455 S
C573 C574 1.332 . S
C574 H554 0.931 . S
C574 C573 1.332 . S
C574 C575 1.267 . S
C575 H543 0.929 . S
C575 C574 1.267 . S
C575 C576 1.251 . S
C576 H546 0.929 . S
C576 N572 1.418 . S
C576 C575 1.251 . S
C577 H544 0.930 . S
C577 C579 1.406 . S
C577 C582 1.261 . S
C578 H545 0.930 . S
C578 N580 1.325 . S
C578 C581 1.357 . S
C579 H547 0.928 . S
C579 C577 1.406 . S
C579 N580 1.261 . S
N580 Co531 2.214 . S
N580 C578 1.325 . S
N580 C579 1.261 . S
C581 H551 0.931 . S
C581 C578 1.357 . S
C581 C582 1.312 . S
C582 H553 0.930 . S
C582 C577 1.261 . S
C582 C581 1.312 . S
C583 O555 1.214 . S
C583 O563 1.234 . S
C584 H556 0.929 . S
C584 C587 1.391 . S
C584 C589 1.391 . S
C585 H557 0.929 . S
C585 C586 1.390 . S
C585 N588 1.391 . S
C586 H558 0.930 . S
C586 C585 1.390 . S
C586 C587 1.392 . S
C587 H559 0.929 . S
C587 C584 1.391 . S
C587 C586 1.392 . S
N588 Co532 2.257 . S
N588 C585 1.391 . S
N588 C589 1.388 . S
C589 H560 0.930 . S
C589 C584 1.391 . S
C589 N588 1.388 . S
Co590 O592 2.143 . S
Co590 O598 2.074 . S
Co590 O601 2.093 . S
Co590 O614 2.097 . S
Co590 N631 2.151 . S
Co590 N639 2.214 . S
Co591 O592 2.160 . S
Co591 O597 2.058 . S
Co591 O607 2.057 . S
Co591 O622 2.037 . S
Co591 N626 2.145 . S
Co591 N647 2.257 . S
O592 Co590 2.143 . S
O592 Co591 2.160 . S
C593 O594 1.278 . S
C593 O601 1.224 . S
O594 C593 1.278 . S
C595 O596 1.245 . S
C595 O607 1.232 . S
O596 C595 1.245 . S
O597 Co591 2.058 . S
O597 C623 1.269 . S
O598 Co590 2.074 . S
O598 C623 1.257 . S
H599 C624 0.930 . S
H600 C630 0.930 . S
O601 Co590 2.093 . S
O601 C593 1.224 . S
H602 C634 0.929 . S
H603 C636 0.930 . S
H604 C637 0.930 . S
H605 C635 0.929 . S
H606 C638 0.928 . S
O607 Co591 2.057 . S
O607 C595 1.232 . S
H608 C627 0.929 . S
H609 C628 0.929 . S
H610 C640 0.931 . S
H611 C632 0.929 . S
H612 C641 0.930 . S
H613 C633 0.931 . S
O614 Co590 2.097 . S
O614 C642 1.214 . S
H615 C643 0.929 . S
H616 C644 0.929 . S
H617 C645 0.930 . S
H618 C646 0.929 . S
H619 C648 0.930 . S
H620 C625 0.930 . S
H621 C629 0.930 . S
O622 Co591 2.037 . S
O622 C642 1.234 . S
C623 O597 1.269 . S
C623 O598 1.257 . S
C624 H599 0.930 . S
C624 C627 1.388 . S
C624 C629 1.418 . S
C625 H620 0.930 . S
C625 C628 1.404 . S
C625 C629 1.353 . S
N626 Co591 2.145 . S
N626 C627 1.397 . S
N626 C628 1.334 . S
C627 H608 0.929 . S
C627 C624 1.388 . S
C627 N626 1.397 . S
C628 H609 0.929 . S
C628 C625 1.404 . S
C628 N626 1.334 . S
C629 H621 0.930 . S
C629 C624 1.418 . S
C629 C625 1.353 . S
C630 H600 0.930 . S
C630 N631 1.330 . S
C630 C632 1.446 . S
N631 Co590 2.151 . S
N631 C630 1.330 . S
N631 C635 1.418 . S
C632 H611 0.929 . S
C632 C630 1.446 . S
C632 C633 1.332 . S
C633 H613 0.931 . S
C633 C632 1.332 . S
C633 C634 1.267 . S
C634 H602 0.929 . S
C634 C633 1.267 . S
C634 C635 1.251 . S
C635 H605 0.929 . S
C635 N631 1.418 . S
C635 C634 1.251 . S
C636 H603 0.930 . S
C636 C638 1.406 . S
C636 C641 1.261 . S
C637 H604 0.930 . S
C637 N639 1.325 . S
C637 C640 1.357 . S
C638 H606 0.928 . S
C638 C636 1.406 . S
C638 N639 1.261 . S
N639 Co590 2.214 . S
N639 C637 1.325 . S
N639 C638 1.261 . S
C640 H610 0.931 . S
C640 C637 1.357 . S
C640 C641 1.312 . S
C641 H612 0.930 . S
C641 C636 1.261 . S
C641 C640 1.312 . S
C642 O614 1.214 . S
C642 O622 1.234 . S
C643 H615 0.929 . S
C643 C646 1.391 . S
C643 C648 1.391 . S
C644 H616 0.929 . S
C644 C645 1.390 . S
C644 N647 1.391 . S
C645 H617 0.930 . S
C645 C644 1.390 . S
C645 C646 1.392 . S
C646 H618 0.929 . S
C646 C643 1.391 . S
C646 C645 1.392 . S
N647 Co591 2.257 . S
N647 C644 1.391 . S
N647 C648 1.388 . S
C648 H619 0.930 . S
C648 C643 1.391 . S
C648 N647 1.388 . S
Co649 O651 2.143 . S
Co649 O657 2.074 1_545 S
Co649 O660 2.093 . S
Co649 O673 2.097 . S
Co649 N690 2.151 1_545 S
Co649 N698 2.214 . S
Co650 O651 2.160 . S
Co650 O656 2.058 1_545 S
Co650 O666 2.057 . S
Co650 O681 2.037 . S
Co650 N685 2.145 . S
Co650 N706 2.257 . S
O651 Co649 2.143 . S
O651 Co650 2.160 . S
C652 O653 1.278 . S
C652 O660 1.224 . S
O653 C652 1.278 . S
C654 O655 1.245 . S
C654 O666 1.232 1_565 S
O655 C654 1.245 . S
O656 Co650 2.058 1_565 S
O656 C682 1.269 . S
O657 Co649 2.074 1_565 S
O657 C682 1.257 . S
H658 C683 0.930 . S
H659 C689 0.930 . S
O660 Co649 2.093 . S
O660 C652 1.224 . S
H661 C693 0.929 . S
H662 C695 0.930 . S
H663 C696 0.930 . S
H664 C694 0.929 . S
H665 C697 0.928 . S
O666 Co650 2.057 . S
O666 C654 1.232 1_545 S
H667 C686 0.929 . S
H668 C687 0.929 . S
H669 C699 0.931 . S
H670 C691 0.929 . S
H671 C700 0.930 . S
H672 C692 0.931 . S
O673 Co649 2.097 . S
O673 C701 1.214 . S
H674 C702 0.929 . S
H675 C703 0.929 . S
H676 C704 0.930 . S
H677 C705 0.929 . S
H678 C707 0.930 . S
H679 C684 0.930 1_565 S
H680 C688 0.930 . S
O681 Co650 2.037 . S
O681 C701 1.234 . S
C682 O656 1.269 . S
C682 O657 1.257 . S
C683 H658 0.930 . S
C683 C686 1.388 . S
C683 C688 1.418 . S
C684 H679 0.930 1_545 S
C684 C687 1.404 . S
C684 C688 1.353 . S
N685 Co650 2.145 . S
N685 C686 1.397 . S
N685 C687 1.334 . S
C686 H667 0.929 . S
C686 C683 1.388 . S
C686 N685 1.397 . S
C687 H668 0.929 . S
C687 C684 1.404 . S
C687 N685 1.334 . S
C688 H680 0.930 . S
C688 C683 1.418 . S
C688 C684 1.353 . S
C689 H659 0.930 . S
C689 N690 1.330 1_545 S
C689 C691 1.446 1_545 S
N690 Co649 2.151 1_565 S
N690 C689 1.330 1_565 S
N690 C694 1.418 . S
C691 H670 0.929 . S
C691 C689 1.446 1_565 S
C691 C692 1.332 . S
C692 H672 0.931 . S
C692 C691 1.332 . S
C692 C693 1.267 . S
C693 H661 0.929 . S
C693 C692 1.267 . S
C693 C694 1.251 . S
C694 H664 0.929 . S
C694 N690 1.418 . S
C694 C693 1.251 . S
C695 H662 0.930 . S
C695 C697 1.406 . S
C695 C700 1.261 . S
C696 H663 0.930 . S
C696 N698 1.325 . S
C696 C699 1.357 . S
C697 H665 0.928 . S
C697 C695 1.406 . S
C697 N698 1.261 . S
N698 Co649 2.214 . S
N698 C696 1.325 . S
N698 C697 1.261 . S
C699 H669 0.931 . S
C699 C696 1.357 . S
C699 C700 1.312 . S
C700 H671 0.930 . S
C700 C695 1.261 . S
C700 C699 1.312 . S
C701 O673 1.214 . S
C701 O681 1.234 . S
C702 H674 0.929 . S
C702 C705 1.391 . S
C702 C707 1.391 . S
C703 H675 0.929 . S
C703 C704 1.390 . S
C703 N706 1.391 . S
C704 H676 0.930 . S
C704 C703 1.390 . S
C704 C705 1.392 . S
C705 H677 0.929 . S
C705 C702 1.391 . S
C705 C704 1.392 . S
N706 Co650 2.257 . S
N706 C703 1.391 . S
N706 C707 1.388 . S
C707 H678 0.930 . S
C707 C702 1.391 . S
C707 N706 1.388 . S
Co708 O710 2.143 . S
Co708 O716 2.074 . S
Co708 O719 2.093 . S
Co708 O732 2.097 . S
Co708 N749 2.151 . S
Co708 N757 2.214 . S
Co709 O710 2.160 . S
Co709 O715 2.058 . S
Co709 O725 2.057 . S
Co709 O740 2.037 . S
Co709 N744 2.145 . S
Co709 N765 2.257 . S
O710 Co708 2.143 . S
O710 Co709 2.160 . S
C711 O712 1.278 . S
C711 O719 1.224 . S
O712 C711 1.278 . S
C713 O714 1.245 . S
C713 O725 1.232 . S
O714 C713 1.245 . S
O715 Co709 2.058 . S
O715 C741 1.269 . S
O716 Co708 2.074 . S
O716 C741 1.257 . S
H717 C742 0.930 . S
H718 C748 0.930 . S
O719 Co708 2.093 . S
O719 C711 1.224 . S
H720 C752 0.929 . S
H721 C754 0.930 . S
H722 C755 0.930 . S
H723 C753 0.929 . S
H724 C756 0.928 . S
O725 Co709 2.057 . S
O725 C713 1.232 . S
H726 C745 0.929 . S
H727 C746 0.929 . S
H728 C758 0.931 . S
H729 C750 0.929 . S
H730 C759 0.930 . S
H731 C751 0.931 . S
O732 Co708 2.097 . S
O732 C760 1.214 . S
H733 C761 0.929 1_455 S
H734 C762 0.929 . S
H735 C763 0.930 . S
H736 C764 0.929 . S
H737 C766 0.930 . S
H738 C743 0.930 . S
H739 C747 0.930 . S
O740 Co709 2.037 . S
O740 C760 1.234 . S
C741 O715 1.269 . S
C741 O716 1.257 . S
C742 H717 0.930 . S
C742 C745 1.388 . S
C742 C747 1.418 . S
C743 H738 0.930 . S
C743 C746 1.404 . S
C743 C747 1.353 . S
N744 Co709 2.145 . S
N744 C745 1.397 . S
N744 C746 1.334 . S
C745 H726 0.929 . S
C745 C742 1.388 . S
C745 N744 1.397 . S
C746 H727 0.929 . S
C746 C743 1.404 . S
C746 N744 1.334 . S
C747 H739 0.930 . S
C747 C742 1.418 . S
C747 C743 1.353 . S
C748 H718 0.930 . S
C748 N749 1.330 . S
C748 C750 1.446 . S
N749 Co708 2.151 . S
N749 C748 1.330 . S
N749 C753 1.418 . S
C750 H729 0.929 . S
C750 C748 1.446 . S
C750 C751 1.332 . S
C751 H731 0.931 . S
C751 C750 1.332 . S
C751 C752 1.267 . S
C752 H720 0.929 . S
C752 C751 1.267 . S
C752 C753 1.251 . S
C753 H723 0.929 . S
C753 N749 1.418 . S
C753 C752 1.251 . S
C754 H721 0.930 . S
C754 C756 1.406 . S
C754 C759 1.261 . S
C755 H722 0.930 . S
C755 N757 1.325 . S
C755 C758 1.357 . S
C756 H724 0.928 . S
C756 C754 1.406 . S
C756 N757 1.261 . S
N757 Co708 2.214 . S
N757 C755 1.325 . S
N757 C756 1.261 . S
C758 H728 0.931 . S
C758 C755 1.357 . S
C758 C759 1.312 . S
C759 H730 0.930 . S
C759 C754 1.261 . S
C759 C758 1.312 . S
C760 O732 1.214 . S
C760 O740 1.234 . S
C761 H733 0.929 1_655 S
C761 C764 1.391 . S
C761 C766 1.391 . S
C762 H734 0.929 . S
C762 C763 1.390 . S
C762 N765 1.391 . S
C763 H735 0.930 . S
C763 C762 1.390 . S
C763 C764 1.392 . S
C764 H736 0.929 . S
C764 C761 1.391 . S
C764 C763 1.392 . S
N765 Co709 2.257 . S
N765 C762 1.391 . S
N765 C766 1.388 . S
C766 H737 0.930 . S
C766 C761 1.391 . S
C766 N765 1.388 . S
Co767 O769 2.143 . S
Co767 O775 2.074 . S
Co767 O778 2.093 . S
Co767 O791 2.097 . S
Co767 N808 2.151 . S
Co767 N816 2.214 . S
Co768 O769 2.160 . S
Co768 O774 2.058 . S
Co768 O784 2.057 . S
Co768 O799 2.037 . S
Co768 N803 2.145 . S
Co768 N824 2.257 . S
O769 Co767 2.143 . S
O769 Co768 2.160 . S
C770 O771 1.278 . S
C770 O778 1.224 . S
O771 C770 1.278 . S
C772 O773 1.245 . S
C772 O784 1.232 . S
O773 C772 1.245 . S
O774 Co768 2.058 . S
O774 C800 1.269 . S
O775 Co767 2.074 . S
O775 C800 1.257 . S
H776 C801 0.930 . S
H777 C807 0.930 . S
O778 Co767 2.093 . S
O778 C770 1.224 . S
H779 C811 0.929 . S
H780 C813 0.930 . S
H781 C814 0.930 . S
H782 C812 0.929 . S
H783 C815 0.928 . S
O784 Co768 2.057 . S
O784 C772 1.232 . S
H785 C804 0.929 . S
H786 C805 0.929 . S
H787 C817 0.931 . S
H788 C809 0.929 . S
H789 C818 0.930 . S
H790 C810 0.931 . S
O791 Co767 2.097 . S
O791 C819 1.214 . S
H792 C820 0.929 . S
H793 C821 0.929 . S
H794 C822 0.930 . S
H795 C823 0.929 . S
H796 C825 0.930 . S
H797 C802 0.930 . S
H798 C806 0.930 . S
O799 Co768 2.037 . S
O799 C819 1.234 . S
C800 O774 1.269 . S
C800 O775 1.257 . S
C801 H776 0.930 . S
C801 C804 1.388 . S
C801 C806 1.418 . S
C802 H797 0.930 . S
C802 C805 1.404 . S
C802 C806 1.353 . S
N803 Co768 2.145 . S
N803 C804 1.397 . S
N803 C805 1.334 . S
C804 H785 0.929 . S
C804 C801 1.388 . S
C804 N803 1.397 . S
C805 H786 0.929 . S
C805 C802 1.404 . S
C805 N803 1.334 . S
C806 H798 0.930 . S
C806 C801 1.418 . S
C806 C802 1.353 . S
C807 H777 0.930 . S
C807 N808 1.330 . S
C807 C809 1.446 . S
N808 Co767 2.151 . S
N808 C807 1.330 . S
N808 C812 1.418 . S
C809 H788 0.929 . S
C809 C807 1.446 . S
C809 C810 1.332 . S
C810 H790 0.931 . S
C810 C809 1.332 . S
C810 C811 1.267 . S
C811 H779 0.929 . S
C811 C810 1.267 . S
C811 C812 1.251 . S
C812 H782 0.929 . S
C812 N808 1.418 . S
C812 C811 1.251 . S
C813 H780 0.930 . S
C813 C815 1.406 . S
C813 C818 1.261 . S
C814 H781 0.930 . S
C814 N816 1.325 . S
C814 C817 1.357 . S
C815 H783 0.928 . S
C815 C813 1.406 . S
C815 N816 1.261 . S
N816 Co767 2.214 . S
N816 C814 1.325 . S
N816 C815 1.261 . S
C817 H787 0.931 . S
C817 C814 1.357 . S
C817 C818 1.312 . S
C818 H789 0.930 . S
C818 C813 1.261 . S
C818 C817 1.312 . S
C819 O791 1.214 . S
C819 O799 1.234 . S
C820 H792 0.929 . S
C820 C823 1.391 . S
C820 C825 1.391 . S
C821 H793 0.929 . S
C821 C822 1.390 . S
C821 N824 1.391 . S
C822 H794 0.930 . S
C822 C821 1.390 . S
C822 C823 1.392 . S
C823 H795 0.929 . S
C823 C820 1.391 . S
C823 C822 1.392 . S
N824 Co768 2.257 . S
N824 C821 1.391 . S
N824 C825 1.388 . S
C825 H796 0.930 . S
C825 C820 1.391 . S
C825 N824 1.388 . S
Co826 O828 2.143 . S
Co826 O834 2.074 . S
Co826 O837 2.093 . S
Co826 O850 2.097 . S
Co826 N867 2.151 . S
Co826 N875 2.214 . S
Co827 O828 2.160 . S
Co827 O833 2.058 . S
Co827 O843 2.057 . S
Co827 O858 2.037 . S
Co827 N862 2.145 . S
Co827 N883 2.257 . S
O828 Co826 2.143 . S
O828 Co827 2.160 . S
C829 O830 1.278 . S
C829 O837 1.224 . S
O830 C829 1.278 . S
C831 O832 1.245 . S
C831 O843 1.232 . S
O832 C831 1.245 . S
O833 Co827 2.058 . S
O833 C859 1.269 . S
O834 Co826 2.074 . S
O834 C859 1.257 . S
H835 C860 0.930 . S
H836 C866 0.930 . S
O837 Co826 2.093 . S
O837 C829 1.224 . S
H838 C870 0.929 . S
H839 C872 0.930 . S
H840 C873 0.930 . S
H841 C871 0.929 . S
H842 C874 0.928 . S
O843 Co827 2.057 . S
O843 C831 1.232 . S
H844 C863 0.929 . S
H845 C864 0.929 . S
H846 C876 0.931 . S
H847 C868 0.929 . S
H848 C877 0.930 . S
H849 C869 0.931 . S
O850 Co826 2.097 . S
O850 C878 1.214 . S
H851 C879 0.929 1_565 S
H852 C880 0.929 . S
H853 C881 0.930 . S
H854 C882 0.929 . S
H855 C884 0.930 . S
H856 C861 0.930 . S
H857 C865 0.930 . S
O858 Co827 2.037 . S
O858 C878 1.234 . S
C859 O833 1.269 . S
C859 O834 1.257 . S
C860 H835 0.930 . S
C860 C863 1.388 . S
C860 C865 1.418 . S
C861 H856 0.930 . S
C861 C864 1.404 . S
C861 C865 1.353 . S
N862 Co827 2.145 . S
N862 C863 1.397 . S
N862 C864 1.334 . S
C863 H844 0.929 . S
C863 C860 1.388 . S
C863 N862 1.397 . S
C864 H845 0.929 . S
C864 C861 1.404 . S
C864 N862 1.334 . S
C865 H857 0.930 . S
C865 C860 1.418 . S
C865 C861 1.353 . S
C866 H836 0.930 . S
C866 N867 1.330 . S
C866 C868 1.446 . S
N867 Co826 2.151 . S
N867 C866 1.330 . S
N867 C871 1.418 . S
C868 H847 0.929 . S
C868 C866 1.446 . S
C868 C869 1.332 . S
C869 H849 0.931 . S
C869 C868 1.332 . S
C869 C870 1.267 . S
C870 H838 0.929 . S
C870 C869 1.267 . S
C870 C871 1.251 . S
C871 H841 0.929 . S
C871 N867 1.418 . S
C871 C870 1.251 . S
C872 H839 0.930 . S
C872 C874 1.406 . S
C872 C877 1.261 . S
C873 H840 0.930 . S
C873 N875 1.325 . S
C873 C876 1.357 . S
C874 H842 0.928 . S
C874 C872 1.406 . S
C874 N875 1.261 . S
N875 Co826 2.214 . S
N875 C873 1.325 . S
N875 C874 1.261 . S
C876 H846 0.931 . S
C876 C873 1.357 . S
C876 C877 1.312 . S
C877 H848 0.930 . S
C877 C872 1.261 . S
C877 C876 1.312 . S
C878 O850 1.214 . S
C878 O858 1.234 . S
C879 H851 0.929 1_545 S
C879 C882 1.391 . S
C879 C884 1.391 . S
C880 H852 0.929 . S
C880 C881 1.390 . S
C880 N883 1.391 . S
C881 H853 0.930 . S
C881 C880 1.390 . S
C881 C882 1.392 . S
C882 H854 0.929 . S
C882 C879 1.391 . S
C882 C881 1.392 . S
N883 Co827 2.257 . S
N883 C880 1.391 . S
N883 C884 1.388 . S
C884 H855 0.930 . S
C884 C879 1.391 . S
C884 N883 1.388 . S
Co885 O887 2.143 . S
Co885 O893 2.074 . S
Co885 O896 2.093 . S
Co885 O909 2.097 . S
Co885 N926 2.151 . S
Co885 N934 2.214 . S
Co886 O887 2.160 . S
Co886 O892 2.058 . S
Co886 O902 2.057 . S
Co886 O917 2.037 . S
Co886 N921 2.145 . S
Co886 N942 2.257 . S
O887 Co885 2.143 . S
O887 Co886 2.160 . S
C888 O889 1.278 . S
C888 O896 1.224 . S
O889 C888 1.278 . S
C890 O891 1.245 . S
C890 O902 1.232 . S
O891 C890 1.245 . S
O892 Co886 2.058 . S
O892 C918 1.269 . S
O893 Co885 2.074 . S
O893 C918 1.257 . S
H894 C919 0.930 . S
H895 C925 0.930 . S
O896 Co885 2.093 . S
O896 C888 1.224 . S
H897 C929 0.929 . S
H898 C931 0.930 . S
H899 C932 0.930 . S
H900 C930 0.929 . S
H901 C933 0.928 . S
O902 Co886 2.057 . S
O902 C890 1.232 . S
H903 C922 0.929 . S
H904 C923 0.929 . S
H905 C935 0.931 . S
H906 C927 0.929 . S
H907 C936 0.930 . S
H908 C928 0.931 . S
O909 Co885 2.097 . S
O909 C937 1.214 . S
H910 C938 0.929 . S
H911 C939 0.929 . S
H912 C940 0.930 . S
H913 C941 0.929 . S
H914 C943 0.930 . S
H915 C920 0.930 . S
H916 C924 0.930 . S
O917 Co886 2.037 . S
O917 C937 1.234 . S
C918 O892 1.269 . S
C918 O893 1.257 . S
C919 H894 0.930 . S
C919 C922 1.388 . S
C919 C924 1.418 . S
C920 H915 0.930 . S
C920 C923 1.404 . S
C920 C924 1.353 . S
N921 Co886 2.145 . S
N921 C922 1.397 . S
N921 C923 1.334 . S
C922 H903 0.929 . S
C922 C919 1.388 . S
C922 N921 1.397 . S
C923 H904 0.929 . S
C923 C920 1.404 . S
C923 N921 1.334 . S
C924 H916 0.930 . S
C924 C919 1.418 . S
C924 C920 1.353 . S
C925 H895 0.930 . S
C925 N926 1.330 . S
C925 C927 1.446 . S
N926 Co885 2.151 . S
N926 C925 1.330 . S
N926 C930 1.418 . S
C927 H906 0.929 . S
C927 C925 1.446 . S
C927 C928 1.332 . S
C928 H908 0.931 . S
C928 C927 1.332 . S
C928 C929 1.267 . S
C929 H897 0.929 . S
C929 C928 1.267 . S
C929 C930 1.251 . S
C930 H900 0.929 . S
C930 N926 1.418 . S
C930 C929 1.251 . S
C931 H898 0.930 . S
C931 C933 1.406 . S
C931 C936 1.261 . S
C932 H899 0.930 . S
C932 N934 1.325 . S
C932 C935 1.357 . S
C933 H901 0.928 . S
C933 C931 1.406 . S
C933 N934 1.261 . S
N934 Co885 2.214 . S
N934 C932 1.325 . S
N934 C933 1.261 . S
C935 H905 0.931 . S
C935 C932 1.357 . S
C935 C936 1.312 . S
C936 H907 0.930 . S
C936 C931 1.261 . S
C936 C935 1.312 . S
C937 O909 1.214 . S
C937 O917 1.234 . S
C938 H910 0.929 . S
C938 C941 1.391 . S
C938 C943 1.391 . S
C939 H911 0.929 . S
C939 C940 1.390 . S
C939 N942 1.391 . S
C940 H912 0.930 . S
C940 C939 1.390 . S
C940 C941 1.392 . S
C941 H913 0.929 . S
C941 C938 1.391 . S
C941 C940 1.392 . S
N942 Co886 2.257 . S
N942 C939 1.391 . S
N942 C943 1.388 . S
C943 H914 0.930 . S
C943 C938 1.391 . S
C943 N942 1.388 . S
Co944 O946 2.143 . S
Co944 O952 2.074 . S
Co944 O955 2.093 . S
Co944 O968 2.097 . S
Co944 N985 2.151 . S
Co944 N993 2.214 . S
Co945 O946 2.160 . S
Co945 O951 2.058 . S
Co945 O961 2.057 . S
Co945 O976 2.037 . S
Co945 N980 2.145 . S
Co945 N1001 2.257 . S
O946 Co944 2.143 . S
O946 Co945 2.160 . S
C947 O948 1.278 . S
C947 O955 1.224 . S
O948 C947 1.278 . S
C949 O950 1.245 . S
C949 O961 1.232 . S
O950 C949 1.245 . S
O951 Co945 2.058 . S
O951 C977 1.269 . S
O952 Co944 2.074 . S
O952 C977 1.257 . S
H953 C978 0.930 . S
H954 C984 0.930 . S
O955 Co944 2.093 . S
O955 C947 1.224 . S
H956 C988 0.929 . S
H957 C990 0.930 . S
H958 C991 0.930 . S
H959 C989 0.929 . S
H960 C992 0.928 . S
O961 Co945 2.057 . S
O961 C949 1.232 . S
H962 C981 0.929 . S
H963 C982 0.929 . S
H964 C994 0.931 . S
H965 C986 0.929 . S
H966 C995 0.930 . S
H967 C987 0.931 . S
O968 Co944 2.097 . S
O968 C996 1.214 . S
H969 C997 0.929 . S
H970 C998 0.929 . S
H971 C999 0.930 . S
H972 C1000 0.929 . S
H973 C1002 0.930 . S
H974 C979 0.930 . S
H975 C983 0.930 . S
O976 Co945 2.037 . S
O976 C996 1.234 . S
C977 O951 1.269 . S
C977 O952 1.257 . S
C978 H953 0.930 . S
C978 C981 1.388 . S
C978 C983 1.418 . S
C979 H974 0.930 . S
C979 C982 1.404 . S
C979 C983 1.353 . S
N980 Co945 2.145 . S
N980 C981 1.397 . S
N980 C982 1.334 . S
C981 H962 0.929 . S
C981 C978 1.388 . S
C981 N980 1.397 . S
C982 H963 0.929 . S
C982 C979 1.404 . S
C982 N980 1.334 . S
C983 H975 0.930 . S
C983 C978 1.418 . S
C983 C979 1.353 . S
C984 H954 0.930 . S
C984 N985 1.330 . S
C984 C986 1.446 . S
N985 Co944 2.151 . S
N985 C984 1.330 . S
N985 C989 1.418 . S
C986 H965 0.929 . S
C986 C984 1.446 . S
C986 C987 1.332 . S
C987 H967 0.931 . S
C987 C986 1.332 . S
C987 C988 1.267 . S
C988 H956 0.929 . S
C988 C987 1.267 . S
C988 C989 1.251 . S
C989 H959 0.929 . S
C989 N985 1.418 . S
C989 C988 1.251 . S
C990 H957 0.930 . S
C990 C992 1.406 . S
C990 C995 1.261 . S
C991 H958 0.930 . S
C991 N993 1.325 . S
C991 C994 1.357 . S
C992 H960 0.928 . S
C992 C990 1.406 . S
C992 N993 1.261 . S
N993 Co944 2.214 . S
N993 C991 1.325 . S
N993 C992 1.261 . S
C994 H964 0.931 . S
C994 C991 1.357 . S
C994 C995 1.312 . S
C995 H966 0.930 . S
C995 C990 1.261 . S
C995 C994 1.312 . S
C996 O968 1.214 . S
C996 O976 1.234 . S
C997 H969 0.929 . S
C997 C1000 1.391 . S
C997 C1002 1.391 . S
C998 H970 0.929 . S
C998 C999 1.390 . S
C998 N1001 1.391 . S
C999 H971 0.930 . S
C999 C998 1.390 . S
C999 C1000 1.392 . S
C1000 H972 0.929 . S
C1000 C997 1.391 . S
C1000 C999 1.392 . S
N1001 Co945 2.257 . S
N1001 C998 1.391 . S
N1001 C1002 1.388 . S
C1002 H973 0.930 . S
C1002 C997 1.391 . S
C1002 N1001 1.388 . S
Co1003 O1005 2.143 . S
Co1003 O1011 2.074 . S
Co1003 O1014 2.093 . S
Co1003 O1027 2.097 . S
Co1003 N1044 2.151 . S
Co1003 N1052 2.214 . S
Co1004 O1005 2.160 . S
Co1004 O1010 2.058 . S
Co1004 O1020 2.057 . S
Co1004 O1035 2.037 . S
Co1004 N1039 2.145 . S
Co1004 N1060 2.257 . S
O1005 Co1003 2.143 . S
O1005 Co1004 2.160 . S
C1006 O1007 1.278 . S
C1006 O1014 1.224 . S
O1007 C1006 1.278 . S
C1008 O1009 1.245 . S
C1008 O1020 1.232 . S
O1009 C1008 1.245 . S
O1010 Co1004 2.058 . S
O1010 C1036 1.269 . S
O1011 Co1003 2.074 . S
O1011 C1036 1.257 . S
H1012 C1037 0.930 . S
H1013 C1043 0.930 . S
O1014 Co1003 2.093 . S
O1014 C1006 1.224 . S
H1015 C1047 0.929 . S
H1016 C1049 0.930 . S
H1017 C1050 0.930 . S
H1018 C1048 0.929 . S
H1019 C1051 0.928 . S
O1020 Co1004 2.057 . S
O1020 C1008 1.232 . S
H1021 C1040 0.929 . S
H1022 C1041 0.929 . S
H1023 C1053 0.931 . S
H1024 C1045 0.929 . S
H1025 C1054 0.930 . S
H1026 C1046 0.931 . S
O1027 Co1003 2.097 . S
O1027 C1055 1.214 . S
H1028 C1056 0.929 . S
H1029 C1057 0.929 . S
H1030 C1058 0.930 . S
H1031 C1059 0.929 . S
H1032 C1061 0.930 . S
H1033 C1038 0.930 . S
H1034 C1042 0.930 . S
O1035 Co1004 2.037 . S
O1035 C1055 1.234 . S
C1036 O1010 1.269 . S
C1036 O1011 1.257 . S
C1037 H1012 0.930 . S
C1037 C1040 1.388 . S
C1037 C1042 1.418 . S
C1038 H1033 0.930 . S
C1038 C1041 1.404 . S
C1038 C1042 1.353 . S
N1039 Co1004 2.145 . S
N1039 C1040 1.397 . S
N1039 C1041 1.334 . S
C1040 H1021 0.929 . S
C1040 C1037 1.388 . S
C1040 N1039 1.397 . S
C1041 H1022 0.929 . S
C1041 C1038 1.404 . S
C1041 N1039 1.334 . S
C1042 H1034 0.930 . S
C1042 C1037 1.418 . S
C1042 C1038 1.353 . S
C1043 H1013 0.930 . S
C1043 N1044 1.330 . S
C1043 C1045 1.446 . S
N1044 Co1003 2.151 . S
N1044 C1043 1.330 . S
N1044 C1048 1.418 . S
C1045 H1024 0.929 . S
C1045 C1043 1.446 . S
C1045 C1046 1.332 . S
C1046 H1026 0.931 . S
C1046 C1045 1.332 . S
C1046 C1047 1.267 . S
C1047 H1015 0.929 . S
C1047 C1046 1.267 . S
C1047 C1048 1.251 . S
C1048 H1018 0.929 . S
C1048 N1044 1.418 . S
C1048 C1047 1.251 . S
C1049 H1016 0.930 . S
C1049 C1051 1.406 . S
C1049 C1054 1.261 . S
C1050 H1017 0.930 . S
C1050 N1052 1.325 . S
C1050 C1053 1.357 . S
C1051 H1019 0.928 . S
C1051 C1049 1.406 . S
C1051 N1052 1.261 . S
N1052 Co1003 2.214 . S
N1052 C1050 1.325 . S
N1052 C1051 1.261 . S
C1053 H1023 0.931 . S
C1053 C1050 1.357 . S
C1053 C1054 1.312 . S
C1054 H1025 0.930 . S
C1054 C1049 1.261 . S
C1054 C1053 1.312 . S
C1055 O1027 1.214 . S
C1055 O1035 1.234 . S
C1056 H1028 0.929 . S
C1056 C1059 1.391 . S
C1056 C1061 1.391 . S
C1057 H1029 0.929 . S
C1057 C1058 1.390 . S
C1057 N1060 1.391 . S
C1058 H1030 0.930 . S
C1058 C1057 1.390 . S
C1058 C1059 1.392 . S
C1059 H1031 0.929 . S
C1059 C1056 1.391 . S
C1059 C1058 1.392 . S
N1060 Co1004 2.257 . S
N1060 C1057 1.391 . S
N1060 C1061 1.388 . S
C1061 H1032 0.930 . S
C1061 C1056 1.391 . S
C1061 N1060 1.388 . S
Co1062 O1064 2.143 . S
Co1062 O1070 2.074 . S
Co1062 O1073 2.093 . S
Co1062 O1086 2.097 . S
Co1062 N1103 2.151 . S
Co1062 N1111 2.214 . S
Co1063 O1064 2.160 . S
Co1063 O1069 2.058 . S
Co1063 O1079 2.057 . S
Co1063 O1094 2.037 . S
Co1063 N1098 2.145 . S
Co1063 N1119 2.257 . S
O1064 Co1062 2.143 . S
O1064 Co1063 2.160 . S
C1065 O1066 1.278 . S
C1065 O1073 1.224 . S
O1066 C1065 1.278 . S
C1067 O1068 1.245 . S
C1067 O1079 1.232 . S
O1068 C1067 1.245 . S
O1069 Co1063 2.058 . S
O1069 C1095 1.269 . S
O1070 Co1062 2.074 . S
O1070 C1095 1.257 . S
H1071 C1096 0.930 . S
H1072 C1102 0.930 . S
O1073 Co1062 2.093 . S
O1073 C1065 1.224 . S
H1074 C1106 0.929 . S
H1075 C1108 0.930 . S
H1076 C1109 0.930 . S
H1077 C1107 0.929 . S
H1078 C1110 0.928 . S
O1079 Co1063 2.057 . S
O1079 C1067 1.232 . S
H1080 C1099 0.929 . S
H1081 C1100 0.929 . S
H1082 C1112 0.931 . S
H1083 C1104 0.929 . S
H1084 C1113 0.930 . S
H1085 C1105 0.931 . S
O1086 Co1062 2.097 . S
O1086 C1114 1.214 . S
H1087 C1115 0.929 . S
H1088 C1116 0.929 . S
H1089 C1117 0.930 . S
H1090 C1118 0.929 . S
H1091 C1120 0.930 . S
H1092 C1097 0.930 . S
H1093 C1101 0.930 . S
O1094 Co1063 2.037 . S
O1094 C1114 1.234 . S
C1095 O1069 1.269 . S
C1095 O1070 1.257 . S
C1096 H1071 0.930 . S
C1096 C1099 1.388 . S
C1096 C1101 1.418 . S
C1097 H1092 0.930 . S
C1097 C1100 1.404 . S
C1097 C1101 1.353 . S
N1098 Co1063 2.145 . S
N1098 C1099 1.397 . S
N1098 C1100 1.334 . S
C1099 H1080 0.929 . S
C1099 C1096 1.388 . S
C1099 N1098 1.397 . S
C1100 H1081 0.929 . S
C1100 C1097 1.404 . S
C1100 N1098 1.334 . S
C1101 H1093 0.930 . S
C1101 C1096 1.418 . S
C1101 C1097 1.353 . S
C1102 H1072 0.930 . S
C1102 N1103 1.330 . S
C1102 C1104 1.446 . S
N1103 Co1062 2.151 . S
N1103 C1102 1.330 . S
N1103 C1107 1.418 . S
C1104 H1083 0.929 . S
C1104 C1102 1.446 . S
C1104 C1105 1.332 . S
C1105 H1085 0.931 . S
C1105 C1104 1.332 . S
C1105 C1106 1.267 . S
C1106 H1074 0.929 . S
C1106 C1105 1.267 . S
C1106 C1107 1.251 . S
C1107 H1077 0.929 . S
C1107 N1103 1.418 . S
C1107 C1106 1.251 . S
C1108 H1075 0.930 . S
C1108 C1110 1.406 . S
C1108 C1113 1.261 . S
C1109 H1076 0.930 . S
C1109 N1111 1.325 . S
C1109 C1112 1.357 . S
C1110 H1078 0.928 . S
C1110 C1108 1.406 . S
C1110 N1111 1.261 . S
N1111 Co1062 2.214 . S
N1111 C1109 1.325 . S
N1111 C1110 1.261 . S
C1112 H1082 0.931 . S
C1112 C1109 1.357 . S
C1112 C1113 1.312 . S
C1113 H1084 0.930 . S
C1113 C1108 1.261 . S
C1113 C1112 1.312 . S
C1114 O1086 1.214 . S
C1114 O1094 1.234 . S
C1115 H1087 0.929 . S
C1115 C1118 1.391 . S
C1115 C1120 1.391 . S
C1116 H1088 0.929 . S
C1116 C1117 1.390 . S
C1116 N1119 1.391 . S
C1117 H1089 0.930 . S
C1117 C1116 1.390 . S
C1117 C1118 1.392 . S
C1118 H1090 0.929 . S
C1118 C1115 1.391 . S
C1118 C1117 1.392 . S
N1119 Co1063 2.257 . S
N1119 C1116 1.391 . S
N1119 C1120 1.388 . S
C1120 H1091 0.930 . S
C1120 C1115 1.391 . S
C1120 N1119 1.388 . S
Co1121 O1123 2.143 . S
Co1121 O1129 2.074 . S
Co1121 O1132 2.093 . S
Co1121 O1145 2.097 . S
Co1121 N1162 2.151 . S
Co1121 N1170 2.214 . S
Co1122 O1123 2.160 . S
Co1122 O1128 2.058 . S
Co1122 O1138 2.057 . S
Co1122 O1153 2.037 . S
Co1122 N1157 2.145 . S
Co1122 N1178 2.257 . S
O1123 Co1121 2.143 . S
O1123 Co1122 2.160 . S
C1124 O1125 1.278 . S
C1124 O1132 1.224 . S
O1125 C1124 1.278 . S
C1126 O1127 1.245 . S
C1126 O1138 1.232 . S
O1127 C1126 1.245 . S
O1128 Co1122 2.058 . S
O1128 C1154 1.269 . S
O1129 Co1121 2.074 . S
O1129 C1154 1.257 . S
H1130 C1155 0.930 . S
H1131 C1161 0.930 . S
O1132 Co1121 2.093 . S
O1132 C1124 1.224 . S
H1133 C1165 0.929 . S
H1134 C1167 0.930 . S
H1135 C1168 0.930 . S
H1136 C1166 0.929 . S
H1137 C1169 0.928 . S
O1138 Co1122 2.057 . S
O1138 C1126 1.232 . S
H1139 C1158 0.929 . S
H1140 C1159 0.929 . S
H1141 C1171 0.931 . S
H1142 C1163 0.929 . S
H1143 C1172 0.930 . S
H1144 C1164 0.931 . S
O1145 Co1121 2.097 . S
O1145 C1173 1.214 . S
H1146 C1174 0.929 . S
H1147 C1175 0.929 . S
H1148 C1176 0.930 . S
H1149 C1177 0.929 . S
H1150 C1179 0.930 . S
H1151 C1156 0.930 . S
H1152 C1160 0.930 . S
O1153 Co1122 2.037 . S
O1153 C1173 1.234 . S
C1154 O1128 1.269 . S
C1154 O1129 1.257 . S
C1155 H1130 0.930 . S
C1155 C1158 1.388 . S
C1155 C1160 1.418 . S
C1156 H1151 0.930 . S
C1156 C1159 1.404 . S
C1156 C1160 1.353 . S
N1157 Co1122 2.145 . S
N1157 C1158 1.397 . S
N1157 C1159 1.334 . S
C1158 H1139 0.929 . S
C1158 C1155 1.388 . S
C1158 N1157 1.397 . S
C1159 H1140 0.929 . S
C1159 C1156 1.404 . S
C1159 N1157 1.334 . S
C1160 H1152 0.930 . S
C1160 C1155 1.418 . S
C1160 C1156 1.353 . S
C1161 H1131 0.930 . S
C1161 N1162 1.330 . S
C1161 C1163 1.446 . S
N1162 Co1121 2.151 . S
N1162 C1161 1.330 . S
N1162 C1166 1.418 . S
C1163 H1142 0.929 . S
C1163 C1161 1.446 . S
C1163 C1164 1.332 . S
C1164 H1144 0.931 . S
C1164 C1163 1.332 . S
C1164 C1165 1.267 . S
C1165 H1133 0.929 . S
C1165 C1164 1.267 . S
C1165 C1166 1.251 . S
C1166 H1136 0.929 . S
C1166 N1162 1.418 . S
C1166 C1165 1.251 . S
C1167 H1134 0.930 . S
C1167 C1169 1.406 . S
C1167 C1172 1.261 . S
C1168 H1135 0.930 . S
C1168 N1170 1.325 . S
C1168 C1171 1.357 . S
C1169 H1137 0.928 . S
C1169 C1167 1.406 . S
C1169 N1170 1.261 . S
N1170 Co1121 2.214 . S
N1170 C1168 1.325 . S
N1170 C1169 1.261 . S
C1171 H1141 0.931 . S
C1171 C1168 1.357 . S
C1171 C1172 1.312 . S
C1172 H1143 0.930 . S
C1172 C1167 1.261 . S
C1172 C1171 1.312 . S
C1173 O1145 1.214 . S
C1173 O1153 1.234 . S
C1174 H1146 0.929 . S
C1174 C1177 1.391 . S
C1174 C1179 1.391 . S
C1175 H1147 0.929 . S
C1175 C1176 1.390 . S
C1175 N1178 1.391 . S
C1176 H1148 0.930 . S
C1176 C1175 1.390 . S
C1176 C1177 1.392 . S
C1177 H1149 0.929 . S
C1177 C1174 1.391 . S
C1177 C1176 1.392 . S
N1178 Co1122 2.257 . S
N1178 C1175 1.391 . S
N1178 C1179 1.388 . S
C1179 H1150 0.930 . S
C1179 C1174 1.391 . S
C1179 N1178 1.388 . S
Co1180 O1182 2.143 . S
Co1180 O1188 2.074 . S
Co1180 O1191 2.093 . S
Co1180 O1204 2.097 . S
Co1180 N1221 2.151 . S
Co1180 N1229 2.214 . S
Co1181 O1182 2.160 . S
Co1181 O1187 2.058 . S
Co1181 O1197 2.057 . S
Co1181 O1212 2.037 . S
Co1181 N1216 2.145 . S
Co1181 N1237 2.257 . S
O1182 Co1180 2.143 . S
O1182 Co1181 2.160 . S
C1183 O1184 1.278 . S
C1183 O1191 1.224 . S
O1184 C1183 1.278 . S
C1185 O1186 1.245 . S
C1185 O1197 1.232 . S
O1186 C1185 1.245 . S
O1187 Co1181 2.058 . S
O1187 C1213 1.269 . S
O1188 Co1180 2.074 . S
O1188 C1213 1.257 . S
H1189 C1214 0.930 . S
H1190 C1220 0.930 . S
O1191 Co1180 2.093 . S
O1191 C1183 1.224 . S
H1192 C1224 0.929 . S
H1193 C1226 0.930 . S
H1194 C1227 0.930 . S
H1195 C1225 0.929 . S
H1196 C1228 0.928 . S
O1197 Co1181 2.057 . S
O1197 C1185 1.232 . S
H1198 C1217 0.929 . S
H1199 C1218 0.929 . S
H1200 C1230 0.931 . S
H1201 C1222 0.929 . S
H1202 C1231 0.930 . S
H1203 C1223 0.931 . S
O1204 Co1180 2.097 . S
O1204 C1232 1.214 . S
H1205 C1233 0.929 . S
H1206 C1234 0.929 . S
H1207 C1235 0.930 . S
H1208 C1236 0.929 . S
H1209 C1238 0.930 . S
H1210 C1215 0.930 . S
H1211 C1219 0.930 . S
O1212 Co1181 2.037 . S
O1212 C1232 1.234 . S
C1213 O1187 1.269 . S
C1213 O1188 1.257 . S
C1214 H1189 0.930 . S
C1214 C1217 1.388 . S
C1214 C1219 1.418 . S
C1215 H1210 0.930 . S
C1215 C1218 1.404 . S
C1215 C1219 1.353 . S
N1216 Co1181 2.145 . S
N1216 C1217 1.397 . S
N1216 C1218 1.334 . S
C1217 H1198 0.929 . S
C1217 C1214 1.388 . S
C1217 N1216 1.397 . S
C1218 H1199 0.929 . S
C1218 C1215 1.404 . S
C1218 N1216 1.334 . S
C1219 H1211 0.930 . S
C1219 C1214 1.418 . S
C1219 C1215 1.353 . S
C1220 H1190 0.930 . S
C1220 N1221 1.330 . S
C1220 C1222 1.446 . S
N1221 Co1180 2.151 . S
N1221 C1220 1.330 . S
N1221 C1225 1.418 . S
C1222 H1201 0.929 . S
C1222 C1220 1.446 . S
C1222 C1223 1.332 . S
C1223 H1203 0.931 . S
C1223 C1222 1.332 . S
C1223 C1224 1.267 . S
C1224 H1192 0.929 . S
C1224 C1223 1.267 . S
C1224 C1225 1.251 . S
C1225 H1195 0.929 . S
C1225 N1221 1.418 . S
C1225 C1224 1.251 . S
C1226 H1193 0.930 . S
C1226 C1228 1.406 . S
C1226 C1231 1.261 . S
C1227 H1194 0.930 . S
C1227 N1229 1.325 . S
C1227 C1230 1.357 . S
C1228 H1196 0.928 . S
C1228 C1226 1.406 . S
C1228 N1229 1.261 . S
N1229 Co1180 2.214 . S
N1229 C1227 1.325 . S
N1229 C1228 1.261 . S
C1230 H1200 0.931 . S
C1230 C1227 1.357 . S
C1230 C1231 1.312 . S
C1231 H1202 0.930 . S
C1231 C1226 1.261 . S
C1231 C1230 1.312 . S
C1232 O1204 1.214 . S
C1232 O1212 1.234 . S
C1233 H1205 0.929 . S
C1233 C1236 1.391 . S
C1233 C1238 1.391 . S
C1234 H1206 0.929 . S
C1234 C1235 1.390 . S
C1234 N1237 1.391 . S
C1235 H1207 0.930 . S
C1235 C1234 1.390 . S
C1235 C1236 1.392 . S
C1236 H1208 0.929 . S
C1236 C1233 1.391 . S
C1236 C1235 1.392 . S
N1237 Co1181 2.257 . S
N1237 C1234 1.391 . S
N1237 C1238 1.388 . S
C1238 H1209 0.930 . S
C1238 C1233 1.391 . S
C1238 N1237 1.388 . S
Co1239 O1241 2.143 . S
Co1239 O1247 2.074 . S
Co1239 O1250 2.093 . S
Co1239 O1263 2.097 . S
Co1239 N1280 2.151 . S
Co1239 N1288 2.214 . S
Co1240 O1241 2.160 . S
Co1240 O1246 2.058 . S
Co1240 O1256 2.057 . S
Co1240 O1271 2.037 . S
Co1240 N1275 2.145 . S
Co1240 N1296 2.257 . S
O1241 Co1239 2.143 . S
O1241 Co1240 2.160 . S
C1242 O1243 1.278 . S
C1242 O1250 1.224 . S
O1243 C1242 1.278 . S
C1244 O1245 1.245 . S
C1244 O1256 1.232 . S
O1245 C1244 1.245 . S
O1246 Co1240 2.058 . S
O1246 C1272 1.269 . S
O1247 Co1239 2.074 . S
O1247 C1272 1.257 . S
H1248 C1273 0.930 . S
H1249 C1279 0.930 . S
O1250 Co1239 2.093 . S
O1250 C1242 1.224 . S
H1251 C1283 0.929 . S
H1252 C1285 0.930 . S
H1253 C1286 0.930 . S
H1254 C1284 0.929 . S
H1255 C1287 0.928 . S
O1256 Co1240 2.057 . S
O1256 C1244 1.232 . S
H1257 C1276 0.929 . S
H1258 C1277 0.929 . S
H1259 C1289 0.940 . S
H1260 C1281 0.938 . S
H1261 C1290 0.930 . S
H1262 C1282 0.931 . S
O1263 Co1239 2.097 . S
O1263 C1291 1.214 . S
H1264 C1292 0.929 1_565 S
H1265 C1293 0.929 . S
H1266 C1294 0.930 . S
H1267 C1295 0.929 . S
H1268 C1297 0.930 . S
H1269 C1274 0.930 . S
H1270 C1278 0.930 . S
O1271 Co1240 2.037 . S
O1271 C1291 1.234 . S
C1272 O1246 1.269 . S
C1272 O1247 1.257 . S
C1273 H1248 0.930 . S
C1273 C1276 1.388 . S
C1273 C1278 1.418 . S
C1274 H1269 0.930 . S
C1274 C1277 1.404 . S
C1274 C1278 1.353 . S
N1275 Co1240 2.145 . S
N1275 C1276 1.397 . S
N1275 C1277 1.334 . S
C1276 H1257 0.929 . S
C1276 C1273 1.388 . S
C1276 N1275 1.397 . S
C1277 H1258 0.929 . S
C1277 C1274 1.404 . S
C1277 N1275 1.334 . S
C1278 H1270 0.930 . S
C1278 C1273 1.418 . S
C1278 C1274 1.353 . S
C1279 H1249 0.930 . S
C1279 N1280 1.330 . S
C1279 C1281 1.415 1_556 S
N1280 Co1239 2.151 . S
N1280 C1279 1.330 . S
N1280 C1284 1.418 . S
C1281 H1260 0.938 . S
C1281 C1279 1.415 1_554 S
C1281 C1282 1.356 . S
C1282 H1262 0.931 . S
C1282 C1281 1.356 . S
C1282 C1283 1.267 . S
C1283 H1251 0.929 . S
C1283 C1282 1.267 . S
C1283 C1284 1.251 1_554 S
C1284 H1254 0.929 . S
C1284 N1280 1.418 . S
C1284 C1283 1.251 1_556 S
C1285 H1252 0.930 . S
C1285 C1287 1.406 . S
C1285 C1290 1.261 . S
C1286 H1253 0.930 . S
C1286 N1288 1.325 . S
C1286 C1289 1.377 . S
C1287 H1255 0.928 . S
C1287 C1285 1.406 . S
C1287 N1288 1.261 1_554 S
N1288 Co1239 2.214 . S
N1288 C1286 1.325 . S
N1288 C1287 1.261 1_556 S
C1289 H1259 0.940 . S
C1289 C1286 1.377 . S
C1289 C1290 1.283 1_556 S
C1290 H1261 0.930 . S
C1290 C1285 1.261 . S
C1290 C1289 1.283 1_554 S
C1291 O1263 1.214 . S
C1291 O1271 1.234 . S
C1292 H1264 0.929 1_545 S
C1292 C1295 1.391 . S
C1292 C1297 1.391 . S
C1293 H1265 0.929 . S
C1293 C1294 1.390 . S
C1293 N1296 1.391 . S
C1294 H1266 0.930 . S
C1294 C1293 1.390 . S
C1294 C1295 1.392 . S
C1295 H1267 0.929 . S
C1295 C1292 1.391 . S
C1295 C1294 1.392 . S
N1296 Co1240 2.257 . S
N1296 C1293 1.391 . S
N1296 C1297 1.388 . S
C1297 H1268 0.930 . S
C1297 C1292 1.391 . S
C1297 N1296 1.388 . S
Co1298 O1300 2.143 . S
Co1298 O1306 2.074 . S
Co1298 O1309 2.093 . S
Co1298 O1322 2.097 . S
Co1298 N1339 2.151 . S
Co1298 N1347 2.214 . S
Co1299 O1300 2.160 . S
Co1299 O1305 2.058 . S
Co1299 O1315 2.057 . S
Co1299 O1330 2.037 . S
Co1299 N1334 2.145 . S
Co1299 N1355 2.257 . S
O1300 Co1298 2.143 . S
O1300 Co1299 2.160 . S
C1301 O1302 1.278 . S
C1301 O1309 1.224 . S
O1302 C1301 1.278 . S
C1303 O1304 1.245 . S
C1303 O1315 1.232 . S
O1304 C1303 1.245 . S
O1305 Co1299 2.058 . S
O1305 C1331 1.269 . S
O1306 Co1298 2.074 . S
O1306 C1331 1.257 . S
H1307 C1332 0.930 . S
H1308 C1338 0.930 . S
O1309 Co1298 2.093 . S
O1309 C1301 1.224 . S
H1310 C1342 0.929 . S
H1311 C1344 0.930 . S
H1312 C1345 0.930 . S
H1313 C1343 0.929 . S
H1314 C1346 0.928 . S
O1315 Co1299 2.057 . S
O1315 C1303 1.232 . S
H1316 C1335 0.929 . S
H1317 C1336 0.929 . S
H1318 C1348 0.940 . S
H1319 C1340 0.939 . S
H1320 C1349 0.930 . S
H1321 C1341 0.931 . S
O1322 Co1298 2.097 . S
O1322 C1350 1.214 . S
H1323 C1351 0.929 1_455 S
H1324 C1352 0.929 . S
H1325 C1353 0.930 . S
H1326 C1354 0.929 . S
H1327 C1356 0.930 . S
H1328 C1333 0.930 . S
H1329 C1337 0.930 . S
O1330 Co1299 2.037 . S
O1330 C1350 1.234 . S
C1331 O1305 1.269 . S
C1331 O1306 1.257 . S
C1332 H1307 0.930 . S
C1332 C1335 1.388 . S
C1332 C1337 1.418 . S
C1333 H1328 0.930 . S
C1333 C1336 1.404 . S
C1333 C1337 1.353 . S
N1334 Co1299 2.145 . S
N1334 C1335 1.397 . S
N1334 C1336 1.334 . S
C1335 H1316 0.929 . S
C1335 C1332 1.388 . S
C1335 N1334 1.397 . S
C1336 H1317 0.929 . S
C1336 C1333 1.404 . S
C1336 N1334 1.334 . S
C1337 H1329 0.930 . S
C1337 C1332 1.418 . S
C1337 C1333 1.353 . S
C1338 H1308 0.930 . S
C1338 N1339 1.330 . S
C1338 C1340 1.415 1_556 S
N1339 Co1298 2.151 . S
N1339 C1338 1.330 . S
N1339 C1343 1.418 . S
C1340 H1319 0.939 . S
C1340 C1338 1.415 1_554 S
C1340 C1341 1.356 . S
C1341 H1321 0.931 . S
C1341 C1340 1.356 . S
C1341 C1342 1.267 . S
C1342 H1310 0.929 . S
C1342 C1341 1.267 . S
C1342 C1343 1.251 1_554 S
C1343 H1313 0.929 . S
C1343 N1339 1.418 . S
C1343 C1342 1.251 1_556 S
C1344 H1311 0.930 . S
C1344 C1346 1.406 . S
C1344 C1349 1.261 . S
C1345 H1312 0.930 . S
C1345 N1347 1.325 . S
C1345 C1348 1.377 . S
C1346 H1314 0.928 . S
C1346 C1344 1.406 . S
C1346 N1347 1.261 1_554 S
N1347 Co1298 2.214 . S
N1347 C1345 1.325 . S
N1347 C1346 1.261 1_556 S
C1348 H1318 0.940 . S
C1348 C1345 1.377 . S
C1348 C1349 1.284 1_556 S
C1349 H1320 0.930 . S
C1349 C1344 1.261 . S
C1349 C1348 1.284 1_554 S
C1350 O1322 1.214 . S
C1350 O1330 1.234 . S
C1351 H1323 0.929 1_655 S
C1351 C1354 1.391 . S
C1351 C1356 1.391 . S
C1352 H1324 0.929 . S
C1352 C1353 1.390 . S
C1352 N1355 1.391 . S
C1353 H1325 0.930 . S
C1353 C1352 1.390 . S
C1353 C1354 1.392 . S
C1354 H1326 0.929 . S
C1354 C1351 1.391 . S
C1354 C1353 1.392 . S
N1355 Co1299 2.257 . S
N1355 C1352 1.391 . S
N1355 C1356 1.388 . S
C1356 H1327 0.930 . S
C1356 C1351 1.391 . S
C1356 N1355 1.388 . S
Co1357 O1359 2.143 . S
Co1357 O1365 2.074 . S
Co1357 O1368 2.093 . S
Co1357 O1381 2.097 . S
Co1357 N1398 2.151 . S
Co1357 N1406 2.214 . S
Co1358 O1359 2.160 . S
Co1358 O1364 2.058 . S
Co1358 O1374 2.057 . S
Co1358 O1389 2.037 . S
Co1358 N1393 2.145 . S
Co1358 N1414 2.257 . S
O1359 Co1357 2.143 . S
O1359 Co1358 2.160 . S
C1360 O1361 1.278 . S
C1360 O1368 1.224 . S
O1361 C1360 1.278 . S
C1362 O1363 1.245 . S
C1362 O1374 1.232 . S
O1363 C1362 1.245 . S
O1364 Co1358 2.058 . S
O1364 C1390 1.269 . S
O1365 Co1357 2.074 . S
O1365 C1390 1.257 . S
H1366 C1391 0.930 . S
H1367 C1397 0.930 . S
O1368 Co1357 2.093 . S
O1368 C1360 1.224 . S
H1369 C1401 0.929 . S
H1370 C1403 0.930 . S
H1371 C1404 0.930 . S
H1372 C1402 0.929 . S
H1373 C1405 0.928 . S
O1374 Co1358 2.057 . S
O1374 C1362 1.232 . S
H1375 C1394 0.929 . S
H1376 C1395 0.929 . S
H1377 C1407 0.940 . S
H1378 C1399 0.938 . S
H1379 C1408 0.930 . S
H1380 C1400 0.931 . S
O1381 Co1357 2.097 . S
O1381 C1409 1.214 . S
H1382 C1410 0.929 . S
H1383 C1411 0.929 . S
H1384 C1412 0.930 . S
H1385 C1413 0.929 . S
H1386 C1415 0.930 . S
H1387 C1392 0.930 . S
H1388 C1396 0.930 . S
O1389 Co1358 2.037 . S
O1389 C1409 1.234 . S
C1390 O1364 1.269 . S
C1390 O1365 1.257 . S
C1391 H1366 0.930 . S
C1391 C1394 1.388 . S
C1391 C1396 1.418 . S
C1392 H1387 0.930 . S
C1392 C1395 1.404 . S
C1392 C1396 1.353 . S
N1393 Co1358 2.145 . S
N1393 C1394 1.397 . S
N1393 C1395 1.334 . S
C1394 H1375 0.929 . S
C1394 C1391 1.388 . S
C1394 N1393 1.397 . S
C1395 H1376 0.929 . S
C1395 C1392 1.404 . S
C1395 N1393 1.334 . S
C1396 H1388 0.930 . S
C1396 C1391 1.418 . S
C1396 C1392 1.353 . S
C1397 H1367 0.930 . S
C1397 N1398 1.330 . S
C1397 C1399 1.415 1_556 S
N1398 Co1357 2.151 . S
N1398 C1397 1.330 . S
N1398 C1402 1.418 . S
C1399 H1378 0.938 . S
C1399 C1397 1.415 1_554 S
C1399 C1400 1.356 . S
C1400 H1380 0.931 . S
C1400 C1399 1.356 . S
C1400 C1401 1.267 . S
C1401 H1369 0.929 . S
C1401 C1400 1.267 . S
C1401 C1402 1.251 1_554 S
C1402 H1372 0.929 . S
C1402 N1398 1.418 . S
C1402 C1401 1.251 1_556 S
C1403 H1370 0.930 . S
C1403 C1405 1.406 . S
C1403 C1408 1.261 . S
C1404 H1371 0.930 . S
C1404 N1406 1.325 . S
C1404 C1407 1.377 . S
C1405 H1373 0.928 . S
C1405 C1403 1.406 . S
C1405 N1406 1.261 1_554 S
N1406 Co1357 2.214 . S
N1406 C1404 1.325 . S
N1406 C1405 1.261 1_556 S
C1407 H1377 0.940 . S
C1407 C1404 1.377 . S
C1407 C1408 1.283 1_556 S
C1408 H1379 0.930 . S
C1408 C1403 1.261 . S
C1408 C1407 1.283 1_554 S
C1409 O1381 1.214 . S
C1409 O1389 1.234 . S
C1410 H1382 0.929 . S
C1410 C1413 1.391 . S
C1410 C1415 1.391 . S
C1411 H1383 0.929 . S
C1411 C1412 1.390 . S
C1411 N1414 1.391 . S
C1412 H1384 0.930 . S
C1412 C1411 1.390 . S
C1412 C1413 1.392 . S
C1413 H1385 0.929 . S
C1413 C1410 1.391 . S
C1413 C1412 1.392 . S
N1414 Co1358 2.257 . S
N1414 C1411 1.391 . S
N1414 C1415 1.388 . S
C1415 H1386 0.930 . S
C1415 C1410 1.391 . S
C1415 N1414 1.388 . S
Co1416 O1418 2.143 . S
Co1416 O1424 2.074 . S
Co1416 O1427 2.093 . S
Co1416 O1440 2.097 . S
Co1416 N1457 2.151 . S
Co1416 N1465 2.214 . S
Co1417 O1418 2.160 . S
Co1417 O1423 2.058 . S
Co1417 O1433 2.057 . S
Co1417 O1448 2.037 . S
Co1417 N1452 2.145 . S
Co1417 N1473 2.257 . S
O1418 Co1416 2.143 . S
O1418 Co1417 2.160 . S
C1419 O1420 1.278 . S
C1419 O1427 1.224 . S
O1420 C1419 1.278 . S
C1421 O1422 1.245 . S
C1421 O1433 1.232 . S
O1422 C1421 1.245 . S
O1423 Co1417 2.058 . S
O1423 C1449 1.269 . S
O1424 Co1416 2.074 . S
O1424 C1449 1.257 . S
H1425 C1450 0.930 . S
H1426 C1456 0.930 . S
O1427 Co1416 2.093 . S
O1427 C1419 1.224 . S
H1428 C1460 0.929 . S
H1429 C1462 0.930 . S
H1430 C1463 0.930 . S
H1431 C1461 0.929 . S
H1432 C1464 0.928 . S
O1433 Co1417 2.057 . S
O1433 C1421 1.232 . S
H1434 C1453 0.929 . S
H1435 C1454 0.929 . S
H1436 C1466 0.931 . S
H1437 C1458 0.929 . S
H1438 C1467 0.930 . S
H1439 C1459 0.931 . S
O1440 Co1416 2.097 . S
O1440 C1468 1.214 . S
H1441 C1469 0.929 . S
H1442 C1470 0.929 . S
H1443 C1471 0.930 . S
H1444 C1472 0.929 . S
H1445 C1474 0.930 . S
H1446 C1451 0.930 . S
H1447 C1455 0.930 . S
O1448 Co1417 2.037 . S
O1448 C1468 1.234 . S
C1449 O1423 1.269 . S
C1449 O1424 1.257 . S
C1450 H1425 0.930 . S
C1450 C1453 1.388 . S
C1450 C1455 1.418 . S
C1451 H1446 0.930 . S
C1451 C1454 1.404 . S
C1451 C1455 1.353 . S
N1452 Co1417 2.145 . S
N1452 C1453 1.397 . S
N1452 C1454 1.334 . S
C1453 H1434 0.929 . S
C1453 C1450 1.388 . S
C1453 N1452 1.397 . S
C1454 H1435 0.929 . S
C1454 C1451 1.404 . S
C1454 N1452 1.334 . S
C1455 H1447 0.930 . S
C1455 C1450 1.418 . S
C1455 C1451 1.353 . S
C1456 H1426 0.930 . S
C1456 N1457 1.330 . S
C1456 C1458 1.446 . S
N1457 Co1416 2.151 . S
N1457 C1456 1.330 . S
N1457 C1461 1.418 . S
C1458 H1437 0.929 . S
C1458 C1456 1.446 . S
C1458 C1459 1.332 . S
C1459 H1439 0.931 . S
C1459 C1458 1.332 . S
C1459 C1460 1.267 . S
C1460 H1428 0.929 . S
C1460 C1459 1.267 . S
C1460 C1461 1.251 . S
C1461 H1431 0.929 . S
C1461 N1457 1.418 . S
C1461 C1460 1.251 . S
C1462 H1429 0.930 . S
C1462 C1464 1.406 . S
C1462 C1467 1.261 . S
C1463 H1430 0.930 . S
C1463 N1465 1.325 . S
C1463 C1466 1.357 . S
C1464 H1432 0.928 . S
C1464 C1462 1.406 . S
C1464 N1465 1.261 . S
N1465 Co1416 2.214 . S
N1465 C1463 1.325 . S
N1465 C1464 1.261 . S
C1466 H1436 0.931 . S
C1466 C1463 1.357 . S
C1466 C1467 1.312 . S
C1467 H1438 0.930 . S
C1467 C1462 1.261 . S
C1467 C1466 1.312 . S
C1468 O1440 1.214 . S
C1468 O1448 1.234 . S
C1469 H1441 0.929 . S
C1469 C1472 1.391 . S
C1469 C1474 1.391 . S
C1470 H1442 0.929 . S
C1470 C1471 1.390 . S
C1470 N1473 1.391 . S
C1471 H1443 0.930 . S
C1471 C1470 1.390 . S
C1471 C1472 1.392 . S
C1472 H1444 0.929 . S
C1472 C1469 1.391 . S
C1472 C1471 1.392 . S
N1473 Co1417 2.257 . S
N1473 C1470 1.391 . S
N1473 C1474 1.388 . S
C1474 H1445 0.930 . S
C1474 C1469 1.391 . S
C1474 N1473 1.388 . S
Co1475 O1477 2.143 . S
Co1475 O1483 2.074 . S
Co1475 O1486 2.093 . S
Co1475 O1499 2.097 . S
Co1475 N1516 2.151 . S
Co1475 N1524 2.214 . S
Co1476 O1477 2.160 . S
Co1476 O1482 2.058 . S
Co1476 O1492 2.057 . S
Co1476 O1507 2.037 . S
Co1476 N1511 2.145 . S
Co1476 N1532 2.257 . S
O1477 Co1475 2.143 . S
O1477 Co1476 2.160 . S
C1478 O1479 1.278 . S
C1478 O1486 1.224 . S
O1479 C1478 1.278 . S
C1480 O1481 1.245 . S
C1480 O1492 1.232 . S
O1481 C1480 1.245 . S
O1482 Co1476 2.058 . S
O1482 C1508 1.269 . S
O1483 Co1475 2.074 . S
O1483 C1508 1.257 . S
H1484 C1509 0.930 . S
H1485 C1515 0.930 . S
O1486 Co1475 2.093 . S
O1486 C1478 1.224 . S
H1487 C1519 0.929 . S
H1488 C1521 0.930 . S
H1489 C1522 0.930 . S
H1490 C1520 0.929 . S
H1491 C1523 0.928 . S
O1492 Co1476 2.057 . S
O1492 C1480 1.232 . S
H1493 C1512 0.929 . S
H1494 C1513 0.929 . S
H1495 C1525 0.931 . S
H1496 C1517 0.929 . S
H1497 C1526 0.930 . S
H1498 C1518 0.931 . S
O1499 Co1475 2.097 . S
O1499 C1527 1.214 . S
H1500 C1528 0.929 . S
H1501 C1529 0.929 . S
H1502 C1530 0.930 . S
H1503 C1531 0.929 . S
H1504 C1533 0.930 . S
H1505 C1510 0.930 . S
H1506 C1514 0.930 . S
O1507 Co1476 2.037 . S
O1507 C1527 1.234 . S
C1508 O1482 1.269 . S
C1508 O1483 1.257 . S
C1509 H1484 0.930 . S
C1509 C1512 1.388 . S
C1509 C1514 1.418 . S
C1510 H1505 0.930 . S
C1510 C1513 1.404 . S
C1510 C1514 1.353 . S
N1511 Co1476 2.145 . S
N1511 C1512 1.397 . S
N1511 C1513 1.334 . S
C1512 H1493 0.929 . S
C1512 C1509 1.388 . S
C1512 N1511 1.397 . S
C1513 H1494 0.929 . S
C1513 C1510 1.404 . S
C1513 N1511 1.334 . S
C1514 H1506 0.930 . S
C1514 C1509 1.418 . S
C1514 C1510 1.353 . S
C1515 H1485 0.930 . S
C1515 N1516 1.330 . S
C1515 C1517 1.446 . S
N1516 Co1475 2.151 . S
N1516 C1515 1.330 . S
N1516 C1520 1.418 . S
C1517 H1496 0.929 . S
C1517 C1515 1.446 . S
C1517 C1518 1.332 . S
C1518 H1498 0.931 . S
C1518 C1517 1.332 . S
C1518 C1519 1.267 . S
C1519 H1487 0.929 . S
C1519 C1518 1.267 . S
C1519 C1520 1.251 . S
C1520 H1490 0.929 . S
C1520 N1516 1.418 . S
C1520 C1519 1.251 . S
C1521 H1488 0.930 . S
C1521 C1523 1.406 . S
C1521 C1526 1.261 . S
C1522 H1489 0.930 . S
C1522 N1524 1.325 . S
C1522 C1525 1.357 . S
C1523 H1491 0.928 . S
C1523 C1521 1.406 . S
C1523 N1524 1.261 . S
N1524 Co1475 2.214 . S
N1524 C1522 1.325 . S
N1524 C1523 1.261 . S
C1525 H1495 0.931 . S
C1525 C1522 1.357 . S
C1525 C1526 1.312 . S
C1526 H1497 0.930 . S
C1526 C1521 1.261 . S
C1526 C1525 1.312 . S
C1527 O1499 1.214 . S
C1527 O1507 1.234 . S
C1528 H1500 0.929 . S
C1528 C1531 1.391 . S
C1528 C1533 1.391 . S
C1529 H1501 0.929 . S
C1529 C1530 1.390 . S
C1529 N1532 1.391 . S
C1530 H1502 0.930 . S
C1530 C1529 1.390 . S
C1530 C1531 1.392 . S
C1531 H1503 0.929 . S
C1531 C1528 1.391 . S
C1531 C1530 1.392 . S
N1532 Co1476 2.257 . S
N1532 C1529 1.391 . S
N1532 C1533 1.388 . S
C1533 H1504 0.930 . S
C1533 C1528 1.391 . S
C1533 N1532 1.388 . S
Co1534 O1536 2.143 . S
Co1534 O1542 2.074 . S
Co1534 O1545 2.093 . S
Co1534 O1558 2.097 . S
Co1534 N1575 2.151 . S
Co1534 N1583 2.214 . S
Co1535 O1536 2.160 . S
Co1535 O1541 2.058 . S
Co1535 O1551 2.057 . S
Co1535 O1566 2.037 . S
Co1535 N1570 2.145 . S
Co1535 N1591 2.257 . S
O1536 Co1534 2.143 . S
O1536 Co1535 2.160 . S
C1537 O1538 1.278 . S
C1537 O1545 1.224 . S
O1538 C1537 1.278 . S
C1539 O1540 1.245 . S
C1539 O1551 1.232 . S
O1540 C1539 1.245 . S
O1541 Co1535 2.058 . S
O1541 C1567 1.269 . S
O1542 Co1534 2.074 . S
O1542 C1567 1.257 . S
H1543 C1568 0.930 . S
H1544 C1574 0.930 . S
O1545 Co1534 2.093 . S
O1545 C1537 1.224 . S
H1546 C1578 0.929 . S
H1547 C1580 0.930 . S
H1548 C1581 0.930 . S
H1549 C1579 0.929 . S
H1550 C1582 0.928 . S
O1551 Co1535 2.057 . S
O1551 C1539 1.232 . S
H1552 C1571 0.929 . S
H1553 C1572 0.929 . S
H1554 C1584 0.931 . S
H1555 C1576 0.929 . S
H1556 C1585 0.930 . S
H1557 C1577 0.931 . S
O1558 Co1534 2.097 . S
O1558 C1586 1.214 . S
H1559 C1587 0.929 . S
H1560 C1588 0.929 . S
H1561 C1589 0.930 . S
H1562 C1590 0.929 . S
H1563 C1592 0.930 . S
H1564 C1569 0.930 . S
H1565 C1573 0.930 . S
O1566 Co1535 2.037 . S
O1566 C1586 1.234 . S
C1567 O1541 1.269 . S
C1567 O1542 1.257 . S
C1568 H1543 0.930 . S
C1568 C1571 1.388 . S
C1568 C1573 1.418 . S
C1569 H1564 0.930 . S
C1569 C1572 1.404 . S
C1569 C1573 1.353 . S
N1570 Co1535 2.145 . S
N1570 C1571 1.397 . S
N1570 C1572 1.334 . S
C1571 H1552 0.929 . S
C1571 C1568 1.388 . S
C1571 N1570 1.397 . S
C1572 H1553 0.929 . S
C1572 C1569 1.404 . S
C1572 N1570 1.334 . S
C1573 H1565 0.930 . S
C1573 C1568 1.418 . S
C1573 C1569 1.353 . S
C1574 H1544 0.930 . S
C1574 N1575 1.330 . S
C1574 C1576 1.446 . S
N1575 Co1534 2.151 . S
N1575 C1574 1.330 . S
N1575 C1579 1.418 . S
C1576 H1555 0.929 . S
C1576 C1574 1.446 . S
C1576 C1577 1.332 . S
C1577 H1557 0.931 . S
C1577 C1576 1.332 . S
C1577 C1578 1.267 . S
C1578 H1546 0.929 . S
C1578 C1577 1.267 . S
C1578 C1579 1.251 . S
C1579 H1549 0.929 . S
C1579 N1575 1.418 . S
C1579 C1578 1.251 . S
C1580 H1547 0.930 . S
C1580 C1582 1.406 . S
C1580 C1585 1.261 . S
C1581 H1548 0.930 . S
C1581 N1583 1.325 . S
C1581 C1584 1.357 . S
C1582 H1550 0.928 . S
C1582 C1580 1.406 . S
C1582 N1583 1.261 . S
N1583 Co1534 2.214 . S
N1583 C1581 1.325 . S
N1583 C1582 1.261 . S
C1584 H1554 0.931 . S
C1584 C1581 1.357 . S
C1584 C1585 1.312 . S
C1585 H1556 0.930 . S
C1585 C1580 1.261 . S
C1585 C1584 1.312 . S
C1586 O1558 1.214 . S
C1586 O1566 1.234 . S
C1587 H1559 0.929 . S
C1587 C1590 1.391 . S
C1587 C1592 1.391 . S
C1588 H1560 0.929 . S
C1588 C1589 1.390 . S
C1588 N1591 1.391 . S
C1589 H1561 0.930 . S
C1589 C1588 1.390 . S
C1589 C1590 1.392 . S
C1590 H1562 0.929 . S
C1590 C1587 1.391 . S
C1590 C1589 1.392 . S
N1591 Co1535 2.257 . S
N1591 C1588 1.391 . S
N1591 C1592 1.388 . S
C1592 H1563 0.930 . S
C1592 C1587 1.391 . S
C1592 N1591 1.388 . S
Co1593 O1595 2.143 . S
Co1593 O1601 2.074 . S
Co1593 O1604 2.093 . S
Co1593 O1617 2.097 . S
Co1593 N1634 2.151 . S
Co1593 N1642 2.214 . S
Co1594 O1595 2.160 . S
Co1594 O1600 2.058 . S
Co1594 O1610 2.057 . S
Co1594 O1625 2.037 . S
Co1594 N1629 2.145 . S
Co1594 N1650 2.257 . S
O1595 Co1593 2.143 . S
O1595 Co1594 2.160 . S
C1596 O1597 1.278 . S
C1596 O1604 1.224 . S
O1597 C1596 1.278 . S
C1598 O1599 1.245 . S
C1598 O1610 1.232 . S
O1599 C1598 1.245 . S
O1600 Co1594 2.058 . S
O1600 C1626 1.269 . S
O1601 Co1593 2.074 . S
O1601 C1626 1.257 . S
H1602 C1627 0.930 . S
H1603 C1633 0.930 . S
O1604 Co1593 2.093 . S
O1604 C1596 1.224 . S
H1605 C1637 0.929 . S
H1606 C1639 0.930 . S
H1607 C1640 0.930 . S
H1608 C1638 0.929 . S
H1609 C1641 0.928 . S
O1610 Co1594 2.057 . S
O1610 C1598 1.232 . S
H1611 C1630 0.929 . S
H1612 C1631 0.929 . S
H1613 C1643 0.940 . S
H1614 C1635 0.938 . S
H1615 C1644 0.930 . S
H1616 C1636 0.931 . S
O1617 Co1593 2.097 . S
O1617 C1645 1.214 . S
H1618 C1646 0.929 1_545 S
H1619 C1647 0.929 . S
H1620 C1648 0.930 . S
H1621 C1649 0.929 . S
H1622 C1651 0.930 . S
H1623 C1628 0.930 . S
H1624 C1632 0.930 . S
O1625 Co1594 2.037 . S
O1625 C1645 1.234 . S
C1626 O1600 1.269 . S
C1626 O1601 1.257 . S
C1627 H1602 0.930 . S
C1627 C1630 1.388 . S
C1627 C1632 1.418 . S
C1628 H1623 0.930 . S
C1628 C1631 1.404 . S
C1628 C1632 1.353 . S
N1629 Co1594 2.145 . S
N1629 C1630 1.397 . S
N1629 C1631 1.334 . S
C1630 H1611 0.929 . S
C1630 C1627 1.388 . S
C1630 N1629 1.397 . S
C1631 H1612 0.929 . S
C1631 C1628 1.404 . S
C1631 N1629 1.334 . S
C1632 H1624 0.930 . S
C1632 C1627 1.418 . S
C1632 C1628 1.353 . S
C1633 H1603 0.930 . S
C1633 N1634 1.330 . S
C1633 C1635 1.415 1_554 S
N1634 Co1593 2.151 . S
N1634 C1633 1.330 . S
N1634 C1638 1.418 . S
C1635 H1614 0.938 . S
C1635 C1633 1.415 1_556 S
C1635 C1636 1.356 . S
C1636 H1616 0.931 . S
C1636 C1635 1.356 . S
C1636 C1637 1.267 . S
C1637 H1605 0.929 . S
C1637 C1636 1.267 . S
C1637 C1638 1.251 1_556 S
C1638 H1608 0.929 . S
C1638 N1634 1.418 . S
C1638 C1637 1.251 1_554 S
C1639 H1606 0.930 . S
C1639 C1641 1.406 . S
C1639 C1644 1.261 . S
C1640 H1607 0.930 . S
C1640 N1642 1.325 . S
C1640 C1643 1.377 . S
C1641 H1609 0.928 . S
C1641 C1639 1.406 . S
C1641 N1642 1.261 1_556 S
N1642 Co1593 2.214 . S
N1642 C1640 1.325 . S
N1642 C1641 1.261 1_554 S
C1643 H1613 0.940 . S
C1643 C1640 1.377 . S
C1643 C1644 1.283 1_554 S
C1644 H1615 0.930 . S
C1644 C1639 1.261 . S
C1644 C1643 1.283 1_556 S
C1645 O1617 1.214 . S
C1645 O1625 1.234 . S
C1646 H1618 0.929 1_565 S
C1646 C1649 1.391 . S
C1646 C1651 1.391 . S
C1647 H1619 0.929 . S
C1647 C1648 1.390 . S
C1647 N1650 1.391 . S
C1648 H1620 0.930 . S
C1648 C1647 1.390 . S
C1648 C1649 1.392 . S
C1649 H1621 0.929 . S
C1649 C1646 1.391 . S
C1649 C1648 1.392 . S
N1650 Co1594 2.257 . S
N1650 C1647 1.391 . S
N1650 C1651 1.388 . S
C1651 H1622 0.930 . S
C1651 C1646 1.391 . S
C1651 N1650 1.388 . S
Co1652 O1654 2.143 . S
Co1652 O1660 2.074 . S
Co1652 O1663 2.093 . S
Co1652 O1676 2.097 . S
Co1652 N1693 2.151 . S
Co1652 N1701 2.214 . S
Co1653 O1654 2.160 . S
Co1653 O1659 2.058 . S
Co1653 O1669 2.057 . S
Co1653 O1684 2.037 . S
Co1653 N1688 2.145 . S
Co1653 N1709 2.257 . S
O1654 Co1652 2.143 . S
O1654 Co1653 2.160 . S
C1655 O1656 1.278 . S
C1655 O1663 1.224 . S
O1656 C1655 1.278 . S
C1657 O1658 1.245 . S
C1657 O1669 1.232 . S
O1658 C1657 1.245 . S
O1659 Co1653 2.058 . S
O1659 C1685 1.269 . S
O1660 Co1652 2.074 . S
O1660 C1685 1.257 . S
H1661 C1686 0.930 . S
H1662 C1692 0.930 . S
O1663 Co1652 2.093 . S
O1663 C1655 1.224 . S
H1664 C1696 0.929 . S
H1665 C1698 0.930 . S
H1666 C1699 0.930 . S
H1667 C1697 0.929 . S
H1668 C1700 0.928 . S
O1669 Co1653 2.057 . S
O1669 C1657 1.232 . S
H1670 C1689 0.929 . S
H1671 C1690 0.929 . S
H1672 C1702 0.940 . S
H1673 C1694 0.939 . S
H1674 C1703 0.930 . S
H1675 C1695 0.931 . S
O1676 Co1652 2.097 . S
O1676 C1704 1.214 . S
H1677 C1705 0.929 1_655 S
H1678 C1706 0.929 . S
H1679 C1707 0.930 . S
H1680 C1708 0.929 . S
H1681 C1710 0.930 . S
H1682 C1687 0.930 . S
H1683 C1691 0.930 . S
O1684 Co1653 2.037 . S
O1684 C1704 1.234 . S
C1685 O1659 1.269 . S
C1685 O1660 1.257 . S
C1686 H1661 0.930 . S
C1686 C1689 1.388 . S
C1686 C1691 1.418 . S
C1687 H1682 0.930 . S
C1687 C1690 1.404 . S
C1687 C1691 1.353 . S
N1688 Co1653 2.145 . S
N1688 C1689 1.397 . S
N1688 C1690 1.334 . S
C1689 H1670 0.929 . S
C1689 C1686 1.388 . S
C1689 N1688 1.397 . S
C1690 H1671 0.929 . S
C1690 C1687 1.404 . S
C1690 N1688 1.334 . S
C1691 H1683 0.930 . S
C1691 C1686 1.418 . S
C1691 C1687 1.353 . S
C1692 H1662 0.930 . S
C1692 N1693 1.330 . S
C1692 C1694 1.415 1_554 S
N1693 Co1652 2.151 . S
N1693 C1692 1.330 . S
N1693 C1697 1.418 . S
C1694 H1673 0.939 . S
C1694 C1692 1.415 1_556 S
C1694 C1695 1.356 . S
C1695 H1675 0.931 . S
C1695 C1694 1.356 . S
C1695 C1696 1.267 . S
C1696 H1664 0.929 . S
C1696 C1695 1.267 . S
C1696 C1697 1.251 1_556 S
C1697 H1667 0.929 . S
C1697 N1693 1.418 . S
C1697 C1696 1.251 1_554 S
C1698 H1665 0.930 . S
C1698 C1700 1.406 . S
C1698 C1703 1.261 . S
C1699 H1666 0.930 . S
C1699 N1701 1.325 . S
C1699 C1702 1.377 . S
C1700 H1668 0.928 . S
C1700 C1698 1.406 . S
C1700 N1701 1.261 1_556 S
N1701 Co1652 2.214 . S
N1701 C1699 1.325 . S
N1701 C1700 1.261 1_554 S
C1702 H1672 0.940 . S
C1702 C1699 1.377 . S
C1702 C1703 1.284 1_554 S
C1703 H1674 0.930 . S
C1703 C1698 1.261 . S
C1703 C1702 1.284 1_556 S
C1704 O1676 1.214 . S
C1704 O1684 1.234 . S
C1705 H1677 0.929 1_455 S
C1705 C1708 1.391 . S
C1705 C1710 1.391 . S
C1706 H1678 0.929 . S
C1706 C1707 1.390 . S
C1706 N1709 1.391 . S
C1707 H1679 0.930 . S
C1707 C1706 1.390 . S
C1707 C1708 1.392 . S
C1708 H1680 0.929 . S
C1708 C1705 1.391 . S
C1708 C1707 1.392 . S
N1709 Co1653 2.257 . S
N1709 C1706 1.391 . S
N1709 C1710 1.388 . S
C1710 H1681 0.930 . S
C1710 C1705 1.391 . S
C1710 N1709 1.388 . S
Co1711 O1713 2.143 . S
Co1711 O1719 2.074 . S
Co1711 O1722 2.093 . S
Co1711 O1735 2.097 . S
Co1711 N1752 2.151 . S
Co1711 N1760 2.214 . S
Co1712 O1713 2.160 . S
Co1712 O1718 2.058 . S
Co1712 O1728 2.057 . S
Co1712 O1743 2.037 . S
Co1712 N1747 2.145 . S
Co1712 N1768 2.257 . S
O1713 Co1711 2.143 . S
O1713 Co1712 2.160 . S
C1714 O1715 1.278 . S
C1714 O1722 1.224 . S
O1715 C1714 1.278 . S
C1716 O1717 1.245 . S
C1716 O1728 1.232 . S
O1717 C1716 1.245 . S
O1718 Co1712 2.058 . S
O1718 C1744 1.269 . S
O1719 Co1711 2.074 . S
O1719 C1744 1.257 . S
H1720 C1745 0.930 . S
H1721 C1751 0.930 . S
O1722 Co1711 2.093 . S
O1722 C1714 1.224 . S
H1723 C1755 0.929 . S
H1724 C1757 0.930 . S
H1725 C1758 0.930 . S
H1726 C1756 0.929 . S
H1727 C1759 0.928 . S
O1728 Co1712 2.057 . S
O1728 C1716 1.232 . S
H1729 C1748 0.929 . S
H1730 C1749 0.929 . S
H1731 C1761 0.940 . S
H1732 C1753 0.938 . S
H1733 C1762 0.930 . S
H1734 C1754 0.931 . S
O1735 Co1711 2.097 . S
O1735 C1763 1.214 . S
H1736 C1764 0.929 . S
H1737 C1765 0.929 . S
H1738 C1766 0.930 . S
H1739 C1767 0.929 . S
H1740 C1769 0.930 . S
H1741 C1746 0.930 . S
H1742 C1750 0.930 . S
O1743 Co1712 2.037 . S
O1743 C1763 1.234 . S
C1744 O1718 1.269 . S
C1744 O1719 1.257 . S
C1745 H1720 0.930 . S
C1745 C1748 1.388 . S
C1745 C1750 1.418 . S
C1746 H1741 0.930 . S
C1746 C1749 1.404 . S
C1746 C1750 1.353 . S
N1747 Co1712 2.145 . S
N1747 C1748 1.397 . S
N1747 C1749 1.334 . S
C1748 H1729 0.929 . S
C1748 C1745 1.388 . S
C1748 N1747 1.397 . S
C1749 H1730 0.929 . S
C1749 C1746 1.404 . S
C1749 N1747 1.334 . S
C1750 H1742 0.930 . S
C1750 C1745 1.418 . S
C1750 C1746 1.353 . S
C1751 H1721 0.930 . S
C1751 N1752 1.330 . S
C1751 C1753 1.415 1_554 S
N1752 Co1711 2.151 . S
N1752 C1751 1.330 . S
N1752 C1756 1.418 . S
C1753 H1732 0.938 . S
C1753 C1751 1.415 1_556 S
C1753 C1754 1.356 . S
C1754 H1734 0.931 . S
C1754 C1753 1.356 . S
C1754 C1755 1.267 . S
C1755 H1723 0.929 . S
C1755 C1754 1.267 . S
C1755 C1756 1.251 1_556 S
C1756 H1726 0.929 . S
C1756 N1752 1.418 . S
C1756 C1755 1.251 1_554 S
C1757 H1724 0.930 . S
C1757 C1759 1.406 . S
C1757 C1762 1.261 . S
C1758 H1725 0.930 . S
C1758 N1760 1.325 . S
C1758 C1761 1.377 . S
C1759 H1727 0.928 . S
C1759 C1757 1.406 . S
C1759 N1760 1.261 1_556 S
N1760 Co1711 2.214 . S
N1760 C1758 1.325 . S
N1760 C1759 1.261 1_554 S
C1761 H1731 0.940 . S
C1761 C1758 1.377 . S
C1761 C1762 1.283 1_554 S
C1762 H1733 0.930 . S
C1762 C1757 1.261 . S
C1762 C1761 1.283 1_556 S
C1763 O1735 1.214 . S
C1763 O1743 1.234 . S
C1764 H1736 0.929 . S
C1764 C1767 1.391 . S
C1764 C1769 1.391 . S
C1765 H1737 0.929 . S
C1765 C1766 1.390 . S
C1765 N1768 1.391 . S
C1766 H1738 0.930 . S
C1766 C1765 1.390 . S
C1766 C1767 1.392 . S
C1767 H1739 0.929 . S
C1767 C1764 1.391 . S
C1767 C1766 1.392 . S
N1768 Co1712 2.257 . S
N1768 C1765 1.391 . S
N1768 C1769 1.388 . S
C1769 H1740 0.930 . S
C1769 C1764 1.391 . S
C1769 N1768 1.388 . S
Co1770 O1772 2.143 . S
Co1770 O1778 2.074 . S
Co1770 O1781 2.093 . S
Co1770 O1794 2.097 . S
Co1770 N1811 2.151 . S
Co1770 N1819 2.214 . S
Co1771 O1772 2.160 . S
Co1771 O1777 2.058 . S
Co1771 O1787 2.057 . S
Co1771 O1802 2.037 . S
Co1771 N1806 2.145 . S
Co1771 N1827 2.257 . S
O1772 Co1770 2.143 . S
O1772 Co1771 2.160 . S
C1773 O1774 1.278 . S
C1773 O1781 1.224 . S
O1774 C1773 1.278 . S
C1775 O1776 1.245 . S
C1775 O1787 1.232 . S
O1776 C1775 1.245 . S
O1777 Co1771 2.058 . S
O1777 C1803 1.269 . S
O1778 Co1770 2.074 . S
O1778 C1803 1.257 . S
H1779 C1804 0.930 . S
H1780 C1810 0.930 . S
O1781 Co1770 2.093 . S
O1781 C1773 1.224 . S
H1782 C1814 0.929 . S
H1783 C1816 0.930 . S
H1784 C1817 0.930 . S
H1785 C1815 0.929 . S
H1786 C1818 0.928 . S
O1787 Co1771 2.057 . S
O1787 C1775 1.232 . S
H1788 C1807 0.929 . S
H1789 C1808 0.929 . S
H1790 C1820 0.931 . S
H1791 C1812 0.929 . S
H1792 C1821 0.930 . S
H1793 C1813 0.931 . S
O1794 Co1770 2.097 . S
O1794 C1822 1.214 . S
H1795 C1823 0.929 1_655 S
H1796 C1824 0.929 . S
H1797 C1825 0.930 . S
H1798 C1826 0.929 . S
H1799 C1828 0.930 . S
H1800 C1805 0.930 . S
H1801 C1809 0.930 . S
O1802 Co1771 2.037 . S
O1802 C1822 1.234 . S
C1803 O1777 1.269 . S
C1803 O1778 1.257 . S
C1804 H1779 0.930 . S
C1804 C1807 1.388 . S
C1804 C1809 1.418 . S
C1805 H1800 0.930 . S
C1805 C1808 1.404 . S
C1805 C1809 1.353 . S
N1806 Co1771 2.145 . S
N1806 C1807 1.397 . S
N1806 C1808 1.334 . S
C1807 H1788 0.929 . S
C1807 C1804 1.388 . S
C1807 N1806 1.397 . S
C1808 H1789 0.929 . S
C1808 C1805 1.404 . S
C1808 N1806 1.334 . S
C1809 H1801 0.930 . S
C1809 C1804 1.418 . S
C1809 C1805 1.353 . S
C1810 H1780 0.930 . S
C1810 N1811 1.330 . S
C1810 C1812 1.446 . S
N1811 Co1770 2.151 . S
N1811 C1810 1.330 . S
N1811 C1815 1.418 . S
C1812 H1791 0.929 . S
C1812 C1810 1.446 . S
C1812 C1813 1.332 . S
C1813 H1793 0.931 . S
C1813 C1812 1.332 . S
C1813 C1814 1.267 . S
C1814 H1782 0.929 . S
C1814 C1813 1.267 . S
C1814 C1815 1.251 . S
C1815 H1785 0.929 . S
C1815 N1811 1.418 . S
C1815 C1814 1.251 . S
C1816 H1783 0.930 . S
C1816 C1818 1.406 . S
C1816 C1821 1.261 . S
C1817 H1784 0.930 . S
C1817 N1819 1.325 . S
C1817 C1820 1.357 . S
C1818 H1786 0.928 . S
C1818 C1816 1.406 . S
C1818 N1819 1.261 . S
N1819 Co1770 2.214 . S
N1819 C1817 1.325 . S
N1819 C1818 1.261 . S
C1820 H1790 0.931 . S
C1820 C1817 1.357 . S
C1820 C1821 1.312 . S
C1821 H1792 0.930 . S
C1821 C1816 1.261 . S
C1821 C1820 1.312 . S
C1822 O1794 1.214 . S
C1822 O1802 1.234 . S
C1823 H1795 0.929 1_455 S
C1823 C1826 1.391 . S
C1823 C1828 1.391 . S
C1824 H1796 0.929 . S
C1824 C1825 1.390 . S
C1824 N1827 1.391 . S
C1825 H1797 0.930 . S
C1825 C1824 1.390 . S
C1825 C1826 1.392 . S
C1826 H1798 0.929 . S
C1826 C1823 1.391 . S
C1826 C1825 1.392 . S
N1827 Co1771 2.257 . S
N1827 C1824 1.391 . S
N1827 C1828 1.388 . S
C1828 H1799 0.930 . S
C1828 C1823 1.391 . S
C1828 N1827 1.388 . S
Co1829 O1831 2.143 . S
Co1829 O1837 2.074 . S
Co1829 O1840 2.093 . S
Co1829 O1853 2.097 . S
Co1829 N1870 2.151 . S
Co1829 N1878 2.214 . S
Co1830 O1831 2.160 . S
Co1830 O1836 2.058 . S
Co1830 O1846 2.057 . S
Co1830 O1861 2.037 . S
Co1830 N1865 2.145 . S
Co1830 N1886 2.257 . S
O1831 Co1829 2.143 . S
O1831 Co1830 2.160 . S
C1832 O1833 1.278 . S
C1832 O1840 1.224 . S
O1833 C1832 1.278 . S
C1834 O1835 1.245 . S
C1834 O1846 1.232 . S
O1835 C1834 1.245 . S
O1836 Co1830 2.058 . S
O1836 C1862 1.269 . S
O1837 Co1829 2.074 . S
O1837 C1862 1.257 . S
H1838 C1863 0.930 . S
H1839 C1869 0.930 . S
O1840 Co1829 2.093 . S
O1840 C1832 1.224 . S
H1841 C1873 0.929 . S
H1842 C1875 0.930 . S
H1843 C1876 0.930 . S
H1844 C1874 0.929 . S
H1845 C1877 0.928 . S
O1846 Co1830 2.057 . S
O1846 C1834 1.232 . S
H1847 C1866 0.929 . S
H1848 C1867 0.929 . S
H1849 C1879 0.931 . S
H1850 C1871 0.929 . S
H1851 C1880 0.930 . S
H1852 C1872 0.931 . S
O1853 Co1829 2.097 . S
O1853 C1881 1.214 . S
H1854 C1882 0.929 . S
H1855 C1883 0.929 . S
H1856 C1884 0.930 . S
H1857 C1885 0.929 . S
H1858 C1887 0.930 . S
H1859 C1864 0.930 . S
H1860 C1868 0.930 . S
O1861 Co1830 2.037 . S
O1861 C1881 1.234 . S
C1862 O1836 1.269 . S
C1862 O1837 1.257 . S
C1863 H1838 0.930 . S
C1863 C1866 1.388 . S
C1863 C1868 1.418 . S
C1864 H1859 0.930 . S
C1864 C1867 1.404 . S
C1864 C1868 1.353 . S
N1865 Co1830 2.145 . S
N1865 C1866 1.397 . S
N1865 C1867 1.334 . S
C1866 H1847 0.929 . S
C1866 C1863 1.388 . S
C1866 N1865 1.397 . S
C1867 H1848 0.929 . S
C1867 C1864 1.404 . S
C1867 N1865 1.334 . S
C1868 H1860 0.930 . S
C1868 C1863 1.418 . S
C1868 C1864 1.353 . S
C1869 H1839 0.930 . S
C1869 N1870 1.330 . S
C1869 C1871 1.446 . S
N1870 Co1829 2.151 . S
N1870 C1869 1.330 . S
N1870 C1874 1.418 . S
C1871 H1850 0.929 . S
C1871 C1869 1.446 . S
C1871 C1872 1.332 . S
C1872 H1852 0.931 . S
C1872 C1871 1.332 . S
C1872 C1873 1.267 . S
C1873 H1841 0.929 . S
C1873 C1872 1.267 . S
C1873 C1874 1.251 . S
C1874 H1844 0.929 . S
C1874 N1870 1.418 . S
C1874 C1873 1.251 . S
C1875 H1842 0.930 . S
C1875 C1877 1.406 . S
C1875 C1880 1.261 . S
C1876 H1843 0.930 . S
C1876 N1878 1.325 . S
C1876 C1879 1.357 . S
C1877 H1845 0.928 . S
C1877 C1875 1.406 . S
C1877 N1878 1.261 . S
N1878 Co1829 2.214 . S
N1878 C1876 1.325 . S
N1878 C1877 1.261 . S
C1879 H1849 0.931 . S
C1879 C1876 1.357 . S
C1879 C1880 1.312 . S
C1880 H1851 0.930 . S
C1880 C1875 1.261 . S
C1880 C1879 1.312 . S
C1881 O1853 1.214 . S
C1881 O1861 1.234 . S
C1882 H1854 0.929 . S
C1882 C1885 1.391 . S
C1882 C1887 1.391 . S
C1883 H1855 0.929 . S
C1883 C1884 1.390 . S
C1883 N1886 1.391 . S
C1884 H1856 0.930 . S
C1884 C1883 1.390 . S
C1884 C1885 1.392 . S
C1885 H1857 0.929 . S
C1885 C1882 1.391 . S
C1885 C1884 1.392 . S
N1886 Co1830 2.257 . S
N1886 C1883 1.391 . S
N1886 C1887 1.388 . S
C1887 H1858 0.930 . S
C1887 C1882 1.391 . S
C1887 N1886 1.388 . S
Co1888 O1890 2.143 . S
Co1888 O1896 2.074 . S
Co1888 O1899 2.093 . S
Co1888 O1912 2.097 . S
Co1888 N1929 2.151 . S
Co1888 N1937 2.214 . S
Co1889 O1890 2.160 . S
Co1889 O1895 2.058 . S
Co1889 O1905 2.057 . S
Co1889 O1920 2.037 . S
Co1889 N1924 2.145 . S
Co1889 N1945 2.257 . S
O1890 Co1888 2.143 . S
O1890 Co1889 2.160 . S
C1891 O1892 1.278 . S
C1891 O1899 1.224 . S
O1892 C1891 1.278 . S
C1893 O1894 1.245 . S
C1893 O1905 1.232 . S
O1894 C1893 1.245 . S
O1895 Co1889 2.058 . S
O1895 C1921 1.269 . S
O1896 Co1888 2.074 . S
O1896 C1921 1.257 . S
H1897 C1922 0.930 . S
H1898 C1928 0.930 . S
O1899 Co1888 2.093 . S
O1899 C1891 1.224 . S
H1900 C1932 0.929 . S
H1901 C1934 0.930 . S
H1902 C1935 0.930 . S
H1903 C1933 0.929 . S
H1904 C1936 0.928 . S
O1905 Co1889 2.057 . S
O1905 C1893 1.232 . S
H1906 C1925 0.929 . S
H1907 C1926 0.929 . S
H1908 C1938 0.931 . S
H1909 C1930 0.929 . S
H1910 C1939 0.930 . S
H1911 C1931 0.931 . S
O1912 Co1888 2.097 . S
O1912 C1940 1.214 . S
H1913 C1941 0.929 1_545 S
H1914 C1942 0.929 . S
H1915 C1943 0.930 . S
H1916 C1944 0.929 . S
H1917 C1946 0.930 . S
H1918 C1923 0.930 . S
H1919 C1927 0.930 . S
O1920 Co1889 2.037 . S
O1920 C1940 1.234 . S
C1921 O1895 1.269 . S
C1921 O1896 1.257 . S
C1922 H1897 0.930 . S
C1922 C1925 1.388 . S
C1922 C1927 1.418 . S
C1923 H1918 0.930 . S
C1923 C1926 1.404 . S
C1923 C1927 1.353 . S
N1924 Co1889 2.145 . S
N1924 C1925 1.397 . S
N1924 C1926 1.334 . S
C1925 H1906 0.929 . S
C1925 C1922 1.388 . S
C1925 N1924 1.397 . S
C1926 H1907 0.929 . S
C1926 C1923 1.404 . S
C1926 N1924 1.334 . S
C1927 H1919 0.930 . S
C1927 C1922 1.418 . S
C1927 C1923 1.353 . S
C1928 H1898 0.930 . S
C1928 N1929 1.330 . S
C1928 C1930 1.446 . S
N1929 Co1888 2.151 . S
N1929 C1928 1.330 . S
N1929 C1933 1.418 . S
C1930 H1909 0.929 . S
C1930 C1928 1.446 . S
C1930 C1931 1.332 . S
C1931 H1911 0.931 . S
C1931 C1930 1.332 . S
C1931 C1932 1.267 . S
C1932 H1900 0.929 . S
C1932 C1931 1.267 . S
C1932 C1933 1.251 . S
C1933 H1903 0.929 . S
C1933 N1929 1.418 . S
C1933 C1932 1.251 . S
C1934 H1901 0.930 . S
C1934 C1936 1.406 . S
C1934 C1939 1.261 . S
C1935 H1902 0.930 . S
C1935 N1937 1.325 . S
C1935 C1938 1.357 . S
C1936 H1904 0.928 . S
C1936 C1934 1.406 . S
C1936 N1937 1.261 . S
N1937 Co1888 2.214 . S
N1937 C1935 1.325 . S
N1937 C1936 1.261 . S
C1938 H1908 0.931 . S
C1938 C1935 1.357 . S
C1938 C1939 1.312 . S
C1939 H1910 0.930 . S
C1939 C1934 1.261 . S
C1939 C1938 1.312 . S
C1940 O1912 1.214 . S
C1940 O1920 1.234 . S
C1941 H1913 0.929 1_565 S
C1941 C1944 1.391 . S
C1941 C1946 1.391 . S
C1942 H1914 0.929 . S
C1942 C1943 1.390 . S
C1942 N1945 1.391 . S
C1943 H1915 0.930 . S
C1943 C1942 1.390 . S
C1943 C1944 1.392 . S
C1944 H1916 0.929 . S
C1944 C1941 1.391 . S
C1944 C1943 1.392 . S
N1945 Co1889 2.257 . S
N1945 C1942 1.391 . S
N1945 C1946 1.388 . S
C1946 H1917 0.930 . S
C1946 C1941 1.391 . S
C1946 N1945 1.388 . S
Co1947 O1949 2.143 . S
Co1947 O1955 2.074 . S
Co1947 O1958 2.093 . S
Co1947 O1971 2.097 . S
Co1947 N1988 2.151 . S
Co1947 N1996 2.214 . S
Co1948 O1949 2.160 . S
Co1948 O1954 2.058 . S
Co1948 O1964 2.057 . S
Co1948 O1979 2.037 . S
Co1948 N1983 2.145 . S
Co1948 N2004 2.257 . S
O1949 Co1947 2.143 . S
O1949 Co1948 2.160 . S
C1950 O1951 1.278 . S
C1950 O1958 1.224 . S
O1951 C1950 1.278 . S
C1952 O1953 1.245 . S
C1952 O1964 1.232 . S
O1953 C1952 1.245 . S
O1954 Co1948 2.058 . S
O1954 C1980 1.269 . S
O1955 Co1947 2.074 . S
O1955 C1980 1.257 . S
H1956 C1981 0.930 . S
H1957 C1987 0.930 . S
O1958 Co1947 2.093 . S
O1958 C1950 1.224 . S
H1959 C1991 0.929 . S
H1960 C1993 0.930 . S
H1961 C1994 0.930 . S
H1962 C1992 0.929 . S
H1963 C1995 0.928 . S
O1964 Co1948 2.057 . S
O1964 C1952 1.232 . S
H1965 C1984 0.929 . S
H1966 C1985 0.929 . S
H1967 C1997 0.931 . S
H1968 C1989 0.929 . S
H1969 C1998 0.930 . S
H1970 C1990 0.931 . S
O1971 Co1947 2.097 . S
O1971 C1999 1.214 . S
H1972 C2000 0.929 . S
H1973 C2001 0.929 . S
H1974 C2002 0.930 . S
H1975 C2003 0.929 . S
H1976 C2005 0.930 . S
H1977 C1982 0.930 . S
H1978 C1986 0.930 . S
O1979 Co1948 2.037 . S
O1979 C1999 1.234 . S
C1980 O1954 1.269 . S
C1980 O1955 1.257 . S
C1981 H1956 0.930 . S
C1981 C1984 1.388 . S
C1981 C1986 1.418 . S
C1982 H1977 0.930 . S
C1982 C1985 1.404 . S
C1982 C1986 1.353 . S
N1983 Co1948 2.145 . S
N1983 C1984 1.397 . S
N1983 C1985 1.334 . S
C1984 H1965 0.929 . S
C1984 C1981 1.388 . S
C1984 N1983 1.397 . S
C1985 H1966 0.929 . S
C1985 C1982 1.404 . S
C1985 N1983 1.334 . S
C1986 H1978 0.930 . S
C1986 C1981 1.418 . S
C1986 C1982 1.353 . S
C1987 H1957 0.930 . S
C1987 N1988 1.330 . S
C1987 C1989 1.446 . S
N1988 Co1947 2.151 . S
N1988 C1987 1.330 . S
N1988 C1992 1.418 . S
C1989 H1968 0.929 . S
C1989 C1987 1.446 . S
C1989 C1990 1.332 . S
C1990 H1970 0.931 . S
C1990 C1989 1.332 . S
C1990 C1991 1.267 . S
C1991 H1959 0.929 . S
C1991 C1990 1.267 . S
C1991 C1992 1.251 . S
C1992 H1962 0.929 . S
C1992 N1988 1.418 . S
C1992 C1991 1.251 . S
C1993 H1960 0.930 . S
C1993 C1995 1.406 . S
C1993 C1998 1.261 . S
C1994 H1961 0.930 . S
C1994 N1996 1.325 . S
C1994 C1997 1.357 . S
C1995 H1963 0.928 . S
C1995 C1993 1.406 . S
C1995 N1996 1.261 . S
N1996 Co1947 2.214 . S
N1996 C1994 1.325 . S
N1996 C1995 1.261 . S
C1997 H1967 0.931 . S
C1997 C1994 1.357 . S
C1997 C1998 1.312 . S
C1998 H1969 0.930 . S
C1998 C1993 1.261 . S
C1998 C1997 1.312 . S
C1999 O1971 1.214 . S
C1999 O1979 1.234 . S
C2000 H1972 0.929 . S
C2000 C2003 1.391 . S
C2000 C2005 1.391 . S
C2001 H1973 0.929 . S
C2001 C2002 1.390 . S
C2001 N2004 1.391 . S
C2002 H1974 0.930 . S
C2002 C2001 1.390 . S
C2002 C2003 1.392 . S
C2003 H1975 0.929 . S
C2003 C2000 1.391 . S
C2003 C2002 1.392 . S
N2004 Co1948 2.257 . S
N2004 C2001 1.391 . S
N2004 C2005 1.388 . S
C2005 H1976 0.930 . S
C2005 C2000 1.391 . S
C2005 N2004 1.388 . S
Co2006 O2008 2.143 . S
Co2006 O2014 2.074 . S
Co2006 O2017 2.093 . S
Co2006 O2030 2.097 . S
Co2006 N2047 2.151 . S
Co2006 N2055 2.214 . S
Co2007 O2008 2.160 . S
Co2007 O2013 2.058 . S
Co2007 O2023 2.057 . S
Co2007 O2038 2.037 . S
Co2007 N2042 2.145 . S
Co2007 N2063 2.257 . S
O2008 Co2006 2.143 . S
O2008 Co2007 2.160 . S
C2009 O2010 1.278 . S
C2009 O2017 1.224 . S
O2010 C2009 1.278 . S
C2011 O2012 1.245 . S
C2011 O2023 1.232 . S
O2012 C2011 1.245 . S
O2013 Co2007 2.058 . S
O2013 C2039 1.269 . S
O2014 Co2006 2.074 . S
O2014 C2039 1.257 . S
H2015 C2040 0.930 . S
H2016 C2046 0.930 . S
O2017 Co2006 2.093 . S
O2017 C2009 1.224 . S
H2018 C2050 0.929 . S
H2019 C2052 0.930 . S
H2020 C2053 0.930 . S
H2021 C2051 0.929 . S
H2022 C2054 0.928 . S
O2023 Co2007 2.057 . S
O2023 C2011 1.232 . S
H2024 C2043 0.929 . S
H2025 C2044 0.929 . S
H2026 C2056 0.931 . S
H2027 C2048 0.929 . S
H2028 C2057 0.930 . S
H2029 C2049 0.931 . S
O2030 Co2006 2.097 . S
O2030 C2058 1.214 . S
H2031 C2059 0.929 . S
H2032 C2060 0.929 . S
H2033 C2061 0.930 . S
H2034 C2062 0.929 . S
H2035 C2064 0.930 . S
H2036 C2041 0.930 . S
H2037 C2045 0.930 . S
O2038 Co2007 2.037 . S
O2038 C2058 1.234 . S
C2039 O2013 1.269 . S
C2039 O2014 1.257 . S
C2040 H2015 0.930 . S
C2040 C2043 1.388 . S
C2040 C2045 1.418 . S
C2041 H2036 0.930 . S
C2041 C2044 1.404 . S
C2041 C2045 1.353 . S
N2042 Co2007 2.145 . S
N2042 C2043 1.397 . S
N2042 C2044 1.334 . S
C2043 H2024 0.929 . S
C2043 C2040 1.388 . S
C2043 N2042 1.397 . S
C2044 H2025 0.929 . S
C2044 C2041 1.404 . S
C2044 N2042 1.334 . S
C2045 H2037 0.930 . S
C2045 C2040 1.418 . S
C2045 C2041 1.353 . S
C2046 H2016 0.930 . S
C2046 N2047 1.330 . S
C2046 C2048 1.446 . S
N2047 Co2006 2.151 . S
N2047 C2046 1.330 . S
N2047 C2051 1.418 . S
C2048 H2027 0.929 . S
C2048 C2046 1.446 . S
C2048 C2049 1.332 . S
C2049 H2029 0.931 . S
C2049 C2048 1.332 . S
C2049 C2050 1.267 . S
C2050 H2018 0.929 . S
C2050 C2049 1.267 . S
C2050 C2051 1.251 . S
C2051 H2021 0.929 . S
C2051 N2047 1.418 . S
C2051 C2050 1.251 . S
C2052 H2019 0.930 . S
C2052 C2054 1.406 . S
C2052 C2057 1.261 . S
C2053 H2020 0.930 . S
C2053 N2055 1.325 . S
C2053 C2056 1.357 . S
C2054 H2022 0.928 . S
C2054 C2052 1.406 . S
C2054 N2055 1.261 . S
N2055 Co2006 2.214 . S
N2055 C2053 1.325 . S
N2055 C2054 1.261 . S
C2056 H2026 0.931 . S
C2056 C2053 1.357 . S
C2056 C2057 1.312 . S
C2057 H2028 0.930 . S
C2057 C2052 1.261 . S
C2057 C2056 1.312 . S
C2058 O2030 1.214 . S
C2058 O2038 1.234 . S
C2059 H2031 0.929 . S
C2059 C2062 1.391 . S
C2059 C2064 1.391 . S
C2060 H2032 0.929 . S
C2060 C2061 1.390 . S
C2060 N2063 1.391 . S
C2061 H2033 0.930 . S
C2061 C2060 1.390 . S
C2061 C2062 1.392 . S
C2062 H2034 0.929 . S
C2062 C2059 1.391 . S
C2062 C2061 1.392 . S
N2063 Co2007 2.257 . S
N2063 C2060 1.391 . S
N2063 C2064 1.388 . S
C2064 H2035 0.930 . S
C2064 C2059 1.391 . S
C2064 N2063 1.388 . S
Co2065 O2067 2.143 . S
Co2065 O2073 2.074 . S
Co2065 O2076 2.093 . S
Co2065 O2089 2.097 . S
Co2065 N2106 2.151 . S
Co2065 N2114 2.214 . S
Co2066 O2067 2.160 . S
Co2066 O2072 2.058 . S
Co2066 O2082 2.057 . S
Co2066 O2097 2.037 . S
Co2066 N2101 2.145 . S
Co2066 N2122 2.257 . S
O2067 Co2065 2.143 . S
O2067 Co2066 2.160 . S
C2068 O2069 1.278 . S
C2068 O2076 1.224 . S
O2069 C2068 1.278 . S
C2070 O2071 1.245 . S
C2070 O2082 1.232 . S
O2071 C2070 1.245 . S
O2072 Co2066 2.058 . S
O2072 C2098 1.269 . S
O2073 Co2065 2.074 . S
O2073 C2098 1.257 . S
H2074 C2099 0.930 . S
H2075 C2105 0.930 . S
O2076 Co2065 2.093 . S
O2076 C2068 1.224 . S
H2077 C2109 0.929 . S
H2078 C2111 0.930 . S
H2079 C2112 0.930 . S
H2080 C2110 0.929 . S
H2081 C2113 0.928 . S
O2082 Co2066 2.057 . S
O2082 C2070 1.232 . S
H2083 C2102 0.929 . S
H2084 C2103 0.929 . S
H2085 C2115 0.931 . S
H2086 C2107 0.929 . S
H2087 C2116 0.930 . S
H2088 C2108 0.931 . S
O2089 Co2065 2.097 . S
O2089 C2117 1.214 . S
H2090 C2118 0.929 . S
H2091 C2119 0.929 . S
H2092 C2120 0.930 . S
H2093 C2121 0.929 . S
H2094 C2123 0.930 . S
H2095 C2100 0.930 . S
H2096 C2104 0.930 . S
O2097 Co2066 2.037 . S
O2097 C2117 1.234 . S
C2098 O2072 1.269 . S
C2098 O2073 1.257 . S
C2099 H2074 0.930 . S
C2099 C2102 1.388 . S
C2099 C2104 1.418 . S
C2100 H2095 0.930 . S
C2100 C2103 1.404 . S
C2100 C2104 1.353 . S
N2101 Co2066 2.145 . S
N2101 C2102 1.397 . S
N2101 C2103 1.334 . S
C2102 H2083 0.929 . S
C2102 C2099 1.388 . S
C2102 N2101 1.397 . S
C2103 H2084 0.929 . S
C2103 C2100 1.404 . S
C2103 N2101 1.334 . S
C2104 H2096 0.930 . S
C2104 C2099 1.418 . S
C2104 C2100 1.353 . S
C2105 H2075 0.930 . S
C2105 N2106 1.330 . S
C2105 C2107 1.446 . S
N2106 Co2065 2.151 . S
N2106 C2105 1.330 . S
N2106 C2110 1.418 . S
C2107 H2086 0.929 . S
C2107 C2105 1.446 . S
C2107 C2108 1.332 . S
C2108 H2088 0.931 . S
C2108 C2107 1.332 . S
C2108 C2109 1.267 . S
C2109 H2077 0.929 . S
C2109 C2108 1.267 . S
C2109 C2110 1.251 . S
C2110 H2080 0.929 . S
C2110 N2106 1.418 . S
C2110 C2109 1.251 . S
C2111 H2078 0.930 . S
C2111 C2113 1.406 . S
C2111 C2116 1.261 . S
C2112 H2079 0.930 . S
C2112 N2114 1.325 . S
C2112 C2115 1.357 . S
C2113 H2081 0.928 . S
C2113 C2111 1.406 . S
C2113 N2114 1.261 . S
N2114 Co2065 2.214 . S
N2114 C2112 1.325 . S
N2114 C2113 1.261 . S
C2115 H2085 0.931 . S
C2115 C2112 1.357 . S
C2115 C2116 1.312 . S
C2116 H2087 0.930 . S
C2116 C2111 1.261 . S
C2116 C2115 1.312 . S
C2117 O2089 1.214 . S
C2117 O2097 1.234 . S
C2118 H2090 0.929 . S
C2118 C2121 1.391 . S
C2118 C2123 1.391 . S
C2119 H2091 0.929 . S
C2119 C2120 1.390 . S
C2119 N2122 1.391 . S
C2120 H2092 0.930 . S
C2120 C2119 1.390 . S
C2120 C2121 1.392 . S
C2121 H2093 0.929 . S
C2121 C2118 1.391 . S
C2121 C2120 1.392 . S
N2122 Co2066 2.257 . S
N2122 C2119 1.391 . S
N2122 C2123 1.388 . S
C2123 H2094 0.930 . S
C2123 C2118 1.391 . S
C2123 N2122 1.388 . S
C2124 C2125 1.369 . S
C2124 C2126 1.419 . S
C2124 H2128 0.930 . S
C2125 C2124 1.369 . S
C2125 C2134 1.429 . S
C2126 C2124 1.419 . S
C2126 C2127 1.363 . S
C2126 H2129 0.929 . S
C2127 C2126 1.363 . S
C2127 C2133 1.428 . S
H2128 C2124 0.930 . S
H2129 C2126 0.929 . S
S2130 N2131 1.613 . S
S2130 N2132 1.610 . S
N2131 S2130 1.613 . S
N2131 C2134 1.350 . S
N2132 S2130 1.610 . S
N2132 C2133 1.351 . S
C2133 C2127 1.428 . S
C2133 N2132 1.351 . S
C2133 C2134 1.434 . S
C2134 C2125 1.429 . S
C2134 N2131 1.350 . S
C2134 C2133 1.434 . S
C2135 C2136 1.369 . S
C2135 C2137 1.419 . S
C2135 H2139 0.930 . S
C2136 C2135 1.369 . S
C2136 C2145 1.429 . S
C2137 C2135 1.419 . S
C2137 C2138 1.363 . S
C2137 H2140 0.929 . S
C2138 C2137 1.363 . S
C2138 C2144 1.428 . S
H2139 C2135 0.930 . S
H2140 C2137 0.929 . S
S2141 N2142 1.613 . S
S2141 N2143 1.610 . S
N2142 S2141 1.613 . S
N2142 C2145 1.350 . S
N2143 S2141 1.610 . S
N2143 C2144 1.351 . S
C2144 C2138 1.428 . S
C2144 N2143 1.351 . S
C2144 C2145 1.434 . S
C2145 C2136 1.429 . S
C2145 N2142 1.350 . S
C2145 C2144 1.434 . S
C2146 C2147 1.369 . S
C2146 C2148 1.419 . S
C2146 H2150 0.930 . S
C2147 C2146 1.369 . S
C2147 C2156 1.429 . S
C2148 C2146 1.419 . S
C2148 C2149 1.363 . S
C2148 H2151 0.929 . S
C2149 C2148 1.363 . S
C2149 C2155 1.428 . S
H2150 C2146 0.930 . S
H2151 C2148 0.929 . S
S2152 N2153 1.613 . S
S2152 N2154 1.610 . S
N2153 S2152 1.613 . S
N2153 C2156 1.350 . S
N2154 S2152 1.610 . S
N2154 C2155 1.351 . S
C2155 C2149 1.428 . S
C2155 N2154 1.351 . S
C2155 C2156 1.434 . S
C2156 C2147 1.429 . S
C2156 N2153 1.350 . S
C2156 C2155 1.434 . S
C2157 C2158 1.369 . S
C2157 C2159 1.419 . S
C2157 H2161 0.930 . S
C2158 C2157 1.369 . S
C2158 C2167 1.429 . S
C2159 C2157 1.419 . S
C2159 C2160 1.363 . S
C2159 H2162 0.929 . S
C2160 C2159 1.363 . S
C2160 C2166 1.428 . S
H2161 C2157 0.930 . S
H2162 C2159 0.929 . S
S2163 N2164 1.613 . S
S2163 N2165 1.610 . S
N2164 S2163 1.613 . S
N2164 C2167 1.350 . S
N2165 S2163 1.610 . S
N2165 C2166 1.351 . S
C2166 C2160 1.428 . S
C2166 N2165 1.351 . S
C2166 C2167 1.434 . S
C2167 C2158 1.429 . S
C2167 N2164 1.350 . S
C2167 C2166 1.434 . S
C2168 C2169 1.369 . S
C2168 C2170 1.419 . S
C2168 H2172 0.930 . S
C2169 C2168 1.369 . S
C2169 C2178 1.429 . S
C2170 C2168 1.419 . S
C2170 C2171 1.363 . S
C2170 H2173 0.929 . S
C2171 C2170 1.363 . S
C2171 C2177 1.428 . S
H2172 C2168 0.930 . S
H2173 C2170 0.929 . S
S2174 N2175 1.613 . S
S2174 N2176 1.610 . S
N2175 S2174 1.613 . S
N2175 C2178 1.350 . S
N2176 S2174 1.610 . S
N2176 C2177 1.351 . S
C2177 C2171 1.428 . S
C2177 N2176 1.351 . S
C2177 C2178 1.434 . S
C2178 C2169 1.429 . S
C2178 N2175 1.350 . S
C2178 C2177 1.434 . S
C2179 C2180 1.369 . S
C2179 C2181 1.419 . S
C2179 H2183 0.930 . S
C2180 C2179 1.369 . S
C2180 C2189 1.429 . S
C2181 C2179 1.419 . S
C2181 C2182 1.363 . S
C2181 H2184 0.929 . S
C2182 C2181 1.363 . S
C2182 C2188 1.428 . S
H2183 C2179 0.930 . S
H2184 C2181 0.929 . S
S2185 N2186 1.613 . S
S2185 N2187 1.610 . S
N2186 S2185 1.613 . S
N2186 C2189 1.350 . S
N2187 S2185 1.610 . S
N2187 C2188 1.351 . S
C2188 C2182 1.428 . S
C2188 N2187 1.351 . S
C2188 C2189 1.434 . S
C2189 C2180 1.429 . S
C2189 N2186 1.350 . S
C2189 C2188 1.434 . S
C2190 C2191 1.369 . S
C2190 C2192 1.419 . S
C2190 H2194 0.930 . S
C2191 C2190 1.369 . S
C2191 C2200 1.429 . S
C2192 C2190 1.419 . S
C2192 C2193 1.363 . S
C2192 H2195 0.929 . S
C2193 C2192 1.363 . S
C2193 C2199 1.428 . S
H2194 C2190 0.930 . S
H2195 C2192 0.929 . S
S2196 N2197 1.613 . S
S2196 N2198 1.610 . S
N2197 S2196 1.613 . S
N2197 C2200 1.350 . S
N2198 S2196 1.610 . S
N2198 C2199 1.351 . S
C2199 C2193 1.428 . S
C2199 N2198 1.351 . S
C2199 C2200 1.434 . S
C2200 C2191 1.429 . S
C2200 N2197 1.350 . S
C2200 C2199 1.434 . S
C2201 C2202 1.369 . S
C2201 C2203 1.419 . S
C2201 H2205 0.930 . S
C2202 C2201 1.369 . S
C2202 C2211 1.429 . S
C2203 C2201 1.419 . S
C2203 C2204 1.363 . S
C2203 H2206 0.929 . S
C2204 C2203 1.363 . S
C2204 C2210 1.428 . S
H2205 C2201 0.930 . S
H2206 C2203 0.929 . S
S2207 N2208 1.613 . S
S2207 N2209 1.610 . S
N2208 S2207 1.613 . S
N2208 C2211 1.350 . S
N2209 S2207 1.610 . S
N2209 C2210 1.351 . S
C2210 C2204 1.428 . S
C2210 N2209 1.351 . S
C2210 C2211 1.434 . S
C2211 C2202 1.429 . S
C2211 N2208 1.350 . S
C2211 C2210 1.434 . S
C2212 C2213 1.369 . S
C2212 C2214 1.419 . S
C2212 H2216 0.930 . S
C2213 C2212 1.369 . S
C2213 C2222 1.429 . S
C2214 C2212 1.419 . S
C2214 C2215 1.363 . S
C2214 H2217 0.929 . S
C2215 C2214 1.363 . S
C2215 C2221 1.428 . S
H2216 C2212 0.930 . S
H2217 C2214 0.929 . S
S2218 N2219 1.613 . S
S2218 N2220 1.610 . S
N2219 S2218 1.613 . S
N2219 C2222 1.350 . S
N2220 S2218 1.610 . S
N2220 C2221 1.351 . S
C2221 C2215 1.428 . S
C2221 N2220 1.351 . S
C2221 C2222 1.434 . S
C2222 C2213 1.429 . S
C2222 N2219 1.350 . S
C2222 C2221 1.434 . S
C2223 C2224 1.369 . S
C2223 C2225 1.419 . S
C2223 H2227 0.930 . S
C2224 C2223 1.369 . S
C2224 C2233 1.429 . S
C2225 C2223 1.419 . S
C2225 C2226 1.363 . S
C2225 H2228 0.929 . S
C2226 C2225 1.363 . S
C2226 C2232 1.428 . S
H2227 C2223 0.930 . S
H2228 C2225 0.929 . S
S2229 N2230 1.613 . S
S2229 N2231 1.610 . S
N2230 S2229 1.613 . S
N2230 C2233 1.350 . S
N2231 S2229 1.610 . S
N2231 C2232 1.351 . S
C2232 C2226 1.428 . S
C2232 N2231 1.351 . S
C2232 C2233 1.434 . S
C2233 C2224 1.429 . S
C2233 N2230 1.350 . S
C2233 C2232 1.434 . S
C2234 C2235 1.369 . S
C2234 C2236 1.419 . S
C2234 H2238 0.930 . S
C2235 C2234 1.369 . S
C2235 C2244 1.429 . S
C2236 C2234 1.419 . S
C2236 C2237 1.363 . S
C2236 H2239 0.929 . S
C2237 C2236 1.363 . S
C2237 C2243 1.428 . S
H2238 C2234 0.930 . S
H2239 C2236 0.929 . S
S2240 N2241 1.613 . S
S2240 N2242 1.610 . S
N2241 S2240 1.613 . S
N2241 C2244 1.350 . S
N2242 S2240 1.610 . S
N2242 C2243 1.351 . S
C2243 C2237 1.428 . S
C2243 N2242 1.351 . S
C2243 C2244 1.434 . S
C2244 C2235 1.429 . S
C2244 N2241 1.350 . S
C2244 C2243 1.434 . S
C2245 C2246 1.369 . S
C2245 C2247 1.419 . S
C2245 H2249 0.930 . S
C2246 C2245 1.369 . S
C2246 C2255 1.429 . S
C2247 C2245 1.419 . S
C2247 C2248 1.363 . S
C2247 H2250 0.929 . S
C2248 C2247 1.363 . S
C2248 C2254 1.428 . S
H2249 C2245 0.930 . S
H2250 C2247 0.929 . S
S2251 N2252 1.613 . S
S2251 N2253 1.610 . S
N2252 S2251 1.613 . S
N2252 C2255 1.350 . S
N2253 S2251 1.610 . S
N2253 C2254 1.351 . S
C2254 C2248 1.428 . S
C2254 N2253 1.351 . S
C2254 C2255 1.434 . S
C2255 C2246 1.429 . S
C2255 N2252 1.350 . S
C2255 C2254 1.434 . S
C2256 C2257 1.369 . S
C2256 C2258 1.419 . S
C2256 H2260 0.930 . S
C2257 C2256 1.369 . S
C2257 C2266 1.429 1_455 S
C2258 C2256 1.419 . S
C2258 C2259 1.363 1_455 S
C2258 H2261 0.929 . S
C2259 C2258 1.363 1_655 S
C2259 C2265 1.428 . S
H2260 C2256 0.930 . S
H2261 C2258 0.929 . S
S2262 N2263 1.613 . S
S2262 N2264 1.610 . S
N2263 S2262 1.613 . S
N2263 C2266 1.350 . S
N2264 S2262 1.610 . S
N2264 C2265 1.351 . S
C2265 C2259 1.428 . S
C2265 N2264 1.351 . S
C2265 C2266 1.434 . S
C2266 C2257 1.429 1_655 S
C2266 N2263 1.350 . S
C2266 C2265 1.434 . S
C2267 C2268 1.369 . S
C2267 C2269 1.419 . S
C2267 H2271 0.930 . S
C2268 C2267 1.369 . S
C2268 C2277 1.429 . S
C2269 C2267 1.419 . S
C2269 C2270 1.363 . S
C2269 H2272 0.929 . S
C2270 C2269 1.363 . S
C2270 C2276 1.428 . S
H2271 C2267 0.930 . S
H2272 C2269 0.929 . S
S2273 N2274 1.613 . S
S2273 N2275 1.610 . S
N2274 S2273 1.613 . S
N2274 C2277 1.350 . S
N2275 S2273 1.610 . S
N2275 C2276 1.351 . S
C2276 C2270 1.428 . S
C2276 N2275 1.351 . S
C2276 C2277 1.434 . S
C2277 C2268 1.429 . S
C2277 N2274 1.350 . S
C2277 C2276 1.434 . S
C2278 C2279 1.369 . S
C2278 C2280 1.419 . S
C2278 H2282 0.930 . S
C2279 C2278 1.369 . S
C2279 C2288 1.429 1_545 S
C2280 C2278 1.419 . S
C2280 C2281 1.363 1_545 S
C2280 H2283 0.929 . S
C2281 C2280 1.363 1_565 S
C2281 C2287 1.428 . S
H2282 C2278 0.930 . S
H2283 C2280 0.929 . S
S2284 N2285 1.613 . S
S2284 N2286 1.610 . S
N2285 S2284 1.613 . S
N2285 C2288 1.350 . S
N2286 S2284 1.610 . S
N2286 C2287 1.351 . S
C2287 C2281 1.428 . S
C2287 N2286 1.351 . S
C2287 C2288 1.434 . S
C2288 C2279 1.429 1_565 S
C2288 N2285 1.350 . S
C2288 C2287 1.434 . S
C2289 C2290 1.369 1_545 S
C2289 C2291 1.419 1_554 S
C2289 H2293 0.930 . S
C2290 C2289 1.369 1_565 S
C2290 C2299 1.429 . S
C2291 C2289 1.419 1_556 S
C2291 C2292 1.363 . S
C2291 H2294 0.929 . S
C2292 C2291 1.363 . S
C2292 C2298 1.428 1_545 S
H2293 C2289 0.930 . S
H2294 C2291 0.929 . S
S2295 N2296 1.637 . S
S2295 N2297 1.586 1_554 S
N2296 S2295 1.637 . S
N2296 C2299 1.350 . S
N2297 S2295 1.586 1_556 S
N2297 C2298 1.351 . S
C2298 C2292 1.428 1_565 S
C2298 N2297 1.351 . S
C2298 C2299 1.434 1_556 S
C2299 C2290 1.429 . S
C2299 N2296 1.350 . S
C2299 C2298 1.434 1_554 S
C2300 C2301 1.369 . S
C2300 C2302 1.419 1_655 S
C2300 H2304 0.930 . S
C2301 C2300 1.369 . S
C2301 C2310 1.429 1_556 S
C2302 C2300 1.419 1_455 S
C2302 C2303 1.363 1_556 S
C2302 H2305 0.929 . S
C2303 C2302 1.363 1_554 S
C2303 C2309 1.428 . S
H2304 C2300 0.930 . S
H2305 C2302 0.929 . S
S2306 N2307 1.613 . S
S2306 N2308 1.610 1_655 S
N2307 S2306 1.613 . S
N2307 C2310 1.350 . S
N2308 S2306 1.610 1_455 S
N2308 C2309 1.351 . S
C2309 C2303 1.428 . S
C2309 N2308 1.351 . S
C2309 C2310 1.434 1_455 S
C2310 C2301 1.429 1_554 S
C2310 N2307 1.350 . S
C2310 C2309 1.434 1_655 S
C2311 C2312 1.369 . S
C2311 C2313 1.419 1_556 S
C2311 H2315 0.930 . S
C2312 C2311 1.369 . S
C2312 C2321 1.429 . S
C2313 C2311 1.419 1_554 S
C2313 C2314 1.363 . S
C2313 H2316 0.929 . S
C2314 C2313 1.363 . S
C2314 C2320 1.428 . S
H2315 C2311 0.930 . S
H2316 C2313 0.929 . S
S2317 N2318 1.613 1_554 S
S2317 N2319 1.610 . S
N2318 S2317 1.613 1_556 S
N2318 C2321 1.350 . S
N2319 S2317 1.610 . S
N2319 C2320 1.351 . S
C2320 C2314 1.428 . S
C2320 N2319 1.351 . S
C2320 C2321 1.434 1_554 S
C2321 C2312 1.429 . S
C2321 N2318 1.350 . S
C2321 C2320 1.434 1_556 S
C2322 C2323 1.369 . S
C2322 C2324 1.419 . S
C2322 H2326 0.930 . S
C2323 C2322 1.369 . S
C2323 C2332 1.429 . S
C2324 C2322 1.419 . S
C2324 C2325 1.363 . S
C2324 H2327 0.929 . S
C2325 C2324 1.363 . S
C2325 C2331 1.428 . S
H2326 C2322 0.930 . S
H2327 C2324 0.929 . S
S2328 N2329 1.613 . S
S2328 N2330 1.610 . S
N2329 S2328 1.613 . S
N2329 C2332 1.350 . S
N2330 S2328 1.610 . S
N2330 C2331 1.351 . S
C2331 C2325 1.428 . S
C2331 N2330 1.351 . S
C2331 C2332 1.434 . S
C2332 C2323 1.429 . S
C2332 N2329 1.350 . S
C2332 C2331 1.434 . S
C2333 C2334 1.369 . S
C2333 C2335 1.419 . S
C2333 H2337 0.930 . S
C2334 C2333 1.369 . S
C2334 C2343 1.429 . S
C2335 C2333 1.419 . S
C2335 C2336 1.363 . S
C2335 H2338 0.929 . S
C2336 C2335 1.363 . S
C2336 C2342 1.428 . S
H2337 C2333 0.930 . S
H2338 C2335 0.929 . S
S2339 N2340 1.613 . S
S2339 N2341 1.610 . S
N2340 S2339 1.613 . S
N2340 C2343 1.350 . S
N2341 S2339 1.610 . S
N2341 C2342 1.351 . S
C2342 C2336 1.428 . S
C2342 N2341 1.351 . S
C2342 C2343 1.434 . S
C2343 C2334 1.429 . S
C2343 N2340 1.350 . S
C2343 C2342 1.434 . S
C2344 C2345 1.369 . S
C2344 C2346 1.419 . S
C2344 H2348 0.930 . S
C2345 C2344 1.369 . S
C2345 C2354 1.429 . S
C2346 C2344 1.419 . S
C2346 C2347 1.363 . S
C2346 H2349 0.929 . S
C2347 C2346 1.363 . S
C2347 C2353 1.428 . S
H2348 C2344 0.930 . S
H2349 C2346 0.929 . S
S2350 N2351 1.613 . S
S2350 N2352 1.610 . S
N2351 S2350 1.613 . S
N2351 C2354 1.350 . S
N2352 S2350 1.610 . S
N2352 C2353 1.351 . S
C2353 C2347 1.428 . S
C2353 N2352 1.351 . S
C2353 C2354 1.434 . S
C2354 C2345 1.429 . S
C2354 N2351 1.350 . S
C2354 C2353 1.434 . S
C2355 C2356 1.369 . S
C2355 C2357 1.419 . S
C2355 H2359 0.930 . S
C2356 C2355 1.369 . S
C2356 C2365 1.429 . S
C2357 C2355 1.419 . S
C2357 C2358 1.363 . S
C2357 H2360 0.929 1_655 S
C2358 C2357 1.363 . S
C2358 C2364 1.428 . S
H2359 C2355 0.930 . S
H2360 C2357 0.929 1_455 S
S2361 N2362 1.613 . S
S2361 N2363 1.610 . S
N2362 S2361 1.613 . S
N2362 C2365 1.350 . S
N2363 S2361 1.610 . S
N2363 C2364 1.351 . S
C2364 C2358 1.428 . S
C2364 N2363 1.351 . S
C2364 C2365 1.434 . S
C2365 C2356 1.429 . S
C2365 N2362 1.350 . S
C2365 C2364 1.434 . S
C2366 C2367 1.369 . S
C2366 C2368 1.419 . S
C2366 H2370 0.930 . S
C2367 C2366 1.369 . S
C2367 C2376 1.429 . S
C2368 C2366 1.419 . S
C2368 C2369 1.363 . S
C2368 H2371 0.929 . S
C2369 C2368 1.363 . S
C2369 C2375 1.428 . S
H2370 C2366 0.930 . S
H2371 C2368 0.929 . S
S2372 N2373 1.613 . S
S2372 N2374 1.610 . S
N2373 S2372 1.613 . S
N2373 C2376 1.350 . S
N2374 S2372 1.610 . S
N2374 C2375 1.351 . S
C2375 C2369 1.428 . S
C2375 N2374 1.351 . S
C2375 C2376 1.434 . S
C2376 C2367 1.429 . S
C2376 N2373 1.350 . S
C2376 C2375 1.434 . S
C2377 C2378 1.369 . S
C2377 C2379 1.419 . S
C2377 H2381 0.930 . S
C2378 C2377 1.369 . S
C2378 C2387 1.429 . S
C2379 C2377 1.419 . S
C2379 C2380 1.363 . S
C2379 H2382 0.929 . S
C2380 C2379 1.363 . S
C2380 C2386 1.428 . S
H2381 C2377 0.930 . S
H2382 C2379 0.929 . S
S2383 N2384 1.613 . S
S2383 N2385 1.610 . S
N2384 S2383 1.613 . S
N2384 C2387 1.350 . S
N2385 S2383 1.610 . S
N2385 C2386 1.351 . S
C2386 C2380 1.428 . S
C2386 N2385 1.351 . S
C2386 C2387 1.434 . S
C2387 C2378 1.429 . S
C2387 N2384 1.350 . S
C2387 C2386 1.434 . S
C2388 C2389 1.369 . S
C2388 C2390 1.419 . S
C2388 H2392 0.930 . S
C2389 C2388 1.369 . S
C2389 C2398 1.429 . S
C2390 C2388 1.419 . S
C2390 C2391 1.363 . S
C2390 H2393 0.929 . S
C2391 C2390 1.363 . S
C2391 C2397 1.428 . S
H2392 C2388 0.930 . S
H2393 C2390 0.929 . S
S2394 N2395 1.613 . S
S2394 N2396 1.610 1_565 S
N2395 S2394 1.613 . S
N2395 C2398 1.350 1_565 S
N2396 S2394 1.610 1_545 S
N2396 C2397 1.351 . S
C2397 C2391 1.428 . S
C2397 N2396 1.351 . S
C2397 C2398 1.434 . S
C2398 C2389 1.429 . S
C2398 N2395 1.350 1_545 S
C2398 C2397 1.434 . S
C2399 C2400 1.369 . S
C2399 C2401 1.419 . S
C2399 H2403 0.930 . S
C2400 C2399 1.369 . S
C2400 C2409 1.429 . S
C2401 C2399 1.419 . S
C2401 C2402 1.363 . S
C2401 H2404 0.929 1_655 S
C2402 C2401 1.363 . S
C2402 C2408 1.428 . S
H2403 C2399 0.930 . S
H2404 C2401 0.929 1_455 S
S2405 N2406 1.613 . S
S2405 N2407 1.610 . S
N2406 S2405 1.613 . S
N2406 C2409 1.350 . S
N2407 S2405 1.610 . S
N2407 C2408 1.351 . S
C2408 C2402 1.428 . S
C2408 N2407 1.351 . S
C2408 C2409 1.434 . S
C2409 C2400 1.429 . S
C2409 N2406 1.350 . S
C2409 C2408 1.434 . S
C2410 C2411 1.369 . S
C2410 C2412 1.419 . S
C2410 H2414 0.930 . S
C2411 C2410 1.369 . S
C2411 C2420 1.429 . S
C2412 C2410 1.419 . S
C2412 C2413 1.363 . S
C2412 H2415 0.929 . S
C2413 C2412 1.363 . S
C2413 C2419 1.428 . S
H2414 C2410 0.930 . S
H2415 C2412 0.929 . S
S2416 N2417 1.613 . S
S2416 N2418 1.610 . S
N2417 S2416 1.613 . S
N2417 C2420 1.350 . S
N2418 S2416 1.610 . S
N2418 C2419 1.351 . S
C2419 C2413 1.428 . S
C2419 N2418 1.351 . S
C2419 C2420 1.434 . S
C2420 C2411 1.429 . S
C2420 N2417 1.350 . S
C2420 C2419 1.434 . S
C2421 C2422 1.369 . S
C2421 C2423 1.419 . S
C2421 H2425 0.930 1_455 S
C2422 C2421 1.369 . S
C2422 C2431 1.429 . S
C2423 C2421 1.419 . S
C2423 C2424 1.363 . S
C2423 H2426 0.929 . S
C2424 C2423 1.363 . S
C2424 C2430 1.428 . S
H2425 C2421 0.930 1_655 S
H2426 C2423 0.929 . S
S2427 N2428 1.613 . S
S2427 N2429 1.610 . S
N2428 S2427 1.613 . S
N2428 C2431 1.350 . S
N2429 S2427 1.610 . S
N2429 C2430 1.351 . S
C2430 C2424 1.428 . S
C2430 N2429 1.351 . S
C2430 C2431 1.434 . S
C2431 C2422 1.429 . S
C2431 N2428 1.350 . S
C2431 C2430 1.434 . S
C2432 C2433 1.369 . S
C2432 C2434 1.419 . S
C2432 H2436 0.930 . S
C2433 C2432 1.369 . S
C2433 C2442 1.429 . S
C2434 C2432 1.419 . S
C2434 C2435 1.363 . S
C2434 H2437 0.929 . S
C2435 C2434 1.363 . S
C2435 C2441 1.428 . S
H2436 C2432 0.930 . S
H2437 C2434 0.929 . S
S2438 N2439 1.613 . S
S2438 N2440 1.610 . S
N2439 S2438 1.613 . S
N2439 C2442 1.350 . S
N2440 S2438 1.610 . S
N2440 C2441 1.351 . S
C2441 C2435 1.428 . S
C2441 N2440 1.351 . S
C2441 C2442 1.434 . S
C2442 C2433 1.429 . S
C2442 N2439 1.350 . S
C2442 C2441 1.434 . S
C2443 C2444 1.369 . S
C2443 C2445 1.419 . S
C2443 H2447 0.930 1_565 S
C2444 C2443 1.369 . S
C2444 C2453 1.429 . S
C2445 C2443 1.419 . S
C2445 C2446 1.363 . S
C2445 H2448 0.929 . S
C2446 C2445 1.363 . S
C2446 C2452 1.428 . S
H2447 C2443 0.930 1_545 S
H2448 C2445 0.929 . S
S2449 N2450 1.613 . S
S2449 N2451 1.610 . S
N2450 S2449 1.613 . S
N2450 C2453 1.350 . S
N2451 S2449 1.610 . S
N2451 C2452 1.351 . S
C2452 C2446 1.428 . S
C2452 N2451 1.351 . S
C2452 C2453 1.434 . S
C2453 C2444 1.429 . S
C2453 N2450 1.350 . S
C2453 C2452 1.434 . S
C2454 C2455 1.369 . S
C2454 C2456 1.419 . S
C2454 H2458 0.930 . S
C2455 C2454 1.369 . S
C2455 C2464 1.429 . S
C2456 C2454 1.419 . S
C2456 C2457 1.363 . S
C2456 H2459 0.929 . S
C2457 C2456 1.363 . S
C2457 C2463 1.428 . S
H2458 C2454 0.930 . S
H2459 C2456 0.929 . S
S2460 N2461 1.613 . S
S2460 N2462 1.610 . S
N2461 S2460 1.613 . S
N2461 C2464 1.350 . S
N2462 S2460 1.610 . S
N2462 C2463 1.351 . S
C2463 C2457 1.428 . S
C2463 N2462 1.351 . S
C2463 C2464 1.434 . S
C2464 C2455 1.429 . S
C2464 N2461 1.350 . S
C2464 C2463 1.434 . S
C2465 C2466 1.369 . S
C2465 C2467 1.419 1_545 S
C2465 H2469 0.930 . S
C2466 C2465 1.369 . S
C2466 C2475 1.429 . S
C2467 C2465 1.419 1_565 S
C2467 C2468 1.363 . S
C2467 H2470 0.929 . S
C2468 C2467 1.363 . S
C2468 C2474 1.428 . S
H2469 C2465 0.930 . S
H2470 C2467 0.929 . S
S2471 N2472 1.613 1_565 S
S2471 N2473 1.610 . S
N2472 S2471 1.613 1_545 S
N2472 C2475 1.350 . S
N2473 S2471 1.610 . S
N2473 C2474 1.351 . S
C2474 C2468 1.428 . S
C2474 N2473 1.351 . S
C2474 C2475 1.434 1_565 S
C2475 C2466 1.429 . S
C2475 N2472 1.350 . S
C2475 C2474 1.434 1_545 S
C2476 C2477 1.369 . S
C2476 C2478 1.419 1_655 S
C2476 H2480 0.930 . S
C2477 C2476 1.369 . S
C2477 C2486 1.429 . S
C2478 C2476 1.419 1_455 S
C2478 C2479 1.363 . S
C2478 H2481 0.929 . S
C2479 C2478 1.363 . S
C2479 C2485 1.428 . S
H2480 C2476 0.930 . S
H2481 C2478 0.929 . S
S2482 N2483 1.613 1_455 S
S2482 N2484 1.610 . S
N2483 S2482 1.613 1_655 S
N2483 C2486 1.350 . S
N2484 S2482 1.610 . S
N2484 C2485 1.351 . S
C2485 C2479 1.428 . S
C2485 N2484 1.351 . S
C2485 C2486 1.434 1_455 S
C2486 C2477 1.429 . S
C2486 N2483 1.350 . S
C2486 C2485 1.434 1_655 S
C2487 C2488 1.369 . S
C2487 C2489 1.419 . S
C2487 H2491 0.930 . S
C2488 C2487 1.369 . S
C2488 C2497 1.429 . S
C2489 C2487 1.419 . S
C2489 C2490 1.363 . S
C2489 H2492 0.929 . S
C2490 C2489 1.363 . S
C2490 C2496 1.428 . S
H2491 C2487 0.930 . S
H2492 C2489 0.929 . S
S2493 N2494 1.613 . S
S2493 N2495 1.610 . S
N2494 S2493 1.613 . S
N2494 C2497 1.350 . S
N2495 S2493 1.610 . S
N2495 C2496 1.351 . S
C2496 C2490 1.428 . S
C2496 N2495 1.351 . S
C2496 C2497 1.434 . S
C2497 C2488 1.429 . S
C2497 N2494 1.350 . S
C2497 C2496 1.434 . S
C2498 C2499 1.369 . S
C2498 C2500 1.419 1_565 S
C2498 H2502 0.930 . S
C2499 C2498 1.369 . S
C2499 C2508 1.429 . S
C2500 C2498 1.419 1_545 S
C2500 C2501 1.363 . S
C2500 H2503 0.929 . S
C2501 C2500 1.363 . S
C2501 C2507 1.428 . S
H2502 C2498 0.930 . S
H2503 C2500 0.929 . S
S2504 N2505 1.613 . S
S2504 N2506 1.610 1_565 S
N2505 S2504 1.613 . S
N2505 C2508 1.350 . S
N2506 S2504 1.610 1_545 S
N2506 C2507 1.351 . S
C2507 C2501 1.428 . S
C2507 N2506 1.351 . S
C2507 C2508 1.434 1_545 S
C2508 C2499 1.429 . S
C2508 N2505 1.350 . S
C2508 C2507 1.434 1_565 S
C2509 C2510 1.369 . S
C2509 C2511 1.419 1_655 S
C2509 H2513 0.930 . S
C2510 C2509 1.369 . S
C2510 C2519 1.429 . S
C2511 C2509 1.419 1_455 S
C2511 C2512 1.363 . S
C2511 H2514 0.929 . S
C2512 C2511 1.363 . S
C2512 C2518 1.428 . S
H2513 C2509 0.930 . S
H2514 C2511 0.929 . S
S2515 N2516 1.613 . S
S2515 N2517 1.610 1_655 S
N2516 S2515 1.613 . S
N2516 C2519 1.350 . S
N2517 S2515 1.610 1_455 S
N2517 C2518 1.351 . S
C2518 C2512 1.428 . S
C2518 N2517 1.351 . S
C2518 C2519 1.434 1_455 S
C2519 C2510 1.429 . S
C2519 N2516 1.350 . S
C2519 C2518 1.434 1_655 S
C2520 C2521 1.369 . S
C2520 C2522 1.419 . S
C2520 H2524 0.930 . S
C2521 C2520 1.369 . S
C2521 C2530 1.429 . S
C2522 C2520 1.419 . S
C2522 C2523 1.363 . S
C2522 H2525 0.929 . S
C2523 C2522 1.363 . S
C2523 C2529 1.428 . S
H2524 C2520 0.930 . S
H2525 C2522 0.929 . S
S2526 N2527 1.613 . S
S2526 N2528 1.610 . S
N2527 S2526 1.613 . S
N2527 C2530 1.350 . S
N2528 S2526 1.610 . S
N2528 C2529 1.351 . S
C2529 C2523 1.428 . S
C2529 N2528 1.351 . S
C2529 C2530 1.434 . S
C2530 C2521 1.429 . S
C2530 N2527 1.350 . S
C2530 C2529 1.434 . S
C2531 C2532 1.369 . S
C2531 C2533 1.419 1_545 S
C2531 H2535 0.930 . S
C2532 C2531 1.369 . S
C2532 C2541 1.429 1_545 S
C2533 C2531 1.419 1_565 S
C2533 C2534 1.363 . S
C2533 H2536 0.929 . S
C2534 C2533 1.363 . S
C2534 C2540 1.428 . S
H2535 C2531 0.930 . S
H2536 C2533 0.929 . S
S2537 N2538 1.624 . S
S2537 N2539 1.610 . S
N2538 S2537 1.624 . S
N2538 C2541 1.362 . S
N2539 S2537 1.610 . S
N2539 C2540 1.351 . S
C2540 C2534 1.428 . S
C2540 N2539 1.351 . S
C2540 C2541 1.434 . S
C2541 C2532 1.429 1_565 S
C2541 N2538 1.362 . S
C2541 C2540 1.434 . S
C2542 C2543 1.369 1_455 S
C2542 C2544 1.419 . S
C2542 H2546 0.930 1_455 S
C2543 C2542 1.369 1_655 S
C2543 C2552 1.429 . S
C2544 C2542 1.419 . S
C2544 C2545 1.363 . S
C2544 H2547 0.929 . S
C2545 C2544 1.363 . S
C2545 C2551 1.428 . S
H2546 C2542 0.930 1_655 S
H2547 C2544 0.929 . S
S2548 N2549 1.613 1_455 S
S2548 N2550 1.610 . S
N2549 S2548 1.613 1_655 S
N2549 C2552 1.350 . S
N2550 S2548 1.610 . S
N2550 C2551 1.351 . S
C2551 C2545 1.428 . S
C2551 N2550 1.351 . S
C2551 C2552 1.434 1_455 S
C2552 C2543 1.429 . S
C2552 N2549 1.350 . S
C2552 C2551 1.434 1_655 S
C2553 C2554 1.369 . S
C2553 C2555 1.419 . S
C2553 H2557 0.930 . S
C2554 C2553 1.369 . S
C2554 C2563 1.429 . S
C2555 C2553 1.419 . S
C2555 C2556 1.363 . S
C2555 H2558 0.929 . S
C2556 C2555 1.363 . S
C2556 C2562 1.428 . S
H2557 C2553 0.930 . S
H2558 C2555 0.929 . S
S2559 N2560 1.613 . S
S2559 N2561 1.610 . S
N2560 S2559 1.613 . S
N2560 C2563 1.350 . S
N2561 S2559 1.610 . S
N2561 C2562 1.351 . S
C2562 C2556 1.428 . S
C2562 N2561 1.351 . S
C2562 C2563 1.434 . S
C2563 C2554 1.429 . S
C2563 N2560 1.350 . S
C2563 C2562 1.434 . S
C2564 C2565 1.369 . S
C2564 C2566 1.419 . S
C2564 H2568 0.930 . S
C2565 C2564 1.369 . S
C2565 C2574 1.429 . S
C2566 C2564 1.419 . S
C2566 C2567 1.363 1_545 S
C2566 H2569 0.929 1_545 S
C2567 C2566 1.363 1_565 S
C2567 C2573 1.428 . S
H2568 C2564 0.930 . S
H2569 C2566 0.929 1_565 S
S2570 N2571 1.625 . S
S2570 N2572 1.608 1_545 S
N2571 S2570 1.625 . S
N2571 C2574 1.350 . S
N2572 S2570 1.608 1_565 S
N2572 C2573 1.351 . S
C2573 C2567 1.428 . S
C2573 N2572 1.351 . S
C2573 C2574 1.434 1_565 S
C2574 C2565 1.429 . S
C2574 N2571 1.350 . S
C2574 C2573 1.434 1_545 S
C2575 C2576 1.369 . S
C2575 C2577 1.419 1_455 S
C2575 H2579 0.930 . S
C2576 C2575 1.369 . S
C2576 C2585 1.429 1_455 S
C2577 C2575 1.419 1_655 S
C2577 C2578 1.363 . S
C2577 H2580 0.929 . S
C2578 C2577 1.363 . S
C2578 C2584 1.428 . S
H2579 C2575 0.930 . S
H2580 C2577 0.929 . S
S2581 N2582 1.613 1_655 S
S2581 N2583 1.610 . S
N2582 S2581 1.613 1_455 S
N2582 C2585 1.350 1_455 S
N2583 S2581 1.610 . S
N2583 C2584 1.351 . S
C2584 C2578 1.428 . S
C2584 N2583 1.351 . S
C2584 C2585 1.434 . S
C2585 C2576 1.429 1_655 S
C2585 N2582 1.350 1_655 S
C2585 C2584 1.434 . S
C2586 C2587 1.369 . S
C2586 C2588 1.419 . S
C2586 H2590 0.930 . S
C2587 C2586 1.369 . S
C2587 C2596 1.429 . S
C2588 C2586 1.419 . S
C2588 C2589 1.363 . S
C2588 H2591 0.929 . S
C2589 C2588 1.363 . S
C2589 C2595 1.428 . S
H2590 C2586 0.930 . S
H2591 C2588 0.929 . S
S2592 N2593 1.613 . S
S2592 N2594 1.610 . S
N2593 S2592 1.613 . S
N2593 C2596 1.350 . S
N2594 S2592 1.610 . S
N2594 C2595 1.351 . S
C2595 C2589 1.428 . S
C2595 N2594 1.351 . S
C2595 C2596 1.434 . S
C2596 C2587 1.429 . S
C2596 N2593 1.350 . S
C2596 C2595 1.434 . S
C2597 C2598 1.369 1_545 S
C2597 C2599 1.419 . S
C2597 H2601 0.930 1_545 S
C2598 C2597 1.369 1_565 S
C2598 C2607 1.429 . S
C2599 C2597 1.419 . S
C2599 C2600 1.363 . S
C2599 H2602 0.929 . S
C2600 C2599 1.363 . S
C2600 C2606 1.428 . S
H2601 C2597 0.930 1_565 S
H2602 C2599 0.929 . S
S2603 N2604 1.613 1_545 S
S2603 N2605 1.610 . S
N2604 S2603 1.613 1_565 S
N2604 C2607 1.350 . S
N2605 S2603 1.610 . S
N2605 C2606 1.351 . S
C2606 C2600 1.428 . S
C2606 N2605 1.351 . S
C2606 C2607 1.434 1_545 S
C2607 C2598 1.429 . S
C2607 N2604 1.350 . S
C2607 C2606 1.434 1_565 S
C2608 C2609 1.369 . S
C2608 C2610 1.419 1_455 S
C2608 H2612 0.930 . S
C2609 C2608 1.369 . S
C2609 C2618 1.429 1_455 S
C2610 C2608 1.419 1_655 S
C2610 C2611 1.363 . S
C2610 H2613 0.929 . S
C2611 C2610 1.363 . S
C2611 C2617 1.428 . S
H2612 C2608 0.930 . S
H2613 C2610 0.929 . S
S2614 N2615 1.613 1_655 S
S2614 N2616 1.610 . S
N2615 S2614 1.613 1_455 S
N2615 C2618 1.350 1_455 S
N2616 S2614 1.610 . S
N2616 C2617 1.351 . S
C2617 C2611 1.428 . S
C2617 N2616 1.351 . S
C2617 C2618 1.434 . S
C2618 C2609 1.429 1_655 S
C2618 N2615 1.350 1_655 S
C2618 C2617 1.434 . S
C2619 C2620 1.369 . S
C2619 C2621 1.419 . S
C2619 H2623 0.930 . S
C2620 C2619 1.369 . S
C2620 C2629 1.429 . S
C2621 C2619 1.419 . S
C2621 C2622 1.363 . S
C2621 H2624 0.929 . S
C2622 C2621 1.363 . S
C2622 C2628 1.428 . S
H2623 C2619 0.930 . S
H2624 C2621 0.929 . S
S2625 N2626 1.613 . S
S2625 N2627 1.610 . S
N2626 S2625 1.613 . S
N2626 C2629 1.350 . S
N2627 S2625 1.610 . S
N2627 C2628 1.351 . S
C2628 C2622 1.428 . S
C2628 N2627 1.351 . S
C2628 C2629 1.434 . S
C2629 C2620 1.429 . S
C2629 N2626 1.350 . S
C2629 C2628 1.434 . S
C2630 C2631 1.369 . S
C2630 C2632 1.419 1_545 S
C2630 H2634 0.930 . S
C2631 C2630 1.369 . S
C2631 C2640 1.429 1_545 S
C2632 C2630 1.419 1_565 S
C2632 C2633 1.363 . S
C2632 H2635 0.929 . S
C2633 C2632 1.363 . S
C2633 C2639 1.428 . S
H2634 C2630 0.930 . S
H2635 C2632 0.929 . S
S2636 N2637 1.613 1_565 S
S2636 N2638 1.610 . S
N2637 S2636 1.613 1_545 S
N2637 C2640 1.350 1_545 S
N2638 S2636 1.610 . S
N2638 C2639 1.351 . S
C2639 C2633 1.428 . S
C2639 N2638 1.351 . S
C2639 C2640 1.434 . S
C2640 C2631 1.429 1_565 S
C2640 N2637 1.350 1_565 S
C2640 C2639 1.434 . S
C2641 C2642 1.369 . S
C2641 C2643 1.419 1_455 S
C2641 H2645 0.930 . S
C2642 C2641 1.369 . S
C2642 C2651 1.429 . S
C2643 C2641 1.419 1_655 S
C2643 C2644 1.363 . S
C2643 H2646 0.929 . S
C2644 C2643 1.363 . S
C2644 C2650 1.428 1_655 S
H2645 C2641 0.930 . S
H2646 C2643 0.929 . S
S2647 N2648 1.613 . S
S2647 N2649 1.610 1_455 S
N2648 S2647 1.613 . S
N2648 C2651 1.350 . S
N2649 S2647 1.610 1_655 S
N2649 C2650 1.351 1_655 S
C2650 C2644 1.428 1_455 S
C2650 N2649 1.351 1_455 S
C2650 C2651 1.434 . S
C2651 C2642 1.429 . S
C2651 N2648 1.350 . S
C2651 C2650 1.434 . S
C2652 C2653 1.369 . S
C2652 C2654 1.419 . S
C2652 H2656 0.930 . S
C2653 C2652 1.369 . S
C2653 C2662 1.429 . S
C2654 C2652 1.419 . S
C2654 C2655 1.363 . S
C2654 H2657 0.929 . S
C2655 C2654 1.363 . S
C2655 C2661 1.428 . S
H2656 C2652 0.930 . S
H2657 C2654 0.929 . S
S2658 N2659 1.613 . S
S2658 N2660 1.610 . S
N2659 S2658 1.613 . S
N2659 C2662 1.350 . S
N2660 S2658 1.610 . S
N2660 C2661 1.351 . S
C2661 C2655 1.428 . S
C2661 N2660 1.351 . S
C2661 C2662 1.434 . S
C2662 C2653 1.429 . S
C2662 N2659 1.350 . S
C2662 C2661 1.434 . S
C2663 C2664 1.369 . S
C2663 C2665 1.419 . S
C2663 H2667 0.930 . S
C2664 C2663 1.369 . S
C2664 C2673 1.429 . S
C2665 C2663 1.419 . S
C2665 C2666 1.363 . S
C2665 H2668 0.929 . S
C2666 C2665 1.363 . S
C2666 C2672 1.428 . S
H2667 C2663 0.930 . S
H2668 C2665 0.929 . S
S2669 N2670 1.613 . S
S2669 N2671 1.610 . S
N2670 S2669 1.613 . S
N2670 C2673 1.350 . S
N2671 S2669 1.610 . S
N2671 C2672 1.351 . S
C2672 C2666 1.428 . S
C2672 N2671 1.351 . S
C2672 C2673 1.434 . S
C2673 C2664 1.429 . S
C2673 N2670 1.350 . S
C2673 C2672 1.434 . S
C2674 C2675 1.369 . S
C2674 C2676 1.419 . S
C2674 H2678 0.930 . S
C2675 C2674 1.369 . S
C2675 C2684 1.429 . S
C2676 C2674 1.419 . S
C2676 C2677 1.363 . S
C2676 H2679 0.929 . S
C2677 C2676 1.363 . S
C2677 C2683 1.428 . S
H2678 C2674 0.930 . S
H2679 C2676 0.929 . S
S2680 N2681 1.613 . S
S2680 N2682 1.610 . S
N2681 S2680 1.613 . S
N2681 C2684 1.350 . S
N2682 S2680 1.610 . S
N2682 C2683 1.351 . S
C2683 C2677 1.428 . S
C2683 N2682 1.351 . S
C2683 C2684 1.434 . S
C2684 C2675 1.429 . S
C2684 N2681 1.350 . S
C2684 C2683 1.434 . S
C2685 C2686 1.369 . S
C2685 C2687 1.419 . S
C2685 H2689 0.930 . S
C2686 C2685 1.369 . S
C2686 C2695 1.429 . S
C2687 C2685 1.419 . S
C2687 C2688 1.363 . S
C2687 H2690 0.929 . S
C2688 C2687 1.363 . S
C2688 C2694 1.428 . S
H2689 C2685 0.930 . S
H2690 C2687 0.929 . S
S2691 N2692 1.613 . S
S2691 N2693 1.610 . S
N2692 S2691 1.613 . S
N2692 C2695 1.350 . S
N2693 S2691 1.610 . S
N2693 C2694 1.351 . S
C2694 C2688 1.428 . S
C2694 N2693 1.351 . S
C2694 C2695 1.434 . S
C2695 C2686 1.429 . S
C2695 N2692 1.350 . S
C2695 C2694 1.434 . S
C2696 C2697 1.369 . S
C2696 C2698 1.419 . S
C2696 H2700 0.930 . S
C2697 C2696 1.369 . S
C2697 C2706 1.429 . S
C2698 C2696 1.419 . S
C2698 C2699 1.363 . S
C2698 H2701 0.929 . S
C2699 C2698 1.363 . S
C2699 C2705 1.428 . S
H2700 C2696 0.930 . S
H2701 C2698 0.929 . S
S2702 N2703 1.613 . S
S2702 N2704 1.610 . S
N2703 S2702 1.613 . S
N2703 C2706 1.350 . S
N2704 S2702 1.610 . S
N2704 C2705 1.351 . S
C2705 C2699 1.428 . S
C2705 N2704 1.351 . S
C2705 C2706 1.434 . S
C2706 C2697 1.429 . S
C2706 N2703 1.350 . S
C2706 C2705 1.434 . S
C2707 C2708 1.369 . S
C2707 C2709 1.419 . S
C2707 H2711 0.930 . S
C2708 C2707 1.369 . S
C2708 C2717 1.429 . S
C2709 C2707 1.419 . S
C2709 C2710 1.363 . S
C2709 H2712 0.929 . S
C2710 C2709 1.363 . S
C2710 C2716 1.428 . S
H2711 C2707 0.930 . S
H2712 C2709 0.929 . S
S2713 N2714 1.613 . S
S2713 N2715 1.610 . S
N2714 S2713 1.613 . S
N2714 C2717 1.350 . S
N2715 S2713 1.610 . S
N2715 C2716 1.351 . S
C2716 C2710 1.428 . S
C2716 N2715 1.351 . S
C2716 C2717 1.434 . S
C2717 C2708 1.429 . S
C2717 N2714 1.350 . S
C2717 C2716 1.434 . S
C2718 C2719 1.369 . S
C2718 C2720 1.419 . S
C2718 H2722 0.930 . S
C2719 C2718 1.369 . S
C2719 C2728 1.429 . S
C2720 C2718 1.419 . S
C2720 C2721 1.363 . S
C2720 H2723 0.929 . S
C2721 C2720 1.363 . S
C2721 C2727 1.428 . S
H2722 C2718 0.930 . S
H2723 C2720 0.929 . S
S2724 N2725 1.613 . S
S2724 N2726 1.610 . S
N2725 S2724 1.613 . S
N2725 C2728 1.350 . S
N2726 S2724 1.610 . S
N2726 C2727 1.351 . S
C2727 C2721 1.428 . S
C2727 N2726 1.351 . S
C2727 C2728 1.434 . S
C2728 C2719 1.429 . S
C2728 N2725 1.350 . S
C2728 C2727 1.434 . S
C2729 C2730 1.369 . S
C2729 C2731 1.419 . S
C2729 H2733 0.930 . S
C2730 C2729 1.369 . S
C2730 C2739 1.429 . S
C2731 C2729 1.419 . S
C2731 C2732 1.363 . S
C2731 H2734 0.929 . S
C2732 C2731 1.363 . S
C2732 C2738 1.428 . S
H2733 C2729 0.930 . S
H2734 C2731 0.929 . S
S2735 N2736 1.613 . S
S2735 N2737 1.610 . S
N2736 S2735 1.613 . S
N2736 C2739 1.350 . S
N2737 S2735 1.610 . S
N2737 C2738 1.351 . S
C2738 C2732 1.428 . S
C2738 N2737 1.351 . S
C2738 C2739 1.434 . S
C2739 C2730 1.429 . S
C2739 N2736 1.350 . S
C2739 C2738 1.434 . S
C2740 C2741 1.369 . S
C2740 C2742 1.419 . S
C2740 H2744 0.930 . S
C2741 C2740 1.369 . S
C2741 C2750 1.429 . S
C2742 C2740 1.419 . S
C2742 C2743 1.363 . S
C2742 H2745 0.929 . S
C2743 C2742 1.363 . S
C2743 C2749 1.428 . S
H2744 C2740 0.930 . S
H2745 C2742 0.929 . S
S2746 N2747 1.613 . S
S2746 N2748 1.610 . S
N2747 S2746 1.613 . S
N2747 C2750 1.350 . S
N2748 S2746 1.610 . S
N2748 C2749 1.351 . S
C2749 C2743 1.428 . S
C2749 N2748 1.351 . S
C2749 C2750 1.434 . S
C2750 C2741 1.429 . S
C2750 N2747 1.350 . S
C2750 C2749 1.434 . S
C2751 C2752 1.369 . S
C2751 C2753 1.419 . S
C2751 H2755 0.930 . S
C2752 C2751 1.369 . S
C2752 C2761 1.429 . S
C2753 C2751 1.419 . S
C2753 C2754 1.363 . S
C2753 H2756 0.929 . S
C2754 C2753 1.363 . S
C2754 C2760 1.428 . S
H2755 C2751 0.930 . S
H2756 C2753 0.929 . S
S2757 N2758 1.613 . S
S2757 N2759 1.610 . S
N2758 S2757 1.613 . S
N2758 C2761 1.350 . S
N2759 S2757 1.610 . S
N2759 C2760 1.351 . S
C2760 C2754 1.428 . S
C2760 N2759 1.351 . S
C2760 C2761 1.434 . S
C2761 C2752 1.429 . S
C2761 N2758 1.350 . S
C2761 C2760 1.434 . S
C2762 C2763 1.369 . S
C2762 C2764 1.419 . S
C2762 H2766 0.930 . S
C2763 C2762 1.369 . S
C2763 C2772 1.429 . S
C2764 C2762 1.419 . S
C2764 C2765 1.363 . S
C2764 H2767 0.929 . S
C2765 C2764 1.363 . S
C2765 C2771 1.428 . S
H2766 C2762 0.930 . S
H2767 C2764 0.929 . S
S2768 N2769 1.613 . S
S2768 N2770 1.610 . S
N2769 S2768 1.613 . S
N2769 C2772 1.350 . S
N2770 S2768 1.610 . S
N2770 C2771 1.351 . S
C2771 C2765 1.428 . S
C2771 N2770 1.351 . S
C2771 C2772 1.434 . S
C2772 C2763 1.429 . S
C2772 N2769 1.350 . S
C2772 C2771 1.434 . S
C2773 C2774 1.369 . S
C2773 C2775 1.419 . S
C2773 H2777 0.930 . S
C2774 C2773 1.369 . S
C2774 C2783 1.429 . S
C2775 C2773 1.419 . S
C2775 C2776 1.363 . S
C2775 H2778 0.929 . S
C2776 C2775 1.363 . S
C2776 C2782 1.428 . S
H2777 C2773 0.930 . S
H2778 C2775 0.929 . S
S2779 N2780 1.613 . S
S2779 N2781 1.610 . S
N2780 S2779 1.613 . S
N2780 C2783 1.350 . S
N2781 S2779 1.610 . S
N2781 C2782 1.351 . S
C2782 C2776 1.428 . S
C2782 N2781 1.351 . S
C2782 C2783 1.434 . S
C2783 C2774 1.429 . S
C2783 N2780 1.350 . S
C2783 C2782 1.434 . S
C2784 C2785 1.369 . S
C2784 C2786 1.419 . S
C2784 H2788 0.930 . S
C2785 C2784 1.369 . S
C2785 C2794 1.429 . S
C2786 C2784 1.419 . S
C2786 C2787 1.363 . S
C2786 H2789 0.929 . S
C2787 C2786 1.363 . S
C2787 C2793 1.428 . S
H2788 C2784 0.930 . S
H2789 C2786 0.929 . S
S2790 N2791 1.613 . S
S2790 N2792 1.610 . S
N2791 S2790 1.613 . S
N2791 C2794 1.350 . S
N2792 S2790 1.610 . S
N2792 C2793 1.351 . S
C2793 C2787 1.428 . S
C2793 N2792 1.351 . S
C2793 C2794 1.434 . S
C2794 C2785 1.429 . S
C2794 N2791 1.350 . S
C2794 C2793 1.434 . S
C2795 C2796 1.369 . S
C2795 C2797 1.419 . S
C2795 H2799 0.930 . S
C2796 C2795 1.369 . S
C2796 C2805 1.429 . S
C2797 C2795 1.419 . S
C2797 C2798 1.363 . S
C2797 H2800 0.929 . S
C2798 C2797 1.363 . S
C2798 C2804 1.428 . S
H2799 C2795 0.930 . S
H2800 C2797 0.929 . S
S2801 N2802 1.613 . S
S2801 N2803 1.610 . S
N2802 S2801 1.613 . S
N2802 C2805 1.350 . S
N2803 S2801 1.610 . S
N2803 C2804 1.351 . S
C2804 C2798 1.428 . S
C2804 N2803 1.351 . S
C2804 C2805 1.434 . S
C2805 C2796 1.429 . S
C2805 N2802 1.350 . S
C2805 C2804 1.434 . S
C2806 C2807 1.369 . S
C2806 C2808 1.419 . S
C2806 H2810 0.930 . S
C2807 C2806 1.369 . S
C2807 C2816 1.429 . S
C2808 C2806 1.419 . S
C2808 C2809 1.363 . S
C2808 H2811 0.929 . S
C2809 C2808 1.363 . S
C2809 C2815 1.428 . S
H2810 C2806 0.930 . S
H2811 C2808 0.929 . S
S2812 N2813 1.613 . S
S2812 N2814 1.610 . S
N2813 S2812 1.613 . S
N2813 C2816 1.350 . S
N2814 S2812 1.610 . S
N2814 C2815 1.351 . S
C2815 C2809 1.428 . S
C2815 N2814 1.351 . S
C2815 C2816 1.434 . S
C2816 C2807 1.429 . S
C2816 N2813 1.350 . S
C2816 C2815 1.434 . S
C2817 C2818 1.369 . S
C2817 C2819 1.419 . S
C2817 H2821 0.930 . S
C2818 C2817 1.369 . S
C2818 C2827 1.429 . S
C2819 C2817 1.419 . S
C2819 C2820 1.363 . S
C2819 H2822 0.929 . S
C2820 C2819 1.363 . S
C2820 C2826 1.428 . S
H2821 C2817 0.930 . S
H2822 C2819 0.929 . S
S2823 N2824 1.613 . S
S2823 N2825 1.610 . S
N2824 S2823 1.613 . S
N2824 C2827 1.350 . S
N2825 S2823 1.610 . S
N2825 C2826 1.351 . S
C2826 C2820 1.428 . S
C2826 N2825 1.351 . S
C2826 C2827 1.434 . S
C2827 C2818 1.429 . S
C2827 N2824 1.350 . S
C2827 C2826 1.434 . S
C2828 C2829 1.369 . S
C2828 C2830 1.419 . S
C2828 H2832 0.930 . S
C2829 C2828 1.369 . S
C2829 C2838 1.429 . S
C2830 C2828 1.419 . S
C2830 C2831 1.363 . S
C2830 H2833 0.929 . S
C2831 C2830 1.363 . S
C2831 C2837 1.428 . S
H2832 C2828 0.930 . S
H2833 C2830 0.929 . S
S2834 N2835 1.613 . S
S2834 N2836 1.610 . S
N2835 S2834 1.613 . S
N2835 C2838 1.350 . S
N2836 S2834 1.610 . S
N2836 C2837 1.351 . S
C2837 C2831 1.428 . S
C2837 N2836 1.351 . S
C2837 C2838 1.434 . S
C2838 C2829 1.429 . S
C2838 N2835 1.350 . S
C2838 C2837 1.434 . S
C2839 C2840 1.369 . S
C2839 C2841 1.419 . S
C2839 H2843 0.930 . S
C2840 C2839 1.369 . S
C2840 C2849 1.429 . S
C2841 C2839 1.419 . S
C2841 C2842 1.363 . S
C2841 H2844 0.929 . S
C2842 C2841 1.363 . S
C2842 C2848 1.428 . S
H2843 C2839 0.930 . S
H2844 C2841 0.929 . S
S2845 N2846 1.613 . S
S2845 N2847 1.610 . S
N2846 S2845 1.613 . S
N2846 C2849 1.350 . S
N2847 S2845 1.610 . S
N2847 C2848 1.351 . S
C2848 C2842 1.428 . S
C2848 N2847 1.351 . S
C2848 C2849 1.434 . S
C2849 C2840 1.429 . S
C2849 N2846 1.350 . S
C2849 C2848 1.434 . S
C2850 C2851 1.369 . S
C2850 C2852 1.419 . S
C2850 H2854 0.930 . S
C2851 C2850 1.369 . S
C2851 C2860 1.429 . S
C2852 C2850 1.419 . S
C2852 C2853 1.363 . S
C2852 H2855 0.929 . S
C2853 C2852 1.363 . S
C2853 C2859 1.428 . S
H2854 C2850 0.930 . S
H2855 C2852 0.929 . S
S2856 N2857 1.613 . S
S2856 N2858 1.610 . S
N2857 S2856 1.613 . S
N2857 C2860 1.350 . S
N2858 S2856 1.610 . S
N2858 C2859 1.351 . S
C2859 C2853 1.428 . S
C2859 N2858 1.351 . S
C2859 C2860 1.434 . S
C2860 C2851 1.429 . S
C2860 N2857 1.350 . S
C2860 C2859 1.434 . S
C2861 C2862 1.369 . S
C2861 C2863 1.419 . S
C2861 H2865 0.930 . S
C2862 C2861 1.369 . S
C2862 C2871 1.429 . S
C2863 C2861 1.419 . S
C2863 C2864 1.363 . S
C2863 H2866 0.929 . S
C2864 C2863 1.363 . S
C2864 C2870 1.428 . S
H2865 C2861 0.930 . S
H2866 C2863 0.929 . S
S2867 N2868 1.613 . S
S2867 N2869 1.610 . S
N2868 S2867 1.613 . S
N2868 C2871 1.350 . S
N2869 S2867 1.610 . S
N2869 C2870 1.351 . S
C2870 C2864 1.428 . S
C2870 N2869 1.351 . S
C2870 C2871 1.434 . S
C2871 C2862 1.429 . S
C2871 N2868 1.350 . S
C2871 C2870 1.434 . S
C2872 C2873 1.369 . S
C2872 C2874 1.419 . S
C2872 H2876 0.930 . S
C2873 C2872 1.369 . S
C2873 C2882 1.429 . S
C2874 C2872 1.419 . S
C2874 C2875 1.363 . S
C2874 H2877 0.929 . S
C2875 C2874 1.363 . S
C2875 C2881 1.428 . S
H2876 C2872 0.930 . S
H2877 C2874 0.929 . S
S2878 N2879 1.613 . S
S2878 N2880 1.610 . S
N2879 S2878 1.613 . S
N2879 C2882 1.350 . S
N2880 S2878 1.610 . S
N2880 C2881 1.351 . S
C2881 C2875 1.428 . S
C2881 N2880 1.351 . S
C2881 C2882 1.434 . S
C2882 C2873 1.429 . S
C2882 N2879 1.350 . S
C2882 C2881 1.434 . S
C2883 C2884 1.369 . S
C2883 C2885 1.419 . S
C2883 H2887 0.930 . S
C2884 C2883 1.369 . S
C2884 C2893 1.429 . S
C2885 C2883 1.419 . S
C2885 C2886 1.363 . S
C2885 H2888 0.929 . S
C2886 C2885 1.363 . S
C2886 C2892 1.428 . S
H2887 C2883 0.930 . S
H2888 C2885 0.929 . S
S2889 N2890 1.613 . S
S2889 N2891 1.610 . S
N2890 S2889 1.613 . S
N2890 C2893 1.350 . S
N2891 S2889 1.610 . S
N2891 C2892 1.351 . S
C2892 C2886 1.428 . S
C2892 N2891 1.351 . S
C2892 C2893 1.434 . S
C2893 C2884 1.429 . S
C2893 N2890 1.350 . S
C2893 C2892 1.434 . S
C2894 C2895 1.369 . S
C2894 C2896 1.419 . S
C2894 H2898 0.930 . S
C2895 C2894 1.369 . S
C2895 C2904 1.429 . S
C2896 C2894 1.419 . S
C2896 C2897 1.363 . S
C2896 H2899 0.929 . S
C2897 C2896 1.363 . S
C2897 C2903 1.428 . S
H2898 C2894 0.930 . S
H2899 C2896 0.929 . S
S2900 N2901 1.613 . S
S2900 N2902 1.610 . S
N2901 S2900 1.613 . S
N2901 C2904 1.350 . S
N2902 S2900 1.610 . S
N2902 C2903 1.351 . S
C2903 C2897 1.428 . S
C2903 N2902 1.351 . S
C2903 C2904 1.434 . S
C2904 C2895 1.429 . S
C2904 N2901 1.350 . S
C2904 C2903 1.434 . S
C2905 C2906 1.369 . S
C2905 C2907 1.419 . S
C2905 H2909 0.930 . S
C2906 C2905 1.369 . S
C2906 C2915 1.429 . S
C2907 C2905 1.419 . S
C2907 C2908 1.363 . S
C2907 H2910 0.929 . S
C2908 C2907 1.363 . S
C2908 C2914 1.428 . S
H2909 C2905 0.930 . S
H2910 C2907 0.929 . S
S2911 N2912 1.613 . S
S2911 N2913 1.610 . S
N2912 S2911 1.613 . S
N2912 C2915 1.350 . S
N2913 S2911 1.610 . S
N2913 C2914 1.351 . S
C2914 C2908 1.428 . S
C2914 N2913 1.351 . S
C2914 C2915 1.434 . S
C2915 C2906 1.429 . S
C2915 N2912 1.350 . S
C2915 C2914 1.434 . S
C2125 C3 1.468 . S
C2127 C1065 1.462 . S
C2136 C1124 1.467 . S
C2138 C62 1.462 . S
C2147 C1183 1.463 . S
C2149 C121 1.466 . S
C2158 C180 1.461 . S
C2160 C1950 1.467 . S
C2169 C239 1.467 . S
C2171 C2009 1.463 . S
C2180 C298 1.463 . S
C2182 C2068 1.466 . S
C2191 C1419 1.462 . S
C2193 C357 1.466 . S
C2202 C416 1.467 . S
C2204 C1478 1.463 . S
C2213 C475 1.467 . S
C2215 C1537 1.463 . S
C2224 C888 1.467 . S
C2226 C534 1.462 . S
C2235 C947 1.466 . S
C2237 C593 1.464 . S
C2246 C1006 1.462 . S
C2248 C652 1.467 . S
C2257 C1773 1.466 . S
C2259 C711 1.464 . S
C2268 C1832 1.466 . S
C2270 C770 1.463 . S
C2279 C829 1.468 . S
C2281 C1891 1.462 . S
C2290 C1596 1.462 . S
C2292 C1242 1.467 . S
C2301 C1301 1.467 . S
C2303 C1655 1.463 . S
C2312 C1360 1.462 . S
C2314 C1714 1.467 . S
C2323 C5 1.484 . S
C2325 C1598 1.482 . S
C2334 C1657 1.482 . S
C2336 C64 1.486 . S
C2345 C1716 1.482 . S
C2347 C123 1.484 . S
C2356 C713 1.483 . S
C2358 C182 1.483 . S
C2367 C772 1.486 . S
C2369 C241 1.483 . S
C2378 C831 1.482 . S
C2380 C300 1.486 . S
C2389 C359 1.484 . S
C2391 C1244 1.485 . S
C2400 C1303 1.483 . S
C2402 C418 1.484 . S
C2411 C1362 1.484 . S
C2413 C477 1.486 . S
C2422 C536 1.484 . S
C2424 C1775 1.483 . S
C2433 C595 1.483 . S
C2435 C1834 1.486 . S
C2444 C654 1.484 . S
C2446 C1893 1.483 . S
C2455 C890 1.486 . S
C2457 C1421 1.483 . S
C2466 C949 1.482 . S
C2468 C1480 1.485 . S
C2477 C1008 1.485 . S
C2479 C1539 1.485 . S
C2488 C1067 1.483 . S
C2490 C1952 1.486 . S
C2499 C2011 1.486 . S
C2501 C1126 1.483 . S
C2510 C1185 1.487 . S
C2512 C2070 1.483 . S
C2521 C92 1.295 . S
C2523 C52 1.292 . S
C2532 C111 1.296 . S
C2534 C151 1.296 . S
C2543 C170 1.292 . S
C2545 C33 1.295 . S
C2554 C229 1.293 . S
C2556 C328 1.296 . S
C2565 C210 1.292 . S
C2567 C288 1.293 . S
C2576 C347 1.295 . S
C2578 C269 1.296 . S
C2587 C406 1.293 . S
C2589 C446 1.292 . S
C2598 C465 1.292 . S
C2600 C505 1.295 . S
C2609 C524 1.296 . S
C2611 C387 1.292 . S
C2620 C682 1.292 . S
C2622 C583 1.293 . S
C2631 C642 1.297 . S
C2633 C564 1.293 . S
C2642 C623 1.293 . S
C2644 C701 1.297 . S
C2653 C800 1.292 . S
C2655 C760 1.296 . S
C2664 C859 1.296 . S
C2666 C819 1.293 . S
C2675 C741 1.294 . S
C2677 C878 1.292 . S
C2686 C937 1.297 . S
C2688 C1036 1.293 . S
C2697 C996 1.294 . S
C2699 C918 1.292 . S
C2708 C1055 1.293 . S
C2710 C977 1.296 . S
C2719 C1154 1.296 . S
C2721 C1114 1.294 . S
C2730 C1173 1.292 . S
C2732 C1213 1.293 . S
C2741 C1232 1.298 . S
C2743 C1095 1.294 . S
C2752 C1291 1.294 . S
C2754 C1390 1.292 . S
C2763 C1350 1.297 . S
C2765 C1272 1.296 . S
C2774 C1331 1.296 . S
C2776 C1409 1.293 . S
C2785 C1508 1.294 . S
C2787 C1468 1.292 . S
C2796 C1527 1.296 . S
C2798 C1567 1.292 . S
C2807 C1449 1.297 . S
C2809 C1586 1.296 . S
C2818 C1645 1.292 . S
C2820 C1744 1.293 . S
C2829 C1704 1.292 . S
C2831 C1626 1.295 . S
C2840 C1763 1.297 . S
C2842 C1685 1.296 . S
C2851 C1822 1.292 . S
C2853 C1862 1.295 . S
C2862 C1881 1.297 . S
C2864 C1921 1.294 . S
C2873 C1940 1.293 . S
C2875 C1803 1.296 . S
C2884 C1999 1.292 . S
C2886 C2098 1.294 . S
C2895 C2058 1.292 . S
C2897 C1980 1.293 . S
C2906 C2039 1.297 . S
C2908 C2117 1.296 . S
