# Generated by pormake.
# Topology fnd, (5)-cn, num edge types: 1
# Building blocks:
#     Node 0, Type 0, BuildingBlock: BEQFEK_clean_sbu_0, # of connection points: 5
#     Node 1, Type 0, BuildingBlock: BEQFEK_clean_sbu_0, # of connection points: 5
#     Node 2, Type 0, BuildingBlock: BEQFEK_clean_sbu_0, # of connection points: 5
#     Node 3, Type 0, BuildingBlock: BEQFEK_clean_sbu_0, # of connection points: 5
#     Node 4, Type 0, BuildingBlock: BEQFEK_clean_sbu_0, # of connection points: 5
#     Node 5, Type 0, BuildingBlock: BEQFEK_clean_sbu_0, # of connection points: 5
#     Node 6, Type 0, BuildingBlock: BEQFEK_clean_sbu_0, # of connection points: 5
#     Node 7, Type 0, BuildingBlock: BEQFEK_clean_sbu_0, # of connection points: 5
#     Node 8, Type 0, BuildingBlock: BEQFEK_clean_sbu_0, # of connection points: 5
#     Node 9, Type 0, BuildingBlock: BEQFEK_clean_sbu_0, # of connection points: 5
#     Node 10, Type 0, BuildingBlock: BEQFEK_clean_sbu_0, # of connection points: 5
#     Node 11, Type 0, BuildingBlock: BEQFEK_clean_sbu_0, # of connection points: 5
#     Node 12, Type 0, BuildingBlock: BEQFEK_clean_sbu_0, # of connection points: 5
#     Node 13, Type 0, BuildingBlock: BEQFEK_clean_sbu_0, # of connection points: 5
#     Node 14, Type 0, BuildingBlock: BEQFEK_clean_sbu_0, # of connection points: 5
#     Node 15, Type 0, BuildingBlock: BEQFEK_clean_sbu_0, # of connection points: 5
#     Node 16, Type 0, BuildingBlock: BEQFEK_clean_sbu_0, # of connection points: 5
#     Node 17, Type 0, BuildingBlock: BEQFEK_clean_sbu_0, # of connection points: 5
#     Edge 18, Type (0, 0), BuildingBlock: AJUNOK_clean_linker_0, # of connection points: 2
#     Edge 19, Type (0, 0), BuildingBlock: AJUNOK_clean_linker_0, # of connection points: 2
#     Edge 20, Type (0, 0), BuildingBlock: AJUNOK_clean_linker_0, # of connection points: 2
#     Edge 21, Type (0, 0), BuildingBlock: AJUNOK_clean_linker_0, # of connection points: 2
#     Edge 22, Type (0, 0), BuildingBlock: AJUNOK_clean_linker_0, # of connection points: 2
#     Edge 23, Type (0, 0), BuildingBlock: AJUNOK_clean_linker_0, # of connection points: 2
#     Edge 24, Type (0, 0), BuildingBlock: AJUNOK_clean_linker_0, # of connection points: 2
#     Edge 25, Type (0, 0), BuildingBlock: AJUNOK_clean_linker_0, # of connection points: 2
#     Edge 26, Type (0, 0), BuildingBlock: AJUNOK_clean_linker_0, # of connection points: 2
#     Edge 27, Type (0, 0), BuildingBlock: AJUNOK_clean_linker_0, # of connection points: 2
#     Edge 28, Type (0, 0), BuildingBlock: AJUNOK_clean_linker_0, # of connection points: 2
#     Edge 29, Type (0, 0), BuildingBlock: AJUNOK_clean_linker_0, # of connection points: 2
#     Edge 30, Type (0, 0), BuildingBlock: AJUNOK_clean_linker_0, # of connection points: 2
#     Edge 31, Type (0, 0), BuildingBlock: AJUNOK_clean_linker_0, # of connection points: 2
#     Edge 32, Type (0, 0), BuildingBlock: AJUNOK_clean_linker_0, # of connection points: 2
#     Edge 33, Type (0, 0), BuildingBlock: AJUNOK_clean_linker_0, # of connection points: 2
#     Edge 34, Type (0, 0), BuildingBlock: AJUNOK_clean_linker_0, # of connection points: 2
#     Edge 35, Type (0, 0), BuildingBlock: AJUNOK_clean_linker_0, # of connection points: 2
#     Edge 36, Type (0, 0), BuildingBlock: AJUNOK_clean_linker_0, # of connection points: 2
#     Edge 37, Type (0, 0), BuildingBlock: AJUNOK_clean_linker_0, # of connection points: 2
#     Edge 38, Type (0, 0), BuildingBlock: AJUNOK_clean_linker_0, # of connection points: 2
#     Edge 39, Type (0, 0), BuildingBlock: AJUNOK_clean_linker_0, # of connection points: 2
#     Edge 40, Type (0, 0), BuildingBlock: AJUNOK_clean_linker_0, # of connection points: 2
#     Edge 41, Type (0, 0), BuildingBlock: AJUNOK_clean_linker_0, # of connection points: 2
#     Edge 42, Type (0, 0), BuildingBlock: AJUNOK_clean_linker_0, # of connection points: 2
#     Edge 43, Type (0, 0), BuildingBlock: AJUNOK_clean_linker_0, # of connection points: 2
#     Edge 44, Type (0, 0), BuildingBlock: AJUNOK_clean_linker_0, # of connection points: 2
#     Edge 45, Type (0, 0), BuildingBlock: AJUNOK_clean_linker_0, # of connection points: 2
#     Edge 46, Type (0, 0), BuildingBlock: AJUNOK_clean_linker_0, # of connection points: 2
#     Edge 47, Type (0, 0), BuildingBlock: AJUNOK_clean_linker_0, # of connection points: 2
#     Edge 48, Type (0, 0), BuildingBlock: AJUNOK_clean_linker_0, # of connection points: 2
#     Edge 49, Type (0, 0), BuildingBlock: AJUNOK_clean_linker_0, # of connection points: 2
#     Edge 50, Type (0, 0), BuildingBlock: AJUNOK_clean_linker_0, # of connection points: 2
#     Edge 51, Type (0, 0), BuildingBlock: AJUNOK_clean_linker_0, # of connection points: 2
#     Edge 52, Type (0, 0), BuildingBlock: AJUNOK_clean_linker_0, # of connection points: 2
#     Edge 53, Type (0, 0), BuildingBlock: AJUNOK_clean_linker_0, # of connection points: 2
#     Edge 54, Type (0, 0), BuildingBlock: AJUNOK_clean_linker_0, # of connection points: 2
#     Edge 55, Type (0, 0), BuildingBlock: AJUNOK_clean_linker_0, # of connection points: 2
#     Edge 56, Type (0, 0), BuildingBlock: AJUNOK_clean_linker_0, # of connection points: 2
#     Edge 57, Type (0, 0), BuildingBlock: AJUNOK_clean_linker_0, # of connection points: 2
#     Edge 58, Type (0, 0), BuildingBlock: AJUNOK_clean_linker_0, # of connection points: 2
#     Edge 59, Type (0, 0), BuildingBlock: AJUNOK_clean_linker_0, # of connection points: 2
#     Edge 60, Type (0, 0), BuildingBlock: AJUNOK_clean_linker_0, # of connection points: 2
#     Edge 61, Type (0, 0), BuildingBlock: AJUNOK_clean_linker_0, # of connection points: 2
#     Edge 62, Type (0, 0), BuildingBlock: AJUNOK_clean_linker_0, # of connection points: 2
# Relax obj value: 0.144
# Max RMSD: 0.198
# Mean RMSD: 0.198
data_MOF--net-fnd--node1-BEQFEK_clean_sbu_0--edge1-AJUNOK_clean_linker_0
_symmetry_space_group_name_H-M    P1
_symmetry_Int_Tables_number       1
_symmetry_cell_setting            triclinic
loop_
_symmetry_equiv_pos_as_xyz
'x, y, z'
_cell_length_a     59.936715
_cell_length_b     59.949591
_cell_length_c     15.330602
_cell_angle_alpha  90.002401
_cell_angle_beta   90.004953
_cell_angle_gamma 120.00902
loop_
_atom_site_label
_atom_site_type_symbol
_atom_site_fract_x
_atom_site_fract_y
_atom_site_fract_z
_atom_type_partial_charge
Co0 Co 0.10969 0.21591 0.54557 0.0
Co1 Co 0.10358 0.20257 0.3484 0.0
C2 C 0.13041 0.18372 0.4628 0.0
O3 O 0.12593 0.19432 0.52732 0.0
O4 O 0.12324 0.18544 0.38582 0.0
C5 C 0.12898 0.22331 0.72024 0.0
O6 O 0.14621 0.2179 0.6899 0.0
C7 C 0.10947 0.19967 0.15586 0.0
C8 C 0.07781 0.20602 0.11353 0.0
C9 C 0.09787 0.20311 0.08245 0.0
N10 N 0.09703 0.20109 0.22683 0.0
N11 N 0.07791 0.20445 0.20071 0.0
C12 C 0.1316 0.19481 0.15908 0.0
H13 H 0.12917 0.18211 0.21496 0.0
H14 H 0.14981 0.21328 0.16858 0.0
H15 H 0.13295 0.18571 0.09775 0.0
C16 C 0.13515 0.2696 0.47422 0.0
N17 N 0.12295 0.24375 0.46556 0.0
N18 N 0.12102 0.23791 0.38217 0.0
C19 C 0.13228 0.25985 0.33515 0.0
C20 C 0.14142 0.28068 0.39152 0.0
C21 C 0.13993 0.28315 0.55993 0.0
H22 H 0.12272 0.27278 0.60227 0.0
H23 H 0.15627 0.28291 0.59307 0.0
H24 H 0.14459 0.30342 0.55126 0.0
O25 O 0.0718 0.19452 0.53628 0.0
O26 O 0.06832 0.18386 0.39747 0.0
H27 H 0.11752 0.25535 0.20544 0.0
H28 H 0.1506 0.28064 0.21631 0.0
C29 C 0.13607 0.26105 0.23841 0.0
H30 H 0.14274 0.24758 0.21908 0.0
H31 H 0.0655 0.2067 0.24286 0.0
O32 O 0.11468 0.22687 0.66776 0.0
C33 C 0.05799 0.18245 0.47105 0.0
Co34 Co 0.78526 0.89166 0.53384 0.0
Co35 Co 0.79941 0.89846 0.33488 0.0
C36 C 0.81952 0.94401 0.45101 0.0
O37 O 0.80812 0.92888 0.51447 0.0
O38 O 0.81752 0.93538 0.37351 0.0
C39 C 0.77731 0.90568 0.70597 0.0
O40 O 0.78557 0.92851 0.6713 0.0
C41 C 0.79877 0.90792 0.14438 0.0
C42 C 0.79899 0.8735 0.09376 0.0
C43 C 0.79628 0.89418 0.06833 0.0
N44 N 0.80176 0.89522 0.21173 0.0
N45 N 0.80252 0.87507 0.18047 0.0
C46 C 0.79564 0.93104 0.15438 0.0
H47 H 0.79088 0.93298 0.22291 0.0
H48 H 0.78042 0.92973 0.10988 0.0
H49 H 0.81403 0.94853 0.13679 0.0
C50 C 0.73209 0.8646 0.46121 0.0
N51 N 0.75791 0.87785 0.452 0.0
N52 N 0.76374 0.88074 0.36835 0.0
C53 C 0.74164 0.86926 0.32177 0.0
C54 C 0.7209 0.8587 0.37883 0.0
C55 C 0.71866 0.85704 0.54747 0.0
H56 H 0.72815 0.84925 0.58998 0.0
H57 H 0.72045 0.87442 0.57987 0.0
H58 H 0.69796 0.84246 0.53994 0.0
O59 O 0.80575 0.87432 0.52438 0.0
O60 O 0.81719 0.88084 0.3855 0.0
H61 H 0.75058 0.86018 0.1962 0.0
H62 H 0.72016 0.85941 0.19978 0.0
C63 C 0.74023 0.86946 0.22431 0.0
H64 H 0.7494 0.88962 0.20159 0.0
H65 H 0.80386 0.86145 0.21901 0.0
O66 O 0.77364 0.88697 0.65712 0.0
C67 C 0.81785 0.87195 0.46025 0.0
Co68 Co 0.11081 0.89306 0.55963 0.0
Co69 Co 0.10371 0.90139 0.36101 0.0
C70 C 0.05845 0.87476 0.48154 0.0
O71 O 0.07349 0.87785 0.54457 0.0
O72 O 0.06722 0.88247 0.40475 0.0
C73 C 0.09917 0.87077 0.73279 0.0
O74 O 0.07851 0.85162 0.6975 0.0
C75 C 0.09257 0.88923 0.17107 0.0
C76 C 0.12067 0.92697 0.11509 0.0
C77 C 0.10255 0.90199 0.09244 0.0
N78 N 0.10465 0.90595 0.23688 0.0
N79 N 0.12117 0.9285 0.20252 0.0
C80 C 0.0713 0.86204 0.18345 0.0
H81 H 0.06407 0.85887 0.25151 0.0
H82 H 0.07834 0.8485 0.16923 0.0
H83 H 0.05537 0.8577 0.13724 0.0
C84 C 0.13764 0.86709 0.48203 0.0
N85 N 0.12444 0.87979 0.47545 0.0
N86 N 0.12202 0.88389 0.3923 0.0
C87 C 0.1341 0.87431 0.34381 0.0
C88 C 0.14402 0.86308 0.39865 0.0
C89 C 0.14379 0.85894 0.56658 0.0
H90 H 0.12641 0.85008 0.60872 0.0
H91 H 0.15077 0.84514 0.55617 0.0
H92 H 0.15888 0.87623 0.60091 0.0
O93 O 0.12739 0.93082 0.54855 0.0
O94 O 0.12172 0.93695 0.40998 0.0
H95 H 0.15443 0.87482 0.22645 0.0
H96 H 0.12074 0.86359 0.21306 0.0
C97 C 0.1384 0.87782 0.24741 0.0
H98 H 0.14312 0.89751 0.22839 0.0
H99 H 0.13341 0.94482 0.23888 0.0
O100 O 0.11639 0.88792 0.68401 0.0
C101 C 0.13014 0.94582 0.48579 0.0
Co102 Co 0.21951 0.10907 0.45937 0.0
Co103 Co 0.20523 0.10327 0.65717 0.0
C104 C 0.18632 0.12902 0.53677 0.0
O105 O 0.19763 0.12462 0.47463 0.0
O106 O 0.1877 0.12236 0.61489 0.0
C107 C 0.23114 0.13155 0.28689 0.0
O108 O 0.23099 0.15149 0.32172 0.0
C109 C 0.20483 0.11389 0.84739 0.0
C110 C 0.20445 0.07933 0.89982 0.0
C111 C 0.20637 0.10242 0.92452 0.0
N112 N 0.20295 0.09847 0.78048 0.0
N113 N 0.2023 0.07771 0.81271 0.0
C114 C 0.20414 0.13835 0.83679 0.0
H115 H 0.18985 0.13576 0.786 0.0
H116 H 0.22321 0.15392 0.81432 0.0
H117 H 0.19907 0.14417 0.89909 0.0
C118 C 0.27281 0.13577 0.5326 0.0
N119 N 0.24695 0.12309 0.54085 0.0
N120 N 0.24089 0.12068 0.6243 0.0
C121 C 0.26283 0.13172 0.67165 0.0
C122 C 0.28369 0.14182 0.61537 0.0
C123 C 0.28657 0.14243 0.44695 0.0
H124 H 0.28002 0.15354 0.40715 0.0
H125 H 0.30778 0.15385 0.45555 0.0
H126 H 0.28138 0.12442 0.41092 0.0
O127 O 0.19851 0.07135 0.47197 0.0
O128 O 0.18707 0.06746 0.61046 0.0
H129 H 0.25238 0.11137 0.79297 0.0
H130 H 0.28407 0.1391 0.7931 0.0
C131 C 0.26408 0.13139 0.76915 0.0
H132 H 0.25634 0.14321 0.7966 0.0
H133 H 0.20162 0.06294 0.77481 0.0
O134 O 0.2299 0.11383 0.33575 0.0
C135 C 0.18633 0.05736 0.53682 0.0
Co136 Co 0.89513 0.10796 0.43457 0.0
Co137 Co 0.89942 0.09991 0.63258 0.0
C138 C 0.87497 0.05469 0.52061 0.0
O139 O 0.87899 0.06987 0.45661 0.0
O140 O 0.88195 0.06346 0.5976 0.0
C141 C 0.87342 0.09384 0.26356 0.0
O142 O 0.8599 0.07085 0.29816 0.0
C143 C 0.89048 0.09202 0.82463 0.0
C144 C 0.92026 0.13087 0.86797 0.0
C145 C 0.8999 0.10788 0.89771 0.0
N146 N 0.90425 0.10556 0.75487 0.0
N147 N 0.92227 0.12851 0.78179 0.0
C148 C 0.8676 0.06543 0.81964 0.0
H149 H 0.86069 0.06039 0.7515 0.0
H150 H 0.85186 0.06383 0.86205 0.0
H151 H 0.87323 0.0514 0.84288 0.0
C152 C 0.8752 0.14104 0.50688 0.0
N153 N 0.88305 0.12364 0.51403 0.0
N154 N 0.88007 0.11548 0.5945 0.0
C155 C 0.86709 0.12466 0.63918 0.0
C156 C 0.86403 0.14219 0.58682 0.0
C157 C 0.88262 0.15851 0.42937 0.0
H158 H 0.89966 0.15955 0.39671 0.0
H159 H 0.8667 0.1505 0.38109 0.0
H160 H 0.88752 0.17826 0.44899 0.0
O161 O 0.93227 0.12384 0.44429 0.0
O162 O 0.93578 0.11822 0.58505 0.0
H163 H 0.86811 0.12427 0.77901 0.0
H164 H 0.83649 0.114 0.73346 0.0
C165 C 0.85461 0.1135 0.72516 0.0
H166 H 0.84974 0.09314 0.72873 0.0
H167 H 0.93524 0.14306 0.74041 0.0
O168 O 0.88819 0.1128 0.31183 0.0
C169 C 0.94605 0.1264 0.51042 0.0
Co170 Co 0.89613 0.78552 0.45427 0.0
Co171 Co 0.9002 0.80032 0.65245 0.0
C172 C 0.94729 0.81947 0.54117 0.0
O173 O 0.93333 0.80787 0.47546 0.0
O174 O 0.93723 0.81816 0.61573 0.0
C175 C 0.91008 0.77912 0.2801 0.0
O176 O 0.93343 0.78955 0.31272 0.0
C177 C 0.90934 0.79828 0.84105 0.0
C178 C 0.87836 0.80387 0.89584 0.0
C179 C 0.89713 0.7979 0.91858 0.0
N180 N 0.89765 0.8034 0.77544 0.0
N181 N 0.87958 0.80731 0.809 0.0
C182 C 0.92984 0.79131 0.82804 0.0
H183 H 0.92979 0.78523 0.75961 0.0
H184 H 0.92706 0.77574 0.87366 0.0
H185 H 0.94889 0.80845 0.84184 0.0
C186 C 0.86872 0.73261 0.52948 0.0
N187 N 0.88156 0.75847 0.53749 0.0
N188 N 0.88285 0.7646 0.62068 0.0
C189 C 0.87053 0.74269 0.66788 0.0
C190 C 0.86151 0.72183 0.61202 0.0
C191 C 0.86369 0.71874 0.44435 0.0
H192 H 0.88186 0.72683 0.4064 0.0
H193 H 0.85569 0.69774 0.45402 0.0
H194 H 0.84986 0.72197 0.40595 0.0
O195 O 0.879 0.80633 0.46022 0.0
O196 O 0.88245 0.8175 0.5992 0.0
H197 H 0.84966 0.72194 0.78336 0.0
H198 H 0.88297 0.74529 0.79995 0.0
C199 C 0.86537 0.74131 0.76384 0.0
H200 H 0.85971 0.75564 0.78223 0.0
H201 H 0.86713 0.81096 0.77209 0.0
O202 O 0.89124 0.77348 0.33113 0.0
C203 C 0.87505 0.81811 0.52187 0.0
Co204 Co 0.77647 0.55086 0.87808 0.0
Co205 Co 0.7675 0.53639 0.67904 0.0
C206 C 0.79333 0.51611 0.79337 0.0
O207 O 0.79034 0.52766 0.85785 0.0
O208 O 0.78618 0.51816 0.71686 0.0
C209 C 0.79844 0.55752 0.04926 0.0
O210 O 0.81301 0.54973 0.01154 0.0
C211 C 0.7787 0.53668 0.49081 0.0
C212 C 0.74331 0.53356 0.43422 0.0
C213 C 0.76735 0.53725 0.41209 0.0
N214 N 0.76223 0.53343 0.55581 0.0
N215 N 0.74094 0.531 0.52127 0.0
C216 C 0.80557 0.54189 0.506 0.0
H217 H 0.81212 0.54964 0.57268 0.0
H218 H 0.81902 0.55559 0.45676 0.0
H219 H 0.80577 0.52353 0.501 0.0
C220 C 0.8022 0.60395 0.80385 0.0
N221 N 0.78966 0.5781 0.79536 0.0
N222 N 0.78571 0.57209 0.71188 0.0
C223 C 0.79548 0.59404 0.66481 0.0
C224 C 0.80614 0.61491 0.72135 0.0
C225 C 0.80934 0.61763 0.88967 0.0
H226 H 0.79264 0.60838 0.93475 0.0
H227 H 0.82523 0.61574 0.91905 0.0
H228 H 0.81556 0.63835 0.88227 0.0
O229 O 0.73864 0.53057 0.86953 0.0
O230 O 0.73222 0.5191 0.73046 0.0
H231 H 0.77583 0.58366 0.54189 0.0
H232 H 0.80436 0.61511 0.54205 0.0
C233 C 0.79574 0.59519 0.56719 0.0
H234 H 0.80751 0.5872 0.54178 0.0
H235 H 0.72527 0.5289 0.55753 0.0
O236 O 0.78368 0.56212 0.0022 0.0
C237 C 0.72352 0.51861 0.80664 0.0
Co238 Co 0.4545 0.22859 0.88349 0.0
Co239 Co 0.46921 0.2334 0.68471 0.0
C240 C 0.48765 0.2801 0.79733 0.0
O241 O 0.47632 0.26582 0.86261 0.0
O242 O 0.48641 0.27036 0.72223 0.0
C243 C 0.44743 0.24321 0.0553 0.0
O244 O 0.45464 0.26551 0.01807 0.0
C245 C 0.46832 0.24411 0.49654 0.0
C246 C 0.47346 0.21314 0.43921 0.0
C247 C 0.46851 0.23269 0.41761 0.0
N248 N 0.47243 0.23141 0.56129 0.0
N249 N 0.47605 0.21333 0.5263 0.0
C250 C 0.46164 0.26474 0.51183 0.0
H251 H 0.45359 0.26298 0.57833 0.0
H252 H 0.44769 0.26378 0.46222 0.0
H253 H 0.47942 0.28383 0.50719 0.0
C254 C 0.40148 0.20081 0.80844 0.0
N255 N 0.42734 0.21372 0.80042 0.0
N256 N 0.43346 0.21514 0.71718 0.0
C257 C 0.41156 0.20264 0.66992 0.0
C258 C 0.39061 0.19335 0.72591 0.0
C259 C 0.38768 0.19529 0.89389 0.0
H260 H 0.39635 0.18761 0.9405 0.0
H261 H 0.39025 0.21355 0.92142 0.0
H262 H 0.36681 0.18129 0.88647 0.0
O263 O 0.47597 0.2122 0.87599 0.0
O264 O 0.48726 0.21632 0.7369 0.0
H265 H 0.42379 0.19367 0.55014 0.0
H266 H 0.39097 0.18686 0.54801 0.0
C267 C 0.41056 0.20036 0.57252 0.0
H268 H 0.41654 0.21942 0.54364 0.0
H269 H 0.479 0.20024 0.56225 0.0
O270 O 0.44315 0.22405 0.00772 0.0
C271 C 0.48809 0.20887 0.81399 0.0
Co272 Co 0.78076 0.2286 0.88295 0.0
Co273 Co 0.76874 0.23235 0.68841 0.0
C274 C 0.72587 0.20851 0.80975 0.0
O275 O 0.74241 0.21278 0.86935 0.0
O276 O 0.73285 0.21498 0.73074 0.0
C277 C 0.76968 0.20788 0.05658 0.0
O278 O 0.74835 0.18897 0.02378 0.0
C279 C 0.75969 0.22489 0.49395 0.0
C280 C 0.79844 0.25547 0.45295 0.0
C281 C 0.77527 0.23598 0.42107 0.0
N282 N 0.77339 0.23731 0.5655 0.0
N283 N 0.79636 0.25564 0.53988 0.0
C284 C 0.73246 0.20313 0.49555 0.0
H285 H 0.72305 0.20292 0.55808 0.0
H286 H 0.73222 0.1846 0.4887 0.0
H287 H 0.72155 0.20482 0.43991 0.0
C288 C 0.81177 0.20743 0.79768 0.0
N289 N 0.79473 0.21588 0.79877 0.0
N290 N 0.78474 0.21303 0.72095 0.0
C291 C 0.79231 0.19974 0.67051 0.0
C292 C 0.81123 0.19689 0.71477 0.0
C293 C 0.82902 0.21127 0.87358 0.0
H294 H 0.8295 0.226 0.91863 0.0
H295 H 0.82144 0.19293 0.91019 0.0
H296 H 0.84889 0.21756 0.85099 0.0
O297 O 0.79715 0.26562 0.87091 0.0
O298 O 0.78815 0.26897 0.7338 0.0
H299 H 0.78258 0.19608 0.53431 0.0
H300 H 0.77724 0.16646 0.58529 0.0
C301 C 0.77624 0.18431 0.59451 0.0
H302 H 0.75584 0.17878 0.60608 0.0
H303 H 0.81106 0.26782 0.58238 0.0
O304 O 0.78722 0.22373 0.00571 0.0
C305 C 0.79862 0.2794 0.80618 0.0
Co306 Co 0.88404 0.44425 0.77237 0.0
Co307 Co 0.8694 0.43517 0.97129 0.0
C308 C 0.84918 0.46106 0.85429 0.0
O309 O 0.86088 0.4584 0.78945 0.0
O310 O 0.85096 0.45327 0.93007 0.0
C311 C 0.89284 0.46626 0.59964 0.0
O312 O 0.88469 0.48101 0.6336 0.0
C313 C 0.87225 0.44764 0.15981 0.0
C314 C 0.86395 0.41036 0.21646 0.0
C315 C 0.87179 0.43565 0.23798 0.0
N316 N 0.86592 0.43034 0.09494 0.0
N317 N 0.86034 0.40798 0.12977 0.0
C318 C 0.88089 0.47549 0.14564 0.0
H319 H 0.88687 0.481 0.07681 0.0
H320 H 0.89695 0.48778 0.19046 0.0
H321 H 0.86458 0.47874 0.15988 0.0
C322 C 0.9371 0.47217 0.8494 0.0
N323 N 0.9112 0.45831 0.85656 0.0
N324 N 0.905 0.45358 0.93974 0.0
C325 C 0.92681 0.46353 0.98752 0.0
C326 C 0.94778 0.47616 0.93244 0.0
C327 C 0.9511 0.48148 0.76469 0.0
H328 H 0.94166 0.48974 0.72423 0.0
H329 H 0.97166 0.49613 0.77498 0.0
H330 H 0.9499 0.46486 0.72859 0.0
O331 O 0.86384 0.40592 0.78097 0.0
O332 O 0.85342 0.4002 0.92118 0.0
H333 H 0.9129 0.43865 0.09937 0.0
H334 H 0.94705 0.46064 0.09986 0.0
C335 C 0.92808 0.45846 0.08256 0.0
H336 H 0.92551 0.4725 0.12183 0.0
H337 H 0.85537 0.39137 0.09392 0.0
O338 O 0.89624 0.4512 0.64934 0.0
C339 C 0.85284 0.39115 0.84568 0.0
Co340 Co 0.56006 0.44381 0.78422 0.0
Co341 Co 0.56673 0.43592 0.98172 0.0
C342 C 0.5416 0.391 0.8622 0.0
O343 O 0.54534 0.40635 0.7994 0.0
O344 O 0.54831 0.39938 0.93996 0.0
C345 C 0.5394 0.43195 0.6105 0.0
O346 O 0.52089 0.41032 0.64307 0.0
C347 C 0.55829 0.42539 0.17352 0.0
C348 C 0.5928 0.46049 0.2212 0.0
C349 C 0.57066 0.43874 0.2492 0.0
N350 N 0.57245 0.43905 0.10449 0.0
N351 N 0.59318 0.45975 0.1339 0.0
C352 C 0.5338 0.40009 0.16652 0.0
H353 H 0.53386 0.38988 0.1063 0.0
H354 H 0.5172 0.4034 0.163 0.0
H355 H 0.53127 0.38791 0.22439 0.0
C356 C 0.53322 0.4701 0.85856 0.0
N357 N 0.54595 0.45696 0.86635 0.0
N358 N 0.54857 0.4534 0.94968 0.0
C359 C 0.53749 0.46416 0.99745 0.0
C360 C 0.52736 0.47498 0.94153 0.0
C361 C 0.52664 0.47743 0.77321 0.0
H362 H 0.54467 0.49179 0.74044 0.0
H363 H 0.51715 0.46022 0.73036 0.0
H364 H 0.5138 0.48564 0.78201 0.0
O365 O 0.59788 0.46119 0.79508 0.0
O366 O 0.60223 0.45393 0.93334 0.0
H367 H 0.55799 0.47485 0.11841 0.0
H368 H 0.52902 0.47672 0.11973 0.0
C369 C 0.53784 0.46551 0.09497 0.0
H370 H 0.5271 0.44578 0.12194 0.0
H371 H 0.6071 0.47404 0.09408 0.0
O372 O 0.55494 0.44968 0.66138 0.0
C373 C 0.6121 0.46328 0.85952 0.0
Co374 Co 0.56337 0.12062 0.80187 0.0
Co375 Co 0.56937 0.13425 0.00071 0.0
C376 C 0.61557 0.15355 0.88796 0.0
O377 O 0.60076 0.14262 0.82329 0.0
O378 O 0.60641 0.15184 0.96439 0.0
C379 C 0.5776 0.11354 0.62921 0.0
O380 O 0.60067 0.12285 0.66317 0.0
C381 C 0.57855 0.13356 0.19081 0.0
C382 C 0.54396 0.1335 0.24127 0.0
C383 C 0.56478 0.13103 0.26674 0.0
N384 N 0.56577 0.13639 0.12345 0.0
N385 N 0.5455 0.13697 0.15453 0.0
C386 C 0.60175 0.13055 0.18087 0.0
H387 H 0.60348 0.12539 0.11268 0.0
H388 H 0.60071 0.11564 0.22631 0.0
H389 H 0.61924 0.14911 0.197 0.0
C390 C 0.53473 0.06725 0.873 0.0
N391 N 0.54854 0.09304 0.88281 0.0
N392 N 0.55132 0.09869 0.96656 0.0
C393 C 0.53935 0.07654 0.01267 0.0
C394 C 0.52841 0.05591 0.95517 0.0
C395 C 0.52697 0.05403 0.78642 0.0
H396 H 0.51986 0.06412 0.74383 0.0
H397 H 0.54412 0.05517 0.75445 0.0
H398 H 0.51179 0.03352 0.79339 0.0
O399 O 0.54657 0.14169 0.81027 0.0
O400 O 0.5523 0.15249 0.94971 0.0
H401 H 0.52995 0.08496 0.13853 0.0
H402 H 0.52982 0.05485 0.13415 0.0
C403 C 0.53956 0.07496 0.11009 0.0
H404 H 0.55973 0.08443 0.13295 0.0
H405 H 0.53184 0.13821 0.11587 0.0
O406 O 0.55876 0.10907 0.67862 0.0
C407 C 0.54391 0.15357 0.87449 0.0
Co408 Co 0.44291 0.88474 0.22012 0.0
Co409 Co 0.43568 0.87011 0.02099 0.0
C410 C 0.46159 0.8509 0.14143 0.0
O411 O 0.45764 0.86213 0.20481 0.0
O412 O 0.45489 0.8528 0.06397 0.0
C413 C 0.46648 0.89528 0.39002 0.0
O414 O 0.48317 0.89046 0.35142 0.0
C415 C 0.44988 0.87413 0.83364 0.0
C416 C 0.41222 0.86277 0.77299 0.0
C417 C 0.43796 0.87215 0.75356 0.0
N418 N 0.43192 0.86674 0.89682 0.0
N419 N 0.40943 0.85952 0.8597 0.0
C420 C 0.47803 0.88536 0.85177 0.0
H421 H 0.48264 0.89326 0.91902 0.0
H422 H 0.4898 0.90062 0.80371 0.0
H423 H 0.483 0.86989 0.8471 0.0
C424 C 0.4699 0.93777 0.14454 0.0
N425 N 0.4568 0.91189 0.13664 0.0
N426 N 0.45259 0.90576 0.05327 0.0
C427 C 0.4621 0.92764 0.00602 0.0
C428 C 0.4739 0.94855 0.06178 0.0
C429 C 0.47857 0.95164 0.22971 0.0
H430 H 0.48818 0.94328 0.26872 0.0
H431 H 0.49193 0.97257 0.22021 0.0
H432 H 0.46145 0.94878 0.26696 0.0
O433 O 0.40481 0.86376 0.20806 0.0
O434 O 0.40014 0.85217 0.06917 0.0
H435 H 0.4383 0.9129 0.89171 0.0
H436 H 0.45811 0.94741 0.89461 0.0
C437 C 0.45742 0.92902 0.9107 0.0
H438 H 0.47264 0.92825 0.87226 0.0
H439 H 0.39238 0.85371 0.8939 0.0
O440 O 0.44945 0.89653 0.34387 0.0
C441 C 0.39044 0.85154 0.14363 0.0
Co442 Co 0.11807 0.56004 0.20797 0.0
Co443 Co 0.13281 0.56766 0.01098 0.0
C444 C 0.15254 0.61289 0.12897 0.0
O445 O 0.14077 0.5977 0.19213 0.0
O446 O 0.15112 0.60425 0.05174 0.0
C447 C 0.11027 0.57189 0.38265 0.0
O448 O 0.11495 0.59422 0.35161 0.0
C449 C 0.13631 0.57767 0.81837 0.0
C450 C 0.1306 0.54006 0.77415 0.0
C451 C 0.13323 0.56301 0.74407 0.0
N452 N 0.13495 0.56357 0.88872 0.0
N453 N 0.13199 0.54136 0.86137 0.0
C454 C 0.14056 0.60446 0.82291 0.0
H455 H 0.15178 0.61437 0.88205 0.0
H456 H 0.12172 0.60371 0.82694 0.0
H457 H 0.15084 0.61558 0.76388 0.0
C458 C 0.06488 0.53341 0.13257 0.0
N459 N 0.09079 0.5466 0.1257 0.0
N460 N 0.09718 0.55054 0.04267 0.0
C461 C 0.0755 0.54027 0.99416 0.0
C462 C 0.05431 0.52891 0.0491 0.0
C463 C 0.05078 0.52464 0.21735 0.0
H464 H 0.06073 0.51756 0.2607 0.0
H465 H 0.05105 0.54128 0.25011 0.0
H466 H 0.03049 0.50922 0.20736 0.0
O467 O 0.13853 0.54266 0.19813 0.0
O468 O 0.15008 0.54951 0.05984 0.0
H469 H 0.08116 0.53023 0.86552 0.0
H470 H 0.05547 0.53753 0.87309 0.0
C471 C 0.07495 0.54284 0.8972 0.0
H472 H 0.08831 0.56303 0.87844 0.0
H473 H 0.12976 0.52654 0.90267 0.0
O474 O 0.10689 0.55399 0.3305 0.0
C475 C 0.15055 0.54028 0.13391 0.0
Co476 Co 0.44012 0.55829 0.2094 0.0
Co477 Co 0.43386 0.56698 0.0105 0.0
C478 C 0.38814 0.54068 0.1274 0.0
O479 O 0.40303 0.54402 0.19107 0.0
O480 O 0.39698 0.54775 0.05039 0.0
C481 C 0.42553 0.53596 0.38034 0.0
O482 O 0.40339 0.5207 0.34234 0.0
C483 C 0.42306 0.55488 0.82243 0.0
C484 C 0.45333 0.59135 0.76474 0.0
C485 C 0.4343 0.56658 0.7433 0.0
N486 N 0.43543 0.57191 0.88698 0.0
N487 N 0.45307 0.5938 0.85174 0.0
C488 C 0.40293 0.5274 0.83835 0.0
H489 H 0.40486 0.52145 0.90522 0.0
H490 H 0.40433 0.5145 0.78941 0.0
H491 H 0.3836 0.52552 0.83335 0.0
C492 C 0.46741 0.53273 0.13403 0.0
N493 N 0.45403 0.54519 0.12592 0.0
N494 N 0.45216 0.54947 0.04259 0.0
C495 C 0.46486 0.5403 0.99534 0.0
C496 C 0.47485 0.52935 0.05154 0.0
C497 C 0.47366 0.52518 0.21959 0.0
H498 H 0.48263 0.54219 0.26338 0.0
H499 H 0.45553 0.51047 0.25097 0.0
H500 H 0.48686 0.51735 0.2115 0.0
O501 O 0.45719 0.5961 0.1999 0.0
O502 O 0.4516 0.60239 0.06113 0.0
H503 H 0.47347 0.56122 0.875 0.0
H504 H 0.48063 0.5354 0.8736 0.0
C505 C 0.46704 0.5414 0.89791 0.0
H506 H 0.44801 0.52806 0.86936 0.0
H507 H 0.46586 0.61004 0.88748 0.0
O508 O 0.44465 0.55134 0.33346 0.0
C509 C 0.45996 0.61114 0.13716 0.0
Co510 Co 0.5488 0.7752 0.11969 0.0
Co511 Co 0.53517 0.76704 0.31869 0.0
C512 C 0.5161 0.79438 0.2048 0.0
O513 O 0.52691 0.79075 0.13924 0.0
O514 O 0.51791 0.78659 0.28057 0.0
C515 C 0.55736 0.79707 0.94708 0.0
O516 O 0.54909 0.81173 0.98094 0.0
C517 C 0.53798 0.77892 0.50739 0.0
C518 C 0.53249 0.7424 0.5622 0.0
C519 C 0.5386 0.76717 0.58481 0.0
N520 N 0.53258 0.762 0.44191 0.0
N521 N 0.52878 0.74008 0.47558 0.0
C522 C 0.54503 0.80641 0.49424 0.0
H523 H 0.55089 0.81233 0.42557 0.0
H524 H 0.5608 0.81921 0.53924 0.0
H525 H 0.528 0.80844 0.5088 0.0
C526 C 0.60221 0.80142 0.19193 0.0
N527 N 0.57637 0.78834 0.20131 0.0
N528 N 0.57065 0.78436 0.28496 0.0
C529 C 0.59277 0.79439 0.33113 0.0
C530 C 0.6134 0.80587 0.27412 0.0
C531 C 0.61565 0.8099 0.10597 0.0
H532 H 0.60759 0.82012 0.06868 0.0
H533 H 0.63673 0.8227 0.1142 0.0
H534 H 0.61193 0.79268 0.06761 0.0
O535 O 0.52754 0.73708 0.12893 0.0
O536 O 0.517 0.73188 0.26859 0.0
H537 H 0.614 0.79522 0.44659 0.0
H538 H 0.59067 0.80526 0.46231 0.0
C539 C 0.59454 0.79138 0.42743 0.0
H540 H 0.58031 0.77154 0.44763 0.0
H541 H 0.52516 0.72398 0.43882 0.0
O542 O 0.56062 0.78188 0.99654 0.0
C543 C 0.51577 0.72247 0.19326 0.0
Co544 Co 0.22624 0.7753 0.12474 0.0
Co545 Co 0.23457 0.76839 0.32351 0.0
C546 C 0.20859 0.72303 0.20574 0.0
O547 O 0.2121 0.73818 0.14275 0.0
O548 O 0.21541 0.73155 0.2832 0.0
C549 C 0.20392 0.76049 0.95386 0.0
O550 O 0.18873 0.73838 0.99213 0.0
C551 C 0.22293 0.75735 0.512 0.0
C552 C 0.25906 0.78849 0.56876 0.0
C553 C 0.23458 0.76896 0.59085 0.0
N554 N 0.23967 0.77004 0.44702 0.0
N555 N 0.26139 0.78819 0.48173 0.0
C556 C 0.19567 0.73654 0.49671 0.0
H557 H 0.18947 0.73795 0.42968 0.0
H558 H 0.18254 0.73763 0.54538 0.0
H559 H 0.19447 0.71752 0.50265 0.0
C560 C 0.20119 0.80306 0.20109 0.0
N561 N 0.21317 0.78919 0.20863 0.0
N562 N 0.21698 0.78669 0.29193 0.0
C563 C 0.20775 0.79924 0.33978 0.0
C564 C 0.19752 0.81005 0.28399 0.0
C565 C 0.19442 0.81023 0.11575 0.0
H566 H 0.21118 0.81762 0.07097 0.0
H567 H 0.17839 0.79273 0.08545 0.0
H568 H 0.18855 0.82497 0.1241 0.0
O569 O 0.26402 0.79246 0.1343 0.0
O570 O 0.27005 0.78634 0.27282 0.0
H571 H 0.22763 0.80748 0.46214 0.0
H572 H 0.20031 0.81238 0.46316 0.0
C573 C 0.20781 0.80016 0.43742 0.0
H574 H 0.19516 0.78054 0.46284 0.0
H575 H 0.27737 0.80129 0.4456 0.0
O576 O 0.21922 0.77972 0.00055 0.0
C577 C 0.27895 0.79502 0.19718 0.0
Co578 Co 0.22553 0.45079 0.11706 0.0
Co579 Co 0.2316 0.46614 0.3146 0.0
C580 C 0.27755 0.48488 0.19625 0.0
O581 O 0.26293 0.47287 0.13227 0.0
O582 O 0.26824 0.48393 0.27208 0.0
C583 C 0.23619 0.43962 0.9431 0.0
O584 O 0.25727 0.44148 0.97603 0.0
C585 C 0.24254 0.4657 0.50397 0.0
C586 C 0.21061 0.4697 0.55882 0.0
C587 C 0.23039 0.46526 0.58205 0.0
N588 N 0.22974 0.46923 0.4381 0.0
N589 N 0.21105 0.47212 0.47174 0.0
C590 C 0.26637 0.46393 0.49135 0.0
H591 H 0.27845 0.47749 0.43946 0.0
H592 H 0.26103 0.44425 0.46936 0.0
H593 H 0.27769 0.46847 0.55263 0.0
C594 C 0.20003 0.39788 0.19463 0.0
N595 N 0.21201 0.42378 0.20079 0.0
N596 N 0.21385 0.43033 0.2837 0.0
C597 C 0.20249 0.40869 0.33251 0.0
C598 C 0.19385 0.3875 0.27815 0.0
C599 C 0.19526 0.38359 0.11048 0.0
H600 H 0.21236 0.39375 0.06755 0.0
H601 H 0.19084 0.36349 0.12148 0.0
H602 H 0.17872 0.38328 0.07678 0.0
O603 O 0.20879 0.47191 0.12706 0.0
O604 O 0.2136 0.4835 0.2656 0.0
H605 H 0.18284 0.38841 0.45037 0.0
H606 H 0.21577 0.41334 0.46426 0.0
C607 C 0.19771 0.40792 0.42863 0.0
H608 H 0.19101 0.42155 0.44539 0.0
H609 H 0.19783 0.47461 0.43486 0.0
O610 O 0.21947 0.43985 0.99355 0.0
C611 C 0.20558 0.484 0.18929 0.0
C612 C 0.16252 0.15163 0.58386 0.0
C613 C 0.17153 0.14229 0.5164 0.0
C614 C 0.14923 0.16483 0.5657 0.0
C615 C 0.14424 0.16923 0.47925 0.0
H616 H 0.16598 0.14899 0.65142 0.0
H617 H 0.14283 0.17165 0.62035 0.0
S618 S 0.163 0.148 0.27839 0.0
N619 N 0.17383 0.1378 0.359 0.0
N620 N 0.14913 0.16268 0.3255 0.0
C621 C 0.15286 0.15971 0.41115 0.0
C622 C 0.16642 0.14627 0.42953 0.0
C623 C 0.85391 0.01667 0.41907 0.0
C624 C 0.86179 0.0264 0.50426 0.0
C625 C 0.84077 0.99012 0.40187 0.0
C626 C 0.83495 0.97211 0.46913 0.0
H627 H 0.8577 0.02961 0.3648 0.0
H628 H 0.8347 0.98368 0.33556 0.0
S629 S 0.85341 0.98729 0.70251 0.0
N630 N 0.86402 0.01563 0.65592 0.0
N631 N 0.83989 0.96595 0.62356 0.0
C632 C 0.84348 0.98154 0.55421 0.0
C633 C 0.85674 0.00857 0.57176 0.0
C634 C 0.98607 0.8394 0.44373 0.0
C635 C 0.97573 0.83455 0.52886 0.0
C636 C 0.01271 0.8527 0.42901 0.0
C637 C 0.03026 0.86169 0.49877 0.0
H638 H 0.9735 0.83283 0.38737 0.0
H639 H 0.01954 0.85559 0.36227 0.0
S640 S 0.01338 0.85529 0.73467 0.0
N641 N 0.98532 0.84063 0.68408 0.0
N642 N 0.03534 0.8658 0.65687 0.0
C643 C 0.02024 0.85748 0.58444 0.0
C644 C 0.99304 0.84393 0.59936 0.0
C645 C 0.83703 0.85251 0.55848 0.0
C646 C 0.83291 0.85861 0.47343 0.0
C647 C 0.85091 0.83976 0.57338 0.0
C648 C 0.8611 0.83231 0.50387 0.0
H649 H 0.82952 0.85764 0.61449 0.0
H650 H 0.85335 0.83544 0.64013 0.0
S651 S 0.85622 0.84403 0.26842 0.0
N652 N 0.84062 0.8565 0.31849 0.0
N653 N 0.86649 0.8324 0.34642 0.0
C654 C 0.85727 0.83838 0.41839 0.0
C655 C 0.84328 0.85157 0.40322 0.0
C656 C 0.16619 0.01798 0.44193 0.0
C657 C 0.17135 0.02887 0.5261 0.0
C658 C 0.15259 0.99121 0.4296 0.0
C659 C 0.14378 0.97413 0.50091 0.0
H660 H 0.17269 0.03021 0.38469 0.0
H661 H 0.1493 0.9839 0.36343 0.0
S662 S 0.15191 0.99268 0.73508 0.0
N663 N 0.16614 0.02033 0.68212 0.0
N664 N 0.14086 0.97014 0.65917 0.0
C665 C 0.14864 0.98474 0.58555 0.0
C666 C 0.16231 0.01202 0.59806 0.0
C667 C 0.99088 0.14999 0.57242 0.0
C668 C 0.9745 0.13948 0.49982 0.0
C669 C 0.0178 0.16362 0.56273 0.0
C670 C 0.02944 0.16711 0.48012 0.0
H671 H 0.98289 0.14815 0.63715 0.0
H672 H 0.02952 0.17163 0.62058 0.0
S673 S 0.99508 0.14196 0.26954 0.0
N674 N 0.97193 0.13253 0.34277 0.0
N675 N 0.02223 0.15794 0.32459 0.0
C676 C 0.01323 0.15612 0.40723 0.0
C677 C 0.98587 0.14239 0.41706 0.0
C678 C 0.83327 0.48385 0.75695 0.0
C679 C 0.83365 0.47387 0.84005 0.0
C680 C 0.81965 0.49686 0.74163 0.0
C681 C 0.80592 0.50055 0.80883 0.0
H682 H 0.84382 0.48193 0.70301 0.0
H683 H 0.82045 0.50463 0.67716 0.0
S684 S 0.79805 0.47572 0.0355 0.0
N685 N 0.81726 0.46698 0.98867 0.0
N686 N 0.79164 0.4913 0.95987 0.0
C687 C 0.80534 0.48994 0.89147 0.0
C688 C 0.81918 0.47664 0.90706 0.0
C689 C 0.50627 0.31849 0.89651 0.0
C690 C 0.50233 0.30849 0.81096 0.0
C691 C 0.51925 0.34505 0.91247 0.0
C692 C 0.52887 0.3629 0.84364 0.0
H693 H 0.49923 0.30571 0.95226 0.0
H694 H 0.52141 0.35159 0.97945 0.0
S695 S 0.52505 0.347 0.60737 0.0
N696 N 0.51 0.31874 0.6565 0.0
N697 N 0.53464 0.36863 0.68611 0.0
C698 C 0.52561 0.35323 0.75765 0.0
C699 C 0.51233 0.3261 0.74144 0.0
C700 C 0.6794 0.18624 0.76601 0.0
C701 C 0.69798 0.19539 0.8327 0.0
C702 C 0.65302 0.17309 0.78503 0.0
C703 C 0.64387 0.1684 0.87168 0.0
H704 H 0.68518 0.18896 0.69812 0.0
H705 H 0.63972 0.16656 0.73066 0.0
S706 S 0.68448 0.18953 0.07106 0.0
N707 N 0.70532 0.19985 0.98975 0.0
N708 N 0.6557 0.17478 0.02518 0.0
C709 C 0.6622 0.17786 0.9393 0.0
C710 C 0.6892 0.19136 0.91992 0.0
C711 C 0.51061 0.18562 0.76177 0.0
C712 C 0.503 0.19561 0.83144 0.0
C713 C 0.52392 0.17227 0.7764 0.0
C714 C 0.53042 0.16849 0.86132 0.0
H715 H 0.50593 0.18776 0.69516 0.0
H716 H 0.52905 0.16478 0.72033 0.0
S717 S 0.51592 0.19183 0.0665 0.0
N718 N 0.50361 0.20144 0.98876 0.0
N719 N 0.52872 0.17656 0.01621 0.0
C720 C 0.52332 0.1788 0.93162 0.0
C721 C 0.5096 0.19226 0.91672 0.0
C722 C 0.81303 0.324 0.74857 0.0
C723 C 0.81304 0.30796 0.81589 0.0
C724 C 0.8263 0.35097 0.75761 0.0
C725 C 0.83983 0.36285 0.83457 0.0
H726 H 0.80255 0.31569 0.68866 0.0
H727 H 0.82552 0.36255 0.70475 0.0
S728 S 0.8485 0.3302 0.02623 0.0
N729 N 0.82969 0.30654 0.95981 0.0
N730 N 0.85426 0.35688 0.97602 0.0
C731 C 0.84059 0.34718 0.9012 0.0
C732 C 0.8273 0.31985 0.89208 0.0
C733 C 0.65134 0.48377 0.76402 0.0
C734 C 0.64057 0.47696 0.84821 0.0
C735 C 0.67808 0.49694 0.75121 0.0
C736 C 0.69525 0.5041 0.82207 0.0
H737 H 0.63903 0.4789 0.70715 0.0
H738 H 0.68532 0.50181 0.68511 0.0
S739 S 0.67714 0.49037 0.05588 0.0
N740 N 0.64939 0.47798 0.00369 0.0
N741 N 0.69953 0.50285 0.97966 0.0
C742 C 0.6848 0.49728 0.90664 0.0
C743 C 0.65754 0.48367 0.91966 0.0
C744 C 0.48556 0.82898 0.09045 0.0
C745 C 0.47451 0.83567 0.15911 0.0
C746 C 0.49873 0.81554 0.10608 0.0
C747 C 0.5014 0.8081 0.19107 0.0
H748 H 0.4844 0.83448 0.02403 0.0
H749 H 0.50694 0.81106 0.05057 0.0
S750 S 0.47428 0.81922 0.39328 0.0
N751 N 0.46586 0.83254 0.31535 0.0
N752 N 0.49077 0.80753 0.34446 0.0
C753 C 0.48994 0.81417 0.26023 0.0
C754 C 0.47651 0.82788 0.24435 0.0
C755 C 0.1809 0.67687 0.25058 0.0
C756 C 0.1959 0.69503 0.18684 0.0
C757 C 0.16715 0.65046 0.23117 0.0
C758 C 0.16793 0.64106 0.14735 0.0
H759 H 0.1792 0.68313 0.31532 0.0
H760 H 0.15557 0.63738 0.28247 0.0
S761 S 0.20709 0.68067 0.96047 0.0
N762 N 0.21253 0.70176 0.0385 0.0
N763 N 0.18682 0.65224 0.0023 0.0
C764 C 0.18365 0.65904 0.08395 0.0
C765 C 0.19758 0.68595 0.10363 0.0
C766 C 0.34223 0.51361 0.07929 0.0
C767 C 0.36006 0.52792 0.14481 0.0
C768 C 0.3157 0.49991 0.09675 0.0
C769 C 0.30585 0.5001 0.18033 0.0
H770 H 0.34882 0.51244 0.01454 0.0
H771 H 0.30288 0.48889 0.04402 0.0
S772 S 0.34452 0.53695 0.37222 0.0
N773 N 0.36602 0.54301 0.29509 0.0
N774 N 0.31627 0.5174 0.32765 0.0
C775 C 0.3235 0.51503 0.24572 0.0
C776 C 0.35053 0.52889 0.22803 0.0
C777 C 0.16934 0.52004 0.23024 0.0
C778 C 0.16506 0.52634 0.14572 0.0
C779 C 0.18264 0.50663 0.2436 0.0
C780 C 0.19203 0.49869 0.173 0.0
H781 H 0.16241 0.52553 0.28694 0.0
H782 H 0.1853 0.5022 0.30999 0.0
S783 S 0.18634 0.51063 0.93836 0.0
N784 N 0.17168 0.52384 0.99008 0.0
N785 N 0.19648 0.49854 0.01516 0.0
C786 C 0.18801 0.50494 0.08805 0.0
C787 C 0.17462 0.51879 0.07444 0.0
C788 C 0.49784 0.68343 0.09637 0.0
C789 C 0.50077 0.69401 0.18055 0.0
C790 C 0.48433 0.6567 0.08276 0.0
C791 C 0.4734 0.63938 0.15284 0.0
H792 H 0.50612 0.69586 0.04021 0.0
H793 H 0.48284 0.64958 0.01683 0.0
S794 S 0.47437 0.65687 0.3858 0.0
N795 N 0.49058 0.68473 0.33486 0.0
N796 N 0.46556 0.6347 0.30925 0.0
C797 C 0.47587 0.64962 0.2372 0.0
C798 C 0.48941 0.67684 0.25103 0.0
C799 C 0.35118 0.83332 0.23955 0.0
C800 C 0.36194 0.83649 0.15556 0.0
C801 C 0.32441 0.81957 0.25261 0.0
C802 C 0.30723 0.80866 0.18216 0.0
H803 H 0.36349 0.84153 0.29603 0.0
H804 H 0.31715 0.81788 0.31843 0.0
S805 S 0.32522 0.81035 0.94941 0.0
N806 N 0.35297 0.82664 0.00099 0.0
N807 N 0.30288 0.80118 0.02554 0.0
C808 C 0.31766 0.81141 0.09796 0.0
C809 C 0.3449 0.82519 0.0847 0.0
C810 C 0.1435 0.31691 0.30427 0.0
C811 C 0.15477 0.30824 0.36638 0.0
C812 C 0.15648 0.34244 0.27417 0.0
C813 C 0.18111 0.36016 0.30553 0.0
H814 H 0.12451 0.30379 0.27857 0.0
H815 H 0.14704 0.34847 0.22718 0.0
S816 S 0.21951 0.34686 0.46513 0.0
N817 N 0.19232 0.31915 0.45566 0.0
N818 N 0.21665 0.3672 0.39982 0.0
C819 C 0.19264 0.35171 0.36719 0.0
C820 C 0.17946 0.32574 0.39767 0.0
C821 C 0.65751 0.81113 0.27159 0.0
C822 C 0.64097 0.82007 0.29834 0.0
C823 C 0.68321 0.82331 0.3 0.0
C824 C 0.69322 0.84497 0.35522 0.0
H825 H 0.6504 0.79437 0.22975 0.0
H826 H 0.69542 0.81586 0.27827 0.0
S827 S 0.65782 0.87621 0.4411 0.0
N828 N 0.63628 0.85187 0.38214 0.0
N829 N 0.68475 0.87511 0.43389 0.0
C830 C 0.67686 0.85409 0.38206 0.0
C831 C 0.65069 0.8416 0.35375 0.0
C832 C 0.15882 0.81549 0.28732 0.0
C833 C 0.18476 0.82482 0.30916 0.0
C834 C 0.14568 0.82785 0.31765 0.0
C835 C 0.15799 0.84973 0.37154 0.0
H836 H 0.14851 0.79826 0.24796 0.0
H837 H 0.12569 0.82016 0.2994 0.0
S838 S 0.22633 0.88308 0.44038 0.0
N839 N 0.22284 0.85838 0.38193 0.0
N840 N 0.19784 0.88114 0.44093 0.0
C841 C 0.18402 0.85955 0.39223 0.0
C842 C 0.19751 0.84724 0.3603 0.0
C843 C 0.3523 0.15681 0.65357 0.0
C844 C 0.36305 0.18001 0.70094 0.0
C845 C 0.32679 0.1449 0.62334 0.0
C846 C 0.31118 0.15571 0.64051 0.0
H847 H 0.36379 0.1479 0.63938 0.0
H848 H 0.31907 0.12693 0.58776 0.0
S849 S 0.33011 0.21611 0.76148 0.0
N850 N 0.35622 0.21341 0.76272 0.0
N851 N 0.30807 0.19074 0.70764 0.0
C852 C 0.32162 0.17876 0.68827 0.0
C853 C 0.3476 0.19095 0.71841 0.0
C854 C 0.8382 0.1754 0.73623 0.0
C855 C 0.82702 0.18553 0.67977 0.0
C856 C 0.85197 0.16387 0.70459 0.0
C857 C 0.85239 0.15839 0.61519 0.0
H858 H 0.83634 0.17585 0.8059 0.0
H859 H 0.86198 0.15892 0.75232 0.0
S860 S 0.82959 0.18425 0.43735 0.0
N861 N 0.82422 0.19571 0.52762 0.0
N862 N 0.84088 0.1656 0.46978 0.0
C863 C 0.84145 0.16862 0.55752 0.0
C864 C 0.83084 0.18387 0.58944 0.0
C865 C 0.84538 0.6587 0.72037 0.0
C866 C 0.81946 0.64252 0.69719 0.0
C867 C 0.85899 0.68432 0.6913 0.0
C868 C 0.84719 0.69439 0.63734 0.0
H869 H 0.85529 0.65137 0.75989 0.0
H870 H 0.87893 0.69631 0.71069 0.0
S871 S 0.77917 0.66065 0.56497 0.0
N872 N 0.78198 0.63895 0.62293 0.0
N873 N 0.80789 0.68691 0.56622 0.0
C874 C 0.82121 0.67861 0.61519 0.0
C875 C 0.80724 0.65271 0.64586 0.0
C876 C 0.01806 0.49531 0.96002 0.0
C877 C 0.02687 0.51525 0.02223 0.0
C878 C 0.99263 0.4832 0.92887 0.0
C879 C 0.97517 0.49055 0.95935 0.0
H880 H 0.03098 0.48907 0.93521 0.0
H881 H 0.98644 0.46768 0.88203 0.0
S882 S 0.98892 0.5424 0.11873 0.0
N883 N 0.01638 0.54239 0.1104 0.0
N884 N 0.96849 0.51938 0.053 0.0
C885 C 0.98376 0.51051 0.02109 0.0
C886 C 0.00963 0.52289 0.05246 0.0
C887 C 0.47849 0.48969 0.0432 0.0
C888 C 0.48922 0.51616 0.02704 0.0
C889 C 0.49076 0.47637 0.01378 0.0
C890 C 0.51402 0.48909 0.96693 0.0
H891 H 0.46032 0.47918 0.07751 0.0
H892 H 0.48201 0.45597 0.02763 0.0
S893 S 0.5508 0.55858 0.91342 0.0
N894 N 0.52508 0.5549 0.96585 0.0
N895 N 0.54789 0.5297 0.90931 0.0
C896 C 0.5251 0.51558 0.95154 0.0
C897 C 0.51278 0.52919 0.98219 0.0
C898 C 0.49264 0.01871 0.03472 0.0
C899 C 0.51402 0.02819 0.9783 0.0
C900 C 0.48003 0.99303 0.06349 0.0
C901 C 0.48822 0.97597 0.03579 0.0
H902 H 0.4858 0.03135 0.05739 0.0
H903 H 0.46359 0.98639 0.1066 0.0
S904 S 0.54325 0.99123 0.88939 0.0
N905 N 0.54301 0.01859 0.89728 0.0
N906 N 0.51891 0.97017 0.94947 0.0
C907 C 0.50935 0.98511 0.97879 0.0
C908 C 0.52231 0.01126 0.95025 0.0
C909 C 0.13966 0.22544 0.87884 0.0
C910 C 0.12118 0.2181 0.81237 0.0
C911 C 0.13214 0.22001 0.96655 0.0
C912 C 0.1059 0.2064 0.99001 0.0
H913 H 0.16 0.23595 0.86311 0.0
H914 H 0.147 0.22729 0.016 0.0
S915 S 0.0501 0.18053 0.83885 0.0
N916 N 0.0756 0.19525 0.77502 0.0
N917 N 0.06154 0.1844 0.93903 0.0
C918 C 0.08732 0.19828 0.92355 0.0
C919 C 0.09493 0.20422 0.83489 0.0
C920 C 0.79484 0.92465 0.85274 0.0
C921 C 0.77828 0.90305 0.80171 0.0
C922 C 0.79992 0.92192 0.94031 0.0
C923 C 0.78847 0.89754 0.97988 0.0
H924 H 0.8051 0.94365 0.82372 0.0
H925 H 0.81386 0.93883 0.97563 0.0
S926 S 0.74041 0.83554 0.8791 0.0
N927 N 0.74824 0.85694 0.80023 0.0
N928 N 0.75749 0.85183 0.96474 0.0
C929 C 0.7706 0.87606 0.93124 0.0
C930 C 0.76552 0.87881 0.84225 0.0
C931 C 0.0975 0.86163 0.89344 0.0
C932 C 0.0982 0.87747 0.8247 0.0
C933 C 0.09766 0.86893 0.9809 0.0
C934 C 0.098 0.89201 0.00184 0.0
H935 H 0.09773 0.84404 0.87955 0.0
H936 H 0.09875 0.85705 0.0319 0.0
S937 S 0.09596 0.93793 0.84451 0.0
N938 N 0.09675 0.91577 0.78277 0.0
N939 N 0.09658 0.92922 0.94623 0.0
C940 C 0.09736 0.90719 0.93317 0.0
C941 C 0.09751 0.89996 0.84481 0.0
C942 C 0.19897 0.09409 0.08283 0.0
C943 C 0.21137 0.11199 0.01544 0.0
C944 C 0.20568 0.10075 0.17004 0.0
C945 C 0.22496 0.12569 0.19368 0.0
H946 H 0.18423 0.07449 0.06791 0.0
H947 H 0.1956 0.08618 0.21948 0.0
S948 S 0.2641 0.17962 0.04311 0.0
N949 N 0.2448 0.1556 0.97841 0.0
N950 N 0.25641 0.16849 0.14375 0.0
C951 C 0.23718 0.14407 0.12766 0.0
C952 C 0.23066 0.13713 0.0381 0.0
C953 C 0.88086 0.07948 0.02877 0.0
C954 C 0.88976 0.10344 0.98795 0.0
C955 C 0.87395 0.07606 0.11713 0.0
C956 C 0.87612 0.09661 0.16799 0.0
H957 H 0.88045 0.0636 0.99389 0.0
H958 H 0.86829 0.05758 0.14683 0.0
S959 S 0.8953 0.16226 0.08974 0.0
N960 N 0.89779 0.14731 0.00303 0.0
N961 N 0.88554 0.14098 0.16969 0.0
C962 C 0.88383 0.12029 0.12712 0.0
C963 C 0.89054 0.1237 0.03703 0.0
C964 C 0.92808 0.79481 0.13069 0.0
C965 C 0.90658 0.77974 0.18442 0.0
C966 C 0.92505 0.79979 0.04333 0.0
C967 C 0.90042 0.78985 0.00662 0.0
H968 H 0.94741 0.80397 0.15726 0.0
H969 H 0.94203 0.81254 0.00583 0.0
S970 S 0.83813 0.74586 0.11418 0.0
N971 N 0.85995 0.75244 0.19067 0.0
N972 N 0.85434 0.76183 0.02678 0.0
C973 C 0.87888 0.77344 0.05766 0.0
C974 C 0.88193 0.76831 0.14639 0.0
C975 C 0.78126 0.56625 0.18552 0.0
C976 C 0.79474 0.55544 0.14534 0.0
C977 C 0.77342 0.56091 0.27271 0.0
C978 C 0.77866 0.5445 0.32348 0.0
H979 H 0.77595 0.5783 0.14857 0.0
H980 H 0.76262 0.5693 0.30004 0.0
S981 S 0.81392 0.51168 0.25057 0.0
N982 N 0.81409 0.5284 0.16477 0.0
N983 N 0.7983 0.51757 0.32749 0.0
C984 C 0.79284 0.53419 0.28533 0.0
C985 C 0.80118 0.53991 0.1966 0.0
C986 C 0.44474 0.21487 0.27851 0.0
C987 C 0.46104 0.23658 0.32919 0.0
C988 C 0.43924 0.2173 0.1914 0.0
C989 C 0.44984 0.24159 0.15124 0.0
H990 H 0.43655 0.19569 0.30589 0.0
H991 H 0.42722 0.19992 0.15451 0.0
S992 S 0.4937 0.30461 0.25595 0.0
N993 N 0.48775 0.28316 0.3332 0.0
N994 N 0.47701 0.28799 0.17016 0.0
C995 C 0.46544 0.2636 0.20229 0.0
C996 C 0.47118 0.26104 0.29105 0.0
C997 C 0.75968 0.20246 0.30244 0.0
C998 C 0.77089 0.22842 0.32807 0.0
C999 C 0.75921 0.19577 0.21421 0.0
C1000 C 0.77047 0.21486 0.14943 0.0
H1001 H 0.75218 0.18728 0.35075 0.0
H1002 H 0.75061 0.17561 0.19688 0.0
S1003 S 0.79941 0.28536 0.18208 0.0
N1004 N 0.7913 0.27302 0.28093 0.0
N1005 N 0.79097 0.26063 0.11624 0.0
C1006 C 0.78097 0.2408 0.1742 0.0
C1007 C 0.78107 0.24751 0.26326 0.0
C1008 C 0.87807 0.47065 0.45082 0.0
C1009 C 0.89202 0.4626 0.50366 0.0
C1010 C 0.87258 0.46298 0.36318 0.0
C1011 C 0.88089 0.44705 0.32545 0.0
H1012 H 0.87006 0.48176 0.47839 0.0
H1013 H 0.86059 0.46839 0.32638 0.0
S1014 S 0.92193 0.42455 0.43024 0.0
N1015 N 0.91683 0.44059 0.50778 0.0
N1016 N 0.90652 0.42625 0.34352 0.0
C1017 C 0.89638 0.44043 0.37551 0.0
C1018 C 0.90201 0.44824 0.46443 0.0
C1019 C 0.52859 0.4236 0.45145 0.0
C1020 C 0.54701 0.43278 0.5186 0.0
C1021 C 0.53605 0.42458 0.36392 0.0
C1022 C 0.56207 0.43408 0.34134 0.0
H1023 H 0.50846 0.41638 0.46641 0.0
H1024 H 0.52147 0.41883 0.3139 0.0
S1025 S 0.61708 0.45696 0.49508 0.0
N1026 N 0.59195 0.4496 0.55778 0.0
N1027 N 0.6058 0.45068 0.39446 0.0
C1028 C 0.58038 0.44212 0.40876 0.0
C1029 C 0.5729 0.44161 0.4971 0.0
C1030 C 0.596 0.13073 0.48172 0.0
C1031 C 0.57462 0.11414 0.53355 0.0
C1032 C 0.59294 0.13546 0.39414 0.0
C1033 C 0.56844 0.12361 0.35533 0.0
H1034 H 0.61508 0.14129 0.51007 0.0
H1035 H 0.60968 0.14943 0.35816 0.0
S1036 S 0.50695 0.07535 0.45831 0.0
N1037 N 0.5286 0.08365 0.53659 0.0
N1038 N 0.52288 0.09229 0.37197 0.0
C1039 C 0.54718 0.10573 0.40474 0.0
C1040 C 0.55027 0.101 0.49378 0.0
C1041 C 0.44647 0.89997 0.52655 0.0
C1042 C 0.46366 0.89361 0.48658 0.0
C1043 C 0.43941 0.89402 0.61413 0.0
C1044 C 0.4492 0.88144 0.66573 0.0
H1045 H 0.43753 0.90873 0.48906 0.0
H1046 H 0.42547 0.89863 0.64094 0.0
S1047 S 0.49625 0.86212 0.59486 0.0
N1048 N 0.49191 0.87571 0.50776 0.0
N1049 N 0.47778 0.8637 0.67158 0.0
C1050 C 0.46739 0.8761 0.62824 0.0
C1051 C 0.47486 0.88242 0.53891 0.0
C1052 C 0.10928 0.58128 0.54139 0.0
C1053 C 0.11631 0.56995 0.47461 0.0
C1054 C 0.11551 0.57985 0.62881 0.0
C1055 C 0.12961 0.56769 0.6517 0.0
H1056 H 0.09836 0.59073 0.52621 0.0
H1057 H 0.10838 0.58749 0.67854 0.0
S1058 S 0.15527 0.53787 0.49923 0.0
N1059 N 0.13965 0.54781 0.43626 0.0
N1060 N 0.15198 0.54584 0.59946 0.0
C1061 C 0.13757 0.55722 0.58476 0.0
C1062 C 0.13083 0.55821 0.49648 0.0
C1063 C 0.45301 0.56208 0.604 0.0
C1064 C 0.43096 0.55528 0.65488 0.0
C1065 C 0.45104 0.55441 0.51676 0.0
C1066 C 0.42691 0.53955 0.47654 0.0
H1067 H 0.47207 0.57402 0.63126 0.0
H1068 H 0.46864 0.56095 0.47978 0.0
S1069 S 0.36312 0.51587 0.58219 0.0
N1070 N 0.38421 0.53253 0.65915 0.0
N1071 N 0.38031 0.51718 0.49618 0.0
C1072 C 0.40463 0.53154 0.52794 0.0
C1073 C 0.40669 0.53966 0.6168 0.0
C1074 C 0.54233 0.80085 0.79824 0.0
C1075 C 0.557 0.79372 0.8512 0.0
C1076 C 0.53739 0.79331 0.7104 0.0
C1077 C 0.54703 0.7785 0.67264 0.0
H1078 H 0.53333 0.81104 0.82585 0.0
H1079 H 0.52481 0.79791 0.67347 0.0
S1080 S 0.5903 0.7589 0.77816 0.0
N1081 N 0.58383 0.7739 0.85582 0.0
N1082 N 0.57462 0.75986 0.69101 0.0
C1083 C 0.56323 0.77288 0.72296 0.0
C1084 C 0.56825 0.78052 0.81212 0.0
C1085 C 0.22981 0.78769 0.72973 0.0
C1086 C 0.22333 0.76561 0.67942 0.0
C1087 C 0.22213 0.7858 0.81694 0.0
C1088 C 0.20756 0.76172 0.85769 0.0
H1089 H 0.24148 0.80673 0.70203 0.0
H1090 H 0.22841 0.80343 0.85345 0.0
S1091 S 0.18479 0.69786 0.75378 0.0
N1092 N 0.20126 0.71887 0.67644 0.0
N1093 N 0.18579 0.71512 0.8392 0.0
C1094 C 0.19987 0.73939 0.80688 0.0
C1095 C 0.20804 0.74138 0.71811 0.0
C1096 C 0.23024 0.47228 0.74136 0.0
C1097 C 0.23457 0.45938 0.67257 0.0
C1098 C 0.23059 0.46545 0.82826 0.0
C1099 C 0.23557 0.4456 0.8502 0.0
H1100 H 0.22615 0.48762 0.72791 0.0
H1101 H 0.2271 0.47597 0.87886 0.0
S1102 S 0.24648 0.40451 0.69604 0.0
N1103 N 0.24225 0.42442 0.63289 0.0
N1104 N 0.24453 0.41276 0.7974 0.0
C1105 C 0.24029 0.43268 0.78283 0.0
C1106 C 0.23936 0.43925 0.69365 0.0
loop_
_geom_bond_atom_site_label_1
_geom_bond_atom_site_label_2
_geom_bond_distance
_geom_bond_site_symmetry_2
_ccdc_geom_bond_type
Co0 O3 1.970 . S
Co0 N17 1.989 . S
Co0 O25 1.967 . S
Co0 O32 1.920 . S
Co1 O4 1.966 . S
Co1 N10 2.022 . S
Co1 N18 1.993 . S
Co1 O26 1.941 . S
C2 O3 1.258 . S
C2 O4 1.263 . S
O3 Co0 1.970 . S
O3 C2 1.258 . S
O4 Co1 1.966 . S
O4 C2 1.263 . S
C5 O6 1.235 . S
C5 O32 1.289 . S
O6 C5 1.235 . S
C7 C9 1.400 . S
C7 N10 1.351 . S
C7 C12 1.501 . S
C8 C9 1.387 . S
C8 N11 1.341 . S
C9 C7 1.400 . S
C9 C8 1.387 . S
N10 Co1 2.022 . S
N10 C7 1.351 . S
N10 N11 1.365 . S
N11 C8 1.341 . S
N11 N10 1.365 . S
N11 H31 0.862 . S
C12 C7 1.501 . S
C12 H13 0.961 . S
C12 H14 0.961 . S
C12 H15 0.960 . S
H13 C12 0.961 . S
H14 C12 0.961 . S
H15 C12 0.960 . S
C16 N17 1.342 . S
C16 C20 1.401 . S
C16 C21 1.499 . S
N17 Co0 1.989 . S
N17 C16 1.342 . S
N17 N18 1.388 . S
N18 Co1 1.993 . S
N18 N17 1.388 . S
N18 C19 1.346 . S
C19 N18 1.346 . S
C19 C20 1.396 . S
C19 C29 1.510 . S
C20 C16 1.401 . S
C20 C19 1.396 . S
C21 C16 1.499 . S
C21 H22 0.959 . S
C21 H23 0.960 . S
C21 H24 0.961 . S
H22 C21 0.959 . S
H23 C21 0.960 . S
H24 C21 0.961 . S
O25 Co0 1.967 . S
O25 C33 1.258 . S
O26 Co1 1.941 . S
O26 C33 1.266 . S
H27 C29 0.959 . S
H28 C29 0.961 . S
C29 C19 1.510 . S
C29 H27 0.959 . S
C29 H28 0.961 . S
C29 H30 0.960 . S
H30 C29 0.960 . S
H31 N11 0.862 . S
O32 Co0 1.920 . S
O32 C5 1.289 . S
C33 O25 1.258 . S
C33 O26 1.266 . S
Co34 O37 1.970 . S
Co34 N51 1.989 . S
Co34 O59 1.967 . S
Co34 O66 1.920 . S
Co35 O38 1.966 . S
Co35 N44 2.022 . S
Co35 N52 1.993 . S
Co35 O60 1.941 . S
C36 O37 1.258 . S
C36 O38 1.263 . S
O37 Co34 1.970 . S
O37 C36 1.258 . S
O38 Co35 1.966 . S
O38 C36 1.263 . S
C39 O40 1.235 . S
C39 O66 1.289 . S
O40 C39 1.235 . S
C41 C43 1.400 . S
C41 N44 1.351 . S
C41 C46 1.501 . S
C42 C43 1.387 . S
C42 N45 1.341 . S
C43 C41 1.400 . S
C43 C42 1.387 . S
N44 Co35 2.022 . S
N44 C41 1.351 . S
N44 N45 1.365 . S
N45 C42 1.341 . S
N45 N44 1.365 . S
N45 H65 0.862 . S
C46 C41 1.501 . S
C46 H47 0.961 . S
C46 H48 0.961 . S
C46 H49 0.960 . S
H47 C46 0.961 . S
H48 C46 0.961 . S
H49 C46 0.960 . S
C50 N51 1.342 . S
C50 C54 1.401 . S
C50 C55 1.499 . S
N51 Co34 1.989 . S
N51 C50 1.342 . S
N51 N52 1.388 . S
N52 Co35 1.993 . S
N52 N51 1.388 . S
N52 C53 1.346 . S
C53 N52 1.346 . S
C53 C54 1.396 . S
C53 C63 1.510 . S
C54 C50 1.401 . S
C54 C53 1.396 . S
C55 C50 1.499 . S
C55 H56 0.959 . S
C55 H57 0.960 . S
C55 H58 0.961 . S
H56 C55 0.959 . S
H57 C55 0.960 . S
H58 C55 0.961 . S
O59 Co34 1.967 . S
O59 C67 1.258 . S
O60 Co35 1.941 . S
O60 C67 1.266 . S
H61 C63 0.959 . S
H62 C63 0.961 . S
C63 C53 1.510 . S
C63 H61 0.959 . S
C63 H62 0.961 . S
C63 H64 0.960 . S
H64 C63 0.960 . S
H65 N45 0.862 . S
O66 Co34 1.920 . S
O66 C39 1.289 . S
C67 O59 1.258 . S
C67 O60 1.266 . S
Co68 O71 1.970 . S
Co68 N85 1.989 . S
Co68 O93 1.967 . S
Co68 O100 1.920 . S
Co69 O72 1.966 . S
Co69 N78 2.022 . S
Co69 N86 1.993 . S
Co69 O94 1.941 . S
C70 O71 1.258 . S
C70 O72 1.263 . S
O71 Co68 1.970 . S
O71 C70 1.258 . S
O72 Co69 1.966 . S
O72 C70 1.263 . S
C73 O74 1.235 . S
C73 O100 1.289 . S
O74 C73 1.235 . S
C75 C77 1.400 . S
C75 N78 1.351 . S
C75 C80 1.501 . S
C76 C77 1.387 . S
C76 N79 1.341 . S
C77 C75 1.400 . S
C77 C76 1.387 . S
N78 Co69 2.022 . S
N78 C75 1.351 . S
N78 N79 1.365 . S
N79 C76 1.341 . S
N79 N78 1.365 . S
N79 H99 0.862 . S
C80 C75 1.501 . S
C80 H81 0.961 . S
C80 H82 0.961 . S
C80 H83 0.960 . S
H81 C80 0.961 . S
H82 C80 0.961 . S
H83 C80 0.960 . S
C84 N85 1.342 . S
C84 C88 1.401 . S
C84 C89 1.499 . S
N85 Co68 1.989 . S
N85 C84 1.342 . S
N85 N86 1.388 . S
N86 Co69 1.993 . S
N86 N85 1.388 . S
N86 C87 1.346 . S
C87 N86 1.346 . S
C87 C88 1.396 . S
C87 C97 1.510 . S
C88 C84 1.401 . S
C88 C87 1.396 . S
C89 C84 1.499 . S
C89 H90 0.959 . S
C89 H91 0.960 . S
C89 H92 0.961 . S
H90 C89 0.959 . S
H91 C89 0.960 . S
H92 C89 0.961 . S
O93 Co68 1.967 . S
O93 C101 1.258 . S
O94 Co69 1.941 . S
O94 C101 1.266 . S
H95 C97 0.959 . S
H96 C97 0.961 . S
C97 C87 1.510 . S
C97 H95 0.959 . S
C97 H96 0.961 . S
C97 H98 0.960 . S
H98 C97 0.960 . S
H99 N79 0.862 . S
O100 Co68 1.920 . S
O100 C73 1.289 . S
C101 O93 1.258 . S
C101 O94 1.266 . S
Co102 O105 1.970 . S
Co102 N119 1.989 . S
Co102 O127 1.967 . S
Co102 O134 1.920 . S
Co103 O106 1.966 . S
Co103 N112 2.022 . S
Co103 N120 1.993 . S
Co103 O128 1.941 . S
C104 O105 1.258 . S
C104 O106 1.263 . S
O105 Co102 1.970 . S
O105 C104 1.258 . S
O106 Co103 1.966 . S
O106 C104 1.263 . S
C107 O108 1.235 . S
C107 O134 1.289 . S
O108 C107 1.235 . S
C109 C111 1.400 . S
C109 N112 1.351 . S
C109 C114 1.501 . S
C110 C111 1.387 . S
C110 N113 1.341 . S
C111 C109 1.400 . S
C111 C110 1.387 . S
N112 Co103 2.022 . S
N112 C109 1.351 . S
N112 N113 1.365 . S
N113 C110 1.341 . S
N113 N112 1.365 . S
N113 H133 0.862 . S
C114 C109 1.501 . S
C114 H115 0.961 . S
C114 H116 0.961 . S
C114 H117 0.960 . S
H115 C114 0.961 . S
H116 C114 0.961 . S
H117 C114 0.960 . S
C118 N119 1.342 . S
C118 C122 1.401 . S
C118 C123 1.499 . S
N119 Co102 1.989 . S
N119 C118 1.342 . S
N119 N120 1.388 . S
N120 Co103 1.993 . S
N120 N119 1.388 . S
N120 C121 1.346 . S
C121 N120 1.346 . S
C121 C122 1.396 . S
C121 C131 1.510 . S
C122 C118 1.401 . S
C122 C121 1.396 . S
C123 C118 1.499 . S
C123 H124 0.959 . S
C123 H125 0.960 . S
C123 H126 0.961 . S
H124 C123 0.959 . S
H125 C123 0.960 . S
H126 C123 0.961 . S
O127 Co102 1.967 . S
O127 C135 1.258 . S
O128 Co103 1.941 . S
O128 C135 1.266 . S
H129 C131 0.959 . S
H130 C131 0.961 . S
C131 C121 1.510 . S
C131 H129 0.959 . S
C131 H130 0.961 . S
C131 H132 0.960 . S
H132 C131 0.960 . S
H133 N113 0.862 . S
O134 Co102 1.920 . S
O134 C107 1.289 . S
C135 O127 1.258 . S
C135 O128 1.266 . S
Co136 O139 1.970 . S
Co136 N153 1.989 . S
Co136 O161 1.967 . S
Co136 O168 1.920 . S
Co137 O140 1.966 . S
Co137 N146 2.022 . S
Co137 N154 1.993 . S
Co137 O162 1.941 . S
C138 O139 1.258 . S
C138 O140 1.263 . S
O139 Co136 1.970 . S
O139 C138 1.258 . S
O140 Co137 1.966 . S
O140 C138 1.263 . S
C141 O142 1.235 . S
C141 O168 1.289 . S
O142 C141 1.235 . S
C143 C145 1.400 . S
C143 N146 1.351 . S
C143 C148 1.501 . S
C144 C145 1.387 . S
C144 N147 1.341 . S
C145 C143 1.400 . S
C145 C144 1.387 . S
N146 Co137 2.022 . S
N146 C143 1.351 . S
N146 N147 1.365 . S
N147 C144 1.341 . S
N147 N146 1.365 . S
N147 H167 0.862 . S
C148 C143 1.501 . S
C148 H149 0.961 . S
C148 H150 0.961 . S
C148 H151 0.960 . S
H149 C148 0.961 . S
H150 C148 0.961 . S
H151 C148 0.960 . S
C152 N153 1.342 . S
C152 C156 1.401 . S
C152 C157 1.499 . S
N153 Co136 1.989 . S
N153 C152 1.342 . S
N153 N154 1.388 . S
N154 Co137 1.993 . S
N154 N153 1.388 . S
N154 C155 1.346 . S
C155 N154 1.346 . S
C155 C156 1.396 . S
C155 C165 1.510 . S
C156 C152 1.401 . S
C156 C155 1.396 . S
C157 C152 1.499 . S
C157 H158 0.959 . S
C157 H159 0.960 . S
C157 H160 0.961 . S
H158 C157 0.959 . S
H159 C157 0.960 . S
H160 C157 0.961 . S
O161 Co136 1.967 . S
O161 C169 1.258 . S
O162 Co137 1.941 . S
O162 C169 1.266 . S
H163 C165 0.959 . S
H164 C165 0.961 . S
C165 C155 1.510 . S
C165 H163 0.959 . S
C165 H164 0.961 . S
C165 H166 0.960 . S
H166 C165 0.960 . S
H167 N147 0.862 . S
O168 Co136 1.920 . S
O168 C141 1.289 . S
C169 O161 1.258 . S
C169 O162 1.266 . S
Co170 O173 1.970 . S
Co170 N187 1.989 . S
Co170 O195 1.967 . S
Co170 O202 1.920 . S
Co171 O174 1.966 . S
Co171 N180 2.022 . S
Co171 N188 1.993 . S
Co171 O196 1.941 . S
C172 O173 1.258 . S
C172 O174 1.263 . S
O173 Co170 1.970 . S
O173 C172 1.258 . S
O174 Co171 1.966 . S
O174 C172 1.263 . S
C175 O176 1.235 . S
C175 O202 1.289 . S
O176 C175 1.235 . S
C177 C179 1.400 . S
C177 N180 1.351 . S
C177 C182 1.501 . S
C178 C179 1.387 . S
C178 N181 1.341 . S
C179 C177 1.400 . S
C179 C178 1.387 . S
N180 Co171 2.022 . S
N180 C177 1.351 . S
N180 N181 1.365 . S
N181 C178 1.341 . S
N181 N180 1.365 . S
N181 H201 0.862 . S
C182 C177 1.501 . S
C182 H183 0.961 . S
C182 H184 0.961 . S
C182 H185 0.960 . S
H183 C182 0.961 . S
H184 C182 0.961 . S
H185 C182 0.960 . S
C186 N187 1.342 . S
C186 C190 1.401 . S
C186 C191 1.499 . S
N187 Co170 1.989 . S
N187 C186 1.342 . S
N187 N188 1.388 . S
N188 Co171 1.993 . S
N188 N187 1.388 . S
N188 C189 1.346 . S
C189 N188 1.346 . S
C189 C190 1.396 . S
C189 C199 1.510 . S
C190 C186 1.401 . S
C190 C189 1.396 . S
C191 C186 1.499 . S
C191 H192 0.959 . S
C191 H193 0.960 . S
C191 H194 0.961 . S
H192 C191 0.959 . S
H193 C191 0.960 . S
H194 C191 0.961 . S
O195 Co170 1.967 . S
O195 C203 1.258 . S
O196 Co171 1.941 . S
O196 C203 1.266 . S
H197 C199 0.959 . S
H198 C199 0.961 . S
C199 C189 1.510 . S
C199 H197 0.959 . S
C199 H198 0.961 . S
C199 H200 0.960 . S
H200 C199 0.960 . S
H201 N181 0.862 . S
O202 Co170 1.920 . S
O202 C175 1.289 . S
C203 O195 1.258 . S
C203 O196 1.266 . S
Co204 O207 1.970 . S
Co204 N221 1.989 . S
Co204 O229 1.967 . S
Co204 O236 1.920 . S
Co205 O208 1.966 . S
Co205 N214 2.022 . S
Co205 N222 1.993 . S
Co205 O230 1.941 . S
C206 O207 1.258 . S
C206 O208 1.263 . S
O207 Co204 1.970 . S
O207 C206 1.258 . S
O208 Co205 1.966 . S
O208 C206 1.263 . S
C209 O210 1.235 1_554 S
C209 O236 1.289 1_554 S
O210 C209 1.235 1_556 S
C211 C213 1.400 . S
C211 N214 1.351 . S
C211 C216 1.501 . S
C212 C213 1.387 . S
C212 N215 1.341 . S
C213 C211 1.400 . S
C213 C212 1.387 . S
N214 Co205 2.022 . S
N214 C211 1.351 . S
N214 N215 1.365 . S
N215 C212 1.341 . S
N215 N214 1.365 . S
N215 H235 0.862 . S
C216 C211 1.501 . S
C216 H217 0.961 . S
C216 H218 0.961 . S
C216 H219 0.960 . S
H217 C216 0.961 . S
H218 C216 0.961 . S
H219 C216 0.960 . S
C220 N221 1.342 . S
C220 C224 1.401 . S
C220 C225 1.499 . S
N221 Co204 1.989 . S
N221 C220 1.342 . S
N221 N222 1.388 . S
N222 Co205 1.993 . S
N222 N221 1.388 . S
N222 C223 1.346 . S
C223 N222 1.346 . S
C223 C224 1.396 . S
C223 C233 1.510 . S
C224 C220 1.401 . S
C224 C223 1.396 . S
C225 C220 1.499 . S
C225 H226 0.959 . S
C225 H227 0.960 . S
C225 H228 0.961 . S
H226 C225 0.959 . S
H227 C225 0.960 . S
H228 C225 0.961 . S
O229 Co204 1.967 . S
O229 C237 1.258 . S
O230 Co205 1.941 . S
O230 C237 1.266 . S
H231 C233 0.959 . S
H232 C233 0.961 . S
C233 C223 1.510 . S
C233 H231 0.959 . S
C233 H232 0.961 . S
C233 H234 0.960 . S
H234 C233 0.960 . S
H235 N215 0.862 . S
O236 Co204 1.920 . S
O236 C209 1.289 1_556 S
C237 O229 1.258 . S
C237 O230 1.266 . S
Co238 O241 1.970 . S
Co238 N255 1.989 . S
Co238 O263 1.967 . S
Co238 O270 1.920 . S
Co239 O242 1.966 . S
Co239 N248 2.022 . S
Co239 N256 1.993 . S
Co239 O264 1.941 . S
C240 O241 1.258 . S
C240 O242 1.263 . S
O241 Co238 1.970 . S
O241 C240 1.258 . S
O242 Co239 1.966 . S
O242 C240 1.263 . S
C243 O244 1.235 1_554 S
C243 O270 1.289 1_554 S
O244 C243 1.235 1_556 S
C245 C247 1.400 . S
C245 N248 1.351 . S
C245 C250 1.501 . S
C246 C247 1.387 . S
C246 N249 1.341 . S
C247 C245 1.400 . S
C247 C246 1.387 . S
N248 Co239 2.022 . S
N248 C245 1.351 . S
N248 N249 1.365 . S
N249 C246 1.341 . S
N249 N248 1.365 . S
N249 H269 0.862 . S
C250 C245 1.501 . S
C250 H251 0.961 . S
C250 H252 0.961 . S
C250 H253 0.960 . S
H251 C250 0.961 . S
H252 C250 0.961 . S
H253 C250 0.960 . S
C254 N255 1.342 . S
C254 C258 1.401 . S
C254 C259 1.499 . S
N255 Co238 1.989 . S
N255 C254 1.342 . S
N255 N256 1.388 . S
N256 Co239 1.993 . S
N256 N255 1.388 . S
N256 C257 1.346 . S
C257 N256 1.346 . S
C257 C258 1.396 . S
C257 C267 1.510 . S
C258 C254 1.401 . S
C258 C257 1.396 . S
C259 C254 1.499 . S
C259 H260 0.959 . S
C259 H261 0.960 . S
C259 H262 0.961 . S
H260 C259 0.959 . S
H261 C259 0.960 . S
H262 C259 0.961 . S
O263 Co238 1.967 . S
O263 C271 1.258 . S
O264 Co239 1.941 . S
O264 C271 1.266 . S
H265 C267 0.959 . S
H266 C267 0.961 . S
C267 C257 1.510 . S
C267 H265 0.959 . S
C267 H266 0.961 . S
C267 H268 0.960 . S
H268 C267 0.960 . S
H269 N249 0.862 . S
O270 Co238 1.920 . S
O270 C243 1.289 1_556 S
C271 O263 1.258 . S
C271 O264 1.266 . S
Co272 O275 1.970 . S
Co272 N289 1.989 . S
Co272 O297 1.967 . S
Co272 O304 1.920 . S
Co273 O276 1.966 . S
Co273 N282 2.022 . S
Co273 N290 1.993 . S
Co273 O298 1.941 . S
C274 O275 1.258 . S
C274 O276 1.263 . S
O275 Co272 1.970 . S
O275 C274 1.258 . S
O276 Co273 1.966 . S
O276 C274 1.263 . S
C277 O278 1.235 1_554 S
C277 O304 1.289 1_554 S
O278 C277 1.235 1_556 S
C279 C281 1.400 . S
C279 N282 1.351 . S
C279 C284 1.501 . S
C280 C281 1.387 . S
C280 N283 1.341 . S
C281 C279 1.400 . S
C281 C280 1.387 . S
N282 Co273 2.022 . S
N282 C279 1.351 . S
N282 N283 1.365 . S
N283 C280 1.341 . S
N283 N282 1.365 . S
N283 H303 0.862 . S
C284 C279 1.501 . S
C284 H285 0.961 . S
C284 H286 0.961 . S
C284 H287 0.960 . S
H285 C284 0.961 . S
H286 C284 0.961 . S
H287 C284 0.960 . S
C288 N289 1.342 . S
C288 C292 1.401 . S
C288 C293 1.499 . S
N289 Co272 1.989 . S
N289 C288 1.342 . S
N289 N290 1.388 . S
N290 Co273 1.993 . S
N290 N289 1.388 . S
N290 C291 1.346 . S
C291 N290 1.346 . S
C291 C292 1.396 . S
C291 C301 1.510 . S
C292 C288 1.401 . S
C292 C291 1.396 . S
C293 C288 1.499 . S
C293 H294 0.959 . S
C293 H295 0.960 . S
C293 H296 0.961 . S
H294 C293 0.959 . S
H295 C293 0.960 . S
H296 C293 0.961 . S
O297 Co272 1.967 . S
O297 C305 1.258 . S
O298 Co273 1.941 . S
O298 C305 1.266 . S
H299 C301 0.959 . S
H300 C301 0.961 . S
C301 C291 1.510 . S
C301 H299 0.959 . S
C301 H300 0.961 . S
C301 H302 0.960 . S
H302 C301 0.960 . S
H303 N283 0.862 . S
O304 Co272 1.920 . S
O304 C277 1.289 1_556 S
C305 O297 1.258 . S
C305 O298 1.266 . S
Co306 O309 1.970 . S
Co306 N323 1.989 . S
Co306 O331 1.967 . S
Co306 O338 1.920 . S
Co307 O310 1.966 1_554 S
Co307 N316 2.022 . S
Co307 N324 1.993 1_554 S
Co307 O332 1.941 1_554 S
C308 O309 1.258 . S
C308 O310 1.263 . S
O309 Co306 1.970 . S
O309 C308 1.258 . S
O310 Co307 1.966 1_556 S
O310 C308 1.263 . S
C311 O312 1.235 . S
C311 O338 1.289 . S
O312 C311 1.235 . S
C313 C315 1.400 . S
C313 N316 1.351 . S
C313 C318 1.501 . S
C314 C315 1.387 . S
C314 N317 1.341 . S
C315 C313 1.400 . S
C315 C314 1.387 . S
N316 Co307 2.022 . S
N316 C313 1.351 . S
N316 N317 1.365 . S
N317 C314 1.341 . S
N317 N316 1.365 . S
N317 H337 0.862 . S
C318 C313 1.501 . S
C318 H319 0.961 . S
C318 H320 0.961 . S
C318 H321 0.960 . S
H319 C318 0.961 . S
H320 C318 0.961 . S
H321 C318 0.960 . S
C322 N323 1.342 . S
C322 C326 1.401 . S
C322 C327 1.499 . S
N323 Co306 1.989 . S
N323 C322 1.342 . S
N323 N324 1.388 . S
N324 Co307 1.993 1_556 S
N324 N323 1.388 . S
N324 C325 1.346 1_556 S
C325 N324 1.346 1_554 S
C325 C326 1.396 1_554 S
C325 C335 1.510 . S
C326 C322 1.401 . S
C326 C325 1.396 1_556 S
C327 C322 1.499 . S
C327 H328 0.959 . S
C327 H329 0.960 . S
C327 H330 0.961 . S
H328 C327 0.959 . S
H329 C327 0.960 . S
H330 C327 0.961 . S
O331 Co306 1.967 . S
O331 C339 1.258 . S
O332 Co307 1.941 1_556 S
O332 C339 1.266 . S
H333 C335 0.959 . S
H334 C335 0.961 . S
C335 C325 1.510 . S
C335 H333 0.959 . S
C335 H334 0.961 . S
C335 H336 0.960 . S
H336 C335 0.960 . S
H337 N317 0.862 . S
O338 Co306 1.920 . S
O338 C311 1.289 . S
C339 O331 1.258 . S
C339 O332 1.266 . S
Co340 O343 1.970 . S
Co340 N357 1.989 . S
Co340 O365 1.967 . S
Co340 O372 1.920 . S
Co341 O344 1.966 1_554 S
Co341 N350 2.022 . S
Co341 N358 1.993 1_554 S
Co341 O366 1.941 1_554 S
C342 O343 1.258 . S
C342 O344 1.263 . S
O343 Co340 1.970 . S
O343 C342 1.258 . S
O344 Co341 1.966 1_556 S
O344 C342 1.263 . S
C345 O346 1.235 . S
C345 O372 1.289 . S
O346 C345 1.235 . S
C347 C349 1.400 . S
C347 N350 1.351 . S
C347 C352 1.501 . S
C348 C349 1.387 . S
C348 N351 1.341 . S
C349 C347 1.400 . S
C349 C348 1.387 . S
N350 Co341 2.022 . S
N350 C347 1.351 . S
N350 N351 1.365 . S
N351 C348 1.341 . S
N351 N350 1.365 . S
N351 H371 0.862 . S
C352 C347 1.501 . S
C352 H353 0.961 . S
C352 H354 0.961 . S
C352 H355 0.960 . S
H353 C352 0.961 . S
H354 C352 0.961 . S
H355 C352 0.960 . S
C356 N357 1.342 . S
C356 C360 1.401 . S
C356 C361 1.499 . S
N357 Co340 1.989 . S
N357 C356 1.342 . S
N357 N358 1.388 . S
N358 Co341 1.993 1_556 S
N358 N357 1.388 . S
N358 C359 1.346 1_556 S
C359 N358 1.346 1_554 S
C359 C360 1.396 1_554 S
C359 C369 1.510 . S
C360 C356 1.401 . S
C360 C359 1.396 1_556 S
C361 C356 1.499 . S
C361 H362 0.959 . S
C361 H363 0.960 . S
C361 H364 0.961 . S
H362 C361 0.959 . S
H363 C361 0.960 . S
H364 C361 0.961 . S
O365 Co340 1.967 . S
O365 C373 1.258 . S
O366 Co341 1.941 1_556 S
O366 C373 1.266 . S
H367 C369 0.959 . S
H368 C369 0.961 . S
C369 C359 1.510 . S
C369 H367 0.959 . S
C369 H368 0.961 . S
C369 H370 0.960 . S
H370 C369 0.960 . S
H371 N351 0.862 . S
O372 Co340 1.920 . S
O372 C345 1.289 . S
C373 O365 1.258 . S
C373 O366 1.266 . S
Co374 O377 1.970 . S
Co374 N391 1.989 . S
Co374 O399 1.967 . S
Co374 O406 1.920 . S
Co375 O378 1.966 1_554 S
Co375 N384 2.022 . S
Co375 N392 1.993 1_554 S
Co375 O400 1.941 1_554 S
C376 O377 1.258 . S
C376 O378 1.263 . S
O377 Co374 1.970 . S
O377 C376 1.258 . S
O378 Co375 1.966 1_556 S
O378 C376 1.263 . S
C379 O380 1.235 . S
C379 O406 1.289 . S
O380 C379 1.235 . S
C381 C383 1.400 . S
C381 N384 1.351 . S
C381 C386 1.501 . S
C382 C383 1.387 . S
C382 N385 1.341 . S
C383 C381 1.400 . S
C383 C382 1.387 . S
N384 Co375 2.022 . S
N384 C381 1.351 . S
N384 N385 1.365 . S
N385 C382 1.341 . S
N385 N384 1.365 . S
N385 H405 0.862 . S
C386 C381 1.501 . S
C386 H387 0.961 . S
C386 H388 0.961 . S
C386 H389 0.960 . S
H387 C386 0.961 . S
H388 C386 0.961 . S
H389 C386 0.960 . S
C390 N391 1.342 . S
C390 C394 1.401 . S
C390 C395 1.499 . S
N391 Co374 1.989 . S
N391 C390 1.342 . S
N391 N392 1.388 . S
N392 Co375 1.993 1_556 S
N392 N391 1.388 . S
N392 C393 1.346 1_556 S
C393 N392 1.346 1_554 S
C393 C394 1.396 1_554 S
C393 C403 1.510 . S
C394 C390 1.401 . S
C394 C393 1.396 1_556 S
C395 C390 1.499 . S
C395 H396 0.959 . S
C395 H397 0.960 . S
C395 H398 0.961 . S
H396 C395 0.959 . S
H397 C395 0.960 . S
H398 C395 0.961 . S
O399 Co374 1.967 . S
O399 C407 1.258 . S
O400 Co375 1.941 1_556 S
O400 C407 1.266 . S
H401 C403 0.959 . S
H402 C403 0.961 . S
C403 C393 1.510 . S
C403 H401 0.959 . S
C403 H402 0.961 . S
C403 H404 0.960 . S
H404 C403 0.960 . S
H405 N385 0.862 . S
O406 Co374 1.920 . S
O406 C379 1.289 . S
C407 O399 1.258 . S
C407 O400 1.266 . S
Co408 O411 1.970 . S
Co408 N425 1.989 . S
Co408 O433 1.967 . S
Co408 O440 1.920 . S
Co409 O412 1.966 1_556 S
Co409 N418 2.022 . S
Co409 N426 1.993 1_556 S
Co409 O434 1.941 1_556 S
C410 O411 1.258 . S
C410 O412 1.263 . S
O411 Co408 1.970 . S
O411 C410 1.258 . S
O412 Co409 1.966 1_554 S
O412 C410 1.263 . S
C413 O414 1.235 . S
C413 O440 1.289 . S
O414 C413 1.235 . S
C415 C417 1.400 . S
C415 N418 1.351 . S
C415 C420 1.501 . S
C416 C417 1.387 . S
C416 N419 1.341 . S
C417 C415 1.400 . S
C417 C416 1.387 . S
N418 Co409 2.022 . S
N418 C415 1.351 . S
N418 N419 1.365 . S
N419 C416 1.341 . S
N419 N418 1.365 . S
N419 H439 0.862 . S
C420 C415 1.501 . S
C420 H421 0.961 . S
C420 H422 0.961 . S
C420 H423 0.960 . S
H421 C420 0.961 . S
H422 C420 0.961 . S
H423 C420 0.960 . S
C424 N425 1.342 . S
C424 C428 1.401 . S
C424 C429 1.499 . S
N425 Co408 1.989 . S
N425 C424 1.342 . S
N425 N426 1.388 . S
N426 Co409 1.993 1_554 S
N426 N425 1.388 . S
N426 C427 1.346 1_554 S
C427 N426 1.346 1_556 S
C427 C428 1.396 1_556 S
C427 C437 1.510 . S
C428 C424 1.401 . S
C428 C427 1.396 1_554 S
C429 C424 1.499 . S
C429 H430 0.959 . S
C429 H431 0.960 . S
C429 H432 0.961 . S
H430 C429 0.959 . S
H431 C429 0.960 . S
H432 C429 0.961 . S
O433 Co408 1.967 . S
O433 C441 1.258 . S
O434 Co409 1.941 1_554 S
O434 C441 1.266 . S
H435 C437 0.959 . S
H436 C437 0.961 . S
C437 C427 1.510 . S
C437 H435 0.959 . S
C437 H436 0.961 . S
C437 H438 0.960 . S
H438 C437 0.960 . S
H439 N419 0.862 . S
O440 Co408 1.920 . S
O440 C413 1.289 . S
C441 O433 1.258 . S
C441 O434 1.266 . S
Co442 O445 1.970 . S
Co442 N459 1.989 . S
Co442 O467 1.967 . S
Co442 O474 1.920 . S
Co443 O446 1.966 1_556 S
Co443 N452 2.022 . S
Co443 N460 1.993 1_556 S
Co443 O468 1.941 1_556 S
C444 O445 1.258 . S
C444 O446 1.263 . S
O445 Co442 1.970 . S
O445 C444 1.258 . S
O446 Co443 1.966 1_554 S
O446 C444 1.263 . S
C447 O448 1.235 . S
C447 O474 1.289 . S
O448 C447 1.235 . S
C449 C451 1.400 . S
C449 N452 1.351 . S
C449 C454 1.501 . S
C450 C451 1.387 . S
C450 N453 1.341 . S
C451 C449 1.400 . S
C451 C450 1.387 . S
N452 Co443 2.022 . S
N452 C449 1.351 . S
N452 N453 1.365 . S
N453 C450 1.341 . S
N453 N452 1.365 . S
N453 H473 0.862 . S
C454 C449 1.501 . S
C454 H455 0.961 . S
C454 H456 0.961 . S
C454 H457 0.960 . S
H455 C454 0.961 . S
H456 C454 0.961 . S
H457 C454 0.960 . S
C458 N459 1.342 . S
C458 C462 1.401 . S
C458 C463 1.499 . S
N459 Co442 1.989 . S
N459 C458 1.342 . S
N459 N460 1.388 . S
N460 Co443 1.993 1_554 S
N460 N459 1.388 . S
N460 C461 1.346 1_554 S
C461 N460 1.346 1_556 S
C461 C462 1.396 1_556 S
C461 C471 1.510 . S
C462 C458 1.401 . S
C462 C461 1.396 1_554 S
C463 C458 1.499 . S
C463 H464 0.959 . S
C463 H465 0.960 . S
C463 H466 0.961 . S
H464 C463 0.959 . S
H465 C463 0.960 . S
H466 C463 0.961 . S
O467 Co442 1.967 . S
O467 C475 1.258 . S
O468 Co443 1.941 1_554 S
O468 C475 1.266 . S
H469 C471 0.959 . S
H470 C471 0.961 . S
C471 C461 1.510 . S
C471 H469 0.959 . S
C471 H470 0.961 . S
C471 H472 0.960 . S
H472 C471 0.960 . S
H473 N453 0.862 . S
O474 Co442 1.920 . S
O474 C447 1.289 . S
C475 O467 1.258 . S
C475 O468 1.266 . S
Co476 O479 1.970 . S
Co476 N493 1.989 . S
Co476 O501 1.967 . S
Co476 O508 1.920 . S
Co477 O480 1.966 1_556 S
Co477 N486 2.022 . S
Co477 N494 1.993 1_556 S
Co477 O502 1.941 1_556 S
C478 O479 1.258 . S
C478 O480 1.263 . S
O479 Co476 1.970 . S
O479 C478 1.258 . S
O480 Co477 1.966 1_554 S
O480 C478 1.263 . S
C481 O482 1.235 . S
C481 O508 1.289 . S
O482 C481 1.235 . S
C483 C485 1.400 . S
C483 N486 1.351 . S
C483 C488 1.501 . S
C484 C485 1.387 . S
C484 N487 1.341 . S
C485 C483 1.400 . S
C485 C484 1.387 . S
N486 Co477 2.022 . S
N486 C483 1.351 . S
N486 N487 1.365 . S
N487 C484 1.341 . S
N487 N486 1.365 . S
N487 H507 0.862 . S
C488 C483 1.501 . S
C488 H489 0.961 . S
C488 H490 0.961 . S
C488 H491 0.960 . S
H489 C488 0.961 . S
H490 C488 0.961 . S
H491 C488 0.960 . S
C492 N493 1.342 . S
C492 C496 1.401 . S
C492 C497 1.499 . S
N493 Co476 1.989 . S
N493 C492 1.342 . S
N493 N494 1.388 . S
N494 Co477 1.993 1_554 S
N494 N493 1.388 . S
N494 C495 1.346 1_554 S
C495 N494 1.346 1_556 S
C495 C496 1.396 1_556 S
C495 C505 1.510 . S
C496 C492 1.401 . S
C496 C495 1.396 1_554 S
C497 C492 1.499 . S
C497 H498 0.959 . S
C497 H499 0.960 . S
C497 H500 0.961 . S
H498 C497 0.959 . S
H499 C497 0.960 . S
H500 C497 0.961 . S
O501 Co476 1.967 . S
O501 C509 1.258 . S
O502 Co477 1.941 1_554 S
O502 C509 1.266 . S
H503 C505 0.959 . S
H504 C505 0.961 . S
C505 C495 1.510 . S
C505 H503 0.959 . S
C505 H504 0.961 . S
C505 H506 0.960 . S
H506 C505 0.960 . S
H507 N487 0.862 . S
O508 Co476 1.920 . S
O508 C481 1.289 . S
C509 O501 1.258 . S
C509 O502 1.266 . S
Co510 O513 1.970 . S
Co510 N527 1.989 . S
Co510 O535 1.967 . S
Co510 O542 1.920 . S
Co511 O514 1.966 . S
Co511 N520 2.022 . S
Co511 N528 1.993 . S
Co511 O536 1.941 . S
C512 O513 1.258 . S
C512 O514 1.263 . S
O513 Co510 1.970 . S
O513 C512 1.258 . S
O514 Co511 1.966 . S
O514 C512 1.263 . S
C515 O516 1.235 1_556 S
C515 O542 1.289 1_556 S
O516 C515 1.235 1_554 S
C517 C519 1.400 . S
C517 N520 1.351 . S
C517 C522 1.501 . S
C518 C519 1.387 . S
C518 N521 1.341 . S
C519 C517 1.400 . S
C519 C518 1.387 . S
N520 Co511 2.022 . S
N520 C517 1.351 . S
N520 N521 1.365 . S
N521 C518 1.341 . S
N521 N520 1.365 . S
N521 H541 0.862 . S
C522 C517 1.501 . S
C522 H523 0.961 . S
C522 H524 0.961 . S
C522 H525 0.960 . S
H523 C522 0.961 . S
H524 C522 0.961 . S
H525 C522 0.960 . S
C526 N527 1.342 . S
C526 C530 1.401 . S
C526 C531 1.499 . S
N527 Co510 1.989 . S
N527 C526 1.342 . S
N527 N528 1.388 . S
N528 Co511 1.993 . S
N528 N527 1.388 . S
N528 C529 1.346 . S
C529 N528 1.346 . S
C529 C530 1.396 . S
C529 C539 1.510 . S
C530 C526 1.401 . S
C530 C529 1.396 . S
C531 C526 1.499 . S
C531 H532 0.959 . S
C531 H533 0.960 . S
C531 H534 0.961 . S
H532 C531 0.959 . S
H533 C531 0.960 . S
H534 C531 0.961 . S
O535 Co510 1.967 . S
O535 C543 1.258 . S
O536 Co511 1.941 . S
O536 C543 1.266 . S
H537 C539 0.959 . S
H538 C539 0.961 . S
C539 C529 1.510 . S
C539 H537 0.959 . S
C539 H538 0.961 . S
C539 H540 0.960 . S
H540 C539 0.960 . S
H541 N521 0.862 . S
O542 Co510 1.920 . S
O542 C515 1.289 1_554 S
C543 O535 1.258 . S
C543 O536 1.266 . S
Co544 O547 1.970 . S
Co544 N561 1.989 . S
Co544 O569 1.967 . S
Co544 O576 1.920 . S
Co545 O548 1.966 . S
Co545 N554 2.022 . S
Co545 N562 1.993 . S
Co545 O570 1.941 . S
C546 O547 1.258 . S
C546 O548 1.263 . S
O547 Co544 1.970 . S
O547 C546 1.258 . S
O548 Co545 1.966 . S
O548 C546 1.263 . S
C549 O550 1.235 1_556 S
C549 O576 1.289 1_556 S
O550 C549 1.235 1_554 S
C551 C553 1.400 . S
C551 N554 1.351 . S
C551 C556 1.501 . S
C552 C553 1.387 . S
C552 N555 1.341 . S
C553 C551 1.400 . S
C553 C552 1.387 . S
N554 Co545 2.022 . S
N554 C551 1.351 . S
N554 N555 1.365 . S
N555 C552 1.341 . S
N555 N554 1.365 . S
N555 H575 0.862 . S
C556 C551 1.501 . S
C556 H557 0.961 . S
C556 H558 0.961 . S
C556 H559 0.960 . S
H557 C556 0.961 . S
H558 C556 0.961 . S
H559 C556 0.960 . S
C560 N561 1.342 . S
C560 C564 1.401 . S
C560 C565 1.499 . S
N561 Co544 1.989 . S
N561 C560 1.342 . S
N561 N562 1.388 . S
N562 Co545 1.993 . S
N562 N561 1.388 . S
N562 C563 1.346 . S
C563 N562 1.346 . S
C563 C564 1.396 . S
C563 C573 1.510 . S
C564 C560 1.401 . S
C564 C563 1.396 . S
C565 C560 1.499 . S
C565 H566 0.959 . S
C565 H567 0.960 . S
C565 H568 0.961 . S
H566 C565 0.959 . S
H567 C565 0.960 . S
H568 C565 0.961 . S
O569 Co544 1.967 . S
O569 C577 1.258 . S
O570 Co545 1.941 . S
O570 C577 1.266 . S
H571 C573 0.959 . S
H572 C573 0.961 . S
C573 C563 1.510 . S
C573 H571 0.959 . S
C573 H572 0.961 . S
C573 H574 0.960 . S
H574 C573 0.960 . S
H575 N555 0.862 . S
O576 Co544 1.920 . S
O576 C549 1.289 1_554 S
C577 O569 1.258 . S
C577 O570 1.266 . S
Co578 O581 1.970 . S
Co578 N595 1.989 . S
Co578 O603 1.967 . S
Co578 O610 1.920 . S
Co579 O582 1.966 . S
Co579 N588 2.022 . S
Co579 N596 1.993 . S
Co579 O604 1.941 . S
C580 O581 1.258 . S
C580 O582 1.263 . S
O581 Co578 1.970 . S
O581 C580 1.258 . S
O582 Co579 1.966 . S
O582 C580 1.263 . S
C583 O584 1.235 1_556 S
C583 O610 1.289 1_556 S
O584 C583 1.235 1_554 S
C585 C587 1.400 . S
C585 N588 1.351 . S
C585 C590 1.501 . S
C586 C587 1.387 . S
C586 N589 1.341 . S
C587 C585 1.400 . S
C587 C586 1.387 . S
N588 Co579 2.022 . S
N588 C585 1.351 . S
N588 N589 1.365 . S
N589 C586 1.341 . S
N589 N588 1.365 . S
N589 H609 0.862 . S
C590 C585 1.501 . S
C590 H591 0.961 . S
C590 H592 0.961 . S
C590 H593 0.960 . S
H591 C590 0.961 . S
H592 C590 0.961 . S
H593 C590 0.960 . S
C594 N595 1.342 . S
C594 C598 1.401 . S
C594 C599 1.499 . S
N595 Co578 1.989 . S
N595 C594 1.342 . S
N595 N596 1.388 . S
N596 Co579 1.993 . S
N596 N595 1.388 . S
N596 C597 1.346 . S
C597 N596 1.346 . S
C597 C598 1.396 . S
C597 C607 1.510 . S
C598 C594 1.401 . S
C598 C597 1.396 . S
C599 C594 1.499 . S
C599 H600 0.959 . S
C599 H601 0.960 . S
C599 H602 0.961 . S
H600 C599 0.959 . S
H601 C599 0.960 . S
H602 C599 0.961 . S
O603 Co578 1.967 . S
O603 C611 1.258 . S
O604 Co579 1.941 . S
O604 C611 1.266 . S
H605 C607 0.959 . S
H606 C607 0.961 . S
C607 C597 1.510 . S
C607 H605 0.959 . S
C607 H606 0.961 . S
C607 H608 0.960 . S
H608 C607 0.960 . S
H609 N589 0.862 . S
O610 Co578 1.920 . S
O610 C583 1.289 1_554 S
C611 O603 1.258 . S
C611 O604 1.266 . S
C612 C613 1.369 . S
C612 C614 1.419 . S
C612 H616 0.930 . S
C613 C612 1.369 . S
C613 C622 1.429 . S
C614 C612 1.419 . S
C614 C615 1.363 . S
C614 H617 0.929 . S
C615 C614 1.363 . S
C615 C621 1.428 . S
H616 C612 0.930 . S
H617 C614 0.929 . S
S618 N619 1.613 . S
S618 N620 1.610 . S
N619 S618 1.613 . S
N619 C622 1.350 . S
N620 S618 1.610 . S
N620 C621 1.351 . S
C621 C615 1.428 . S
C621 N620 1.351 . S
C621 C622 1.434 . S
C622 C613 1.429 . S
C622 N619 1.350 . S
C622 C621 1.434 . S
C623 C624 1.369 . S
C623 C625 1.419 1_545 S
C623 H627 0.930 . S
C624 C623 1.369 . S
C624 C633 1.429 . S
C625 C623 1.419 1_565 S
C625 C626 1.363 . S
C625 H628 0.929 . S
C626 C625 1.363 . S
C626 C632 1.428 . S
H627 C623 0.930 . S
H628 C625 0.929 . S
S629 N630 1.613 1_565 S
S629 N631 1.610 . S
N630 S629 1.613 1_545 S
N630 C633 1.350 . S
N631 S629 1.610 . S
N631 C632 1.351 . S
C632 C626 1.428 . S
C632 N631 1.351 . S
C632 C633 1.434 1_565 S
C633 C624 1.429 . S
C633 N630 1.350 . S
C633 C632 1.434 1_545 S
C634 C635 1.369 . S
C634 C636 1.419 1_655 S
C634 H638 0.930 . S
C635 C634 1.369 . S
C635 C644 1.429 . S
C636 C634 1.419 1_455 S
C636 C637 1.363 . S
C636 H639 0.929 . S
C637 C636 1.363 . S
C637 C643 1.428 . S
H638 C634 0.930 . S
H639 C636 0.929 . S
S640 N641 1.613 1_455 S
S640 N642 1.610 . S
N641 S640 1.613 1_655 S
N641 C644 1.350 . S
N642 S640 1.610 . S
N642 C643 1.351 . S
C643 C637 1.428 . S
C643 N642 1.351 . S
C643 C644 1.434 1_455 S
C644 C635 1.429 . S
C644 N641 1.350 . S
C644 C643 1.434 1_655 S
C645 C646 1.369 . S
C645 C647 1.419 . S
C645 H649 0.930 . S
C646 C645 1.369 . S
C646 C655 1.429 . S
C647 C645 1.419 . S
C647 C648 1.363 . S
C647 H650 0.929 . S
C648 C647 1.363 . S
C648 C654 1.428 . S
H649 C645 0.930 . S
H650 C647 0.929 . S
S651 N652 1.613 . S
S651 N653 1.610 . S
N652 S651 1.613 . S
N652 C655 1.350 . S
N653 S651 1.610 . S
N653 C654 1.351 . S
C654 C648 1.428 . S
C654 N653 1.351 . S
C654 C655 1.434 . S
C655 C646 1.429 . S
C655 N652 1.350 . S
C655 C654 1.434 . S
C656 C657 1.369 . S
C656 C658 1.419 1_545 S
C656 H660 0.930 . S
C657 C656 1.369 . S
C657 C666 1.429 . S
C658 C656 1.419 1_565 S
C658 C659 1.363 . S
C658 H661 0.929 . S
C659 C658 1.363 . S
C659 C665 1.428 . S
H660 C656 0.930 . S
H661 C658 0.929 . S
S662 N663 1.613 1_565 S
S662 N664 1.610 . S
N663 S662 1.613 1_545 S
N663 C666 1.350 . S
N664 S662 1.610 . S
N664 C665 1.351 . S
C665 C659 1.428 . S
C665 N664 1.351 . S
C665 C666 1.434 1_565 S
C666 C657 1.429 . S
C666 N663 1.350 . S
C666 C665 1.434 1_545 S
C667 C668 1.369 . S
C667 C669 1.419 1_655 S
C667 H671 0.930 . S
C668 C667 1.369 . S
C668 C677 1.429 . S
C669 C667 1.419 1_455 S
C669 C670 1.363 . S
C669 H672 0.929 . S
C670 C669 1.363 . S
C670 C676 1.428 . S
H671 C667 0.930 . S
H672 C669 0.929 . S
S673 N674 1.613 . S
S673 N675 1.610 1_655 S
N674 S673 1.613 . S
N674 C677 1.350 . S
N675 S673 1.610 1_455 S
N675 C676 1.351 . S
C676 C670 1.428 . S
C676 N675 1.351 . S
C676 C677 1.434 1_455 S
C677 C668 1.429 . S
C677 N674 1.350 . S
C677 C676 1.434 1_655 S
C678 C679 1.369 . S
C678 C680 1.419 . S
C678 H682 0.930 . S
C679 C678 1.369 . S
C679 C688 1.429 . S
C680 C678 1.419 . S
C680 C681 1.363 . S
C680 H683 0.929 . S
C681 C680 1.363 . S
C681 C687 1.428 . S
H682 C678 0.930 . S
H683 C680 0.929 . S
S684 N685 1.613 . S
S684 N686 1.610 1_554 S
N685 S684 1.613 . S
N685 C688 1.350 1_554 S
N686 S684 1.610 1_556 S
N686 C687 1.351 . S
C687 C681 1.428 . S
C687 N686 1.351 . S
C687 C688 1.434 . S
C688 C679 1.429 . S
C688 N685 1.350 1_556 S
C688 C687 1.434 . S
C689 C690 1.369 . S
C689 C691 1.419 . S
C689 H693 0.930 . S
C690 C689 1.369 . S
C690 C699 1.429 . S
C691 C689 1.419 . S
C691 C692 1.363 . S
C691 H694 0.929 . S
C692 C691 1.363 . S
C692 C698 1.428 . S
H693 C689 0.930 . S
H694 C691 0.929 . S
S695 N696 1.613 . S
S695 N697 1.610 . S
N696 S695 1.613 . S
N696 C699 1.350 . S
N697 S695 1.610 . S
N697 C698 1.351 . S
C698 C692 1.428 . S
C698 N697 1.351 . S
C698 C699 1.434 . S
C699 C690 1.429 . S
C699 N696 1.350 . S
C699 C698 1.434 . S
C700 C701 1.369 . S
C700 C702 1.419 . S
C700 H704 0.930 . S
C701 C700 1.369 . S
C701 C710 1.429 . S
C702 C700 1.419 . S
C702 C703 1.363 . S
C702 H705 0.929 . S
C703 C702 1.363 . S
C703 C709 1.428 . S
H704 C700 0.930 . S
H705 C702 0.929 . S
S706 N707 1.613 . S
S706 N708 1.610 . S
N707 S706 1.613 . S
N707 C710 1.350 . S
N708 S706 1.610 . S
N708 C709 1.351 . S
C709 C703 1.428 . S
C709 N708 1.351 . S
C709 C710 1.434 . S
C710 C701 1.429 . S
C710 N707 1.350 . S
C710 C709 1.434 . S
C711 C712 1.369 . S
C711 C713 1.419 . S
C711 H715 0.930 . S
C712 C711 1.369 . S
C712 C721 1.429 . S
C713 C711 1.419 . S
C713 C714 1.363 . S
C713 H716 0.929 . S
C714 C713 1.363 . S
C714 C720 1.428 . S
H715 C711 0.930 . S
H716 C713 0.929 . S
S717 N718 1.613 1_554 S
S717 N719 1.610 . S
N718 S717 1.613 1_556 S
N718 C721 1.350 . S
N719 S717 1.610 . S
N719 C720 1.351 1_554 S
C720 C714 1.428 . S
C720 N719 1.351 1_556 S
C720 C721 1.434 . S
C721 C712 1.429 . S
C721 N718 1.350 . S
C721 C720 1.434 . S
C722 C723 1.369 . S
C722 C724 1.419 . S
C722 H726 0.930 . S
C723 C722 1.369 . S
C723 C732 1.429 . S
C724 C722 1.419 . S
C724 C725 1.363 . S
C724 H727 0.929 . S
C725 C724 1.363 . S
C725 C731 1.428 . S
H726 C722 0.930 . S
H727 C724 0.929 . S
S728 N729 1.613 . S
S728 N730 1.610 . S
N729 S728 1.613 . S
N729 C732 1.350 . S
N730 S728 1.610 . S
N730 C731 1.351 . S
C731 C725 1.428 . S
C731 N730 1.351 . S
C731 C732 1.434 . S
C732 C723 1.429 . S
C732 N729 1.350 . S
C732 C731 1.434 . S
C733 C734 1.369 . S
C733 C735 1.419 . S
C733 H737 0.930 . S
C734 C733 1.369 . S
C734 C743 1.429 . S
C735 C733 1.419 . S
C735 C736 1.363 . S
C735 H738 0.929 . S
C736 C735 1.363 . S
C736 C742 1.428 . S
H737 C733 0.930 . S
H738 C735 0.929 . S
S739 N740 1.613 . S
S739 N741 1.610 . S
N740 S739 1.613 . S
N740 C743 1.350 . S
N741 S739 1.610 . S
N741 C742 1.351 . S
C742 C736 1.428 . S
C742 N741 1.351 . S
C742 C743 1.434 . S
C743 C734 1.429 . S
C743 N740 1.350 . S
C743 C742 1.434 . S
C744 C745 1.369 . S
C744 C746 1.419 . S
C744 H748 0.930 . S
C745 C744 1.369 . S
C745 C754 1.429 . S
C746 C744 1.419 . S
C746 C747 1.363 . S
C746 H749 0.929 . S
C747 C746 1.363 . S
C747 C753 1.428 . S
H748 C744 0.930 . S
H749 C746 0.929 . S
S750 N751 1.613 . S
S750 N752 1.610 . S
N751 S750 1.613 . S
N751 C754 1.350 . S
N752 S750 1.610 . S
N752 C753 1.351 . S
C753 C747 1.428 . S
C753 N752 1.351 . S
C753 C754 1.434 . S
C754 C745 1.429 . S
C754 N751 1.350 . S
C754 C753 1.434 . S
C755 C756 1.369 . S
C755 C757 1.419 . S
C755 H759 0.930 . S
C756 C755 1.369 . S
C756 C765 1.429 . S
C757 C755 1.419 . S
C757 C758 1.363 . S
C757 H760 0.929 . S
C758 C757 1.363 . S
C758 C764 1.428 . S
H759 C755 0.930 . S
H760 C757 0.929 . S
S761 N762 1.613 1_556 S
S761 N763 1.610 . S
N762 S761 1.613 1_554 S
N762 C765 1.350 . S
N763 S761 1.610 . S
N763 C764 1.351 1_556 S
C764 C758 1.428 . S
C764 N763 1.351 1_554 S
C764 C765 1.434 . S
C765 C756 1.429 . S
C765 N762 1.350 . S
C765 C764 1.434 . S
C766 C767 1.369 . S
C766 C768 1.419 . S
C766 H770 0.930 . S
C767 C766 1.369 . S
C767 C776 1.429 . S
C768 C766 1.419 . S
C768 C769 1.363 . S
C768 H771 0.929 . S
C769 C768 1.363 . S
C769 C775 1.428 . S
H770 C766 0.930 . S
H771 C768 0.929 . S
S772 N773 1.613 . S
S772 N774 1.610 . S
N773 S772 1.613 . S
N773 C776 1.350 . S
N774 S772 1.610 . S
N774 C775 1.351 . S
C775 C769 1.428 . S
C775 N774 1.351 . S
C775 C776 1.434 . S
C776 C767 1.429 . S
C776 N773 1.350 . S
C776 C775 1.434 . S
C777 C778 1.369 . S
C777 C779 1.419 . S
C777 H781 0.930 . S
C778 C777 1.369 . S
C778 C787 1.429 . S
C779 C777 1.419 . S
C779 C780 1.363 . S
C779 H782 0.929 . S
C780 C779 1.363 . S
C780 C786 1.428 . S
H781 C777 0.930 . S
H782 C779 0.929 . S
S783 N784 1.613 1_556 S
S783 N785 1.610 1_556 S
N784 S783 1.613 1_554 S
N784 C787 1.350 . S
N785 S783 1.610 1_554 S
N785 C786 1.351 . S
C786 C780 1.428 . S
C786 N785 1.351 . S
C786 C787 1.434 . S
C787 C778 1.429 . S
C787 N784 1.350 . S
C787 C786 1.434 . S
C788 C789 1.369 . S
C788 C790 1.419 . S
C788 H792 0.930 . S
C789 C788 1.369 . S
C789 C798 1.429 . S
C790 C788 1.419 . S
C790 C791 1.363 . S
C790 H793 0.929 . S
C791 C790 1.363 . S
C791 C797 1.428 . S
H792 C788 0.930 . S
H793 C790 0.929 . S
S794 N795 1.613 . S
S794 N796 1.610 . S
N795 S794 1.613 . S
N795 C798 1.350 . S
N796 S794 1.610 . S
N796 C797 1.351 . S
C797 C791 1.428 . S
C797 N796 1.351 . S
C797 C798 1.434 . S
C798 C789 1.429 . S
C798 N795 1.350 . S
C798 C797 1.434 . S
C799 C800 1.369 . S
C799 C801 1.419 . S
C799 H803 0.930 . S
C800 C799 1.369 . S
C800 C809 1.429 . S
C801 C799 1.419 . S
C801 C802 1.363 . S
C801 H804 0.929 . S
C802 C801 1.363 . S
C802 C808 1.428 . S
H803 C799 0.930 . S
H804 C801 0.929 . S
S805 N806 1.613 . S
S805 N807 1.610 1_556 S
N806 S805 1.613 . S
N806 C809 1.350 1_556 S
N807 S805 1.610 1_554 S
N807 C808 1.351 . S
C808 C802 1.428 . S
C808 N807 1.351 . S
C808 C809 1.434 . S
C809 C800 1.429 . S
C809 N806 1.350 1_554 S
C809 C808 1.434 . S
C810 C811 1.369 . S
C810 C812 1.419 . S
C810 H814 0.930 . S
C811 C810 1.369 . S
C811 C820 1.429 . S
C812 C810 1.419 . S
C812 C813 1.363 . S
C812 H815 0.929 . S
C813 C812 1.363 . S
C813 C819 1.428 . S
H814 C810 0.930 . S
H815 C812 0.929 . S
S816 N817 1.613 . S
S816 N818 1.610 . S
N817 S816 1.613 . S
N817 C820 1.350 . S
N818 S816 1.610 . S
N818 C819 1.351 . S
C819 C813 1.428 . S
C819 N818 1.351 . S
C819 C820 1.434 . S
C820 C811 1.429 . S
C820 N817 1.350 . S
C820 C819 1.434 . S
C821 C822 1.369 . S
C821 C823 1.419 . S
C821 H825 0.930 . S
C822 C821 1.369 . S
C822 C831 1.429 . S
C823 C821 1.419 . S
C823 C824 1.363 . S
C823 H826 0.929 . S
C824 C823 1.363 . S
C824 C830 1.428 . S
H825 C821 0.930 . S
H826 C823 0.929 . S
S827 N828 1.613 . S
S827 N829 1.610 . S
N828 S827 1.613 . S
N828 C831 1.350 . S
N829 S827 1.610 . S
N829 C830 1.351 . S
C830 C824 1.428 . S
C830 N829 1.351 . S
C830 C831 1.434 . S
C831 C822 1.429 . S
C831 N828 1.350 . S
C831 C830 1.434 . S
C832 C833 1.369 . S
C832 C834 1.419 . S
C832 H836 0.930 . S
C833 C832 1.369 . S
C833 C842 1.429 . S
C834 C832 1.419 . S
C834 C835 1.363 . S
C834 H837 0.929 . S
C835 C834 1.363 . S
C835 C841 1.428 . S
H836 C832 0.930 . S
H837 C834 0.929 . S
S838 N839 1.613 . S
S838 N840 1.610 . S
N839 S838 1.613 . S
N839 C842 1.350 . S
N840 S838 1.610 . S
N840 C841 1.351 . S
C841 C835 1.428 . S
C841 N840 1.351 . S
C841 C842 1.434 . S
C842 C833 1.429 . S
C842 N839 1.350 . S
C842 C841 1.434 . S
C843 C844 1.369 . S
C843 C845 1.419 . S
C843 H847 0.930 . S
C844 C843 1.369 . S
C844 C853 1.429 . S
C845 C843 1.419 . S
C845 C846 1.363 . S
C845 H848 0.929 . S
C846 C845 1.363 . S
C846 C852 1.428 . S
H847 C843 0.930 . S
H848 C845 0.929 . S
S849 N850 1.613 . S
S849 N851 1.610 . S
N850 S849 1.613 . S
N850 C853 1.350 . S
N851 S849 1.610 . S
N851 C852 1.351 . S
C852 C846 1.428 . S
C852 N851 1.351 . S
C852 C853 1.434 . S
C853 C844 1.429 . S
C853 N850 1.350 . S
C853 C852 1.434 . S
C854 C855 1.369 . S
C854 C856 1.419 . S
C854 H858 0.930 . S
C855 C854 1.369 . S
C855 C864 1.429 . S
C856 C854 1.419 . S
C856 C857 1.363 . S
C856 H859 0.929 . S
C857 C856 1.363 . S
C857 C863 1.428 . S
H858 C854 0.930 . S
H859 C856 0.929 . S
S860 N861 1.613 . S
S860 N862 1.610 . S
N861 S860 1.613 . S
N861 C864 1.350 . S
N862 S860 1.610 . S
N862 C863 1.351 . S
C863 C857 1.428 . S
C863 N862 1.351 . S
C863 C864 1.434 . S
C864 C855 1.429 . S
C864 N861 1.350 . S
C864 C863 1.434 . S
C865 C866 1.369 . S
C865 C867 1.419 . S
C865 H869 0.930 . S
C866 C865 1.369 . S
C866 C875 1.429 . S
C867 C865 1.419 . S
C867 C868 1.363 . S
C867 H870 0.929 . S
C868 C867 1.363 . S
C868 C874 1.428 . S
H869 C865 0.930 . S
H870 C867 0.929 . S
S871 N872 1.613 . S
S871 N873 1.610 . S
N872 S871 1.613 . S
N872 C875 1.350 . S
N873 S871 1.610 . S
N873 C874 1.351 . S
C874 C868 1.428 . S
C874 N873 1.351 . S
C874 C875 1.434 . S
C875 C866 1.429 . S
C875 N872 1.350 . S
C875 C874 1.434 . S
C876 C877 1.369 1_556 S
C876 C878 1.419 1_455 S
C876 H880 0.930 . S
C877 C876 1.369 1_554 S
C877 C886 1.429 . S
C878 C876 1.419 1_655 S
C878 C879 1.363 . S
C878 H881 0.929 . S
C879 C878 1.363 . S
C879 C885 1.428 1_556 S
H880 C876 0.930 . S
H881 C878 0.929 . S
S882 N883 1.613 1_655 S
S882 N884 1.610 . S
N883 S882 1.613 1_455 S
N883 C886 1.350 . S
N884 S882 1.610 . S
N884 C885 1.351 . S
C885 C879 1.428 1_554 S
C885 N884 1.351 . S
C885 C886 1.434 1_655 S
C886 C877 1.429 . S
C886 N883 1.350 . S
C886 C885 1.434 1_455 S
C887 C888 1.369 . S
C887 C889 1.419 1_554 S
C887 H891 0.930 . S
C888 C887 1.369 . S
C888 C897 1.429 . S
C889 C887 1.419 1_556 S
C889 C890 1.363 . S
C889 H892 0.929 . S
C890 C889 1.363 . S
C890 C896 1.428 . S
H891 C887 0.930 . S
H892 C889 0.929 . S
S893 N894 1.613 1_556 S
S893 N895 1.610 . S
N894 S893 1.613 1_554 S
N894 C897 1.350 . S
N895 S893 1.610 . S
N895 C896 1.351 . S
C896 C890 1.428 . S
C896 N895 1.351 . S
C896 C897 1.434 1_556 S
C897 C888 1.429 . S
C897 N894 1.350 . S
C897 C896 1.434 1_554 S
C898 C899 1.369 1_554 S
C898 C900 1.419 1_545 S
C898 H902 0.930 . S
C899 C898 1.369 1_556 S
C899 C908 1.429 . S
C900 C898 1.419 1_565 S
C900 C901 1.363 . S
C900 H903 0.929 . S
C901 C900 1.363 . S
C901 C907 1.428 1_554 S
H902 C898 0.930 . S
H903 C900 0.929 . S
S904 N905 1.613 1_565 S
S904 N906 1.610 . S
N905 S904 1.613 1_545 S
N905 C908 1.350 . S
N906 S904 1.610 . S
N906 C907 1.351 . S
C907 C901 1.428 1_556 S
C907 N906 1.351 . S
C907 C908 1.434 1_565 S
C908 C899 1.429 . S
C908 N905 1.350 . S
C908 C907 1.434 1_545 S
C909 C910 1.369 . S
C909 C911 1.419 . S
C909 H913 0.930 . S
C910 C909 1.369 . S
C910 C919 1.429 . S
C911 C909 1.419 . S
C911 C912 1.363 . S
C911 H914 0.929 . S
C912 C911 1.363 . S
C912 C918 1.428 . S
H913 C909 0.930 . S
H914 C911 0.929 . S
S915 N916 1.613 . S
S915 N917 1.610 . S
N916 S915 1.613 . S
N916 C919 1.350 . S
N917 S915 1.610 . S
N917 C918 1.351 . S
C918 C912 1.428 . S
C918 N917 1.351 . S
C918 C919 1.434 . S
C919 C910 1.429 . S
C919 N916 1.350 . S
C919 C918 1.434 . S
C920 C921 1.369 . S
C920 C922 1.419 . S
C920 H924 0.930 . S
C921 C920 1.369 . S
C921 C930 1.429 . S
C922 C920 1.419 . S
C922 C923 1.363 . S
C922 H925 0.929 . S
C923 C922 1.363 . S
C923 C929 1.428 . S
H924 C920 0.930 . S
H925 C922 0.929 . S
S926 N927 1.613 . S
S926 N928 1.610 1_556 S
N927 S926 1.613 . S
N927 C930 1.350 . S
N928 S926 1.610 1_554 S
N928 C929 1.351 1_554 S
C929 C923 1.428 . S
C929 N928 1.351 1_556 S
C929 C930 1.434 . S
C930 C921 1.429 . S
C930 N927 1.350 . S
C930 C929 1.434 . S
C931 C932 1.369 . S
C931 C933 1.419 . S
C931 H935 0.930 . S
C932 C931 1.369 . S
C932 C941 1.429 . S
C933 C931 1.419 . S
C933 C934 1.363 . S
C933 H936 0.929 . S
C934 C933 1.363 . S
C934 C940 1.428 . S
H935 C931 0.930 . S
H936 C933 0.929 . S
S937 N938 1.613 . S
S937 N939 1.610 . S
N938 S937 1.613 . S
N938 C941 1.350 . S
N939 S937 1.610 . S
N939 C940 1.351 . S
C940 C934 1.428 . S
C940 N939 1.351 . S
C940 C941 1.434 . S
C941 C932 1.429 . S
C941 N938 1.350 . S
C941 C940 1.434 . S
C942 C943 1.369 . S
C942 C944 1.419 . S
C942 H946 0.930 . S
C943 C942 1.369 . S
C943 C952 1.429 . S
C944 C942 1.419 . S
C944 C945 1.363 . S
C944 H947 0.929 . S
C945 C944 1.363 . S
C945 C951 1.428 . S
H946 C942 0.930 . S
H947 C944 0.929 . S
S948 N949 1.613 . S
S948 N950 1.610 . S
N949 S948 1.613 . S
N949 C952 1.350 . S
N950 S948 1.610 . S
N950 C951 1.351 . S
C951 C945 1.428 . S
C951 N950 1.351 . S
C951 C952 1.434 . S
C952 C943 1.429 . S
C952 N949 1.350 . S
C952 C951 1.434 . S
C953 C954 1.369 . S
C953 C955 1.419 . S
C953 H957 0.930 . S
C954 C953 1.369 . S
C954 C963 1.429 . S
C955 C953 1.419 . S
C955 C956 1.363 . S
C955 H958 0.929 . S
C956 C955 1.363 . S
C956 C962 1.428 . S
H957 C953 0.930 . S
H958 C955 0.929 . S
S959 N960 1.613 1_554 S
S959 N961 1.610 . S
N960 S959 1.613 1_556 S
N960 C963 1.350 1_556 S
N961 S959 1.610 . S
N961 C962 1.351 . S
C962 C956 1.428 . S
C962 N961 1.351 . S
C962 C963 1.434 . S
C963 C954 1.429 . S
C963 N960 1.350 1_554 S
C963 C962 1.434 . S
C964 C965 1.369 . S
C964 C966 1.419 . S
C964 H968 0.930 . S
C965 C964 1.369 . S
C965 C974 1.429 . S
C966 C964 1.419 . S
C966 C967 1.363 . S
C966 H969 0.929 . S
C967 C966 1.363 . S
C967 C973 1.428 . S
H968 C964 0.930 . S
H969 C966 0.929 . S
S970 N971 1.613 . S
S970 N972 1.610 1_554 S
N971 S970 1.613 . S
N971 C974 1.350 . S
N972 S970 1.610 1_556 S
N972 C973 1.351 1_556 S
C973 C967 1.428 . S
C973 N972 1.351 1_554 S
C973 C974 1.434 . S
C974 C965 1.429 . S
C974 N971 1.350 . S
C974 C973 1.434 . S
C975 C976 1.369 . S
C975 C977 1.419 . S
C975 H979 0.930 . S
C976 C975 1.369 . S
C976 C985 1.429 . S
C977 C975 1.419 . S
C977 C978 1.363 . S
C977 H980 0.929 . S
C978 C977 1.363 . S
C978 C984 1.428 . S
H979 C975 0.930 . S
H980 C977 0.929 . S
S981 N982 1.613 . S
S981 N983 1.610 . S
N982 S981 1.613 . S
N982 C985 1.350 . S
N983 S981 1.610 . S
N983 C984 1.351 . S
C984 C978 1.428 . S
C984 N983 1.351 . S
C984 C985 1.434 . S
C985 C976 1.429 . S
C985 N982 1.350 . S
C985 C984 1.434 . S
C986 C987 1.369 . S
C986 C988 1.419 . S
C986 H990 0.930 . S
C987 C986 1.369 . S
C987 C996 1.429 . S
C988 C986 1.419 . S
C988 C989 1.363 . S
C988 H991 0.929 . S
C989 C988 1.363 . S
C989 C995 1.428 . S
H990 C986 0.930 . S
H991 C988 0.929 . S
S992 N993 1.613 . S
S992 N994 1.610 . S
N993 S992 1.613 . S
N993 C996 1.350 . S
N994 S992 1.610 . S
N994 C995 1.351 . S
C995 C989 1.428 . S
C995 N994 1.351 . S
C995 C996 1.434 . S
C996 C987 1.429 . S
C996 N993 1.350 . S
C996 C995 1.434 . S
C997 C998 1.369 . S
C997 C999 1.419 . S
C997 H1001 0.930 . S
C998 C997 1.369 . S
C998 C1007 1.429 . S
C999 C997 1.419 . S
C999 C1000 1.363 . S
C999 H1002 0.929 . S
C1000 C999 1.363 . S
C1000 C1006 1.428 . S
H1001 C997 0.930 . S
H1002 C999 0.929 . S
S1003 N1004 1.613 . S
S1003 N1005 1.610 . S
N1004 S1003 1.613 . S
N1004 C1007 1.350 . S
N1005 S1003 1.610 . S
N1005 C1006 1.351 . S
C1006 C1000 1.428 . S
C1006 N1005 1.351 . S
C1006 C1007 1.434 . S
C1007 C998 1.429 . S
C1007 N1004 1.350 . S
C1007 C1006 1.434 . S
C1008 C1009 1.369 . S
C1008 C1010 1.419 . S
C1008 H1012 0.930 . S
C1009 C1008 1.369 . S
C1009 C1018 1.429 . S
C1010 C1008 1.419 . S
C1010 C1011 1.363 . S
C1010 H1013 0.929 . S
C1011 C1010 1.363 . S
C1011 C1017 1.428 . S
H1012 C1008 0.930 . S
H1013 C1010 0.929 . S
S1014 N1015 1.613 . S
S1014 N1016 1.610 . S
N1015 S1014 1.613 . S
N1015 C1018 1.350 . S
N1016 S1014 1.610 . S
N1016 C1017 1.351 . S
C1017 C1011 1.428 . S
C1017 N1016 1.351 . S
C1017 C1018 1.434 . S
C1018 C1009 1.429 . S
C1018 N1015 1.350 . S
C1018 C1017 1.434 . S
C1019 C1020 1.369 . S
C1019 C1021 1.419 . S
C1019 H1023 0.930 . S
C1020 C1019 1.369 . S
C1020 C1029 1.429 . S
C1021 C1019 1.419 . S
C1021 C1022 1.363 . S
C1021 H1024 0.929 . S
C1022 C1021 1.363 . S
C1022 C1028 1.428 . S
H1023 C1019 0.930 . S
H1024 C1021 0.929 . S
S1025 N1026 1.613 . S
S1025 N1027 1.610 . S
N1026 S1025 1.613 . S
N1026 C1029 1.350 . S
N1027 S1025 1.610 . S
N1027 C1028 1.351 . S
C1028 C1022 1.428 . S
C1028 N1027 1.351 . S
C1028 C1029 1.434 . S
C1029 C1020 1.429 . S
C1029 N1026 1.350 . S
C1029 C1028 1.434 . S
C1030 C1031 1.369 . S
C1030 C1032 1.419 . S
C1030 H1034 0.930 . S
C1031 C1030 1.369 . S
C1031 C1040 1.429 . S
C1032 C1030 1.419 . S
C1032 C1033 1.363 . S
C1032 H1035 0.929 . S
C1033 C1032 1.363 . S
C1033 C1039 1.428 . S
H1034 C1030 0.930 . S
H1035 C1032 0.929 . S
S1036 N1037 1.613 . S
S1036 N1038 1.610 . S
N1037 S1036 1.613 . S
N1037 C1040 1.350 . S
N1038 S1036 1.610 . S
N1038 C1039 1.351 . S
C1039 C1033 1.428 . S
C1039 N1038 1.351 . S
C1039 C1040 1.434 . S
C1040 C1031 1.429 . S
C1040 N1037 1.350 . S
C1040 C1039 1.434 . S
C1041 C1042 1.369 . S
C1041 C1043 1.419 . S
C1041 H1045 0.930 . S
C1042 C1041 1.369 . S
C1042 C1051 1.429 . S
C1043 C1041 1.419 . S
C1043 C1044 1.363 . S
C1043 H1046 0.929 . S
C1044 C1043 1.363 . S
C1044 C1050 1.428 . S
H1045 C1041 0.930 . S
H1046 C1043 0.929 . S
S1047 N1048 1.613 . S
S1047 N1049 1.610 . S
N1048 S1047 1.613 . S
N1048 C1051 1.350 . S
N1049 S1047 1.610 . S
N1049 C1050 1.351 . S
C1050 C1044 1.428 . S
C1050 N1049 1.351 . S
C1050 C1051 1.434 . S
C1051 C1042 1.429 . S
C1051 N1048 1.350 . S
C1051 C1050 1.434 . S
C1052 C1053 1.369 . S
C1052 C1054 1.419 . S
C1052 H1056 0.930 . S
C1053 C1052 1.369 . S
C1053 C1062 1.429 . S
C1054 C1052 1.419 . S
C1054 C1055 1.363 . S
C1054 H1057 0.929 . S
C1055 C1054 1.363 . S
C1055 C1061 1.428 . S
H1056 C1052 0.930 . S
H1057 C1054 0.929 . S
S1058 N1059 1.613 . S
S1058 N1060 1.610 . S
N1059 S1058 1.613 . S
N1059 C1062 1.350 . S
N1060 S1058 1.610 . S
N1060 C1061 1.351 . S
C1061 C1055 1.428 . S
C1061 N1060 1.351 . S
C1061 C1062 1.434 . S
C1062 C1053 1.429 . S
C1062 N1059 1.350 . S
C1062 C1061 1.434 . S
C1063 C1064 1.369 . S
C1063 C1065 1.419 . S
C1063 H1067 0.930 . S
C1064 C1063 1.369 . S
C1064 C1073 1.429 . S
C1065 C1063 1.419 . S
C1065 C1066 1.363 . S
C1065 H1068 0.929 . S
C1066 C1065 1.363 . S
C1066 C1072 1.428 . S
H1067 C1063 0.930 . S
H1068 C1065 0.929 . S
S1069 N1070 1.613 . S
S1069 N1071 1.610 . S
N1070 S1069 1.613 . S
N1070 C1073 1.350 . S
N1071 S1069 1.610 . S
N1071 C1072 1.351 . S
C1072 C1066 1.428 . S
C1072 N1071 1.351 . S
C1072 C1073 1.434 . S
C1073 C1064 1.429 . S
C1073 N1070 1.350 . S
C1073 C1072 1.434 . S
C1074 C1075 1.369 . S
C1074 C1076 1.419 . S
C1074 H1078 0.930 . S
C1075 C1074 1.369 . S
C1075 C1084 1.429 . S
C1076 C1074 1.419 . S
C1076 C1077 1.363 . S
C1076 H1079 0.929 . S
C1077 C1076 1.363 . S
C1077 C1083 1.428 . S
H1078 C1074 0.930 . S
H1079 C1076 0.929 . S
S1080 N1081 1.613 . S
S1080 N1082 1.610 . S
N1081 S1080 1.613 . S
N1081 C1084 1.350 . S
N1082 S1080 1.610 . S
N1082 C1083 1.351 . S
C1083 C1077 1.428 . S
C1083 N1082 1.351 . S
C1083 C1084 1.434 . S
C1084 C1075 1.429 . S
C1084 N1081 1.350 . S
C1084 C1083 1.434 . S
C1085 C1086 1.369 . S
C1085 C1087 1.419 . S
C1085 H1089 0.930 . S
C1086 C1085 1.369 . S
C1086 C1095 1.429 . S
C1087 C1085 1.419 . S
C1087 C1088 1.363 . S
C1087 H1090 0.929 . S
C1088 C1087 1.363 . S
C1088 C1094 1.428 . S
H1089 C1085 0.930 . S
H1090 C1087 0.929 . S
S1091 N1092 1.613 . S
S1091 N1093 1.610 . S
N1092 S1091 1.613 . S
N1092 C1095 1.350 . S
N1093 S1091 1.610 . S
N1093 C1094 1.351 . S
C1094 C1088 1.428 . S
C1094 N1093 1.351 . S
C1094 C1095 1.434 . S
C1095 C1086 1.429 . S
C1095 N1092 1.350 . S
C1095 C1094 1.434 . S
C1096 C1097 1.369 . S
C1096 C1098 1.419 . S
C1096 H1100 0.930 . S
C1097 C1096 1.369 . S
C1097 C1106 1.429 . S
C1098 C1096 1.419 . S
C1098 C1099 1.363 . S
C1098 H1101 0.929 . S
C1099 C1098 1.363 . S
C1099 C1105 1.428 . S
H1100 C1096 0.930 . S
H1101 C1098 0.929 . S
S1102 N1103 1.613 . S
S1102 N1104 1.610 . S
N1103 S1102 1.613 . S
N1103 C1106 1.350 . S
N1104 S1102 1.610 . S
N1104 C1105 1.351 . S
C1105 C1099 1.428 . S
C1105 N1104 1.351 . S
C1105 C1106 1.434 . S
C1106 C1097 1.429 . S
C1106 N1103 1.350 . S
C1106 C1105 1.434 . S
C613 C104 1.683 . S
C615 C2 1.685 . S
C624 C138 1.689 . S
C626 C36 1.687 . S
C635 C172 1.689 . S
C637 C70 1.685 . S
C646 C67 1.278 . S
C648 C203 1.276 . S
C657 C135 1.279 . S
C659 C101 1.276 . S
C668 C169 1.278 . S
C670 C33 1.278 . S
C679 C308 1.689 . S
C681 C206 1.685 . S
C690 C240 1.689 . S
C692 C342 1.686 . S
C701 C274 1.685 . S
C703 C376 1.688 . S
C712 C271 1.276 . S
C714 C407 1.278 . S
C723 C305 1.276 . S
C725 C339 1.277 . S
C734 C373 1.277 . S
C736 C237 1.277 . S
C745 C410 1.683 . S
C747 C512 1.686 . S
C756 C546 1.683 . S
C758 C444 1.688 . S
C767 C478 1.687 . S
C769 C580 1.688 . S
C778 C475 1.277 . S
C780 C611 1.276 . S
C789 C543 1.279 . S
C791 C509 1.277 . S
C800 C441 1.278 . S
C802 C577 1.276 . S
C811 C20 1.738 . S
C813 C598 1.737 . S
C822 C530 1.736 . S
C824 C54 1.737 . S
C833 C564 1.737 . S
C835 C88 1.738 . S
C844 C258 1.738 . S
C846 C122 1.737 . S
C855 C292 1.736 . S
C857 C156 1.738 . S
C866 C224 1.737 . S
C868 C190 1.739 . S
C877 C462 1.737 . S
C879 C326 1.736 . S
C888 C496 1.739 . S
C890 C360 1.739 . S
C899 C394 1.737 . S
C901 C428 1.736 . S
C910 C5 1.439 . S
C912 C9 1.359 1_556 S
C921 C39 1.443 . S
C923 C43 1.359 1_556 S
C932 C73 1.439 . S
C934 C77 1.359 1_556 S
C943 C111 1.359 1_554 S
C945 C107 1.442 . S
C954 C145 1.355 1_554 S
C956 C141 1.442 . S
C965 C175 1.441 . S
C967 C179 1.362 1_554 S
C976 C209 1.436 . S
C978 C213 1.363 . S
C987 C247 1.368 . S
C989 C243 1.437 . S
C998 C281 1.358 . S
C1000 C277 1.439 . S
C1009 C311 1.443 . S
C1011 C315 1.357 . S
C1020 C345 1.443 . S
C1022 C349 1.356 . S
C1031 C379 1.443 . S
C1033 C383 1.359 . S
C1042 C413 1.435 . S
C1044 C417 1.365 . S
C1053 C447 1.441 . S
C1055 C451 1.357 . S
C1064 C485 1.368 . S
C1066 C481 1.438 . S
C1075 C515 1.443 . S
C1077 C519 1.357 . S
C1086 C553 1.368 . S
C1088 C549 1.437 . S
C1097 C587 1.361 . S
C1099 C583 1.441 . S
