# Generated by pormake.
# Topology wla, (5)-cn, num edge types: 1
# Building blocks:
#     Node 0, Type 0, BuildingBlock: BEQFEK_clean_sbu_0, # of connection points: 5
#     Node 1, Type 0, BuildingBlock: BEQFEK_clean_sbu_0, # of connection points: 5
#     Node 2, Type 0, BuildingBlock: BEQFEK_clean_sbu_0, # of connection points: 5
#     Node 3, Type 0, BuildingBlock: BEQFEK_clean_sbu_0, # of connection points: 5
#     Node 4, Type 0, BuildingBlock: BEQFEK_clean_sbu_0, # of connection points: 5
#     Node 5, Type 0, BuildingBlock: BEQFEK_clean_sbu_0, # of connection points: 5
#     Node 6, Type 0, BuildingBlock: BEQFEK_clean_sbu_0, # of connection points: 5
#     Node 7, Type 0, BuildingBlock: BEQFEK_clean_sbu_0, # of connection points: 5
#     Node 8, Type 0, BuildingBlock: BEQFEK_clean_sbu_0, # of connection points: 5
#     Node 9, Type 0, BuildingBlock: BEQFEK_clean_sbu_0, # of connection points: 5
#     Node 10, Type 0, BuildingBlock: BEQFEK_clean_sbu_0, # of connection points: 5
#     Node 11, Type 0, BuildingBlock: BEQFEK_clean_sbu_0, # of connection points: 5
#     Node 12, Type 0, BuildingBlock: BEQFEK_clean_sbu_0, # of connection points: 5
#     Node 13, Type 0, BuildingBlock: BEQFEK_clean_sbu_0, # of connection points: 5
#     Node 14, Type 0, BuildingBlock: BEQFEK_clean_sbu_0, # of connection points: 5
#     Node 15, Type 0, BuildingBlock: BEQFEK_clean_sbu_0, # of connection points: 5
#     Node 16, Type 0, BuildingBlock: BEQFEK_clean_sbu_0, # of connection points: 5
#     Node 17, Type 0, BuildingBlock: BEQFEK_clean_sbu_0, # of connection points: 5
#     Edge 18, Type (0, 0), BuildingBlock: CIFDUS_clean_linker_0, # of connection points: 2
#     Edge 19, Type (0, 0), BuildingBlock: CIFDUS_clean_linker_0, # of connection points: 2
#     Edge 20, Type (0, 0), BuildingBlock: CIFDUS_clean_linker_0, # of connection points: 2
#     Edge 21, Type (0, 0), BuildingBlock: CIFDUS_clean_linker_0, # of connection points: 2
#     Edge 22, Type (0, 0), BuildingBlock: CIFDUS_clean_linker_0, # of connection points: 2
#     Edge 23, Type (0, 0), BuildingBlock: CIFDUS_clean_linker_0, # of connection points: 2
#     Edge 24, Type (0, 0), BuildingBlock: CIFDUS_clean_linker_0, # of connection points: 2
#     Edge 25, Type (0, 0), BuildingBlock: CIFDUS_clean_linker_0, # of connection points: 2
#     Edge 26, Type (0, 0), BuildingBlock: CIFDUS_clean_linker_0, # of connection points: 2
#     Edge 27, Type (0, 0), BuildingBlock: CIFDUS_clean_linker_0, # of connection points: 2
#     Edge 28, Type (0, 0), BuildingBlock: CIFDUS_clean_linker_0, # of connection points: 2
#     Edge 29, Type (0, 0), BuildingBlock: CIFDUS_clean_linker_0, # of connection points: 2
#     Edge 30, Type (0, 0), BuildingBlock: CIFDUS_clean_linker_0, # of connection points: 2
#     Edge 31, Type (0, 0), BuildingBlock: CIFDUS_clean_linker_0, # of connection points: 2
#     Edge 32, Type (0, 0), BuildingBlock: CIFDUS_clean_linker_0, # of connection points: 2
#     Edge 33, Type (0, 0), BuildingBlock: CIFDUS_clean_linker_0, # of connection points: 2
#     Edge 34, Type (0, 0), BuildingBlock: CIFDUS_clean_linker_0, # of connection points: 2
#     Edge 35, Type (0, 0), BuildingBlock: CIFDUS_clean_linker_0, # of connection points: 2
#     Edge 36, Type (0, 0), BuildingBlock: CIFDUS_clean_linker_0, # of connection points: 2
#     Edge 37, Type (0, 0), BuildingBlock: CIFDUS_clean_linker_0, # of connection points: 2
#     Edge 38, Type (0, 0), BuildingBlock: CIFDUS_clean_linker_0, # of connection points: 2
#     Edge 39, Type (0, 0), BuildingBlock: CIFDUS_clean_linker_0, # of connection points: 2
#     Edge 40, Type (0, 0), BuildingBlock: CIFDUS_clean_linker_0, # of connection points: 2
#     Edge 41, Type (0, 0), BuildingBlock: CIFDUS_clean_linker_0, # of connection points: 2
#     Edge 42, Type (0, 0), BuildingBlock: CIFDUS_clean_linker_0, # of connection points: 2
#     Edge 43, Type (0, 0), BuildingBlock: CIFDUS_clean_linker_0, # of connection points: 2
#     Edge 44, Type (0, 0), BuildingBlock: CIFDUS_clean_linker_0, # of connection points: 2
#     Edge 45, Type (0, 0), BuildingBlock: CIFDUS_clean_linker_0, # of connection points: 2
#     Edge 46, Type (0, 0), BuildingBlock: CIFDUS_clean_linker_0, # of connection points: 2
#     Edge 47, Type (0, 0), BuildingBlock: CIFDUS_clean_linker_0, # of connection points: 2
#     Edge 48, Type (0, 0), BuildingBlock: CIFDUS_clean_linker_0, # of connection points: 2
#     Edge 49, Type (0, 0), BuildingBlock: CIFDUS_clean_linker_0, # of connection points: 2
#     Edge 50, Type (0, 0), BuildingBlock: CIFDUS_clean_linker_0, # of connection points: 2
#     Edge 51, Type (0, 0), BuildingBlock: CIFDUS_clean_linker_0, # of connection points: 2
#     Edge 52, Type (0, 0), BuildingBlock: CIFDUS_clean_linker_0, # of connection points: 2
#     Edge 53, Type (0, 0), BuildingBlock: CIFDUS_clean_linker_0, # of connection points: 2
#     Edge 54, Type (0, 0), BuildingBlock: CIFDUS_clean_linker_0, # of connection points: 2
#     Edge 55, Type (0, 0), BuildingBlock: CIFDUS_clean_linker_0, # of connection points: 2
#     Edge 56, Type (0, 0), BuildingBlock: CIFDUS_clean_linker_0, # of connection points: 2
#     Edge 57, Type (0, 0), BuildingBlock: CIFDUS_clean_linker_0, # of connection points: 2
#     Edge 58, Type (0, 0), BuildingBlock: CIFDUS_clean_linker_0, # of connection points: 2
#     Edge 59, Type (0, 0), BuildingBlock: CIFDUS_clean_linker_0, # of connection points: 2
#     Edge 60, Type (0, 0), BuildingBlock: CIFDUS_clean_linker_0, # of connection points: 2
#     Edge 61, Type (0, 0), BuildingBlock: CIFDUS_clean_linker_0, # of connection points: 2
#     Edge 62, Type (0, 0), BuildingBlock: CIFDUS_clean_linker_0, # of connection points: 2
# Relax obj value: 0.267
# Max RMSD: 0.180
# Mean RMSD: 0.180
data_MOF--net-wla--node1-BEQFEK_clean_sbu_0--edge1-CIFDUS_clean_linker_0
_symmetry_space_group_name_H-M    P1
_symmetry_Int_Tables_number       1
_symmetry_cell_setting            triclinic
loop_
_symmetry_equiv_pos_as_xyz
'x, y, z'
_cell_length_a     56.995749
_cell_length_b     56.975718
_cell_length_c     26.64668
_cell_angle_alpha  89.993275
_cell_angle_beta   89.949495
_cell_angle_gamma 119.91166
loop_
_atom_site_label
_atom_site_type_symbol
_atom_site_fract_x
_atom_site_fract_y
_atom_site_fract_z
_atom_type_partial_charge
Co0 Co 0.12011 0.99103 0.28385 0.0
Co1 Co 0.17603 0.04246 0.26605 0.0
C2 C 0.16801 0.00329 0.34779 0.0
O3 O 0.14369 0.98793 0.33375 0.0
O4 O 0.18315 0.02609 0.32669 0.0
C5 C 0.0759 0.93628 0.30837 0.0
O6 O 0.0935 0.92877 0.32065 0.0
C7 C 0.23412 0.07902 0.24151 0.0
C8 C 0.23033 0.10889 0.19432 0.0
C9 C 0.24884 0.10174 0.21144 0.0
N10 N 0.20801 0.07273 0.24072 0.0
N11 N 0.20604 0.09092 0.21311 0.0
C12 C 0.24447 0.06377 0.2712 0.0
H13 H 0.23275 0.05602 0.30641 0.0
H14 H 0.24196 0.04619 0.24901 0.0
H15 H 0.26618 0.0769 0.28061 0.0
C16 C 0.1259 0.98274 0.17565 0.0
N17 N 0.13515 0.99596 0.21943 0.0
N18 N 0.15985 0.01638 0.21318 0.0
C19 C 0.16765 0.01601 0.16558 0.0
C20 C 0.14623 0.99505 0.13972 0.0
C21 C 0.09739 0.96041 0.1679 0.0
H22 H 0.08352 0.96289 0.19372 0.0
H23 H 0.09614 0.94073 0.17619 0.0
H24 H 0.09075 0.96013 0.12867 0.0
O25 O 0.1137 0.02083 0.29983 0.0
O26 O 0.15232 0.05801 0.28321 0.0
H27 H 0.19819 0.05418 0.13657 0.0
H28 H 0.20005 0.02548 0.11267 0.0
C29 C 0.19573 0.03416 0.14632 0.0
H30 H 0.2106 0.03693 0.17568 0.0
H31 H 0.18787 0.09053 0.20575 0.0
O32 O 0.0838 0.95959 0.29 0.0
C33 C 0.12766 0.04642 0.29677 0.0
Co34 Co -0.00518 0.11839 0.27581 0.0
Co35 Co 0.94227 0.12269 0.26592 0.0
C36 C 0.98033 0.14834 0.3516 0.0
O37 O -0.00356 0.14102 0.33381 0.0
O38 O 0.9582 0.1424 0.32963 0.0
C39 C 0.05299 0.13204 0.27189 0.0
O40 O 0.06111 0.15747 0.26124 0.0
C41 C 0.90644 0.14587 0.24891 0.0
C42 C 0.869 0.10921 0.22476 0.0
C43 C 0.88006 0.13664 0.23336 0.0
N44 N 0.91086 0.12478 0.24904 0.0
N45 N 0.88833 0.10294 0.23479 0.0
C46 C 0.92666 0.17392 0.26533 0.0
H47 H 0.94599 0.17511 0.2763 0.0
H48 H 0.93051 0.18849 0.23452 0.0
H49 H 0.91832 0.17981 0.29751 0.0
C50 C 9e-05 0.13462 0.16849 0.0
N51 N 0.98867 0.1311 0.21423 0.0
N52 N 0.96759 0.13465 0.21113 0.0
C53 C 0.96565 0.14171 0.16364 0.0
C54 C 0.98595 0.1416 0.13466 0.0
C55 C 0.02127 0.12729 0.1562 0.0
H56 H 0.01942 0.11103 0.18154 0.0
H57 H 0.04159 0.14536 0.16135 0.0
H58 H 0.01944 0.12027 0.11682 0.0
O59 O 0.96544 0.08095 0.28592 0.0
O60 O 0.9281 0.08346 0.27796 0.0
H61 H 0.9247 0.1299 0.14502 0.0
H62 H 0.94976 0.15864 0.1094 0.0
C63 C 0.94478 0.14859 0.14661 0.0
H64 H 0.94373 0.16266 0.17382 0.0
H65 H 0.88617 0.08371 0.23159 0.0
O66 O 0.0279 0.11517 0.277 0.0
C67 C 0.93978 0.0697 0.28532 0.0
Co68 Co 0.8765 0.85767 0.3032 0.0
Co69 Co 0.86417 0.79786 0.29856 0.0
C70 C 0.83774 0.81701 0.3743 0.0
O71 O 0.84873 0.84058 0.35515 0.0
O72 O 0.84237 0.79878 0.35715 0.0
C73 C 0.87553 0.90931 0.30457 0.0
O74 O 0.84994 0.89623 0.31802 0.0
C75 C 0.83264 0.74053 0.26927 0.0
C76 C 0.86596 0.73181 0.25806 0.0
C77 C 0.83851 0.72135 0.2503 0.0
N78 N 0.85588 0.76179 0.28544 0.0
N79 N 0.87548 0.75598 0.28038 0.0
C80 C 0.80623 0.74019 0.26683 0.0
H81 H 0.80947 0.761 0.27081 0.0
H82 H 0.79552 0.73096 0.23119 0.0
H83 H 0.79316 0.7276 0.29813 0.0
C84 C 0.86647 0.8495 0.19509 0.0
N85 N 0.86569 0.83965 0.24131 0.0
N86 N 0.86046 0.81443 0.23813 0.0
C87 C 0.85772 0.80742 0.18904 0.0
C88 C 0.86135 0.8294 0.16023 0.0
C89 C 0.87605 0.87876 0.18478 0.0
H90 H 0.89578 0.89144 0.20364 0.0
H91 H 0.86132 0.88409 0.20069 0.0
H92 H 0.87874 0.88361 0.14419 0.0
O93 O 0.9099 0.85865 0.32423 0.0
O94 O 0.90293 0.81697 0.31729 0.0
H95 H 0.8674 0.77557 0.18662 0.0
H96 H 0.85354 0.77977 0.12859 0.0
C97 C 0.8526 0.78055 0.16995 0.0
H98 H 0.83197 0.76486 0.18085 0.0
H99 H 0.89579 0.76938 0.28844 0.0
O100 O 0.88796 0.89636 0.29669 0.0
C101 C 0.91838 0.84187 0.32716 0.0
Co102 Co 0.0222 0.13594 0.70315 0.0
Co103 Co 0.07201 0.19435 0.71363 0.0
C104 C 0.03291 0.17865 0.62738 0.0
O105 O 0.01767 0.15516 0.64562 0.0
O106 O 0.05479 0.19571 0.64912 0.0
C107 C 0.96694 0.08581 0.70003 0.0
O108 O 0.95455 0.09992 0.6956 0.0
C109 C 0.10215 0.25344 0.73227 0.0
C110 C 0.14073 0.25817 0.76051 0.0
C111 C 0.12716 0.27234 0.75221 0.0
N112 N 0.10108 0.22933 0.73019 0.0
N113 N 0.12437 0.23245 0.74627 0.0
C114 C 0.07864 0.2572 0.71979 0.0
H115 H 0.05973 0.2373 0.71734 0.0
H116 H 0.0763 0.27 0.74851 0.0
H117 H 0.08226 0.26744 0.68286 0.0
C118 C 0.01534 0.14523 0.81002 0.0
N119 N 0.02681 0.15421 0.76467 0.0
N120 N 0.04694 0.17927 0.7687 0.0
C121 C 0.04833 0.18734 0.81678 0.0
C122 C 0.02855 0.16597 0.84485 0.0
C123 C -0.00491 0.11619 0.8206 0.0
H124 H 0.00031 0.10282 0.79892 0.0
H125 H 0.97476 0.11206 0.80845 0.0
H126 H 0.99438 0.11118 0.86097 0.0
O127 O 0.05394 0.13185 0.69175 0.0
O128 O 0.08979 0.17234 0.70297 0.0
H129 H 0.08906 0.21745 0.83446 0.0
H130 H 0.0638 0.21857 0.87419 0.0
C131 C 0.06847 0.21493 0.83557 0.0
H132 H 0.06814 0.23037 0.81102 0.0
H133 H 0.12877 0.21679 0.74921 0.0
O134 O 0.99254 0.09785 0.7043 0.0
C135 C 0.07944 0.14724 0.69368 0.0
Co136 Co 0.88075 0.87901 0.72806 0.0
Co137 Co 0.82281 0.87157 0.73721 0.0
C138 C 0.83601 0.84336 0.65719 0.0
O139 O 0.8599 0.85288 0.67445 0.0
O140 O 0.81923 0.84945 0.67646 0.0
C141 C 0.92937 0.87389 0.70909 0.0
O142 O 0.91451 0.85057 0.68645 0.0
C143 C 0.76377 0.84741 0.75743 0.0
C144 C 0.76511 0.88062 0.80251 0.0
C145 C 0.74781 0.85436 0.78659 0.0
N146 N 0.78936 0.86831 0.75813 0.0
N147 N 0.7898 0.88823 0.78419 0.0
C148 C 0.75523 0.82172 0.72908 0.0
H149 H 0.76843 0.82568 0.69593 0.0
H150 H 0.75716 0.80703 0.75356 0.0
H151 H 0.73391 0.81269 0.71648 0.0
C152 C 0.8714 0.86471 0.83613 0.0
N153 N 0.86315 0.86764 0.79037 0.0
N154 N 0.83786 0.86212 0.79292 0.0
C155 C 0.82874 0.85407 0.84003 0.0
C156 C 0.8498 0.85602 0.86944 0.0
C157 C 0.90014 0.87298 0.84828 0.0
H158 H 0.91414 0.89009 0.82403 0.0
H159 H 0.90344 0.85566 0.84107 0.0
H160 H 0.90491 0.87916 0.88813 0.0
O161 O 0.88602 0.91487 0.71261 0.0
O162 O 0.84572 0.911 0.72149 0.0
H163 H 0.79606 0.86002 0.86281 0.0
H164 H 0.79526 0.83073 0.8906 0.0
C165 C 0.79993 0.84306 0.85594 0.0
H166 H 0.78629 0.82997 0.82597 0.0
H167 H 0.8073 0.90663 0.79146 0.0
O168 O 0.91823 0.88603 0.72945 0.0
C169 C 0.87089 0.92533 0.71232 0.0
Co170 Co 0.13547 0.99481 0.69603 0.0
Co171 Co 0.1429 0.94469 0.71253 0.0
C172 C 0.17107 0.98417 0.62904 0.0
O173 O 0.16134 -0.00125 0.64401 0.0
O174 O 0.16517 0.9619 0.65068 0.0
C175 C 0.14297 0.05076 0.68869 0.0
O176 O 0.16945 0.06242 0.69147 0.0
C177 C 0.16906 0.91338 0.74495 0.0
C178 C 0.13298 0.87642 0.77269 0.0
C179 C 0.16095 0.88919 0.77035 0.0
N180 N 0.14683 0.91505 0.73452 0.0
N181 N 0.12536 0.89254 0.74994 0.0
C182 C 0.19735 0.93581 0.7356 0.0
H183 H 0.19752 0.95495 0.72685 0.0
H184 H 0.21035 0.93869 0.76866 0.0
H185 H 0.20585 0.93037 0.70308 0.0
C186 C 0.1481 0.00271 0.80355 0.0
N187 N 0.14664 0.99044 0.75964 0.0
N188 N 0.15092 0.97001 0.76702 0.0
C189 C 0.15602 0.96918 0.81633 0.0
C190 C 0.15423 0.98976 0.84114 0.0
C191 C 0.13974 0.02364 0.80994 0.0
H192 H 0.12195 0.01855 0.78597 0.0
H193 H 0.1566 0.04362 0.79791 0.0
H194 H 0.13437 0.02505 0.84938 0.0
O195 O 0.09972 0.96379 0.68332 0.0
O196 O 0.10353 0.92755 0.6963 0.0
H197 H 0.14469 0.92841 0.83582 0.0
H198 H 0.16835 0.9535 0.87925 0.0
C199 C 0.16243 0.94906 0.83931 0.0
H200 H 0.17969 0.9498 0.81915 0.0
H201 H 0.10553 0.88884 0.74764 0.0
O202 O 0.12846 0.02518 0.69144 0.0
C203 C 0.08922 0.93827 0.68573 0.0
Co204 Co 0.79668 0.34023 0.62556 0.0
Co205 Co 0.85382 0.39202 0.61473 0.0
C206 C 0.83918 0.35474 0.7036 0.0
O207 O 0.81562 0.33887 0.68638 0.0
O208 O 0.856 0.37607 0.68004 0.0
C209 C 0.74979 0.284 0.63555 0.0
O210 O 0.76592 0.27505 0.6502 0.0
C211 C 0.91125 0.4214 0.58483 0.0
C212 C 0.91631 0.46166 0.56803 0.0
C213 C 0.92923 0.44659 0.56471 0.0
N214 N 0.88851 0.4215 0.598 0.0
N215 N 0.89198 0.44584 0.58911 0.0
C216 C 0.91429 0.3968 0.58671 0.0
H217 H 0.89431 0.37826 0.59192 0.0
H218 H 0.92417 0.39515 0.55203 0.0
H219 H 0.9274 0.39866 0.61896 0.0
C220 C 0.80983 0.32904 0.52473 0.0
N221 N 0.81682 0.34364 0.56733 0.0
N222 N 0.84016 0.36607 0.56084 0.0
C223 C 0.84832 0.36668 0.51296 0.0
C224 C 0.82964 0.34306 0.48898 0.0
C225 C 0.78384 0.30302 0.51776 0.0
H226 H 0.7667 0.30702 0.51923 0.0
H227 H 0.78128 0.289 0.54884 0.0
H228 H 0.78341 0.29322 0.48152 0.0
O229 O 0.79001 0.37115 0.62831 0.0
O230 O 0.83039 0.40812 0.62352 0.0
H231 H 0.87295 0.40989 0.50477 0.0
H232 H 0.86637 0.3913 0.44699 0.0
C233 C 0.87059 0.39115 0.4876 0.0
H234 H 0.88979 0.39083 0.49109 0.0
H235 H 0.87713 0.4512 0.59461 0.0
O236 O 0.75956 0.30872 0.62343 0.0
C237 C 0.80483 0.39678 0.62752 0.0
Co238 Co 0.6611 0.46332 0.59089 0.0
Co239 Co 0.60872 0.46801 0.5923 0.0
C240 C 0.65373 0.49771 0.66634 0.0
O241 O 0.6684 0.48953 0.64514 0.0
O242 O 0.62989 0.49048 0.65082 0.0
C243 C 0.71168 0.46392 0.60992 0.0
O244 O 0.71382 0.47788 0.6506 0.0
C245 C 0.57346 0.492 0.57922 0.0
C246 C 0.53465 0.4552 0.56155 0.0
C247 C 0.54682 0.48302 0.56587 0.0
N248 N 0.57697 0.47039 0.58196 0.0
N249 N 0.55357 0.44845 0.57208 0.0
C250 C 0.59495 0.52045 0.59049 0.0
H251 H 0.61507 0.52193 0.5934 0.0
H252 H 0.59543 0.53449 0.56114 0.0
H253 H 0.59013 0.52676 0.62665 0.0
C254 C 0.66101 0.47747 0.48468 0.0
N255 N 0.65081 0.47351 0.5314 0.0
N256 N 0.62993 0.47741 0.53208 0.0
C257 C 0.62679 0.48505 0.48574 0.0
C258 C 0.64635 0.48526 0.45399 0.0
C259 C 0.68231 0.47082 0.46921 0.0
H260 H 0.6789 0.45216 0.4886 0.0
H261 H 0.70248 0.48764 0.48043 0.0
H262 H 0.68211 0.46746 0.42821 0.0
O263 O 0.63263 0.42751 0.61241 0.0
O264 O 0.59468 0.42912 0.60876 0.0
H265 H 0.58563 0.47551 0.47658 0.0
H266 H 0.60918 0.50192 0.43477 0.0
C267 C 0.60631 0.49323 0.47294 0.0
H268 H 0.60838 0.509 0.49953 0.0
H269 H 0.5507 0.42889 0.57095 0.0
O270 O 0.69231 0.45794 0.57962 0.0
C271 C 0.60711 0.41617 0.61699 0.0
Co272 Co 0.53674 0.2141 0.61906 0.0
Co273 Co 0.53838 0.1608 0.60094 0.0
C274 C 0.50918 0.1668 0.68895 0.0
O275 O 0.51457 0.19022 0.67417 0.0
O276 O 0.51755 0.15301 0.66497 0.0
C277 C 0.5195 0.25626 0.62304 0.0
O278 O 0.49384 0.23847 0.61595 0.0
C279 C 0.51914 0.10368 0.57379 0.0
C280 C 0.5564 0.1078 0.53983 0.0
C281 C 0.5293 0.08925 0.54825 0.0
N282 N 0.53922 0.1295 0.57851 0.0
N283 N 0.56152 0.13163 0.55912 0.0
C284 C 0.49058 0.09424 0.5896 0.0
H285 H 0.4878 0.11178 0.59802 0.0
H286 H 0.47621 0.08169 0.55977 0.0
H287 H 0.486 0.08179 0.62409 0.0
C288 C 0.51983 0.20561 0.51255 0.0
N289 N 0.52551 0.19734 0.55587 0.0
N290 N 0.52446 0.17397 0.5488 0.0
C291 C 0.51692 0.16609 0.50088 0.0
C292 C 0.51393 0.18598 0.47612 0.0
C293 C 0.52378 0.23339 0.50469 0.0
H294 H 0.54059 0.24824 0.52845 0.0
H295 H 0.50497 0.23339 0.51537 0.0
H296 H 0.52855 0.23982 0.46494 0.0
O297 O 0.57491 0.22498 0.62869 0.0
O298 O 0.57717 0.18795 0.61413 0.0
H299 H 0.53137 0.13965 0.47705 0.0
H300 H 0.50214 0.13539 0.44237 0.0
C301 C 0.51196 0.13967 0.47968 0.0
H302 H 0.4982 0.12315 0.50488 0.0
H303 H 0.58 0.14967 0.55712 0.0
O304 O 0.53708 0.24876 0.6239 0.0
C305 C 0.58858 0.21301 0.62494 0.0
Co306 Co 0.67402 0.46935 0.03265 0.0
Co307 Co 0.72638 0.52571 0.02739 0.0
C308 C 0.68194 0.50871 0.95167 0.0
O309 O 0.66741 0.48628 0.97406 0.0
O310 O 0.70552 0.52578 0.9674 0.0
C311 C 0.61838 0.4224 0.02851 0.0
O312 O 0.61166 0.43499 0.99516 0.0
C313 C 0.75893 0.58465 0.0387 0.0
C314 C 0.79919 0.58962 0.05457 0.0
C315 C 0.78518 0.60364 0.05213 0.0
N316 N 0.75744 0.56044 0.03462 0.0
N317 N 0.78172 0.56367 0.04296 0.0
C318 C 0.7357 0.58928 0.02865 0.0
H319 H 0.71616 0.57039 0.03512 0.0
H320 H 0.73692 0.60599 0.05184 0.0
H321 H 0.73645 0.59505 0.98867 0.0
C322 C 0.67352 0.48587 0.13631 0.0
N323 N 0.68357 0.49151 0.08947 0.0
N324 N 0.70503 0.51585 0.08801 0.0
C325 C 0.70878 0.52694 0.13427 0.0
C326 C 0.68891 0.50828 0.16643 0.0
C327 C 0.65242 0.45806 0.15281 0.0
H328 H 0.65697 0.44288 0.13649 0.0
H329 H 0.63234 0.45376 0.13876 0.0
H330 H 0.6516 0.45564 0.19413 0.0
O331 O 0.70266 0.46071 0.01983 0.0
O332 O 0.74062 0.50029 0.01674 0.0
H333 H 0.75071 0.55734 0.13839 0.0
H334 H 0.72996 0.56033 0.18677 0.0
C335 C 0.73062 0.55499 0.14708 0.0
H336 H 0.72774 0.56945 0.12404 0.0
H337 H 0.78607 0.54792 0.04321 0.0
O338 O 0.64212 0.43403 0.04666 0.0
C339 C 0.72822 0.47454 0.01523 0.0
Co340 Co 0.52936 0.21705 0.03539 0.0
Co341 Co 0.47189 0.20935 0.0559 0.0
C342 C 0.48214 0.18542 0.9655 0.0
O343 O 0.50654 0.1945 0.97945 0.0
O344 O 0.46569 0.18973 0.99096 0.0
C345 C 0.57599 0.20676 0.02774 0.0
O346 O 0.56026 0.18064 0.03497 0.0
C347 C 0.4138 0.18735 0.08296 0.0
C348 C 0.41777 0.22171 0.12821 0.0
C349 C 0.39919 0.196 0.11181 0.0
N350 N 0.43994 0.20702 0.08323 0.0
N351 N 0.44204 0.22751 0.10999 0.0
C352 C 0.40321 0.16133 0.05467 0.0
H353 H 0.41592 0.1642 0.0212 0.0
H354 H 0.40395 0.14595 0.07912 0.0
H355 H 0.38193 0.15366 0.04296 0.0
C356 C 0.52348 0.19902 0.14081 0.0
N357 N 0.51345 0.20296 0.09796 0.0
N358 N 0.4885 0.19778 0.10555 0.0
C359 C 0.48133 0.18889 0.15309 0.0
C360 C 0.50338 0.18972 0.17741 0.0
C361 C 0.55285 0.20817 0.14829 0.0
H362 H 0.56549 0.22556 0.1234 0.0
H363 H 0.55651 0.19129 0.1389 0.0
H364 H 0.55914 0.21443 0.18767 0.0
O365 O 0.53545 0.25376 0.03053 0.0
O366 O 0.49483 0.2489 0.04268 0.0
H367 H 0.45165 0.19701 0.18489 0.0
H368 H 0.44996 0.16634 0.20788 0.0
C369 C 0.45371 0.17929 0.17437 0.0
H370 H 0.43824 0.16737 0.14578 0.0
H371 H 0.46022 0.24535 0.11664 0.0
O372 O 0.56608 0.22237 0.02797 0.0
C373 C 0.51996 0.26369 0.03399 0.0
Co374 Co 0.78258 0.32019 0.05339 0.0
Co375 Co 0.78724 0.26826 0.06916 0.0
C376 C 0.81314 0.30664 0.98114 0.0
O377 O 0.80603 0.32324 0.99702 0.0
O378 O 0.80676 0.28471 0.0046 0.0
C379 C 0.78624 0.37296 0.03081 0.0
O380 O 0.80603 0.37861 -0.0009 0.0
C381 C 0.8168 0.24042 0.0985 0.0
C382 C 0.783 0.19912 0.11339 0.0
C383 C 0.81095 0.21499 0.11557 0.0
N384 N 0.79334 0.2395 0.08751 0.0
N385 N 0.77326 0.21469 0.09586 0.0
C386 C 0.84372 0.26585 0.09668 0.0
H387 H 0.84109 0.28388 0.09555 0.0
H388 H 0.85618 0.26706 0.12962 0.0
H389 H 0.85455 0.26581 0.06211 0.0
C390 C 0.80108 0.32989 0.15794 0.0
N391 N 0.7963 0.31603 0.11478 0.0
N392 N 0.79753 0.29387 0.12274 0.0
C393 C 0.80268 0.29274 0.1719 0.0
C394 C 0.80523 0.31561 0.19564 0.0
C395 C 0.79962 0.35527 0.16346 0.0
H396 H 0.77813 0.35016 0.16178 0.0
H397 H 0.81058 0.36923 0.13197 0.0
H398 H 0.80852 0.36556 0.19958 0.0
O399 O 0.74597 0.2889 0.04267 0.0
O400 O 0.74789 0.25165 0.05752 0.0
H401 H 0.78424 0.24964 0.1804 0.0
H402 H 0.79698 0.26835 0.23808 0.0
C403 C 0.80078 0.26839 0.19723 0.0
H404 H 0.82012 0.26847 0.1921 0.0
H405 H 0.75284 0.20859 0.09112 0.0
O406 O 0.77593 0.35105 0.05584 0.0
C407 C 0.73449 0.26325 0.04611 0.0
Co408 Co 0.4668 0.678 0.94563 0.0
Co409 Co 0.52511 0.72848 0.94116 0.0
C410 C 0.5102 0.68745 0.02142 0.0
O411 O 0.48665 0.67368 0.00238 0.0
O412 O 0.52806 0.70993 0.00245 0.0
C413 C 0.42099 0.62113 0.94029 0.0
O414 O 0.43785 0.61172 0.94017 0.0
C415 C 0.5841 0.76696 0.92322 0.0
C416 C 0.58042 0.79955 0.88544 0.0
C417 C 0.59901 0.7919 0.89936 0.0
N418 N 0.55783 0.76012 0.92229 0.0
N419 N 0.55594 0.77988 0.9002 0.0
C420 C 0.59449 0.75023 0.94746 0.0
H421 H 0.5807 0.73775 0.97806 0.0
H422 H 0.59539 0.73636 0.91932 0.0
H423 H 0.61517 0.76339 0.96252 0.0
C424 C 0.47867 0.67362 0.83948 0.0
N425 N 0.4861 0.68464 0.88543 0.0
N426 N 0.5113 0.70459 0.88421 0.0
C427 C 0.5212 0.70602 0.83757 0.0
C428 C 0.50077 0.68663 0.80734 0.0
C429 C 0.44998 0.65379 0.82559 0.0
H430 H 0.43584 0.65724 0.84877 0.0
H431 H 0.44602 0.63293 0.83266 0.0
H432 H 0.44595 0.65566 0.7855 0.0
O433 O 0.46019 0.70786 0.95824 0.0
O434 O 0.50129 0.74374 0.95779 0.0
H435 H 0.55269 0.74557 0.81667 0.0
H436 H 0.55551 0.71829 0.78801 0.0
C437 C 0.54989 0.72507 0.82273 0.0
H438 H 0.56356 0.72616 0.85316 0.0
H439 H 0.53774 0.77958 0.89384 0.0
O440 O 0.43005 0.64649 0.94175 0.0
C441 C 0.47584 0.73319 0.96246 0.0
Co442 Co 0.32953 0.79724 0.9842 0.0
Co443 Co 0.27564 0.79845 0.98283 0.0
C444 C 0.32153 0.83034 0.0575 0.0
O445 O 0.33742 0.82342 0.03744 0.0
O446 O 0.29748 0.82144 0.04119 0.0
C447 C 0.38291 0.80003 0.99039 0.0
O448 O 0.39071 0.81815 0.02635 0.0
C449 C 0.24545 0.82577 0.95678 0.0
C450 C 0.20316 0.79266 0.96544 0.0
C451 C 0.21877 0.81943 0.95066 0.0
N452 N 0.24554 0.80358 0.97353 0.0
N453 N 0.22023 0.78396 0.9792 0.0
C454 C 0.27044 0.85267 0.94922 0.0
H455 H 0.28748 0.85382 0.97133 0.0
H456 H 0.27633 0.85548 0.90912 0.0
H457 H 0.26663 0.86926 0.9603 0.0
C458 C 0.33071 0.81221 0.87899 0.0
N459 N 0.31975 0.80796 0.92503 0.0
N460 N 0.29621 0.80694 0.92256 0.0
C461 C 0.29095 0.8094 0.87401 0.0
C462 C 0.31291 0.81332 0.84528 0.0
C463 C 0.35654 0.81259 0.8669 0.0
H464 H 0.35305 0.79162 0.86871 0.0
H465 H 0.37222 0.82504 0.89498 0.0
H466 H 0.36392 0.82086 0.82878 0.0
O467 O 0.30059 0.76083 0.00527 0.0
O468 O 0.26129 0.75967 0.99774 0.0
H469 H 0.2475 0.78985 0.88048 0.0
H470 H 0.25997 0.79264 0.81719 0.0
C471 C 0.26383 0.80299 0.85405 0.0
H472 H 0.26345 0.82204 0.84808 0.0
H473 H 0.2146 0.76441 0.99119 0.0
O474 O 0.35983 0.79111 0.97034 0.0
C475 C 0.27488 0.74809 0.00751 0.0
Co476 Co 0.20561 0.54423 0.93163 0.0
Co477 Co 0.21116 0.49307 0.91158 0.0
C478 C 0.18341 0.498 0.00334 0.0
O479 O 0.18674 0.52069 0.98872 0.0
O480 O 0.19222 0.48506 0.97789 0.0
C481 C 0.21196 0.59033 0.97703 0.0
O482 O 0.22152 0.58052 0.01088 0.0
C483 C 0.19204 0.43671 0.88176 0.0
C484 C 0.23079 0.43748 0.86949 0.0
C485 C 0.203 0.42075 0.86806 0.0
N486 N 0.21249 0.46191 0.89046 0.0
N487 N 0.23559 0.46223 0.88301 0.0
C488 C 0.16282 0.42785 0.88995 0.0
H489 H 0.16045 0.44493 0.90378 0.0
H490 H 0.15148 0.4201 0.85435 0.0
H491 H 0.15405 0.41099 0.9175 0.0
C492 C 0.18419 0.53286 0.82911 0.0
N493 N 0.1923 0.5257 0.87083 0.0
N494 N 0.19485 0.50439 0.86138 0.0
C495 C 0.1887 0.49755 0.81269 0.0
C496 C 0.18154 0.51523 0.79089 0.0
C497 C 0.18188 0.55781 0.82487 0.0
H498 H 0.16979 0.55865 0.85675 0.0
H499 H 0.17223 0.55825 0.78898 0.0
H500 H 0.20239 0.57591 0.82715 0.0
O501 O 0.24495 0.5576 0.93623 0.0
O502 O 0.24921 0.52167 0.92116 0.0
H503 H 0.195 0.48084 0.7442 0.0
H504 H 0.17756 0.4569 0.79361 0.0
C505 C 0.19408 0.47772 0.78542 0.0
H506 H 0.21346 0.47967 0.79828 0.0
H507 H 0.25466 0.47931 0.88748 0.0
O508 O 0.20206 0.57698 0.93686 0.0
C509 C 0.25963 0.54673 0.93107 0.0
Co510 Co 0.33388 0.80078 0.41662 0.0
Co511 Co 0.38574 0.85812 0.42283 0.0
C512 C 0.34367 0.84317 0.34184 0.0
O513 O 0.32896 0.81952 0.35974 0.0
O514 O 0.36633 0.86001 0.36155 0.0
C515 C 0.28398 0.75124 0.39252 0.0
O516 O 0.2818 0.7646 0.35432 0.0
C517 C 0.41566 0.91605 0.44895 0.0
C518 C 0.45753 0.92332 0.45283 0.0
C519 C 0.4421 0.93563 0.45983 0.0
N520 N 0.41548 0.89306 0.43684 0.0
N521 N 0.44058 0.89762 0.43887 0.0
C522 C 0.39127 0.91942 0.4471 0.0
H523 H 0.37332 0.90055 0.43375 0.0
H524 H 0.38693 0.9246 0.48474 0.0
H525 H 0.39531 0.93645 0.42162 0.0
C526 C 0.32541 0.81474 0.51793 0.0
N527 N 0.33954 0.82107 0.47494 0.0
N528 N 0.36204 0.84446 0.47981 0.0
C529 C 0.36334 0.85327 0.52735 0.0
C530 C 0.33999 0.8349 0.55266 0.0
C531 C 0.29865 0.78957 0.52535 0.0
H532 H 0.28604 0.78547 0.49125 0.0
H533 H 0.28772 0.79142 0.55823 0.0
H534 H 0.30199 0.77218 0.53125 0.0
O535 O 0.36472 0.79484 0.40565 0.0
O536 O 0.40186 0.83505 0.40872 0.0
H537 H 0.38932 0.87245 0.59102 0.0
H538 H 0.3866 0.89502 0.54774 0.0
C539 C 0.38795 0.87634 0.5506 0.0
H540 H 0.40654 0.87947 0.53144 0.0
H541 H 0.44612 0.88304 0.43159 0.0
O542 O 0.30316 0.7635 0.42372 0.0
C543 C 0.39032 0.80954 0.4034 0.0
Co544 Co 0.19447 0.54201 0.36571 0.0
Co545 Co 0.1383 0.53922 0.36626 0.0
C546 C 0.15594 0.51593 0.28198 0.0
O547 O 0.17859 0.52262 0.3025 0.0
O548 O 0.13893 0.52125 0.30257 0.0
C549 C 0.24458 0.53987 0.34996 0.0
O550 O 0.23445 0.52729 0.30733 0.0
C551 C 0.0798 0.5117 0.38573 0.0
C552 C 0.07256 0.54638 0.38593 0.0
C553 C 0.05999 0.51868 0.39363 0.0
N554 N 0.1031 0.53438 0.3748 0.0
N555 N 0.09855 0.55495 0.37432 0.0
C556 C 0.07648 0.48393 0.38591 0.0
H557 H 0.09326 0.48385 0.36489 0.0
H558 H 0.07675 0.47737 0.42489 0.0
H559 H 0.05671 0.46921 0.36909 0.0
C560 C 0.17596 0.51702 0.46453 0.0
N561 N 0.17109 0.52509 0.42031 0.0
N562 N 0.14834 0.52573 0.42317 0.0
C563 C 0.13855 0.51898 0.47039 0.0
C564 C 0.1555 0.5128 0.49767 0.0
C565 C 0.20115 0.51608 0.47615 0.0
H566 H 0.21826 0.53705 0.48077 0.0
H567 H 0.206 0.50656 0.4445 0.0
H568 H 0.19883 0.50452 0.51112 0.0
O569 O 0.20265 0.58014 0.36196 0.0
O570 O 0.16301 0.57861 0.36028 0.0
H571 H 0.11463 0.53874 0.46971 0.0
H572 H 0.12238 0.53148 0.53134 0.0
C573 C 0.11711 0.52382 0.4923 0.0
H574 H 0.09767 0.50448 0.4939 0.0
H575 H 0.11336 0.57499 0.36738 0.0
O576 O 0.2304 0.54587 0.3783 0.0
C577 C 0.18871 0.59194 0.35998 0.0
Co578 Co 0.45026 0.65918 0.38487 0.0
Co579 Co 0.45853 0.60907 0.378 0.0
C580 C 0.48537 0.65551 0.30547 0.0
O581 O 0.47525 0.66828 0.32744 0.0
O582 O 0.48045 0.63222 0.32053 0.0
C583 C 0.45343 0.71269 0.38204 0.0
O584 O 0.47376 0.72153 0.35036 0.0
C585 C 0.48711 0.57842 0.39199 0.0
C586 C 0.45248 0.53811 0.41021 0.0
C587 C 0.48051 0.55278 0.409 0.0
N588 N 0.46398 0.57896 0.38544 0.0
N589 N 0.44339 0.55456 0.3948 0.0
C590 C 0.5147 0.60285 0.38745 0.0
H591 H 0.51335 0.62163 0.38703 0.0
H592 H 0.52793 0.6036 0.41866 0.0
H593 H 0.52403 0.6016 0.35173 0.0
C594 C 0.46708 0.65979 0.48896 0.0
N595 N 0.46317 0.65 0.44195 0.0
N596 N 0.4668 0.62894 0.44035 0.0
C597 C 0.47349 0.62484 0.48697 0.0
C598 C 0.47399 0.64434 0.51923 0.0
C599 C 0.46068 0.68116 0.50518 0.0
H600 H 0.44017 0.67574 0.49181 0.0
H601 H 0.47537 0.70076 0.48769 0.0
H602 H 0.46112 0.6835 0.54649 0.0
O603 O 0.4142 0.62891 0.36912 0.0
O604 O 0.41921 0.59289 0.36241 0.0
H605 H 0.46236 0.58292 0.48828 0.0
H606 H 0.483 0.60206 0.54099 0.0
C607 C 0.47935 0.60275 0.50041 0.0
H608 H 0.49796 0.60644 0.48088 0.0
H609 H 0.42314 0.54964 0.39408 0.0
O610 O 0.44302 0.68884 0.39954 0.0
C611 C 0.40441 0.60376 0.36129 0.0
H612 H 0.14252 0.09745 0.26294 0.0
H613 H 0.08095 0.03034 0.34789 0.0
H614 H 0.0534 0.05193 0.35 0.0
H615 H 0.04472 0.08741 0.32157 0.0
H616 H 0.10512 0.15484 0.23609 0.0
H617 H 0.13528 0.1357 0.24063 0.0
C618 C 0.12332 0.08785 0.28272 0.0
C619 C 0.11372 0.06217 0.30479 0.0
C620 C 0.10721 0.10024 0.28316 0.0
C621 C 0.08874 0.04995 0.33015 0.0
C622 C 0.0729 0.06224 0.33131 0.0
C623 C 0.06454 0.09804 0.30406 0.0
C624 C 0.07252 0.12228 0.27787 0.0
C625 C 0.08158 0.08695 0.30678 0.0
C626 C 0.09847 0.13606 0.25627 0.0
C627 C 0.11567 0.12509 0.25878 0.0
H628 H 0.85595 0.94453 0.30919 0.0
H629 H 0.92963 0.94133 0.29033 0.0
H630 H 0.95566 0.99032 0.28424 0.0
H631 H 0.95791 0.034 0.28365 0.0
H632 H 0.88487 0.03845 0.29977 0.0
H633 H 0.85829 0.9891 0.30766 0.0
C634 C 0.87768 0.95458 0.30376 0.0
C635 C 0.89073 0.93919 0.30027 0.0
C636 C 0.89272 0.98299 0.29987 0.0
C637 C 0.91894 0.95256 0.29303 0.0
C638 C 0.93395 0.98065 0.28962 0.0
C639 C 0.93619 0.02428 0.28915 0.0
C640 C 0.92345 0.03994 0.29134 0.0
C641 C 0.92107 0.99604 0.29298 0.0
C642 C 0.89522 0.02688 0.29798 0.0
C643 C 0.88 -0.00134 0.30247 0.0
H644 H 0.9543 0.89157 0.36059 0.0
H645 H 0.94825 0.81665 0.31102 0.0
H646 H -0.0023 0.8387 0.30649 0.0
H647 H 0.04234 0.88129 0.30494 0.0
H648 H 0.04607 0.95615 0.3477 0.0
H649 H -0.00206 0.93217 0.36638 0.0
C650 C 0.96373 0.87987 0.34946 0.0
C651 C 0.94764 0.85269 0.33528 0.0
C652 C 0.99185 0.89286 0.34492 0.0
C653 C 0.96022 0.83771 0.32188 0.0
C654 C 0.98849 0.85037 0.31885 0.0
C655 C 0.03253 0.89212 0.31899 0.0
C656 C 0.04746 0.92041 0.3241 0.0
C657 C 0.00447 0.87824 0.32837 0.0
C658 C 0.03477 0.93439 0.3425 0.0
C659 C 0.0073 0.92072 0.35342 0.0
H660 H 0.1632 0.10522 0.70355 0.0
H661 H 0.09144 0.03171 0.65781 0.0
H662 H 0.06652 0.05579 0.65131 0.0
H663 H 0.06382 0.09639 0.6636 0.0
H664 H 0.13411 0.17032 0.71186 0.0
H665 H 0.16094 0.14751 0.71152 0.0
C666 C 0.1422 0.09461 0.69176 0.0
C667 C 0.12917 0.06665 0.68179 0.0
C668 C 0.12767 0.10858 0.68858 0.0
C669 C 0.10193 0.05315 0.66643 0.0
C670 C 0.0876 0.0669 0.66252 0.0
C671 C 0.08506 0.10768 0.67379 0.0
C672 C 0.09684 0.13493 0.68824 0.0
C673 C 0.1001 0.09442 0.67437 0.0
C674 C 0.1245 0.14926 0.70069 0.0
C675 C 0.13982 0.1362 0.70072 0.0
H676 H 0.91194 0.05119 0.70581 0.0
H677 H 0.98826 0.05289 0.68982 0.0
H678 H 0.96498 0.00385 0.68851 0.0
H679 H 0.92379 0.96059 0.69518 0.0
H680 H 0.84688 0.95706 0.71438 0.0
H681 H 0.86955 0.00661 0.71043 0.0
C682 C 0.9234 0.04078 0.70186 0.0
C683 C 0.95185 0.05582 0.69828 0.0
C684 C 0.90984 0.01224 0.70159 0.0
C685 C 0.9664 0.04198 0.69314 0.0
C686 C 0.95311 0.01384 0.69222 0.0
C687 C 0.91181 0.97051 0.69818 0.0
C688 C 0.88365 0.95504 0.70523 0.0
C689 C 0.92494 -0.00119 0.69689 0.0
C690 C 0.8686 0.96843 0.7089 0.0
C691 C 0.88157 -0.00322 0.70685 0.0
H692 H 0.05368 0.95613 0.6914 0.0
H693 H 0.05759 0.88276 0.67588 0.0
H694 H 0.00797 0.85586 0.67999 0.0
H695 H 0.96343 0.85354 0.69186 0.0
H696 H 0.96215 0.92805 0.71386 0.0
H697 H 0.01083 0.95405 0.70365 0.0
C698 C 0.04382 0.93425 0.68828 0.0
C699 C 0.05936 0.92151 0.68297 0.0
C700 C 0.01568 0.91907 0.69248 0.0
C701 C 0.04608 0.8931 0.67974 0.0
C702 C 0.01774 0.87773 0.68233 0.0
C703 C 0.97391 0.87544 0.69442 0.0
C704 C 0.95915 0.88876 0.70396 0.0
C705 C 0.00231 0.89051 0.68941 0.0
C706 C 0.97296 0.91718 0.70725 0.0
C707 C 0.00084 0.93217 0.7011 0.0
H708 H 0.75968 0.4771 0.65535 0.0
H709 H 0.70034 0.42057 0.55127 0.0
H710 H 0.72377 0.39476 0.54846 0.0
H711 H 0.75971 0.38676 0.57841 0.0
H712 H 0.82138 0.4445 0.67696 0.0
H713 H 0.79847 0.47131 0.67932 0.0
C714 C 0.75208 0.4593 0.63172 0.0
C715 C 0.72819 0.45069 0.60394 0.0
C716 C 0.76589 0.44461 0.62969 0.0
C717 C 0.71871 0.42771 0.57304 0.0
C718 C 0.73199 0.41279 0.57158 0.0
C719 C 0.76807 0.40522 0.60043 0.0
C720 C 0.79181 0.41351 0.62817 0.0
C721 C 0.75531 0.4208 0.60033 0.0
C722 C 0.80294 0.43774 0.65562 0.0
C723 C 0.78987 0.45301 0.65693 0.0
H724 H 0.5539 0.37942 0.59817 0.0
H725 H 0.62673 0.38771 0.66483 0.0
H726 H 0.60465 0.33902 0.67719 0.0
H727 H 0.56676 0.29414 0.66192 0.0
H728 H 0.49399 0.28409 0.59246 0.0
H729 H 0.51377 0.33348 0.58911 0.0
C730 C 0.56472 0.37055 0.61611 0.0
C731 C 0.59202 0.38712 0.63 0.0
C732 C 0.55203 0.34228 0.62228 0.0
C733 C 0.60584 0.37538 0.65317 0.0
C734 C 0.59324 0.34753 0.66031 0.0
C735 C 0.55507 0.30269 0.64632 0.0
C736 C 0.52914 0.28555 0.62676 0.0
C737 C 0.56668 0.3308 0.64376 0.0
C738 C 0.51407 0.29692 0.6076 0.0
C739 C 0.52543 0.32512 0.60546 0.0
H740 H 0.62542 0.19523 0.62681 0.0
H741 H 0.61898 0.2676 0.63535 0.0
H742 H 0.66787 0.29535 0.63941 0.0
H743 H 0.7124 0.29964 0.63829 0.0
H744 H 0.72044 0.22832 0.63269 0.0
H745 H 0.67097 0.19963 0.62986 0.0
C746 C 0.63473 0.21706 0.6298 0.0
C747 C 0.61841 0.22922 0.63049 0.0
C748 C 0.66313 0.23313 0.63243 0.0
C749 C 0.63088 0.25756 0.63468 0.0
C750 C 0.65892 0.27356 0.6369 0.0
C751 C 0.7034 0.2778 0.63632 0.0
C752 C 0.72005 0.26613 0.63513 0.0
C753 C 0.6752 0.2616 0.63533 0.0
C754 C 0.70803 0.23779 0.6335 0.0
C755 C 0.67977 0.22141 0.63182 0.0
H756 H 0.80432 0.42367 0.9911 0.0
H757 H 0.73921 0.36059 0.07768 0.0
H758 H 0.7158 0.3863 0.07909 0.0
H759 H 0.71288 0.42575 0.05481 0.0
H760 H 0.7781 0.49079 0.97265 0.0
H761 H 0.80239 0.46525 0.97039 0.0
C762 C 0.78508 0.41566 0.01043 0.0
C763 C 0.77353 0.39012 0.03394 0.0
C764 C 0.77164 0.43077 0.01166 0.0
C765 C 0.74866 0.38014 0.05921 0.0
C766 C 0.73513 0.39478 0.05995 0.0
C767 C 0.73235 0.43433 0.03607 0.0
C768 C 0.7435 0.45989 0.0132 0.0
C769 C 0.74629 0.41993 0.03598 0.0
C770 C 0.76905 0.47103 0.99022 0.0
C771 C 0.7829 0.45644 0.98898 0.0
H772 H 0.56753 0.3881 0.99165 0.0
H773 H 0.62845 0.39166 0.093 0.0
H774 H 0.60251 0.34306 0.10483 0.0
H775 H 0.56489 0.29917 0.08125 0.0
H776 H 0.50229 0.294 0.9837 0.0
H777 H 0.52641 0.34364 0.97564 0.0
C778 C 0.57491 0.37826 0.01679 0.0
C779 C 0.60018 0.39351 0.04055 0.0
C780 C 0.55977 0.35003 0.02375 0.0
C781 C 0.60929 0.38047 0.07357 0.0
C782 C 0.5945 0.35261 0.08042 0.0
C783 C 0.55649 0.30899 0.05846 0.0
C784 C 0.53229 0.29326 0.03234 0.0
C785 C 0.57016 0.33718 0.05472 0.0
C786 C 0.52109 0.30595 0.00383 0.0
C787 C 0.53489 0.33423 -0.00082 0.0
H788 H 0.70185 0.2807 0.00882 0.0
H789 H 0.70038 0.20948 0.06809 0.0
H790 H 0.65084 0.18466 0.06422 0.0
H791 H 0.60778 0.18454 0.04991 0.0
H792 H 0.61077 0.25685 0.99225 0.0
H793 H 0.65983 0.27976 0.98953 0.0
C794 C 0.69078 0.25969 0.02066 0.0
C795 C 0.7048 0.24709 0.03924 0.0
C796 C 0.66249 0.24573 0.01888 0.0
C797 C 0.69007 0.21972 0.05376 0.0
C798 C 0.66174 0.20554 0.05173 0.0
C799 C 0.61921 0.20517 0.03622 0.0
C800 C 0.6056 0.21902 0.02187 0.0
C801 C 0.64769 0.21852 0.03523 0.0
C802 C 0.62069 0.24578 0.00415 0.0
C803 C 0.6488 0.25896 0.00249 0.0
H804 H 0.43414 0.81357 0.02098 0.0
H805 H 0.36731 0.75678 0.92908 0.0
H806 H 0.39045 0.73168 0.91244 0.0
H807 H 0.4282 0.72414 0.92682 0.0
H808 H 0.49667 0.7811 0.01421 0.0
H809 H 0.47443 0.80792 0.02962 0.0
C810 C 0.42479 0.79585 0.99702 0.0
C811 C 0.39887 0.78697 0.97691 0.0
C812 C 0.43837 0.78141 0.98702 0.0
C813 C 0.38716 0.76409 0.94542 0.0
C814 C 0.40033 0.74959 0.93587 0.0
C815 C 0.43826 0.74244 0.94928 0.0
C816 C 0.46373 0.75047 0.97009 0.0
C817 C 0.42566 0.75779 0.95709 0.0
C818 C 0.47691 0.77452 0.99808 0.0
C819 C 0.46419 0.78977 0.00692 0.0
H820 H 0.23166 0.70909 0.95753 0.0
H821 H 0.28826 0.72163 0.07587 0.0
H822 H 0.27093 0.67287 0.08112 0.0
H823 H 0.24374 0.62774 0.04543 0.0
H824 H 0.1904 0.61531 0.92091 0.0
H825 H 0.20221 0.6629 0.92476 0.0
C826 C 0.23965 0.70097 0.98523 0.0
C827 C 0.26103 0.71872 0.01651 0.0
C828 C 0.23046 0.67304 0.98634 0.0
C829 C 0.27173 0.7082 0.05158 0.0
C830 C 0.26192 0.6804 0.0544 0.0
C831 C 0.23435 0.63529 0.01956 0.0
C832 C 0.21633 0.61805 0.98276 0.0
C833 C 0.24191 0.66276 0.02091 0.0
C834 C 0.20446 0.62823 0.94942 0.0
C835 C 0.21122 0.65543 0.95158 0.0
H836 H 0.29765 0.53096 0.92376 0.0
H837 H 0.2886 0.601 0.94889 0.0
H838 H 0.33748 0.62968 0.95433 0.0
H839 H 0.38252 0.63522 0.95072 0.0
H840 H 0.39274 0.56594 0.92623 0.0
H841 H 0.34349 0.53656 0.92192 0.0
C842 C 0.30636 0.55249 0.93054 0.0
C843 C 0.28939 0.56377 0.93573 0.0
C844 C 0.33462 0.56899 0.93368 0.0
C845 C 0.30107 0.59171 0.94464 0.0
C846 C 0.32906 0.60818 0.94775 0.0
C847 C 0.37409 0.61369 0.9444 0.0
C848 C 0.39133 0.60281 0.93858 0.0
C849 C 0.34598 0.59706 0.94207 0.0
C850 C 0.37994 0.57483 0.93081 0.0
C851 C 0.35179 0.55805 0.92829 0.0
H852 H 0.47012 0.76536 0.35643 0.0
H853 H 0.4064 0.69576 0.43288 0.0
H854 H 0.38162 0.71966 0.44568 0.0
H855 H 0.37684 0.75928 0.43281 0.0
H856 H 0.44066 0.83026 0.36075 0.0
H857 H 0.4666 0.80688 0.34863 0.0
C858 C 0.45092 0.75554 0.37616 0.0
C859 C 0.44009 0.7287 0.39318 0.0
C860 C 0.43667 0.76953 0.38392 0.0
C861 C 0.41526 0.71635 0.41913 0.0
C862 C 0.40095 0.72995 0.42642 0.0
C863 C 0.39641 0.76964 0.41432 0.0
C864 C 0.40668 0.79625 0.39702 0.0
C865 C 0.41128 0.75635 0.40843 0.0
C866 C 0.43231 0.80966 0.37416 0.0
C867 C 0.44711 0.79631 0.36722 0.0
H868 H 0.23662 0.71836 0.34354 0.0
H869 H 0.29452 0.71701 0.44626 0.0
H870 H 0.27056 0.66778 0.44377 0.0
H871 H 0.2342 0.62509 0.41051 0.0
H872 H 0.17408 0.62532 0.31286 0.0
H873 H 0.1979 0.67498 0.31497 0.0
C874 C 0.24382 0.70725 0.36566 0.0
C875 C 0.26741 0.72139 0.39478 0.0
C876 C 0.22973 0.67877 0.36457 0.0
C877 C 0.27638 0.7067 0.4236 0.0
C878 C 0.2628 0.67851 0.42201 0.0
C879 C 0.22641 0.63606 0.38951 0.0
C880 C 0.20276 0.62176 0.36092 0.0
C881 C 0.23969 0.66438 0.39218 0.0
C882 C 0.19242 0.63605 0.33486 0.0
C883 C 0.20599 0.66437 0.33612 0.0
H884 H 0.36677 0.60861 0.41259 0.0
H885 H 0.37616 0.56107 0.29702 0.0
H886 H 0.32685 0.53579 0.28424 0.0
H887 H 0.28133 0.52935 0.30341 0.0
H888 H 0.27325 0.57597 0.42327 0.0
H889 H 0.32176 0.59921 0.43728 0.0
C890 C 0.35798 0.59265 0.38466 0.0
C891 C 0.37489 0.58693 0.35514 0.0
C892 C 0.32988 0.57803 0.37842 0.0
C893 C 0.36338 0.56584 0.31992 0.0
C894 C 0.33527 0.55148 0.31262 0.0
C895 C 0.29019 0.54439 0.3329 0.0
C896 C 0.27363 0.55109 0.36175 0.0
C897 C 0.31832 0.55767 0.34126 0.0
C898 C 0.28541 0.57042 0.40024 0.0
C899 C 0.31323 0.58386 0.40827 0.0
H900 H 0.36791 0.14244 0.13539 0.0
H901 H 0.36664 0.21738 0.12497 0.0
H902 H 0.32037 0.19495 0.15705 0.0
H903 H 0.28061 0.15435 0.18867 0.0
H904 H 0.28066 0.07869 0.19426 0.0
H905 H 0.32718 0.10115 0.16376 0.0
C906 C 0.35727 0.15368 0.13877 0.0
C907 C 0.37044 0.18138 0.12677 0.0
C908 C 0.33069 0.14068 0.15737 0.0
C909 C 0.35678 0.19595 0.13359 0.0
C910 C 0.33039 0.18319 0.15203 0.0
C911 C 0.29084 0.14278 0.18341 0.0
C912 C 0.27747 0.1151 0.19544 0.0
C913 C 0.31723 0.15562 0.1643 0.0
C914 C 0.29084 0.10029 0.18773 0.0
C915 C 0.31733 0.11303 0.16935 0.0
H916 H 0.7993 0.17851 0.18923 0.0
H917 H 0.86323 0.23031 0.08733 0.0
H918 H 0.8917 0.21297 0.11977 0.0
H919 H 0.89683 0.18006 0.17207 0.0
H920 H 0.8315 0.12617 0.26919 0.0
H921 H 0.80501 0.14717 0.24348 0.0
C922 C 0.81953 0.18614 0.17425 0.0
C923 C 0.82922 0.20596 0.13639 0.0
C924 C 0.83548 0.17559 0.19219 0.0
C925 C 0.85548 0.21564 0.11743 0.0
C926 C 0.8717 0.20549 0.13562 0.0
C927 C 0.87714 0.17356 0.18864 0.0
C928 C 0.86622 0.15206 0.22316 0.0
C929 C 0.86177 0.18522 0.17256 0.0
C930 C 0.84028 0.14293 0.24294 0.0
C931 C 0.82514 0.15483 0.2281 0.0
H932 H 0.76198 0.61614 0.12843 0.0
H933 H 0.8317 0.64975 0.03111 0.0
H934 H 0.85367 0.69061 0.08287 0.0
H935 H 0.85493 0.71404 0.16046 0.0
H936 H 0.78616 0.67996 0.26013 0.0
H937 H 0.76145 0.64184 0.20223 0.0
C938 C 0.78148 0.63285 0.11745 0.0
C939 C 0.79506 0.63031 0.07551 0.0
C940 C 0.79425 0.65579 0.1483 0.0
C941 C 0.82082 0.65159 0.06284 0.0
C942 C 0.83343 0.67476 0.09263 0.0
C943 C 0.83448 0.69828 0.1694 0.0
C944 C 0.82241 0.69938 0.21465 0.0
C945 C 0.82068 0.67661 0.13629 0.0
C946 C 0.79577 0.67931 0.22549 0.0
C947 C 0.78174 0.6576 0.19248 0.0
H948 H 0.16138 0.29776 0.82848 0.0
H949 H 0.11647 0.31098 0.71232 0.0
H950 H 0.13403 0.35742 0.74127 0.0
H951 H 0.16426 0.39515 0.79717 0.0
H952 H 0.21161 0.38231 0.90834 0.0
H953 H 0.19126 0.33484 0.88333 0.0
C954 C 0.15536 0.31073 0.80933 0.0
C955 C 0.13716 0.3006 0.76885 0.0
C956 C 0.16611 0.33754 0.82526 0.0
C957 C 0.12969 0.3178 0.74459 0.0
C958 C 0.14 0.34453 0.76079 0.0
C959 C 0.16961 0.38172 0.81647 0.0
C960 C 0.18895 0.39184 0.85505 0.0
C961 C 0.15832 0.35465 0.80098 0.0
C962 C 0.19657 0.3747 0.87877 0.0
C963 C 0.185 0.34767 0.86444 0.0
H964 H 0.63117 0.77145 0.86903 0.0
H965 H 0.63083 0.84617 0.8933 0.0
H966 H 0.67618 0.87174 0.85777 0.0
H967 H 0.71515 0.87283 0.81788 0.0
H968 H 0.71743 0.79868 0.80007 0.0
H969 H 0.67191 0.77292 0.83417 0.0
C970 C 0.6413 0.79334 0.86806 0.0
C971 C 0.62781 0.80692 0.88462 0.0
C972 C 0.66741 0.80797 0.8474 0.0
C973 C 0.64088 0.83528 0.88107 0.0
C974 C 0.66674 0.84991 0.86055 0.0
C975 C 0.70572 0.851 0.82124 0.0
C976 C 0.7195 0.83776 0.80443 0.0
C977 C 0.68002 0.83642 0.84305 0.0
C978 C 0.70702 0.80948 0.80992 0.0
C979 C 0.68107 0.79469 0.83055 0.0
H980 H 0.23695 0.85022 0.86607 0.0
H981 H 0.17542 0.82295 0.98078 0.0
H982 H 0.153 0.84369 0.93589 0.0
H983 H 0.14921 0.86656 0.86176 0.0
H984 H 0.20936 0.89252 0.74467 0.0
H985 H 0.2345 0.87576 0.79332 0.0
C986 C 0.21914 0.84957 0.88196 0.0
C987 C 0.20801 0.83548 0.92703 0.0
C988 C 0.20605 0.86103 0.85532 0.0
C989 C 0.18434 0.83386 0.94628 0.0
C990 C 0.17151 0.84561 0.92058 0.0
C991 C 0.16786 0.8686 0.84684 0.0
C992 C 0.17742 0.88069 0.7997 0.0
C993 C 0.18186 0.85869 0.87461 0.0
C994 C 0.20176 0.88355 0.78114 0.0
C995 C 0.21602 0.87383 0.80881 0.0
H996 H 0.94283 0.47389 0.47776 0.0
H997 H 0.97131 0.43767 0.58617 0.0
H998 H 0.01353 0.45411 0.53869 0.0
H999 H 0.04374 0.4825 0.47061 0.0
H1000 H 0.0152 0.5197 0.36437 0.0
H1001 H 0.97138 0.49911 0.40682 0.0
C1002 C 0.95826 0.46952 0.49093 0.0
C1003 C 0.95411 0.45473 0.53541 0.0
C1004 C 0.98235 0.47918 0.46379 0.0
C1005 C 0.97402 0.44884 0.55175 0.0
C1006 C -0.00184 0.45835 0.52475 0.0
C1007 C 0.02762 0.4853 0.45576 0.0
C1008 C 0.03245 0.50222 0.41399 0.0
C1009 C 0.0027 0.4739 0.48111 0.0
C1010 C 0.01176 0.50658 0.39629 0.0
C1011 C 0.98681 0.49494 0.42066 0.0
H1012 H 0.46943 0.52438 0.49454 0.0
H1013 H 0.53092 0.56226 0.38057 0.0
H1014 H 0.55883 0.54677 0.42343 0.0
H1015 H 0.56381 0.51931 0.48997 0.0
H1016 H 0.50091 0.47982 0.60078 0.0
H1017 H 0.47533 0.49922 0.56264 0.0
C1018 C 0.48895 0.52924 0.47899 0.0
C1019 C 0.49812 0.54434 0.43442 0.0
C1020 C 0.5046 0.52012 0.5035 0.0
C1021 C 0.52357 0.55084 0.41509 0.0
C1022 C 0.53945 0.54192 0.43948 0.0
C1023 C 0.54493 0.51576 0.50656 0.0
C1024 C 0.53438 0.49877 0.54867 0.0
C1025 C 0.53002 0.5263 0.48345 0.0
C1026 C 0.50944 0.49325 0.56883 0.0
C1027 C 0.49479 0.50414 0.54684 0.0
H1028 H 0.48598 0.98042 0.42666 0.0
H1029 H 0.42288 0.95216 0.53812 0.0
H1030 H 0.44407 -0.0027 0.57585 0.0
H1031 H 0.48237 0.04386 0.58022 0.0
H1032 H 0.54453 0.07216 0.46612 0.0
H1033 H 0.52244 0.02763 0.42766 0.0
C1034 C 0.47671 0.98435 0.45876 0.0
C1035 C 0.45268 0.96332 0.47897 0.0
C1036 C 0.48913 0.01017 0.48041 0.0
C1037 C 0.4409 0.96835 0.52088 0.0
C1038 C 0.45325 0.99404 0.54291 0.0
C1039 C 0.49072 0.0407 0.54616 0.0
C1040 C 0.51493 0.06172 0.52586 0.0
C1041 C 0.47755 0.01506 0.52327 0.0
C1042 C 0.52598 0.05647 0.4829 0.0
C1043 C 0.51329 0.03101 0.46052 0.0
H1044 H 0.20194 0.03629 0.42007 0.0
H1045 H 0.15329 0.95234 0.37828 0.0
H1046 H 0.1567 0.93837 0.46323 0.0
H1047 H 0.164 0.95034 0.55243 0.0
H1048 H 0.20771 0.03434 0.59567 0.0
H1049 H 0.2166 0.048 0.50766 0.0
C1050 C 0.19295 0.01496 0.42921 0.0
C1051 C 0.17701 0.99538 0.39342 0.0
C1052 C 0.19386 0.0071 0.47885 0.0
C1053 C 0.16535 0.96778 0.40561 0.0
C1054 C 0.1672 0.95977 0.45422 0.0
C1055 C 0.1765 0.97154 0.54253 0.0
C1056 C 0.18501 0.99133 0.58016 0.0
C1057 C 0.18002 0.97927 0.4918 0.0
C1058 C 0.20089 0.01879 0.56706 0.0
C1059 C 0.20572 0.02661 0.51674 0.0
H1060 H 0.9839 0.16157 0.58414 0.0
H1061 H 0.06966 0.20666 0.55434 0.0
H1062 H 0.06089 0.20431 0.46423 0.0
H1063 H 0.02895 0.1825 0.3942 0.0
H1064 H 0.94314 0.13922 0.42397 0.0
H1065 H 0.95175 0.14819 0.51368 0.0
C1066 C 0.00061 0.17155 0.55791 0.0
C1067 C 0.02737 0.18391 0.57569 0.0
C1068 C -0.00459 0.17014 0.50614 0.0
C1069 C 0.04888 0.19703 0.54153 0.0
C1070 C 0.04388 0.19547 0.48994 0.0
C1071 C 0.01217 0.17569 0.42028 0.0
C1072 C 0.9855 0.15987 0.40272 0.0
C1073 C 0.01726 0.18103 0.47181 0.0
C1074 C 0.96386 0.15142 0.43663 0.0
C1075 C 0.96877 0.15635 0.488 0.0
H1076 H 0.80621 0.84472 0.57924 0.0
H1077 H 0.85161 0.80728 0.62992 0.0
H1078 H 0.84979 0.78934 0.54587 0.0
H1079 H 0.84345 0.79229 0.45566 0.0
H1080 H 0.80397 0.8354 0.40327 0.0
H1081 H 0.79455 0.84247 0.48983 0.0
C1082 C 0.81494 0.83192 0.57209 0.0
C1083 C 0.82918 0.82745 0.61041 0.0
C1084 C 0.81505 0.8229 0.52303 0.0
C1085 C 0.84072 0.81112 0.60075 0.0
C1086 C 0.83975 0.80094 0.55269 0.0
C1087 C 0.83183 0.80227 0.46325 0.0
C1088 C 0.82437 0.8133 0.42338 0.0
C1089 C 0.82813 0.8078 0.51307 0.0
C1090 C 0.80983 0.82669 0.43356 0.0
C1091 C 0.80469 0.83097 0.48302 0.0
H1092 H 0.84711 0.35453 0.93634 0.0
H1093 H 0.8042 0.26827 0.91137 0.0
H1094 H 0.81197 0.27557 0.82111 0.0
H1095 H 0.82355 0.30662 0.74913 0.0
H1096 H 0.86772 0.39286 0.77412 0.0
H1097 H 0.86732 0.38549 0.86455 0.0
C1098 C 0.84019 0.33737 0.91118 0.0
C1099 C 0.82474 0.31094 0.93021 0.0
C1100 C 0.84463 0.34172 0.85936 0.0
C1101 C 0.81613 0.28881 0.89753 0.0
C1102 C 0.82033 0.29298 0.84586 0.0
C1103 C 0.83372 0.32374 0.77438 0.0
C1104 C 0.84523 0.35021 0.7553 0.0
C1105 C 0.83342 0.31935 0.82627 0.0
C1106 C 0.85869 0.3723 0.78806 0.0
C1107 C 0.85827 0.3681 0.83978 0.0
H1108 H 0.7124 0.53626 0.87136 0.0
H1109 H 0.62982 0.4901 0.9229 0.0
H1110 H 0.61345 0.48822 0.83749 0.0
H1111 H 0.62282 0.49209 0.74723 0.0
H1112 H 0.70546 0.53298 0.69509 0.0
H1113 H 0.72165 0.54517 0.7813 0.0
C1114 C 0.69084 0.5265 0.86403 0.0
C1115 C 0.67233 0.51312 0.90311 0.0
C1116 C 0.68161 0.52433 0.81448 0.0
C1117 C 0.64443 0.50032 0.89319 0.0
C1118 C 0.63507 0.49917 0.84437 0.0
C1119 C 0.64433 0.50448 0.75466 0.0
C1120 C 0.66295 0.51154 0.71509 0.0
C1121 C 0.65348 0.51 0.80446 0.0
C1122 C 0.69079 0.52726 0.72515 0.0
C1123 C 0.70004 0.53405 0.77443 0.0
H1124 H 0.47271 0.17727 0.73408 0.0
H1125 H 0.51923 0.13734 0.75707 0.0
H1126 H 0.51056 0.13509 0.84722 0.0
H1127 H 0.49784 0.1531 0.91984 0.0
H1128 H 0.45085 0.19251 0.89704 0.0
H1129 H 0.45103 0.1858 0.80643 0.0
C1130 C 0.48022 0.16734 0.75873 0.0
C1131 C 0.49703 0.15799 0.73925 0.0
C1132 C 0.47535 0.16634 0.81055 0.0
C1133 C 0.50633 0.14478 0.77125 0.0
C1134 C 0.50159 0.14372 0.82288 0.0
C1135 C 0.4869 0.1594 0.89506 0.0
C1136 C 0.47478 0.17369 0.91475 0.0
C1137 C 0.48734 0.15571 0.84308 0.0
C1138 C 0.46036 0.18149 0.88262 0.0
C1139 C 0.4607 0.17791 0.83078 0.0
H1140 H 0.48833 0.62763 0.22556 0.0
H1141 H 0.51512 0.70861 0.27867 0.0
H1142 H 0.5314 0.72667 0.19471 0.0
H1143 H 0.53024 0.71842 0.10399 0.0
H1144 H 0.49776 0.63681 0.04982 0.0
H1145 H 0.49214 0.62003 0.13602 0.0
C1146 C 0.49842 0.6493 0.21901 0.0
C1147 C 0.50032 0.66674 0.25807 0.0
C1148 C 0.50655 0.65939 0.17013 0.0
C1149 C 0.51321 0.69476 0.249 0.0
C1150 C 0.52247 0.70509 0.20099 0.0
C1151 C 0.52291 0.69713 0.11123 0.0
C1152 C 0.51455 0.67884 0.07095 0.0
C1153 C 0.51817 0.68748 0.16085 0.0
C1154 C 0.50444 0.6512 0.08049 0.0
C1155 C 0.501 0.6416 0.12972 0.0
H1156 H 0.28923 0.82731 0.13454 0.0
H1157 H 0.37283 0.86584 0.08828 0.0
H1158 H 0.38743 0.8794 0.17476 0.0
H1159 H 0.3763 0.8712 0.26437 0.0
H1160 H 0.29267 0.82746 0.31048 0.0
H1161 H 0.27815 0.82557 0.22367 0.0
C1162 C 0.31061 0.83948 0.14317 0.0
C1163 C 0.32993 0.84522 0.1054 0.0
C1164 C 0.31884 0.8459 0.19329 0.0
C1165 C 0.3576 0.86091 0.11701 0.0
C1166 C 0.36595 0.86855 0.16647 0.0
C1167 C 0.35495 0.86215 0.25549 0.0
C1168 C 0.33554 0.84924 0.29336 0.0
C1169 C 0.34676 0.8598 0.2052 0.0
C1170 C 0.30792 0.83732 0.28161 0.0
C1171 C 0.29962 0.8361 0.232 0.0
H1172 H 0.17855 0.48948 0.2354 0.0
H1173 H 0.12233 0.51842 0.21234 0.0
H1174 H 0.1221 0.51051 0.12239 0.0
H1175 H 0.14433 0.50343 0.04975 0.0
H1176 H 0.20025 0.47421 0.07206 0.0
H1177 H 0.19364 0.47349 0.16291 0.0
C1178 C 0.1658 0.49348 0.21077 0.0
C1179 C 0.151 0.50512 0.2303 0.0
C1180 C 0.16584 0.48899 0.15898 0.0
C1181 C 0.13412 0.50969 0.1982 0.0
C1182 C 0.13407 0.5053 0.14669 0.0
C1183 C 0.15439 0.4961 0.07452 0.0
C1184 C 0.17303 0.48929 0.0546 0.0
C1185 C 0.15078 0.49614 0.12653 0.0
C1186 C 0.18578 0.47953 0.0867 0.0
C1187 C 0.18224 0.47943 0.13865 0.0
H1188 H 0.1661 0.03138 0.06354 0.0
H1189 H 0.12274 0.94552 0.09336 0.0
H1190 H 0.11978 0.93626 0.00326 0.0
H1191 H 0.12997 0.95285 0.91613 0.0
H1192 H 0.18047 0.03842 0.88835 0.0
H1193 H 0.18055 0.04768 0.97794 0.0
C1194 C 0.15659 0.01061 0.05057 0.0
C1195 C 0.14473 0.98918 0.08522 0.0
C1196 C 0.1563 0.00547 -0.00087 0.0
C1197 C 0.13165 0.9624 0.06747 0.0
C1198 C 0.13018 0.9571 0.016 0.0
C1199 C 0.14158 0.97345 0.92982 0.0
C1200 C 0.15534 0.99494 0.89577 0.0
C1201 C 0.14256 0.9785 0.98153 0.0
C1202 C 0.16956 0.0216 0.91389 0.0
C1203 C 0.16969 0.02688 0.96503 0.0
H1204 H 0.03307 0.16774 0.08204 0.0
H1205 H 0.94653 0.12064 0.06262 0.0
H1206 H 0.95196 0.12605 0.97183 0.0
H1207 H 0.98142 0.14368 0.89751 0.0
H1208 H 0.06798 0.18327 0.91659 0.0
H1209 H 0.06254 0.18129 0.0076 0.0
C1210 C 0.01542 0.15845 0.05792 0.0
C1211 C 0.98941 0.14445 0.07927 0.0
C1212 C 0.01874 0.16039 0.00554 0.0
C1213 C 0.96675 0.13247 0.0474 0.0
C1214 C 0.96984 0.13525 0.99536 0.0
C1215 C -0.00094 0.15168 0.92164 0.0
C1216 C 0.02507 0.16423 0.90026 0.0
C1217 C -0.00426 0.14917 0.97399 0.0
C1218 C 0.04775 0.1744 0.93201 0.0
C1219 C 0.04465 0.17299 0.98411 0.0
H1220 H 0.87389 0.83326 0.92414 0.0
H1221 H 0.82658 0.87294 0.93931 0.0
H1222 H 0.82395 0.86589 0.02966 0.0
H1223 H 0.83518 0.84864 0.10469 0.0
H1224 H 0.88992 0.81737 0.0922 0.0
H1225 H 0.88972 0.82095 0.00068 0.0
C1226 C 0.86334 0.84069 0.94729 0.0
C1227 C 0.84981 0.85292 0.92475 0.0
C1228 C 0.86312 0.8379 -0.00028 0.0
C1229 C 0.83624 0.86246 0.95536 0.0
C1230 C 0.83498 0.85873 0.00718 0.0
C1231 C 0.84716 0.84275 0.08185 0.0
C1232 C 0.86182 0.83195 0.10488 0.0
C1233 C 0.84823 0.84639 0.02972 0.0
C1234 C 0.87756 0.82469 0.07509 0.0
C1235 C 0.87774 0.82708 0.02285 0.0
H1236 H 0.84376 0.32133 0.26169 0.0
H1237 H 0.76774 0.3201 0.2508 0.0
H1238 H 0.76811 0.32765 0.34127 0.0
H1239 H 0.79041 0.33521 0.42327 0.0
H1240 H 0.86731 0.3384 0.43441 0.0
H1241 H 0.86648 0.32955 0.34409 0.0
C1242 C 0.82737 0.32276 0.27942 0.0
C1243 C 0.80587 0.32039 0.25011 0.0
C1244 C 0.8279 0.32738 0.33129 0.0
C1245 C 0.78463 0.32221 0.27292 0.0
C1246 C 0.78479 0.32641 0.32452 0.0
C1247 C 0.80679 0.33366 0.40579 0.0
C1248 C 0.82868 0.33697 0.435 0.0
C1249 C 0.80633 0.32907 0.35403 0.0
C1250 C 0.85019 0.33564 0.41226 0.0
C1251 C 0.84971 0.33063 0.36081 0.0
H1252 H 0.64261 0.49242 0.21816 0.0
H1253 H 0.72867 0.52685 0.23802 0.0
H1254 H 0.72321 0.52693 0.32889 0.0
H1255 H 0.69351 0.51372 0.40284 0.0
H1256 H 0.60698 0.46787 0.38206 0.0
H1257 H 0.61282 0.47566 0.29175 0.0
C1258 C 0.66015 0.4999 0.24246 0.0
C1259 C 0.68603 0.51014 0.22134 0.0
C1260 C 0.65663 0.49764 0.29462 0.0
C1261 C 0.70861 0.5198 0.25317 0.0
C1262 C 0.70546 0.51942 0.3052 0.0
C1263 C 0.67594 0.50525 0.37849 0.0
C1264 C 0.64985 0.49067 0.39928 0.0
C1265 C 0.6795 0.50788 0.32632 0.0
C1266 C 0.62727 0.47999 0.36728 0.0
C1267 C 0.6306 0.48411 0.31554 0.0
H1268 H 0.4839 0.20457 0.25759 0.0
H1269 H 0.52987 0.16567 0.21895 0.0
H1270 H 0.53873 0.16272 0.30771 0.0
H1271 H 0.53456 0.17261 0.39588 0.0
H1272 H 0.48126 0.20314 0.43504 0.0
H1273 H 0.47407 0.20806 0.34612 0.0
C1274 C 0.49514 0.19466 0.26844 0.0
C1275 C 0.50634 0.1855 0.23152 0.0
C1276 C 0.49903 0.19181 0.31957 0.0
C1277 C 0.5215 0.17342 0.24654 0.0
C1278 C 0.52644 0.17157 0.29729 0.0
C1279 C 0.52068 0.17953 0.38511 0.0
C1280 C 0.5084 0.18742 0.42211 0.0
C1281 C 0.51545 0.18088 0.33409 0.0
C1282 C 0.49127 0.19729 0.40728 0.0
C1283 C 0.48699 0.19992 0.35649 0.0
H1284 H 0.47711 0.63922 0.75556 0.0
H1285 H 0.52456 0.72575 0.73509 0.0
H1286 H 0.52355 0.71975 0.64444 0.0
H1287 H 0.50649 0.69015 0.57055 0.0
H1288 H 0.45081 0.60491 0.59096 0.0
H1289 H 0.45746 0.60998 0.68177 0.0
C1290 C 0.48704 0.65678 0.73126 0.0
C1291 C 0.50118 0.68285 0.75227 0.0
C1292 C 0.48479 0.65333 0.67901 0.0
C1293 C 0.51424 0.70537 0.7202 0.0
C1294 C 0.51335 0.702 0.66822 0.0
C1295 C 0.49583 0.67272 0.595 0.0
C1296 C 0.47868 0.64711 0.57412 0.0
C1297 C 0.49834 0.6761 0.64722 0.0
C1298 C 0.46485 0.62468 0.60605 0.0
C1299 C 0.46837 0.62763 0.65799 0.0
H1300 H 0.32062 0.85242 0.77935 0.0
H1301 H 0.3092 0.77196 0.79014 0.0
H1302 H 0.31566 0.77113 0.69942 0.0
H1303 H 0.327 0.79433 0.61826 0.0
H1304 H 0.34025 0.87548 0.60686 0.0
H1305 H 0.3311 0.87543 0.69688 0.0
C1306 C 0.31928 0.8347 0.76138 0.0
C1307 C 0.31441 0.81225 0.79049 0.0
C1308 C 0.32365 0.83469 0.70956 0.0
C1309 C 0.31291 0.78936 0.76776 0.0
C1310 C 0.31668 0.78895 0.71618 0.0
C1311 C 0.32747 0.81181 0.63548 0.0
C1312 C 0.33397 0.83476 0.60642 0.0
C1313 C 0.3224 0.81162 0.68688 0.0
C1314 C 0.33525 0.85762 0.62897 0.0
C1315 C 0.32996 0.85754 0.68019 0.0
H1316 H 0.19331 0.54679 0.56244 0.0
H1317 H 0.11757 0.47184 0.5545 0.0
H1318 H 0.11865 0.46574 0.64561 0.0
H1319 H 0.14217 0.48155 0.7272 0.0
H1320 H 0.21687 0.55764 0.73457 0.0
H1321 H 0.21542 0.56369 0.64389 0.0
C1322 C 0.17714 0.52913 0.58089 0.0
C1323 C 0.15563 0.50952 0.55241 0.0
C1324 C 0.17778 0.52608 0.63292 0.0
C1325 C 0.13439 0.48698 0.5762 0.0
C1326 C 0.13504 0.48353 0.62803 0.0
C1327 C 0.15793 0.49946 0.70867 0.0
C1328 C 0.17953 0.5192 0.73686 0.0
C1329 C 0.15675 0.50288 0.65672 0.0
C1330 C 0.19998 0.54239 0.71316 0.0
C1331 C 0.1992 0.54577 0.66149 0.0
loop_
_geom_bond_atom_site_label_1
_geom_bond_atom_site_label_2
_geom_bond_distance
_geom_bond_site_symmetry_2
_ccdc_geom_bond_type
Co0 O3 1.970 . S
Co0 N17 1.989 . S
Co0 O25 1.967 1_565 S
Co0 O32 1.920 . S
Co1 O4 1.966 . S
Co1 N10 2.022 . S
Co1 N18 1.993 . S
Co1 O26 1.941 . S
C2 O3 1.258 1_545 S
C2 O4 1.263 . S
O3 Co0 1.970 . S
O3 C2 1.258 1_565 S
O4 Co1 1.966 . S
O4 C2 1.263 . S
C5 O6 1.235 . S
C5 O32 1.289 . S
O6 C5 1.235 . S
C7 C9 1.400 . S
C7 N10 1.351 . S
C7 C12 1.501 . S
C8 C9 1.387 . S
C8 N11 1.341 . S
C9 C7 1.400 . S
C9 C8 1.387 . S
N10 Co1 2.022 . S
N10 C7 1.351 . S
N10 N11 1.365 . S
N11 C8 1.341 . S
N11 N10 1.365 . S
N11 H31 0.862 . S
C12 C7 1.501 . S
C12 H13 0.961 . S
C12 H14 0.961 . S
C12 H15 0.960 . S
H13 C12 0.961 . S
H14 C12 0.961 . S
H15 C12 0.960 . S
C16 N17 1.342 . S
C16 C20 1.401 . S
C16 C21 1.499 . S
N17 Co0 1.989 . S
N17 C16 1.342 . S
N17 N18 1.388 1_565 S
N18 Co1 1.993 . S
N18 N17 1.388 1_545 S
N18 C19 1.346 . S
C19 N18 1.346 . S
C19 C20 1.396 1_545 S
C19 C29 1.510 . S
C20 C16 1.401 . S
C20 C19 1.396 1_565 S
C21 C16 1.499 . S
C21 H22 0.959 . S
C21 H23 0.960 . S
C21 H24 0.961 . S
H22 C21 0.959 . S
H23 C21 0.960 . S
H24 C21 0.961 . S
O25 Co0 1.967 1_545 S
O25 C33 1.258 . S
O26 Co1 1.941 . S
O26 C33 1.266 . S
H27 C29 0.959 . S
H28 C29 0.961 . S
C29 C19 1.510 . S
C29 H27 0.959 . S
C29 H28 0.961 . S
C29 H30 0.960 . S
H30 C29 0.960 . S
H31 N11 0.862 . S
O32 Co0 1.920 . S
O32 C5 1.289 . S
C33 O25 1.258 . S
C33 O26 1.266 . S
Co34 O37 1.970 . S
Co34 N51 1.989 . S
Co34 O59 1.967 1_455 S
Co34 O66 1.920 . S
Co35 O38 1.966 . S
Co35 N44 2.022 . S
Co35 N52 1.998 . S
Co35 O60 1.941 . S
C36 O37 1.258 . S
C36 O38 1.263 1_455 S
O37 Co34 1.970 . S
O37 C36 1.258 . S
O38 Co35 1.966 . S
O38 C36 1.263 1_655 S
C39 O40 1.235 . S
C39 O66 1.289 . S
O40 C39 1.235 . S
C41 C43 1.400 . S
C41 N44 1.351 . S
C41 C46 1.501 . S
C42 C43 1.387 . S
C42 N45 1.341 . S
C43 C41 1.400 . S
C43 C42 1.387 . S
N44 Co35 2.022 . S
N44 C41 1.351 . S
N44 N45 1.365 . S
N45 C42 1.341 . S
N45 N44 1.365 . S
N45 H65 0.862 . S
C46 C41 1.501 . S
C46 H47 0.961 . S
C46 H48 0.961 . S
C46 H49 0.960 . S
H47 C46 0.961 . S
H48 C46 0.961 . S
H49 C46 0.960 . S
C50 N51 1.342 . S
C50 C54 1.401 . S
C50 C55 1.499 . S
N51 Co34 1.989 . S
N51 C50 1.342 . S
N51 N52 1.381 1_455 S
N52 Co35 1.998 . S
N52 N51 1.381 1_655 S
N52 C53 1.347 1_655 S
C53 N52 1.347 1_455 S
C53 C54 1.396 . S
C53 C63 1.510 1_455 S
C54 C50 1.401 . S
C54 C53 1.396 . S
C55 C50 1.499 . S
C55 H56 0.959 . S
C55 H57 0.960 . S
C55 H58 0.961 . S
H56 C55 0.959 . S
H57 C55 0.960 . S
H58 C55 0.961 . S
O59 Co34 1.967 1_655 S
O59 C67 1.258 . S
O60 Co35 1.941 . S
O60 C67 1.266 . S
H61 C63 0.959 . S
H62 C63 0.961 . S
C63 C53 1.510 1_655 S
C63 H61 0.959 . S
C63 H62 0.961 . S
C63 H64 0.960 . S
H64 C63 0.960 . S
H65 N45 0.862 . S
O66 Co34 1.920 . S
O66 C39 1.289 . S
C67 O59 1.258 . S
C67 O60 1.266 . S
Co68 O71 1.970 . S
Co68 N85 1.989 . S
Co68 O93 1.967 . S
Co68 O100 1.920 . S
Co69 O72 1.966 . S
Co69 N78 2.022 . S
Co69 N86 1.993 . S
Co69 O94 1.941 . S
C70 O71 1.258 . S
C70 O72 1.263 . S
O71 Co68 1.970 . S
O71 C70 1.258 . S
O72 Co69 1.966 . S
O72 C70 1.263 . S
C73 O74 1.235 . S
C73 O100 1.289 . S
O74 C73 1.235 . S
C75 C77 1.400 . S
C75 N78 1.351 . S
C75 C80 1.501 . S
C76 C77 1.387 . S
C76 N79 1.341 . S
C77 C75 1.400 . S
C77 C76 1.387 . S
N78 Co69 2.022 . S
N78 C75 1.351 . S
N78 N79 1.365 . S
N79 C76 1.341 . S
N79 N78 1.365 . S
N79 H99 0.862 . S
C80 C75 1.501 . S
C80 H81 0.961 . S
C80 H82 0.961 . S
C80 H83 0.960 . S
H81 C80 0.961 . S
H82 C80 0.961 . S
H83 C80 0.960 . S
C84 N85 1.342 . S
C84 C88 1.401 . S
C84 C89 1.499 . S
N85 Co68 1.989 . S
N85 C84 1.342 . S
N85 N86 1.388 . S
N86 Co69 1.993 . S
N86 N85 1.388 . S
N86 C87 1.346 . S
C87 N86 1.346 . S
C87 C88 1.396 . S
C87 C97 1.510 . S
C88 C84 1.401 . S
C88 C87 1.396 . S
C89 C84 1.499 . S
C89 H90 0.959 . S
C89 H91 0.960 . S
C89 H92 0.961 . S
H90 C89 0.959 . S
H91 C89 0.960 . S
H92 C89 0.961 . S
O93 Co68 1.967 . S
O93 C101 1.258 . S
O94 Co69 1.941 . S
O94 C101 1.266 . S
H95 C97 0.959 . S
H96 C97 0.961 . S
C97 C87 1.510 . S
C97 H95 0.959 . S
C97 H96 0.961 . S
C97 H98 0.960 . S
H98 C97 0.960 . S
H99 N79 0.862 . S
O100 Co68 1.920 . S
O100 C73 1.289 . S
C101 O93 1.258 . S
C101 O94 1.266 . S
Co102 O105 1.970 . S
Co102 N119 1.989 . S
Co102 O127 1.967 1_655 S
Co102 O134 1.920 . S
Co103 O106 1.966 . S
Co103 N112 2.022 . S
Co103 N120 1.993 . S
Co103 O128 1.941 . S
C104 O105 1.258 1_455 S
C104 O106 1.263 . S
O105 Co102 1.970 . S
O105 C104 1.258 1_655 S
O106 Co103 1.966 . S
O106 C104 1.263 . S
C107 O108 1.235 . S
C107 O134 1.289 . S
O108 C107 1.235 . S
C109 C111 1.400 . S
C109 N112 1.351 . S
C109 C114 1.501 . S
C110 C111 1.387 . S
C110 N113 1.341 . S
C111 C109 1.400 . S
C111 C110 1.387 . S
N112 Co103 2.022 . S
N112 C109 1.351 . S
N112 N113 1.365 . S
N113 C110 1.341 . S
N113 N112 1.365 . S
N113 H133 0.862 . S
C114 C109 1.501 . S
C114 H115 0.961 . S
C114 H116 0.961 . S
C114 H117 0.960 . S
H115 C114 0.961 . S
H116 C114 0.961 . S
H117 C114 0.960 . S
C118 N119 1.342 . S
C118 C122 1.401 . S
C118 C123 1.499 . S
N119 Co102 1.989 . S
N119 C118 1.342 . S
N119 N120 1.388 1_655 S
N120 Co103 1.993 . S
N120 N119 1.388 1_455 S
N120 C121 1.346 . S
C121 N120 1.346 . S
C121 C122 1.396 1_455 S
C121 C131 1.510 . S
C122 C118 1.401 . S
C122 C121 1.396 1_655 S
C123 C118 1.499 . S
C123 H124 0.959 . S
C123 H125 0.960 . S
C123 H126 0.961 . S
H124 C123 0.959 . S
H125 C123 0.960 . S
H126 C123 0.961 . S
O127 Co102 1.967 1_455 S
O127 C135 1.258 . S
O128 Co103 1.941 . S
O128 C135 1.266 . S
H129 C131 0.959 . S
H130 C131 0.961 . S
C131 C121 1.510 . S
C131 H129 0.959 . S
C131 H130 0.961 . S
C131 H132 0.960 . S
H132 C131 0.960 . S
H133 N113 0.862 . S
O134 Co102 1.920 . S
O134 C107 1.289 . S
C135 O127 1.258 . S
C135 O128 1.266 . S
Co136 O139 1.970 . S
Co136 N153 1.989 . S
Co136 O161 1.967 . S
Co136 O168 1.920 . S
Co137 O140 1.966 . S
Co137 N146 2.022 . S
Co137 N154 1.993 . S
Co137 O162 1.941 . S
C138 O139 1.258 . S
C138 O140 1.263 . S
O139 Co136 1.970 . S
O139 C138 1.258 . S
O140 Co137 1.966 . S
O140 C138 1.263 . S
C141 O142 1.235 . S
C141 O168 1.289 . S
O142 C141 1.235 . S
C143 C145 1.400 . S
C143 N146 1.351 . S
C143 C148 1.501 . S
C144 C145 1.387 . S
C144 N147 1.341 . S
C145 C143 1.400 . S
C145 C144 1.387 . S
N146 Co137 2.022 . S
N146 C143 1.351 . S
N146 N147 1.365 . S
N147 C144 1.341 . S
N147 N146 1.365 . S
N147 H167 0.862 . S
C148 C143 1.501 . S
C148 H149 0.961 . S
C148 H150 0.961 . S
C148 H151 0.960 . S
H149 C148 0.961 . S
H150 C148 0.961 . S
H151 C148 0.960 . S
C152 N153 1.342 . S
C152 C156 1.401 . S
C152 C157 1.499 . S
N153 Co136 1.989 . S
N153 C152 1.342 . S
N153 N154 1.388 . S
N154 Co137 1.993 . S
N154 N153 1.388 . S
N154 C155 1.346 . S
C155 N154 1.346 . S
C155 C156 1.396 . S
C155 C165 1.510 . S
C156 C152 1.401 . S
C156 C155 1.396 . S
C157 C152 1.499 . S
C157 H158 0.959 . S
C157 H159 0.960 . S
C157 H160 0.961 . S
H158 C157 0.959 . S
H159 C157 0.960 . S
H160 C157 0.961 . S
O161 Co136 1.967 . S
O161 C169 1.258 . S
O162 Co137 1.941 . S
O162 C169 1.266 . S
H163 C165 0.959 . S
H164 C165 0.961 . S
C165 C155 1.510 . S
C165 H163 0.959 . S
C165 H164 0.961 . S
C165 H166 0.960 . S
H166 C165 0.960 . S
H167 N147 0.862 . S
O168 Co136 1.920 . S
O168 C141 1.289 . S
C169 O161 1.258 . S
C169 O162 1.266 . S
Co170 O173 1.970 . S
Co170 N187 1.989 . S
Co170 O195 1.967 1_545 S
Co170 O202 1.920 . S
Co171 O174 1.966 . S
Co171 N180 2.022 . S
Co171 N188 1.999 . S
Co171 O196 1.941 . S
C172 O173 1.258 . S
C172 O174 1.263 1_545 S
O173 Co170 1.970 . S
O173 C172 1.258 . S
O174 Co171 1.966 . S
O174 C172 1.263 1_565 S
C175 O176 1.235 . S
C175 O202 1.289 . S
O176 C175 1.235 . S
C177 C179 1.400 . S
C177 N180 1.351 . S
C177 C182 1.501 . S
C178 C179 1.387 . S
C178 N181 1.341 . S
C179 C177 1.400 . S
C179 C178 1.387 . S
N180 Co171 2.022 . S
N180 C177 1.351 . S
N180 N181 1.365 . S
N181 C178 1.341 . S
N181 N180 1.365 . S
N181 H201 0.862 . S
C182 C177 1.501 . S
C182 H183 0.961 . S
C182 H184 0.961 . S
C182 H185 0.960 . S
H183 C182 0.961 . S
H184 C182 0.961 . S
H185 C182 0.960 . S
C186 N187 1.342 . S
C186 C190 1.401 . S
C186 C191 1.499 . S
N187 Co170 1.989 . S
N187 C186 1.342 . S
N187 N188 1.379 1_545 S
N188 Co171 1.999 . S
N188 N187 1.379 1_565 S
N188 C189 1.347 1_565 S
C189 N188 1.347 1_545 S
C189 C190 1.396 . S
C189 C199 1.510 1_545 S
C190 C186 1.401 . S
C190 C189 1.396 . S
C191 C186 1.499 . S
C191 H192 0.959 . S
C191 H193 0.960 . S
C191 H194 0.961 . S
H192 C191 0.959 . S
H193 C191 0.960 . S
H194 C191 0.961 . S
O195 Co170 1.967 1_565 S
O195 C203 1.258 . S
O196 Co171 1.941 . S
O196 C203 1.266 . S
H197 C199 0.959 . S
H198 C199 0.961 . S
C199 C189 1.510 1_565 S
C199 H197 0.959 . S
C199 H198 0.961 . S
C199 H200 0.960 . S
H200 C199 0.960 . S
H201 N181 0.862 . S
O202 Co170 1.920 . S
O202 C175 1.289 . S
C203 O195 1.258 . S
C203 O196 1.266 . S
Co204 O207 1.970 . S
Co204 N221 1.989 . S
Co204 O229 1.967 . S
Co204 O236 1.920 . S
Co205 O208 1.966 . S
Co205 N214 2.022 . S
Co205 N222 1.993 . S
Co205 O230 1.941 . S
C206 O207 1.258 . S
C206 O208 1.263 . S
O207 Co204 1.970 . S
O207 C206 1.258 . S
O208 Co205 1.966 . S
O208 C206 1.263 . S
C209 O210 1.235 . S
C209 O236 1.289 . S
O210 C209 1.235 . S
C211 C213 1.400 . S
C211 N214 1.351 . S
C211 C216 1.501 . S
C212 C213 1.387 . S
C212 N215 1.341 . S
C213 C211 1.400 . S
C213 C212 1.387 . S
N214 Co205 2.022 . S
N214 C211 1.351 . S
N214 N215 1.365 . S
N215 C212 1.341 . S
N215 N214 1.365 . S
N215 H235 0.862 . S
C216 C211 1.501 . S
C216 H217 0.961 . S
C216 H218 0.961 . S
C216 H219 0.960 . S
H217 C216 0.961 . S
H218 C216 0.961 . S
H219 C216 0.960 . S
C220 N221 1.342 . S
C220 C224 1.401 . S
C220 C225 1.499 . S
N221 Co204 1.989 . S
N221 C220 1.342 . S
N221 N222 1.388 . S
N222 Co205 1.993 . S
N222 N221 1.388 . S
N222 C223 1.346 . S
C223 N222 1.346 . S
C223 C224 1.396 . S
C223 C233 1.510 . S
C224 C220 1.401 . S
C224 C223 1.396 . S
C225 C220 1.499 . S
C225 H226 0.959 . S
C225 H227 0.960 . S
C225 H228 0.961 . S
H226 C225 0.959 . S
H227 C225 0.960 . S
H228 C225 0.961 . S
O229 Co204 1.967 . S
O229 C237 1.258 . S
O230 Co205 1.941 . S
O230 C237 1.266 . S
H231 C233 0.959 . S
H232 C233 0.961 . S
C233 C223 1.510 . S
C233 H231 0.959 . S
C233 H232 0.961 . S
C233 H234 0.960 . S
H234 C233 0.960 . S
H235 N215 0.862 . S
O236 Co204 1.920 . S
O236 C209 1.289 . S
C237 O229 1.258 . S
C237 O230 1.266 . S
Co238 O241 1.970 . S
Co238 N255 1.989 . S
Co238 O263 1.967 . S
Co238 O270 1.920 . S
Co239 O242 1.966 . S
Co239 N248 2.022 . S
Co239 N256 1.993 . S
Co239 O264 1.941 . S
C240 O241 1.258 . S
C240 O242 1.263 . S
O241 Co238 1.970 . S
O241 C240 1.258 . S
O242 Co239 1.966 . S
O242 C240 1.263 . S
C243 O244 1.235 . S
C243 O270 1.289 . S
O244 C243 1.235 . S
C245 C247 1.400 . S
C245 N248 1.351 . S
C245 C250 1.501 . S
C246 C247 1.387 . S
C246 N249 1.341 . S
C247 C245 1.400 . S
C247 C246 1.387 . S
N248 Co239 2.022 . S
N248 C245 1.351 . S
N248 N249 1.365 . S
N249 C246 1.341 . S
N249 N248 1.365 . S
N249 H269 0.862 . S
C250 C245 1.501 . S
C250 H251 0.961 . S
C250 H252 0.961 . S
C250 H253 0.960 . S
H251 C250 0.961 . S
H252 C250 0.961 . S
H253 C250 0.960 . S
C254 N255 1.342 . S
C254 C258 1.401 . S
C254 C259 1.499 . S
N255 Co238 1.989 . S
N255 C254 1.342 . S
N255 N256 1.388 . S
N256 Co239 1.993 . S
N256 N255 1.388 . S
N256 C257 1.346 . S
C257 N256 1.346 . S
C257 C258 1.396 . S
C257 C267 1.510 . S
C258 C254 1.401 . S
C258 C257 1.396 . S
C259 C254 1.499 . S
C259 H260 0.959 . S
C259 H261 0.960 . S
C259 H262 0.961 . S
H260 C259 0.959 . S
H261 C259 0.960 . S
H262 C259 0.961 . S
O263 Co238 1.967 . S
O263 C271 1.258 . S
O264 Co239 1.941 . S
O264 C271 1.266 . S
H265 C267 0.959 . S
H266 C267 0.961 . S
C267 C257 1.510 . S
C267 H265 0.959 . S
C267 H266 0.961 . S
C267 H268 0.960 . S
H268 C267 0.960 . S
H269 N249 0.862 . S
O270 Co238 1.920 . S
O270 C243 1.289 . S
C271 O263 1.258 . S
C271 O264 1.266 . S
Co272 O275 1.970 . S
Co272 N289 1.989 . S
Co272 O297 1.967 . S
Co272 O304 1.920 . S
Co273 O276 1.966 . S
Co273 N282 2.022 . S
Co273 N290 1.993 . S
Co273 O298 1.941 . S
C274 O275 1.258 . S
C274 O276 1.263 . S
O275 Co272 1.970 . S
O275 C274 1.258 . S
O276 Co273 1.966 . S
O276 C274 1.263 . S
C277 O278 1.235 . S
C277 O304 1.289 . S
O278 C277 1.235 . S
C279 C281 1.400 . S
C279 N282 1.351 . S
C279 C284 1.501 . S
C280 C281 1.387 . S
C280 N283 1.341 . S
C281 C279 1.400 . S
C281 C280 1.387 . S
N282 Co273 2.022 . S
N282 C279 1.351 . S
N282 N283 1.365 . S
N283 C280 1.341 . S
N283 N282 1.365 . S
N283 H303 0.862 . S
C284 C279 1.501 . S
C284 H285 0.961 . S
C284 H286 0.961 . S
C284 H287 0.960 . S
H285 C284 0.961 . S
H286 C284 0.961 . S
H287 C284 0.960 . S
C288 N289 1.342 . S
C288 C292 1.401 . S
C288 C293 1.499 . S
N289 Co272 1.989 . S
N289 C288 1.342 . S
N289 N290 1.388 . S
N290 Co273 1.993 . S
N290 N289 1.388 . S
N290 C291 1.346 . S
C291 N290 1.346 . S
C291 C292 1.396 . S
C291 C301 1.510 . S
C292 C288 1.401 . S
C292 C291 1.396 . S
C293 C288 1.499 . S
C293 H294 0.959 . S
C293 H295 0.960 . S
C293 H296 0.961 . S
H294 C293 0.959 . S
H295 C293 0.960 . S
H296 C293 0.961 . S
O297 Co272 1.967 . S
O297 C305 1.258 . S
O298 Co273 1.941 . S
O298 C305 1.266 . S
H299 C301 0.959 . S
H300 C301 0.961 . S
C301 C291 1.510 . S
C301 H299 0.959 . S
C301 H300 0.961 . S
C301 H302 0.960 . S
H302 C301 0.960 . S
H303 N283 0.862 . S
O304 Co272 1.920 . S
O304 C277 1.289 . S
C305 O297 1.258 . S
C305 O298 1.266 . S
Co306 O309 1.970 . S
Co306 N323 1.989 . S
Co306 O331 1.967 . S
Co306 O338 1.920 . S
Co307 O310 1.966 . S
Co307 N316 2.022 . S
Co307 N324 1.993 . S
Co307 O332 1.941 . S
C308 O309 1.258 1_556 S
C308 O310 1.263 1_556 S
O309 Co306 1.970 . S
O309 C308 1.258 1_554 S
O310 Co307 1.966 . S
O310 C308 1.263 1_554 S
C311 O312 1.235 . S
C311 O338 1.289 . S
O312 C311 1.235 . S
C313 C315 1.400 . S
C313 N316 1.351 . S
C313 C318 1.501 . S
C314 C315 1.387 . S
C314 N317 1.341 . S
C315 C313 1.400 . S
C315 C314 1.387 . S
N316 Co307 2.022 . S
N316 C313 1.351 . S
N316 N317 1.365 . S
N317 C314 1.341 . S
N317 N316 1.365 . S
N317 H337 0.862 . S
C318 C313 1.501 . S
C318 H319 0.961 . S
C318 H320 0.961 . S
C318 H321 0.960 1_554 S
H319 C318 0.961 . S
H320 C318 0.961 . S
H321 C318 0.960 1_556 S
C322 N323 1.342 . S
C322 C326 1.401 . S
C322 C327 1.499 . S
N323 Co306 1.989 . S
N323 C322 1.342 . S
N323 N324 1.388 . S
N324 Co307 1.993 . S
N324 N323 1.388 . S
N324 C325 1.346 . S
C325 N324 1.346 . S
C325 C326 1.396 . S
C325 C335 1.510 . S
C326 C322 1.401 . S
C326 C325 1.396 . S
C327 C322 1.499 . S
C327 H328 0.959 . S
C327 H329 0.960 . S
C327 H330 0.961 . S
H328 C327 0.959 . S
H329 C327 0.960 . S
H330 C327 0.961 . S
O331 Co306 1.967 . S
O331 C339 1.258 . S
O332 Co307 1.941 . S
O332 C339 1.266 . S
H333 C335 0.959 . S
H334 C335 0.961 . S
C335 C325 1.510 . S
C335 H333 0.959 . S
C335 H334 0.961 . S
C335 H336 0.960 . S
H336 C335 0.960 . S
H337 N317 0.862 . S
O338 Co306 1.920 . S
O338 C311 1.289 . S
C339 O331 1.258 . S
C339 O332 1.266 . S
Co340 O343 1.970 . S
Co340 N357 1.989 . S
Co340 O365 1.967 . S
Co340 O372 1.920 . S
Co341 O344 1.966 . S
Co341 N350 2.022 . S
Co341 N358 1.993 . S
Co341 O366 1.941 . S
C342 O343 1.258 1_556 S
C342 O344 1.263 1_556 S
O343 Co340 1.970 . S
O343 C342 1.258 1_554 S
O344 Co341 1.966 . S
O344 C342 1.263 1_554 S
C345 O346 1.235 . S
C345 O372 1.289 . S
O346 C345 1.235 . S
C347 C349 1.400 . S
C347 N350 1.351 . S
C347 C352 1.501 . S
C348 C349 1.387 . S
C348 N351 1.341 . S
C349 C347 1.400 . S
C349 C348 1.387 . S
N350 Co341 2.022 . S
N350 C347 1.351 . S
N350 N351 1.365 . S
N351 C348 1.341 . S
N351 N350 1.365 . S
N351 H371 0.862 . S
C352 C347 1.501 . S
C352 H353 0.961 . S
C352 H354 0.961 . S
C352 H355 0.960 1_554 S
H353 C352 0.961 . S
H354 C352 0.961 . S
H355 C352 0.960 1_556 S
C356 N357 1.342 . S
C356 C360 1.401 . S
C356 C361 1.499 . S
N357 Co340 1.989 . S
N357 C356 1.342 . S
N357 N358 1.388 . S
N358 Co341 1.993 . S
N358 N357 1.388 . S
N358 C359 1.346 . S
C359 N358 1.346 . S
C359 C360 1.396 . S
C359 C369 1.510 . S
C360 C356 1.401 . S
C360 C359 1.396 . S
C361 C356 1.499 . S
C361 H362 0.959 . S
C361 H363 0.960 . S
C361 H364 0.961 . S
H362 C361 0.959 . S
H363 C361 0.960 . S
H364 C361 0.961 . S
O365 Co340 1.967 . S
O365 C373 1.258 . S
O366 Co341 1.941 . S
O366 C373 1.266 . S
H367 C369 0.959 . S
H368 C369 0.961 . S
C369 C359 1.510 . S
C369 H367 0.959 . S
C369 H368 0.961 . S
C369 H370 0.960 . S
H370 C369 0.960 . S
H371 N351 0.862 . S
O372 Co340 1.920 . S
O372 C345 1.289 . S
C373 O365 1.258 . S
C373 O366 1.266 . S
Co374 O377 1.970 . S
Co374 N391 1.989 . S
Co374 O399 1.967 . S
Co374 O406 1.920 . S
Co375 O378 1.966 . S
Co375 N384 2.022 . S
Co375 N392 1.993 . S
Co375 O400 1.941 . S
C376 O377 1.258 1_556 S
C376 O378 1.263 1_556 S
O377 Co374 1.970 . S
O377 C376 1.258 1_554 S
O378 Co375 1.966 . S
O378 C376 1.263 1_554 S
C379 O380 1.235 . S
C379 O406 1.289 . S
O380 C379 1.235 . S
C381 C383 1.400 . S
C381 N384 1.351 . S
C381 C386 1.501 . S
C382 C383 1.387 . S
C382 N385 1.341 . S
C383 C381 1.400 . S
C383 C382 1.387 . S
N384 Co375 2.022 . S
N384 C381 1.351 . S
N384 N385 1.365 . S
N385 C382 1.341 . S
N385 N384 1.365 . S
N385 H405 0.862 . S
C386 C381 1.501 . S
C386 H387 0.961 . S
C386 H388 0.961 . S
C386 H389 0.960 1_554 S
H387 C386 0.961 . S
H388 C386 0.961 . S
H389 C386 0.960 1_556 S
C390 N391 1.342 . S
C390 C394 1.401 . S
C390 C395 1.499 . S
N391 Co374 1.989 . S
N391 C390 1.342 . S
N391 N392 1.388 . S
N392 Co375 1.993 . S
N392 N391 1.388 . S
N392 C393 1.346 . S
C393 N392 1.346 . S
C393 C394 1.396 . S
C393 C403 1.510 . S
C394 C390 1.401 . S
C394 C393 1.396 . S
C395 C390 1.499 . S
C395 H396 0.959 . S
C395 H397 0.960 . S
C395 H398 0.961 . S
H396 C395 0.959 . S
H397 C395 0.960 . S
H398 C395 0.961 . S
O399 Co374 1.967 . S
O399 C407 1.258 . S
O400 Co375 1.941 . S
O400 C407 1.266 . S
H401 C403 0.959 . S
H402 C403 0.961 . S
C403 C393 1.510 . S
C403 H401 0.959 . S
C403 H402 0.961 . S
C403 H404 0.960 . S
H404 C403 0.960 . S
H405 N385 0.862 . S
O406 Co374 1.920 . S
O406 C379 1.289 . S
C407 O399 1.258 . S
C407 O400 1.266 . S
Co408 O411 1.970 . S
Co408 N425 1.989 . S
Co408 O433 1.967 . S
Co408 O440 1.920 . S
Co409 O412 1.966 . S
Co409 N418 2.022 . S
Co409 N426 1.993 . S
Co409 O434 1.941 . S
C410 O411 1.258 1_554 S
C410 O412 1.263 1_554 S
O411 Co408 1.970 . S
O411 C410 1.258 1_556 S
O412 Co409 1.966 . S
O412 C410 1.263 1_556 S
C413 O414 1.235 . S
C413 O440 1.289 . S
O414 C413 1.235 . S
C415 C417 1.400 . S
C415 N418 1.351 . S
C415 C420 1.501 . S
C416 C417 1.387 . S
C416 N419 1.341 . S
C417 C415 1.400 . S
C417 C416 1.387 . S
N418 Co409 2.022 . S
N418 C415 1.351 . S
N418 N419 1.365 . S
N419 C416 1.341 . S
N419 N418 1.365 . S
N419 H439 0.862 . S
C420 C415 1.501 . S
C420 H421 0.961 . S
C420 H422 0.961 . S
C420 H423 0.960 1_556 S
H421 C420 0.961 . S
H422 C420 0.961 . S
H423 C420 0.960 1_554 S
C424 N425 1.342 . S
C424 C428 1.401 . S
C424 C429 1.499 . S
N425 Co408 1.989 . S
N425 C424 1.342 . S
N425 N426 1.388 . S
N426 Co409 1.993 . S
N426 N425 1.388 . S
N426 C427 1.346 . S
C427 N426 1.346 . S
C427 C428 1.396 . S
C427 C437 1.510 . S
C428 C424 1.401 . S
C428 C427 1.396 . S
C429 C424 1.499 . S
C429 H430 0.959 . S
C429 H431 0.960 . S
C429 H432 0.961 . S
H430 C429 0.959 . S
H431 C429 0.960 . S
H432 C429 0.961 . S
O433 Co408 1.967 . S
O433 C441 1.258 . S
O434 Co409 1.941 . S
O434 C441 1.266 . S
H435 C437 0.959 . S
H436 C437 0.961 . S
C437 C427 1.510 . S
C437 H435 0.959 . S
C437 H436 0.961 . S
C437 H438 0.960 . S
H438 C437 0.960 . S
H439 N419 0.862 . S
O440 Co408 1.920 . S
O440 C413 1.289 . S
C441 O433 1.258 . S
C441 O434 1.266 . S
Co442 O445 1.970 . S
Co442 N459 1.989 . S
Co442 O467 1.967 . S
Co442 O474 1.920 . S
Co443 O446 1.966 . S
Co443 N452 2.022 . S
Co443 N460 1.993 . S
Co443 O468 1.941 . S
C444 O445 1.258 1_554 S
C444 O446 1.263 1_554 S
O445 Co442 1.970 . S
O445 C444 1.258 1_556 S
O446 Co443 1.966 . S
O446 C444 1.263 1_556 S
C447 O448 1.235 . S
C447 O474 1.289 . S
O448 C447 1.235 . S
C449 C451 1.400 . S
C449 N452 1.351 . S
C449 C454 1.501 . S
C450 C451 1.387 . S
C450 N453 1.341 . S
C451 C449 1.400 . S
C451 C450 1.387 . S
N452 Co443 2.022 . S
N452 C449 1.351 . S
N452 N453 1.365 . S
N453 C450 1.341 . S
N453 N452 1.365 . S
N453 H473 0.862 . S
C454 C449 1.501 . S
C454 H455 0.961 . S
C454 H456 0.961 . S
C454 H457 0.960 1_556 S
H455 C454 0.961 . S
H456 C454 0.961 . S
H457 C454 0.960 1_554 S
C458 N459 1.342 . S
C458 C462 1.401 . S
C458 C463 1.499 . S
N459 Co442 1.989 . S
N459 C458 1.342 . S
N459 N460 1.388 . S
N460 Co443 1.993 . S
N460 N459 1.388 . S
N460 C461 1.346 . S
C461 N460 1.346 . S
C461 C462 1.396 . S
C461 C471 1.510 . S
C462 C458 1.401 . S
C462 C461 1.396 . S
C463 C458 1.499 . S
C463 H464 0.959 . S
C463 H465 0.960 . S
C463 H466 0.961 . S
H464 C463 0.959 . S
H465 C463 0.960 . S
H466 C463 0.961 . S
O467 Co442 1.967 . S
O467 C475 1.258 . S
O468 Co443 1.941 . S
O468 C475 1.266 . S
H469 C471 0.959 . S
H470 C471 0.961 . S
C471 C461 1.510 . S
C471 H469 0.959 . S
C471 H470 0.961 . S
C471 H472 0.960 . S
H472 C471 0.960 . S
H473 N453 0.862 . S
O474 Co442 1.920 . S
O474 C447 1.289 . S
C475 O467 1.258 . S
C475 O468 1.266 . S
Co476 O479 1.970 . S
Co476 N493 1.989 . S
Co476 O501 1.967 . S
Co476 O508 1.920 . S
Co477 O480 1.966 . S
Co477 N486 2.022 . S
Co477 N494 1.993 . S
Co477 O502 1.941 . S
C478 O479 1.258 1_554 S
C478 O480 1.263 1_554 S
O479 Co476 1.970 . S
O479 C478 1.258 1_556 S
O480 Co477 1.966 . S
O480 C478 1.263 1_556 S
C481 O482 1.235 . S
C481 O508 1.289 . S
O482 C481 1.235 . S
C483 C485 1.400 . S
C483 N486 1.351 . S
C483 C488 1.501 . S
C484 C485 1.387 . S
C484 N487 1.341 . S
C485 C483 1.400 . S
C485 C484 1.387 . S
N486 Co477 2.022 . S
N486 C483 1.351 . S
N486 N487 1.365 . S
N487 C484 1.341 . S
N487 N486 1.365 . S
N487 H507 0.862 . S
C488 C483 1.501 . S
C488 H489 0.961 . S
C488 H490 0.961 . S
C488 H491 0.960 1_556 S
H489 C488 0.961 . S
H490 C488 0.961 . S
H491 C488 0.960 1_554 S
C492 N493 1.342 . S
C492 C496 1.401 . S
C492 C497 1.499 . S
N493 Co476 1.989 . S
N493 C492 1.342 . S
N493 N494 1.388 . S
N494 Co477 1.993 . S
N494 N493 1.388 . S
N494 C495 1.346 . S
C495 N494 1.346 . S
C495 C496 1.396 . S
C495 C505 1.510 . S
C496 C492 1.401 . S
C496 C495 1.396 . S
C497 C492 1.499 . S
C497 H498 0.959 . S
C497 H499 0.960 . S
C497 H500 0.961 . S
H498 C497 0.959 . S
H499 C497 0.960 . S
H500 C497 0.961 . S
O501 Co476 1.967 . S
O501 C509 1.258 . S
O502 Co477 1.941 . S
O502 C509 1.266 . S
H503 C505 0.959 . S
H504 C505 0.961 . S
C505 C495 1.510 . S
C505 H503 0.959 . S
C505 H504 0.961 . S
C505 H506 0.960 . S
H506 C505 0.960 . S
H507 N487 0.862 . S
O508 Co476 1.920 . S
O508 C481 1.289 . S
C509 O501 1.258 . S
C509 O502 1.266 . S
Co510 O513 1.970 . S
Co510 N527 1.989 . S
Co510 O535 1.967 . S
Co510 O542 1.920 . S
Co511 O514 1.966 . S
Co511 N520 2.022 . S
Co511 N528 1.993 . S
Co511 O536 1.941 . S
C512 O513 1.258 . S
C512 O514 1.263 . S
O513 Co510 1.970 . S
O513 C512 1.258 . S
O514 Co511 1.966 . S
O514 C512 1.263 . S
C515 O516 1.235 . S
C515 O542 1.289 . S
O516 C515 1.235 . S
C517 C519 1.400 . S
C517 N520 1.351 . S
C517 C522 1.501 . S
C518 C519 1.387 . S
C518 N521 1.341 . S
C519 C517 1.400 . S
C519 C518 1.387 . S
N520 Co511 2.022 . S
N520 C517 1.351 . S
N520 N521 1.365 . S
N521 C518 1.341 . S
N521 N520 1.365 . S
N521 H541 0.862 . S
C522 C517 1.501 . S
C522 H523 0.961 . S
C522 H524 0.961 . S
C522 H525 0.960 . S
H523 C522 0.961 . S
H524 C522 0.961 . S
H525 C522 0.960 . S
C526 N527 1.342 . S
C526 C530 1.401 . S
C526 C531 1.499 . S
N527 Co510 1.989 . S
N527 C526 1.342 . S
N527 N528 1.388 . S
N528 Co511 1.993 . S
N528 N527 1.388 . S
N528 C529 1.346 . S
C529 N528 1.346 . S
C529 C530 1.396 . S
C529 C539 1.510 . S
C530 C526 1.401 . S
C530 C529 1.396 . S
C531 C526 1.499 . S
C531 H532 0.959 . S
C531 H533 0.960 . S
C531 H534 0.961 . S
H532 C531 0.959 . S
H533 C531 0.960 . S
H534 C531 0.961 . S
O535 Co510 1.967 . S
O535 C543 1.258 . S
O536 Co511 1.941 . S
O536 C543 1.266 . S
H537 C539 0.959 . S
H538 C539 0.961 . S
C539 C529 1.510 . S
C539 H537 0.959 . S
C539 H538 0.961 . S
C539 H540 0.960 . S
H540 C539 0.960 . S
H541 N521 0.862 . S
O542 Co510 1.920 . S
O542 C515 1.289 . S
C543 O535 1.258 . S
C543 O536 1.266 . S
Co544 O547 1.970 . S
Co544 N561 1.989 . S
Co544 O569 1.967 . S
Co544 O576 1.920 . S
Co545 O548 1.966 . S
Co545 N554 2.022 . S
Co545 N562 1.993 . S
Co545 O570 1.941 . S
C546 O547 1.258 . S
C546 O548 1.263 . S
O547 Co544 1.970 . S
O547 C546 1.258 . S
O548 Co545 1.966 . S
O548 C546 1.263 . S
C549 O550 1.235 . S
C549 O576 1.289 . S
O550 C549 1.235 . S
C551 C553 1.400 . S
C551 N554 1.351 . S
C551 C556 1.501 . S
C552 C553 1.387 . S
C552 N555 1.341 . S
C553 C551 1.400 . S
C553 C552 1.387 . S
N554 Co545 2.022 . S
N554 C551 1.351 . S
N554 N555 1.365 . S
N555 C552 1.341 . S
N555 N554 1.365 . S
N555 H575 0.862 . S
C556 C551 1.501 . S
C556 H557 0.961 . S
C556 H558 0.961 . S
C556 H559 0.960 . S
H557 C556 0.961 . S
H558 C556 0.961 . S
H559 C556 0.960 . S
C560 N561 1.342 . S
C560 C564 1.401 . S
C560 C565 1.499 . S
N561 Co544 1.989 . S
N561 C560 1.342 . S
N561 N562 1.388 . S
N562 Co545 1.993 . S
N562 N561 1.388 . S
N562 C563 1.346 . S
C563 N562 1.346 . S
C563 C564 1.396 . S
C563 C573 1.510 . S
C564 C560 1.401 . S
C564 C563 1.396 . S
C565 C560 1.499 . S
C565 H566 0.959 . S
C565 H567 0.960 . S
C565 H568 0.961 . S
H566 C565 0.959 . S
H567 C565 0.960 . S
H568 C565 0.961 . S
O569 Co544 1.967 . S
O569 C577 1.258 . S
O570 Co545 1.941 . S
O570 C577 1.266 . S
H571 C573 0.959 . S
H572 C573 0.961 . S
C573 C563 1.510 . S
C573 H571 0.959 . S
C573 H572 0.961 . S
C573 H574 0.960 . S
H574 C573 0.960 . S
H575 N555 0.862 . S
O576 Co544 1.920 . S
O576 C549 1.289 . S
C577 O569 1.258 . S
C577 O570 1.266 . S
Co578 O581 1.970 . S
Co578 N595 1.989 . S
Co578 O603 1.967 . S
Co578 O610 1.920 . S
Co579 O582 1.966 . S
Co579 N588 2.022 . S
Co579 N596 1.993 . S
Co579 O604 1.941 . S
C580 O581 1.258 . S
C580 O582 1.263 . S
O581 Co578 1.970 . S
O581 C580 1.258 . S
O582 Co579 1.966 . S
O582 C580 1.263 . S
C583 O584 1.235 . S
C583 O610 1.289 . S
O584 C583 1.235 . S
C585 C587 1.400 . S
C585 N588 1.351 . S
C585 C590 1.501 . S
C586 C587 1.387 . S
C586 N589 1.341 . S
C587 C585 1.400 . S
C587 C586 1.387 . S
N588 Co579 2.022 . S
N588 C585 1.351 . S
N588 N589 1.365 . S
N589 C586 1.341 . S
N589 N588 1.365 . S
N589 H609 0.862 . S
C590 C585 1.501 . S
C590 H591 0.961 . S
C590 H592 0.961 . S
C590 H593 0.960 . S
H591 C590 0.961 . S
H592 C590 0.961 . S
H593 C590 0.960 . S
C594 N595 1.342 . S
C594 C598 1.401 . S
C594 C599 1.499 . S
N595 Co578 1.989 . S
N595 C594 1.342 . S
N595 N596 1.388 . S
N596 Co579 1.993 . S
N596 N595 1.388 . S
N596 C597 1.346 . S
C597 N596 1.346 . S
C597 C598 1.396 . S
C597 C607 1.510 . S
C598 C594 1.401 . S
C598 C597 1.396 . S
C599 C594 1.499 . S
C599 H600 0.959 . S
C599 H601 0.960 . S
C599 H602 0.961 . S
H600 C599 0.959 . S
H601 C599 0.960 . S
H602 C599 0.961 . S
O603 Co578 1.967 . S
O603 C611 1.258 . S
O604 Co579 1.941 . S
O604 C611 1.266 . S
H605 C607 0.959 . S
H606 C607 0.961 . S
C607 C597 1.510 . S
C607 H605 0.959 . S
C607 H606 0.961 . S
C607 H608 0.960 . S
H608 C607 0.960 . S
H609 N589 0.862 . S
O610 Co578 1.920 . S
O610 C583 1.289 . S
C611 O603 1.258 . S
C611 O604 1.266 . S
H612 C618 0.930 . S
H613 C621 0.930 . S
H614 C622 0.930 . S
H615 C623 0.930 . S
H616 C626 0.930 . S
H617 C627 0.930 . S
C618 H612 0.930 . S
C618 C619 1.355 . S
C618 C620 1.415 . S
C619 C618 1.355 . S
C619 C621 1.419 . S
C620 C618 1.415 . S
C620 C625 1.425 . S
C620 C627 1.409 . S
C621 H613 0.930 . S
C621 C619 1.419 . S
C621 C622 1.362 . S
C622 H614 0.930 . S
C622 C621 1.362 . S
C622 C625 1.409 . S
C623 H615 0.930 . S
C623 C624 1.355 . S
C623 C625 1.415 . S
C624 C623 1.355 . S
C624 C626 1.419 . S
C625 C620 1.425 . S
C625 C622 1.409 . S
C625 C623 1.415 . S
C626 H616 0.930 . S
C626 C624 1.419 . S
C626 C627 1.362 . S
C627 H617 0.930 . S
C627 C620 1.409 . S
C627 C626 1.362 . S
H628 C634 0.930 . S
H629 C637 0.930 . S
H630 C638 0.930 1_545 S
H631 C639 0.930 . S
H632 C642 0.930 . S
H633 C643 0.930 . S
C634 H628 0.930 . S
C634 C635 1.355 . S
C634 C636 1.415 1_565 S
C635 C634 1.355 . S
C635 C637 1.419 . S
C636 C634 1.415 1_545 S
C636 C641 1.425 . S
C636 C643 1.409 . S
C637 H629 0.930 . S
C637 C635 1.419 . S
C637 C638 1.360 . S
C638 H630 0.930 1_565 S
C638 C637 1.360 . S
C638 C641 1.411 1_565 S
C639 H631 0.930 . S
C639 C640 1.355 . S
C639 C641 1.415 . S
C640 C639 1.355 . S
C640 C642 1.419 . S
C641 C636 1.425 . S
C641 C638 1.411 1_545 S
C641 C639 1.415 . S
C642 H632 0.930 . S
C642 C640 1.419 . S
C642 C643 1.362 . S
C643 H633 0.930 . S
C643 C636 1.409 . S
C643 C642 1.362 . S
H644 C650 0.930 . S
H645 C653 0.930 . S
H646 C654 0.930 . S
H647 C655 0.930 . S
H648 C658 0.930 . S
H649 C659 0.930 . S
C650 H644 0.930 . S
C650 C651 1.355 . S
C650 C652 1.415 . S
C651 C650 1.355 . S
C651 C653 1.419 . S
C652 C650 1.415 . S
C652 C657 1.425 . S
C652 C659 1.409 1_655 S
C653 H645 0.930 . S
C653 C651 1.419 . S
C653 C654 1.362 . S
C654 H646 0.930 . S
C654 C653 1.362 . S
C654 C657 1.409 . S
C655 H647 0.930 . S
C655 C656 1.355 . S
C655 C657 1.415 1_455 S
C656 C655 1.355 . S
C656 C658 1.419 . S
C657 C652 1.425 . S
C657 C654 1.409 . S
C657 C655 1.415 1_655 S
C658 H648 0.930 . S
C658 C656 1.419 . S
C658 C659 1.362 . S
C659 H649 0.930 . S
C659 C652 1.409 1_455 S
C659 C658 1.362 . S
H660 C666 0.930 . S
H661 C669 0.930 . S
H662 C670 0.930 . S
H663 C671 0.930 . S
H664 C674 0.930 . S
H665 C675 0.930 . S
C666 H660 0.930 . S
C666 C667 1.355 . S
C666 C668 1.415 . S
C667 C666 1.355 . S
C667 C669 1.419 . S
C668 C666 1.415 . S
C668 C673 1.425 . S
C668 C675 1.409 . S
C669 H661 0.930 . S
C669 C667 1.419 . S
C669 C670 1.362 . S
C670 H662 0.930 . S
C670 C669 1.362 . S
C670 C673 1.409 . S
C671 H663 0.930 . S
C671 C672 1.355 . S
C671 C673 1.415 . S
C672 C671 1.355 . S
C672 C674 1.419 . S
C673 C668 1.425 . S
C673 C670 1.409 . S
C673 C671 1.415 . S
C674 H664 0.930 . S
C674 C672 1.419 . S
C674 C675 1.362 . S
C675 H665 0.930 . S
C675 C668 1.409 . S
C675 C674 1.362 . S
H676 C682 0.930 . S
H677 C685 0.930 . S
H678 C686 0.930 . S
H679 C687 0.930 . S
H680 C690 0.930 . S
H681 C691 0.930 . S
C682 H676 0.930 . S
C682 C683 1.355 . S
C682 C684 1.415 1_545 S
C683 C682 1.355 . S
C683 C685 1.419 . S
C684 C682 1.415 1_565 S
C684 C689 1.425 . S
C684 C691 1.409 . S
C685 H677 0.930 . S
C685 C683 1.419 . S
C685 C686 1.362 . S
C686 H678 0.930 . S
C686 C685 1.362 . S
C686 C689 1.409 1_545 S
C687 H679 0.930 . S
C687 C688 1.355 . S
C687 C689 1.415 . S
C688 C687 1.355 . S
C688 C690 1.419 . S
C689 C684 1.425 . S
C689 C686 1.409 1_565 S
C689 C687 1.415 . S
C690 H680 0.930 . S
C690 C688 1.419 . S
C690 C691 1.362 . S
C691 H681 0.930 . S
C691 C684 1.409 . S
C691 C690 1.362 . S
H692 C698 0.930 . S
H693 C701 0.930 . S
H694 C702 0.930 . S
H695 C703 0.930 . S
H696 C706 0.930 . S
H697 C707 0.933 . S
C698 H692 0.930 . S
C698 C699 1.355 . S
C698 C700 1.415 . S
C699 C698 1.355 . S
C699 C701 1.419 . S
C700 C698 1.415 . S
C700 C705 1.425 . S
C700 C707 1.422 . S
C701 H693 0.930 . S
C701 C699 1.419 . S
C701 C702 1.362 . S
C702 H694 0.930 . S
C702 C701 1.362 . S
C702 C705 1.409 . S
C703 H695 0.930 . S
C703 C704 1.355 . S
C703 C705 1.415 1_655 S
C704 C703 1.355 . S
C704 C706 1.419 . S
C705 C700 1.425 . S
C705 C702 1.409 . S
C705 C703 1.415 1_455 S
C706 H696 0.930 . S
C706 C704 1.419 . S
C706 C707 1.347 1_655 S
C707 H697 0.933 . S
C707 C700 1.422 . S
C707 C706 1.347 1_455 S
H708 C714 0.930 . S
H709 C717 0.930 . S
H710 C718 0.930 . S
H711 C719 0.930 . S
H712 C722 0.930 . S
H713 C723 0.930 . S
C714 H708 0.930 . S
C714 C715 1.355 . S
C714 C716 1.415 . S
C715 C714 1.355 . S
C715 C717 1.419 . S
C716 C714 1.415 . S
C716 C721 1.425 . S
C716 C723 1.409 . S
C717 H709 0.930 . S
C717 C715 1.419 . S
C717 C718 1.362 . S
C718 H710 0.930 . S
C718 C717 1.362 . S
C718 C721 1.409 . S
C719 H711 0.930 . S
C719 C720 1.355 . S
C719 C721 1.415 . S
C720 C719 1.355 . S
C720 C722 1.419 . S
C721 C716 1.425 . S
C721 C718 1.409 . S
C721 C719 1.415 . S
C722 H712 0.930 . S
C722 C720 1.419 . S
C722 C723 1.362 . S
C723 H713 0.930 . S
C723 C716 1.409 . S
C723 C722 1.362 . S
H724 C730 0.930 . S
H725 C733 0.930 . S
H726 C734 0.930 . S
H727 C735 0.930 . S
H728 C738 0.930 . S
H729 C739 0.930 . S
C730 H724 0.930 . S
C730 C731 1.355 . S
C730 C732 1.415 . S
C731 C730 1.355 . S
C731 C733 1.419 . S
C732 C730 1.415 . S
C732 C737 1.425 . S
C732 C739 1.409 . S
C733 H725 0.930 . S
C733 C731 1.419 . S
C733 C734 1.362 . S
C734 H726 0.930 . S
C734 C733 1.362 . S
C734 C737 1.409 . S
C735 H727 0.930 . S
C735 C736 1.355 . S
C735 C737 1.415 . S
C736 C735 1.355 . S
C736 C738 1.419 . S
C737 C732 1.425 . S
C737 C734 1.409 . S
C737 C735 1.415 . S
C738 H728 0.930 . S
C738 C736 1.419 . S
C738 C739 1.362 . S
C739 H729 0.930 . S
C739 C732 1.409 . S
C739 C738 1.362 . S
H740 C746 0.930 . S
H741 C749 0.930 . S
H742 C750 0.930 . S
H743 C751 0.930 . S
H744 C754 0.930 . S
H745 C755 0.930 . S
C746 H740 0.930 . S
C746 C747 1.355 . S
C746 C748 1.415 . S
C747 C746 1.355 . S
C747 C749 1.419 . S
C748 C746 1.415 . S
C748 C753 1.425 . S
C748 C755 1.409 . S
C749 H741 0.930 . S
C749 C747 1.419 . S
C749 C750 1.362 . S
C750 H742 0.930 . S
C750 C749 1.362 . S
C750 C753 1.409 . S
C751 H743 0.930 . S
C751 C752 1.355 . S
C751 C753 1.415 . S
C752 C751 1.355 . S
C752 C754 1.419 . S
C753 C748 1.425 . S
C753 C750 1.409 . S
C753 C751 1.415 . S
C754 H744 0.930 . S
C754 C752 1.419 . S
C754 C755 1.362 . S
C755 H745 0.930 . S
C755 C748 1.409 . S
C755 C754 1.362 . S
H756 C762 0.930 . S
H757 C765 0.930 . S
H758 C766 0.930 . S
H759 C767 0.930 . S
H760 C770 0.930 . S
H761 C771 0.930 . S
C762 H756 0.930 . S
C762 C763 1.355 . S
C762 C764 1.415 . S
C763 C762 1.355 . S
C763 C765 1.419 . S
C764 C762 1.415 . S
C764 C769 1.425 . S
C764 C771 1.409 . S
C765 H757 0.930 . S
C765 C763 1.419 . S
C765 C766 1.362 . S
C766 H758 0.930 . S
C766 C765 1.362 . S
C766 C769 1.409 . S
C767 H759 0.930 . S
C767 C768 1.355 . S
C767 C769 1.415 . S
C768 C767 1.355 . S
C768 C770 1.419 . S
C769 C764 1.425 . S
C769 C766 1.409 . S
C769 C767 1.415 . S
C770 H760 0.930 . S
C770 C768 1.419 . S
C770 C771 1.362 . S
C771 H761 0.930 . S
C771 C764 1.409 . S
C771 C770 1.362 . S
H772 C778 0.930 . S
H773 C781 0.930 . S
H774 C782 0.930 . S
H775 C783 0.930 . S
H776 C786 0.930 . S
H777 C787 0.930 . S
C778 H772 0.930 . S
C778 C779 1.355 . S
C778 C780 1.415 . S
C779 C778 1.355 . S
C779 C781 1.419 . S
C780 C778 1.415 . S
C780 C785 1.425 . S
C780 C787 1.409 . S
C781 H773 0.930 . S
C781 C779 1.419 . S
C781 C782 1.362 . S
C782 H774 0.930 . S
C782 C781 1.362 . S
C782 C785 1.409 . S
C783 H775 0.930 . S
C783 C784 1.355 . S
C783 C785 1.415 . S
C784 C783 1.355 . S
C784 C786 1.419 . S
C785 C780 1.425 . S
C785 C782 1.409 . S
C785 C783 1.415 . S
C786 H776 0.930 . S
C786 C784 1.419 . S
C786 C787 1.362 . S
C787 H777 0.930 . S
C787 C780 1.409 . S
C787 C786 1.362 . S
H788 C794 0.930 . S
H789 C797 0.930 1_556 S
H790 C798 0.930 1_556 S
H791 C799 0.930 . S
H792 C802 0.930 . S
H793 C803 0.930 . S
C794 H788 0.930 . S
C794 C795 1.355 . S
C794 C796 1.415 . S
C795 C794 1.355 . S
C795 C797 1.419 . S
C796 C794 1.415 . S
C796 C801 1.425 . S
C796 C803 1.409 . S
C797 H789 0.930 1_554 S
C797 C795 1.419 . S
C797 C798 1.362 . S
C798 H790 0.930 1_554 S
C798 C797 1.362 . S
C798 C801 1.409 . S
C799 H791 0.930 . S
C799 C800 1.355 . S
C799 C801 1.415 . S
C800 C799 1.355 . S
C800 C802 1.419 . S
C801 C796 1.425 . S
C801 C798 1.409 . S
C801 C799 1.415 . S
C802 H792 0.930 . S
C802 C800 1.419 . S
C802 C803 1.362 . S
C803 H793 0.930 . S
C803 C796 1.409 . S
C803 C802 1.362 . S
H804 C810 0.930 . S
H805 C813 0.930 . S
H806 C814 0.930 . S
H807 C815 0.930 . S
H808 C818 0.930 . S
H809 C819 0.930 . S
C810 H804 0.930 . S
C810 C811 1.355 . S
C810 C812 1.415 . S
C811 C810 1.355 . S
C811 C813 1.419 . S
C812 C810 1.415 . S
C812 C817 1.425 . S
C812 C819 1.409 . S
C813 H805 0.930 . S
C813 C811 1.419 . S
C813 C814 1.362 . S
C814 H806 0.930 . S
C814 C813 1.362 . S
C814 C817 1.409 . S
C815 H807 0.930 . S
C815 C816 1.355 . S
C815 C817 1.415 . S
C816 C815 1.355 . S
C816 C818 1.419 . S
C817 C812 1.425 . S
C817 C814 1.409 . S
C817 C815 1.415 . S
C818 H808 0.930 . S
C818 C816 1.419 . S
C818 C819 1.362 . S
C819 H809 0.930 . S
C819 C812 1.409 . S
C819 C818 1.362 . S
H820 C826 0.930 . S
H821 C829 0.930 . S
H822 C830 0.930 . S
H823 C831 0.930 . S
H824 C834 0.930 . S
H825 C835 0.930 . S
C826 H820 0.930 . S
C826 C827 1.355 . S
C826 C828 1.415 . S
C827 C826 1.355 . S
C827 C829 1.419 . S
C828 C826 1.415 . S
C828 C833 1.425 . S
C828 C835 1.409 . S
C829 H821 0.930 . S
C829 C827 1.419 . S
C829 C830 1.362 . S
C830 H822 0.930 . S
C830 C829 1.362 . S
C830 C833 1.409 . S
C831 H823 0.930 . S
C831 C832 1.355 . S
C831 C833 1.415 . S
C832 C831 1.355 . S
C832 C834 1.419 . S
C833 C828 1.425 . S
C833 C830 1.409 . S
C833 C831 1.415 . S
C834 H824 0.930 . S
C834 C832 1.419 . S
C834 C835 1.362 . S
C835 H825 0.930 . S
C835 C828 1.409 . S
C835 C834 1.362 . S
H836 C842 0.930 . S
H837 C845 0.930 . S
H838 C846 0.930 . S
H839 C847 0.930 . S
H840 C850 0.930 . S
H841 C851 0.930 . S
C842 H836 0.930 . S
C842 C843 1.355 . S
C842 C844 1.415 . S
C843 C842 1.355 . S
C843 C845 1.419 . S
C844 C842 1.415 . S
C844 C849 1.425 . S
C844 C851 1.409 . S
C845 H837 0.930 . S
C845 C843 1.419 . S
C845 C846 1.362 . S
C846 H838 0.930 . S
C846 C845 1.362 . S
C846 C849 1.409 . S
C847 H839 0.930 . S
C847 C848 1.355 . S
C847 C849 1.415 . S
C848 C847 1.355 . S
C848 C850 1.419 . S
C849 C844 1.425 . S
C849 C846 1.409 . S
C849 C847 1.415 . S
C850 H840 0.930 . S
C850 C848 1.419 . S
C850 C851 1.362 . S
C851 H841 0.930 . S
C851 C844 1.409 . S
C851 C850 1.362 . S
H852 C858 0.930 . S
H853 C861 0.930 . S
H854 C862 0.930 . S
H855 C863 0.930 . S
H856 C866 0.930 . S
H857 C867 0.930 . S
C858 H852 0.930 . S
C858 C859 1.355 . S
C858 C860 1.415 . S
C859 C858 1.355 . S
C859 C861 1.419 . S
C860 C858 1.415 . S
C860 C865 1.425 . S
C860 C867 1.409 . S
C861 H853 0.930 . S
C861 C859 1.419 . S
C861 C862 1.362 . S
C862 H854 0.930 . S
C862 C861 1.362 . S
C862 C865 1.409 . S
C863 H855 0.930 . S
C863 C864 1.355 . S
C863 C865 1.415 . S
C864 C863 1.355 . S
C864 C866 1.419 . S
C865 C860 1.425 . S
C865 C862 1.409 . S
C865 C863 1.415 . S
C866 H856 0.930 . S
C866 C864 1.419 . S
C866 C867 1.362 . S
C867 H857 0.930 . S
C867 C860 1.409 . S
C867 C866 1.362 . S
H868 C874 0.930 . S
H869 C877 0.930 . S
H870 C878 0.930 . S
H871 C879 0.930 . S
H872 C882 0.930 . S
H873 C883 0.930 . S
C874 H868 0.930 . S
C874 C875 1.355 . S
C874 C876 1.415 . S
C875 C874 1.355 . S
C875 C877 1.419 . S
C876 C874 1.415 . S
C876 C881 1.425 . S
C876 C883 1.409 . S
C877 H869 0.930 . S
C877 C875 1.419 . S
C877 C878 1.362 . S
C878 H870 0.930 . S
C878 C877 1.362 . S
C878 C881 1.409 . S
C879 H871 0.930 . S
C879 C880 1.355 . S
C879 C881 1.415 . S
C880 C879 1.355 . S
C880 C882 1.419 . S
C881 C876 1.425 . S
C881 C878 1.409 . S
C881 C879 1.415 . S
C882 H872 0.930 . S
C882 C880 1.419 . S
C882 C883 1.362 . S
C883 H873 0.930 . S
C883 C876 1.409 . S
C883 C882 1.362 . S
H884 C890 0.930 . S
H885 C893 0.930 . S
H886 C894 0.930 . S
H887 C895 0.930 . S
H888 C898 0.930 . S
H889 C899 0.930 . S
C890 H884 0.930 . S
C890 C891 1.355 . S
C890 C892 1.415 . S
C891 C890 1.355 . S
C891 C893 1.419 . S
C892 C890 1.415 . S
C892 C897 1.425 . S
C892 C899 1.409 . S
C893 H885 0.930 . S
C893 C891 1.419 . S
C893 C894 1.362 . S
C894 H886 0.930 . S
C894 C893 1.362 . S
C894 C897 1.409 . S
C895 H887 0.930 . S
C895 C896 1.355 . S
C895 C897 1.415 . S
C896 C895 1.355 . S
C896 C898 1.419 . S
C897 C892 1.425 . S
C897 C894 1.409 . S
C897 C895 1.415 . S
C898 H888 0.930 . S
C898 C896 1.419 . S
C898 C899 1.362 . S
C899 H889 0.930 . S
C899 C892 1.409 . S
C899 C898 1.362 . S
H900 C906 0.930 . S
H901 C909 0.930 . S
H902 C910 0.930 . S
H903 C911 0.930 . S
H904 C914 0.930 . S
H905 C915 0.930 . S
C906 H900 0.930 . S
C906 C907 1.355 . S
C906 C908 1.415 . S
C907 C906 1.355 . S
C907 C909 1.419 . S
C908 C906 1.415 . S
C908 C913 1.425 . S
C908 C915 1.409 . S
C909 H901 0.930 . S
C909 C907 1.419 . S
C909 C910 1.362 . S
C910 H902 0.930 . S
C910 C909 1.362 . S
C910 C913 1.409 . S
C911 H903 0.930 . S
C911 C912 1.355 . S
C911 C913 1.415 . S
C912 C911 1.355 . S
C912 C914 1.419 . S
C913 C908 1.425 . S
C913 C910 1.409 . S
C913 C911 1.415 . S
C914 H904 0.930 . S
C914 C912 1.419 . S
C914 C915 1.362 . S
C915 H905 0.930 . S
C915 C908 1.409 . S
C915 C914 1.362 . S
H916 C922 0.930 . S
H917 C925 0.930 . S
H918 C926 0.930 . S
H919 C927 0.930 . S
H920 C930 0.930 . S
H921 C931 0.930 . S
C922 H916 0.930 . S
C922 C923 1.355 . S
C922 C924 1.415 . S
C923 C922 1.355 . S
C923 C925 1.419 . S
C924 C922 1.415 . S
C924 C929 1.425 . S
C924 C931 1.409 . S
C925 H917 0.930 . S
C925 C923 1.419 . S
C925 C926 1.362 . S
C926 H918 0.930 . S
C926 C925 1.362 . S
C926 C929 1.409 . S
C927 H919 0.930 . S
C927 C928 1.355 . S
C927 C929 1.415 . S
C928 C927 1.355 . S
C928 C930 1.419 . S
C929 C924 1.425 . S
C929 C926 1.409 . S
C929 C927 1.415 . S
C930 H920 0.930 . S
C930 C928 1.419 . S
C930 C931 1.362 . S
C931 H921 0.930 . S
C931 C924 1.409 . S
C931 C930 1.362 . S
H932 C938 0.930 . S
H933 C941 0.930 . S
H934 C942 0.930 . S
H935 C943 0.930 . S
H936 C946 0.930 . S
H937 C947 0.930 . S
C938 H932 0.930 . S
C938 C939 1.355 . S
C938 C940 1.415 . S
C939 C938 1.355 . S
C939 C941 1.419 . S
C940 C938 1.415 . S
C940 C945 1.425 . S
C940 C947 1.409 . S
C941 H933 0.930 . S
C941 C939 1.419 . S
C941 C942 1.362 . S
C942 H934 0.930 . S
C942 C941 1.362 . S
C942 C945 1.409 . S
C943 H935 0.930 . S
C943 C944 1.355 . S
C943 C945 1.415 . S
C944 C943 1.355 . S
C944 C946 1.419 . S
C945 C940 1.425 . S
C945 C942 1.409 . S
C945 C943 1.415 . S
C946 H936 0.930 . S
C946 C944 1.419 . S
C946 C947 1.362 . S
C947 H937 0.930 . S
C947 C940 1.409 . S
C947 C946 1.362 . S
H948 C954 0.930 . S
H949 C957 0.930 . S
H950 C958 0.930 . S
H951 C959 0.930 . S
H952 C962 0.930 . S
H953 C963 0.930 . S
C954 H948 0.930 . S
C954 C955 1.355 . S
C954 C956 1.415 . S
C955 C954 1.355 . S
C955 C957 1.419 . S
C956 C954 1.415 . S
C956 C961 1.425 . S
C956 C963 1.409 . S
C957 H949 0.930 . S
C957 C955 1.419 . S
C957 C958 1.362 . S
C958 H950 0.930 . S
C958 C957 1.362 . S
C958 C961 1.409 . S
C959 H951 0.930 . S
C959 C960 1.355 . S
C959 C961 1.415 . S
C960 C959 1.355 . S
C960 C962 1.419 . S
C961 C956 1.425 . S
C961 C958 1.409 . S
C961 C959 1.415 . S
C962 H952 0.930 . S
C962 C960 1.419 . S
C962 C963 1.362 . S
C963 H953 0.930 . S
C963 C956 1.409 . S
C963 C962 1.362 . S
H964 C970 0.930 . S
H965 C973 0.930 . S
H966 C974 0.930 . S
H967 C975 0.930 . S
H968 C978 0.930 . S
H969 C979 0.930 . S
C970 H964 0.930 . S
C970 C971 1.355 . S
C970 C972 1.415 . S
C971 C970 1.355 . S
C971 C973 1.419 . S
C972 C970 1.415 . S
C972 C977 1.425 . S
C972 C979 1.409 . S
C973 H965 0.930 . S
C973 C971 1.419 . S
C973 C974 1.362 . S
C974 H966 0.930 . S
C974 C973 1.362 . S
C974 C977 1.409 . S
C975 H967 0.930 . S
C975 C976 1.355 . S
C975 C977 1.415 . S
C976 C975 1.355 . S
C976 C978 1.419 . S
C977 C972 1.425 . S
C977 C974 1.409 . S
C977 C975 1.415 . S
C978 H968 0.930 . S
C978 C976 1.419 . S
C978 C979 1.362 . S
C979 H969 0.930 . S
C979 C972 1.409 . S
C979 C978 1.362 . S
H980 C986 0.930 . S
H981 C989 0.930 . S
H982 C990 0.930 . S
H983 C991 0.930 . S
H984 C994 0.930 . S
H985 C995 0.930 . S
C986 H980 0.930 . S
C986 C987 1.355 . S
C986 C988 1.415 . S
C987 C986 1.355 . S
C987 C989 1.419 . S
C988 C986 1.415 . S
C988 C993 1.425 . S
C988 C995 1.409 . S
C989 H981 0.930 . S
C989 C987 1.419 . S
C989 C990 1.362 . S
C990 H982 0.930 . S
C990 C989 1.362 . S
C990 C993 1.409 . S
C991 H983 0.930 . S
C991 C992 1.355 . S
C991 C993 1.415 . S
C992 C991 1.355 . S
C992 C994 1.419 . S
C993 C988 1.425 . S
C993 C990 1.409 . S
C993 C991 1.415 . S
C994 H984 0.930 . S
C994 C992 1.419 . S
C994 C995 1.362 . S
C995 H985 0.930 . S
C995 C988 1.409 . S
C995 C994 1.362 . S
H996 C1002 0.930 . S
H997 C1005 0.930 . S
H998 C1006 0.930 . S
H999 C1007 0.930 . S
H1000 C1010 0.930 . S
H1001 C1011 0.930 1_655 S
C1002 H996 0.930 . S
C1002 C1003 1.355 . S
C1002 C1004 1.415 . S
C1003 C1002 1.355 . S
C1003 C1005 1.419 . S
C1004 C1002 1.415 . S
C1004 C1009 1.425 1_655 S
C1004 C1011 1.409 1_655 S
C1005 H997 0.930 . S
C1005 C1003 1.419 . S
C1005 C1006 1.362 1_655 S
C1006 H998 0.930 . S
C1006 C1005 1.362 1_455 S
C1006 C1009 1.409 . S
C1007 H999 0.930 . S
C1007 C1008 1.355 . S
C1007 C1009 1.415 . S
C1008 C1007 1.355 . S
C1008 C1010 1.419 . S
C1009 C1004 1.425 1_455 S
C1009 C1006 1.409 . S
C1009 C1007 1.415 . S
C1010 H1000 0.930 . S
C1010 C1008 1.419 . S
C1010 C1011 1.362 . S
C1011 H1001 0.930 1_455 S
C1011 C1004 1.409 1_455 S
C1011 C1010 1.362 . S
H1012 C1018 0.930 . S
H1013 C1021 0.930 . S
H1014 C1022 0.930 . S
H1015 C1023 0.930 . S
H1016 C1026 0.930 . S
H1017 C1027 0.930 . S
C1018 H1012 0.930 . S
C1018 C1019 1.355 . S
C1018 C1020 1.415 . S
C1019 C1018 1.355 . S
C1019 C1021 1.419 . S
C1020 C1018 1.415 . S
C1020 C1025 1.425 . S
C1020 C1027 1.409 . S
C1021 H1013 0.930 . S
C1021 C1019 1.419 . S
C1021 C1022 1.362 . S
C1022 H1014 0.930 . S
C1022 C1021 1.362 . S
C1022 C1025 1.409 . S
C1023 H1015 0.930 . S
C1023 C1024 1.355 . S
C1023 C1025 1.415 . S
C1024 C1023 1.355 . S
C1024 C1026 1.419 . S
C1025 C1020 1.425 . S
C1025 C1022 1.409 . S
C1025 C1023 1.415 . S
C1026 H1016 0.930 . S
C1026 C1024 1.419 . S
C1026 C1027 1.362 . S
C1027 H1017 0.930 . S
C1027 C1020 1.409 . S
C1027 C1026 1.362 . S
H1028 C1034 0.930 . S
H1029 C1037 0.930 . S
H1030 C1038 0.930 . S
H1031 C1039 0.930 . S
H1032 C1042 0.930 . S
H1033 C1043 0.930 . S
C1034 H1028 0.930 . S
C1034 C1035 1.355 . S
C1034 C1036 1.415 1_565 S
C1035 C1034 1.355 . S
C1035 C1037 1.419 . S
C1036 C1034 1.415 1_545 S
C1036 C1041 1.425 . S
C1036 C1043 1.409 . S
C1037 H1029 0.930 . S
C1037 C1035 1.419 . S
C1037 C1038 1.362 . S
C1038 H1030 0.930 . S
C1038 C1037 1.362 . S
C1038 C1041 1.409 1_565 S
C1039 H1031 0.930 . S
C1039 C1040 1.355 . S
C1039 C1041 1.415 . S
C1040 C1039 1.355 . S
C1040 C1042 1.419 . S
C1041 C1036 1.425 . S
C1041 C1038 1.409 1_545 S
C1041 C1039 1.415 . S
C1042 H1032 0.930 . S
C1042 C1040 1.419 . S
C1042 C1043 1.362 . S
C1043 H1033 0.930 . S
C1043 C1036 1.409 . S
C1043 C1042 1.362 . S
H1044 C1050 0.930 . S
H1045 C1053 0.930 . S
H1046 C1054 0.930 . S
H1047 C1055 0.930 . S
H1048 C1058 0.930 . S
H1049 C1059 0.930 . S
C1050 H1044 0.930 . S
C1050 C1051 1.324 1_545 S
C1050 C1052 1.415 . S
C1051 C1050 1.324 1_565 S
C1051 C1053 1.454 . S
C1052 C1050 1.415 . S
C1052 C1057 1.425 1_545 S
C1052 C1059 1.409 . S
C1053 H1045 0.930 . S
C1053 C1051 1.454 . S
C1053 C1054 1.362 . S
C1054 H1046 0.930 . S
C1054 C1053 1.362 . S
C1054 C1057 1.409 . S
C1055 H1047 0.930 . S
C1055 C1056 1.355 1_565 S
C1055 C1057 1.415 . S
C1056 C1055 1.355 1_545 S
C1056 C1058 1.419 . S
C1057 C1052 1.425 1_565 S
C1057 C1054 1.409 . S
C1057 C1055 1.415 . S
C1058 H1048 0.930 . S
C1058 C1056 1.419 . S
C1058 C1059 1.362 . S
C1059 H1049 0.930 . S
C1059 C1052 1.409 . S
C1059 C1058 1.362 . S
H1060 C1066 0.930 . S
H1061 C1069 0.930 . S
H1062 C1070 0.930 . S
H1063 C1071 0.930 . S
H1064 C1074 0.930 . S
H1065 C1075 0.930 . S
C1066 H1060 0.930 . S
C1066 C1067 1.355 1_655 S
C1066 C1068 1.415 . S
C1067 C1066 1.355 1_455 S
C1067 C1069 1.419 . S
C1068 C1066 1.415 . S
C1068 C1073 1.425 1_655 S
C1068 C1075 1.409 . S
C1069 H1061 0.930 . S
C1069 C1067 1.419 . S
C1069 C1070 1.362 . S
C1070 H1062 0.930 . S
C1070 C1069 1.362 . S
C1070 C1073 1.409 . S
C1071 H1063 0.930 . S
C1071 C1072 1.355 . S
C1071 C1073 1.415 . S
C1072 C1071 1.355 . S
C1072 C1074 1.419 1_455 S
C1073 C1068 1.425 1_455 S
C1073 C1070 1.409 . S
C1073 C1071 1.415 . S
C1074 H1064 0.930 . S
C1074 C1072 1.419 1_655 S
C1074 C1075 1.362 . S
C1075 H1065 0.930 . S
C1075 C1068 1.409 . S
C1075 C1074 1.362 . S
H1076 C1082 0.930 . S
H1077 C1085 0.930 . S
H1078 C1086 0.930 . S
H1079 C1087 0.930 . S
H1080 C1090 0.930 . S
H1081 C1091 0.930 . S
C1082 H1076 0.930 . S
C1082 C1083 1.355 . S
C1082 C1084 1.415 . S
C1083 C1082 1.355 . S
C1083 C1085 1.419 . S
C1084 C1082 1.415 . S
C1084 C1089 1.425 . S
C1084 C1091 1.409 . S
C1085 H1077 0.930 . S
C1085 C1083 1.419 . S
C1085 C1086 1.362 . S
C1086 H1078 0.930 . S
C1086 C1085 1.362 . S
C1086 C1089 1.409 . S
C1087 H1079 0.930 . S
C1087 C1088 1.355 . S
C1087 C1089 1.415 . S
C1088 C1087 1.355 . S
C1088 C1090 1.419 . S
C1089 C1084 1.425 . S
C1089 C1086 1.409 . S
C1089 C1087 1.415 . S
C1090 H1080 0.930 . S
C1090 C1088 1.419 . S
C1090 C1091 1.362 . S
C1091 H1081 0.930 . S
C1091 C1084 1.409 . S
C1091 C1090 1.362 . S
H1092 C1098 0.930 . S
H1093 C1101 0.930 . S
H1094 C1102 0.930 . S
H1095 C1103 0.930 . S
H1096 C1106 0.930 . S
H1097 C1107 0.930 . S
C1098 H1092 0.930 . S
C1098 C1099 1.355 . S
C1098 C1100 1.415 . S
C1099 C1098 1.355 . S
C1099 C1101 1.419 . S
C1100 C1098 1.415 . S
C1100 C1105 1.425 . S
C1100 C1107 1.409 . S
C1101 H1093 0.930 . S
C1101 C1099 1.419 . S
C1101 C1102 1.362 . S
C1102 H1094 0.930 . S
C1102 C1101 1.362 . S
C1102 C1105 1.409 . S
C1103 H1095 0.930 . S
C1103 C1104 1.355 . S
C1103 C1105 1.415 . S
C1104 C1103 1.355 . S
C1104 C1106 1.419 . S
C1105 C1100 1.425 . S
C1105 C1102 1.409 . S
C1105 C1103 1.415 . S
C1106 H1096 0.930 . S
C1106 C1104 1.419 . S
C1106 C1107 1.362 . S
C1107 H1097 0.930 . S
C1107 C1100 1.409 . S
C1107 C1106 1.362 . S
H1108 C1114 0.930 . S
H1109 C1117 0.930 . S
H1110 C1118 0.930 . S
H1111 C1119 0.930 . S
H1112 C1122 0.930 . S
H1113 C1123 0.930 . S
C1114 H1108 0.930 . S
C1114 C1115 1.355 . S
C1114 C1116 1.415 . S
C1115 C1114 1.355 . S
C1115 C1117 1.419 . S
C1116 C1114 1.415 . S
C1116 C1121 1.425 . S
C1116 C1123 1.409 . S
C1117 H1109 0.930 . S
C1117 C1115 1.419 . S
C1117 C1118 1.362 . S
C1118 H1110 0.930 . S
C1118 C1117 1.362 . S
C1118 C1121 1.409 . S
C1119 H1111 0.930 . S
C1119 C1120 1.355 . S
C1119 C1121 1.415 . S
C1120 C1119 1.355 . S
C1120 C1122 1.419 . S
C1121 C1116 1.425 . S
C1121 C1118 1.409 . S
C1121 C1119 1.415 . S
C1122 H1112 0.930 . S
C1122 C1120 1.419 . S
C1122 C1123 1.362 . S
C1123 H1113 0.930 . S
C1123 C1116 1.409 . S
C1123 C1122 1.362 . S
H1124 C1130 0.930 . S
H1125 C1133 0.930 . S
H1126 C1134 0.930 . S
H1127 C1135 0.930 . S
H1128 C1138 0.930 . S
H1129 C1139 0.930 . S
C1130 H1124 0.930 . S
C1130 C1131 1.355 . S
C1130 C1132 1.415 . S
C1131 C1130 1.355 . S
C1131 C1133 1.419 . S
C1132 C1130 1.415 . S
C1132 C1137 1.425 . S
C1132 C1139 1.409 . S
C1133 H1125 0.930 . S
C1133 C1131 1.419 . S
C1133 C1134 1.362 . S
C1134 H1126 0.930 . S
C1134 C1133 1.362 . S
C1134 C1137 1.409 . S
C1135 H1127 0.930 . S
C1135 C1136 1.355 . S
C1135 C1137 1.415 . S
C1136 C1135 1.355 . S
C1136 C1138 1.419 . S
C1137 C1132 1.425 . S
C1137 C1134 1.409 . S
C1137 C1135 1.415 . S
C1138 H1128 0.930 . S
C1138 C1136 1.419 . S
C1138 C1139 1.362 . S
C1139 H1129 0.930 . S
C1139 C1132 1.409 . S
C1139 C1138 1.362 . S
H1140 C1146 0.930 . S
H1141 C1149 0.930 . S
H1142 C1150 0.930 . S
H1143 C1151 0.930 . S
H1144 C1154 0.930 . S
H1145 C1155 0.930 . S
C1146 H1140 0.930 . S
C1146 C1147 1.355 . S
C1146 C1148 1.415 . S
C1147 C1146 1.355 . S
C1147 C1149 1.419 . S
C1148 C1146 1.415 . S
C1148 C1153 1.425 . S
C1148 C1155 1.409 . S
C1149 H1141 0.930 . S
C1149 C1147 1.419 . S
C1149 C1150 1.362 . S
C1150 H1142 0.930 . S
C1150 C1149 1.362 . S
C1150 C1153 1.409 . S
C1151 H1143 0.930 . S
C1151 C1152 1.355 . S
C1151 C1153 1.415 . S
C1152 C1151 1.355 . S
C1152 C1154 1.419 . S
C1153 C1148 1.425 . S
C1153 C1150 1.409 . S
C1153 C1151 1.415 . S
C1154 H1144 0.930 . S
C1154 C1152 1.419 . S
C1154 C1155 1.362 . S
C1155 H1145 0.930 . S
C1155 C1148 1.409 . S
C1155 C1154 1.362 . S
H1156 C1162 0.930 . S
H1157 C1165 0.930 . S
H1158 C1166 0.930 . S
H1159 C1167 0.930 . S
H1160 C1170 0.930 . S
H1161 C1171 0.930 . S
C1162 H1156 0.930 . S
C1162 C1163 1.355 . S
C1162 C1164 1.415 . S
C1163 C1162 1.355 . S
C1163 C1165 1.419 . S
C1164 C1162 1.415 . S
C1164 C1169 1.425 . S
C1164 C1171 1.409 . S
C1165 H1157 0.930 . S
C1165 C1163 1.419 . S
C1165 C1166 1.362 . S
C1166 H1158 0.930 . S
C1166 C1165 1.362 . S
C1166 C1169 1.409 . S
C1167 H1159 0.930 . S
C1167 C1168 1.355 . S
C1167 C1169 1.415 . S
C1168 C1167 1.355 . S
C1168 C1170 1.419 . S
C1169 C1164 1.425 . S
C1169 C1166 1.409 . S
C1169 C1167 1.415 . S
C1170 H1160 0.930 . S
C1170 C1168 1.419 . S
C1170 C1171 1.362 . S
C1171 H1161 0.930 . S
C1171 C1164 1.409 . S
C1171 C1170 1.362 . S
H1172 C1178 0.930 . S
H1173 C1181 0.930 . S
H1174 C1182 0.930 . S
H1175 C1183 0.930 . S
H1176 C1186 0.930 . S
H1177 C1187 0.930 . S
C1178 H1172 0.930 . S
C1178 C1179 1.355 . S
C1178 C1180 1.415 . S
C1179 C1178 1.355 . S
C1179 C1181 1.419 . S
C1180 C1178 1.415 . S
C1180 C1185 1.425 . S
C1180 C1187 1.409 . S
C1181 H1173 0.930 . S
C1181 C1179 1.419 . S
C1181 C1182 1.362 . S
C1182 H1174 0.930 . S
C1182 C1181 1.362 . S
C1182 C1185 1.409 . S
C1183 H1175 0.930 . S
C1183 C1184 1.355 . S
C1183 C1185 1.415 . S
C1184 C1183 1.355 . S
C1184 C1186 1.419 . S
C1185 C1180 1.425 . S
C1185 C1182 1.409 . S
C1185 C1183 1.415 . S
C1186 H1176 0.930 . S
C1186 C1184 1.419 . S
C1186 C1187 1.362 . S
C1187 H1177 0.930 . S
C1187 C1180 1.409 . S
C1187 C1186 1.362 . S
H1188 C1194 0.930 . S
H1189 C1197 0.930 . S
H1190 C1198 0.930 1_556 S
H1191 C1199 0.943 . S
H1192 C1202 0.930 . S
H1193 C1203 0.930 1_554 S
C1194 H1188 0.930 . S
C1194 C1195 1.355 1_545 S
C1194 C1196 1.415 . S
C1195 C1194 1.355 1_565 S
C1195 C1197 1.419 . S
C1196 C1194 1.415 . S
C1196 C1201 1.425 1_544 S
C1196 C1203 1.409 1_554 S
C1197 H1189 0.930 . S
C1197 C1195 1.419 . S
C1197 C1198 1.362 . S
C1198 H1190 0.930 1_554 S
C1198 C1197 1.362 . S
C1198 C1201 1.409 1_554 S
C1199 H1191 0.943 . S
C1199 C1200 1.338 1_565 S
C1199 C1201 1.419 . S
C1200 C1199 1.338 1_545 S
C1200 C1202 1.419 . S
C1201 C1196 1.425 1_566 S
C1201 C1198 1.409 1_556 S
C1201 C1199 1.419 . S
C1202 H1192 0.930 . S
C1202 C1200 1.419 . S
C1202 C1203 1.362 . S
C1203 H1193 0.930 1_556 S
C1203 C1196 1.409 1_556 S
C1203 C1202 1.362 . S
H1204 C1210 0.930 . S
H1205 C1213 0.930 . S
H1206 C1214 0.930 . S
H1207 C1215 0.930 . S
H1208 C1218 0.930 . S
H1209 C1219 0.930 . S
C1210 H1204 0.930 . S
C1210 C1211 1.355 . S
C1210 C1212 1.415 . S
C1211 C1210 1.355 . S
C1211 C1213 1.419 1_455 S
C1212 C1210 1.415 . S
C1212 C1217 1.425 1_454 S
C1212 C1219 1.409 1_554 S
C1213 H1205 0.930 . S
C1213 C1211 1.419 1_655 S
C1213 C1214 1.362 . S
C1214 H1206 0.930 . S
C1214 C1213 1.362 . S
C1214 C1217 1.409 1_554 S
C1215 H1207 0.930 . S
C1215 C1216 1.355 . S
C1215 C1217 1.414 . S
C1216 C1215 1.355 . S
C1216 C1218 1.419 1_655 S
C1217 C1212 1.425 1_656 S
C1217 C1214 1.409 1_556 S
C1217 C1215 1.414 . S
C1218 H1208 0.930 . S
C1218 C1216 1.419 1_455 S
C1218 C1219 1.362 . S
C1219 H1209 0.930 . S
C1219 C1212 1.409 1_556 S
C1219 C1218 1.362 . S
H1220 C1226 0.930 . S
H1221 C1229 0.930 . S
H1222 C1230 0.930 . S
H1223 C1231 0.930 . S
H1224 C1234 0.930 . S
H1225 C1235 0.930 . S
C1226 H1220 0.930 . S
C1226 C1227 1.355 . S
C1226 C1228 1.420 . S
C1227 C1226 1.355 . S
C1227 C1229 1.419 . S
C1228 C1226 1.420 . S
C1228 C1233 1.425 1_556 S
C1228 C1235 1.404 1_556 S
C1229 H1221 0.930 . S
C1229 C1227 1.419 . S
C1229 C1230 1.362 . S
C1230 H1222 0.930 . S
C1230 C1229 1.362 . S
C1230 C1233 1.404 1_556 S
C1231 H1223 0.930 . S
C1231 C1232 1.355 . S
C1231 C1233 1.420 . S
C1232 C1231 1.355 . S
C1232 C1234 1.419 . S
C1233 C1228 1.425 1_554 S
C1233 C1230 1.404 1_554 S
C1233 C1231 1.420 . S
C1234 H1224 0.930 . S
C1234 C1232 1.419 . S
C1234 C1235 1.362 . S
C1235 H1225 0.930 . S
C1235 C1228 1.404 1_554 S
C1235 C1234 1.362 . S
H1236 C1242 0.930 . S
H1237 C1245 0.930 . S
H1238 C1246 0.930 . S
H1239 C1247 0.930 . S
H1240 C1250 0.930 . S
H1241 C1251 0.930 . S
C1242 H1236 0.930 . S
C1242 C1243 1.355 . S
C1242 C1244 1.415 . S
C1243 C1242 1.355 . S
C1243 C1245 1.419 . S
C1244 C1242 1.415 . S
C1244 C1249 1.425 . S
C1244 C1251 1.409 . S
C1245 H1237 0.930 . S
C1245 C1243 1.419 . S
C1245 C1246 1.362 . S
C1246 H1238 0.930 . S
C1246 C1245 1.362 . S
C1246 C1249 1.409 . S
C1247 H1239 0.930 . S
C1247 C1248 1.355 . S
C1247 C1249 1.415 . S
C1248 C1247 1.355 . S
C1248 C1250 1.419 . S
C1249 C1244 1.425 . S
C1249 C1246 1.409 . S
C1249 C1247 1.415 . S
C1250 H1240 0.930 . S
C1250 C1248 1.419 . S
C1250 C1251 1.362 . S
C1251 H1241 0.930 . S
C1251 C1244 1.409 . S
C1251 C1250 1.362 . S
H1252 C1258 0.930 . S
H1253 C1261 0.930 . S
H1254 C1262 0.930 . S
H1255 C1263 0.930 . S
H1256 C1266 0.930 . S
H1257 C1267 0.930 . S
C1258 H1252 0.930 . S
C1258 C1259 1.355 . S
C1258 C1260 1.415 . S
C1259 C1258 1.355 . S
C1259 C1261 1.419 . S
C1260 C1258 1.415 . S
C1260 C1265 1.425 . S
C1260 C1267 1.409 . S
C1261 H1253 0.930 . S
C1261 C1259 1.419 . S
C1261 C1262 1.362 . S
C1262 H1254 0.930 . S
C1262 C1261 1.362 . S
C1262 C1265 1.409 . S
C1263 H1255 0.930 . S
C1263 C1264 1.355 . S
C1263 C1265 1.415 . S
C1264 C1263 1.355 . S
C1264 C1266 1.419 . S
C1265 C1260 1.425 . S
C1265 C1262 1.409 . S
C1265 C1263 1.415 . S
C1266 H1256 0.930 . S
C1266 C1264 1.419 . S
C1266 C1267 1.362 . S
C1267 H1257 0.930 . S
C1267 C1260 1.409 . S
C1267 C1266 1.362 . S
H1268 C1274 0.930 . S
H1269 C1277 0.930 . S
H1270 C1278 0.930 . S
H1271 C1279 0.930 . S
H1272 C1282 0.930 . S
H1273 C1283 0.930 . S
C1274 H1268 0.930 . S
C1274 C1275 1.355 . S
C1274 C1276 1.415 . S
C1275 C1274 1.355 . S
C1275 C1277 1.419 . S
C1276 C1274 1.415 . S
C1276 C1281 1.425 . S
C1276 C1283 1.409 . S
C1277 H1269 0.930 . S
C1277 C1275 1.419 . S
C1277 C1278 1.362 . S
C1278 H1270 0.930 . S
C1278 C1277 1.362 . S
C1278 C1281 1.409 . S
C1279 H1271 0.930 . S
C1279 C1280 1.355 . S
C1279 C1281 1.415 . S
C1280 C1279 1.355 . S
C1280 C1282 1.419 . S
C1281 C1276 1.425 . S
C1281 C1278 1.409 . S
C1281 C1279 1.415 . S
C1282 H1272 0.930 . S
C1282 C1280 1.419 . S
C1282 C1283 1.362 . S
C1283 H1273 0.930 . S
C1283 C1276 1.409 . S
C1283 C1282 1.362 . S
H1284 C1290 0.930 . S
H1285 C1293 0.930 . S
H1286 C1294 0.930 . S
H1287 C1295 0.930 . S
H1288 C1298 0.930 . S
H1289 C1299 0.930 . S
C1290 H1284 0.930 . S
C1290 C1291 1.355 . S
C1290 C1292 1.415 . S
C1291 C1290 1.355 . S
C1291 C1293 1.419 . S
C1292 C1290 1.415 . S
C1292 C1297 1.425 . S
C1292 C1299 1.409 . S
C1293 H1285 0.930 . S
C1293 C1291 1.419 . S
C1293 C1294 1.362 . S
C1294 H1286 0.930 . S
C1294 C1293 1.362 . S
C1294 C1297 1.409 . S
C1295 H1287 0.930 . S
C1295 C1296 1.355 . S
C1295 C1297 1.415 . S
C1296 C1295 1.355 . S
C1296 C1298 1.419 . S
C1297 C1292 1.425 . S
C1297 C1294 1.409 . S
C1297 C1295 1.415 . S
C1298 H1288 0.930 . S
C1298 C1296 1.419 . S
C1298 C1299 1.362 . S
C1299 H1289 0.930 . S
C1299 C1292 1.409 . S
C1299 C1298 1.362 . S
H1300 C1306 0.930 . S
H1301 C1309 0.930 . S
H1302 C1310 0.930 . S
H1303 C1311 0.930 . S
H1304 C1314 0.930 . S
H1305 C1315 0.930 . S
C1306 H1300 0.930 . S
C1306 C1307 1.355 . S
C1306 C1308 1.415 . S
C1307 C1306 1.355 . S
C1307 C1309 1.419 . S
C1308 C1306 1.415 . S
C1308 C1313 1.425 . S
C1308 C1315 1.409 . S
C1309 H1301 0.930 . S
C1309 C1307 1.419 . S
C1309 C1310 1.362 . S
C1310 H1302 0.930 . S
C1310 C1309 1.362 . S
C1310 C1313 1.409 . S
C1311 H1303 0.930 . S
C1311 C1312 1.355 . S
C1311 C1313 1.415 . S
C1312 C1311 1.355 . S
C1312 C1314 1.419 . S
C1313 C1308 1.425 . S
C1313 C1310 1.409 . S
C1313 C1311 1.415 . S
C1314 H1304 0.930 . S
C1314 C1312 1.419 . S
C1314 C1315 1.362 . S
C1315 H1305 0.930 . S
C1315 C1308 1.409 . S
C1315 C1314 1.362 . S
H1316 C1322 0.930 . S
H1317 C1325 0.930 . S
H1318 C1326 0.930 . S
H1319 C1327 0.930 . S
H1320 C1330 0.930 . S
H1321 C1331 0.930 . S
C1322 H1316 0.930 . S
C1322 C1323 1.355 . S
C1322 C1324 1.415 . S
C1323 C1322 1.355 . S
C1323 C1325 1.419 . S
C1324 C1322 1.415 . S
C1324 C1329 1.425 . S
C1324 C1331 1.409 . S
C1325 H1317 0.930 . S
C1325 C1323 1.419 . S
C1325 C1326 1.362 . S
C1326 H1318 0.930 . S
C1326 C1325 1.362 . S
C1326 C1329 1.409 . S
C1327 H1319 0.930 . S
C1327 C1328 1.355 . S
C1327 C1329 1.415 . S
C1328 C1327 1.355 . S
C1328 C1330 1.419 . S
C1329 C1324 1.425 . S
C1329 C1326 1.409 . S
C1329 C1327 1.415 . S
C1330 H1320 0.930 . S
C1330 C1328 1.419 . S
C1330 C1331 1.362 . S
C1331 H1321 0.930 . S
C1331 C1324 1.409 . S
C1331 C1330 1.362 . S
C619 C33 1.229 . S
C624 C39 1.232 . S
C635 C73 1.216 . S
C640 C67 1.223 . S
C651 C101 1.231 . S
C656 C5 1.216 . S
C667 C175 1.216 . S
C672 C135 1.230 . S
C683 C107 1.216 . S
C688 C169 1.230 . S
C699 C203 1.207 . S
C704 C141 1.222 . S
C715 C243 1.216 . S
C720 C237 1.222 . S
C731 C271 1.210 . S
C736 C277 1.234 . S
C747 C305 1.215 . S
C752 C209 1.235 . S
C763 C379 1.220 . S
C768 C339 1.237 . S
C779 C311 1.222 . S
C784 C373 1.238 . S
C795 C407 1.237 . S
C800 C345 1.221 . S
C811 C447 1.218 . S
C816 C441 1.235 . S
C827 C475 1.229 . S
C832 C481 1.216 . S
C843 C509 1.219 . S
C848 C413 1.235 . S
C859 C583 1.217 . S
C864 C543 1.233 . S
C875 C515 1.216 . S
C880 C577 1.227 . S
C891 C611 1.236 . S
C896 C549 1.219 . S
C907 C349 1.551 . S
C912 C9 1.608 . S
C923 C383 1.586 . S
C928 C43 1.538 . S
C939 C315 1.624 . S
C944 C77 1.620 . S
C955 C111 1.630 . S
C960 C485 1.608 . S
C971 C417 1.544 . S
C976 C145 1.598 . S
C987 C451 1.625 . S
C992 C179 1.617 . S
C1003 C213 1.624 . S
C1008 C553 1.573 . S
C1019 C587 1.629 . S
C1024 C247 1.587 . S
C1035 C519 1.546 . S
C1040 C281 1.543 . S
C1051 C2 1.611 1_565 S
C1056 C172 1.605 . S
C1067 C104 1.587 . S
C1072 C36 1.587 . S
C1083 C138 1.615 . S
C1088 C70 1.608 . S
C1099 C376 1.602 . S
C1104 C206 1.578 . S
C1115 C308 1.597 . S
C1120 C240 1.620 . S
C1131 C274 1.593 . S
C1136 C342 1.582 . S
C1147 C580 1.620 . S
C1152 C410 1.591 . S
C1163 C444 1.590 . S
C1168 C512 1.620 . S
C1179 C546 1.583 . S
C1184 C478 1.590 . S
C1195 C20 1.070 . S
C1200 C190 1.089 . S
C1211 C54 0.991 . S
C1216 C122 0.984 . S
C1227 C156 0.988 . S
C1232 C88 0.985 . S
C1243 C394 1.006 . S
C1248 C224 1.042 . S
C1259 C326 0.994 . S
C1264 C258 0.984 . S
C1275 C360 1.071 . S
C1280 C292 1.090 . S
C1291 C428 0.984 . S
C1296 C598 0.992 . S
C1307 C462 0.999 . S
C1312 C530 1.032 . S
C1323 C564 1.086 . S
C1328 C496 1.061 . S
