# Generated by pormake.
# Topology whk, (6)-cn, num edge types: 1
# Building blocks:
#     Node 0, Type 0, BuildingBlock: CUWYAW_clean_sbu_0, # of connection points: 6
#     Node 1, Type 0, BuildingBlock: CUWYAW_clean_sbu_0, # of connection points: 6
#     Node 2, Type 0, BuildingBlock: CUWYAW_clean_sbu_0, # of connection points: 6
#     Node 3, Type 0, BuildingBlock: CUWYAW_clean_sbu_0, # of connection points: 6
#     Node 4, Type 0, BuildingBlock: CUWYAW_clean_sbu_0, # of connection points: 6
#     Node 5, Type 0, BuildingBlock: CUWYAW_clean_sbu_0, # of connection points: 6
#     Node 6, Type 0, BuildingBlock: CUWYAW_clean_sbu_0, # of connection points: 6
#     Node 7, Type 0, BuildingBlock: CUWYAW_clean_sbu_0, # of connection points: 6
#     Node 8, Type 0, BuildingBlock: CUWYAW_clean_sbu_0, # of connection points: 6
#     Node 9, Type 0, BuildingBlock: CUWYAW_clean_sbu_0, # of connection points: 6
#     Node 10, Type 0, BuildingBlock: CUWYAW_clean_sbu_0, # of connection points: 6
#     Node 11, Type 0, BuildingBlock: CUWYAW_clean_sbu_0, # of connection points: 6
#     Node 12, Type 0, BuildingBlock: CUWYAW_clean_sbu_0, # of connection points: 6
#     Node 13, Type 0, BuildingBlock: CUWYAW_clean_sbu_0, # of connection points: 6
#     Node 14, Type 0, BuildingBlock: CUWYAW_clean_sbu_0, # of connection points: 6
#     Node 15, Type 0, BuildingBlock: CUWYAW_clean_sbu_0, # of connection points: 6
#     Edge 16, Type (0, 0), BuildingBlock: UVAHIK_clean_linker_0, # of connection points: 2
#     Edge 17, Type (0, 0), BuildingBlock: UVAHIK_clean_linker_0, # of connection points: 2
#     Edge 18, Type (0, 0), BuildingBlock: UVAHIK_clean_linker_0, # of connection points: 2
#     Edge 19, Type (0, 0), BuildingBlock: UVAHIK_clean_linker_0, # of connection points: 2
#     Edge 20, Type (0, 0), BuildingBlock: UVAHIK_clean_linker_0, # of connection points: 2
#     Edge 21, Type (0, 0), BuildingBlock: UVAHIK_clean_linker_0, # of connection points: 2
#     Edge 22, Type (0, 0), BuildingBlock: UVAHIK_clean_linker_0, # of connection points: 2
#     Edge 23, Type (0, 0), BuildingBlock: UVAHIK_clean_linker_0, # of connection points: 2
#     Edge 24, Type (0, 0), BuildingBlock: UVAHIK_clean_linker_0, # of connection points: 2
#     Edge 25, Type (0, 0), BuildingBlock: UVAHIK_clean_linker_0, # of connection points: 2
#     Edge 26, Type (0, 0), BuildingBlock: UVAHIK_clean_linker_0, # of connection points: 2
#     Edge 27, Type (0, 0), BuildingBlock: UVAHIK_clean_linker_0, # of connection points: 2
#     Edge 28, Type (0, 0), BuildingBlock: UVAHIK_clean_linker_0, # of connection points: 2
#     Edge 29, Type (0, 0), BuildingBlock: UVAHIK_clean_linker_0, # of connection points: 2
#     Edge 30, Type (0, 0), BuildingBlock: UVAHIK_clean_linker_0, # of connection points: 2
#     Edge 31, Type (0, 0), BuildingBlock: UVAHIK_clean_linker_0, # of connection points: 2
#     Edge 32, Type (0, 0), BuildingBlock: UVAHIK_clean_linker_0, # of connection points: 2
#     Edge 33, Type (0, 0), BuildingBlock: UVAHIK_clean_linker_0, # of connection points: 2
#     Edge 34, Type (0, 0), BuildingBlock: UVAHIK_clean_linker_0, # of connection points: 2
#     Edge 35, Type (0, 0), BuildingBlock: UVAHIK_clean_linker_0, # of connection points: 2
#     Edge 36, Type (0, 0), BuildingBlock: UVAHIK_clean_linker_0, # of connection points: 2
#     Edge 37, Type (0, 0), BuildingBlock: UVAHIK_clean_linker_0, # of connection points: 2
#     Edge 38, Type (0, 0), BuildingBlock: UVAHIK_clean_linker_0, # of connection points: 2
#     Edge 39, Type (0, 0), BuildingBlock: UVAHIK_clean_linker_0, # of connection points: 2
#     Edge 40, Type (0, 0), BuildingBlock: UVAHIK_clean_linker_0, # of connection points: 2
#     Edge 41, Type (0, 0), BuildingBlock: UVAHIK_clean_linker_0, # of connection points: 2
#     Edge 42, Type (0, 0), BuildingBlock: UVAHIK_clean_linker_0, # of connection points: 2
#     Edge 43, Type (0, 0), BuildingBlock: UVAHIK_clean_linker_0, # of connection points: 2
#     Edge 44, Type (0, 0), BuildingBlock: UVAHIK_clean_linker_0, # of connection points: 2
#     Edge 45, Type (0, 0), BuildingBlock: UVAHIK_clean_linker_0, # of connection points: 2
#     Edge 46, Type (0, 0), BuildingBlock: UVAHIK_clean_linker_0, # of connection points: 2
#     Edge 47, Type (0, 0), BuildingBlock: UVAHIK_clean_linker_0, # of connection points: 2
#     Edge 48, Type (0, 0), BuildingBlock: UVAHIK_clean_linker_0, # of connection points: 2
#     Edge 49, Type (0, 0), BuildingBlock: UVAHIK_clean_linker_0, # of connection points: 2
#     Edge 50, Type (0, 0), BuildingBlock: UVAHIK_clean_linker_0, # of connection points: 2
#     Edge 51, Type (0, 0), BuildingBlock: UVAHIK_clean_linker_0, # of connection points: 2
#     Edge 52, Type (0, 0), BuildingBlock: UVAHIK_clean_linker_0, # of connection points: 2
#     Edge 53, Type (0, 0), BuildingBlock: UVAHIK_clean_linker_0, # of connection points: 2
#     Edge 54, Type (0, 0), BuildingBlock: UVAHIK_clean_linker_0, # of connection points: 2
#     Edge 55, Type (0, 0), BuildingBlock: UVAHIK_clean_linker_0, # of connection points: 2
#     Edge 56, Type (0, 0), BuildingBlock: UVAHIK_clean_linker_0, # of connection points: 2
#     Edge 57, Type (0, 0), BuildingBlock: UVAHIK_clean_linker_0, # of connection points: 2
#     Edge 58, Type (0, 0), BuildingBlock: UVAHIK_clean_linker_0, # of connection points: 2
#     Edge 59, Type (0, 0), BuildingBlock: UVAHIK_clean_linker_0, # of connection points: 2
#     Edge 60, Type (0, 0), BuildingBlock: UVAHIK_clean_linker_0, # of connection points: 2
#     Edge 61, Type (0, 0), BuildingBlock: UVAHIK_clean_linker_0, # of connection points: 2
#     Edge 62, Type (0, 0), BuildingBlock: UVAHIK_clean_linker_0, # of connection points: 2
#     Edge 63, Type (0, 0), BuildingBlock: UVAHIK_clean_linker_0, # of connection points: 2
# Relax obj value: 0.523
# Max RMSD: 0.294
# Mean RMSD: 0.294
data_MOF--net-whk--node1-CUWYAW_clean_sbu_0--edge1-UVAHIK_clean_linker_0
_symmetry_space_group_name_H-M    P1
_symmetry_Int_Tables_number       1
_symmetry_cell_setting            triclinic
loop_
_symmetry_equiv_pos_as_xyz
'x, y, z'
_cell_length_a     57.866929
_cell_length_b     57.910664
_cell_length_c     51.245507
_cell_angle_alpha  89.974029
_cell_angle_beta   89.993071
_cell_angle_gamma 89.921329
loop_
_atom_site_label
_atom_site_type_symbol
_atom_site_fract_x
_atom_site_fract_y
_atom_site_fract_z
_atom_type_partial_charge
C0 C 0.5203 0.17201 0.42507 0.0
Eu1 Eu 0.55393 0.20156 0.41604 0.0
C2 C 0.49612 0.16406 0.41959 0.0
C3 C 0.4798 0.16275 0.43991 0.0
C4 C 0.45835 0.15173 0.43622 0.0
C5 C 0.45264 0.14143 0.41213 0.0
C6 C 0.4687 0.14346 0.39156 0.0
C7 C 0.49005 0.15457 0.39521 0.0
C8 C 0.57352 0.23455 0.44701 0.0
C9 C 0.53589 0.25042 0.38941 0.0
C10 C 0.62412 0.25025 0.3717 0.0
Eu11 Eu 0.58704 0.23072 0.3886 0.0
C12 C 0.64451 0.23663 0.36427 0.0
C13 C 0.64127 0.21365 0.3561 0.0
C14 C 0.65962 0.19807 0.35618 0.0
C15 C 0.6816 0.20519 0.36431 0.0
C16 C 0.68522 0.22857 0.37068 0.0
C17 C 0.66673 0.24417 0.37084 0.0
C18 C 0.57206 0.19507 0.35804 0.0
C19 C 0.60671 0.18911 0.42693 0.0
O20 O 0.53565 0.16988 0.40649 0.0
O21 O 0.52399 0.19024 0.43962 0.0
O22 O 0.56857 0.21382 0.45522 0.0
O23 O 0.5666 0.23715 0.4239 0.0
O24 O 0.53034 0.22897 0.3964 0.0
O25 O 0.55783 0.25645 0.38765 0.0
O26 O 0.61916 0.24908 0.39657 0.0
O27 O 0.60589 0.24748 0.35693 0.0
O28 O 0.57206 0.21657 0.35118 0.0
O29 O 0.57741 0.19389 0.38199 0.0
O30 O 0.61101 0.20791 0.41311 0.0
O31 O 0.58531 0.18165 0.42994 0.0
H32 H 0.48398 0.16948 0.45905 0.0
H33 H 0.44665 0.15043 0.45265 0.0
H34 H 0.46491 0.13617 0.37259 0.0
H35 H 0.50211 0.15503 0.37906 0.0
H36 H 0.62418 0.20726 0.35143 0.0
H37 H 0.65639 0.1802 0.35111 0.0
H38 H 0.70199 0.23443 0.37732 0.0
H39 H 0.66948 0.26163 0.37776 0.0
C40 C 0.35429 0.51972 0.4213 0.0
Eu41 Eu 0.32449 0.55341 0.41338 0.0
C42 C 0.36248 0.49557 0.41596 0.0
C43 C 0.36403 0.4794 0.43641 0.0
C44 C 0.37533 0.45806 0.43286 0.0
C45 C 0.38569 0.45232 0.4088 0.0
C46 C 0.38343 0.46822 0.38811 0.0
C47 C 0.37204 0.48947 0.39162 0.0
C48 C 0.2917 0.57252 0.44518 0.0
C49 C 0.27535 0.53608 0.3869 0.0
C50 C 0.27454 0.62487 0.37273 0.0
Eu51 Eu 0.29487 0.58735 0.38726 0.0
C52 C 0.28737 0.64596 0.36621 0.0
C53 C 0.31018 0.64389 0.35694 0.0
C54 C 0.32495 0.66286 0.35701 0.0
C55 C 0.31724 0.68427 0.36636 0.0
C56 C 0.29402 0.68668 0.37418 0.0
C57 C 0.27921 0.66759 0.37424 0.0
C58 C 0.33006 0.57294 0.35564 0.0
C59 C 0.33734 0.60586 0.42509 0.0
O60 O 0.35578 0.53492 0.40248 0.0
O61 O 0.33647 0.52345 0.43651 0.0
O62 O 0.3125 0.56738 0.45306 0.0
O63 O 0.289 0.56605 0.42193 0.0
O64 O 0.29682 0.5303 0.39368 0.0
O65 O 0.26933 0.55806 0.38561 0.0
O66 O 0.2762 0.61886 0.39726 0.0
O67 O 0.27763 0.60742 0.35689 0.0
O68 O 0.30849 0.57356 0.34904 0.0
O69 O 0.3316 0.5776 0.37977 0.0
O70 O 0.31844 0.61062 0.41159 0.0
O71 O 0.34465 0.58436 0.42764 0.0
H72 H 0.35726 0.48362 0.45554 0.0
H73 H 0.37679 0.44649 0.44938 0.0
H74 H 0.39077 0.46441 0.36915 0.0
H75 H 0.37144 0.50144 0.37539 0.0
H76 H 0.31708 0.62726 0.35116 0.0
H77 H 0.34268 0.66055 0.35069 0.0
H78 H 0.2877 0.70296 0.38175 0.0
H79 H 0.2619 0.66941 0.38202 0.0
C80 C 1.00606 0.35532 0.41976 0.0
Eu81 Eu 0.97333 0.32452 0.41204 0.0
C82 C 0.03006 0.36374 0.41416 0.0
C83 C 0.04664 0.36471 0.43424 0.0
C84 C 0.06793 0.376 0.43051 0.0
C85 C 0.07324 0.38692 0.40664 0.0
C86 C 0.0569 0.38529 0.38631 0.0
C87 C 0.03568 0.37393 0.39 0.0
C88 C 0.9549 0.29183 0.44483 0.0
C89 C 0.99201 0.27575 0.38752 0.0
C90 C 0.90609 0.26516 0.3759 0.0
Eu91 Eu 0.93951 0.2935 0.38692 0.0
C92 C 0.89527 0.2458 0.38989 0.0
C93 C 0.89218 0.22469 0.3771 0.0
C94 C 0.88113 0.20642 0.38972 0.0
C95 C 0.87286 0.20893 0.41543 0.0
C96 C 0.87662 0.23001 0.42841 0.0
C97 C 0.88786 0.24818 0.41586 0.0
C98 C 0.95353 0.32771 0.35341 0.0
C99 C 0.92055 0.33465 0.42554 0.0
O100 O 0.99072 0.35641 0.40105 0.0
O101 O 1.00285 0.33747 0.43505 0.0
O102 O 0.96028 0.31261 0.45246 0.0
O103 O 0.96102 0.28921 0.42153 0.0
O104 O 0.99741 0.29753 0.39288 0.0
O105 O 0.97015 0.26928 0.38747 0.0
O106 O 0.92731 0.26194 0.36809 0.0
O107 O 0.90281 0.28571 0.3857 0.0
O108 O 0.95119 0.30617 0.3474 0.0
O109 O 0.94933 0.32995 0.37756 0.0
O110 O 0.91656 0.31423 0.41481 0.0
O111 O 0.94141 0.34389 0.42498 0.0
H112 H 0.0428 0.35746 0.45323 0.0
H113 H 0.07984 0.37699 0.44676 0.0
H114 H 0.06037 0.39308 0.3675 0.0
H115 H 0.02339 0.37378 0.37407 0.0
H116 H 0.89785 0.22249 0.35709 0.0
H117 H 0.87807 0.19074 0.37876 0.0
H118 H 0.87051 0.2327 0.44814 0.0
H119 H 0.89038 0.2642 0.42638 0.0
C120 C 0.16989 1.00408 0.4167 0.0
Eu121 Eu 0.20187 0.97185 0.41344 0.0
C122 C 0.16211 0.02857 0.41271 0.0
C123 C 0.16013 0.04394 0.43391 0.0
C124 C 0.14921 0.06557 0.43099 0.0
C125 C 0.13963 0.07236 0.40686 0.0
C126 C 0.14228 0.05725 0.38551 0.0
C127 C 0.15328 0.03576 0.38839 0.0
C128 C 0.23344 0.95645 0.44934 0.0
C129 C 0.25175 0.99121 0.39149 0.0
C130 C 0.26647 0.90575 0.38695 0.0
Eu131 Eu 0.23587 0.93823 0.39315 0.0
C132 C 0.28943 0.9 0.39758 0.0
C133 C 0.30744 0.89482 0.38032 0.0
C134 C 0.3284 0.88627 0.38973 0.0
C135 C 0.33176 0.88269 0.41666 0.0
C136 C 0.31428 0.88963 0.43406 0.0
C137 C 0.29325 0.89808 0.4246 0.0
C138 C 0.20224 0.94819 0.35685 0.0
C139 C 0.1918 0.91925 0.4271 0.0
O140 O 0.17352 0.99126 0.39605 0.0
O141 O 0.18364 0.99867 0.4361 0.0
O142 O 0.21179 0.96015 0.455 0.0
O143 O 0.23719 0.96207 0.42607 0.0
O144 O 0.22959 0.99613 0.39564 0.0
O145 O 0.25894 0.96962 0.39298 0.0
O146 O 0.26516 0.92377 0.37167 0.0
O147 O 0.24898 0.90419 0.40298 0.0
O148 O 0.22405 0.9461 0.35194 0.0
O149 O 0.19931 0.94543 0.38113 0.0
O150 O 0.21347 0.91577 0.41981 0.0
O151 O 0.18175 0.93951 0.4235 0.0
H152 H 0.16628 0.03891 0.45305 0.0
H153 H 0.14741 0.07654 0.44797 0.0
H154 H 0.13553 0.06189 0.36651 0.0
H155 H 0.15414 0.02442 0.37161 0.0
H156 H 0.3049 0.89624 0.35943 0.0
H157 H 0.34123 0.88079 0.37564 0.0
H158 H 0.31637 0.88731 0.45489 0.0
H159 H 0.27964 0.90207 0.43838 0.0
C160 C 0.02263 0.85784 0.09259 0.0
Eu161 Eu 0.055 0.82602 0.09665 0.0
C162 C 0.99819 0.86571 0.09706 0.0
C163 C 0.98235 0.86714 0.07624 0.0
C164 C 0.96073 0.87806 0.07941 0.0
C165 C 0.95439 0.88818 0.10341 0.0
C166 C 0.97 0.88609 0.1244 0.0
C167 C 0.9915 0.8751 0.12129 0.0
C168 C 0.07077 0.79419 0.0613 0.0
C169 C 0.0359 0.77635 0.11904 0.0
C170 C 0.1213 0.76253 0.12563 0.0
Eu171 Eu 0.08875 0.79278 0.11789 0.0
C172 C 0.12838 0.74087 0.11291 0.0
C173 C 0.1347 0.72191 0.12828 0.0
C174 C 0.14368 0.70202 0.11666 0.0
C175 C 0.14655 0.70077 0.0894 0.0
C176 C 0.13879 0.71929 0.07399 0.0
C177 C 0.12981 0.73917 0.08561 0.0
C178 C 0.07798 0.82659 0.1536 0.0
C179 C 0.10758 0.83551 0.08182 0.0
O180 O 0.03613 0.85527 0.11289 0.0
O181 O 0.02746 0.84313 0.07393 0.0
O182 O 0.06669 0.81568 0.05523 0.0
O183 O 0.06525 0.79068 0.08463 0.0
O184 O 0.03076 0.79843 0.11481 0.0
O185 O 0.05759 0.76944 0.11761 0.0
O186 O 0.10168 0.76217 0.1382 0.0
O187 O 0.12416 0.78144 0.11211 0.0
O188 O 0.07993 0.80483 0.15871 0.0
O189 O 0.08108 0.82937 0.12934 0.0
O190 O 0.11109 0.81407 0.08995 0.0
O191 O 0.08731 0.84564 0.08524 0.0
H192 H 0.98699 0.86054 0.05717 0.0
H193 H 0.94939 0.8794 0.06267 0.0
H194 H 0.96574 0.89327 0.14332 0.0
H195 H 1.0032 0.87467 0.13777 0.0
H196 H 0.1336 0.72284 0.14937 0.0
H197 H 0.14984 0.6883 0.12924 0.0
H198 H 0.14072 0.71882 0.05304 0.0
H199 H 0.12484 0.75354 0.07328 0.0
C200 C 0.67129 0.02236 0.08904 0.0
Eu201 Eu 0.70244 0.05446 0.09807 0.0
C202 C 0.66069 0.99953 0.0955 0.0
C203 C 0.67323 0.97869 0.09588 0.0
C204 C 0.66191 0.95744 0.1003 0.0
C205 C 0.63774 0.95647 0.10434 0.0
C206 C 0.62543 0.97749 0.10397 0.0
C207 C 0.63671 0.99857 0.09969 0.0
C208 C 0.73536 0.07291 0.06555 0.0
C209 C 0.75078 0.03568 0.12329 0.0
C210 C 0.76184 0.1214 0.13505 0.0
Eu211 Eu 0.73337 0.08822 0.12359 0.0
C212 C 0.78098 0.1325 0.12096 0.0
C213 C 0.80221 0.13567 0.13352 0.0
C214 C 0.82033 0.14683 0.12071 0.0
C215 C 0.81754 0.15513 0.09505 0.0
C216 C 0.79633 0.15132 0.08232 0.0
C217 C 0.77832 0.13998 0.09505 0.0
C218 C 0.699 0.07403 0.15689 0.0
C219 C 0.69285 0.10737 0.08418 0.0
O220 O 0.66851 0.03927 0.10565 0.0
O221 O 0.69123 0.02334 0.077 0.0
O222 O 0.71468 0.06734 0.0577 0.0
O223 O 0.73781 0.06685 0.0889 0.0
O224 O 0.72888 0.03041 0.11825 0.0
O225 O 0.75741 0.05747 0.12297 0.0
O226 O 0.76521 0.10002 0.14218 0.0
O227 O 0.74112 0.12487 0.12575 0.0
O228 O 0.72052 0.07647 0.16304 0.0
O229 O 0.69688 0.0782 0.13272 0.0
O230 O 0.71301 0.11137 0.09555 0.0
O231 O 0.68369 0.08649 0.08426 0.0
H232 H 0.69172 0.97876 0.0926 0.0
H233 H 0.67216 0.9418 0.10067 0.0
H234 H 0.60685 0.97773 0.10635 0.0
H235 H 0.62648 0.01426 0.09912 0.0
H236 H 0.80463 0.12994 0.15347 0.0
H237 H 0.83611 0.14992 0.13148 0.0
H238 H 0.79343 0.15743 0.06262 0.0
H239 H 0.7622 0.13739 0.08471 0.0
C240 C 0.50773 0.67316 0.09039 0.0
Eu241 Eu 0.47419 0.70323 0.09759 0.0
C242 C 0.53208 0.66522 0.09508 0.0
C243 C 0.54812 0.66457 0.07445 0.0
C244 C 0.56968 0.65355 0.07739 0.0
C245 C 0.57586 0.64262 0.10103 0.0
C246 C 0.56 0.64392 0.12189 0.0
C247 C 0.53851 0.65499 0.11896 0.0
C248 C 0.4556 0.73596 0.0654 0.0
C249 C 0.49182 0.75245 0.12388 0.0
C250 C 0.4027 0.75379 0.13692 0.0
Eu251 Eu 0.44038 0.73333 0.12317 0.0
C252 C 0.38126 0.74099 0.14203 0.0
C253 C 0.38282 0.718 0.15079 0.0
C254 C 0.36387 0.70328 0.14902 0.0
C255 C 0.34298 0.71124 0.13847 0.0
C256 C 0.34099 0.73463 0.13124 0.0
C257 C 0.36006 0.74938 0.13288 0.0
C258 C 0.45431 0.69818 0.1551 0.0
C259 C 0.42174 0.69089 0.08545 0.0
O260 O 0.49324 0.67272 0.10999 0.0
O261 O 0.50338 0.69007 0.0741 0.0
O262 O 0.46051 0.71505 0.05775 0.0
O263 O 0.46201 0.73878 0.08866 0.0
O264 O 0.49748 0.73104 0.11679 0.0
O265 O 0.46987 0.7586 0.12541 0.0
O266 O 0.40949 0.75281 0.11261 0.0
O267 O 0.41961 0.75005 0.15333 0.0
O268 O 0.45388 0.71977 0.16156 0.0
O269 O 0.44965 0.69654 0.13098 0.0
O270 O 0.41719 0.71019 0.09825 0.0
O271 O 0.4431 0.68301 0.08378 0.0
H272 H 0.54371 0.67194 0.05567 0.0
H273 H 0.5814 0.65339 0.06093 0.0
H274 H 0.56372 0.63555 0.14031 0.0
H275 H 0.52657 0.65471 0.13524 0.0
H276 H 0.39914 0.71092 0.15742 0.0
H277 H 0.36584 0.68541 0.1549 0.0
H278 H 0.32513 0.74116 0.12275 0.0
H279 H 0.35866 0.76685 0.12546 0.0
C280 C 0.85615 0.50706 0.08654 0.0
Eu281 Eu 0.82634 0.47353 0.09444 0.0
C282 C 0.86334 0.53179 0.08931 0.0
C283 C 0.87021 0.5443 0.06711 0.0
C284 C 0.88096 0.56597 0.06946 0.0
C285 C 0.88535 0.57583 0.09414 0.0
C286 C 0.87759 0.56367 0.11634 0.0
C287 C 0.86682 0.54198 0.11397 0.0
C288 C 0.79328 0.45449 0.06312 0.0
C289 C 0.77708 0.49176 0.12047 0.0
C290 C 0.77704 0.40334 0.13784 0.0
Eu291 Eu 0.79668 0.4405 0.12143 0.0
C292 C 0.79077 0.38293 0.14491 0.0
C293 C 0.81382 0.38617 0.15289 0.0
C294 C 0.82948 0.3679 0.15241 0.0
C295 C 0.82236 0.346 0.14411 0.0
C296 C 0.79893 0.34235 0.13792 0.0
C297 C 0.78325 0.36077 0.13813 0.0
C298 C 0.83259 0.45472 0.15212 0.0
C299 C 0.83867 0.42079 0.08382 0.0
O300 O 0.85539 0.49427 0.10759 0.0
O301 O 0.84059 0.50105 0.06925 0.0
O302 O 0.81408 0.45936 0.05504 0.0
O303 O 0.79066 0.46126 0.08629 0.0
O304 O 0.79841 0.49726 0.11292 0.0
O305 O 0.7711 0.46985 0.12278 0.0
O306 O 0.77811 0.40859 0.11304 0.0
O307 O 0.77983 0.42139 0.15285 0.0
O308 O 0.81109 0.45492 0.15902 0.0
O309 O 0.83366 0.44957 0.12811 0.0
O310 O 0.81914 0.41668 0.09638 0.0
O311 O 0.84682 0.44203 0.08201 0.0
H312 H 0.86804 0.53691 0.04785 0.0
H313 H 0.88619 0.57482 0.05181 0.0
H314 H 0.88074 0.5704 0.13572 0.0
H315 H 0.86204 0.53282 0.13159 0.0
H316 H 0.8202 0.40321 0.15771 0.0
H317 H 0.8474 0.37113 0.15734 0.0
H318 H 0.79308 0.32563 0.13116 0.0
H319 H 0.76573 0.35802 0.13135 0.0
C320 C 0.40376 0.77594 0.63737 0.0
Eu321 Eu 0.44089 0.79573 0.62107 0.0
C322 C 0.38329 0.78959 0.64446 0.0
C323 C 0.38649 0.81255 0.65274 0.0
C324 C 0.36825 0.82824 0.65217 0.0
C325 C 0.34641 0.82125 0.64349 0.0
C326 C 0.34276 0.79789 0.63703 0.0
C327 C 0.36116 0.78218 0.63732 0.0
C328 C 0.45535 0.83129 0.65199 0.0
C329 C 0.4211 0.83757 0.58316 0.0
C330 C 0.50738 0.85512 0.58514 0.0
Eu331 Eu 0.47391 0.82537 0.59396 0.0
C332 C 0.53164 0.86296 0.59034 0.0
C333 C 0.54751 0.86503 0.56964 0.0
C334 C 0.56899 0.87599 0.57323 0.0
C335 C 0.57518 0.88548 0.59759 0.0
C336 C 0.55958 0.88267 0.6185 0.0
C337 C 0.53819 0.87162 0.61494 0.0
C338 C 0.45453 0.79234 0.5628 0.0
C339 C 0.49223 0.77657 0.62057 0.0
O340 O 0.40902 0.77709 0.61259 0.0
O341 O 0.42181 0.77874 0.65242 0.0
O342 O 0.45541 0.80977 0.65873 0.0
O343 O 0.45025 0.83261 0.62797 0.0
O344 O 0.41692 0.81845 0.59646 0.0
O345 O 0.44242 0.84536 0.5806 0.0
O346 O 0.49234 0.8568 0.60411 0.0
O347 O 0.50345 0.83724 0.57013 0.0
O348 O 0.45932 0.81314 0.55469 0.0
O349 O 0.46156 0.78975 0.58586 0.0
O350 O 0.49761 0.79805 0.61353 0.0
O351 O 0.47035 0.77031 0.62229 0.0
H352 H 0.40351 0.81885 0.65785 0.0
H353 H 0.37148 0.8461 0.65732 0.0
H354 H 0.32609 0.79215 0.62998 0.0
H355 H 0.35845 0.76475 0.6303 0.0
H356 H 0.54293 0.85894 0.55034 0.0
H357 H 0.58032 0.8779 0.55656 0.0
H358 H 0.56376 0.88933 0.63766 0.0
H359 H 0.52648 0.87055 0.63138 0.0
C360 C 0.75313 0.40224 0.63637 0.0
Eu361 Eu 0.73288 0.43988 0.62205 0.0
C362 C 0.74034 0.38082 0.64155 0.0
C363 C 0.7172 0.38236 0.64983 0.0
C364 C 0.70252 0.36339 0.64779 0.0
C365 C 0.71069 0.34251 0.63746 0.0
C366 C 0.73426 0.3405 0.6309 0.0
C367 C 0.74896 0.35959 0.6328 0.0
C368 C 0.69808 0.45466 0.65391 0.0
C369 C 0.69094 0.42153 0.58344 0.0
C370 C 0.67323 0.50714 0.5869 0.0
Eu371 Eu 0.70334 0.47399 0.596 0.0
C372 C 0.66275 0.53009 0.59324 0.0
C373 C 0.67513 0.55099 0.59244 0.0
C374 C 0.66381 0.57229 0.59672 0.0
C375 C 0.63979 0.57327 0.60179 0.0
C376 C 0.62764 0.5522 0.60257 0.0
C377 C 0.63892 0.53107 0.59843 0.0
C378 C 0.73614 0.45475 0.56424 0.0
C379 C 0.7522 0.49112 0.62302 0.0
O380 O 0.75232 0.40885 0.61199 0.0
O381 O 0.74924 0.41925 0.65259 0.0
O382 O 0.71969 0.45384 0.66032 0.0
O383 O 0.69624 0.45001 0.6298 0.0
O384 O 0.70957 0.41673 0.59736 0.0
O385 O 0.68369 0.44303 0.58083 0.0
O386 O 0.66987 0.49021 0.60333 0.0
O387 O 0.69329 0.50575 0.57514 0.0
O388 O 0.71542 0.46005 0.55627 0.0
O389 O 0.73875 0.46127 0.58745 0.0
O390 O 0.73059 0.49691 0.61679 0.0
O391 O 0.75834 0.46915 0.62367 0.0
H392 H 0.70997 0.39869 0.65617 0.0
H393 H 0.68451 0.36538 0.65313 0.0
H394 H 0.74096 0.32466 0.62257 0.0
H395 H 0.76657 0.35819 0.62577 0.0
H396 H 0.69349 0.55092 0.58832 0.0
H397 H 0.67395 0.58798 0.59617 0.0
H398 H 0.60915 0.55193 0.60573 0.0
H399 H 0.62878 0.51536 0.59875 0.0
C400 C 0.12324 0.7613 0.63381 0.0
Eu401 Eu 0.0893 0.73334 0.62361 0.0
C402 C 0.13397 0.78058 0.6196 0.0
C403 C 0.13715 0.80178 0.6322 0.0
C404 C 0.14813 0.81997 0.61934 0.0
C405 C 0.15624 0.81729 0.59359 0.0
C406 C 0.15241 0.79613 0.58081 0.0
C407 C 0.14123 0.77805 0.59359 0.0
C408 C 0.07563 0.69932 0.65742 0.0
C409 C 0.10737 0.69161 0.58549 0.0
C410 C 0.02173 0.67192 0.59284 0.0
Eu411 Eu 0.05478 0.70254 0.59924 0.0
C412 C 0.99715 0.6642 0.59573 0.0
C413 C 0.98464 0.65727 0.57356 0.0
C414 C 0.96314 0.64616 0.57595 0.0
C415 C 0.95344 0.64146 0.60065 0.0
C416 C 0.9656 0.64923 0.62284 0.0
C417 C 0.98714 0.66034 0.62043 0.0
C418 C 0.0731 0.73504 0.56608 0.0
C419 C 0.03695 0.75222 0.6228 0.0
O420 O 0.10223 0.76472 0.64224 0.0
O421 O 0.12609 0.74075 0.62385 0.0
O422 O 0.07815 0.72085 0.66336 0.0
O423 O 0.07934 0.69695 0.63317 0.0
O424 O 0.11153 0.71234 0.59532 0.0
O425 O 0.08654 0.68237 0.58705 0.0
O426 O 0.03449 0.67364 0.61384 0.0
O427 O 0.02744 0.68699 0.57488 0.0
O428 O 0.06738 0.71432 0.55851 0.0
O429 O 0.06726 0.73764 0.58946 0.0
O430 O 0.03102 0.73058 0.61732 0.0
O431 O 0.05901 0.75803 0.62311 0.0
H432 H 0.13161 0.8041 0.65223 0.0
H433 H 0.15125 0.83573 0.63013 0.0
H434 H 0.15837 0.79334 0.56104 0.0
H435 H 0.13864 0.76197 0.5832 0.0
H436 H 0.99189 0.6597 0.55426 0.0
H437 H 0.95427 0.64092 0.55832 0.0
H438 H 0.959 0.64585 0.64223 0.0
H439 H 0.99631 0.66514 0.63802 0.0
C440 C 0.76106 0.12131 0.62276 0.0
Eu441 Eu 0.79178 0.08881 0.61753 0.0
C442 C 0.74183 0.12984 0.60663 0.0
C443 C 0.72034 0.13397 0.61824 0.0
C444 C 0.70239 0.14377 0.60378 0.0
C445 C 0.70562 0.14972 0.57735 0.0
C446 C 0.72685 0.14434 0.56546 0.0
C447 C 0.74477 0.13443 0.57991 0.0
C448 C 0.82441 0.07913 0.65492 0.0
C449 C 0.83539 0.10801 0.58404 0.0
C450 C 0.85868 0.02396 0.59525 0.0
Eu451 Eu 0.82621 0.05562 0.5978 0.0
C452 C 0.86756 0.99973 0.59487 0.0
C453 C 0.85851 0.98227 0.61105 0.0
C454 C 0.86961 0.96062 0.61303 0.0
C455 C 0.89022 0.95602 0.59922 0.0
C456 C 0.89872 0.97334 0.58247 0.0
C457 C 0.88753 0.99479 0.5803 0.0
C458 C 0.79461 0.07043 0.5613 0.0
C459 C 0.77615 0.0355 0.61868 0.0
O460 O 0.75858 0.10074 0.63274 0.0
O461 O 0.78189 0.12489 0.61384 0.0
O462 O 0.80246 0.08117 0.65896 0.0
O463 O 0.8282 0.08166 0.63071 0.0
O464 O 0.81305 0.11037 0.58883 0.0
O465 O 0.84613 0.08862 0.59021 0.0
O466 O 0.85023 0.03215 0.61708 0.0
O467 O 0.84904 0.03304 0.57449 0.0
O468 O 0.81626 0.06657 0.55578 0.0
O469 O 0.79098 0.06498 0.5846 0.0
O470 O 0.7981 0.03062 0.61325 0.0
O471 O 0.76904 0.05716 0.61876 0.0
H472 H 0.71768 0.13039 0.63878 0.0
H473 H 0.68653 0.14806 0.6139 0.0
H474 H 0.73001 0.14871 0.54529 0.0
H475 H 0.76111 0.13104 0.57033 0.0
H476 H 0.84327 0.98558 0.62274 0.0
H477 H 0.86256 0.94782 0.62622 0.0
H478 H 0.91429 0.97043 0.57121 0.0
H479 H 0.89504 1.00792 0.56784 0.0
C480 C 0.90635 0.26734 0.88984 0.0
Eu481 Eu 0.93885 0.23653 0.89448 0.0
C482 C 0.90093 0.29037 0.9005 0.0
C483 C 0.89616 0.3085 0.88325 0.0
C484 C 0.8877 0.32949 0.8926 0.0
C485 C 0.88378 0.33278 0.91949 0.0
C486 C 0.89037 0.31519 0.93692 0.0
C487 C 0.89871 0.29411 0.9275 0.0
C488 C 0.9479 0.2039 0.8569 0.0
C489 C 0.91984 0.19172 0.92696 0.0
C490 C 1.00463 0.17009 0.91595 0.0
Eu491 Eu 0.97233 0.20201 0.91338 0.0
C492 C 0.0294 0.16254 0.9143 0.0
C493 C 0.04076 0.15417 0.93667 0.0
C494 C 0.06245 0.14327 0.93485 0.0
C495 C 0.07349 0.1402 0.91054 0.0
C496 C 0.06244 0.14933 0.88825 0.0
C497 C 0.04074 0.16024 0.89009 0.0
C498 C 0.9577 0.23334 0.95009 0.0
C499 C 0.99197 0.25212 0.89218 0.0
O500 O 0.92379 0.26592 0.87373 0.0
O501 O 0.90534 0.24994 0.90602 0.0
O502 O 0.94581 0.22584 0.8529 0.0
O503 O 0.94568 0.20009 0.88114 0.0
O504 O 0.91656 0.21366 0.92076 0.0
O505 O 0.9399 0.18159 0.92232 0.0
O506 O 0.99393 0.17608 0.89446 0.0
O507 O 0.99717 0.18149 0.93638 0.0
O508 O 0.96101 0.21156 0.95528 0.0
O509 O 0.96326 0.23722 0.92687 0.0
O510 O 0.99683 0.22998 0.89649 0.0
O511 O 0.97041 0.25941 0.89366 0.0
H512 H 0.89779 0.30602 0.86237 0.0
H513 H 0.88251 0.34239 0.87847 0.0
H514 H 0.8878 0.31723 0.95771 0.0
H515 H 0.90234 0.28042 0.94129 0.0
H516 H 0.03249 0.15533 0.95559 0.0
H517 H 0.07041 0.13693 0.95259 0.0
H518 H 0.07006 0.14719 0.86911 0.0
H519 H 0.03248 0.1661 0.87231 0.0
C520 C 0.26311 0.90497 0.88365 0.0
Eu521 Eu 0.2929 0.93815 0.88917 0.0
C522 C 0.24546 0.89534 0.90127 0.0
C523 C 0.22284 0.89241 0.89227 0.0
C524 C 0.20604 0.88273 0.90846 0.0
C525 C 0.21151 0.87577 0.93411 0.0
C526 C 0.23406 0.87961 0.94336 0.0
C527 C 0.25085 0.88932 0.92715 0.0
C528 C 0.32655 0.94957 0.85386 0.0
C529 C 0.33548 0.92007 0.9262 0.0
C530 C 0.35741 1.00486 0.91563 0.0
Eu531 Eu 0.3258 0.97251 0.91141 0.0
C532 C 0.36517 0.02947 0.91336 0.0
C533 C 0.37271 0.0414 0.93569 0.0
C534 C 0.38384 0.0629 0.93361 0.0
C535 C 0.38796 0.07317 0.90907 0.0
C536 C 0.37961 0.06158 0.88677 0.0
C537 C 0.36847 0.04006 0.88887 0.0
C538 C 0.29311 0.95633 0.94563 0.0
C539 C 0.27621 0.9914 0.88777 0.0
O540 O 0.25937 0.92594 0.87529 0.0
O541 O 0.28464 0.90153 0.89019 0.0
O542 O 0.30493 0.94652 0.8484 0.0
O543 O 0.32937 0.94682 0.87824 0.0
O544 O 0.31409 0.9165 0.91793 0.0
O545 O 0.34552 0.94037 0.92305 0.0
O546 O 0.35329 0.99321 0.89422 0.0
O547 O 0.34426 0.99836 0.93513 0.0
O548 O 0.31418 0.96122 0.95276 0.0
O549 O 0.29054 0.96168 0.92214 0.0
O550 O 0.29777 0.99681 0.89435 0.0
O551 O 0.26975 0.96955 0.88683 0.0
H552 H 0.21828 0.89708 0.87245 0.0
H553 H 0.18911 0.87956 0.90023 0.0
H554 H 0.23894 0.87469 0.96298 0.0
H555 H 0.26809 0.89189 0.93484 0.0
H556 H 0.37075 0.03369 0.95483 0.0
H557 H 0.38954 0.07131 0.95133 0.0
H558 H 0.38256 0.06862 0.86749 0.0
H559 H 0.36323 0.03134 0.87115 0.0
C560 C 0.62651 0.27485 0.87293 0.0
Eu561 Eu 0.58879 0.29509 0.88703 0.0
C562 C 0.64763 0.28768 0.8665 0.0
C563 C 0.64559 0.31038 0.85697 0.0
C564 C 0.66455 0.32518 0.85705 0.0
C565 C 0.68592 0.31759 0.8667 0.0
C566 C 0.68831 0.29446 0.87479 0.0
C567 C 0.66923 0.27963 0.87482 0.0
C568 C 0.57449 0.33009 0.85518 0.0
C569 C 0.60699 0.33804 0.92419 0.0
C570 C 0.52071 0.35441 0.91988 0.0
Eu571 Eu 0.55458 0.32473 0.91278 0.0
C572 C 0.49609 0.36207 0.91698 0.0
C573 C 0.48355 0.36898 0.93916 0.0
C574 C 0.46206 0.38016 0.93677 0.0
C575 C 0.45238 0.38493 0.91207 0.0
C576 C 0.46456 0.37714 0.88988 0.0
C577 C 0.48609 0.36596 0.89229 0.0
C578 C 0.57383 0.29218 0.94481 0.0
C579 C 0.53753 0.27504 0.8871 0.0
O580 O 0.62034 0.27661 0.8974 0.0
O581 O 0.60913 0.27782 0.85693 0.0
O582 O 0.57526 0.30852 0.84864 0.0
O583 O 0.57895 0.33177 0.87935 0.0
O584 O 0.61182 0.31874 0.91152 0.0
O585 O 0.58549 0.34558 0.92597 0.0
O586 O 0.53369 0.35353 0.89899 0.0
O587 O 0.52653 0.33891 0.93734 0.0
O588 O 0.56855 0.31297 0.95259 0.0
O589 O 0.56731 0.28939 0.9216 0.0
O590 O 0.53151 0.29632 0.89433 0.0
O591 O 0.55961 0.26939 0.88528 0.0
H592 H 0.62898 0.3172 0.85095 0.0
H593 H 0.66226 0.34283 0.85052 0.0
H594 H 0.70455 0.28823 0.8826 0.0
H595 H 0.67103 0.26239 0.8828 0.0
H596 H 0.4908 0.36652 0.95845 0.0
H597 H 0.45318 0.38541 0.95441 0.0
H598 H 0.45797 0.38057 0.87049 0.0
H599 H 0.49529 0.36117 0.8747 0.0
C600 C 0.25266 0.62531 0.87631 0.0
Eu601 Eu 0.23231 0.58776 0.89061 0.0
C602 C 0.24 0.64686 0.87123 0.0
C603 C 0.21678 0.64558 0.86318 0.0
C604 C 0.20229 0.66473 0.86529 0.0
C605 C 0.21073 0.68555 0.87548 0.0
C606 C 0.23437 0.68728 0.88179 0.0
C607 C 0.24888 0.66801 0.87981 0.0
C608 C 0.19729 0.57334 0.85885 0.0
C609 C 0.1903 0.60642 0.92893 0.0
C610 C 0.17242 0.52082 0.92573 0.0
Eu611 Eu 0.2026 0.55382 0.91668 0.0
C612 C 0.16214 0.49775 0.91976 0.0
C613 C 0.17489 0.47702 0.91979 0.0
C614 C 0.1638 0.45562 0.91558 0.0
C615 C 0.13967 0.45438 0.91134 0.0
C616 C 0.12715 0.47528 0.9114 0.0
C617 C 0.1382 0.4965 0.91546 0.0
C618 C 0.23531 0.57295 0.94853 0.0
C619 C 0.25151 0.53641 0.88977 0.0
O620 O 0.25186 0.61865 0.90068 0.0
O621 O 0.24863 0.60837 0.86006 0.0
O622 O 0.21888 0.57403 0.85231 0.0
O623 O 0.19561 0.57791 0.88299 0.0
O624 O 0.20916 0.61104 0.91537 0.0
O625 O 0.18282 0.585 0.93133 0.0
O626 O 0.16939 0.53739 0.90873 0.0
O627 O 0.19221 0.52246 0.938 0.0
O628 O 0.21453 0.56778 0.95639 0.0
O629 O 0.23804 0.56638 0.92533 0.0
O630 O 0.2299 0.53074 0.89607 0.0
O631 O 0.25769 0.55835 0.88896 0.0
H632 H 0.20936 0.62931 0.85696 0.0
H633 H 0.18422 0.66294 0.86015 0.0
H634 H 0.24129 0.70304 0.89002 0.0
H635 H 0.26655 0.66922 0.88665 0.0
H636 H 0.19336 0.47733 0.92318 0.0
H637 H 0.17419 0.44007 0.91548 0.0
H638 H 0.10858 0.47532 0.90889 0.0
H639 H 0.12781 0.51209 0.91572 0.0
C640 C 0.57354 0.18019 0.31194 0.0
C641 C 0.57967 0.17751 0.33833 0.0
C642 C 0.58375 0.16656 0.29237 0.0
C643 C 0.62117 0.11394 0.28086 0.0
H644 H 0.63321 0.14407 0.2147 0.0
C645 C 0.68566 0.07715 0.20352 0.0
C646 C 0.6811 0.08049 0.17678 0.0
C647 C 0.67129 0.08678 0.22281 0.0
C648 C 0.62974 0.13517 0.23286 0.0
H649 H 0.60137 0.15789 0.36471 0.0
H650 H 0.61942 0.13436 0.33077 0.0
H651 H 0.6125 0.1647 0.24879 0.0
H652 H 0.65711 0.09613 0.14956 0.0
H653 H 0.63192 0.11279 0.18312 0.0
H654 H 0.63902 0.08458 0.26497 0.0
C655 C 0.60629 0.14668 0.32505 0.0
C656 C 0.61772 0.14707 0.2526 0.0
C657 C 0.59585 0.1602 0.34469 0.0
C658 C 0.66113 0.09301 0.16991 0.0
C659 C 0.64682 0.10284 0.18924 0.0
C660 C 0.63333 0.10207 0.26115 0.0
C661 C 0.60077 0.14991 0.29842 0.0
C662 C 0.61322 0.13674 0.27705 0.0
C663 C 0.65192 0.10029 0.21605 0.0
C664 C 0.63791 0.1125 0.2368 0.0
H665 H 0.56124 0.1934 0.30628 0.0
H666 H 0.57845 0.16937 0.27237 0.0
H667 H 0.61786 0.10506 0.29907 0.0
H668 H 0.70096 0.06777 0.2096 0.0
H669 H 0.67604 0.08447 0.24308 0.0
C670 C 0.43183 0.66246 0.16846 0.0
C671 C 0.44684 0.68069 0.17496 0.0
C672 C 0.42155 0.64877 0.18805 0.0
C673 C 0.40774 0.65002 0.25992 0.0
H674 H 0.39121 0.58597 0.24894 0.0
C675 C 0.36624 0.59496 0.34297 0.0
C676 C 0.34766 0.58056 0.33596 0.0
C677 C 0.38009 0.60553 0.32374 0.0
C678 C 0.39553 0.6039 0.25236 0.0
H679 H 0.46342 0.69808 0.20727 0.0
H680 H 0.44641 0.67391 0.24115 0.0
H681 H 0.41192 0.607 0.21493 0.0
H682 H 0.32972 0.56552 0.30305 0.0
H683 H 0.35389 0.58351 0.26973 0.0
H684 H 0.39131 0.64693 0.2973 0.0
C685 C 0.44191 0.67044 0.22103 0.0
C686 C 0.40744 0.61606 0.2327 0.0
C687 C 0.452 0.68418 0.2015 0.0
C688 C 0.34399 0.5763 0.30923 0.0
C689 C 0.35793 0.58668 0.29004 0.0
C690 C 0.39594 0.63784 0.27959 0.0
C691 C 0.42604 0.65281 0.21479 0.0
C692 C 0.41372 0.63941 0.23605 0.0
C693 C 0.37593 0.60189 0.2969 0.0
C694 C 0.38951 0.61457 0.27616 0.0
H695 H 0.42712 0.65946 0.14829 0.0
H696 H 0.40933 0.63563 0.18219 0.0
H697 H 0.41165 0.66804 0.26331 0.0
H698 H 0.36948 0.59891 0.36331 0.0
H699 H 0.39392 0.61684 0.32996 0.0
C700 C 0.93361 0.36487 0.33961 0.0
C701 C 0.94716 0.34544 0.33332 0.0
C702 C 0.92391 0.37881 0.31983 0.0
C703 C 0.90853 0.37649 0.24839 0.0
H704 H 0.89533 0.44156 0.25769 0.0
C705 C 0.86808 0.43153 0.16467 0.0
C706 C 0.8502 0.44684 0.17166 0.0
C707 C 0.88183 0.42081 0.1839 0.0
C708 C 0.89873 0.42336 0.25475 0.0
H709 H 0.96204 0.3263 0.30118 0.0
H710 H 0.94612 0.35086 0.26699 0.0
H711 H 0.91577 0.42035 0.29181 0.0
H712 H 0.8334 0.46333 0.20449 0.0
H713 H 0.85747 0.44511 0.23781 0.0
H714 H 0.89147 0.3795 0.21138 0.0
C715 C 0.94221 0.35508 0.28708 0.0
C716 C 0.91048 0.41109 0.27448 0.0
C717 C 0.95169 0.34109 0.30679 0.0
C718 C 0.84714 0.45184 0.19833 0.0
C719 C 0.86101 0.44133 0.21751 0.0
C720 C 0.89692 0.38878 0.22865 0.0
C721 C 0.92757 0.37383 0.29314 0.0
C722 C 0.91555 0.38737 0.27174 0.0
C723 C 0.87828 0.42523 0.21071 0.0
C724 C 0.8917 0.41241 0.23149 0.0
H725 H 0.92948 0.36863 0.35978 0.0
H726 H 0.91269 0.39288 0.32557 0.0
H727 H 0.91146 0.35821 0.24549 0.0
H728 H 0.8708 0.42699 0.1444 0.0
H729 H 0.89508 0.40878 0.17772 0.0
C730 C 0.16506 0.92831 0.34329 0.0
C731 C 0.185 0.94092 0.33661 0.0
C732 C 0.15109 0.91825 0.32383 0.0
C733 C 0.13726 0.91936 0.25235 0.0
H734 H 0.11913 0.85575 0.26329 0.0
C735 C 0.09974 0.86251 0.16775 0.0
C736 C 0.08529 0.84374 0.17389 0.0
C737 C 0.10993 0.87595 0.18761 0.0
C738 C 0.12351 0.87366 0.25986 0.0
H739 H 0.20521 0.95348 0.30402 0.0
H740 H 0.18068 0.93653 0.27025 0.0
H741 H 0.13946 0.87641 0.29756 0.0
H742 H 0.06942 0.82522 0.20585 0.0
H743 H 0.08594 0.84911 0.2402 0.0
H744 H 0.12111 0.9168 0.21479 0.0
C745 C 0.17581 0.93427 0.29049 0.0
C746 C 0.13537 0.88555 0.2797 0.0
C747 C 0.18993 0.94403 0.30992 0.0
C748 C 0.08046 0.83952 0.20037 0.0
C749 C 0.09032 0.85312 0.22018 0.0
C750 C 0.12512 0.90756 0.23258 0.0
C751 C 0.15643 0.92076 0.29709 0.0
C752 C 0.14262 0.90855 0.27625 0.0
C753 C 0.1058 0.87123 0.2143 0.0
C754 C 0.11812 0.88437 0.23583 0.0
H755 H 0.16077 0.92537 0.3636 0.0
H756 H 0.1362 0.90822 0.32977 0.0
H757 H 0.14229 0.93711 0.24895 0.0
H758 H 0.10414 0.86611 0.14761 0.0
H759 H 0.12182 0.88944 0.18191 0.0
C760 C 0.36483 0.93156 0.84056 0.0
C761 C 0.34429 0.94317 0.83378 0.0
C762 C 0.37926 0.922 0.82116 0.0
C763 C 0.39201 0.92261 0.74916 0.0
H764 H 0.41508 0.8608 0.76167 0.0
C765 C 0.43081 0.86558 0.66549 0.0
C766 C 0.44745 0.84869 0.67174 0.0
C767 C 0.42012 0.87881 0.6852 0.0
C768 C 0.40924 0.87822 0.75781 0.0
H769 H 0.32348 0.95454 0.80109 0.0
H770 H 0.34862 0.93835 0.76749 0.0
H771 H 0.39399 0.8809 0.79587 0.0
H772 H 0.46645 0.83326 0.70365 0.0
H773 H 0.44884 0.85687 0.73768 0.0
H774 H 0.40728 0.92 0.71112 0.0
C775 C 0.35371 0.93653 0.78772 0.0
C776 C 0.39699 0.88981 0.77761 0.0
C777 C 0.33921 0.94585 0.80707 0.0
C778 C 0.45379 0.84616 0.69808 0.0
C779 C 0.44335 0.85954 0.71772 0.0
C780 C 0.40443 0.91109 0.7294 0.0
C781 C 0.37372 0.92397 0.7944 0.0
C782 C 0.388 0.91215 0.77361 0.0
C783 C 0.42586 0.87574 0.71179 0.0
C784 C 0.41318 0.88858 0.73325 0.0
H785 H 0.36926 0.92897 0.86089 0.0
H786 H 0.39464 0.91275 0.82719 0.0
H787 H 0.38567 0.93988 0.74529 0.0
H788 H 0.42511 0.86773 0.6455 0.0
H789 H 0.40663 0.89077 0.67955 0.0
C790 C 0.59611 0.36646 0.84243 0.0
C791 C 0.5819 0.34773 0.83547 0.0
C792 C 0.60647 0.38042 0.82315 0.0
C793 C 0.60438 0.39585 0.75181 0.0
H794 H 0.66852 0.41242 0.76235 0.0
C795 C 0.66234 0.43233 0.6675 0.0
C796 C 0.68059 0.44737 0.67386 0.0
C797 C 0.64876 0.42207 0.68721 0.0
C798 C 0.65049 0.40838 0.75908 0.0
H799 H 0.56696 0.32961 0.80263 0.0
H800 H 0.58457 0.35397 0.76923 0.0
H801 H 0.64772 0.39194 0.79648 0.0
H802 H 0.6981 0.46407 0.70601 0.0
H803 H 0.67408 0.44713 0.74007 0.0
H804 H 0.60717 0.41225 0.71437 0.0
C805 C 0.58776 0.35804 0.78953 0.0
C806 C 0.63849 0.39651 0.77883 0.0
C807 C 0.5776 0.34399 0.80876 0.0
C808 C 0.68417 0.45263 0.70035 0.0
C809 C 0.67053 0.44257 0.71999 0.0
C810 C 0.61636 0.40784 0.73207 0.0
C811 C 0.60278 0.37621 0.79632 0.0
C812 C 0.61524 0.38991 0.77554 0.0
C813 C 0.65292 0.42663 0.7139 0.0
C814 C 0.63971 0.41428 0.73527 0.0
H815 H 0.60008 0.36975 0.86275 0.0
H816 H 0.61764 0.39436 0.82932 0.0
H817 H 0.58646 0.39139 0.7485 0.0
H818 H 0.65928 0.42753 0.64737 0.0
H819 H 0.63563 0.40979 0.68146 0.0
C820 C 0.0774 0.68576 0.70397 0.0
C821 C 0.08208 0.68157 0.67745 0.0
C822 C 0.08691 0.67177 0.72365 0.0
C823 C 0.11946 0.6161 0.73603 0.0
H824 H 0.13713 0.64743 0.79979 0.0
C825 C 0.18322 0.57633 0.81245 0.0
C826 C 0.17966 0.58086 0.83915 0.0
C827 C 0.16924 0.58662 0.79322 0.0
C828 C 0.13206 0.63823 0.78232 0.0
H829 H 0.10014 0.6587 0.65096 0.0
H830 H 0.11705 0.63449 0.68512 0.0
H831 H 0.11708 0.66865 0.76567 0.0
H832 H 0.15801 0.59959 0.8664 0.0
H833 H 0.13357 0.61745 0.83297 0.0
H834 H 0.13515 0.5858 0.75262 0.0
C835 C 0.10563 0.6484 0.69088 0.0
C836 C 0.12041 0.65047 0.76257 0.0
C837 C 0.09587 0.66231 0.67113 0.0
C838 C 0.16116 0.59544 0.8461 0.0
C839 C 0.1473 0.60595 0.82682 0.0
C840 C 0.1313 0.60389 0.75574 0.0
C841 C 0.10179 0.65319 0.71759 0.0
C842 C 0.11386 0.63969 0.73898 0.0
C843 C 0.15136 0.60204 0.80001 0.0
C844 C 0.13784 0.61475 0.77924 0.0
H845 H 0.06687 0.70042 0.70959 0.0
H846 H 0.08283 0.67584 0.74374 0.0
H847 H 0.11455 0.60689 0.71852 0.0
H848 H 0.19743 0.56541 0.80634 0.0
H849 H 0.17315 0.58324 0.77291 0.0
C850 C 0.86403 0.09251 0.6705 0.0
C851 C 0.84101 0.08636 0.67594 0.0
C852 C 0.87829 0.10215 0.69004 0.0
C853 C 0.88092 0.11394 0.76317 0.0
H854 H 0.92615 0.15952 0.74237 0.0
C855 C 0.9349 0.16415 0.84138 0.0
C856 C 0.94065 0.18727 0.83595 0.0
C857 C 0.92538 0.14978 0.82187 0.0
C858 C 0.91344 0.14706 0.74879 0.0
H859 H 0.81532 0.08509 0.70669 0.0
H860 H 0.83944 0.10228 0.74 0.0
H861 H 0.90444 0.13898 0.7093 0.0
H862 H 0.9413 0.21301 0.80525 0.0
H863 H 0.92433 0.18869 0.772 0.0
H864 H 0.88893 0.123 0.80267 0.0
C865 C 0.84702 0.09931 0.721 0.0
C866 C 0.90114 0.13482 0.72954 0.0
C867 C 0.83296 0.08949 0.70164 0.0
C868 C 0.93722 0.19531 0.81029 0.0
C869 C 0.92753 0.18113 0.79097 0.0
C870 C 0.89299 0.12642 0.78242 0.0
C871 C 0.86992 0.10616 0.71562 0.0
C872 C 0.88438 0.11818 0.73629 0.0
C873 C 0.92112 0.15812 0.79633 0.0
C874 C 0.90931 0.14348 0.77567 0.0
H875 H 0.87088 0.09041 0.65097 0.0
H876 H 0.89586 0.10662 0.68492 0.0
H877 H 0.86871 0.101 0.76959 0.0
H878 H 0.93724 0.1573 0.86088 0.0
H879 H 0.92124 0.13214 0.82699 0.0
C880 C 0.40965 0.13498 0.42019 0.0
C881 C 0.43062 0.1278 0.40874 0.0
C882 C 0.38925 0.12198 0.41712 0.0
C883 C 0.36329 0.07435 0.37634 0.0
H884 H 0.31869 0.07067 0.43261 0.0
C885 C 0.29186 1.00414 0.37966 0.0
C886 C 0.26977 1.00971 0.38935 0.0
C887 C 0.31007 0.0201 0.38055 0.0
C888 C 0.33078 0.07171 0.41652 0.0
H889 H 0.44626 0.10065 0.38557 0.0
H890 H 0.4112 0.07804 0.38055 0.0
H891 H 0.35297 0.09483 0.4375 0.0
H892 H 0.24964 0.03693 0.40738 0.0
H893 H 0.28153 0.06491 0.40903 0.0
H894 H 0.34136 0.05081 0.35563 0.0
C895 C 0.41018 0.09408 0.39133 0.0
C896 C 0.35057 0.08566 0.41931 0.0
C897 C 0.43048 0.10712 0.39426 0.0
C898 C 0.26631 0.03206 0.39948 0.0
C899 C 0.28471 0.04803 0.40069 0.0
C900 C 0.34364 0.0603 0.37365 0.0
C901 C 0.38912 0.10125 0.40262 0.0
C902 C 0.36735 0.08707 0.39936 0.0
C903 C 0.30696 0.0422 0.39146 0.0
C904 C 0.32714 0.05854 0.39377 0.0
H905 H 0.40888 0.15088 0.43126 0.0
H906 H 0.37349 0.12844 0.42586 0.0
H907 H 0.37529 0.07525 0.36016 0.0
H908 H 0.29531 0.98711 0.37182 0.0
H909 H 0.32688 0.01475 0.37349 0.0
C910 C 0.3927 0.40949 0.4173 0.0
C911 C 0.39958 0.4304 0.40555 0.0
C912 C 0.40595 0.38921 0.41443 0.0
C913 C 0.45384 0.36321 0.37387 0.0
H914 H 0.45789 0.31931 0.43079 0.0
C915 C 0.52359 0.2908 0.37711 0.0
C916 C 0.51784 0.269 0.38747 0.0
C917 C 0.50791 0.30932 0.37799 0.0
C918 C 0.45676 0.33119 0.41452 0.0
H919 H 0.42648 0.44606 0.38203 0.0
H920 H 0.44952 0.41117 0.37734 0.0
H921 H 0.43361 0.35356 0.4353 0.0
H922 H 0.49056 0.2498 0.40662 0.0
H923 H 0.46316 0.28213 0.40816 0.0
H924 H 0.47737 0.34105 0.35334 0.0
C925 C 0.43353 0.41012 0.38823 0.0
C926 C 0.44273 0.35097 0.41709 0.0
C927 C 0.42023 0.43031 0.39096 0.0
C928 C 0.49561 0.26621 0.39825 0.0
C929 C 0.47996 0.28489 0.39939 0.0
C930 C 0.46796 0.34355 0.37139 0.0
C931 C 0.42666 0.38913 0.39985 0.0
C932 C 0.44112 0.36747 0.39688 0.0
C933 C 0.48594 0.30684 0.3895 0.0
C934 C 0.46982 0.32726 0.39172 0.0
H935 H 0.37684 0.40867 0.42846 0.0
H936 H 0.39971 0.37349 0.42342 0.0
H937 H 0.45281 0.37501 0.35753 0.0
H938 H 0.54052 0.29376 0.36875 0.0
H939 H 0.51338 0.32589 0.37039 0.0
C940 C 0.09508 0.42167 0.38926 0.0
C941 C 0.09516 0.40072 0.40326 0.0
C942 C 0.1153 0.43486 0.38642 0.0
C943 C 0.17494 0.44306 0.41418 0.0
H944 H 0.18408 0.47871 0.35101 0.0
C945 C 0.2596 0.49576 0.39505 0.0
C946 C 0.25672 0.51816 0.38479 0.0
C947 C 0.2409 0.48019 0.39614 0.0
C948 C 0.1818 0.46902 0.3689 0.0
H949 H 0.11721 0.3773 0.42495 0.0
H950 H 0.15242 0.40001 0.41973 0.0
H951 H 0.15006 0.45432 0.35533 0.0
H952 H 0.2318 0.54125 0.36691 0.0
H953 H 0.19961 0.51427 0.36849 0.0
H954 H 0.20686 0.45778 0.42761 0.0
C955 C 0.13656 0.40656 0.41131 0.0
C956 C 0.16211 0.45499 0.37145 0.0
C957 C 0.11626 0.39341 0.41428 0.0
C958 C 0.23482 0.52418 0.37487 0.0
C959 C 0.21626 0.50859 0.37571 0.0
C960 C 0.19474 0.45701 0.41155 0.0
C961 C 0.13647 0.42757 0.39733 0.0
C962 C 0.15814 0.44192 0.39426 0.0
C963 C 0.21883 0.48645 0.38672 0.0
C964 C 0.19839 0.47042 0.38897 0.0
H965 H 0.07919 0.42824 0.38091 0.0
H966 H 0.11414 0.45109 0.37601 0.0
H967 H 0.17257 0.43364 0.43223 0.0
H968 H 0.2761 0.4905 0.40307 0.0
H969 H 0.24372 0.46325 0.4045 0.0
C970 C 0.13305 0.11504 0.4166 0.0
C971 C 0.12609 0.09452 0.40408 0.0
C972 C 0.12024 0.13562 0.41383 0.0
C973 C 0.07388 0.16309 0.37222 0.0
H974 H 0.06914 0.20637 0.42963 0.0
C975 C 1.00442 0.23553 0.37525 0.0
C976 C 1.01016 0.25731 0.38561 0.0
C977 C 0.02006 0.217 0.37621 0.0
C978 C 0.07049 0.19465 0.41324 0.0
H979 H 0.09947 0.07981 0.37944 0.0
H980 H 0.07715 0.11515 0.37499 0.0
H981 H 0.09285 0.1717 0.43434 0.0
H982 H 0.03732 0.27651 0.40492 0.0
H983 H 0.06469 0.24408 0.4067 0.0
H984 H 0.05108 0.18578 0.35139 0.0
C985 C 0.0929 0.11572 0.38634 0.0
C986 C 0.08418 0.17464 0.41592 0.0
C987 C 0.10577 0.09526 0.38896 0.0
C988 C 0.03233 0.2601 0.3965 0.0
C989 C 0.04794 0.24139 0.39778 0.0
C990 C 0.06008 0.18295 0.36964 0.0
C991 C 0.09991 0.13637 0.3986 0.0
C992 C 0.08597 0.15834 0.39553 0.0
C993 C 0.04196 0.21946 0.38786 0.0
C994 C 0.05796 0.19898 0.39017 0.0
H995 H 0.14866 0.11532 0.42823 0.0
H996 H 0.12655 0.15104 0.42336 0.0
H997 H 0.07512 0.15149 0.35572 0.0
H998 H 0.98752 0.23259 0.36681 0.0
H999 H 0.01461 0.20045 0.36858 0.0
C1000 C 0.91148 0.89442 0.09439 0.0
C1001 C 0.93218 0.90165 0.10637 0.0
C1002 C 0.89087 0.90719 0.09726 0.0
C1003 C 0.86373 0.95403 0.1384 0.0
H1004 H 0.81966 0.95783 0.08162 0.0
C1005 C 0.79103 0.02322 0.13547 0.0
C1006 C 0.76916 0.01746 0.12533 0.0
C1007 C 0.80955 1.00757 0.1345 0.0
C1008 C 0.8316 0.95675 0.09784 0.0
H1009 H 0.94713 0.92873 0.13017 0.0
H1010 H 0.91172 0.95094 0.13483 0.0
H1011 H 0.85437 0.93416 0.0768 0.0
H1012 H 0.74978 0.99021 0.10644 0.0
H1013 H 0.7822 0.96278 0.10469 0.0
H1014 H 0.84121 0.97702 0.15919 0.0
C1015 C 0.91106 0.93501 0.12381 0.0
C1016 C 0.85163 0.94308 0.0951 0.0
C1017 C 0.93156 0.9222 0.12108 0.0
C1018 C 0.76626 0.99522 0.11468 0.0
C1019 C 0.78497 0.97958 0.11341 0.0
C1020 C 0.84383 0.96779 0.14105 0.0
C1021 C 0.89025 0.92774 0.11207 0.0
C1022 C 0.86823 0.94164 0.11524 0.0
C1023 C 0.80701 0.9856 0.12309 0.0
C1024 C 0.82751 0.96959 0.12075 0.0
H1025 H 0.91108 0.87863 0.0831 0.0
H1026 H 0.87532 0.90068 0.08814 0.0
H1027 H 0.87557 0.95308 0.15472 0.0
H1028 H 0.79406 0.04017 0.14371 0.0
H1029 H 0.82617 1.01307 0.14193 0.0
C1030 C 0.50428 0.79241 0.1374 0.0
C1031 C 0.50986 0.77093 0.12612 0.0
C1032 C 0.51991 0.81094 0.13675 0.0
C1033 C 0.56961 0.83407 0.09915 0.0
H1034 H 0.57582 0.87566 0.15793 0.0
C1035 C 0.63205 0.91343 0.09571 0.0
C1036 C 0.62518 0.93387 0.10852 0.0
C1037 C 0.61956 0.89272 0.09879 0.0
C1038 C 0.57414 0.8645 0.1411 0.0
H1039 H 0.53674 0.75227 0.10555 0.0
H1040 H 0.56401 0.78465 0.10431 0.0
H1041 H 0.5516 0.84149 0.1618 0.0
H1042 H 0.59978 0.94777 0.13547 0.0
H1043 H 0.57779 0.9124 0.14 0.0
H1044 H 0.59163 0.85734 0.07818 0.0
C1045 C 0.54742 0.78713 0.11368 0.0
C1046 C 0.56023 0.84472 0.14341 0.0
C1047 C 0.53185 0.76843 0.11465 0.0
C1048 C 0.60558 0.93269 0.12483 0.0
C1049 C 0.59305 0.9121 0.12779 0.0
C1050 C 0.58338 0.854 0.09675 0.0
C1051 C 0.54159 0.80877 0.1245 0.0
C1052 C 0.55757 0.82924 0.12242 0.0
C1053 C 0.5997 0.89169 0.11476 0.0
C1054 C 0.58576 0.86973 0.11761 0.0
H1055 H 0.48752 0.79512 0.14631 0.0
H1056 H 0.5146 0.82729 0.14509 0.0
H1057 H 0.56783 0.8228 0.08242 0.0
H1058 H 0.64686 0.91345 0.0828 0.0
H1059 H 0.6256 0.87748 0.08865 0.0
C1060 C 0.60743 0.6167 0.08243 0.0
C1061 C 0.59819 0.62919 0.10365 0.0
C1062 C 0.6277 0.60346 0.08512 0.0
C1063 C 0.66446 0.57427 0.13515 0.0
H1064 H 0.70915 0.57039 0.07896 0.0
C1065 C 0.73659 0.50411 0.13238 0.0
C1066 C 0.75851 0.50982 0.12229 0.0
C1067 C 0.71813 0.51986 0.1314 0.0
C1068 C 0.697 0.57138 0.09499 0.0
H1069 H 0.60406 0.63768 0.14436 0.0
H1070 H 0.63902 0.61453 0.14905 0.0
H1071 H 0.6754 0.59548 0.07445 0.0
H1072 H 0.77801 0.53713 0.1036 0.0
H1073 H 0.74584 0.56466 0.10196 0.0
H1074 H 0.68602 0.55018 0.1557 0.0
C1075 C 0.63037 0.61474 0.13032 0.0
C1076 C 0.67741 0.58563 0.09227 0.0
C1077 C 0.61017 0.62808 0.1276 0.0
C1078 C 0.7615 0.53208 0.11173 0.0
C1079 C 0.74291 0.54782 0.11053 0.0
C1080 C 0.68394 0.55989 0.13779 0.0
C1081 C 0.63944 0.60209 0.10916 0.0
C1082 C 0.66074 0.58726 0.11226 0.0
C1083 C 0.72083 0.54187 0.1201 0.0
C1084 C 0.70051 0.5581 0.11772 0.0
H1085 H 0.59868 0.6166 0.06376 0.0
H1086 H 0.63382 0.59377 0.06842 0.0
H1087 H 0.65204 0.57479 0.15094 0.0
H1088 H 0.73348 0.48715 0.14057 0.0
H1089 H 0.70146 0.51442 0.13875 0.0
C1090 C 0.02383 0.73569 0.12917 0.0
C1091 C 0.01762 0.75806 0.12091 0.0
C1092 C 1.00828 0.71721 0.12744 0.0
C1093 C 0.94618 0.70108 0.11747 0.0
H1094 H 0.97321 0.64278 0.09613 0.0
C1095 C 0.89405 0.61421 0.11655 0.0
C1096 C 0.89892 0.598 0.09673 0.0
C1097 C 0.90739 0.6344 0.1194 0.0
C1098 C 0.9652 0.6589 0.10188 0.0
H1099 H 0.98951 0.77844 0.10512 0.0
H1100 H 0.96224 0.74608 0.10199 0.0
H1101 H 0.9977 0.67645 0.10135 0.0
H1102 H 0.92211 0.59086 0.06444 0.0
H1103 H 0.94477 0.62592 0.06901 0.0
H1104 H 0.91353 0.6834 0.11748 0.0
C1105 C 0.97925 0.74291 0.11003 0.0
C1106 C 0.9794 0.6783 0.10527 0.0
C1107 C 0.9949 0.76155 0.11186 0.0
C1108 C 0.91746 0.60287 0.07975 0.0
C1109 C 0.93078 0.62298 0.08263 0.0
C1110 C 0.93191 0.68157 0.11413 0.0
C1111 C 0.98591 0.72028 0.1172 0.0
C1112 C 0.97023 0.69974 0.11325 0.0
C1113 C 0.92614 0.63905 0.10263 0.0
C1114 C 0.94119 0.66011 0.10625 0.0
H1115 H 0.04106 0.73224 0.13647 0.0
H1116 H 1.01401 0.70034 0.13389 0.0
H1117 H 0.93837 0.71714 0.12375 0.0
H1118 H 0.87985 0.61136 0.12991 0.0
H1119 H 0.90326 0.64612 0.13519 0.0
C1120 C 0.76135 0.99498 0.60936 0.0
C1121 C 0.75813 0.01698 0.62051 0.0
C1122 C 0.74294 0.97905 0.60803 0.0
C1123 C 0.68471 0.96577 0.6363 0.0
H1124 H 0.67397 0.93334 0.57133 0.0
C1125 C 0.5976 0.91926 0.61629 0.0
C1126 C 0.59722 0.89907 0.60097 0.0
C1127 C 0.61791 0.9323 0.61919 0.0
C1128 C 0.67678 0.94191 0.58982 0.0
H1129 H 0.73303 0.03896 0.63977 0.0
H1130 H 0.70143 1.01135 0.63789 0.0
H1131 H 0.70827 0.95746 0.5762 0.0
H1132 H 0.61853 0.87684 0.57689 0.0
H1133 H 0.65394 0.89925 0.58222 0.0
H1134 H 0.65345 0.95025 0.6501 0.0
C1135 C 0.71806 1.00626 0.63009 0.0
C1136 C 0.69657 0.95584 0.5926 0.0
C1137 C 0.73628 0.0222 0.63111 0.0
C1138 C 0.61795 0.89237 0.58864 0.0
C1139 C 0.63835 0.90535 0.59167 0.0
C1140 C 0.66505 0.95174 0.63362 0.0
C1141 C 0.72092 0.98454 0.61817 0.0
C1142 C 0.70072 0.96825 0.61578 0.0
C1143 C 0.63873 0.92559 0.60701 0.0
C1144 C 0.6605 0.93977 0.6102 0.0
H1145 H 0.77783 0.99037 0.60078 0.0
H1146 H 0.74593 0.96245 0.59891 0.0
H1147 H 0.6874 0.97467 0.65463 0.0
H1148 H 0.58198 0.92537 0.62569 0.0
H1149 H 0.61707 0.94796 0.63066 0.0
C1150 C 0.63347 0.61611 0.59222 0.0
C1151 C 0.62717 0.59589 0.60583 0.0
C1152 C 0.62085 0.63679 0.59516 0.0
C1153 C 0.57612 0.6655 0.63815 0.0
H1154 H 0.56811 0.70609 0.57868 0.0
C1155 C 0.50524 0.73682 0.63435 0.0
C1156 C 0.51046 0.75823 0.6227 0.0
C1157 C 0.52106 0.7184 0.63372 0.0
C1158 C 0.57037 0.69513 0.59562 0.0
H1159 H 0.6027 0.58244 0.63411 0.0
H1160 H 0.58047 0.6177 0.63838 0.0
H1161 H 0.59221 0.67167 0.57461 0.0
H1162 H 0.53687 0.77688 0.60142 0.0
H1163 H 0.56445 0.74467 0.60015 0.0
H1164 H 0.55369 0.68868 0.65887 0.0
C1165 C 0.59537 0.61787 0.62563 0.0
C1166 C 0.58431 0.67527 0.59332 0.0
C1167 C 0.60804 0.59731 0.62282 0.0
C1168 C 0.53227 0.76077 0.61082 0.0
C1169 C 0.54802 0.74218 0.60985 0.0
C1170 C 0.56201 0.68519 0.64034 0.0
C1171 C 0.60143 0.63803 0.61179 0.0
C1172 C 0.58731 0.65994 0.61449 0.0
C1173 C 0.54256 0.72062 0.62108 0.0
C1174 C 0.55874 0.70026 0.61907 0.0
H1175 H 0.6479 0.6159 0.57877 0.0
H1176 H 0.62646 0.65184 0.58437 0.0
H1177 H 0.57827 0.65468 0.6552 0.0
H1178 H 0.48863 0.73408 0.64358 0.0
H1179 H 0.51606 0.70211 0.6424 0.0
C1180 C 0.91516 0.63227 0.62309 0.0
C1181 C 0.93143 0.62763 0.60325 0.0
C1182 C 0.89506 0.61878 0.62586 0.0
C1183 C 0.87075 0.561 0.60795 0.0
H1184 H 0.81229 0.58772 0.62935 0.0
C1185 C 0.79313 0.50246 0.63364 0.0
C1186 C 0.77089 0.50899 0.62519 0.0
C1187 C 0.81182 0.51782 0.63227 0.0
C1188 C 0.82842 0.57993 0.62321 0.0
H1189 H 0.9388 0.60464 0.57086 0.0
H1190 H 0.90388 0.58167 0.57532 0.0
H1191 H 0.84609 0.61256 0.62356 0.0
H1192 H 0.75101 0.53747 0.60939 0.0
H1193 H 0.78366 0.56434 0.60694 0.0
H1194 H 0.85317 0.52852 0.60707 0.0
C1195 C 0.90671 0.59563 0.589 0.0
C1196 C 0.84796 0.5942 0.62015 0.0
C1197 C 0.92673 0.60912 0.58619 0.0
C1198 C 0.76778 0.5318 0.61628 0.0
C1199 C 0.7866 0.54725 0.61485 0.0
C1200 C 0.8513 0.54678 0.61107 0.0
C1201 C 0.89056 0.60008 0.60899 0.0
C1202 C 0.86949 0.58498 0.61241 0.0
C1203 C 0.80908 0.54032 0.62227 0.0
C1204 C 0.82977 0.55592 0.61884 0.0
H1205 H 0.91789 0.64644 0.63651 0.0
H1206 H 0.88326 0.62276 0.64163 0.0
H1207 H 0.88693 0.55304 0.6023 0.0
H1208 H 0.79632 0.48515 0.64081 0.0
H1209 H 0.82858 0.51187 0.63886 0.0
C1210 C 0.92776 0.93416 0.6054 0.0
C1211 C 0.9035 0.93384 0.60302 0.0
C1212 C 0.9404 0.91369 0.60911 0.0
C1213 C 0.93864 0.85004 0.60002 0.0
H1214 H 0.98906 0.85051 0.64972 0.0
C1215 C 0.99564 0.76767 0.61967 0.0
C1216 C 0.01935 0.77131 0.62432 0.0
C1217 C 0.98001 0.78645 0.61872 0.0
C1218 C 0.9753 0.84999 0.63544 0.0
H1219 H 0.8737 0.91123 0.60252 0.0
H1220 H 0.89582 0.87543 0.60871 0.0
H1221 H 0.96531 0.88481 0.64421 0.0
H1222 H 0.04487 0.79794 0.63184 0.0
H1223 H 0.01827 0.83003 0.62967 0.0
H1224 H 0.94903 0.81538 0.59072 0.0
C1225 C 0.90504 0.89167 0.60774 0.0
C1226 C 0.96154 0.8698 0.63236 0.0
C1227 C 0.89231 0.91226 0.60438 0.0
C1228 C 0.02679 0.79419 0.6284 0.0
C1229 C 1.01133 0.81281 0.62732 0.0
C1230 C 0.95261 0.83022 0.6029 0.0
C1231 C 0.9293 0.89208 0.61032 0.0
C1232 C 0.94314 0.8703 0.6144 0.0
C1233 C 0.98763 0.80942 0.62234 0.0
C1234 C 0.97144 0.82992 0.62043 0.0
H1235 H 0.93706 0.95037 0.60476 0.0
H1236 H 0.95902 0.91481 0.61076 0.0
H1237 H 0.92473 0.84973 0.58589 0.0
H1238 H 0.98919 0.75039 0.6163 0.0
H1239 H 0.96193 0.78289 0.61512 0.0
C1240 C 0.11285 0.13246 0.88981 0.0
C1241 C 0.09574 0.12663 0.90829 0.0
C1242 C 0.13315 0.1192 0.88718 0.0
C1243 C 0.15706 0.06051 0.90225 0.0
H1244 H 0.21606 0.08836 0.88532 0.0
C1245 C 0.23569 1.0034 0.87614 0.0
C1246 C 0.25764 1.00946 0.88585 0.0
C1247 C 0.21693 0.01869 0.87772 0.0
C1248 C 0.19979 0.08025 0.89021 0.0
H1249 H 0.08713 0.10178 0.93846 0.0
H1250 H 0.12239 0.07922 0.93434 0.0
H1251 H 0.18196 0.11282 0.89129 0.0
H1252 H 0.27695 0.03707 0.90415 0.0
H1253 H 0.24414 0.06384 0.90701 0.0
H1254 H 0.17477 0.02805 0.90174 0.0
C1255 C 0.12007 0.09393 0.92156 0.0
C1256 C 0.18007 0.09432 0.89337 0.0
C1257 C 0.09983 0.10718 0.9242 0.0
C1258 C 0.26042 0.0318 0.89626 0.0
C1259 C 0.2415 0.04717 0.89793 0.0
C1260 C 0.17668 0.0465 0.89906 0.0
C1261 C 0.13705 0.09955 0.90287 0.0
C1262 C 0.15833 0.08469 0.89947 0.0
C1263 C 0.21928 0.04065 0.88923 0.0
C1264 C 0.19841 0.05604 0.89287 0.0
H1265 H 0.11063 0.14738 0.87732 0.0
H1266 H 0.14558 0.12411 0.87241 0.0
H1267 H 0.14074 0.05223 0.9066 0.0
H1268 H 0.23278 0.98647 0.8678 0.0
H1269 H 0.20041 1.0131 0.87011 0.0
C1270 C 0.39675 0.11183 0.88739 0.0
C1271 C 0.40179 0.09519 0.90668 0.0
C1272 C 0.41026 0.13193 0.88472 0.0
C1273 C 0.46848 0.15581 0.90176 0.0
H1274 H 0.44136 0.21452 0.88205 0.0
C1275 C 0.52651 0.23401 0.8765 0.0
C1276 C 0.5199 0.25611 0.88528 0.0
C1277 C 0.5113 0.2152 0.87791 0.0
C1278 C 0.44927 0.19833 0.88773 0.0
H1279 H 0.42547 0.08712 0.93823 0.0
H1280 H 0.44845 0.12205 0.93401 0.0
H1281 H 0.41663 0.18069 0.88777 0.0
H1282 H 0.49144 0.27559 0.90177 0.0
H1283 H 0.46488 0.24276 0.90434 0.0
H1284 H 0.501 0.17338 0.9023 0.0
C1285 C 0.43418 0.11952 0.92065 0.0
C1286 C 0.43505 0.17876 0.89074 0.0
C1287 C 0.4207 0.09949 0.92333 0.0
C1288 C 0.49718 0.25894 0.89464 0.0
C1289 C 0.48189 0.24001 0.89612 0.0
C1290 C 0.48266 0.1753 0.89872 0.0
C1291 C 0.42934 0.13605 0.90118 0.0
C1292 C 0.44441 0.15713 0.89785 0.0
C1293 C 0.48888 0.21769 0.88827 0.0
C1294 C 0.47337 0.19692 0.89157 0.0
H1295 H 0.38227 0.10942 0.8743 0.0
H1296 H 0.40596 0.14401 0.86934 0.0
H1297 H 0.47655 0.13956 0.90692 0.0
H1298 H 0.54376 0.23104 0.869 0.0
H1299 H 0.51728 0.19857 0.87101 0.0
C1300 C 0.41414 0.39436 0.88961 0.0
C1301 C 0.4304 0.39889 0.90948 0.0
C1302 C 0.39407 0.40797 0.88684 0.0
C1303 C 0.3699 0.46586 0.90483 0.0
H1304 H 0.31138 0.43949 0.88337 0.0
C1305 C 0.29243 0.52485 0.87918 0.0
C1306 C 0.27017 0.51845 0.88762 0.0
C1307 C 0.31109 0.50939 0.88055 0.0
C1308 C 0.32752 0.44718 0.88952 0.0
H1309 H 0.4378 0.42179 0.94191 0.0
H1310 H 0.40295 0.44496 0.93745 0.0
H1311 H 0.34511 0.41446 0.88911 0.0
H1312 H 0.25021 0.49006 0.90339 0.0
H1313 H 0.2828 0.46301 0.90583 0.0
H1314 H 0.3524 0.49844 0.90575 0.0
C1315 C 0.40575 0.431 0.92375 0.0
C1316 C 0.34703 0.4328 0.89256 0.0
C1317 C 0.42573 0.4174 0.92656 0.0
C1318 C 0.267 0.49564 0.89652 0.0
C1319 C 0.28578 0.48009 0.89794 0.0
C1320 C 0.35049 0.48019 0.90173 0.0
C1321 C 0.3896 0.42667 0.90374 0.0
C1322 C 0.36858 0.44189 0.90032 0.0
C1323 C 0.30828 0.4869 0.89053 0.0
C1324 C 0.32893 0.47118 0.89394 0.0
H1325 H 0.41685 0.3802 0.87616 0.0
H1326 H 0.38228 0.40407 0.87105 0.0
H1327 H 0.3861 0.47373 0.9105 0.0
H1328 H 0.29568 0.54215 0.87203 0.0
H1329 H 0.32786 0.51526 0.87398 0.0
C1330 C 0.1342 0.4113 0.92017 0.0
C1331 C 0.12732 0.43166 0.90717 0.0
C1332 C 0.12181 0.39052 0.91712 0.0
C1333 C 0.07664 0.3621 0.87461 0.0
H1334 H 0.0699 0.3205 0.93337 0.0
C1335 C 1.00538 0.29174 0.87911 0.0
C1336 C 1.0106 0.26996 0.88987 0.0
C1337 C 0.02147 0.30984 0.87969 0.0
C1338 C 0.07182 0.33175 0.91663 0.0
H1339 H 0.10207 0.4453 0.87987 0.0
H1340 H 0.08026 0.40986 0.87542 0.0
H1341 H 0.09396 0.35492 0.93759 0.0
H1342 H 0.03726 0.25029 0.90955 0.0
H1343 H 0.06541 0.28205 0.9108 0.0
H1344 H 0.05389 0.33926 0.85397 0.0
C1345 C 0.09543 0.40965 0.88776 0.0
C1346 C 0.08573 0.3516 0.91901 0.0
C1347 C 0.10786 0.43031 0.89068 0.0
C1348 C 0.03269 0.2667 0.90082 0.0
C1349 C 0.04875 0.28502 0.90178 0.0
C1350 C 0.06257 0.34243 0.87234 0.0
C1351 C 0.10207 0.38933 0.90097 0.0
C1352 C 0.0882 0.36732 0.89812 0.0
C1353 C 0.04329 0.30695 0.89141 0.0
C1354 C 0.05972 0.32704 0.89338 0.0
H1355 H 0.14891 0.41147 0.93321 0.0
H1356 H 0.12784 0.37535 0.92742 0.0
H1357 H 0.07841 0.37321 0.85774 0.0
H1358 H 0.98854 0.295 0.87063 0.0
H1359 H 0.01645 0.32642 0.87172 0.0
C1360 C 0.69526 0.16823 0.38439 0.0
C1361 C 0.69996 0.18794 0.36922 0.0
C1362 C 0.7133 0.15433 0.39356 0.0
C1363 C 0.77549 0.14205 0.38618 0.0
H1364 H 0.78021 0.15433 0.46034 0.0
C1365 C 0.83753 0.19742 0.44038 0.0
C1366 C 0.85763 0.19087 0.42689 0.0
C1367 C 0.81944 0.18182 0.44355 0.0
C1368 C 0.77911 0.15002 0.43981 0.0
H1369 H 0.72676 0.20727 0.34951 0.0
H1370 H 0.75821 0.18266 0.36468 0.0
H1371 H 0.7425 0.15529 0.43915 0.0
H1372 H 0.87641 0.16156 0.41115 0.0
H1373 H 0.84442 0.13447 0.41591 0.0
H1374 H 0.81214 0.13957 0.38591 0.0
C1375 C 0.74065 0.17809 0.36987 0.0
C1376 C 0.75746 0.15045 0.4277 0.0
C1377 C 0.72272 0.19231 0.36137 0.0
C1378 C 0.8607 0.16742 0.42055 0.0
C1379 C 0.84248 0.1518 0.42355 0.0
C1380 C 0.79707 0.14158 0.39824 0.0
C1381 C 0.7362 0.15948 0.38681 0.0
C1382 C 0.75586 0.14854 0.40044 0.0
C1383 C 0.82098 0.15944 0.433 0.0
C1384 C 0.79928 0.14789 0.42466 0.0
H1385 H 0.67779 0.1644 0.39056 0.0
H1386 H 0.70949 0.14022 0.40675 0.0
H1387 H 0.77456 0.14012 0.36517 0.0
H1388 H 0.83451 0.21522 0.44587 0.0
H1389 H 0.80325 0.18839 0.45114 0.0
C1390 C 0.32765 0.72607 0.36336 0.0
C1391 C 0.3338 0.70344 0.37016 0.0
C1392 C 0.34219 0.74444 0.36957 0.0
C1393 C 0.37961 0.76292 0.42011 0.0
H1394 H 0.38552 0.81568 0.37413 0.0
C1395 C 0.37226 0.86745 0.41224 0.0
C1396 C 0.35095 0.86744 0.42545 0.0
C1397 C 0.38604 0.84761 0.41207 0.0
C1398 C 0.38493 0.80111 0.38736 0.0
H1399 H 0.36042 0.68211 0.38784 0.0
H1400 H 0.3857 0.71453 0.39913 0.0
H1401 H 0.37813 0.7779 0.35582 0.0
H1402 H 0.32994 0.84847 0.45326 0.0
H1403 H 0.35353 0.81429 0.45281 0.0
H1404 H 0.38439 0.78651 0.45184 0.0
C1405 C 0.36966 0.71788 0.38893 0.0
C1406 C 0.38044 0.77943 0.37674 0.0
C1407 C 0.35524 0.69942 0.38235 0.0
C1408 C 0.346 0.84903 0.44244 0.0
C1409 C 0.35974 0.82923 0.44223 0.0
C1410 C 0.38405 0.7847 0.43081 0.0
C1411 C 0.36305 0.74056 0.38296 0.0
C1412 C 0.37605 0.76057 0.39312 0.0
C1413 C 0.37857 0.82751 0.42496 0.0
C1414 C 0.38483 0.80433 0.41461 0.0
H1415 H 0.31134 0.72963 0.35377 0.0
H1416 H 0.33655 0.76183 0.36503 0.0
H1417 H 0.37648 0.74853 0.43315 0.0
H1418 H 0.37701 0.88179 0.39977 0.0
H1419 H 0.40098 0.84711 0.39933 0.0
C1420 C 0.30107 0.70087 0.13788 0.0
C1421 C 0.32407 0.69482 0.13267 0.0
C1422 C 0.2831 0.68663 0.12964 0.0
C1423 C 0.26559 0.65315 0.07676 0.0
H1424 H 0.21368 0.6411 0.12243 0.0
C1425 C 0.16152 0.66005 0.08859 0.0
C1426 C 0.16154 0.68248 0.0781 0.0
C1427 C 0.18104 0.64597 0.08605 0.0
C1428 C 0.22799 0.64342 0.10909 0.0
H1429 H 0.34639 0.6686 0.11591 0.0
H1430 H 0.31466 0.64428 0.10008 0.0
H1431 H 0.2516 0.64697 0.14094 0.0
H1432 H 0.17998 0.70581 0.05231 0.0
H1433 H 0.21376 0.68187 0.04842 0.0
H1434 H 0.24156 0.65184 0.04502 0.0
C1435 C 0.31073 0.65982 0.11099 0.0
C1436 C 0.24978 0.64696 0.11989 0.0
C1437 C 0.32878 0.67376 0.11998 0.0
C1438 C 0.17951 0.68881 0.06111 0.0
C1439 C 0.19904 0.67485 0.05875 0.0
C1440 C 0.24369 0.64968 0.06588 0.0
C1441 C 0.28777 0.66629 0.11562 0.0
C1442 C 0.26828 0.65359 0.10398 0.0
C1443 C 0.20093 0.65437 0.07343 0.0
C1444 C 0.22429 0.64683 0.08218 0.0
H1445 H 0.29696 0.71685 0.14785 0.0
H1446 H 0.26545 0.69207 0.13318 0.0
H1447 H 0.27975 0.65809 0.06411 0.0
H1448 H 0.14747 0.65433 0.10096 0.0
H1449 H 0.18157 0.62981 0.09668 0.0
C1450 C 0.83547 0.30499 0.14688 0.0
C1451 C 0.83963 0.32773 0.1389 0.0
C1452 C 0.84972 0.28715 0.13824 0.0
C1453 C 0.87659 0.27015 0.0802 0.0
H1454 H 0.88819 0.21592 0.12245 0.0
C1455 C 0.85904 0.16718 0.08925 0.0
C1456 C 0.83549 0.17031 0.08332 0.0
C1457 C 0.87473 0.18526 0.08571 0.0
C1458 C 0.88597 0.23084 0.10996 0.0
H1459 H 0.86282 0.34999 0.1172 0.0
H1460 H 0.887 0.3184 0.10069 0.0
H1461 H 0.88818 0.25367 0.14266 0.0
H1462 H 0.81094 0.19343 0.06467 0.0
H1463 H 0.83788 0.22446 0.0585 0.0
H1464 H 0.8719 0.24708 0.04801 0.0
C1465 C 0.87305 0.31455 0.1141 0.0
C1466 C 0.88583 0.25254 0.12172 0.0
C1467 C 0.85915 0.33252 0.12343 0.0
C1468 C 0.82882 0.19036 0.06982 0.0
C1469 C 0.84449 0.20831 0.06612 0.0
C1470 C 0.87668 0.24839 0.0684 0.0
C1471 C 0.86812 0.29166 0.12104 0.0
C1472 C 0.87904 0.27201 0.10739 0.0
C1473 C 0.86708 0.2067 0.07614 0.0
C1474 C 0.87902 0.22838 0.08378 0.0
H1475 H 0.82066 0.3009 0.15896 0.0
H1476 H 0.84531 0.26959 0.14358 0.0
H1477 H 0.87155 0.285 0.06866 0.0
H1478 H 0.86498 0.15151 0.09866 0.0
H1479 H 0.8922 0.18327 0.09295 0.0
C1480 C 0.19133 0.82872 0.56819 0.0
C1481 C 0.17131 0.8353 0.5818 0.0
C1482 C 0.20927 0.84441 0.56452 0.0
C1483 C 0.24946 0.87637 0.56725 0.0
H1484 H 0.25444 0.88757 0.6416 0.0
C1485 C 0.33324 0.85817 0.62291 0.0
C1486 C 0.32824 0.8386 0.63819 0.0
C1487 C 0.31539 0.8722 0.61351 0.0
C1488 C 0.2534 0.88531 0.62064 0.0
H1489 H 0.15248 0.86468 0.59731 0.0
H1490 H 0.18421 0.89195 0.59163 0.0
H1491 H 0.21677 0.88789 0.62114 0.0
H1492 H 0.30114 0.81962 0.6578 0.0
H1493 H 0.27004 0.8445 0.64228 0.0
H1494 H 0.28606 0.871 0.56777 0.0
C1495 C 0.18621 0.87452 0.58429 0.0
C1496 C 0.23175 0.88563 0.60873 0.0
C1497 C 0.16814 0.85881 0.58782 0.0
C1498 C 0.30539 0.83448 0.64589 0.0
C1499 C 0.28767 0.84885 0.63717 0.0
C1500 C 0.27118 0.8761 0.57921 0.0
C1501 C 0.20767 0.86692 0.57469 0.0
C1502 C 0.22937 0.87876 0.58251 0.0
C1503 C 0.29241 0.86734 0.62017 0.0
C1504 C 0.27291 0.87844 0.60642 0.0
H1505 H 0.1944 0.81087 0.56295 0.0
H1506 H 0.22542 0.83783 0.55684 0.0
H1507 H 0.24824 0.87165 0.54685 0.0
H1508 H 0.35079 0.8618 0.6169 0.0
H1509 H 0.31941 0.8862 0.60025 0.0
C1510 C 0.69673 0.18454 0.55039 0.0
C1511 C 0.68867 0.16523 0.56429 0.0
C1512 C 0.68276 0.20401 0.54761 0.0
C1513 C 0.65567 0.2475 0.55479 0.0
H1514 H 0.64661 0.24988 0.62972 0.0
C1515 C 0.67392 0.32895 0.61677 0.0
C1516 C 0.69433 0.32383 0.6306 0.0
C1517 C 0.66062 0.31123 0.60593 0.0
C1518 C 0.64834 0.2496 0.60867 0.0
H1519 H 0.65799 0.14906 0.58028 0.0
H1520 H 0.63372 0.18331 0.57588 0.0
H1521 H 0.643 0.21334 0.60717 0.0
H1522 H 0.71557 0.29626 0.64615 0.0
H1523 H 0.69182 0.26528 0.62821 0.0
H1524 H 0.66356 0.28358 0.55727 0.0
C1525 C 0.65105 0.18369 0.5679 0.0
C1526 C 0.64611 0.22864 0.59555 0.0
C1527 C 0.66503 0.16413 0.57062 0.0
C1528 C 0.70009 0.30069 0.63534 0.0
C1529 C 0.68643 0.28301 0.62524 0.0
C1530 C 0.65775 0.26854 0.56796 0.0
C1531 C 0.6606 0.20454 0.55891 0.0
C1532 C 0.65178 0.227 0.56887 0.0
C1533 C 0.66702 0.28815 0.60978 0.0
C1534 C 0.65581 0.26928 0.59525 0.0
H1535 H 0.71469 0.18598 0.5447 0.0
H1536 H 0.6907 0.21958 0.54009 0.0
H1537 H 0.65972 0.24689 0.53416 0.0
H1538 H 0.66897 0.34666 0.61303 0.0
H1539 H 0.64582 0.31554 0.59392 0.0
C1540 C 0.84985 0.34704 0.94481 0.0
C1541 C 0.86846 0.35197 0.92809 0.0
C1542 C 0.83002 0.36073 0.94428 0.0
C1543 C 0.78555 0.38488 0.93202 0.0
H1544 H 0.7797 0.37855 0.85697 0.0
C1545 C 0.70086 0.35575 0.88239 0.0
C1546 C 0.70504 0.3342 0.87055 0.0
C1547 C 0.71924 0.37023 0.88909 0.0
C1548 C 0.78097 0.38097 0.87789 0.0
H1549 H 0.88309 0.37802 0.90261 0.0
H1550 H 0.84834 0.40189 0.90153 0.0
H1551 H 0.81725 0.38614 0.87584 0.0
H1552 H 0.73147 0.31164 0.85485 0.0
H1553 H 0.76354 0.33695 0.86635 0.0
H1554 H 0.74935 0.37722 0.93382 0.0
C1555 C 0.84872 0.387 0.91433 0.0
C1556 C 0.80251 0.38558 0.88883 0.0
C1557 C 0.86861 0.37326 0.91486 0.0
C1558 C 0.72778 0.32802 0.86418 0.0
C1559 C 0.74608 0.34261 0.87053 0.0
C1560 C 0.76391 0.38033 0.92099 0.0
C1561 C 0.82847 0.37951 0.92692 0.0
C1562 C 0.80539 0.38564 0.91614 0.0
C1563 C 0.74202 0.36357 0.88361 0.0
C1564 C 0.7619 0.37664 0.894 0.0
H1565 H 0.84918 0.331 0.95566 0.0
H1566 H 0.81495 0.35453 0.95464 0.0
H1567 H 0.7871 0.38532 0.95308 0.0
H1568 H 0.68347 0.36096 0.88755 0.0
H1569 H 0.71575 0.38635 0.89903 0.0
C1570 C 0.20324 0.8414 0.96213 0.0
C1571 C 0.19499 0.86104 0.94894 0.0
C1572 C 0.18872 0.82258 0.96632 0.0
C1573 C 0.1599 0.78022 0.96087 0.0
H1574 H 0.1473 0.77914 0.88655 0.0
C1575 C 0.17428 0.69947 0.89667 0.0
C1576 C 0.19459 0.7044 0.8826 0.0
C1577 C 0.16144 0.71727 0.9081 0.0
C1578 C 0.15 0.77907 0.90748 0.0
H1579 H 0.16384 0.87868 0.93628 0.0
H1580 H 0.13867 0.84542 0.94272 0.0
H1581 H 0.14535 0.81541 0.91 0.0
H1582 H 0.21598 0.7318 0.86705 0.0
H1583 H 0.193 0.76297 0.88601 0.0
H1584 H 0.16731 0.74412 0.95719 0.0
C1585 C 0.15649 0.84429 0.94908 0.0
C1586 C 0.14873 0.79987 0.92111 0.0
C1587 C 0.171 0.86325 0.9451 0.0
C1588 C 0.20059 0.72751 0.87806 0.0
C1589 C 0.18736 0.74529 0.88875 0.0
C1590 C 0.16108 0.75937 0.94718 0.0
C1591 C 0.16585 0.823 0.95703 0.0
C1592 C 0.15573 0.801 0.94743 0.0
C1593 C 0.16818 0.74028 0.90458 0.0
C1594 C 0.1578 0.75907 0.92006 0.0
H1595 H 0.22147 0.8391 0.96606 0.0
H1596 H 0.19655 0.80668 0.97309 0.0
H1597 H 0.16498 0.78044 0.98122 0.0
H1598 H 0.16912 0.6818 0.90022 0.0
H1599 H 0.1468 0.71306 0.92039 0.0
C1600 C 0.64953 0.18298 0.43425 0.0
C1601 C 0.62651 0.17657 0.43951 0.0
C1602 C 0.66819 0.17139 0.44602 0.0
C1603 C 0.68271 0.11675 0.48306 0.0
H1604 H 0.74051 0.14844 0.49606 0.0
C1605 C 0.75315 0.0789 0.55107 0.0
C1606 C 0.7766 0.08117 0.54425 0.0
C1607 C 0.73576 0.08981 0.53653 0.0
C1608 C 0.72459 0.13921 0.49233 0.0
H1609 H 0.60535 0.15305 0.46204 0.0
H1610 H 0.63756 0.13331 0.48297 0.0
H1611 H 0.70847 0.16923 0.47606 0.0
H1612 H 0.80009 0.09709 0.51679 0.0
H1613 H 0.76961 0.11659 0.49141 0.0
H1614 H 0.69864 0.08703 0.50044 0.0
C1615 C 0.64143 0.14685 0.4691 0.0
C1616 C 0.70605 0.15117 0.48072 0.0
C1617 C 0.62277 0.15835 0.45718 0.0
C1618 C 0.7822 0.09476 0.52238 0.0
C1619 C 0.76472 0.10608 0.50799 0.0
C1620 C 0.70105 0.10498 0.49515 0.0
C1621 C 0.66456 0.15298 0.46359 0.0
C1622 C 0.68466 0.1402 0.47592 0.0
C1623 C 0.74119 0.10373 0.51486 0.0
C1624 C 0.72224 0.11603 0.50021 0.0
H1625 H 0.65324 0.1969 0.42076 0.0
H1626 H 0.6855 0.17671 0.44084 0.0
H1627 H 0.66701 0.10722 0.47917 0.0
H1628 H 0.74818 0.06877 0.56793 0.0
H1629 H 0.718 0.08788 0.54283 0.0
C1630 C 0.44374 0.75078 0.55619 0.0
C1631 C 0.44307 0.77375 0.54734 0.0
C1632 C 0.4326 0.7331 0.54237 0.0
C1633 C 0.40446 0.71927 0.47776 0.0
H1634 H 0.38117 0.66672 0.51655 0.0
C1635 C 0.34495 0.64842 0.43201 0.0
C1636 C 0.35008 0.62522 0.43807 0.0
C1637 C 0.35637 0.66666 0.44467 0.0
C1638 C 0.38773 0.68116 0.50535 0.0
H1639 H 0.42983 0.79615 0.51703 0.0
H1640 H 0.40961 0.76556 0.49332 0.0
H1641 H 0.39992 0.69823 0.53965 0.0
H1642 H 0.37143 0.60328 0.46246 0.0
H1643 H 0.39111 0.63506 0.48472 0.0
H1644 H 0.39145 0.7022 0.44357 0.0
C1645 C 0.41935 0.76092 0.51057 0.0
C1646 C 0.39867 0.69933 0.51862 0.0
C1647 C 0.43087 0.7786 0.52425 0.0
C1648 C 0.36702 0.62085 0.45717 0.0
C1649 C 0.37823 0.63911 0.47008 0.0
C1650 C 0.39318 0.70121 0.46455 0.0
C1651 C 0.41994 0.73779 0.51943 0.0
C1652 C 0.4075 0.71866 0.50509 0.0
C1653 C 0.37307 0.6623 0.46404 0.0
C1654 C 0.38482 0.68179 0.47812 0.0
H1655 H 0.45309 0.74637 0.57382 0.0
H1656 H 0.43417 0.71565 0.54971 0.0
H1657 H 0.41118 0.73348 0.46634 0.0
H1658 H 0.33201 0.65256 0.41746 0.0
H1659 H 0.35175 0.68425 0.43968 0.0
C1660 C 0.87805 0.34107 0.43458 0.0
C1661 C 0.90129 0.34706 0.43915 0.0
C1662 C 0.85996 0.35276 0.44732 0.0
C1663 C 0.84651 0.38637 0.50656 0.0
H1664 H 0.79352 0.40894 0.46794 0.0
C1665 C 0.77763 0.44371 0.55718 0.0
C1666 C 0.75454 0.44304 0.54869 0.0
C1667 C 0.79512 0.43222 0.54335 0.0
C1668 C 0.80792 0.40246 0.47927 0.0
H1669 H 0.92353 0.37004 0.4611 0.0
H1670 H 0.89206 0.38996 0.48375 0.0
H1671 H 0.82427 0.38826 0.44517 0.0
H1672 H 0.73172 0.42943 0.51906 0.0
H1673 H 0.76195 0.40857 0.4954 0.0
H1674 H 0.83011 0.39962 0.54078 0.0
C1675 C 0.88783 0.37633 0.4701 0.0
C1676 C 0.82569 0.39066 0.46606 0.0
C1677 C 0.9059 0.36496 0.45699 0.0
C1678 C 0.74937 0.4305 0.52596 0.0
C1679 C 0.76686 0.4186 0.51232 0.0
C1680 C 0.8286 0.39778 0.51985 0.0
C1681 C 0.86459 0.37046 0.4654 0.0
C1682 C 0.84534 0.38262 0.47949 0.0
C1683 C 0.79011 0.41918 0.52079 0.0
C1684 C 0.80902 0.4063 0.50646 0.0
H1685 H 0.87378 0.32742 0.42097 0.0
H1686 H 0.84231 0.34766 0.44334 0.0
H1687 H 0.86119 0.38012 0.51763 0.0
H1688 H 0.78226 0.45332 0.57454 0.0
H1689 H 0.81267 0.43383 0.55038 0.0
C1690 C 0.09167 0.75002 0.52442 0.0
C1691 C 0.08411 0.75369 0.55017 0.0
C1692 C 0.10252 0.76788 0.51024 0.0
C1693 C 0.13316 0.82435 0.52 0.0
H1694 H 0.12397 0.83207 0.44564 0.0
C1695 C 0.19079 0.88356 0.45517 0.0
C1696 C 0.17892 0.90017 0.44022 0.0
C1697 C 0.17879 0.8658 0.46798 0.0
C1698 C 0.12675 0.83006 0.46642 0.0
H1699 H 0.08193 0.77921 0.58101 0.0
H1700 H 0.1002 0.81007 0.55651 0.0
H1701 H 0.10379 0.801 0.46888 0.0
H1702 H 0.14507 0.91074 0.42664 0.0
H1703 H 0.12419 0.87912 0.44826 0.0
H1704 H 0.15644 0.8531 0.51747 0.0
C1705 C 0.09823 0.79343 0.54715 0.0
C1706 C 0.11531 0.81212 0.47976 0.0
C1707 C 0.08751 0.77566 0.56124 0.0
C1708 C 0.15474 0.8983 0.43807 0.0
C1709 C 0.14279 0.88012 0.45032 0.0
C1710 C 0.14504 0.8418 0.50661 0.0
C1711 C 0.10611 0.78988 0.52146 0.0
C1712 C 0.11834 0.80894 0.50684 0.0
C1713 C 0.15465 0.86376 0.46562 0.0
C1714 C 0.14195 0.84497 0.47966 0.0
H1715 H 0.08944 0.73329 0.51533 0.0
H1716 H 0.10851 0.76426 0.49066 0.0
H1717 H 0.1358 0.82295 0.54075 0.0
H1718 H 0.20939 0.88455 0.45738 0.0
H1719 H 0.18844 0.85348 0.47961 0.0
C1720 C 0.25188 0.94438 0.95145 0.0
C1721 C 0.27447 0.94535 0.96153 0.0
C1722 C 0.23411 0.93323 0.96507 0.0
C1723 C 0.22362 0.88945 0.01775 0.0
H1724 H 0.16051 0.91106 0.01094 0.0
C1725 C 0.14589 0.83608 0.05802 0.0
C1726 C 0.12664 0.84807 0.06803 0.0
C1727 C 0.16377 0.84784 0.04501 0.0
C1728 C 0.17801 0.9048 0.01341 0.0
H1729 H 0.29598 0.93538 0.99415 0.0
H1730 H 0.26492 0.91586 0.0182 0.0
H1731 H 0.19158 0.93248 0.99045 0.0
H1732 H 0.11137 0.88204 0.07218 0.0
H1733 H 0.14266 0.90257 0.05045 0.0
H1734 H 0.21004 0.86216 0.04147 0.0
C1735 C 0.26093 0.92362 0.99952 0.0
C1736 C 0.19597 0.91701 1.00121 0.0
C1737 C 0.27877 0.935 0.98586 0.0
C1738 C 0.12582 0.87216 0.06465 0.0
C1739 C 0.14381 0.88396 0.05194 0.0
C1740 C 0.20564 0.8773 0.03012 0.0
C1741 C 0.23827 0.92241 0.98925 0.0
C1742 C 0.21914 0.90959 1.00311 0.0
C1743 C 0.16314 0.87203 0.04184 0.0
C1744 C 0.18247 0.88478 0.02824 0.0
H1745 H 0.24789 0.952 0.93268 0.0
H1746 H 0.21724 0.93238 0.95599 0.0
H1747 H 0.24104 0.88279 0.01941 0.0
H1748 H 0.14706 0.81749 0.05996 0.0
H1749 H 0.17796 0.83781 0.03716 0.0
C1750 C 0.68644 0.14989 0.07534 0.0
C1751 C 0.68058 0.1267 0.0705 0.0
C1752 C 0.67472 0.16805 0.06275 0.0
C1753 C 0.6212 0.18071 0.02271 0.0
H1754 H 0.65284 0.23834 0.00863 0.0
C1755 C 0.5848 0.25071 0.95226 0.0
C1756 C 0.58537 0.27384 0.96064 0.0
C1757 C 0.59598 0.23326 0.96652 0.0
C1758 C 0.64367 0.22242 0.01261 0.0
H1759 H 0.65795 0.10461 0.04797 0.0
H1760 H 0.63831 0.13589 0.02529 0.0
H1761 H 0.67327 0.20713 0.03081 0.0
H1762 H 0.59852 0.29677 0.99047 0.0
H1763 H 0.61857 0.2663 0.01515 0.0
H1764 H 0.59189 0.1959 1.00352 0.0
C1765 C 0.65138 0.14033 0.03952 0.0
C1766 C 0.65538 0.20442 0.02551 0.0
C1767 C 0.66284 0.12221 0.05244 0.0
C1768 C 0.59761 0.27911 0.98359 0.0
C1769 C 0.60921 0.26167 0.99762 0.0
C1770 C 0.60966 0.19856 0.00943 0.0
C1771 C 0.65697 0.16366 0.04451 0.0
C1772 C 0.64439 0.18315 0.03081 0.0
C1773 C 0.60847 0.23846 0.98933 0.0
C1774 C 0.62071 0.21968 1.00415 0.0
H1775 H 0.69991 0.15408 0.08922 0.0
H1776 H 0.67945 0.18557 0.06773 0.0
H1777 H 0.61169 0.16505 0.02682 0.0
H1778 H 0.57562 0.24603 0.93462 0.0
H1779 H 0.59519 0.21568 0.95937 0.0
C1780 C 0.24843 0.59713 0.98688 0.0
C1781 C 0.25372 0.5843 0.96434 0.0
C1782 C 0.26596 0.60856 1.00089 0.0
C1783 C 0.32862 0.60745 0.01432 0.0
H1784 H 0.32227 0.67239 0.03083 0.0
C1785 C 0.40639 0.6591 0.05626 0.0
C1786 C 0.40229 0.67836 0.07233 0.0
C1787 C 0.38806 0.64771 0.04363 0.0
C1788 C 0.32439 0.65415 0.02696 0.0
H1789 H 0.28163 0.57328 0.93905 0.0
H1790 H 0.31215 0.59252 0.96384 0.0
H1791 H 0.29066 0.65213 0.00948 0.0
H1792 H 0.37532 0.70067 0.08749 0.0
H1793 H 0.34366 0.6808 0.06623 0.0
H1794 H 0.3618 0.60891 0.03251 0.0
C1795 C 0.29447 0.59392 0.97063 0.0
C1796 C 0.30613 0.64255 0.01448 0.0
C1797 C 0.27695 0.58295 0.95636 0.0
C1798 C 0.3793 0.6859 0.07532 0.0
C1799 C 0.36098 0.67447 0.06283 0.0
C1800 C 0.34668 0.61889 0.02728 0.0
C1801 C 0.28925 0.60702 0.99299 0.0
C1802 C 0.30811 0.61911 0.00769 0.0
C1803 C 0.36491 0.65504 0.04682 0.0
C1804 C 0.34511 0.64258 0.03357 0.0
H1805 H 0.23069 0.59865 0.99343 0.0
H1806 H 0.26134 0.61843 0.01806 0.0
H1807 H 0.33063 0.58931 0.00968 0.0
H1808 H 0.42383 0.65289 0.05317 0.0
H1809 H 0.39227 0.63335 0.03101 0.0
C1810 C 0.84328 0.37815 0.07438 0.0
C1811 C 0.85126 0.40098 0.07137 0.0
C1812 C 0.85485 0.35949 0.06264 0.0
C1813 C 0.91168 0.3435 0.03136 0.0
H1814 H 0.87779 0.2895 0.00841 0.0
C1815 C 0.95131 0.27468 0.96234 0.0
C1816 C 0.947 0.25118 0.96729 0.0
C1817 C 0.94028 0.29202 0.97683 0.0
C1818 C 0.88758 0.30433 0.01497 0.0
H1819 H 0.87775 0.42182 0.05305 0.0
H1820 H 0.89765 0.38959 0.0323 0.0
H1821 H 0.85716 0.32153 0.0288 0.0
H1822 H 0.92741 0.22751 0.99131 0.0
H1823 H 0.90758 0.25793 0.01639 0.0
H1824 H 0.94197 0.3265 0.01666 0.0
C1825 C 0.8827 0.38588 0.04427 0.0
C1826 C 0.87573 0.32282 0.02677 0.0
C1827 C 0.87114 0.40454 0.05609 0.0
C1828 C 0.93132 0.24543 0.98723 0.0
C1829 C 0.91981 0.26289 1.00142 0.0
C1830 C 0.92344 0.32517 0.01924 0.0
C1831 C 0.87488 0.36294 0.04745 0.0
C1832 C 0.88754 0.34285 0.03509 0.0
C1833 C 0.92412 0.28646 0.99637 0.0
C1834 C 0.91159 0.30535 0.01072 0.0
H1835 H 0.82809 0.37457 0.08605 0.0
H1836 H 0.84826 0.34227 0.06602 0.0
H1837 H 0.9217 0.35813 0.03797 0.0
H1838 H 0.96314 0.27972 0.94698 0.0
H1839 H 0.94383 0.30988 0.97205 0.0
C1840 C 0.37841 0.84224 0.57382 0.0
C1841 C 0.40129 0.85007 0.57058 0.0
C1842 C 0.35976 0.85375 0.56195 0.0
C1843 C 0.34392 0.91026 0.53002 0.0
H1844 H 0.28978 0.87641 0.50736 0.0
C1845 C 0.27489 0.94978 0.46109 0.0
C1846 C 0.25139 0.94565 0.46633 0.0
C1847 C 0.2923 0.93869 0.47544 0.0
C1848 C 0.30465 0.88618 0.51383 0.0
H1849 H 0.42222 0.87618 0.55172 0.0
H1850 H 0.38999 0.89597 0.53079 0.0
H1851 H 0.32181 0.85582 0.52791 0.0
H1852 H 0.22778 0.92632 0.4907 0.0
H1853 H 0.25832 0.9064 0.51554 0.0
H1854 H 0.32697 0.94049 0.51513 0.0
C1855 C 0.38625 0.8812 0.54301 0.0
C1856 C 0.32314 0.87436 0.52572 0.0
C1857 C 0.4049 0.86971 0.55494 0.0
C1858 C 0.24571 0.93008 0.4864 0.0
C1859 C 0.26322 0.91853 0.50045 0.0
C1860 C 0.32561 0.92199 0.51783 0.0
C1861 C 0.36327 0.87355 0.54642 0.0
C1862 C 0.34321 0.88616 0.53395 0.0
C1863 C 0.28679 0.92266 0.49512 0.0
C1864 C 0.30573 0.91015 0.50943 0.0
H1865 H 0.37479 0.82723 0.58575 0.0
H1866 H 0.3425 0.8473 0.56548 0.0
H1867 H 0.35861 0.92027 0.53654 0.0
H1868 H 0.27988 0.96153 0.44563 0.0
H1869 H 0.31016 0.94212 0.47047 0.0
C1870 C 0.65917 0.40635 0.55402 0.0
C1871 C 0.67851 0.40219 0.57 0.0
C1872 C 0.64784 0.38811 0.54119 0.0
C1873 C 0.65479 0.32494 0.52318 0.0
H1874 H 0.58937 0.33009 0.5081 0.0
C1875 C 0.59801 0.24819 0.48489 0.0
C1876 C 0.58478 0.25319 0.46255 0.0
C1877 C 0.60939 0.26593 0.49857 0.0
C1878 C 0.60767 0.32839 0.51212 0.0
H1879 H 0.70104 0.37519 0.58471 0.0
H1880 H 0.68135 0.34369 0.56291 0.0
H1881 H 0.60901 0.3614 0.53074 0.0
H1882 H 0.57296 0.28083 0.43733 0.0
H1883 H 0.59212 0.31171 0.46162 0.0
H1884 H 0.65296 0.29141 0.50525 0.0
C1885 C 0.67489 0.36101 0.55984 0.0
C1886 C 0.6191 0.34652 0.52497 0.0
C1887 C 0.68621 0.37922 0.57263 0.0
C1888 C 0.58295 0.27636 0.45448 0.0
C1889 C 0.59388 0.29409 0.46845 0.0
C1890 C 0.64321 0.30663 0.5108 0.0
C1891 C 0.65536 0.36501 0.54399 0.0
C1892 C 0.64297 0.34529 0.53056 0.0
C1893 C 0.60741 0.28914 0.49057 0.0
C1894 C 0.61954 0.30818 0.50489 0.0
H1895 H 0.65282 0.42378 0.55123 0.0
H1896 H 0.63335 0.39232 0.52872 0.0
H1897 H 0.67317 0.32315 0.52648 0.0
H1898 H 0.59989 0.23052 0.49151 0.0
H1899 H 0.61957 0.26154 0.51559 0.0
C1900 C 0.27834 0.59656 0.4836 0.0
C1901 C 0.27322 0.58393 0.46092 0.0
C1902 C 0.26076 0.60816 0.49743 0.0
C1903 C 0.19847 0.62776 0.49064 0.0
H1904 H 0.2037 0.63814 0.5651 0.0
C1905 C 0.12166 0.66063 0.55457 0.0
C1906 C 0.12644 0.6789 0.57186 0.0
C1907 C 0.13961 0.64914 0.54132 0.0
C1908 C 0.20201 0.63548 0.54426 0.0
H1909 H 0.24547 0.57316 0.43538 0.0
H1910 H 0.21491 0.5921 0.45986 0.0
H1911 H 0.23446 0.61775 0.54204 0.0
H1912 H 0.15413 0.69904 0.58897 0.0
H1913 H 0.18535 0.67862 0.56642 0.0
H1914 H 0.1656 0.64489 0.49325 0.0
C1915 C 0.23248 0.59403 0.46671 0.0
C1916 C 0.2198 0.62385 0.53088 0.0
C1917 C 0.25007 0.58285 0.45269 0.0
C1918 C 0.14972 0.6851 0.57579 0.0
C1919 C 0.16768 0.67331 0.56295 0.0
C1920 C 0.18054 0.63899 0.50412 0.0
C1921 C 0.23744 0.60717 0.48922 0.0
C1922 C 0.21842 0.61975 0.50376 0.0
C1923 C 0.16289 0.65526 0.54537 0.0
C1924 C 0.18204 0.64307 0.53111 0.0
H1925 H 0.29603 0.59793 0.49033 0.0
H1926 H 0.26565 0.61829 0.51428 0.0
H1927 H 0.19669 0.62571 0.46976 0.0
H1928 H 0.104 0.65539 0.55095 0.0
H1929 H 0.13525 0.63525 0.52807 0.0
C1930 C 0.87218 0.12987 0.57418 0.0
C1931 C 0.8482 0.12708 0.57077 0.0
C1932 C 0.88408 0.14799 0.56175 0.0
C1933 C 0.8826 0.18496 0.50389 0.0
H1934 H 0.92261 0.22672 0.54197 0.0
C1935 C 0.94063 0.25112 0.44971 0.0
C1936 C 0.94369 0.27321 0.46063 0.0
C1937 C 0.92972 0.23341 0.46372 0.0
C1938 C 0.91144 0.21534 0.53098 0.0
H1939 H 0.81806 0.14105 0.5512 0.0
H1940 H 0.83896 0.17204 0.52879 0.0
H1941 H 0.90227 0.19581 0.56521 0.0
H1942 H 0.93752 0.29387 0.49509 0.0
H1943 H 0.91812 0.26304 0.5196 0.0
H1944 H 0.89232 0.20348 0.46965 0.0
C1945 C 0.84848 0.16046 0.54146 0.0
C1946 C 0.8999 0.19747 0.54433 0.0
C1947 C 0.83649 0.14274 0.55439 0.0
C1948 C 0.93558 0.27705 0.48613 0.0
C1949 C 0.92454 0.25927 0.50022 0.0
C1950 C 0.89456 0.20238 0.49049 0.0
C1951 C 0.87241 0.16341 0.54506 0.0
C1952 C 0.88514 0.1822 0.53098 0.0
C1953 C 0.9213 0.23714 0.48918 0.0
C1954 C 0.90895 0.21813 0.50376 0.0
H1955 H 0.88172 0.11819 0.5867 0.0
H1956 H 0.90252 0.14968 0.56481 0.0
H1957 H 0.87158 0.17338 0.49292 0.0
H1958 H 0.94663 0.24745 0.43012 0.0
H1959 H 0.92802 0.21668 0.45451 0.0
C1960 C 0.89896 0.15456 0.93783 0.0
C1961 C 0.90082 0.17872 0.94009 0.0
C1962 C 0.88085 0.14255 0.95017 0.0
C1963 C 0.84216 0.14516 0.00652 0.0
H1964 H 0.80237 0.10273 0.9691 0.0
C1965 C 0.77597 0.08761 0.06119 0.0
C1966 C 0.75412 0.08396 0.04985 0.0
C1967 C 0.79382 0.09834 0.04721 0.0
C1968 C 0.81321 0.11458 0.97989 0.0
H1969 H 0.88525 0.20906 0.95755 0.0
H1970 H 0.85431 0.18805 0.97981 0.0
H1971 H 0.83351 0.12284 0.94592 0.0
H1972 H 0.73404 0.08883 0.01466 0.0
H1973 H 0.76516 0.10785 0.99018 0.0
H1974 H 0.82283 0.13643 0.04053 0.0
C1975 C 0.86658 0.17845 0.96809 0.0
C1976 C 0.8312 0.12597 0.96659 0.0
C1977 C 0.88429 0.1905 0.95524 0.0
C1978 C 0.75067 0.09126 0.02396 0.0
C1979 C 0.76861 0.10208 0.0099 0.0
C1980 C 0.82463 0.13336 0.01989 0.0
C1981 C 0.86455 0.15433 0.96565 0.0
C1982 C 0.84576 0.1416 0.97971 0.0
C1983 C 0.79047 0.10592 0.02136 0.0
C1984 C 0.8096 0.11809 0.00682 0.0
H1985 H 0.91135 0.14496 0.92627 0.0
H1986 H 0.87986 0.12398 0.94803 0.0
H1987 H 0.85317 0.15689 0.01731 0.0
H1988 H 0.77933 0.08224 0.08108 0.0
H1989 H 0.81035 0.10056 0.05676 0.0
C1990 C 0.341 0.87784 0.93695 0.0
C1991 C 0.34814 0.90093 0.93974 0.0
C1992 C 0.35289 0.85979 0.9495 0.0
C1993 C 0.40846 0.84659 0.98575 0.0
H1994 H 0.3756 0.79086 0.00509 0.0
C1995 C 0.44559 0.77757 0.0572 0.0
C1996 C 0.44412 0.75429 0.04951 0.0
C1997 C 0.4344 0.795 0.04294 0.0
C1998 C 0.38508 0.80624 0.99964 0.0
H1999 H 0.37328 0.92302 0.95853 0.0
H2000 H 0.39327 0.89198 0.98131 0.0
H2001 H 0.35504 0.82203 0.98306 0.0
H2002 H 0.42935 0.73108 0.02096 0.0
H2003 H 0.40918 0.76154 0.99636 0.0
H2004 H 0.43826 0.83094 1.0035 0.0
C2005 C 0.37902 0.88746 0.96865 0.0
C2006 C 0.3733 0.82422 0.98679 0.0
C2007 C 0.36739 0.90545 0.95568 0.0
C2008 C 0.43098 0.74885 0.02727 0.0
C2009 C 0.41931 0.76629 0.01329 0.0
C2010 C 0.42009 0.8288 0.99905 0.0
C2011 C 0.3721 0.8642 0.96574 0.0
C2012 C 0.38475 0.84479 0.97953 0.0
C2013 C 0.42095 0.78963 0.02089 0.0
C2014 C 0.40859 0.80836 0.00616 0.0
H2015 H 0.32635 0.87361 0.9247 0.0
H2016 H 0.34708 0.84231 0.94605 0.0
H2017 H 0.4183 0.86166 0.98012 0.0
H2018 H 0.4555 0.78236 0.0743 0.0
H2019 H 0.43589 0.81271 0.0495 0.0
C2020 C 0.75164 0.44402 0.05625 0.0
C2021 C 0.77465 0.44325 0.0475 0.0
C2022 C 0.73392 0.43305 0.0423 0.0
C2023 C 0.72017 0.40523 0.97748 0.0
H2024 H 0.66727 0.38215 0.01586 0.0
C2025 C 0.64952 0.34565 0.93148 0.0
C2026 C 0.62626 0.35094 0.93716 0.0
C2027 C 0.66768 0.35712 0.94424 0.0
C2028 C 0.68182 0.38865 1.00478 0.0
H2029 H 0.79708 0.43005 0.0172 0.0
H2030 H 0.76643 0.41014 0.99325 0.0
H2031 H 0.69877 0.40071 0.03921 0.0
H2032 H 0.60413 0.37261 0.96094 0.0
H2033 H 0.63579 0.39236 0.9834 0.0
H2034 H 0.70323 0.39233 0.94316 0.0
C2035 C 0.76178 0.41981 0.01054 0.0
C2036 C 0.69998 0.39949 0.01819 0.0
C2037 C 0.7795 0.43116 0.02435 0.0
C2038 C 0.62175 0.3681 0.95594 0.0
C2039 C 0.63994 0.37934 0.96897 0.0
C2040 C 0.70213 0.39405 0.96413 0.0
C2041 C 0.73862 0.4205 0.0193 0.0
C2042 C 0.71945 0.40822 1.00481 0.0
C2043 C 0.66318 0.37401 0.96332 0.0
C2044 C 0.6826 0.38575 0.97755 0.0
H2045 H 0.74723 0.45329 0.07393 0.0
H2046 H 0.71645 0.4347 0.04958 0.0
H2047 H 0.73448 0.4119 0.96616 0.0
H2048 H 0.65376 0.33254 0.91718 0.0
H2049 H 0.68532 0.35239 0.93956 0.0
C2050 C 0.09694 0.78152 0.02429 0.0
C2051 C 0.08136 0.77607 0.04443 0.0
C2052 C 0.10841 0.76386 0.01043 0.0
C2053 C 0.10502 0.70163 0.99326 0.0
H2054 H 0.17162 0.70451 0.98673 0.0
C2055 C 0.15736 0.62222 0.95632 0.0
C2056 C 0.17778 0.62593 0.94201 0.0
C2057 C 0.14573 0.6407 0.96842 0.0
C2058 C 0.15298 0.70343 0.98781 0.0
H2059 H 0.06529 0.74784 0.06539 0.0
H2060 H 0.08456 0.71729 0.04081 0.0
H2061 H 0.15066 0.73681 0.00594 0.0
H2062 H 0.20205 0.65233 0.92975 0.0
H2063 H 0.18198 0.6842 0.9505 0.0
H2064 H 0.10699 0.6687 0.9745 0.0
C2065 C 0.08806 0.73509 0.0357 0.0
C2066 C 0.14094 0.72209 0.99895 0.0
C2067 C 0.07706 0.75265 0.04988 0.0
C2068 C 0.18636 0.64864 0.94051 0.0
C2069 C 0.17481 0.66707 0.95267 0.0
C2070 C 0.11697 0.68319 0.98158 0.0
C2071 C 0.10415 0.74038 0.01601 0.0
C2072 C 0.11681 0.72134 1.00215 0.0
C2073 C 0.15409 0.66356 0.9666 0.0
C2074 C 0.14124 0.68358 0.97885 0.0
H2075 H 0.10082 0.79938 0.01984 0.0
H2076 H 0.12061 0.76857 0.99534 0.0
H2077 H 0.08641 0.70051 0.99516 0.0
H2078 H 0.1503 0.60499 0.9582 0.0
H2079 H 0.13027 0.63688 0.97948 0.0
loop_
_geom_bond_atom_site_label_1
_geom_bond_atom_site_label_2
_geom_bond_distance
_geom_bond_site_symmetry_2
_ccdc_geom_bond_type
C0 Eu1 2.835 . S
C0 C2 1.500 . S
C0 O20 1.257 . S
C0 O21 1.260 . S
Eu1 C0 2.835 . S
Eu1 O20 2.473 . S
Eu1 O21 2.480 . S
Eu1 O22 2.430 . S
Eu1 O23 2.670 . S
Eu1 O24 2.394 . S
Eu1 O29 2.355 . S
Eu1 O31 2.374 . S
C2 C0 1.500 . S
C2 C3 1.377 . S
C2 C7 1.377 . S
C3 C2 1.377 . S
C3 C4 1.395 . S
C3 H32 0.931 . S
C4 C3 1.395 . S
C4 C5 1.383 . S
C4 H33 0.931 . S
C5 C4 1.383 . S
C5 C6 1.394 . S
C6 C5 1.394 . S
C6 C7 1.378 . S
C6 H34 0.931 . S
C7 C2 1.377 . S
C7 C6 1.378 . S
C7 H35 0.931 . S
C8 O22 1.259 . S
C8 O23 1.270 . S
C9 O24 1.251 . S
C9 O25 1.251 . S
C10 Eu11 2.835 . S
C10 C12 1.500 . S
C10 O26 1.257 . S
C10 O27 1.260 . S
Eu11 C10 2.835 . S
Eu11 O23 2.355 . S
Eu11 O25 2.374 . S
Eu11 O26 2.473 . S
Eu11 O27 2.480 . S
Eu11 O28 2.430 . S
Eu11 O29 2.670 . S
Eu11 O30 2.394 . S
C12 C10 1.500 . S
C12 C13 1.377 . S
C12 C17 1.377 . S
C13 C12 1.377 . S
C13 C14 1.395 . S
C13 H36 0.931 . S
C14 C13 1.395 . S
C14 C15 1.383 . S
C14 H37 0.931 . S
C15 C14 1.383 . S
C15 C16 1.394 . S
C16 C15 1.394 . S
C16 C17 1.378 . S
C16 H38 0.931 . S
C17 C12 1.377 . S
C17 C16 1.378 . S
C17 H39 0.931 . S
C18 O28 1.259 . S
C18 O29 1.270 . S
C19 O30 1.251 . S
C19 O31 1.251 . S
O20 C0 1.257 . S
O20 Eu1 2.473 . S
O21 C0 1.260 . S
O21 Eu1 2.480 . S
O22 Eu1 2.430 . S
O22 C8 1.259 . S
O23 Eu1 2.670 . S
O23 C8 1.270 . S
O23 Eu11 2.355 . S
O24 Eu1 2.394 . S
O24 C9 1.251 . S
O25 C9 1.251 . S
O25 Eu11 2.374 . S
O26 C10 1.257 . S
O26 Eu11 2.473 . S
O27 C10 1.260 . S
O27 Eu11 2.480 . S
O28 Eu11 2.430 . S
O28 C18 1.259 . S
O29 Eu1 2.355 . S
O29 Eu11 2.670 . S
O29 C18 1.270 . S
O30 Eu11 2.394 . S
O30 C19 1.251 . S
O31 Eu1 2.374 . S
O31 C19 1.251 . S
H32 C3 0.931 . S
H33 C4 0.931 . S
H34 C6 0.931 . S
H35 C7 0.931 . S
H36 C13 0.931 . S
H37 C14 0.931 . S
H38 C16 0.931 . S
H39 C17 0.931 . S
C40 Eu41 2.835 . S
C40 C42 1.500 . S
C40 O60 1.257 . S
C40 O61 1.260 . S
Eu41 C40 2.835 . S
Eu41 O60 2.473 . S
Eu41 O61 2.480 . S
Eu41 O62 2.430 . S
Eu41 O63 2.670 . S
Eu41 O64 2.394 . S
Eu41 O69 2.355 . S
Eu41 O71 2.374 . S
C42 C40 1.500 . S
C42 C43 1.377 . S
C42 C47 1.377 . S
C43 C42 1.377 . S
C43 C44 1.395 . S
C43 H72 0.931 . S
C44 C43 1.395 . S
C44 C45 1.383 . S
C44 H73 0.931 . S
C45 C44 1.383 . S
C45 C46 1.394 . S
C46 C45 1.394 . S
C46 C47 1.378 . S
C46 H74 0.931 . S
C47 C42 1.377 . S
C47 C46 1.378 . S
C47 H75 0.931 . S
C48 O62 1.259 . S
C48 O63 1.270 . S
C49 O64 1.251 . S
C49 O65 1.251 . S
C50 Eu51 2.835 . S
C50 C52 1.500 . S
C50 O66 1.257 . S
C50 O67 1.260 . S
Eu51 C50 2.835 . S
Eu51 O63 2.355 . S
Eu51 O65 2.374 . S
Eu51 O66 2.473 . S
Eu51 O67 2.480 . S
Eu51 O68 2.430 . S
Eu51 O69 2.670 . S
Eu51 O70 2.394 . S
C52 C50 1.500 . S
C52 C53 1.377 . S
C52 C57 1.377 . S
C53 C52 1.377 . S
C53 C54 1.395 . S
C53 H76 0.931 . S
C54 C53 1.395 . S
C54 C55 1.383 . S
C54 H77 0.931 . S
C55 C54 1.383 . S
C55 C56 1.394 . S
C56 C55 1.394 . S
C56 C57 1.378 . S
C56 H78 0.931 . S
C57 C52 1.377 . S
C57 C56 1.378 . S
C57 H79 0.931 . S
C58 O68 1.259 . S
C58 O69 1.270 . S
C59 O70 1.251 . S
C59 O71 1.251 . S
O60 C40 1.257 . S
O60 Eu41 2.473 . S
O61 C40 1.260 . S
O61 Eu41 2.480 . S
O62 Eu41 2.430 . S
O62 C48 1.259 . S
O63 Eu41 2.670 . S
O63 C48 1.270 . S
O63 Eu51 2.355 . S
O64 Eu41 2.394 . S
O64 C49 1.251 . S
O65 C49 1.251 . S
O65 Eu51 2.374 . S
O66 C50 1.257 . S
O66 Eu51 2.473 . S
O67 C50 1.260 . S
O67 Eu51 2.480 . S
O68 Eu51 2.430 . S
O68 C58 1.259 . S
O69 Eu41 2.355 . S
O69 Eu51 2.670 . S
O69 C58 1.270 . S
O70 Eu51 2.394 . S
O70 C59 1.251 . S
O71 Eu41 2.374 . S
O71 C59 1.251 . S
H72 C43 0.931 . S
H73 C44 0.931 . S
H74 C46 0.931 . S
H75 C47 0.931 . S
H76 C53 0.931 . S
H77 C54 0.931 . S
H78 C56 0.931 . S
H79 C57 0.931 . S
C80 Eu81 2.835 1_455 S
C80 C82 1.500 . S
C80 O100 1.257 . S
C80 O101 1.260 . S
Eu81 C80 2.835 1_655 S
Eu81 O100 2.473 1_655 S
Eu81 O101 2.480 1_655 S
Eu81 O102 2.430 . S
Eu81 O103 2.670 . S
Eu81 O104 2.394 . S
Eu81 O109 2.355 . S
Eu81 O111 2.374 . S
C82 C80 1.500 . S
C82 C83 1.377 . S
C82 C87 1.377 . S
C83 C82 1.377 . S
C83 C84 1.395 . S
C83 H112 0.931 . S
C84 C83 1.395 . S
C84 C85 1.383 . S
C84 H113 0.931 . S
C85 C84 1.383 . S
C85 C86 1.394 . S
C86 C85 1.394 . S
C86 C87 1.378 . S
C86 H114 0.931 . S
C87 C82 1.377 . S
C87 C86 1.378 . S
C87 H115 0.931 . S
C88 O102 1.259 . S
C88 O103 1.270 . S
C89 O104 1.251 . S
C89 O105 1.251 . S
C90 Eu91 2.835 . S
C90 C92 1.500 . S
C90 O106 1.257 . S
C90 O107 1.260 . S
Eu91 C90 2.835 . S
Eu91 O103 2.355 . S
Eu91 O105 2.374 . S
Eu91 O106 2.473 . S
Eu91 O107 2.480 . S
Eu91 O108 2.430 . S
Eu91 O109 2.670 . S
Eu91 O110 2.394 . S
C92 C90 1.500 . S
C92 C93 1.377 . S
C92 C97 1.377 . S
C93 C92 1.377 . S
C93 C94 1.395 . S
C93 H116 0.931 . S
C94 C93 1.395 . S
C94 C95 1.383 . S
C94 H117 0.931 . S
C95 C94 1.383 . S
C95 C96 1.394 . S
C96 C95 1.394 . S
C96 C97 1.378 . S
C96 H118 0.931 . S
C97 C92 1.377 . S
C97 C96 1.378 . S
C97 H119 0.931 . S
C98 O108 1.259 . S
C98 O109 1.270 . S
C99 O110 1.251 . S
C99 O111 1.251 . S
O100 C80 1.257 . S
O100 Eu81 2.473 1_455 S
O101 C80 1.260 . S
O101 Eu81 2.480 1_455 S
O102 Eu81 2.430 . S
O102 C88 1.259 . S
O103 Eu81 2.670 . S
O103 C88 1.270 . S
O103 Eu91 2.355 . S
O104 Eu81 2.394 . S
O104 C89 1.251 . S
O105 C89 1.251 . S
O105 Eu91 2.374 . S
O106 C90 1.257 . S
O106 Eu91 2.473 . S
O107 C90 1.260 . S
O107 Eu91 2.480 . S
O108 Eu91 2.430 . S
O108 C98 1.259 . S
O109 Eu81 2.355 . S
O109 Eu91 2.670 . S
O109 C98 1.270 . S
O110 Eu91 2.394 . S
O110 C99 1.251 . S
O111 Eu81 2.374 . S
O111 C99 1.251 . S
H112 C83 0.931 . S
H113 C84 0.931 . S
H114 C86 0.931 . S
H115 C87 0.931 . S
H116 C93 0.931 . S
H117 C94 0.931 . S
H118 C96 0.931 . S
H119 C97 0.931 . S
C120 Eu121 2.835 1_545 S
C120 C122 1.500 . S
C120 O140 1.257 . S
C120 O141 1.260 . S
Eu121 C120 2.835 1_565 S
Eu121 O140 2.473 1_565 S
Eu121 O141 2.480 1_565 S
Eu121 O142 2.430 . S
Eu121 O143 2.670 . S
Eu121 O144 2.394 . S
Eu121 O149 2.355 . S
Eu121 O151 2.374 . S
C122 C120 1.500 . S
C122 C123 1.377 . S
C122 C127 1.377 . S
C123 C122 1.377 . S
C123 C124 1.395 . S
C123 H152 0.931 . S
C124 C123 1.395 . S
C124 C125 1.383 . S
C124 H153 0.931 . S
C125 C124 1.383 . S
C125 C126 1.394 . S
C126 C125 1.394 . S
C126 C127 1.378 . S
C126 H154 0.931 . S
C127 C122 1.377 . S
C127 C126 1.378 . S
C127 H155 0.931 . S
C128 O142 1.259 . S
C128 O143 1.270 . S
C129 O144 1.251 . S
C129 O145 1.251 . S
C130 Eu131 2.835 . S
C130 C132 1.500 . S
C130 O146 1.257 . S
C130 O147 1.260 . S
Eu131 C130 2.835 . S
Eu131 O143 2.355 . S
Eu131 O145 2.374 . S
Eu131 O146 2.473 . S
Eu131 O147 2.480 . S
Eu131 O148 2.430 . S
Eu131 O149 2.670 . S
Eu131 O150 2.394 . S
C132 C130 1.500 . S
C132 C133 1.377 . S
C132 C137 1.377 . S
C133 C132 1.377 . S
C133 C134 1.395 . S
C133 H156 0.931 . S
C134 C133 1.395 . S
C134 C135 1.383 . S
C134 H157 0.931 . S
C135 C134 1.383 . S
C135 C136 1.394 . S
C136 C135 1.394 . S
C136 C137 1.378 . S
C136 H158 0.931 . S
C137 C132 1.377 . S
C137 C136 1.378 . S
C137 H159 0.931 . S
C138 O148 1.259 . S
C138 O149 1.270 . S
C139 O150 1.251 . S
C139 O151 1.251 . S
O140 C120 1.257 . S
O140 Eu121 2.473 1_545 S
O141 C120 1.260 . S
O141 Eu121 2.480 1_545 S
O142 Eu121 2.430 . S
O142 C128 1.259 . S
O143 Eu121 2.670 . S
O143 C128 1.270 . S
O143 Eu131 2.355 . S
O144 Eu121 2.394 . S
O144 C129 1.251 . S
O145 C129 1.251 . S
O145 Eu131 2.374 . S
O146 C130 1.257 . S
O146 Eu131 2.473 . S
O147 C130 1.260 . S
O147 Eu131 2.480 . S
O148 Eu131 2.430 . S
O148 C138 1.259 . S
O149 Eu121 2.355 . S
O149 Eu131 2.670 . S
O149 C138 1.270 . S
O150 Eu131 2.394 . S
O150 C139 1.251 . S
O151 Eu121 2.374 . S
O151 C139 1.251 . S
H152 C123 0.931 . S
H153 C124 0.931 . S
H154 C126 0.931 . S
H155 C127 0.931 . S
H156 C133 0.931 . S
H157 C134 0.931 . S
H158 C136 0.931 . S
H159 C137 0.931 . S
C160 Eu161 2.835 1_655 S
C160 C162 1.500 . S
C160 O180 1.257 . S
C160 O181 1.260 . S
Eu161 C160 2.835 1_455 S
Eu161 O180 2.473 1_455 S
Eu161 O181 2.480 1_455 S
Eu161 O182 2.430 . S
Eu161 O183 2.670 . S
Eu161 O184 2.394 . S
Eu161 O189 2.355 . S
Eu161 O191 2.374 . S
C162 C160 1.500 . S
C162 C163 1.377 . S
C162 C167 1.377 . S
C163 C162 1.377 . S
C163 C164 1.395 . S
C163 H192 0.931 . S
C164 C163 1.395 . S
C164 C165 1.383 . S
C164 H193 0.931 . S
C165 C164 1.383 . S
C165 C166 1.394 . S
C166 C165 1.394 . S
C166 C167 1.378 . S
C166 H194 0.931 . S
C167 C162 1.377 . S
C167 C166 1.378 . S
C167 H195 0.931 . S
C168 O182 1.259 . S
C168 O183 1.270 . S
C169 O184 1.251 . S
C169 O185 1.251 . S
C170 Eu171 2.835 . S
C170 C172 1.500 . S
C170 O186 1.257 . S
C170 O187 1.260 . S
Eu171 C170 2.835 . S
Eu171 O183 2.355 . S
Eu171 O185 2.374 . S
Eu171 O186 2.473 . S
Eu171 O187 2.480 . S
Eu171 O188 2.430 . S
Eu171 O189 2.670 . S
Eu171 O190 2.394 . S
C172 C170 1.500 . S
C172 C173 1.377 . S
C172 C177 1.377 . S
C173 C172 1.377 . S
C173 C174 1.395 . S
C173 H196 0.931 . S
C174 C173 1.395 . S
C174 C175 1.383 . S
C174 H197 0.931 . S
C175 C174 1.383 . S
C175 C176 1.394 . S
C176 C175 1.394 . S
C176 C177 1.378 . S
C176 H198 0.931 . S
C177 C172 1.377 . S
C177 C176 1.378 . S
C177 H199 0.931 . S
C178 O188 1.259 . S
C178 O189 1.270 . S
C179 O190 1.251 . S
C179 O191 1.251 . S
O180 C160 1.257 . S
O180 Eu161 2.473 1_655 S
O181 C160 1.260 . S
O181 Eu161 2.480 1_655 S
O182 Eu161 2.430 . S
O182 C168 1.259 . S
O183 Eu161 2.670 . S
O183 C168 1.270 . S
O183 Eu171 2.355 . S
O184 Eu161 2.394 . S
O184 C169 1.251 . S
O185 C169 1.251 . S
O185 Eu171 2.374 . S
O186 C170 1.257 . S
O186 Eu171 2.473 . S
O187 C170 1.260 . S
O187 Eu171 2.480 . S
O188 Eu171 2.430 . S
O188 C178 1.259 . S
O189 Eu161 2.355 . S
O189 Eu171 2.670 . S
O189 C178 1.270 . S
O190 Eu171 2.394 . S
O190 C179 1.251 . S
O191 Eu161 2.374 . S
O191 C179 1.251 . S
H192 C163 0.931 . S
H193 C164 0.931 . S
H194 C166 0.931 . S
H195 C167 0.931 . S
H196 C173 0.931 . S
H197 C174 0.931 . S
H198 C176 0.931 . S
H199 C177 0.931 . S
C200 Eu201 2.835 1_565 S
C200 C202 1.500 . S
C200 O220 1.257 . S
C200 O221 1.260 . S
Eu201 C200 2.835 1_545 S
Eu201 O220 2.473 1_545 S
Eu201 O221 2.480 1_545 S
Eu201 O222 2.430 . S
Eu201 O223 2.670 . S
Eu201 O224 2.394 . S
Eu201 O229 2.355 . S
Eu201 O231 2.374 . S
C202 C200 1.500 . S
C202 C203 1.377 . S
C202 C207 1.377 . S
C203 C202 1.377 . S
C203 C204 1.395 . S
C203 H232 0.931 . S
C204 C203 1.395 . S
C204 C205 1.383 . S
C204 H233 0.931 . S
C205 C204 1.383 . S
C205 C206 1.394 . S
C206 C205 1.394 . S
C206 C207 1.378 . S
C206 H234 0.931 . S
C207 C202 1.377 . S
C207 C206 1.378 . S
C207 H235 0.931 . S
C208 O222 1.259 . S
C208 O223 1.270 . S
C209 O224 1.251 . S
C209 O225 1.251 . S
C210 Eu211 2.835 . S
C210 C212 1.500 . S
C210 O226 1.257 . S
C210 O227 1.260 . S
Eu211 C210 2.835 . S
Eu211 O223 2.355 . S
Eu211 O225 2.374 . S
Eu211 O226 2.473 . S
Eu211 O227 2.480 . S
Eu211 O228 2.430 . S
Eu211 O229 2.670 . S
Eu211 O230 2.394 . S
C212 C210 1.500 . S
C212 C213 1.377 . S
C212 C217 1.377 . S
C213 C212 1.377 . S
C213 C214 1.395 . S
C213 H236 0.931 . S
C214 C213 1.395 . S
C214 C215 1.383 . S
C214 H237 0.931 . S
C215 C214 1.383 . S
C215 C216 1.394 . S
C216 C215 1.394 . S
C216 C217 1.378 . S
C216 H238 0.931 . S
C217 C212 1.377 . S
C217 C216 1.378 . S
C217 H239 0.931 . S
C218 O228 1.259 . S
C218 O229 1.270 . S
C219 O230 1.251 . S
C219 O231 1.251 . S
O220 C200 1.257 . S
O220 Eu201 2.473 1_565 S
O221 C200 1.260 . S
O221 Eu201 2.480 1_565 S
O222 Eu201 2.430 . S
O222 C208 1.259 . S
O223 Eu201 2.670 . S
O223 C208 1.270 . S
O223 Eu211 2.355 . S
O224 Eu201 2.394 . S
O224 C209 1.251 . S
O225 C209 1.251 . S
O225 Eu211 2.374 . S
O226 C210 1.257 . S
O226 Eu211 2.473 . S
O227 C210 1.260 . S
O227 Eu211 2.480 . S
O228 Eu211 2.430 . S
O228 C218 1.259 . S
O229 Eu201 2.355 . S
O229 Eu211 2.670 . S
O229 C218 1.270 . S
O230 Eu211 2.394 . S
O230 C219 1.251 . S
O231 Eu201 2.374 . S
O231 C219 1.251 . S
H232 C203 0.931 . S
H233 C204 0.931 . S
H234 C206 0.931 . S
H235 C207 0.931 . S
H236 C213 0.931 . S
H237 C214 0.931 . S
H238 C216 0.931 . S
H239 C217 0.931 . S
C240 Eu241 2.835 . S
C240 C242 1.500 . S
C240 O260 1.257 . S
C240 O261 1.260 . S
Eu241 C240 2.835 . S
Eu241 O260 2.473 . S
Eu241 O261 2.480 . S
Eu241 O262 2.430 . S
Eu241 O263 2.670 . S
Eu241 O264 2.394 . S
Eu241 O269 2.355 . S
Eu241 O271 2.374 . S
C242 C240 1.500 . S
C242 C243 1.377 . S
C242 C247 1.377 . S
C243 C242 1.377 . S
C243 C244 1.395 . S
C243 H272 0.931 . S
C244 C243 1.395 . S
C244 C245 1.383 . S
C244 H273 0.931 . S
C245 C244 1.383 . S
C245 C246 1.394 . S
C246 C245 1.394 . S
C246 C247 1.378 . S
C246 H274 0.931 . S
C247 C242 1.377 . S
C247 C246 1.378 . S
C247 H275 0.931 . S
C248 O262 1.259 . S
C248 O263 1.270 . S
C249 O264 1.251 . S
C249 O265 1.251 . S
C250 Eu251 2.835 . S
C250 C252 1.500 . S
C250 O266 1.257 . S
C250 O267 1.260 . S
Eu251 C250 2.835 . S
Eu251 O263 2.355 . S
Eu251 O265 2.374 . S
Eu251 O266 2.473 . S
Eu251 O267 2.480 . S
Eu251 O268 2.430 . S
Eu251 O269 2.670 . S
Eu251 O270 2.394 . S
C252 C250 1.500 . S
C252 C253 1.377 . S
C252 C257 1.377 . S
C253 C252 1.377 . S
C253 C254 1.395 . S
C253 H276 0.931 . S
C254 C253 1.395 . S
C254 C255 1.383 . S
C254 H277 0.931 . S
C255 C254 1.383 . S
C255 C256 1.394 . S
C256 C255 1.394 . S
C256 C257 1.378 . S
C256 H278 0.931 . S
C257 C252 1.377 . S
C257 C256 1.378 . S
C257 H279 0.931 . S
C258 O268 1.259 . S
C258 O269 1.270 . S
C259 O270 1.251 . S
C259 O271 1.251 . S
O260 C240 1.257 . S
O260 Eu241 2.473 . S
O261 C240 1.260 . S
O261 Eu241 2.480 . S
O262 Eu241 2.430 . S
O262 C248 1.259 . S
O263 Eu241 2.670 . S
O263 C248 1.270 . S
O263 Eu251 2.355 . S
O264 Eu241 2.394 . S
O264 C249 1.251 . S
O265 C249 1.251 . S
O265 Eu251 2.374 . S
O266 C250 1.257 . S
O266 Eu251 2.473 . S
O267 C250 1.260 . S
O267 Eu251 2.480 . S
O268 Eu251 2.430 . S
O268 C258 1.259 . S
O269 Eu241 2.355 . S
O269 Eu251 2.670 . S
O269 C258 1.270 . S
O270 Eu251 2.394 . S
O270 C259 1.251 . S
O271 Eu241 2.374 . S
O271 C259 1.251 . S
H272 C243 0.931 . S
H273 C244 0.931 . S
H274 C246 0.931 . S
H275 C247 0.931 . S
H276 C253 0.931 . S
H277 C254 0.931 . S
H278 C256 0.931 . S
H279 C257 0.931 . S
C280 Eu281 2.835 . S
C280 C282 1.500 . S
C280 O300 1.257 . S
C280 O301 1.260 . S
Eu281 C280 2.835 . S
Eu281 O300 2.473 . S
Eu281 O301 2.480 . S
Eu281 O302 2.430 . S
Eu281 O303 2.670 . S
Eu281 O304 2.394 . S
Eu281 O309 2.355 . S
Eu281 O311 2.374 . S
C282 C280 1.500 . S
C282 C283 1.377 . S
C282 C287 1.377 . S
C283 C282 1.377 . S
C283 C284 1.395 . S
C283 H312 0.931 . S
C284 C283 1.395 . S
C284 C285 1.383 . S
C284 H313 0.931 . S
C285 C284 1.383 . S
C285 C286 1.394 . S
C286 C285 1.394 . S
C286 C287 1.378 . S
C286 H314 0.931 . S
C287 C282 1.377 . S
C287 C286 1.378 . S
C287 H315 0.931 . S
C288 O302 1.259 . S
C288 O303 1.270 . S
C289 O304 1.251 . S
C289 O305 1.251 . S
C290 Eu291 2.835 . S
C290 C292 1.500 . S
C290 O306 1.257 . S
C290 O307 1.260 . S
Eu291 C290 2.835 . S
Eu291 O303 2.355 . S
Eu291 O305 2.374 . S
Eu291 O306 2.473 . S
Eu291 O307 2.480 . S
Eu291 O308 2.430 . S
Eu291 O309 2.670 . S
Eu291 O310 2.394 . S
C292 C290 1.500 . S
C292 C293 1.377 . S
C292 C297 1.377 . S
C293 C292 1.377 . S
C293 C294 1.395 . S
C293 H316 0.931 . S
C294 C293 1.395 . S
C294 C295 1.383 . S
C294 H317 0.931 . S
C295 C294 1.383 . S
C295 C296 1.394 . S
C296 C295 1.394 . S
C296 C297 1.378 . S
C296 H318 0.931 . S
C297 C292 1.377 . S
C297 C296 1.378 . S
C297 H319 0.931 . S
C298 O308 1.259 . S
C298 O309 1.270 . S
C299 O310 1.251 . S
C299 O311 1.251 . S
O300 C280 1.257 . S
O300 Eu281 2.473 . S
O301 C280 1.260 . S
O301 Eu281 2.480 . S
O302 Eu281 2.430 . S
O302 C288 1.259 . S
O303 Eu281 2.670 . S
O303 C288 1.270 . S
O303 Eu291 2.355 . S
O304 Eu281 2.394 . S
O304 C289 1.251 . S
O305 C289 1.251 . S
O305 Eu291 2.374 . S
O306 C290 1.257 . S
O306 Eu291 2.473 . S
O307 C290 1.260 . S
O307 Eu291 2.480 . S
O308 Eu291 2.430 . S
O308 C298 1.259 . S
O309 Eu281 2.355 . S
O309 Eu291 2.670 . S
O309 C298 1.270 . S
O310 Eu291 2.394 . S
O310 C299 1.251 . S
O311 Eu281 2.374 . S
O311 C299 1.251 . S
H312 C283 0.931 . S
H313 C284 0.931 . S
H314 C286 0.931 . S
H315 C287 0.931 . S
H316 C293 0.931 . S
H317 C294 0.931 . S
H318 C296 0.931 . S
H319 C297 0.931 . S
C320 Eu321 2.835 . S
C320 C322 1.500 . S
C320 O340 1.257 . S
C320 O341 1.260 . S
Eu321 C320 2.835 . S
Eu321 O340 2.473 . S
Eu321 O341 2.480 . S
Eu321 O342 2.430 . S
Eu321 O343 2.670 . S
Eu321 O344 2.394 . S
Eu321 O349 2.355 . S
Eu321 O351 2.374 . S
C322 C320 1.500 . S
C322 C323 1.377 . S
C322 C327 1.377 . S
C323 C322 1.377 . S
C323 C324 1.395 . S
C323 H352 0.931 . S
C324 C323 1.395 . S
C324 C325 1.383 . S
C324 H353 0.931 . S
C325 C324 1.383 . S
C325 C326 1.394 . S
C326 C325 1.394 . S
C326 C327 1.378 . S
C326 H354 0.931 . S
C327 C322 1.377 . S
C327 C326 1.378 . S
C327 H355 0.931 . S
C328 O342 1.259 . S
C328 O343 1.270 . S
C329 O344 1.251 . S
C329 O345 1.251 . S
C330 Eu331 2.835 . S
C330 C332 1.500 . S
C330 O346 1.257 . S
C330 O347 1.260 . S
Eu331 C330 2.835 . S
Eu331 O343 2.355 . S
Eu331 O345 2.374 . S
Eu331 O346 2.473 . S
Eu331 O347 2.480 . S
Eu331 O348 2.430 . S
Eu331 O349 2.670 . S
Eu331 O350 2.394 . S
C332 C330 1.500 . S
C332 C333 1.377 . S
C332 C337 1.377 . S
C333 C332 1.377 . S
C333 C334 1.395 . S
C333 H356 0.931 . S
C334 C333 1.395 . S
C334 C335 1.383 . S
C334 H357 0.931 . S
C335 C334 1.383 . S
C335 C336 1.394 . S
C336 C335 1.394 . S
C336 C337 1.378 . S
C336 H358 0.931 . S
C337 C332 1.377 . S
C337 C336 1.378 . S
C337 H359 0.931 . S
C338 O348 1.259 . S
C338 O349 1.270 . S
C339 O350 1.251 . S
C339 O351 1.251 . S
O340 C320 1.257 . S
O340 Eu321 2.473 . S
O341 C320 1.260 . S
O341 Eu321 2.480 . S
O342 Eu321 2.430 . S
O342 C328 1.259 . S
O343 Eu321 2.670 . S
O343 C328 1.270 . S
O343 Eu331 2.355 . S
O344 Eu321 2.394 . S
O344 C329 1.251 . S
O345 C329 1.251 . S
O345 Eu331 2.374 . S
O346 C330 1.257 . S
O346 Eu331 2.473 . S
O347 C330 1.260 . S
O347 Eu331 2.480 . S
O348 Eu331 2.430 . S
O348 C338 1.259 . S
O349 Eu321 2.355 . S
O349 Eu331 2.670 . S
O349 C338 1.270 . S
O350 Eu331 2.394 . S
O350 C339 1.251 . S
O351 Eu321 2.374 . S
O351 C339 1.251 . S
H352 C323 0.931 . S
H353 C324 0.931 . S
H354 C326 0.931 . S
H355 C327 0.931 . S
H356 C333 0.931 . S
H357 C334 0.931 . S
H358 C336 0.931 . S
H359 C337 0.931 . S
C360 Eu361 2.835 . S
C360 C362 1.500 . S
C360 O380 1.257 . S
C360 O381 1.260 . S
Eu361 C360 2.835 . S
Eu361 O380 2.473 . S
Eu361 O381 2.480 . S
Eu361 O382 2.430 . S
Eu361 O383 2.670 . S
Eu361 O384 2.394 . S
Eu361 O389 2.355 . S
Eu361 O391 2.374 . S
C362 C360 1.500 . S
C362 C363 1.377 . S
C362 C367 1.377 . S
C363 C362 1.377 . S
C363 C364 1.395 . S
C363 H392 0.931 . S
C364 C363 1.395 . S
C364 C365 1.383 . S
C364 H393 0.931 . S
C365 C364 1.383 . S
C365 C366 1.394 . S
C366 C365 1.394 . S
C366 C367 1.378 . S
C366 H394 0.931 . S
C367 C362 1.377 . S
C367 C366 1.378 . S
C367 H395 0.931 . S
C368 O382 1.259 . S
C368 O383 1.270 . S
C369 O384 1.251 . S
C369 O385 1.251 . S
C370 Eu371 2.835 . S
C370 C372 1.500 . S
C370 O386 1.257 . S
C370 O387 1.260 . S
Eu371 C370 2.835 . S
Eu371 O383 2.355 . S
Eu371 O385 2.374 . S
Eu371 O386 2.473 . S
Eu371 O387 2.480 . S
Eu371 O388 2.430 . S
Eu371 O389 2.670 . S
Eu371 O390 2.394 . S
C372 C370 1.500 . S
C372 C373 1.377 . S
C372 C377 1.377 . S
C373 C372 1.377 . S
C373 C374 1.395 . S
C373 H396 0.931 . S
C374 C373 1.395 . S
C374 C375 1.383 . S
C374 H397 0.931 . S
C375 C374 1.383 . S
C375 C376 1.394 . S
C376 C375 1.394 . S
C376 C377 1.378 . S
C376 H398 0.931 . S
C377 C372 1.377 . S
C377 C376 1.378 . S
C377 H399 0.931 . S
C378 O388 1.259 . S
C378 O389 1.270 . S
C379 O390 1.251 . S
C379 O391 1.251 . S
O380 C360 1.257 . S
O380 Eu361 2.473 . S
O381 C360 1.260 . S
O381 Eu361 2.480 . S
O382 Eu361 2.430 . S
O382 C368 1.259 . S
O383 Eu361 2.670 . S
O383 C368 1.270 . S
O383 Eu371 2.355 . S
O384 Eu361 2.394 . S
O384 C369 1.251 . S
O385 C369 1.251 . S
O385 Eu371 2.374 . S
O386 C370 1.257 . S
O386 Eu371 2.473 . S
O387 C370 1.260 . S
O387 Eu371 2.480 . S
O388 Eu371 2.430 . S
O388 C378 1.259 . S
O389 Eu361 2.355 . S
O389 Eu371 2.670 . S
O389 C378 1.270 . S
O390 Eu371 2.394 . S
O390 C379 1.251 . S
O391 Eu361 2.374 . S
O391 C379 1.251 . S
H392 C363 0.931 . S
H393 C364 0.931 . S
H394 C366 0.931 . S
H395 C367 0.931 . S
H396 C373 0.931 . S
H397 C374 0.931 . S
H398 C376 0.931 . S
H399 C377 0.931 . S
C400 Eu401 2.835 . S
C400 C402 1.500 . S
C400 O420 1.257 . S
C400 O421 1.260 . S
Eu401 C400 2.835 . S
Eu401 O420 2.473 . S
Eu401 O421 2.480 . S
Eu401 O422 2.430 . S
Eu401 O423 2.670 . S
Eu401 O424 2.394 . S
Eu401 O429 2.355 . S
Eu401 O431 2.374 . S
C402 C400 1.500 . S
C402 C403 1.377 . S
C402 C407 1.377 . S
C403 C402 1.377 . S
C403 C404 1.395 . S
C403 H432 0.931 . S
C404 C403 1.395 . S
C404 C405 1.383 . S
C404 H433 0.931 . S
C405 C404 1.383 . S
C405 C406 1.394 . S
C406 C405 1.394 . S
C406 C407 1.378 . S
C406 H434 0.931 . S
C407 C402 1.377 . S
C407 C406 1.378 . S
C407 H435 0.931 . S
C408 O422 1.259 . S
C408 O423 1.270 . S
C409 O424 1.251 . S
C409 O425 1.251 . S
C410 Eu411 2.835 1_655 S
C410 C412 1.500 . S
C410 O426 1.257 . S
C410 O427 1.260 . S
Eu411 C410 2.835 1_455 S
Eu411 O423 2.355 . S
Eu411 O425 2.374 . S
Eu411 O426 2.473 1_455 S
Eu411 O427 2.480 1_455 S
Eu411 O428 2.430 . S
Eu411 O429 2.670 . S
Eu411 O430 2.394 . S
C412 C410 1.500 . S
C412 C413 1.377 . S
C412 C417 1.377 . S
C413 C412 1.377 . S
C413 C414 1.395 . S
C413 H436 0.931 . S
C414 C413 1.395 . S
C414 C415 1.383 . S
C414 H437 0.931 . S
C415 C414 1.383 . S
C415 C416 1.394 . S
C416 C415 1.394 . S
C416 C417 1.378 . S
C416 H438 0.931 . S
C417 C412 1.377 . S
C417 C416 1.378 . S
C417 H439 0.931 . S
C418 O428 1.259 . S
C418 O429 1.270 . S
C419 O430 1.251 . S
C419 O431 1.251 . S
O420 C400 1.257 . S
O420 Eu401 2.473 . S
O421 C400 1.260 . S
O421 Eu401 2.480 . S
O422 Eu401 2.430 . S
O422 C408 1.259 . S
O423 Eu401 2.670 . S
O423 C408 1.270 . S
O423 Eu411 2.355 . S
O424 Eu401 2.394 . S
O424 C409 1.251 . S
O425 C409 1.251 . S
O425 Eu411 2.374 . S
O426 C410 1.257 . S
O426 Eu411 2.473 1_655 S
O427 C410 1.260 . S
O427 Eu411 2.480 1_655 S
O428 Eu411 2.430 . S
O428 C418 1.259 . S
O429 Eu401 2.355 . S
O429 Eu411 2.670 . S
O429 C418 1.270 . S
O430 Eu411 2.394 . S
O430 C419 1.251 . S
O431 Eu401 2.374 . S
O431 C419 1.251 . S
H432 C403 0.931 . S
H433 C404 0.931 . S
H434 C406 0.931 . S
H435 C407 0.931 . S
H436 C413 0.931 . S
H437 C414 0.931 . S
H438 C416 0.931 . S
H439 C417 0.931 . S
C440 Eu441 2.835 . S
C440 C442 1.500 . S
C440 O460 1.257 . S
C440 O461 1.260 . S
Eu441 C440 2.835 . S
Eu441 O460 2.473 . S
Eu441 O461 2.480 . S
Eu441 O462 2.430 . S
Eu441 O463 2.670 . S
Eu441 O464 2.394 . S
Eu441 O469 2.355 . S
Eu441 O471 2.374 . S
C442 C440 1.500 . S
C442 C443 1.377 . S
C442 C447 1.377 . S
C443 C442 1.377 . S
C443 C444 1.395 . S
C443 H472 0.931 . S
C444 C443 1.395 . S
C444 C445 1.383 . S
C444 H473 0.931 . S
C445 C444 1.383 . S
C445 C446 1.394 . S
C446 C445 1.394 . S
C446 C447 1.378 . S
C446 H474 0.931 . S
C447 C442 1.377 . S
C447 C446 1.378 . S
C447 H475 0.931 . S
C448 O462 1.259 . S
C448 O463 1.270 . S
C449 O464 1.251 . S
C449 O465 1.251 . S
C450 Eu451 2.835 1_565 S
C450 C452 1.500 . S
C450 O466 1.257 . S
C450 O467 1.260 . S
Eu451 C450 2.835 1_545 S
Eu451 O463 2.355 . S
Eu451 O465 2.374 . S
Eu451 O466 2.473 1_545 S
Eu451 O467 2.480 1_545 S
Eu451 O468 2.430 . S
Eu451 O469 2.670 . S
Eu451 O470 2.394 . S
C452 C450 1.500 . S
C452 C453 1.377 . S
C452 C457 1.377 . S
C453 C452 1.377 . S
C453 C454 1.395 . S
C453 H476 0.931 . S
C454 C453 1.395 . S
C454 C455 1.383 . S
C454 H477 0.931 . S
C455 C454 1.383 . S
C455 C456 1.394 . S
C456 C455 1.394 . S
C456 C457 1.378 . S
C456 H478 0.931 . S
C457 C452 1.377 . S
C457 C456 1.378 . S
C457 H479 0.931 . S
C458 O468 1.259 . S
C458 O469 1.270 . S
C459 O470 1.251 . S
C459 O471 1.251 . S
O460 C440 1.257 . S
O460 Eu441 2.473 . S
O461 C440 1.260 . S
O461 Eu441 2.480 . S
O462 Eu441 2.430 . S
O462 C448 1.259 . S
O463 Eu441 2.670 . S
O463 C448 1.270 . S
O463 Eu451 2.355 . S
O464 Eu441 2.394 . S
O464 C449 1.251 . S
O465 C449 1.251 . S
O465 Eu451 2.374 . S
O466 C450 1.257 . S
O466 Eu451 2.473 1_565 S
O467 C450 1.260 . S
O467 Eu451 2.480 1_565 S
O468 Eu451 2.430 . S
O468 C458 1.259 . S
O469 Eu441 2.355 . S
O469 Eu451 2.670 . S
O469 C458 1.270 . S
O470 Eu451 2.394 . S
O470 C459 1.251 . S
O471 Eu441 2.374 . S
O471 C459 1.251 . S
H472 C443 0.931 . S
H473 C444 0.931 . S
H474 C446 0.931 . S
H475 C447 0.931 . S
H476 C453 0.931 . S
H477 C454 0.931 . S
H478 C456 0.931 . S
H479 C457 0.931 . S
C480 Eu481 2.835 . S
C480 C482 1.500 . S
C480 O500 1.257 . S
C480 O501 1.260 . S
Eu481 C480 2.835 . S
Eu481 O500 2.473 . S
Eu481 O501 2.480 . S
Eu481 O502 2.430 . S
Eu481 O503 2.670 . S
Eu481 O504 2.394 . S
Eu481 O509 2.355 . S
Eu481 O511 2.374 . S
C482 C480 1.500 . S
C482 C483 1.377 . S
C482 C487 1.377 . S
C483 C482 1.377 . S
C483 C484 1.395 . S
C483 H512 0.931 . S
C484 C483 1.395 . S
C484 C485 1.383 . S
C484 H513 0.931 . S
C485 C484 1.383 . S
C485 C486 1.394 . S
C486 C485 1.394 . S
C486 C487 1.378 . S
C486 H514 0.931 . S
C487 C482 1.377 . S
C487 C486 1.378 . S
C487 H515 0.931 . S
C488 O502 1.259 . S
C488 O503 1.270 . S
C489 O504 1.251 . S
C489 O505 1.251 . S
C490 Eu491 2.835 1_455 S
C490 C492 1.500 . S
C490 O506 1.257 . S
C490 O507 1.260 . S
Eu491 C490 2.835 1_655 S
Eu491 O503 2.355 . S
Eu491 O505 2.374 . S
Eu491 O506 2.473 1_655 S
Eu491 O507 2.480 1_655 S
Eu491 O508 2.430 . S
Eu491 O509 2.670 . S
Eu491 O510 2.394 . S
C492 C490 1.500 . S
C492 C493 1.377 . S
C492 C497 1.377 . S
C493 C492 1.377 . S
C493 C494 1.395 . S
C493 H516 0.931 . S
C494 C493 1.395 . S
C494 C495 1.383 . S
C494 H517 0.931 . S
C495 C494 1.383 . S
C495 C496 1.394 . S
C496 C495 1.394 . S
C496 C497 1.378 . S
C496 H518 0.931 . S
C497 C492 1.377 . S
C497 C496 1.378 . S
C497 H519 0.931 . S
C498 O508 1.259 . S
C498 O509 1.270 . S
C499 O510 1.251 . S
C499 O511 1.251 . S
O500 C480 1.257 . S
O500 Eu481 2.473 . S
O501 C480 1.260 . S
O501 Eu481 2.480 . S
O502 Eu481 2.430 . S
O502 C488 1.259 . S
O503 Eu481 2.670 . S
O503 C488 1.270 . S
O503 Eu491 2.355 . S
O504 Eu481 2.394 . S
O504 C489 1.251 . S
O505 C489 1.251 . S
O505 Eu491 2.374 . S
O506 C490 1.257 . S
O506 Eu491 2.473 1_455 S
O507 C490 1.260 . S
O507 Eu491 2.480 1_455 S
O508 Eu491 2.430 . S
O508 C498 1.259 . S
O509 Eu481 2.355 . S
O509 Eu491 2.670 . S
O509 C498 1.270 . S
O510 Eu491 2.394 . S
O510 C499 1.251 . S
O511 Eu481 2.374 . S
O511 C499 1.251 . S
H512 C483 0.931 . S
H513 C484 0.931 . S
H514 C486 0.931 . S
H515 C487 0.931 . S
H516 C493 0.931 . S
H517 C494 0.931 . S
H518 C496 0.931 . S
H519 C497 0.931 . S
C520 Eu521 2.835 . S
C520 C522 1.500 . S
C520 O540 1.257 . S
C520 O541 1.260 . S
Eu521 C520 2.835 . S
Eu521 O540 2.473 . S
Eu521 O541 2.480 . S
Eu521 O542 2.430 . S
Eu521 O543 2.670 . S
Eu521 O544 2.394 . S
Eu521 O549 2.355 . S
Eu521 O551 2.374 . S
C522 C520 1.500 . S
C522 C523 1.377 . S
C522 C527 1.377 . S
C523 C522 1.377 . S
C523 C524 1.395 . S
C523 H552 0.931 . S
C524 C523 1.395 . S
C524 C525 1.383 . S
C524 H553 0.931 . S
C525 C524 1.383 . S
C525 C526 1.394 . S
C526 C525 1.394 . S
C526 C527 1.378 . S
C526 H554 0.931 . S
C527 C522 1.377 . S
C527 C526 1.378 . S
C527 H555 0.931 . S
C528 O542 1.259 . S
C528 O543 1.270 . S
C529 O544 1.251 . S
C529 O545 1.251 . S
C530 Eu531 2.835 1_545 S
C530 C532 1.500 . S
C530 O546 1.257 . S
C530 O547 1.260 . S
Eu531 C530 2.835 1_565 S
Eu531 O543 2.355 . S
Eu531 O545 2.374 . S
Eu531 O546 2.473 1_565 S
Eu531 O547 2.480 1_565 S
Eu531 O548 2.430 . S
Eu531 O549 2.670 . S
Eu531 O550 2.394 . S
C532 C530 1.500 . S
C532 C533 1.377 . S
C532 C537 1.377 . S
C533 C532 1.377 . S
C533 C534 1.395 . S
C533 H556 0.931 . S
C534 C533 1.395 . S
C534 C535 1.383 . S
C534 H557 0.931 . S
C535 C534 1.383 . S
C535 C536 1.394 . S
C536 C535 1.394 . S
C536 C537 1.378 . S
C536 H558 0.931 . S
C537 C532 1.377 . S
C537 C536 1.378 . S
C537 H559 0.931 . S
C538 O548 1.259 . S
C538 O549 1.270 . S
C539 O550 1.251 . S
C539 O551 1.251 . S
O540 C520 1.257 . S
O540 Eu521 2.473 . S
O541 C520 1.260 . S
O541 Eu521 2.480 . S
O542 Eu521 2.430 . S
O542 C528 1.259 . S
O543 Eu521 2.670 . S
O543 C528 1.270 . S
O543 Eu531 2.355 . S
O544 Eu521 2.394 . S
O544 C529 1.251 . S
O545 C529 1.251 . S
O545 Eu531 2.374 . S
O546 C530 1.257 . S
O546 Eu531 2.473 1_545 S
O547 C530 1.260 . S
O547 Eu531 2.480 1_545 S
O548 Eu531 2.430 . S
O548 C538 1.259 . S
O549 Eu521 2.355 . S
O549 Eu531 2.670 . S
O549 C538 1.270 . S
O550 Eu531 2.394 . S
O550 C539 1.251 . S
O551 Eu521 2.374 . S
O551 C539 1.251 . S
H552 C523 0.931 . S
H553 C524 0.931 . S
H554 C526 0.931 . S
H555 C527 0.931 . S
H556 C533 0.931 . S
H557 C534 0.931 . S
H558 C536 0.931 . S
H559 C537 0.931 . S
C560 Eu561 2.835 . S
C560 C562 1.500 . S
C560 O580 1.257 . S
C560 O581 1.260 . S
Eu561 C560 2.835 . S
Eu561 O580 2.473 . S
Eu561 O581 2.480 . S
Eu561 O582 2.430 . S
Eu561 O583 2.670 . S
Eu561 O584 2.394 . S
Eu561 O589 2.355 . S
Eu561 O591 2.374 . S
C562 C560 1.500 . S
C562 C563 1.377 . S
C562 C567 1.377 . S
C563 C562 1.377 . S
C563 C564 1.395 . S
C563 H592 0.931 . S
C564 C563 1.395 . S
C564 C565 1.383 . S
C564 H593 0.931 . S
C565 C564 1.383 . S
C565 C566 1.394 . S
C566 C565 1.394 . S
C566 C567 1.378 . S
C566 H594 0.931 . S
C567 C562 1.377 . S
C567 C566 1.378 . S
C567 H595 0.931 . S
C568 O582 1.259 . S
C568 O583 1.270 . S
C569 O584 1.251 . S
C569 O585 1.251 . S
C570 Eu571 2.835 . S
C570 C572 1.500 . S
C570 O586 1.257 . S
C570 O587 1.260 . S
Eu571 C570 2.835 . S
Eu571 O583 2.355 . S
Eu571 O585 2.374 . S
Eu571 O586 2.473 . S
Eu571 O587 2.480 . S
Eu571 O588 2.430 . S
Eu571 O589 2.670 . S
Eu571 O590 2.394 . S
C572 C570 1.500 . S
C572 C573 1.377 . S
C572 C577 1.377 . S
C573 C572 1.377 . S
C573 C574 1.395 . S
C573 H596 0.931 . S
C574 C573 1.395 . S
C574 C575 1.383 . S
C574 H597 0.931 . S
C575 C574 1.383 . S
C575 C576 1.394 . S
C576 C575 1.394 . S
C576 C577 1.378 . S
C576 H598 0.931 . S
C577 C572 1.377 . S
C577 C576 1.378 . S
C577 H599 0.931 . S
C578 O588 1.259 . S
C578 O589 1.270 . S
C579 O590 1.251 . S
C579 O591 1.251 . S
O580 C560 1.257 . S
O580 Eu561 2.473 . S
O581 C560 1.260 . S
O581 Eu561 2.480 . S
O582 Eu561 2.430 . S
O582 C568 1.259 . S
O583 Eu561 2.670 . S
O583 C568 1.270 . S
O583 Eu571 2.355 . S
O584 Eu561 2.394 . S
O584 C569 1.251 . S
O585 C569 1.251 . S
O585 Eu571 2.374 . S
O586 C570 1.257 . S
O586 Eu571 2.473 . S
O587 C570 1.260 . S
O587 Eu571 2.480 . S
O588 Eu571 2.430 . S
O588 C578 1.259 . S
O589 Eu561 2.355 . S
O589 Eu571 2.670 . S
O589 C578 1.270 . S
O590 Eu571 2.394 . S
O590 C579 1.251 . S
O591 Eu561 2.374 . S
O591 C579 1.251 . S
H592 C563 0.931 . S
H593 C564 0.931 . S
H594 C566 0.931 . S
H595 C567 0.931 . S
H596 C573 0.931 . S
H597 C574 0.931 . S
H598 C576 0.931 . S
H599 C577 0.931 . S
C600 Eu601 2.835 . S
C600 C602 1.500 . S
C600 O620 1.257 . S
C600 O621 1.260 . S
Eu601 C600 2.835 . S
Eu601 O620 2.473 . S
Eu601 O621 2.480 . S
Eu601 O622 2.430 . S
Eu601 O623 2.670 . S
Eu601 O624 2.394 . S
Eu601 O629 2.355 . S
Eu601 O631 2.374 . S
C602 C600 1.500 . S
C602 C603 1.377 . S
C602 C607 1.377 . S
C603 C602 1.377 . S
C603 C604 1.395 . S
C603 H632 0.931 . S
C604 C603 1.395 . S
C604 C605 1.383 . S
C604 H633 0.931 . S
C605 C604 1.383 . S
C605 C606 1.394 . S
C606 C605 1.394 . S
C606 C607 1.378 . S
C606 H634 0.931 . S
C607 C602 1.377 . S
C607 C606 1.378 . S
C607 H635 0.931 . S
C608 O622 1.259 . S
C608 O623 1.270 . S
C609 O624 1.251 . S
C609 O625 1.251 . S
C610 Eu611 2.835 . S
C610 C612 1.500 . S
C610 O626 1.257 . S
C610 O627 1.260 . S
Eu611 C610 2.835 . S
Eu611 O623 2.355 . S
Eu611 O625 2.374 . S
Eu611 O626 2.473 . S
Eu611 O627 2.480 . S
Eu611 O628 2.430 . S
Eu611 O629 2.670 . S
Eu611 O630 2.394 . S
C612 C610 1.500 . S
C612 C613 1.377 . S
C612 C617 1.377 . S
C613 C612 1.377 . S
C613 C614 1.395 . S
C613 H636 0.931 . S
C614 C613 1.395 . S
C614 C615 1.383 . S
C614 H637 0.931 . S
C615 C614 1.383 . S
C615 C616 1.394 . S
C616 C615 1.394 . S
C616 C617 1.378 . S
C616 H638 0.931 . S
C617 C612 1.377 . S
C617 C616 1.378 . S
C617 H639 0.931 . S
C618 O628 1.259 . S
C618 O629 1.270 . S
C619 O630 1.251 . S
C619 O631 1.251 . S
O620 C600 1.257 . S
O620 Eu601 2.473 . S
O621 C600 1.260 . S
O621 Eu601 2.480 . S
O622 Eu601 2.430 . S
O622 C608 1.259 . S
O623 Eu601 2.670 . S
O623 C608 1.270 . S
O623 Eu611 2.355 . S
O624 Eu601 2.394 . S
O624 C609 1.251 . S
O625 C609 1.251 . S
O625 Eu611 2.374 . S
O626 C610 1.257 . S
O626 Eu611 2.473 . S
O627 C610 1.260 . S
O627 Eu611 2.480 . S
O628 Eu611 2.430 . S
O628 C618 1.259 . S
O629 Eu601 2.355 . S
O629 Eu611 2.670 . S
O629 C618 1.270 . S
O630 Eu611 2.394 . S
O630 C619 1.251 . S
O631 Eu601 2.374 . S
O631 C619 1.251 . S
H632 C603 0.931 . S
H633 C604 0.931 . S
H634 C606 0.931 . S
H635 C607 0.931 . S
H636 C613 0.931 . S
H637 C614 0.931 . S
H638 C616 0.931 . S
H639 C617 0.931 . S
C640 C641 1.349 . S
C640 C642 1.327 . S
C640 H665 0.950 . S
C641 C640 1.349 . S
C641 C657 1.349 . S
C642 C640 1.327 . S
C642 C661 1.429 . S
C642 H666 0.950 . S
C643 C660 1.574 . S
C643 C662 1.368 . S
C643 H667 0.949 . S
H644 C648 0.949 . S
C645 C646 1.349 . S
C645 C647 1.327 . S
C645 H668 0.950 . S
C646 C645 1.349 . S
C646 C658 1.349 . S
C647 C645 1.327 . S
C647 C663 1.429 . S
C647 H669 0.950 . S
C648 H644 0.949 . S
C648 C656 1.574 . S
C648 C664 1.368 . S
H649 C657 0.950 . S
H650 C655 0.950 . S
H651 C656 0.949 . S
H652 C658 0.950 . S
H653 C659 0.950 . S
H654 C660 0.949 . S
C655 H650 0.950 . S
C655 C657 1.327 . S
C655 C661 1.429 . S
C656 C648 1.574 . S
C656 H651 0.949 . S
C656 C662 1.368 . S
C657 C641 1.349 . S
C657 H649 0.950 . S
C657 C655 1.327 . S
C658 C646 1.349 . S
C658 H652 0.950 . S
C658 C659 1.327 . S
C659 H653 0.950 . S
C659 C658 1.327 . S
C659 C663 1.429 . S
C660 C643 1.574 . S
C660 H654 0.949 . S
C660 C664 1.368 . S
C661 C642 1.429 . S
C661 C655 1.429 . S
C661 C662 1.523 . S
C662 C643 1.368 . S
C662 C656 1.368 . S
C662 C661 1.523 . S
C663 C647 1.429 . S
C663 C659 1.429 . S
C663 C664 1.523 . S
C664 C648 1.368 . S
C664 C660 1.368 . S
C664 C663 1.523 . S
H665 C640 0.950 . S
H666 C642 0.950 . S
H667 C643 0.949 . S
H668 C645 0.950 . S
H669 C647 0.950 . S
C670 C671 1.349 . S
C670 C672 1.327 . S
C670 H695 0.950 . S
C671 C670 1.349 . S
C671 C687 1.349 . S
C672 C670 1.327 . S
C672 C691 1.429 . S
C672 H696 0.950 . S
C673 C690 1.574 . S
C673 C692 1.368 . S
C673 H697 0.949 . S
H674 C678 0.949 . S
C675 C676 1.349 . S
C675 C677 1.327 . S
C675 H698 0.950 . S
C676 C675 1.349 . S
C676 C688 1.349 . S
C677 C675 1.327 . S
C677 C693 1.429 . S
C677 H699 0.950 . S
C678 H674 0.949 . S
C678 C686 1.574 . S
C678 C694 1.368 . S
H679 C687 0.950 . S
H680 C685 0.950 . S
H681 C686 0.949 . S
H682 C688 0.950 . S
H683 C689 0.950 . S
H684 C690 0.949 . S
C685 H680 0.950 . S
C685 C687 1.327 . S
C685 C691 1.429 . S
C686 C678 1.574 . S
C686 H681 0.949 . S
C686 C692 1.368 . S
C687 C671 1.349 . S
C687 H679 0.950 . S
C687 C685 1.327 . S
C688 C676 1.349 . S
C688 H682 0.950 . S
C688 C689 1.327 . S
C689 H683 0.950 . S
C689 C688 1.327 . S
C689 C693 1.429 . S
C690 C673 1.574 . S
C690 H684 0.949 . S
C690 C694 1.368 . S
C691 C672 1.429 . S
C691 C685 1.429 . S
C691 C692 1.523 . S
C692 C673 1.368 . S
C692 C686 1.368 . S
C692 C691 1.523 . S
C693 C677 1.429 . S
C693 C689 1.429 . S
C693 C694 1.523 . S
C694 C678 1.368 . S
C694 C690 1.368 . S
C694 C693 1.523 . S
H695 C670 0.950 . S
H696 C672 0.950 . S
H697 C673 0.949 . S
H698 C675 0.950 . S
H699 C677 0.950 . S
C700 C701 1.349 . S
C700 C702 1.327 . S
C700 H725 0.950 . S
C701 C700 1.349 . S
C701 C717 1.349 . S
C702 C700 1.327 . S
C702 C721 1.429 . S
C702 H726 0.950 . S
C703 C720 1.574 . S
C703 C722 1.368 . S
C703 H727 0.949 . S
H704 C708 0.949 . S
C705 C706 1.349 . S
C705 C707 1.327 . S
C705 H728 0.950 . S
C706 C705 1.349 . S
C706 C718 1.349 . S
C707 C705 1.327 . S
C707 C723 1.429 . S
C707 H729 0.950 . S
C708 H704 0.949 . S
C708 C716 1.574 . S
C708 C724 1.368 . S
H709 C717 0.950 . S
H710 C715 0.950 . S
H711 C716 0.949 . S
H712 C718 0.950 . S
H713 C719 0.950 . S
H714 C720 0.949 . S
C715 H710 0.950 . S
C715 C717 1.327 . S
C715 C721 1.429 . S
C716 C708 1.574 . S
C716 H711 0.949 . S
C716 C722 1.368 . S
C717 C701 1.349 . S
C717 H709 0.950 . S
C717 C715 1.327 . S
C718 C706 1.349 . S
C718 H712 0.950 . S
C718 C719 1.327 . S
C719 H713 0.950 . S
C719 C718 1.327 . S
C719 C723 1.429 . S
C720 C703 1.574 . S
C720 H714 0.949 . S
C720 C724 1.368 . S
C721 C702 1.429 . S
C721 C715 1.429 . S
C721 C722 1.523 . S
C722 C703 1.368 . S
C722 C716 1.368 . S
C722 C721 1.523 . S
C723 C707 1.429 . S
C723 C719 1.429 . S
C723 C724 1.523 . S
C724 C708 1.368 . S
C724 C720 1.368 . S
C724 C723 1.523 . S
H725 C700 0.950 . S
H726 C702 0.950 . S
H727 C703 0.949 . S
H728 C705 0.950 . S
H729 C707 0.950 . S
C730 C731 1.349 . S
C730 C732 1.327 . S
C730 H755 0.950 . S
C731 C730 1.349 . S
C731 C747 1.349 . S
C732 C730 1.327 . S
C732 C751 1.429 . S
C732 H756 0.950 . S
C733 C750 1.574 . S
C733 C752 1.368 . S
C733 H757 0.949 . S
H734 C738 0.949 . S
C735 C736 1.349 . S
C735 C737 1.327 . S
C735 H758 0.950 . S
C736 C735 1.349 . S
C736 C748 1.349 . S
C737 C735 1.327 . S
C737 C753 1.429 . S
C737 H759 0.950 . S
C738 H734 0.949 . S
C738 C746 1.574 . S
C738 C754 1.368 . S
H739 C747 0.950 . S
H740 C745 0.950 . S
H741 C746 0.949 . S
H742 C748 0.950 . S
H743 C749 0.950 . S
H744 C750 0.949 . S
C745 H740 0.950 . S
C745 C747 1.327 . S
C745 C751 1.429 . S
C746 C738 1.574 . S
C746 H741 0.949 . S
C746 C752 1.368 . S
C747 C731 1.349 . S
C747 H739 0.950 . S
C747 C745 1.327 . S
C748 C736 1.349 . S
C748 H742 0.950 . S
C748 C749 1.327 . S
C749 H743 0.950 . S
C749 C748 1.327 . S
C749 C753 1.429 . S
C750 C733 1.574 . S
C750 H744 0.949 . S
C750 C754 1.368 . S
C751 C732 1.429 . S
C751 C745 1.429 . S
C751 C752 1.523 . S
C752 C733 1.368 . S
C752 C746 1.368 . S
C752 C751 1.523 . S
C753 C737 1.429 . S
C753 C749 1.429 . S
C753 C754 1.523 . S
C754 C738 1.368 . S
C754 C750 1.368 . S
C754 C753 1.523 . S
H755 C730 0.950 . S
H756 C732 0.950 . S
H757 C733 0.949 . S
H758 C735 0.950 . S
H759 C737 0.950 . S
C760 C761 1.349 . S
C760 C762 1.327 . S
C760 H785 0.950 . S
C761 C760 1.349 . S
C761 C777 1.349 . S
C762 C760 1.327 . S
C762 C781 1.429 . S
C762 H786 0.950 . S
C763 C780 1.574 . S
C763 C782 1.368 . S
C763 H787 0.949 . S
H764 C768 0.949 . S
C765 C766 1.349 . S
C765 C767 1.327 . S
C765 H788 0.950 . S
C766 C765 1.349 . S
C766 C778 1.349 . S
C767 C765 1.327 . S
C767 C783 1.429 . S
C767 H789 0.950 . S
C768 H764 0.949 . S
C768 C776 1.574 . S
C768 C784 1.368 . S
H769 C777 0.950 . S
H770 C775 0.950 . S
H771 C776 0.949 . S
H772 C778 0.950 . S
H773 C779 0.950 . S
H774 C780 0.949 . S
C775 H770 0.950 . S
C775 C777 1.327 . S
C775 C781 1.429 . S
C776 C768 1.574 . S
C776 H771 0.949 . S
C776 C782 1.368 . S
C777 C761 1.349 . S
C777 H769 0.950 . S
C777 C775 1.327 . S
C778 C766 1.349 . S
C778 H772 0.950 . S
C778 C779 1.327 . S
C779 H773 0.950 . S
C779 C778 1.327 . S
C779 C783 1.429 . S
C780 C763 1.574 . S
C780 H774 0.949 . S
C780 C784 1.368 . S
C781 C762 1.429 . S
C781 C775 1.429 . S
C781 C782 1.523 . S
C782 C763 1.368 . S
C782 C776 1.368 . S
C782 C781 1.523 . S
C783 C767 1.429 . S
C783 C779 1.429 . S
C783 C784 1.523 . S
C784 C768 1.368 . S
C784 C780 1.368 . S
C784 C783 1.523 . S
H785 C760 0.950 . S
H786 C762 0.950 . S
H787 C763 0.949 . S
H788 C765 0.950 . S
H789 C767 0.950 . S
C790 C791 1.349 . S
C790 C792 1.327 . S
C790 H815 0.950 . S
C791 C790 1.349 . S
C791 C807 1.349 . S
C792 C790 1.327 . S
C792 C811 1.429 . S
C792 H816 0.950 . S
C793 C810 1.574 . S
C793 C812 1.368 . S
C793 H817 0.949 . S
H794 C798 0.949 . S
C795 C796 1.349 . S
C795 C797 1.327 . S
C795 H818 0.950 . S
C796 C795 1.349 . S
C796 C808 1.349 . S
C797 C795 1.327 . S
C797 C813 1.429 . S
C797 H819 0.950 . S
C798 H794 0.949 . S
C798 C806 1.574 . S
C798 C814 1.368 . S
H799 C807 0.950 . S
H800 C805 0.950 . S
H801 C806 0.949 . S
H802 C808 0.950 . S
H803 C809 0.950 . S
H804 C810 0.949 . S
C805 H800 0.950 . S
C805 C807 1.327 . S
C805 C811 1.429 . S
C806 C798 1.574 . S
C806 H801 0.949 . S
C806 C812 1.368 . S
C807 C791 1.349 . S
C807 H799 0.950 . S
C807 C805 1.327 . S
C808 C796 1.349 . S
C808 H802 0.950 . S
C808 C809 1.327 . S
C809 H803 0.950 . S
C809 C808 1.327 . S
C809 C813 1.429 . S
C810 C793 1.574 . S
C810 H804 0.949 . S
C810 C814 1.368 . S
C811 C792 1.429 . S
C811 C805 1.429 . S
C811 C812 1.523 . S
C812 C793 1.368 . S
C812 C806 1.368 . S
C812 C811 1.523 . S
C813 C797 1.429 . S
C813 C809 1.429 . S
C813 C814 1.523 . S
C814 C798 1.368 . S
C814 C810 1.368 . S
C814 C813 1.523 . S
H815 C790 0.950 . S
H816 C792 0.950 . S
H817 C793 0.949 . S
H818 C795 0.950 . S
H819 C797 0.950 . S
C820 C821 1.349 . S
C820 C822 1.327 . S
C820 H845 0.950 . S
C821 C820 1.349 . S
C821 C837 1.349 . S
C822 C820 1.327 . S
C822 C841 1.429 . S
C822 H846 0.950 . S
C823 C840 1.574 . S
C823 C842 1.368 . S
C823 H847 0.949 . S
H824 C828 0.949 . S
C825 C826 1.349 . S
C825 C827 1.327 . S
C825 H848 0.950 . S
C826 C825 1.349 . S
C826 C838 1.349 . S
C827 C825 1.327 . S
C827 C843 1.429 . S
C827 H849 0.950 . S
C828 H824 0.949 . S
C828 C836 1.574 . S
C828 C844 1.368 . S
H829 C837 0.950 . S
H830 C835 0.950 . S
H831 C836 0.949 . S
H832 C838 0.950 . S
H833 C839 0.950 . S
H834 C840 0.949 . S
C835 H830 0.950 . S
C835 C837 1.327 . S
C835 C841 1.429 . S
C836 C828 1.574 . S
C836 H831 0.949 . S
C836 C842 1.368 . S
C837 C821 1.349 . S
C837 H829 0.950 . S
C837 C835 1.327 . S
C838 C826 1.349 . S
C838 H832 0.950 . S
C838 C839 1.327 . S
C839 H833 0.950 . S
C839 C838 1.327 . S
C839 C843 1.429 . S
C840 C823 1.574 . S
C840 H834 0.949 . S
C840 C844 1.368 . S
C841 C822 1.429 . S
C841 C835 1.429 . S
C841 C842 1.523 . S
C842 C823 1.368 . S
C842 C836 1.368 . S
C842 C841 1.523 . S
C843 C827 1.429 . S
C843 C839 1.429 . S
C843 C844 1.523 . S
C844 C828 1.368 . S
C844 C840 1.368 . S
C844 C843 1.523 . S
H845 C820 0.950 . S
H846 C822 0.950 . S
H847 C823 0.949 . S
H848 C825 0.950 . S
H849 C827 0.950 . S
C850 C851 1.349 . S
C850 C852 1.327 . S
C850 H875 0.950 . S
C851 C850 1.349 . S
C851 C867 1.349 . S
C852 C850 1.327 . S
C852 C871 1.429 . S
C852 H876 0.950 . S
C853 C870 1.574 . S
C853 C872 1.368 . S
C853 H877 0.949 . S
H854 C858 0.949 . S
C855 C856 1.349 . S
C855 C857 1.327 . S
C855 H878 0.950 . S
C856 C855 1.349 . S
C856 C868 1.349 . S
C857 C855 1.327 . S
C857 C873 1.429 . S
C857 H879 0.950 . S
C858 H854 0.949 . S
C858 C866 1.574 . S
C858 C874 1.368 . S
H859 C867 0.950 . S
H860 C865 0.950 . S
H861 C866 0.949 . S
H862 C868 0.950 . S
H863 C869 0.950 . S
H864 C870 0.949 . S
C865 H860 0.950 . S
C865 C867 1.327 . S
C865 C871 1.429 . S
C866 C858 1.574 . S
C866 H861 0.949 . S
C866 C872 1.368 . S
C867 C851 1.349 . S
C867 H859 0.950 . S
C867 C865 1.327 . S
C868 C856 1.349 . S
C868 H862 0.950 . S
C868 C869 1.327 . S
C869 H863 0.950 . S
C869 C868 1.327 . S
C869 C873 1.429 . S
C870 C853 1.574 . S
C870 H864 0.949 . S
C870 C874 1.368 . S
C871 C852 1.429 . S
C871 C865 1.429 . S
C871 C872 1.523 . S
C872 C853 1.368 . S
C872 C866 1.368 . S
C872 C871 1.523 . S
C873 C857 1.429 . S
C873 C869 1.429 . S
C873 C874 1.523 . S
C874 C858 1.368 . S
C874 C870 1.368 . S
C874 C873 1.523 . S
H875 C850 0.950 . S
H876 C852 0.950 . S
H877 C853 0.949 . S
H878 C855 0.950 . S
H879 C857 0.950 . S
C880 C881 1.349 . S
C880 C882 1.327 . S
C880 H905 0.950 . S
C881 C880 1.349 . S
C881 C897 1.349 . S
C882 C880 1.327 . S
C882 C901 1.429 . S
C882 H906 0.950 . S
C883 C900 1.574 . S
C883 C902 1.368 . S
C883 H907 0.949 . S
H884 C888 0.949 . S
C885 C886 1.349 . S
C885 C887 1.327 . S
C885 H908 0.950 . S
C886 C885 1.349 . S
C886 C898 1.349 . S
C887 C885 1.327 . S
C887 C903 1.429 . S
C887 H909 0.950 . S
C888 H884 0.949 . S
C888 C896 1.574 . S
C888 C904 1.368 . S
H889 C897 0.950 . S
H890 C895 0.950 . S
H891 C896 0.949 . S
H892 C898 0.950 . S
H893 C899 0.950 . S
H894 C900 0.949 . S
C895 H890 0.950 . S
C895 C897 1.327 . S
C895 C901 1.429 . S
C896 C888 1.574 . S
C896 H891 0.949 . S
C896 C902 1.368 . S
C897 C881 1.349 . S
C897 H889 0.950 . S
C897 C895 1.327 . S
C898 C886 1.349 . S
C898 H892 0.950 . S
C898 C899 1.327 . S
C899 H893 0.950 . S
C899 C898 1.327 . S
C899 C903 1.429 . S
C900 C883 1.574 . S
C900 H894 0.949 . S
C900 C904 1.368 . S
C901 C882 1.429 . S
C901 C895 1.429 . S
C901 C902 1.523 . S
C902 C883 1.368 . S
C902 C896 1.368 . S
C902 C901 1.523 . S
C903 C887 1.429 . S
C903 C899 1.429 . S
C903 C904 1.523 . S
C904 C888 1.368 . S
C904 C900 1.368 . S
C904 C903 1.523 . S
H905 C880 0.950 . S
H906 C882 0.950 . S
H907 C883 0.949 . S
H908 C885 0.950 . S
H909 C887 0.950 . S
C910 C911 1.349 . S
C910 C912 1.327 . S
C910 H935 0.950 . S
C911 C910 1.349 . S
C911 C927 1.349 . S
C912 C910 1.327 . S
C912 C931 1.429 . S
C912 H936 0.950 . S
C913 C930 1.574 . S
C913 C932 1.368 . S
C913 H937 0.949 . S
H914 C918 0.949 . S
C915 C916 1.349 . S
C915 C917 1.327 . S
C915 H938 0.950 . S
C916 C915 1.349 . S
C916 C928 1.349 . S
C917 C915 1.327 . S
C917 C933 1.429 . S
C917 H939 0.950 . S
C918 H914 0.949 . S
C918 C926 1.574 . S
C918 C934 1.368 . S
H919 C927 0.950 . S
H920 C925 0.950 . S
H921 C926 0.949 . S
H922 C928 0.950 . S
H923 C929 0.950 . S
H924 C930 0.949 . S
C925 H920 0.950 . S
C925 C927 1.327 . S
C925 C931 1.429 . S
C926 C918 1.574 . S
C926 H921 0.949 . S
C926 C932 1.368 . S
C927 C911 1.349 . S
C927 H919 0.950 . S
C927 C925 1.327 . S
C928 C916 1.349 . S
C928 H922 0.950 . S
C928 C929 1.327 . S
C929 H923 0.950 . S
C929 C928 1.327 . S
C929 C933 1.429 . S
C930 C913 1.574 . S
C930 H924 0.949 . S
C930 C934 1.368 . S
C931 C912 1.429 . S
C931 C925 1.429 . S
C931 C932 1.523 . S
C932 C913 1.368 . S
C932 C926 1.368 . S
C932 C931 1.523 . S
C933 C917 1.429 . S
C933 C929 1.429 . S
C933 C934 1.523 . S
C934 C918 1.368 . S
C934 C930 1.368 . S
C934 C933 1.523 . S
H935 C910 0.950 . S
H936 C912 0.950 . S
H937 C913 0.949 . S
H938 C915 0.950 . S
H939 C917 0.950 . S
C940 C941 1.349 . S
C940 C942 1.327 . S
C940 H965 0.950 . S
C941 C940 1.349 . S
C941 C957 1.349 . S
C942 C940 1.327 . S
C942 C961 1.429 . S
C942 H966 0.950 . S
C943 C960 1.574 . S
C943 C962 1.368 . S
C943 H967 0.949 . S
H944 C948 0.949 . S
C945 C946 1.349 . S
C945 C947 1.327 . S
C945 H968 0.950 . S
C946 C945 1.349 . S
C946 C958 1.349 . S
C947 C945 1.327 . S
C947 C963 1.429 . S
C947 H969 0.950 . S
C948 H944 0.949 . S
C948 C956 1.574 . S
C948 C964 1.368 . S
H949 C957 0.950 . S
H950 C955 0.950 . S
H951 C956 0.949 . S
H952 C958 0.950 . S
H953 C959 0.950 . S
H954 C960 0.949 . S
C955 H950 0.950 . S
C955 C957 1.327 . S
C955 C961 1.429 . S
C956 C948 1.574 . S
C956 H951 0.949 . S
C956 C962 1.368 . S
C957 C941 1.349 . S
C957 H949 0.950 . S
C957 C955 1.327 . S
C958 C946 1.349 . S
C958 H952 0.950 . S
C958 C959 1.327 . S
C959 H953 0.950 . S
C959 C958 1.327 . S
C959 C963 1.429 . S
C960 C943 1.574 . S
C960 H954 0.949 . S
C960 C964 1.368 . S
C961 C942 1.429 . S
C961 C955 1.429 . S
C961 C962 1.523 . S
C962 C943 1.368 . S
C962 C956 1.368 . S
C962 C961 1.523 . S
C963 C947 1.429 . S
C963 C959 1.429 . S
C963 C964 1.523 . S
C964 C948 1.368 . S
C964 C960 1.368 . S
C964 C963 1.523 . S
H965 C940 0.950 . S
H966 C942 0.950 . S
H967 C943 0.949 . S
H968 C945 0.950 . S
H969 C947 0.950 . S
C970 C971 1.349 . S
C970 C972 1.327 . S
C970 H995 0.950 . S
C971 C970 1.349 . S
C971 C987 1.349 . S
C972 C970 1.327 . S
C972 C991 1.429 . S
C972 H996 0.950 . S
C973 C990 1.574 . S
C973 C992 1.368 . S
C973 H997 0.949 . S
H974 C978 0.949 . S
C975 C976 1.349 . S
C975 C977 1.327 . S
C975 H998 0.950 . S
C976 C975 1.349 . S
C976 C988 1.349 . S
C977 C975 1.327 . S
C977 C993 1.429 . S
C977 H999 0.950 . S
C978 H974 0.949 . S
C978 C986 1.574 . S
C978 C994 1.368 . S
H979 C987 0.950 . S
H980 C985 0.950 . S
H981 C986 0.949 . S
H982 C988 0.950 . S
H983 C989 0.950 . S
H984 C990 0.949 . S
C985 H980 0.950 . S
C985 C987 1.327 . S
C985 C991 1.429 . S
C986 C978 1.574 . S
C986 H981 0.949 . S
C986 C992 1.368 . S
C987 C971 1.349 . S
C987 H979 0.950 . S
C987 C985 1.327 . S
C988 C976 1.349 . S
C988 H982 0.950 . S
C988 C989 1.327 . S
C989 H983 0.950 . S
C989 C988 1.327 . S
C989 C993 1.429 . S
C990 C973 1.574 . S
C990 H984 0.949 . S
C990 C994 1.368 . S
C991 C972 1.429 . S
C991 C985 1.429 . S
C991 C992 1.523 . S
C992 C973 1.368 . S
C992 C986 1.368 . S
C992 C991 1.523 . S
C993 C977 1.429 . S
C993 C989 1.429 . S
C993 C994 1.523 . S
C994 C978 1.368 . S
C994 C990 1.368 . S
C994 C993 1.523 . S
H995 C970 0.950 . S
H996 C972 0.950 . S
H997 C973 0.949 . S
H998 C975 0.950 . S
H999 C977 0.950 . S
C1000 C1001 1.349 . S
C1000 C1002 1.327 . S
C1000 H1025 0.950 . S
C1001 C1000 1.349 . S
C1001 C1017 1.349 . S
C1002 C1000 1.327 . S
C1002 C1021 1.429 . S
C1002 H1026 0.950 . S
C1003 C1020 1.574 . S
C1003 C1022 1.368 . S
C1003 H1027 0.949 . S
H1004 C1008 0.949 . S
C1005 C1006 1.349 . S
C1005 C1007 1.327 . S
C1005 H1028 0.950 . S
C1006 C1005 1.349 . S
C1006 C1018 1.349 . S
C1007 C1005 1.327 . S
C1007 C1023 1.429 . S
C1007 H1029 0.950 . S
C1008 H1004 0.949 . S
C1008 C1016 1.574 . S
C1008 C1024 1.368 . S
H1009 C1017 0.950 . S
H1010 C1015 0.950 . S
H1011 C1016 0.949 . S
H1012 C1018 0.950 . S
H1013 C1019 0.950 . S
H1014 C1020 0.949 . S
C1015 H1010 0.950 . S
C1015 C1017 1.327 . S
C1015 C1021 1.429 . S
C1016 C1008 1.574 . S
C1016 H1011 0.949 . S
C1016 C1022 1.368 . S
C1017 C1001 1.349 . S
C1017 H1009 0.950 . S
C1017 C1015 1.327 . S
C1018 C1006 1.349 . S
C1018 H1012 0.950 . S
C1018 C1019 1.327 . S
C1019 H1013 0.950 . S
C1019 C1018 1.327 . S
C1019 C1023 1.429 . S
C1020 C1003 1.574 . S
C1020 H1014 0.949 . S
C1020 C1024 1.368 . S
C1021 C1002 1.429 . S
C1021 C1015 1.429 . S
C1021 C1022 1.523 . S
C1022 C1003 1.368 . S
C1022 C1016 1.368 . S
C1022 C1021 1.523 . S
C1023 C1007 1.429 . S
C1023 C1019 1.429 . S
C1023 C1024 1.523 . S
C1024 C1008 1.368 . S
C1024 C1020 1.368 . S
C1024 C1023 1.523 . S
H1025 C1000 0.950 . S
H1026 C1002 0.950 . S
H1027 C1003 0.949 . S
H1028 C1005 0.950 . S
H1029 C1007 0.950 . S
C1030 C1031 1.349 . S
C1030 C1032 1.327 . S
C1030 H1055 0.950 . S
C1031 C1030 1.349 . S
C1031 C1047 1.349 . S
C1032 C1030 1.327 . S
C1032 C1051 1.429 . S
C1032 H1056 0.950 . S
C1033 C1050 1.574 . S
C1033 C1052 1.368 . S
C1033 H1057 0.949 . S
H1034 C1038 0.949 . S
C1035 C1036 1.349 . S
C1035 C1037 1.327 . S
C1035 H1058 0.950 . S
C1036 C1035 1.349 . S
C1036 C1048 1.349 . S
C1037 C1035 1.327 . S
C1037 C1053 1.429 . S
C1037 H1059 0.950 . S
C1038 H1034 0.949 . S
C1038 C1046 1.574 . S
C1038 C1054 1.368 . S
H1039 C1047 0.950 . S
H1040 C1045 0.950 . S
H1041 C1046 0.949 . S
H1042 C1048 0.950 . S
H1043 C1049 0.950 . S
H1044 C1050 0.949 . S
C1045 H1040 0.950 . S
C1045 C1047 1.327 . S
C1045 C1051 1.429 . S
C1046 C1038 1.574 . S
C1046 H1041 0.949 . S
C1046 C1052 1.368 . S
C1047 C1031 1.349 . S
C1047 H1039 0.950 . S
C1047 C1045 1.327 . S
C1048 C1036 1.349 . S
C1048 H1042 0.950 . S
C1048 C1049 1.327 . S
C1049 H1043 0.950 . S
C1049 C1048 1.327 . S
C1049 C1053 1.429 . S
C1050 C1033 1.574 . S
C1050 H1044 0.949 . S
C1050 C1054 1.368 . S
C1051 C1032 1.429 . S
C1051 C1045 1.429 . S
C1051 C1052 1.523 . S
C1052 C1033 1.368 . S
C1052 C1046 1.368 . S
C1052 C1051 1.523 . S
C1053 C1037 1.429 . S
C1053 C1049 1.429 . S
C1053 C1054 1.523 . S
C1054 C1038 1.368 . S
C1054 C1050 1.368 . S
C1054 C1053 1.523 . S
H1055 C1030 0.950 . S
H1056 C1032 0.950 . S
H1057 C1033 0.949 . S
H1058 C1035 0.950 . S
H1059 C1037 0.950 . S
C1060 C1061 1.349 . S
C1060 C1062 1.327 . S
C1060 H1085 0.950 . S
C1061 C1060 1.349 . S
C1061 C1077 1.349 . S
C1062 C1060 1.327 . S
C1062 C1081 1.429 . S
C1062 H1086 0.950 . S
C1063 C1080 1.574 . S
C1063 C1082 1.368 . S
C1063 H1087 0.949 . S
H1064 C1068 0.949 . S
C1065 C1066 1.349 . S
C1065 C1067 1.327 . S
C1065 H1088 0.950 . S
C1066 C1065 1.349 . S
C1066 C1078 1.349 . S
C1067 C1065 1.327 . S
C1067 C1083 1.429 . S
C1067 H1089 0.950 . S
C1068 H1064 0.949 . S
C1068 C1076 1.574 . S
C1068 C1084 1.368 . S
H1069 C1077 0.950 . S
H1070 C1075 0.950 . S
H1071 C1076 0.949 . S
H1072 C1078 0.950 . S
H1073 C1079 0.950 . S
H1074 C1080 0.949 . S
C1075 H1070 0.950 . S
C1075 C1077 1.327 . S
C1075 C1081 1.429 . S
C1076 C1068 1.574 . S
C1076 H1071 0.949 . S
C1076 C1082 1.368 . S
C1077 C1061 1.349 . S
C1077 H1069 0.950 . S
C1077 C1075 1.327 . S
C1078 C1066 1.349 . S
C1078 H1072 0.950 . S
C1078 C1079 1.327 . S
C1079 H1073 0.950 . S
C1079 C1078 1.327 . S
C1079 C1083 1.429 . S
C1080 C1063 1.574 . S
C1080 H1074 0.949 . S
C1080 C1084 1.368 . S
C1081 C1062 1.429 . S
C1081 C1075 1.429 . S
C1081 C1082 1.523 . S
C1082 C1063 1.368 . S
C1082 C1076 1.368 . S
C1082 C1081 1.523 . S
C1083 C1067 1.429 . S
C1083 C1079 1.429 . S
C1083 C1084 1.523 . S
C1084 C1068 1.368 . S
C1084 C1080 1.368 . S
C1084 C1083 1.523 . S
H1085 C1060 0.950 . S
H1086 C1062 0.950 . S
H1087 C1063 0.949 . S
H1088 C1065 0.950 . S
H1089 C1067 0.950 . S
C1090 C1091 1.349 . S
C1090 C1092 1.327 . S
C1090 H1115 0.950 1_655 S
C1091 C1090 1.349 . S
C1091 C1107 1.349 . S
C1092 C1090 1.327 . S
C1092 C1111 1.429 . S
C1092 H1116 0.950 . S
C1093 C1110 1.574 . S
C1093 C1112 1.368 . S
C1093 H1117 0.949 . S
H1094 C1098 0.949 . S
C1095 C1096 1.349 . S
C1095 C1097 1.327 . S
C1095 H1118 0.950 . S
C1096 C1095 1.349 . S
C1096 C1108 1.349 . S
C1097 C1095 1.327 . S
C1097 C1113 1.429 . S
C1097 H1119 0.950 . S
C1098 H1094 0.949 . S
C1098 C1106 1.574 . S
C1098 C1114 1.368 . S
H1099 C1107 0.950 . S
H1100 C1105 0.950 . S
H1101 C1106 0.949 . S
H1102 C1108 0.950 . S
H1103 C1109 0.950 . S
H1104 C1110 0.949 . S
C1105 H1100 0.950 . S
C1105 C1107 1.327 . S
C1105 C1111 1.429 . S
C1106 C1098 1.574 . S
C1106 H1101 0.949 . S
C1106 C1112 1.368 . S
C1107 C1091 1.349 . S
C1107 H1099 0.950 . S
C1107 C1105 1.327 . S
C1108 C1096 1.349 . S
C1108 H1102 0.950 . S
C1108 C1109 1.327 . S
C1109 H1103 0.950 . S
C1109 C1108 1.327 . S
C1109 C1113 1.429 . S
C1110 C1093 1.574 . S
C1110 H1104 0.949 . S
C1110 C1114 1.368 . S
C1111 C1092 1.429 . S
C1111 C1105 1.429 . S
C1111 C1112 1.523 . S
C1112 C1093 1.368 . S
C1112 C1106 1.368 . S
C1112 C1111 1.523 . S
C1113 C1097 1.429 . S
C1113 C1109 1.429 . S
C1113 C1114 1.523 . S
C1114 C1098 1.368 . S
C1114 C1110 1.368 . S
C1114 C1113 1.523 . S
H1115 C1090 0.950 1_455 S
H1116 C1092 0.950 . S
H1117 C1093 0.949 . S
H1118 C1095 0.950 . S
H1119 C1097 0.950 . S
C1120 C1121 1.349 . S
C1120 C1122 1.327 . S
C1120 H1145 0.950 . S
C1121 C1120 1.349 . S
C1121 C1137 1.349 . S
C1122 C1120 1.327 . S
C1122 C1141 1.429 . S
C1122 H1146 0.950 . S
C1123 C1140 1.574 . S
C1123 C1142 1.368 . S
C1123 H1147 0.949 . S
H1124 C1128 0.949 . S
C1125 C1126 1.349 . S
C1125 C1127 1.327 . S
C1125 H1148 0.950 . S
C1126 C1125 1.349 . S
C1126 C1138 1.349 . S
C1127 C1125 1.327 . S
C1127 C1143 1.429 . S
C1127 H1149 0.950 . S
C1128 H1124 0.949 . S
C1128 C1136 1.574 . S
C1128 C1144 1.368 . S
H1129 C1137 0.950 . S
H1130 C1135 0.950 . S
H1131 C1136 0.949 . S
H1132 C1138 0.950 . S
H1133 C1139 0.950 . S
H1134 C1140 0.949 . S
C1135 H1130 0.950 . S
C1135 C1137 1.327 . S
C1135 C1141 1.429 . S
C1136 C1128 1.574 . S
C1136 H1131 0.949 . S
C1136 C1142 1.368 . S
C1137 C1121 1.349 . S
C1137 H1129 0.950 . S
C1137 C1135 1.327 . S
C1138 C1126 1.349 . S
C1138 H1132 0.950 . S
C1138 C1139 1.327 . S
C1139 H1133 0.950 . S
C1139 C1138 1.327 . S
C1139 C1143 1.429 . S
C1140 C1123 1.574 . S
C1140 H1134 0.949 . S
C1140 C1144 1.368 . S
C1141 C1122 1.429 . S
C1141 C1135 1.429 . S
C1141 C1142 1.523 . S
C1142 C1123 1.368 . S
C1142 C1136 1.368 . S
C1142 C1141 1.523 . S
C1143 C1127 1.429 . S
C1143 C1139 1.429 . S
C1143 C1144 1.523 . S
C1144 C1128 1.368 . S
C1144 C1140 1.368 . S
C1144 C1143 1.523 . S
H1145 C1120 0.950 . S
H1146 C1122 0.950 . S
H1147 C1123 0.949 . S
H1148 C1125 0.950 . S
H1149 C1127 0.950 . S
C1150 C1151 1.349 . S
C1150 C1152 1.327 . S
C1150 H1175 0.950 . S
C1151 C1150 1.349 . S
C1151 C1167 1.349 . S
C1152 C1150 1.327 . S
C1152 C1171 1.429 . S
C1152 H1176 0.950 . S
C1153 C1170 1.574 . S
C1153 C1172 1.368 . S
C1153 H1177 0.949 . S
H1154 C1158 0.949 . S
C1155 C1156 1.349 . S
C1155 C1157 1.327 . S
C1155 H1178 0.950 . S
C1156 C1155 1.349 . S
C1156 C1168 1.349 . S
C1157 C1155 1.327 . S
C1157 C1173 1.429 . S
C1157 H1179 0.950 . S
C1158 H1154 0.949 . S
C1158 C1166 1.574 . S
C1158 C1174 1.368 . S
H1159 C1167 0.950 . S
H1160 C1165 0.950 . S
H1161 C1166 0.949 . S
H1162 C1168 0.950 . S
H1163 C1169 0.950 . S
H1164 C1170 0.949 . S
C1165 H1160 0.950 . S
C1165 C1167 1.327 . S
C1165 C1171 1.429 . S
C1166 C1158 1.574 . S
C1166 H1161 0.949 . S
C1166 C1172 1.368 . S
C1167 C1151 1.349 . S
C1167 H1159 0.950 . S
C1167 C1165 1.327 . S
C1168 C1156 1.349 . S
C1168 H1162 0.950 . S
C1168 C1169 1.327 . S
C1169 H1163 0.950 . S
C1169 C1168 1.327 . S
C1169 C1173 1.429 . S
C1170 C1153 1.574 . S
C1170 H1164 0.949 . S
C1170 C1174 1.368 . S
C1171 C1152 1.429 . S
C1171 C1165 1.429 . S
C1171 C1172 1.523 . S
C1172 C1153 1.368 . S
C1172 C1166 1.368 . S
C1172 C1171 1.523 . S
C1173 C1157 1.429 . S
C1173 C1169 1.429 . S
C1173 C1174 1.523 . S
C1174 C1158 1.368 . S
C1174 C1170 1.368 . S
C1174 C1173 1.523 . S
H1175 C1150 0.950 . S
H1176 C1152 0.950 . S
H1177 C1153 0.949 . S
H1178 C1155 0.950 . S
H1179 C1157 0.950 . S
C1180 C1181 1.349 . S
C1180 C1182 1.327 . S
C1180 H1205 0.950 . S
C1181 C1180 1.349 . S
C1181 C1197 1.349 . S
C1182 C1180 1.327 . S
C1182 C1201 1.429 . S
C1182 H1206 0.950 . S
C1183 C1200 1.574 . S
C1183 C1202 1.368 . S
C1183 H1207 0.949 . S
H1184 C1188 0.949 . S
C1185 C1186 1.349 . S
C1185 C1187 1.327 . S
C1185 H1208 0.950 . S
C1186 C1185 1.349 . S
C1186 C1198 1.349 . S
C1187 C1185 1.327 . S
C1187 C1203 1.429 . S
C1187 H1209 0.950 . S
C1188 H1184 0.949 . S
C1188 C1196 1.574 . S
C1188 C1204 1.368 . S
H1189 C1197 0.950 . S
H1190 C1195 0.950 . S
H1191 C1196 0.949 . S
H1192 C1198 0.950 . S
H1193 C1199 0.950 . S
H1194 C1200 0.949 . S
C1195 H1190 0.950 . S
C1195 C1197 1.327 . S
C1195 C1201 1.429 . S
C1196 C1188 1.574 . S
C1196 H1191 0.949 . S
C1196 C1202 1.368 . S
C1197 C1181 1.349 . S
C1197 H1189 0.950 . S
C1197 C1195 1.327 . S
C1198 C1186 1.349 . S
C1198 H1192 0.950 . S
C1198 C1199 1.327 . S
C1199 H1193 0.950 . S
C1199 C1198 1.327 . S
C1199 C1203 1.429 . S
C1200 C1183 1.574 . S
C1200 H1194 0.949 . S
C1200 C1204 1.368 . S
C1201 C1182 1.429 . S
C1201 C1195 1.429 . S
C1201 C1202 1.523 . S
C1202 C1183 1.368 . S
C1202 C1196 1.368 . S
C1202 C1201 1.523 . S
C1203 C1187 1.429 . S
C1203 C1199 1.429 . S
C1203 C1204 1.523 . S
C1204 C1188 1.368 . S
C1204 C1200 1.368 . S
C1204 C1203 1.523 . S
H1205 C1180 0.950 . S
H1206 C1182 0.950 . S
H1207 C1183 0.949 . S
H1208 C1185 0.950 . S
H1209 C1187 0.950 . S
C1210 C1211 1.349 . S
C1210 C1212 1.327 . S
C1210 H1235 0.950 . S
C1211 C1210 1.349 . S
C1211 C1227 1.349 . S
C1212 C1210 1.327 . S
C1212 C1231 1.429 . S
C1212 H1236 0.950 . S
C1213 C1230 1.574 . S
C1213 C1232 1.368 . S
C1213 H1237 0.949 . S
H1214 C1218 0.949 . S
C1215 C1216 1.349 . S
C1215 C1217 1.327 . S
C1215 H1238 0.961 . S
C1216 C1215 1.349 . S
C1216 C1228 1.349 . S
C1217 C1215 1.327 . S
C1217 C1233 1.429 . S
C1217 H1239 0.950 . S
C1218 H1214 0.949 . S
C1218 C1226 1.574 . S
C1218 C1234 1.368 . S
H1219 C1227 0.950 . S
H1220 C1225 0.950 . S
H1221 C1226 0.949 . S
H1222 C1228 0.950 . S
H1223 C1229 0.950 . S
H1224 C1230 0.949 . S
C1225 H1220 0.950 . S
C1225 C1227 1.327 . S
C1225 C1231 1.429 . S
C1226 C1218 1.574 . S
C1226 H1221 0.949 . S
C1226 C1232 1.368 . S
C1227 C1211 1.349 . S
C1227 H1219 0.950 . S
C1227 C1225 1.327 . S
C1228 C1216 1.349 . S
C1228 H1222 0.950 . S
C1228 C1229 1.327 . S
C1229 H1223 0.950 . S
C1229 C1228 1.327 . S
C1229 C1233 1.429 . S
C1230 C1213 1.574 . S
C1230 H1224 0.949 . S
C1230 C1234 1.368 . S
C1231 C1212 1.429 . S
C1231 C1225 1.429 . S
C1231 C1232 1.523 . S
C1232 C1213 1.368 . S
C1232 C1226 1.368 . S
C1232 C1231 1.523 . S
C1233 C1217 1.429 . S
C1233 C1229 1.429 . S
C1233 C1234 1.523 . S
C1234 C1218 1.368 . S
C1234 C1230 1.368 . S
C1234 C1233 1.523 . S
H1235 C1210 0.950 . S
H1236 C1212 0.950 . S
H1237 C1213 0.949 . S
H1238 C1215 0.961 . S
H1239 C1217 0.950 . S
C1240 C1241 1.349 . S
C1240 C1242 1.327 . S
C1240 H1265 0.950 . S
C1241 C1240 1.349 . S
C1241 C1257 1.349 . S
C1242 C1240 1.327 . S
C1242 C1261 1.429 . S
C1242 H1266 0.950 . S
C1243 C1260 1.574 . S
C1243 C1262 1.368 . S
C1243 H1267 0.949 . S
H1244 C1248 0.949 . S
C1245 C1246 1.349 . S
C1245 C1247 1.327 . S
C1245 H1268 0.950 1_545 S
C1246 C1245 1.349 . S
C1246 C1258 1.349 . S
C1247 C1245 1.327 . S
C1247 C1263 1.429 . S
C1247 H1269 0.950 . S
C1248 H1244 0.949 . S
C1248 C1256 1.574 . S
C1248 C1264 1.368 . S
H1249 C1257 0.950 . S
H1250 C1255 0.950 . S
H1251 C1256 0.949 . S
H1252 C1258 0.950 . S
H1253 C1259 0.950 . S
H1254 C1260 0.949 . S
C1255 H1250 0.950 . S
C1255 C1257 1.327 . S
C1255 C1261 1.429 . S
C1256 C1248 1.574 . S
C1256 H1251 0.949 . S
C1256 C1262 1.368 . S
C1257 C1241 1.349 . S
C1257 H1249 0.950 . S
C1257 C1255 1.327 . S
C1258 C1246 1.349 . S
C1258 H1252 0.950 . S
C1258 C1259 1.327 . S
C1259 H1253 0.950 . S
C1259 C1258 1.327 . S
C1259 C1263 1.429 . S
C1260 C1243 1.574 . S
C1260 H1254 0.949 . S
C1260 C1264 1.368 . S
C1261 C1242 1.429 . S
C1261 C1255 1.429 . S
C1261 C1262 1.523 . S
C1262 C1243 1.368 . S
C1262 C1256 1.368 . S
C1262 C1261 1.523 . S
C1263 C1247 1.429 . S
C1263 C1259 1.429 . S
C1263 C1264 1.523 . S
C1264 C1248 1.368 . S
C1264 C1260 1.368 . S
C1264 C1263 1.523 . S
H1265 C1240 0.950 . S
H1266 C1242 0.950 . S
H1267 C1243 0.949 . S
H1268 C1245 0.950 1_565 S
H1269 C1247 0.950 . S
C1270 C1271 1.349 . S
C1270 C1272 1.327 . S
C1270 H1295 0.950 . S
C1271 C1270 1.349 . S
C1271 C1287 1.349 . S
C1272 C1270 1.327 . S
C1272 C1291 1.429 . S
C1272 H1296 0.950 . S
C1273 C1290 1.574 . S
C1273 C1292 1.368 . S
C1273 H1297 0.949 . S
H1274 C1278 0.949 . S
C1275 C1276 1.349 . S
C1275 C1277 1.327 . S
C1275 H1298 0.950 . S
C1276 C1275 1.349 . S
C1276 C1288 1.349 . S
C1277 C1275 1.327 . S
C1277 C1293 1.429 . S
C1277 H1299 0.950 . S
C1278 H1274 0.949 . S
C1278 C1286 1.574 . S
C1278 C1294 1.368 . S
H1279 C1287 0.950 . S
H1280 C1285 0.950 . S
H1281 C1286 0.949 . S
H1282 C1288 0.950 . S
H1283 C1289 0.950 . S
H1284 C1290 0.949 . S
C1285 H1280 0.950 . S
C1285 C1287 1.327 . S
C1285 C1291 1.429 . S
C1286 C1278 1.574 . S
C1286 H1281 0.949 . S
C1286 C1292 1.368 . S
C1287 C1271 1.349 . S
C1287 H1279 0.950 . S
C1287 C1285 1.327 . S
C1288 C1276 1.349 . S
C1288 H1282 0.950 . S
C1288 C1289 1.327 . S
C1289 H1283 0.950 . S
C1289 C1288 1.327 . S
C1289 C1293 1.429 . S
C1290 C1273 1.574 . S
C1290 H1284 0.949 . S
C1290 C1294 1.368 . S
C1291 C1272 1.429 . S
C1291 C1285 1.429 . S
C1291 C1292 1.523 . S
C1292 C1273 1.368 . S
C1292 C1286 1.368 . S
C1292 C1291 1.523 . S
C1293 C1277 1.429 . S
C1293 C1289 1.429 . S
C1293 C1294 1.523 . S
C1294 C1278 1.368 . S
C1294 C1290 1.368 . S
C1294 C1293 1.523 . S
H1295 C1270 0.950 . S
H1296 C1272 0.950 . S
H1297 C1273 0.949 . S
H1298 C1275 0.950 . S
H1299 C1277 0.950 . S
C1300 C1301 1.349 . S
C1300 C1302 1.327 . S
C1300 H1325 0.950 . S
C1301 C1300 1.349 . S
C1301 C1317 1.349 . S
C1302 C1300 1.327 . S
C1302 C1321 1.429 . S
C1302 H1326 0.950 . S
C1303 C1320 1.574 . S
C1303 C1322 1.368 . S
C1303 H1327 0.949 . S
H1304 C1308 0.949 . S
C1305 C1306 1.349 . S
C1305 C1307 1.327 . S
C1305 H1328 0.950 . S
C1306 C1305 1.349 . S
C1306 C1318 1.349 . S
C1307 C1305 1.327 . S
C1307 C1323 1.429 . S
C1307 H1329 0.950 . S
C1308 H1304 0.949 . S
C1308 C1316 1.574 . S
C1308 C1324 1.368 . S
H1309 C1317 0.950 . S
H1310 C1315 0.950 . S
H1311 C1316 0.949 . S
H1312 C1318 0.950 . S
H1313 C1319 0.950 . S
H1314 C1320 0.949 . S
C1315 H1310 0.950 . S
C1315 C1317 1.327 . S
C1315 C1321 1.429 . S
C1316 C1308 1.574 . S
C1316 H1311 0.949 . S
C1316 C1322 1.368 . S
C1317 C1301 1.349 . S
C1317 H1309 0.950 . S
C1317 C1315 1.327 . S
C1318 C1306 1.349 . S
C1318 H1312 0.950 . S
C1318 C1319 1.327 . S
C1319 H1313 0.950 . S
C1319 C1318 1.327 . S
C1319 C1323 1.429 . S
C1320 C1303 1.574 . S
C1320 H1314 0.949 . S
C1320 C1324 1.368 . S
C1321 C1302 1.429 . S
C1321 C1315 1.429 . S
C1321 C1322 1.523 . S
C1322 C1303 1.368 . S
C1322 C1316 1.368 . S
C1322 C1321 1.523 . S
C1323 C1307 1.429 . S
C1323 C1319 1.429 . S
C1323 C1324 1.523 . S
C1324 C1308 1.368 . S
C1324 C1320 1.368 . S
C1324 C1323 1.523 . S
H1325 C1300 0.950 . S
H1326 C1302 0.950 . S
H1327 C1303 0.949 . S
H1328 C1305 0.950 . S
H1329 C1307 0.950 . S
C1330 C1331 1.349 . S
C1330 C1332 1.327 . S
C1330 H1355 0.950 . S
C1331 C1330 1.349 . S
C1331 C1347 1.349 . S
C1332 C1330 1.327 . S
C1332 C1351 1.429 . S
C1332 H1356 0.950 . S
C1333 C1350 1.574 . S
C1333 C1352 1.368 . S
C1333 H1357 0.949 . S
H1334 C1338 0.949 . S
C1335 C1336 1.349 . S
C1335 C1337 1.327 . S
C1335 H1358 0.950 . S
C1336 C1335 1.349 . S
C1336 C1348 1.349 . S
C1337 C1335 1.327 . S
C1337 C1353 1.429 . S
C1337 H1359 0.950 . S
C1338 H1334 0.949 . S
C1338 C1346 1.574 . S
C1338 C1354 1.368 . S
H1339 C1347 0.950 . S
H1340 C1345 0.950 . S
H1341 C1346 0.949 . S
H1342 C1348 0.950 1_655 S
H1343 C1349 0.950 . S
H1344 C1350 0.949 . S
C1345 H1340 0.950 . S
C1345 C1347 1.327 . S
C1345 C1351 1.429 . S
C1346 C1338 1.574 . S
C1346 H1341 0.949 . S
C1346 C1352 1.368 . S
C1347 C1331 1.349 . S
C1347 H1339 0.950 . S
C1347 C1345 1.327 . S
C1348 C1336 1.349 . S
C1348 H1342 0.950 1_455 S
C1348 C1349 1.327 . S
C1349 H1343 0.950 . S
C1349 C1348 1.327 . S
C1349 C1353 1.429 . S
C1350 C1333 1.574 . S
C1350 H1344 0.949 . S
C1350 C1354 1.368 . S
C1351 C1332 1.429 . S
C1351 C1345 1.429 . S
C1351 C1352 1.523 . S
C1352 C1333 1.368 . S
C1352 C1346 1.368 . S
C1352 C1351 1.523 . S
C1353 C1337 1.429 . S
C1353 C1349 1.429 . S
C1353 C1354 1.523 . S
C1354 C1338 1.368 . S
C1354 C1350 1.368 . S
C1354 C1353 1.523 . S
H1355 C1330 0.950 . S
H1356 C1332 0.950 . S
H1357 C1333 0.949 . S
H1358 C1335 0.950 . S
H1359 C1337 0.950 . S
C1360 C1361 1.349 . S
C1360 C1362 1.327 . S
C1360 H1385 0.950 . S
C1361 C1360 1.349 . S
C1361 C1377 1.349 . S
C1362 C1360 1.327 . S
C1362 C1381 1.429 . S
C1362 H1386 0.950 . S
C1363 C1380 1.574 . S
C1363 C1382 1.368 . S
C1363 H1387 0.949 . S
H1364 C1368 0.949 . S
C1365 C1366 1.349 . S
C1365 C1367 1.327 . S
C1365 H1388 0.950 . S
C1366 C1365 1.349 . S
C1366 C1378 1.349 . S
C1367 C1365 1.327 . S
C1367 C1383 1.429 . S
C1367 H1389 0.950 . S
C1368 H1364 0.949 . S
C1368 C1376 1.574 . S
C1368 C1384 1.368 . S
H1369 C1377 0.950 . S
H1370 C1375 0.950 . S
H1371 C1376 0.949 . S
H1372 C1378 0.950 . S
H1373 C1379 0.950 . S
H1374 C1380 0.949 . S
C1375 H1370 0.950 . S
C1375 C1377 1.327 . S
C1375 C1381 1.429 . S
C1376 C1368 1.574 . S
C1376 H1371 0.949 . S
C1376 C1382 1.368 . S
C1377 C1361 1.349 . S
C1377 H1369 0.950 . S
C1377 C1375 1.327 . S
C1378 C1366 1.349 . S
C1378 H1372 0.950 . S
C1378 C1379 1.327 . S
C1379 H1373 0.950 . S
C1379 C1378 1.327 . S
C1379 C1383 1.429 . S
C1380 C1363 1.574 . S
C1380 H1374 0.949 . S
C1380 C1384 1.368 . S
C1381 C1362 1.429 . S
C1381 C1375 1.429 . S
C1381 C1382 1.523 . S
C1382 C1363 1.368 . S
C1382 C1376 1.368 . S
C1382 C1381 1.523 . S
C1383 C1367 1.429 . S
C1383 C1379 1.429 . S
C1383 C1384 1.523 . S
C1384 C1368 1.368 . S
C1384 C1380 1.368 . S
C1384 C1383 1.523 . S
H1385 C1360 0.950 . S
H1386 C1362 0.950 . S
H1387 C1363 0.949 . S
H1388 C1365 0.950 . S
H1389 C1367 0.950 . S
C1390 C1391 1.349 . S
C1390 C1392 1.327 . S
C1390 H1415 0.950 . S
C1391 C1390 1.349 . S
C1391 C1407 1.349 . S
C1392 C1390 1.327 . S
C1392 C1411 1.429 . S
C1392 H1416 0.950 . S
C1393 C1410 1.574 . S
C1393 C1412 1.368 . S
C1393 H1417 0.949 . S
H1394 C1398 0.949 . S
C1395 C1396 1.349 . S
C1395 C1397 1.327 . S
C1395 H1418 0.950 . S
C1396 C1395 1.349 . S
C1396 C1408 1.349 . S
C1397 C1395 1.327 . S
C1397 C1413 1.429 . S
C1397 H1419 0.950 . S
C1398 H1394 0.949 . S
C1398 C1406 1.574 . S
C1398 C1414 1.368 . S
H1399 C1407 0.950 . S
H1400 C1405 0.950 . S
H1401 C1406 0.949 . S
H1402 C1408 0.950 . S
H1403 C1409 0.950 . S
H1404 C1410 0.949 . S
C1405 H1400 0.950 . S
C1405 C1407 1.327 . S
C1405 C1411 1.429 . S
C1406 C1398 1.574 . S
C1406 H1401 0.949 . S
C1406 C1412 1.368 . S
C1407 C1391 1.349 . S
C1407 H1399 0.950 . S
C1407 C1405 1.327 . S
C1408 C1396 1.349 . S
C1408 H1402 0.950 . S
C1408 C1409 1.327 . S
C1409 H1403 0.950 . S
C1409 C1408 1.327 . S
C1409 C1413 1.429 . S
C1410 C1393 1.574 . S
C1410 H1404 0.949 . S
C1410 C1414 1.368 . S
C1411 C1392 1.429 . S
C1411 C1405 1.429 . S
C1411 C1412 1.523 . S
C1412 C1393 1.368 . S
C1412 C1406 1.368 . S
C1412 C1411 1.523 . S
C1413 C1397 1.429 . S
C1413 C1409 1.429 . S
C1413 C1414 1.523 . S
C1414 C1398 1.368 . S
C1414 C1410 1.368 . S
C1414 C1413 1.523 . S
H1415 C1390 0.950 . S
H1416 C1392 0.950 . S
H1417 C1393 0.949 . S
H1418 C1395 0.950 . S
H1419 C1397 0.950 . S
C1420 C1421 1.349 . S
C1420 C1422 1.327 . S
C1420 H1445 0.950 . S
C1421 C1420 1.349 . S
C1421 C1437 1.349 . S
C1422 C1420 1.327 . S
C1422 C1441 1.429 . S
C1422 H1446 0.950 . S
C1423 C1440 1.574 . S
C1423 C1442 1.368 . S
C1423 H1447 0.949 . S
H1424 C1428 0.949 . S
C1425 C1426 1.349 . S
C1425 C1427 1.327 . S
C1425 H1448 0.950 . S
C1426 C1425 1.349 . S
C1426 C1438 1.349 . S
C1427 C1425 1.327 . S
C1427 C1443 1.429 . S
C1427 H1449 0.950 . S
C1428 H1424 0.949 . S
C1428 C1436 1.574 . S
C1428 C1444 1.368 . S
H1429 C1437 0.950 . S
H1430 C1435 0.950 . S
H1431 C1436 0.949 . S
H1432 C1438 0.950 . S
H1433 C1439 0.950 . S
H1434 C1440 0.949 . S
C1435 H1430 0.950 . S
C1435 C1437 1.327 . S
C1435 C1441 1.429 . S
C1436 C1428 1.574 . S
C1436 H1431 0.949 . S
C1436 C1442 1.368 . S
C1437 C1421 1.349 . S
C1437 H1429 0.950 . S
C1437 C1435 1.327 . S
C1438 C1426 1.349 . S
C1438 H1432 0.950 . S
C1438 C1439 1.327 . S
C1439 H1433 0.950 . S
C1439 C1438 1.327 . S
C1439 C1443 1.429 . S
C1440 C1423 1.574 . S
C1440 H1434 0.949 . S
C1440 C1444 1.368 . S
C1441 C1422 1.429 . S
C1441 C1435 1.429 . S
C1441 C1442 1.523 . S
C1442 C1423 1.368 . S
C1442 C1436 1.368 . S
C1442 C1441 1.523 . S
C1443 C1427 1.429 . S
C1443 C1439 1.429 . S
C1443 C1444 1.523 . S
C1444 C1428 1.368 . S
C1444 C1440 1.368 . S
C1444 C1443 1.523 . S
H1445 C1420 0.950 . S
H1446 C1422 0.950 . S
H1447 C1423 0.949 . S
H1448 C1425 0.950 . S
H1449 C1427 0.950 . S
C1450 C1451 1.349 . S
C1450 C1452 1.327 . S
C1450 H1475 0.950 . S
C1451 C1450 1.349 . S
C1451 C1467 1.349 . S
C1452 C1450 1.327 . S
C1452 C1471 1.429 . S
C1452 H1476 0.950 . S
C1453 C1470 1.574 . S
C1453 C1472 1.368 . S
C1453 H1477 0.949 . S
H1454 C1458 0.949 . S
C1455 C1456 1.349 . S
C1455 C1457 1.327 . S
C1455 H1478 0.950 . S
C1456 C1455 1.349 . S
C1456 C1468 1.349 . S
C1457 C1455 1.327 . S
C1457 C1473 1.429 . S
C1457 H1479 0.950 . S
C1458 H1454 0.949 . S
C1458 C1466 1.574 . S
C1458 C1474 1.368 . S
H1459 C1467 0.950 . S
H1460 C1465 0.950 . S
H1461 C1466 0.949 . S
H1462 C1468 0.950 . S
H1463 C1469 0.950 . S
H1464 C1470 0.949 . S
C1465 H1460 0.950 . S
C1465 C1467 1.327 . S
C1465 C1471 1.429 . S
C1466 C1458 1.574 . S
C1466 H1461 0.949 . S
C1466 C1472 1.368 . S
C1467 C1451 1.349 . S
C1467 H1459 0.950 . S
C1467 C1465 1.327 . S
C1468 C1456 1.349 . S
C1468 H1462 0.950 . S
C1468 C1469 1.327 . S
C1469 H1463 0.950 . S
C1469 C1468 1.327 . S
C1469 C1473 1.429 . S
C1470 C1453 1.574 . S
C1470 H1464 0.949 . S
C1470 C1474 1.368 . S
C1471 C1452 1.429 . S
C1471 C1465 1.429 . S
C1471 C1472 1.523 . S
C1472 C1453 1.368 . S
C1472 C1466 1.368 . S
C1472 C1471 1.523 . S
C1473 C1457 1.429 . S
C1473 C1469 1.429 . S
C1473 C1474 1.523 . S
C1474 C1458 1.368 . S
C1474 C1470 1.368 . S
C1474 C1473 1.523 . S
H1475 C1450 0.950 . S
H1476 C1452 0.950 . S
H1477 C1453 0.949 . S
H1478 C1455 0.950 . S
H1479 C1457 0.950 . S
C1480 C1481 1.349 . S
C1480 C1482 1.327 . S
C1480 H1505 0.950 . S
C1481 C1480 1.349 . S
C1481 C1497 1.349 . S
C1482 C1480 1.327 . S
C1482 C1501 1.429 . S
C1482 H1506 0.950 . S
C1483 C1500 1.574 . S
C1483 C1502 1.368 . S
C1483 H1507 0.949 . S
H1484 C1488 0.949 . S
C1485 C1486 1.349 . S
C1485 C1487 1.327 . S
C1485 H1508 0.950 . S
C1486 C1485 1.349 . S
C1486 C1498 1.349 . S
C1487 C1485 1.327 . S
C1487 C1503 1.429 . S
C1487 H1509 0.950 . S
C1488 H1484 0.949 . S
C1488 C1496 1.574 . S
C1488 C1504 1.368 . S
H1489 C1497 0.950 . S
H1490 C1495 0.950 . S
H1491 C1496 0.949 . S
H1492 C1498 0.950 . S
H1493 C1499 0.950 . S
H1494 C1500 0.949 . S
C1495 H1490 0.950 . S
C1495 C1497 1.327 . S
C1495 C1501 1.429 . S
C1496 C1488 1.574 . S
C1496 H1491 0.949 . S
C1496 C1502 1.368 . S
C1497 C1481 1.349 . S
C1497 H1489 0.950 . S
C1497 C1495 1.327 . S
C1498 C1486 1.349 . S
C1498 H1492 0.950 . S
C1498 C1499 1.327 . S
C1499 H1493 0.950 . S
C1499 C1498 1.327 . S
C1499 C1503 1.429 . S
C1500 C1483 1.574 . S
C1500 H1494 0.949 . S
C1500 C1504 1.368 . S
C1501 C1482 1.429 . S
C1501 C1495 1.429 . S
C1501 C1502 1.523 . S
C1502 C1483 1.368 . S
C1502 C1496 1.368 . S
C1502 C1501 1.523 . S
C1503 C1487 1.429 . S
C1503 C1499 1.429 . S
C1503 C1504 1.523 . S
C1504 C1488 1.368 . S
C1504 C1500 1.368 . S
C1504 C1503 1.523 . S
H1505 C1480 0.950 . S
H1506 C1482 0.950 . S
H1507 C1483 0.949 . S
H1508 C1485 0.950 . S
H1509 C1487 0.950 . S
C1510 C1511 1.349 . S
C1510 C1512 1.327 . S
C1510 H1535 0.950 . S
C1511 C1510 1.349 . S
C1511 C1527 1.349 . S
C1512 C1510 1.327 . S
C1512 C1531 1.429 . S
C1512 H1536 0.950 . S
C1513 C1530 1.574 . S
C1513 C1532 1.368 . S
C1513 H1537 0.949 . S
H1514 C1518 0.949 . S
C1515 C1516 1.349 . S
C1515 C1517 1.327 . S
C1515 H1538 0.950 . S
C1516 C1515 1.349 . S
C1516 C1528 1.349 . S
C1517 C1515 1.327 . S
C1517 C1533 1.429 . S
C1517 H1539 0.950 . S
C1518 H1514 0.949 . S
C1518 C1526 1.574 . S
C1518 C1534 1.368 . S
H1519 C1527 0.950 . S
H1520 C1525 0.950 . S
H1521 C1526 0.949 . S
H1522 C1528 0.950 . S
H1523 C1529 0.950 . S
H1524 C1530 0.949 . S
C1525 H1520 0.950 . S
C1525 C1527 1.327 . S
C1525 C1531 1.429 . S
C1526 C1518 1.574 . S
C1526 H1521 0.949 . S
C1526 C1532 1.368 . S
C1527 C1511 1.349 . S
C1527 H1519 0.950 . S
C1527 C1525 1.327 . S
C1528 C1516 1.349 . S
C1528 H1522 0.950 . S
C1528 C1529 1.327 . S
C1529 H1523 0.950 . S
C1529 C1528 1.327 . S
C1529 C1533 1.429 . S
C1530 C1513 1.574 . S
C1530 H1524 0.949 . S
C1530 C1534 1.368 . S
C1531 C1512 1.429 . S
C1531 C1525 1.429 . S
C1531 C1532 1.523 . S
C1532 C1513 1.368 . S
C1532 C1526 1.368 . S
C1532 C1531 1.523 . S
C1533 C1517 1.429 . S
C1533 C1529 1.429 . S
C1533 C1534 1.523 . S
C1534 C1518 1.368 . S
C1534 C1530 1.368 . S
C1534 C1533 1.523 . S
H1535 C1510 0.950 . S
H1536 C1512 0.950 . S
H1537 C1513 0.949 . S
H1538 C1515 0.950 . S
H1539 C1517 0.950 . S
C1540 C1541 1.349 . S
C1540 C1542 1.327 . S
C1540 H1565 0.950 . S
C1541 C1540 1.349 . S
C1541 C1557 1.349 . S
C1542 C1540 1.327 . S
C1542 C1561 1.429 . S
C1542 H1566 0.950 . S
C1543 C1560 1.574 . S
C1543 C1562 1.368 . S
C1543 H1567 0.949 . S
H1544 C1548 0.949 . S
C1545 C1546 1.349 . S
C1545 C1547 1.327 . S
C1545 H1568 0.950 . S
C1546 C1545 1.349 . S
C1546 C1558 1.349 . S
C1547 C1545 1.327 . S
C1547 C1563 1.429 . S
C1547 H1569 0.950 . S
C1548 H1544 0.949 . S
C1548 C1556 1.574 . S
C1548 C1564 1.368 . S
H1549 C1557 0.950 . S
H1550 C1555 0.950 . S
H1551 C1556 0.949 . S
H1552 C1558 0.950 . S
H1553 C1559 0.950 . S
H1554 C1560 0.949 . S
C1555 H1550 0.950 . S
C1555 C1557 1.327 . S
C1555 C1561 1.429 . S
C1556 C1548 1.574 . S
C1556 H1551 0.949 . S
C1556 C1562 1.368 . S
C1557 C1541 1.349 . S
C1557 H1549 0.950 . S
C1557 C1555 1.327 . S
C1558 C1546 1.349 . S
C1558 H1552 0.950 . S
C1558 C1559 1.327 . S
C1559 H1553 0.950 . S
C1559 C1558 1.327 . S
C1559 C1563 1.429 . S
C1560 C1543 1.574 . S
C1560 H1554 0.949 . S
C1560 C1564 1.368 . S
C1561 C1542 1.429 . S
C1561 C1555 1.429 . S
C1561 C1562 1.523 . S
C1562 C1543 1.368 . S
C1562 C1556 1.368 . S
C1562 C1561 1.523 . S
C1563 C1547 1.429 . S
C1563 C1559 1.429 . S
C1563 C1564 1.523 . S
C1564 C1548 1.368 . S
C1564 C1560 1.368 . S
C1564 C1563 1.523 . S
H1565 C1540 0.950 . S
H1566 C1542 0.950 . S
H1567 C1543 0.949 . S
H1568 C1545 0.950 . S
H1569 C1547 0.950 . S
C1570 C1571 1.349 . S
C1570 C1572 1.327 . S
C1570 H1595 0.950 . S
C1571 C1570 1.349 . S
C1571 C1587 1.349 . S
C1572 C1570 1.327 . S
C1572 C1591 1.429 . S
C1572 H1596 0.950 . S
C1573 C1590 1.574 . S
C1573 C1592 1.368 . S
C1573 H1597 0.949 . S
H1574 C1578 0.949 . S
C1575 C1576 1.349 . S
C1575 C1577 1.327 . S
C1575 H1598 0.950 . S
C1576 C1575 1.349 . S
C1576 C1588 1.349 . S
C1577 C1575 1.327 . S
C1577 C1593 1.429 . S
C1577 H1599 0.950 . S
C1578 H1574 0.949 . S
C1578 C1586 1.574 . S
C1578 C1594 1.368 . S
H1579 C1587 0.950 . S
H1580 C1585 0.950 . S
H1581 C1586 0.949 . S
H1582 C1588 0.950 . S
H1583 C1589 0.950 . S
H1584 C1590 0.949 . S
C1585 H1580 0.950 . S
C1585 C1587 1.327 . S
C1585 C1591 1.429 . S
C1586 C1578 1.574 . S
C1586 H1581 0.949 . S
C1586 C1592 1.368 . S
C1587 C1571 1.349 . S
C1587 H1579 0.950 . S
C1587 C1585 1.327 . S
C1588 C1576 1.349 . S
C1588 H1582 0.950 . S
C1588 C1589 1.327 . S
C1589 H1583 0.950 . S
C1589 C1588 1.327 . S
C1589 C1593 1.429 . S
C1590 C1573 1.574 . S
C1590 H1584 0.949 . S
C1590 C1594 1.368 . S
C1591 C1572 1.429 . S
C1591 C1585 1.429 . S
C1591 C1592 1.523 . S
C1592 C1573 1.368 . S
C1592 C1586 1.368 . S
C1592 C1591 1.523 . S
C1593 C1577 1.429 . S
C1593 C1589 1.429 . S
C1593 C1594 1.523 . S
C1594 C1578 1.368 . S
C1594 C1590 1.368 . S
C1594 C1593 1.523 . S
H1595 C1570 0.950 . S
H1596 C1572 0.950 . S
H1597 C1573 0.949 . S
H1598 C1575 0.950 . S
H1599 C1577 0.950 . S
C1600 C1601 1.349 . S
C1600 C1602 1.327 . S
C1600 H1625 0.950 . S
C1601 C1600 1.349 . S
C1601 C1617 1.349 . S
C1602 C1600 1.327 . S
C1602 C1621 1.429 . S
C1602 H1626 0.950 . S
C1603 C1620 1.574 . S
C1603 C1622 1.368 . S
C1603 H1627 0.949 . S
H1604 C1608 0.949 . S
C1605 C1606 1.349 . S
C1605 C1607 1.327 . S
C1605 H1628 0.950 . S
C1606 C1605 1.349 . S
C1606 C1618 1.349 . S
C1607 C1605 1.327 . S
C1607 C1623 1.429 . S
C1607 H1629 0.950 . S
C1608 H1604 0.949 . S
C1608 C1616 1.574 . S
C1608 C1624 1.368 . S
H1609 C1617 0.950 . S
H1610 C1615 0.950 . S
H1611 C1616 0.949 . S
H1612 C1618 0.950 . S
H1613 C1619 0.950 . S
H1614 C1620 0.949 . S
C1615 H1610 0.950 . S
C1615 C1617 1.327 . S
C1615 C1621 1.429 . S
C1616 C1608 1.574 . S
C1616 H1611 0.949 . S
C1616 C1622 1.368 . S
C1617 C1601 1.349 . S
C1617 H1609 0.950 . S
C1617 C1615 1.327 . S
C1618 C1606 1.349 . S
C1618 H1612 0.950 . S
C1618 C1619 1.327 . S
C1619 H1613 0.950 . S
C1619 C1618 1.327 . S
C1619 C1623 1.429 . S
C1620 C1603 1.574 . S
C1620 H1614 0.949 . S
C1620 C1624 1.368 . S
C1621 C1602 1.429 . S
C1621 C1615 1.429 . S
C1621 C1622 1.523 . S
C1622 C1603 1.368 . S
C1622 C1616 1.368 . S
C1622 C1621 1.523 . S
C1623 C1607 1.429 . S
C1623 C1619 1.429 . S
C1623 C1624 1.523 . S
C1624 C1608 1.368 . S
C1624 C1620 1.368 . S
C1624 C1623 1.523 . S
H1625 C1600 0.950 . S
H1626 C1602 0.950 . S
H1627 C1603 0.949 . S
H1628 C1605 0.950 . S
H1629 C1607 0.950 . S
C1630 C1631 1.349 . S
C1630 C1632 1.327 . S
C1630 H1655 0.950 . S
C1631 C1630 1.349 . S
C1631 C1647 1.349 . S
C1632 C1630 1.327 . S
C1632 C1651 1.429 . S
C1632 H1656 0.950 . S
C1633 C1650 1.574 . S
C1633 C1652 1.368 . S
C1633 H1657 0.949 . S
H1634 C1638 0.949 . S
C1635 C1636 1.349 . S
C1635 C1637 1.327 . S
C1635 H1658 0.950 . S
C1636 C1635 1.349 . S
C1636 C1648 1.349 . S
C1637 C1635 1.327 . S
C1637 C1653 1.429 . S
C1637 H1659 0.950 . S
C1638 H1634 0.949 . S
C1638 C1646 1.574 . S
C1638 C1654 1.368 . S
H1639 C1647 0.950 . S
H1640 C1645 0.950 . S
H1641 C1646 0.949 . S
H1642 C1648 0.950 . S
H1643 C1649 0.950 . S
H1644 C1650 0.949 . S
C1645 H1640 0.950 . S
C1645 C1647 1.327 . S
C1645 C1651 1.429 . S
C1646 C1638 1.574 . S
C1646 H1641 0.949 . S
C1646 C1652 1.368 . S
C1647 C1631 1.349 . S
C1647 H1639 0.950 . S
C1647 C1645 1.327 . S
C1648 C1636 1.349 . S
C1648 H1642 0.950 . S
C1648 C1649 1.327 . S
C1649 H1643 0.950 . S
C1649 C1648 1.327 . S
C1649 C1653 1.429 . S
C1650 C1633 1.574 . S
C1650 H1644 0.949 . S
C1650 C1654 1.368 . S
C1651 C1632 1.429 . S
C1651 C1645 1.429 . S
C1651 C1652 1.523 . S
C1652 C1633 1.368 . S
C1652 C1646 1.368 . S
C1652 C1651 1.523 . S
C1653 C1637 1.429 . S
C1653 C1649 1.429 . S
C1653 C1654 1.523 . S
C1654 C1638 1.368 . S
C1654 C1650 1.368 . S
C1654 C1653 1.523 . S
H1655 C1630 0.950 . S
H1656 C1632 0.950 . S
H1657 C1633 0.949 . S
H1658 C1635 0.950 . S
H1659 C1637 0.950 . S
C1660 C1661 1.349 . S
C1660 C1662 1.327 . S
C1660 H1685 0.950 . S
C1661 C1660 1.349 . S
C1661 C1677 1.349 . S
C1662 C1660 1.327 . S
C1662 C1681 1.429 . S
C1662 H1686 0.950 . S
C1663 C1680 1.574 . S
C1663 C1682 1.368 . S
C1663 H1687 0.949 . S
H1664 C1668 0.949 . S
C1665 C1666 1.349 . S
C1665 C1667 1.327 . S
C1665 H1688 0.950 . S
C1666 C1665 1.349 . S
C1666 C1678 1.349 . S
C1667 C1665 1.327 . S
C1667 C1683 1.429 . S
C1667 H1689 0.950 . S
C1668 H1664 0.949 . S
C1668 C1676 1.574 . S
C1668 C1684 1.368 . S
H1669 C1677 0.950 . S
H1670 C1675 0.950 . S
H1671 C1676 0.949 . S
H1672 C1678 0.950 . S
H1673 C1679 0.950 . S
H1674 C1680 0.949 . S
C1675 H1670 0.950 . S
C1675 C1677 1.327 . S
C1675 C1681 1.429 . S
C1676 C1668 1.574 . S
C1676 H1671 0.949 . S
C1676 C1682 1.368 . S
C1677 C1661 1.349 . S
C1677 H1669 0.950 . S
C1677 C1675 1.327 . S
C1678 C1666 1.349 . S
C1678 H1672 0.950 . S
C1678 C1679 1.327 . S
C1679 H1673 0.950 . S
C1679 C1678 1.327 . S
C1679 C1683 1.429 . S
C1680 C1663 1.574 . S
C1680 H1674 0.949 . S
C1680 C1684 1.368 . S
C1681 C1662 1.429 . S
C1681 C1675 1.429 . S
C1681 C1682 1.523 . S
C1682 C1663 1.368 . S
C1682 C1676 1.368 . S
C1682 C1681 1.523 . S
C1683 C1667 1.429 . S
C1683 C1679 1.429 . S
C1683 C1684 1.523 . S
C1684 C1668 1.368 . S
C1684 C1680 1.368 . S
C1684 C1683 1.523 . S
H1685 C1660 0.950 . S
H1686 C1662 0.950 . S
H1687 C1663 0.949 . S
H1688 C1665 0.950 . S
H1689 C1667 0.950 . S
C1690 C1691 1.349 . S
C1690 C1692 1.327 . S
C1690 H1715 0.950 . S
C1691 C1690 1.349 . S
C1691 C1707 1.349 . S
C1692 C1690 1.327 . S
C1692 C1711 1.429 . S
C1692 H1716 0.950 . S
C1693 C1710 1.574 . S
C1693 C1712 1.368 . S
C1693 H1717 0.949 . S
H1694 C1698 0.949 . S
C1695 C1696 1.349 . S
C1695 C1697 1.327 . S
C1695 H1718 0.950 . S
C1696 C1695 1.349 . S
C1696 C1708 1.349 . S
C1697 C1695 1.327 . S
C1697 C1713 1.429 . S
C1697 H1719 0.950 . S
C1698 H1694 0.949 . S
C1698 C1706 1.574 . S
C1698 C1714 1.368 . S
H1699 C1707 0.950 . S
H1700 C1705 0.950 . S
H1701 C1706 0.949 . S
H1702 C1708 0.950 . S
H1703 C1709 0.950 . S
H1704 C1710 0.949 . S
C1705 H1700 0.950 . S
C1705 C1707 1.327 . S
C1705 C1711 1.429 . S
C1706 C1698 1.574 . S
C1706 H1701 0.949 . S
C1706 C1712 1.368 . S
C1707 C1691 1.349 . S
C1707 H1699 0.950 . S
C1707 C1705 1.327 . S
C1708 C1696 1.349 . S
C1708 H1702 0.950 . S
C1708 C1709 1.327 . S
C1709 H1703 0.950 . S
C1709 C1708 1.327 . S
C1709 C1713 1.429 . S
C1710 C1693 1.574 . S
C1710 H1704 0.949 . S
C1710 C1714 1.368 . S
C1711 C1692 1.429 . S
C1711 C1705 1.429 . S
C1711 C1712 1.523 . S
C1712 C1693 1.368 . S
C1712 C1706 1.368 . S
C1712 C1711 1.523 . S
C1713 C1697 1.429 . S
C1713 C1709 1.429 . S
C1713 C1714 1.523 . S
C1714 C1698 1.368 . S
C1714 C1710 1.368 . S
C1714 C1713 1.523 . S
H1715 C1690 0.950 . S
H1716 C1692 0.950 . S
H1717 C1693 0.949 . S
H1718 C1695 0.950 . S
H1719 C1697 0.950 . S
C1720 C1721 1.349 . S
C1720 C1722 1.327 . S
C1720 H1745 0.950 . S
C1721 C1720 1.349 . S
C1721 C1737 1.349 . S
C1722 C1720 1.327 . S
C1722 C1741 1.429 . S
C1722 H1746 0.950 . S
C1723 C1740 1.574 . S
C1723 C1742 1.368 . S
C1723 H1747 0.949 1_554 S
H1724 C1728 0.949 . S
C1725 C1726 1.349 . S
C1725 C1727 1.327 . S
C1725 H1748 0.950 . S
C1726 C1725 1.349 . S
C1726 C1738 1.349 . S
C1727 C1725 1.327 . S
C1727 C1743 1.429 . S
C1727 H1749 0.950 . S
C1728 H1724 0.949 . S
C1728 C1736 1.574 . S
C1728 C1744 1.368 . S
H1729 C1737 0.950 . S
H1730 C1735 0.950 . S
H1731 C1736 0.949 . S
H1732 C1738 0.950 . S
H1733 C1739 0.950 . S
H1734 C1740 0.949 . S
C1735 H1730 0.950 . S
C1735 C1737 1.327 . S
C1735 C1741 1.429 . S
C1736 C1728 1.574 . S
C1736 H1731 0.949 . S
C1736 C1742 1.368 . S
C1737 C1721 1.349 . S
C1737 H1729 0.950 . S
C1737 C1735 1.327 . S
C1738 C1726 1.349 . S
C1738 H1732 0.950 . S
C1738 C1739 1.327 . S
C1739 H1733 0.950 . S
C1739 C1738 1.327 . S
C1739 C1743 1.429 . S
C1740 C1723 1.574 . S
C1740 H1734 0.949 . S
C1740 C1744 1.368 . S
C1741 C1722 1.429 . S
C1741 C1735 1.429 . S
C1741 C1742 1.523 1_556 S
C1742 C1723 1.368 . S
C1742 C1736 1.368 . S
C1742 C1741 1.523 1_554 S
C1743 C1727 1.429 . S
C1743 C1739 1.429 . S
C1743 C1744 1.523 . S
C1744 C1728 1.368 . S
C1744 C1740 1.368 . S
C1744 C1743 1.523 . S
H1745 C1720 0.950 . S
H1746 C1722 0.950 . S
H1747 C1723 0.949 1_556 S
H1748 C1725 0.950 . S
H1749 C1727 0.950 . S
C1750 C1751 1.349 . S
C1750 C1752 1.327 . S
C1750 H1775 0.950 . S
C1751 C1750 1.349 . S
C1751 C1767 1.349 . S
C1752 C1750 1.327 . S
C1752 C1771 1.429 . S
C1752 H1776 0.950 . S
C1753 C1770 1.574 . S
C1753 C1772 1.368 . S
C1753 H1777 0.949 . S
H1754 C1758 0.949 . S
C1755 C1756 1.349 . S
C1755 C1757 1.341 . S
C1755 H1778 0.950 . S
C1756 C1755 1.349 . S
C1756 C1768 1.349 . S
C1757 C1755 1.341 . S
C1757 C1773 1.437 . S
C1757 H1779 0.928 1_556 S
C1758 H1754 0.949 . S
C1758 C1766 1.574 1_556 S
C1758 C1774 1.368 1_556 S
H1759 C1767 0.950 . S
H1760 C1765 0.950 . S
H1761 C1766 0.949 . S
H1762 C1768 0.950 . S
H1763 C1769 0.950 . S
H1764 C1770 0.949 . S
C1765 H1760 0.950 . S
C1765 C1767 1.327 . S
C1765 C1771 1.429 . S
C1766 C1758 1.574 1_554 S
C1766 H1761 0.949 . S
C1766 C1772 1.368 . S
C1767 C1751 1.349 . S
C1767 H1759 0.950 . S
C1767 C1765 1.327 . S
C1768 C1756 1.349 . S
C1768 H1762 0.950 . S
C1768 C1769 1.327 . S
C1769 H1763 0.950 . S
C1769 C1768 1.327 . S
C1769 C1773 1.429 . S
C1770 C1753 1.574 . S
C1770 H1764 0.949 . S
C1770 C1774 1.368 . S
C1771 C1752 1.429 . S
C1771 C1765 1.429 . S
C1771 C1772 1.523 . S
C1772 C1753 1.368 . S
C1772 C1766 1.368 . S
C1772 C1771 1.523 . S
C1773 C1757 1.437 . S
C1773 C1769 1.429 . S
C1773 C1774 1.523 1_556 S
C1774 C1758 1.368 1_554 S
C1774 C1770 1.368 . S
C1774 C1773 1.523 1_554 S
H1775 C1750 0.950 . S
H1776 C1752 0.950 . S
H1777 C1753 0.949 . S
H1778 C1755 0.950 . S
H1779 C1757 0.928 1_554 S
C1780 C1781 1.349 . S
C1780 C1782 1.327 . S
C1780 H1805 0.950 . S
C1781 C1780 1.349 . S
C1781 C1797 1.349 . S
C1782 C1780 1.327 . S
C1782 C1801 1.429 . S
C1782 H1806 0.950 . S
C1783 C1800 1.574 . S
C1783 C1802 1.368 . S
C1783 H1807 0.949 . S
H1784 C1788 0.949 . S
C1785 C1786 1.349 . S
C1785 C1787 1.327 . S
C1785 H1808 0.950 . S
C1786 C1785 1.349 . S
C1786 C1798 1.349 . S
C1787 C1785 1.327 . S
C1787 C1803 1.429 . S
C1787 H1809 0.950 . S
C1788 H1784 0.949 . S
C1788 C1796 1.574 1_554 S
C1788 C1804 1.368 . S
H1789 C1797 0.950 . S
H1790 C1795 0.950 1_554 S
H1791 C1796 0.949 . S
H1792 C1798 0.950 . S
H1793 C1799 0.950 . S
H1794 C1800 0.949 . S
C1795 H1790 0.950 1_556 S
C1795 C1797 1.327 . S
C1795 C1801 1.429 . S
C1796 C1788 1.574 1_556 S
C1796 H1791 0.949 . S
C1796 C1802 1.368 1_556 S
C1797 C1781 1.349 . S
C1797 H1789 0.950 . S
C1797 C1795 1.327 . S
C1798 C1786 1.349 . S
C1798 H1792 0.950 . S
C1798 C1799 1.327 . S
C1799 H1793 0.950 . S
C1799 C1798 1.327 . S
C1799 C1803 1.429 . S
C1800 C1783 1.574 . S
C1800 H1794 0.949 . S
C1800 C1804 1.368 . S
C1801 C1782 1.429 . S
C1801 C1795 1.429 . S
C1801 C1802 1.523 1_556 S
C1802 C1783 1.368 . S
C1802 C1796 1.368 1_554 S
C1802 C1801 1.523 1_554 S
C1803 C1787 1.429 . S
C1803 C1799 1.429 . S
C1803 C1804 1.523 . S
C1804 C1788 1.368 . S
C1804 C1800 1.368 . S
C1804 C1803 1.523 . S
H1805 C1780 0.950 . S
H1806 C1782 0.950 . S
H1807 C1783 0.949 . S
H1808 C1785 0.950 . S
H1809 C1787 0.950 . S
C1810 C1811 1.349 . S
C1810 C1812 1.327 . S
C1810 H1835 0.950 . S
C1811 C1810 1.349 . S
C1811 C1827 1.349 . S
C1812 C1810 1.327 . S
C1812 C1831 1.429 . S
C1812 H1836 0.950 . S
C1813 C1830 1.558 1_554 S
C1813 C1832 1.405 . S
C1813 H1837 0.932 1_554 S
H1814 C1818 0.949 . S
C1815 C1816 1.349 . S
C1815 C1817 1.327 . S
C1815 H1838 0.950 . S
C1816 C1815 1.349 . S
C1816 C1828 1.349 . S
C1817 C1815 1.327 . S
C1817 C1833 1.429 . S
C1817 H1839 0.950 . S
C1818 H1814 0.949 . S
C1818 C1826 1.574 . S
C1818 C1834 1.368 . S
H1819 C1827 0.950 . S
H1820 C1825 0.950 . S
H1821 C1826 0.949 . S
H1822 C1828 0.950 1_554 S
H1823 C1829 0.950 . S
H1824 C1830 0.949 . S
C1825 H1820 0.950 . S
C1825 C1827 1.327 . S
C1825 C1831 1.429 . S
C1826 C1818 1.574 . S
C1826 H1821 0.949 . S
C1826 C1832 1.368 . S
C1827 C1811 1.349 . S
C1827 H1819 0.950 . S
C1827 C1825 1.327 . S
C1828 C1816 1.349 . S
C1828 H1822 0.950 1_556 S
C1828 C1829 1.327 1_556 S
C1829 H1823 0.950 . S
C1829 C1828 1.327 1_554 S
C1829 C1833 1.429 1_554 S
C1830 C1813 1.558 1_556 S
C1830 H1824 0.949 . S
C1830 C1834 1.368 1_556 S
C1831 C1812 1.429 . S
C1831 C1825 1.429 . S
C1831 C1832 1.523 . S
C1832 C1813 1.405 . S
C1832 C1826 1.368 . S
C1832 C1831 1.523 . S
C1833 C1817 1.429 . S
C1833 C1829 1.429 1_556 S
C1833 C1834 1.523 1_556 S
C1834 C1818 1.368 . S
C1834 C1830 1.368 1_554 S
C1834 C1833 1.523 1_554 S
H1835 C1810 0.950 . S
H1836 C1812 0.950 . S
H1837 C1813 0.932 1_556 S
H1838 C1815 0.950 . S
H1839 C1817 0.950 . S
C1840 C1841 1.349 . S
C1840 C1842 1.327 . S
C1840 H1865 0.950 . S
C1841 C1840 1.349 . S
C1841 C1857 1.349 . S
C1842 C1840 1.327 . S
C1842 C1861 1.429 . S
C1842 H1866 0.950 . S
C1843 C1860 1.574 . S
C1843 C1862 1.368 . S
C1843 H1867 0.949 . S
H1844 C1848 0.949 . S
C1845 C1846 1.349 . S
C1845 C1847 1.327 . S
C1845 H1868 0.950 . S
C1846 C1845 1.349 . S
C1846 C1858 1.349 . S
C1847 C1845 1.327 . S
C1847 C1863 1.429 . S
C1847 H1869 0.950 . S
C1848 H1844 0.949 . S
C1848 C1856 1.574 . S
C1848 C1864 1.368 . S
H1849 C1857 0.950 . S
H1850 C1855 0.950 . S
H1851 C1856 0.949 . S
H1852 C1858 0.950 . S
H1853 C1859 0.950 . S
H1854 C1860 0.949 . S
C1855 H1850 0.950 . S
C1855 C1857 1.327 . S
C1855 C1861 1.429 . S
C1856 C1848 1.574 . S
C1856 H1851 0.949 . S
C1856 C1862 1.368 . S
C1857 C1841 1.349 . S
C1857 H1849 0.950 . S
C1857 C1855 1.327 . S
C1858 C1846 1.349 . S
C1858 H1852 0.950 . S
C1858 C1859 1.327 . S
C1859 H1853 0.950 . S
C1859 C1858 1.327 . S
C1859 C1863 1.429 . S
C1860 C1843 1.574 . S
C1860 H1854 0.949 . S
C1860 C1864 1.368 . S
C1861 C1842 1.429 . S
C1861 C1855 1.429 . S
C1861 C1862 1.523 . S
C1862 C1843 1.368 . S
C1862 C1856 1.368 . S
C1862 C1861 1.523 . S
C1863 C1847 1.429 . S
C1863 C1859 1.429 . S
C1863 C1864 1.523 . S
C1864 C1848 1.368 . S
C1864 C1860 1.368 . S
C1864 C1863 1.523 . S
H1865 C1840 0.950 . S
H1866 C1842 0.950 . S
H1867 C1843 0.949 . S
H1868 C1845 0.950 . S
H1869 C1847 0.950 . S
C1870 C1871 1.349 . S
C1870 C1872 1.327 . S
C1870 H1895 0.950 . S
C1871 C1870 1.349 . S
C1871 C1887 1.349 . S
C1872 C1870 1.327 . S
C1872 C1891 1.429 . S
C1872 H1896 0.950 . S
C1873 C1890 1.574 . S
C1873 C1892 1.368 . S
C1873 H1897 0.949 . S
H1874 C1878 0.949 . S
C1875 C1876 1.349 . S
C1875 C1877 1.327 . S
C1875 H1898 0.950 . S
C1876 C1875 1.349 . S
C1876 C1888 1.349 . S
C1877 C1875 1.327 . S
C1877 C1893 1.429 . S
C1877 H1899 0.950 . S
C1878 H1874 0.949 . S
C1878 C1886 1.574 . S
C1878 C1894 1.368 . S
H1879 C1887 0.950 . S
H1880 C1885 0.950 . S
H1881 C1886 0.949 . S
H1882 C1888 0.950 . S
H1883 C1889 0.950 . S
H1884 C1890 0.949 . S
C1885 H1880 0.950 . S
C1885 C1887 1.327 . S
C1885 C1891 1.429 . S
C1886 C1878 1.574 . S
C1886 H1881 0.949 . S
C1886 C1892 1.368 . S
C1887 C1871 1.349 . S
C1887 H1879 0.950 . S
C1887 C1885 1.327 . S
C1888 C1876 1.349 . S
C1888 H1882 0.950 . S
C1888 C1889 1.327 . S
C1889 H1883 0.950 . S
C1889 C1888 1.327 . S
C1889 C1893 1.429 . S
C1890 C1873 1.574 . S
C1890 H1884 0.949 . S
C1890 C1894 1.368 . S
C1891 C1872 1.429 . S
C1891 C1885 1.429 . S
C1891 C1892 1.523 . S
C1892 C1873 1.368 . S
C1892 C1886 1.368 . S
C1892 C1891 1.523 . S
C1893 C1877 1.429 . S
C1893 C1889 1.429 . S
C1893 C1894 1.523 . S
C1894 C1878 1.368 . S
C1894 C1890 1.368 . S
C1894 C1893 1.523 . S
H1895 C1870 0.950 . S
H1896 C1872 0.950 . S
H1897 C1873 0.949 . S
H1898 C1875 0.950 . S
H1899 C1877 0.950 . S
C1900 C1901 1.349 . S
C1900 C1902 1.327 . S
C1900 H1925 0.950 . S
C1901 C1900 1.349 . S
C1901 C1917 1.349 . S
C1902 C1900 1.327 . S
C1902 C1921 1.429 . S
C1902 H1926 0.950 . S
C1903 C1920 1.574 . S
C1903 C1922 1.368 . S
C1903 H1927 0.949 . S
H1904 C1908 0.949 . S
C1905 C1906 1.349 . S
C1905 C1907 1.327 . S
C1905 H1928 0.950 . S
C1906 C1905 1.349 . S
C1906 C1918 1.349 . S
C1907 C1905 1.327 . S
C1907 C1923 1.429 . S
C1907 H1929 0.950 . S
C1908 H1904 0.949 . S
C1908 C1916 1.574 . S
C1908 C1924 1.368 . S
H1909 C1917 0.950 . S
H1910 C1915 0.950 . S
H1911 C1916 0.949 . S
H1912 C1918 0.950 . S
H1913 C1919 0.950 . S
H1914 C1920 0.949 . S
C1915 H1910 0.950 . S
C1915 C1917 1.327 . S
C1915 C1921 1.429 . S
C1916 C1908 1.574 . S
C1916 H1911 0.949 . S
C1916 C1922 1.368 . S
C1917 C1901 1.349 . S
C1917 H1909 0.950 . S
C1917 C1915 1.327 . S
C1918 C1906 1.349 . S
C1918 H1912 0.950 . S
C1918 C1919 1.327 . S
C1919 H1913 0.950 . S
C1919 C1918 1.327 . S
C1919 C1923 1.429 . S
C1920 C1903 1.574 . S
C1920 H1914 0.949 . S
C1920 C1924 1.368 . S
C1921 C1902 1.429 . S
C1921 C1915 1.429 . S
C1921 C1922 1.523 . S
C1922 C1903 1.368 . S
C1922 C1916 1.368 . S
C1922 C1921 1.523 . S
C1923 C1907 1.429 . S
C1923 C1919 1.429 . S
C1923 C1924 1.523 . S
C1924 C1908 1.368 . S
C1924 C1920 1.368 . S
C1924 C1923 1.523 . S
H1925 C1900 0.950 . S
H1926 C1902 0.950 . S
H1927 C1903 0.949 . S
H1928 C1905 0.950 . S
H1929 C1907 0.950 . S
C1930 C1931 1.349 . S
C1930 C1932 1.327 . S
C1930 H1955 0.950 . S
C1931 C1930 1.349 . S
C1931 C1947 1.349 . S
C1932 C1930 1.327 . S
C1932 C1951 1.429 . S
C1932 H1956 0.950 . S
C1933 C1950 1.574 . S
C1933 C1952 1.368 . S
C1933 H1957 0.949 . S
H1934 C1938 0.949 . S
C1935 C1936 1.349 . S
C1935 C1937 1.327 . S
C1935 H1958 0.950 . S
C1936 C1935 1.349 . S
C1936 C1948 1.349 . S
C1937 C1935 1.327 . S
C1937 C1953 1.429 . S
C1937 H1959 0.950 . S
C1938 H1934 0.949 . S
C1938 C1946 1.574 . S
C1938 C1954 1.368 . S
H1939 C1947 0.950 . S
H1940 C1945 0.950 . S
H1941 C1946 0.949 . S
H1942 C1948 0.950 . S
H1943 C1949 0.950 . S
H1944 C1950 0.949 . S
C1945 H1940 0.950 . S
C1945 C1947 1.327 . S
C1945 C1951 1.429 . S
C1946 C1938 1.574 . S
C1946 H1941 0.949 . S
C1946 C1952 1.368 . S
C1947 C1931 1.349 . S
C1947 H1939 0.950 . S
C1947 C1945 1.327 . S
C1948 C1936 1.349 . S
C1948 H1942 0.950 . S
C1948 C1949 1.327 . S
C1949 H1943 0.950 . S
C1949 C1948 1.327 . S
C1949 C1953 1.429 . S
C1950 C1933 1.574 . S
C1950 H1944 0.949 . S
C1950 C1954 1.368 . S
C1951 C1932 1.429 . S
C1951 C1945 1.429 . S
C1951 C1952 1.523 . S
C1952 C1933 1.368 . S
C1952 C1946 1.368 . S
C1952 C1951 1.523 . S
C1953 C1937 1.429 . S
C1953 C1949 1.429 . S
C1953 C1954 1.523 . S
C1954 C1938 1.368 . S
C1954 C1950 1.368 . S
C1954 C1953 1.523 . S
H1955 C1930 0.950 . S
H1956 C1932 0.950 . S
H1957 C1933 0.949 . S
H1958 C1935 0.950 . S
H1959 C1937 0.950 . S
C1960 C1961 1.349 . S
C1960 C1962 1.327 . S
C1960 H1985 0.950 . S
C1961 C1960 1.349 . S
C1961 C1977 1.349 . S
C1962 C1960 1.327 . S
C1962 C1981 1.429 . S
C1962 H1986 0.950 . S
C1963 C1980 1.574 1_556 S
C1963 C1982 1.368 . S
C1963 H1987 0.949 1_556 S
H1964 C1968 0.949 . S
C1965 C1966 1.349 . S
C1965 C1967 1.327 . S
C1965 H1988 0.950 . S
C1966 C1965 1.349 . S
C1966 C1978 1.349 . S
C1967 C1965 1.327 . S
C1967 C1983 1.429 . S
C1967 H1989 0.950 . S
C1968 H1964 0.949 . S
C1968 C1976 1.574 . S
C1968 C1984 1.368 . S
H1969 C1977 0.950 . S
H1970 C1975 0.950 . S
H1971 C1976 0.949 . S
H1972 C1978 0.950 . S
H1973 C1979 0.950 . S
H1974 C1980 0.949 . S
C1975 H1970 0.950 . S
C1975 C1977 1.327 . S
C1975 C1981 1.429 . S
C1976 C1968 1.574 . S
C1976 H1971 0.949 . S
C1976 C1982 1.368 . S
C1977 C1961 1.349 . S
C1977 H1969 0.950 . S
C1977 C1975 1.327 . S
C1978 C1966 1.349 . S
C1978 H1972 0.950 . S
C1978 C1979 1.327 1_554 S
C1979 H1973 0.950 . S
C1979 C1978 1.327 1_556 S
C1979 C1983 1.429 1_556 S
C1980 C1963 1.574 1_554 S
C1980 H1974 0.949 . S
C1980 C1984 1.368 1_554 S
C1981 C1962 1.429 . S
C1981 C1975 1.429 . S
C1981 C1982 1.523 . S
C1982 C1963 1.368 . S
C1982 C1976 1.368 . S
C1982 C1981 1.523 . S
C1983 C1967 1.429 . S
C1983 C1979 1.429 1_554 S
C1983 C1984 1.523 1_554 S
C1984 C1968 1.368 . S
C1984 C1980 1.368 1_556 S
C1984 C1983 1.523 1_556 S
H1985 C1960 0.950 . S
H1986 C1962 0.950 . S
H1987 C1963 0.949 1_554 S
H1988 C1965 0.950 . S
H1989 C1967 0.950 . S
C1990 C1991 1.349 . S
C1990 C1992 1.327 . S
C1990 H2015 0.950 . S
C1991 C1990 1.349 . S
C1991 C2007 1.349 . S
C1992 C1990 1.327 . S
C1992 C2011 1.429 . S
C1992 H2016 0.950 . S
C1993 C2010 1.574 1_556 S
C1993 C2012 1.368 . S
C1993 H2017 0.949 . S
H1994 C1998 0.949 . S
C1995 C1996 1.349 . S
C1995 C1997 1.327 . S
C1995 H2018 0.950 . S
C1996 C1995 1.349 . S
C1996 C2008 1.349 . S
C1997 C1995 1.327 . S
C1997 C2013 1.429 . S
C1997 H2019 0.950 . S
C1998 H1994 0.949 . S
C1998 C2006 1.574 . S
C1998 C2014 1.368 . S
H1999 C2007 0.950 . S
H2000 C2005 0.950 . S
H2001 C2006 0.949 . S
H2002 C2008 0.950 . S
H2003 C2009 0.950 1_556 S
H2004 C2010 0.949 . S
C2005 H2000 0.950 . S
C2005 C2007 1.327 . S
C2005 C2011 1.429 . S
C2006 C1998 1.574 . S
C2006 H2001 0.949 . S
C2006 C2012 1.368 . S
C2007 C1991 1.349 . S
C2007 H1999 0.950 . S
C2007 C2005 1.327 . S
C2008 C1996 1.349 . S
C2008 H2002 0.950 . S
C2008 C2009 1.327 . S
C2009 H2003 0.950 1_554 S
C2009 C2008 1.327 . S
C2009 C2013 1.429 . S
C2010 C1993 1.574 1_554 S
C2010 H2004 0.949 . S
C2010 C2014 1.368 1_554 S
C2011 C1992 1.429 . S
C2011 C2005 1.429 . S
C2011 C2012 1.523 . S
C2012 C1993 1.368 . S
C2012 C2006 1.368 . S
C2012 C2011 1.523 . S
C2013 C1997 1.429 . S
C2013 C2009 1.429 . S
C2013 C2014 1.523 1_554 S
C2014 C1998 1.368 . S
C2014 C2010 1.368 1_556 S
C2014 C2013 1.523 1_556 S
H2015 C1990 0.950 . S
H2016 C1992 0.950 . S
H2017 C1993 0.949 . S
H2018 C1995 0.950 . S
H2019 C1997 0.950 . S
C2020 C2021 1.349 . S
C2020 C2022 1.327 . S
C2020 H2045 0.950 . S
C2021 C2020 1.349 . S
C2021 C2037 1.389 . S
C2022 C2020 1.327 . S
C2022 C2041 1.429 . S
C2022 H2046 0.950 . S
C2023 C2040 1.574 . S
C2023 C2042 1.368 . S
C2023 H2047 0.949 . S
H2024 C2028 0.949 . S
C2025 C2026 1.349 . S
C2025 C2027 1.327 . S
C2025 H2048 0.950 . S
C2026 C2025 1.349 . S
C2026 C2038 1.349 . S
C2027 C2025 1.327 . S
C2027 C2043 1.429 . S
C2027 H2049 0.950 . S
C2028 H2024 0.949 . S
C2028 C2036 1.574 . S
C2028 C2044 1.368 1_554 S
H2029 C2037 0.925 1_556 S
H2030 C2035 0.950 . S
H2031 C2036 0.949 . S
H2032 C2038 0.950 . S
H2033 C2039 0.950 1_554 S
H2034 C2040 0.949 . S
C2035 H2030 0.950 . S
C2035 C2037 1.312 1_556 S
C2035 C2041 1.429 1_556 S
C2036 C2028 1.574 . S
C2036 H2031 0.949 . S
C2036 C2042 1.368 1_554 S
C2037 C2021 1.389 . S
C2037 H2029 0.925 1_554 S
C2037 C2035 1.312 1_554 S
C2038 C2026 1.349 . S
C2038 H2032 0.950 . S
C2038 C2039 1.327 . S
C2039 H2033 0.950 1_556 S
C2039 C2038 1.327 . S
C2039 C2043 1.429 . S
C2040 C2023 1.574 . S
C2040 H2034 0.949 . S
C2040 C2044 1.368 . S
C2041 C2022 1.429 . S
C2041 C2035 1.429 1_554 S
C2041 C2042 1.523 1_554 S
C2042 C2023 1.368 . S
C2042 C2036 1.368 1_556 S
C2042 C2041 1.523 1_556 S
C2043 C2027 1.429 . S
C2043 C2039 1.429 . S
C2043 C2044 1.523 . S
C2044 C2028 1.368 1_556 S
C2044 C2040 1.368 . S
C2044 C2043 1.523 . S
H2045 C2020 0.950 . S
H2046 C2022 0.950 . S
H2047 C2023 0.949 . S
H2048 C2025 0.950 . S
H2049 C2027 0.950 . S
C2050 C2051 1.349 . S
C2050 C2052 1.327 . S
C2050 H2075 0.950 . S
C2051 C2050 1.349 . S
C2051 C2067 1.349 . S
C2052 C2050 1.327 . S
C2052 C2071 1.429 . S
C2052 H2076 0.950 . S
C2053 C2070 1.574 . S
C2053 C2072 1.368 . S
C2053 H2077 0.949 . S
H2054 C2058 0.949 . S
C2055 C2056 1.349 . S
C2055 C2057 1.327 . S
C2055 H2078 0.950 . S
C2056 C2055 1.349 . S
C2056 C2068 1.349 . S
C2057 C2055 1.327 . S
C2057 C2073 1.429 . S
C2057 H2079 0.950 . S
C2058 H2054 0.949 . S
C2058 C2066 1.574 1_556 S
C2058 C2074 1.368 . S
H2059 C2067 0.950 . S
H2060 C2065 0.950 1_556 S
H2061 C2066 0.949 . S
H2062 C2068 0.950 . S
H2063 C2069 0.950 . S
H2064 C2070 0.949 . S
C2065 H2060 0.950 1_554 S
C2065 C2067 1.327 . S
C2065 C2071 1.429 . S
C2066 C2058 1.574 1_554 S
C2066 H2061 0.949 . S
C2066 C2072 1.368 1_554 S
C2067 C2051 1.349 . S
C2067 H2059 0.950 . S
C2067 C2065 1.327 . S
C2068 C2056 1.349 . S
C2068 H2062 0.950 . S
C2068 C2069 1.327 . S
C2069 H2063 0.950 . S
C2069 C2068 1.327 . S
C2069 C2073 1.429 . S
C2070 C2053 1.574 . S
C2070 H2064 0.949 . S
C2070 C2074 1.368 . S
C2071 C2052 1.429 . S
C2071 C2065 1.429 . S
C2071 C2072 1.523 1_554 S
C2072 C2053 1.368 . S
C2072 C2066 1.368 1_556 S
C2072 C2071 1.523 1_556 S
C2073 C2057 1.429 . S
C2073 C2069 1.429 . S
C2073 C2074 1.523 . S
C2074 C2058 1.368 . S
C2074 C2070 1.368 . S
C2074 C2073 1.523 . S
H2075 C2050 0.950 . S
H2076 C2052 0.950 . S
H2077 C2053 0.949 . S
H2078 C2055 0.950 . S
H2079 C2057 0.950 . S
C641 C18 2.296 . S
C646 C218 2.296 . S
C671 C258 2.296 . S
C676 C58 2.296 . S
C701 C98 2.296 . S
C706 C298 2.296 . S
C731 C138 2.296 . S
C736 C178 2.296 . S
C761 C528 2.296 . S
C766 C328 2.296 . S
C791 C568 2.296 . S
C796 C368 2.296 . S
C821 C408 2.296 . S
C826 C608 2.296 . S
C851 C448 2.296 . S
C856 C488 2.296 . S
C881 C5 1.879 . S
C886 C129 1.759 1_545 S
C911 C45 1.879 . S
C916 C9 1.759 . S
C941 C85 1.879 . S
C946 C49 1.759 . S
C971 C125 1.879 . S
C976 C89 1.759 1_455 S
C1001 C165 1.879 . S
C1006 C209 1.759 1_565 S
C1031 C249 1.759 . S
C1036 C205 1.879 . S
C1061 C245 1.879 . S
C1066 C289 1.759 . S
C1091 C169 1.759 1_655 S
C1096 C285 1.879 . S
C1121 C459 1.759 1_565 S
C1126 C335 1.879 . S
C1151 C375 1.879 . S
C1156 C339 1.759 . S
C1181 C415 1.879 . S
C1186 C379 1.759 . S
C1211 C455 1.879 . S
C1216 C419 1.759 1_655 S
C1241 C495 1.879 . S
C1246 C539 1.759 1_545 S
C1271 C535 1.879 . S
C1276 C579 1.759 . S
C1301 C575 1.879 . S
C1306 C619 1.759 . S
C1331 C615 1.879 . S
C1336 C499 1.759 1_455 S
C1361 C15 1.212 . S
C1366 C95 1.212 . S
C1391 C55 1.212 . S
C1396 C135 1.212 . S
C1421 C255 1.212 . S
C1426 C175 1.212 . S
C1451 C295 1.212 . S
C1456 C215 1.212 . S
C1481 C405 1.212 . S
C1486 C325 1.212 . S
C1511 C445 1.212 . S
C1516 C365 1.212 . S
C1541 C485 1.212 . S
C1546 C565 1.212 . S
C1571 C525 1.212 . S
C1576 C605 1.212 . S
C1601 C19 2.347 . S
C1606 C458 2.346 . S
C1631 C338 2.346 . S
C1636 C59 2.347 . S
C1661 C99 2.347 . S
C1666 C378 2.346 . S
C1691 C418 2.346 . S
C1696 C139 2.347 . S
C1721 C538 2.346 . S
C1726 C179 2.347 . S
C1751 C219 2.347 . S
C1756 C578 2.346 . S
C1781 C618 2.346 . S
C1786 C259 2.347 . S
C1811 C299 2.347 . S
C1816 C498 2.346 . S
C1841 C329 2.347 . S
C1846 C128 2.346 . S
C1871 C369 2.347 . S
C1876 C8 2.346 . S
C1901 C48 2.346 . S
C1906 C409 2.347 . S
C1931 C449 2.347 . S
C1936 C88 2.346 . S
C1961 C489 2.347 . S
C1966 C208 2.346 . S
C1991 C529 2.347 . S
C1996 C248 2.346 . S
C2021 C288 2.346 . S
C2026 C569 2.347 . S
C2051 C168 2.346 . S
C2056 C609 2.347 . S
