# Generated by pormake.
# Topology vmo, (7)-cn, num edge types: 1
# Building blocks:
#     Node 0, Type 0, BuildingBlock: NUHQUE_clean_sbu_2, # of connection points: 7
#     Node 1, Type 0, BuildingBlock: NUHQUE_clean_sbu_2, # of connection points: 7
#     Node 2, Type 0, BuildingBlock: NUHQUE_clean_sbu_2, # of connection points: 7
#     Node 3, Type 0, BuildingBlock: NUHQUE_clean_sbu_2, # of connection points: 7
#     Node 4, Type 0, BuildingBlock: NUHQUE_clean_sbu_2, # of connection points: 7
#     Node 5, Type 0, BuildingBlock: NUHQUE_clean_sbu_2, # of connection points: 7
#     Node 6, Type 0, BuildingBlock: NUHQUE_clean_sbu_2, # of connection points: 7
#     Node 7, Type 0, BuildingBlock: NUHQUE_clean_sbu_2, # of connection points: 7
#     Edge 8, Type (0, 0), BuildingBlock: XUDNAN_clean_linker_2, # of connection points: 2
#     Edge 9, Type (0, 0), BuildingBlock: XUDNAN_clean_linker_2, # of connection points: 2
#     Edge 10, Type (0, 0), BuildingBlock: XUDNAN_clean_linker_2, # of connection points: 2
#     Edge 11, Type (0, 0), BuildingBlock: XUDNAN_clean_linker_2, # of connection points: 2
#     Edge 12, Type (0, 0), BuildingBlock: XUDNAN_clean_linker_2, # of connection points: 2
#     Edge 13, Type (0, 0), BuildingBlock: XUDNAN_clean_linker_2, # of connection points: 2
#     Edge 14, Type (0, 0), BuildingBlock: XUDNAN_clean_linker_2, # of connection points: 2
#     Edge 15, Type (0, 0), BuildingBlock: XUDNAN_clean_linker_2, # of connection points: 2
#     Edge 16, Type (0, 0), BuildingBlock: XUDNAN_clean_linker_2, # of connection points: 2
#     Edge 17, Type (0, 0), BuildingBlock: XUDNAN_clean_linker_2, # of connection points: 2
#     Edge 18, Type (0, 0), BuildingBlock: XUDNAN_clean_linker_2, # of connection points: 2
#     Edge 19, Type (0, 0), BuildingBlock: XUDNAN_clean_linker_2, # of connection points: 2
#     Edge 20, Type (0, 0), BuildingBlock: XUDNAN_clean_linker_2, # of connection points: 2
#     Edge 21, Type (0, 0), BuildingBlock: XUDNAN_clean_linker_2, # of connection points: 2
#     Edge 22, Type (0, 0), BuildingBlock: XUDNAN_clean_linker_2, # of connection points: 2
#     Edge 23, Type (0, 0), BuildingBlock: XUDNAN_clean_linker_2, # of connection points: 2
#     Edge 24, Type (0, 0), BuildingBlock: XUDNAN_clean_linker_2, # of connection points: 2
#     Edge 25, Type (0, 0), BuildingBlock: XUDNAN_clean_linker_2, # of connection points: 2
#     Edge 26, Type (0, 0), BuildingBlock: XUDNAN_clean_linker_2, # of connection points: 2
#     Edge 27, Type (0, 0), BuildingBlock: XUDNAN_clean_linker_2, # of connection points: 2
#     Edge 28, Type (0, 0), BuildingBlock: XUDNAN_clean_linker_2, # of connection points: 2
#     Edge 29, Type (0, 0), BuildingBlock: XUDNAN_clean_linker_2, # of connection points: 2
#     Edge 30, Type (0, 0), BuildingBlock: XUDNAN_clean_linker_2, # of connection points: 2
#     Edge 31, Type (0, 0), BuildingBlock: XUDNAN_clean_linker_2, # of connection points: 2
#     Edge 32, Type (0, 0), BuildingBlock: XUDNAN_clean_linker_2, # of connection points: 2
#     Edge 33, Type (0, 0), BuildingBlock: XUDNAN_clean_linker_2, # of connection points: 2
#     Edge 34, Type (0, 0), BuildingBlock: XUDNAN_clean_linker_2, # of connection points: 2
#     Edge 35, Type (0, 0), BuildingBlock: XUDNAN_clean_linker_2, # of connection points: 2
# Relax obj value: 0.232
# Max RMSD: 0.262
# Mean RMSD: 0.262
data_MOF--net-vmo--node1-NUHQUE_clean_sbu_2--edge1-XUDNAN_clean_linker_2
_symmetry_space_group_name_H-M    P1
_symmetry_Int_Tables_number       1
_symmetry_cell_setting            triclinic
loop_
_symmetry_equiv_pos_as_xyz
'x, y, z'
_cell_length_a     32.333829
_cell_length_b     58.893884
_cell_length_c     26.503007
_cell_angle_alpha  90.554193
_cell_angle_beta   111.54886
_cell_angle_gamma 89.461544
loop_
_atom_site_label
_atom_site_type_symbol
_atom_site_fract_x
_atom_site_fract_y
_atom_site_fract_z
_atom_type_partial_charge
O0 O 0.24747 0.45139 0.34234 0.0
Tb1 Tb 0.22879 0.44273 0.25669 0.0
Eu2 Eu 0.21373 0.39391 0.11674 0.0
C3 C 0.21947 0.46463 0.35475 0.0
O4 O 0.18133 0.46963 0.31619 0.0
C5 C 0.18179 0.39762 0.21321 0.0
O6 O 0.17755 0.38716 1.02527 0.0
C7 C 0.29252 0.37547 0.16062 0.0
C8 C 0.14886 0.40187 0.99298 0.0
O9 O 0.14073 0.42076 1.01444 0.0
C10 C 0.2589 0.441 0.16314 0.0
C11 C 0.32682 0.36046 0.15314 0.0
C12 C 0.37223 0.36424 0.18379 0.0
C13 C 0.4057 0.34978 0.17859 0.0
C14 C 0.3922 0.33133 0.14183 0.0
C15 C 0.34694 0.32715 0.1119 0.0
C16 C 0.31458 0.34195 0.11751 0.0
O17 O 0.22079 0.4075 0.23089 0.0
O18 O 0.16952 0.38762 0.16528 0.0
O19 O 0.20919 0.47541 0.21895 0.0
O20 O 0.15962 0.45003 0.20608 0.0
C21 C 0.16766 0.47046 0.19328 0.0
O22 O 0.21997 0.43072 0.14415 0.0
O23 O 0.27436 0.44716 0.2148 0.0
O24 O 0.25582 0.36602 0.1609 0.0
O25 O 0.2854 0.39514 0.13579 0.0
H26 H 0.38111 0.37822 0.21255 0.0
H27 H 0.4168 0.32028 0.13547 0.0
H28 H 0.27961 0.33873 0.09515 0.0
O29 O 0.84955 0.44367 0.2727 0.0
Tb30 Tb 0.87453 0.43222 0.35675 0.0
Eu31 Eu 0.90893 0.39431 0.47014 0.0
C32 C 0.87975 0.45044 0.25369 0.0
O33 O 0.92187 0.44797 0.2847 0.0
C34 C 0.95301 0.39894 0.37959 0.0
O35 O 0.94744 0.38706 0.56089 0.0
C36 C 0.85076 0.36333 0.4198 0.0
C37 C 0.96445 0.40336 0.59754 0.0
O38 O 0.95745 0.4246 0.58179 0.0
C39 C 0.83857 0.43509 0.44859 0.0
C40 C 0.81219 0.34925 0.41822 0.0
C41 C 0.76738 0.35631 0.39199 0.0
C42 C 0.7317 0.3413 0.38627 0.0
C43 C 0.74218 0.3192 0.40782 0.0
C44 C 0.78639 0.31173 0.43116 0.0
C45 C 0.82086 0.3269 0.43696 0.0
O46 O 0.91287 0.40345 0.34393 0.0
O47 O 0.96051 0.39852 0.43206 0.0
O48 O 0.89552 0.46763 0.37059 0.0
O49 O 0.93447 0.442 0.42311 0.0
C50 C 0.93119 0.4635 0.4125 0.0
O51 O 0.87587 0.42639 0.48292 0.0
O52 O 0.82558 0.4313 0.39571 0.0
O53 O 0.88962 0.35893 0.45786 0.0
O54 O 0.84485 0.38497 0.40766 0.0
H55 H 0.76054 0.37309 0.37444 0.0
H56 H 0.71605 0.30736 0.40511 0.0
H57 H 0.85494 0.32091 0.45499 0.0
O58 O 0.83987 0.54662 0.75705 0.0
Tb59 Tb 0.88288 0.55461 0.84008 0.0
Eu60 Eu 0.91296 0.59813 0.98241 0.0
C61 C 0.85724 0.54645 0.71925 0.0
O62 O 0.89768 0.55434 0.73168 0.0
C63 C 0.93978 0.59735 0.88254 0.0
O64 O 0.94924 0.60959 0.06993 0.0
C65 C 0.83433 0.61572 0.93368 0.0
C66 C 0.97201 0.59468 0.1068 0.0
O67 O 0.9728 0.57344 0.09172 0.0
C68 C 0.87508 0.54835 0.95253 0.0
C69 C 0.80003 0.63241 0.93401 0.0
C70 C 0.75496 0.62694 0.90615 0.0
C71 C 0.72088 0.64299 0.90058 0.0
C72 C 0.73329 0.66452 0.92456 0.0
C73 C 0.77807 0.67074 0.94914 0.0
C74 C 0.81145 0.65444 0.95522 0.0
O75 O 0.89836 0.58999 0.8629 0.0
O76 O 0.95605 0.60372 0.93367 0.0
O77 O 0.91964 0.52346 0.8708 0.0
O78 O 0.95161 0.54996 0.84615 0.0
C79 C 0.95646 0.52965 0.86612 0.0
O80 O 0.91253 0.5599 0.97066 0.0
O81 O 0.85313 0.54612 0.89962 0.0
O82 O 0.87066 0.62359 0.929 0.0
O83 O 0.84136 0.59791 0.9654 0.0
H84 H 0.74697 0.61042 0.88686 0.0
H85 H 0.70819 0.67703 0.92321 0.0
H86 H 0.84611 0.65921 0.9738 0.0
O87 O 0.23799 0.55715 0.85002 0.0
Tb88 Tb 0.20551 0.56603 0.76525 0.0
Eu89 Eu 0.20316 0.60857 0.62367 0.0
C90 C 0.2145 0.5445 0.86995 0.0
O91 O 0.1724 0.5412 0.84043 0.0
C92 C 0.16522 0.61287 0.71459 0.0
O93 O 0.16948 0.61673 0.53393 0.0
C94 C 0.2854 0.62128 0.66909 0.0
C95 C 0.13787 0.60329 0.5024 0.0
O96 O 0.12574 0.58592 0.52431 0.0
C97 C 0.22967 0.55888 0.66586 0.0
C98 C 0.31882 0.63675 0.66309 0.0
C99 C 0.36415 0.63109 0.68638 0.0
C100 C 0.39727 0.64646 0.68566 0.0
C101 C 0.38337 0.66788 0.66124 0.0
C102 C 0.33814 0.67408 0.64052 0.0
C103 C 0.30611 0.65812 0.63987 0.0
O104 O 0.20219 0.60101 0.73812 0.0
O105 O 0.15961 0.62183 0.66719 0.0
O106 O 0.16798 0.53624 0.72643 0.0
O107 O 0.13338 0.56484 0.74064 0.0
C108 C 0.12917 0.54453 0.72033 0.0
O109 O 0.19518 0.57262 0.64699 0.0
O110 O 0.24344 0.5534 0.71756 0.0
O111 O 0.25217 0.6309 0.67883 0.0
O112 O 0.27332 0.60381 0.63568 0.0
H113 H 0.3732 0.615 0.70708 0.0
H114 H 0.40748 0.68022 0.65992 0.0
H115 H 0.27113 0.66268 0.62317 0.0
O116 O 0.78731 0.94284 0.305 0.0
Tb117 Tb 0.7458 0.92657 0.22889 0.0
Eu118 Eu 0.69765 0.88911 0.12621 0.0
C119 C 0.79434 0.9341 0.35311 0.0
O120 O 0.78375 0.91287 0.35659 0.0
C121 C 0.6788 0.89111 0.23562 0.0
O122 O 0.64702 0.88128 0.04106 0.0
C123 C 0.76547 0.86154 0.16226 0.0
C124 C 0.65595 0.88472 0.99682 0.0
O125 O 0.6966 0.8904 1.00247 0.0
C126 C 0.75398 0.93226 0.11663 0.0
C127 C 0.80509 0.85165 0.15394 0.0
C128 C 0.8486 0.85786 0.18816 0.0
C129 C 0.8862 0.84618 0.18557 0.0
C130 C 0.87953 0.82821 0.14805 0.0
C131 C 0.83664 0.82185 0.11399 0.0
C132 C 0.79974 0.83374 0.11672 0.0
O133 O 0.72113 0.89692 0.25818 0.0
O134 O 0.65919 0.89068 0.18232 0.0
O135 O 0.71253 0.95842 0.23262 0.0
O136 O 0.67981 0.93424 0.17132 0.0
C137 C 0.67672 0.9541 0.19113 0.0
O138 O 0.71593 0.92147 0.09566 0.0
O139 O 0.77812 0.93094 0.16934 0.0
O140 O 0.7257 0.85531 0.12888 0.0
O141 O 0.767 0.88285 0.17809 0.0
H142 H 0.85307 0.87114 0.21826 0.0
H143 H 0.90778 0.81912 0.14486 0.0
H144 H 0.76667 0.82823 0.09136 0.0
O145 O 0.36246 0.94525 0.26045 0.0
Tb146 Tb 0.41077 0.93878 0.34143 0.0
Eu147 Eu 0.39833 0.89062 0.48297 0.0
C148 C 0.37626 0.94162 0.2202 0.0
O149 O 0.41316 0.92996 0.23046 0.0
C150 C 0.44781 0.8912 0.39759 0.0
O151 O 0.42733 0.88875 0.5758 0.0
C152 C 0.32172 0.87119 0.43636 0.0
C153 C 0.46936 0.89363 0.60449 0.0
O154 O 0.49479 0.90037 0.57869 0.0
C155 C 0.39363 0.94503 0.44645 0.0
C156 C 0.28568 0.85796 0.44365 0.0
C157 C 0.24095 0.86339 0.4127 0.0
C158 C 0.20593 0.85005 0.41578 0.0
C159 C 0.21657 0.83144 0.45125 0.0
C160 C 0.26097 0.82572 0.48187 0.0
C161 C 0.29536 0.83908 0.47802 0.0
O162 O 0.41211 0.90311 0.36809 0.0
O163 O 0.44847 0.88159 0.4432 0.0
O164 O 0.45332 0.96745 0.34403 0.0
O165 O 0.47715 0.93439 0.33881 0.0
C166 C 0.4863 0.9558 0.34027 0.0
O167 O 0.39678 0.92321 0.44024 0.0
O168 O 0.39648 0.95708 0.40642 0.0
O169 O 0.3601 0.86081 0.44514 0.0
O170 O 0.32586 0.89257 0.45238 0.0
H171 H 0.23361 0.87755 0.38489 0.0
H172 H 0.19019 0.82104 0.45444 0.0
H173 H 0.32965 0.83467 0.50159 0.0
O174 O 0.37051 0.04258 0.78242 0.0
Tb175 Tb 0.39509 0.06351 0.85576 0.0
Eu176 Eu 0.41841 0.1052 0.95645 0.0
C177 C 0.38855 0.04429 0.74535 0.0
O178 O 0.41775 0.06038 0.75064 0.0
C179 C 0.44665 0.10532 0.85263 0.0
O180 O 0.45948 0.11331 0.04608 0.0
C181 C 0.34839 0.13103 0.91468 0.0
C182 C 0.48514 0.0976 0.07859 0.0
O183 O 0.48678 0.07736 0.05822 0.0
C184 C 0.3679 0.0574 0.95375 0.0
C185 C 0.30811 0.14183 0.91963 0.0
C186 C 0.26487 0.13301 0.89199 0.0
C187 C 0.22666 0.14549 0.89011 0.0
C188 C 0.23265 0.16652 0.91744 0.0
C189 C 0.27491 0.17598 0.94248 0.0
C190 C 0.31238 0.16337 0.94448 0.0
O191 O 0.40725 0.09622 0.82715 0.0
O192 O 0.46235 0.10709 0.90611 0.0
O193 O 0.44937 0.0388 0.87232 0.0
O194 O 0.4548 0.06582 0.92772 0.0
C195 C 0.47488 0.04852 0.91688 0.0
O196 O 0.39997 0.07139 0.98162 0.0
O197 O 0.35141 0.05721 0.90013 0.0
O198 O 0.38756 0.13844 0.94701 0.0
O199 O 0.34831 0.10921 0.90351 0.0
H200 H 0.26095 0.11715 0.86976 0.0
H201 H 0.204 0.17614 0.91772 0.0
H202 H 0.34486 0.1711 0.96238 0.0
O203 O 0.77373 0.0344 0.78684 0.0
Tb204 Tb 0.74973 0.04965 0.70567 0.0
Eu205 Eu 0.72145 0.09295 0.60137 0.0
C206 C 0.74627 0.02187 0.80122 0.0
O207 O 0.70553 0.01911 0.76618 0.0
C208 C 0.67675 0.08714 0.69228 0.0
O209 O 0.68236 0.10309 0.51252 0.0
C210 C 0.78527 0.12137 0.65064 0.0
C211 C 0.67359 0.08892 0.47064 0.0
O212 O 0.68915 0.06807 0.4795 0.0
C213 C 0.78565 0.05005 0.61451 0.0
C214 C 0.82407 0.13228 0.64324 0.0
C215 C 0.86837 0.12639 0.67598 0.0
C216 C 0.9048 0.13802 0.67091 0.0
C217 C 0.89592 0.15525 0.63174 0.0
C218 C 0.85228 0.16176 0.6004 0.0
C219 C 0.81673 0.15013 0.60606 0.0
O220 O 0.71347 0.07766 0.72669 0.0
O221 O 0.6703 0.08985 0.64048 0.0
O222 O 0.72957 0.01583 0.67178 0.0
O223 O 0.69002 0.04451 0.63483 0.0
C224 C 0.69523 0.02279 0.63102 0.0
O225 O 0.74974 0.06063 0.58228 0.0
O226 O 0.79927 0.05254 0.66801 0.0
O227 O 0.74543 0.12752 0.6174 0.0
O228 O 0.78798 0.09961 0.66169 0.0
H229 H 0.87432 0.11334 0.70642 0.0
H230 H 0.92315 0.16422 0.62654 0.0
H231 H 0.78312 0.15528 0.58152 0.0
H232 H 0.66132 0.31368 0.32598 0.0
H233 H 0.69182 0.38395 0.3766 0.0
H234 H 0.6129 0.39413 0.32776 0.0
H235 H 0.5786 0.32324 0.1958 0.0
H236 H 0.54386 0.30024 0.20054 0.0
H237 H 0.60307 0.29882 0.23677 0.0
H238 H 0.59079 0.29279 0.32697 0.0
H239 H 0.53154 0.29403 0.29096 0.0
H240 H 0.55756 0.31296 0.3474 0.0
H241 H 0.52879 0.39644 0.27109 0.0
H242 H 0.44935 0.39047 0.21709 0.0
H243 H 0.47404 0.31783 0.21534 0.0
C244 C 0.65186 0.33122 0.32809 0.0
C245 C 0.68373 0.34791 0.356 0.0
C246 C 0.66887 0.37074 0.35521 0.0
C247 C 0.6238 0.3767 0.3278 0.0
C248 C 0.5935 0.35967 0.30164 0.0
C249 C 0.60704 0.33736 0.30214 0.0
C250 C 0.56801 0.322 0.27287 0.0
C251 C 0.57375 0.3104 0.22357 0.0
C252 C 0.5616 0.30441 0.31188 0.0
C253 C 0.53021 0.33914 0.25536 0.0
C254 C 0.54548 0.36082 0.27179 0.0
C255 C 0.51657 0.37944 0.2587 0.0
C256 C 0.47112 0.3758 0.22824 0.0
C257 C 0.45438 0.35362 0.21149 0.0
C258 C 0.48493 0.33513 0.22602 0.0
H259 H 0.46843 0.67599 0.73104 0.0
H260 H 0.43843 0.60394 0.70493 0.0
H261 H 0.51668 0.59495 0.75817 0.0
H262 H 0.57424 0.67068 0.71125 0.0
H263 H 0.59929 0.69297 0.75967 0.0
H264 H 0.54035 0.69347 0.72124 0.0
H265 H 0.52558 0.69576 0.81091 0.0
H266 H 0.5844 0.69485 0.84963 0.0
H267 H 0.54834 0.67416 0.86157 0.0
H268 H 0.59869 0.59407 0.82201 0.0
H269 H 0.67707 0.60138 0.87861 0.0
H270 H 0.65406 0.67358 0.84502 0.0
C271 C 0.47773 0.65825 0.73476 0.0
C272 C 0.44588 0.6408 0.71378 0.0
C273 C 0.461 0.61786 0.72174 0.0
C274 C 0.50579 0.61248 0.75162 0.0
C275 C 0.53576 0.63016 0.77209 0.0
C276 C 0.52243 0.65257 0.76264 0.0
C277 C 0.56131 0.6685 0.78674 0.0
C278 C 0.56927 0.68221 0.74206 0.0
C279 C 0.55448 0.68423 0.82976 0.0
C280 C 0.59848 0.65158 0.81233 0.0
C281 C 0.58317 0.62956 0.80427 0.0
C282 C 0.61121 0.61126 0.82748 0.0
C283 C 0.65602 0.61563 0.85942 0.0
C284 C 0.67289 0.63813 0.86712 0.0
C285 C 0.64318 0.65616 0.84213 0.0
H286 H 0.95547 0.81682 0.23637 0.0
H287 H 0.92226 0.88861 0.21887 0.0
H288 H 1.00015 0.89782 0.27603 0.0
H289 H 1.03271 0.81897 0.37436 0.0
H290 H 0.06953 0.79801 0.36332 0.0
H291 H 1.01097 0.79735 0.32297 0.0
H292 H 1.02861 0.79893 0.23526 0.0
H293 H 0.08721 0.79963 0.27532 0.0
H294 H 1.06231 0.82167 0.22662 0.0
H295 H 0.08387 0.89887 0.33392 0.0
H296 H 0.16325 0.89158 0.38888 0.0
H297 H 0.1405 0.81914 0.36361 0.0
C298 C 0.96442 0.83453 0.24413 0.0
C299 C 0.93249 0.85199 0.22262 0.0
C300 C 0.94581 0.87489 0.23512 0.0
C301 C 0.99013 0.88029 0.2673 0.0
C302 C 1.02084 0.86262 0.28686 0.0
C303 C 1.00834 0.84019 0.2758 0.0
C304 C 1.04744 0.82425 0.30086 0.0
C305 C 1.03969 0.80874 0.34288 0.0
C306 C 1.05695 0.8103 0.25689 0.0
C307 C 0.0841 0.84115 0.3278 0.0
C308 C 0.0683 0.86322 0.31943 0.0
C309 C 0.09645 0.88163 0.34064 0.0
C310 C 0.14163 0.87733 0.37155 0.0
C311 C 0.15838 0.85478 0.3811 0.0
C312 C 0.12892 0.83659 0.3582 0.0
H313 H 0.97204 0.16895 0.71352 0.0
H314 H 0.94565 0.09679 0.7118 0.0
H315 H 1.02528 0.08992 0.76731 0.0
H316 H 0.07597 0.16307 0.6958 0.0
H317 H 0.10003 0.18732 0.73804 0.0
H318 H 1.0409 0.18617 0.70139 0.0
H319 H 1.02743 0.19211 0.79123 0.0
H320 H 0.08651 0.19331 0.82814 0.0
H321 H 1.05336 0.17309 0.84705 0.0
H322 H 0.11116 0.09173 0.82385 0.0
H323 H 0.19003 0.10215 0.87463 0.0
H324 H 0.15728 0.17245 0.82843 0.0
C325 C 0.98269 0.15157 0.72395 0.0
C326 C 0.95215 0.1334 0.70735 0.0
C327 C 0.96801 0.11109 0.72404 0.0
C328 C 1.01338 0.10701 0.75531 0.0
C329 C 1.04265 0.12538 0.76948 0.0
C330 C 1.02757 0.14721 0.75405 0.0
C331 C 0.06504 0.16418 0.77276 0.0
C332 C 0.07082 0.17587 0.7241 0.0
C333 C 1.05763 0.1817 0.81213 0.0
C334 C 0.10386 0.14864 0.80153 0.0
C335 C 0.09073 0.1263 0.79977 0.0
C336 C 0.12154 0.10921 0.82516 0.0
C337 C 0.16643 0.11525 0.85366 0.0
C338 C 0.18018 0.13819 0.85651 0.0
C339 C 0.14818 0.15482 0.82867 0.0
H340 H 0.33487 0.19483 1.03642 0.0
H341 H 0.22564 0.21185 0.88733 0.0
H342 H 0.23413 0.25233 0.91307 0.0
H343 H 0.30804 0.23615 0.12115 0.0
H344 H 0.36524 0.24267 0.16074 0.0
H345 H 0.35073 0.21493 0.13052 0.0
H346 H 0.4068 0.21955 0.08228 0.0
H347 H 0.4212 0.2474 0.112 0.0
H348 H 0.40213 0.24378 0.03942 0.0
H349 H 0.25452 0.29083 0.95375 0.0
H350 H 0.283 0.32502 1.0099 0.0
H351 H 0.37859 0.2834 0.13335 0.0
C352 C 0.31281 0.20711 1.00927 0.0
C353 C 0.27934 0.20016 0.96009 0.0
C354 C 0.25096 0.21672 0.92568 0.0
C355 C 0.25578 0.23978 0.93968 0.0
C356 C 0.28915 0.24607 0.98822 0.0
C357 C 0.31703 0.23027 1.02273 0.0
C358 C 0.3496 0.24164 0.07301 0.0
C359 C 0.34298 0.23336 0.12439 0.0
C360 C 0.39779 0.23787 0.07688 0.0
C361 C 0.33555 0.26626 0.06128 0.0
C362 C 0.30079 0.26841 1.01199 0.0
C363 C 0.28166 0.28939 0.99252 0.0
C364 C 0.29796 0.30869 1.02475 0.0
C365 C 0.3329 0.30688 0.07604 0.0
C366 C 0.35225 0.28537 0.09405 0.0
H367 H 0.75572 0.28487 0.49428 0.0
H368 H 0.84192 0.28432 0.40168 0.0
H369 H 0.86446 0.2449 0.43008 0.0
H370 H 0.8282 0.25435 0.60617 0.0
H371 H 0.78518 0.23857 0.61805 0.0
H372 H 0.77289 0.26609 0.58691 0.0
H373 H 0.70909 0.24876 0.50499 0.0
H374 H 0.7212 0.22115 0.53596 0.0
H375 H 0.72073 0.22513 0.46841 0.0
H376 H 0.88152 0.20669 0.473 0.0
H377 H 0.89172 0.17191 0.52792 0.0
H378 H 0.79479 0.19712 0.59295 0.0
C379 C 0.77873 0.27626 0.47934 0.0
C380 C 0.79724 0.2876 0.44599 0.0
C381 C 0.82775 0.27596 0.42775 0.0
C382 C 0.84053 0.25355 0.44336 0.0
C383 C 0.82237 0.24295 0.47706 0.0
C384 C 0.79203 0.25385 0.49476 0.0
C385 C 0.7794 0.23894 0.53304 0.0
C386 C 0.7922 0.25016 0.58937 0.0
C387 C 0.72965 0.23315 0.50915 0.0
C388 C 0.80793 0.21819 0.53473 0.0
C389 C 0.83222 0.2208 0.50185 0.0
C390 C 0.86239 0.20433 0.49854 0.0
C391 C 0.86814 0.18472 0.53001 0.0
C392 C 0.84387 0.18178 0.56435 0.0
C393 C 0.81313 0.1987 0.56621 0.0
H394 H 0.86965 0.77884 0.14099 0.0
H395 H 0.78681 0.81974 1.00587 0.0
H396 H 0.76942 0.78563 0.94683 0.0
H397 H 0.91162 0.73852 0.06146 0.0
H398 H 0.90906 0.71462 0.10217 0.0
H399 H 0.91981 0.74264 0.13197 0.0
H400 H 0.85289 0.73882 0.16278 0.0
H401 H 0.84182 0.71089 0.13293 0.0
H402 H 0.79876 0.73232 0.11315 0.0
H403 H 0.75577 0.7473 0.90513 0.0
H404 H 0.74469 0.70656 0.88291 0.0
H405 H 0.83505 0.68964 0.04517 0.0
C406 C 0.84884 0.78064 0.09857 0.0
C407 C 0.82988 0.80188 0.07758 0.0
C408 C 0.80171 0.80359 1.02242 0.0
C409 C 0.79186 0.78436 0.98866 0.0
C410 C 0.81038 0.76358 1.01078 0.0
C411 C 0.83831 0.76154 0.06442 0.0
C412 C 0.85055 0.73687 0.07909 0.0
C413 C 0.90075 0.73293 0.09458 0.0
C414 C 0.83506 0.72929 0.12467 0.0
C415 C 0.82418 0.72532 1.02568 0.0
C416 C 0.80179 0.74115 0.98675 0.0
C417 C 0.77341 0.73476 0.93506 0.0
C418 C 0.76715 0.7116 0.92296 0.0
C419 C 0.78887 0.69502 0.96244 0.0
C420 C 0.81845 0.70199 1.01415 0.0
H421 H 0.36448 0.70249 0.57566 0.0
H422 H 0.28059 0.69948 0.67109 0.0
H423 H 0.25511 0.73866 0.64488 0.0
H424 H 0.39644 0.7621 0.60569 0.0
H425 H 0.39498 0.76768 0.5383 0.0
H426 H 0.40845 0.73961 0.56638 0.0
H427 H 0.34463 0.72288 0.48355 0.0
H428 H 0.33106 0.75086 0.45521 0.0
H429 H 0.28899 0.73396 0.46622 0.0
H430 H 0.23582 0.77717 0.60555 0.0
H431 H 0.22358 0.81301 0.55425 0.0
H432 H 0.32029 0.79172 0.48495 0.0
C433 C 0.34113 0.71021 0.5914 0.0
C434 C 0.32418 0.69788 0.62496 0.0
C435 C 0.29339 0.70848 0.64451 0.0
C436 C 0.27899 0.73079 0.63026 0.0
C437 C 0.29587 0.74239 0.59668 0.0
C438 C 0.32629 0.73255 0.5775 0.0
C439 C 0.33783 0.74862 0.54036 0.0
C440 C 0.38737 0.75487 0.56412 0.0
C441 C 0.32484 0.73847 0.48294 0.0
C442 C 0.30866 0.76882 0.54118 0.0
C443 C 0.28494 0.76487 0.5742 0.0
C444 C 0.25443 0.78057 0.57987 0.0
C445 C 0.24757 0.8008 0.5505 0.0
C446 C 0.27113 0.80512 0.51596 0.0
C447 C 0.30243 0.789 0.51184 0.0
H448 H 0.1873 0.50318 0.88663 0.0
H449 H 0.28944 0.55331 0.96073 0.0
H450 H 0.32114 0.52872 0.04199 0.0
H451 H 0.16773 0.49061 1.00018 0.0
H452 H 0.15744 0.46081 0.9866 0.0
H453 H 0.14666 0.48017 0.93135 0.0
H454 H 0.19903 0.4582 0.89469 0.0
H455 H 0.20942 0.43774 0.94809 0.0
H456 H 0.25532 0.452 0.93907 0.0
H457 H 0.33402 0.50049 0.11965 0.0
H458 H 0.32649 0.47234 0.1845 0.0
H459 H 0.21978 0.4399 0.05353 0.0
C460 C 0.21673 0.50894 0.91962 0.0
C461 C 0.23579 0.53018 0.91792 0.0
C462 C 0.27439 0.53704 0.96159 0.0
C463 C 0.29265 0.52314 1.00758 0.0
C464 C 0.27253 0.50228 1.00812 0.0
C465 C 0.23572 0.49516 0.96468 0.0
C466 C 0.21762 0.47309 0.97602 0.0
C467 C 0.16953 0.47635 0.97337 0.0
C468 C 0.22057 0.45414 0.93716 0.0
C469 C 0.24948 0.46891 1.03325 0.0
C470 C 0.28098 0.48585 0.05141 0.0
C471 C 0.3102 0.48687 0.1054 0.0
C472 C 0.30583 0.47074 0.14195 0.0
C473 C 0.27255 0.45384 0.12412 0.0
C474 C 0.24581 0.45239 0.06853 0.0
H475 H 0.88874 0.54102 0.63755 0.0
H476 H 0.77986 0.52148 0.6861 0.0
H477 H 0.75371 0.49456 0.60859 0.0
H478 H 0.83034 0.53501 0.49012 0.0
H479 H 0.87696 0.52245 0.47867 0.0
H480 H 0.88611 0.54296 0.53264 0.0
H481 H 0.9354 0.51585 0.60355 0.0
H482 H 0.92942 0.49362 0.55445 0.0
H483 H 0.91493 0.48838 0.6124 0.0
H484 H 0.74801 0.4648 0.53507 0.0
H485 H 0.76414 0.43608 0.47528 0.0
H486 H 0.8756 0.47602 0.47547 0.0
C487 C 0.85848 0.53169 0.63101 0.0
C488 C 0.8362 0.53354 0.6678 0.0
C489 C 0.79728 0.52057 0.65819 0.0
C490 C 0.78216 0.50522 0.61418 0.0
C491 C 0.80602 0.5032 0.57981 0.0
C492 C 0.84315 0.51633 0.58766 0.0
C493 C 0.86632 0.50929 0.54976 0.0
C494 C 0.86491 0.52859 0.51054 0.0
C495 C 0.91434 0.50137 0.58195 0.0
C496 C 0.8374 0.4897 0.52023 0.0
C497 C 0.80236 0.48647 0.53742 0.0
C498 C 0.7745 0.46763 0.52014 0.0
C499 C 0.7836 0.45148 0.48589 0.0
C500 C 0.82011 0.45437 0.46942 0.0
C501 C 0.84639 0.47399 0.48572 0.0
H502 H 0.9326 0.47973 0.22714 0.0
H503 H 0.80041 0.45081 0.1649 0.0
H504 H 0.78326 0.47288 0.07993 0.0
H505 H 0.89784 0.53543 0.17403 0.0
H506 H 0.94703 0.54071 0.15953 0.0
H507 H 0.94996 0.52237 0.21479 0.0
H508 H 0.98212 0.48964 0.17513 0.0
H509 H 0.9815 0.50782 0.12076 0.0
H510 H 0.95343 0.48079 0.10583 0.0
H511 H 0.78274 0.49827 0.99972 0.0
H512 H 0.7977 0.52465 0.93596 0.0
H513 H 0.92971 0.53657 0.05505 0.0
C514 C 0.90004 0.47784 0.1956 0.0
C515 C 0.86799 0.46331 0.20235 0.0
C516 C 0.82553 0.46178 0.16045 0.0
C517 C 0.81557 0.47425 0.11212 0.0
C518 C 0.84821 0.48843 0.10686 0.0
C519 C 0.88942 0.49037 0.14799 0.0
C520 C 0.91856 0.50713 0.134 0.0
C521 C 0.92896 0.52761 0.17297 0.0
C522 C 0.96143 0.49565 0.13386 0.0
C523 C 0.88814 0.51386 0.07758 0.0
C524 C 0.84751 0.50312 0.06244 0.0
C525 C 0.81441 0.50682 1.01153 0.0
C526 C 0.82319 0.52182 0.97552 0.0
C527 C 0.86468 0.53302 0.99062 0.0
C528 C 0.8973 0.52881 0.04243 0.0
H529 H 0.18959 0.55809 0.55594 0.0
H530 H 0.29658 0.52654 0.68786 0.0
H531 H 0.3089 0.49942 0.62236 0.0
H532 H 0.1439 0.50739 0.4898 0.0
H533 H 0.12725 0.51928 0.42281 0.0
H534 H 0.13141 0.53725 0.47971 0.0
H535 H 0.18601 0.56345 0.456 0.0
H536 H 0.18204 0.54533 0.39929 0.0
H537 H 0.2356 0.55139 0.4505 0.0
H538 H 0.30593 0.47427 0.54004 0.0
H539 H 0.28735 0.45404 0.45173 0.0
H540 H 0.17895 0.50158 0.37851 0.0
C541 C 0.21625 0.54586 0.57121 0.0
C542 C 0.24228 0.54465 0.62707 0.0
C543 C 0.27639 0.52797 0.64515 0.0
C544 C 0.28352 0.51246 0.60822 0.0
C545 C 0.25605 0.51376 0.55348 0.0
C546 C 0.2231 0.53014 0.53532 0.0
C547 C 0.19569 0.52726 0.47566 0.0
C548 C 0.14668 0.52251 0.46648 0.0
C549 C 0.2001 0.54809 0.44346 0.0
C550 C 0.21811 0.50659 0.46273 0.0
C551 C 0.25316 0.49906 0.5077 0.0
C552 C 0.27853 0.4801 0.50468 0.0
C553 C 0.26775 0.46868 0.45446 0.0
C554 C 0.23152 0.47608 0.40832 0.0
C555 C 0.20661 0.49528 0.413 0.0
H556 H 0.71433 0.93334 1.00667 0.0
H557 H 0.82031 0.96527 0.13946 0.0
H558 H 0.83369 0.99123 0.07336 0.0
H559 H 0.76914 0.93659 0.90879 0.0
H560 H 0.7175 0.94109 0.85286 0.0
H561 H 0.71868 0.92454 0.9103 0.0
H562 H 0.6589 0.9509 0.92426 0.0
H563 H 0.65691 0.96753 0.86686 0.0
H564 H 0.66874 0.98109 0.93177 0.0
H565 H 0.83189 0.01501 0.98801 0.0
H566 H 0.81436 0.03323 0.89805 0.0
H567 H 0.70873 0.98468 0.82629 0.0
C568 C 0.74096 0.94546 1.02245 0.0
C569 C 0.76642 0.94702 0.07872 0.0
C570 C 0.80052 0.96352 0.09668 0.0
C571 C 0.80823 0.97837 0.05929 0.0
C572 C 0.78182 0.97641 1.00402 0.0
C573 C 0.74909 0.96012 0.98609 0.0
C574 C 0.72433 0.96122 0.92542 0.0
C575 C 0.73286 0.93957 0.89769 0.0
C576 C 0.67427 0.96542 0.9113 0.0
C577 C 0.74644 0.98143 0.91164 0.0
C578 C 0.78028 0.98982 0.95689 0.0
C579 C 0.80543 0.00842 0.95265 0.0
C580 C 0.79535 0.01866 0.90134 0.0
C581 C 0.75994 0.01051 0.85506 0.0
C582 C 0.7357 0.99153 0.86079 0.0
H583 H 0.40705 0.04701 0.65258 0.0
H584 H 0.35432 0.00152 0.74164 0.0
H585 H 0.34967 0.97092 0.6751 0.0
H586 H 0.33807 0.02662 0.51778 0.0
H587 H 0.38157 0.02997 0.4912 0.0
H588 H 0.37968 0.0482 0.54528 0.0
H589 H 0.46041 0.03636 0.60374 0.0
H590 H 0.4624 0.01795 0.55003 0.0
H591 H 0.47385 0.00668 0.61683 0.0
H592 H 0.35668 0.94426 0.60188 0.0
H593 H 0.36654 0.92544 0.52304 0.0
H594 H 0.41024 0.98916 0.4795 0.0
C595 C 0.39404 0.03069 0.65781 0.0
C596 C 0.38102 0.02668 0.70238 0.0
C597 C 0.36418 0.00507 0.70764 0.0
C598 C 0.36167 0.98753 0.6702 0.0
C599 C 0.37555 0.99194 0.62724 0.0
C600 C 0.39071 0.01314 0.62043 0.0
C601 C 0.40325 0.01363 0.57068 0.0
C602 C 0.37388 0.03061 0.52875 0.0
C603 C 0.45292 0.01897 0.58628 0.0
C604 C 0.39314 0.98937 0.55072 0.0
C605 C 0.37767 0.97701 0.58415 0.0
C606 C 0.36812 0.95391 0.57503 0.0
C607 C 0.37393 0.94331 0.53022 0.0
C608 C 0.38854 0.95586 0.49467 0.0
C609 C 0.39832 0.97917 0.50541 0.0
H610 H 0.43082 0.9695 0.19504 0.0
H611 H 0.29254 0.95002 0.14328 0.0
H612 H 0.2739 0.97694 0.06586 0.0
H613 H 0.40919 0.02879 0.16702 0.0
H614 H 0.45626 0.03232 0.14687 0.0
H615 H 0.45766 0.0109 0.19545 0.0
H616 H 0.47471 0.98017 0.13491 0.0
H617 H 0.47331 0.00161 0.08636 0.0
H618 H 0.43788 0.9771 0.06513 0.0
H619 H 0.27279 0.00569 0.99082 0.0
H620 H 0.28763 0.03569 0.93404 0.0
H621 H 0.42569 0.03702 0.04273 0.0
C622 C 0.39662 0.97076 0.16711 0.0
C623 C 0.36313 0.9575 0.17418 0.0
C624 C 0.3186 0.95999 0.13796 0.0
C625 C 0.30787 0.97516 0.09398 0.0
C626 C 0.342 0.98795 0.0879 0.0
C627 C 0.38536 0.98608 0.1243 0.0
C628 C 0.41591 0.00235 0.11149 0.0
C629 C 0.4359 0.01961 0.15796 0.0
C630 C 0.4526 0.98953 0.0987 0.0
C631 C 0.38329 0.01356 0.06157 0.0
C632 C 0.34085 0.00501 0.04782 0.0
C633 C 0.30584 0.01262 1.00173 0.0
C634 C 0.3145 0.02955 0.9696 0.0
C635 C 0.35757 0.03888 0.9845 0.0
C636 C 0.39216 0.03056 1.03084 0.0
H637 H 0.7796 0.97982 0.35577 0.0
H638 H 0.83328 0.92209 0.46031 0.0
H639 H 0.84512 0.94655 0.54103 0.0
H640 H 0.84899 0.0242 0.4422 0.0
H641 H 0.8036 0.0443 0.42552 0.0
H642 H 0.80424 0.02281 0.37696 0.0
H643 H 0.7264 0.00914 0.37076 0.0
H644 H 0.72558 0.03061 0.4191 0.0
H645 H 0.71811 0.00124 0.43191 0.0
H646 H 0.84566 0.97744 0.61079 0.0
H647 H 0.83114 0.01069 0.66048 0.0
H648 H 0.77654 0.04728 0.5088 0.0
C649 C 0.79506 0.97244 0.39566 0.0
C650 C 0.80645 0.94913 0.40174 0.0
C651 C 0.8249 0.93998 0.45469 0.0
C652 C 0.83172 0.95375 0.50079 0.0
C653 C 0.81947 0.97663 0.49333 0.0
C654 C 0.80128 0.98582 0.4419 0.0
C655 C 0.78696 0.01024 0.44415 0.0
C656 C 0.81249 0.02634 0.42083 0.0
C657 C 0.73629 0.01295 0.41476 0.0
C658 C 0.8004 0.01349 0.5048 0.0
C659 C 0.81915 0.99402 0.53281 0.0
C660 C 0.83155 0.99286 0.58919 0.0
C661 C 0.82357 0.01189 0.61725 0.0
C662 C 0.80317 0.03171 0.58877 0.0
C663 C 0.7926 0.0325 0.53203 0.0
H664 H 0.97027 0.48823 0.91231 0.0
H665 H 1.03799 0.54891 0.89375 0.0
H666 H 0.10309 0.53849 0.97451 0.0
H667 H 0.99446 0.49205 0.04122 0.0
H668 H 1.00531 0.46273 0.06139 0.0
H669 H 0.96935 0.46961 0.99341 0.0
H670 H 1.01673 0.44676 0.95148 0.0
H671 H 1.05263 0.438 1.01843 0.0
H672 H 0.0756 0.45168 0.97408 0.0
H673 H 0.15002 0.52736 0.06793 0.0
H674 H 0.18675 0.51065 0.15848 0.0
H675 H 0.08856 0.45696 0.11678 0.0
C676 C 0.99981 0.49862 0.9236 0.0
C677 C 0.99939 0.51938 0.89756 0.0
C678 C 1.03805 0.53286 0.91337 0.0
C679 C 0.07497 0.52717 0.95939 0.0
C680 C 0.07255 0.50775 0.98777 0.0
C681 C 1.0368 0.49313 0.96931 0.0
C682 C 1.04037 0.47466 1.01 0.0
C683 C 0.99997 0.47478 1.02755 0.0
C684 C 1.04672 0.45137 0.98719 0.0
C685 C 0.08204 0.4821 0.05578 0.0
C686 C 0.10012 0.50115 0.04197 0.0
C687 C 0.13686 0.51213 0.07882 0.0
C688 C 0.15704 0.50271 0.13032 0.0
C689 C 0.14027 0.4826 0.14435 0.0
C690 C 0.10183 0.47242 0.10703 0.0
H691 H 0.11439 0.50105 0.68788 0.0
H692 H 1.05445 0.56814 0.66193 0.0
H693 H 0.99829 0.55522 0.57493 0.0
H694 H 0.10634 0.49098 0.55716 0.0
H695 H 0.0929 0.46126 0.55508 0.0
H696 H 0.12486 0.47461 0.6187 0.0
H697 H 0.06765 0.46254 0.66091 0.0
H698 H 1.03696 0.44802 0.59854 0.0
H699 H 1.00951 0.46894 0.62567 0.0
H700 H 0.95637 0.53623 0.48539 0.0
H701 H 0.9175 0.50942 0.4106 0.0
H702 H 1.00639 0.45534 0.49754 0.0
C703 C 0.08838 0.51274 0.66479 0.0
C704 C 0.08841 0.5355 0.68081 0.0
C705 C 1.0544 0.55055 0.64998 0.0
C706 C 1.02293 0.54346 0.6003 0.0
C707 C 1.02609 0.5213 0.58331 0.0
C708 C 1.05684 0.50593 0.61559 0.0
C709 C 1.05376 0.48319 0.58814 0.0
C710 C 0.09704 0.47718 0.57926 0.0
C711 C 1.04116 0.46458 0.62019 0.0
C712 C 1.01654 0.48817 0.53523 0.0
C713 C 1.00163 0.51035 0.53252 0.0
C714 C 0.9674 0.51876 0.48712 0.0
C715 C 0.94586 0.50355 0.44485 0.0
C716 C 0.959 0.48048 0.44915 0.0
C717 C 0.99573 0.47296 0.49368 0.0
H718 H 0.50344 0.0049 0.92309 0.0
H719 H 0.53645 0.07135 0.99834 0.0
H720 H 0.59122 0.0539 0.08028 0.0
H721 H 0.50408 0.97589 1.03151 0.0
H722 H 0.53081 0.95026 1.02111 0.0
H723 H 0.49986 0.9677 0.96413 0.0
H724 H 0.56875 0.97191 0.93669 0.0
H725 H 0.59901 0.95331 0.99171 0.0
H726 H 0.62082 0.98091 0.98708 0.0
H727 H 0.63335 0.02908 0.15721 0.0
H728 H 0.67344 -0.00156 0.21966 0.0
H729 H 0.61163 0.94851 0.09334 0.0
C730 C 0.52364 0.01577 0.95594 0.0
C731 C 0.51568 0.03923 0.95568 0.0
C732 C 0.54202 0.05317 0.99903 0.0
C733 C 0.57303 0.04347 0.04547 0.0
C734 C 0.57759 0.01999 0.04658 0.0
C735 C 0.55492 0.00636 1.00234 0.0
C736 C 0.56476 0.98153 1.01488 0.0
C737 C 0.52234 0.96807 1.00746 0.0
C738 C 0.58982 0.97131 0.98055 0.0
C739 C 0.59449 0.98336 0.0738 0.0
C740 C 0.60176 0.00566 0.09123 0.0
C741 C 0.62843 0.01154 0.14411 0.0
C742 C 0.65051 0.9941 0.17933 0.0
C743 C 0.64531 0.97134 0.16087 0.0
C744 C 0.61573 0.96584 0.10837 0.0
H745 H 0.50839 -0.00027 0.3539 0.0
H746 H 0.56399 0.93232 0.36236 0.0
H747 H 0.63547 0.94574 0.42815 0.0
H748 H 0.62147 0.03376 0.39879 0.0
H749 H 0.5993 0.05251 0.43705 0.0
H750 H 0.56303 0.04093 0.37314 0.0
H751 H 0.51283 0.02593 0.422 0.0
H752 H 0.55005 0.03605 0.48629 0.0
H753 H 0.53578 0.00638 0.47752 0.0
H754 H 0.68664 0.96168 0.51481 0.0
H755 H 0.71879 0.98088 0.6042 0.0
H756 H 0.62734 0.03723 0.54321 0.0
C757 C 0.53667 0.98825 0.36707 0.0
C758 C 0.53102 0.965 0.35479 0.0
C759 C 0.56801 0.95018 0.37226 0.0
C760 C 0.60872 0.95774 0.40966 0.0
C761 C 0.61146 0.98019 0.42785 0.0
C762 C 0.57673 0.99552 0.40564 0.0
C763 C 0.583 0.01677 0.43997 0.0
C764 C 0.5923 0.03722 0.41044 0.0
C765 C 0.54308 0.0215 0.45746 0.0
C766 C 0.62382 0.01003 0.48746 0.0
C767 C 0.64073 0.98926 0.47928 0.0
C768 C 0.67464 0.9783 0.52092 0.0
C769 C 0.69201 0.98904 0.57176 0.0
C770 C 0.67483 0.01028 0.58023 0.0
C771 C 0.64085 0.02093 0.5375 0.0
H772 H 0.99666 0.43331 0.6844 0.0
H773 H 0.99643 0.36179 0.64366 0.0
H774 H 1.04453 0.35362 0.73881 0.0
H775 H 0.11 0.43614 0.77788 0.0
H776 H 0.09871 0.45527 0.82483 0.0
H777 H 0.06407 0.4559 0.75391 0.0
H778 H 0.99402 0.44935 0.77649 0.0
H779 H 1.02801 0.44922 0.84769 0.0
H780 H 0.99225 0.42552 0.81782 0.0
H781 H 0.09508 0.35344 0.84029 0.0
H782 H 0.1384 0.36103 0.93761 0.0
H783 H 0.10424 0.43247 0.91242 0.0
C784 C 1.00662 0.41588 0.69531 0.0
C785 C 0.9925 0.39818 0.65582 0.0
C786 C 1.00646 0.37567 0.6726 0.0
C787 C 1.034 0.37088 0.72677 0.0
C788 C 1.04743 0.38871 0.76443 0.0
C789 C 1.03386 0.41078 0.74938 0.0
C790 C 1.05225 0.42687 0.7978 0.0
C791 C 0.0831 0.44458 0.78799 0.0
C792 C 1.01437 0.43841 0.8107 0.0
C793 C 0.07828 0.41046 0.84243 0.0
C794 C 0.0754 0.38853 0.82241 0.0
C795 C 0.09723 0.37057 0.85618 0.0
C796 C 0.122 0.37504 0.91158 0.0
C797 C 0.12465 0.3973 0.93338 0.0
C798 C 0.10257 0.41518 0.89771 0.0
H799 H 0.09792 0.57172 0.42365 0.0
H800 H 0.12844 0.64347 0.4466 0.0
H801 H 0.08843 0.64963 0.34795 0.0
H802 H 0.11433 0.56637 0.29658 0.0
H803 H 0.07025 0.54608 0.26835 0.0
H804 H 0.09987 0.54748 0.34055 0.0
H805 H 1.02629 0.55348 0.35599 0.0
H806 H 0.99591 0.55197 0.28392 0.0
H807 H 0.98948 0.57637 0.32199 0.0
H808 H 1.04019 0.64779 0.24569 0.0
H809 H 0.99647 0.63758 0.14984 0.0
H810 H 1.00452 0.56663 0.19475 0.0
C811 C 0.0963 0.58875 0.40802 0.0
C812 C 0.11605 0.60717 0.44298 0.0
C813 C 0.11359 0.62911 0.42063 0.0
C814 C 0.09076 0.63276 0.36466 0.0
C815 C 0.07129 0.61421 0.33137 0.0
C816 C 0.07462 0.59257 0.3523 0.0
C817 C 1.05231 0.5753 0.30808 0.0
C818 C 0.08623 0.55779 0.30309 0.0
C819 C 1.01371 0.5636 0.31812 0.0
C820 C 1.03543 0.59057 0.2589 0.0
C821 C 1.04607 0.61302 0.27301 0.0
C822 C 1.03216 0.63022 0.23428 0.0
C823 C 1.00718 0.62429 0.17991 0.0
C824 C 0.99693 0.6013 0.16448 0.0
C825 C 1.01156 0.58435 0.20486 0.0
H826 H 0.66237 0.89711 0.90013 0.0
H827 H 0.56868 0.87058 0.96663 0.0
H828 H 0.51029 0.87008 0.87433 0.0
H829 H 0.58349 0.93407 0.8019 0.0
H830 H 0.60844 0.92963 0.75187 0.0
H831 H 0.64185 0.92755 0.82294 0.0
H832 H 0.6671 0.88717 0.80702 0.0
H833 H 0.63326 0.88899 0.73598 0.0
H834 H 0.62574 0.86584 0.7757 0.0
H835 H 0.4615 0.87266 0.77195 0.0
H836 H 0.42841 0.87787 0.67231 0.0
H837 H 0.55454 0.90327 0.6745 0.0
C838 C 0.62966 0.89113 0.89552 0.0
C839 C 0.62045 0.88376 0.9411 0.0
C840 C 0.57686 0.87623 0.93268 0.0
C841 C 0.54339 0.87593 0.88024 0.0
C842 C 0.5537 0.88339 0.83631 0.0
C843 C 0.59587 0.89093 0.84367 0.0
C844 C 0.59857 0.89843 0.79029 0.0
C845 C 0.60865 0.92394 0.79181 0.0
C846 C 0.63322 0.88425 0.77644 0.0
C847 C 0.55169 0.89348 0.7513 0.0
C848 C 0.52605 0.88497 0.77848 0.0
C849 C 0.48147 0.87933 0.75056 0.0
C850 C 0.46287 0.88237 0.69378 0.0
C851 C 0.48865 0.89096 0.66503 0.0
C852 C 0.53368 0.89662 0.69477 0.0
H853 H 0.54903 0.07009 0.14954 0.0
H854 H 0.48121 0.13454 0.14245 0.0
H855 H 0.52293 0.1401 0.24111 0.0
H856 H 0.55054 0.05217 0.27697 0.0
H857 H 0.60531 0.03956 0.2981 0.0
H858 H 0.57152 0.04132 0.22713 0.0
H859 H 0.63382 0.0633 0.20878 0.0
H860 H 0.66799 0.06066 0.2796 0.0
H861 H 0.65702 0.08826 0.24842 0.0
H862 H 0.57202 0.1377 0.3436 0.0
H863 H 0.62251 0.12782 0.43679 0.0
H864 H 0.65902 0.06542 0.37503 0.0
C865 C 0.54294 0.08548 0.16847 0.0
C866 C 0.51149 0.10188 0.13773 0.0
C867 C 0.50501 0.12173 0.16467 0.0
C868 C 0.52861 0.12501 0.22089 0.0
C869 C 0.55907 0.10838 0.24995 0.0
C870 C 0.56645 0.08909 0.2243 0.0
C871 C 0.60079 0.07368 0.26419 0.0
C872 C 0.58084 0.05031 0.26679 0.0
C873 C 0.64238 0.07133 0.24938 0.0
C874 C 0.61101 0.08699 0.31678 0.0
C875 C 0.58691 0.10705 0.30786 0.0
C876 C 0.59101 0.12204 0.35071 0.0
C877 C 0.61998 0.11632 0.40369 0.0
C878 C 0.64475 0.09574 0.41391 0.0
C879 C 0.64032 0.08115 0.36924 0.0
H880 H 0.08954 0.39332 0.17777 0.0
H881 H 0.2075 0.40598 0.32079 0.0
H882 H 0.16172 0.40741 0.37712 0.0
H883 H 1.01711 0.43168 0.22023 0.0
H884 H 0.96884 0.41392 0.19208 0.0
H885 H 1.01054 0.41401 0.16191 0.0
H886 H 1.01917 0.37038 0.17337 0.0
H887 H 0.97772 0.37017 0.20387 0.0
H888 H 1.0321 0.35824 0.23965 0.0
H889 H 0.10546 0.40488 0.41941 0.0
H890 H 1.04003 0.40297 0.44503 0.0
H891 H 0.95514 0.39448 0.27551 0.0
C892 C 0.10557 0.39643 0.22091 0.0
C893 C 0.15228 0.39939 0.24492 0.0
C894 C 0.17191 0.4037 0.3014 0.0
C895 C 0.14618 0.40446 0.33387 0.0
C896 C 0.10051 0.40123 0.30934 0.0
C897 C 0.08004 0.39772 0.25409 0.0
C898 C 1.02994 0.39545 0.23849 0.0
C899 C 1.00515 0.41492 0.20095 0.0
C900 C 1.0138 0.37217 0.21229 0.0
C901 C 1.02588 0.39756 0.29383 0.0
C902 C 0.06721 0.40079 0.3339 0.0
C903 C 0.07283 0.40256 0.38839 0.0
C904 C 1.03526 0.4013 0.40253 0.0
C905 C 0.99212 0.39851 0.36245 0.0
C906 C 0.98753 0.39661 0.30719 0.0
H907 H 0.16394 0.60737 0.81828 0.0
H908 H 0.07808 0.61665 0.64981 0.0
H909 H 1.01223 0.61292 0.67444 0.0
H910 H 0.09662 0.56597 0.85101 0.0
H911 H 0.10629 0.5771 0.91796 0.0
H912 H 0.14755 0.58073 0.88803 0.0
H913 H 0.14569 0.62421 0.90184 0.0
H914 H 0.10469 0.62071 0.93229 0.0
H915 H 0.09339 0.63925 0.87497 0.0
H916 H 0.95516 0.60576 0.7152 0.0
H917 H 0.91035 0.6007 0.77233 0.0
H918 H 1.03127 0.59782 0.91555 0.0
C919 C 0.13125 0.60875 0.78678 0.0
C920 C 0.12633 0.61205 0.73193 0.0
C921 C 0.08292 0.61406 0.69201 0.0
C922 C 1.04514 0.61183 0.70552 0.0
C923 C 1.05097 0.60785 0.75937 0.0
C924 C 0.09282 0.60671 0.79965 0.0
C925 C 0.08927 0.60295 0.85461 0.0
C926 C 0.11122 0.58034 0.87933 0.0
C927 C 0.10945 0.62298 0.8932 0.0
C928 C 1.03904 0.60212 0.83869 0.0
C929 C 1.0177 0.60467 0.78339 0.0
C930 C 0.97147 0.60394 0.75865 0.0
C931 C 0.94626 0.60095 0.79137 0.0
C932 C 0.96719 0.59897 0.84831 0.0
C933 C 1.01427 0.59948 0.87213 0.0
H934 H 0.4527 0.88695 0.29555 0.0
H935 H 0.53421 0.89056 0.46682 0.0
H936 H 0.60203 0.88793 0.44478 0.0
H937 H 0.5262 0.84726 0.25722 0.0
H938 H 0.51582 0.86104 0.19323 0.0
H939 H 0.47368 0.86128 0.22272 0.0
H940 H 0.47051 0.90436 0.21478 0.0
H941 H 0.51508 0.90564 0.19 0.0
H942 H 0.51899 0.92124 0.25047 0.0
H943 H 0.66153 0.88788 0.40379 0.0
H944 H 0.70741 0.88973 0.34715 0.0
H945 H 0.58793 0.88591 0.20223 0.0
C946 C 0.48486 0.887 0.32833 0.0
C947 C 0.48813 0.88923 0.38301 0.0
C948 C 0.53083 0.88901 0.42473 0.0
C949 C 0.5696 0.88744 0.41259 0.0
C950 C 0.56538 0.88573 0.35839 0.0
C951 C 0.52408 0.88542 0.31686 0.0
C952 C 0.52903 0.88445 0.26198 0.0
C953 C 0.51006 0.86218 0.23202 0.0
C954 C 0.50716 0.9052 0.22737 0.0
C955 C 0.5793 0.88502 0.27906 0.0
C956 C 0.59969 0.8856 0.33485 0.0
C957 C 0.64584 0.88714 0.36004 0.0
C958 C 0.67172 0.88821 0.32744 0.0
C959 C 0.65159 0.88783 0.27004 0.0
C960 C 0.60465 0.88596 0.2459 0.0
H961 H 0.53537 0.09382 0.88753 0.0
H962 H 0.42627 0.12011 0.74914 0.0
H963 H 0.47504 0.1204 0.69579 0.0
H964 H 0.62649 0.1236 0.86535 0.0
H965 H 0.66378 0.09955 0.88467 0.0
H966 H 0.6218 0.10346 0.91375 0.0
H967 H 0.59164 0.06321 0.88123 0.0
H968 H 0.63342 0.05918 0.85193 0.0
H969 H 0.57546 0.05582 0.81045 0.0
H970 H 0.53433 0.11684 0.65673 0.0
H971 H 0.59849 0.10778 0.63163 0.0
H972 H 0.66971 0.0815 0.79341 0.0
C973 C 0.52217 0.1002 0.84642 0.0
C974 C 0.47727 0.10752 0.82274 0.0
C975 C 0.46067 0.11481 0.76821 0.0
C976 C 0.48815 0.11501 0.73766 0.0
C977 C 0.53207 0.1075 0.76192 0.0
C978 C 0.54899 0.10005 0.81492 0.0
C979 C 0.59636 0.09121 0.82968 0.0
C980 C 0.62904 0.1053 0.87612 0.0
C981 C 0.59938 0.06585 0.84417 0.0
C982 C 0.60348 0.09493 0.77672 0.0
C983 C 0.56597 0.10452 0.7385 0.0
C984 C 0.56388 0.10936 0.68635 0.0
C985 C 0.60077 0.1041 0.67252 0.0
C986 C 0.6396 0.09388 0.71039 0.0
C987 C 0.64086 0.08941 0.76348 0.0
loop_
_geom_bond_atom_site_label_1
_geom_bond_atom_site_label_2
_geom_bond_distance
_geom_bond_site_symmetry_2
_ccdc_geom_bond_type
O0 Tb1 2.292 . S
O0 C3 1.255 . S
Tb1 O0 2.292 . S
Tb1 O17 2.326 . S
Tb1 O19 2.500 . S
Tb1 O20 2.473 . S
Tb1 O23 2.324 . S
Eu2 O6 2.292 1_554 S
Eu2 C7 2.852 . S
Eu2 O18 2.324 . S
Eu2 O22 2.326 . S
Eu2 O24 2.500 . S
Eu2 O25 2.473 . S
C3 O0 1.255 . S
C3 O4 1.247 . S
O4 C3 1.247 . S
C5 O17 1.242 . S
C5 O18 1.258 . S
O6 Eu2 2.292 1_556 S
O6 C8 1.255 . S
C7 Eu2 2.852 . S
C7 C11 1.503 . S
C7 O24 1.273 . S
C7 O25 1.257 . S
C8 O6 1.255 . S
C8 O9 1.247 . S
O9 C8 1.247 . S
C10 O22 1.242 . S
C10 O23 1.258 . S
C11 C7 1.503 . S
C11 C12 1.379 . S
C11 C16 1.392 . S
C12 C11 1.379 . S
C12 C13 1.404 . S
C12 H26 0.929 . S
C13 C12 1.404 . S
C13 C14 1.389 . S
C14 C13 1.389 . S
C14 C15 1.399 . S
C14 H27 0.931 . S
C15 C14 1.399 . S
C15 C16 1.390 . S
C16 C11 1.392 . S
C16 C15 1.390 . S
C16 H28 0.929 . S
O17 Tb1 2.326 . S
O17 C5 1.242 . S
O18 Eu2 2.324 . S
O18 C5 1.258 . S
O19 Tb1 2.500 . S
O19 C21 1.273 . S
O20 Tb1 2.473 . S
O20 C21 1.257 . S
C21 O19 1.273 . S
C21 O20 1.257 . S
O22 Eu2 2.326 . S
O22 C10 1.242 . S
O23 Tb1 2.324 . S
O23 C10 1.258 . S
O24 Eu2 2.500 . S
O24 C7 1.273 . S
O25 Eu2 2.473 . S
O25 C7 1.257 . S
H26 C12 0.929 . S
H27 C14 0.931 . S
H28 C16 0.929 . S
O29 Tb30 2.292 . S
O29 C32 1.255 . S
Tb30 O29 2.292 . S
Tb30 O46 2.326 . S
Tb30 O48 2.500 . S
Tb30 O49 2.473 . S
Tb30 O52 2.324 . S
Eu31 O35 2.292 . S
Eu31 C36 2.852 . S
Eu31 O47 2.324 . S
Eu31 O51 2.326 . S
Eu31 O53 2.500 . S
Eu31 O54 2.473 . S
C32 O29 1.255 . S
C32 O33 1.247 . S
O33 C32 1.247 . S
C34 O46 1.242 . S
C34 O47 1.258 . S
O35 Eu31 2.292 . S
O35 C37 1.255 . S
C36 Eu31 2.852 . S
C36 C40 1.503 . S
C36 O53 1.273 . S
C36 O54 1.257 . S
C37 O35 1.255 . S
C37 O38 1.247 . S
O38 C37 1.247 . S
C39 O51 1.242 . S
C39 O52 1.258 . S
C40 C36 1.503 . S
C40 C41 1.379 . S
C40 C45 1.392 . S
C41 C40 1.379 . S
C41 C42 1.404 . S
C41 H55 0.929 . S
C42 C41 1.404 . S
C42 C43 1.389 . S
C43 C42 1.389 . S
C43 C44 1.399 . S
C43 H56 0.931 . S
C44 C43 1.399 . S
C44 C45 1.390 . S
C45 C40 1.392 . S
C45 C44 1.390 . S
C45 H57 0.929 . S
O46 Tb30 2.326 . S
O46 C34 1.242 . S
O47 Eu31 2.324 . S
O47 C34 1.258 . S
O48 Tb30 2.500 . S
O48 C50 1.273 . S
O49 Tb30 2.473 . S
O49 C50 1.257 . S
C50 O48 1.273 . S
C50 O49 1.257 . S
O51 Eu31 2.326 . S
O51 C39 1.242 . S
O52 Tb30 2.324 . S
O52 C39 1.258 . S
O53 Eu31 2.500 . S
O53 C36 1.273 . S
O54 Eu31 2.473 . S
O54 C36 1.257 . S
H55 C41 0.929 . S
H56 C43 0.931 . S
H57 C45 0.929 . S
O58 Tb59 2.292 . S
O58 C61 1.255 . S
Tb59 O58 2.292 . S
Tb59 O75 2.326 . S
Tb59 O77 2.500 . S
Tb59 O78 2.473 . S
Tb59 O81 2.324 . S
Eu60 O64 2.292 1_556 S
Eu60 C65 2.852 . S
Eu60 O76 2.324 . S
Eu60 O80 2.326 . S
Eu60 O82 2.500 . S
Eu60 O83 2.473 . S
C61 O58 1.255 . S
C61 O62 1.247 . S
O62 C61 1.247 . S
C63 O75 1.242 . S
C63 O76 1.258 . S
O64 Eu60 2.292 1_554 S
O64 C66 1.255 . S
C65 Eu60 2.852 . S
C65 C69 1.503 . S
C65 O82 1.273 . S
C65 O83 1.257 . S
C66 O64 1.255 . S
C66 O67 1.247 . S
O67 C66 1.247 . S
C68 O80 1.242 . S
C68 O81 1.258 . S
C69 C65 1.503 . S
C69 C70 1.379 . S
C69 C74 1.392 . S
C70 C69 1.379 . S
C70 C71 1.404 . S
C70 H84 0.929 . S
C71 C70 1.404 . S
C71 C72 1.389 . S
C72 C71 1.389 . S
C72 C73 1.399 . S
C72 H85 0.931 . S
C73 C72 1.399 . S
C73 C74 1.390 . S
C74 C69 1.392 . S
C74 C73 1.390 . S
C74 H86 0.929 . S
O75 Tb59 2.326 . S
O75 C63 1.242 . S
O76 Eu60 2.324 . S
O76 C63 1.258 . S
O77 Tb59 2.500 . S
O77 C79 1.273 . S
O78 Tb59 2.473 . S
O78 C79 1.257 . S
C79 O77 1.273 . S
C79 O78 1.257 . S
O80 Eu60 2.326 . S
O80 C68 1.242 . S
O81 Tb59 2.324 . S
O81 C68 1.258 . S
O82 Eu60 2.500 . S
O82 C65 1.273 . S
O83 Eu60 2.473 . S
O83 C65 1.257 . S
H84 C70 0.929 . S
H85 C72 0.931 . S
H86 C74 0.929 . S
O87 Tb88 2.292 . S
O87 C90 1.255 . S
Tb88 O87 2.292 . S
Tb88 O104 2.326 . S
Tb88 O106 2.500 . S
Tb88 O107 2.473 . S
Tb88 O110 2.324 . S
Eu89 O93 2.292 . S
Eu89 C94 2.852 . S
Eu89 O105 2.324 . S
Eu89 O109 2.326 . S
Eu89 O111 2.500 . S
Eu89 O112 2.473 . S
C90 O87 1.255 . S
C90 O91 1.247 . S
O91 C90 1.247 . S
C92 O104 1.242 . S
C92 O105 1.258 . S
O93 Eu89 2.292 . S
O93 C95 1.255 . S
C94 Eu89 2.852 . S
C94 C98 1.503 . S
C94 O111 1.273 . S
C94 O112 1.257 . S
C95 O93 1.255 . S
C95 O96 1.247 . S
O96 C95 1.247 . S
C97 O109 1.242 . S
C97 O110 1.258 . S
C98 C94 1.503 . S
C98 C99 1.379 . S
C98 C103 1.392 . S
C99 C98 1.379 . S
C99 C100 1.404 . S
C99 H113 0.929 . S
C100 C99 1.404 . S
C100 C101 1.389 . S
C101 C100 1.389 . S
C101 C102 1.399 . S
C101 H114 0.931 . S
C102 C101 1.399 . S
C102 C103 1.390 . S
C103 C98 1.392 . S
C103 C102 1.390 . S
C103 H115 0.929 . S
O104 Tb88 2.326 . S
O104 C92 1.242 . S
O105 Eu89 2.324 . S
O105 C92 1.258 . S
O106 Tb88 2.500 . S
O106 C108 1.273 . S
O107 Tb88 2.473 . S
O107 C108 1.257 . S
C108 O106 1.273 . S
C108 O107 1.257 . S
O109 Eu89 2.326 . S
O109 C97 1.242 . S
O110 Tb88 2.324 . S
O110 C97 1.258 . S
O111 Eu89 2.500 . S
O111 C94 1.273 . S
O112 Eu89 2.473 . S
O112 C94 1.257 . S
H113 C99 0.929 . S
H114 C101 0.931 . S
H115 C103 0.929 . S
O116 Tb117 2.292 . S
O116 C119 1.255 . S
Tb117 O116 2.292 . S
Tb117 O133 2.326 . S
Tb117 O135 2.500 . S
Tb117 O136 2.473 . S
Tb117 O139 2.324 . S
Eu118 O122 2.292 1_554 S
Eu118 C123 2.852 . S
Eu118 O134 2.324 . S
Eu118 O138 2.326 . S
Eu118 O140 2.500 . S
Eu118 O141 2.473 . S
C119 O116 1.255 . S
C119 O120 1.247 . S
O120 C119 1.247 . S
C121 O133 1.242 . S
C121 O134 1.258 . S
O122 Eu118 2.292 1_556 S
O122 C124 1.255 . S
C123 Eu118 2.852 . S
C123 C127 1.503 . S
C123 O140 1.273 . S
C123 O141 1.257 . S
C124 O122 1.255 . S
C124 O125 1.247 . S
O125 C124 1.247 . S
C126 O138 1.242 . S
C126 O139 1.258 . S
C127 C123 1.503 . S
C127 C128 1.379 . S
C127 C132 1.392 . S
C128 C127 1.379 . S
C128 C129 1.404 . S
C128 H142 0.929 . S
C129 C128 1.404 . S
C129 C130 1.389 . S
C130 C129 1.389 . S
C130 C131 1.399 . S
C130 H143 0.931 . S
C131 C130 1.399 . S
C131 C132 1.390 . S
C132 C127 1.392 . S
C132 C131 1.390 . S
C132 H144 0.929 . S
O133 Tb117 2.326 . S
O133 C121 1.242 . S
O134 Eu118 2.324 . S
O134 C121 1.258 . S
O135 Tb117 2.500 . S
O135 C137 1.273 . S
O136 Tb117 2.473 . S
O136 C137 1.257 . S
C137 O135 1.273 . S
C137 O136 1.257 . S
O138 Eu118 2.326 . S
O138 C126 1.242 . S
O139 Tb117 2.324 . S
O139 C126 1.258 . S
O140 Eu118 2.500 . S
O140 C123 1.273 . S
O141 Eu118 2.473 . S
O141 C123 1.257 . S
H142 C128 0.929 . S
H143 C130 0.931 . S
H144 C132 0.929 . S
O145 Tb146 2.292 . S
O145 C148 1.255 . S
Tb146 O145 2.292 . S
Tb146 O162 2.326 . S
Tb146 O164 2.500 . S
Tb146 O165 2.473 . S
Tb146 O168 2.324 . S
Eu147 O151 2.292 . S
Eu147 C152 2.852 . S
Eu147 O163 2.324 . S
Eu147 O167 2.326 . S
Eu147 O169 2.500 . S
Eu147 O170 2.473 . S
C148 O145 1.255 . S
C148 O149 1.247 . S
O149 C148 1.247 . S
C150 O162 1.242 . S
C150 O163 1.258 . S
O151 Eu147 2.292 . S
O151 C153 1.255 . S
C152 Eu147 2.852 . S
C152 C156 1.503 . S
C152 O169 1.273 . S
C152 O170 1.257 . S
C153 O151 1.255 . S
C153 O154 1.247 . S
O154 C153 1.247 . S
C155 O167 1.242 . S
C155 O168 1.258 . S
C156 C152 1.503 . S
C156 C157 1.379 . S
C156 C161 1.392 . S
C157 C156 1.379 . S
C157 C158 1.404 . S
C157 H171 0.929 . S
C158 C157 1.404 . S
C158 C159 1.389 . S
C159 C158 1.389 . S
C159 C160 1.399 . S
C159 H172 0.931 . S
C160 C159 1.399 . S
C160 C161 1.390 . S
C161 C156 1.392 . S
C161 C160 1.390 . S
C161 H173 0.929 . S
O162 Tb146 2.326 . S
O162 C150 1.242 . S
O163 Eu147 2.324 . S
O163 C150 1.258 . S
O164 Tb146 2.500 . S
O164 C166 1.273 . S
O165 Tb146 2.473 . S
O165 C166 1.257 . S
C166 O164 1.273 . S
C166 O165 1.257 . S
O167 Eu147 2.326 . S
O167 C155 1.242 . S
O168 Tb146 2.324 . S
O168 C155 1.258 . S
O169 Eu147 2.500 . S
O169 C152 1.273 . S
O170 Eu147 2.473 . S
O170 C152 1.257 . S
H171 C157 0.929 . S
H172 C159 0.931 . S
H173 C161 0.929 . S
O174 Tb175 2.292 . S
O174 C177 1.255 . S
Tb175 O174 2.292 . S
Tb175 O191 2.326 . S
Tb175 O193 2.500 . S
Tb175 O194 2.473 . S
Tb175 O197 2.324 . S
Eu176 O180 2.292 1_556 S
Eu176 C181 2.852 . S
Eu176 O192 2.324 . S
Eu176 O196 2.326 . S
Eu176 O198 2.500 . S
Eu176 O199 2.473 . S
C177 O174 1.255 . S
C177 O178 1.247 . S
O178 C177 1.247 . S
C179 O191 1.242 . S
C179 O192 1.258 . S
O180 Eu176 2.292 1_554 S
O180 C182 1.255 . S
C181 Eu176 2.852 . S
C181 C185 1.503 . S
C181 O198 1.273 . S
C181 O199 1.257 . S
C182 O180 1.255 . S
C182 O183 1.247 . S
O183 C182 1.247 . S
C184 O196 1.242 . S
C184 O197 1.258 . S
C185 C181 1.503 . S
C185 C186 1.379 . S
C185 C190 1.392 . S
C186 C185 1.379 . S
C186 C187 1.404 . S
C186 H200 0.929 . S
C187 C186 1.404 . S
C187 C188 1.389 . S
C188 C187 1.389 . S
C188 C189 1.399 . S
C188 H201 0.931 . S
C189 C188 1.399 . S
C189 C190 1.390 . S
C190 C185 1.392 . S
C190 C189 1.390 . S
C190 H202 0.929 . S
O191 Tb175 2.326 . S
O191 C179 1.242 . S
O192 Eu176 2.324 . S
O192 C179 1.258 . S
O193 Tb175 2.500 . S
O193 C195 1.273 . S
O194 Tb175 2.473 . S
O194 C195 1.257 . S
C195 O193 1.273 . S
C195 O194 1.257 . S
O196 Eu176 2.326 . S
O196 C184 1.242 . S
O197 Tb175 2.324 . S
O197 C184 1.258 . S
O198 Eu176 2.500 . S
O198 C181 1.273 . S
O199 Eu176 2.473 . S
O199 C181 1.257 . S
H200 C186 0.929 . S
H201 C188 0.931 . S
H202 C190 0.929 . S
O203 Tb204 2.292 . S
O203 C206 1.255 . S
Tb204 O203 2.292 . S
Tb204 O220 2.326 . S
Tb204 O222 2.500 . S
Tb204 O223 2.473 . S
Tb204 O226 2.324 . S
Eu205 O209 2.292 . S
Eu205 C210 2.852 . S
Eu205 O221 2.324 . S
Eu205 O225 2.326 . S
Eu205 O227 2.500 . S
Eu205 O228 2.473 . S
C206 O203 1.255 . S
C206 O207 1.247 . S
O207 C206 1.247 . S
C208 O220 1.242 . S
C208 O221 1.258 . S
O209 Eu205 2.292 . S
O209 C211 1.255 . S
C210 Eu205 2.852 . S
C210 C214 1.503 . S
C210 O227 1.273 . S
C210 O228 1.257 . S
C211 O209 1.255 . S
C211 O212 1.247 . S
O212 C211 1.247 . S
C213 O225 1.242 . S
C213 O226 1.258 . S
C214 C210 1.503 . S
C214 C215 1.379 . S
C214 C219 1.392 . S
C215 C214 1.379 . S
C215 C216 1.404 . S
C215 H229 0.929 . S
C216 C215 1.404 . S
C216 C217 1.389 . S
C217 C216 1.389 . S
C217 C218 1.399 . S
C217 H230 0.931 . S
C218 C217 1.399 . S
C218 C219 1.390 . S
C219 C214 1.392 . S
C219 C218 1.390 . S
C219 H231 0.929 . S
O220 Tb204 2.326 . S
O220 C208 1.242 . S
O221 Eu205 2.324 . S
O221 C208 1.258 . S
O222 Tb204 2.500 . S
O222 C224 1.273 . S
O223 Tb204 2.473 . S
O223 C224 1.257 . S
C224 O222 1.273 . S
C224 O223 1.257 . S
O225 Eu205 2.326 . S
O225 C213 1.242 . S
O226 Tb204 2.324 . S
O226 C213 1.258 . S
O227 Eu205 2.500 . S
O227 C210 1.273 . S
O228 Eu205 2.473 . S
O228 C210 1.257 . S
H229 C215 0.929 . S
H230 C217 0.931 . S
H231 C219 0.929 . S
H232 C244 0.930 . S
H233 C246 0.930 . S
H234 C247 0.930 . S
H235 C251 0.959 . S
H236 C251 0.959 . S
H237 C251 0.961 . S
H238 C252 0.960 . S
H239 C252 0.961 . S
H240 C252 0.959 . S
H241 C255 0.929 . S
H242 C256 0.931 . S
H243 C258 0.930 . S
C244 H232 0.930 . S
C244 C245 1.399 . S
C244 C249 1.399 . S
C245 C244 1.399 . S
C245 C246 1.376 . S
C246 H233 0.930 . S
C246 C245 1.376 . S
C246 C247 1.388 . S
C247 H234 0.930 . S
C247 C246 1.388 . S
C247 C248 1.390 . S
C248 C247 1.390 . S
C248 C249 1.394 . S
C248 C254 1.465 . S
C249 C244 1.399 . S
C249 C248 1.394 . S
C249 C250 1.516 . S
C250 C249 1.516 . S
C250 C251 1.502 . S
C250 C252 1.561 . S
C250 C253 1.526 . S
C251 H235 0.959 . S
C251 H236 0.959 . S
C251 H237 0.961 . S
C251 C250 1.502 . S
C252 H238 0.960 . S
C252 H239 0.961 . S
C252 H240 0.959 . S
C252 C250 1.561 . S
C253 C250 1.526 . S
C253 C254 1.396 . S
C253 C258 1.390 . S
C254 C248 1.465 . S
C254 C253 1.396 . S
C254 C255 1.399 . S
C255 H241 0.929 . S
C255 C254 1.399 . S
C255 C256 1.385 . S
C256 H242 0.931 . S
C256 C255 1.385 . S
C256 C257 1.389 . S
C257 C256 1.389 . S
C257 C258 1.387 . S
C258 H243 0.930 . S
C258 C253 1.390 . S
C258 C257 1.387 . S
H259 C271 0.930 . S
H260 C273 0.930 . S
H261 C274 0.930 . S
H262 C278 0.959 . S
H263 C278 0.959 . S
H264 C278 0.961 . S
H265 C279 0.960 . S
H266 C279 0.961 . S
H267 C279 0.959 . S
H268 C282 0.929 . S
H269 C283 0.931 . S
H270 C285 0.930 . S
C271 H259 0.930 . S
C271 C272 1.399 . S
C271 C276 1.399 . S
C272 C271 1.399 . S
C272 C273 1.376 . S
C273 H260 0.930 . S
C273 C272 1.376 . S
C273 C274 1.388 . S
C274 H261 0.930 . S
C274 C273 1.388 . S
C274 C275 1.390 . S
C275 C274 1.390 . S
C275 C276 1.394 . S
C275 C281 1.465 . S
C276 C271 1.399 . S
C276 C275 1.394 . S
C276 C277 1.516 . S
C277 C276 1.516 . S
C277 C278 1.502 . S
C277 C279 1.561 . S
C277 C280 1.526 . S
C278 H262 0.959 . S
C278 H263 0.959 . S
C278 H264 0.961 . S
C278 C277 1.502 . S
C279 H265 0.960 . S
C279 H266 0.961 . S
C279 H267 0.959 . S
C279 C277 1.561 . S
C280 C277 1.526 . S
C280 C281 1.396 . S
C280 C285 1.390 . S
C281 C275 1.465 . S
C281 C280 1.396 . S
C281 C282 1.399 . S
C282 H268 0.929 . S
C282 C281 1.399 . S
C282 C283 1.385 . S
C283 H269 0.931 . S
C283 C282 1.385 . S
C283 C284 1.389 . S
C284 C283 1.389 . S
C284 C285 1.387 . S
C285 H270 0.930 . S
C285 C280 1.390 . S
C285 C284 1.387 . S
H286 C298 0.930 . S
H287 C300 0.930 . S
H288 C301 0.930 . S
H289 C305 0.959 . S
H290 C305 0.959 . S
H291 C305 0.961 1_655 S
H292 C306 0.960 . S
H293 C306 0.961 1_455 S
H294 C306 0.959 . S
H295 C309 0.929 . S
H296 C310 0.931 . S
H297 C312 0.930 . S
C298 H286 0.930 . S
C298 C299 1.399 . S
C298 C303 1.399 . S
C299 C298 1.399 . S
C299 C300 1.376 . S
C300 H287 0.930 . S
C300 C299 1.376 . S
C300 C301 1.388 . S
C301 H288 0.930 . S
C301 C300 1.388 . S
C301 C302 1.390 . S
C302 C301 1.390 . S
C302 C303 1.394 . S
C302 C308 1.465 1_655 S
C303 C298 1.399 . S
C303 C302 1.394 . S
C303 C304 1.504 1_655 S
C304 C303 1.504 1_455 S
C304 C305 1.498 . S
C304 C306 1.565 1_455 S
C304 C307 1.539 . S
C305 H289 0.959 . S
C305 H290 0.959 . S
C305 H291 0.961 1_455 S
C305 C304 1.498 . S
C306 H292 0.960 . S
C306 H293 0.961 1_655 S
C306 H294 0.959 . S
C306 C304 1.565 1_655 S
C307 C304 1.539 . S
C307 C308 1.396 . S
C307 C312 1.390 . S
C308 C302 1.465 1_455 S
C308 C307 1.396 . S
C308 C309 1.399 . S
C309 H295 0.929 . S
C309 C308 1.399 . S
C309 C310 1.385 . S
C310 H296 0.931 . S
C310 C309 1.385 . S
C310 C311 1.389 . S
C311 C310 1.389 . S
C311 C312 1.387 . S
C312 H297 0.930 . S
C312 C307 1.390 . S
C312 C311 1.387 . S
H313 C325 0.930 . S
H314 C327 0.930 . S
H315 C328 0.930 . S
H316 C332 0.959 . S
H317 C332 0.959 1_455 S
H318 C332 0.961 . S
H319 C333 0.960 1_655 S
H320 C333 0.961 . S
H321 C333 0.959 . S
H322 C336 0.929 . S
H323 C337 0.931 . S
H324 C339 0.930 . S
C325 H313 0.930 . S
C325 C326 1.399 . S
C325 C330 1.399 . S
C326 C325 1.399 . S
C326 C327 1.376 . S
C327 H314 0.930 . S
C327 C326 1.376 . S
C327 C328 1.388 . S
C328 H315 0.930 . S
C328 C327 1.388 . S
C328 C329 1.390 . S
C329 C328 1.390 . S
C329 C330 1.394 . S
C329 C335 1.465 1_655 S
C330 C325 1.399 . S
C330 C329 1.394 . S
C330 C331 1.521 . S
C331 C330 1.521 . S
C331 C332 1.500 . S
C331 C333 1.563 1_655 S
C331 C334 1.521 1_655 S
C332 H316 0.959 . S
C332 H317 0.959 1_655 S
C332 H318 0.961 . S
C332 C331 1.500 . S
C333 H319 0.960 1_455 S
C333 H320 0.961 . S
C333 H321 0.959 . S
C333 C331 1.563 1_455 S
C334 C331 1.521 1_455 S
C334 C335 1.396 . S
C334 C339 1.390 . S
C335 C329 1.465 1_455 S
C335 C334 1.396 . S
C335 C336 1.399 . S
C336 H322 0.929 . S
C336 C335 1.399 . S
C336 C337 1.385 . S
C337 H323 0.931 . S
C337 C336 1.385 . S
C337 C338 1.389 . S
C338 C337 1.389 . S
C338 C339 1.387 . S
C339 H324 0.930 . S
C339 C334 1.390 . S
C339 C338 1.387 . S
H340 C352 0.924 1_554 S
H341 C354 0.930 . S
H342 C355 0.930 . S
H343 C359 0.959 . S
H344 C359 0.959 . S
H345 C359 0.961 . S
H346 C360 0.960 . S
H347 C360 0.961 . S
H348 C360 0.959 . S
H349 C363 0.929 . S
H350 C364 0.931 . S
H351 C366 0.930 . S
C352 H340 0.924 1_556 S
C352 C353 1.405 . S
C352 C357 1.398 1_556 S
C353 C352 1.405 . S
C353 C354 1.376 . S
C354 H341 0.930 . S
C354 C353 1.376 . S
C354 C355 1.388 . S
C355 H342 0.930 . S
C355 C354 1.388 . S
C355 C356 1.390 . S
C356 C355 1.390 . S
C356 C357 1.394 1_556 S
C356 C362 1.465 . S
C357 C352 1.398 1_554 S
C357 C356 1.394 1_554 S
C357 C358 1.516 . S
C358 C357 1.516 . S
C358 C359 1.502 . S
C358 C360 1.561 . S
C358 C361 1.526 . S
C359 H343 0.959 . S
C359 H344 0.959 . S
C359 H345 0.961 . S
C359 C358 1.502 . S
C360 H346 0.960 . S
C360 H347 0.961 . S
C360 H348 0.959 . S
C360 C358 1.561 . S
C361 C358 1.526 . S
C361 C362 1.396 1_554 S
C361 C366 1.390 . S
C362 C356 1.465 . S
C362 C361 1.396 1_556 S
C362 C363 1.399 . S
C363 H349 0.929 . S
C363 C362 1.399 . S
C363 C364 1.385 . S
C364 H350 0.931 . S
C364 C363 1.385 . S
C364 C365 1.389 1_556 S
C365 C364 1.389 1_554 S
C365 C366 1.387 . S
C366 H351 0.930 . S
C366 C361 1.390 . S
C366 C365 1.387 . S
H367 C379 0.930 . S
H368 C381 0.930 . S
H369 C382 0.930 . S
H370 C386 0.959 . S
H371 C386 0.959 . S
H372 C386 0.961 . S
H373 C387 0.960 . S
H374 C387 0.961 . S
H375 C387 0.959 . S
H376 C390 0.929 . S
H377 C391 0.931 . S
H378 C393 0.930 . S
C379 H367 0.930 . S
C379 C380 1.399 . S
C379 C384 1.399 . S
C380 C379 1.399 . S
C380 C381 1.376 . S
C381 H368 0.930 . S
C381 C380 1.376 . S
C381 C382 1.388 . S
C382 H369 0.930 . S
C382 C381 1.388 . S
C382 C383 1.390 . S
C383 C382 1.390 . S
C383 C384 1.394 . S
C383 C389 1.465 . S
C384 C379 1.399 . S
C384 C383 1.394 . S
C384 C385 1.516 . S
C385 C384 1.516 . S
C385 C386 1.502 . S
C385 C387 1.561 . S
C385 C388 1.526 . S
C386 H370 0.959 . S
C386 H371 0.959 . S
C386 H372 0.961 . S
C386 C385 1.502 . S
C387 H373 0.960 . S
C387 H374 0.961 . S
C387 H375 0.959 . S
C387 C385 1.561 . S
C388 C385 1.526 . S
C388 C389 1.396 . S
C388 C393 1.390 . S
C389 C383 1.465 . S
C389 C388 1.396 . S
C389 C390 1.399 . S
C390 H376 0.929 . S
C390 C389 1.399 . S
C390 C391 1.385 . S
C391 H377 0.931 . S
C391 C390 1.385 . S
C391 C392 1.389 . S
C392 C391 1.389 . S
C392 C393 1.387 . S
C393 H378 0.930 . S
C393 C388 1.390 . S
C393 C392 1.387 . S
H394 C406 0.930 . S
H395 C408 0.930 . S
H396 C409 0.930 . S
H397 C413 0.959 . S
H398 C413 0.959 . S
H399 C413 0.961 . S
H400 C414 0.960 . S
H401 C414 0.961 . S
H402 C414 0.959 . S
H403 C417 0.929 . S
H404 C418 0.931 . S
H405 C420 0.930 . S
C406 H394 0.930 . S
C406 C407 1.399 . S
C406 C411 1.399 . S
C407 C406 1.399 . S
C407 C408 1.376 1_554 S
C408 H395 0.930 . S
C408 C407 1.376 1_556 S
C408 C409 1.388 . S
C409 H396 0.930 . S
C409 C408 1.388 . S
C409 C410 1.390 . S
C410 C409 1.390 . S
C410 C411 1.394 1_556 S
C410 C416 1.465 . S
C411 C406 1.399 . S
C411 C410 1.394 1_554 S
C411 C412 1.516 . S
C412 C411 1.516 . S
C412 C413 1.502 . S
C412 C414 1.561 . S
C412 C415 1.526 . S
C413 H397 0.959 . S
C413 H398 0.959 . S
C413 H399 0.961 . S
C413 C412 1.502 . S
C414 H400 0.960 . S
C414 H401 0.961 . S
C414 H402 0.959 . S
C414 C412 1.561 . S
C415 C412 1.526 . S
C415 C416 1.396 1_554 S
C415 C420 1.390 . S
C416 C410 1.465 . S
C416 C415 1.396 1_556 S
C416 C417 1.399 . S
C417 H403 0.929 . S
C417 C416 1.399 . S
C417 C418 1.385 . S
C418 H404 0.931 . S
C418 C417 1.385 . S
C418 C419 1.389 . S
C419 C418 1.389 . S
C419 C420 1.387 1_556 S
C420 H405 0.930 . S
C420 C415 1.390 . S
C420 C419 1.387 1_554 S
H421 C433 0.930 . S
H422 C435 0.930 . S
H423 C436 0.930 . S
H424 C440 0.959 . S
H425 C440 0.959 . S
H426 C440 0.961 . S
H427 C441 0.960 . S
H428 C441 0.961 . S
H429 C441 0.959 . S
H430 C444 0.929 . S
H431 C445 0.931 . S
H432 C447 0.930 . S
C433 H421 0.930 . S
C433 C434 1.399 . S
C433 C438 1.399 . S
C434 C433 1.399 . S
C434 C435 1.376 . S
C435 H422 0.930 . S
C435 C434 1.376 . S
C435 C436 1.388 . S
C436 H423 0.930 . S
C436 C435 1.388 . S
C436 C437 1.390 . S
C437 C436 1.390 . S
C437 C438 1.394 . S
C437 C443 1.465 . S
C438 C433 1.399 . S
C438 C437 1.394 . S
C438 C439 1.516 . S
C439 C438 1.516 . S
C439 C440 1.502 . S
C439 C441 1.561 . S
C439 C442 1.526 . S
C440 H424 0.959 . S
C440 H425 0.959 . S
C440 H426 0.961 . S
C440 C439 1.502 . S
C441 H427 0.960 . S
C441 H428 0.961 . S
C441 H429 0.959 . S
C441 C439 1.561 . S
C442 C439 1.526 . S
C442 C443 1.396 . S
C442 C447 1.390 . S
C443 C437 1.465 . S
C443 C442 1.396 . S
C443 C444 1.399 . S
C444 H430 0.929 . S
C444 C443 1.399 . S
C444 C445 1.385 . S
C445 H431 0.931 . S
C445 C444 1.385 . S
C445 C446 1.389 . S
C446 C445 1.389 . S
C446 C447 1.387 . S
C447 H432 0.930 . S
C447 C442 1.390 . S
C447 C446 1.387 . S
H448 C460 0.930 . S
H449 C462 0.930 . S
H450 C463 0.930 . S
H451 C467 0.959 . S
H452 C467 0.959 . S
H453 C467 0.961 . S
H454 C468 0.960 . S
H455 C468 0.961 . S
H456 C468 0.959 . S
H457 C471 0.929 . S
H458 C472 0.931 1_554 S
H459 C474 0.930 . S
C460 H448 0.930 . S
C460 C461 1.399 . S
C460 C465 1.399 . S
C461 C460 1.399 . S
C461 C462 1.376 . S
C462 H449 0.930 . S
C462 C461 1.376 . S
C462 C463 1.388 . S
C463 H450 0.930 . S
C463 C462 1.388 . S
C463 C464 1.390 . S
C464 C463 1.390 . S
C464 C465 1.394 . S
C464 C470 1.465 . S
C465 C460 1.399 . S
C465 C464 1.394 . S
C465 C466 1.516 . S
C466 C465 1.516 . S
C466 C467 1.502 . S
C466 C468 1.561 . S
C466 C469 1.526 . S
C467 H451 0.959 . S
C467 H452 0.959 . S
C467 H453 0.961 . S
C467 C466 1.502 . S
C468 H454 0.960 . S
C468 H455 0.961 . S
C468 H456 0.959 . S
C468 C466 1.561 . S
C469 C466 1.526 . S
C469 C470 1.396 . S
C469 C474 1.390 . S
C470 C464 1.465 . S
C470 C469 1.396 . S
C470 C471 1.399 . S
C471 H457 0.929 . S
C471 C470 1.399 . S
C471 C472 1.385 . S
C472 H458 0.931 1_556 S
C472 C471 1.385 . S
C472 C473 1.389 . S
C473 C472 1.389 . S
C473 C474 1.387 . S
C474 H459 0.930 . S
C474 C469 1.390 . S
C474 C473 1.387 . S
H475 C487 0.930 . S
H476 C489 0.930 . S
H477 C490 0.930 . S
H478 C494 0.959 . S
H479 C494 0.959 . S
H480 C494 0.961 . S
H481 C495 0.960 . S
H482 C495 0.961 . S
H483 C495 0.959 . S
H484 C498 0.929 . S
H485 C499 0.931 . S
H486 C501 0.930 . S
C487 H475 0.930 . S
C487 C488 1.399 . S
C487 C492 1.399 . S
C488 C487 1.399 . S
C488 C489 1.376 . S
C489 H476 0.930 . S
C489 C488 1.376 . S
C489 C490 1.388 . S
C490 H477 0.930 . S
C490 C489 1.388 . S
C490 C491 1.390 . S
C491 C490 1.390 . S
C491 C492 1.394 . S
C491 C497 1.465 . S
C492 C487 1.399 . S
C492 C491 1.394 . S
C492 C493 1.516 . S
C493 C492 1.516 . S
C493 C494 1.502 . S
C493 C495 1.561 . S
C493 C496 1.526 . S
C494 H478 0.959 . S
C494 H479 0.959 . S
C494 H480 0.961 . S
C494 C493 1.502 . S
C495 H481 0.960 . S
C495 H482 0.961 . S
C495 H483 0.959 . S
C495 C493 1.561 . S
C496 C493 1.526 . S
C496 C497 1.396 . S
C496 C501 1.390 . S
C497 C491 1.465 . S
C497 C496 1.396 . S
C497 C498 1.399 . S
C498 H484 0.929 . S
C498 C497 1.399 . S
C498 C499 1.385 . S
C499 H485 0.931 . S
C499 C498 1.385 . S
C499 C500 1.389 . S
C500 C499 1.389 . S
C500 C501 1.387 . S
C501 H486 0.930 . S
C501 C496 1.390 . S
C501 C500 1.387 . S
H502 C514 0.930 . S
H503 C516 0.930 . S
H504 C517 0.930 . S
H505 C521 0.959 . S
H506 C521 0.959 . S
H507 C521 0.961 . S
H508 C522 0.960 . S
H509 C522 0.961 . S
H510 C522 0.959 . S
H511 C525 0.929 . S
H512 C526 0.931 . S
H513 C528 0.930 . S
C514 H502 0.930 . S
C514 C515 1.399 . S
C514 C519 1.399 . S
C515 C514 1.399 . S
C515 C516 1.376 . S
C516 H503 0.930 . S
C516 C515 1.376 . S
C516 C517 1.388 . S
C517 H504 0.930 . S
C517 C516 1.388 . S
C517 C518 1.390 . S
C518 C517 1.390 . S
C518 C519 1.394 . S
C518 C524 1.465 . S
C519 C514 1.399 . S
C519 C518 1.394 . S
C519 C520 1.516 . S
C520 C519 1.516 . S
C520 C521 1.502 . S
C520 C522 1.561 . S
C520 C523 1.526 . S
C521 H505 0.959 . S
C521 H506 0.959 . S
C521 H507 0.961 . S
C521 C520 1.502 . S
C522 H508 0.960 . S
C522 H509 0.961 . S
C522 H510 0.959 . S
C522 C520 1.561 . S
C523 C520 1.526 . S
C523 C524 1.396 . S
C523 C528 1.390 . S
C524 C518 1.465 . S
C524 C523 1.396 . S
C524 C525 1.399 . S
C525 H511 0.929 . S
C525 C524 1.399 . S
C525 C526 1.385 . S
C526 H512 0.931 . S
C526 C525 1.385 . S
C526 C527 1.389 . S
C527 C526 1.389 . S
C527 C528 1.387 . S
C528 H513 0.930 . S
C528 C523 1.390 . S
C528 C527 1.387 . S
H529 C541 0.930 . S
H530 C543 0.930 . S
H531 C544 0.930 . S
H532 C548 0.959 . S
H533 C548 0.959 . S
H534 C548 0.961 . S
H535 C549 0.960 . S
H536 C549 0.961 . S
H537 C549 0.959 . S
H538 C552 0.929 . S
H539 C553 0.931 . S
H540 C555 0.930 . S
C541 H529 0.930 . S
C541 C542 1.399 . S
C541 C546 1.399 . S
C542 C541 1.399 . S
C542 C543 1.376 . S
C543 H530 0.930 . S
C543 C542 1.376 . S
C543 C544 1.388 . S
C544 H531 0.930 . S
C544 C543 1.388 . S
C544 C545 1.390 . S
C545 C544 1.390 . S
C545 C546 1.394 . S
C545 C551 1.465 . S
C546 C541 1.399 . S
C546 C545 1.394 . S
C546 C547 1.516 . S
C547 C546 1.516 . S
C547 C548 1.502 . S
C547 C549 1.561 . S
C547 C550 1.526 . S
C548 H532 0.959 . S
C548 H533 0.959 . S
C548 H534 0.961 . S
C548 C547 1.502 . S
C549 H535 0.960 . S
C549 H536 0.961 . S
C549 H537 0.959 . S
C549 C547 1.561 . S
C550 C547 1.526 . S
C550 C551 1.396 . S
C550 C555 1.390 . S
C551 C545 1.465 . S
C551 C550 1.396 . S
C551 C552 1.399 . S
C552 H538 0.929 . S
C552 C551 1.399 . S
C552 C553 1.385 . S
C553 H539 0.931 . S
C553 C552 1.385 . S
C553 C554 1.389 . S
C554 C553 1.389 . S
C554 C555 1.387 . S
C555 H540 0.930 . S
C555 C550 1.390 . S
C555 C554 1.387 . S
H556 C568 0.930 . S
H557 C570 0.930 . S
H558 C571 0.965 . S
H559 C575 0.959 . S
H560 C575 0.959 . S
H561 C575 0.961 . S
H562 C576 0.960 . S
H563 C576 0.961 . S
H564 C576 0.959 . S
H565 C579 0.929 . S
H566 C580 0.931 . S
H567 C582 0.947 . S
C568 H556 0.930 . S
C568 C569 1.399 . S
C568 C573 1.399 . S
C569 C568 1.399 . S
C569 C570 1.376 . S
C570 H557 0.930 . S
C570 C569 1.376 . S
C570 C571 1.388 . S
C571 H558 0.965 . S
C571 C570 1.388 . S
C571 C572 1.390 . S
C572 C571 1.390 . S
C572 C573 1.394 . S
C572 C578 1.465 1_565 S
C573 C568 1.399 . S
C573 C572 1.394 . S
C573 C574 1.516 . S
C574 C573 1.516 . S
C574 C575 1.502 . S
C574 C576 1.561 . S
C574 C577 1.526 . S
C575 H559 0.959 . S
C575 H560 0.959 . S
C575 H561 0.961 . S
C575 C574 1.502 . S
C576 H562 0.960 . S
C576 H563 0.961 . S
C576 H564 0.959 . S
C576 C574 1.561 . S
C577 C574 1.526 . S
C577 C578 1.396 1_565 S
C577 C582 1.390 1_565 S
C578 C572 1.465 1_545 S
C578 C577 1.396 1_545 S
C578 C579 1.399 . S
C579 H565 0.929 . S
C579 C578 1.399 . S
C579 C580 1.385 . S
C580 H566 0.931 . S
C580 C579 1.385 . S
C580 C581 1.389 . S
C581 C580 1.389 . S
C581 C582 1.387 . S
C582 H567 0.947 . S
C582 C577 1.390 1_545 S
C582 C581 1.387 . S
H583 C595 0.930 . S
H584 C597 0.930 . S
H585 C598 0.930 . S
H586 C602 0.959 . S
H587 C602 0.959 . S
H588 C602 0.961 1_545 S
H589 C603 0.960 . S
H590 C603 0.961 . S
H591 C603 0.959 . S
H592 C606 0.929 . S
H593 C607 0.931 . S
H594 C609 0.930 . S
C595 H583 0.930 . S
C595 C596 1.399 . S
C595 C600 1.399 . S
C596 C595 1.399 . S
C596 C597 1.376 . S
C597 H584 0.930 . S
C597 C596 1.376 . S
C597 C598 1.388 1_545 S
C598 H585 0.930 . S
C598 C597 1.388 1_565 S
C598 C599 1.390 . S
C599 C598 1.390 . S
C599 C600 1.394 1_565 S
C599 C605 1.465 . S
C600 C595 1.399 . S
C600 C599 1.394 1_545 S
C600 C601 1.516 . S
C601 C600 1.516 . S
C601 C602 1.502 1_545 S
C601 C603 1.561 . S
C601 C604 1.526 1_545 S
C602 H586 0.959 . S
C602 H587 0.959 . S
C602 H588 0.961 1_565 S
C602 C601 1.502 1_565 S
C603 H589 0.960 . S
C603 H590 0.961 . S
C603 H591 0.959 . S
C603 C601 1.561 . S
C604 C601 1.526 1_565 S
C604 C605 1.396 . S
C604 C609 1.390 . S
C605 C599 1.465 . S
C605 C604 1.396 . S
C605 C606 1.399 . S
C606 H592 0.929 . S
C606 C605 1.399 . S
C606 C607 1.385 . S
C607 H593 0.931 . S
C607 C606 1.385 . S
C607 C608 1.389 . S
C608 C607 1.389 . S
C608 C609 1.387 . S
C609 H594 0.930 . S
C609 C604 1.390 . S
C609 C608 1.387 . S
H610 C622 0.930 . S
H611 C624 0.930 . S
H612 C625 0.930 . S
H613 C629 0.959 1_545 S
H614 C629 0.959 . S
H615 C629 0.961 . S
H616 C630 0.960 . S
H617 C630 0.961 . S
H618 C630 0.959 . S
H619 C633 0.929 . S
H620 C634 0.931 . S
H621 C636 0.930 . S
C622 H610 0.930 . S
C622 C623 1.399 . S
C622 C627 1.399 . S
C623 C622 1.399 . S
C623 C624 1.376 . S
C624 H611 0.930 . S
C624 C623 1.376 . S
C624 C625 1.388 1_565 S
C625 H612 0.930 . S
C625 C624 1.388 1_545 S
C625 C626 1.390 . S
C626 C625 1.390 . S
C626 C627 1.394 1_545 S
C626 C632 1.465 . S
C627 C622 1.399 . S
C627 C626 1.394 1_565 S
C627 C628 1.516 . S
C628 C627 1.516 . S
C628 C629 1.502 . S
C628 C630 1.561 . S
C628 C631 1.526 1_565 S
C629 H613 0.959 1_565 S
C629 H614 0.959 . S
C629 H615 0.961 . S
C629 C628 1.502 . S
C630 H616 0.960 . S
C630 H617 0.961 . S
C630 H618 0.959 . S
C630 C628 1.561 . S
C631 C628 1.526 1_545 S
C631 C632 1.396 . S
C631 C636 1.390 . S
C632 C626 1.465 . S
C632 C631 1.396 . S
C632 C633 1.399 . S
C633 H619 0.929 . S
C633 C632 1.399 . S
C633 C634 1.385 . S
C634 H620 0.931 . S
C634 C633 1.385 . S
C634 C635 1.389 . S
C635 C634 1.389 . S
C635 C636 1.387 . S
C636 H621 0.930 . S
C636 C631 1.390 . S
C636 C635 1.387 . S
H637 C649 0.930 . S
H638 C651 0.930 . S
H639 C652 0.930 . S
H640 C656 0.959 . S
H641 C656 0.959 . S
H642 C656 0.961 . S
H643 C657 0.960 . S
H644 C657 0.961 . S
H645 C657 0.959 . S
H646 C660 0.929 . S
H647 C661 0.931 . S
H648 C663 0.930 . S
C649 H637 0.930 . S
C649 C650 1.399 . S
C649 C654 1.399 1_565 S
C650 C649 1.399 . S
C650 C651 1.376 . S
C651 H638 0.930 . S
C651 C650 1.376 . S
C651 C652 1.388 . S
C652 H639 0.930 . S
C652 C651 1.388 . S
C652 C653 1.387 . S
C653 C652 1.387 . S
C653 C654 1.394 1_565 S
C653 C659 1.468 1_565 S
C654 C649 1.399 1_545 S
C654 C653 1.394 1_545 S
C654 C655 1.516 . S
C655 C654 1.516 . S
C655 C656 1.502 . S
C655 C657 1.561 . S
C655 C658 1.526 . S
C656 H640 0.959 . S
C656 H641 0.959 . S
C656 H642 0.961 . S
C656 C655 1.502 . S
C657 H643 0.960 . S
C657 H644 0.961 . S
C657 H645 0.959 . S
C657 C655 1.561 . S
C658 C655 1.526 . S
C658 C659 1.396 . S
C658 C663 1.390 . S
C659 C653 1.468 1_545 S
C659 C658 1.396 . S
C659 C660 1.399 . S
C660 H646 0.929 . S
C660 C659 1.399 . S
C660 C661 1.385 . S
C661 H647 0.931 . S
C661 C660 1.385 . S
C661 C662 1.389 . S
C662 C661 1.389 . S
C662 C663 1.387 . S
C663 H648 0.930 . S
C663 C658 1.390 . S
C663 C662 1.387 . S
H664 C676 0.930 . S
H665 C678 0.930 . S
H666 C679 0.930 1_455 S
H667 C683 0.959 1_554 S
H668 C683 0.959 . S
H669 C683 0.961 . S
H670 C684 0.960 . S
H671 C684 0.964 . S
H672 C684 0.959 1_455 S
H673 C687 0.929 . S
H674 C688 0.931 . S
H675 C690 0.930 . S
C676 H664 0.930 . S
C676 C677 1.399 . S
C676 C681 1.399 . S
C677 C676 1.399 . S
C677 C678 1.376 . S
C678 H665 0.930 . S
C678 C677 1.376 . S
C678 C679 1.388 . S
C679 H666 0.930 1_655 S
C679 C678 1.388 . S
C679 C680 1.390 . S
C680 C679 1.390 . S
C680 C681 1.394 . S
C680 C686 1.465 1_656 S
C681 C676 1.399 . S
C681 C680 1.394 . S
C681 C682 1.516 . S
C682 C681 1.516 . S
C682 C683 1.502 . S
C682 C684 1.561 . S
C682 C685 1.526 1_656 S
C683 H667 0.959 1_556 S
C683 H668 0.959 . S
C683 H669 0.961 . S
C683 C682 1.502 . S
C684 H670 0.960 . S
C684 H671 0.964 . S
C684 H672 0.959 1_655 S
C684 C682 1.561 . S
C685 C682 1.526 1_454 S
C685 C686 1.396 . S
C685 C690 1.390 . S
C686 C680 1.465 1_454 S
C686 C685 1.396 . S
C686 C687 1.399 . S
C687 H673 0.929 . S
C687 C686 1.399 . S
C687 C688 1.385 . S
C688 H674 0.931 . S
C688 C687 1.385 . S
C688 C689 1.389 . S
C689 C688 1.389 . S
C689 C690 1.387 . S
C690 H675 0.930 . S
C690 C685 1.390 . S
C690 C689 1.387 . S
H691 C703 0.930 . S
H692 C705 0.930 . S
H693 C706 0.930 1_655 S
H694 C710 0.959 . S
H695 C710 0.959 . S
H696 C710 0.961 . S
H697 C711 0.960 1_455 S
H698 C711 0.961 . S
H699 C711 0.959 . S
H700 C714 0.929 . S
H701 C715 0.931 . S
H702 C717 0.930 . S
C703 H691 0.930 . S
C703 C704 1.399 . S
C703 C708 1.399 . S
C704 C703 1.399 . S
C704 C705 1.376 . S
C705 H692 0.930 . S
C705 C704 1.376 . S
C705 C706 1.388 . S
C706 H693 0.930 1_455 S
C706 C705 1.388 . S
C706 C707 1.390 . S
C707 C706 1.390 . S
C707 C708 1.394 . S
C707 C713 1.465 1_455 S
C708 C703 1.399 . S
C708 C707 1.394 . S
C708 C709 1.516 . S
C709 C708 1.516 . S
C709 C710 1.502 . S
C709 C711 1.561 1_455 S
C709 C712 1.526 1_455 S
C710 H694 0.959 . S
C710 H695 0.959 . S
C710 H696 0.961 . S
C710 C709 1.502 . S
C711 H697 0.960 1_655 S
C711 H698 0.961 . S
C711 H699 0.959 . S
C711 C709 1.561 1_655 S
C712 C709 1.526 1_655 S
C712 C713 1.396 . S
C712 C717 1.390 . S
C713 C707 1.465 1_655 S
C713 C712 1.396 . S
C713 C714 1.399 . S
C714 H700 0.929 . S
C714 C713 1.399 . S
C714 C715 1.385 . S
C715 H701 0.931 . S
C715 C714 1.385 . S
C715 C716 1.389 . S
C716 C715 1.389 . S
C716 C717 1.387 . S
C717 H702 0.930 . S
C717 C712 1.390 . S
C717 C716 1.387 . S
H718 C730 0.904 1_565 S
H719 C732 0.930 . S
H720 C733 0.930 1_554 S
H721 C737 0.959 . S
H722 C737 0.959 . S
H723 C737 0.961 . S
H724 C738 0.960 . S
H725 C738 0.961 . S
H726 C738 0.959 . S
H727 C741 0.929 . S
H728 C742 0.931 . S
H729 C744 0.930 . S
C730 H718 0.904 1_545 S
C730 C731 1.399 . S
C730 C735 1.399 . S
C731 C730 1.399 . S
C731 C732 1.376 . S
C732 H719 0.930 . S
C732 C731 1.376 . S
C732 C733 1.388 . S
C733 H720 0.930 1_556 S
C733 C732 1.388 . S
C733 C734 1.390 . S
C734 C733 1.390 . S
C734 C735 1.394 . S
C734 C740 1.465 1_556 S
C735 C730 1.399 . S
C735 C734 1.394 . S
C735 C736 1.516 1_545 S
C736 C735 1.516 1_565 S
C736 C737 1.502 . S
C736 C738 1.561 . S
C736 C739 1.526 1_556 S
C737 H721 0.959 . S
C737 H722 0.959 . S
C737 H723 0.961 . S
C737 C736 1.502 . S
C738 H724 0.960 . S
C738 H725 0.961 . S
C738 H726 0.959 . S
C738 C736 1.561 . S
C739 C736 1.526 1_554 S
C739 C740 1.396 1_565 S
C739 C744 1.390 . S
C740 C734 1.465 1_554 S
C740 C739 1.396 1_545 S
C740 C741 1.399 . S
C741 H727 0.929 . S
C741 C740 1.399 . S
C741 C742 1.385 1_545 S
C742 H728 0.931 . S
C742 C741 1.385 1_565 S
C742 C743 1.389 . S
C743 C742 1.389 . S
C743 C744 1.387 . S
C744 H729 0.930 . S
C744 C739 1.390 . S
C744 C743 1.387 . S
H745 C757 0.930 . S
H746 C759 0.930 . S
H747 C760 0.930 . S
H748 C764 0.959 . S
H749 C764 0.959 . S
H750 C764 0.961 . S
H751 C765 0.960 . S
H752 C765 0.961 . S
H753 C765 0.959 . S
H754 C768 0.929 . S
H755 C769 0.931 . S
H756 C771 0.930 . S
C757 H745 0.930 . S
C757 C758 1.399 . S
C757 C762 1.399 . S
C758 C757 1.399 . S
C758 C759 1.376 . S
C759 H746 0.930 . S
C759 C758 1.376 . S
C759 C760 1.388 . S
C760 H747 0.930 . S
C760 C759 1.388 . S
C760 C761 1.390 . S
C761 C760 1.390 . S
C761 C762 1.394 . S
C761 C767 1.465 1_565 S
C762 C757 1.399 . S
C762 C761 1.394 . S
C762 C763 1.515 . S
C763 C762 1.515 . S
C763 C764 1.504 1_565 S
C763 C765 1.559 . S
C763 C766 1.527 1_565 S
C764 H748 0.959 . S
C764 H749 0.959 . S
C764 H750 0.961 . S
C764 C763 1.504 1_545 S
C765 H751 0.960 . S
C765 H752 0.961 . S
C765 H753 0.959 . S
C765 C763 1.559 . S
C766 C763 1.527 1_545 S
C766 C767 1.396 . S
C766 C771 1.390 . S
C767 C761 1.465 1_545 S
C767 C766 1.396 . S
C767 C768 1.399 . S
C768 H754 0.929 . S
C768 C767 1.399 . S
C768 C769 1.385 . S
C769 H755 0.931 . S
C769 C768 1.385 . S
C769 C770 1.389 . S
C770 C769 1.389 . S
C770 C771 1.387 . S
C771 H756 0.930 . S
C771 C766 1.390 . S
C771 C770 1.387 . S
H772 C784 0.930 . S
H773 C786 0.930 . S
H774 C787 0.919 1_455 S
H775 C791 0.959 . S
H776 C791 0.959 . S
H777 C791 0.961 . S
H778 C792 0.960 . S
H779 C792 0.961 . S
H780 C792 0.959 . S
H781 C795 0.929 . S
H782 C796 0.931 . S
H783 C798 0.930 . S
C784 H772 0.930 . S
C784 C785 1.399 . S
C784 C789 1.399 . S
C785 C784 1.399 . S
C785 C786 1.376 . S
C786 H773 0.930 . S
C786 C785 1.376 . S
C786 C787 1.388 . S
C787 H774 0.919 1_655 S
C787 C786 1.388 . S
C787 C788 1.390 . S
C788 C787 1.390 . S
C788 C789 1.394 . S
C788 C794 1.465 1_655 S
C789 C784 1.399 . S
C789 C788 1.394 . S
C789 C790 1.516 . S
C790 C789 1.516 . S
C790 C791 1.502 . S
C790 C792 1.561 1_655 S
C790 C793 1.526 1_655 S
C791 H775 0.959 . S
C791 H776 0.959 . S
C791 H777 0.961 . S
C791 C790 1.502 . S
C792 H778 0.960 . S
C792 H779 0.961 . S
C792 H780 0.959 . S
C792 C790 1.561 1_455 S
C793 C790 1.526 1_455 S
C793 C794 1.396 . S
C793 C798 1.390 . S
C794 C788 1.465 1_455 S
C794 C793 1.396 . S
C794 C795 1.399 . S
C795 H781 0.929 . S
C795 C794 1.399 . S
C795 C796 1.385 . S
C796 H782 0.931 . S
C796 C795 1.385 . S
C796 C797 1.389 . S
C797 C796 1.389 . S
C797 C798 1.387 . S
C798 H783 0.930 . S
C798 C793 1.390 . S
C798 C797 1.387 . S
H799 C811 0.930 . S
H800 C813 0.930 . S
H801 C814 0.930 . S
H802 C818 0.959 . S
H803 C818 0.959 . S
H804 C818 0.961 . S
H805 C819 0.960 . S
H806 C819 0.961 . S
H807 C819 0.959 1_655 S
H808 C822 0.929 . S
H809 C823 0.931 . S
H810 C825 0.930 . S
C811 H799 0.930 . S
C811 C812 1.399 . S
C811 C816 1.399 . S
C812 C811 1.399 . S
C812 C813 1.376 . S
C813 H800 0.930 . S
C813 C812 1.376 . S
C813 C814 1.388 1_455 S
C814 H801 0.930 . S
C814 C813 1.388 1_655 S
C814 C815 1.398 . S
C815 C814 1.398 . S
C815 C816 1.378 1_655 S
C815 C821 1.470 . S
C816 C811 1.399 . S
C816 C815 1.378 1_455 S
C816 C817 1.516 . S
C817 C816 1.516 . S
C817 C818 1.502 . S
C817 C819 1.561 . S
C817 C820 1.526 1_455 S
C818 H802 0.959 . S
C818 H803 0.959 . S
C818 H804 0.961 . S
C818 C817 1.502 . S
C819 H805 0.960 . S
C819 H806 0.961 . S
C819 H807 0.959 1_455 S
C819 C817 1.561 . S
C820 C817 1.526 1_655 S
C820 C821 1.396 . S
C820 C825 1.390 . S
C821 C815 1.470 . S
C821 C820 1.396 . S
C821 C822 1.399 . S
C822 H808 0.929 . S
C822 C821 1.399 . S
C822 C823 1.385 . S
C823 H809 0.931 . S
C823 C822 1.385 . S
C823 C824 1.389 . S
C824 C823 1.389 . S
C824 C825 1.387 . S
C825 H810 0.930 . S
C825 C820 1.390 . S
C825 C824 1.387 . S
H826 C838 0.930 . S
H827 C840 0.930 . S
H828 C841 0.930 . S
H829 C845 0.959 . S
H830 C845 0.959 . S
H831 C845 0.961 . S
H832 C846 0.960 . S
H833 C846 0.961 . S
H834 C846 0.959 . S
H835 C849 0.929 . S
H836 C850 0.931 . S
H837 C852 0.930 . S
C838 H826 0.930 . S
C838 C839 1.399 . S
C838 C843 1.399 . S
C839 C838 1.399 . S
C839 C840 1.376 . S
C840 H827 0.930 . S
C840 C839 1.376 . S
C840 C841 1.388 . S
C841 H828 0.930 . S
C841 C840 1.388 . S
C841 C842 1.390 . S
C842 C841 1.390 . S
C842 C843 1.394 . S
C842 C848 1.465 . S
C843 C838 1.399 . S
C843 C842 1.394 . S
C843 C844 1.516 . S
C844 C843 1.516 . S
C844 C845 1.502 . S
C844 C846 1.561 . S
C844 C847 1.526 . S
C845 H829 0.959 . S
C845 H830 0.959 . S
C845 H831 0.961 . S
C845 C844 1.502 . S
C846 H832 0.960 . S
C846 H833 0.961 . S
C846 H834 0.959 . S
C846 C844 1.561 . S
C847 C844 1.526 . S
C847 C848 1.396 . S
C847 C852 1.390 . S
C848 C842 1.465 . S
C848 C847 1.396 . S
C848 C849 1.399 . S
C849 H835 0.929 . S
C849 C848 1.399 . S
C849 C850 1.385 . S
C850 H836 0.931 . S
C850 C849 1.385 . S
C850 C851 1.389 . S
C851 C850 1.389 . S
C851 C852 1.387 . S
C852 H837 0.930 . S
C852 C847 1.390 . S
C852 C851 1.387 . S
H853 C865 0.930 . S
H854 C867 0.930 . S
H855 C868 0.930 . S
H856 C872 0.959 . S
H857 C872 0.959 . S
H858 C872 0.961 . S
H859 C873 0.960 . S
H860 C873 0.961 . S
H861 C873 0.959 . S
H862 C876 0.929 . S
H863 C877 0.931 . S
H864 C879 0.930 . S
C865 H853 0.930 . S
C865 C866 1.399 . S
C865 C870 1.399 . S
C866 C865 1.399 . S
C866 C867 1.376 . S
C867 H854 0.930 . S
C867 C866 1.376 . S
C867 C868 1.388 . S
C868 H855 0.930 . S
C868 C867 1.388 . S
C868 C869 1.390 . S
C869 C868 1.390 . S
C869 C870 1.394 . S
C869 C875 1.465 . S
C870 C865 1.399 . S
C870 C869 1.394 . S
C870 C871 1.516 . S
C871 C870 1.516 . S
C871 C872 1.502 . S
C871 C873 1.561 . S
C871 C874 1.526 . S
C872 H856 0.959 . S
C872 H857 0.959 . S
C872 H858 0.961 . S
C872 C871 1.502 . S
C873 H859 0.960 . S
C873 H860 0.961 . S
C873 H861 0.959 . S
C873 C871 1.561 . S
C874 C871 1.526 . S
C874 C875 1.396 . S
C874 C879 1.390 . S
C875 C869 1.465 . S
C875 C874 1.396 . S
C875 C876 1.399 . S
C876 H862 0.929 . S
C876 C875 1.399 . S
C876 C877 1.385 . S
C877 H863 0.931 . S
C877 C876 1.385 . S
C877 C878 1.389 . S
C878 C877 1.389 . S
C878 C879 1.387 . S
C879 H864 0.930 . S
C879 C874 1.390 . S
C879 C878 1.387 . S
H880 C892 0.930 . S
H881 C894 0.930 . S
H882 C895 0.930 . S
H883 C899 0.959 . S
H884 C899 0.959 . S
H885 C899 0.961 . S
H886 C900 0.960 . S
H887 C900 0.961 . S
H888 C900 0.959 . S
H889 C903 0.929 . S
H890 C904 0.931 . S
H891 C906 0.930 . S
C892 H880 0.930 . S
C892 C893 1.399 . S
C892 C897 1.399 . S
C893 C892 1.399 . S
C893 C894 1.376 . S
C894 H881 0.930 . S
C894 C893 1.376 . S
C894 C895 1.388 . S
C895 H882 0.930 . S
C895 C894 1.388 . S
C895 C896 1.390 . S
C896 C895 1.390 . S
C896 C897 1.394 . S
C896 C902 1.465 1_455 S
C897 C892 1.399 . S
C897 C896 1.394 . S
C897 C898 1.516 1_455 S
C898 C897 1.516 1_655 S
C898 C899 1.502 . S
C898 C900 1.561 1_655 S
C898 C901 1.526 . S
C899 H883 0.959 . S
C899 H884 0.959 . S
C899 H885 0.961 . S
C899 C898 1.502 . S
C900 H886 0.960 . S
C900 H887 0.961 . S
C900 H888 0.959 . S
C900 C898 1.561 1_455 S
C901 C898 1.526 . S
C901 C902 1.396 . S
C901 C906 1.390 . S
C902 C896 1.465 1_655 S
C902 C901 1.396 . S
C902 C903 1.399 . S
C903 H889 0.929 . S
C903 C902 1.399 . S
C903 C904 1.385 . S
C904 H890 0.931 . S
C904 C903 1.385 . S
C904 C905 1.389 . S
C905 C904 1.389 . S
C905 C906 1.387 . S
C906 H891 0.930 . S
C906 C901 1.390 . S
C906 C905 1.387 . S
H907 C919 0.930 . S
H908 C921 0.930 . S
H909 C922 0.930 . S
H910 C926 0.959 . S
H911 C926 0.962 . S
H912 C926 0.961 . S
H913 C927 0.960 . S
H914 C927 0.961 . S
H915 C927 0.959 . S
H916 C930 0.929 . S
H917 C931 0.931 . S
H918 C933 0.930 . S
C919 H907 0.930 . S
C919 C920 1.399 . S
C919 C924 1.399 . S
C920 C919 1.399 . S
C920 C921 1.376 . S
C921 H908 0.930 . S
C921 C920 1.376 . S
C921 C922 1.388 . S
C922 H909 0.930 . S
C922 C921 1.388 . S
C922 C923 1.390 . S
C923 C922 1.390 . S
C923 C924 1.394 . S
C923 C929 1.465 1_455 S
C924 C919 1.399 . S
C924 C923 1.394 . S
C924 C925 1.516 1_455 S
C925 C924 1.516 1_655 S
C925 C926 1.502 1_655 S
C925 C927 1.561 . S
C925 C928 1.526 . S
C926 H910 0.959 . S
C926 H911 0.962 . S
C926 H912 0.961 . S
C926 C925 1.502 1_455 S
C927 H913 0.960 . S
C927 H914 0.961 . S
C927 H915 0.959 . S
C927 C925 1.561 . S
C928 C925 1.526 . S
C928 C929 1.396 . S
C928 C933 1.390 . S
C929 C923 1.465 1_655 S
C929 C928 1.396 . S
C929 C930 1.399 . S
C930 H916 0.929 . S
C930 C929 1.399 . S
C930 C931 1.385 . S
C931 H917 0.931 . S
C931 C930 1.385 . S
C931 C932 1.389 . S
C932 C931 1.389 . S
C932 C933 1.387 . S
C933 H918 0.930 . S
C933 C928 1.390 . S
C933 C932 1.387 . S
H934 C946 0.930 . S
H935 C948 0.930 . S
H936 C949 0.930 . S
H937 C953 0.959 . S
H938 C953 0.959 . S
H939 C953 0.961 . S
H940 C954 0.960 . S
H941 C954 0.961 . S
H942 C954 0.959 . S
H943 C957 0.929 . S
H944 C958 0.931 . S
H945 C960 0.930 . S
C946 H934 0.930 . S
C946 C947 1.399 . S
C946 C951 1.399 . S
C947 C946 1.399 . S
C947 C948 1.376 . S
C948 H935 0.930 . S
C948 C947 1.376 . S
C948 C949 1.388 . S
C949 H936 0.930 . S
C949 C948 1.388 . S
C949 C950 1.390 . S
C950 C949 1.390 . S
C950 C951 1.394 . S
C950 C956 1.465 . S
C951 C946 1.399 . S
C951 C950 1.394 . S
C951 C952 1.516 . S
C952 C951 1.516 . S
C952 C953 1.502 . S
C952 C954 1.561 . S
C952 C955 1.526 . S
C953 H937 0.959 . S
C953 H938 0.959 . S
C953 H939 0.961 . S
C953 C952 1.502 . S
C954 H940 0.960 . S
C954 H941 0.961 . S
C954 H942 0.959 . S
C954 C952 1.561 . S
C955 C952 1.526 . S
C955 C956 1.396 . S
C955 C960 1.390 . S
C956 C950 1.465 . S
C956 C955 1.396 . S
C956 C957 1.399 . S
C957 H943 0.929 . S
C957 C956 1.399 . S
C957 C958 1.385 . S
C958 H944 0.931 . S
C958 C957 1.385 . S
C958 C959 1.389 . S
C959 C958 1.389 . S
C959 C960 1.387 . S
C960 H945 0.930 . S
C960 C955 1.390 . S
C960 C959 1.387 . S
H961 C973 0.930 . S
H962 C975 0.930 . S
H963 C976 0.930 . S
H964 C980 0.959 . S
H965 C980 0.959 . S
H966 C980 0.961 . S
H967 C981 0.960 . S
H968 C981 0.961 . S
H969 C981 0.959 . S
H970 C984 0.929 . S
H971 C985 0.931 . S
H972 C987 0.930 . S
C973 H961 0.930 . S
C973 C974 1.399 . S
C973 C978 1.399 . S
C974 C973 1.399 . S
C974 C975 1.376 . S
C975 H962 0.930 . S
C975 C974 1.376 . S
C975 C976 1.388 . S
C976 H963 0.930 . S
C976 C975 1.388 . S
C976 C977 1.390 . S
C977 C976 1.390 . S
C977 C978 1.394 . S
C977 C983 1.465 . S
C978 C973 1.399 . S
C978 C977 1.394 . S
C978 C979 1.516 . S
C979 C978 1.516 . S
C979 C980 1.502 . S
C979 C981 1.561 . S
C979 C982 1.526 . S
C980 H964 0.959 . S
C980 H965 0.959 . S
C980 H966 0.961 . S
C980 C979 1.502 . S
C981 H967 0.960 . S
C981 H968 0.961 . S
C981 H969 0.959 . S
C981 C979 1.561 . S
C982 C979 1.526 . S
C982 C983 1.396 . S
C982 C987 1.390 . S
C983 C977 1.465 . S
C983 C982 1.396 . S
C983 C984 1.399 . S
C984 H970 0.929 . S
C984 C983 1.399 . S
C984 C985 1.385 . S
C985 H971 0.931 . S
C985 C984 1.385 . S
C985 C986 1.389 . S
C986 C985 1.389 . S
C986 C987 1.387 . S
C987 H972 0.930 . S
C987 C982 1.390 . S
C987 C986 1.387 . S
C245 C42 3.184 . S
C257 C13 3.140 . S
C272 C100 3.147 . S
C284 C71 3.186 . S
C299 C129 3.151 . S
C311 C158 3.177 . S
C326 C216 3.182 . S
C338 C187 3.160 . S
C353 C189 2.647 . S
C365 C15 2.667 . S
C380 C44 2.626 . S
C392 C218 2.696 . S
C407 C131 2.670 . S
C419 C73 2.645 . S
C434 C102 2.633 . S
C446 C160 2.696 . S
C461 C90 1.981 . S
C473 C10 1.903 1_556 S
C488 C61 1.967 . S
C500 C39 1.910 . S
C515 C32 1.974 . S
C527 C68 1.867 1_554 S
C542 C97 1.859 . S
C554 C3 1.996 . S
C569 C126 1.862 1_556 S
C581 C206 1.986 . S
C596 C177 1.970 . S
C608 C155 1.898 . S
C623 C148 1.983 . S
C635 C184 1.917 1_554 S
C650 C119 1.976 . S
C662 C213 1.863 . S
C677 C79 0.840 . S
C689 C21 0.716 . S
C704 C108 0.825 . S
C716 C50 0.735 . S
C731 C195 0.811 . S
C743 C137 0.753 . S
C758 C166 0.858 . S
C770 C224 0.664 . S
C785 C37 0.874 . S
C797 C8 0.935 . S
C812 C95 0.919 . S
C824 C66 1.026 . S
C839 C124 0.873 . S
C851 C153 0.945 . S
C866 C182 0.874 . S
C878 C211 0.978 . S
C893 C5 2.326 . S
C905 C34 2.311 . S
C920 C92 2.309 . S
C932 C63 2.317 . S
C947 C150 2.308 . S
C959 C121 2.324 . S
C974 C179 2.306 . S
C986 C208 2.321 . S
