# Generated by pormake.
# Topology und, (4)-cn, num edge types: 1
# Building blocks:
#     Node 0, Type 0, BuildingBlock: UXUYUI_clean_sbu_0, # of connection points: 4
#     Node 1, Type 0, BuildingBlock: UXUYUI_clean_sbu_0, # of connection points: 4
#     Node 2, Type 0, BuildingBlock: UXUYUI_clean_sbu_0, # of connection points: 4
#     Node 3, Type 0, BuildingBlock: UXUYUI_clean_sbu_0, # of connection points: 4
#     Node 4, Type 0, BuildingBlock: UXUYUI_clean_sbu_0, # of connection points: 4
#     Node 5, Type 0, BuildingBlock: UXUYUI_clean_sbu_0, # of connection points: 4
#     Node 6, Type 0, BuildingBlock: UXUYUI_clean_sbu_0, # of connection points: 4
#     Node 7, Type 0, BuildingBlock: UXUYUI_clean_sbu_0, # of connection points: 4
#     Node 8, Type 0, BuildingBlock: UXUYUI_clean_sbu_0, # of connection points: 4
#     Node 9, Type 0, BuildingBlock: UXUYUI_clean_sbu_0, # of connection points: 4
#     Node 10, Type 0, BuildingBlock: UXUYUI_clean_sbu_0, # of connection points: 4
#     Node 11, Type 0, BuildingBlock: UXUYUI_clean_sbu_0, # of connection points: 4
#     Node 12, Type 0, BuildingBlock: UXUYUI_clean_sbu_0, # of connection points: 4
#     Node 13, Type 0, BuildingBlock: UXUYUI_clean_sbu_0, # of connection points: 4
#     Node 14, Type 0, BuildingBlock: UXUYUI_clean_sbu_0, # of connection points: 4
#     Node 15, Type 0, BuildingBlock: UXUYUI_clean_sbu_0, # of connection points: 4
#     Edge 16, Type (0, 0), BuildingBlock: UVAHIK_clean_linker_0, # of connection points: 2
#     Edge 17, Type (0, 0), BuildingBlock: UVAHIK_clean_linker_0, # of connection points: 2
#     Edge 18, Type (0, 0), BuildingBlock: UVAHIK_clean_linker_0, # of connection points: 2
#     Edge 19, Type (0, 0), BuildingBlock: UVAHIK_clean_linker_0, # of connection points: 2
#     Edge 20, Type (0, 0), BuildingBlock: UVAHIK_clean_linker_0, # of connection points: 2
#     Edge 21, Type (0, 0), BuildingBlock: UVAHIK_clean_linker_0, # of connection points: 2
#     Edge 22, Type (0, 0), BuildingBlock: UVAHIK_clean_linker_0, # of connection points: 2
#     Edge 23, Type (0, 0), BuildingBlock: UVAHIK_clean_linker_0, # of connection points: 2
#     Edge 24, Type (0, 0), BuildingBlock: UVAHIK_clean_linker_0, # of connection points: 2
#     Edge 25, Type (0, 0), BuildingBlock: UVAHIK_clean_linker_0, # of connection points: 2
#     Edge 26, Type (0, 0), BuildingBlock: UVAHIK_clean_linker_0, # of connection points: 2
#     Edge 27, Type (0, 0), BuildingBlock: UVAHIK_clean_linker_0, # of connection points: 2
#     Edge 28, Type (0, 0), BuildingBlock: UVAHIK_clean_linker_0, # of connection points: 2
#     Edge 29, Type (0, 0), BuildingBlock: UVAHIK_clean_linker_0, # of connection points: 2
#     Edge 30, Type (0, 0), BuildingBlock: UVAHIK_clean_linker_0, # of connection points: 2
#     Edge 31, Type (0, 0), BuildingBlock: UVAHIK_clean_linker_0, # of connection points: 2
#     Edge 32, Type (0, 0), BuildingBlock: UVAHIK_clean_linker_0, # of connection points: 2
#     Edge 33, Type (0, 0), BuildingBlock: UVAHIK_clean_linker_0, # of connection points: 2
#     Edge 34, Type (0, 0), BuildingBlock: UVAHIK_clean_linker_0, # of connection points: 2
#     Edge 35, Type (0, 0), BuildingBlock: UVAHIK_clean_linker_0, # of connection points: 2
#     Edge 36, Type (0, 0), BuildingBlock: UVAHIK_clean_linker_0, # of connection points: 2
#     Edge 37, Type (0, 0), BuildingBlock: UVAHIK_clean_linker_0, # of connection points: 2
#     Edge 38, Type (0, 0), BuildingBlock: UVAHIK_clean_linker_0, # of connection points: 2
#     Edge 39, Type (0, 0), BuildingBlock: UVAHIK_clean_linker_0, # of connection points: 2
#     Edge 40, Type (0, 0), BuildingBlock: UVAHIK_clean_linker_0, # of connection points: 2
#     Edge 41, Type (0, 0), BuildingBlock: UVAHIK_clean_linker_0, # of connection points: 2
#     Edge 42, Type (0, 0), BuildingBlock: UVAHIK_clean_linker_0, # of connection points: 2
#     Edge 43, Type (0, 0), BuildingBlock: UVAHIK_clean_linker_0, # of connection points: 2
#     Edge 44, Type (0, 0), BuildingBlock: UVAHIK_clean_linker_0, # of connection points: 2
#     Edge 45, Type (0, 0), BuildingBlock: UVAHIK_clean_linker_0, # of connection points: 2
#     Edge 46, Type (0, 0), BuildingBlock: UVAHIK_clean_linker_0, # of connection points: 2
#     Edge 47, Type (0, 0), BuildingBlock: UVAHIK_clean_linker_0, # of connection points: 2
# Relax obj value: 0.184
# Max RMSD: 0.213
# Mean RMSD: 0.213
data_MOF--net-und--node1-UXUYUI_clean_sbu_0--edge1-UVAHIK_clean_linker_0
_symmetry_space_group_name_H-M    P1
_symmetry_Int_Tables_number       1
_symmetry_cell_setting            triclinic
loop_
_symmetry_equiv_pos_as_xyz
'x, y, z'
_cell_length_a     103.21222
_cell_length_b     103.24825
_cell_length_c     39.068524
_cell_angle_alpha  89.98033
_cell_angle_beta   90.014797
_cell_angle_gamma 90.025244
loop_
_atom_site_label
_atom_site_type_symbol
_atom_site_fract_x
_atom_site_fract_y
_atom_site_fract_z
_atom_type_partial_charge
Li0 Li 0.23597 0.33504 0.01731 0.0
Li1 Li 0.25617 0.33853 0.98627 0.0
Li2 Li 0.24566 0.31754 0.98606 0.0
Li3 Li 0.25635 0.32582 0.03732 0.0
C4 C 0.22871 0.34044 0.95417 0.0
N5 N 0.20762 0.35412 0.92989 0.0
C6 C 0.2303 0.35303 0.94172 0.0
C7 C 0.21641 0.33478 0.9541 0.0
C8 C 0.21952 0.35979 0.92956 0.0
C9 C 0.20586 0.34186 0.94179 0.0
C10 C 0.25598 0.34941 0.06288 0.0
C11 C 0.27345 0.35531 0.1008 0.0
N12 N 0.26466 0.3587 0.12511 0.0
C13 C 0.2471 0.35302 0.08817 0.0
C14 C 0.26925 0.35063 0.06914 0.0
C15 C 0.25169 0.35768 0.11949 0.0
C16 C 0.21261 0.33575 0.05422 0.0
N17 N 0.22041 0.34268 0.03299 0.0
C18 C 0.20706 0.36139 0.03926 0.0
C19 C 0.2179 0.35528 0.02542 0.0
C20 C 0.19898 0.35455 0.0618 0.0
C21 C 0.20179 0.34155 0.06913 0.0
H22 H 0.21502 0.32584 0.06045 0.0
H23 H 0.22453 0.36068 0.00949 0.0
C24 C 0.26521 0.34795 0.9238 0.0
N25 N 0.2655 0.3501 0.9581 0.0
C26 C 0.27197 0.35608 0.90162 0.0
C27 C 0.27904 0.3686 0.95052 0.0
C28 C 0.27217 0.36019 0.97178 0.0
C29 C 0.279 0.36657 0.91494 0.0
H30 H 0.25968 0.3399 0.91372 0.0
H31 H 0.27215 0.36169 -0.00086 0.0
C32 C 0.23461 0.30508 0.03619 0.0
N33 N 0.22584 0.27981 0.03887 0.0
C34 C 0.24217 0.29548 0.05162 0.0
C35 C 0.22255 0.30184 0.02231 0.0
C36 C 0.23757 0.28276 0.0527 0.0
C37 C 0.2183 0.289 0.02385 0.0
C38 C 0.27493 0.32219 0.97331 0.0
C39 C 0.27465 0.31735 0.93991 0.0
C40 C 0.28605 0.32842 0.98536 0.0
C41 C 0.2855 0.31894 0.91896 0.0
C42 C 0.29669 0.32984 0.9636 0.0
N43 N 0.2962 0.32512 0.93112 0.0
C44 C 0.23497 0.30312 0.93178 0.0
C45 C 0.25027 0.2919 0.96599 0.0
C46 C 0.23417 0.29267 0.90928 0.0
N47 N 0.24302 0.30258 0.95921 0.0
C48 C 0.24975 0.28121 0.94423 0.0
C49 C 0.2418 0.28161 0.91505 0.0
H50 H 0.22955 0.31185 0.9266 0.0
H51 H 0.25678 0.29188 0.9877 0.0
C52 C 0.25813 0.32132 0.10691 0.0
N53 N 0.26495 0.32028 0.07733 0.0
C54 C 0.26227 0.31487 0.13621 0.0
C55 C 0.2806 0.30668 0.10432 0.0
C56 C 0.27617 0.31344 0.07562 0.0
C57 C 0.27337 0.30704 0.13477 0.0
H58 H 0.24897 0.32639 0.10707 0.0
H59 H 0.28118 0.3125 0.05145 0.0
O60 O 0.23913 0.3337 0.96646 0.0
O61 O 0.25168 0.34472 0.03216 0.0
O62 O 0.23903 0.31754 0.0343 0.0
O63 O 0.26429 0.32101 0.99394 0.0
H64 H 0.23973 0.35761 0.94177 0.0
H65 H 0.21499 0.32506 0.96376 0.0
H66 H 0.22059 0.36956 0.91999 0.0
H67 H 0.19627 0.33763 0.94177 0.0
H68 H 0.2837 0.35622 0.10606 0.0
H69 H 0.2368 0.35215 0.08381 0.0
H70 H 0.27625 0.34784 0.0499 0.0
H71 H 0.24494 0.36045 0.13935 0.0
H72 H 0.20532 0.37152 0.03359 0.0
H73 H 0.19578 0.33601 0.08655 0.0
H74 H 0.27155 0.35428 0.87433 0.0
H75 H 0.28445 0.3765 0.96183 0.0
H76 H 0.25155 0.29779 0.06236 0.0
H77 H 0.21659 0.30914 0.01025 0.0
H78 H 0.24335 0.27523 0.06443 0.0
H79 H 0.20902 0.28635 0.01305 0.0
H80 H 0.26609 0.31257 0.9301 0.0
H81 H 0.28642 0.33221 0.01115 0.0
H82 H 0.2854 0.31532 0.89298 0.0
H83 H 0.30534 0.33471 0.9725 0.0
H84 H 0.22811 0.29351 0.88677 0.0
H85 H 0.25572 0.27284 0.94978 0.0
H86 H 0.25624 0.31517 0.15889 0.0
H87 H 0.28918 0.30068 0.10222 0.0
Li88 Li 0.92334 0.99616 0.2259 0.0
Li89 Li 0.92301 -0.00197 0.28778 0.0
Li90 Li 0.90817 0.98381 0.25731 0.0
Li91 Li 0.90457 0.00663 0.25288 0.0
C92 C 0.93772 0.97714 0.24626 0.0
N93 N 0.95939 0.96652 0.21583 0.0
C94 C 0.95007 0.98157 0.25516 0.0
C95 C 0.93639 0.96724 0.22216 0.0
C96 C 0.96091 0.97609 0.23941 0.0
C97 C 0.94747 0.96201 0.20698 0.0
C98 C 0.9241 0.02431 0.26749 0.0
C99 C 0.91876 0.03951 0.31217 0.0
N100 N 0.92548 0.04887 0.29528 0.0
C101 C 0.93092 0.03409 0.25052 0.0
C102 C 0.91793 0.02703 0.29852 0.0
C103 C 0.93152 0.04644 0.26502 0.0
C104 C 0.93169 0.99228 0.15728 0.0
N105 N 0.93474 -0.00259 0.18825 0.0
C106 C 0.95458 0.0059 0.16637 0.0
C107 C 0.9459 0.00412 0.19328 0.0
C108 C 0.95169 0.00078 0.13395 0.0
C109 C 0.94009 0.99384 0.12959 0.0
H110 H 0.92269 0.98709 0.15396 0.0
H111 H 0.94798 0.00819 0.21819 0.0
C112 C 0.93376 0.98885 0.3477 0.0
N113 N 0.93411 -0.00084 0.32614 0.0
C114 C 0.94292 0.98763 0.3737 0.0
C115 C 0.95269 0.00769 0.35482 0.0
C116 C 0.9433 0.00854 0.32921 0.0
C117 C 0.95269 0.99701 0.37712 0.0
H118 H 0.92677 0.98123 0.34353 0.0
H119 H 0.94373 0.01637 0.31091 0.0
C120 C 0.89567 0.98749 0.19677 0.0
N121 N 0.87707 0.9744 0.15945 0.0
C122 C 0.88311 0.99245 0.19426 0.0
C123 C 0.89881 0.97593 0.18007 0.0
C124 C 0.87383 0.98567 0.17532 0.0
C125 C 0.88926 0.96945 0.1614 0.0
C126 C 0.89357 0.99021 0.31016 0.0
C127 C 0.88137 0.99078 0.29467 0.0
C128 C 0.89519 0.983 0.34015 0.0
C129 C 0.871 0.98409 0.30936 0.0
C130 C 0.88459 0.97638 0.35396 0.0
N131 N 0.87282 0.97706 0.33841 0.0
C132 C 0.90742 0.95899 0.2834 0.0
C133 C 0.88805 0.96415 0.25375 0.0
C134 C 0.90213 0.94731 0.2946 0.0
N135 N 0.90031 0.96721 0.26374 0.0
C136 C 0.88246 0.95246 0.26393 0.0
C137 C 0.88944 0.94403 0.2852 0.0
H138 H 0.91702 0.96177 0.29167 0.0
H139 H 0.88232 0.971 0.23947 0.0
C140 C 0.89506 0.02703 0.21646 0.0
N141 N 0.89309 0.02058 0.24628 0.0
C142 C 0.88694 0.03717 0.20712 0.0
C143 C 0.87494 0.03399 0.25967 0.0
C144 C 0.88347 0.02398 0.26828 0.0
C145 C 0.87661 0.04063 0.22859 0.0
H146 H 0.90285 0.02408 0.19966 0.0
H147 H 0.88229 0.01883 0.29217 0.0
O148 O 0.92698 0.98262 0.26065 0.0
O149 O 0.92325 0.01225 0.25323 0.0
O150 O 0.90491 0.99409 0.2148 0.0
O151 O 0.9039 0.99645 0.29562 0.0
H152 H 0.95126 0.98926 0.2737 0.0
H153 H 0.92689 0.96368 0.21515 0.0
H154 H 0.97052 0.97947 0.24586 0.0
H155 H 0.94658 0.95439 0.18814 0.0
H156 H 0.91404 0.04175 0.33617 0.0
H157 H 0.93567 0.03214 0.22635 0.0
H158 H 0.91256 0.01961 0.31195 0.0
H159 H 0.93677 0.0541 0.25218 0.0
H160 H 0.96332 0.01147 0.17073 0.0
H161 H 0.93755 0.98964 0.10509 0.0
H162 H 0.94276 0.97908 0.3898 0.0
H163 H 0.96007 0.01512 0.35661 0.0
H164 H 0.88053 0.00142 0.20679 0.0
H165 H 0.90847 0.97193 0.18184 0.0
H166 H 0.86406 0.98937 0.17325 0.0
H167 H 0.89153 0.96045 0.14853 0.0
H168 H 0.87998 0.99612 0.27116 0.0
H169 H 0.90451 0.98247 0.35261 0.0
H170 H 0.86154 0.98438 0.29747 0.0
H171 H 0.88573 0.97071 0.37704 0.0
H172 H 0.90778 0.94104 0.3111 0.0
H173 H 0.87253 0.95036 0.2568 0.0
H174 H 0.88844 0.04197 0.18277 0.0
H175 H 0.86712 0.03647 0.27694 0.0
Li176 Li 0.25208 0.67278 0.46849 0.0
Li177 Li 0.24557 0.67527 0.52819 0.0
Li178 Li 0.26067 0.65849 0.51118 0.0
Li179 Li 0.23776 0.65726 0.49598 0.0
C180 C 0.27023 0.68726 0.49546 0.0
N181 N 0.2841 0.70756 0.46746 0.0
C182 C 0.26729 0.70003 0.50449 0.0
C183 C 0.28026 0.68482 0.47231 0.0
C184 C 0.27442 0.71016 0.49004 0.0
C185 C 0.28714 0.69521 0.45838 0.0
C186 C 0.22233 0.67578 0.47475 0.0
C187 C 0.19931 0.67329 0.48311 0.0
N188 N 0.1975 0.67408 0.44869 0.0
C189 C 0.22024 0.67664 0.43946 0.0
C190 C 0.21179 0.67417 0.49679 0.0
C191 C 0.20761 0.67574 0.4268 0.0
C192 C 0.2579 0.67475 0.39817 0.0
N193 N 0.25482 0.68156 0.42677 0.0
C194 C 0.25281 0.70106 0.39451 0.0
C195 C 0.25231 0.69446 0.42557 0.0
C196 C 0.2556 0.69424 0.36425 0.0
C197 C 0.25836 0.68093 0.36643 0.0
H198 H 0.25951 0.66443 0.3998 0.0
H199 H 0.24953 0.69953 0.44862 0.0
C200 C 0.25184 0.68989 0.5856 0.0
N201 N 0.24229 0.68779 0.56232 0.0
C202 C 0.2508 0.7 0.60903 0.0
C203 C 0.23 0.70549 0.58442 0.0
C204 C 0.23146 0.69525 0.56142 0.0
C205 C 0.23986 0.70808 0.60829 0.0
H206 H 0.2605 0.68399 0.58504 0.0
H207 H 0.22414 0.69351 0.54218 0.0
C208 C 0.25987 0.64324 0.45731 0.0
N209 N 0.27436 0.62156 0.44159 0.0
C210 C 0.25473 0.63087 0.46259 0.0
C211 C 0.27234 0.64459 0.44382 0.0
C212 C 0.26222 0.62003 0.45449 0.0
C213 C 0.27953 0.6335 0.43613 0.0
C214 C 0.24372 0.65786 0.57636 0.0
C215 C 0.2543 0.65676 0.5985 0.0
C216 C 0.23146 0.66065 0.58957 0.0
C217 C 0.25244 0.6586 0.63359 0.0
C218 C 0.23 0.66245 0.6248 0.0
N219 N 0.24044 0.6614 0.64589 0.0
C220 C 0.28698 0.65526 0.52813 0.0
C221 C 0.27418 0.63627 0.53294 0.0
C222 C 0.29797 0.64855 0.5389 0.0
N223 N 0.27544 0.64903 0.52517 0.0
C224 C 0.28494 0.62914 0.54343 0.0
C225 C 0.29701 0.6353 0.54656 0.0
H226 H 0.28764 0.66548 0.52243 0.0
H227 H 0.26479 0.63166 0.53117 0.0
C228 C 0.22188 0.64446 0.45124 0.0
N229 N 0.22367 0.64628 0.48533 0.0
C230 C 0.21143 0.63725 0.43944 0.0
C231 C 0.20499 0.63352 0.49817 0.0
C232 C 0.21558 0.64094 0.5089 0.0
C233 C 0.20276 0.63175 0.46298 0.0
H234 H 0.22854 0.6488 0.43319 0.0
H235 H 0.21727 0.64257 0.53587 0.0
O236 O 0.26327 0.67721 0.509 0.0
O237 O 0.23466 0.67628 0.48759 0.0
O238 O 0.25278 0.65398 0.4656 0.0
O239 O 0.24539 0.65631 0.54188 0.0
H240 H 0.25951 0.70213 0.52214 0.0
H241 H 0.28262 0.67501 0.46491 0.0
H242 H 0.27222 0.72008 0.49668 0.0
H243 H 0.29488 0.69346 0.4403 0.0
H244 H 0.19108 0.67193 0.49985 0.0
H245 H 0.22827 0.67781 0.42198 0.0
H246 H 0.21324 0.67339 0.52413 0.0
H247 H 0.20585 0.6763 0.39954 0.0
H248 H 0.2508 0.71135 0.39418 0.0
H249 H 0.26034 0.67525 0.34375 0.0
H250 H 0.25874 0.70179 0.62652 0.0
H251 H 0.22138 0.71143 0.58315 0.0
H252 H 0.24513 0.62965 0.47321 0.0
H253 H 0.27646 0.65409 0.43965 0.0
H254 H 0.25839 0.6104 0.4586 0.0
H255 H 0.28922 0.6344 0.42589 0.0
H256 H 0.26387 0.65463 0.58871 0.0
H257 H 0.22318 0.66158 0.57275 0.0
H258 H 0.26055 0.65784 0.65103 0.0
H259 H 0.22058 0.6647 0.63536 0.0
H260 H 0.30712 0.65362 0.541 0.0
H261 H 0.28379 0.61898 0.5497 0.0
H262 H 0.2102 0.63591 0.41214 0.0
H263 H 0.1985 0.62941 0.51706 0.0
Li264 Li 0.59062 0.9874 0.74751 0.0
Li265 Li 0.58869 0.00947 0.7682 0.0
Li266 Li 0.57209 0.99343 0.78013 0.0
Li267 Li 0.57491 0.00221 0.72293 0.0
C268 C 0.60022 0.98665 0.80912 0.0
N269 N 0.62102 0.97258 0.8335 0.0
C270 C 0.61227 0.99261 0.81344 0.0
C271 C 0.59872 0.97357 0.81738 0.0
C272 C 0.62267 0.98532 0.82578 0.0
C273 C 0.60936 0.96661 0.82959 0.0
C274 C 0.59598 0.0067 0.68882 0.0
C275 C 0.59509 0.02191 0.64199 0.0
N276 N 0.59871 0.01234 0.62005 0.0
C277 C 0.59971 0.99702 0.66581 0.0
C278 C 0.59368 0.01925 0.67686 0.0
C279 C 0.60104 8e-05 0.63115 0.0
C280 C 0.59862 0.96215 0.72816 0.0
N281 N 0.60267 0.97427 0.7365 0.0
C282 C 0.62456 0.96885 0.7232 0.0
C283 C 0.61535 0.97772 0.73455 0.0
C284 C 0.62065 0.95635 0.71349 0.0
C285 C 0.60752 0.95295 0.71666 0.0
H286 H 0.58844 0.95977 0.72933 0.0
H287 H 0.61823 0.9875 0.74089 0.0
C288 C 0.59606 0.02533 0.82219 0.0
N289 N 0.59746 0.02369 0.7879 0.0
C290 C 0.60155 0.03602 0.83837 0.0
C291 C 0.61015 0.04293 0.78374 0.0
C292 C 0.60442 0.03212 0.76856 0.0
C293 C 0.60868 0.04503 0.81909 0.0
H294 H 0.59047 0.01841 0.83683 0.0
H295 H 0.60547 0.03048 0.7414 0.0
C296 C 0.56194 0.97604 0.7407 0.0
N297 N 0.54033 0.96085 0.75225 0.0
C298 C 0.55011 0.97921 0.72544 0.0
C299 C 0.56279 0.96512 0.76173 0.0
C300 C 0.5393 0.97141 0.7316 0.0
C301 C 0.55175 0.95758 0.7673 0.0
C302 C 0.56784 0.02314 0.77967 0.0
C303 C 0.56359 0.02374 0.81362 0.0
C304 C 0.57078 0.03459 0.76219 0.0
C305 C 0.56238 0.0358 0.82952 0.0
C306 C 0.56948 0.04645 0.77903 0.0
N307 N 0.56534 0.04681 0.81206 0.0
C308 C 0.56278 0.98348 0.84313 0.0
C309 C 0.54708 0.99272 0.8061 0.0
C310 C 0.55359 0.98229 0.86914 0.0
N311 N 0.55941 0.98884 0.81266 0.0
C312 C 0.53761 0.99173 0.83133 0.0
C313 C 0.5409 0.98679 0.86368 0.0
H314 H 0.57272 0.98069 0.84776 0.0
H315 H 0.5448 -0.00276 0.78187 0.0
C316 C 0.56626 -0.00209 0.65618 0.0
N317 N 0.56582 0.00648 0.68251 0.0
C318 C 0.55844 -0.00028 0.62749 0.0
C319 C 0.55016 0.01935 0.65321 0.0
C320 C 0.55812 0.01714 0.68145 0.0
C321 C 0.55005 0.01042 0.62609 0.0
H322 H 0.57227 0.98937 0.65817 0.0
H323 H 0.55778 0.02365 0.70303 0.0
O324 O 0.58997 0.99356 0.79647 0.0
O325 O 0.5944 0.00386 0.72277 0.0
O326 O 0.57259 0.98368 0.73551 0.0
O327 O 0.56938 0.01141 0.76386 0.0
H328 H 0.61362 0.00271 0.80699 0.0
H329 H 0.58947 0.96879 0.814 0.0
H330 H 0.63207 0.98978 0.82911 0.0
H331 H 0.60837 0.95645 0.83588 0.0
H332 H 0.59327 0.03156 0.63236 0.0
H333 H 0.60141 0.98723 0.67449 0.0
H334 H 0.59065 0.02682 0.69421 0.0
H335 H 0.60387 0.99267 0.61304 0.0
H336 H 0.63461 0.97182 0.72145 0.0
H337 H 0.60408 0.94348 0.70899 0.0
H338 H 0.60004 0.03732 0.86559 0.0
H339 H 0.61578 0.0495 0.76803 0.0
H340 H 0.54922 0.98768 0.70934 0.0
H341 H 0.57184 0.96258 0.77399 0.0
H342 H 0.53007 0.97378 0.72008 0.0
H343 H 0.55226 0.94914 0.78368 0.0
H344 H 0.56144 0.01501 0.82777 0.0
H345 H 0.57426 0.03432 0.7361 0.0
H346 H 0.55917 0.03639 0.85583 0.0
H347 H 0.57182 0.05537 0.76589 0.0
H348 H 0.5565 0.97831 0.89362 0.0
H349 H 0.52802 0.99553 0.82618 0.0
H350 H 0.5585 0.99246 0.60748 0.0
H351 H 0.5439 0.02777 0.65303 0.0
Li352 Li 0.75088 0.67318 0.02971 0.0
Li353 Li 0.73716 0.65564 0.00498 0.0
Li354 Li 0.7613 0.6568 0.99583 0.0
Li355 Li 0.74739 0.67186 0.96878 0.0
C356 C 0.75188 0.65364 0.07414 0.0
N357 N 0.75225 0.65309 0.14486 0.0
C358 C 0.74034 0.65215 0.09249 0.0
C359 C 0.76361 0.65468 0.09177 0.0
C360 C 0.74073 0.65194 0.12823 0.0
C361 C 0.76359 0.65443 0.12753 0.0
C362 C 0.72701 0.68415 0.99164 0.0
C363 C 0.7095 0.69164 0.95594 0.0
N364 N 0.71319 0.70409 0.96189 0.0
C365 C 0.73062 0.697 -0.00251 0.0
C366 C 0.71636 0.68141 0.97076 0.0
C367 C 0.72351 0.70695 0.98219 0.0
C368 C 0.7608 0.69365 0.07087 0.0
N369 N 0.75116 0.68482 0.06697 0.0
C370 C 0.7388 0.6947 0.11148 0.0
C371 C 0.74032 0.68513 0.08669 0.0
C372 C 0.74845 0.70416 0.11562 0.0
C373 C 0.75968 0.70343 0.09536 0.0
H374 H 0.76909 0.69348 0.05405 0.0
H375 H 0.73259 0.67829 0.08203 0.0
C376 C 0.7246 0.63192 0.01608 0.0
N377 N 0.7229 0.64495 0.01497 0.0
C378 C 0.71469 0.62394 0.02825 0.0
C379 C 0.70143 0.64298 0.0369 0.0
C380 C 0.71158 0.65058 0.02462 0.0
C381 C 0.70302 0.6295 0.03951 0.0
H382 H 0.73382 0.62779 0.00876 0.0
H383 H 0.71063 0.661 0.02407 0.0
C384 C 0.77682 0.67685 0.99106 0.0
N385 N 0.80352 0.67818 0.98654 0.0
C386 C 0.78276 0.67964 0.95974 0.0
C387 C 0.78447 0.67482 0.02008 0.0
C388 C 0.79627 0.68025 0.95798 0.0
C389 C 0.79794 0.67551 0.01728 0.0
C390 C 0.74288 0.65045 0.93001 0.0
C391 C 0.75116 0.65208 0.90202 0.0
C392 C 0.73014 0.64631 0.92462 0.0
C393 C 0.74652 0.64965 0.86905 0.0
C394 C 0.72588 0.64396 0.89126 0.0
N395 N 0.73408 0.64567 0.86439 0.0
C396 C 0.78011 0.63759 0.01329 0.0
C397 C 0.78251 0.64761 0.95905 0.0
C398 C 0.79078 0.6296 0.00686 0.0
N399 N 0.77623 0.64636 0.98941 0.0
C400 C 0.79329 0.64001 0.9518 0.0
C401 C 0.79749 0.63081 0.97574 0.0
H402 H 0.77479 0.63664 0.03699 0.0
H403 H 0.77906 0.65443 0.94024 0.0
C404 C 0.75274 0.69358 0.92981 0.0
N405 N 0.74515 0.68283 0.9297 0.0
C406 C 0.75268 0.70203 0.90208 0.0
C407 C 0.73627 0.68874 0.87536 0.0
C408 C 0.73664 0.68054 0.90378 0.0
C409 C 0.7446 0.69949 0.87399 0.0
H410 H 0.75893 0.69557 0.95147 0.0
H411 H 0.73018 0.67233 0.90494 0.0
O412 O 0.75168 0.65403 0.03912 0.0
O413 O 0.73406 0.67428 0.00564 0.0
O414 O 0.7636 0.676 0.99325 0.0
O415 O 0.74727 0.65262 0.96254 0.0
H416 H 0.73117 0.65132 0.07935 0.0
H417 H 0.77265 0.65563 0.07805 0.0
H418 H 0.73186 0.65089 0.14273 0.0
H419 H 0.77261 0.65527 0.14149 0.0
H420 H 0.70128 0.68967 0.93956 0.0
H421 H 0.73891 0.69927 0.01336 0.0
H422 H 0.71355 0.6715 0.96566 0.0
H423 H 0.72622 0.71695 0.98635 0.0
H424 H 0.72988 0.69506 0.12603 0.0
H425 H 0.76735 0.71052 0.09781 0.0
H426 H 0.71638 0.61362 0.03026 0.0
H427 H 0.69254 0.64764 0.045 0.0
H428 H 0.77705 0.68104 0.93684 0.0
H429 H 0.78005 0.67269 0.0445 0.0
H430 H 0.80099 0.6823 0.93387 0.0
H431 H 0.80397 0.67391 0.03954 0.0
H432 H 0.761 0.65537 0.9056 0.0
H433 H 0.72358 0.645 0.9459 0.0
H434 H 0.7528 0.65096 0.84715 0.0
H435 H 0.71603 0.64079 0.88672 0.0
H436 H 0.79372 0.62254 0.02584 0.0
H437 H 0.79802 0.64104 0.92721 0.0
H438 H 0.75893 0.71045 0.9026 0.0
H439 H 0.72978 0.68651 0.85439 0.0
Li440 Li 0.09109 0.98332 0.7692 0.0
Li441 Li 0.07404 -0.00086 0.77785 0.0
Li442 Li 0.07723 0.98883 0.72227 0.0
Li443 Li 0.09239 0.00482 0.74375 0.0
C444 C 0.07033 0.96925 0.7821 0.0
N445 N 0.06791 0.94615 0.81724 0.0
C446 C 0.06569 0.96917 0.81572 0.0
C447 C 0.07365 0.95758 0.76628 0.0
C448 C 0.06455 0.95739 0.83305 0.0
C449 C 0.0724 0.946 0.78451 0.0
C450 C 0.10234 0.00744 0.80399 0.0
C451 C 0.11164 0.02808 0.81926 0.0
N452 N 0.12341 0.02233 0.82288 0.0
C453 C 0.11453 0.00172 0.80789 0.0
C454 C 0.10086 0.02072 0.80977 0.0
C455 C 0.12506 0.00942 0.81748 0.0
C456 C 0.10837 0.96182 0.77622 0.0
N457 N 0.10016 0.97006 0.79249 0.0
C458 C 0.10373 0.95941 0.84588 0.0
C459 C 0.09792 0.96918 0.82667 0.0
C460 C 0.11215 0.95067 0.82982 0.0
C461 C 0.11457 0.952 0.7946 0.0
H462 H 0.11008 0.96286 0.74907 0.0
H463 H 0.09151 0.97604 0.83893 0.0
C464 C 0.04898 0.0005 0.80469 0.0
N465 N 0.06134 0.00461 0.80957 0.0
C466 C 0.03947 0.00324 0.82896 0.0
C467 C 0.05557 0.01463 0.86241 0.0
C468 C 0.06478 0.01165 0.83748 0.0
C469 C 0.04277 0.01021 0.85858 0.0
H470 H 0.04661 0.99473 0.78245 0.0
H471 H 0.07472 0.01466 0.84082 0.0
C472 C 0.09872 0.98361 0.69002 0.0
N473 N 0.10221 0.97522 0.6235 0.0
C474 C 0.10215 0.99242 0.66439 0.0
C475 C 0.09713 0.97053 0.68184 0.0
C476 C 0.10386 0.98798 0.63091 0.0
C477 C 0.09891 0.96648 0.64805 0.0
C478 C 0.06314 0.0147 0.73479 0.0
C479 C 0.05161 0.01055 0.71953 0.0
C480 C 0.06322 0.02609 0.75418 0.0
C481 C 0.04035 0.01788 0.72388 0.0
C482 C 0.05175 0.03312 0.75799 0.0
N483 N 0.04065 0.02891 0.74288 0.0
C484 C 0.06072 0.97285 0.68174 0.0
C485 C 0.06931 0.99158 0.65487 0.0
C486 C 0.05294 0.97031 0.65325 0.0
N487 N 0.06853 0.98344 0.68211 0.0
C488 C 0.06175 0.98941 0.62592 0.0
C489 C 0.05319 0.97883 0.62516 0.0
H490 H 0.0601 0.9667 0.70404 0.0
H491 H 0.07535 0.00012 0.65635 0.0
C492 C 0.11652 0.01568 0.72551 0.0
N493 N 0.1037 0.01826 0.72956 0.0
C494 C 0.12478 0.02506 0.71184 0.0
C495 C 0.10653 0.03966 0.7078 0.0
C496 C 0.09863 0.02998 0.7213 0.0
C497 C 0.11975 0.03719 0.70226 0.0
H498 H 0.12023 0.00618 0.73186 0.0
H499 H 0.08839 0.03171 0.72437 0.0
O500 O 0.07179 0.98072 0.76493 0.0
O501 O 0.09198 0.00014 0.79385 0.0
O502 O 0.09678 0.98779 0.72284 0.0
O503 O 0.07422 0.00754 0.73141 0.0
H504 H 0.06318 0.97811 0.8285 0.0
H505 H 0.07732 0.95746 0.74037 0.0
H506 H 0.06105 0.95718 0.85914 0.0
H507 H 0.07502 0.93691 0.77266 0.0
H508 H 0.11065 0.03838 0.8236 0.0
H509 H 0.11588 0.99149 0.80326 0.0
H510 H 0.09153 0.02532 0.80645 0.0
H511 H 0.13455 0.00514 0.82049 0.0
H512 H 0.1018 0.95881 0.87309 0.0
H513 H 0.12103 0.94542 0.78141 0.0
H514 H 0.02979 -0.00054 0.82523 0.0
H515 H 0.0585 0.02013 0.88471 0.0
H516 H 0.10331 0.00259 0.67014 0.0
H517 H 0.09442 0.96359 0.7013 0.0
H518 H 0.10645 0.9947 0.61079 0.0
H519 H 0.09764 0.9564 0.64134 0.0
H520 H 0.05128 0.0017 0.70479 0.0
H521 H 0.07198 0.02933 0.76673 0.0
H522 H 0.03136 0.01475 0.71229 0.0
H523 H 0.05166 0.0419 0.77311 0.0
H524 H 0.04652 0.96202 0.65362 0.0
H525 H 0.06207 0.99638 0.60521 0.0
H526 H 0.13486 0.02266 0.70762 0.0
H527 H 0.10227 0.04893 0.70129 0.0
Li528 Li 0.75763 0.34038 0.49953 0.0
Li529 Li 0.74347 0.3235 0.52627 0.0
Li530 Li 0.74845 0.32294 0.46615 0.0
Li531 Li 0.73356 0.33876 0.48663 0.0
C532 C 0.7682 0.3116 0.49449 0.0
N533 N 0.78253 0.29089 0.47068 0.0
C534 C 0.76498 0.29898 0.50429 0.0
C535 C 0.77872 0.3137 0.47266 0.0
C536 C 0.77234 0.28864 0.49196 0.0
C537 C 0.78584 0.3031 0.46088 0.0
C538 C 0.74114 0.34596 0.56445 0.0
C539 C 0.72795 0.35038 0.61405 0.0
N540 N 0.73886 0.35241 0.63283 0.0
C541 C 0.75222 0.34825 0.58414 0.0
C542 C 0.7289 0.34718 0.5794 0.0
C543 C 0.75086 0.35143 0.6187 0.0
C544 C 0.76971 0.36456 0.50808 0.0
N545 N 0.77164 0.35156 0.50827 0.0
C546 C 0.79333 0.35426 0.52804 0.0
C547 C 0.78316 0.3463 0.51767 0.0
C548 C 0.79155 0.36774 0.52922 0.0
C549 C 0.77961 0.3729 0.51851 0.0
H550 H 0.76034 0.36841 0.50096 0.0
H551 H 0.78431 0.3359 0.51816 0.0
C552 C 0.73372 0.30275 0.56581 0.0
N553 N 0.74202 0.31297 0.56574 0.0
C554 C 0.73428 0.29356 0.59192 0.0
C555 C 0.75179 0.30568 0.61769 0.0
C556 C 0.75093 0.3146 0.59099 0.0
C557 C 0.74359 0.29482 0.61794 0.0
H558 H 0.72719 0.30127 0.54459 0.0
H559 H 0.75783 0.32244 0.58946 0.0
C560 C 0.75191 0.34339 0.42201 0.0
N561 N 0.75897 0.34672 0.3544 0.0
C562 C 0.74314 0.34048 0.39587 0.0
C563 C 0.76423 0.3481 0.41385 0.0
C564 C 0.74691 0.34219 0.36182 0.0
C565 C 0.76762 0.3497 0.37948 0.0
C566 C 0.71862 0.31729 0.48982 0.0
C567 C 0.71223 0.31144 0.4623 0.0
C568 C 0.71158 0.32091 0.51882 0.0
C569 C 0.69887 0.30938 0.46422 0.0
C570 C 0.69823 0.31868 0.51977 0.0
N571 N 0.69221 0.31302 0.49266 0.0
C572 C 0.74463 0.29974 0.43267 0.0
C573 C 0.75986 0.31292 0.40364 0.0
C574 C 0.74539 0.29037 0.40717 0.0
N575 N 0.75151 0.3109 0.43003 0.0
C576 C 0.76084 0.30384 0.37729 0.0
C577 C 0.75333 0.2925 0.37855 0.0
H578 H 0.73848 0.29812 0.45465 0.0
H579 H 0.76572 0.32156 0.40281 0.0
C580 C 0.71605 0.35977 0.49209 0.0
N581 N 0.71872 0.34859 0.47519 0.0
C582 C 0.70562 0.36748 0.48186 0.0
C583 C 0.70074 0.3518 0.43776 0.0
C584 C 0.71137 0.34455 0.44843 0.0
C585 C 0.69786 0.36357 0.45409 0.0
H586 H 0.72223 0.36286 0.5129 0.0
H587 H 0.71387 0.33579 0.43493 0.0
O588 O 0.7609 0.32182 0.50557 0.0
O589 O 0.74227 0.3429 0.53052 0.0
O590 O 0.74842 0.34187 0.45549 0.0
O591 O 0.73166 0.31963 0.48815 0.0
H592 H 0.75681 0.29718 0.52096 0.0
H593 H 0.78122 0.3234 0.46443 0.0
H594 H 0.76994 0.27882 0.49921 0.0
H595 H 0.79396 0.30456 0.44379 0.0
H596 H 0.71854 0.35131 0.62597 0.0
H597 H 0.76177 0.34743 0.57298 0.0
H598 H 0.72021 0.34577 0.56438 0.0
H599 H 0.75936 0.35312 0.6343 0.0
H600 H 0.80242 0.34987 0.53565 0.0
H601 H 0.77773 0.38321 0.5195 0.0
H602 H 0.72798 0.28518 0.5906 0.0
H603 H 0.75909 0.30704 0.63727 0.0
H604 H 0.73359 0.3368 0.40177 0.0
H605 H 0.77111 0.35044 0.43383 0.0
H606 H 0.74026 0.33989 0.34129 0.0
H607 H 0.77713 0.35329 0.37275 0.0
H608 H 0.71749 0.3087 0.43948 0.0
H609 H 0.7164 0.32533 0.5404 0.0
H610 H 0.69379 0.30494 0.44303 0.0
H611 H 0.69267 0.32145 0.54206 0.0
H612 H 0.73975 0.28157 0.4098 0.0
H613 H 0.76715 0.30587 0.3558 0.0
H614 H 0.70395 0.37658 0.49488 0.0
H615 H 0.69495 0.34825 0.41663 0.0
Li616 Li 0.40315 0.00693 0.25869 0.0
Li617 Li 0.42084 0.99366 0.28418 0.0
Li618 Li 0.4209 -0.00112 0.22521 0.0
Li619 Li 0.40546 0.98362 0.24493 0.0
C620 C 0.43072 0.01953 0.25298 0.0
N621 N 0.44947 0.03614 0.22817 0.0
C622 C 0.44372 0.01764 0.26161 0.0
C623 C 0.42723 0.0299 0.23193 0.0
C624 C 0.45307 0.02614 0.24876 0.0
C625 C 0.43686 0.03818 0.21959 0.0
C626 C 0.39748 0.99144 0.32271 0.0
C627 C 0.38863 0.97998 0.3712 0.0
N628 N 0.38897 0.99111 0.38978 0.0
C629 C 0.39758 0.00279 0.34215 0.0
C630 C 0.39284 0.97996 0.33722 0.0
C631 C 0.3933 0.00242 0.37606 0.0
C632 C 0.37862 0.01871 0.26031 0.0
N633 N 0.39138 0.02041 0.26748 0.0
C634 C 0.38718 0.04096 0.29297 0.0
C635 C 0.39582 0.0313 0.28302 0.0
C636 C 0.37386 0.03939 0.2867 0.0
C637 C 0.36963 0.02816 0.26964 0.0
H638 H 0.37543 0.00988 0.24799 0.0
H639 H 0.40602 0.03227 0.28877 0.0
C640 C 0.44059 0.98376 0.32998 0.0
N641 N 0.43151 0.99304 0.324 0.0
C642 C 0.44943 0.98518 0.35674 0.0
C643 C 0.43938 0.0056 0.371 0.0
C644 C 0.43076 0.00379 0.34398 0.0
C645 C 0.44904 0.99634 0.37724 0.0
H646 H 0.44149 0.97554 0.3132 0.0
H647 H 0.42385 0.01129 0.33789 0.0
C648 C 0.39999 0.9938 0.18106 0.0
N649 N 0.39516 0.98409 0.11641 0.0
C650 C 0.40821 0.98447 0.16689 0.0
C651 C 0.38931 -0.00182 0.16237 0.0
C652 C 0.4056 0.97969 0.13417 0.0
C653 C 0.38704 0.99315 0.12971 0.0
C654 C 0.42807 0.96971 0.25704 0.0
C655 C 0.43873 0.9633 0.24299 0.0
C656 C 0.42077 0.96367 0.28259 0.0
C657 C 0.44198 0.95097 0.25497 0.0
C658 C 0.42431 0.95133 0.29386 0.0
N659 N 0.43477 0.94529 0.27994 0.0
C660 C 0.44449 -0.00208 0.1921 0.0
C661 C 0.42867 0.00967 0.16084 0.0
C662 C 0.45343 -0.00055 0.16579 0.0
N663 N 0.43236 0.00285 0.18896 0.0
C664 C 0.43729 0.01133 0.13365 0.0
C665 C 0.4498 0.00604 0.13586 0.0
H666 H 0.44711 0.99258 0.21488 0.0
H667 H 0.41896 0.01356 0.15925 0.0
C668 C 0.3826 0.9694 0.24051 0.0
N669 N 0.39546 0.96891 0.23335 0.0
C670 C 0.37435 0.95964 0.22895 0.0
C671 C 0.39283 0.94885 0.20376 0.0
C672 C 0.4007 0.95887 0.2156 0.0
C673 C 0.37942 0.94927 0.20984 0.0
H674 H 0.37871 0.97764 0.25418 0.0
H675 H 0.41092 0.95883 0.20964 0.0
O676 O 0.42148 0.01115 0.26464 0.0
O677 O 0.40155 0.99159 0.28936 0.0
O678 O 0.40222 -0.00142 0.2132 0.0
O679 O 0.42469 0.9817 0.24506 0.0
H680 H 0.44658 0.0096 0.27774 0.0
H681 H 0.4172 0.03144 0.22489 0.0
H682 H 0.46318 0.02476 0.25505 0.0
H683 H 0.43432 0.04621 0.20311 0.0
H684 H 0.38506 0.97115 0.38278 0.0
H685 H 0.40097 0.01179 0.33128 0.0
H686 H 0.3924 0.97113 0.32235 0.0
H687 H 0.39341 0.01113 0.39144 0.0
H688 H 0.39086 0.04933 0.30655 0.0
H689 H 0.35948 0.02663 0.2639 0.0
H690 H 0.45689 0.97793 0.3602 0.0
H691 H 0.4387 0.01433 0.38625 0.0
H692 H 0.4165 0.98093 0.18095 0.0
H693 H 0.38284 0.00537 0.17304 0.0
H694 H 0.41188 0.97246 0.12291 0.0
H695 H 0.37881 0.99645 0.11495 0.0
H696 H 0.44443 0.96779 0.22298 0.0
H697 H 0.41249 0.96845 0.29361 0.0
H698 H 0.45023 0.9459 0.24436 0.0
H699 H 0.41875 0.94656 0.31366 0.0
H700 H 0.46293 0.99508 0.16832 0.0
H701 H 0.43418 0.01655 0.11103 0.0
H702 H 0.36405 0.96049 0.23376 0.0
H703 H 0.39718 0.94099 0.18948 0.0
Li704 Li 0.74193 0.84288 0.50183 0.0
Li705 Li 0.76385 0.8385 0.48168 0.0
Li706 Li 0.74512 0.8281 0.45562 0.0
Li707 Li 0.7523 0.82226 0.51301 0.0
C708 C 0.74725 0.85023 0.42344 0.0
N709 N 0.743 0.856 0.35528 0.0
C710 C 0.75772 0.85247 0.40154 0.0
C711 C 0.73461 0.85101 0.41072 0.0
C712 C 0.75537 0.85536 0.36716 0.0
C713 C 0.73267 0.85391 0.37616 0.0
C714 C 0.76689 0.84689 0.54455 0.0
C715 C 0.78871 0.84973 0.56534 0.0
N716 N 0.78604 0.86236 0.57234 0.0
C717 C 0.76435 0.85989 0.55201 0.0
C718 C 0.77915 0.84175 0.55135 0.0
C719 C 0.77417 0.86755 0.56605 0.0
C720 C 0.72866 0.85435 0.55589 0.0
N721 N 0.73059 0.85516 0.52157 0.0
C722 C 0.71513 0.87224 0.51697 0.0
C723 C 0.72419 0.86396 0.50202 0.0
C724 C 0.71269 0.8714 0.55229 0.0
C725 C 0.71967 0.86239 0.57186 0.0
H726 H 0.73397 0.84727 0.57073 0.0
H727 H 0.72595 0.86439 0.4748 0.0
C728 C 0.7893 0.83791 0.45625 0.0
N729 N 0.78023 0.84569 0.47086 0.0
C730 C 0.80085 0.84317 0.44396 0.0
C731 C 0.79366 0.86428 0.46294 0.0
C732 C 0.78218 0.85864 0.47445 0.0
C733 C 0.80304 0.85654 0.44688 0.0
H734 H 0.78736 0.82771 0.45297 0.0
H735 H 0.77462 0.86465 0.48509 0.0
C736 C 0.72265 0.82673 0.51105 0.0
N737 N 0.69901 0.83095 0.54224 0.0
C738 C 0.72078 0.8232 0.54524 0.0
C739 C 0.71247 0.83233 0.49265 0.0
C740 C 0.70876 0.82542 0.56055 0.0
C741 C 0.7006 0.83441 0.50891 0.0
C742 C 0.76622 0.80791 0.47287 0.0
C743 C 0.75944 0.79764 0.45794 0.0
C744 C 0.77723 0.80538 0.49263 0.0
C745 C 0.76377 0.78497 0.46317 0.0
C746 C 0.78123 0.79258 0.49731 0.0
N747 N 0.77448 0.78273 0.48261 0.0
C748 C 0.74793 0.82031 0.38829 0.0
C749 C 0.7273 0.81526 0.41152 0.0
C750 C 0.74508 0.81345 0.35855 0.0
N751 N 0.73913 0.82095 0.41407 0.0
C752 C 0.72407 0.8082 0.38224 0.0
C753 C 0.73314 0.80702 0.35562 0.0
H754 H 0.7574 0.8246 0.39157 0.0
H755 H 0.72063 0.81568 0.43281 0.0
C756 C 0.76069 0.80939 0.57303 0.0
N757 N 0.75328 0.8084 0.54444 0.0
C758 C 0.7607 0.79945 0.59719 0.0
C759 C 0.74549 0.78765 0.56182 0.0
C760 C 0.74581 0.79781 0.53833 0.0
C761 C 0.75291 0.78846 0.59188 0.0
H762 H 0.76637 0.81802 0.57744 0.0
H763 H 0.73993 0.79738 0.51544 0.0
O764 O 0.74934 0.84721 0.45709 0.0
O765 O 0.75744 0.83926 0.53053 0.0
O766 O 0.73446 0.82497 0.49586 0.0
O767 O 0.76197 0.82036 0.46876 0.0
H768 H 0.76757 0.85188 0.41086 0.0
H769 H 0.72639 0.84921 0.42722 0.0
H770 H 0.76339 0.85705 0.34989 0.0
H771 H 0.72294 0.85445 0.36593 0.0
H772 H 0.79826 0.8459 0.57053 0.0
H773 H 0.75495 0.86406 0.54672 0.0
H774 H 0.78131 0.83175 0.54546 0.0
H775 H 0.77236 0.87763 0.57184 0.0
H776 H 0.70988 0.87901 0.50095 0.0
H777 H 0.71822 0.86157 0.59923 0.0
H778 H 0.80786 0.83692 0.43163 0.0
H779 H 0.79491 0.87467 0.46504 0.0
H780 H 0.72858 0.81898 0.55997 0.0
H781 H 0.71378 0.83519 0.46625 0.0
H782 H 0.7072 0.82281 0.58705 0.0
H783 H 0.69267 0.83883 0.49506 0.0
H784 H 0.75085 0.79939 0.4428 0.0
H785 H 0.78253 0.81322 0.50454 0.0
H786 H 0.75859 0.77692 0.4519 0.0
H787 H 0.78968 0.79048 0.5127 0.0
H788 H 0.75247 0.81255 0.33902 0.0
H789 H 0.71477 0.80336 0.38092 0.0
H790 H 0.76641 0.80053 0.62027 0.0
H791 H 0.73944 0.7793 0.55666 0.0
Li792 Li 0.40363 0.50777 0.73464 0.0
Li793 Li 0.39872 0.48528 0.74743 0.0
Li794 Li 0.41478 0.49714 0.78018 0.0
Li795 Li 0.41895 0.4906 0.72153 0.0
C796 C 0.39305 0.50241 0.81039 0.0
N797 N 0.38822 0.50538 0.87949 0.0
C798 C 0.38736 0.49234 0.82903 0.0
C799 C 0.39624 0.514 0.82685 0.0
C800 C 0.385 0.49404 0.86395 0.0
C801 C 0.39375 0.5153 0.86182 0.0
C802 C 0.39168 0.48818 0.68376 0.0
C803 C 0.3817 0.47027 0.65415 0.0
N804 N 0.37084 0.47751 0.64942 0.0
C805 C 0.38043 0.49546 0.67856 0.0
C806 C 0.39235 0.4755 0.67138 0.0
C807 C 0.37 0.48989 0.66112 0.0
C808 C 0.39901 0.52585 0.68358 0.0
N809 N 0.39683 0.52343 0.71726 0.0
C810 C 0.38447 0.54284 0.72275 0.0
C811 C 0.3898 0.53165 0.73704 0.0
C812 C 0.38635 0.54545 0.6878 0.0
C813 C 0.39386 0.53688 0.66825 0.0
H814 H 0.40461 0.51907 0.66853 0.0
H815 H 0.38813 0.52939 0.76368 0.0
C816 C 0.38781 0.46027 0.75403 0.0
N817 N 0.38512 0.47306 0.7502 0.0
C818 C 0.37776 0.45134 0.75762 0.0
C819 C 0.3624 0.46894 0.75292 0.0
C820 C 0.37274 0.47752 0.7495 0.0
C821 C 0.36485 0.45567 0.75745 0.0
H822 H 0.39775 0.45704 0.75508 0.0
H823 H 0.37094 0.48779 0.74678 0.0
C824 C 0.42593 0.51942 0.73167 0.0
N825 N 0.43174 0.54374 0.70643 0.0
C826 C 0.43129 0.52078 0.699 0.0
C827 C 0.42355 0.53043 0.75152 0.0
C828 C 0.43416 0.53316 0.68672 0.0
C829 C 0.42654 0.54264 0.73828 0.0
C830 C 0.42574 0.4706 0.7576 0.0
C831 C 0.43702 0.47164 0.77725 0.0
C832 C 0.42479 0.46091 0.73275 0.0
C833 C 0.44718 0.46296 0.77161 0.0
C834 C 0.43517 0.45244 0.72785 0.0
N835 N 0.44605 0.45363 0.74723 0.0
C836 C 0.42057 0.48949 0.84756 0.0
C837 C 0.43181 0.50814 0.82818 0.0
C838 C 0.42786 0.48929 0.87764 0.0
N839 N 0.42281 0.49872 0.82346 0.0
C840 C 0.4393 0.50833 0.85785 0.0
C841 C 0.43757 0.49863 0.88268 0.0
H842 H 0.41352 0.48196 0.84272 0.0
H843 H 0.43362 0.51514 0.80821 0.0
C844 C 0.42923 0.48263 0.65798 0.0
N845 N 0.4322 0.48592 0.69069 0.0
C846 C 0.43906 0.48118 0.6338 0.0
C847 C 0.45478 0.48613 0.67785 0.0
C848 C 0.44465 0.48749 0.70113 0.0
C849 C 0.45201 0.48328 0.64348 0.0
H850 H 0.41922 0.48176 0.65026 0.0
H851 H 0.44666 0.49038 0.7272 0.0
O852 O 0.39563 0.50087 0.7763 0.0
O853 O 0.4019 0.49338 0.70132 0.0
O854 O 0.42278 0.5074 0.74391 0.0
O855 O 0.41575 0.47912 0.76236 0.0
H856 H 0.3849 0.48328 0.81679 0.0
H857 H 0.40076 0.52183 0.81288 0.0
H858 H 0.38064 0.48632 0.87873 0.0
H859 H 0.39624 0.52418 0.87494 0.0
H860 H 0.38206 0.46044 0.64464 0.0
H861 H 0.37967 0.50524 0.68822 0.0
H862 H 0.40093 0.46969 0.67544 0.0
H863 H 0.36121 0.49539 0.65704 0.0
H864 H 0.37859 0.54913 0.73857 0.0
H865 H 0.39563 0.53861 0.6413 0.0
H866 H 0.3801 0.44124 0.76171 0.0
H867 H 0.35259 0.47267 0.7524 0.0
H868 H 0.43307 0.51241 0.68309 0.0
H869 H 0.41926 0.52957 0.77667 0.0
H870 H 0.43827 0.53436 0.66144 0.0
H871 H 0.42467 0.55124 0.75327 0.0
H872 H 0.438 0.47913 0.79638 0.0
H873 H 0.41619 0.46005 0.71707 0.0
H874 H 0.45597 0.46367 0.78655 0.0
H875 H 0.43459 0.44494 0.70858 0.0
H876 H 0.42619 0.48168 0.89623 0.0
H877 H 0.44684 0.51556 0.8604 0.0
H878 H 0.43648 0.47919 0.60745 0.0
H879 H 0.46464 0.48774 0.68638 0.0
Li880 Li 0.75294 0.16678 0.95439 0.0
Li881 Li 0.74711 0.17103 0.01373 0.0
Li882 Li 0.7579 0.15046 -0.00163 0.0
Li883 Li 0.73531 0.15459 0.98437 0.0
C884 C 0.77735 0.17083 0.98653 0.0
N885 N 0.80311 0.17542 0.97137 0.0
C886 C 0.78326 0.18238 0.99682 0.0
C887 C 0.78462 0.16154 0.96902 0.0
C888 C 0.79627 0.18455 0.98875 0.0
C889 C 0.79761 0.16405 0.96148 0.0
C890 C 0.73085 0.18511 0.97887 0.0
C891 C 0.71593 0.19876 0.00977 0.0
N892 N 0.72067 0.20928 0.99297 0.0
C893 C 0.73551 0.19605 0.96174 0.0
C894 C 0.72091 0.18645 0.00291 0.0
C895 C 0.73026 0.20818 0.96927 0.0
C896 C 0.75034 0.17117 0.88467 0.0
N897 N 0.75733 0.17479 0.91253 0.0
C898 C 0.76672 0.19241 0.88179 0.0
C899 C 0.76562 0.185 0.91149 0.0
C900 C 0.7591 0.18932 0.85314 0.0
C901 C 0.75112 0.17831 0.85444 0.0
H902 H 0.74367 0.16311 0.88652 0.0
H903 H 0.77072 0.18795 0.93429 0.0
C904 C 0.74137 0.1815 0.07837 0.0
N905 N 0.74654 0.18417 0.0472 0.0
C906 C 0.74145 0.19089 0.104 0.0
C907 C 0.75219 0.20556 0.06488 0.0
C908 C 0.75182 0.19591 0.03994 0.0
C909 C 0.74703 0.20304 0.09745 0.0
H910 H 0.73741 0.17202 0.08354 0.0
H911 H 0.75584 0.19773 0.01484 0.0
C912 C 0.75441 0.13852 0.93291 0.0
N913 N 0.76473 0.11975 0.89043 0.0
C914 C 0.74907 0.12608 0.93219 0.0
C915 C 0.76483 0.14148 0.91138 0.0
C916 C 0.75448 0.11671 0.91074 0.0
C917 C 0.76996 0.13184 0.89028 0.0
C918 C 0.73489 0.14537 0.04729 0.0
C919 C 0.73829 0.1325 0.0538 0.0
C920 C 0.72279 0.14997 0.05778 0.0
C921 C 0.72944 0.12439 0.07034 0.0
C922 C 0.7142 0.14154 0.07418 0.0
N923 N 0.71767 0.12903 0.08005 0.0
C924 C 0.77832 0.14368 0.03945 0.0
C925 C 0.77078 0.1258 0.00697 0.0
C926 C 0.78745 0.13593 0.05578 0.0
N927 N 0.77027 0.13856 0.01548 0.0
C928 C 0.77971 0.11763 0.023 0.0
C929 C 0.78816 0.12271 0.04779 0.0
H930 H 0.77747 0.15379 0.0463 0.0
H931 H 0.76407 0.12188 0.98853 0.0
C932 C 0.70883 0.15457 0.9672 0.0
N933 N 0.71881 0.14694 0.97758 0.0
C934 C 0.69675 0.14915 0.96009 0.0
C935 C 0.70544 0.12812 0.97478 0.0
C936 C 0.71732 0.13397 0.98176 0.0
C937 C 0.69498 0.13571 0.96338 0.0
H938 H 0.71032 0.16485 0.96378 0.0
H939 H 0.72541 0.12812 0.98999 0.0
O940 O 0.76461 0.16857 0.99435 0.0
O941 O 0.73604 0.17317 0.9723 0.0
O942 O 0.74908 0.14788 0.95337 0.0
O943 O 0.74338 0.15343 0.03081 0.0
H944 H 0.77786 0.18962 0.01079 0.0
H945 H 0.78037 0.15239 0.96186 0.0
H946 H 0.80093 0.19348 0.99638 0.0
H947 H 0.80333 0.15693 0.94793 0.0
H948 H 0.7083 0.19995 0.02849 0.0
H949 H 0.74315 0.19521 0.94298 0.0
H950 H 0.71717 0.1781 0.01635 0.0
H951 H 0.73382 0.21673 0.95632 0.0
H952 H 0.77281 0.20096 0.88208 0.0
H953 H 0.74515 0.17557 0.83282 0.0
H954 H 0.73753 0.18853 0.12895 0.0
H955 H 0.75647 0.21486 0.05882 0.0
H956 H 0.74092 0.12363 0.94823 0.0
H957 H 0.76887 0.15113 0.91069 0.0
H958 H 0.7505 0.10701 0.9102 0.0
H959 H 0.77806 0.134 0.87365 0.0
H960 H 0.74762 0.12878 0.04604 0.0
H961 H 0.71999 0.15989 0.05299 0.0
H962 H 0.73192 0.11439 0.07538 0.0
H963 H 0.70476 0.14495 0.08219 0.0
H964 H 0.79363 0.14016 0.0752 0.0
H965 H 0.77997 0.10746 0.01623 0.0
H966 H 0.68894 0.15538 0.95169 0.0
H967 H 0.70461 0.1177 0.97715 0.0
Li968 Li 0.09379 0.50829 0.24929 0.0
Li969 Li 0.09212 0.48545 0.23383 0.0
Li970 Li 0.07957 0.50189 0.20416 0.0
Li971 Li 0.07457 0.4959 0.2631 0.0
C972 C 0.10178 0.5016 0.17209 0.0
N973 N 0.10687 0.50457 0.10312 0.0
C974 C 0.1052 0.49088 0.15224 0.0
C975 C 0.10104 0.51385 0.15695 0.0
C976 C 0.10773 0.49258 0.11739 0.0
C977 C 0.10361 0.51514 0.12201 0.0
C978 C 0.1006 0.48529 0.29727 0.0
C979 C 0.10562 0.46473 0.32348 0.0
N980 N 0.11791 0.46891 0.32951 0.0
C981 C 0.11328 0.48938 0.30376 0.0
C982 C 0.09672 0.47288 0.30728 0.0
C983 C 0.12188 0.48096 0.3201 0.0
C984 C 0.10351 0.52338 0.30175 0.0
N985 N 0.10446 0.52151 0.26744 0.0
C986 C 0.11933 0.53912 0.26238 0.0
C987 C 0.1122 0.52906 0.2476 0.0
C988 C 0.11843 0.54136 0.29781 0.0
C989 C 0.11043 0.53328 0.31755 0.0
H990 H 0.09725 0.51719 0.3168 0.0
H991 H 0.11272 0.52737 0.22034 0.0
C992 C 0.09423 0.45946 0.21412 0.0
N993 N 0.10107 0.46966 0.22669 0.0
C994 C 0.10053 0.44796 0.20563 0.0
C995 C 0.12076 0.45757 0.22392 0.0
C996 C 0.1141 0.46897 0.23152 0.0
C997 C 0.11396 0.44697 0.21036 0.0
H998 H 0.08394 0.46038 0.20974 0.0
H999 H 0.11935 0.47737 0.24045 0.0
C1000 C 0.07546 0.52568 0.25452 0.0
N1001 N 0.07682 0.55055 0.28034 0.0
C1002 C 0.07193 0.52814 0.28844 0.0
C1003 C 0.0796 0.53587 0.23367 0.0
C1004 C 0.0727 0.54078 0.30102 0.0
C1005 C 0.08025 0.54838 0.24723 0.0
C1006 C 0.06201 0.47912 0.22654 0.0
C1007 C 0.05099 0.48403 0.21026 0.0
C1008 C 0.06085 0.46858 0.24877 0.0
C1009 C 0.03896 0.47832 0.21665 0.0
C1010 C 0.04864 0.46315 0.25453 0.0
N1011 N 0.03804 0.4681 0.23849 0.0
C1012 C 0.07187 0.49578 0.13822 0.0
C1013 C 0.06409 0.51615 0.15732 0.0
C1014 C 0.06404 0.49639 0.10925 0.0
N1015 N 0.07158 0.50546 0.16174 0.0
C1016 C 0.05603 0.51713 0.12873 0.0
C1017 C 0.05568 0.50698 0.10479 0.0
H1018 H 0.07759 0.4872 0.1431 0.0
H1019 H 0.06381 0.52352 0.17692 0.0
C1020 C 0.06321 0.48879 0.32617 0.0
N1021 N 0.06102 0.49441 0.29528 0.0
C1022 C 0.05358 0.48887 0.35118 0.0
C1023 C 0.03959 0.50038 0.31186 0.0
C1024 C 0.04949 0.50006 0.28762 0.0
C1025 C 0.04165 0.49489 0.34431 0.0
H1026 H 0.07257 0.48463 0.33177 0.0
H1027 H 0.04814 0.50463 0.26296 0.0
O1028 O 0.09911 0.50012 0.20615 0.0
O1029 O 0.09205 0.49335 0.28106 0.0
O1030 O 0.07513 0.51331 0.242 0.0
O1031 O 0.07385 0.48474 0.22122 0.0
H1032 H 0.10582 0.48133 0.16351 0.0
H1033 H 0.09834 0.52223 0.1719 0.0
H1034 H 0.11033 0.48436 0.10167 0.0
H1035 H 0.10299 0.52454 0.1099 0.0
H1036 H 0.10277 0.45508 0.33118 0.0
H1037 H 0.1165 0.4989 0.29593 0.0
H1038 H 0.08699 0.4695 0.30221 0.0
H1039 H 0.13173 0.48399 0.32516 0.0
H1040 H 0.1253 0.54519 0.2462 0.0
H1041 H 0.10962 0.53452 0.34499 0.0
H1042 H 0.095 0.43998 0.1951 0.0
H1043 H 0.13117 0.45721 0.22729 0.0
H1044 H 0.06882 0.52035 0.30505 0.0
H1045 H 0.08244 0.53413 0.20742 0.0
H1046 H 0.07008 0.54282 0.32728 0.0
H1047 H 0.08352 0.55634 0.23145 0.0
H1048 H 0.05167 0.49224 0.1932 0.0
H1049 H 0.06927 0.4647 0.26169 0.0
H1050 H 0.03034 0.48205 0.20435 0.0
H1051 H 0.04759 0.45503 0.27181 0.0
H1052 H 0.06388 0.48823 0.09183 0.0
H1053 H 0.04974 0.52547 0.12614 0.0
H1054 H 0.05564 0.48472 0.37605 0.0
H1055 H 0.0305 0.50502 0.30547 0.0
Li1056 Li 0.24668 0.17514 0.5207 0.0
Li1057 Li 0.23173 0.16007 0.49479 0.0
Li1058 Li 0.25504 0.15907 0.48112 0.0
Li1059 Li 0.24185 0.17663 0.45965 0.0
C1060 C 0.24183 0.15266 0.55773 0.0
N1061 N 0.23207 0.14576 0.62102 0.0
C1062 C 0.23158 0.15964 0.57212 0.0
C1063 C 0.24712 0.14219 0.57554 0.0
C1064 C 0.22678 0.15599 0.60413 0.0
C1065 C 0.24205 0.13885 0.60751 0.0
C1066 C 0.2175 0.18362 0.49585 0.0
C1067 C 0.19802 0.1868 0.46282 0.0
N1068 N 0.19225 0.19227 0.49058 0.0
C1069 C 0.21141 0.18934 0.524 0.0
C1070 C 0.21078 0.18239 0.46497 0.0
C1071 C 0.19863 0.19362 0.52084 0.0
C1072 C 0.24427 0.19714 0.56019 0.0
N1073 N 0.24976 0.1852 0.56021 0.0
C1074 C 0.25658 0.18779 0.61822 0.0
C1075 C 0.2561 0.18051 0.5881 0.0
C1076 C 0.2504 0.1999 0.61942 0.0
C1077 C 0.24444 0.20469 0.58971 0.0
H1078 H 0.23938 0.20062 0.53748 0.0
H1079 H 0.26037 0.17096 0.58737 0.0
C1080 C 0.22011 0.13618 0.50129 0.0
N1081 N 0.21742 0.14901 0.50423 0.0
C1082 C 0.21135 0.12694 0.51331 0.0
C1083 C 0.19694 0.14429 0.52982 0.0
C1084 C 0.20601 0.15319 0.51766 0.0
C1085 C 0.19971 0.13098 0.52856 0.0
H1086 H 0.22938 0.13316 0.49113 0.0
H1087 H 0.20413 0.16338 0.52052 0.0
C1088 C 0.27113 0.18008 0.4949 0.0
N1089 N 0.29567 0.18484 0.52018 0.0
C1090 C 0.27834 0.19054 0.48256 0.0
C1091 C 0.2764 0.17201 0.52003 0.0
C1092 C 0.29073 0.19279 0.49568 0.0
C1093 C 0.28882 0.17459 0.53251 0.0
C1094 C 0.23517 0.1555 0.41814 0.0
C1095 C 0.24351 0.15369 0.39039 0.0
C1096 C 0.22179 0.15444 0.4133 0.0
C1097 C 0.23832 0.15128 0.358 0.0
C1098 C 0.21697 0.152 0.38052 0.0
N1099 N 0.22526 0.15051 0.35376 0.0
C1100 C 0.27045 0.13639 0.48256 0.0
C1101 C 0.27621 0.15234 0.44154 0.0
C1102 C 0.27984 0.12796 0.46968 0.0
N1103 N 0.26877 0.14822 0.46806 0.0
C1104 C 0.28563 0.14422 0.42774 0.0
C1105 C 0.28738 0.13177 0.44147 0.0
H1106 H 0.26425 0.13337 0.50339 0.0
H1107 H 0.27454 0.1618 0.43051 0.0
C1108 C 0.2346 0.1997 0.42416 0.0
N1109 N 0.2415 0.1885 0.42278 0.0
C1110 C 0.23668 0.20939 0.39985 0.0
C1111 C 0.25289 0.19584 0.37325 0.0
C1112 C 0.25047 0.18641 0.39796 0.0
C1113 C 0.24615 0.20764 0.37443 0.0
H1114 H 0.228 0.20144 0.4451 0.0
H1115 H 0.25633 0.17775 0.39865 0.0
O1116 O 0.24666 0.15596 0.52628 0.0
O1117 O 0.22998 0.17928 0.4987 0.0
O1118 O 0.259 0.17779 0.48217 0.0
O1119 O 0.2401 0.15771 0.45012 0.0
H1120 H 0.22736 0.16777 0.55879 0.0
H1121 H 0.25506 0.1367 0.56476 0.0
H1122 H 0.21884 0.1613 0.61553 0.0
H1123 H 0.24606 0.13076 0.62158 0.0
H1124 H 0.19271 0.18592 0.43905 0.0
H1125 H 0.21645 0.19034 0.54815 0.0
H1126 H 0.21544 0.17827 0.44276 0.0
H1127 H 0.19377 0.19801 0.54246 0.0
H1128 H 0.26122 0.18376 0.64068 0.0
H1129 H 0.23975 0.21407 0.58949 0.0
H1130 H 0.21399 0.1168 0.51223 0.0
H1131 H 0.18802 0.14783 0.54099 0.0
H1132 H 0.27438 0.19685 0.46304 0.0
H1133 H 0.271 0.16384 0.5298 0.0
H1134 H 0.29642 0.20086 0.48639 0.0
H1135 H 0.29302 0.16843 0.55198 0.0
H1136 H 0.2539 0.15414 0.39383 0.0
H1137 H 0.21519 0.15539 0.43465 0.0
H1138 H 0.24467 0.14996 0.33625 0.0
H1139 H 0.20663 0.15124 0.37638 0.0
H1140 H 0.28082 0.11839 0.48074 0.0
H1141 H 0.29135 0.14756 0.40623 0.0
H1142 H 0.23125 0.21834 0.40167 0.0
H1143 H 0.26052 0.19419 0.35471 0.0
Li1144 Li 0.56791 0.50314 0.27338 0.0
Li1145 Li 0.58485 0.48795 0.25744 0.0
Li1146 Li 0.58591 0.51061 0.24061 0.0
Li1147 Li 0.57042 0.49602 0.21427 0.0
C1148 C 0.59621 0.50998 0.30125 0.0
N1149 N 0.617 0.52393 0.32624 0.0
C1150 C 0.60854 0.50441 0.30217 0.0
C1151 C 0.59443 0.52261 0.31322 0.0
C1152 C 0.61894 0.51163 0.31488 0.0
C1153 C 0.60507 0.52951 0.32568 0.0
C1154 C 0.56398 0.47327 0.26569 0.0
C1155 C 0.56582 0.45017 0.2579 0.0
N1156 N 0.56111 0.4483 0.29003 0.0
C1157 C 0.5591 0.47112 0.29858 0.0
C1158 C 0.56731 0.46272 0.2451 0.0
C1159 C 0.55773 0.45843 0.31043 0.0
C1160 C 0.54306 0.50332 0.30106 0.0
N1161 N 0.55562 0.50626 0.30797 0.0
C1162 C 0.55082 0.50921 0.36716 0.0
C1163 C 0.5596 0.50942 0.34003 0.0
C1164 C 0.53789 0.50562 0.36108 0.0
C1165 C 0.53395 0.50305 0.32734 0.0
H1166 H 0.54028 0.50051 0.27543 0.0
H1167 H 0.56973 0.51139 0.34483 0.0
C1168 C 0.60354 0.46757 0.25627 0.0
N1169 N 0.59434 0.47379 0.27485 0.0
C1170 C 0.61081 0.45764 0.27119 0.0
C1171 C 0.59872 0.46061 0.32363 0.0
C1172 C 0.5919 0.4706 0.30794 0.0
C1173 C 0.60848 0.45408 0.30545 0.0
H1174 H 0.60544 0.47051 0.23019 0.0
H1175 H 0.5847 0.47593 0.32224 0.0
C1176 C 0.55692 0.52135 0.23771 0.0
N1177 N 0.53518 0.53591 0.25255 0.0
C1178 C 0.54521 0.51882 0.221 0.0
C1179 C 0.55758 0.53131 0.26186 0.0
C1180 C 0.53433 0.52629 0.22887 0.0
C1181 C 0.54648 0.53855 0.26906 0.0
C1182 C 0.59171 0.49258 0.17876 0.0
C1183 C 0.59475 0.50272 0.15646 0.0
C1184 C 0.59042 0.48 0.16602 0.0
C1185 C 0.59634 0.50011 0.12163 0.0
C1186 C 0.59208 0.47779 0.13101 0.0
N1187 N 0.59497 0.48781 0.10973 0.0
C1188 C 0.61002 0.52174 0.22609 0.0
C1189 C 0.59253 0.53663 0.22648 0.0
C1190 C 0.61852 0.53139 0.21522 0.0
N1191 N 0.59729 0.52449 0.23109 0.0
C1192 C 0.60069 0.54659 0.21563 0.0
C1193 C 0.61383 0.54397 0.20925 0.0
H1194 H 0.61345 0.51192 0.22936 0.0
H1195 H 0.58233 0.53848 0.23018 0.0
C1196 C 0.55232 0.48281 0.17277 0.0
N1197 N 0.56093 0.49276 0.17389 0.0
C1198 C 0.54346 0.48194 0.1459 0.0
C1199 C 0.55286 0.50128 0.12129 0.0
C1200 C 0.5615 0.50179 0.14865 0.0
C1201 C 0.54342 0.49148 0.12025 0.0
H1202 H 0.55183 0.47599 0.1937 0.0
H1203 H 0.56818 0.50982 0.1508 0.0
O1204 O 0.58597 0.50318 0.28823 0.0
O1205 O 0.56557 0.48563 0.25377 0.0
O1206 O 0.56766 0.51405 0.23069 0.0
O1207 O 0.58995 0.49495 0.21288 0.0
H1208 H 0.61011 0.49467 0.29286 0.0
H1209 H 0.58495 0.52707 0.31258 0.0
H1210 H 0.62855 0.50746 0.31561 0.0
H1211 H 0.60385 0.53932 0.33485 0.0
H1212 H 0.56843 0.44192 0.24231 0.0
H1213 H 0.55654 0.47915 0.31498 0.0
H1214 H 0.57109 0.4642 0.2196 0.0
H1215 H 0.55403 0.45662 0.3359 0.0
H1216 H 0.5543 0.51108 0.39284 0.0
H1217 H 0.52405 0.50037 0.3215 0.0
H1218 H 0.61839 0.45308 0.25633 0.0
H1219 H 0.59639 0.45811 0.34983 0.0
H1220 H 0.54447 0.51111 0.20241 0.0
H1221 H 0.56653 0.53333 0.27524 0.0
H1222 H 0.52519 0.52441 0.21622 0.0
H1223 H 0.54683 0.54624 0.28783 0.0
H1224 H 0.5957 0.51253 0.16583 0.0
H1225 H 0.58812 0.47204 0.18294 0.0
H1226 H 0.59862 0.50788 0.10404 0.0
H1227 H 0.59106 0.46811 0.12077 0.0
H1228 H 0.62853 0.5289 0.2101 0.0
H1229 H 0.5967 0.55617 0.21164 0.0
H1230 H 0.53622 0.47435 0.14638 0.0
H1231 H 0.55323 0.50876 0.10188 0.0
Li1232 Li 0.24404 0.81779 0.01762 0.0
Li1233 Li 0.25268 0.83854 0.00986 0.0
Li1234 Li 0.22884 0.83508 0.00235 0.0
Li1235 Li 0.24518 0.82692 0.96115 0.0
C1236 C 0.23575 0.82815 0.07521 0.0
N1237 N 0.22819 0.81703 0.13643 0.0
C1238 C 0.24501 0.8229 0.09739 0.0
C1239 C 0.22265 0.82781 0.08433 0.0
C1240 C 0.24099 0.81729 0.12816 0.0
C1241 C 0.21903 0.82214 0.11536 0.0
C1242 C 0.27252 0.82516 0.99584 0.0
C1243 C 0.29262 0.83415 0.97502 0.0
N1244 N 0.29803 0.83235 0.00641 0.0
C1245 C 0.2783 0.82339 0.02789 0.0
C1246 C 0.27975 0.83059 0.96918 0.0
C1247 C 0.2912 0.82709 0.03272 0.0
C1248 C 0.25673 0.79547 0.04189 0.0
N1249 N 0.24516 0.80173 0.04145 0.0
C1250 C 0.23555 0.78526 0.07608 0.0
C1251 C 0.23454 0.7967 0.05724 0.0
C1252 C 0.24758 0.77899 0.07849 0.0
C1253 C 0.25821 0.78409 0.06065 0.0
H1254 H 0.26486 0.79935 0.02789 0.0
H1255 H 0.22537 0.80172 0.0558 0.0
C1256 C 0.27141 0.85897 0.00623 0.0
N1257 N 0.26486 0.85076 0.02722 0.0
C1258 C 0.28088 0.86722 0.01958 0.0
C1259 C 0.27644 0.85858 0.07588 0.0
C1260 C 0.26705 0.85059 0.06149 0.0
C1261 C 0.28357 0.86701 0.05485 0.0
H1262 H 0.26944 0.85899 0.97911 0.0
H1263 H 0.26168 0.84403 0.0776 0.0
C1264 C 0.22772 0.80506 0.97509 0.0
N1265 N 0.22302 0.77913 0.96258 0.0
C1266 C 0.23746 0.7972 0.96143 0.0
C1267 C 0.21564 0.79967 0.98281 0.0
C1268 C 0.23488 0.78413 0.95516 0.0
C1269 C 0.21344 0.78655 0.97619 0.0
C1270 C 0.24013 0.85086 0.94173 0.0
C1271 C 0.22806 0.85492 0.92954 0.0
C1272 C 0.25112 0.85246 0.92123 0.0
C1273 C 0.22717 0.86042 0.89695 0.0
C1274 C 0.24983 0.85798 0.88877 0.0
N1275 N 0.23798 0.86182 0.87739 0.0
C1276 C 0.21172 0.85514 0.01672 0.0
C1277 C 0.20183 0.83671 0.99165 0.0
C1278 C 0.20033 0.86226 0.01301 0.0
N1279 N 0.21233 0.84275 0.00523 0.0
C1280 C 0.19017 0.8434 0.98791 0.0
C1281 C 0.18945 0.85652 -0.00254 0.0
H1282 H 0.22035 0.85972 0.02679 0.0
H1283 H 0.20269 0.82695 0.98206 0.0
C1284 C 0.25698 0.81611 0.90197 0.0
N1285 N 0.24641 0.82245 0.91416 0.0
C1286 C 0.25672 0.8106 0.86939 0.0
C1287 C 0.23492 0.81869 0.86208 0.0
C1288 C 0.23556 0.82395 0.89488 0.0
C1289 C 0.24544 0.81155 0.84936 0.0
H1290 H 0.26525 0.81453 0.91838 0.0
H1291 H 0.22715 0.82865 0.90568 0.0
O1292 O 0.23945 0.83362 0.04481 0.0
O1293 O 0.25978 0.82191 0.99089 0.0
O1294 O 0.23018 0.81781 0.98223 0.0
O1295 O 0.24118 0.84535 0.97349 0.0
H1296 H 0.25516 0.82289 0.09065 0.0
H1297 H 0.21534 0.83182 0.06759 0.0
H1298 H 0.24804 0.81309 0.14537 0.0
H1299 H 0.20893 0.82178 0.12267 0.0
H1300 H 0.29829 0.83842 0.95464 0.0
H1301 H 0.27283 0.81945 0.04907 0.0
H1302 H 0.27544 0.83224 0.94436 0.0
H1303 H 0.29574 0.82586 0.05746 0.0
H1304 H 0.22713 0.78162 0.08957 0.0
H1305 H 0.26758 0.77937 0.06142 0.0
H1306 H 0.28601 0.87369 0.00248 0.0
H1307 H 0.27829 0.85794 0.10311 0.0
H1308 H 0.247 0.80106 0.95642 0.0
H1309 H 0.20808 0.80548 0.99424 0.0
H1310 H 0.24234 0.77795 0.94463 0.0
H1311 H 0.20414 0.78226 0.98206 0.0
H1312 H 0.21943 0.85377 0.94489 0.0
H1313 H 0.26051 0.84928 0.93003 0.0
H1314 H 0.21788 0.86356 0.88717 0.0
H1315 H 0.25824 0.85918 0.87257 0.0
H1316 H 0.20037 0.87238 0.02023 0.0
H1317 H 0.18201 0.83851 0.97628 0.0
H1318 H 0.26495 0.80492 0.861 0.0
H1319 H 0.22606 0.81972 0.84746 0.0
Li1320 Li 0.92354 0.49396 0.77585 0.0
Li1321 Li 0.90768 0.51005 0.75828 0.0
Li1322 Li 0.90768 0.4879 0.73516 0.0
Li1323 Li 0.9242 0.50257 0.71746 0.0
C1324 C 0.90379 0.48997 0.81624 0.0
N1325 N 0.90331 0.48304 0.88455 0.0
C1326 C 0.9008 0.49918 0.84123 0.0
C1327 C 0.90641 0.4772 0.82597 0.0
C1328 C 0.90063 0.49549 0.87564 0.0
C1329 C 0.90616 0.4739 0.86064 0.0
C1330 C 0.9383 0.51828 0.76103 0.0
C1331 C 0.95114 0.53773 0.75597 0.0
N1332 N 0.96209 0.5306 0.76035 0.0
C1333 C 0.94969 0.51117 0.76558 0.0
C1334 C 0.93903 0.53169 0.75628 0.0
C1335 C 0.96162 0.51756 0.76511 0.0
C1336 C 0.94195 0.47921 0.81428 0.0
N1337 N 0.93403 0.48972 0.81392 0.0
C1338 C 0.94329 0.49766 0.86574 0.0
C1339 C 0.93441 0.49877 0.8391 0.0
C1340 C 0.95196 0.48718 0.86625 0.0
C1341 C 0.95105 0.47773 0.84047 0.0
H1342 H 0.94162 0.47233 0.79347 0.0
H1343 H 0.9282 0.50719 0.83755 0.0
C1344 C 0.88461 0.52382 0.77009 0.0
N1345 N 0.89763 0.52388 0.77497 0.0
C1346 C 0.87689 0.53317 0.78586 0.0
C1347 C 0.89622 0.54262 0.81046 0.0
C1348 C 0.90355 0.53305 0.7944 0.0
C1349 C 0.88269 0.54262 0.80672 0.0
H1350 H 0.88021 0.51628 0.75475 0.0
H1351 H 0.9139 0.53264 0.79843 0.0
C1352 C 0.92652 0.47275 0.7174 0.0
N1353 N 0.92553 0.44896 0.68512 0.0
C1354 C 0.92803 0.47193 0.68191 0.0
C1355 C 0.92457 0.46146 0.73648 0.0
C1356 C 0.92749 0.45981 0.66607 0.0
C1357 C 0.92408 0.44953 0.71968 0.0
C1358 C 0.9023 0.51486 0.6894 0.0
C1359 C 0.8942 0.51332 0.66102 0.0
C1360 C 0.90719 0.52713 0.6973 0.0
C1361 C 0.89121 0.52408 0.64083 0.0
C1362 C 0.90395 0.53765 0.67653 0.0
N1363 N 0.8961 0.53592 0.64893 0.0
C1364 C 0.8903 0.46628 0.73737 0.0
C1365 C 0.89591 0.47446 0.68262 0.0
C1366 C 0.88232 0.45691 0.72247 0.0
N1367 N 0.89687 0.47478 0.71727 0.0
C1368 C 0.88813 0.46525 0.66667 0.0
C1369 C 0.88111 0.45637 0.68662 0.0
H1370 H 0.89116 0.46685 0.76489 0.0
H1371 H 0.90126 0.48138 0.66737 0.0
C1372 C 0.94772 0.50066 0.68501 0.0
N1373 N 0.93595 0.50637 0.68109 0.0
C1374 C 0.95685 0.50111 0.65884 0.0
C1375 C 0.94171 0.51347 0.62484 0.0
C1376 C 0.93285 0.51282 0.65183 0.0
C1377 C 0.95379 0.50733 0.62795 0.0
H1378 H 0.94982 0.49522 0.70797 0.0
H1379 H 0.92337 0.51699 0.64857 0.0
O1380 O 0.90421 0.49343 0.78246 0.0
O1381 O 0.92648 0.51222 0.7615 0.0
O1382 O 0.92673 0.48455 0.73331 0.0
O1383 O 0.90515 0.50443 0.7096 0.0
H1384 H 0.8987 0.50908 0.83421 0.0
H1385 H 0.90875 0.46996 0.807 0.0
H1386 H 0.8984 0.50253 0.89526 0.0
H1387 H 0.90827 0.46408 0.86855 0.0
H1388 H 0.95184 0.54809 0.75228 0.0
H1389 H 0.94939 0.50079 0.76893 0.0
H1390 H 0.93035 0.53741 0.75293 0.0
H1391 H 0.9705 0.51215 0.76844 0.0
H1392 H 0.94381 0.5053 0.88465 0.0
H1393 H 0.95754 0.46949 0.84002 0.0
H1394 H 0.86649 0.53291 0.78216 0.0
H1395 H 0.90104 0.54962 0.82674 0.0
H1396 H 0.92939 0.48056 0.66663 0.0
H1397 H 0.92333 0.46191 0.76393 0.0
H1398 H 0.92857 0.45904 0.6386 0.0
H1399 H 0.9225 0.44073 0.73411 0.0
H1400 H 0.89027 0.5039 0.65468 0.0
H1401 H 0.91346 0.52849 0.71909 0.0
H1402 H 0.88497 0.52302 0.61874 0.0
H1403 H 0.9077 0.54719 0.68231 0.0
H1404 H 0.87696 0.45036 0.73883 0.0
H1405 H 0.88767 0.46506 0.63898 0.0
H1406 H 0.96609 0.49634 0.66247 0.0
H1407 H 0.93888 0.51821 0.60125 0.0
C1408 C 0.27776 0.28461 0.15546 0.0
C1409 C 0.27593 0.29779 0.16294 0.0
C1410 C 0.27713 0.27535 0.18142 0.0
C1411 C 0.26115 0.27115 0.26426 0.0
H1412 H 0.27922 0.23823 0.26433 0.0
C1413 C 0.25088 0.23112 0.36387 0.0
C1414 C 0.24986 0.21841 0.35123 0.0
C1415 C 0.25524 0.24114 0.34281 0.0
C1416 C 0.27405 0.24736 0.26447 0.0
H1417 H 0.27322 0.31173 0.20373 0.0
H1418 H 0.27236 0.29555 0.24931 0.0
H1419 H 0.28623 0.25542 0.22553 0.0
H1420 H 0.25233 0.20632 0.3063 0.0
H1421 H 0.25996 0.22384 0.26951 0.0
H1422 H 0.24886 0.26305 0.3028 0.0
C1423 C 0.27394 0.29235 0.22324 0.0
C1424 C 0.27809 0.25721 0.24235 0.0
C1425 C 0.27451 0.30162 0.19723 0.0
C1426 C 0.25315 0.21598 0.31692 0.0
C1427 C 0.25756 0.22599 0.29589 0.0
C1428 C 0.25716 0.26134 0.28645 0.0
C1429 C 0.27471 0.27908 0.21542 0.0
C1430 C 0.27155 0.26915 0.24163 0.0
C1431 C 0.25873 0.23866 0.30869 0.0
C1432 C 0.26344 0.24928 0.28641 0.0
H1433 H 0.2787 0.28134 0.12923 0.0
H1434 H 0.27765 0.26521 0.1744 0.0
H1435 H 0.25571 0.28012 0.26391 0.0
H1436 H 0.24868 0.23329 0.39035 0.0
H1437 H 0.25616 0.25078 0.35347 0.0
C1438 C 0.97625 -0.00276 0.3924 0.0
C1439 C 0.96332 0.99509 0.40212 0.0
C1440 C 0.98636 0.99458 0.41508 0.0
C1441 C 0.99406 0.97551 0.49246 0.0
H1442 H 0.02321 -0.00094 0.49964 0.0
C1443 C 0.03066 0.97475 0.604 0.0
C1444 C 0.0437 0.97759 0.59683 0.0
C1445 C 0.02132 0.97543 0.57823 0.0
C1446 C 0.01524 0.99228 0.49753 0.0
H1447 H 0.95082 0.9888 0.44349 0.0
H1448 H 0.96847 0.9843 0.4833 0.0
H1449 H 0.00583 0.00374 0.45931 0.0
H1450 H 0.0573 0.98251 0.55655 0.0
H1451 H 0.04094 0.98371 0.51149 0.0
H1452 H 0.0034 0.96418 0.53118 0.0
C1453 C 0.97081 0.98779 0.4579 0.0
C1454 C 0.00527 0.99497 0.47447 0.0
C1455 C 0.9607 0.99042 0.43518 0.0
C1456 C 0.04729 0.98048 0.56297 0.0
C1457 C 0.03794 0.98118 0.5372 0.0
C1458 C 0.00403 0.97283 0.51558 0.0
C1459 C 0.98376 0.98973 0.44799 0.0
C1460 C 0.99451 0.98668 0.47188 0.0
C1461 C 0.02481 0.97897 0.54475 0.0
C1462 C 0.01468 0.98124 0.51854 0.0
H1463 H 0.97859 0.00061 0.36688 0.0
H1464 H 0.99624 0.99603 0.40651 0.0
H1465 H 0.98602 0.96881 0.49061 0.0
H1466 H 0.02753 0.97269 0.62989 0.0
H1467 H 0.01127 0.9738 0.58493 0.0
C1468 C 0.2348 0.73155 0.61817 0.0
C1469 C 0.23919 0.71959 0.63092 0.0
C1470 C 0.23514 0.74263 0.63868 0.0
C1471 C 0.25203 0.75608 0.71333 0.0
H1472 H 0.22316 0.78004 0.71771 0.0
C1473 C 0.25471 0.80214 0.79531 0.0
C1474 C 0.24414 0.8038 0.81754 0.0
C1475 C 0.25397 0.79337 0.76814 0.0
C1476 C 0.23131 0.77345 0.71663 0.0
H1477 H 0.24687 0.70978 0.67563 0.0
H1478 H 0.24749 0.72911 0.71137 0.0
H1479 H 0.22187 0.76113 0.6802 0.0
H1480 H 0.22434 0.79785 0.82789 0.0
H1481 H 0.22302 0.78273 0.78047 0.0
H1482 H 0.26132 0.76813 0.75043 0.0
C1483 C 0.244 0.72996 0.68531 0.0
C1484 C 0.2306 0.76269 0.69504 0.0
C1485 C 0.24362 0.71889 0.66488 0.0
C1486 C 0.2326 0.797 0.81096 0.0
C1487 C 0.23184 0.78829 0.78377 0.0
C1488 C 0.25276 0.76686 0.73475 0.0
C1489 C 0.23992 0.74197 0.67229 0.0
C1490 C 0.24088 0.75378 0.69364 0.0
C1491 C 0.24262 0.78613 0.76262 0.0
C1492 C 0.24233 0.77555 0.73702 0.0
H1493 H 0.2315 0.73246 0.59196 0.0
H1494 H 0.23202 0.75177 0.6279 0.0
H1495 H 0.26018 0.74948 0.71238 0.0
H1496 H 0.26367 0.80738 0.7994 0.0
H1497 H 0.26237 0.79203 0.75191 0.0
C1498 C 0.45441 0.00323 0.07347 0.0
C1499 C 0.45879 0.00648 0.10641 0.0
C1500 C 0.4632 0.00183 0.04656 0.0
C1501 C 0.49752 0.99416 0.03223 0.0
H1502 H 0.49025 0.00445 0.93872 0.0
C1503 C 0.53562 0.99183 0.92474 0.0
C1504 C 0.53152 0.98759 0.89232 0.0
C1505 C 0.52666 0.99391 0.95087 0.0
C1506 C 0.49233 0.00139 0.96466 0.0
H1507 H 0.47563 0.01167 0.13659 0.0
H1508 H 0.49098 0.00941 0.0895 0.0
H1509 H 0.47478 0.0097 0.98391 0.0
H1510 H 0.51483 0.98172 0.8623 0.0
H1511 H 0.49914 0.98537 0.90809 0.0
H1512 H 0.51506 0.98588 0.01304 0.0
C1513 C 0.48081 0.00761 0.08465 0.0
C1514 C 0.4835 0.00443 0.99053 0.0
C1515 C 0.47203 0.00896 0.11155 0.0
C1516 C 0.51827 0.98514 0.88689 0.0
C1517 C 0.50929 0.98726 0.91303 0.0
C1518 C 0.50634 0.99116 0.00641 0.0
C1519 C 0.47653 0.0037 0.05209 0.0
C1520 C 0.48601 0.00086 0.0246 0.0
C1521 C 0.51339 0.99182 0.94514 0.0
C1522 C 0.50385 0.99474 0.97238 0.0
H1523 H 0.44428 0.00112 0.06888 0.0
H1524 H 0.45962 -0.00129 0.02185 0.0
H1525 H 0.49961 0.99103 0.05811 0.0
H1526 H 0.54571 0.99406 0.92959 0.0
H1527 H 0.53008 -0.00242 0.97522 0.0
C1528 C 0.25955 0.76736 0.12458 0.0
C1529 C 0.24923 0.76767 0.1012 0.0
C1530 C 0.26064 0.75725 0.14806 0.0
C1531 C 0.24053 0.73273 0.19127 0.0
H1532 H 0.27383 0.72196 0.22734 0.0
C1533 C 0.24537 0.71024 0.32437 0.0
C1534 C 0.25495 0.70085 0.33054 0.0
C1535 C 0.2447 0.71657 0.29292 0.0
C1536 C 0.26444 0.72465 0.21724 0.0
H1537 H 0.23229 0.75742 0.08284 0.0
H1538 H 0.23436 0.73949 0.12335 0.0
H1539 H 0.27298 0.73566 0.17677 0.0
H1540 H 0.27125 0.69065 0.30815 0.0
H1541 H 0.26979 0.7014 0.25271 0.0
H1542 H 0.23197 0.72153 0.23129 0.0
C1543 C 0.24143 0.74723 0.12416 0.0
C1544 C 0.26396 0.73268 0.18849 0.0
C1545 C 0.24026 0.75745 0.10091 0.0
C1546 C 0.2637 0.69777 0.3042 0.0
C1547 C 0.26295 0.70404 0.27252 0.0
C1548 C 0.24101 0.72458 0.21973 0.0
C1549 C 0.25151 0.74714 0.14846 0.0
C1550 C 0.25201 0.73713 0.17579 0.0
C1551 C 0.25347 0.71356 0.26659 0.0
C1552 C 0.25297 0.72077 0.23371 0.0
H1553 H 0.2665 0.77521 0.12562 0.0
H1554 H 0.26836 0.75768 0.16679 0.0
H1555 H 0.23115 0.73601 0.18242 0.0
H1556 H 0.2383 0.71268 0.34379 0.0
H1557 H 0.23741 0.724 0.28955 0.0
C1558 C 0.46476 0.01112 0.40656 0.0
C1559 C 0.45922 -0.00126 0.40324 0.0
C1560 C 0.47481 0.0133 0.42975 0.0
C1561 C 0.50058 0.99631 0.47651 0.0
H1562 H 0.50094 0.02711 0.53335 0.0
C1563 C 0.54371 0.00823 0.56429 0.0
C1564 C 0.54041 0.01153 0.59808 0.0
C1565 C 0.53424 0.00789 0.53879 0.0
C1566 C 0.50096 0.01847 0.51764 0.0
H1567 H 0.45969 0.979 0.42219 0.0
H1568 H 0.47728 0.98281 0.46275 0.0
H1569 H 0.48312 0.02363 0.49329 0.0
H1570 H 0.52462 0.01735 0.63139 0.0
H1571 H 0.50816 0.01686 0.5869 0.0
H1572 H 0.51824 0.99098 0.50141 0.0
C1573 C 0.47394 0.99078 0.44703 0.0
C1574 C 0.49082 0.01652 0.49455 0.0
C1575 C 0.46387 0.98861 0.42388 0.0
C1576 C 0.52754 0.01497 0.60552 0.0
C1577 C 0.51809 0.01467 0.58003 0.0
C1578 C 0.51074 -0.00172 0.49949 0.0
C1579 C 0.47957 0.00313 0.45003 0.0
C1580 C 0.49047 0.00536 0.47399 0.0
C1581 C 0.52129 0.01088 0.54656 0.0
C1582 C 0.51098 0.00932 0.5205 0.0
H1583 H 0.46158 0.01908 0.39056 0.0
H1584 H 0.47907 0.02287 0.43118 0.0
H1585 H 0.50066 0.98771 0.46066 0.0
H1586 H 0.55359 0.00571 0.55768 0.0
H1587 H 0.53701 0.00513 0.51307 0.0
C1588 C 0.26036 0.20887 0.67305 0.0
C1589 C 0.24949 0.20723 0.65186 0.0
C1590 C 0.25938 0.21599 0.70338 0.0
C1591 C 0.23882 0.24076 0.74478 0.0
H1592 H 0.25703 0.23049 0.82728 0.0
C1593 C 0.23086 0.26722 0.87208 0.0
C1594 C 0.24219 0.27105 0.8893 0.0
C1595 C 0.23148 0.25834 0.8452 0.0
C1596 C 0.25193 0.23348 0.80436 0.0
H1597 H 0.22898 0.21125 0.64638 0.0
H1598 H 0.22721 0.22349 0.69934 0.0
H1599 H 0.25878 0.21717 0.77575 0.0
H1600 H 0.26301 0.26826 0.89239 0.0
H1601 H 0.26403 0.25265 0.84573 0.0
H1602 H 0.23196 0.25703 0.7733 0.0
C1603 C 0.23658 0.21962 0.69221 0.0
C1604 C 0.25297 0.2259 0.77484 0.0
C1605 C 0.23759 0.2126 0.66187 0.0
C1606 C 0.25407 0.26538 0.88 0.0
C1607 C 0.25467 0.25646 0.85321 0.0
C1608 C 0.23772 0.24827 0.77427 0.0
C1609 C 0.24749 0.22152 0.71316 0.0
C1610 C 0.24643 0.22947 0.7447 0.0
C1611 C 0.24343 0.25307 0.83507 0.0
C1612 C 0.24427 0.24472 0.80434 0.0
H1613 H 0.26967 0.20486 0.66582 0.0
H1614 H 0.268 0.2174 0.71875 0.0
H1615 H 0.23387 0.24394 0.72183 0.0
H1616 H 0.22154 0.27124 0.87903 0.0
H1617 H 0.22263 0.25573 0.83199 0.0
C1618 C 0.03682 0.01016 0.92069 0.0
C1619 C 0.03315 0.01198 0.88638 0.0
C1620 C 0.02761 0.01066 0.94677 0.0
C1621 C 0.99292 0.00578 0.96147 0.0
H1622 H 0.00053 0.0208 0.05021 0.0
C1623 C 0.9558 0.00605 0.07222 0.0
C1624 C 0.96063 0.00287 0.1048 0.0
C1625 C 0.96426 0.00825 0.04493 0.0
C1626 C -0.0017 0.01649 0.02563 0.0
H1627 H 0.01702 0.01631 0.85269 0.0
H1628 H 0.00088 0.01716 0.89838 0.0
H1629 H 0.01602 0.02327 0.00351 0.0
H1630 H 0.9781 -0.00073 0.13415 0.0
H1631 H 0.99286 0.00308 0.08653 0.0
H1632 H 0.97531 -0.0012 0.98374 0.0
C1633 C 0.01088 0.01517 0.90496 0.0
C1634 C 0.00716 0.01792 -0.00111 0.0
C1635 C 0.02011 0.01469 0.87883 0.0
C1636 C 0.97409 0.0019 0.10948 0.0
C1637 C 0.98254 0.0041 0.08222 0.0
C1638 C 0.98407 0.00434 0.98822 0.0
C1639 C 0.01451 0.01299 0.93915 0.0
C1640 C 0.00464 0.01244 0.96667 0.0
C1641 C 0.97772 0.00733 0.04967 0.0
C1642 C 0.98675 0.00952 0.02072 0.0
H1643 H 0.04674 0.00782 0.92733 0.0
H1644 H 0.03068 0.00874 0.97278 0.0
H1645 H 0.99079 0.00129 0.93707 0.0
H1646 H 0.94548 0.00706 0.06794 0.0
H1647 H 0.96026 0.01086 0.02024 0.0
C1648 C 0.75719 0.7123 0.83109 0.0
C1649 C 0.74516 0.7079 0.84328 0.0
C1650 C 0.75787 0.72048 0.80278 0.0
C1651 C 0.73984 0.7315 0.72702 0.0
H1652 H 0.76309 0.76096 0.73244 0.0
C1653 C 0.74002 0.77299 0.62763 0.0
C1654 C 0.75209 0.77821 0.61832 0.0
C1655 C 0.73913 0.76388 0.65393 0.0
C1656 C 0.75669 0.75268 0.73032 0.0
H1657 H 0.72439 0.70852 0.83506 0.0
H1658 H 0.72558 0.72286 0.78531 0.0
H1659 H 0.76145 0.74612 0.78066 0.0
H1660 H 0.77274 0.77765 0.62834 0.0
H1661 H 0.77121 0.76166 0.67415 0.0
H1662 H 0.73509 0.7381 0.6766 0.0
C1663 C 0.73449 0.71986 0.79764 0.0
C1664 C 0.75573 0.7442 0.75797 0.0
C1665 C 0.73381 0.71167 0.82608 0.0
C1666 C 0.76328 0.77393 0.63532 0.0
C1667 C 0.7624 0.7648 0.66156 0.0
C1668 C 0.74082 0.73999 0.69927 0.0
C1669 C 0.74653 0.72444 0.78592 0.0
C1670 C 0.74733 0.7335 0.75659 0.0
C1671 C 0.75029 0.75979 0.67143 0.0
C1672 C 0.74929 0.75066 0.70061 0.0
H1673 H 0.76614 0.70933 0.84331 0.0
H1674 H 0.7673 0.72364 0.79393 0.0
H1675 H 0.73339 0.72325 0.72512 0.0
H1676 H 0.7312 0.77624 0.6153 0.0
H1677 H 0.72964 0.76033 0.66122 0.0
C1678 C 0.74176 0.27717 0.33948 0.0
C1679 C 0.75338 0.28313 0.34979 0.0
C1680 C 0.74165 0.26842 0.31234 0.0
C1681 C 0.75898 0.25937 0.23467 0.0
H1682 H 0.74002 0.22712 0.24406 0.0
C1683 C 0.75954 0.21947 0.13095 0.0
C1684 C 0.74788 0.21283 0.12496 0.0
C1685 C 0.76057 0.22815 0.15819 0.0
C1686 C 0.74522 0.23615 0.24086 0.0
H1687 H 0.77401 0.28451 0.33965 0.0
H1688 H 0.77373 0.26933 0.29163 0.0
H1689 H 0.74136 0.24194 0.29243 0.0
H1690 H 0.72803 0.21037 0.14184 0.0
H1691 H 0.72974 0.22571 0.18905 0.0
H1692 H 0.76264 0.25371 0.18289 0.0
C1693 C 0.76474 0.27151 0.30469 0.0
C1694 C 0.74603 0.2446 0.2686 0.0
C1695 C 0.76488 0.2802 0.3321 0.0
C1696 C 0.73719 0.21524 0.14621 0.0
C1697 C 0.73819 0.22398 0.17329 0.0
C1698 C 0.7581 0.25095 0.20679 0.0
C1699 C 0.75312 0.26551 0.29468 0.0
C1700 C 0.75283 0.25632 0.2657 0.0
C1701 C 0.74994 0.23042 0.17984 0.0
C1702 C 0.75112 0.23929 0.20952 0.0
H1703 H 0.73268 0.27942 0.352 0.0
H1704 H 0.73252 0.26411 0.30476 0.0
H1705 H 0.76418 0.26841 0.23169 0.0
H1706 H 0.76798 0.21766 0.11518 0.0
H1707 H 0.7698 0.23283 0.16279 0.0
C1708 C 0.76947 0.20461 0.81132 0.0
C1709 C 0.75832 0.19843 0.8239 0.0
C1710 C 0.76844 0.21437 0.78668 0.0
C1711 C 0.74581 0.22915 0.72398 0.0
H1712 H 0.76626 0.26008 0.74005 0.0
C1713 C 0.73482 0.27759 0.65697 0.0
C1714 C 0.74549 0.28427 0.64323 0.0
C1715 C 0.7367 0.26698 0.67857 0.0
C1716 C 0.76057 0.25146 0.73506 0.0
H1717 H 0.73737 0.19747 0.82009 0.0
H1718 H 0.73557 0.21446 0.77734 0.0
H1719 H 0.7693 0.24118 0.7766 0.0
H1720 H 0.7665 0.28505 0.64155 0.0
H1721 H 0.76974 0.26667 0.67963 0.0
H1722 H 0.73693 0.23955 0.6828 0.0
C1723 C 0.74514 0.21164 0.78597 0.0
C1724 C 0.76235 0.24062 0.75586 0.0
C1725 C 0.74617 0.20188 0.81048 0.0
C1726 C 0.75806 0.28028 0.6522 0.0
C1727 C 0.75994 0.26972 0.6739 0.0
C1728 C 0.74399 0.24002 0.70329 0.0
C1729 C 0.75623 0.21817 0.77426 0.0
C1730 C 0.75493 0.22936 0.7507 0.0
C1731 C 0.74928 0.26286 0.68696 0.0
C1732 C 0.75129 0.25131 0.70876 0.0
H1733 H 0.77897 0.20205 0.82097 0.0
H1734 H 0.77719 0.21906 0.77772 0.0
H1735 H 0.74007 0.22056 0.71903 0.0
H1736 H 0.72501 0.28053 0.6509 0.0
H1737 H 0.7283 0.26199 0.68873 0.0
C1738 C 0.74946 0.72788 0.12874 0.0
C1739 C 0.74634 0.71522 0.13913 0.0
C1740 C 0.7468 0.73841 0.14996 0.0
C1741 C 0.72639 0.74839 0.22282 0.0
H1742 H 0.75216 0.77542 0.23351 0.0
C1743 C 0.72625 0.78541 0.33322 0.0
C1744 C 0.73097 0.79795 0.32681 0.0
C1745 C 0.72636 0.77606 0.30745 0.0
C1746 C 0.74474 0.76809 0.23032 0.0
H1747 H 0.7382 0.70367 0.1802 0.0
H1748 H 0.73362 0.72208 0.21744 0.0
H1749 H 0.75637 0.75743 0.1949 0.0
H1750 H 0.73854 0.81081 0.28779 0.0
H1751 H 0.73863 0.79448 0.2426 0.0
H1752 H 0.71486 0.75897 0.25877 0.0
C1753 C 0.73793 0.72386 0.1926 0.0
C1754 C 0.74719 0.75775 0.20827 0.0
C1755 C 0.7406 0.71332 0.17136 0.0
C1756 C 0.73503 0.80117 0.29356 0.0
C1757 C 0.73511 0.79181 0.26776 0.0
C1758 C 0.72394 0.75874 0.2449 0.0
C1759 C 0.74095 0.73652 0.18204 0.0
C1760 C 0.7381 0.74773 0.20454 0.0
C1761 C 0.73117 0.77905 0.27474 0.0
C1762 C 0.73315 0.76864 0.24913 0.0
H1763 H 0.75366 0.72969 0.10378 0.0
H1764 H 0.74909 0.74806 0.14094 0.0
H1765 H 0.7191 0.74091 0.22003 0.0
H1766 H 0.72322 0.78259 0.35869 0.0
H1767 H 0.72337 0.76629 0.31375 0.0
C1768 C 0.5269 0.50386 0.0868 0.0
C1769 C 0.53282 0.49197 0.09467 0.0
C1770 C 0.51636 0.50438 0.06454 0.0
C1771 C 0.49006 0.48439 0.02934 0.0
H1772 H 0.48752 0.51212 0.9627 0.0
C1773 C 0.45204 0.48553 0.92071 0.0
C1774 C 0.44673 0.49761 0.91178 0.0
C1775 C 0.46189 0.48471 0.94507 0.0
C1776 C 0.48799 0.50442 0.98151 0.0
H1777 H 0.53246 0.47131 0.08485 0.0
H1778 H 0.514 0.47221 0.04567 0.0
H1779 H 0.50649 0.51076 -0.00046 0.0
H1780 H 0.44705 0.51818 0.92279 0.0
H1781 H 0.46426 0.51674 0.96551 0.0
H1782 H 0.47156 0.47802 0.01108 0.0
C1783 C 0.51746 0.48111 0.05715 0.0
C1784 C 0.49888 0.50362 0.00254 0.0
C1785 C 0.52803 0.4806 0.07947 0.0
C1786 C 0.45109 0.50877 0.92879 0.0
C1787 C 0.46095 0.50795 0.95316 0.0
C1788 C 0.47915 0.48518 0.00826 0.0
C1789 C 0.51147 0.49301 0.04962 0.0
C1790 C 0.50003 0.49361 0.02672 0.0
C1791 C 0.46665 0.49594 0.96099 0.0
C1792 C 0.478 0.49523 0.98417 0.0
H1793 H 0.53015 0.51277 0.09868 0.0
H1794 H 0.51183 0.51366 0.05972 0.0
H1795 H 0.49059 0.47667 0.04809 0.0
H1796 H 0.44902 0.47677 0.90769 0.0
H1797 H 0.46618 0.47534 0.9503 0.0
C1798 C 0.02919 0.48567 0.39371 0.0
C1799 C 0.03173 0.49608 0.37153 0.0
C1800 C 0.02045 0.48709 0.4207 0.0
C1801 C 0.99355 0.50737 0.45241 0.0
H1802 H 0.00349 0.49318 0.5405 0.0
C1803 C 0.96484 0.51733 0.57704 0.0
C1804 C 0.96281 0.5066 0.5985 0.0
C1805 C 0.97324 0.51642 0.54906 0.0
C1806 C 0.00053 0.4971 0.516 0.0
H1807 H 0.02706 0.51611 0.36013 0.0
H1808 H 0.01179 0.51857 0.40725 0.0
H1809 H 0.01788 0.49061 0.4916 0.0
H1810 H 0.96768 0.48639 0.60682 0.0
H1811 H 0.98233 0.48485 0.55833 0.0
H1812 H 0.97617 0.51385 0.47696 0.0
C1813 C 0.01642 0.50927 0.40349 0.0
C1814 C 0.00875 0.4956 0.48798 0.0
C1815 C 0.02515 0.50785 0.37648 0.0
C1816 C 0.96928 0.49493 0.59129 0.0
C1817 C 0.97766 0.49404 0.56345 0.0
C1818 C 0.98531 0.50887 0.48049 0.0
C1819 C 0.01409 0.49895 0.42612 0.0
C1820 C 0.00532 0.50065 0.45583 0.0
C1821 C 0.97976 0.50477 0.54207 0.0
C1822 C 0.98868 0.50367 0.51252 0.0
H1823 H 0.03398 0.47643 0.39022 0.0
H1824 H 0.01867 0.47889 0.43735 0.0
H1825 H 0.99059 0.51126 0.42787 0.0
H1826 H 0.96007 0.52647 0.5821 0.0
H1827 H 0.97477 0.52489 0.53318 0.0
C1828 C 0.04844 0.50176 0.045 0.0
C1829 C 0.04558 0.50653 0.07784 0.0
C1830 C 0.03853 0.49963 0.02128 0.0
C1831 C 0.00374 0.49255 0.01844 0.0
H1832 H 0.00658 0.5013 0.92225 0.0
C1833 C 0.96035 0.49075 0.92574 0.0
C1834 C 0.9626 0.48691 0.89176 0.0
C1835 C 0.97065 0.4922 0.94855 0.0
C1836 C 0.00572 0.49861 0.94894 0.0
H1837 H 0.03013 0.51314 0.1112 0.0
H1838 H 0.0129 0.50964 0.06962 0.0
H1839 H 0.02431 0.50661 0.96111 0.0
H1840 H 0.97739 0.48112 0.85542 0.0
H1841 H 0.99535 0.48329 0.89555 0.0
H1842 H 0.98518 0.48452 0.00639 0.0
C1843 C 0.02279 0.50742 0.06236 0.0
C1844 C 0.01586 0.5017 0.97119 0.0
C1845 C 0.03268 0.5096 0.08599 0.0
C1846 C 0.97532 0.48398 0.88151 0.0
C1847 C 0.98563 0.48541 0.90436 0.0
C1848 C 0.99363 0.48941 0.99621 0.0
C1849 C 0.02557 0.50215 0.03005 0.0
C1850 C 0.01492 0.4988 0.00621 0.0
C1851 C 0.98344 0.4898 0.93791 0.0
C1852 C 0.99447 0.49249 0.96124 0.0
H1853 H 0.05831 0.49938 0.03796 0.0
H1854 H 0.04096 0.49554 0.99658 0.0
H1855 H 0.00285 0.48996 0.04521 0.0
H1856 H 0.95064 0.49296 0.93447 0.0
H1857 H 0.96863 0.49567 0.97415 0.0
C1858 C 0.47144 0.49394 0.61775 0.0
C1859 C 0.46233 0.48382 0.6172 0.0
C1860 C 0.48029 0.49541 0.59107 0.0
C1861 C 0.48396 0.48782 0.50002 0.0
H1862 H 0.51935 0.49923 0.51436 0.0
C1863 C 0.52079 0.49242 0.39005 0.0
C1864 C 0.52889 0.50337 0.39003 0.0
C1865 C 0.51284 0.48977 0.41802 0.0
C1866 C 0.50945 0.49617 0.50999 0.0
H1867 H 0.45574 0.46695 0.58913 0.0
H1868 H 0.4713 0.46948 0.54246 0.0
H1869 H 0.50568 0.49426 0.56362 0.0
H1870 H 0.53485 0.52023 0.41912 0.0
H1871 H 0.5209 0.51559 0.46814 0.0
H1872 H 0.48769 0.48979 0.44643 0.0
C1873 C 0.47143 0.4764 0.5633 0.0
C1874 C 0.50164 0.49329 0.53816 0.0
C1875 C 0.46255 0.47493 0.59 0.0
C1876 C 0.52879 0.51167 0.41853 0.0
C1877 C 0.52084 0.50899 0.44659 0.0
C1878 C 0.49177 0.49068 0.47188 0.0
C1879 C 0.48022 0.4868 0.56325 0.0
C1880 C 0.48879 0.48914 0.53346 0.0
C1881 C 0.51283 0.49797 0.44665 0.0
C1882 C 0.50457 0.49494 0.47658 0.0
H1883 H 0.47137 0.50109 0.63804 0.0
H1884 H 0.48681 0.50363 0.59157 0.0
H1885 H 0.47402 0.48489 0.49556 0.0
H1886 H 0.52085 0.48567 0.36885 0.0
H1887 H 0.50692 0.4811 0.41755 0.0
C1888 C 0.11906 0.43045 0.16584 0.0
C1889 C 0.12098 0.43527 0.19902 0.0
C1890 C 0.12631 0.41996 0.15403 0.0
C1891 C 0.15698 0.40256 0.17146 0.0
H1892 H 0.1434 0.37885 0.10328 0.0
C1893 C 0.18729 0.36081 0.11522 0.0
C1894 C 0.18826 0.36127 0.07938 0.0
C1895 C 0.178 0.36822 0.13223 0.0
C1896 C 0.14727 0.3854 0.12239 0.0
H1897 H 0.13153 0.4327 0.24642 0.0
H1898 H 0.14389 0.41402 0.22636 0.0
H1899 H 0.12896 0.39462 0.13 0.0
H1900 H 0.18 0.36933 0.03307 0.0
H1901 H 0.16353 0.38215 0.06286 0.0
H1902 H 0.17526 0.3932 0.1639 0.0
C1903 C 0.13709 0.41855 0.20899 0.0
C1904 C 0.13906 0.39448 0.13757 0.0
C1905 C 0.12998 0.4292 0.2206 0.0
C1906 C 0.17945 0.36886 0.06073 0.0
C1907 C 0.17001 0.37611 0.07772 0.0
C1908 C 0.16512 0.39334 0.1567 0.0
C1909 C 0.13551 0.41393 0.17534 0.0
C1910 C 0.14387 0.40337 0.16177 0.0
C1911 C 0.16939 0.37605 0.11363 0.0
C1912 C 0.1604 0.38485 0.13159 0.0
H1913 H 0.11228 0.43508 0.14858 0.0
H1914 H 0.12498 0.41688 0.12778 0.0
H1915 H 0.16112 0.40936 0.18949 0.0
H1916 H 0.19405 0.3551 0.13015 0.0
H1917 H 0.17766 0.36801 0.15994 0.0
C1918 C 0.81761 0.85967 0.39652 0.0
C1919 C 0.81449 0.86259 0.43066 0.0
C1920 C 0.82747 0.8664 0.37977 0.0
C1921 C 0.85621 0.88676 0.39199 0.0
H1922 H 0.84524 0.90355 0.30805 0.0
C1923 C 0.88327 0.93049 0.33544 0.0
C1924 C 0.8831 0.93248 0.29992 0.0
C1925 C 0.87633 0.92028 0.34997 0.0
C1926 C 0.84863 0.89872 0.33097 0.0
H1927 H 0.81958 0.87434 0.47458 0.0
H1928 H 0.837 0.88604 0.44531 0.0
H1929 H 0.83079 0.88835 0.3364 0.0
H1930 H 0.87606 0.92514 0.25149 0.0
H1931 H 0.86427 0.90695 0.27662 0.0
H1932 H 0.87407 0.89706 0.38662 0.0
C1933 C 0.83177 0.87857 0.43157 0.0
C1934 C 0.8403 0.89005 0.34729 0.0
C1935 C 0.82178 0.87196 0.44821 0.0
C1936 C 0.87624 0.92383 0.279 0.0
C1937 C 0.86944 0.91348 0.29347 0.0
C1938 C 0.86464 0.89529 0.37539 0.0
C1939 C 0.8345 0.87605 0.39698 0.0
C1940 C 0.84392 0.88418 0.37824 0.0
C1941 C 0.86918 0.91173 0.32922 0.0
C1942 C 0.86085 0.90159 0.34503 0.0
H1943 H 0.81206 0.85256 0.38233 0.0
H1944 H 0.82944 0.86425 0.35313 0.0
H1945 H 0.85925 0.88224 0.4157 0.0
H1946 H 0.88835 0.93715 0.35215 0.0
H1947 H 0.87618 0.91943 0.37758 0.0
C1948 C 0.31656 0.63309 0.58409 0.0
C1949 C 0.30848 0.62799 0.55847 0.0
C1950 C 0.32697 0.62586 0.59661 0.0
C1951 C 0.34827 0.59825 0.57692 0.0
H1952 H 0.35007 0.59396 0.67542 0.0
C1953 C 0.37355 0.55496 0.6397 0.0
C1954 C 0.37983 0.5566 0.67129 0.0
C1955 C 0.36671 0.56516 0.62486 0.0
C1956 C 0.34991 0.59525 0.64792 0.0
H1957 H 0.30518 0.61159 0.52497 0.0
H1958 H 0.32337 0.59894 0.54686 0.0
H1959 H 0.33472 0.6093 0.65095 0.0
H1960 H 0.38428 0.57033 0.71157 0.0
H1961 H 0.3724 0.58827 0.68544 0.0
H1962 H 0.36333 0.58408 0.57377 0.0
C1963 C 0.32168 0.60853 0.55722 0.0
C1964 C 0.34109 0.60402 0.63391 0.0
C1965 C 0.3112 0.61569 0.54495 0.0
C1966 C 0.37939 0.56876 0.68738 0.0
C1967 C 0.37259 0.57901 0.67243 0.0
C1968 C 0.35716 0.58955 0.59091 0.0
C1969 C 0.32956 0.61347 0.58346 0.0
C1970 C 0.33997 0.60537 0.59827 0.0
C1971 C 0.36604 0.57727 0.64119 0.0
C1972 C 0.35785 0.58771 0.62654 0.0
H1973 H 0.31462 0.64252 0.59509 0.0
H1974 H 0.33294 0.62992 0.61674 0.0
H1975 H 0.34774 0.59926 0.54935 0.0
H1976 H 0.37353 0.54565 0.62695 0.0
H1977 H 0.36157 0.56339 0.60116 0.0
C1978 C 0.67618 0.13365 0.9231 0.0
C1979 C 0.68266 0.12948 0.95277 0.0
C1980 C 0.66551 0.1268 0.91065 0.0
C1981 C 0.64204 0.10055 0.9317 0.0
H1982 H 0.64408 0.09365 0.83427 0.0
C1983 C 0.62053 0.05518 0.86822 0.0
C1984 C 0.6147 0.05642 0.83587 0.0
C1985 C 0.6266 0.06577 0.88358 0.0
C1986 C 0.64321 0.09566 0.86139 0.0
H1987 H 0.68245 0.11538 0.99395 0.0
H1988 H 0.66417 0.10316 0.97159 0.0
H1989 H 0.65853 0.10953 0.85979 0.0
H1990 H 0.61023 0.06988 0.79488 0.0
H1991 H 0.62105 0.08834 0.82154 0.0
H1992 H 0.62707 0.08618 0.9333 0.0
C1993 C 0.66721 0.11181 0.9581 0.0
C1994 C 0.65147 0.10479 0.87605 0.0
C1995 C 0.67782 0.11871 0.97068 0.0
C1996 C 0.61485 0.06855 0.81952 0.0
C1997 C 0.62098 0.07913 0.83483 0.0
C1998 C 0.63381 0.09134 0.91703 0.0
C1999 C 0.66114 0.11558 0.92745 0.0
C2000 C 0.65118 0.10715 0.9115 0.0
C2001 C 0.62701 0.0778 0.86687 0.0
C2002 C 0.63452 0.08862 0.88185 0.0
H2003 H 0.67968 0.14185 0.90853 0.0
H2004 H 0.66092 0.13008 0.88727 0.0
H2005 H 0.64142 0.1023 0.95898 0.0
H2006 H 0.62076 0.04593 0.8813 0.0
H2007 H 0.63136 0.0644 0.90802 0.0
C2008 C 0.13877 0.55437 0.30499 0.0
C2009 C 0.12586 0.55194 0.31436 0.0
C2010 C 0.14594 0.56394 0.32171 0.0
C2011 C 0.14751 0.58207 0.40252 0.0
H2012 H 0.1708 0.60431 0.35141 0.0
C2013 C 0.1844 0.62842 0.42222 0.0
C2014 C 0.19167 0.62402 0.45033 0.0
C2015 C 0.17499 0.62052 0.40738 0.0
C2016 C 0.16423 0.59828 0.36605 0.0
H2017 H 0.11019 0.55796 0.3478 0.0
H2018 H 0.12275 0.57464 0.37709 0.0
H2019 H 0.15706 0.58899 0.32094 0.0
H2020 H 0.19438 0.60818 0.48599 0.0
H2021 H 0.17793 0.59429 0.45994 0.0
H2022 H 0.15472 0.5914 0.44767 0.0
C2023 C 0.12737 0.56899 0.35718 0.0
C2024 C 0.15648 0.5894 0.3486 0.0
C2025 C 0.1202 0.55944 0.34041 0.0
C2026 C 0.18887 0.61183 0.46445 0.0
C2027 C 0.17945 0.60389 0.44953 0.0
C2028 C 0.15531 0.59094 0.42001 0.0
C2029 C 0.14034 0.57128 0.34816 0.0
C2030 C 0.14812 0.58112 0.36665 0.0
C2031 C 0.17265 0.60804 0.42031 0.0
C2032 C 0.16381 0.59909 0.40196 0.0
H2033 H 0.14346 0.54865 0.28535 0.0
H2034 H 0.15597 0.56537 0.31449 0.0
H2035 H 0.14123 0.57574 0.41715 0.0
H2036 H 0.18619 0.63789 0.41124 0.0
H2037 H 0.16971 0.62409 0.38536 0.0
C2038 C 0.63906 0.95167 0.6738 0.0
C2039 C 0.63006 0.94722 0.6981 0.0
C2040 C 0.64766 0.94309 0.65823 0.0
C2041 C 0.66314 0.91131 0.6685 0.0
H2042 H 0.66914 0.91446 0.57083 0.0
C2043 C 0.69425 0.87465 0.59311 0.0
C2044 C 0.70282 0.87978 0.56866 0.0
C2045 C 0.68502 0.88254 0.60877 0.0
C2046 C 0.66767 0.91354 0.59817 0.0
H2047 H 0.62313 0.93031 0.72545 0.0
H2048 H 0.63815 0.91524 0.69793 0.0
H2049 H 0.65369 0.92882 0.59878 0.0
H2050 H 0.70851 0.89722 0.54166 0.0
H2051 H 0.69243 0.91104 0.56911 0.0
H2052 H 0.67721 0.8961 0.66794 0.0
C2053 C 0.63857 0.92541 0.69114 0.0
C2054 C 0.65881 0.92176 0.61417 0.0
C2055 C 0.62991 0.934 0.70667 0.0
C2056 C 0.70193 0.89296 0.56008 0.0
C2057 C 0.69271 0.90086 0.57578 0.0
C2058 C 0.67202 0.9031 0.6525 0.0
C2059 C 0.64747 0.92986 0.66659 0.0
C2060 C 0.65653 0.9208 0.64953 0.0
C2061 C 0.68416 0.89575 0.60033 0.0
C2062 C 0.67445 0.90419 0.6172 0.0
H2063 H 0.63931 0.96177 0.6663 0.0
H2064 H 0.65451 0.94684 0.6397 0.0
H2065 H 0.66167 0.91044 0.69585 0.0
H2066 H 0.69457 0.86447 0.59983 0.0
H2067 H 0.67844 0.87827 0.62718 0.0
C2068 C 0.34403 0.45002 0.78665 0.0
C2069 C 0.35411 0.4465 0.76433 0.0
C2070 C 0.33455 0.44105 0.79584 0.0
C2071 C 0.33016 0.40613 0.80529 0.0
H2072 H 0.29443 0.41572 0.82266 0.0
C2073 C 0.29363 0.37033 0.8647 0.0
C2074 C 0.28626 0.37535 0.89189 0.0
C2075 C 0.30081 0.37859 0.84367 0.0
C2076 C 0.30439 0.41291 0.81798 0.0
H2077 H 0.36175 0.43102 0.73273 0.0
H2078 H 0.34515 0.4153 0.74891 0.0
H2079 H 0.30889 0.43107 0.79433 0.0
H2080 H 0.28029 0.39295 0.91766 0.0
H2081 H 0.29299 0.40735 0.88138 0.0
H2082 H 0.32578 0.38813 0.82977 0.0
C2083 C 0.34472 0.42496 0.75963 0.0
C2084 C 0.31265 0.42169 0.80175 0.0
C2085 C 0.35422 0.43395 0.75041 0.0
C2086 C 0.286 0.3888 0.89718 0.0
C2087 C 0.29314 0.39705 0.87611 0.0
C2088 C 0.3219 0.39736 0.82149 0.0
C2089 C 0.33492 0.42835 0.78293 0.0
C2090 C 0.3257 0.4185 0.79594 0.0
C2091 C 0.30071 0.39203 0.84933 0.0
C2092 C 0.30901 0.40077 0.82869 0.0
H2093 H 0.34377 0.45954 0.79824 0.0
H2094 H 0.32725 0.44391 0.81427 0.0
H2095 H 0.3402 0.40344 0.8016 0.0
H2096 H 0.29408 0.35999 0.86015 0.0
H2097 H 0.30649 0.37446 0.82309 0.0
C2098 C 0.79328 0.10241 0.08013 0.0
C2099 C 0.79738 0.11428 0.06631 0.0
C2100 C 0.80177 0.09488 0.09962 0.0
C2101 C 0.83628 0.089 0.11511 0.0
H2102 H 0.82468 0.07463 0.20159 0.0
C2103 C 0.8717 0.06224 0.20292 0.0
C2104 C 0.86726 0.05057 0.21719 0.0
C2105 C 0.86302 0.07083 0.18768 0.0
C2106 C 0.82803 0.07848 0.17738 0.0
H2107 H 0.81363 0.12744 0.06118 0.0
H2108 H 0.8285 0.11427 0.09509 0.0
H2109 H 0.80977 0.08755 0.16704 0.0
H2110 H 0.85028 0.03894 0.22798 0.0
H2111 H 0.83509 0.05384 0.20083 0.0
H2112 H 0.8544 0.07975 0.12481 0.0
C2113 C 0.81872 0.11079 0.09094 0.0
C2114 C 0.81949 0.08586 0.15762 0.0
C2115 C 0.8102 0.11836 0.07173 0.0
C2116 C 0.85392 0.04793 0.21741 0.0
C2117 C 0.84523 0.05648 0.20187 0.0
C2118 C 0.84477 0.08155 0.1347 0.0
C2119 C 0.81456 0.09904 0.10532 0.0
C2120 C 0.82355 0.09118 0.12629 0.0
C2121 C 0.84973 0.06787 0.18606 0.0
C2122 C 0.84076 0.0762 0.16607 0.0
H2123 H 0.78341 0.09909 0.0766 0.0
H2124 H 0.79836 0.08579 0.11014 0.0
H2125 H 0.8396 0.09284 0.09084 0.0
H2126 H 0.88194 0.06456 0.20284 0.0
H2127 H 0.86676 0.07968 0.1765 0.0
C2128 C 0.81956 0.62699 0.95155 0.0
C2129 C 0.80829 0.62203 0.96681 0.0
C2130 C 0.82893 0.61863 0.93837 0.0
C2131 C 0.83957 0.58423 0.93576 0.0
H2132 H 0.8522 0.59389 0.84578 0.0
C2133 C 0.86351 0.54788 0.84333 0.0
C2134 C 0.87467 0.55203 0.8259 0.0
C2135 C 0.85622 0.55661 0.86262 0.0
C2136 C 0.84889 0.59113 0.87106 0.0
H2137 H 0.79819 0.60451 0.98163 0.0
H2138 H 0.81445 0.58987 0.95816 0.0
H2139 H 0.83843 0.6088 0.87738 0.0
H2140 H 0.88687 0.56859 0.81463 0.0
H2141 H 0.87409 0.58388 0.84835 0.0
H2142 H 0.8498 0.56638 0.92881 0.0
C2143 C 0.81619 0.6002 0.95681 0.0
C2144 C 0.84104 0.59969 0.88927 0.0
C2145 C 0.80686 0.60857 0.97025 0.0
C2146 C 0.87834 0.56511 0.82794 0.0
C2147 C 0.871 0.57386 0.84705 0.0
C2148 C 0.84738 0.57563 0.91742 0.0
C2149 C 0.82716 0.60514 0.9399 0.0
C2150 C 0.83621 0.59631 0.92174 0.0
C2151 C 0.85989 0.56968 0.8647 0.0
C2152 C 0.85204 0.57897 0.88478 0.0
H2153 H 0.82096 0.63734 0.94901 0.0
H2154 H 0.83742 0.62275 0.92624 0.0
H2155 H 0.83615 0.5814 0.96088 0.0
H2156 H 0.86054 0.53782 0.84256 0.0
H2157 H 0.84762 0.55315 0.87565 0.0
C2158 C 0.18521 0.12431 0.57692 0.0
C2159 C 0.19098 0.12144 0.54522 0.0
C2160 C 0.17753 0.11515 0.59361 0.0
C2161 C 0.15891 0.08505 0.57926 0.0
H2162 H 0.16172 0.08184 0.6779 0.0
C2163 C 0.12313 0.0543 0.6576 0.0
C2164 C 0.12805 0.04696 0.685 0.0
C2165 C 0.13094 0.06329 0.64071 0.0
C2166 C 0.1609 0.08252 0.65032 0.0
H2167 H 0.19302 0.10673 0.50597 0.0
H2168 H 0.17986 0.09061 0.53551 0.0
H2169 H 0.1752 0.09748 0.64776 0.0
H2170 H 0.14506 0.04342 0.71627 0.0
H2171 H 0.15881 0.05889 0.68613 0.0
H2172 H 0.14487 0.06985 0.5817 0.0
C2173 C 0.18114 0.10002 0.54725 0.0
C2174 C 0.16851 0.09161 0.63308 0.0
C2175 C 0.18879 0.10921 0.53047 0.0
C2176 C 0.14099 0.04884 0.69509 0.0
C2177 C 0.14883 0.05781 0.67806 0.0
C2178 C 0.15135 0.07592 0.59648 0.0
C2179 C 0.17548 0.10286 0.57912 0.0
C2180 C 0.16755 0.09303 0.59736 0.0
C2181 C 0.1439 0.06511 0.6506 0.0
C2182 C 0.1522 0.0746 0.63225 0.0
H2183 H 0.18684 0.13355 0.58929 0.0
H2184 H 0.17317 0.11772 0.61789 0.0
H2185 H 0.15785 0.08596 0.55179 0.0
H2186 H 0.11327 0.05297 0.64877 0.0
H2187 H 0.12677 0.06887 0.61998 0.0
C2188 C 0.68469 0.37272 0.40574 0.0
C2189 C 0.68723 0.37197 0.4411 0.0
C2190 C 0.67497 0.3808 0.39324 0.0
C2191 C 0.65842 0.41074 0.4114 0.0
H2192 H 0.63305 0.39882 0.34525 0.0
C2193 C 0.61975 0.4452 0.35739 0.0
C2194 C 0.61645 0.44397 0.3226 0.0
C2195 C 0.62736 0.43586 0.37353 0.0
C2196 C 0.64016 0.40235 0.36336 0.0
H2197 H 0.68126 0.37905 0.49101 0.0
H2198 H 0.66457 0.39358 0.46881 0.0
H2199 H 0.64822 0.38341 0.37052 0.0
H2200 H 0.61848 0.43176 0.27772 0.0
H2201 H 0.63235 0.41586 0.30533 0.0
H2202 H 0.6509 0.42974 0.40331 0.0
C2203 C 0.67013 0.38778 0.451 0.0
C2204 C 0.64877 0.3935 0.37797 0.0
C2205 C 0.67974 0.37952 0.46362 0.0
C2206 C 0.62096 0.43313 0.3044 0.0
C2207 C 0.62876 0.42388 0.32044 0.0
C2208 C 0.64996 0.41963 0.39642 0.0
C2209 C 0.66769 0.38849 0.4157 0.0
C2210 C 0.65801 0.39765 0.40195 0.0
C2211 C 0.63209 0.42515 0.35521 0.0
C2212 C 0.64076 0.41557 0.37204 0.0
H2213 H 0.69043 0.36731 0.38748 0.0
H2214 H 0.6734 0.38135 0.36585 0.0
H2215 H 0.66559 0.41418 0.42951 0.0
H2216 H 0.61665 0.4535 0.3722 0.0
H2217 H 0.62954 0.43708 0.40045 0.0
C2218 C 0.37284 0.93477 0.16134 0.0
C2219 C 0.37066 0.9394 0.19469 0.0
C2220 C 0.36418 0.92611 0.14617 0.0
C2221 C 0.33709 0.90362 0.16556 0.0
H2222 H 0.32824 0.90939 0.07025 0.0
C2223 C 0.29213 0.88105 0.10212 0.0
C2224 C 0.29385 0.87533 0.06977 0.0
C2225 C 0.302 0.88839 0.11693 0.0
C2226 C 0.33072 0.90758 0.09677 0.0
H2227 H 0.35786 0.93823 0.23862 0.0
H2228 H 0.34252 0.92349 0.21176 0.0
H2229 H 0.34471 0.92284 0.09739 0.0
H2230 H 0.30732 0.87292 0.02759 0.0
H2231 H 0.32446 0.88602 0.05326 0.0
H2232 H 0.32281 0.88857 0.16503 0.0
C2233 C 0.35104 0.92639 0.19748 0.0
C2234 C 0.34019 0.91525 0.11232 0.0
C2235 C 0.35975 0.93497 0.21275 0.0
C2236 C 0.3056 0.87734 0.0523 0.0
C2237 C 0.31544 0.88479 0.06704 0.0
C2238 C 0.32755 0.89603 0.15007 0.0
C2239 C 0.35308 0.92196 0.16387 0.0
C2240 C 0.34343 0.91341 0.14697 0.0
C2241 C 0.31376 0.89028 0.09962 0.0
C2242 C 0.32421 0.89801 0.11561 0.0
H2243 H 0.38106 0.93809 0.1465 0.0
H2244 H 0.36615 0.92275 0.12044 0.0
H2245 H 0.33951 0.90179 0.19209 0.0
H2246 H 0.28312 0.87992 0.11598 0.0
H2247 H 0.30037 0.89271 0.14183 0.0
C2248 C 0.80896 0.37234 0.57228 0.0
C2249 C 0.8018 0.37627 0.54347 0.0
C2250 C 0.81819 0.38053 0.58681 0.0
C2251 C 0.83799 0.40972 0.5697 0.0
H2252 H 0.8393 0.41182 0.66878 0.0
C2253 C 0.86495 0.45035 0.64142 0.0
C2254 C 0.87244 0.44678 0.66999 0.0
C2255 C 0.85686 0.44136 0.62549 0.0
C2256 C 0.83915 0.41122 0.64111 0.0
H2257 H 0.79896 0.39183 0.5069 0.0
H2258 H 0.81484 0.40629 0.53285 0.0
H2259 H 0.82422 0.39688 0.6415 0.0
H2260 H 0.87736 0.43091 0.70402 0.0
H2261 H 0.86304 0.41525 0.67638 0.0
H2262 H 0.85278 0.42426 0.56943 0.0
C2263 C 0.81343 0.39678 0.54392 0.0
C2264 C 0.83053 0.40265 0.62545 0.0
C2265 C 0.80421 0.38855 0.52928 0.0
C2266 C 0.87158 0.43402 0.68237 0.0
C2267 C 0.86342 0.42504 0.66651 0.0
C2268 C 0.84657 0.41834 0.58538 0.0
C2269 C 0.82044 0.3929 0.57303 0.0
C2270 C 0.82982 0.40183 0.58956 0.0
C2271 C 0.856 0.42863 0.63788 0.0
C2272 C 0.8472 0.4192 0.62123 0.0
H2273 H 0.80723 0.36302 0.58418 0.0
H2274 H 0.82354 0.37717 0.60894 0.0
H2275 H 0.83782 0.40917 0.54202 0.0
H2276 H 0.86519 0.46016 0.63163 0.0
H2277 H 0.85108 0.44446 0.60383 0.0
C2278 C 0.30483 0.11493 0.44517 0.0
C2279 C 0.29653 0.1226 0.42521 0.0
C2280 C 0.31326 0.10612 0.4296 0.0
C2281 C 0.32848 0.09827 0.3462 0.0
H2282 H 0.33385 0.06469 0.3883 0.0
C2283 C 0.3674 0.0624 0.29874 0.0
C2284 C 0.36443 0.04911 0.29951 0.0
C2285 C 0.35895 0.07145 0.31308 0.0
C2286 C 0.33235 0.07397 0.37599 0.0
H2287 H 0.29032 0.12693 0.37343 0.0
H2288 H 0.30485 0.11147 0.3463 0.0
H2289 H 0.31944 0.08025 0.41541 0.0
H2290 H 0.35011 0.03496 0.31553 0.0
H2291 H 0.33517 0.05077 0.33939 0.0
H2292 H 0.34108 0.09184 0.30624 0.0
C2293 C 0.30512 0.11245 0.37389 0.0
C2294 C 0.32424 0.08297 0.39183 0.0
C2295 C 0.29678 0.1213 0.38943 0.0
C2296 C 0.35265 0.04513 0.31415 0.0
C2297 C 0.34416 0.05418 0.32832 0.0
C2298 C 0.33654 0.08924 0.33027 0.0
C2299 C 0.31346 0.10475 0.39377 0.0
C2300 C 0.32221 0.09523 0.37713 0.0
C2301 C 0.34729 0.06743 0.32836 0.0
C2302 C 0.33858 0.07699 0.34498 0.0
H2303 H 0.30491 0.11583 0.4728 0.0
H2304 H 0.31969 0.10049 0.44564 0.0
H2305 H 0.32725 0.10768 0.33438 0.0
H2306 H 0.37632 0.06582 0.28728 0.0
H2307 H 0.36172 0.08157 0.31291 0.0
C2308 C 0.6178 0.56202 0.16774 0.0
C2309 C 0.62238 0.554 0.19418 0.0
C2310 C 0.62607 0.57083 0.1517 0.0
C2311 C 0.65718 0.58806 0.16153 0.0
H2312 H 0.65565 0.59028 0.06248 0.0
C2313 C 0.68665 0.62577 0.08578 0.0
C2314 C 0.69292 0.62141 0.05599 0.0
C2315 C 0.67762 0.61794 0.10247 0.0
C2316 C 0.65624 0.58972 0.09012 0.0
H2317 H 0.63913 0.54922 0.22524 0.0
H2318 H 0.65364 0.56447 0.19684 0.0
H2319 H 0.64082 0.57591 0.09278 0.0
H2320 H 0.69444 0.6055 0.01999 0.0
H2321 H 0.67879 0.59172 0.04947 0.0
H2322 H 0.67281 0.60163 0.1588 0.0
C2323 C 0.64362 0.56401 0.1887 0.0
C2324 C 0.64765 0.5816 0.10751 0.0
C2325 C 0.63535 0.55519 0.20475 0.0
C2326 C 0.68983 0.60909 0.04302 0.0
C2327 C 0.68078 0.60126 0.05971 0.0
C2328 C 0.66576 0.59619 0.14414 0.0
C2329 C 0.63911 0.57181 0.16172 0.0
C2330 C 0.64805 0.58066 0.1434 0.0
C2331 C 0.67467 0.60556 0.08978 0.0
C2332 C 0.66541 0.59708 0.10824 0.0
H2333 H 0.60791 0.56124 0.15871 0.0
H2334 H 0.62227 0.57682 0.13129 0.0
H2335 H 0.65766 0.58762 0.1892 0.0
H2336 H 0.68894 0.63514 0.09671 0.0
H2337 H 0.67297 0.62158 0.12536 0.0
C2338 C 0.17415 0.87511 0.00794 0.0
C2339 C 0.1781 0.86458 0.98759 0.0
C2340 C 0.16493 0.8839 0.99582 0.0
C2341 C 0.1397 0.88927 0.93045 0.0
H2342 H 0.15229 0.92468 0.93003 0.0
C2343 C 0.11129 0.93263 0.87254 0.0
C2344 C 0.11854 0.94039 0.85002 0.0
C2345 C 0.11739 0.92316 0.89238 0.0
C2346 C 0.14864 0.91484 0.93011 0.0
H2347 H 0.1749 0.85478 0.93907 0.0
H2348 H 0.15862 0.86986 0.91862 0.0
H2349 H 0.16426 0.90806 0.96135 0.0
H2350 H 0.13777 0.94443 0.83059 0.0
H2351 H 0.14848 0.92795 0.86555 0.0
H2352 H 0.12422 0.89605 0.89851 0.0
C2353 C 0.16266 0.87129 0.94393 0.0
C2354 C 0.1554 0.90537 0.9483 0.0
C2355 C 0.17199 0.86261 0.9558 0.0
C2356 C 0.13197 0.93851 0.8476 0.0
C2357 C 0.13809 0.92919 0.86778 0.0
C2358 C 0.13284 0.89879 0.91261 0.0
C2359 C 0.15934 0.88222 0.96335 0.0
C2360 C 0.15114 0.89245 0.94806 0.0
C2361 C 0.13086 0.92145 0.8904 0.0
C2362 C 0.13742 0.9116 0.91168 0.0
H2363 H 0.17846 0.87679 0.03282 0.0
H2364 H 0.16241 0.89219 0.01144 0.0
H2365 H 0.13622 0.87937 0.92995 0.0
H2366 H 0.1009 0.93386 0.87468 0.0
H2367 H 0.11162 0.91733 0.90967 0.0
loop_
_geom_bond_atom_site_label_1
_geom_bond_atom_site_label_2
_geom_bond_distance
_geom_bond_site_symmetry_2
_ccdc_geom_bond_type
Li0 N17 1.990 . S
Li0 O60 1.956 1_554 S
Li0 O61 1.970 . S
Li0 O62 1.961 . S
Li1 N25 1.990 . S
Li1 O60 1.970 . S
Li1 O61 1.956 1_556 S
Li1 O63 1.961 . S
Li2 N47 1.990 . S
Li2 O60 1.961 . S
Li2 O62 1.956 1_556 S
Li2 O63 1.970 . S
Li3 N53 1.990 . S
Li3 O61 1.961 . S
Li3 O62 1.970 . S
Li3 O63 1.956 1_554 S
C4 C6 1.348 . S
C4 C7 1.356 . S
C4 O60 1.325 . S
N5 C8 1.314 . S
N5 C9 1.279 . S
C6 C4 1.348 . S
C6 C8 1.353 . S
C6 H64 0.929 . S
C7 C4 1.356 . S
C7 C9 1.358 . S
C7 H65 0.930 . S
C8 N5 1.314 . S
C8 C6 1.353 . S
C8 H66 0.930 . S
C9 N5 1.279 . S
C9 C7 1.358 . S
C9 H67 0.930 . S
C10 C13 1.348 . S
C10 C14 1.356 . S
C10 O61 1.325 . S
C11 N12 1.279 . S
C11 C14 1.358 . S
C11 H68 0.930 . S
N12 C11 1.279 . S
N12 C15 1.314 . S
C13 C10 1.348 . S
C13 C15 1.353 . S
C13 H69 0.929 . S
C14 C10 1.356 . S
C14 C11 1.358 . S
C14 H70 0.930 . S
C15 N12 1.314 . S
C15 C13 1.353 . S
C15 H71 0.930 . S
C16 N17 1.314 . S
C16 C21 1.353 . S
C16 H22 0.930 . S
N17 Li0 1.990 . S
N17 C16 1.314 . S
N17 C19 1.279 1_554 S
C18 C19 1.358 1_554 S
C18 C20 1.356 . S
C18 H72 0.930 1_554 S
C19 N17 1.279 1_556 S
C19 C18 1.358 1_556 S
C19 H23 0.930 . S
C20 C18 1.356 . S
C20 C21 1.348 . S
C21 C16 1.353 . S
C21 C20 1.348 . S
C21 H73 0.929 . S
H22 C16 0.930 . S
H23 C19 0.930 . S
C24 N25 1.314 . S
C24 C26 1.353 . S
C24 H30 0.930 . S
N25 Li1 1.990 . S
N25 C24 1.314 . S
N25 C28 1.279 1_556 S
C26 C24 1.353 . S
C26 C29 1.348 . S
C26 H74 0.929 . S
C27 C28 1.358 1_556 S
C27 C29 1.356 . S
C27 H75 0.930 1_556 S
C28 N25 1.279 1_554 S
C28 C27 1.358 1_554 S
C28 H31 0.930 . S
C29 C26 1.348 . S
C29 C27 1.356 . S
H30 C24 0.930 . S
H31 C28 0.930 . S
C32 C34 1.348 . S
C32 C35 1.356 . S
C32 O62 1.325 . S
N33 C36 1.314 . S
N33 C37 1.279 . S
C34 C32 1.348 . S
C34 C36 1.353 . S
C34 H76 0.929 . S
C35 C32 1.356 . S
C35 C37 1.358 . S
C35 H77 0.930 1_554 S
C36 N33 1.314 . S
C36 C34 1.353 . S
C36 H78 0.930 . S
C37 N33 1.279 . S
C37 C35 1.358 . S
C37 H79 0.930 1_554 S
C38 C39 1.348 . S
C38 C40 1.356 . S
C38 O63 1.325 . S
C39 C38 1.348 . S
C39 C41 1.353 . S
C39 H80 0.929 . S
C40 C38 1.356 . S
C40 C42 1.358 . S
C40 H81 0.930 1_556 S
C41 C39 1.353 . S
C41 N43 1.314 . S
C41 H82 0.930 . S
C42 C40 1.358 . S
C42 N43 1.279 . S
C42 H83 0.930 1_556 S
N43 C41 1.314 . S
N43 C42 1.279 . S
C44 C46 1.353 . S
C44 N47 1.314 . S
C44 H50 0.930 . S
C45 N47 1.279 . S
C45 C48 1.358 . S
C45 H51 0.930 . S
C46 C44 1.353 . S
C46 C49 1.348 . S
C46 H84 0.929 . S
N47 Li2 1.990 . S
N47 C44 1.314 . S
N47 C45 1.279 . S
C48 C45 1.358 . S
C48 C49 1.356 . S
C48 H85 0.930 . S
C49 C46 1.348 . S
C49 C48 1.356 . S
H50 C44 0.930 . S
H51 C45 0.930 . S
C52 N53 1.314 . S
C52 C54 1.353 . S
C52 H58 0.930 . S
N53 Li3 1.990 . S
N53 C52 1.314 . S
N53 C56 1.279 . S
C54 C52 1.353 . S
C54 C57 1.348 . S
C54 H86 0.929 . S
C55 C56 1.358 . S
C55 C57 1.356 . S
C55 H87 0.930 . S
C56 N53 1.279 . S
C56 C55 1.358 . S
C56 H59 0.930 . S
C57 C54 1.348 . S
C57 C55 1.356 . S
H58 C52 0.930 . S
H59 C56 0.930 . S
O60 Li0 1.956 1_556 S
O60 Li1 1.970 . S
O60 Li2 1.961 . S
O60 C4 1.325 . S
O61 Li0 1.970 . S
O61 Li1 1.956 1_554 S
O61 Li3 1.961 . S
O61 C10 1.325 . S
O62 Li0 1.961 . S
O62 Li2 1.956 1_554 S
O62 Li3 1.970 . S
O62 C32 1.325 . S
O63 Li1 1.961 . S
O63 Li2 1.970 . S
O63 Li3 1.956 1_556 S
O63 C38 1.325 . S
H64 C6 0.929 . S
H65 C7 0.930 . S
H66 C8 0.930 . S
H67 C9 0.930 . S
H68 C11 0.930 . S
H69 C13 0.929 . S
H70 C14 0.930 . S
H71 C15 0.930 . S
H72 C18 0.930 1_556 S
H73 C21 0.929 . S
H74 C26 0.929 . S
H75 C27 0.930 1_554 S
H76 C34 0.929 . S
H77 C35 0.930 1_556 S
H78 C36 0.930 . S
H79 C37 0.930 1_556 S
H80 C39 0.929 . S
H81 C40 0.930 1_554 S
H82 C41 0.930 . S
H83 C42 0.930 1_554 S
H84 C46 0.929 . S
H85 C48 0.930 . S
H86 C54 0.929 . S
H87 C55 0.930 . S
Li88 N105 1.990 . S
Li88 O148 1.956 . S
Li88 O149 1.970 1_565 S
Li88 O150 1.961 . S
Li89 N113 1.990 . S
Li89 O148 1.970 1_545 S
Li89 O149 1.956 . S
Li89 O151 1.961 . S
Li90 N135 1.990 . S
Li90 O148 1.961 . S
Li90 O150 1.956 . S
Li90 O151 1.970 1_565 S
Li91 N141 1.990 . S
Li91 O149 1.961 . S
Li91 O150 1.970 1_545 S
Li91 O151 1.956 . S
C92 C94 1.348 . S
C92 C95 1.356 . S
C92 O148 1.325 . S
N93 C96 1.314 . S
N93 C97 1.279 . S
C94 C92 1.348 . S
C94 C96 1.353 . S
C94 H152 0.929 . S
C95 C92 1.356 . S
C95 C97 1.358 . S
C95 H153 0.930 . S
C96 N93 1.314 . S
C96 C94 1.353 . S
C96 H154 0.930 . S
C97 N93 1.279 . S
C97 C95 1.358 . S
C97 H155 0.930 . S
C98 C101 1.348 . S
C98 C102 1.356 . S
C98 O149 1.325 . S
C99 N100 1.279 . S
C99 C102 1.358 . S
C99 H156 0.930 . S
N100 C99 1.279 . S
N100 C103 1.314 . S
C101 C98 1.348 . S
C101 C103 1.353 . S
C101 H157 0.929 . S
C102 C98 1.356 . S
C102 C99 1.358 . S
C102 H158 0.930 . S
C103 N100 1.314 . S
C103 C101 1.353 . S
C103 H159 0.930 . S
C104 N105 1.314 . S
C104 C109 1.353 . S
C104 H110 0.930 1_565 S
N105 Li88 1.990 . S
N105 C104 1.314 . S
N105 C107 1.279 . S
C106 C107 1.358 . S
C106 C108 1.356 . S
C106 H160 0.930 . S
C107 N105 1.279 . S
C107 C106 1.358 . S
C107 H111 0.930 . S
C108 C106 1.356 . S
C108 C109 1.348 . S
C109 C104 1.353 . S
C109 C108 1.348 . S
C109 H161 0.929 . S
H110 C104 0.930 1_545 S
H111 C107 0.930 . S
C112 N113 1.314 . S
C112 C114 1.353 . S
C112 H118 0.930 1_545 S
N113 Li89 1.990 . S
N113 C112 1.314 . S
N113 C116 1.279 . S
C114 C112 1.353 . S
C114 C117 1.348 . S
C114 H162 0.929 . S
C115 C116 1.358 . S
C115 C117 1.356 . S
C115 H163 0.930 . S
C116 N113 1.279 . S
C116 C115 1.358 . S
C116 H119 0.930 . S
C117 C114 1.348 . S
C117 C115 1.356 . S
H118 C112 0.930 1_565 S
H119 C116 0.930 . S
C120 C122 1.332 1_565 S
C120 C123 1.356 . S
C120 O150 1.325 . S
N121 C124 1.314 . S
N121 C125 1.279 . S
C122 C120 1.332 1_545 S
C122 C124 1.344 1_545 S
C122 H164 0.955 . S
C123 C120 1.356 . S
C123 C125 1.358 . S
C123 H165 0.930 . S
C124 N121 1.314 . S
C124 C122 1.344 1_565 S
C124 H166 0.930 1_565 S
C125 N121 1.279 . S
C125 C123 1.358 . S
C125 H167 0.930 . S
C126 C127 1.342 1_545 S
C126 C128 1.356 . S
C126 O151 1.325 . S
C127 C126 1.342 1_565 S
C127 C129 1.350 1_565 S
C127 H168 0.939 . S
C128 C126 1.356 . S
C128 C130 1.358 . S
C128 H169 0.930 . S
C129 C127 1.350 1_545 S
C129 N131 1.314 . S
C129 H170 0.930 1_545 S
C130 C128 1.358 . S
C130 N131 1.279 . S
C130 H171 0.930 . S
N131 C129 1.314 . S
N131 C130 1.279 . S
C132 C134 1.353 . S
C132 N135 1.314 . S
C132 H138 0.930 . S
C133 N135 1.279 . S
C133 C136 1.358 . S
C133 H139 0.930 . S
C134 C132 1.353 . S
C134 C137 1.348 . S
C134 H172 0.929 . S
N135 Li90 1.990 . S
N135 C132 1.314 . S
N135 C133 1.279 . S
C136 C133 1.358 . S
C136 C137 1.356 . S
C136 H173 0.930 . S
C137 C134 1.348 . S
C137 C136 1.356 . S
H138 C132 0.930 . S
H139 C133 0.930 . S
C140 N141 1.314 . S
C140 C142 1.353 . S
C140 H146 0.930 . S
N141 Li91 1.990 . S
N141 C140 1.314 . S
N141 C144 1.279 . S
C142 C140 1.353 . S
C142 C145 1.348 . S
C142 H174 0.929 . S
C143 C144 1.358 . S
C143 C145 1.356 . S
C143 H175 0.930 . S
C144 N141 1.279 . S
C144 C143 1.358 . S
C144 H147 0.930 . S
C145 C142 1.348 . S
C145 C143 1.356 . S
H146 C140 0.930 . S
H147 C144 0.930 . S
O148 Li88 1.956 . S
O148 Li89 1.970 1_565 S
O148 Li90 1.961 . S
O148 C92 1.325 . S
O149 Li88 1.970 1_545 S
O149 Li89 1.956 . S
O149 Li91 1.961 . S
O149 C98 1.325 . S
O150 Li88 1.961 . S
O150 Li90 1.956 . S
O150 Li91 1.970 1_565 S
O150 C120 1.325 . S
O151 Li89 1.961 . S
O151 Li90 1.970 1_545 S
O151 Li91 1.956 . S
O151 C126 1.325 . S
H152 C94 0.929 . S
H153 C95 0.930 . S
H154 C96 0.930 . S
H155 C97 0.930 . S
H156 C99 0.930 . S
H157 C101 0.929 . S
H158 C102 0.930 . S
H159 C103 0.930 . S
H160 C106 0.930 . S
H161 C109 0.929 . S
H162 C114 0.929 . S
H163 C115 0.930 . S
H164 C122 0.955 . S
H165 C123 0.930 . S
H166 C124 0.930 1_545 S
H167 C125 0.930 . S
H168 C127 0.939 . S
H169 C128 0.930 . S
H170 C129 0.930 1_565 S
H171 C130 0.930 . S
H172 C134 0.929 . S
H173 C136 0.930 . S
H174 C142 0.929 . S
H175 C143 0.930 . S
Li176 N193 1.990 . S
Li176 O236 1.956 . S
Li176 O237 1.970 . S
Li176 O238 1.961 . S
Li177 N201 1.990 . S
Li177 O236 1.970 . S
Li177 O237 1.956 . S
Li177 O239 1.961 . S
Li178 N223 1.990 . S
Li178 O236 1.961 . S
Li178 O238 1.956 . S
Li178 O239 1.970 . S
Li179 N229 1.990 . S
Li179 O237 1.961 . S
Li179 O238 1.970 . S
Li179 O239 1.956 . S
C180 C182 1.348 . S
C180 C183 1.356 . S
C180 O236 1.325 . S
N181 C184 1.314 . S
N181 C185 1.279 . S
C182 C180 1.348 . S
C182 C184 1.353 . S
C182 H240 0.929 . S
C183 C180 1.356 . S
C183 C185 1.358 . S
C183 H241 0.930 . S
C184 N181 1.314 . S
C184 C182 1.353 . S
C184 H242 0.930 . S
C185 N181 1.279 . S
C185 C183 1.358 . S
C185 H243 0.930 . S
C186 C189 1.348 . S
C186 C190 1.356 . S
C186 O237 1.325 . S
C187 N188 1.279 . S
C187 C190 1.358 . S
C187 H244 0.930 . S
N188 C187 1.279 . S
N188 C191 1.314 . S
C189 C186 1.348 . S
C189 C191 1.353 . S
C189 H245 0.929 . S
C190 C186 1.356 . S
C190 C187 1.358 . S
C190 H246 0.930 . S
C191 N188 1.314 . S
C191 C189 1.353 . S
C191 H247 0.930 . S
C192 N193 1.314 . S
C192 C197 1.353 . S
C192 H198 0.930 . S
N193 Li176 1.990 . S
N193 C192 1.314 . S
N193 C195 1.279 . S
C194 C195 1.358 . S
C194 C196 1.356 . S
C194 H248 0.930 . S
C195 N193 1.279 . S
C195 C194 1.358 . S
C195 H199 0.930 . S
C196 C194 1.356 . S
C196 C197 1.348 . S
C197 C192 1.353 . S
C197 C196 1.348 . S
C197 H249 0.929 . S
H198 C192 0.930 . S
H199 C195 0.930 . S
C200 N201 1.314 . S
C200 C202 1.353 . S
C200 H206 0.930 . S
N201 Li177 1.990 . S
N201 C200 1.314 . S
N201 C204 1.279 . S
C202 C200 1.353 . S
C202 C205 1.348 . S
C202 H250 0.929 . S
C203 C204 1.358 . S
C203 C205 1.356 . S
C203 H251 0.930 . S
C204 N201 1.279 . S
C204 C203 1.358 . S
C204 H207 0.930 . S
C205 C202 1.348 . S
C205 C203 1.356 . S
H206 C200 0.930 . S
H207 C204 0.930 . S
C208 C210 1.348 . S
C208 C211 1.356 . S
C208 O238 1.325 . S
N209 C212 1.314 . S
N209 C213 1.279 . S
C210 C208 1.348 . S
C210 C212 1.353 . S
C210 H252 0.929 . S
C211 C208 1.356 . S
C211 C213 1.358 . S
C211 H253 0.930 . S
C212 N209 1.314 . S
C212 C210 1.353 . S
C212 H254 0.930 . S
C213 N209 1.279 . S
C213 C211 1.358 . S
C213 H255 0.930 . S
C214 C215 1.348 . S
C214 C216 1.356 . S
C214 O239 1.325 . S
C215 C214 1.348 . S
C215 C217 1.353 . S
C215 H256 0.929 . S
C216 C214 1.356 . S
C216 C218 1.358 . S
C216 H257 0.930 . S
C217 C215 1.353 . S
C217 N219 1.314 . S
C217 H258 0.930 . S
C218 C216 1.358 . S
C218 N219 1.279 . S
C218 H259 0.930 . S
N219 C217 1.314 . S
N219 C218 1.279 . S
C220 C222 1.353 . S
C220 N223 1.314 . S
C220 H226 0.930 . S
C221 N223 1.279 . S
C221 C224 1.358 . S
C221 H227 0.930 . S
C222 C220 1.353 . S
C222 C225 1.348 . S
C222 H260 0.929 . S
N223 Li178 1.990 . S
N223 C220 1.314 . S
N223 C221 1.279 . S
C224 C221 1.358 . S
C224 C225 1.356 . S
C224 H261 0.930 . S
C225 C222 1.348 . S
C225 C224 1.356 . S
H226 C220 0.930 . S
H227 C221 0.930 . S
C228 N229 1.314 . S
C228 C230 1.353 . S
C228 H234 0.930 . S
N229 Li179 1.990 . S
N229 C228 1.314 . S
N229 C232 1.279 . S
C230 C228 1.353 . S
C230 C233 1.348 . S
C230 H262 0.929 . S
C231 C232 1.358 . S
C231 C233 1.356 . S
C231 H263 0.930 . S
C232 N229 1.279 . S
C232 C231 1.358 . S
C232 H235 0.930 . S
C233 C230 1.348 . S
C233 C231 1.356 . S
H234 C228 0.930 . S
H235 C232 0.930 . S
O236 Li176 1.956 . S
O236 Li177 1.970 . S
O236 Li178 1.961 . S
O236 C180 1.325 . S
O237 Li176 1.970 . S
O237 Li177 1.956 . S
O237 Li179 1.961 . S
O237 C186 1.325 . S
O238 Li176 1.961 . S
O238 Li178 1.956 . S
O238 Li179 1.970 . S
O238 C208 1.325 . S
O239 Li177 1.961 . S
O239 Li178 1.970 . S
O239 Li179 1.956 . S
O239 C214 1.325 . S
H240 C182 0.929 . S
H241 C183 0.930 . S
H242 C184 0.930 . S
H243 C185 0.930 . S
H244 C187 0.930 . S
H245 C189 0.929 . S
H246 C190 0.930 . S
H247 C191 0.930 . S
H248 C194 0.930 . S
H249 C197 0.929 . S
H250 C202 0.929 . S
H251 C203 0.930 . S
H252 C210 0.929 . S
H253 C211 0.930 . S
H254 C212 0.930 . S
H255 C213 0.930 . S
H256 C215 0.929 . S
H257 C216 0.930 . S
H258 C217 0.930 . S
H259 C218 0.930 . S
H260 C222 0.929 . S
H261 C224 0.930 . S
H262 C230 0.929 . S
H263 C231 0.930 . S
Li264 N281 1.990 . S
Li264 O324 1.956 . S
Li264 O325 1.970 1_565 S
Li264 O326 1.961 . S
Li265 N289 1.990 . S
Li265 O324 1.970 1_545 S
Li265 O325 1.956 . S
Li265 O327 1.961 . S
Li266 N311 1.990 . S
Li266 O324 1.961 . S
Li266 O326 1.956 . S
Li266 O327 1.970 1_565 S
Li267 N317 1.990 . S
Li267 O325 1.961 . S
Li267 O326 1.970 1_545 S
Li267 O327 1.956 . S
C268 C270 1.332 1_565 S
C268 C271 1.356 . S
C268 O324 1.325 . S
N269 C272 1.314 . S
N269 C273 1.279 . S
C270 C268 1.332 1_545 S
C270 C272 1.344 1_545 S
C270 H328 0.955 . S
C271 C268 1.356 . S
C271 C273 1.358 . S
C271 H329 0.930 . S
C272 N269 1.314 . S
C272 C270 1.344 1_565 S
C272 H330 0.930 1_565 S
C273 N269 1.279 . S
C273 C271 1.358 . S
C273 H331 0.930 . S
C274 C277 1.342 1_545 S
C274 C278 1.356 . S
C274 O325 1.325 . S
C275 N276 1.279 . S
C275 C278 1.358 . S
C275 H332 0.930 . S
N276 C275 1.279 . S
N276 C279 1.314 . S
C277 C274 1.342 1_565 S
C277 C279 1.350 1_565 S
C277 H333 0.939 . S
C278 C274 1.356 . S
C278 C275 1.358 . S
C278 H334 0.930 . S
C279 N276 1.314 . S
C279 C277 1.350 1_545 S
C279 H335 0.930 1_545 S
C280 N281 1.314 . S
C280 C285 1.353 . S
C280 H286 0.930 . S
N281 Li264 1.990 . S
N281 C280 1.314 . S
N281 C283 1.279 . S
C282 C283 1.358 . S
C282 C284 1.356 . S
C282 H336 0.930 . S
C283 N281 1.279 . S
C283 C282 1.358 . S
C283 H287 0.930 . S
C284 C282 1.356 . S
C284 C285 1.348 . S
C285 C280 1.353 . S
C285 C284 1.348 . S
C285 H337 0.929 . S
H286 C280 0.930 . S
H287 C283 0.930 . S
C288 N289 1.314 . S
C288 C290 1.353 . S
C288 H294 0.930 . S
N289 Li265 1.990 . S
N289 C288 1.314 . S
N289 C292 1.279 . S
C290 C288 1.353 . S
C290 C293 1.348 . S
C290 H338 0.929 . S
C291 C292 1.358 . S
C291 C293 1.356 . S
C291 H339 0.930 . S
C292 N289 1.279 . S
C292 C291 1.358 . S
C292 H295 0.930 . S
C293 C290 1.348 . S
C293 C291 1.356 . S
H294 C288 0.930 . S
H295 C292 0.930 . S
C296 C298 1.348 . S
C296 C299 1.356 . S
C296 O326 1.325 . S
N297 C300 1.314 . S
N297 C301 1.279 . S
C298 C296 1.348 . S
C298 C300 1.353 . S
C298 H340 0.929 . S
C299 C296 1.356 . S
C299 C301 1.358 . S
C299 H341 0.930 . S
C300 N297 1.314 . S
C300 C298 1.353 . S
C300 H342 0.930 . S
C301 N297 1.279 . S
C301 C299 1.358 . S
C301 H343 0.930 . S
C302 C303 1.348 . S
C302 C304 1.356 . S
C302 O327 1.325 . S
C303 C302 1.348 . S
C303 C305 1.353 . S
C303 H344 0.929 . S
C304 C302 1.356 . S
C304 C306 1.358 . S
C304 H345 0.930 . S
C305 C303 1.353 . S
C305 N307 1.314 . S
C305 H346 0.930 . S
C306 C304 1.358 . S
C306 N307 1.279 . S
C306 H347 0.930 . S
N307 C305 1.314 . S
N307 C306 1.279 . S
C308 C310 1.353 . S
C308 N311 1.314 . S
C308 H314 0.930 1_565 S
C309 N311 1.279 . S
C309 C312 1.358 . S
C309 H315 0.930 . S
C310 C308 1.353 . S
C310 C313 1.348 . S
C310 H348 0.929 . S
N311 Li266 1.990 . S
N311 C308 1.314 . S
N311 C309 1.279 . S
C312 C309 1.358 . S
C312 C313 1.356 . S
C312 H349 0.930 . S
C313 C310 1.348 . S
C313 C312 1.356 . S
H314 C308 0.930 1_545 S
H315 C309 0.930 . S
C316 N317 1.314 . S
C316 C318 1.353 . S
C316 H322 0.930 1_545 S
N317 Li267 1.990 . S
N317 C316 1.314 . S
N317 C320 1.279 . S
C318 C316 1.353 . S
C318 C321 1.348 . S
C318 H350 0.929 . S
C319 C320 1.358 . S
C319 C321 1.356 . S
C319 H351 0.930 . S
C320 N317 1.279 . S
C320 C319 1.358 . S
C320 H323 0.930 . S
C321 C318 1.348 . S
C321 C319 1.356 . S
H322 C316 0.930 1_565 S
H323 C320 0.930 . S
O324 Li264 1.956 . S
O324 Li265 1.970 1_565 S
O324 Li266 1.961 . S
O324 C268 1.325 . S
O325 Li264 1.970 1_545 S
O325 Li265 1.956 . S
O325 Li267 1.961 . S
O325 C274 1.325 . S
O326 Li264 1.961 . S
O326 Li266 1.956 . S
O326 Li267 1.970 1_565 S
O326 C296 1.325 . S
O327 Li265 1.961 . S
O327 Li266 1.970 1_545 S
O327 Li267 1.956 . S
O327 C302 1.325 . S
H328 C270 0.955 . S
H329 C271 0.930 . S
H330 C272 0.930 1_545 S
H331 C273 0.930 . S
H332 C275 0.930 . S
H333 C277 0.939 . S
H334 C278 0.930 . S
H335 C279 0.930 1_565 S
H336 C282 0.930 . S
H337 C285 0.929 . S
H338 C290 0.929 . S
H339 C291 0.930 . S
H340 C298 0.929 . S
H341 C299 0.930 . S
H342 C300 0.930 . S
H343 C301 0.930 . S
H344 C303 0.929 . S
H345 C304 0.930 . S
H346 C305 0.930 . S
H347 C306 0.930 . S
H348 C310 0.929 . S
H349 C312 0.930 . S
H350 C318 0.929 . S
H351 C319 0.930 . S
Li352 N369 1.990 . S
Li352 O412 1.956 . S
Li352 O413 1.970 . S
Li352 O414 1.961 1_554 S
Li353 N377 1.990 . S
Li353 O412 1.970 . S
Li353 O413 1.956 . S
Li353 O415 1.961 1_554 S
Li354 N399 1.990 . S
Li354 O412 1.961 1_556 S
Li354 O414 1.956 . S
Li354 O415 1.970 . S
Li355 N405 1.990 . S
Li355 O413 1.961 1_556 S
Li355 O414 1.970 . S
Li355 O415 1.956 . S
C356 C358 1.348 . S
C356 C359 1.356 . S
C356 O412 1.325 . S
N357 C360 1.314 . S
N357 C361 1.279 . S
C358 C356 1.348 . S
C358 C360 1.353 . S
C358 H416 0.929 . S
C359 C356 1.356 . S
C359 C361 1.358 . S
C359 H417 0.930 . S
C360 N357 1.314 . S
C360 C358 1.353 . S
C360 H418 0.930 . S
C361 N357 1.279 . S
C361 C359 1.358 . S
C361 H419 0.930 . S
C362 C365 1.348 . S
C362 C366 1.356 1_554 S
C362 O413 1.325 . S
C363 N364 1.279 . S
C363 C366 1.358 1_554 S
C363 H420 0.930 1_554 S
N364 C363 1.279 . S
N364 C367 1.314 . S
C365 C362 1.348 . S
C365 C367 1.353 . S
C365 H421 0.929 . S
C366 C362 1.356 1_556 S
C366 C363 1.358 1_556 S
C366 H422 0.930 . S
C367 N364 1.314 . S
C367 C365 1.353 . S
C367 H423 0.930 . S
C368 N369 1.314 . S
C368 C373 1.353 . S
C368 H374 0.930 . S
N369 Li352 1.990 . S
N369 C368 1.314 . S
N369 C371 1.279 . S
C370 C371 1.358 . S
C370 C372 1.356 . S
C370 H424 0.930 . S
C371 N369 1.279 . S
C371 C370 1.358 . S
C371 H375 0.930 . S
C372 C370 1.356 . S
C372 C373 1.348 . S
C373 C368 1.353 . S
C373 C372 1.348 . S
C373 H425 0.929 . S
H374 C368 0.930 . S
H375 C371 0.930 . S
C376 N377 1.314 . S
C376 C378 1.353 . S
C376 H382 0.930 1_554 S
N377 Li353 1.990 . S
N377 C376 1.314 . S
N377 C380 1.279 . S
C378 C376 1.353 . S
C378 C381 1.348 . S
C378 H426 0.929 . S
C379 C380 1.358 . S
C379 C381 1.356 . S
C379 H427 0.930 . S
C380 N377 1.279 . S
C380 C379 1.358 . S
C380 H383 0.930 . S
C381 C378 1.348 . S
C381 C379 1.356 . S
H382 C376 0.930 1_556 S
H383 C380 0.930 . S
C384 C386 1.348 . S
C384 C387 1.356 1_556 S
C384 O414 1.325 . S
N385 C388 1.314 . S
N385 C389 1.279 . S
C386 C384 1.348 . S
C386 C388 1.353 . S
C386 H428 0.929 . S
C387 C384 1.356 1_554 S
C387 C389 1.358 1_554 S
C387 H429 0.930 . S
C388 N385 1.314 . S
C388 C386 1.353 . S
C388 H430 0.930 . S
C389 N385 1.279 . S
C389 C387 1.358 1_556 S
C389 H431 0.930 1_556 S
C390 C391 1.348 . S
C390 C392 1.356 . S
C390 O415 1.325 . S
C391 C390 1.348 . S
C391 C393 1.353 . S
C391 H432 0.929 . S
C392 C390 1.356 . S
C392 C394 1.358 . S
C392 H433 0.930 . S
C393 C391 1.353 . S
C393 N395 1.314 . S
C393 H434 0.930 . S
C394 C392 1.358 . S
C394 N395 1.279 . S
C394 H435 0.930 . S
N395 C393 1.314 . S
N395 C394 1.279 . S
C396 C398 1.353 . S
C396 N399 1.314 . S
C396 H402 0.930 1_556 S
C397 N399 1.279 . S
C397 C400 1.358 . S
C397 H403 0.930 . S
C398 C396 1.353 . S
C398 C401 1.348 . S
C398 H436 0.929 . S
N399 Li354 1.990 . S
N399 C396 1.314 . S
N399 C397 1.279 . S
C400 C397 1.358 . S
C400 C401 1.356 . S
C400 H437 0.930 . S
C401 C398 1.348 . S
C401 C400 1.356 . S
H402 C396 0.930 1_554 S
H403 C397 0.930 . S
C404 N405 1.314 . S
C404 C406 1.353 . S
C404 H410 0.930 . S
N405 Li355 1.990 . S
N405 C404 1.314 . S
N405 C408 1.279 . S
C406 C404 1.353 . S
C406 C409 1.348 . S
C406 H438 0.929 . S
C407 C408 1.358 . S
C407 C409 1.356 . S
C407 H439 0.930 . S
C408 N405 1.279 . S
C408 C407 1.358 . S
C408 H411 0.930 . S
C409 C406 1.348 . S
C409 C407 1.356 . S
H410 C404 0.930 . S
H411 C408 0.930 . S
O412 Li352 1.956 . S
O412 Li353 1.970 . S
O412 Li354 1.961 1_554 S
O412 C356 1.325 . S
O413 Li352 1.970 . S
O413 Li353 1.956 . S
O413 Li355 1.961 1_554 S
O413 C362 1.325 . S
O414 Li352 1.961 1_556 S
O414 Li354 1.956 . S
O414 Li355 1.970 . S
O414 C384 1.325 . S
O415 Li353 1.961 1_556 S
O415 Li354 1.970 . S
O415 Li355 1.956 . S
O415 C390 1.325 . S
H416 C358 0.929 . S
H417 C359 0.930 . S
H418 C360 0.930 . S
H419 C361 0.930 . S
H420 C363 0.930 1_556 S
H421 C365 0.929 . S
H422 C366 0.930 . S
H423 C367 0.930 . S
H424 C370 0.930 . S
H425 C373 0.929 . S
H426 C378 0.929 . S
H427 C379 0.930 . S
H428 C386 0.929 . S
H429 C387 0.930 . S
H430 C388 0.930 . S
H431 C389 0.930 1_554 S
H432 C391 0.929 . S
H433 C392 0.930 . S
H434 C393 0.930 . S
H435 C394 0.930 . S
H436 C398 0.929 . S
H437 C400 0.930 . S
H438 C406 0.929 . S
H439 C407 0.930 . S
Li440 N457 1.990 . S
Li440 O500 1.956 . S
Li440 O501 1.970 1_565 S
Li440 O502 1.961 . S
Li441 N465 1.990 . S
Li441 O500 1.970 1_545 S
Li441 O501 1.956 . S
Li441 O503 1.961 . S
Li442 N487 1.990 . S
Li442 O500 1.961 . S
Li442 O502 1.956 . S
Li442 O503 1.970 1_565 S
Li443 N493 1.990 . S
Li443 O501 1.961 . S
Li443 O502 1.970 1_545 S
Li443 O503 1.956 . S
C444 C446 1.348 . S
C444 C447 1.356 . S
C444 O500 1.325 . S
N445 C448 1.314 . S
N445 C449 1.279 . S
C446 C444 1.348 . S
C446 C448 1.353 . S
C446 H504 0.929 . S
C447 C444 1.356 . S
C447 C449 1.358 . S
C447 H505 0.930 . S
C448 N445 1.314 . S
C448 C446 1.353 . S
C448 H506 0.930 . S
C449 N445 1.279 . S
C449 C447 1.358 . S
C449 H507 0.930 . S
C450 C453 1.348 1_545 S
C450 C454 1.356 . S
C450 O501 1.325 . S
C451 N452 1.279 . S
C451 C454 1.358 . S
C451 H508 0.930 . S
N452 C451 1.279 . S
N452 C455 1.378 . S
C453 C450 1.348 1_565 S
C453 C455 1.336 1_565 S
C453 H509 0.929 . S
C454 C450 1.356 . S
C454 C451 1.358 . S
C454 H510 0.930 . S
C455 N452 1.378 . S
C455 C453 1.336 1_545 S
C455 H511 0.881 1_545 S
C456 N457 1.314 . S
C456 C461 1.353 . S
C456 H462 0.930 . S
N457 Li440 1.990 . S
N457 C456 1.314 . S
N457 C459 1.279 . S
C458 C459 1.358 . S
C458 C460 1.356 . S
C458 H512 0.930 . S
C459 N457 1.279 . S
C459 C458 1.358 . S
C459 H463 0.930 . S
C460 C458 1.356 . S
C460 C461 1.348 . S
C461 C456 1.353 . S
C461 C460 1.348 . S
C461 H513 0.929 . S
H462 C456 0.930 . S
H463 C459 0.930 . S
C464 N465 1.314 . S
C464 C466 1.353 . S
C464 H470 0.930 . S
N465 Li441 1.990 . S
N465 C464 1.314 . S
N465 C468 1.279 . S
C466 C464 1.353 . S
C466 C469 1.348 . S
C466 H514 0.929 . S
C467 C468 1.358 . S
C467 C469 1.356 . S
C467 H515 0.930 . S
C468 N465 1.279 . S
C468 C467 1.358 . S
C468 H471 0.930 . S
C469 C466 1.348 . S
C469 C467 1.356 . S
H470 C464 0.930 . S
H471 C468 0.930 . S
C472 C474 1.348 1_565 S
C472 C475 1.356 . S
C472 O502 1.325 . S
N473 C476 1.359 . S
N473 C477 1.279 . S
C474 C472 1.348 1_545 S
C474 C476 1.340 1_545 S
C474 H516 0.929 . S
C475 C472 1.356 . S
C475 C477 1.358 . S
C475 H517 0.930 . S
C476 N473 1.359 . S
C476 C474 1.340 1_565 S
C476 H518 0.895 1_565 S
C477 N473 1.279 . S
C477 C475 1.358 . S
C477 H519 0.930 . S
C478 C479 1.348 . S
C478 C480 1.356 . S
C478 O503 1.325 . S
C479 C478 1.348 . S
C479 C481 1.353 . S
C479 H520 0.929 . S
C480 C478 1.356 . S
C480 C482 1.358 . S
C480 H521 0.930 . S
C481 C479 1.353 . S
C481 N483 1.314 . S
C481 H522 0.930 . S
C482 C480 1.358 . S
C482 N483 1.279 . S
C482 H523 0.930 . S
N483 C481 1.314 . S
N483 C482 1.279 . S
C484 C486 1.353 . S
C484 N487 1.314 . S
C484 H490 0.930 . S
C485 N487 1.279 . S
C485 C488 1.358 . S
C485 H491 0.930 . S
C486 C484 1.353 . S
C486 C489 1.348 . S
C486 H524 0.929 . S
N487 Li442 1.990 . S
N487 C484 1.314 . S
N487 C485 1.279 . S
C488 C485 1.358 . S
C488 C489 1.356 . S
C488 H525 0.930 . S
C489 C486 1.348 . S
C489 C488 1.356 . S
H490 C484 0.930 . S
H491 C485 0.930 . S
C492 N493 1.314 . S
C492 C494 1.353 . S
C492 H498 0.930 . S
N493 Li443 1.990 . S
N493 C492 1.314 . S
N493 C496 1.279 . S
C494 C492 1.353 . S
C494 C497 1.348 . S
C494 H526 0.929 . S
C495 C496 1.358 . S
C495 C497 1.356 . S
C495 H527 0.930 . S
C496 N493 1.279 . S
C496 C495 1.358 . S
C496 H499 0.930 . S
C497 C494 1.348 . S
C497 C495 1.356 . S
H498 C492 0.930 . S
H499 C496 0.930 . S
O500 Li440 1.956 . S
O500 Li441 1.970 1_565 S
O500 Li442 1.961 . S
O500 C444 1.325 . S
O501 Li440 1.970 1_545 S
O501 Li441 1.956 . S
O501 Li443 1.961 . S
O501 C450 1.325 . S
O502 Li440 1.961 . S
O502 Li442 1.956 . S
O502 Li443 1.970 1_565 S
O502 C472 1.325 . S
O503 Li441 1.961 . S
O503 Li442 1.970 1_545 S
O503 Li443 1.956 . S
O503 C478 1.325 . S
H504 C446 0.929 . S
H505 C447 0.930 . S
H506 C448 0.930 . S
H507 C449 0.930 . S
H508 C451 0.930 . S
H509 C453 0.929 . S
H510 C454 0.930 . S
H511 C455 0.881 1_565 S
H512 C458 0.930 . S
H513 C461 0.929 . S
H514 C466 0.929 . S
H515 C467 0.930 . S
H516 C474 0.929 . S
H517 C475 0.930 . S
H518 C476 0.895 1_545 S
H519 C477 0.930 . S
H520 C479 0.929 . S
H521 C480 0.930 . S
H522 C481 0.930 . S
H523 C482 0.930 . S
H524 C486 0.929 . S
H525 C488 0.930 . S
H526 C494 0.929 . S
H527 C495 0.930 . S
Li528 N545 1.990 . S
Li528 O588 1.956 . S
Li528 O589 1.970 . S
Li528 O590 1.961 . S
Li529 N553 1.990 . S
Li529 O588 1.970 . S
Li529 O589 1.956 . S
Li529 O591 1.961 . S
Li530 N575 1.990 . S
Li530 O588 1.961 . S
Li530 O590 1.956 . S
Li530 O591 1.970 . S
Li531 N581 1.990 . S
Li531 O589 1.961 . S
Li531 O590 1.970 . S
Li531 O591 1.956 . S
C532 C534 1.348 . S
C532 C535 1.356 . S
C532 O588 1.325 . S
N533 C536 1.314 . S
N533 C537 1.279 . S
C534 C532 1.348 . S
C534 C536 1.353 . S
C534 H592 0.929 . S
C535 C532 1.356 . S
C535 C537 1.358 . S
C535 H593 0.930 . S
C536 N533 1.314 . S
C536 C534 1.353 . S
C536 H594 0.930 . S
C537 N533 1.279 . S
C537 C535 1.358 . S
C537 H595 0.930 . S
C538 C541 1.348 . S
C538 C542 1.356 . S
C538 O589 1.325 . S
C539 N540 1.279 . S
C539 C542 1.358 . S
C539 H596 0.930 . S
N540 C539 1.279 . S
N540 C543 1.314 . S
C541 C538 1.348 . S
C541 C543 1.353 . S
C541 H597 0.929 . S
C542 C538 1.356 . S
C542 C539 1.358 . S
C542 H598 0.930 . S
C543 N540 1.314 . S
C543 C541 1.353 . S
C543 H599 0.930 . S
C544 N545 1.314 . S
C544 C549 1.353 . S
C544 H550 0.930 . S
N545 Li528 1.990 . S
N545 C544 1.314 . S
N545 C547 1.279 . S
C546 C547 1.358 . S
C546 C548 1.356 . S
C546 H600 0.930 . S
C547 N545 1.279 . S
C547 C546 1.358 . S
C547 H551 0.930 . S
C548 C546 1.356 . S
C548 C549 1.348 . S
C549 C544 1.353 . S
C549 C548 1.348 . S
C549 H601 0.929 . S
H550 C544 0.930 . S
H551 C547 0.930 . S
C552 N553 1.314 . S
C552 C554 1.353 . S
C552 H558 0.930 . S
N553 Li529 1.990 . S
N553 C552 1.314 . S
N553 C556 1.279 . S
C554 C552 1.353 . S
C554 C557 1.348 . S
C554 H602 0.929 . S
C555 C556 1.358 . S
C555 C557 1.356 . S
C555 H603 0.930 . S
C556 N553 1.279 . S
C556 C555 1.358 . S
C556 H559 0.930 . S
C557 C554 1.348 . S
C557 C555 1.356 . S
H558 C552 0.930 . S
H559 C556 0.930 . S
C560 C562 1.348 . S
C560 C563 1.356 . S
C560 O590 1.325 . S
N561 C564 1.314 . S
N561 C565 1.279 . S
C562 C560 1.348 . S
C562 C564 1.353 . S
C562 H604 0.929 . S
C563 C560 1.356 . S
C563 C565 1.358 . S
C563 H605 0.930 . S
C564 N561 1.314 . S
C564 C562 1.353 . S
C564 H606 0.930 . S
C565 N561 1.279 . S
C565 C563 1.358 . S
C565 H607 0.930 . S
C566 C567 1.348 . S
C566 C568 1.356 . S
C566 O591 1.325 . S
C567 C566 1.348 . S
C567 C569 1.353 . S
C567 H608 0.929 . S
C568 C566 1.356 . S
C568 C570 1.358 . S
C568 H609 0.930 . S
C569 C567 1.353 . S
C569 N571 1.314 . S
C569 H610 0.930 . S
C570 C568 1.358 . S
C570 N571 1.279 . S
C570 H611 0.930 . S
N571 C569 1.314 . S
N571 C570 1.279 . S
C572 C574 1.353 . S
C572 N575 1.314 . S
C572 H578 0.930 . S
C573 N575 1.279 . S
C573 C576 1.358 . S
C573 H579 0.930 . S
C574 C572 1.353 . S
C574 C577 1.348 . S
C574 H612 0.929 . S
N575 Li530 1.990 . S
N575 C572 1.314 . S
N575 C573 1.279 . S
C576 C573 1.358 . S
C576 C577 1.356 . S
C576 H613 0.930 . S
C577 C574 1.348 . S
C577 C576 1.356 . S
H578 C572 0.930 . S
H579 C573 0.930 . S
C580 N581 1.314 . S
C580 C582 1.353 . S
C580 H586 0.930 . S
N581 Li531 1.990 . S
N581 C580 1.314 . S
N581 C584 1.279 . S
C582 C580 1.353 . S
C582 C585 1.348 . S
C582 H614 0.929 . S
C583 C584 1.358 . S
C583 C585 1.356 . S
C583 H615 0.930 . S
C584 N581 1.279 . S
C584 C583 1.358 . S
C584 H587 0.930 . S
C585 C582 1.348 . S
C585 C583 1.356 . S
H586 C580 0.930 . S
H587 C584 0.930 . S
O588 Li528 1.956 . S
O588 Li529 1.970 . S
O588 Li530 1.961 . S
O588 C532 1.325 . S
O589 Li528 1.970 . S
O589 Li529 1.956 . S
O589 Li531 1.961 . S
O589 C538 1.325 . S
O590 Li528 1.961 . S
O590 Li530 1.956 . S
O590 Li531 1.970 . S
O590 C560 1.325 . S
O591 Li529 1.961 . S
O591 Li530 1.970 . S
O591 Li531 1.956 . S
O591 C566 1.325 . S
H592 C534 0.929 . S
H593 C535 0.930 . S
H594 C536 0.930 . S
H595 C537 0.930 . S
H596 C539 0.930 . S
H597 C541 0.929 . S
H598 C542 0.930 . S
H599 C543 0.930 . S
H600 C546 0.930 . S
H601 C549 0.929 . S
H602 C554 0.929 . S
H603 C555 0.930 . S
H604 C562 0.929 . S
H605 C563 0.930 . S
H606 C564 0.930 . S
H607 C565 0.930 . S
H608 C567 0.929 . S
H609 C568 0.930 . S
H610 C569 0.930 . S
H611 C570 0.930 . S
H612 C574 0.929 . S
H613 C576 0.930 . S
H614 C582 0.929 . S
H615 C583 0.930 . S
Li616 N633 1.990 . S
Li616 O676 1.956 . S
Li616 O677 1.970 1_545 S
Li616 O678 1.961 . S
Li617 N641 1.990 . S
Li617 O676 1.970 1_565 S
Li617 O677 1.956 . S
Li617 O679 1.961 . S
Li618 N663 1.990 . S
Li618 O676 1.961 . S
Li618 O678 1.956 . S
Li618 O679 1.970 1_545 S
Li619 N669 1.990 . S
Li619 O677 1.961 . S
Li619 O678 1.970 1_565 S
Li619 O679 1.956 . S
C620 C622 1.348 . S
C620 C623 1.356 . S
C620 O676 1.325 . S
N621 C624 1.314 . S
N621 C625 1.279 . S
C622 C620 1.348 . S
C622 C624 1.353 . S
C622 H680 0.929 . S
C623 C620 1.356 . S
C623 C625 1.358 . S
C623 H681 0.930 . S
C624 N621 1.314 . S
C624 C622 1.353 . S
C624 H682 0.930 . S
C625 N621 1.279 . S
C625 C623 1.358 . S
C625 H683 0.930 . S
C626 C629 1.348 1_565 S
C626 C630 1.356 . S
C626 O677 1.325 . S
C627 N628 1.279 . S
C627 C630 1.358 . S
C627 H684 0.930 . S
N628 C627 1.279 . S
N628 C631 1.359 . S
C629 C626 1.348 1_545 S
C629 C631 1.340 1_545 S
C629 H685 0.929 . S
C630 C626 1.356 . S
C630 C627 1.358 . S
C630 H686 0.930 . S
C631 N628 1.359 . S
C631 C629 1.340 1_565 S
C631 H687 0.895 1_565 S
C632 N633 1.314 . S
C632 C637 1.353 . S
C632 H638 0.930 . S
N633 Li616 1.990 . S
N633 C632 1.314 . S
N633 C635 1.279 . S
C634 C635 1.358 . S
C634 C636 1.356 . S
C634 H688 0.930 . S
C635 N633 1.279 . S
C635 C634 1.358 . S
C635 H639 0.930 . S
C636 C634 1.356 . S
C636 C637 1.348 . S
C637 C632 1.353 . S
C637 C636 1.348 . S
C637 H689 0.929 . S
H638 C632 0.930 . S
H639 C635 0.930 . S
C640 N641 1.314 . S
C640 C642 1.353 . S
C640 H646 0.930 . S
N641 Li617 1.990 . S
N641 C640 1.314 . S
N641 C644 1.279 . S
C642 C640 1.353 . S
C642 C645 1.348 . S
C642 H690 0.929 . S
C643 C644 1.358 . S
C643 C645 1.356 . S
C643 H691 0.930 . S
C644 N641 1.279 . S
C644 C643 1.358 . S
C644 H647 0.930 . S
C645 C642 1.348 . S
C645 C643 1.356 . S
H646 C640 0.930 . S
H647 C644 0.930 . S
C648 C650 1.348 1_545 S
C648 C651 1.356 . S
C648 O678 1.325 . S
N649 C652 1.378 . S
N649 C653 1.279 . S
C650 C648 1.348 1_565 S
C650 C652 1.336 1_565 S
C650 H692 0.929 . S
C651 C648 1.356 . S
C651 C653 1.358 . S
C651 H693 0.930 . S
C652 N649 1.378 . S
C652 C650 1.336 1_545 S
C652 H694 0.881 1_545 S
C653 N649 1.279 . S
C653 C651 1.358 . S
C653 H695 0.930 . S
C654 C655 1.348 . S
C654 C656 1.356 . S
C654 O679 1.325 . S
C655 C654 1.348 . S
C655 C657 1.353 . S
C655 H696 0.929 . S
C656 C654 1.356 . S
C656 C658 1.358 . S
C656 H697 0.930 . S
C657 C655 1.353 . S
C657 N659 1.314 . S
C657 H698 0.930 . S
C658 C656 1.358 . S
C658 N659 1.279 . S
C658 H699 0.930 . S
N659 C657 1.314 . S
N659 C658 1.279 . S
C660 C662 1.353 . S
C660 N663 1.314 . S
C660 H666 0.930 . S
C661 N663 1.279 . S
C661 C664 1.358 . S
C661 H667 0.930 . S
C662 C660 1.353 . S
C662 C665 1.348 . S
C662 H700 0.929 . S
N663 Li618 1.990 . S
N663 C660 1.314 . S
N663 C661 1.279 . S
C664 C661 1.358 . S
C664 C665 1.356 . S
C664 H701 0.930 . S
C665 C662 1.348 . S
C665 C664 1.356 . S
H666 C660 0.930 . S
H667 C661 0.930 . S
C668 N669 1.314 . S
C668 C670 1.353 . S
C668 H674 0.930 . S
N669 Li619 1.990 . S
N669 C668 1.314 . S
N669 C672 1.279 . S
C670 C668 1.353 . S
C670 C673 1.348 . S
C670 H702 0.929 . S
C671 C672 1.358 . S
C671 C673 1.356 . S
C671 H703 0.930 . S
C672 N669 1.279 . S
C672 C671 1.358 . S
C672 H675 0.930 . S
C673 C670 1.348 . S
C673 C671 1.356 . S
H674 C668 0.930 . S
H675 C672 0.930 . S
O676 Li616 1.956 . S
O676 Li617 1.970 1_545 S
O676 Li618 1.961 . S
O676 C620 1.325 . S
O677 Li616 1.970 1_565 S
O677 Li617 1.956 . S
O677 Li619 1.961 . S
O677 C626 1.325 . S
O678 Li616 1.961 . S
O678 Li618 1.956 . S
O678 Li619 1.970 1_545 S
O678 C648 1.325 . S
O679 Li617 1.961 . S
O679 Li618 1.970 1_565 S
O679 Li619 1.956 . S
O679 C654 1.325 . S
H680 C622 0.929 . S
H681 C623 0.930 . S
H682 C624 0.930 . S
H683 C625 0.930 . S
H684 C627 0.930 . S
H685 C629 0.929 . S
H686 C630 0.930 . S
H687 C631 0.895 1_545 S
H688 C634 0.930 . S
H689 C637 0.929 . S
H690 C642 0.929 . S
H691 C643 0.930 . S
H692 C650 0.929 . S
H693 C651 0.930 . S
H694 C652 0.881 1_565 S
H695 C653 0.930 . S
H696 C655 0.929 . S
H697 C656 0.930 . S
H698 C657 0.930 . S
H699 C658 0.930 . S
H700 C662 0.929 . S
H701 C664 0.930 . S
H702 C670 0.929 . S
H703 C671 0.930 . S
Li704 N721 1.990 . S
Li704 O764 1.956 . S
Li704 O765 1.970 . S
Li704 O766 1.961 . S
Li705 N729 1.990 . S
Li705 O764 1.970 . S
Li705 O765 1.956 . S
Li705 O767 1.961 . S
Li706 N751 1.990 . S
Li706 O764 1.961 . S
Li706 O766 1.956 . S
Li706 O767 1.970 . S
Li707 N757 1.990 . S
Li707 O765 1.961 . S
Li707 O766 1.970 . S
Li707 O767 1.956 . S
C708 C710 1.348 . S
C708 C711 1.356 . S
C708 O764 1.325 . S
N709 C712 1.314 . S
N709 C713 1.279 . S
C710 C708 1.348 . S
C710 C712 1.353 . S
C710 H768 0.929 . S
C711 C708 1.356 . S
C711 C713 1.358 . S
C711 H769 0.930 . S
C712 N709 1.314 . S
C712 C710 1.353 . S
C712 H770 0.930 . S
C713 N709 1.279 . S
C713 C711 1.358 . S
C713 H771 0.930 . S
C714 C717 1.348 . S
C714 C718 1.356 . S
C714 O765 1.325 . S
C715 N716 1.279 . S
C715 C718 1.358 . S
C715 H772 0.930 . S
N716 C715 1.279 . S
N716 C719 1.314 . S
C717 C714 1.348 . S
C717 C719 1.353 . S
C717 H773 0.929 . S
C718 C714 1.356 . S
C718 C715 1.358 . S
C718 H774 0.930 . S
C719 N716 1.314 . S
C719 C717 1.353 . S
C719 H775 0.930 . S
C720 N721 1.314 . S
C720 C725 1.353 . S
C720 H726 0.930 . S
N721 Li704 1.990 . S
N721 C720 1.314 . S
N721 C723 1.279 . S
C722 C723 1.358 . S
C722 C724 1.356 . S
C722 H776 0.930 . S
C723 N721 1.279 . S
C723 C722 1.358 . S
C723 H727 0.930 . S
C724 C722 1.356 . S
C724 C725 1.348 . S
C725 C720 1.353 . S
C725 C724 1.348 . S
C725 H777 0.929 . S
H726 C720 0.930 . S
H727 C723 0.930 . S
C728 N729 1.314 . S
C728 C730 1.353 . S
C728 H734 0.930 . S
N729 Li705 1.990 . S
N729 C728 1.314 . S
N729 C732 1.279 . S
C730 C728 1.353 . S
C730 C733 1.348 . S
C730 H778 0.929 . S
C731 C732 1.358 . S
C731 C733 1.356 . S
C731 H779 0.930 . S
C732 N729 1.279 . S
C732 C731 1.358 . S
C732 H735 0.930 . S
C733 C730 1.348 . S
C733 C731 1.356 . S
H734 C728 0.930 . S
H735 C732 0.930 . S
C736 C738 1.348 . S
C736 C739 1.356 . S
C736 O766 1.325 . S
N737 C740 1.314 . S
N737 C741 1.279 . S
C738 C736 1.348 . S
C738 C740 1.353 . S
C738 H780 0.929 . S
C739 C736 1.356 . S
C739 C741 1.358 . S
C739 H781 0.930 . S
C740 N737 1.314 . S
C740 C738 1.353 . S
C740 H782 0.930 . S
C741 N737 1.279 . S
C741 C739 1.358 . S
C741 H783 0.930 . S
C742 C743 1.348 . S
C742 C744 1.356 . S
C742 O767 1.325 . S
C743 C742 1.348 . S
C743 C745 1.353 . S
C743 H784 0.929 . S
C744 C742 1.356 . S
C744 C746 1.358 . S
C744 H785 0.930 . S
C745 C743 1.353 . S
C745 N747 1.314 . S
C745 H786 0.930 . S
C746 C744 1.358 . S
C746 N747 1.279 . S
C746 H787 0.930 . S
N747 C745 1.314 . S
N747 C746 1.279 . S
C748 C750 1.353 . S
C748 N751 1.314 . S
C748 H754 0.930 . S
C749 N751 1.279 . S
C749 C752 1.358 . S
C749 H755 0.930 . S
C750 C748 1.353 . S
C750 C753 1.348 . S
C750 H788 0.929 . S
N751 Li706 1.990 . S
N751 C748 1.314 . S
N751 C749 1.279 . S
C752 C749 1.358 . S
C752 C753 1.356 . S
C752 H789 0.930 . S
C753 C750 1.348 . S
C753 C752 1.356 . S
H754 C748 0.930 . S
H755 C749 0.930 . S
C756 N757 1.314 . S
C756 C758 1.353 . S
C756 H762 0.930 . S
N757 Li707 1.990 . S
N757 C756 1.314 . S
N757 C760 1.279 . S
C758 C756 1.353 . S
C758 C761 1.348 . S
C758 H790 0.929 . S
C759 C760 1.358 . S
C759 C761 1.356 . S
C759 H791 0.930 . S
C760 N757 1.279 . S
C760 C759 1.358 . S
C760 H763 0.930 . S
C761 C758 1.348 . S
C761 C759 1.356 . S
H762 C756 0.930 . S
H763 C760 0.930 . S
O764 Li704 1.956 . S
O764 Li705 1.970 . S
O764 Li706 1.961 . S
O764 C708 1.325 . S
O765 Li704 1.970 . S
O765 Li705 1.956 . S
O765 Li707 1.961 . S
O765 C714 1.325 . S
O766 Li704 1.961 . S
O766 Li706 1.956 . S
O766 Li707 1.970 . S
O766 C736 1.325 . S
O767 Li705 1.961 . S
O767 Li706 1.970 . S
O767 Li707 1.956 . S
O767 C742 1.325 . S
H768 C710 0.929 . S
H769 C711 0.930 . S
H770 C712 0.930 . S
H771 C713 0.930 . S
H772 C715 0.930 . S
H773 C717 0.929 . S
H774 C718 0.930 . S
H775 C719 0.930 . S
H776 C722 0.930 . S
H777 C725 0.929 . S
H778 C730 0.929 . S
H779 C731 0.930 . S
H780 C738 0.929 . S
H781 C739 0.930 . S
H782 C740 0.930 . S
H783 C741 0.930 . S
H784 C743 0.929 . S
H785 C744 0.930 . S
H786 C745 0.930 . S
H787 C746 0.930 . S
H788 C750 0.929 . S
H789 C752 0.930 . S
H790 C758 0.929 . S
H791 C759 0.930 . S
Li792 N809 1.990 . S
Li792 O852 1.956 . S
Li792 O853 1.970 . S
Li792 O854 1.961 . S
Li793 N817 1.990 . S
Li793 O852 1.970 . S
Li793 O853 1.956 . S
Li793 O855 1.961 . S
Li794 N839 1.990 . S
Li794 O852 1.961 . S
Li794 O854 1.956 . S
Li794 O855 1.970 . S
Li795 N845 1.990 . S
Li795 O853 1.961 . S
Li795 O854 1.970 . S
Li795 O855 1.956 . S
C796 C798 1.348 . S
C796 C799 1.356 . S
C796 O852 1.325 . S
N797 C800 1.314 . S
N797 C801 1.279 . S
C798 C796 1.348 . S
C798 C800 1.353 . S
C798 H856 0.929 . S
C799 C796 1.356 . S
C799 C801 1.358 . S
C799 H857 0.930 . S
C800 N797 1.314 . S
C800 C798 1.353 . S
C800 H858 0.930 . S
C801 N797 1.279 . S
C801 C799 1.358 . S
C801 H859 0.930 . S
C802 C805 1.348 . S
C802 C806 1.356 . S
C802 O853 1.325 . S
C803 N804 1.279 . S
C803 C806 1.358 . S
C803 H860 0.930 . S
N804 C803 1.279 . S
N804 C807 1.314 . S
C805 C802 1.348 . S
C805 C807 1.353 . S
C805 H861 0.929 . S
C806 C802 1.356 . S
C806 C803 1.358 . S
C806 H862 0.930 . S
C807 N804 1.314 . S
C807 C805 1.353 . S
C807 H863 0.930 . S
C808 N809 1.314 . S
C808 C813 1.353 . S
C808 H814 0.930 . S
N809 Li792 1.990 . S
N809 C808 1.314 . S
N809 C811 1.279 . S
C810 C811 1.358 . S
C810 C812 1.356 . S
C810 H864 0.930 . S
C811 N809 1.279 . S
C811 C810 1.358 . S
C811 H815 0.930 . S
C812 C810 1.356 . S
C812 C813 1.348 . S
C813 C808 1.353 . S
C813 C812 1.348 . S
C813 H865 0.929 . S
H814 C808 0.930 . S
H815 C811 0.930 . S
C816 N817 1.314 . S
C816 C818 1.353 . S
C816 H822 0.930 . S
N817 Li793 1.990 . S
N817 C816 1.314 . S
N817 C820 1.279 . S
C818 C816 1.353 . S
C818 C821 1.348 . S
C818 H866 0.929 . S
C819 C820 1.358 . S
C819 C821 1.356 . S
C819 H867 0.930 . S
C820 N817 1.279 . S
C820 C819 1.358 . S
C820 H823 0.930 . S
C821 C818 1.348 . S
C821 C819 1.356 . S
H822 C816 0.930 . S
H823 C820 0.930 . S
C824 C826 1.348 . S
C824 C827 1.356 . S
C824 O854 1.325 . S
N825 C828 1.314 . S
N825 C829 1.279 . S
C826 C824 1.348 . S
C826 C828 1.353 . S
C826 H868 0.929 . S
C827 C824 1.356 . S
C827 C829 1.358 . S
C827 H869 0.930 . S
C828 N825 1.314 . S
C828 C826 1.353 . S
C828 H870 0.930 . S
C829 N825 1.279 . S
C829 C827 1.358 . S
C829 H871 0.930 . S
C830 C831 1.348 . S
C830 C832 1.356 . S
C830 O855 1.325 . S
C831 C830 1.348 . S
C831 C833 1.353 . S
C831 H872 0.929 . S
C832 C830 1.356 . S
C832 C834 1.358 . S
C832 H873 0.930 . S
C833 C831 1.353 . S
C833 N835 1.314 . S
C833 H874 0.930 . S
C834 C832 1.358 . S
C834 N835 1.279 . S
C834 H875 0.930 . S
N835 C833 1.314 . S
N835 C834 1.279 . S
C836 C838 1.353 . S
C836 N839 1.314 . S
C836 H842 0.930 . S
C837 N839 1.279 . S
C837 C840 1.358 . S
C837 H843 0.930 . S
C838 C836 1.353 . S
C838 C841 1.348 . S
C838 H876 0.929 . S
N839 Li794 1.990 . S
N839 C836 1.314 . S
N839 C837 1.279 . S
C840 C837 1.358 . S
C840 C841 1.356 . S
C840 H877 0.930 . S
C841 C838 1.348 . S
C841 C840 1.356 . S
H842 C836 0.930 . S
H843 C837 0.930 . S
C844 N845 1.314 . S
C844 C846 1.353 . S
C844 H850 0.930 . S
N845 Li795 1.990 . S
N845 C844 1.314 . S
N845 C848 1.279 . S
C846 C844 1.353 . S
C846 C849 1.348 . S
C846 H878 0.929 . S
C847 C848 1.358 . S
C847 C849 1.356 . S
C847 H879 0.930 . S
C848 N845 1.279 . S
C848 C847 1.358 . S
C848 H851 0.930 . S
C849 C846 1.348 . S
C849 C847 1.356 . S
H850 C844 0.930 . S
H851 C848 0.930 . S
O852 Li792 1.956 . S
O852 Li793 1.970 . S
O852 Li794 1.961 . S
O852 C796 1.325 . S
O853 Li792 1.970 . S
O853 Li793 1.956 . S
O853 Li795 1.961 . S
O853 C802 1.325 . S
O854 Li792 1.961 . S
O854 Li794 1.956 . S
O854 Li795 1.970 . S
O854 C824 1.325 . S
O855 Li793 1.961 . S
O855 Li794 1.970 . S
O855 Li795 1.956 . S
O855 C830 1.325 . S
H856 C798 0.929 . S
H857 C799 0.930 . S
H858 C800 0.930 . S
H859 C801 0.930 . S
H860 C803 0.930 . S
H861 C805 0.929 . S
H862 C806 0.930 . S
H863 C807 0.930 . S
H864 C810 0.930 . S
H865 C813 0.929 . S
H866 C818 0.929 . S
H867 C819 0.930 . S
H868 C826 0.929 . S
H869 C827 0.930 . S
H870 C828 0.930 . S
H871 C829 0.930 . S
H872 C831 0.929 . S
H873 C832 0.930 . S
H874 C833 0.930 . S
H875 C834 0.930 . S
H876 C838 0.929 . S
H877 C840 0.930 . S
H878 C846 0.929 . S
H879 C847 0.930 . S
Li880 N897 1.990 . S
Li880 O940 1.956 1_556 S
Li880 O941 1.970 . S
Li880 O942 1.961 . S
Li881 N905 1.990 . S
Li881 O940 1.970 . S
Li881 O941 1.956 1_554 S
Li881 O943 1.961 . S
Li882 N927 1.990 . S
Li882 O940 1.961 . S
Li882 O942 1.956 1_554 S
Li882 O943 1.970 . S
Li883 N933 1.990 . S
Li883 O941 1.961 . S
Li883 O942 1.970 . S
Li883 O943 1.956 1_556 S
C884 C886 1.348 . S
C884 C887 1.356 . S
C884 O940 1.325 . S
N885 C888 1.314 . S
N885 C889 1.279 . S
C886 C884 1.348 . S
C886 C888 1.353 . S
C886 H944 0.929 . S
C887 C884 1.356 . S
C887 C889 1.358 . S
C887 H945 0.930 1_554 S
C888 N885 1.314 . S
C888 C886 1.353 . S
C888 H946 0.930 . S
C889 N885 1.279 . S
C889 C887 1.358 . S
C889 H947 0.930 1_554 S
C890 C893 1.348 . S
C890 C894 1.356 . S
C890 O941 1.325 . S
C891 N892 1.279 . S
C891 C894 1.358 . S
C891 H948 0.930 1_556 S
N892 C891 1.279 . S
N892 C895 1.314 . S
C893 C890 1.348 . S
C893 C895 1.353 . S
C893 H949 0.929 . S
C894 C890 1.356 . S
C894 C891 1.358 . S
C894 H950 0.930 1_556 S
C895 N892 1.314 . S
C895 C893 1.353 . S
C895 H951 0.930 . S
C896 N897 1.314 . S
C896 C901 1.353 . S
C896 H902 0.930 . S
N897 Li880 1.990 . S
N897 C896 1.314 . S
N897 C899 1.279 . S
C898 C899 1.358 . S
C898 C900 1.356 . S
C898 H952 0.930 . S
C899 N897 1.279 . S
C899 C898 1.358 . S
C899 H903 0.930 . S
C900 C898 1.356 . S
C900 C901 1.348 . S
C901 C896 1.353 . S
C901 C900 1.348 . S
C901 H953 0.929 . S
H902 C896 0.930 . S
H903 C899 0.930 . S
C904 N905 1.314 . S
C904 C906 1.353 . S
C904 H910 0.930 . S
N905 Li881 1.990 . S
N905 C904 1.314 . S
N905 C908 1.279 . S
C906 C904 1.353 . S
C906 C909 1.348 . S
C906 H954 0.929 . S
C907 C908 1.358 . S
C907 C909 1.356 . S
C907 H955 0.930 . S
C908 N905 1.279 . S
C908 C907 1.358 . S
C908 H911 0.930 . S
C909 C906 1.348 . S
C909 C907 1.356 . S
H910 C904 0.930 . S
H911 C908 0.930 . S
C912 C914 1.348 . S
C912 C915 1.356 . S
C912 O942 1.325 . S
N913 C916 1.314 . S
N913 C917 1.279 . S
C914 C912 1.348 . S
C914 C916 1.353 . S
C914 H956 0.929 . S
C915 C912 1.356 . S
C915 C917 1.358 . S
C915 H957 0.930 . S
C916 N913 1.314 . S
C916 C914 1.353 . S
C916 H958 0.930 . S
C917 N913 1.279 . S
C917 C915 1.358 . S
C917 H959 0.930 . S
C918 C919 1.348 . S
C918 C920 1.356 . S
C918 O943 1.325 . S
C919 C918 1.348 . S
C919 C921 1.353 . S
C919 H960 0.929 . S
C920 C918 1.356 . S
C920 C922 1.358 . S
C920 H961 0.930 . S
C921 C919 1.353 . S
C921 N923 1.314 . S
C921 H962 0.930 . S
C922 C920 1.358 . S
C922 N923 1.279 . S
C922 H963 0.930 . S
N923 C921 1.314 . S
N923 C922 1.279 . S
C924 C926 1.353 . S
C924 N927 1.314 . S
C924 H930 0.930 . S
C925 N927 1.279 1_556 S
C925 C928 1.358 1_556 S
C925 H931 0.930 . S
C926 C924 1.353 . S
C926 C929 1.348 . S
C926 H964 0.929 . S
N927 Li882 1.990 . S
N927 C924 1.314 . S
N927 C925 1.279 1_554 S
C928 C925 1.358 1_554 S
C928 C929 1.356 . S
C928 H965 0.930 1_554 S
C929 C926 1.348 . S
C929 C928 1.356 . S
H930 C924 0.930 . S
H931 C925 0.930 . S
C932 N933 1.314 . S
C932 C934 1.353 . S
C932 H938 0.930 . S
N933 Li883 1.990 . S
N933 C932 1.314 . S
N933 C936 1.279 1_556 S
C934 C932 1.353 . S
C934 C937 1.348 . S
C934 H966 0.929 . S
C935 C936 1.358 1_556 S
C935 C937 1.356 . S
C935 H967 0.930 1_556 S
C936 N933 1.279 1_554 S
C936 C935 1.358 1_554 S
C936 H939 0.930 . S
C937 C934 1.348 . S
C937 C935 1.356 . S
H938 C932 0.930 . S
H939 C936 0.930 . S
O940 Li880 1.956 1_554 S
O940 Li881 1.970 . S
O940 Li882 1.961 . S
O940 C884 1.325 . S
O941 Li880 1.970 . S
O941 Li881 1.956 1_556 S
O941 Li883 1.961 . S
O941 C890 1.325 . S
O942 Li880 1.961 . S
O942 Li882 1.956 1_556 S
O942 Li883 1.970 . S
O942 C912 1.325 . S
O943 Li881 1.961 . S
O943 Li882 1.970 . S
O943 Li883 1.956 1_554 S
O943 C918 1.325 . S
H944 C886 0.929 . S
H945 C887 0.930 1_556 S
H946 C888 0.930 . S
H947 C889 0.930 1_556 S
H948 C891 0.930 1_554 S
H949 C893 0.929 . S
H950 C894 0.930 1_554 S
H951 C895 0.930 . S
H952 C898 0.930 . S
H953 C901 0.929 . S
H954 C906 0.929 . S
H955 C907 0.930 . S
H956 C914 0.929 . S
H957 C915 0.930 . S
H958 C916 0.930 . S
H959 C917 0.930 . S
H960 C919 0.929 . S
H961 C920 0.930 . S
H962 C921 0.930 . S
H963 C922 0.930 . S
H964 C926 0.929 . S
H965 C928 0.930 1_556 S
H966 C934 0.929 . S
H967 C935 0.930 1_554 S
Li968 N985 1.990 . S
Li968 O1028 1.956 . S
Li968 O1029 1.970 . S
Li968 O1030 1.961 . S
Li969 N993 1.990 . S
Li969 O1028 1.970 . S
Li969 O1029 1.956 . S
Li969 O1031 1.961 . S
Li970 N1015 1.990 . S
Li970 O1028 1.961 . S
Li970 O1030 1.956 . S
Li970 O1031 1.970 . S
Li971 N1021 1.990 . S
Li971 O1029 1.961 . S
Li971 O1030 1.970 . S
Li971 O1031 1.956 . S
C972 C974 1.348 . S
C972 C975 1.356 . S
C972 O1028 1.325 . S
N973 C976 1.314 . S
N973 C977 1.279 . S
C974 C972 1.348 . S
C974 C976 1.353 . S
C974 H1032 0.929 . S
C975 C972 1.356 . S
C975 C977 1.358 . S
C975 H1033 0.930 . S
C976 N973 1.314 . S
C976 C974 1.353 . S
C976 H1034 0.930 . S
C977 N973 1.279 . S
C977 C975 1.358 . S
C977 H1035 0.930 . S
C978 C981 1.348 . S
C978 C982 1.356 . S
C978 O1029 1.325 . S
C979 N980 1.279 . S
C979 C982 1.358 . S
C979 H1036 0.930 . S
N980 C979 1.279 . S
N980 C983 1.314 . S
C981 C978 1.348 . S
C981 C983 1.353 . S
C981 H1037 0.929 . S
C982 C978 1.356 . S
C982 C979 1.358 . S
C982 H1038 0.930 . S
C983 N980 1.314 . S
C983 C981 1.353 . S
C983 H1039 0.930 . S
C984 N985 1.314 . S
C984 C989 1.353 . S
C984 H990 0.930 . S
N985 Li968 1.990 . S
N985 C984 1.314 . S
N985 C987 1.279 . S
C986 C987 1.358 . S
C986 C988 1.356 . S
C986 H1040 0.930 . S
C987 N985 1.279 . S
C987 C986 1.358 . S
C987 H991 0.930 . S
C988 C986 1.356 . S
C988 C989 1.348 . S
C989 C984 1.353 . S
C989 C988 1.348 . S
C989 H1041 0.929 . S
H990 C984 0.930 . S
H991 C987 0.930 . S
C992 N993 1.314 . S
C992 C994 1.353 . S
C992 H998 0.930 . S
N993 Li969 1.990 . S
N993 C992 1.314 . S
N993 C996 1.279 . S
C994 C992 1.353 . S
C994 C997 1.348 . S
C994 H1042 0.929 . S
C995 C996 1.358 . S
C995 C997 1.356 . S
C995 H1043 0.930 . S
C996 N993 1.279 . S
C996 C995 1.358 . S
C996 H999 0.930 . S
C997 C994 1.348 . S
C997 C995 1.356 . S
H998 C992 0.930 . S
H999 C996 0.930 . S
C1000 C1002 1.348 . S
C1000 C1003 1.356 . S
C1000 O1030 1.325 . S
N1001 C1004 1.314 . S
N1001 C1005 1.279 . S
C1002 C1000 1.348 . S
C1002 C1004 1.353 . S
C1002 H1044 0.929 . S
C1003 C1000 1.356 . S
C1003 C1005 1.358 . S
C1003 H1045 0.930 . S
C1004 N1001 1.314 . S
C1004 C1002 1.353 . S
C1004 H1046 0.930 . S
C1005 N1001 1.279 . S
C1005 C1003 1.358 . S
C1005 H1047 0.930 . S
C1006 C1007 1.348 . S
C1006 C1008 1.356 . S
C1006 O1031 1.325 . S
C1007 C1006 1.348 . S
C1007 C1009 1.353 . S
C1007 H1048 0.929 . S
C1008 C1006 1.356 . S
C1008 C1010 1.358 . S
C1008 H1049 0.930 . S
C1009 C1007 1.353 . S
C1009 N1011 1.314 . S
C1009 H1050 0.930 . S
C1010 C1008 1.358 . S
C1010 N1011 1.279 . S
C1010 H1051 0.930 . S
N1011 C1009 1.314 . S
N1011 C1010 1.279 . S
C1012 C1014 1.353 . S
C1012 N1015 1.314 . S
C1012 H1018 0.930 . S
C1013 N1015 1.279 . S
C1013 C1016 1.358 . S
C1013 H1019 0.930 . S
C1014 C1012 1.353 . S
C1014 C1017 1.348 . S
C1014 H1052 0.929 . S
N1015 Li970 1.990 . S
N1015 C1012 1.314 . S
N1015 C1013 1.279 . S
C1016 C1013 1.358 . S
C1016 C1017 1.356 . S
C1016 H1053 0.930 . S
C1017 C1014 1.348 . S
C1017 C1016 1.356 . S
H1018 C1012 0.930 . S
H1019 C1013 0.930 . S
C1020 N1021 1.314 . S
C1020 C1022 1.353 . S
C1020 H1026 0.930 . S
N1021 Li971 1.990 . S
N1021 C1020 1.314 . S
N1021 C1024 1.279 . S
C1022 C1020 1.353 . S
C1022 C1025 1.348 . S
C1022 H1054 0.929 . S
C1023 C1024 1.358 . S
C1023 C1025 1.356 . S
C1023 H1055 0.930 . S
C1024 N1021 1.279 . S
C1024 C1023 1.358 . S
C1024 H1027 0.930 . S
C1025 C1022 1.348 . S
C1025 C1023 1.356 . S
H1026 C1020 0.930 . S
H1027 C1024 0.930 . S
O1028 Li968 1.956 . S
O1028 Li969 1.970 . S
O1028 Li970 1.961 . S
O1028 C972 1.325 . S
O1029 Li968 1.970 . S
O1029 Li969 1.956 . S
O1029 Li971 1.961 . S
O1029 C978 1.325 . S
O1030 Li968 1.961 . S
O1030 Li970 1.956 . S
O1030 Li971 1.970 . S
O1030 C1000 1.325 . S
O1031 Li969 1.961 . S
O1031 Li970 1.970 . S
O1031 Li971 1.956 . S
O1031 C1006 1.325 . S
H1032 C974 0.929 . S
H1033 C975 0.930 . S
H1034 C976 0.930 . S
H1035 C977 0.930 . S
H1036 C979 0.930 . S
H1037 C981 0.929 . S
H1038 C982 0.930 . S
H1039 C983 0.930 . S
H1040 C986 0.930 . S
H1041 C989 0.929 . S
H1042 C994 0.929 . S
H1043 C995 0.930 . S
H1044 C1002 0.929 . S
H1045 C1003 0.930 . S
H1046 C1004 0.930 . S
H1047 C1005 0.930 . S
H1048 C1007 0.929 . S
H1049 C1008 0.930 . S
H1050 C1009 0.930 . S
H1051 C1010 0.930 . S
H1052 C1014 0.929 . S
H1053 C1016 0.930 . S
H1054 C1022 0.929 . S
H1055 C1023 0.930 . S
Li1056 N1073 1.990 . S
Li1056 O1116 1.956 . S
Li1056 O1117 1.970 . S
Li1056 O1118 1.961 . S
Li1057 N1081 1.990 . S
Li1057 O1116 1.970 . S
Li1057 O1117 1.956 . S
Li1057 O1119 1.961 . S
Li1058 N1103 1.990 . S
Li1058 O1116 1.961 . S
Li1058 O1118 1.956 . S
Li1058 O1119 1.970 . S
Li1059 N1109 1.990 . S
Li1059 O1117 1.961 . S
Li1059 O1118 1.970 . S
Li1059 O1119 1.956 . S
C1060 C1062 1.348 . S
C1060 C1063 1.356 . S
C1060 O1116 1.325 . S
N1061 C1064 1.314 . S
N1061 C1065 1.279 . S
C1062 C1060 1.348 . S
C1062 C1064 1.353 . S
C1062 H1120 0.929 . S
C1063 C1060 1.356 . S
C1063 C1065 1.358 . S
C1063 H1121 0.930 . S
C1064 N1061 1.314 . S
C1064 C1062 1.353 . S
C1064 H1122 0.930 . S
C1065 N1061 1.279 . S
C1065 C1063 1.358 . S
C1065 H1123 0.930 . S
C1066 C1069 1.348 . S
C1066 C1070 1.356 . S
C1066 O1117 1.325 . S
C1067 N1068 1.279 . S
C1067 C1070 1.358 . S
C1067 H1124 0.930 . S
N1068 C1067 1.279 . S
N1068 C1071 1.314 . S
C1069 C1066 1.348 . S
C1069 C1071 1.353 . S
C1069 H1125 0.929 . S
C1070 C1066 1.356 . S
C1070 C1067 1.358 . S
C1070 H1126 0.930 . S
C1071 N1068 1.314 . S
C1071 C1069 1.353 . S
C1071 H1127 0.930 . S
C1072 N1073 1.314 . S
C1072 C1077 1.353 . S
C1072 H1078 0.930 . S
N1073 Li1056 1.990 . S
N1073 C1072 1.314 . S
N1073 C1075 1.279 . S
C1074 C1075 1.358 . S
C1074 C1076 1.356 . S
C1074 H1128 0.930 . S
C1075 N1073 1.279 . S
C1075 C1074 1.358 . S
C1075 H1079 0.930 . S
C1076 C1074 1.356 . S
C1076 C1077 1.348 . S
C1077 C1072 1.353 . S
C1077 C1076 1.348 . S
C1077 H1129 0.929 . S
H1078 C1072 0.930 . S
H1079 C1075 0.930 . S
C1080 N1081 1.314 . S
C1080 C1082 1.353 . S
C1080 H1086 0.930 . S
N1081 Li1057 1.990 . S
N1081 C1080 1.314 . S
N1081 C1084 1.279 . S
C1082 C1080 1.353 . S
C1082 C1085 1.348 . S
C1082 H1130 0.929 . S
C1083 C1084 1.358 . S
C1083 C1085 1.356 . S
C1083 H1131 0.930 . S
C1084 N1081 1.279 . S
C1084 C1083 1.358 . S
C1084 H1087 0.930 . S
C1085 C1082 1.348 . S
C1085 C1083 1.356 . S
H1086 C1080 0.930 . S
H1087 C1084 0.930 . S
C1088 C1090 1.348 . S
C1088 C1091 1.356 . S
C1088 O1118 1.325 . S
N1089 C1092 1.314 . S
N1089 C1093 1.279 . S
C1090 C1088 1.348 . S
C1090 C1092 1.353 . S
C1090 H1132 0.929 . S
C1091 C1088 1.356 . S
C1091 C1093 1.358 . S
C1091 H1133 0.930 . S
C1092 N1089 1.314 . S
C1092 C1090 1.353 . S
C1092 H1134 0.930 . S
C1093 N1089 1.279 . S
C1093 C1091 1.358 . S
C1093 H1135 0.930 . S
C1094 C1095 1.348 . S
C1094 C1096 1.356 . S
C1094 O1119 1.325 . S
C1095 C1094 1.348 . S
C1095 C1097 1.353 . S
C1095 H1136 0.929 . S
C1096 C1094 1.356 . S
C1096 C1098 1.358 . S
C1096 H1137 0.930 . S
C1097 C1095 1.353 . S
C1097 N1099 1.314 . S
C1097 H1138 0.930 . S
C1098 C1096 1.358 . S
C1098 N1099 1.279 . S
C1098 H1139 0.930 . S
N1099 C1097 1.314 . S
N1099 C1098 1.279 . S
C1100 C1102 1.353 . S
C1100 N1103 1.314 . S
C1100 H1106 0.930 . S
C1101 N1103 1.279 . S
C1101 C1104 1.358 . S
C1101 H1107 0.930 . S
C1102 C1100 1.353 . S
C1102 C1105 1.348 . S
C1102 H1140 0.929 . S
N1103 Li1058 1.990 . S
N1103 C1100 1.314 . S
N1103 C1101 1.279 . S
C1104 C1101 1.358 . S
C1104 C1105 1.356 . S
C1104 H1141 0.930 . S
C1105 C1102 1.348 . S
C1105 C1104 1.356 . S
H1106 C1100 0.930 . S
H1107 C1101 0.930 . S
C1108 N1109 1.314 . S
C1108 C1110 1.353 . S
C1108 H1114 0.930 . S
N1109 Li1059 1.990 . S
N1109 C1108 1.314 . S
N1109 C1112 1.279 . S
C1110 C1108 1.353 . S
C1110 C1113 1.348 . S
C1110 H1142 0.929 . S
C1111 C1112 1.358 . S
C1111 C1113 1.356 . S
C1111 H1143 0.930 . S
C1112 N1109 1.279 . S
C1112 C1111 1.358 . S
C1112 H1115 0.930 . S
C1113 C1110 1.348 . S
C1113 C1111 1.356 . S
H1114 C1108 0.930 . S
H1115 C1112 0.930 . S
O1116 Li1056 1.956 . S
O1116 Li1057 1.970 . S
O1116 Li1058 1.961 . S
O1116 C1060 1.325 . S
O1117 Li1056 1.970 . S
O1117 Li1057 1.956 . S
O1117 Li1059 1.961 . S
O1117 C1066 1.325 . S
O1118 Li1056 1.961 . S
O1118 Li1058 1.956 . S
O1118 Li1059 1.970 . S
O1118 C1088 1.325 . S
O1119 Li1057 1.961 . S
O1119 Li1058 1.970 . S
O1119 Li1059 1.956 . S
O1119 C1094 1.325 . S
H1120 C1062 0.929 . S
H1121 C1063 0.930 . S
H1122 C1064 0.930 . S
H1123 C1065 0.930 . S
H1124 C1067 0.930 . S
H1125 C1069 0.929 . S
H1126 C1070 0.930 . S
H1127 C1071 0.930 . S
H1128 C1074 0.930 . S
H1129 C1077 0.929 . S
H1130 C1082 0.929 . S
H1131 C1083 0.930 . S
H1132 C1090 0.929 . S
H1133 C1091 0.930 . S
H1134 C1092 0.930 . S
H1135 C1093 0.930 . S
H1136 C1095 0.929 . S
H1137 C1096 0.930 . S
H1138 C1097 0.930 . S
H1139 C1098 0.930 . S
H1140 C1102 0.929 . S
H1141 C1104 0.930 . S
H1142 C1110 0.929 . S
H1143 C1111 0.930 . S
Li1144 N1161 1.990 . S
Li1144 O1204 1.956 . S
Li1144 O1205 1.970 . S
Li1144 O1206 1.961 . S
Li1145 N1169 1.990 . S
Li1145 O1204 1.970 . S
Li1145 O1205 1.956 . S
Li1145 O1207 1.961 . S
Li1146 N1191 1.990 . S
Li1146 O1204 1.961 . S
Li1146 O1206 1.956 . S
Li1146 O1207 1.970 . S
Li1147 N1197 1.990 . S
Li1147 O1205 1.961 . S
Li1147 O1206 1.970 . S
Li1147 O1207 1.956 . S
C1148 C1150 1.348 . S
C1148 C1151 1.356 . S
C1148 O1204 1.325 . S
N1149 C1152 1.314 . S
N1149 C1153 1.279 . S
C1150 C1148 1.348 . S
C1150 C1152 1.353 . S
C1150 H1208 0.929 . S
C1151 C1148 1.356 . S
C1151 C1153 1.358 . S
C1151 H1209 0.930 . S
C1152 N1149 1.314 . S
C1152 C1150 1.353 . S
C1152 H1210 0.930 . S
C1153 N1149 1.279 . S
C1153 C1151 1.358 . S
C1153 H1211 0.930 . S
C1154 C1157 1.348 . S
C1154 C1158 1.356 . S
C1154 O1205 1.325 . S
C1155 N1156 1.279 . S
C1155 C1158 1.358 . S
C1155 H1212 0.930 . S
N1156 C1155 1.279 . S
N1156 C1159 1.314 . S
C1157 C1154 1.348 . S
C1157 C1159 1.353 . S
C1157 H1213 0.929 . S
C1158 C1154 1.356 . S
C1158 C1155 1.358 . S
C1158 H1214 0.930 . S
C1159 N1156 1.314 . S
C1159 C1157 1.353 . S
C1159 H1215 0.930 . S
C1160 N1161 1.314 . S
C1160 C1165 1.353 . S
C1160 H1166 0.930 . S
N1161 Li1144 1.990 . S
N1161 C1160 1.314 . S
N1161 C1163 1.279 . S
C1162 C1163 1.358 . S
C1162 C1164 1.356 . S
C1162 H1216 0.930 . S
C1163 N1161 1.279 . S
C1163 C1162 1.358 . S
C1163 H1167 0.930 . S
C1164 C1162 1.356 . S
C1164 C1165 1.348 . S
C1165 C1160 1.353 . S
C1165 C1164 1.348 . S
C1165 H1217 0.929 . S
H1166 C1160 0.930 . S
H1167 C1163 0.930 . S
C1168 N1169 1.314 . S
C1168 C1170 1.353 . S
C1168 H1174 0.930 . S
N1169 Li1145 1.990 . S
N1169 C1168 1.314 . S
N1169 C1172 1.279 . S
C1170 C1168 1.353 . S
C1170 C1173 1.348 . S
C1170 H1218 0.929 . S
C1171 C1172 1.358 . S
C1171 C1173 1.356 . S
C1171 H1219 0.930 . S
C1172 N1169 1.279 . S
C1172 C1171 1.358 . S
C1172 H1175 0.930 . S
C1173 C1170 1.348 . S
C1173 C1171 1.356 . S
H1174 C1168 0.930 . S
H1175 C1172 0.930 . S
C1176 C1178 1.348 . S
C1176 C1179 1.356 . S
C1176 O1206 1.325 . S
N1177 C1180 1.314 . S
N1177 C1181 1.279 . S
C1178 C1176 1.348 . S
C1178 C1180 1.353 . S
C1178 H1220 0.929 . S
C1179 C1176 1.356 . S
C1179 C1181 1.358 . S
C1179 H1221 0.930 . S
C1180 N1177 1.314 . S
C1180 C1178 1.353 . S
C1180 H1222 0.930 . S
C1181 N1177 1.279 . S
C1181 C1179 1.358 . S
C1181 H1223 0.930 . S
C1182 C1183 1.348 . S
C1182 C1184 1.356 . S
C1182 O1207 1.325 . S
C1183 C1182 1.348 . S
C1183 C1185 1.353 . S
C1183 H1224 0.929 . S
C1184 C1182 1.356 . S
C1184 C1186 1.358 . S
C1184 H1225 0.930 . S
C1185 C1183 1.353 . S
C1185 N1187 1.314 . S
C1185 H1226 0.930 . S
C1186 C1184 1.358 . S
C1186 N1187 1.279 . S
C1186 H1227 0.930 . S
N1187 C1185 1.314 . S
N1187 C1186 1.279 . S
C1188 C1190 1.353 . S
C1188 N1191 1.314 . S
C1188 H1194 0.930 . S
C1189 N1191 1.279 . S
C1189 C1192 1.358 . S
C1189 H1195 0.930 . S
C1190 C1188 1.353 . S
C1190 C1193 1.348 . S
C1190 H1228 0.929 . S
N1191 Li1146 1.990 . S
N1191 C1188 1.314 . S
N1191 C1189 1.279 . S
C1192 C1189 1.358 . S
C1192 C1193 1.356 . S
C1192 H1229 0.930 . S
C1193 C1190 1.348 . S
C1193 C1192 1.356 . S
H1194 C1188 0.930 . S
H1195 C1189 0.930 . S
C1196 N1197 1.314 . S
C1196 C1198 1.353 . S
C1196 H1202 0.930 . S
N1197 Li1147 1.990 . S
N1197 C1196 1.314 . S
N1197 C1200 1.279 . S
C1198 C1196 1.353 . S
C1198 C1201 1.348 . S
C1198 H1230 0.929 . S
C1199 C1200 1.358 . S
C1199 C1201 1.356 . S
C1199 H1231 0.930 . S
C1200 N1197 1.279 . S
C1200 C1199 1.358 . S
C1200 H1203 0.930 . S
C1201 C1198 1.348 . S
C1201 C1199 1.356 . S
H1202 C1196 0.930 . S
H1203 C1200 0.930 . S
O1204 Li1144 1.956 . S
O1204 Li1145 1.970 . S
O1204 Li1146 1.961 . S
O1204 C1148 1.325 . S
O1205 Li1144 1.970 . S
O1205 Li1145 1.956 . S
O1205 Li1147 1.961 . S
O1205 C1154 1.325 . S
O1206 Li1144 1.961 . S
O1206 Li1146 1.956 . S
O1206 Li1147 1.970 . S
O1206 C1176 1.325 . S
O1207 Li1145 1.961 . S
O1207 Li1146 1.970 . S
O1207 Li1147 1.956 . S
O1207 C1182 1.325 . S
H1208 C1150 0.929 . S
H1209 C1151 0.930 . S
H1210 C1152 0.930 . S
H1211 C1153 0.930 . S
H1212 C1155 0.930 . S
H1213 C1157 0.929 . S
H1214 C1158 0.930 . S
H1215 C1159 0.930 . S
H1216 C1162 0.930 . S
H1217 C1165 0.929 . S
H1218 C1170 0.929 . S
H1219 C1171 0.930 . S
H1220 C1178 0.929 . S
H1221 C1179 0.930 . S
H1222 C1180 0.930 . S
H1223 C1181 0.930 . S
H1224 C1183 0.929 . S
H1225 C1184 0.930 . S
H1226 C1185 0.930 . S
H1227 C1186 0.930 . S
H1228 C1190 0.929 . S
H1229 C1192 0.930 . S
H1230 C1198 0.929 . S
H1231 C1199 0.930 . S
Li1232 N1249 1.990 . S
Li1232 O1292 1.956 . S
Li1232 O1293 1.970 . S
Li1232 O1294 1.961 1_554 S
Li1233 N1257 1.990 . S
Li1233 O1292 1.970 . S
Li1233 O1293 1.956 . S
Li1233 O1295 1.961 1_554 S
Li1234 N1279 1.990 . S
Li1234 O1292 1.961 1_556 S
Li1234 O1294 1.956 . S
Li1234 O1295 1.970 . S
Li1235 N1285 1.990 . S
Li1235 O1293 1.961 1_556 S
Li1235 O1294 1.970 . S
Li1235 O1295 1.956 . S
C1236 C1238 1.348 . S
C1236 C1239 1.356 . S
C1236 O1292 1.325 . S
N1237 C1240 1.314 . S
N1237 C1241 1.279 . S
C1238 C1236 1.348 . S
C1238 C1240 1.353 . S
C1238 H1296 0.929 . S
C1239 C1236 1.356 . S
C1239 C1241 1.358 . S
C1239 H1297 0.930 . S
C1240 N1237 1.314 . S
C1240 C1238 1.353 . S
C1240 H1298 0.930 . S
C1241 N1237 1.279 . S
C1241 C1239 1.358 . S
C1241 H1299 0.930 . S
C1242 C1245 1.348 . S
C1242 C1246 1.356 1_554 S
C1242 O1293 1.325 . S
C1243 N1244 1.279 . S
C1243 C1246 1.358 1_554 S
C1243 H1300 0.930 1_554 S
N1244 C1243 1.279 . S
N1244 C1247 1.314 . S
C1245 C1242 1.348 . S
C1245 C1247 1.353 . S
C1245 H1301 0.929 . S
C1246 C1242 1.356 1_556 S
C1246 C1243 1.358 1_556 S
C1246 H1302 0.930 . S
C1247 N1244 1.314 . S
C1247 C1245 1.353 . S
C1247 H1303 0.930 . S
C1248 N1249 1.314 . S
C1248 C1253 1.353 . S
C1248 H1254 0.930 . S
N1249 Li1232 1.990 . S
N1249 C1248 1.314 . S
N1249 C1251 1.279 . S
C1250 C1251 1.358 . S
C1250 C1252 1.356 . S
C1250 H1304 0.930 . S
C1251 N1249 1.279 . S
C1251 C1250 1.358 . S
C1251 H1255 0.930 . S
C1252 C1250 1.356 . S
C1252 C1253 1.348 . S
C1253 C1248 1.353 . S
C1253 C1252 1.348 . S
C1253 H1305 0.929 . S
H1254 C1248 0.930 . S
H1255 C1251 0.930 . S
C1256 N1257 1.314 . S
C1256 C1258 1.353 . S
C1256 H1262 0.930 1_554 S
N1257 Li1233 1.990 . S
N1257 C1256 1.314 . S
N1257 C1260 1.279 . S
C1258 C1256 1.353 . S
C1258 C1261 1.348 . S
C1258 H1306 0.929 . S
C1259 C1260 1.358 . S
C1259 C1261 1.356 . S
C1259 H1307 0.930 . S
C1260 N1257 1.279 . S
C1260 C1259 1.358 . S
C1260 H1263 0.930 . S
C1261 C1258 1.348 . S
C1261 C1259 1.356 . S
H1262 C1256 0.930 1_556 S
H1263 C1260 0.930 . S
C1264 C1266 1.348 . S
C1264 C1267 1.356 1_556 S
C1264 O1294 1.325 . S
N1265 C1268 1.314 . S
N1265 C1269 1.279 . S
C1266 C1264 1.348 . S
C1266 C1268 1.353 . S
C1266 H1308 0.929 . S
C1267 C1264 1.356 1_554 S
C1267 C1269 1.358 1_554 S
C1267 H1309 0.930 . S
C1268 N1265 1.314 . S
C1268 C1266 1.353 . S
C1268 H1310 0.930 . S
C1269 N1265 1.279 . S
C1269 C1267 1.358 1_556 S
C1269 H1311 0.930 1_556 S
C1270 C1271 1.348 . S
C1270 C1272 1.356 . S
C1270 O1295 1.325 . S
C1271 C1270 1.348 . S
C1271 C1273 1.353 . S
C1271 H1312 0.929 . S
C1272 C1270 1.356 . S
C1272 C1274 1.358 . S
C1272 H1313 0.930 . S
C1273 C1271 1.353 . S
C1273 N1275 1.314 . S
C1273 H1314 0.930 . S
C1274 C1272 1.358 . S
C1274 N1275 1.279 . S
C1274 H1315 0.930 . S
N1275 C1273 1.314 . S
N1275 C1274 1.279 . S
C1276 C1278 1.353 . S
C1276 N1279 1.314 . S
C1276 H1282 0.930 1_556 S
C1277 N1279 1.279 . S
C1277 C1280 1.358 . S
C1277 H1283 0.930 . S
C1278 C1276 1.353 . S
C1278 C1281 1.348 . S
C1278 H1316 0.929 . S
N1279 Li1234 1.990 . S
N1279 C1276 1.314 . S
N1279 C1277 1.279 . S
C1280 C1277 1.358 . S
C1280 C1281 1.356 . S
C1280 H1317 0.930 . S
C1281 C1278 1.348 . S
C1281 C1280 1.356 . S
H1282 C1276 0.930 1_554 S
H1283 C1277 0.930 . S
C1284 N1285 1.314 . S
C1284 C1286 1.353 . S
C1284 H1290 0.930 . S
N1285 Li1235 1.990 . S
N1285 C1284 1.314 . S
N1285 C1288 1.279 . S
C1286 C1284 1.353 . S
C1286 C1289 1.348 . S
C1286 H1318 0.929 . S
C1287 C1288 1.358 . S
C1287 C1289 1.356 . S
C1287 H1319 0.930 . S
C1288 N1285 1.279 . S
C1288 C1287 1.358 . S
C1288 H1291 0.930 . S
C1289 C1286 1.348 . S
C1289 C1287 1.356 . S
H1290 C1284 0.930 . S
H1291 C1288 0.930 . S
O1292 Li1232 1.956 . S
O1292 Li1233 1.970 . S
O1292 Li1234 1.961 1_554 S
O1292 C1236 1.325 . S
O1293 Li1232 1.970 . S
O1293 Li1233 1.956 . S
O1293 Li1235 1.961 1_554 S
O1293 C1242 1.325 . S
O1294 Li1232 1.961 1_556 S
O1294 Li1234 1.956 . S
O1294 Li1235 1.970 . S
O1294 C1264 1.325 . S
O1295 Li1233 1.961 1_556 S
O1295 Li1234 1.970 . S
O1295 Li1235 1.956 . S
O1295 C1270 1.325 . S
H1296 C1238 0.929 . S
H1297 C1239 0.930 . S
H1298 C1240 0.930 . S
H1299 C1241 0.930 . S
H1300 C1243 0.930 1_556 S
H1301 C1245 0.929 . S
H1302 C1246 0.930 . S
H1303 C1247 0.930 . S
H1304 C1250 0.930 . S
H1305 C1253 0.929 . S
H1306 C1258 0.929 . S
H1307 C1259 0.930 . S
H1308 C1266 0.929 . S
H1309 C1267 0.930 . S
H1310 C1268 0.930 . S
H1311 C1269 0.930 1_554 S
H1312 C1271 0.929 . S
H1313 C1272 0.930 . S
H1314 C1273 0.930 . S
H1315 C1274 0.930 . S
H1316 C1278 0.929 . S
H1317 C1280 0.930 . S
H1318 C1286 0.929 . S
H1319 C1287 0.930 . S
Li1320 N1337 1.990 . S
Li1320 O1380 1.956 . S
Li1320 O1381 1.970 . S
Li1320 O1382 1.961 . S
Li1321 N1345 1.990 . S
Li1321 O1380 1.970 . S
Li1321 O1381 1.956 . S
Li1321 O1383 1.961 . S
Li1322 N1367 1.990 . S
Li1322 O1380 1.961 . S
Li1322 O1382 1.956 . S
Li1322 O1383 1.970 . S
Li1323 N1373 1.990 . S
Li1323 O1381 1.961 . S
Li1323 O1382 1.970 . S
Li1323 O1383 1.956 . S
C1324 C1326 1.348 . S
C1324 C1327 1.356 . S
C1324 O1380 1.325 . S
N1325 C1328 1.314 . S
N1325 C1329 1.279 . S
C1326 C1324 1.348 . S
C1326 C1328 1.353 . S
C1326 H1384 0.929 . S
C1327 C1324 1.356 . S
C1327 C1329 1.358 . S
C1327 H1385 0.930 . S
C1328 N1325 1.314 . S
C1328 C1326 1.353 . S
C1328 H1386 0.930 . S
C1329 N1325 1.279 . S
C1329 C1327 1.358 . S
C1329 H1387 0.930 . S
C1330 C1333 1.348 . S
C1330 C1334 1.356 . S
C1330 O1381 1.325 . S
C1331 N1332 1.279 . S
C1331 C1334 1.358 . S
C1331 H1388 0.930 . S
N1332 C1331 1.279 . S
N1332 C1335 1.314 . S
C1333 C1330 1.348 . S
C1333 C1335 1.353 . S
C1333 H1389 0.929 . S
C1334 C1330 1.356 . S
C1334 C1331 1.358 . S
C1334 H1390 0.930 . S
C1335 N1332 1.314 . S
C1335 C1333 1.353 . S
C1335 H1391 0.930 . S
C1336 N1337 1.314 . S
C1336 C1341 1.353 . S
C1336 H1342 0.930 . S
N1337 Li1320 1.990 . S
N1337 C1336 1.314 . S
N1337 C1339 1.279 . S
C1338 C1339 1.358 . S
C1338 C1340 1.356 . S
C1338 H1392 0.930 . S
C1339 N1337 1.279 . S
C1339 C1338 1.358 . S
C1339 H1343 0.930 . S
C1340 C1338 1.356 . S
C1340 C1341 1.348 . S
C1341 C1336 1.353 . S
C1341 C1340 1.348 . S
C1341 H1393 0.929 . S
H1342 C1336 0.930 . S
H1343 C1339 0.930 . S
C1344 N1345 1.314 . S
C1344 C1346 1.353 . S
C1344 H1350 0.930 . S
N1345 Li1321 1.990 . S
N1345 C1344 1.314 . S
N1345 C1348 1.279 . S
C1346 C1344 1.353 . S
C1346 C1349 1.348 . S
C1346 H1394 0.929 . S
C1347 C1348 1.358 . S
C1347 C1349 1.356 . S
C1347 H1395 0.930 . S
C1348 N1345 1.279 . S
C1348 C1347 1.358 . S
C1348 H1351 0.930 . S
C1349 C1346 1.348 . S
C1349 C1347 1.356 . S
H1350 C1344 0.930 . S
H1351 C1348 0.930 . S
C1352 C1354 1.348 . S
C1352 C1355 1.356 . S
C1352 O1382 1.325 . S
N1353 C1356 1.314 . S
N1353 C1357 1.279 . S
C1354 C1352 1.348 . S
C1354 C1356 1.353 . S
C1354 H1396 0.929 . S
C1355 C1352 1.356 . S
C1355 C1357 1.358 . S
C1355 H1397 0.930 . S
C1356 N1353 1.314 . S
C1356 C1354 1.353 . S
C1356 H1398 0.930 . S
C1357 N1353 1.279 . S
C1357 C1355 1.358 . S
C1357 H1399 0.930 . S
C1358 C1359 1.348 . S
C1358 C1360 1.356 . S
C1358 O1383 1.325 . S
C1359 C1358 1.348 . S
C1359 C1361 1.353 . S
C1359 H1400 0.929 . S
C1360 C1358 1.356 . S
C1360 C1362 1.358 . S
C1360 H1401 0.930 . S
C1361 C1359 1.353 . S
C1361 N1363 1.314 . S
C1361 H1402 0.930 . S
C1362 C1360 1.358 . S
C1362 N1363 1.279 . S
C1362 H1403 0.930 . S
N1363 C1361 1.314 . S
N1363 C1362 1.279 . S
C1364 C1366 1.353 . S
C1364 N1367 1.314 . S
C1364 H1370 0.930 . S
C1365 N1367 1.279 . S
C1365 C1368 1.358 . S
C1365 H1371 0.930 . S
C1366 C1364 1.353 . S
C1366 C1369 1.348 . S
C1366 H1404 0.929 . S
N1367 Li1322 1.990 . S
N1367 C1364 1.314 . S
N1367 C1365 1.279 . S
C1368 C1365 1.358 . S
C1368 C1369 1.356 . S
C1368 H1405 0.930 . S
C1369 C1366 1.348 . S
C1369 C1368 1.356 . S
H1370 C1364 0.930 . S
H1371 C1365 0.930 . S
C1372 N1373 1.314 . S
C1372 C1374 1.353 . S
C1372 H1378 0.930 . S
N1373 Li1323 1.990 . S
N1373 C1372 1.314 . S
N1373 C1376 1.279 . S
C1374 C1372 1.353 . S
C1374 C1377 1.348 . S
C1374 H1406 0.929 . S
C1375 C1376 1.358 . S
C1375 C1377 1.356 . S
C1375 H1407 0.930 . S
C1376 N1373 1.279 . S
C1376 C1375 1.358 . S
C1376 H1379 0.930 . S
C1377 C1374 1.348 . S
C1377 C1375 1.356 . S
H1378 C1372 0.930 . S
H1379 C1376 0.930 . S
O1380 Li1320 1.956 . S
O1380 Li1321 1.970 . S
O1380 Li1322 1.961 . S
O1380 C1324 1.325 . S
O1381 Li1320 1.970 . S
O1381 Li1321 1.956 . S
O1381 Li1323 1.961 . S
O1381 C1330 1.325 . S
O1382 Li1320 1.961 . S
O1382 Li1322 1.956 . S
O1382 Li1323 1.970 . S
O1382 C1352 1.325 . S
O1383 Li1321 1.961 . S
O1383 Li1322 1.970 . S
O1383 Li1323 1.956 . S
O1383 C1358 1.325 . S
H1384 C1326 0.929 . S
H1385 C1327 0.930 . S
H1386 C1328 0.930 . S
H1387 C1329 0.930 . S
H1388 C1331 0.930 . S
H1389 C1333 0.929 . S
H1390 C1334 0.930 . S
H1391 C1335 0.930 . S
H1392 C1338 0.930 . S
H1393 C1341 0.929 . S
H1394 C1346 0.929 . S
H1395 C1347 0.930 . S
H1396 C1354 0.929 . S
H1397 C1355 0.930 . S
H1398 C1356 0.930 . S
H1399 C1357 0.930 . S
H1400 C1359 0.929 . S
H1401 C1360 0.930 . S
H1402 C1361 0.930 . S
H1403 C1362 0.930 . S
H1404 C1366 0.929 . S
H1405 C1368 0.930 . S
H1406 C1374 0.929 . S
H1407 C1375 0.930 . S
C1408 C1409 1.349 . S
C1408 C1410 1.327 . S
C1408 H1433 0.950 . S
C1409 C1408 1.349 . S
C1409 C1425 1.349 . S
C1410 C1408 1.327 . S
C1410 C1429 1.429 . S
C1410 H1434 0.950 . S
C1411 C1428 1.574 . S
C1411 C1430 1.368 . S
C1411 H1435 0.949 . S
H1412 C1416 0.949 . S
C1413 C1414 1.349 . S
C1413 C1415 1.327 . S
C1413 H1436 0.950 . S
C1414 C1413 1.349 . S
C1414 C1426 1.349 . S
C1415 C1413 1.327 . S
C1415 C1431 1.429 . S
C1415 H1437 0.950 . S
C1416 H1412 0.949 . S
C1416 C1424 1.574 . S
C1416 C1432 1.368 . S
H1417 C1425 0.950 . S
H1418 C1423 0.950 . S
H1419 C1424 0.949 . S
H1420 C1426 0.950 . S
H1421 C1427 0.950 . S
H1422 C1428 0.949 . S
C1423 H1418 0.950 . S
C1423 C1425 1.327 . S
C1423 C1429 1.429 . S
C1424 C1416 1.574 . S
C1424 H1419 0.949 . S
C1424 C1430 1.368 . S
C1425 C1409 1.349 . S
C1425 H1417 0.950 . S
C1425 C1423 1.327 . S
C1426 C1414 1.349 . S
C1426 H1420 0.950 . S
C1426 C1427 1.327 . S
C1427 H1421 0.950 . S
C1427 C1426 1.327 . S
C1427 C1431 1.429 . S
C1428 C1411 1.574 . S
C1428 H1422 0.949 . S
C1428 C1432 1.368 . S
C1429 C1410 1.429 . S
C1429 C1423 1.429 . S
C1429 C1430 1.523 . S
C1430 C1411 1.368 . S
C1430 C1424 1.368 . S
C1430 C1429 1.523 . S
C1431 C1415 1.429 . S
C1431 C1427 1.429 . S
C1431 C1432 1.523 . S
C1432 C1416 1.368 . S
C1432 C1428 1.368 . S
C1432 C1431 1.523 . S
H1433 C1408 0.950 . S
H1434 C1410 0.950 . S
H1435 C1411 0.949 . S
H1436 C1413 0.950 . S
H1437 C1415 0.950 . S
C1438 C1439 1.349 . S
C1438 C1440 1.327 . S
C1438 H1463 0.950 . S
C1439 C1438 1.349 . S
C1439 C1455 1.349 . S
C1440 C1438 1.327 . S
C1440 C1459 1.429 . S
C1440 H1464 0.950 . S
C1441 C1458 1.574 1_545 S
C1441 C1460 1.368 . S
C1441 H1465 0.949 . S
H1442 C1446 0.949 . S
C1443 C1444 1.349 . S
C1443 C1445 1.327 . S
C1443 H1466 0.950 . S
C1444 C1443 1.349 . S
C1444 C1456 1.349 . S
C1445 C1443 1.327 . S
C1445 C1461 1.429 . S
C1445 H1467 0.950 . S
C1446 H1442 0.949 . S
C1446 C1454 1.574 1_565 S
C1446 C1462 1.368 . S
H1447 C1455 0.950 . S
H1448 C1453 0.950 . S
H1449 C1454 0.949 . S
H1450 C1456 0.950 . S
H1451 C1457 0.950 . S
H1452 C1458 0.949 . S
C1453 H1448 0.950 . S
C1453 C1455 1.327 . S
C1453 C1459 1.429 . S
C1454 C1446 1.574 1_545 S
C1454 H1449 0.949 . S
C1454 C1460 1.368 1_455 S
C1455 C1439 1.349 . S
C1455 H1447 0.950 . S
C1455 C1453 1.327 . S
C1456 C1444 1.349 . S
C1456 H1450 0.950 . S
C1456 C1457 1.327 . S
C1457 H1451 0.950 . S
C1457 C1456 1.327 . S
C1457 C1461 1.429 . S
C1458 C1441 1.574 1_565 S
C1458 H1452 0.949 . S
C1458 C1462 1.368 1_655 S
C1459 C1440 1.429 . S
C1459 C1453 1.429 . S
C1459 C1460 1.523 . S
C1460 C1441 1.368 . S
C1460 C1454 1.368 1_655 S
C1460 C1459 1.523 . S
C1461 C1445 1.429 . S
C1461 C1457 1.429 . S
C1461 C1462 1.523 . S
C1462 C1446 1.368 . S
C1462 C1458 1.368 1_455 S
C1462 C1461 1.523 . S
H1463 C1438 0.950 . S
H1464 C1440 0.950 . S
H1465 C1441 0.949 . S
H1466 C1443 0.950 . S
H1467 C1445 0.950 . S
C1468 C1469 1.349 . S
C1468 C1470 1.327 . S
C1468 H1493 0.950 . S
C1469 C1468 1.349 . S
C1469 C1485 1.349 . S
C1470 C1468 1.327 . S
C1470 C1489 1.429 . S
C1470 H1494 0.950 . S
C1471 C1488 1.574 . S
C1471 C1490 1.368 . S
C1471 H1495 0.949 . S
H1472 C1476 0.949 . S
C1473 C1474 1.349 . S
C1473 C1475 1.327 . S
C1473 H1496 0.950 . S
C1474 C1473 1.349 . S
C1474 C1486 1.349 . S
C1475 C1473 1.327 . S
C1475 C1491 1.429 . S
C1475 H1497 0.950 . S
C1476 H1472 0.949 . S
C1476 C1484 1.574 . S
C1476 C1492 1.368 . S
H1477 C1485 0.950 . S
H1478 C1483 0.950 . S
H1479 C1484 0.949 . S
H1480 C1486 0.950 . S
H1481 C1487 0.950 . S
H1482 C1488 0.949 . S
C1483 H1478 0.950 . S
C1483 C1485 1.327 . S
C1483 C1489 1.429 . S
C1484 C1476 1.574 . S
C1484 H1479 0.949 . S
C1484 C1490 1.368 . S
C1485 C1469 1.349 . S
C1485 H1477 0.950 . S
C1485 C1483 1.327 . S
C1486 C1474 1.349 . S
C1486 H1480 0.950 . S
C1486 C1487 1.327 . S
C1487 H1481 0.950 . S
C1487 C1486 1.327 . S
C1487 C1491 1.429 . S
C1488 C1471 1.574 . S
C1488 H1482 0.949 . S
C1488 C1492 1.368 . S
C1489 C1470 1.429 . S
C1489 C1483 1.429 . S
C1489 C1490 1.523 . S
C1490 C1471 1.368 . S
C1490 C1484 1.368 . S
C1490 C1489 1.523 . S
C1491 C1475 1.429 . S
C1491 C1487 1.429 . S
C1491 C1492 1.523 . S
C1492 C1476 1.368 . S
C1492 C1488 1.368 . S
C1492 C1491 1.523 . S
H1493 C1468 0.950 . S
H1494 C1470 0.950 . S
H1495 C1471 0.949 . S
H1496 C1473 0.950 . S
H1497 C1475 0.950 . S
C1498 C1499 1.349 . S
C1498 C1500 1.315 1_545 S
C1498 H1523 0.950 1_545 S
C1499 C1498 1.349 . S
C1499 C1515 1.349 . S
C1500 C1498 1.315 1_565 S
C1500 C1519 1.404 1_565 S
C1500 H1524 0.989 . S
C1501 C1518 1.574 1_554 S
C1501 C1520 1.368 . S
C1501 H1525 0.949 . S
H1502 C1506 0.949 . S
C1503 C1504 1.349 . S
C1503 C1505 1.310 1_565 S
C1503 H1526 0.950 1_565 S
C1504 C1503 1.349 . S
C1504 C1516 1.349 . S
C1505 C1503 1.310 1_545 S
C1505 C1521 1.391 1_545 S
C1505 H1527 1.010 . S
C1506 H1502 0.949 . S
C1506 C1514 1.574 1_556 S
C1506 C1522 1.368 . S
H1507 C1515 0.950 . S
H1508 C1513 0.950 . S
H1509 C1514 0.949 . S
H1510 C1516 0.950 . S
H1511 C1517 0.950 . S
H1512 C1518 0.949 . S
C1513 H1508 0.950 . S
C1513 C1515 1.327 . S
C1513 C1519 1.429 . S
C1514 C1506 1.574 1_554 S
C1514 H1509 0.949 . S
C1514 C1520 1.368 1_565 S
C1515 C1499 1.349 . S
C1515 H1507 0.950 . S
C1515 C1513 1.327 . S
C1516 C1504 1.349 . S
C1516 H1510 0.950 . S
C1516 C1517 1.327 . S
C1517 H1511 0.950 . S
C1517 C1516 1.327 . S
C1517 C1521 1.429 . S
C1518 C1501 1.574 1_556 S
C1518 H1512 0.949 . S
C1518 C1522 1.368 1_545 S
C1519 C1500 1.404 1_545 S
C1519 C1513 1.429 . S
C1519 C1520 1.523 . S
C1520 C1501 1.368 . S
C1520 C1514 1.368 1_545 S
C1520 C1519 1.523 . S
C1521 C1505 1.391 1_565 S
C1521 C1517 1.429 . S
C1521 C1522 1.523 . S
C1522 C1506 1.368 . S
C1522 C1518 1.368 1_565 S
C1522 C1521 1.523 . S
H1523 C1498 0.950 1_565 S
H1524 C1500 0.989 . S
H1525 C1501 0.949 . S
H1526 C1503 0.950 1_545 S
H1527 C1505 1.010 . S
C1528 C1529 1.349 . S
C1528 C1530 1.327 . S
C1528 H1553 0.950 . S
C1529 C1528 1.349 . S
C1529 C1545 1.349 . S
C1530 C1528 1.327 . S
C1530 C1549 1.429 . S
C1530 H1554 0.950 . S
C1531 C1548 1.574 . S
C1531 C1550 1.368 . S
C1531 H1555 0.949 . S
H1532 C1536 0.949 . S
C1533 C1534 1.349 . S
C1533 C1535 1.327 . S
C1533 H1556 0.950 . S
C1534 C1533 1.349 . S
C1534 C1546 1.349 . S
C1535 C1533 1.327 . S
C1535 C1551 1.429 . S
C1535 H1557 0.950 . S
C1536 H1532 0.949 . S
C1536 C1544 1.574 . S
C1536 C1552 1.368 . S
H1537 C1545 0.950 . S
H1538 C1543 0.950 . S
H1539 C1544 0.949 . S
H1540 C1546 0.950 . S
H1541 C1547 0.950 . S
H1542 C1548 0.949 . S
C1543 H1538 0.950 . S
C1543 C1545 1.327 . S
C1543 C1549 1.429 . S
C1544 C1536 1.574 . S
C1544 H1539 0.949 . S
C1544 C1550 1.368 . S
C1545 C1529 1.349 . S
C1545 H1537 0.950 . S
C1545 C1543 1.327 . S
C1546 C1534 1.349 . S
C1546 H1540 0.950 . S
C1546 C1547 1.327 . S
C1547 H1541 0.950 . S
C1547 C1546 1.327 . S
C1547 C1551 1.429 . S
C1548 C1531 1.574 . S
C1548 H1542 0.949 . S
C1548 C1552 1.368 . S
C1549 C1530 1.429 . S
C1549 C1543 1.429 . S
C1549 C1550 1.523 . S
C1550 C1531 1.368 . S
C1550 C1544 1.368 . S
C1550 C1549 1.523 . S
C1551 C1535 1.429 . S
C1551 C1547 1.429 . S
C1551 C1552 1.523 . S
C1552 C1536 1.368 . S
C1552 C1548 1.368 . S
C1552 C1551 1.523 . S
H1553 C1528 0.950 . S
H1554 C1530 0.950 . S
H1555 C1531 0.949 . S
H1556 C1533 0.950 . S
H1557 C1535 0.950 . S
C1558 C1559 1.349 . S
C1558 C1560 1.327 . S
C1558 H1583 0.950 . S
C1559 C1558 1.349 . S
C1559 C1575 1.349 . S
C1560 C1558 1.327 . S
C1560 C1579 1.429 . S
C1560 H1584 0.950 1_565 S
C1561 C1578 1.574 . S
C1561 C1580 1.368 . S
C1561 H1585 0.949 . S
H1562 C1566 0.949 . S
C1563 C1564 1.349 . S
C1563 C1565 1.327 . S
C1563 H1586 0.950 . S
C1564 C1563 1.349 . S
C1564 C1576 1.349 . S
C1565 C1563 1.327 . S
C1565 C1581 1.429 . S
C1565 H1587 0.950 1_545 S
C1566 H1562 0.949 . S
C1566 C1574 1.574 . S
C1566 C1582 1.368 . S
H1567 C1575 0.950 . S
H1568 C1573 0.950 . S
H1569 C1574 0.949 . S
H1570 C1576 0.950 . S
H1571 C1577 0.950 . S
H1572 C1578 0.949 . S
C1573 H1568 0.950 . S
C1573 C1575 1.327 . S
C1573 C1579 1.429 . S
C1574 C1566 1.574 . S
C1574 H1569 0.949 . S
C1574 C1580 1.368 1_545 S
C1575 C1559 1.349 . S
C1575 H1567 0.950 . S
C1575 C1573 1.327 . S
C1576 C1564 1.349 . S
C1576 H1570 0.950 . S
C1576 C1577 1.327 . S
C1577 H1571 0.950 . S
C1577 C1576 1.327 . S
C1577 C1581 1.429 . S
C1578 C1561 1.574 . S
C1578 H1572 0.949 . S
C1578 C1582 1.368 1_565 S
C1579 C1560 1.429 . S
C1579 C1573 1.429 . S
C1579 C1580 1.523 . S
C1580 C1561 1.368 . S
C1580 C1574 1.368 1_565 S
C1580 C1579 1.523 . S
C1581 C1565 1.429 . S
C1581 C1577 1.429 . S
C1581 C1582 1.523 . S
C1582 C1566 1.368 . S
C1582 C1578 1.368 1_545 S
C1582 C1581 1.523 . S
H1583 C1558 0.950 . S
H1584 C1560 0.950 1_545 S
H1585 C1561 0.949 . S
H1586 C1563 0.950 . S
H1587 C1565 0.950 1_565 S
C1588 C1589 1.349 . S
C1588 C1590 1.327 . S
C1588 H1613 0.950 . S
C1589 C1588 1.349 . S
C1589 C1605 1.349 . S
C1590 C1588 1.327 . S
C1590 C1609 1.429 . S
C1590 H1614 0.950 . S
C1591 C1608 1.574 . S
C1591 C1610 1.368 . S
C1591 H1615 0.949 . S
H1592 C1596 0.949 . S
C1593 C1594 1.349 . S
C1593 C1595 1.327 . S
C1593 H1616 0.950 . S
C1594 C1593 1.349 . S
C1594 C1606 1.349 . S
C1595 C1593 1.327 . S
C1595 C1611 1.429 . S
C1595 H1617 0.950 . S
C1596 H1592 0.949 . S
C1596 C1604 1.574 . S
C1596 C1612 1.368 . S
H1597 C1605 0.950 . S
H1598 C1603 0.950 . S
H1599 C1604 0.949 . S
H1600 C1606 0.950 . S
H1601 C1607 0.950 . S
H1602 C1608 0.949 . S
C1603 H1598 0.950 . S
C1603 C1605 1.327 . S
C1603 C1609 1.429 . S
C1604 C1596 1.574 . S
C1604 H1599 0.949 . S
C1604 C1610 1.368 . S
C1605 C1589 1.349 . S
C1605 H1597 0.950 . S
C1605 C1603 1.327 . S
C1606 C1594 1.349 . S
C1606 H1600 0.950 . S
C1606 C1607 1.327 . S
C1607 H1601 0.950 . S
C1607 C1606 1.327 . S
C1607 C1611 1.429 . S
C1608 C1591 1.574 . S
C1608 H1602 0.949 . S
C1608 C1612 1.368 . S
C1609 C1590 1.429 . S
C1609 C1603 1.429 . S
C1609 C1610 1.523 . S
C1610 C1591 1.368 . S
C1610 C1604 1.368 . S
C1610 C1609 1.523 . S
C1611 C1595 1.429 . S
C1611 C1607 1.429 . S
C1611 C1612 1.523 . S
C1612 C1596 1.368 . S
C1612 C1608 1.368 . S
C1612 C1611 1.523 . S
H1613 C1588 0.950 . S
H1614 C1590 0.950 . S
H1615 C1591 0.949 . S
H1616 C1593 0.950 . S
H1617 C1595 0.950 . S
C1618 C1619 1.349 . S
C1618 C1620 1.310 1_545 S
C1618 H1643 0.950 1_545 S
C1619 C1618 1.349 . S
C1619 C1635 1.349 . S
C1620 C1618 1.310 1_565 S
C1620 C1639 1.389 1_565 S
C1620 H1644 1.012 . S
C1621 C1638 1.574 1_556 S
C1621 C1640 1.368 1_655 S
C1621 H1645 0.949 . S
H1622 C1626 0.949 . S
C1623 C1624 1.349 . S
C1623 C1625 1.327 1_565 S
C1623 H1646 0.950 1_565 S
C1624 C1623 1.349 . S
C1624 C1636 1.349 . S
C1625 C1623 1.327 1_545 S
C1625 C1641 1.429 1_545 S
C1625 H1647 0.950 . S
C1626 H1622 0.949 . S
C1626 C1634 1.574 1_554 S
C1626 C1642 1.368 1_455 S
H1627 C1635 0.950 . S
H1628 C1633 0.950 . S
H1629 C1634 0.949 . S
H1630 C1636 0.950 . S
H1631 C1637 0.950 . S
H1632 C1638 0.949 . S
C1633 H1628 0.950 . S
C1633 C1635 1.327 . S
C1633 C1639 1.429 . S
C1634 C1626 1.574 1_556 S
C1634 H1629 0.949 . S
C1634 C1640 1.368 1_565 S
C1635 C1619 1.349 . S
C1635 H1627 0.950 . S
C1635 C1633 1.327 . S
C1636 C1624 1.349 . S
C1636 H1630 0.950 . S
C1636 C1637 1.327 . S
C1637 H1631 0.950 . S
C1637 C1636 1.327 . S
C1637 C1641 1.429 . S
C1638 C1621 1.574 1_554 S
C1638 H1632 0.949 . S
C1638 C1642 1.368 1_545 S
C1639 C1620 1.389 1_545 S
C1639 C1633 1.429 . S
C1639 C1640 1.523 . S
C1640 C1621 1.368 1_455 S
C1640 C1634 1.368 1_545 S
C1640 C1639 1.523 . S
C1641 C1625 1.429 1_565 S
C1641 C1637 1.429 . S
C1641 C1642 1.523 . S
C1642 C1626 1.368 1_655 S
C1642 C1638 1.368 1_565 S
C1642 C1641 1.523 . S
H1643 C1618 0.950 1_565 S
H1644 C1620 1.012 . S
H1645 C1621 0.949 . S
H1646 C1623 0.950 1_545 S
H1647 C1625 0.950 . S
C1648 C1649 1.349 . S
C1648 C1650 1.327 . S
C1648 H1673 0.950 . S
C1649 C1648 1.349 . S
C1649 C1665 1.349 . S
C1650 C1648 1.327 . S
C1650 C1669 1.429 . S
C1650 H1674 0.950 . S
C1651 C1668 1.574 . S
C1651 C1670 1.368 . S
C1651 H1675 0.949 . S
H1652 C1656 0.949 . S
C1653 C1654 1.349 . S
C1653 C1655 1.327 . S
C1653 H1676 0.950 . S
C1654 C1653 1.349 . S
C1654 C1666 1.349 . S
C1655 C1653 1.327 . S
C1655 C1671 1.429 . S
C1655 H1677 0.950 . S
C1656 H1652 0.949 . S
C1656 C1664 1.574 . S
C1656 C1672 1.368 . S
H1657 C1665 0.950 . S
H1658 C1663 0.950 . S
H1659 C1664 0.949 . S
H1660 C1666 0.950 . S
H1661 C1667 0.950 . S
H1662 C1668 0.949 . S
C1663 H1658 0.950 . S
C1663 C1665 1.327 . S
C1663 C1669 1.429 . S
C1664 C1656 1.574 . S
C1664 H1659 0.949 . S
C1664 C1670 1.368 . S
C1665 C1649 1.349 . S
C1665 H1657 0.950 . S
C1665 C1663 1.327 . S
C1666 C1654 1.349 . S
C1666 H1660 0.950 . S
C1666 C1667 1.327 . S
C1667 H1661 0.950 . S
C1667 C1666 1.327 . S
C1667 C1671 1.429 . S
C1668 C1651 1.574 . S
C1668 H1662 0.949 . S
C1668 C1672 1.368 . S
C1669 C1650 1.429 . S
C1669 C1663 1.429 . S
C1669 C1670 1.523 . S
C1670 C1651 1.368 . S
C1670 C1664 1.368 . S
C1670 C1669 1.523 . S
C1671 C1655 1.429 . S
C1671 C1667 1.429 . S
C1671 C1672 1.523 . S
C1672 C1656 1.368 . S
C1672 C1668 1.368 . S
C1672 C1671 1.523 . S
H1673 C1648 0.950 . S
H1674 C1650 0.950 . S
H1675 C1651 0.949 . S
H1676 C1653 0.950 . S
H1677 C1655 0.950 . S
C1678 C1679 1.349 . S
C1678 C1680 1.327 . S
C1678 H1703 0.950 . S
C1679 C1678 1.349 . S
C1679 C1695 1.349 . S
C1680 C1678 1.327 . S
C1680 C1699 1.429 . S
C1680 H1704 0.950 . S
C1681 C1698 1.574 . S
C1681 C1700 1.368 . S
C1681 H1705 0.949 . S
H1682 C1686 0.949 . S
C1683 C1684 1.349 . S
C1683 C1685 1.327 . S
C1683 H1706 0.950 . S
C1684 C1683 1.349 . S
C1684 C1696 1.349 . S
C1685 C1683 1.327 . S
C1685 C1701 1.429 . S
C1685 H1707 0.950 . S
C1686 H1682 0.949 . S
C1686 C1694 1.574 . S
C1686 C1702 1.368 . S
H1687 C1695 0.950 . S
H1688 C1693 0.950 . S
H1689 C1694 0.949 . S
H1690 C1696 0.950 . S
H1691 C1697 0.950 . S
H1692 C1698 0.949 . S
C1693 H1688 0.950 . S
C1693 C1695 1.327 . S
C1693 C1699 1.429 . S
C1694 C1686 1.574 . S
C1694 H1689 0.949 . S
C1694 C1700 1.368 . S
C1695 C1679 1.349 . S
C1695 H1687 0.950 . S
C1695 C1693 1.327 . S
C1696 C1684 1.349 . S
C1696 H1690 0.950 . S
C1696 C1697 1.327 . S
C1697 H1691 0.950 . S
C1697 C1696 1.327 . S
C1697 C1701 1.429 . S
C1698 C1681 1.574 . S
C1698 H1692 0.949 . S
C1698 C1702 1.368 . S
C1699 C1680 1.429 . S
C1699 C1693 1.429 . S
C1699 C1700 1.523 . S
C1700 C1681 1.368 . S
C1700 C1694 1.368 . S
C1700 C1699 1.523 . S
C1701 C1685 1.429 . S
C1701 C1697 1.429 . S
C1701 C1702 1.523 . S
C1702 C1686 1.368 . S
C1702 C1698 1.368 . S
C1702 C1701 1.523 . S
H1703 C1678 0.950 . S
H1704 C1680 0.950 . S
H1705 C1681 0.949 . S
H1706 C1683 0.950 . S
H1707 C1685 0.950 . S
C1708 C1709 1.349 . S
C1708 C1710 1.327 . S
C1708 H1733 0.950 . S
C1709 C1708 1.349 . S
C1709 C1725 1.349 . S
C1710 C1708 1.327 . S
C1710 C1729 1.429 . S
C1710 H1734 0.950 . S
C1711 C1728 1.574 . S
C1711 C1730 1.368 . S
C1711 H1735 0.949 . S
H1712 C1716 0.949 . S
C1713 C1714 1.349 . S
C1713 C1715 1.327 . S
C1713 H1736 0.950 . S
C1714 C1713 1.349 . S
C1714 C1726 1.349 . S
C1715 C1713 1.327 . S
C1715 C1731 1.429 . S
C1715 H1737 0.950 . S
C1716 H1712 0.949 . S
C1716 C1724 1.574 . S
C1716 C1732 1.368 . S
H1717 C1725 0.950 . S
H1718 C1723 0.950 . S
H1719 C1724 0.949 . S
H1720 C1726 0.950 . S
H1721 C1727 0.950 . S
H1722 C1728 0.949 . S
C1723 H1718 0.950 . S
C1723 C1725 1.327 . S
C1723 C1729 1.429 . S
C1724 C1716 1.574 . S
C1724 H1719 0.949 . S
C1724 C1730 1.368 . S
C1725 C1709 1.349 . S
C1725 H1717 0.950 . S
C1725 C1723 1.327 . S
C1726 C1714 1.349 . S
C1726 H1720 0.950 . S
C1726 C1727 1.327 . S
C1727 H1721 0.950 . S
C1727 C1726 1.327 . S
C1727 C1731 1.429 . S
C1728 C1711 1.574 . S
C1728 H1722 0.949 . S
C1728 C1732 1.368 . S
C1729 C1710 1.429 . S
C1729 C1723 1.429 . S
C1729 C1730 1.523 . S
C1730 C1711 1.368 . S
C1730 C1724 1.368 . S
C1730 C1729 1.523 . S
C1731 C1715 1.429 . S
C1731 C1727 1.429 . S
C1731 C1732 1.523 . S
C1732 C1716 1.368 . S
C1732 C1728 1.368 . S
C1732 C1731 1.523 . S
H1733 C1708 0.950 . S
H1734 C1710 0.950 . S
H1735 C1711 0.949 . S
H1736 C1713 0.950 . S
H1737 C1715 0.950 . S
C1738 C1739 1.349 . S
C1738 C1740 1.327 . S
C1738 H1763 0.950 . S
C1739 C1738 1.349 . S
C1739 C1755 1.349 . S
C1740 C1738 1.327 . S
C1740 C1759 1.429 . S
C1740 H1764 0.950 . S
C1741 C1758 1.574 . S
C1741 C1760 1.368 . S
C1741 H1765 0.949 . S
H1742 C1746 0.949 . S
C1743 C1744 1.349 . S
C1743 C1745 1.327 . S
C1743 H1766 0.950 . S
C1744 C1743 1.349 . S
C1744 C1756 1.349 . S
C1745 C1743 1.327 . S
C1745 C1761 1.429 . S
C1745 H1767 0.950 . S
C1746 H1742 0.949 . S
C1746 C1754 1.574 . S
C1746 C1762 1.368 . S
H1747 C1755 0.950 . S
H1748 C1753 0.950 . S
H1749 C1754 0.949 . S
H1750 C1756 0.950 . S
H1751 C1757 0.950 . S
H1752 C1758 0.949 . S
C1753 H1748 0.950 . S
C1753 C1755 1.327 . S
C1753 C1759 1.429 . S
C1754 C1746 1.574 . S
C1754 H1749 0.949 . S
C1754 C1760 1.368 . S
C1755 C1739 1.349 . S
C1755 H1747 0.950 . S
C1755 C1753 1.327 . S
C1756 C1744 1.349 . S
C1756 H1750 0.950 . S
C1756 C1757 1.327 . S
C1757 H1751 0.950 . S
C1757 C1756 1.327 . S
C1757 C1761 1.429 . S
C1758 C1741 1.574 . S
C1758 H1752 0.949 . S
C1758 C1762 1.368 . S
C1759 C1740 1.429 . S
C1759 C1753 1.429 . S
C1759 C1760 1.523 . S
C1760 C1741 1.368 . S
C1760 C1754 1.368 . S
C1760 C1759 1.523 . S
C1761 C1745 1.429 . S
C1761 C1757 1.429 . S
C1761 C1762 1.523 . S
C1762 C1746 1.368 . S
C1762 C1758 1.368 . S
C1762 C1761 1.523 . S
H1763 C1738 0.950 . S
H1764 C1740 0.950 . S
H1765 C1741 0.949 . S
H1766 C1743 0.950 . S
H1767 C1745 0.950 . S
C1768 C1769 1.349 . S
C1768 C1770 1.327 . S
C1768 H1793 0.950 . S
C1769 C1768 1.349 . S
C1769 C1785 1.349 . S
C1770 C1768 1.327 . S
C1770 C1789 1.429 . S
C1770 H1794 0.950 . S
C1771 C1788 1.574 1_554 S
C1771 C1790 1.368 . S
C1771 H1795 0.949 . S
H1772 C1776 0.949 . S
C1773 C1774 1.349 . S
C1773 C1775 1.327 . S
C1773 H1796 0.950 . S
C1774 C1773 1.349 . S
C1774 C1786 1.349 . S
C1775 C1773 1.327 . S
C1775 C1791 1.429 . S
C1775 H1797 0.950 . S
C1776 H1772 0.949 . S
C1776 C1784 1.574 1_556 S
C1776 C1792 1.368 . S
H1777 C1785 0.950 . S
H1778 C1783 0.950 . S
H1779 C1784 0.949 . S
H1780 C1786 0.950 . S
H1781 C1787 0.950 . S
H1782 C1788 0.949 . S
C1783 H1778 0.950 . S
C1783 C1785 1.327 . S
C1783 C1789 1.429 . S
C1784 C1776 1.574 1_554 S
C1784 H1779 0.949 . S
C1784 C1790 1.368 . S
C1785 C1769 1.349 . S
C1785 H1777 0.950 . S
C1785 C1783 1.327 . S
C1786 C1774 1.349 . S
C1786 H1780 0.950 . S
C1786 C1787 1.327 . S
C1787 H1781 0.950 . S
C1787 C1786 1.327 . S
C1787 C1791 1.429 . S
C1788 C1771 1.574 1_556 S
C1788 H1782 0.949 . S
C1788 C1792 1.368 . S
C1789 C1770 1.429 . S
C1789 C1783 1.429 . S
C1789 C1790 1.523 . S
C1790 C1771 1.368 . S
C1790 C1784 1.368 . S
C1790 C1789 1.523 . S
C1791 C1775 1.429 . S
C1791 C1787 1.429 . S
C1791 C1792 1.523 . S
C1792 C1776 1.368 . S
C1792 C1788 1.368 . S
C1792 C1791 1.523 . S
H1793 C1768 0.950 . S
H1794 C1770 0.950 . S
H1795 C1771 0.949 . S
H1796 C1773 0.950 . S
H1797 C1775 0.950 . S
C1798 C1799 1.349 . S
C1798 C1800 1.327 . S
C1798 H1823 0.950 . S
C1799 C1798 1.349 . S
C1799 C1815 1.349 . S
C1800 C1798 1.327 . S
C1800 C1819 1.429 . S
C1800 H1824 0.950 . S
C1801 C1818 1.574 . S
C1801 C1820 1.368 1_655 S
C1801 H1825 0.949 . S
H1802 C1806 0.949 . S
C1803 C1804 1.349 . S
C1803 C1805 1.327 . S
C1803 H1826 0.950 . S
C1804 C1803 1.349 . S
C1804 C1816 1.349 . S
C1805 C1803 1.327 . S
C1805 C1821 1.429 . S
C1805 H1827 0.950 . S
C1806 H1802 0.949 . S
C1806 C1814 1.574 . S
C1806 C1822 1.368 1_455 S
H1807 C1815 0.950 . S
H1808 C1813 0.950 . S
H1809 C1814 0.949 . S
H1810 C1816 0.950 . S
H1811 C1817 0.950 . S
H1812 C1818 0.949 . S
C1813 H1808 0.950 . S
C1813 C1815 1.327 . S
C1813 C1819 1.429 . S
C1814 C1806 1.574 . S
C1814 H1809 0.949 . S
C1814 C1820 1.368 . S
C1815 C1799 1.349 . S
C1815 H1807 0.950 . S
C1815 C1813 1.327 . S
C1816 C1804 1.349 . S
C1816 H1810 0.950 . S
C1816 C1817 1.327 . S
C1817 H1811 0.950 . S
C1817 C1816 1.327 . S
C1817 C1821 1.429 . S
C1818 C1801 1.574 . S
C1818 H1812 0.949 . S
C1818 C1822 1.368 . S
C1819 C1800 1.429 . S
C1819 C1813 1.429 . S
C1819 C1820 1.523 . S
C1820 C1801 1.368 1_455 S
C1820 C1814 1.368 . S
C1820 C1819 1.523 . S
C1821 C1805 1.429 . S
C1821 C1817 1.429 . S
C1821 C1822 1.523 . S
C1822 C1806 1.368 1_655 S
C1822 C1818 1.368 . S
C1822 C1821 1.523 . S
H1823 C1798 0.950 . S
H1824 C1800 0.950 . S
H1825 C1801 0.949 . S
H1826 C1803 0.950 . S
H1827 C1805 0.950 . S
C1828 C1829 1.349 . S
C1828 C1830 1.327 . S
C1828 H1853 0.950 . S
C1829 C1828 1.349 . S
C1829 C1845 1.349 . S
C1830 C1828 1.327 . S
C1830 C1849 1.429 . S
C1830 H1854 0.950 . S
C1831 C1848 1.574 1_455 S
C1831 C1850 1.368 . S
C1831 H1855 0.949 . S
H1832 C1836 0.949 . S
C1833 C1834 1.349 . S
C1833 C1835 1.327 . S
C1833 H1856 0.950 . S
C1834 C1833 1.349 . S
C1834 C1846 1.349 . S
C1835 C1833 1.327 . S
C1835 C1851 1.429 . S
C1835 H1857 0.950 . S
C1836 H1832 0.949 . S
C1836 C1844 1.574 1_655 S
C1836 C1852 1.368 . S
H1837 C1845 0.950 . S
H1838 C1843 0.950 . S
H1839 C1844 0.949 . S
H1840 C1846 0.950 . S
H1841 C1847 0.950 . S
H1842 C1848 0.949 . S
C1843 H1838 0.950 . S
C1843 C1845 1.327 . S
C1843 C1849 1.429 . S
C1844 C1836 1.574 1_455 S
C1844 H1839 0.949 . S
C1844 C1850 1.368 1_556 S
C1845 C1829 1.349 . S
C1845 H1837 0.950 . S
C1845 C1843 1.327 . S
C1846 C1834 1.349 . S
C1846 H1840 0.950 . S
C1846 C1847 1.327 . S
C1847 H1841 0.950 . S
C1847 C1846 1.327 . S
C1847 C1851 1.429 . S
C1848 C1831 1.574 1_655 S
C1848 H1842 0.949 . S
C1848 C1852 1.368 1_554 S
C1849 C1830 1.429 . S
C1849 C1843 1.429 . S
C1849 C1850 1.523 . S
C1850 C1831 1.368 . S
C1850 C1844 1.368 1_554 S
C1850 C1849 1.523 . S
C1851 C1835 1.429 . S
C1851 C1847 1.429 . S
C1851 C1852 1.523 . S
C1852 C1836 1.368 . S
C1852 C1848 1.368 1_556 S
C1852 C1851 1.523 . S
H1853 C1828 0.950 . S
H1854 C1830 0.950 . S
H1855 C1831 0.949 . S
H1856 C1833 0.950 . S
H1857 C1835 0.950 . S
C1858 C1859 1.349 . S
C1858 C1860 1.327 . S
C1858 H1883 0.950 . S
C1859 C1858 1.349 . S
C1859 C1875 1.349 . S
C1860 C1858 1.327 . S
C1860 C1879 1.429 . S
C1860 H1884 0.950 . S
C1861 C1878 1.574 . S
C1861 C1880 1.368 . S
C1861 H1885 0.949 . S
H1862 C1866 0.949 . S
C1863 C1864 1.349 . S
C1863 C1865 1.327 . S
C1863 H1886 0.950 . S
C1864 C1863 1.349 . S
C1864 C1876 1.349 . S
C1865 C1863 1.327 . S
C1865 C1881 1.429 . S
C1865 H1887 0.950 . S
C1866 H1862 0.949 . S
C1866 C1874 1.574 . S
C1866 C1882 1.368 . S
H1867 C1875 0.950 . S
H1868 C1873 0.950 . S
H1869 C1874 0.949 . S
H1870 C1876 0.950 . S
H1871 C1877 0.950 . S
H1872 C1878 0.949 . S
C1873 H1868 0.950 . S
C1873 C1875 1.327 . S
C1873 C1879 1.429 . S
C1874 C1866 1.574 . S
C1874 H1869 0.949 . S
C1874 C1880 1.368 . S
C1875 C1859 1.349 . S
C1875 H1867 0.950 . S
C1875 C1873 1.327 . S
C1876 C1864 1.349 . S
C1876 H1870 0.950 . S
C1876 C1877 1.327 . S
C1877 H1871 0.950 . S
C1877 C1876 1.327 . S
C1877 C1881 1.429 . S
C1878 C1861 1.574 . S
C1878 H1872 0.949 . S
C1878 C1882 1.368 . S
C1879 C1860 1.429 . S
C1879 C1873 1.429 . S
C1879 C1880 1.523 . S
C1880 C1861 1.368 . S
C1880 C1874 1.368 . S
C1880 C1879 1.523 . S
C1881 C1865 1.429 . S
C1881 C1877 1.429 . S
C1881 C1882 1.523 . S
C1882 C1866 1.368 . S
C1882 C1878 1.368 . S
C1882 C1881 1.523 . S
H1883 C1858 0.950 . S
H1884 C1860 0.950 . S
H1885 C1861 0.949 . S
H1886 C1863 0.950 . S
H1887 C1865 0.950 . S
C1888 C1889 1.349 . S
C1888 C1890 1.327 . S
C1888 H1913 0.950 . S
C1889 C1888 1.349 . S
C1889 C1905 1.349 . S
C1890 C1888 1.327 . S
C1890 C1909 1.429 . S
C1890 H1914 0.950 . S
C1891 C1908 1.574 . S
C1891 C1910 1.368 . S
C1891 H1915 0.949 . S
H1892 C1896 0.949 . S
C1893 C1894 1.349 . S
C1893 C1895 1.327 . S
C1893 H1916 0.950 . S
C1894 C1893 1.349 . S
C1894 C1906 1.349 . S
C1895 C1893 1.327 . S
C1895 C1911 1.429 . S
C1895 H1917 0.950 . S
C1896 H1892 0.949 . S
C1896 C1904 1.574 . S
C1896 C1912 1.368 . S
H1897 C1905 0.950 . S
H1898 C1903 0.950 . S
H1899 C1904 0.949 . S
H1900 C1906 0.950 . S
H1901 C1907 0.950 . S
H1902 C1908 0.949 . S
C1903 H1898 0.950 . S
C1903 C1905 1.327 . S
C1903 C1909 1.429 . S
C1904 C1896 1.574 . S
C1904 H1899 0.949 . S
C1904 C1910 1.368 . S
C1905 C1889 1.349 . S
C1905 H1897 0.950 . S
C1905 C1903 1.327 . S
C1906 C1894 1.349 . S
C1906 H1900 0.950 . S
C1906 C1907 1.327 . S
C1907 H1901 0.950 . S
C1907 C1906 1.327 . S
C1907 C1911 1.429 . S
C1908 C1891 1.574 . S
C1908 H1902 0.949 . S
C1908 C1912 1.368 . S
C1909 C1890 1.429 . S
C1909 C1903 1.429 . S
C1909 C1910 1.523 . S
C1910 C1891 1.368 . S
C1910 C1904 1.368 . S
C1910 C1909 1.523 . S
C1911 C1895 1.429 . S
C1911 C1907 1.429 . S
C1911 C1912 1.523 . S
C1912 C1896 1.368 . S
C1912 C1908 1.368 . S
C1912 C1911 1.523 . S
H1913 C1888 0.950 . S
H1914 C1890 0.950 . S
H1915 C1891 0.949 . S
H1916 C1893 0.950 . S
H1917 C1895 0.950 . S
C1918 C1919 1.349 . S
C1918 C1920 1.327 . S
C1918 H1943 0.950 . S
C1919 C1918 1.349 . S
C1919 C1935 1.349 . S
C1920 C1918 1.327 . S
C1920 C1939 1.429 . S
C1920 H1944 0.950 . S
C1921 C1938 1.574 . S
C1921 C1940 1.368 . S
C1921 H1945 0.949 . S
H1922 C1926 0.949 . S
C1923 C1924 1.349 . S
C1923 C1925 1.327 . S
C1923 H1946 0.950 . S
C1924 C1923 1.349 . S
C1924 C1936 1.349 . S
C1925 C1923 1.327 . S
C1925 C1941 1.429 . S
C1925 H1947 0.950 . S
C1926 H1922 0.949 . S
C1926 C1934 1.574 . S
C1926 C1942 1.368 . S
H1927 C1935 0.950 . S
H1928 C1933 0.950 . S
H1929 C1934 0.949 . S
H1930 C1936 0.950 . S
H1931 C1937 0.950 . S
H1932 C1938 0.949 . S
C1933 H1928 0.950 . S
C1933 C1935 1.327 . S
C1933 C1939 1.429 . S
C1934 C1926 1.574 . S
C1934 H1929 0.949 . S
C1934 C1940 1.368 . S
C1935 C1919 1.349 . S
C1935 H1927 0.950 . S
C1935 C1933 1.327 . S
C1936 C1924 1.349 . S
C1936 H1930 0.950 . S
C1936 C1937 1.327 . S
C1937 H1931 0.950 . S
C1937 C1936 1.327 . S
C1937 C1941 1.429 . S
C1938 C1921 1.574 . S
C1938 H1932 0.949 . S
C1938 C1942 1.368 . S
C1939 C1920 1.429 . S
C1939 C1933 1.429 . S
C1939 C1940 1.523 . S
C1940 C1921 1.368 . S
C1940 C1934 1.368 . S
C1940 C1939 1.523 . S
C1941 C1925 1.429 . S
C1941 C1937 1.429 . S
C1941 C1942 1.523 . S
C1942 C1926 1.368 . S
C1942 C1938 1.368 . S
C1942 C1941 1.523 . S
H1943 C1918 0.950 . S
H1944 C1920 0.950 . S
H1945 C1921 0.949 . S
H1946 C1923 0.950 . S
H1947 C1925 0.950 . S
C1948 C1949 1.349 . S
C1948 C1950 1.327 . S
C1948 H1973 0.950 . S
C1949 C1948 1.349 . S
C1949 C1965 1.349 . S
C1950 C1948 1.327 . S
C1950 C1969 1.429 . S
C1950 H1974 0.950 . S
C1951 C1968 1.574 . S
C1951 C1970 1.368 . S
C1951 H1975 0.949 . S
H1952 C1956 0.949 . S
C1953 C1954 1.349 . S
C1953 C1955 1.327 . S
C1953 H1976 0.950 . S
C1954 C1953 1.349 . S
C1954 C1966 1.349 . S
C1955 C1953 1.327 . S
C1955 C1971 1.429 . S
C1955 H1977 0.950 . S
C1956 H1952 0.949 . S
C1956 C1964 1.574 . S
C1956 C1972 1.368 . S
H1957 C1965 0.950 . S
H1958 C1963 0.950 . S
H1959 C1964 0.949 . S
H1960 C1966 0.950 . S
H1961 C1967 0.950 . S
H1962 C1968 0.949 . S
C1963 H1958 0.950 . S
C1963 C1965 1.327 . S
C1963 C1969 1.429 . S
C1964 C1956 1.574 . S
C1964 H1959 0.949 . S
C1964 C1970 1.368 . S
C1965 C1949 1.349 . S
C1965 H1957 0.950 . S
C1965 C1963 1.327 . S
C1966 C1954 1.349 . S
C1966 H1960 0.950 . S
C1966 C1967 1.327 . S
C1967 H1961 0.950 . S
C1967 C1966 1.327 . S
C1967 C1971 1.429 . S
C1968 C1951 1.574 . S
C1968 H1962 0.949 . S
C1968 C1972 1.368 . S
C1969 C1950 1.429 . S
C1969 C1963 1.429 . S
C1969 C1970 1.523 . S
C1970 C1951 1.368 . S
C1970 C1964 1.368 . S
C1970 C1969 1.523 . S
C1971 C1955 1.429 . S
C1971 C1967 1.429 . S
C1971 C1972 1.523 . S
C1972 C1956 1.368 . S
C1972 C1968 1.368 . S
C1972 C1971 1.523 . S
H1973 C1948 0.950 . S
H1974 C1950 0.950 . S
H1975 C1951 0.949 . S
H1976 C1953 0.950 . S
H1977 C1955 0.950 . S
C1978 C1979 1.349 . S
C1978 C1980 1.327 . S
C1978 H2003 0.950 . S
C1979 C1978 1.349 . S
C1979 C1995 1.349 . S
C1980 C1978 1.327 . S
C1980 C1999 1.429 . S
C1980 H2004 0.950 . S
C1981 C1998 1.574 . S
C1981 C2000 1.368 . S
C1981 H2005 0.949 . S
H1982 C1986 0.949 . S
C1983 C1984 1.349 . S
C1983 C1985 1.327 . S
C1983 H2006 0.950 . S
C1984 C1983 1.349 . S
C1984 C1996 1.349 . S
C1985 C1983 1.327 . S
C1985 C2001 1.429 . S
C1985 H2007 0.950 . S
C1986 H1982 0.949 . S
C1986 C1994 1.574 . S
C1986 C2002 1.368 . S
H1987 C1995 0.950 . S
H1988 C1993 0.950 . S
H1989 C1994 0.949 . S
H1990 C1996 0.950 . S
H1991 C1997 0.950 . S
H1992 C1998 0.949 . S
C1993 H1988 0.950 . S
C1993 C1995 1.327 . S
C1993 C1999 1.429 . S
C1994 C1986 1.574 . S
C1994 H1989 0.949 . S
C1994 C2000 1.368 . S
C1995 C1979 1.349 . S
C1995 H1987 0.950 . S
C1995 C1993 1.327 . S
C1996 C1984 1.349 . S
C1996 H1990 0.950 . S
C1996 C1997 1.327 . S
C1997 H1991 0.950 . S
C1997 C1996 1.327 . S
C1997 C2001 1.429 . S
C1998 C1981 1.574 . S
C1998 H1992 0.949 . S
C1998 C2002 1.368 . S
C1999 C1980 1.429 . S
C1999 C1993 1.429 . S
C1999 C2000 1.523 . S
C2000 C1981 1.368 . S
C2000 C1994 1.368 . S
C2000 C1999 1.523 . S
C2001 C1985 1.429 . S
C2001 C1997 1.429 . S
C2001 C2002 1.523 . S
C2002 C1986 1.368 . S
C2002 C1998 1.368 . S
C2002 C2001 1.523 . S
H2003 C1978 0.950 . S
H2004 C1980 0.950 . S
H2005 C1981 0.949 . S
H2006 C1983 0.950 . S
H2007 C1985 0.950 . S
C2008 C2009 1.349 . S
C2008 C2010 1.327 . S
C2008 H2033 0.950 . S
C2009 C2008 1.349 . S
C2009 C2025 1.349 . S
C2010 C2008 1.327 . S
C2010 C2029 1.429 . S
C2010 H2034 0.950 . S
C2011 C2028 1.574 . S
C2011 C2030 1.368 . S
C2011 H2035 0.949 . S
H2012 C2016 0.949 . S
C2013 C2014 1.349 . S
C2013 C2015 1.327 . S
C2013 H2036 0.950 . S
C2014 C2013 1.349 . S
C2014 C2026 1.349 . S
C2015 C2013 1.327 . S
C2015 C2031 1.429 . S
C2015 H2037 0.950 . S
C2016 H2012 0.949 . S
C2016 C2024 1.574 . S
C2016 C2032 1.368 . S
H2017 C2025 0.950 . S
H2018 C2023 0.950 . S
H2019 C2024 0.949 . S
H2020 C2026 0.950 . S
H2021 C2027 0.950 . S
H2022 C2028 0.949 . S
C2023 H2018 0.950 . S
C2023 C2025 1.327 . S
C2023 C2029 1.429 . S
C2024 C2016 1.574 . S
C2024 H2019 0.949 . S
C2024 C2030 1.368 . S
C2025 C2009 1.349 . S
C2025 H2017 0.950 . S
C2025 C2023 1.327 . S
C2026 C2014 1.349 . S
C2026 H2020 0.950 . S
C2026 C2027 1.327 . S
C2027 H2021 0.950 . S
C2027 C2026 1.327 . S
C2027 C2031 1.429 . S
C2028 C2011 1.574 . S
C2028 H2022 0.949 . S
C2028 C2032 1.368 . S
C2029 C2010 1.429 . S
C2029 C2023 1.429 . S
C2029 C2030 1.523 . S
C2030 C2011 1.368 . S
C2030 C2024 1.368 . S
C2030 C2029 1.523 . S
C2031 C2015 1.429 . S
C2031 C2027 1.429 . S
C2031 C2032 1.523 . S
C2032 C2016 1.368 . S
C2032 C2028 1.368 . S
C2032 C2031 1.523 . S
H2033 C2008 0.950 . S
H2034 C2010 0.950 . S
H2035 C2011 0.949 . S
H2036 C2013 0.950 . S
H2037 C2015 0.950 . S
C2038 C2039 1.349 . S
C2038 C2040 1.327 . S
C2038 H2063 0.950 . S
C2039 C2038 1.349 . S
C2039 C2055 1.349 . S
C2040 C2038 1.327 . S
C2040 C2059 1.429 . S
C2040 H2064 0.950 . S
C2041 C2058 1.574 . S
C2041 C2060 1.368 . S
C2041 H2065 0.949 . S
H2042 C2046 0.949 . S
C2043 C2044 1.349 . S
C2043 C2045 1.327 . S
C2043 H2066 0.950 . S
C2044 C2043 1.349 . S
C2044 C2056 1.349 . S
C2045 C2043 1.327 . S
C2045 C2061 1.429 . S
C2045 H2067 0.950 . S
C2046 H2042 0.949 . S
C2046 C2054 1.574 . S
C2046 C2062 1.368 . S
H2047 C2055 0.950 . S
H2048 C2053 0.950 . S
H2049 C2054 0.949 . S
H2050 C2056 0.950 . S
H2051 C2057 0.950 . S
H2052 C2058 0.949 . S
C2053 H2048 0.950 . S
C2053 C2055 1.327 . S
C2053 C2059 1.429 . S
C2054 C2046 1.574 . S
C2054 H2049 0.949 . S
C2054 C2060 1.368 . S
C2055 C2039 1.349 . S
C2055 H2047 0.950 . S
C2055 C2053 1.327 . S
C2056 C2044 1.349 . S
C2056 H2050 0.950 . S
C2056 C2057 1.327 . S
C2057 H2051 0.950 . S
C2057 C2056 1.327 . S
C2057 C2061 1.429 . S
C2058 C2041 1.574 . S
C2058 H2052 0.949 . S
C2058 C2062 1.368 . S
C2059 C2040 1.429 . S
C2059 C2053 1.429 . S
C2059 C2060 1.523 . S
C2060 C2041 1.368 . S
C2060 C2054 1.368 . S
C2060 C2059 1.523 . S
C2061 C2045 1.429 . S
C2061 C2057 1.429 . S
C2061 C2062 1.523 . S
C2062 C2046 1.368 . S
C2062 C2058 1.368 . S
C2062 C2061 1.523 . S
H2063 C2038 0.950 . S
H2064 C2040 0.950 . S
H2065 C2041 0.949 . S
H2066 C2043 0.950 . S
H2067 C2045 0.950 . S
C2068 C2069 1.349 . S
C2068 C2070 1.327 . S
C2068 H2093 0.950 . S
C2069 C2068 1.349 . S
C2069 C2085 1.349 . S
C2070 C2068 1.327 . S
C2070 C2089 1.429 . S
C2070 H2094 0.950 . S
C2071 C2088 1.574 . S
C2071 C2090 1.368 . S
C2071 H2095 0.949 . S
H2072 C2076 0.949 . S
C2073 C2074 1.349 . S
C2073 C2075 1.327 . S
C2073 H2096 0.950 . S
C2074 C2073 1.349 . S
C2074 C2086 1.349 . S
C2075 C2073 1.327 . S
C2075 C2091 1.429 . S
C2075 H2097 0.950 . S
C2076 H2072 0.949 . S
C2076 C2084 1.574 . S
C2076 C2092 1.368 . S
H2077 C2085 0.950 . S
H2078 C2083 0.950 . S
H2079 C2084 0.949 . S
H2080 C2086 0.950 . S
H2081 C2087 0.950 . S
H2082 C2088 0.949 . S
C2083 H2078 0.950 . S
C2083 C2085 1.327 . S
C2083 C2089 1.429 . S
C2084 C2076 1.574 . S
C2084 H2079 0.949 . S
C2084 C2090 1.368 . S
C2085 C2069 1.349 . S
C2085 H2077 0.950 . S
C2085 C2083 1.327 . S
C2086 C2074 1.349 . S
C2086 H2080 0.950 . S
C2086 C2087 1.327 . S
C2087 H2081 0.950 . S
C2087 C2086 1.327 . S
C2087 C2091 1.429 . S
C2088 C2071 1.574 . S
C2088 H2082 0.949 . S
C2088 C2092 1.368 . S
C2089 C2070 1.429 . S
C2089 C2083 1.429 . S
C2089 C2090 1.523 . S
C2090 C2071 1.368 . S
C2090 C2084 1.368 . S
C2090 C2089 1.523 . S
C2091 C2075 1.429 . S
C2091 C2087 1.429 . S
C2091 C2092 1.523 . S
C2092 C2076 1.368 . S
C2092 C2088 1.368 . S
C2092 C2091 1.523 . S
H2093 C2068 0.950 . S
H2094 C2070 0.950 . S
H2095 C2071 0.949 . S
H2096 C2073 0.950 . S
H2097 C2075 0.950 . S
C2098 C2099 1.349 . S
C2098 C2100 1.327 . S
C2098 H2123 0.950 . S
C2099 C2098 1.349 . S
C2099 C2115 1.349 . S
C2100 C2098 1.327 . S
C2100 C2119 1.429 . S
C2100 H2124 0.950 . S
C2101 C2118 1.574 . S
C2101 C2120 1.368 . S
C2101 H2125 0.949 . S
H2102 C2106 0.949 . S
C2103 C2104 1.349 . S
C2103 C2105 1.327 . S
C2103 H2126 0.950 . S
C2104 C2103 1.349 . S
C2104 C2116 1.349 . S
C2105 C2103 1.327 . S
C2105 C2121 1.429 . S
C2105 H2127 0.950 . S
C2106 H2102 0.949 . S
C2106 C2114 1.574 . S
C2106 C2122 1.368 . S
H2107 C2115 0.950 . S
H2108 C2113 0.950 . S
H2109 C2114 0.949 . S
H2110 C2116 0.950 . S
H2111 C2117 0.950 . S
H2112 C2118 0.949 . S
C2113 H2108 0.950 . S
C2113 C2115 1.327 . S
C2113 C2119 1.429 . S
C2114 C2106 1.574 . S
C2114 H2109 0.949 . S
C2114 C2120 1.368 . S
C2115 C2099 1.349 . S
C2115 H2107 0.950 . S
C2115 C2113 1.327 . S
C2116 C2104 1.349 . S
C2116 H2110 0.950 . S
C2116 C2117 1.327 . S
C2117 H2111 0.950 . S
C2117 C2116 1.327 . S
C2117 C2121 1.429 . S
C2118 C2101 1.574 . S
C2118 H2112 0.949 . S
C2118 C2122 1.368 . S
C2119 C2100 1.429 . S
C2119 C2113 1.429 . S
C2119 C2120 1.523 . S
C2120 C2101 1.368 . S
C2120 C2114 1.368 . S
C2120 C2119 1.523 . S
C2121 C2105 1.429 . S
C2121 C2117 1.429 . S
C2121 C2122 1.523 . S
C2122 C2106 1.368 . S
C2122 C2118 1.368 . S
C2122 C2121 1.523 . S
H2123 C2098 0.950 . S
H2124 C2100 0.950 . S
H2125 C2101 0.949 . S
H2126 C2103 0.950 . S
H2127 C2105 0.950 . S
C2128 C2129 1.349 . S
C2128 C2130 1.327 . S
C2128 H2153 0.950 . S
C2129 C2128 1.349 . S
C2129 C2145 1.349 . S
C2130 C2128 1.327 . S
C2130 C2149 1.429 . S
C2130 H2154 0.950 . S
C2131 C2148 1.574 . S
C2131 C2150 1.368 . S
C2131 H2155 0.949 . S
H2132 C2136 0.949 . S
C2133 C2134 1.349 . S
C2133 C2135 1.327 . S
C2133 H2156 0.950 . S
C2134 C2133 1.349 . S
C2134 C2146 1.349 . S
C2135 C2133 1.327 . S
C2135 C2151 1.429 . S
C2135 H2157 0.950 . S
C2136 H2132 0.949 . S
C2136 C2144 1.574 . S
C2136 C2152 1.368 . S
H2137 C2145 0.950 . S
H2138 C2143 0.950 . S
H2139 C2144 0.949 . S
H2140 C2146 0.950 . S
H2141 C2147 0.950 . S
H2142 C2148 0.949 . S
C2143 H2138 0.950 . S
C2143 C2145 1.327 . S
C2143 C2149 1.429 . S
C2144 C2136 1.574 . S
C2144 H2139 0.949 . S
C2144 C2150 1.368 . S
C2145 C2129 1.349 . S
C2145 H2137 0.950 . S
C2145 C2143 1.327 . S
C2146 C2134 1.349 . S
C2146 H2140 0.950 . S
C2146 C2147 1.327 . S
C2147 H2141 0.950 . S
C2147 C2146 1.327 . S
C2147 C2151 1.429 . S
C2148 C2131 1.574 . S
C2148 H2142 0.949 . S
C2148 C2152 1.368 . S
C2149 C2130 1.429 . S
C2149 C2143 1.429 . S
C2149 C2150 1.523 . S
C2150 C2131 1.368 . S
C2150 C2144 1.368 . S
C2150 C2149 1.523 . S
C2151 C2135 1.429 . S
C2151 C2147 1.429 . S
C2151 C2152 1.523 . S
C2152 C2136 1.368 . S
C2152 C2148 1.368 . S
C2152 C2151 1.523 . S
H2153 C2128 0.950 . S
H2154 C2130 0.950 . S
H2155 C2131 0.949 . S
H2156 C2133 0.950 . S
H2157 C2135 0.950 . S
C2158 C2159 1.349 . S
C2158 C2160 1.327 . S
C2158 H2183 0.950 . S
C2159 C2158 1.349 . S
C2159 C2175 1.349 . S
C2160 C2158 1.327 . S
C2160 C2179 1.429 . S
C2160 H2184 0.950 . S
C2161 C2178 1.574 . S
C2161 C2180 1.368 . S
C2161 H2185 0.949 . S
H2162 C2166 0.949 . S
C2163 C2164 1.349 . S
C2163 C2165 1.327 . S
C2163 H2186 0.950 . S
C2164 C2163 1.349 . S
C2164 C2176 1.349 . S
C2165 C2163 1.327 . S
C2165 C2181 1.429 . S
C2165 H2187 0.950 . S
C2166 H2162 0.949 . S
C2166 C2174 1.574 . S
C2166 C2182 1.368 . S
H2167 C2175 0.950 . S
H2168 C2173 0.950 . S
H2169 C2174 0.949 . S
H2170 C2176 0.950 . S
H2171 C2177 0.950 . S
H2172 C2178 0.949 . S
C2173 H2168 0.950 . S
C2173 C2175 1.327 . S
C2173 C2179 1.429 . S
C2174 C2166 1.574 . S
C2174 H2169 0.949 . S
C2174 C2180 1.368 . S
C2175 C2159 1.349 . S
C2175 H2167 0.950 . S
C2175 C2173 1.327 . S
C2176 C2164 1.349 . S
C2176 H2170 0.950 . S
C2176 C2177 1.327 . S
C2177 H2171 0.950 . S
C2177 C2176 1.327 . S
C2177 C2181 1.429 . S
C2178 C2161 1.574 . S
C2178 H2172 0.949 . S
C2178 C2182 1.368 . S
C2179 C2160 1.429 . S
C2179 C2173 1.429 . S
C2179 C2180 1.523 . S
C2180 C2161 1.368 . S
C2180 C2174 1.368 . S
C2180 C2179 1.523 . S
C2181 C2165 1.429 . S
C2181 C2177 1.429 . S
C2181 C2182 1.523 . S
C2182 C2166 1.368 . S
C2182 C2178 1.368 . S
C2182 C2181 1.523 . S
H2183 C2158 0.950 . S
H2184 C2160 0.950 . S
H2185 C2161 0.949 . S
H2186 C2163 0.950 . S
H2187 C2165 0.950 . S
C2188 C2189 1.349 . S
C2188 C2190 1.327 . S
C2188 H2213 0.950 . S
C2189 C2188 1.349 . S
C2189 C2205 1.349 . S
C2190 C2188 1.327 . S
C2190 C2209 1.429 . S
C2190 H2214 0.950 . S
C2191 C2208 1.574 . S
C2191 C2210 1.368 . S
C2191 H2215 0.949 . S
H2192 C2196 0.949 . S
C2193 C2194 1.349 . S
C2193 C2195 1.327 . S
C2193 H2216 0.950 . S
C2194 C2193 1.349 . S
C2194 C2206 1.349 . S
C2195 C2193 1.327 . S
C2195 C2211 1.429 . S
C2195 H2217 0.950 . S
C2196 H2192 0.949 . S
C2196 C2204 1.574 . S
C2196 C2212 1.368 . S
H2197 C2205 0.950 . S
H2198 C2203 0.950 . S
H2199 C2204 0.949 . S
H2200 C2206 0.950 . S
H2201 C2207 0.950 . S
H2202 C2208 0.949 . S
C2203 H2198 0.950 . S
C2203 C2205 1.327 . S
C2203 C2209 1.429 . S
C2204 C2196 1.574 . S
C2204 H2199 0.949 . S
C2204 C2210 1.368 . S
C2205 C2189 1.349 . S
C2205 H2197 0.950 . S
C2205 C2203 1.327 . S
C2206 C2194 1.349 . S
C2206 H2200 0.950 . S
C2206 C2207 1.327 . S
C2207 H2201 0.950 . S
C2207 C2206 1.327 . S
C2207 C2211 1.429 . S
C2208 C2191 1.574 . S
C2208 H2202 0.949 . S
C2208 C2212 1.368 . S
C2209 C2190 1.429 . S
C2209 C2203 1.429 . S
C2209 C2210 1.523 . S
C2210 C2191 1.368 . S
C2210 C2204 1.368 . S
C2210 C2209 1.523 . S
C2211 C2195 1.429 . S
C2211 C2207 1.429 . S
C2211 C2212 1.523 . S
C2212 C2196 1.368 . S
C2212 C2208 1.368 . S
C2212 C2211 1.523 . S
H2213 C2188 0.950 . S
H2214 C2190 0.950 . S
H2215 C2191 0.949 . S
H2216 C2193 0.950 . S
H2217 C2195 0.950 . S
C2218 C2219 1.349 . S
C2218 C2220 1.327 . S
C2218 H2243 0.950 . S
C2219 C2218 1.349 . S
C2219 C2235 1.349 . S
C2220 C2218 1.327 . S
C2220 C2239 1.429 . S
C2220 H2244 0.950 . S
C2221 C2238 1.574 . S
C2221 C2240 1.368 . S
C2221 H2245 0.949 . S
H2222 C2226 0.949 . S
C2223 C2224 1.349 . S
C2223 C2225 1.327 . S
C2223 H2246 0.950 . S
C2224 C2223 1.349 . S
C2224 C2236 1.349 . S
C2225 C2223 1.327 . S
C2225 C2241 1.429 . S
C2225 H2247 0.950 . S
C2226 H2222 0.949 . S
C2226 C2234 1.574 . S
C2226 C2242 1.368 . S
H2227 C2235 0.950 . S
H2228 C2233 0.950 . S
H2229 C2234 0.949 . S
H2230 C2236 0.950 . S
H2231 C2237 0.950 . S
H2232 C2238 0.949 . S
C2233 H2228 0.950 . S
C2233 C2235 1.327 . S
C2233 C2239 1.429 . S
C2234 C2226 1.574 . S
C2234 H2229 0.949 . S
C2234 C2240 1.368 . S
C2235 C2219 1.349 . S
C2235 H2227 0.950 . S
C2235 C2233 1.327 . S
C2236 C2224 1.349 . S
C2236 H2230 0.950 . S
C2236 C2237 1.327 . S
C2237 H2231 0.950 . S
C2237 C2236 1.327 . S
C2237 C2241 1.429 . S
C2238 C2221 1.574 . S
C2238 H2232 0.949 . S
C2238 C2242 1.368 . S
C2239 C2220 1.429 . S
C2239 C2233 1.429 . S
C2239 C2240 1.523 . S
C2240 C2221 1.368 . S
C2240 C2234 1.368 . S
C2240 C2239 1.523 . S
C2241 C2225 1.429 . S
C2241 C2237 1.429 . S
C2241 C2242 1.523 . S
C2242 C2226 1.368 . S
C2242 C2238 1.368 . S
C2242 C2241 1.523 . S
H2243 C2218 0.950 . S
H2244 C2220 0.950 . S
H2245 C2221 0.949 . S
H2246 C2223 0.950 . S
H2247 C2225 0.950 . S
C2248 C2249 1.349 . S
C2248 C2250 1.327 . S
C2248 H2273 0.950 . S
C2249 C2248 1.349 . S
C2249 C2265 1.349 . S
C2250 C2248 1.327 . S
C2250 C2269 1.429 . S
C2250 H2274 0.950 . S
C2251 C2268 1.574 . S
C2251 C2270 1.368 . S
C2251 H2275 0.949 . S
H2252 C2256 0.949 . S
C2253 C2254 1.349 . S
C2253 C2255 1.327 . S
C2253 H2276 0.950 . S
C2254 C2253 1.349 . S
C2254 C2266 1.349 . S
C2255 C2253 1.327 . S
C2255 C2271 1.429 . S
C2255 H2277 0.950 . S
C2256 H2252 0.949 . S
C2256 C2264 1.574 . S
C2256 C2272 1.368 . S
H2257 C2265 0.950 . S
H2258 C2263 0.950 . S
H2259 C2264 0.949 . S
H2260 C2266 0.950 . S
H2261 C2267 0.950 . S
H2262 C2268 0.949 . S
C2263 H2258 0.950 . S
C2263 C2265 1.327 . S
C2263 C2269 1.429 . S
C2264 C2256 1.574 . S
C2264 H2259 0.949 . S
C2264 C2270 1.368 . S
C2265 C2249 1.349 . S
C2265 H2257 0.950 . S
C2265 C2263 1.327 . S
C2266 C2254 1.349 . S
C2266 H2260 0.950 . S
C2266 C2267 1.327 . S
C2267 H2261 0.950 . S
C2267 C2266 1.327 . S
C2267 C2271 1.429 . S
C2268 C2251 1.574 . S
C2268 H2262 0.949 . S
C2268 C2272 1.368 . S
C2269 C2250 1.429 . S
C2269 C2263 1.429 . S
C2269 C2270 1.523 . S
C2270 C2251 1.368 . S
C2270 C2264 1.368 . S
C2270 C2269 1.523 . S
C2271 C2255 1.429 . S
C2271 C2267 1.429 . S
C2271 C2272 1.523 . S
C2272 C2256 1.368 . S
C2272 C2268 1.368 . S
C2272 C2271 1.523 . S
H2273 C2248 0.950 . S
H2274 C2250 0.950 . S
H2275 C2251 0.949 . S
H2276 C2253 0.950 . S
H2277 C2255 0.950 . S
C2278 C2279 1.349 . S
C2278 C2280 1.327 . S
C2278 H2303 0.950 . S
C2279 C2278 1.349 . S
C2279 C2295 1.349 . S
C2280 C2278 1.327 . S
C2280 C2299 1.429 . S
C2280 H2304 0.950 . S
C2281 C2298 1.574 . S
C2281 C2300 1.368 . S
C2281 H2305 0.949 . S
H2282 C2286 0.949 . S
C2283 C2284 1.349 . S
C2283 C2285 1.327 . S
C2283 H2306 0.950 . S
C2284 C2283 1.349 . S
C2284 C2296 1.349 . S
C2285 C2283 1.327 . S
C2285 C2301 1.429 . S
C2285 H2307 0.950 . S
C2286 H2282 0.949 . S
C2286 C2294 1.574 . S
C2286 C2302 1.368 . S
H2287 C2295 0.950 . S
H2288 C2293 0.950 . S
H2289 C2294 0.949 . S
H2290 C2296 0.950 . S
H2291 C2297 0.950 . S
H2292 C2298 0.949 . S
C2293 H2288 0.950 . S
C2293 C2295 1.327 . S
C2293 C2299 1.429 . S
C2294 C2286 1.574 . S
C2294 H2289 0.949 . S
C2294 C2300 1.368 . S
C2295 C2279 1.349 . S
C2295 H2287 0.950 . S
C2295 C2293 1.327 . S
C2296 C2284 1.349 . S
C2296 H2290 0.950 . S
C2296 C2297 1.327 . S
C2297 H2291 0.950 . S
C2297 C2296 1.327 . S
C2297 C2301 1.429 . S
C2298 C2281 1.574 . S
C2298 H2292 0.949 . S
C2298 C2302 1.368 . S
C2299 C2280 1.429 . S
C2299 C2293 1.429 . S
C2299 C2300 1.523 . S
C2300 C2281 1.368 . S
C2300 C2294 1.368 . S
C2300 C2299 1.523 . S
C2301 C2285 1.429 . S
C2301 C2297 1.429 . S
C2301 C2302 1.523 . S
C2302 C2286 1.368 . S
C2302 C2298 1.368 . S
C2302 C2301 1.523 . S
H2303 C2278 0.950 . S
H2304 C2280 0.950 . S
H2305 C2281 0.949 . S
H2306 C2283 0.950 . S
H2307 C2285 0.950 . S
C2308 C2309 1.349 . S
C2308 C2310 1.327 . S
C2308 H2333 0.950 . S
C2309 C2308 1.349 . S
C2309 C2325 1.349 . S
C2310 C2308 1.327 . S
C2310 C2329 1.429 . S
C2310 H2334 0.950 . S
C2311 C2328 1.574 . S
C2311 C2330 1.368 . S
C2311 H2335 0.949 . S
H2312 C2316 0.949 . S
C2313 C2314 1.349 . S
C2313 C2315 1.327 . S
C2313 H2336 0.950 . S
C2314 C2313 1.349 . S
C2314 C2326 1.349 . S
C2315 C2313 1.327 . S
C2315 C2331 1.429 . S
C2315 H2337 0.950 . S
C2316 H2312 0.949 . S
C2316 C2324 1.574 . S
C2316 C2332 1.368 . S
H2317 C2325 0.950 . S
H2318 C2323 0.950 . S
H2319 C2324 0.949 . S
H2320 C2326 0.950 . S
H2321 C2327 0.950 . S
H2322 C2328 0.949 . S
C2323 H2318 0.950 . S
C2323 C2325 1.327 . S
C2323 C2329 1.429 . S
C2324 C2316 1.574 . S
C2324 H2319 0.949 . S
C2324 C2330 1.368 . S
C2325 C2309 1.349 . S
C2325 H2317 0.950 . S
C2325 C2323 1.327 . S
C2326 C2314 1.349 . S
C2326 H2320 0.950 . S
C2326 C2327 1.327 . S
C2327 H2321 0.950 . S
C2327 C2326 1.327 . S
C2327 C2331 1.429 . S
C2328 C2311 1.574 . S
C2328 H2322 0.949 . S
C2328 C2332 1.368 . S
C2329 C2310 1.429 . S
C2329 C2323 1.429 . S
C2329 C2330 1.523 . S
C2330 C2311 1.368 . S
C2330 C2324 1.368 . S
C2330 C2329 1.523 . S
C2331 C2315 1.429 . S
C2331 C2327 1.429 . S
C2331 C2332 1.523 . S
C2332 C2316 1.368 . S
C2332 C2328 1.368 . S
C2332 C2331 1.523 . S
H2333 C2308 0.950 . S
H2334 C2310 0.950 . S
H2335 C2311 0.949 . S
H2336 C2313 0.950 . S
H2337 C2315 0.950 . S
C2338 C2339 1.349 . S
C2338 C2340 1.327 . S
C2338 H2363 0.950 . S
C2339 C2338 1.349 . S
C2339 C2355 1.349 . S
C2340 C2338 1.327 . S
C2340 C2359 1.429 . S
C2340 H2364 0.950 . S
C2341 C2358 1.574 . S
C2341 C2360 1.368 . S
C2341 H2365 0.949 . S
H2342 C2346 0.949 . S
C2343 C2344 1.349 . S
C2343 C2345 1.327 . S
C2343 H2366 0.950 . S
C2344 C2343 1.349 . S
C2344 C2356 1.349 . S
C2345 C2343 1.327 . S
C2345 C2361 1.429 . S
C2345 H2367 0.950 . S
C2346 H2342 0.949 . S
C2346 C2354 1.574 . S
C2346 C2362 1.368 . S
H2347 C2355 0.950 . S
H2348 C2353 0.950 . S
H2349 C2354 0.949 . S
H2350 C2356 0.950 . S
H2351 C2357 0.950 . S
H2352 C2358 0.949 . S
C2353 H2348 0.950 . S
C2353 C2355 1.327 . S
C2353 C2359 1.429 . S
C2354 C2346 1.574 . S
C2354 H2349 0.949 . S
C2354 C2360 1.368 . S
C2355 C2339 1.349 . S
C2355 H2347 0.950 . S
C2355 C2353 1.327 . S
C2356 C2344 1.349 . S
C2356 H2350 0.950 . S
C2356 C2357 1.327 . S
C2357 H2351 0.950 . S
C2357 C2356 1.327 . S
C2357 C2361 1.429 . S
C2358 C2341 1.574 . S
C2358 H2352 0.949 . S
C2358 C2362 1.368 . S
C2359 C2340 1.429 . S
C2359 C2353 1.429 . S
C2359 C2360 1.523 . S
C2360 C2341 1.368 . S
C2360 C2354 1.368 . S
C2360 C2359 1.523 . S
C2361 C2345 1.429 . S
C2361 C2357 1.429 . S
C2361 C2362 1.523 . S
C2362 C2346 1.368 . S
C2362 C2358 1.368 . S
C2362 C2361 1.523 . S
H2363 C2338 0.950 . S
H2364 C2340 0.950 . S
H2365 C2341 0.949 . S
H2366 C2343 0.950 . S
H2367 C2345 0.950 . S
C1409 C57 0.880 . S
C1414 C1113 0.877 . S
C1439 C117 0.880 . S
C1444 C489 0.880 . S
C1469 C205 0.880 . S
C1474 C1289 0.883 . S
C1499 C665 0.880 . S
C1504 C313 0.880 . S
C1529 C1252 0.880 . S
C1534 C196 0.877 . S
C1559 C645 0.880 . S
C1564 C321 0.880 . S
C1589 C1076 0.880 . S
C1594 C49 0.883 . S
C1619 C469 0.880 . S
C1624 C108 0.880 . S
C1649 C409 0.880 . S
C1654 C761 0.883 . S
C1679 C577 0.880 . S
C1684 C909 0.877 . S
C1709 C900 0.880 . S
C1714 C557 0.883 . S
C1739 C372 0.880 . S
C1744 C753 0.877 . S
C1769 C1201 0.880 . S
C1774 C841 0.880 . S
C1799 C1025 0.880 . S
C1804 C1377 0.880 . S
C1829 C1017 0.880 . S
C1834 C1340 0.880 . S
C1859 C849 0.880 . S
C1864 C1164 0.880 . S
C1889 C997 1.589 . S
C1894 C20 1.588 . S
C1919 C733 1.589 . S
C1924 C137 1.596 . S
C1949 C225 1.589 . S
C1954 C812 1.589 . S
C1979 C937 1.589 . S
C1984 C293 1.584 . S
C2009 C988 1.589 . S
C2014 C233 1.589 . S
C2039 C284 1.589 . S
C2044 C724 1.595 . S
C2069 C821 1.589 . S
C2074 C29 1.591 . S
C2099 C929 1.589 . S
C2104 C145 1.581 . S
C2129 C401 1.594 . S
C2134 C1349 1.595 . S
C2159 C1085 1.594 . S
C2164 C497 1.587 . S
C2189 C585 1.594 . S
C2194 C1173 1.594 . S
C2219 C673 1.594 . S
C2224 C1261 1.599 . S
C2249 C548 1.594 . S
C2254 C1369 1.594 . S
C2279 C1105 1.594 . S
C2284 C636 1.587 . S
C2309 C1193 1.594 . S
C2314 C381 1.592 . S
C2339 C1281 1.594 . S
C2344 C460 1.602 . S
