# Generated by pormake.
# Topology umh, (4)-cn, num edge types: 1
# Building blocks:
#     Node 0, Type 0, BuildingBlock: NAWXER_clean_sbu_0, # of connection points: 4
#     Node 1, Type 0, BuildingBlock: NAWXER_clean_sbu_0, # of connection points: 4
#     Node 2, Type 0, BuildingBlock: NAWXER_clean_sbu_0, # of connection points: 4
#     Node 3, Type 0, BuildingBlock: NAWXER_clean_sbu_0, # of connection points: 4
#     Node 4, Type 0, BuildingBlock: NAWXER_clean_sbu_0, # of connection points: 4
#     Node 5, Type 0, BuildingBlock: NAWXER_clean_sbu_0, # of connection points: 4
#     Node 6, Type 0, BuildingBlock: NAWXER_clean_sbu_0, # of connection points: 4
#     Node 7, Type 0, BuildingBlock: NAWXER_clean_sbu_0, # of connection points: 4
#     Node 8, Type 0, BuildingBlock: NAWXER_clean_sbu_0, # of connection points: 4
#     Node 9, Type 0, BuildingBlock: NAWXER_clean_sbu_0, # of connection points: 4
#     Node 10, Type 0, BuildingBlock: NAWXER_clean_sbu_0, # of connection points: 4
#     Node 11, Type 0, BuildingBlock: NAWXER_clean_sbu_0, # of connection points: 4
#     Node 12, Type 0, BuildingBlock: NAWXER_clean_sbu_0, # of connection points: 4
#     Node 13, Type 0, BuildingBlock: NAWXER_clean_sbu_0, # of connection points: 4
#     Node 14, Type 0, BuildingBlock: NAWXER_clean_sbu_0, # of connection points: 4
#     Node 15, Type 0, BuildingBlock: NAWXER_clean_sbu_0, # of connection points: 4
#     Edge 16, Type (0, 0), BuildingBlock: XUDNAN_clean_linker_2, # of connection points: 2
#     Edge 17, Type (0, 0), BuildingBlock: XUDNAN_clean_linker_2, # of connection points: 2
#     Edge 18, Type (0, 0), BuildingBlock: XUDNAN_clean_linker_2, # of connection points: 2
#     Edge 19, Type (0, 0), BuildingBlock: XUDNAN_clean_linker_2, # of connection points: 2
#     Edge 20, Type (0, 0), BuildingBlock: XUDNAN_clean_linker_2, # of connection points: 2
#     Edge 21, Type (0, 0), BuildingBlock: XUDNAN_clean_linker_2, # of connection points: 2
#     Edge 22, Type (0, 0), BuildingBlock: XUDNAN_clean_linker_2, # of connection points: 2
#     Edge 23, Type (0, 0), BuildingBlock: XUDNAN_clean_linker_2, # of connection points: 2
#     Edge 24, Type (0, 0), BuildingBlock: XUDNAN_clean_linker_2, # of connection points: 2
#     Edge 25, Type (0, 0), BuildingBlock: XUDNAN_clean_linker_2, # of connection points: 2
#     Edge 26, Type (0, 0), BuildingBlock: XUDNAN_clean_linker_2, # of connection points: 2
#     Edge 27, Type (0, 0), BuildingBlock: XUDNAN_clean_linker_2, # of connection points: 2
#     Edge 28, Type (0, 0), BuildingBlock: XUDNAN_clean_linker_2, # of connection points: 2
#     Edge 29, Type (0, 0), BuildingBlock: XUDNAN_clean_linker_2, # of connection points: 2
#     Edge 30, Type (0, 0), BuildingBlock: XUDNAN_clean_linker_2, # of connection points: 2
#     Edge 31, Type (0, 0), BuildingBlock: XUDNAN_clean_linker_2, # of connection points: 2
#     Edge 32, Type (0, 0), BuildingBlock: XUDNAN_clean_linker_2, # of connection points: 2
#     Edge 33, Type (0, 0), BuildingBlock: XUDNAN_clean_linker_2, # of connection points: 2
#     Edge 34, Type (0, 0), BuildingBlock: XUDNAN_clean_linker_2, # of connection points: 2
#     Edge 35, Type (0, 0), BuildingBlock: XUDNAN_clean_linker_2, # of connection points: 2
#     Edge 36, Type (0, 0), BuildingBlock: XUDNAN_clean_linker_2, # of connection points: 2
#     Edge 37, Type (0, 0), BuildingBlock: XUDNAN_clean_linker_2, # of connection points: 2
#     Edge 38, Type (0, 0), BuildingBlock: XUDNAN_clean_linker_2, # of connection points: 2
#     Edge 39, Type (0, 0), BuildingBlock: XUDNAN_clean_linker_2, # of connection points: 2
#     Edge 40, Type (0, 0), BuildingBlock: XUDNAN_clean_linker_2, # of connection points: 2
#     Edge 41, Type (0, 0), BuildingBlock: XUDNAN_clean_linker_2, # of connection points: 2
#     Edge 42, Type (0, 0), BuildingBlock: XUDNAN_clean_linker_2, # of connection points: 2
#     Edge 43, Type (0, 0), BuildingBlock: XUDNAN_clean_linker_2, # of connection points: 2
#     Edge 44, Type (0, 0), BuildingBlock: XUDNAN_clean_linker_2, # of connection points: 2
#     Edge 45, Type (0, 0), BuildingBlock: XUDNAN_clean_linker_2, # of connection points: 2
#     Edge 46, Type (0, 0), BuildingBlock: XUDNAN_clean_linker_2, # of connection points: 2
#     Edge 47, Type (0, 0), BuildingBlock: XUDNAN_clean_linker_2, # of connection points: 2
# Relax obj value: 0.044
# Max RMSD: 0.109
# Mean RMSD: 0.109
data_MOF--net-umh--node1-NAWXER_clean_sbu_0--edge1-XUDNAN_clean_linker_2
_symmetry_space_group_name_H-M    P1
_symmetry_Int_Tables_number       1
_symmetry_cell_setting            triclinic
loop_
_symmetry_equiv_pos_as_xyz
'x, y, z'
_cell_length_a     40.654909
_cell_length_b     40.538175
_cell_length_c     53.472397
_cell_angle_alpha  89.911412
_cell_angle_beta   89.916549
_cell_angle_gamma 90.317049
loop_
_atom_site_label
_atom_site_type_symbol
_atom_site_fract_x
_atom_site_fract_y
_atom_site_fract_z
_atom_type_partial_charge
C0 C 0.36307 0.09241 0.10932 0.0
C1 C 0.30749 0.07631 0.1897 0.0
O2 O 0.37845 0.10626 0.12748 0.0
Zn3 Zn 0.37261 0.11103 0.16747 0.0
O4 O 0.33725 0.07569 0.11393 0.0
Zn5 Zn 0.33654 0.08262 0.14984 0.0
O6 O 0.32643 0.13536 0.1525 0.0
O7 O 0.36962 0.15766 0.17105 0.0
O8 O 0.29986 0.06453 0.16847 0.0
O9 O 0.33386 0.09358 0.19191 0.0
O10 O 0.41101 0.09179 0.18116 0.0
O11 O 0.37891 0.05478 0.16326 0.0
C12 C 0.34155 0.16087 0.16104 0.0
C13 C 0.40542 0.06207 0.17517 0.0
C14 C 0.41632 0.30816 0.6935 0.0
C15 C 0.40137 0.37696 0.61886 0.0
O16 O 0.40539 0.33697 0.69896 0.0
Zn17 Zn 0.39367 0.38212 0.67886 0.0
O18 O 0.4244 0.30189 0.67104 0.0
Zn19 Zn 0.41242 0.34342 0.65599 0.0
O20 O 0.44903 0.37784 0.66826 0.0
O21 O 0.42474 0.41595 0.6909 0.0
O22 O 0.41393 0.3483 0.61977 0.0
O23 O 0.39353 0.3915 0.63927 0.0
O24 O 0.34606 0.38543 0.68512 0.0
O25 O 0.36037 0.34288 0.6619 0.0
C26 C 0.45077 0.40455 0.68102 0.0
C27 C 0.338 0.35969 0.67285 0.0
C28 C 0.2119 0.44803 0.19183 0.0
C29 C 0.1667 0.4259 0.10873 0.0
O30 O 0.19133 0.42393 0.19156 0.0
Zn31 Zn 0.1602 0.39897 0.16513 0.0
O32 O 0.21836 0.46361 0.17174 0.0
Zn33 Zn 0.1906 0.43724 0.14992 0.0
O34 O 0.14255 0.45206 0.16208 0.0
O35 O 0.11654 0.40868 0.17761 0.0
O36 O 0.18966 0.44612 0.114 0.0
O37 O 0.15428 0.4077 0.12598 0.0
O38 O 0.17622 0.35413 0.16644 0.0
O39 O 0.21304 0.38958 0.15199 0.0
C40 C 0.11687 0.43926 0.17224 0.0
C41 C 0.20511 0.36011 0.15847 0.0
C42 C 0.04138 0.15732 0.65367 0.0
C43 C 0.13372 0.23585 0.64506 0.0
O44 O 0.04037 0.1872 0.64646 0.0
Zn45 Zn 0.08708 0.19747 0.6483 0.0
O46 O 0.06919 0.14477 0.65964 0.0
Zn47 Zn 0.11982 0.16019 0.66089 0.0
O48 O 0.13189 0.15779 0.69596 0.0
O49 O 0.09695 0.19783 0.68769 0.0
O50 O 0.14203 0.20683 0.65205 0.0
O51 O 0.10365 0.24181 0.64024 0.0
O52 O 0.10813 0.16744 0.61908 0.0
O53 O 0.14071 0.13118 0.6371 0.0
C54 C 0.115 0.18226 0.70332 0.0
C55 C 0.1281 0.14311 0.61734 0.0
C56 C 0.30445 0.45533 0.36082 0.0
C57 C 0.34178 0.43909 0.44694 0.0
O58 O 0.32522 0.43182 0.36305 0.0
Zn59 Zn 0.35465 0.40976 0.39193 0.0
O60 O 0.29648 0.47225 0.37987 0.0
Zn61 Zn 0.32316 0.44853 0.40391 0.0
O62 O 0.37126 0.46362 0.39342 0.0
O63 O 0.39908 0.41983 0.38146 0.0
O64 O 0.32156 0.46044 0.4389 0.0
O65 O 0.35541 0.41926 0.43146 0.0
O66 O 0.33974 0.36472 0.391 0.0
O67 O 0.30192 0.39994 0.40373 0.0
C68 C 0.3978 0.45075 0.38514 0.0
C69 C 0.31063 0.37035 0.39853 0.0
C70 C 0.03305 0.35203 0.89224 0.0
C71 C 0.1187 0.27279 0.91536 0.0
O72 O 0.02846 0.32381 0.90212 0.0
Zn73 Zn 0.07458 0.3118 0.90514 0.0
O74 O 0.06244 0.36252 0.88822 0.0
Zn75 Zn 0.11214 0.34654 0.89418 0.0
O76 O 0.13049 0.34462 0.86067 0.0
O77 O 0.09101 0.30782 0.86712 0.0
O78 O 0.12959 0.30057 0.90748 0.0
O79 O 0.08779 0.2683 0.91755 0.0
O80 O 0.09068 0.34452 0.93384 0.0
O81 O 0.12975 0.37719 0.91902 0.0
C82 C 0.11273 0.32088 0.85274 0.0
C83 C 0.11145 0.36801 0.93707 0.0
C84 C 0.10013 0.08067 0.37834 0.0
C85 C 0.17428 0.17071 0.39306 0.0
O86 O 0.12843 0.06892 0.38424 0.0
Zn87 Zn 0.17602 0.09124 0.39439 0.0
O88 O 0.09574 0.11153 0.37838 0.0
Zn89 Zn 0.13865 0.12422 0.38666 0.0
O90 O 0.16647 0.10804 0.35435 0.0
O91 O 0.20541 0.07536 0.36865 0.0
O92 O 0.14429 0.17022 0.38676 0.0
O93 O 0.18967 0.14345 0.39638 0.0
O94 O 0.18379 0.07605 0.42817 0.0
O95 O 0.14354 0.11197 0.42582 0.0
C96 C 0.19143 0.08953 0.35037 0.0
C97 C 0.16208 0.0933 0.43903 0.0
C98 C 0.31213 0.13754 0.88586 0.0
C99 C 0.40693 0.06942 0.86784 0.0
O100 O 0.33885 0.15394 0.88959 0.0
Zn101 Zn 0.39153 0.14433 0.88487 0.0
O102 O 0.31379 0.10868 0.87688 0.0
Zn103 Zn 0.3606 0.10584 0.87535 0.0
O104 O 0.37401 0.10864 0.91507 0.0
O105 O 0.40751 0.15141 0.91807 0.0
O106 O 0.37641 0.0638 0.8655 0.0
O107 O 0.41657 0.09827 0.87481 0.0
O108 O 0.40545 0.17663 0.86039 0.0
O109 O 0.3743 0.13772 0.84408 0.0
C110 C 0.39229 0.12763 0.92846 0.0
C111 C 0.39148 0.16421 0.84143 0.0
C112 C 0.64048 0.89585 0.93039 0.0
C113 C 0.67504 0.90326 0.84321 0.0
O114 O 0.66196 0.91488 0.92069 0.0
Zn115 Zn 0.65853 0.89848 0.88718 0.0
O116 O 0.62516 0.87494 0.91656 0.0
Zn117 Zn 0.62469 0.8613 0.87722 0.0
O118 O 0.6377 0.81506 0.87795 0.0
O119 O 0.67614 0.84885 0.89183 0.0
O120 O 0.65162 0.88231 0.84628 0.0
O121 O 0.68747 0.91751 0.86209 0.0
O122 O 0.60985 0.91588 0.87729 0.0
O123 O 0.58015 0.87184 0.86807 0.0
C124 C 0.66589 0.81938 0.88765 0.0
C125 C 0.58235 0.90298 0.87051 0.0
C126 C 0.63889 0.63568 0.42746 0.0
C127 C 0.63475 0.66605 0.33813 0.0
O128 O 0.61422 0.65322 0.42091 0.0
Zn129 Zn 0.59392 0.67651 0.38883 0.0
O130 O 0.66059 0.62813 0.41127 0.0
Zn131 Zn 0.63947 0.64979 0.38257 0.0
O132 O 0.64469 0.7002 0.39173 0.0
O133 O 0.59605 0.72356 0.3965 0.0
O134 O 0.65762 0.64951 0.34845 0.0
O135 O 0.61081 0.67649 0.35142 0.0
O136 O 0.55244 0.65346 0.38566 0.0
O137 O 0.59547 0.62175 0.37829 0.0
C138 C 0.62729 0.72568 0.39636 0.0
C139 C 0.56426 0.62546 0.37985 0.0
C140 C 0.79958 0.62187 0.90735 0.0
C141 C 0.87023 0.52602 0.89133 0.0
O142 O 0.82854 0.62914 0.89963 0.0
Zn143 Zn 0.87269 0.60539 0.88852 0.0
O144 O 0.79133 0.59183 0.9106 0.0
Zn145 Zn 0.8335 0.57252 0.90059 0.0
O146 O 0.86655 0.58807 0.92929 0.0
O147 O 0.9039 0.62204 0.91354 0.0
O148 O 0.84127 0.52466 0.9004 0.0
O149 O 0.88348 0.55407 0.88654 0.0
O150 O 0.87595 0.61698 0.85309 0.0
O151 O 0.8339 0.58404 0.86164 0.0
C152 C 0.89191 0.60659 0.93221 0.0
C153 C 0.85084 0.60073 0.84581 0.0
C154 C 0.81565 0.86248 0.36706 0.0
C155 C 0.9155 0.92741 0.3602 0.0
O156 O 0.82054 0.88839 0.35421 0.0
Zn157 Zn 0.86653 0.89355 0.36189 0.0
O158 O 0.83998 0.84864 0.37809 0.0
Zn159 Zn 0.89181 0.85747 0.38303 0.0
O160 O 0.89395 0.86005 0.41953 0.0
O161 O 0.86574 0.90015 0.40185 0.0
O162 O 0.92051 0.90053 0.37234 0.0
O163 O 0.88727 0.93315 0.35108 0.0
O164 O 0.89152 0.85784 0.33962 0.0
O165 O 0.91311 0.82119 0.3652 0.0
C166 C 0.87666 0.88602 0.42163 0.0
C167 C 0.90814 0.83152 0.34309 0.0
C168 C 0.73826 0.57213 0.68514 0.0
C169 C 0.68555 0.58599 0.60367 0.0
O170 O 0.74643 0.55895 0.66449 0.0
Zn171 Zn 0.71103 0.57661 0.64454 0.0
O172 O 0.71191 0.58938 0.68639 0.0
Zn173 Zn 0.67423 0.60693 0.66119 0.0
O174 O 0.63362 0.58644 0.67363 0.0
O175 O 0.66789 0.55036 0.65739 0.0
O176 O 0.67 0.60023 0.6215 0.0
O177 O 0.71141 0.56974 0.6085 0.0
O178 O 0.72315 0.6278 0.6473 0.0
O179 O 0.68149 0.6549 0.66369 0.0
C180 C 0.64021 0.55675 0.66791 0.0
C181 C 0.71065 0.65491 0.65493 0.0
C182 C 0.95373 0.7097 0.1895 0.0
C183 C 0.94229 0.66111 0.1056 0.0
O184 O 0.97115 0.71596 0.17024 0.0
Zn185 Zn 0.94955 0.68568 0.14723 0.0
O186 O 0.93106 0.68766 0.18815 0.0
Zn187 Zn 0.91019 0.6552 0.16062 0.0
O188 O 0.91888 0.61193 0.17415 0.0
O189 O 0.96356 0.63785 0.16091 0.0
O190 O 0.9227 0.64877 0.12198 0.0
O191 O 0.96196 0.68419 0.1118 0.0
O192 O 0.90195 0.70711 0.14542 0.0
O193 O 0.86529 0.67086 0.15889 0.0
C194 C 0.94979 0.6122 0.17052 0.0
C195 C 0.87206 0.6994 0.15035 0.0
C196 C 0.82248 0.93974 0.59659 0.0
C197 C 0.78089 0.95002 0.68157 0.0
O198 O 0.79609 0.9527 0.60446 0.0
Zn199 Zn 0.80366 0.94729 0.6395 0.0
O200 O 0.84351 0.92885 0.61245 0.0
Zn201 Zn 0.84686 0.92636 0.65308 0.0
O202 O 0.85137 0.87949 0.6579 0.0
O203 O 0.80239 0.89399 0.64413 0.0
O204 O 0.80987 0.93748 0.68151 0.0
O205 O 0.76871 0.9603 0.66118 0.0
O206 O 0.84231 0.98262 0.64666 0.0
O207 O 0.88441 0.95449 0.66089 0.0
C208 C 0.82232 0.87148 0.65139 0.0
C209 C 0.87204 0.98198 0.65465 0.0
C210 C 0.5758 0.89328 0.1771 0.0
C211 C 0.67633 0.83836 0.15194 0.0
O212 O 0.60546 0.89988 0.1825 0.0
Zn213 Zn 0.62652 0.86472 0.16504 0.0
O214 O 0.56918 0.86725 0.16439 0.0
Zn215 Zn 0.59744 0.82747 0.14844 0.0
O216 O 0.58617 0.7881 0.16794 0.0
O217 O 0.62015 0.82163 0.18776 0.0
O218 O 0.65053 0.82204 0.14551 0.0
O219 O 0.67353 0.86586 0.16315 0.0
O220 O 0.61502 0.87235 0.12633 0.0
O221 O 0.58596 0.82967 0.11316 0.0
C222 C 0.60451 0.7942 0.18661 0.0
C223 C 0.60003 0.85717 0.10864 0.0
H224 H 0.35112 0.09203 0.95959 0.0
H225 H 0.43948 0.15265 0.95942 0.0
H226 H 0.44319 0.14721 1.00525 0.0
H227 H 0.31689 0.12629 1.01482 0.0
H228 H 0.29962 0.08804 0.02617 0.0
H229 H 0.30519 0.09435 0.9931 0.0
H230 H 0.3399 0.04107 0.99051 0.0
H231 H 0.33442 0.03456 0.02361 0.0
H232 H 0.37526 0.0365 1.0105 0.0
H233 H 0.4363 0.13743 0.05103 0.0
H234 H 0.41843 0.12529 0.0941 0.0
H235 H 0.33373 0.07178 0.06536 0.0
C236 C 0.37151 0.10372 0.96917 0.0
C237 C 0.39514 0.12261 0.95586 0.0
C238 C 0.42111 0.13804 0.96917 0.0
C239 C 0.42349 0.13502 0.99522 0.0
C240 C 0.39965 0.11658 1.0078 0.0
C241 C 0.3741 0.10123 0.99529 0.0
C242 C 0.35077 0.08439 1.01355 0.0
C243 C 0.31607 0.09916 1.0118 0.0
C244 C 0.35006 0.0469 1.00929 0.0
C245 C 0.36707 0.09297 0.03825 0.0
C246 C 0.39537 0.11132 0.03442 0.0
C247 C 0.41428 0.12292 0.05427 0.0
C248 C 0.40387 0.11588 0.07871 0.0
C249 C 0.37469 0.0975 0.08323 0.0
C250 C 0.35627 0.08567 0.0626 0.0
H251 H 0.37377 0.38885 0.47099 0.0
H252 H 0.32714 0.4834 0.484 0.0
H253 H 0.34007 0.47884 0.52903 0.0
H254 H 0.34423 0.34999 0.52663 0.0
H255 H 0.38123 0.32671 0.5319 0.0
H256 H 0.36976 0.3382 0.50057 0.0
H257 H 0.42643 0.36665 0.49439 0.0
H258 H 0.43805 0.35534 0.52574 0.0
H259 H 0.4396 0.39797 0.51614 0.0
H260 H 0.35732 0.4637 0.5725 0.0
H261 H 0.37489 0.43801 0.61195 0.0
H262 H 0.40934 0.35239 0.57099 0.0
C263 C 0.36648 0.40876 0.48326 0.0
C264 C 0.34958 0.43662 0.47394 0.0
C265 C 0.34011 0.46186 0.4907 0.0
C266 C 0.34745 0.45953 0.51628 0.0
C267 C 0.36412 0.43174 0.52482 0.0
C268 C 0.37336 0.4067 0.50885 0.0
C269 C 0.38982 0.37883 0.52298 0.0
C270 C 0.37008 0.34653 0.52036 0.0
C271 C 0.4256 0.37445 0.51429 0.0
C272 C 0.38827 0.39203 0.54945 0.0
C273 C 0.37359 0.42271 0.55001 0.0
C274 C 0.36889 0.43973 0.57229 0.0
C275 C 0.37903 0.42486 0.59463 0.0
C276 C 0.39357 0.39311 0.59466 0.0
C277 C 0.39851 0.37671 0.57164 0.0
H278 H 0.16589 0.39409 0.96116 0.0
H279 H 0.06115 0.37594 0.96946 0.0
H280 H 0.06361 0.39528 1.01298 0.0
H281 H 0.18788 0.36403 1.01972 0.0
H282 H 0.21988 0.39381 0.02603 0.0
H283 H 0.20963 0.38357 0.99424 0.0
H284 H 0.19903 0.4452 0.98455 0.0
H285 H 0.20944 0.45569 1.01634 0.0
H286 H 0.17037 0.46795 1.00354 0.0
H287 H 0.07762 0.40895 0.05621 0.0
H288 H 0.10262 0.41775 0.09758 0.0
H289 H 0.19872 0.42834 0.06303 0.0
C290 C 0.1434 0.3952 0.97199 0.0
C291 C 0.11326 0.38376 0.96193 0.0
C292 C 0.08446 0.38461 0.97681 0.0
C293 C 0.08557 0.3957 1.00153 0.0
C294 C 0.1157 0.40589 1.01119 0.0
C295 C 0.14414 0.40598 0.99697 0.0
C296 C 0.17371 0.41539 1.01288 0.0
C297 C 0.19927 0.38753 1.01324 0.0
C298 C 0.18904 0.448 1.00378 0.0
C299 C 0.15748 0.4195 0.03831 0.0
C300 C 0.12393 0.41417 0.03668 0.0
C301 C 0.10375 0.41381 0.05771 0.0
C302 C 0.11818 0.41866 0.08112 0.0
C303 C 0.15246 0.42401 0.08341 0.0
C304 C 0.17234 0.42503 0.06168 0.0
H305 H 0.10495 0.16311 0.57158 0.0
H306 H 0.17016 0.0922 0.60645 0.0
H307 H 0.18444 0.07019 0.56476 0.0
H308 H 0.0749 0.10945 0.52252 0.0
H309 H 0.07365 0.14194 0.4995 0.0
H310 H 0.06799 0.15146 0.53212 0.0
H311 H 0.11595 0.19375 0.52989 0.0
H312 H 0.12172 0.18442 0.49728 0.0
H313 H 0.15565 0.18064 0.51874 0.0
H314 H 0.19287 0.05707 0.51883 0.0
H315 H 0.19491 0.05421 0.47268 0.0
H316 H 0.12372 0.13342 0.46819 0.0
C317 C 0.12214 0.14284 0.57053 0.0
C318 C 0.1364 0.12938 0.59237 0.0
C319 C 0.15886 0.10293 0.59004 0.0
C320 C 0.16711 0.09023 0.56642 0.0
C321 C 0.15264 0.10415 0.54529 0.0
C322 C 0.1306 0.12986 0.54715 0.0
C323 C 0.11896 0.14091 0.52158 0.0
C324 C 0.08166 0.13561 0.51877 0.0
C325 C 0.12866 0.17707 0.51659 0.0
C326 C 0.13806 0.11758 0.50499 0.0
C327 C 0.15731 0.0965 0.51899 0.0
C328 C 0.17774 0.07334 0.50771 0.0
C329 C 0.17873 0.0719 0.48146 0.0
C330 C 0.15937 0.09345 0.46673 0.0
C331 C 0.13861 0.11636 0.47882 0.0
H332 H 0.58551 0.82616 0.064 0.0
H333 H 0.62011 0.91889 0.09519 0.0
H334 H 0.63091 0.93995 0.05279 0.0
H335 H 0.64473 0.82053 1.0169 0.0
H336 H 0.61782 0.80354 0.99341 0.0
H337 H 0.60914 0.79662 0.02601 0.0
H338 H 0.55104 0.82153 1.0205 0.0
H339 H 0.55942 0.82824 0.98777 0.0
H340 H 0.54684 0.86219 1.00723 0.0
H341 H 0.64389 0.94893 1.00779 0.0
H342 H 0.65469 0.94647 0.96238 0.0
H343 H 0.61059 0.84876 0.95971 0.0
C344 C 0.59457 0.85117 0.06187 0.0
C345 C 0.6019 0.87086 0.08297 0.0
C346 C 0.6143 0.90329 0.07936 0.0
C347 C 0.6205 0.91555 0.05532 0.0
C348 C 0.61398 0.89521 0.03497 0.0
C349 C 0.60092 0.86387 0.0379 0.0
C350 C 0.59786 0.84657 1.01287 0.0
C351 C 0.61863 0.81495 1.01228 0.0
C352 C 0.56163 0.83921 1.00673 0.0
C353 C 0.61194 0.8728 0.9956 0.0
C354 C 0.62102 0.90068 1.00876 0.0
C355 C 0.63641 0.92745 0.99718 0.0
C356 C 0.64261 0.92576 0.97142 0.0
C357 C 0.63328 0.89756 0.95749 0.0
C358 C 0.61755 0.87087 0.96979 0.0
H359 H 0.72024 0.58487 0.55905 0.0
H360 H 0.62209 0.59465 0.59015 0.0
H361 H 0.59987 0.60376 0.54794 0.0
H362 H 0.71214 0.64905 0.5146 0.0
H363 H 0.73537 0.62925 0.49018 0.0
H364 H 0.74371 0.61975 0.52246 0.0
H365 H 0.73386 0.55769 0.51366 0.0
H366 H 0.72557 0.56699 0.48131 0.0
H367 H 0.69568 0.54453 0.49965 0.0
H368 H 0.58835 0.61549 0.50394 0.0
H369 H 0.5877 0.63062 0.45956 0.0
H370 H 0.69317 0.61483 0.45503 0.0
C371 C 0.69401 0.58826 0.55681 0.0
C372 C 0.6728 0.58883 0.57786 0.0
C373 C 0.63874 0.59412 0.57432 0.0
C374 C 0.62586 0.59918 0.5504 0.0
C375 C 0.64735 0.59908 0.53012 0.0
C376 C 0.68069 0.59382 0.53292 0.0
C377 C 0.69838 0.59742 0.50794 0.0
C378 C 0.7239 0.62554 0.50886 0.0
C379 C 0.71431 0.5647 0.50018 0.0
C380 C 0.66978 0.60603 0.49088 0.0
C381 C 0.64063 0.60648 0.50421 0.0
C382 C 0.61094 0.61501 0.49322 0.0
C383 C 0.61091 0.62373 0.46795 0.0
C384 C 0.64039 0.62399 0.45374 0.0
C385 C 0.67021 0.61453 0.46532 0.0
H386 H 0.91679 0.66128 0.95705 0.0
H387 H 0.89896 0.55614 0.96453 0.0
H388 H 0.9166 0.55836 1.00851 0.0
H389 H 0.98859 0.66625 1.0012 0.0
H390 H 0.97543 0.70515 1.01394 0.0
H391 H 0.9663 0.69492 0.98188 0.0
H392 H 0.90439 0.70472 0.99027 0.0
H393 H 0.91328 0.71482 1.02233 0.0
H394 H 0.88421 0.68245 1.01521 0.0
H395 H 0.92883 0.5721 0.05213 0.0
H396 H 0.9358 0.59683 0.09383 0.0
H397 H 0.94655 0.69364 0.06005 0.0
C398 C 0.91767 0.63866 0.96782 0.0
C399 C 0.90692 0.60842 0.95736 0.0
C400 C 0.90727 0.57948 0.97218 0.0
C401 C 0.91736 0.58047 0.99716 0.0
C402 C 0.92696 0.61067 1.0072 0.0
C403 C 0.92737 0.63931 0.9931 0.0
C404 C 0.93583 0.6689 1.00942 0.0
C405 C 0.96849 0.68474 1.00111 0.0
C406 C 0.90775 0.69421 1.0093 0.0
C407 C 0.93916 0.65244 0.03488 0.0
C408 C 0.93421 0.61877 0.03295 0.0
C409 C 0.93336 0.59832 0.05387 0.0
C410 C 0.93722 0.61261 0.07748 0.0
C411 C 0.9421 0.64701 0.08011 0.0
C412 C 0.94367 0.66716 0.05848 0.0
H413 H 0.89543 0.86493 0.46905 0.0
H414 H 0.83637 0.93806 0.43041 0.0
H415 H 0.81791 0.96008 0.47071 0.0
H416 H 0.83852 0.84906 0.51871 0.0
H417 H 0.86935 0.84511 0.54271 0.0
H418 H 0.87929 0.83523 0.51076 0.0
H419 H 0.92788 0.87679 0.51184 0.0
H420 H 0.91813 0.88674 0.54384 0.0
H421 H 0.9204 0.919 0.52065 0.0
H422 H 0.8029 0.97256 0.51442 0.0
H423 H 0.79433 0.97655 0.55992 0.0
H424 H 0.86419 0.89738 0.57163 0.0
C425 C 0.87884 0.88573 0.4691 0.0
C426 C 0.86742 0.89968 0.44643 0.0
C427 C 0.84561 0.92686 0.44739 0.0
C428 C 0.83489 0.93963 0.47024 0.0
C429 C 0.8463 0.92523 0.49216 0.0
C430 C 0.86797 0.89908 0.49192 0.0
C431 C 0.87599 0.8882 0.51842 0.0
C432 C 0.86513 0.85227 0.52291 0.0
C433 C 0.91279 0.89298 0.52401 0.0
C434 C 0.85511 0.91209 0.53342 0.0
C435 C 0.83816 0.93311 0.51778 0.0
C436 C 0.81626 0.95647 0.52693 0.0
C437 C 0.81148 0.95847 0.55281 0.0
C438 C 0.8287 0.93744 0.56934 0.0
C439 C 0.85099 0.91408 0.55946 0.0
H440 H 0.19576 0.29263 0.15881 0.0
H441 H 0.27146 0.36859 0.15632 0.0
H442 H 0.31422 0.32582 0.15602 0.0
H443 H 0.23846 0.23632 0.19875 0.0
H444 H 0.22467 0.19981 0.18257 0.0
H445 H 0.19965 0.23634 0.18247 0.0
H446 H 0.19914 0.23599 0.13402 0.0
H447 H 0.22414 0.19943 0.13397 0.0
H448 H 0.23758 0.23567 0.11716 0.0
H449 H 0.34882 0.27555 0.15822 0.0
H450 H 0.3734 0.22008 0.1601 0.0
H451 H 0.27586 0.17604 0.15869 0.0
C452 C 0.22133 0.3002 0.15816 0.0
C453 C 0.23028 0.33395 0.15762 0.0
C454 C 0.264 0.3429 0.15662 0.0
C455 C 0.2885 0.3188 0.15651 0.0
C456 C 0.27892 0.28581 0.1571 0.0
C457 C 0.24621 0.27639 0.15765 0.0
C458 C 0.24278 0.23911 0.1579 0.0
C459 C 0.22536 0.22721 0.18185 0.0
C460 C 0.22485 0.22683 0.13436 0.0
C461 C 0.27868 0.22918 0.15768 0.0
C462 C 0.29906 0.25656 0.15739 0.0
C463 C 0.33317 0.25388 0.1582 0.0
C464 C 0.34688 0.2223 0.15934 0.0
C465 C 0.32654 0.19385 0.15934 0.0
C466 C 0.292 0.19739 0.15834 0.0
H467 H 0.3171 0.2982 0.6607 0.0
H468 H 0.28061 0.39558 0.67889 0.0
H469 H 0.22349 0.37602 0.67085 0.0
H470 H 0.26173 0.28007 0.61104 0.0
H471 H 0.25765 0.23714 0.61938 0.0
H472 H 0.29505 0.25917 0.62651 0.0
H473 H 0.28929 0.24337 0.67335 0.0
H474 H 0.25221 0.22083 0.66629 0.0
H475 H 0.25168 0.25277 0.6897 0.0
H476 H 0.16963 0.34427 0.65963 0.0
H477 H 0.12558 0.30301 0.65129 0.0
H478 H 0.19968 0.2277 0.64116 0.0
C479 C 0.29718 0.31557 0.66303 0.0
C480 C 0.30334 0.34851 0.67029 0.0
C481 C 0.27644 0.3702 0.67342 0.0
C482 C 0.24398 0.35933 0.66871 0.0
C483 C 0.23894 0.3267 0.66107 0.0
C484 C 0.26496 0.30515 0.65861 0.0
C485 C 0.25356 0.27107 0.65105 0.0
C486 C 0.26785 0.26131 0.62548 0.0
C487 C 0.26218 0.24552 0.67131 0.0
C488 C 0.21692 0.27656 0.64954 0.0
C489 C 0.20872 0.30878 0.65513 0.0
C490 C 0.17594 0.31904 0.65522 0.0
C491 C 0.15107 0.29553 0.65024 0.0
C492 C 0.15919 0.26217 0.64549 0.0
C493 C 0.19262 0.25301 0.64465 0.0
H494 H 0.32006 0.30365 0.39153 0.0
H495 H 0.24593 0.37627 0.41073 0.0
H496 H 0.20423 0.33237 0.41338 0.0
H497 H 0.26903 0.25401 0.35295 0.0
H498 H 0.28599 0.21523 0.36304 0.0
H499 H 0.31093 0.25205 0.36383 0.0
H500 H 0.32228 0.24265 0.41098 0.0
H501 H 0.29738 0.20574 0.41033 0.0
H502 H 0.28817 0.23808 0.43231 0.0
H503 H 0.16994 0.28247 0.41131 0.0
H504 H 0.1445 0.22778 0.40586 0.0
H505 H 0.24022 0.18599 0.38936 0.0
C506 C 0.29511 0.31024 0.39649 0.0
C507 C 0.28628 0.34341 0.40092 0.0
C508 C 0.25335 0.35106 0.40729 0.0
C509 C 0.22944 0.3263 0.40888 0.0
C510 C 0.23885 0.29398 0.40424 0.0
C511 C 0.27084 0.28572 0.39832 0.0
C512 C 0.27395 0.24898 0.39363 0.0
C513 C 0.28566 0.24218 0.36677 0.0
C514 C 0.2968 0.23292 0.41297 0.0
C515 C 0.23855 0.23812 0.39742 0.0
C516 C 0.21886 0.2646 0.40355 0.0
C517 C 0.18507 0.26143 0.40678 0.0
C518 C 0.17087 0.23031 0.40353 0.0
C519 C 0.19046 0.20275 0.39727 0.0
C520 C 0.2248 0.20662 0.39446 0.0
H521 H 0.29791 0.20096 0.90039 0.0
H522 H 0.25273 0.10537 0.88692 0.0
H523 H 0.1986 0.12796 0.89851 0.0
H524 H 0.24581 0.22495 0.95328 0.0
H525 H 0.24394 0.26745 0.94346 0.0
H526 H 0.27966 0.24309 0.93621 0.0
H527 H 0.27277 0.25645 0.88905 0.0
H528 H 0.23741 0.28115 0.89624 0.0
H529 H 0.23397 0.2479 0.87404 0.0
H530 H 0.14848 0.16201 0.90924 0.0
H531 H 0.10677 0.20582 0.9144 0.0
H532 H 0.18495 0.27857 0.92086 0.0
C533 C 0.27671 0.18468 0.90012 0.0
C534 C 0.27967 0.15137 0.89281 0.0
C535 C 0.25116 0.13101 0.89243 0.0
C536 C 0.22028 0.14354 0.89915 0.0
C537 C 0.21821 0.17649 0.90627 0.0
C538 C 0.24566 0.19682 0.90665 0.0
C539 C 0.23649 0.23187 0.91322 0.0
C540 C 0.25243 0.24245 0.93802 0.0
C541 C 0.24569 0.25574 0.89186 0.0
C542 C 0.19956 0.22825 0.91592 0.0
C543 C 0.18944 0.19606 0.91225 0.0
C544 C 0.15616 0.18725 0.91243 0.0
C545 C 0.13261 0.21224 0.91556 0.0
C546 C 0.14256 0.24556 0.91815 0.0
C547 C 0.17651 0.25328 0.91912 0.0
H548 H 0.66413 0.75475 0.87072 0.0
H549 H 0.71382 0.82003 0.92292 0.0
H550 H 0.74828 0.77399 0.93714 0.0
H551 H 0.66613 0.67977 0.90973 0.0
H552 H 0.67469 0.65287 0.88374 0.0
H553 H 0.65145 0.69009 0.87891 0.0
H554 H 0.69297 0.70909 0.84496 0.0
H555 H 0.71607 0.67183 0.84951 0.0
H556 H 0.73613 0.71138 0.85251 0.0
H557 H 0.77989 0.72302 0.94392 0.0
H558 H 0.8098 0.67038 0.94063 0.0
H559 H 0.74099 0.63657 0.88431 0.0
C560 C 0.68202 0.75917 0.88534 0.0
C561 C 0.6862 0.79103 0.89576 0.0
C562 C 0.71024 0.79595 0.91456 0.0
C563 C 0.72978 0.76987 0.92293 0.0
C564 C 0.72521 0.73888 0.91229 0.0
C565 C 0.70218 0.73334 0.89375 0.0
C566 C 0.70429 0.69811 0.88417 0.0
C567 C 0.67223 0.67909 0.88946 0.0
C568 C 0.71289 0.69759 0.85613 0.0
C569 C 0.73243 0.685 0.89996 0.0
C570 C 0.74375 0.70895 0.91626 0.0
C571 C 0.77094 0.70386 0.93157 0.0
C572 C 0.78767 0.67389 0.92968 0.0
C573 C 0.77707 0.64927 0.91279 0.0
C574 C 0.74873 0.65459 0.89806 0.0
H575 H 0.68457 0.73629 0.41994 0.0
H576 H 0.61091 0.78461 0.3747 0.0
H577 H 0.65032 0.82997 0.36563 0.0
H578 H 0.72863 0.81405 0.44282 0.0
H579 H 0.76764 0.79335 0.44067 0.0
H580 H 0.73106 0.77035 0.44875 0.0
H581 H 0.74287 0.73036 0.41214 0.0
H582 H 0.7787 0.7537 0.4033 0.0
H583 H 0.74649 0.74651 0.3808 0.0
H584 H 0.70157 0.86308 0.35447 0.0
H585 H 0.7578 0.88414 0.346 0.0
H586 H 0.79725 0.81212 0.3979 0.0
C587 C 0.67624 0.75734 0.40922 0.0
C588 C 0.64476 0.75738 0.39827 0.0
C589 C 0.63474 0.78468 0.38373 0.0
C590 C 0.65709 0.81034 0.37832 0.0
C591 C 0.68895 0.80832 0.38796 0.0
C592 C 0.69817 0.78285 0.40367 0.0
C593 C 0.73462 0.78375 0.40916 0.0
C594 C 0.74085 0.79081 0.437 0.0
C595 C 0.75163 0.75169 0.40084 0.0
C596 C 0.74491 0.81259 0.39305 0.0
C597 C 0.71832 0.82687 0.38124 0.0
C598 C 0.72244 0.85251 0.36406 0.0
C599 C 0.75448 0.8641 0.3592 0.0
C600 C 0.78194 0.84972 0.37123 0.0
C601 C 0.77684 0.8237 0.38837 0.0
H602 H 0.75883 0.8475 0.65076 0.0
H603 H 0.86079 0.81656 0.65463 0.0
H604 H 0.84271 0.75838 0.65625 0.0
H605 H 0.72731 0.7858 0.69378 0.0
H606 H 0.68932 0.7798 0.677 0.0
H607 H 0.71008 0.81915 0.67581 0.0
H608 H 0.71119 0.81632 0.62743 0.0
H609 H 0.69044 0.77696 0.62846 0.0
H610 H 0.7292 0.78103 0.6123 0.0
H611 H 0.81427 0.70407 0.65604 0.0
H612 H 0.77715 0.65607 0.65606 0.0
H613 H 0.69262 0.72109 0.65435 0.0
C614 C 0.77736 0.82846 0.65187 0.0
C615 C 0.8113 0.83658 0.65242 0.0
C616 C 0.83471 0.81097 0.65418 0.0
C617 C 0.82467 0.77785 0.65508 0.0
C618 C 0.7911 0.77071 0.65449 0.0
C619 C 0.76773 0.79521 0.65312 0.0
C620 C 0.73319 0.78064 0.6532 0.0
C621 C 0.71384 0.79203 0.67633 0.0
C622 C 0.71494 0.78925 0.6289 0.0
C623 C 0.74084 0.74407 0.65457 0.0
C624 C 0.77447 0.73908 0.65516 0.0
C625 C 0.78791 0.70765 0.65571 0.0
C626 C 0.76653 0.68052 0.6556 0.0
C627 C 0.73192 0.68476 0.65517 0.0
C628 C 0.71892 0.71707 0.65485 0.0
H629 H 0.8047 0.69116 0.15106 0.0
H630 H 0.88169 0.76526 0.14347 0.0
H631 H 0.83988 0.80874 0.14097 0.0
H632 H 0.74701 0.73041 0.10793 0.0
H633 H 0.71143 0.71913 0.12625 0.0
H634 H 0.74741 0.69338 0.12664 0.0
H635 H 0.74989 0.69804 0.17499 0.0
H636 H 0.71394 0.72375 0.17468 0.0
H637 H 0.75121 0.7383 0.18926 0.0
H638 H 0.79036 0.84471 0.14309 0.0
H639 H 0.7354 0.87031 0.14671 0.0
H640 H 0.69058 0.773 0.14985 0.0
C641 C 0.8127 0.7165 0.14866 0.0
C642 C 0.84644 0.72478 0.14746 0.0
C643 C 0.85597 0.75825 0.1443 0.0
C644 C 0.83242 0.78319 0.1429 0.0
C645 C 0.79942 0.77428 0.14435 0.0
C646 C 0.78947 0.74175 0.14688 0.0
C647 C 0.75236 0.73902 0.14821 0.0
C648 C 0.73876 0.71932 0.12593 0.0
C649 C 0.74121 0.72389 0.17327 0.0
C650 C 0.7432 0.77508 0.14644 0.0
C651 C 0.7707 0.79504 0.14439 0.0
C652 C 0.76855 0.82936 0.14425 0.0
C653 C 0.73735 0.84368 0.14637 0.0
C654 C 0.7089 0.82359 0.14821 0.0
C655 C 0.71193 0.78892 0.14795 0.0
H656 H 0.25517 0.08633 0.33372 0.0
H657 H 0.15384 0.08159 0.30882 0.0
H658 H 0.17271 0.07309 0.26529 0.0
H659 H 0.28341 0.13393 0.28166 0.0
H660 H 0.32312 0.11448 0.28008 0.0
H661 H 0.30168 0.11686 0.30949 0.0
H662 H 0.30561 0.05339 0.31435 0.0
H663 H 0.32695 0.05081 0.28487 0.0
H664 H 0.28991 0.02708 0.28992 0.0
H665 H 0.20266 0.06498 0.22453 0.0
H666 H 0.24117 0.06501 0.18871 0.0
H667 H 0.32295 0.08006 0.23956 0.0
C668 C 0.23705 0.08306 0.31909 0.0
C669 C 0.20308 0.08416 0.32454 0.0
C670 C 0.17998 0.08069 0.30493 0.0
C671 C 0.19047 0.07568 0.28023 0.0
C672 C 0.22415 0.07482 0.27539 0.0
C673 C 0.24712 0.07894 0.2942 0.0
C674 C 0.28176 0.07988 0.28366 0.0
C675 C 0.29846 0.11328 0.28904 0.0
C676 C 0.30226 0.05107 0.29381 0.0
C677 C 0.27467 0.07572 0.25601 0.0
C678 C 0.24134 0.07218 0.2517 0.0
C679 C 0.22882 0.0678 0.22766 0.0
C680 C 0.25088 0.06769 0.20745 0.0
C681 C 0.28501 0.07259 0.21134 0.0
C682 C 0.29697 0.07633 0.236 0.0
H683 H 0.41512 0.31419 0.74494 0.0
H684 H 0.4161 0.24159 0.68539 0.0
H685 H 0.40987 0.19701 0.71657 0.0
H686 H 0.46236 0.26453 0.78946 0.0
H687 H 0.43948 0.27903 0.81613 0.0
H688 H 0.44456 0.30516 0.7891 0.0
H689 H 0.38131 0.31127 0.78595 0.0
H690 H 0.37602 0.28493 0.81282 0.0
H691 H 0.35587 0.27481 0.7838 0.0
H692 H 0.39865 0.16049 0.7541 0.0
H693 H 0.39038 0.13439 0.79556 0.0
H694 H 0.40105 0.22996 0.83104 0.0
C695 C 0.41439 0.28889 0.73848 0.0
C696 C 0.41611 0.28145 0.71265 0.0
C697 C 0.41509 0.24797 0.70503 0.0
C698 C 0.41136 0.22244 0.72262 0.0
C699 C 0.40922 0.23062 0.74788 0.0
C700 C 0.41132 0.26299 0.75586 0.0
C701 C 0.40888 0.26501 0.78415 0.0
C702 C 0.44072 0.27928 0.79537 0.0
C703 C 0.37872 0.2852 0.79214 0.0
C704 C 0.40462 0.22881 0.79079 0.0
C705 C 0.40448 0.20941 0.76957 0.0
C706 C 0.3992 0.1754 0.77087 0.0
C707 C 0.39436 0.16079 0.79447 0.0
C708 C 0.39539 0.18005 0.81652 0.0
C709 C 0.40061 0.21452 0.81454 0.0
H710 H 0.23337 0.40587 0.22754 0.0
H711 H 0.22598 0.5099 0.20981 0.0
H712 H 0.24816 0.52386 0.25178 0.0
H713 H 0.2112 0.40984 0.29142 0.0
H714 H 0.24053 0.3794 0.30146 0.0
H715 H 0.22426 0.37797 0.27018 0.0
H716 H 0.28336 0.37988 0.25196 0.0
H717 H 0.29984 0.38095 0.28319 0.0
H718 H 0.31088 0.41274 0.26106 0.0
H719 H 0.26699 0.52562 0.29755 0.0
H720 H 0.28834 0.51524 0.34034 0.0
H721 H 0.28769 0.41013 0.32565 0.0
C722 C 0.23661 0.4316 0.23248 0.0
C723 C 0.22784 0.45688 0.21566 0.0
C724 C 0.23273 0.49024 0.22251 0.0
C725 C 0.2451 0.49834 0.24631 0.0
C726 C 0.25305 0.47271 0.26268 0.0
C727 C 0.24964 0.44002 0.25578 0.0
C728 C 0.26093 0.41699 0.27627 0.0
C729 C 0.23253 0.39475 0.28537 0.0
C730 C 0.29051 0.39644 0.2676 0.0
C731 C 0.27078 0.44174 0.29604 0.0
C732 C 0.26566 0.47378 0.28809 0.0
C733 C 0.27152 0.50065 0.3038 0.0
C734 C 0.28342 0.49457 0.32806 0.0
C735 C 0.28988 0.46196 0.33608 0.0
C736 C 0.28337 0.43535 0.31983 0.0
H737 H 0.06941 0.2119 0.73324 0.0
H738 H 0.17302 0.18805 0.72837 0.0
H739 H 0.1843 0.22388 0.76486 0.0
H740 H 0.0774 0.29491 0.75007 0.0
H741 H 0.04388 0.29515 0.77217 0.0
H742 H 0.04345 0.26652 0.74646 0.0
H743 H 0.03743 0.21729 0.77713 0.0
H744 H 0.03686 0.24583 0.8029 0.0
H745 H 0.06642 0.21286 0.80238 0.0
H746 H 0.18477 0.26749 0.7989 0.0
H747 H 0.17301 0.30562 0.83393 0.0
H748 H 0.06862 0.29699 0.8188 0.0
C749 C 0.09432 0.21358 0.74031 0.0
C750 C 0.12034 0.19707 0.72819 0.0
C751 C 0.15268 0.20005 0.73772 0.0
C752 C 0.15936 0.22068 0.75821 0.0
C753 C 0.13329 0.23757 0.76921 0.0
C754 C 0.10127 0.23337 0.7611 0.0
C755 C 0.07756 0.25358 0.7766 0.0
C756 C 0.05952 0.27904 0.76034 0.0
C757 C 0.05313 0.23105 0.79059 0.0
C758 C 0.10127 0.27024 0.79443 0.0
C759 C 0.13339 0.26122 0.78957 0.0
C760 C 0.15969 0.27442 0.80305 0.0
C761 C 0.15284 0.29638 0.82267 0.0
C762 C 0.11998 0.30435 0.82884 0.0
C763 C 0.09398 0.29142 0.81431 0.0
H764 H 0.73799 0.91345 0.82561 0.0
H765 H 0.63548 0.91333 0.80331 0.0
H766 H 0.65163 0.92977 0.76048 0.0
H767 H 0.76631 0.98158 0.78658 0.0
H768 H 0.80466 0.96219 0.77846 0.0
H769 H 0.7852 0.953 0.80798 0.0
H770 H 0.78553 0.89066 0.7974 0.0
H771 H 0.80518 0.89965 0.76795 0.0
H772 H 0.76711 0.87666 0.76863 0.0
H773 H 0.6784 0.94685 0.72057 0.0
H774 H 0.71427 0.95587 0.68406 0.0
H775 H 0.80027 0.94014 0.73057 0.0
C776 C 0.71905 0.91719 0.81168 0.0
C777 C 0.68547 0.91249 0.81769 0.0
C778 C 0.66131 0.91684 0.79899 0.0
C779 C 0.67024 0.92638 0.7747 0.0
C780 C 0.7035 0.93084 0.76929 0.0
C781 C 0.72763 0.92581 0.78707 0.0
C782 C 0.76168 0.92965 0.77566 0.0
C783 C 0.78057 0.95832 0.7879 0.0
C784 C 0.781 0.89722 0.77752 0.0
C785 C 0.75285 0.93761 0.74875 0.0
C786 C 0.71913 0.93879 0.74569 0.0
C787 C 0.70484 0.94588 0.72268 0.0
C788 C 0.7255 0.95114 0.70206 0.0
C789 C 0.76013 0.94872 0.70439 0.0
C790 C 0.77392 0.9422 0.72818 0.0
H791 H 0.58354 0.68781 0.31003 0.0
H792 H 0.68817 0.66787 0.30627 0.0
H793 H 0.69019 0.69336 0.26412 0.0
H794 H 0.56533 0.67556 0.24234 0.0
H795 H 0.53588 0.70864 0.24227 0.0
H796 H 0.54201 0.6845 0.2702 0.0
H797 H 0.55431 0.73795 0.29504 0.0
H798 H 0.54857 0.76222 0.26724 0.0
H799 H 0.58657 0.76531 0.28444 0.0
H800 H 0.68224 0.72884 0.22589 0.0
H801 H 0.66455 0.76825 0.19334 0.0
H802 H 0.56458 0.7634 0.22121 0.0
C803 C 0.6068 0.68802 0.30012 0.0
C804 C 0.63576 0.67579 0.31142 0.0
C805 C 0.66566 0.67677 0.29788 0.0
C806 C 0.667 0.69128 0.27397 0.0
C807 C 0.63813 0.70417 0.2638 0.0
C808 C 0.60847 0.70218 0.27632 0.0
C809 C 0.58145 0.72001 0.2623 0.0
C810 C 0.55458 0.69572 0.25377 0.0
C811 C 0.56689 0.74803 0.2782 0.0
C812 C 0.6007 0.73344 0.24025 0.0
C813 C 0.63334 0.72386 0.24141 0.0
C814 C 0.65663 0.73576 0.22449 0.0
C815 C 0.6464 0.75815 0.20612 0.0
C816 C 0.61316 0.76816 0.20461 0.0
C817 C 0.58991 0.75531 0.22163 0.0
H818 H 0.78857 0.59923 0.82767 0.0
H819 H 0.89069 0.59837 0.80434 0.0
H820 H 0.87312 0.58821 0.76053 0.0
H821 H 0.75899 0.53637 0.78789 0.0
H822 H 0.72042 0.55621 0.78119 0.0
H823 H 0.74101 0.56404 0.81039 0.0
H824 H 0.7409 0.62688 0.80141 0.0
H825 H 0.71972 0.61932 0.77241 0.0
H826 H 0.75792 0.64209 0.77243 0.0
H827 H 0.84366 0.57363 0.71979 0.0
H828 H 0.80523 0.56538 0.68446 0.0
H829 H 0.72258 0.57959 0.7346 0.0
C830 C 0.80722 0.59728 0.81326 0.0
C831 C 0.84098 0.5995 0.81926 0.0
C832 C 0.86471 0.59702 0.79999 0.0
C833 C 0.85493 0.59096 0.77516 0.0
C834 C 0.82136 0.58806 0.76998 0.0
C835 C 0.79789 0.59194 0.78844 0.0
C836 C 0.7634 0.58877 0.77803 0.0
C837 C 0.74488 0.55961 0.7901 0.0
C838 C 0.74438 0.6212 0.78126 0.0
C839 C 0.77101 0.58205 0.75082 0.0
C840 C 0.80456 0.58123 0.74656 0.0
C841 C 0.81737 0.57453 0.72291 0.0
C842 C 0.79535 0.56954 0.703 0.0
C843 C 0.76093 0.57179 0.7068 0.0
C844 C 0.74876 0.57773 0.73112 0.0
H845 H 0.89924 0.76812 0.32597 0.0
H846 H 0.95032 0.85996 0.3105 0.0
H847 H 0.97309 0.83623 0.27159 0.0
H848 H 0.96081 0.71123 0.29845 0.0
H849 H 0.92969 0.68471 0.28518 0.0
H850 H 0.92136 0.70705 0.3136 0.0
H851 H 0.86986 0.73298 0.29312 0.0
H852 H 0.87804 0.71076 0.26471 0.0
H853 H 0.87417 0.75502 0.26397 0.0
H854 H 0.98735 0.80398 0.23304 0.0
H855 H 0.98834 0.76739 0.19612 0.0
H856 H 0.92537 0.6975 0.23525 0.0
C857 C 0.91594 0.78277 0.31466 0.0
C858 C 0.92369 0.81557 0.32133 0.0
C859 C 0.94456 0.8346 0.30572 0.0
C860 C 0.95764 0.82131 0.28367 0.0
C861 C 0.94924 0.78904 0.27729 0.0
C862 C 0.92867 0.77005 0.29222 0.0
C863 C 0.92071 0.73741 0.2797 0.0
C864 C 0.93394 0.70838 0.29516 0.0
C865 C 0.88349 0.73386 0.2751 0.0
C866 C 0.93951 0.74129 0.25532 0.0
C867 C 0.9563 0.77097 0.2545 0.0
C868 C 0.97449 0.78055 0.23354 0.0
C869 C 0.97499 0.75955 0.21265 0.0
C870 C 0.95702 0.72953 0.21272 0.0
C871 C 0.93954 0.72019 0.23458 0.0
H872 H 0.41526 1.00123 0.15325 0.0
H873 H 0.45118 0.06577 0.21201 0.0
H874 H 0.49495 0.02612 0.22176 0.0
H875 H 0.43495 0.92182 0.18482 0.0
H876 H 0.44785 0.90256 0.1561 0.0
H877 H 0.41662 0.93396 0.15555 0.0
H878 H 0.45106 0.96757 0.12354 0.0
H879 H 0.48233 0.93635 0.124 0.0
H880 H 0.49294 0.97857 0.13099 0.0
H881 H 0.53779 0.98317 0.22262 0.0
H882 H 0.57797 0.93929 0.2141 0.0
H883 H 0.51535 0.90151 0.1549 0.0
C884 C 0.43191 0.00659 0.16853 0.0
C885 C 0.42972 0.03653 0.18196 0.0
C886 C 0.4524 0.04303 0.20145 0.0
C887 C 0.47727 0.02057 0.20724 0.0
C888 C 0.47923 0.99163 0.19338 0.0
C889 C 0.45721 0.98445 0.17444 0.0
C890 C 0.46664 0.9528 0.16116 0.0
C891 C 0.43992 0.92621 0.16462 0.0
C892 C 0.47366 0.95922 0.13328 0.0
C893 C 0.4978 0.94389 0.1752 0.0
C894 C 0.50432 0.9665 0.19388 0.0
C895 C 0.53275 0.965 0.20831 0.0
C896 C 0.55547 0.94003 0.20329 0.0
C897 C 0.54966 0.91683 0.184 0.0
C898 C 0.52012 0.91848 0.17011 0.0
H899 H 0.57392 0.56065 0.68052 0.0
H900 H 0.65193 0.49073 0.66521 0.0
H901 H 0.61264 0.44482 0.67013 0.0
H902 H 0.52953 0.50945 0.72685 0.0
H903 H 0.48951 0.52194 0.71603 0.0
H904 H 0.5241 0.54972 0.71315 0.0
H905 H 0.51347 0.55485 0.66558 0.0
H906 H 0.47888 0.52715 0.66831 0.0
H907 H 0.51168 0.51807 0.64671 0.0
H908 H 0.56504 0.4065 0.67379 0.0
H909 H 0.51152 0.37787 0.6757 0.0
H910 H 0.46287 0.47124 0.68912 0.0
C911 C 0.58281 0.53565 0.67859 0.0
C912 C 0.61622 0.52943 0.67255 0.0
C913 C 0.62662 0.49631 0.66982 0.0
C914 C 0.60445 0.46995 0.67265 0.0
C915 C 0.57176 0.47688 0.67828 0.0
C916 C 0.56084 0.50885 0.68127 0.0
C917 C 0.52392 0.50924 0.68608 0.0
C918 C 0.51632 0.52343 0.71208 0.0
C919 C 0.50593 0.52846 0.66544 0.0
C920 C 0.51583 0.47257 0.68493 0.0
C921 C 0.54395 0.45446 0.68054 0.0
C922 C 0.54289 0.42037 0.67749 0.0
C923 C 0.5123 0.40431 0.67858 0.0
C924 C 0.48294 0.42217 0.68278 0.0
C925 C 0.48489 0.45679 0.68636 0.0
H926 H 0.11206 0.50529 0.16372 0.0
H927 H 0.05588 0.421 0.19057 0.0
H928 H 0.00706 0.45676 0.19564 0.0
H929 H 0.07541 0.56666 0.20434 0.0
H930 H 0.07629 0.59803 0.18042 0.0
H931 H 0.10688 0.56605 0.18056 0.0
H932 H 0.09128 0.55055 0.13504 0.0
H933 H 0.06067 0.58241 0.13476 0.0
H934 H 0.04913 0.54044 0.12776 0.0
H935 H 0.9634 0.50209 0.19529 0.0
H936 H 0.92949 0.55212 0.18949 0.0
H937 H 0.01575 0.60536 0.16306 0.0
C938 C 0.08965 0.49425 0.17092 0.0
C939 C 0.08783 0.46031 0.17678 0.0
C940 C 0.05789 0.44697 0.18603 0.0
C941 C 0.03006 0.4671 0.18898 0.0
C942 C 0.03271 0.50045 0.18272 0.0
C943 C 0.06186 0.51385 0.17397 0.0
C944 C 0.05831 0.54995 0.16755 0.0
C945 C 0.08054 0.57143 0.18422 0.0
C946 C 0.06524 0.55618 0.13962 0.0
C947 C 0.02242 0.55485 0.17374 0.0
C948 C 0.00797 0.52617 0.18257 0.0
C949 C 0.97458 0.52473 0.18859 0.0
C950 C 0.95553 0.55325 0.18524 0.0
C951 C 0.96995 0.58272 0.1759 0.0
C952 C 1.00392 0.58337 0.17039 0.0
H953 H 0.93806 0.98915 0.66563 0.0
H954 H 0.85134 0.04492 0.64499 0.0
H955 H 0.8846 0.096 0.64401 0.0
H956 H 0.97524 0.05227 0.70534 0.0
H957 H 0.01653 0.04304 0.69533 0.0
H958 H 0.98558 0.01105 0.69559 0.0
H959 H 0.99693 0.99944 0.64874 0.0
H960 H 0.02784 0.03141 0.64833 0.0
H961 H 0.9942 0.03271 0.62644 0.0
H962 H 0.92791 0.141 0.64354 0.0
H963 H 0.9778 0.17612 0.64386 0.0
H964 H 0.03629 0.09119 0.66481 0.0
C965 C 0.92595 0.01214 0.66117 0.0
C966 C 0.89196 0.01291 0.65547 0.0
C967 C 0.87727 0.04357 0.64948 0.0
C968 C 0.89597 0.0728 0.64888 0.0
C969 C 0.92943 0.07112 0.65434 0.0
C970 C 0.94429 0.04159 0.66044 0.0
C971 C 0.98087 0.04641 0.6648 0.0
C972 C 0.99009 0.03768 0.69188 0.0
C973 C 1.00115 0.0263 0.64595 0.0
C974 C 0.9843 0.08317 0.65999 0.0
C975 C 0.95433 0.097 0.65406 0.0
C976 C 0.95148 0.13044 0.64831 0.0
C977 C 0.97999 0.15023 0.64852 0.0
C978 C 0.01105 0.13657 0.65444 0.0
C979 C 0.01297 0.10255 0.66036 0.0
H980 H 0.49815 0.61942 0.38977 0.0
H981 H 0.58224 0.56579 0.36094 0.0
H982 H 0.54812 0.51573 0.35704 0.0
H983 H 0.46687 0.55501 0.42688 0.0
H984 H 0.42419 0.56391 0.42095 0.0
H985 H 0.45438 0.59648 0.41943 0.0
H986 H 0.43613 0.61041 0.3742 0.0
H987 H 0.40571 0.57797 0.37564 0.0
H988 H 0.43577 0.5784 0.35083 0.0
H989 H 0.50604 0.47038 0.35904 0.0
H990 H 0.4582 0.43349 0.36608 0.0
H991 H 0.4021 0.51692 0.39345 0.0
C992 C 0.50922 0.59732 0.38223 0.0
C993 C 0.5428 0.59654 0.37566 0.0
C994 C 0.55652 0.56698 0.36616 0.0
C995 C 0.53736 0.53839 0.3638 0.0
C996 C 0.5045 0.53978 0.37092 0.0
C997 C 0.49047 0.56849 0.3798 0.0
C998 C 0.45502 0.56293 0.3873 0.0
C999 C 0.44983 0.56999 0.4153 0.0
C1000 C 0.43179 0.58366 0.37101 0.0
C1001 C 0.45157 0.52654 0.38163 0.0
C1002 C 0.48028 0.51363 0.37207 0.0
C1003 C 0.48327 0.48024 0.36629 0.0
C1004 C 0.45605 0.45948 0.37041 0.0
C1005 C 0.42644 0.47231 0.38025 0.0
C1006 C 0.42431 0.50631 0.38577 0.0
H1007 H 0.9775 0.36609 0.91976 0.0
H1008 H 0.02717 0.38757 0.84977 0.0
H1009 H 0.98497 0.42891 0.83956 0.0
H1010 H 0.89097 0.38148 0.89764 0.0
H1011 H 0.87951 0.4012 0.92653 0.0
H1012 H 0.90998 0.36904 0.92657 0.0
H1013 H 0.95129 0.4084 0.94836 0.0
H1014 H 0.92105 0.44063 0.94834 0.0
H1015 H 0.96074 0.44773 0.93419 0.0
H1016 H 0.94292 0.47203 0.83904 0.0
H1017 H 0.90393 0.51647 0.84875 0.0
H1018 H 0.88039 0.46953 0.91951 0.0
C1019 C 0.97869 0.37878 0.90194 0.0
C1020 C 0.00517 0.37332 0.88527 0.0
C1021 C 0.00685 0.39122 0.86259 0.0
C1022 C 0.98294 0.41463 0.85661 0.0
C1023 C 0.95756 0.42011 0.87362 0.0
C1024 C 0.95517 0.40282 0.89586 0.0
C1025 C 0.92761 0.41646 0.91204 0.0
C1026 C 0.9004 0.39049 0.91592 0.0
C1027 C 0.94099 0.42905 0.93721 0.0
C1028 C 0.91566 0.44472 0.89574 0.0
C1029 C 0.93306 0.44586 0.87349 0.0
C1030 C 0.9287 0.47107 0.85615 0.0
C1031 C 0.90655 0.49623 0.86185 0.0
C1032 C 0.88888 0.49611 0.88467 0.0
C1033 C 0.89292 0.46964 0.90163 0.0
H1034 H 0.97653 0.9272 0.38231 0.0
H1035 H 0.91465 0.98326 0.33169 0.0
H1036 H 0.95774 0.02591 0.32838 0.0
H1037 H 0.00724 0.99507 0.41575 0.0
H1038 H 0.04824 0.97916 0.41956 0.0
H1039 H 0.01403 0.95116 0.41621 0.0
H1040 H 0.04278 0.92344 0.37849 0.0
H1041 H 0.07717 0.95135 0.38175 0.0
H1042 H 0.05583 0.94837 0.35231 0.0
H1043 H 1.00416 0.06434 0.33321 0.0
H1044 H 0.05248 0.09708 0.34561 0.0
H1045 H 0.08595 0.01662 0.39264 0.0
C1046 C 0.97227 0.9482 0.37022 0.0
C1047 C 0.94223 0.95189 0.35722 0.0
C1048 C 0.93743 0.97991 0.34184 0.0
C1049 C 0.96181 1.00421 0.33975 0.0
C1050 C 0.99088 1.00006 0.35305 0.0
C1051 C 0.99639 0.97278 0.36793 0.0
C1052 C 0.02915 0.97549 0.38135 0.0
C1053 C 0.02436 0.97521 0.40991 0.0
C1054 C 0.05262 0.94803 0.37296 0.0
C1055 C 0.04075 0.00897 0.37214 0.0
C1056 C 0.01828 0.02246 0.3557 0.0
C1057 C 0.02217 0.05394 0.3458 0.0
C1058 C 0.04961 0.07237 0.35307 0.0
C1059 C 0.0729 0.05929 0.37003 0.0
C1060 C 0.06873 0.02695 0.37937 0.0
H1061 H 0.57512 0.96876 0.88205 0.0
H1062 H 0.5237 0.88528 0.84919 0.0
H1063 H 0.47477 0.92001 0.84279 0.0
H1064 H 0.50644 1.00028 0.91549 0.0
H1065 H 0.51703 0.04304 0.91061 0.0
H1066 H 0.54883 0.01233 0.91122 0.0
H1067 H 0.56878 0.0314 0.86747 0.0
H1068 H 0.53698 0.06218 0.86671 0.0
H1069 H 0.54006 0.03241 0.84183 0.0
H1070 H 0.43091 0.96266 0.84137 0.0
H1071 H 0.39397 0.0101 0.84601 0.0
H1072 H 0.47304 0.06658 0.88019 0.0
C1073 C 0.55369 0.95786 0.87325 0.0
C1074 C 0.55334 0.92425 0.86601 0.0
C1075 C 0.52462 0.91089 0.85488 0.0
C1076 C 0.49672 0.93047 0.8511 0.0
C1077 C 0.49783 0.96338 0.85857 0.0
C1078 C 0.5255 0.97702 0.86947 0.0
C1079 C 0.51961 0.0127 0.8768 0.0
C1080 C 0.52318 0.01734 0.90522 0.0
C1081 C 0.54273 0.03605 0.86233 0.0
C1082 C 0.48418 0.01686 0.86853 0.0
C1083 C 0.47226 0.98811 0.85793 0.0
C1084 C 0.44 0.98535 0.84952 0.0
C1085 C 0.41918 0.01251 0.85229 0.0
C1086 C 0.43054 0.04219 0.86343 0.0
C1087 C 0.46367 0.04442 0.87137 0.0
loop_
_geom_bond_atom_site_label_1
_geom_bond_atom_site_label_2
_geom_bond_distance
_geom_bond_site_symmetry_2
_ccdc_geom_bond_type
C0 O2 1.247 . S
C0 O4 1.258 . S
C1 O8 1.247 . S
C1 O9 1.258 . S
O2 C0 1.247 . S
O2 Zn3 2.028 . S
Zn3 O2 2.028 . S
Zn3 O7 2.035 . S
Zn3 O9 2.035 . S
Zn3 O10 2.028 . S
O4 C0 1.258 . S
O4 Zn5 2.035 . S
Zn5 O4 2.035 . S
Zn5 O6 2.028 . S
Zn5 O8 2.028 . S
Zn5 O11 2.035 . S
O6 Zn5 2.028 . S
O6 C12 1.247 . S
O7 Zn3 2.035 . S
O7 C12 1.258 . S
O8 C1 1.247 . S
O8 Zn5 2.028 . S
O9 C1 1.258 . S
O9 Zn3 2.035 . S
O10 Zn3 2.028 . S
O10 C13 1.247 . S
O11 Zn5 2.035 . S
O11 C13 1.258 . S
C12 O6 1.247 . S
C12 O7 1.258 . S
C13 O10 1.247 . S
C13 O11 1.258 . S
C14 O16 1.247 . S
C14 O18 1.258 . S
C15 O22 1.247 . S
C15 O23 1.258 . S
O16 C14 1.247 . S
O16 Zn17 2.028 . S
Zn17 O16 2.028 . S
Zn17 O21 2.035 . S
Zn17 O23 2.035 . S
Zn17 O24 2.028 . S
O18 C14 1.258 . S
O18 Zn19 2.035 . S
Zn19 O18 2.035 . S
Zn19 O20 2.028 . S
Zn19 O22 2.028 . S
Zn19 O25 2.035 . S
O20 Zn19 2.028 . S
O20 C26 1.247 . S
O21 Zn17 2.035 . S
O21 C26 1.258 . S
O22 C15 1.247 . S
O22 Zn19 2.028 . S
O23 C15 1.258 . S
O23 Zn17 2.035 . S
O24 Zn17 2.028 . S
O24 C27 1.247 . S
O25 Zn19 2.035 . S
O25 C27 1.258 . S
C26 O20 1.247 . S
C26 O21 1.258 . S
C27 O24 1.247 . S
C27 O25 1.258 . S
C28 O30 1.247 . S
C28 O32 1.258 . S
C29 O36 1.247 . S
C29 O37 1.258 . S
O30 C28 1.247 . S
O30 Zn31 2.028 . S
Zn31 O30 2.028 . S
Zn31 O35 2.035 . S
Zn31 O37 2.035 . S
Zn31 O38 2.028 . S
O32 C28 1.258 . S
O32 Zn33 2.035 . S
Zn33 O32 2.035 . S
Zn33 O34 2.028 . S
Zn33 O36 2.028 . S
Zn33 O39 2.035 . S
O34 Zn33 2.028 . S
O34 C40 1.247 . S
O35 Zn31 2.035 . S
O35 C40 1.258 . S
O36 C29 1.247 . S
O36 Zn33 2.028 . S
O37 C29 1.258 . S
O37 Zn31 2.035 . S
O38 Zn31 2.028 . S
O38 C41 1.247 . S
O39 Zn33 2.035 . S
O39 C41 1.258 . S
C40 O34 1.247 . S
C40 O35 1.258 . S
C41 O38 1.247 . S
C41 O39 1.258 . S
C42 O44 1.247 . S
C42 O46 1.258 . S
C43 O50 1.247 . S
C43 O51 1.258 . S
O44 C42 1.247 . S
O44 Zn45 2.028 . S
Zn45 O44 2.028 . S
Zn45 O49 2.035 . S
Zn45 O51 2.035 . S
Zn45 O52 2.028 . S
O46 C42 1.258 . S
O46 Zn47 2.035 . S
Zn47 O46 2.035 . S
Zn47 O48 2.028 . S
Zn47 O50 2.028 . S
Zn47 O53 2.035 . S
O48 Zn47 2.028 . S
O48 C54 1.247 . S
O49 Zn45 2.035 . S
O49 C54 1.258 . S
O50 C43 1.247 . S
O50 Zn47 2.028 . S
O51 C43 1.258 . S
O51 Zn45 2.035 . S
O52 Zn45 2.028 . S
O52 C55 1.247 . S
O53 Zn47 2.035 . S
O53 C55 1.258 . S
C54 O48 1.247 . S
C54 O49 1.258 . S
C55 O52 1.247 . S
C55 O53 1.258 . S
C56 O58 1.247 . S
C56 O60 1.258 . S
C57 O64 1.247 . S
C57 O65 1.258 . S
O58 C56 1.247 . S
O58 Zn59 2.028 . S
Zn59 O58 2.028 . S
Zn59 O63 2.035 . S
Zn59 O65 2.035 . S
Zn59 O66 2.028 . S
O60 C56 1.258 . S
O60 Zn61 2.035 . S
Zn61 O60 2.035 . S
Zn61 O62 2.028 . S
Zn61 O64 2.028 . S
Zn61 O67 2.035 . S
O62 Zn61 2.028 . S
O62 C68 1.247 . S
O63 Zn59 2.035 . S
O63 C68 1.258 . S
O64 C57 1.247 . S
O64 Zn61 2.028 . S
O65 C57 1.258 . S
O65 Zn59 2.035 . S
O66 Zn59 2.028 . S
O66 C69 1.247 . S
O67 Zn61 2.035 . S
O67 C69 1.258 . S
C68 O62 1.247 . S
C68 O63 1.258 . S
C69 O66 1.247 . S
C69 O67 1.258 . S
C70 O72 1.247 . S
C70 O74 1.258 . S
C71 O78 1.247 . S
C71 O79 1.258 . S
O72 C70 1.247 . S
O72 Zn73 2.028 . S
Zn73 O72 2.028 . S
Zn73 O77 2.035 . S
Zn73 O79 2.035 . S
Zn73 O80 2.028 . S
O74 C70 1.258 . S
O74 Zn75 2.035 . S
Zn75 O74 2.035 . S
Zn75 O76 2.028 . S
Zn75 O78 2.028 . S
Zn75 O81 2.035 . S
O76 Zn75 2.028 . S
O76 C82 1.247 . S
O77 Zn73 2.035 . S
O77 C82 1.258 . S
O78 C71 1.247 . S
O78 Zn75 2.028 . S
O79 C71 1.258 . S
O79 Zn73 2.035 . S
O80 Zn73 2.028 . S
O80 C83 1.247 . S
O81 Zn75 2.035 . S
O81 C83 1.258 . S
C82 O76 1.247 . S
C82 O77 1.258 . S
C83 O80 1.247 . S
C83 O81 1.258 . S
C84 O86 1.247 . S
C84 O88 1.258 . S
C85 O92 1.247 . S
C85 O93 1.258 . S
O86 C84 1.247 . S
O86 Zn87 2.028 . S
Zn87 O86 2.028 . S
Zn87 O91 2.035 . S
Zn87 O93 2.035 . S
Zn87 O94 2.028 . S
O88 C84 1.258 . S
O88 Zn89 2.035 . S
Zn89 O88 2.035 . S
Zn89 O90 2.028 . S
Zn89 O92 2.028 . S
Zn89 O95 2.035 . S
O90 Zn89 2.028 . S
O90 C96 1.247 . S
O91 Zn87 2.035 . S
O91 C96 1.258 . S
O92 C85 1.247 . S
O92 Zn89 2.028 . S
O93 C85 1.258 . S
O93 Zn87 2.035 . S
O94 Zn87 2.028 . S
O94 C97 1.247 . S
O95 Zn89 2.035 . S
O95 C97 1.258 . S
C96 O90 1.247 . S
C96 O91 1.258 . S
C97 O94 1.247 . S
C97 O95 1.258 . S
C98 O100 1.247 . S
C98 O102 1.258 . S
C99 O106 1.247 . S
C99 O107 1.258 . S
O100 C98 1.247 . S
O100 Zn101 2.028 . S
Zn101 O100 2.028 . S
Zn101 O105 2.035 . S
Zn101 O107 2.035 . S
Zn101 O108 2.028 . S
O102 C98 1.258 . S
O102 Zn103 2.035 . S
Zn103 O102 2.035 . S
Zn103 O104 2.028 . S
Zn103 O106 2.028 . S
Zn103 O109 2.035 . S
O104 Zn103 2.028 . S
O104 C110 1.247 . S
O105 Zn101 2.035 . S
O105 C110 1.258 . S
O106 C99 1.247 . S
O106 Zn103 2.028 . S
O107 C99 1.258 . S
O107 Zn101 2.035 . S
O108 Zn101 2.028 . S
O108 C111 1.247 . S
O109 Zn103 2.035 . S
O109 C111 1.258 . S
C110 O104 1.247 . S
C110 O105 1.258 . S
C111 O108 1.247 . S
C111 O109 1.258 . S
C112 O114 1.247 . S
C112 O116 1.258 . S
C113 O120 1.247 . S
C113 O121 1.258 . S
O114 C112 1.247 . S
O114 Zn115 2.028 . S
Zn115 O114 2.028 . S
Zn115 O119 2.035 . S
Zn115 O121 2.035 . S
Zn115 O122 2.028 . S
O116 C112 1.258 . S
O116 Zn117 2.035 . S
Zn117 O116 2.035 . S
Zn117 O118 2.028 . S
Zn117 O120 2.028 . S
Zn117 O123 2.035 . S
O118 Zn117 2.028 . S
O118 C124 1.247 . S
O119 Zn115 2.035 . S
O119 C124 1.258 . S
O120 C113 1.247 . S
O120 Zn117 2.028 . S
O121 C113 1.258 . S
O121 Zn115 2.035 . S
O122 Zn115 2.028 . S
O122 C125 1.247 . S
O123 Zn117 2.035 . S
O123 C125 1.258 . S
C124 O118 1.247 . S
C124 O119 1.258 . S
C125 O122 1.247 . S
C125 O123 1.258 . S
C126 O128 1.247 . S
C126 O130 1.258 . S
C127 O134 1.247 . S
C127 O135 1.258 . S
O128 C126 1.247 . S
O128 Zn129 2.028 . S
Zn129 O128 2.028 . S
Zn129 O133 2.035 . S
Zn129 O135 2.035 . S
Zn129 O136 2.028 . S
O130 C126 1.258 . S
O130 Zn131 2.035 . S
Zn131 O130 2.035 . S
Zn131 O132 2.028 . S
Zn131 O134 2.028 . S
Zn131 O137 2.035 . S
O132 Zn131 2.028 . S
O132 C138 1.247 . S
O133 Zn129 2.035 . S
O133 C138 1.258 . S
O134 C127 1.247 . S
O134 Zn131 2.028 . S
O135 C127 1.258 . S
O135 Zn129 2.035 . S
O136 Zn129 2.028 . S
O136 C139 1.247 . S
O137 Zn131 2.035 . S
O137 C139 1.258 . S
C138 O132 1.247 . S
C138 O133 1.258 . S
C139 O136 1.247 . S
C139 O137 1.258 . S
C140 O142 1.247 . S
C140 O144 1.258 . S
C141 O148 1.247 . S
C141 O149 1.258 . S
O142 C140 1.247 . S
O142 Zn143 2.028 . S
Zn143 O142 2.028 . S
Zn143 O147 2.035 . S
Zn143 O149 2.035 . S
Zn143 O150 2.028 . S
O144 C140 1.258 . S
O144 Zn145 2.035 . S
Zn145 O144 2.035 . S
Zn145 O146 2.028 . S
Zn145 O148 2.028 . S
Zn145 O151 2.035 . S
O146 Zn145 2.028 . S
O146 C152 1.247 . S
O147 Zn143 2.035 . S
O147 C152 1.258 . S
O148 C141 1.247 . S
O148 Zn145 2.028 . S
O149 C141 1.258 . S
O149 Zn143 2.035 . S
O150 Zn143 2.028 . S
O150 C153 1.247 . S
O151 Zn145 2.035 . S
O151 C153 1.258 . S
C152 O146 1.247 . S
C152 O147 1.258 . S
C153 O150 1.247 . S
C153 O151 1.258 . S
C154 O156 1.247 . S
C154 O158 1.258 . S
C155 O162 1.247 . S
C155 O163 1.258 . S
O156 C154 1.247 . S
O156 Zn157 2.028 . S
Zn157 O156 2.028 . S
Zn157 O161 2.035 . S
Zn157 O163 2.035 . S
Zn157 O164 2.028 . S
O158 C154 1.258 . S
O158 Zn159 2.035 . S
Zn159 O158 2.035 . S
Zn159 O160 2.028 . S
Zn159 O162 2.028 . S
Zn159 O165 2.035 . S
O160 Zn159 2.028 . S
O160 C166 1.247 . S
O161 Zn157 2.035 . S
O161 C166 1.258 . S
O162 C155 1.247 . S
O162 Zn159 2.028 . S
O163 C155 1.258 . S
O163 Zn157 2.035 . S
O164 Zn157 2.028 . S
O164 C167 1.247 . S
O165 Zn159 2.035 . S
O165 C167 1.258 . S
C166 O160 1.247 . S
C166 O161 1.258 . S
C167 O164 1.247 . S
C167 O165 1.258 . S
C168 O170 1.247 . S
C168 O172 1.258 . S
C169 O176 1.247 . S
C169 O177 1.258 . S
O170 C168 1.247 . S
O170 Zn171 2.028 . S
Zn171 O170 2.028 . S
Zn171 O175 2.035 . S
Zn171 O177 2.035 . S
Zn171 O178 2.028 . S
O172 C168 1.258 . S
O172 Zn173 2.035 . S
Zn173 O172 2.035 . S
Zn173 O174 2.028 . S
Zn173 O176 2.028 . S
Zn173 O179 2.035 . S
O174 Zn173 2.028 . S
O174 C180 1.247 . S
O175 Zn171 2.035 . S
O175 C180 1.258 . S
O176 C169 1.247 . S
O176 Zn173 2.028 . S
O177 C169 1.258 . S
O177 Zn171 2.035 . S
O178 Zn171 2.028 . S
O178 C181 1.247 . S
O179 Zn173 2.035 . S
O179 C181 1.258 . S
C180 O174 1.247 . S
C180 O175 1.258 . S
C181 O178 1.247 . S
C181 O179 1.258 . S
C182 O184 1.247 . S
C182 O186 1.258 . S
C183 O190 1.247 . S
C183 O191 1.258 . S
O184 C182 1.247 . S
O184 Zn185 2.028 . S
Zn185 O184 2.028 . S
Zn185 O189 2.035 . S
Zn185 O191 2.035 . S
Zn185 O192 2.028 . S
O186 C182 1.258 . S
O186 Zn187 2.035 . S
Zn187 O186 2.035 . S
Zn187 O188 2.028 . S
Zn187 O190 2.028 . S
Zn187 O193 2.035 . S
O188 Zn187 2.028 . S
O188 C194 1.247 . S
O189 Zn185 2.035 . S
O189 C194 1.258 . S
O190 C183 1.247 . S
O190 Zn187 2.028 . S
O191 C183 1.258 . S
O191 Zn185 2.035 . S
O192 Zn185 2.028 . S
O192 C195 1.247 . S
O193 Zn187 2.035 . S
O193 C195 1.258 . S
C194 O188 1.247 . S
C194 O189 1.258 . S
C195 O192 1.247 . S
C195 O193 1.258 . S
C196 O198 1.247 . S
C196 O200 1.258 . S
C197 O204 1.247 . S
C197 O205 1.258 . S
O198 C196 1.247 . S
O198 Zn199 2.028 . S
Zn199 O198 2.028 . S
Zn199 O203 2.035 . S
Zn199 O205 2.035 . S
Zn199 O206 2.028 . S
O200 C196 1.258 . S
O200 Zn201 2.035 . S
Zn201 O200 2.035 . S
Zn201 O202 2.028 . S
Zn201 O204 2.028 . S
Zn201 O207 2.035 . S
O202 Zn201 2.028 . S
O202 C208 1.247 . S
O203 Zn199 2.035 . S
O203 C208 1.258 . S
O204 C197 1.247 . S
O204 Zn201 2.028 . S
O205 C197 1.258 . S
O205 Zn199 2.035 . S
O206 Zn199 2.028 . S
O206 C209 1.247 . S
O207 Zn201 2.035 . S
O207 C209 1.258 . S
C208 O202 1.247 . S
C208 O203 1.258 . S
C209 O206 1.247 . S
C209 O207 1.258 . S
C210 O212 1.247 . S
C210 O214 1.258 . S
C211 O218 1.247 . S
C211 O219 1.258 . S
O212 C210 1.247 . S
O212 Zn213 2.028 . S
Zn213 O212 2.028 . S
Zn213 O217 2.035 . S
Zn213 O219 2.035 . S
Zn213 O220 2.028 . S
O214 C210 1.258 . S
O214 Zn215 2.035 . S
Zn215 O214 2.035 . S
Zn215 O216 2.028 . S
Zn215 O218 2.028 . S
Zn215 O221 2.035 . S
O216 Zn215 2.028 . S
O216 C222 1.247 . S
O217 Zn213 2.035 . S
O217 C222 1.258 . S
O218 C211 1.247 . S
O218 Zn215 2.028 . S
O219 C211 1.258 . S
O219 Zn213 2.035 . S
O220 Zn213 2.028 . S
O220 C223 1.247 . S
O221 Zn215 2.035 . S
O221 C223 1.258 . S
C222 O216 1.247 . S
C222 O217 1.258 . S
C223 O220 1.247 . S
C223 O221 1.258 . S
H224 C236 0.930 . S
H225 C238 0.930 . S
H226 C239 0.930 . S
H227 C243 0.959 . S
H228 C243 0.959 . S
H229 C243 0.961 1_556 S
H230 C244 0.960 . S
H231 C244 0.961 1_554 S
H232 C244 0.959 . S
H233 C247 0.929 . S
H234 C248 0.931 . S
H235 C250 0.930 . S
C236 H224 0.930 . S
C236 C237 1.399 . S
C236 C241 1.399 . S
C237 C236 1.399 . S
C237 C238 1.376 . S
C238 H225 0.930 . S
C238 C237 1.376 . S
C238 C239 1.388 . S
C239 H226 0.930 . S
C239 C238 1.388 . S
C239 C240 1.390 . S
C240 C239 1.390 . S
C240 C241 1.394 . S
C240 C246 1.465 1_556 S
C241 C236 1.399 . S
C241 C240 1.394 . S
C241 C242 1.523 . S
C242 C241 1.523 . S
C242 C243 1.499 1_556 S
C242 C244 1.564 . S
C242 C245 1.519 1_556 S
C243 H227 0.959 . S
C243 H228 0.959 . S
C243 H229 0.961 1_554 S
C243 C242 1.499 1_554 S
C244 H230 0.960 . S
C244 H231 0.961 1_556 S
C244 H232 0.959 . S
C244 C242 1.564 . S
C245 C242 1.519 1_554 S
C245 C246 1.396 . S
C245 C250 1.390 . S
C246 C240 1.465 1_554 S
C246 C245 1.396 . S
C246 C247 1.399 . S
C247 H233 0.929 . S
C247 C246 1.399 . S
C247 C248 1.385 . S
C248 H234 0.931 . S
C248 C247 1.385 . S
C248 C249 1.389 . S
C249 C248 1.389 . S
C249 C250 1.387 . S
C250 H235 0.930 . S
C250 C245 1.390 . S
C250 C249 1.387 . S
H251 C263 0.930 . S
H252 C265 0.930 . S
H253 C266 0.930 . S
H254 C270 0.959 . S
H255 C270 0.959 . S
H256 C270 0.961 . S
H257 C271 0.960 . S
H258 C271 0.961 . S
H259 C271 0.959 . S
H260 C274 0.929 . S
H261 C275 0.931 . S
H262 C277 0.930 . S
C263 H251 0.930 . S
C263 C264 1.399 . S
C263 C268 1.399 . S
C264 C263 1.399 . S
C264 C265 1.376 . S
C265 H252 0.930 . S
C265 C264 1.376 . S
C265 C266 1.388 . S
C266 H253 0.930 . S
C266 C265 1.388 . S
C266 C267 1.390 . S
C267 C266 1.390 . S
C267 C268 1.394 . S
C267 C273 1.465 . S
C268 C263 1.399 . S
C268 C267 1.394 . S
C268 C269 1.516 . S
C269 C268 1.516 . S
C269 C270 1.502 . S
C269 C271 1.561 . S
C269 C272 1.526 . S
C270 H254 0.959 . S
C270 H255 0.959 . S
C270 H256 0.961 . S
C270 C269 1.502 . S
C271 H257 0.960 . S
C271 H258 0.961 . S
C271 H259 0.959 . S
C271 C269 1.561 . S
C272 C269 1.526 . S
C272 C273 1.396 . S
C272 C277 1.390 . S
C273 C267 1.465 . S
C273 C272 1.396 . S
C273 C274 1.399 . S
C274 H260 0.929 . S
C274 C273 1.399 . S
C274 C275 1.385 . S
C275 H261 0.931 . S
C275 C274 1.385 . S
C275 C276 1.389 . S
C276 C275 1.389 . S
C276 C277 1.387 . S
C277 H262 0.930 . S
C277 C272 1.390 . S
C277 C276 1.387 . S
H278 C290 0.930 . S
H279 C292 0.930 . S
H280 C293 0.930 . S
H281 C297 0.959 . S
H282 C297 0.959 . S
H283 C297 0.961 . S
H284 C298 0.960 . S
H285 C298 0.946 1_554 S
H286 C298 0.959 . S
H287 C301 0.929 . S
H288 C302 0.931 . S
H289 C304 0.930 . S
C290 H278 0.930 . S
C290 C291 1.399 . S
C290 C295 1.399 . S
C291 C290 1.399 . S
C291 C292 1.376 . S
C292 H279 0.930 . S
C292 C291 1.376 . S
C292 C293 1.388 . S
C293 H280 0.930 . S
C293 C292 1.388 . S
C293 C294 1.390 . S
C294 C293 1.390 . S
C294 C295 1.394 . S
C294 C300 1.465 1_556 S
C295 C290 1.399 . S
C295 C294 1.394 . S
C295 C296 1.516 . S
C296 C295 1.516 . S
C296 C297 1.502 . S
C296 C298 1.561 . S
C296 C299 1.526 1_556 S
C297 H281 0.959 . S
C297 H282 0.959 . S
C297 H283 0.961 . S
C297 C296 1.502 . S
C298 H284 0.960 . S
C298 H285 0.946 1_556 S
C298 H286 0.959 . S
C298 C296 1.561 . S
C299 C296 1.526 1_554 S
C299 C300 1.396 . S
C299 C304 1.390 . S
C300 C294 1.465 1_554 S
C300 C299 1.396 . S
C300 C301 1.399 . S
C301 H287 0.929 . S
C301 C300 1.399 . S
C301 C302 1.385 . S
C302 H288 0.931 . S
C302 C301 1.385 . S
C302 C303 1.389 . S
C303 C302 1.389 . S
C303 C304 1.387 . S
C304 H289 0.930 . S
C304 C299 1.390 . S
C304 C303 1.387 . S
H305 C317 0.930 . S
H306 C319 0.930 . S
H307 C320 0.930 . S
H308 C324 0.959 . S
H309 C324 0.959 . S
H310 C324 0.961 . S
H311 C325 0.960 . S
H312 C325 0.961 . S
H313 C325 0.959 . S
H314 C328 0.929 . S
H315 C329 0.931 . S
H316 C331 0.930 . S
C317 H305 0.930 . S
C317 C318 1.399 . S
C317 C322 1.399 . S
C318 C317 1.399 . S
C318 C319 1.376 . S
C319 H306 0.930 . S
C319 C318 1.376 . S
C319 C320 1.388 . S
C320 H307 0.930 . S
C320 C319 1.388 . S
C320 C321 1.390 . S
C321 C320 1.390 . S
C321 C322 1.394 . S
C321 C327 1.465 . S
C322 C317 1.399 . S
C322 C321 1.394 . S
C322 C323 1.516 . S
C323 C322 1.516 . S
C323 C324 1.502 . S
C323 C325 1.561 . S
C323 C326 1.526 . S
C324 H308 0.959 . S
C324 H309 0.959 . S
C324 H310 0.961 . S
C324 C323 1.502 . S
C325 H311 0.960 . S
C325 H312 0.961 . S
C325 H313 0.959 . S
C325 C323 1.561 . S
C326 C323 1.526 . S
C326 C327 1.396 . S
C326 C331 1.390 . S
C327 C321 1.465 . S
C327 C326 1.396 . S
C327 C328 1.399 . S
C328 H314 0.929 . S
C328 C327 1.399 . S
C328 C329 1.385 . S
C329 H315 0.931 . S
C329 C328 1.385 . S
C329 C330 1.389 . S
C330 C329 1.389 . S
C330 C331 1.387 . S
C331 H316 0.930 . S
C331 C326 1.390 . S
C331 C330 1.387 . S
H332 C344 0.930 . S
H333 C346 0.930 . S
H334 C347 0.930 . S
H335 C351 0.959 1_554 S
H336 C351 0.959 . S
H337 C351 0.961 1_554 S
H338 C352 0.960 . S
H339 C352 0.961 . S
H340 C352 0.959 . S
H341 C355 0.929 . S
H342 C356 0.931 . S
H343 C358 0.930 . S
C344 H332 0.930 . S
C344 C345 1.399 . S
C344 C349 1.399 . S
C345 C344 1.399 . S
C345 C346 1.376 . S
C346 H333 0.930 . S
C346 C345 1.376 . S
C346 C347 1.388 . S
C347 H334 0.930 . S
C347 C346 1.388 . S
C347 C348 1.390 . S
C348 C347 1.390 . S
C348 C349 1.394 . S
C348 C354 1.465 1_554 S
C349 C344 1.399 . S
C349 C348 1.394 . S
C349 C350 1.516 1_554 S
C350 C349 1.516 1_556 S
C350 C351 1.502 . S
C350 C352 1.561 . S
C350 C353 1.526 . S
C351 H335 0.959 1_556 S
C351 H336 0.959 . S
C351 H337 0.961 1_556 S
C351 C350 1.502 . S
C352 H338 0.960 . S
C352 H339 0.961 . S
C352 H340 0.959 . S
C352 C350 1.561 . S
C353 C350 1.526 . S
C353 C354 1.396 . S
C353 C358 1.390 . S
C354 C348 1.465 1_556 S
C354 C353 1.396 . S
C354 C355 1.399 . S
C355 H341 0.929 . S
C355 C354 1.399 . S
C355 C356 1.385 . S
C356 H342 0.931 . S
C356 C355 1.385 . S
C356 C357 1.389 . S
C357 C356 1.389 . S
C357 C358 1.387 . S
C358 H343 0.930 . S
C358 C353 1.390 . S
C358 C357 1.387 . S
H359 C371 0.930 . S
H360 C373 0.930 . S
H361 C374 0.930 . S
H362 C378 0.959 . S
H363 C378 0.959 . S
H364 C378 0.961 . S
H365 C379 0.960 . S
H366 C379 0.961 . S
H367 C379 0.959 . S
H368 C382 0.929 . S
H369 C383 0.931 . S
H370 C385 0.930 . S
C371 H359 0.930 . S
C371 C372 1.399 . S
C371 C376 1.399 . S
C372 C371 1.399 . S
C372 C373 1.376 . S
C373 H360 0.930 . S
C373 C372 1.376 . S
C373 C374 1.388 . S
C374 H361 0.930 . S
C374 C373 1.388 . S
C374 C375 1.390 . S
C375 C374 1.390 . S
C375 C376 1.394 . S
C375 C381 1.465 . S
C376 C371 1.399 . S
C376 C375 1.394 . S
C376 C377 1.516 . S
C377 C376 1.516 . S
C377 C378 1.502 . S
C377 C379 1.561 . S
C377 C380 1.526 . S
C378 H362 0.959 . S
C378 H363 0.959 . S
C378 H364 0.961 . S
C378 C377 1.502 . S
C379 H365 0.960 . S
C379 H366 0.961 . S
C379 H367 0.959 . S
C379 C377 1.561 . S
C380 C377 1.526 . S
C380 C381 1.396 . S
C380 C385 1.390 . S
C381 C375 1.465 . S
C381 C380 1.396 . S
C381 C382 1.399 . S
C382 H368 0.929 . S
C382 C381 1.399 . S
C382 C383 1.385 . S
C383 H369 0.931 . S
C383 C382 1.385 . S
C383 C384 1.389 . S
C384 C383 1.389 . S
C384 C385 1.387 . S
C385 H370 0.930 . S
C385 C380 1.390 . S
C385 C384 1.387 . S
H386 C398 0.930 . S
H387 C400 0.930 . S
H388 C401 0.930 . S
H389 C405 0.959 . S
H390 C405 0.959 . S
H391 C405 0.961 . S
H392 C406 0.960 . S
H393 C406 0.962 . S
H394 C406 0.959 . S
H395 C409 0.929 . S
H396 C410 0.931 . S
H397 C412 0.930 . S
C398 H386 0.930 . S
C398 C399 1.399 . S
C398 C403 1.399 . S
C399 C398 1.399 . S
C399 C400 1.376 . S
C400 H387 0.930 . S
C400 C399 1.376 . S
C400 C401 1.388 . S
C401 H388 0.930 . S
C401 C400 1.388 . S
C401 C402 1.390 . S
C402 C401 1.390 . S
C402 C403 1.394 . S
C402 C408 1.465 1_556 S
C403 C398 1.399 . S
C403 C402 1.394 . S
C403 C404 1.516 . S
C404 C403 1.516 . S
C404 C405 1.502 . S
C404 C406 1.561 . S
C404 C407 1.526 1_556 S
C405 H389 0.959 . S
C405 H390 0.959 . S
C405 H391 0.961 . S
C405 C404 1.502 . S
C406 H392 0.960 . S
C406 H393 0.962 . S
C406 H394 0.959 . S
C406 C404 1.561 . S
C407 C404 1.526 1_554 S
C407 C408 1.396 . S
C407 C412 1.390 . S
C408 C402 1.465 1_554 S
C408 C407 1.396 . S
C408 C409 1.399 . S
C409 H395 0.929 . S
C409 C408 1.399 . S
C409 C410 1.385 . S
C410 H396 0.931 . S
C410 C409 1.385 . S
C410 C411 1.389 . S
C411 C410 1.389 . S
C411 C412 1.387 . S
C412 H397 0.930 . S
C412 C407 1.390 . S
C412 C411 1.387 . S
H413 C425 0.930 . S
H414 C427 0.930 . S
H415 C428 0.930 . S
H416 C432 0.959 . S
H417 C432 0.959 . S
H418 C432 0.961 . S
H419 C433 0.960 . S
H420 C433 0.961 . S
H421 C433 0.959 . S
H422 C436 0.929 . S
H423 C437 0.931 . S
H424 C439 0.930 . S
C425 H413 0.930 . S
C425 C426 1.399 . S
C425 C430 1.399 . S
C426 C425 1.399 . S
C426 C427 1.376 . S
C427 H414 0.930 . S
C427 C426 1.376 . S
C427 C428 1.388 . S
C428 H415 0.930 . S
C428 C427 1.388 . S
C428 C429 1.390 . S
C429 C428 1.390 . S
C429 C430 1.394 . S
C429 C435 1.465 . S
C430 C425 1.399 . S
C430 C429 1.394 . S
C430 C431 1.516 . S
C431 C430 1.516 . S
C431 C432 1.502 . S
C431 C433 1.561 . S
C431 C434 1.526 . S
C432 H416 0.959 . S
C432 H417 0.959 . S
C432 H418 0.961 . S
C432 C431 1.502 . S
C433 H419 0.960 . S
C433 H420 0.961 . S
C433 H421 0.959 . S
C433 C431 1.561 . S
C434 C431 1.526 . S
C434 C435 1.396 . S
C434 C439 1.390 . S
C435 C429 1.465 . S
C435 C434 1.396 . S
C435 C436 1.399 . S
C436 H422 0.929 . S
C436 C435 1.399 . S
C436 C437 1.385 . S
C437 H423 0.931 . S
C437 C436 1.385 . S
C437 C438 1.389 . S
C438 C437 1.389 . S
C438 C439 1.387 . S
C439 H424 0.930 . S
C439 C434 1.390 . S
C439 C438 1.387 . S
H440 C452 0.930 . S
H441 C454 0.930 . S
H442 C455 0.930 . S
H443 C459 0.959 . S
H444 C459 0.959 . S
H445 C459 0.961 . S
H446 C460 0.960 . S
H447 C460 0.961 . S
H448 C460 0.959 . S
H449 C463 0.929 . S
H450 C464 0.931 . S
H451 C466 0.930 . S
C452 H440 0.930 . S
C452 C453 1.399 . S
C452 C457 1.399 . S
C453 C452 1.399 . S
C453 C454 1.376 . S
C454 H441 0.930 . S
C454 C453 1.376 . S
C454 C455 1.388 . S
C455 H442 0.930 . S
C455 C454 1.388 . S
C455 C456 1.390 . S
C456 C455 1.390 . S
C456 C457 1.394 . S
C456 C462 1.465 . S
C457 C452 1.399 . S
C457 C456 1.394 . S
C457 C458 1.516 . S
C458 C457 1.516 . S
C458 C459 1.502 . S
C458 C460 1.561 . S
C458 C461 1.526 . S
C459 H443 0.959 . S
C459 H444 0.959 . S
C459 H445 0.961 . S
C459 C458 1.502 . S
C460 H446 0.960 . S
C460 H447 0.961 . S
C460 H448 0.959 . S
C460 C458 1.561 . S
C461 C458 1.526 . S
C461 C462 1.396 . S
C461 C466 1.390 . S
C462 C456 1.465 . S
C462 C461 1.396 . S
C462 C463 1.399 . S
C463 H449 0.929 . S
C463 C462 1.399 . S
C463 C464 1.385 . S
C464 H450 0.931 . S
C464 C463 1.385 . S
C464 C465 1.389 . S
C465 C464 1.389 . S
C465 C466 1.387 . S
C466 H451 0.930 . S
C466 C461 1.390 . S
C466 C465 1.387 . S
H467 C479 0.930 . S
H468 C481 0.930 . S
H469 C482 0.930 . S
H470 C486 0.959 . S
H471 C486 0.959 . S
H472 C486 0.961 . S
H473 C487 0.960 . S
H474 C487 0.961 . S
H475 C487 0.959 . S
H476 C490 0.929 . S
H477 C491 0.931 . S
H478 C493 0.930 . S
C479 H467 0.930 . S
C479 C480 1.399 . S
C479 C484 1.399 . S
C480 C479 1.399 . S
C480 C481 1.376 . S
C481 H468 0.930 . S
C481 C480 1.376 . S
C481 C482 1.388 . S
C482 H469 0.930 . S
C482 C481 1.388 . S
C482 C483 1.390 . S
C483 C482 1.390 . S
C483 C484 1.394 . S
C483 C489 1.465 . S
C484 C479 1.399 . S
C484 C483 1.394 . S
C484 C485 1.516 . S
C485 C484 1.516 . S
C485 C486 1.502 . S
C485 C487 1.561 . S
C485 C488 1.526 . S
C486 H470 0.959 . S
C486 H471 0.959 . S
C486 H472 0.961 . S
C486 C485 1.502 . S
C487 H473 0.960 . S
C487 H474 0.961 . S
C487 H475 0.959 . S
C487 C485 1.561 . S
C488 C485 1.526 . S
C488 C489 1.396 . S
C488 C493 1.390 . S
C489 C483 1.465 . S
C489 C488 1.396 . S
C489 C490 1.399 . S
C490 H476 0.929 . S
C490 C489 1.399 . S
C490 C491 1.385 . S
C491 H477 0.931 . S
C491 C490 1.385 . S
C491 C492 1.389 . S
C492 C491 1.389 . S
C492 C493 1.387 . S
C493 H478 0.930 . S
C493 C488 1.390 . S
C493 C492 1.387 . S
H494 C506 0.930 . S
H495 C508 0.930 . S
H496 C509 0.930 . S
H497 C513 0.959 . S
H498 C513 0.959 . S
H499 C513 0.961 . S
H500 C514 0.960 . S
H501 C514 0.961 . S
H502 C514 0.959 . S
H503 C517 0.929 . S
H504 C518 0.931 . S
H505 C520 0.930 . S
C506 H494 0.930 . S
C506 C507 1.399 . S
C506 C511 1.399 . S
C507 C506 1.399 . S
C507 C508 1.376 . S
C508 H495 0.930 . S
C508 C507 1.376 . S
C508 C509 1.388 . S
C509 H496 0.930 . S
C509 C508 1.388 . S
C509 C510 1.390 . S
C510 C509 1.390 . S
C510 C511 1.394 . S
C510 C516 1.465 . S
C511 C506 1.399 . S
C511 C510 1.394 . S
C511 C512 1.516 . S
C512 C511 1.516 . S
C512 C513 1.502 . S
C512 C514 1.561 . S
C512 C515 1.526 . S
C513 H497 0.959 . S
C513 H498 0.959 . S
C513 H499 0.961 . S
C513 C512 1.502 . S
C514 H500 0.960 . S
C514 H501 0.961 . S
C514 H502 0.959 . S
C514 C512 1.561 . S
C515 C512 1.526 . S
C515 C516 1.396 . S
C515 C520 1.390 . S
C516 C510 1.465 . S
C516 C515 1.396 . S
C516 C517 1.399 . S
C517 H503 0.929 . S
C517 C516 1.399 . S
C517 C518 1.385 . S
C518 H504 0.931 . S
C518 C517 1.385 . S
C518 C519 1.389 . S
C519 C518 1.389 . S
C519 C520 1.387 . S
C520 H505 0.930 . S
C520 C515 1.390 . S
C520 C519 1.387 . S
H521 C533 0.930 . S
H522 C535 0.930 . S
H523 C536 0.930 . S
H524 C540 0.959 . S
H525 C540 0.959 . S
H526 C540 0.961 . S
H527 C541 0.960 . S
H528 C541 0.961 . S
H529 C541 0.959 . S
H530 C544 0.929 . S
H531 C545 0.931 . S
H532 C547 0.930 . S
C533 H521 0.930 . S
C533 C534 1.399 . S
C533 C538 1.399 . S
C534 C533 1.399 . S
C534 C535 1.376 . S
C535 H522 0.930 . S
C535 C534 1.376 . S
C535 C536 1.388 . S
C536 H523 0.930 . S
C536 C535 1.388 . S
C536 C537 1.390 . S
C537 C536 1.390 . S
C537 C538 1.394 . S
C537 C543 1.465 . S
C538 C533 1.399 . S
C538 C537 1.394 . S
C538 C539 1.516 . S
C539 C538 1.516 . S
C539 C540 1.502 . S
C539 C541 1.561 . S
C539 C542 1.526 . S
C540 H524 0.959 . S
C540 H525 0.959 . S
C540 H526 0.961 . S
C540 C539 1.502 . S
C541 H527 0.960 . S
C541 H528 0.961 . S
C541 H529 0.959 . S
C541 C539 1.561 . S
C542 C539 1.526 . S
C542 C543 1.396 . S
C542 C547 1.390 . S
C543 C537 1.465 . S
C543 C542 1.396 . S
C543 C544 1.399 . S
C544 H530 0.929 . S
C544 C543 1.399 . S
C544 C545 1.385 . S
C545 H531 0.931 . S
C545 C544 1.385 . S
C545 C546 1.389 . S
C546 C545 1.389 . S
C546 C547 1.387 . S
C547 H532 0.930 . S
C547 C542 1.390 . S
C547 C546 1.387 . S
H548 C560 0.930 . S
H549 C562 0.930 . S
H550 C563 0.930 . S
H551 C567 0.959 . S
H552 C567 0.959 . S
H553 C567 0.961 . S
H554 C568 0.960 . S
H555 C568 0.961 . S
H556 C568 0.959 . S
H557 C571 0.929 . S
H558 C572 0.931 . S
H559 C574 0.930 . S
C560 H548 0.930 . S
C560 C561 1.399 . S
C560 C565 1.399 . S
C561 C560 1.399 . S
C561 C562 1.376 . S
C562 H549 0.930 . S
C562 C561 1.376 . S
C562 C563 1.388 . S
C563 H550 0.930 . S
C563 C562 1.388 . S
C563 C564 1.390 . S
C564 C563 1.390 . S
C564 C565 1.394 . S
C564 C570 1.465 . S
C565 C560 1.399 . S
C565 C564 1.394 . S
C565 C566 1.516 . S
C566 C565 1.516 . S
C566 C567 1.502 . S
C566 C568 1.561 . S
C566 C569 1.526 . S
C567 H551 0.959 . S
C567 H552 0.959 . S
C567 H553 0.961 . S
C567 C566 1.502 . S
C568 H554 0.960 . S
C568 H555 0.961 . S
C568 H556 0.959 . S
C568 C566 1.561 . S
C569 C566 1.526 . S
C569 C570 1.396 . S
C569 C574 1.390 . S
C570 C564 1.465 . S
C570 C569 1.396 . S
C570 C571 1.399 . S
C571 H557 0.929 . S
C571 C570 1.399 . S
C571 C572 1.385 . S
C572 H558 0.931 . S
C572 C571 1.385 . S
C572 C573 1.389 . S
C573 C572 1.389 . S
C573 C574 1.387 . S
C574 H559 0.930 . S
C574 C569 1.390 . S
C574 C573 1.387 . S
H575 C587 0.930 . S
H576 C589 0.930 . S
H577 C590 0.930 . S
H578 C594 0.959 . S
H579 C594 0.959 . S
H580 C594 0.961 . S
H581 C595 0.960 . S
H582 C595 0.961 . S
H583 C595 0.959 . S
H584 C598 0.929 . S
H585 C599 0.931 . S
H586 C601 0.930 . S
C587 H575 0.930 . S
C587 C588 1.399 . S
C587 C592 1.399 . S
C588 C587 1.399 . S
C588 C589 1.376 . S
C589 H576 0.930 . S
C589 C588 1.376 . S
C589 C590 1.388 . S
C590 H577 0.930 . S
C590 C589 1.388 . S
C590 C591 1.390 . S
C591 C590 1.390 . S
C591 C592 1.394 . S
C591 C597 1.465 . S
C592 C587 1.399 . S
C592 C591 1.394 . S
C592 C593 1.516 . S
C593 C592 1.516 . S
C593 C594 1.502 . S
C593 C595 1.561 . S
C593 C596 1.526 . S
C594 H578 0.959 . S
C594 H579 0.959 . S
C594 H580 0.961 . S
C594 C593 1.502 . S
C595 H581 0.960 . S
C595 H582 0.961 . S
C595 H583 0.959 . S
C595 C593 1.561 . S
C596 C593 1.526 . S
C596 C597 1.396 . S
C596 C601 1.390 . S
C597 C591 1.465 . S
C597 C596 1.396 . S
C597 C598 1.399 . S
C598 H584 0.929 . S
C598 C597 1.399 . S
C598 C599 1.385 . S
C599 H585 0.931 . S
C599 C598 1.385 . S
C599 C600 1.389 . S
C600 C599 1.389 . S
C600 C601 1.387 . S
C601 H586 0.930 . S
C601 C596 1.390 . S
C601 C600 1.387 . S
H602 C614 0.930 . S
H603 C616 0.930 . S
H604 C617 0.930 . S
H605 C621 0.959 . S
H606 C621 0.959 . S
H607 C621 0.961 . S
H608 C622 0.960 . S
H609 C622 0.961 . S
H610 C622 0.959 . S
H611 C625 0.929 . S
H612 C626 0.931 . S
H613 C628 0.930 . S
C614 H602 0.930 . S
C614 C615 1.399 . S
C614 C619 1.399 . S
C615 C614 1.399 . S
C615 C616 1.376 . S
C616 H603 0.930 . S
C616 C615 1.376 . S
C616 C617 1.388 . S
C617 H604 0.930 . S
C617 C616 1.388 . S
C617 C618 1.390 . S
C618 C617 1.390 . S
C618 C619 1.394 . S
C618 C624 1.465 . S
C619 C614 1.399 . S
C619 C618 1.394 . S
C619 C620 1.516 . S
C620 C619 1.516 . S
C620 C621 1.502 . S
C620 C622 1.561 . S
C620 C623 1.526 . S
C621 H605 0.959 . S
C621 H606 0.959 . S
C621 H607 0.961 . S
C621 C620 1.502 . S
C622 H608 0.960 . S
C622 H609 0.961 . S
C622 H610 0.959 . S
C622 C620 1.561 . S
C623 C620 1.526 . S
C623 C624 1.396 . S
C623 C628 1.390 . S
C624 C618 1.465 . S
C624 C623 1.396 . S
C624 C625 1.399 . S
C625 H611 0.929 . S
C625 C624 1.399 . S
C625 C626 1.385 . S
C626 H612 0.931 . S
C626 C625 1.385 . S
C626 C627 1.389 . S
C627 C626 1.389 . S
C627 C628 1.387 . S
C628 H613 0.930 . S
C628 C623 1.390 . S
C628 C627 1.387 . S
H629 C641 0.930 . S
H630 C643 0.930 . S
H631 C644 0.930 . S
H632 C648 0.959 . S
H633 C648 0.959 . S
H634 C648 0.961 . S
H635 C649 0.960 . S
H636 C649 0.961 . S
H637 C649 0.959 . S
H638 C652 0.929 . S
H639 C653 0.931 . S
H640 C655 0.930 . S
C641 H629 0.930 . S
C641 C642 1.399 . S
C641 C646 1.399 . S
C642 C641 1.399 . S
C642 C643 1.376 . S
C643 H630 0.930 . S
C643 C642 1.376 . S
C643 C644 1.388 . S
C644 H631 0.930 . S
C644 C643 1.388 . S
C644 C645 1.390 . S
C645 C644 1.390 . S
C645 C646 1.394 . S
C645 C651 1.465 . S
C646 C641 1.399 . S
C646 C645 1.394 . S
C646 C647 1.516 . S
C647 C646 1.516 . S
C647 C648 1.502 . S
C647 C649 1.561 . S
C647 C650 1.526 . S
C648 H632 0.959 . S
C648 H633 0.959 . S
C648 H634 0.961 . S
C648 C647 1.502 . S
C649 H635 0.960 . S
C649 H636 0.961 . S
C649 H637 0.959 . S
C649 C647 1.561 . S
C650 C647 1.526 . S
C650 C651 1.396 . S
C650 C655 1.390 . S
C651 C645 1.465 . S
C651 C650 1.396 . S
C651 C652 1.399 . S
C652 H638 0.929 . S
C652 C651 1.399 . S
C652 C653 1.385 . S
C653 H639 0.931 . S
C653 C652 1.385 . S
C653 C654 1.389 . S
C654 C653 1.389 . S
C654 C655 1.387 . S
C655 H640 0.930 . S
C655 C650 1.390 . S
C655 C654 1.387 . S
H656 C668 0.930 . S
H657 C670 0.930 . S
H658 C671 0.930 . S
H659 C675 0.959 . S
H660 C675 0.959 . S
H661 C675 0.961 . S
H662 C676 0.960 . S
H663 C676 0.982 . S
H664 C676 0.959 . S
H665 C679 0.929 . S
H666 C680 0.931 . S
H667 C682 0.930 . S
C668 H656 0.930 . S
C668 C669 1.399 . S
C668 C673 1.399 . S
C669 C668 1.399 . S
C669 C670 1.376 . S
C670 H657 0.930 . S
C670 C669 1.376 . S
C670 C671 1.388 . S
C671 H658 0.930 . S
C671 C670 1.388 . S
C671 C672 1.390 . S
C672 C671 1.390 . S
C672 C673 1.394 . S
C672 C678 1.465 . S
C673 C668 1.399 . S
C673 C672 1.394 . S
C673 C674 1.516 . S
C674 C673 1.516 . S
C674 C675 1.502 . S
C674 C676 1.561 . S
C674 C677 1.526 . S
C675 H659 0.959 . S
C675 H660 0.959 . S
C675 H661 0.961 . S
C675 C674 1.502 . S
C676 H662 0.960 . S
C676 H663 0.982 . S
C676 H664 0.959 . S
C676 C674 1.561 . S
C677 C674 1.526 . S
C677 C678 1.396 . S
C677 C682 1.390 . S
C678 C672 1.465 . S
C678 C677 1.396 . S
C678 C679 1.399 . S
C679 H665 0.929 . S
C679 C678 1.399 . S
C679 C680 1.385 . S
C680 H666 0.931 . S
C680 C679 1.385 . S
C680 C681 1.389 . S
C681 C680 1.389 . S
C681 C682 1.387 . S
C682 H667 0.930 . S
C682 C677 1.390 . S
C682 C681 1.387 . S
H683 C695 0.930 . S
H684 C697 0.930 . S
H685 C698 0.930 . S
H686 C702 0.959 . S
H687 C702 0.959 . S
H688 C702 0.961 . S
H689 C703 0.960 . S
H690 C703 0.961 . S
H691 C703 0.959 . S
H692 C706 0.929 . S
H693 C707 0.931 . S
H694 C709 0.930 . S
C695 H683 0.930 . S
C695 C696 1.399 . S
C695 C700 1.399 . S
C696 C695 1.399 . S
C696 C697 1.376 . S
C697 H684 0.930 . S
C697 C696 1.376 . S
C697 C698 1.388 . S
C698 H685 0.930 . S
C698 C697 1.388 . S
C698 C699 1.390 . S
C699 C698 1.390 . S
C699 C700 1.394 . S
C699 C705 1.465 . S
C700 C695 1.399 . S
C700 C699 1.394 . S
C700 C701 1.516 . S
C701 C700 1.516 . S
C701 C702 1.502 . S
C701 C703 1.561 . S
C701 C704 1.526 . S
C702 H686 0.959 . S
C702 H687 0.959 . S
C702 H688 0.961 . S
C702 C701 1.502 . S
C703 H689 0.960 . S
C703 H690 0.961 . S
C703 H691 0.959 . S
C703 C701 1.561 . S
C704 C701 1.526 . S
C704 C705 1.396 . S
C704 C709 1.390 . S
C705 C699 1.465 . S
C705 C704 1.396 . S
C705 C706 1.399 . S
C706 H692 0.929 . S
C706 C705 1.399 . S
C706 C707 1.385 . S
C707 H693 0.931 . S
C707 C706 1.385 . S
C707 C708 1.389 . S
C708 C707 1.389 . S
C708 C709 1.387 . S
C709 H694 0.930 . S
C709 C704 1.390 . S
C709 C708 1.387 . S
H710 C722 0.930 . S
H711 C724 0.930 . S
H712 C725 0.930 . S
H713 C729 0.959 . S
H714 C729 0.959 . S
H715 C729 0.961 . S
H716 C730 0.960 . S
H717 C730 0.961 . S
H718 C730 0.959 . S
H719 C733 0.929 . S
H720 C734 0.931 . S
H721 C736 0.930 . S
C722 H710 0.930 . S
C722 C723 1.399 . S
C722 C727 1.399 . S
C723 C722 1.399 . S
C723 C724 1.376 . S
C724 H711 0.930 . S
C724 C723 1.376 . S
C724 C725 1.388 . S
C725 H712 0.930 . S
C725 C724 1.388 . S
C725 C726 1.390 . S
C726 C725 1.390 . S
C726 C727 1.394 . S
C726 C732 1.465 . S
C727 C722 1.399 . S
C727 C726 1.394 . S
C727 C728 1.516 . S
C728 C727 1.516 . S
C728 C729 1.502 . S
C728 C730 1.561 . S
C728 C731 1.526 . S
C729 H713 0.959 . S
C729 H714 0.959 . S
C729 H715 0.961 . S
C729 C728 1.502 . S
C730 H716 0.960 . S
C730 H717 0.961 . S
C730 H718 0.959 . S
C730 C728 1.561 . S
C731 C728 1.526 . S
C731 C732 1.396 . S
C731 C736 1.390 . S
C732 C726 1.465 . S
C732 C731 1.396 . S
C732 C733 1.399 . S
C733 H719 0.929 . S
C733 C732 1.399 . S
C733 C734 1.385 . S
C734 H720 0.931 . S
C734 C733 1.385 . S
C734 C735 1.389 . S
C735 C734 1.389 . S
C735 C736 1.387 . S
C736 H721 0.930 . S
C736 C731 1.390 . S
C736 C735 1.387 . S
H737 C749 0.930 . S
H738 C751 0.930 . S
H739 C752 0.930 . S
H740 C756 0.959 . S
H741 C756 0.959 . S
H742 C756 0.961 . S
H743 C757 0.960 . S
H744 C757 0.961 . S
H745 C757 0.959 . S
H746 C760 0.929 . S
H747 C761 0.931 . S
H748 C763 0.930 . S
C749 H737 0.930 . S
C749 C750 1.399 . S
C749 C754 1.399 . S
C750 C749 1.399 . S
C750 C751 1.376 . S
C751 H738 0.930 . S
C751 C750 1.376 . S
C751 C752 1.388 . S
C752 H739 0.930 . S
C752 C751 1.388 . S
C752 C753 1.390 . S
C753 C752 1.390 . S
C753 C754 1.394 . S
C753 C759 1.465 . S
C754 C749 1.399 . S
C754 C753 1.394 . S
C754 C755 1.516 . S
C755 C754 1.516 . S
C755 C756 1.502 . S
C755 C757 1.561 . S
C755 C758 1.526 . S
C756 H740 0.959 . S
C756 H741 0.959 . S
C756 H742 0.961 . S
C756 C755 1.502 . S
C757 H743 0.960 . S
C757 H744 0.961 . S
C757 H745 0.959 . S
C757 C755 1.561 . S
C758 C755 1.526 . S
C758 C759 1.396 . S
C758 C763 1.390 . S
C759 C753 1.465 . S
C759 C758 1.396 . S
C759 C760 1.399 . S
C760 H746 0.929 . S
C760 C759 1.399 . S
C760 C761 1.385 . S
C761 H747 0.931 . S
C761 C760 1.385 . S
C761 C762 1.389 . S
C762 C761 1.389 . S
C762 C763 1.387 . S
C763 H748 0.930 . S
C763 C758 1.390 . S
C763 C762 1.387 . S
H764 C776 0.930 . S
H765 C778 0.930 . S
H766 C779 0.930 . S
H767 C783 0.959 . S
H768 C783 0.959 . S
H769 C783 0.961 . S
H770 C784 0.960 . S
H771 C784 0.961 . S
H772 C784 0.959 . S
H773 C787 0.929 . S
H774 C788 0.931 . S
H775 C790 0.930 . S
C776 H764 0.930 . S
C776 C777 1.399 . S
C776 C781 1.399 . S
C777 C776 1.399 . S
C777 C778 1.376 . S
C778 H765 0.930 . S
C778 C777 1.376 . S
C778 C779 1.388 . S
C779 H766 0.930 . S
C779 C778 1.388 . S
C779 C780 1.390 . S
C780 C779 1.390 . S
C780 C781 1.394 . S
C780 C786 1.465 . S
C781 C776 1.399 . S
C781 C780 1.394 . S
C781 C782 1.516 . S
C782 C781 1.516 . S
C782 C783 1.502 . S
C782 C784 1.561 . S
C782 C785 1.526 . S
C783 H767 0.959 . S
C783 H768 0.959 . S
C783 H769 0.961 . S
C783 C782 1.502 . S
C784 H770 0.960 . S
C784 H771 0.961 . S
C784 H772 0.959 . S
C784 C782 1.561 . S
C785 C782 1.526 . S
C785 C786 1.396 . S
C785 C790 1.390 . S
C786 C780 1.465 . S
C786 C785 1.396 . S
C786 C787 1.399 . S
C787 H773 0.929 . S
C787 C786 1.399 . S
C787 C788 1.385 . S
C788 H774 0.931 . S
C788 C787 1.385 . S
C788 C789 1.389 . S
C789 C788 1.389 . S
C789 C790 1.387 . S
C790 H775 0.930 . S
C790 C785 1.390 . S
C790 C789 1.387 . S
H791 C803 0.930 . S
H792 C805 0.930 . S
H793 C806 0.930 . S
H794 C810 0.959 . S
H795 C810 0.959 . S
H796 C810 0.961 . S
H797 C811 0.960 . S
H798 C811 0.961 . S
H799 C811 0.959 . S
H800 C814 0.929 . S
H801 C815 0.931 . S
H802 C817 0.930 . S
C803 H791 0.930 . S
C803 C804 1.399 . S
C803 C808 1.399 . S
C804 C803 1.399 . S
C804 C805 1.376 . S
C805 H792 0.930 . S
C805 C804 1.376 . S
C805 C806 1.388 . S
C806 H793 0.930 . S
C806 C805 1.388 . S
C806 C807 1.390 . S
C807 C806 1.390 . S
C807 C808 1.394 . S
C807 C813 1.465 . S
C808 C803 1.399 . S
C808 C807 1.394 . S
C808 C809 1.516 . S
C809 C808 1.516 . S
C809 C810 1.502 . S
C809 C811 1.561 . S
C809 C812 1.526 . S
C810 H794 0.959 . S
C810 H795 0.959 . S
C810 H796 0.961 . S
C810 C809 1.502 . S
C811 H797 0.960 . S
C811 H798 0.961 . S
C811 H799 0.959 . S
C811 C809 1.561 . S
C812 C809 1.526 . S
C812 C813 1.396 . S
C812 C817 1.390 . S
C813 C807 1.465 . S
C813 C812 1.396 . S
C813 C814 1.399 . S
C814 H800 0.929 . S
C814 C813 1.399 . S
C814 C815 1.385 . S
C815 H801 0.931 . S
C815 C814 1.385 . S
C815 C816 1.389 . S
C816 C815 1.389 . S
C816 C817 1.387 . S
C817 H802 0.930 . S
C817 C812 1.390 . S
C817 C816 1.387 . S
H818 C830 0.930 . S
H819 C832 0.930 . S
H820 C833 0.930 . S
H821 C837 0.959 . S
H822 C837 0.959 . S
H823 C837 0.961 . S
H824 C838 0.960 . S
H825 C838 0.961 . S
H826 C838 0.959 . S
H827 C841 0.929 . S
H828 C842 0.931 . S
H829 C844 0.930 . S
C830 H818 0.930 . S
C830 C831 1.399 . S
C830 C835 1.399 . S
C831 C830 1.399 . S
C831 C832 1.376 . S
C832 H819 0.930 . S
C832 C831 1.376 . S
C832 C833 1.388 . S
C833 H820 0.930 . S
C833 C832 1.388 . S
C833 C834 1.390 . S
C834 C833 1.390 . S
C834 C835 1.394 . S
C834 C840 1.465 . S
C835 C830 1.399 . S
C835 C834 1.394 . S
C835 C836 1.516 . S
C836 C835 1.516 . S
C836 C837 1.502 . S
C836 C838 1.561 . S
C836 C839 1.526 . S
C837 H821 0.959 . S
C837 H822 0.959 . S
C837 H823 0.961 . S
C837 C836 1.502 . S
C838 H824 0.960 . S
C838 H825 0.961 . S
C838 H826 0.959 . S
C838 C836 1.561 . S
C839 C836 1.526 . S
C839 C840 1.396 . S
C839 C844 1.390 . S
C840 C834 1.465 . S
C840 C839 1.396 . S
C840 C841 1.399 . S
C841 H827 0.929 . S
C841 C840 1.399 . S
C841 C842 1.385 . S
C842 H828 0.931 . S
C842 C841 1.385 . S
C842 C843 1.389 . S
C843 C842 1.389 . S
C843 C844 1.387 . S
C844 H829 0.930 . S
C844 C839 1.390 . S
C844 C843 1.387 . S
H845 C857 0.930 . S
H846 C859 0.930 . S
H847 C860 0.930 . S
H848 C864 0.959 . S
H849 C864 0.959 . S
H850 C864 0.961 . S
H851 C865 0.960 . S
H852 C865 0.961 . S
H853 C865 0.959 . S
H854 C868 0.929 . S
H855 C869 0.931 . S
H856 C871 0.930 . S
C857 H845 0.930 . S
C857 C858 1.399 . S
C857 C862 1.399 . S
C858 C857 1.399 . S
C858 C859 1.376 . S
C859 H846 0.930 . S
C859 C858 1.376 . S
C859 C860 1.388 . S
C860 H847 0.930 . S
C860 C859 1.388 . S
C860 C861 1.390 . S
C861 C860 1.390 . S
C861 C862 1.394 . S
C861 C867 1.465 . S
C862 C857 1.399 . S
C862 C861 1.394 . S
C862 C863 1.516 . S
C863 C862 1.516 . S
C863 C864 1.502 . S
C863 C865 1.561 . S
C863 C866 1.526 . S
C864 H848 0.959 . S
C864 H849 0.959 . S
C864 H850 0.961 . S
C864 C863 1.502 . S
C865 H851 0.960 . S
C865 H852 0.961 . S
C865 H853 0.959 . S
C865 C863 1.561 . S
C866 C863 1.526 . S
C866 C867 1.396 . S
C866 C871 1.390 . S
C867 C861 1.465 . S
C867 C866 1.396 . S
C867 C868 1.399 . S
C868 H854 0.929 . S
C868 C867 1.399 . S
C868 C869 1.385 . S
C869 H855 0.931 . S
C869 C868 1.385 . S
C869 C870 1.389 . S
C870 C869 1.389 . S
C870 C871 1.387 . S
C871 H856 0.930 . S
C871 C866 1.390 . S
C871 C870 1.387 . S
H872 C884 0.930 . S
H873 C886 0.930 . S
H874 C887 0.930 . S
H875 C891 0.959 . S
H876 C891 0.959 . S
H877 C891 0.961 . S
H878 C892 0.960 . S
H879 C892 0.961 . S
H880 C892 0.959 . S
H881 C895 0.929 . S
H882 C896 0.931 . S
H883 C898 0.930 . S
C884 H872 0.930 . S
C884 C885 1.399 1_565 S
C884 C889 1.399 . S
C885 C884 1.399 1_545 S
C885 C886 1.376 . S
C886 H873 0.930 . S
C886 C885 1.376 . S
C886 C887 1.388 1_545 S
C887 H874 0.930 . S
C887 C886 1.388 1_565 S
C887 C888 1.390 . S
C888 C887 1.390 . S
C888 C889 1.394 . S
C888 C894 1.465 . S
C889 C884 1.399 . S
C889 C888 1.394 . S
C889 C890 1.516 . S
C890 C889 1.516 . S
C890 C891 1.502 . S
C890 C892 1.561 . S
C890 C893 1.526 . S
C891 H875 0.959 . S
C891 H876 0.959 . S
C891 H877 0.961 . S
C891 C890 1.502 . S
C892 H878 0.960 . S
C892 H879 0.961 . S
C892 H880 0.959 . S
C892 C890 1.561 . S
C893 C890 1.526 . S
C893 C894 1.396 . S
C893 C898 1.390 . S
C894 C888 1.465 . S
C894 C893 1.396 . S
C894 C895 1.399 . S
C895 H881 0.929 . S
C895 C894 1.399 . S
C895 C896 1.385 . S
C896 H882 0.931 . S
C896 C895 1.385 . S
C896 C897 1.389 . S
C897 C896 1.389 . S
C897 C898 1.387 . S
C898 H883 0.930 . S
C898 C893 1.390 . S
C898 C897 1.387 . S
H899 C911 0.930 . S
H900 C913 0.930 . S
H901 C914 0.930 . S
H902 C918 0.959 . S
H903 C918 0.959 . S
H904 C918 0.961 . S
H905 C919 0.960 . S
H906 C919 0.961 . S
H907 C919 0.959 . S
H908 C922 0.929 . S
H909 C923 0.931 . S
H910 C925 0.930 . S
C911 H899 0.930 . S
C911 C912 1.399 . S
C911 C916 1.399 . S
C912 C911 1.399 . S
C912 C913 1.376 . S
C913 H900 0.930 . S
C913 C912 1.376 . S
C913 C914 1.388 . S
C914 H901 0.930 . S
C914 C913 1.388 . S
C914 C915 1.390 . S
C915 C914 1.390 . S
C915 C916 1.394 . S
C915 C921 1.465 . S
C916 C911 1.399 . S
C916 C915 1.394 . S
C916 C917 1.516 . S
C917 C916 1.516 . S
C917 C918 1.502 . S
C917 C919 1.561 . S
C917 C920 1.526 . S
C918 H902 0.959 . S
C918 H903 0.959 . S
C918 H904 0.961 . S
C918 C917 1.502 . S
C919 H905 0.960 . S
C919 H906 0.961 . S
C919 H907 0.959 . S
C919 C917 1.561 . S
C920 C917 1.526 . S
C920 C921 1.396 . S
C920 C925 1.390 . S
C921 C915 1.465 . S
C921 C920 1.396 . S
C921 C922 1.399 . S
C922 H908 0.929 . S
C922 C921 1.399 . S
C922 C923 1.385 . S
C923 H909 0.931 . S
C923 C922 1.385 . S
C923 C924 1.389 . S
C924 C923 1.389 . S
C924 C925 1.387 . S
C925 H910 0.930 . S
C925 C920 1.390 . S
C925 C924 1.387 . S
H926 C938 0.930 . S
H927 C940 0.930 . S
H928 C941 0.930 . S
H929 C945 0.959 . S
H930 C945 0.959 . S
H931 C945 0.961 . S
H932 C946 0.960 . S
H933 C946 0.961 . S
H934 C946 0.959 . S
H935 C949 0.929 . S
H936 C950 0.931 . S
H937 C952 0.930 . S
C938 H926 0.930 . S
C938 C939 1.399 . S
C938 C943 1.399 . S
C939 C938 1.399 . S
C939 C940 1.376 . S
C940 H927 0.930 . S
C940 C939 1.376 . S
C940 C941 1.388 . S
C941 H928 0.930 . S
C941 C940 1.388 . S
C941 C942 1.390 . S
C942 C941 1.390 . S
C942 C943 1.394 . S
C942 C948 1.465 . S
C943 C938 1.399 . S
C943 C942 1.394 . S
C943 C944 1.516 . S
C944 C943 1.516 . S
C944 C945 1.502 . S
C944 C946 1.561 . S
C944 C947 1.526 . S
C945 H929 0.959 . S
C945 H930 0.959 . S
C945 H931 0.961 . S
C945 C944 1.502 . S
C946 H932 0.960 . S
C946 H933 0.961 . S
C946 H934 0.959 . S
C946 C944 1.561 . S
C947 C944 1.526 . S
C947 C948 1.396 . S
C947 C952 1.390 . S
C948 C942 1.465 . S
C948 C947 1.396 . S
C948 C949 1.399 . S
C949 H935 0.929 . S
C949 C948 1.399 . S
C949 C950 1.385 1_455 S
C950 H936 0.931 . S
C950 C949 1.385 1_655 S
C950 C951 1.389 . S
C951 C950 1.389 . S
C951 C952 1.387 1_655 S
C952 H937 0.930 . S
C952 C947 1.390 . S
C952 C951 1.387 1_455 S
H953 C965 0.930 . S
H954 C967 0.930 . S
H955 C968 0.930 . S
H956 C972 0.959 . S
H957 C972 0.959 . S
H958 C972 0.961 . S
H959 C973 0.960 . S
H960 C973 0.961 . S
H961 C973 0.959 . S
H962 C976 0.929 . S
H963 C977 0.931 . S
H964 C979 0.930 . S
C965 H953 0.930 . S
C965 C966 1.399 1_545 S
C965 C970 1.399 . S
C966 C965 1.399 1_565 S
C966 C967 1.376 . S
C967 H954 0.930 . S
C967 C966 1.376 . S
C967 C968 1.388 1_565 S
C968 H955 0.930 . S
C968 C967 1.388 1_545 S
C968 C969 1.390 . S
C969 C968 1.390 . S
C969 C970 1.394 . S
C969 C975 1.465 . S
C970 C965 1.399 . S
C970 C969 1.394 . S
C970 C971 1.516 . S
C971 C970 1.516 . S
C971 C972 1.502 . S
C971 C973 1.561 . S
C971 C974 1.526 . S
C972 H956 0.959 . S
C972 H957 0.959 . S
C972 H958 0.961 . S
C972 C971 1.502 . S
C973 H959 0.960 . S
C973 H960 0.961 . S
C973 H961 0.959 . S
C973 C971 1.561 . S
C974 C971 1.526 . S
C974 C975 1.396 . S
C974 C979 1.390 . S
C975 C969 1.465 . S
C975 C974 1.396 . S
C975 C976 1.399 . S
C976 H962 0.929 . S
C976 C975 1.399 . S
C976 C977 1.385 1_655 S
C977 H963 0.931 . S
C977 C976 1.385 1_455 S
C977 C978 1.389 . S
C978 C977 1.389 . S
C978 C979 1.387 1_455 S
C979 H964 0.930 . S
C979 C974 1.390 . S
C979 C978 1.387 1_655 S
H980 C992 0.930 . S
H981 C994 0.930 . S
H982 C995 0.930 . S
H983 C999 0.959 . S
H984 C999 0.959 . S
H985 C999 0.961 . S
H986 C1000 0.960 . S
H987 C1000 0.961 . S
H988 C1000 0.959 . S
H989 C1003 0.929 . S
H990 C1004 0.931 . S
H991 C1006 0.930 . S
C992 H980 0.930 . S
C992 C993 1.399 . S
C992 C997 1.399 . S
C993 C992 1.399 . S
C993 C994 1.376 . S
C994 H981 0.930 . S
C994 C993 1.376 . S
C994 C995 1.388 . S
C995 H982 0.930 . S
C995 C994 1.388 . S
C995 C996 1.390 . S
C996 C995 1.390 . S
C996 C997 1.394 . S
C996 C1002 1.465 . S
C997 C992 1.399 . S
C997 C996 1.394 . S
C997 C998 1.516 . S
C998 C997 1.516 . S
C998 C999 1.502 . S
C998 C1000 1.561 . S
C998 C1001 1.526 . S
C999 H983 0.959 . S
C999 H984 0.959 . S
C999 H985 0.961 . S
C999 C998 1.502 . S
C1000 H986 0.960 . S
C1000 H987 0.961 . S
C1000 H988 0.959 . S
C1000 C998 1.561 . S
C1001 C998 1.526 . S
C1001 C1002 1.396 . S
C1001 C1006 1.390 . S
C1002 C996 1.465 . S
C1002 C1001 1.396 . S
C1002 C1003 1.399 . S
C1003 H989 0.929 . S
C1003 C1002 1.399 . S
C1003 C1004 1.385 . S
C1004 H990 0.931 . S
C1004 C1003 1.385 . S
C1004 C1005 1.389 . S
C1005 C1004 1.389 . S
C1005 C1006 1.387 . S
C1006 H991 0.930 . S
C1006 C1001 1.390 . S
C1006 C1005 1.387 . S
H1007 C1019 0.930 . S
H1008 C1021 0.930 . S
H1009 C1022 0.930 . S
H1010 C1026 0.959 . S
H1011 C1026 0.959 . S
H1012 C1026 0.961 . S
H1013 C1027 0.960 . S
H1014 C1027 0.961 . S
H1015 C1027 0.959 . S
H1016 C1030 0.929 . S
H1017 C1031 0.931 . S
H1018 C1033 0.930 . S
C1019 H1007 0.930 . S
C1019 C1020 1.399 1_655 S
C1019 C1024 1.399 . S
C1020 C1019 1.399 1_455 S
C1020 C1021 1.376 . S
C1021 H1008 0.930 . S
C1021 C1020 1.376 . S
C1021 C1022 1.388 . S
C1022 H1009 0.930 . S
C1022 C1021 1.388 . S
C1022 C1023 1.390 1_455 S
C1023 C1022 1.390 1_655 S
C1023 C1024 1.394 . S
C1023 C1029 1.465 . S
C1024 C1019 1.399 . S
C1024 C1023 1.394 . S
C1024 C1025 1.516 . S
C1025 C1024 1.516 . S
C1025 C1026 1.502 . S
C1025 C1027 1.561 . S
C1025 C1028 1.526 . S
C1026 H1010 0.959 . S
C1026 H1011 0.959 . S
C1026 H1012 0.961 . S
C1026 C1025 1.502 . S
C1027 H1013 0.960 . S
C1027 H1014 0.961 . S
C1027 H1015 0.959 . S
C1027 C1025 1.561 . S
C1028 C1025 1.526 . S
C1028 C1029 1.396 . S
C1028 C1033 1.390 . S
C1029 C1023 1.465 . S
C1029 C1028 1.396 . S
C1029 C1030 1.399 . S
C1030 H1016 0.929 . S
C1030 C1029 1.399 . S
C1030 C1031 1.385 . S
C1031 H1017 0.931 . S
C1031 C1030 1.385 . S
C1031 C1032 1.389 . S
C1032 C1031 1.389 . S
C1032 C1033 1.387 . S
C1033 H1018 0.930 . S
C1033 C1028 1.390 . S
C1033 C1032 1.387 . S
H1034 C1046 0.930 . S
H1035 C1048 0.930 . S
H1036 C1049 0.924 1_655 S
H1037 C1053 0.959 . S
H1038 C1053 0.959 . S
H1039 C1053 0.961 . S
H1040 C1054 0.960 . S
H1041 C1054 0.961 . S
H1042 C1054 0.959 . S
H1043 C1057 0.929 1_545 S
H1044 C1058 0.931 . S
H1045 C1060 0.930 . S
C1046 H1034 0.930 . S
C1046 C1047 1.399 1_455 S
C1046 C1051 1.399 . S
C1047 C1046 1.399 1_655 S
C1047 C1048 1.376 . S
C1048 H1035 0.930 . S
C1048 C1047 1.376 . S
C1048 C1049 1.371 1_655 S
C1049 H1036 0.924 1_455 S
C1049 C1048 1.371 1_455 S
C1049 C1050 1.414 . S
C1050 C1049 1.414 . S
C1050 C1051 1.394 . S
C1050 C1056 1.465 . S
C1051 C1046 1.399 . S
C1051 C1050 1.394 . S
C1051 C1052 1.516 . S
C1052 C1051 1.516 . S
C1052 C1053 1.502 . S
C1052 C1054 1.561 . S
C1052 C1055 1.526 . S
C1053 H1037 0.959 . S
C1053 H1038 0.959 . S
C1053 H1039 0.961 . S
C1053 C1052 1.502 . S
C1054 H1040 0.960 . S
C1054 H1041 0.961 . S
C1054 H1042 0.959 . S
C1054 C1052 1.561 . S
C1055 C1052 1.526 . S
C1055 C1056 1.396 . S
C1055 C1060 1.390 . S
C1056 C1050 1.465 . S
C1056 C1055 1.396 . S
C1056 C1057 1.399 . S
C1057 H1043 0.929 1_565 S
C1057 C1056 1.399 . S
C1057 C1058 1.385 1_565 S
C1058 H1044 0.931 . S
C1058 C1057 1.385 1_545 S
C1058 C1059 1.389 . S
C1059 C1058 1.389 . S
C1059 C1060 1.387 1_545 S
C1060 H1045 0.930 . S
C1060 C1055 1.390 . S
C1060 C1059 1.387 1_565 S
H1061 C1073 0.930 1_565 S
H1062 C1075 0.930 . S
H1063 C1076 0.930 . S
H1064 C1080 0.959 . S
H1065 C1080 0.959 . S
H1066 C1080 0.961 . S
H1067 C1081 0.960 . S
H1068 C1081 0.961 . S
H1069 C1081 0.959 . S
H1070 C1084 0.929 . S
H1071 C1085 0.931 . S
H1072 C1087 0.930 . S
C1073 H1061 0.930 1_545 S
C1073 C1074 1.399 1_545 S
C1073 C1078 1.399 . S
C1074 C1073 1.399 1_565 S
C1074 C1075 1.376 1_565 S
C1075 H1062 0.930 . S
C1075 C1074 1.376 1_545 S
C1075 C1076 1.388 . S
C1076 H1063 0.930 . S
C1076 C1075 1.388 . S
C1076 C1077 1.390 . S
C1077 C1076 1.390 . S
C1077 C1078 1.394 . S
C1077 C1083 1.465 . S
C1078 C1073 1.399 . S
C1078 C1077 1.394 . S
C1078 C1079 1.516 . S
C1079 C1078 1.516 . S
C1079 C1080 1.502 . S
C1079 C1081 1.561 . S
C1079 C1082 1.526 . S
C1080 H1064 0.959 . S
C1080 H1065 0.959 . S
C1080 H1066 0.961 . S
C1080 C1079 1.502 . S
C1081 H1067 0.960 . S
C1081 H1068 0.961 . S
C1081 H1069 0.959 . S
C1081 C1079 1.561 . S
C1082 C1079 1.526 . S
C1082 C1083 1.396 . S
C1082 C1087 1.390 . S
C1083 C1077 1.465 . S
C1083 C1082 1.396 . S
C1083 C1084 1.399 . S
C1084 H1070 0.929 . S
C1084 C1083 1.399 . S
C1084 C1085 1.385 . S
C1085 H1071 0.931 . S
C1085 C1084 1.385 . S
C1085 C1086 1.389 . S
C1086 C1085 1.389 . S
C1086 C1087 1.387 . S
C1087 H1072 0.930 . S
C1087 C1082 1.390 . S
C1087 C1086 1.387 . S
C237 C110 1.599 . S
C249 C0 1.602 . S
C264 C57 1.601 . S
C276 C15 1.599 . S
C291 C83 1.586 . S
C303 C29 1.579 . S
C318 C55 1.586 . S
C330 C97 1.593 . S
C345 C223 1.602 . S
C357 C112 1.601 . S
C372 C169 1.587 . S
C384 C126 1.584 . S
C399 C152 1.583 . S
C411 C183 1.586 . S
C426 C166 1.602 . S
C438 C196 1.601 . S
C453 C41 1.450 . S
C465 C12 1.431 . S
C480 C27 1.454 . S
C492 C43 1.409 . S
C507 C69 1.411 . S
C519 C85 1.426 . S
C534 C98 1.411 . S
C546 C71 1.428 . S
C561 C124 1.454 . S
C573 C140 1.408 . S
C588 C138 1.416 . S
C600 C154 1.448 . S
C615 C208 1.441 . S
C627 C181 1.413 . S
C642 C195 1.435 . S
C654 C211 1.436 . S
C669 C96 1.602 . S
C681 C1 1.592 . S
C696 C14 1.589 . S
C708 C111 1.606 . S
C723 C28 1.593 . S
C735 C56 1.603 . S
C750 C54 1.590 . S
C762 C82 1.604 . S
C777 C113 1.592 . S
C789 C197 1.597 . S
C804 C127 1.593 . S
C816 C222 1.605 . S
C831 C153 1.605 . S
C843 C168 1.592 . S
C858 C167 1.605 . S
C870 C182 1.593 . S
C885 C13 1.535 . S
C897 C210 1.537 . S
C912 C180 1.554 . S
C924 C26 1.551 . S
C939 C40 1.537 . S
C951 C194 1.538 . S
C966 C209 1.547 . S
C978 C42 1.551 . S
C993 C139 1.537 . S
C1005 C68 1.537 . S
C1020 C70 1.537 . S
C1032 C141 1.537 . S
C1047 C155 1.543 . S
C1059 C84 1.547 . S
C1074 C125 1.550 . S
C1086 C99 1.546 . S
