# Generated by pormake.
# Topology qtz-e, (6)-cn, num edge types: 1
# Building blocks:
#     Node 0, Type 0, BuildingBlock: INOVEN_clean_sbu_0, # of connection points: 6
#     Node 1, Type 0, BuildingBlock: INOVEN_clean_sbu_0, # of connection points: 6
#     Node 2, Type 0, BuildingBlock: INOVEN_clean_sbu_0, # of connection points: 6
#     Node 3, Type 0, BuildingBlock: INOVEN_clean_sbu_0, # of connection points: 6
#     Node 4, Type 0, BuildingBlock: INOVEN_clean_sbu_0, # of connection points: 6
#     Node 5, Type 0, BuildingBlock: INOVEN_clean_sbu_0, # of connection points: 6
#     Edge 6, Type (0, 0), BuildingBlock: MIFKUJ_clean_linker_0, # of connection points: 2
#     Edge 7, Type (0, 0), BuildingBlock: MIFKUJ_clean_linker_0, # of connection points: 2
#     Edge 8, Type (0, 0), BuildingBlock: MIFKUJ_clean_linker_0, # of connection points: 2
#     Edge 9, Type (0, 0), BuildingBlock: MIFKUJ_clean_linker_0, # of connection points: 2
#     Edge 10, Type (0, 0), BuildingBlock: MIFKUJ_clean_linker_0, # of connection points: 2
#     Edge 11, Type (0, 0), BuildingBlock: MIFKUJ_clean_linker_0, # of connection points: 2
#     Edge 12, Type (0, 0), BuildingBlock: MIFKUJ_clean_linker_0, # of connection points: 2
#     Edge 13, Type (0, 0), BuildingBlock: MIFKUJ_clean_linker_0, # of connection points: 2
#     Edge 14, Type (0, 0), BuildingBlock: MIFKUJ_clean_linker_0, # of connection points: 2
#     Edge 15, Type (0, 0), BuildingBlock: MIFKUJ_clean_linker_0, # of connection points: 2
#     Edge 16, Type (0, 0), BuildingBlock: MIFKUJ_clean_linker_0, # of connection points: 2
#     Edge 17, Type (0, 0), BuildingBlock: MIFKUJ_clean_linker_0, # of connection points: 2
#     Edge 18, Type (0, 0), BuildingBlock: MIFKUJ_clean_linker_0, # of connection points: 2
#     Edge 19, Type (0, 0), BuildingBlock: MIFKUJ_clean_linker_0, # of connection points: 2
#     Edge 20, Type (0, 0), BuildingBlock: MIFKUJ_clean_linker_0, # of connection points: 2
#     Edge 21, Type (0, 0), BuildingBlock: MIFKUJ_clean_linker_0, # of connection points: 2
#     Edge 22, Type (0, 0), BuildingBlock: MIFKUJ_clean_linker_0, # of connection points: 2
#     Edge 23, Type (0, 0), BuildingBlock: MIFKUJ_clean_linker_0, # of connection points: 2
# Relax obj value: 0.097
# Max RMSD: 0.171
# Mean RMSD: 0.171
data_MOF--net-qtz-e--node1-INOVEN_clean_sbu_0--edge1-MIFKUJ_clean_linker_0
_symmetry_space_group_name_H-M    P1
_symmetry_Int_Tables_number       1
_symmetry_cell_setting            triclinic
loop_
_symmetry_equiv_pos_as_xyz
'x, y, z'
_cell_length_a     33.011208
_cell_length_b     32.999848
_cell_length_c     63.43442
_cell_angle_alpha  89.917676
_cell_angle_beta   90.025939
_cell_angle_gamma 120.01457
loop_
_atom_site_label
_atom_site_type_symbol
_atom_site_fract_x
_atom_site_fract_y
_atom_site_fract_z
_atom_type_partial_charge
Gd0 Gd 0.20936 0.4439 0.05033 0.0
Gd1 Gd 0.17762 0.348 0.0311 0.0
C2 C 0.14611 0.35232 0.07776 0.0
C3 C 0.22342 0.52141 0.06628 0.0
C4 C 0.22299 0.53456 0.08855 0.0
C5 C 0.25883 0.57732 0.09632 0.0
C6 C 0.18737 0.50401 0.10237 0.0
C7 C 0.22197 0.56014 0.13112 0.0
C8 C 0.18676 0.51671 0.12334 0.0
C9 C 0.2584 0.58997 0.11737 0.0
C10 C 0.25795 0.40201 0.06302 0.0
C11 C 0.24237 0.44156 1.00276 0.0
C12 C 0.1673 0.27577 1.01074 0.0
C13 C 0.18453 0.26796 0.99053 0.0
C14 C 0.15202 0.24305 0.97457 0.0
C15 C 0.23254 0.28711 0.98634 0.0
C16 C 0.21491 0.25803 0.95032 0.0
C17 C 0.24757 0.28183 0.96641 0.0
C18 C 0.16704 0.23843 0.95464 0.0
C19 C 0.11487 0.37766 0.03084 0.0
O20 O 0.15344 0.39422 0.07251 0.0
O21 O 0.16025 0.32927 0.0655 0.0
O22 O 0.25785 0.51456 0.06085 0.0
O23 O 0.18293 0.48999 0.05845 0.0
O24 O 0.24586 0.42551 0.07522 0.0
O25 O 0.24415 0.4024 0.04457 0.0
O26 O 0.22171 0.39545 1.00459 0.0
O27 O 0.24126 0.46826 0.01807 0.0
O28 O 0.13879 0.29229 1.00894 0.0
O29 O 0.19723 0.29487 0.02629 0.0
O30 O 0.10397 0.33514 0.03554 0.0
O31 O 0.1576 0.40134 0.02669 0.0
H32 H 0.287 0.60111 0.08606 0.0
H33 H 0.15948 0.47047 0.09694 0.0
H34 H 0.15783 0.49293 0.13325 0.0
H35 H 0.28666 0.62324 0.12283 0.0
H36 H 0.11484 0.22793 0.97742 0.0
H37 H 0.25847 0.30681 0.99828 0.0
H38 H 0.28471 0.29734 0.96341 0.0
H39 H 0.14117 0.21944 0.94256 0.0
Gd40 Gd 0.74965 0.22637 0.37992 0.0
Gd41 Gd 0.81276 0.19073 0.36342 0.0
C42 C 0.76811 0.15411 0.40877 0.0
C43 C 0.68277 0.23333 0.39748 0.0
C44 C 0.66648 0.23144 0.41937 0.0
C45 C 0.69696 0.26021 0.43526 0.0
C46 C 0.61984 0.19959 0.42458 0.0
C47 C 0.63404 0.22535 0.46124 0.0
C48 C 0.60386 0.19623 0.44528 0.0
C49 C 0.68084 0.25742 0.4559 0.0
C50 C 0.84137 0.28192 0.38797 0.0
C51 C 0.78956 0.25929 0.33394 0.0
C52 C 0.88093 0.1851 0.34639 0.0
C53 C 0.90491 0.19845 0.32576 0.0
C54 C 0.91513 0.16734 0.31517 0.0
C55 C 0.91618 0.24117 0.3161 0.0
C56 C 0.94657 0.22095 0.28531 0.0
C57 C 0.93671 0.25226 0.29609 0.0
C58 C 0.93583 0.17847 0.29517 0.0
C59 C 0.72096 0.13639 0.3555 0.0
O60 O 0.74183 0.17302 0.40456 0.0
O61 O 0.80265 0.16029 0.39609 0.0
O62 O 0.72298 0.26964 0.39224 0.0
O63 O 0.6772 0.19399 0.3899 0.0
O64 O 0.81301 0.29717 0.38362 0.0
O65 O 0.81932 0.23804 0.38929 0.0
O66 O 0.81936 0.24458 0.33865 0.0
O67 O 0.75397 0.24992 0.3465 0.0
O68 O 0.83758 0.15068 0.34611 0.0
O69 O 0.88716 0.21936 0.35889 0.0
O70 O 0.74765 0.11917 0.36018 0.0
O71 O 0.74448 0.18002 0.35447 0.0
H72 H 0.73325 0.28503 0.43177 0.0
H73 H 0.59572 0.17706 0.41261 0.0
H74 H 0.56788 0.17045 0.44875 0.0
H75 H 0.70503 0.28099 0.46758 0.0
H76 H 0.90654 0.13411 0.32228 0.0
H77 H 0.9089 0.26594 0.32396 0.0
H78 H 0.94507 0.28553 0.28911 0.0
H79 H 0.94243 0.15331 0.28723 0.0
Gd80 Gd 0.53923 0.74213 0.71469 0.0
Gd81 Gd 0.63605 0.81563 0.69675 0.0
C82 C 0.62966 0.78782 0.74506 0.0
C83 C 0.4656 0.67034 0.72974 0.0
C84 C 0.44917 0.65316 0.7516 0.0
C85 C 0.41089 0.65502 0.76018 0.0
C86 C 0.47181 0.63534 0.76424 0.0
C87 C 0.41864 0.6223 0.79362 0.0
C88 C 0.45663 0.61994 0.78486 0.0
C89 C 0.39597 0.64003 0.7809 0.0
C90 C 0.56787 0.8322 0.72418 0.0
C91 C 0.54387 0.77174 0.66591 0.0
C92 C 0.70391 0.88343 0.67627 0.0
C93 C 0.70815 0.90797 0.65616 0.0
C94 C 0.75066 0.92853 0.64515 0.0
C95 C 0.66945 0.9081 0.64702 0.0
C96 C 0.71536 0.94732 0.61561 0.0
C97 C 0.67296 0.92746 0.62694 0.0
C98 C 0.75432 0.94816 0.62516 0.0
C99 C 0.61942 0.72725 0.70078 0.0
O100 O 0.5898 0.7498 0.74017 0.0
O101 O 0.65193 0.82296 0.73159 0.0
O102 O 0.46592 0.70867 0.72383 0.0
O103 O 0.50254 0.66887 0.72321 0.0
O104 O 0.54493 0.79751 0.737 0.0
O105 O 0.57306 0.81729 0.70674 0.0
O106 O 0.58926 0.8003 0.66859 0.0
O107 O 0.51637 0.74473 0.68131 0.0
O108 O 0.69303 0.83963 0.67441 0.0
O109 O 0.68147 0.89021 0.69171 0.0
O110 O 0.65958 0.76365 0.70523 0.0
O111 O 0.59153 0.73994 0.69437 0.0
H112 H 0.39269 0.66855 0.75091 0.0
H113 H 0.50145 0.63328 0.75827 0.0
H114 H 0.47455 0.60573 0.79386 0.0
H115 H 0.36703 0.64311 0.78704 0.0
H116 H 0.78094 0.92875 0.65189 0.0
H117 H 0.63619 0.89226 0.6552 0.0
H118 H 0.64204 0.92562 0.62008 0.0
H119 H 0.78777 0.96387 0.61717 0.0
Gd120 Gd 0.78309 0.55454 0.04769 0.0
Gd121 Gd 0.81914 0.6536 0.0307 0.0
C122 C 0.84228 0.64149 0.07816 0.0
C123 C 0.769 0.47628 0.06278 0.0
C124 C 0.77215 0.46331 0.08491 0.0
C125 C 0.73408 0.42451 0.09441 0.0
C126 C 0.81291 0.49022 0.09693 0.0
C127 C 0.77823 0.43845 0.12718 0.0
C128 C 0.81594 0.47786 0.11774 0.0
C129 C 0.73702 0.41224 0.11532 0.0
C130 C 0.73331 0.59584 0.05936 0.0
C131 C 0.75743 0.56336 0.99969 0.0
C132 C 0.83136 0.72856 0.01205 0.0
C133 C 0.81273 0.73809 0.99277 0.0
C134 C 0.83988 0.78014 0.98186 0.0
C135 C 0.77017 0.70384 0.98406 0.0
C136 C 0.78344 0.75267 0.95304 0.0
C137 C 0.75569 0.711 0.96436 0.0
C138 C 0.82533 0.78749 0.96223 0.0
C139 C 0.88077 0.62274 0.03173 0.0
O140 O 0.83456 0.60002 0.07209 0.0
O141 O 0.83291 0.66806 0.06569 0.0
O142 O 0.73445 0.48382 0.0584 0.0
O143 O 0.80862 0.50688 0.05395 0.0
O144 O 0.74339 0.57085 0.07167 0.0
O145 O 0.75021 0.59768 0.04139 0.0
O146 O 0.77949 0.60936 1.00247 0.0
O147 O 0.75433 0.53421 0.01482 0.0
O148 O 0.85807 0.71036 1.00883 0.0
O149 O 0.80203 0.70885 0.02777 0.0
O150 O 0.89171 0.66489 0.03721 0.0
O151 O 0.83883 0.60031 0.02618 0.0
H152 H 0.70218 0.40341 0.08559 0.0
H153 H 0.84278 0.52081 0.09026 0.0
H154 H 0.84786 0.49936 0.12647 0.0
H155 H 0.7074 0.3815 0.12201 0.0
H156 H 0.87293 0.8069 0.98831 0.0
H157 H 0.74877 0.67101 0.99221 0.0
H158 H 0.72354 0.68319 0.95771 0.0
H159 H 0.84716 0.82032 0.95416 0.0
Gd160 Gd 0.23957 0.77048 0.3846 0.0
Gd161 Gd 0.15057 0.76891 0.37013 0.0
C162 C 0.19881 0.82268 0.41199 0.0
C163 C 0.31941 0.78067 0.3951 0.0
C164 C 0.33905 0.77983 0.41602 0.0
C165 C 0.31395 0.7424 0.43007 0.0
C166 C 0.38187 0.81782 0.42262 0.0
C167 C 0.374 0.78097 0.45694 0.0
C168 C 0.39913 0.81848 0.44291 0.0
C169 C 0.33131 0.7429 0.45022 0.0
C170 C 0.16213 0.71046 0.40658 0.0
C171 C 0.1956 0.72197 0.33966 0.0
C172 C 0.07056 0.75046 0.35454 0.0
C173 C 0.04988 0.73924 0.33314 0.0
C174 C 0.03283 0.76679 0.32429 0.0
C175 C 0.05002 0.70393 0.3208 0.0
C176 C 0.01834 0.72552 0.29083 0.0
C177 C 0.03442 0.69715 0.29986 0.0
C178 C 0.01727 0.76007 0.30339 0.0
C179 C 0.23226 0.84592 0.35978 0.0
O180 O 0.23744 0.82686 0.40364 0.0
O181 O 0.15719 0.79392 0.40373 0.0
O182 O 0.28447 0.74079 0.38842 0.0
O183 O 0.31323 0.81641 0.39153 0.0
O184 O 0.20351 0.73429 0.41449 0.0
O185 O 0.16384 0.71777 0.387 0.0
O186 O 0.16169 0.7317 0.34275 0.0
O187 O 0.23024 0.73447 0.35328 0.0
O188 O 0.10576 0.79284 0.35684 0.0
O189 O 0.07711 0.71914 0.36425 0.0
O190 O 0.19586 0.84778 0.36599 0.0
O191 O 0.22306 0.80433 0.35922 0.0
H192 H 0.28045 0.71287 0.42565 0.0
H193 H 0.40172 0.84726 0.41217 0.0
H194 H 0.43229 0.84819 0.44756 0.0
H195 H 0.31072 0.7138 0.46072 0.0
H196 H 0.03237 0.79424 0.33346 0.0
H197 H 0.06294 0.68215 0.32721 0.0
H198 H 0.03609 0.67049 0.29058 0.0
H199 H 0.00442 0.78203 0.29706 0.0
Gd200 Gd 0.44582 0.25144 0.71506 0.0
Gd201 Gd 0.35115 0.17979 0.69517 0.0
C202 C 0.3533 0.2036 0.74363 0.0
C203 C 0.51949 0.32318 0.7301 0.0
C204 C 0.53728 0.34194 0.75157 0.0
C205 C 0.5717 0.33497 0.76117 0.0
C206 C 0.52058 0.36764 0.76258 0.0
C207 C 0.57229 0.379 0.79229 0.0
C208 C 0.53839 0.38654 0.78245 0.0
C209 C 0.58861 0.3528 0.78134 0.0
C210 C 0.41669 0.16091 0.72378 0.0
C211 C 0.44595 0.22354 0.6664 0.0
C212 C 0.28312 0.11381 0.67412 0.0
C213 C 0.27772 0.08832 0.65431 0.0
C214 C 0.23477 0.06802 0.64372 0.0
C215 C 0.31541 0.08623 0.64522 0.0
C216 C 0.26696 0.04376 0.61497 0.0
C217 C 0.31007 0.06409 0.62574 0.0
C218 C 0.2294 0.04601 0.62427 0.0
C219 C 0.36818 0.26823 0.69942 0.0
O220 O 0.39334 0.24231 0.73985 0.0
O221 O 0.33254 0.16964 0.72961 0.0
O222 O 0.51876 0.28448 0.72459 0.0
O223 O 0.48237 0.32451 0.72372 0.0
O224 O 0.43835 0.19488 0.73709 0.0
O225 O 0.41285 0.1768 0.7063 0.0
O226 O 0.40023 0.19514 0.66788 0.0
O227 O 0.47161 0.24945 0.6824 0.0
O228 O 0.29625 0.15814 0.67193 0.0
O229 O 0.30412 0.10575 0.6898 0.0
O230 O 0.3277 0.23193 0.70346 0.0
O231 O 0.3963 0.25548 0.69355 0.0
H232 H 0.58538 0.31538 0.75317 0.0
H233 H 0.49365 0.37327 0.75588 0.0
H234 H 0.52578 0.40753 0.78998 0.0
H235 H 0.61415 0.3455 0.7884 0.0
H236 H 0.20546 0.06981 0.65036 0.0
H237 H 0.34902 0.102 0.65308 0.0
H238 H 0.33963 0.06269 0.61919 0.0
H239 H 0.19599 0.03164 0.61632 0.0
H240 H 0.27117 0.72469 0.32044 0.0
H241 H 0.27415 0.69447 0.28564 0.0
H242 H 0.12539 0.63785 0.27863 0.0
H243 H 0.12267 0.66954 0.31301 0.0
H244 H 0.23979 0.61399 0.26778 0.0
H245 H 0.09642 0.63903 0.22774 0.0
H246 H 0.0606 0.68888 0.23087 0.0
H247 H 0.18676 0.79794 0.25873 0.0
H248 H 0.2236 0.7491 0.25543 0.0
H249 H 0.1908 0.50568 0.16699 0.0
H250 H 0.18374 0.52968 0.20251 0.0
H251 H 0.24217 0.67229 0.18115 0.0
H252 H 0.24659 0.64813 0.14533 0.0
H253 H 0.17307 0.65303 0.20615 0.0
H254 H 0.30698 0.63187 0.21009 0.0
H255 H 0.34887 0.58798 0.20591 0.0
H256 H 0.25384 0.48322 0.24913 0.0
H257 H 0.21106 0.52625 0.25338 0.0
C258 C 0.23904 0.70559 0.31153 0.0
C259 C 0.19675 0.70003 0.31941 0.0
C260 C 0.24076 0.68823 0.29161 0.0
C261 C 0.20017 0.66456 0.27921 0.0
C262 C 0.15749 0.65706 0.28754 0.0
C263 C 0.15592 0.67509 0.30728 0.0
C264 C 0.20287 0.6489 0.25744 0.0
C265 C 0.22511 0.62252 0.25434 0.0
C266 C 0.1842 0.66028 0.23973 0.0
C267 C 0.16258 0.6902 0.24153 0.0
C268 C 0.11656 0.67372 0.23446 0.0
C269 C 0.09606 0.70178 0.23628 0.0
C270 C 0.12134 0.74646 0.24507 0.0
C271 C 0.16719 0.76325 0.25199 0.0
C272 C 0.18789 0.7354 0.25015 0.0
C273 C 0.2018 0.54211 0.16973 0.0
C274 C 0.21956 0.57493 0.15315 0.0
C275 C 0.1982 0.55591 0.19019 0.0
C276 C 0.21303 0.603 0.19468 0.0
C277 C 0.23061 0.63578 0.17817 0.0
C278 C 0.23374 0.62195 0.15768 0.0
C279 C 0.2101 0.61826 0.2165 0.0
C280 C 0.18762 0.64439 0.21961 0.0
C281 C 0.22942 0.60753 0.23414 0.0
C282 C 0.2556 0.58207 0.23191 0.0
C283 C 0.2949 0.59936 0.21862 0.0
C284 C 0.3188 0.57465 0.21624 0.0
C285 C 0.30395 0.53278 0.2272 0.0
C286 C 0.26528 0.51563 0.24063 0.0
C287 C 0.24123 0.5402 0.24305 0.0
H288 H 0.32245 0.51366 0.22531 0.0
H289 H 0.10557 0.76823 0.24642 0.0
H290 H 0.53908 0.25625 0.65841 0.0
H291 H 0.57473 0.25476 0.62478 0.0
H292 H 0.43956 0.1939 0.59464 0.0
H293 H 0.40368 0.19352 0.6282 0.0
H294 H 0.4808 0.15101 0.58134 0.0
H295 H 0.52873 0.31403 0.58952 0.0
H296 H 0.56544 0.39043 0.60756 0.0
H297 H 0.69764 0.39477 0.60752 0.0
H298 H 0.66155 0.31808 0.5897 0.0
H299 H 0.54732 0.20852 0.47392 0.0
H300 H 0.51915 0.20506 0.50979 0.0
H301 H 0.65309 0.23534 0.53443 0.0
H302 H 0.68117 0.23675 0.49862 0.0
H303 H 0.61792 0.29177 0.55147 0.0
H304 H 0.56825 0.13004 0.53987 0.0
H305 H 0.52946 0.05463 0.52103 0.0
H306 H 0.39732 0.04957 0.52636 0.0
H307 H 0.43543 0.12529 0.545 0.0
C308 C 0.51707 0.24282 0.64457 0.0
C309 C 0.46859 0.22519 0.64599 0.0
C310 C 0.53749 0.24209 0.62532 0.0
C311 C 0.50999 0.22472 0.60701 0.0
C312 C 0.46162 0.20736 0.60847 0.0
C313 C 0.44114 0.20737 0.62771 0.0
C314 C 0.53103 0.22394 0.58633 0.0
C315 C 0.51047 0.18201 0.57476 0.0
C316 C 0.57055 0.26395 0.57785 0.0
C317 C 0.59233 0.3101 0.58849 0.0
C318 C 0.56555 0.33113 0.5935 0.0
C319 C 0.58626 0.3745 0.60366 0.0
C320 C 0.63381 0.39737 0.60874 0.0
C321 C 0.66079 0.37697 0.60361 0.0
C322 C 0.64024 0.33358 0.59347 0.0
C323 C 0.57068 0.21355 0.4869 0.0
C324 C 0.61663 0.22282 0.48322 0.0
C325 C 0.55452 0.21184 0.50743 0.0
C326 C 0.58398 0.21977 0.52475 0.0
C327 C 0.62985 0.22925 0.52125 0.0
C328 C 0.6459 0.23034 0.50072 0.0
C329 C 0.56701 0.21924 0.54646 0.0
C330 C 0.5884 0.26083 0.55819 0.0
C331 C 0.52785 0.17913 0.55495 0.0
C332 C 0.50484 0.13365 0.54364 0.0
C333 C 0.53101 0.11311 0.53684 0.0
C334 C 0.50912 0.07024 0.52624 0.0
C335 C 0.46099 0.0474 0.52245 0.0
C336 C 0.43462 0.06734 0.52929 0.0
C337 C 0.45635 0.11022 0.53989 0.0
H338 H 0.44411 0.0142 0.51425 0.0
H339 H 0.64978 0.43094 0.61661 0.0
H340 H 0.27112 0.40334 0.97211 0.0
H341 H 0.30619 0.43675 0.93803 0.0
H342 H 0.29988 0.56118 0.95264 0.0
H343 H 0.26672 0.52865 0.98723 0.0
H344 H 0.27645 0.45618 0.90576 0.0
H345 H 0.37983 0.65516 0.92554 0.0
H346 H 0.42389 0.70642 0.95531 0.0
H347 H 0.45022 0.60029 0.97964 0.0
H348 H 0.40667 0.54853 0.94995 0.0
H349 H 0.32883 0.57811 0.80956 0.0
H350 H 0.30329 0.55184 0.84556 0.0
H351 H 0.44617 0.60136 0.86414 0.0
H352 H 0.47237 0.63034 0.82843 0.0
H353 H 0.40584 0.61878 0.89463 0.0
H354 H 0.36782 0.48437 0.8546 0.0
H355 H 0.33515 0.42919 0.82513 0.0
H356 H 0.19637 0.39679 0.84246 0.0
H357 H 0.22855 0.45316 0.87185 0.0
C358 C 0.27762 0.43806 0.96819 0.0
C359 C 0.26604 0.46329 0.98247 0.0
C360 C 0.29759 0.45713 0.94858 0.0
C361 C 0.30613 0.50178 0.94257 0.0
C362 C 0.29474 0.52714 0.9569 0.0
C363 C 0.27549 0.50837 0.9767 0.0
C364 C 0.3252 0.52075 0.92107 0.0
C365 C 0.3047 0.4918 0.90343 0.0
C366 C 0.36303 0.56681 0.91777 0.0
C367 C 0.38956 0.59782 0.93562 0.0
C368 C 0.39512 0.64281 0.93722 0.0
C369 C 0.41995 0.67192 0.95409 0.0
C370 C 0.43964 0.65652 0.96941 0.0
C371 C 0.43469 0.61204 0.96784 0.0
C372 C 0.40988 0.58279 0.951 0.0
C373 C 0.35507 0.58421 0.8213 0.0
C374 C 0.40281 0.6063 0.81583 0.0
C375 C 0.34026 0.56858 0.84195 0.0
C376 C 0.37259 0.5738 0.85768 0.0
C377 C 0.42034 0.59664 0.85239 0.0
C378 C 0.43525 0.6127 0.83179 0.0
C379 C 0.35646 0.55443 0.87941 0.0
C380 C 0.37746 0.58325 0.89704 0.0
C381 C 0.32049 0.50755 0.88281 0.0
C382 C 0.30067 0.47341 0.86528 0.0
C383 C 0.33036 0.4658 0.85204 0.0
C384 C 0.31189 0.43421 0.83534 0.0
C385 C 0.26364 0.40934 0.83186 0.0
C386 C 0.23376 0.4161 0.84514 0.0
C387 C 0.25211 0.44796 0.86182 0.0
H388 H 0.24944 0.38483 0.81891 0.0
H389 H 0.45884 0.67911 0.98246 0.0
H390 H 0.72815 0.28336 0.31719 0.0
H391 H 0.73052 0.31652 0.28253 0.0
H392 H 0.86049 0.32076 0.26886 0.0
H393 H 0.85842 0.28733 0.30367 0.0
H394 H 0.85917 0.4029 0.25627 0.0
H395 H 0.76481 0.2362 0.24806 0.0
H396 H 0.70081 0.15735 0.25738 0.0
H397 H 0.60018 0.20154 0.24701 0.0
H398 H 0.66366 0.28089 0.23792 0.0
H399 H 0.85347 0.43794 0.14533 0.0
H400 H 0.85936 0.41209 0.18073 0.0
H401 H 0.71847 0.3807 0.19416 0.0
H402 H 0.71229 0.40623 0.15868 0.0
H403 H 0.72795 0.31166 0.20689 0.0
H404 H 0.8188 0.47771 0.21729 0.0
H405 H 0.88096 0.55932 0.21115 0.0
H406 H 0.98559 0.51945 0.21874 0.0
H407 H 0.924 0.43756 0.22497 0.0
C408 C 0.75751 0.29155 0.30694 0.0
C409 C 0.79303 0.28237 0.31328 0.0
C410 C 0.75868 0.31042 0.28705 0.0
C411 C 0.7954 0.32071 0.27298 0.0
C412 C 0.83174 0.31303 0.27944 0.0
C413 C 0.83044 0.29378 0.29935 0.0
C414 C 0.79486 0.33826 0.25138 0.0
C415 C 0.83091 0.38271 0.24531 0.0
C416 C 0.75732 0.31246 0.2373 0.0
C417 C 0.71903 0.26459 0.24247 0.0
C418 C 0.72906 0.22919 0.2479 0.0
C419 C 0.69287 0.18439 0.25313 0.0
C420 C 0.64647 0.17447 0.25284 0.0
C421 C 0.63614 0.20929 0.24725 0.0
C422 C 0.67221 0.25417 0.24203 0.0
C423 C 0.82393 0.42616 0.15591 0.0
C424 C 0.78236 0.42419 0.14909 0.0
C425 C 0.82739 0.41142 0.17623 0.0
C426 C 0.78955 0.39479 0.19034 0.0
C427 C 0.74817 0.39321 0.18362 0.0
C428 C 0.7446 0.4077 0.16327 0.0
C429 C 0.79211 0.37684 0.21169 0.0
C430 C 0.7564 0.33205 0.21773 0.0
C431 C 0.82975 0.40262 0.22581 0.0
C432 C 0.86678 0.45144 0.22137 0.0
C433 C 0.85504 0.48627 0.21745 0.0
C434 C 0.89018 0.53261 0.21408 0.0
C435 C 0.9372 0.54453 0.21452 0.0
C436 C 0.94917 0.51015 0.21838 0.0
C437 C 0.91417 0.4638 0.2219 0.0
H438 H 0.96437 0.58039 0.21188 0.0
H439 H 0.6185 0.13978 0.2569 0.0
H440 H 0.59223 0.81857 0.63076 0.0
H441 H 0.56212 0.82192 0.59634 0.0
H442 H 0.42151 0.72717 0.61757 0.0
H443 H 0.45157 0.72471 0.65271 0.0
H444 H 0.51913 0.75875 0.56779 0.0
H445 H 0.34551 0.75191 0.58974 0.0
H446 H 0.31182 0.77476 0.61897 0.0
H447 H 0.44944 0.88116 0.63777 0.0
H448 H 0.48388 0.85946 0.60846 0.0
H449 H 0.37493 0.70881 0.47777 0.0
H450 H 0.40244 0.70856 0.51354 0.0
H451 H 0.44104 0.85339 0.5209 0.0
H452 H 0.41291 0.85372 0.48514 0.0
H453 H 0.39601 0.8007 0.55619 0.0
H454 H 0.52087 0.8261 0.51049 0.0
H455 H 0.56037 0.81116 0.48116 0.0
H456 H 0.52959 0.68035 0.50926 0.0
H457 H 0.4894 0.69427 0.53873 0.0
C458 C 0.5548 0.79855 0.62833 0.0
C459 C 0.52434 0.77156 0.64471 0.0
C460 C 0.53763 0.80035 0.60847 0.0
C461 C 0.4895 0.77509 0.60428 0.0
C462 C 0.45879 0.74754 0.62047 0.0
C463 C 0.47603 0.74589 0.64052 0.0
C464 C 0.47222 0.77739 0.58283 0.0
C465 C 0.49199 0.76765 0.56531 0.0
C466 C 0.43758 0.79008 0.57945 0.0
C467 C 0.41727 0.80363 0.59706 0.0
C468 C 0.36856 0.78025 0.60008 0.0
C469 C 0.34934 0.79301 0.61666 0.0
C470 C 0.37849 0.82925 0.63027 0.0
C471 C 0.42692 0.85295 0.62728 0.0
C472 C 0.44631 0.8404 0.6107 0.0
C473 C 0.38899 0.74056 0.48704 0.0
C474 C 0.39179 0.78132 0.47857 0.0
C475 C 0.40489 0.74041 0.50745 0.0
C476 C 0.42397 0.78099 0.51988 0.0
C477 C 0.42641 0.82166 0.5116 0.0
C478 C 0.41076 0.82193 0.49109 0.0
C479 C 0.44227 0.78106 0.54132 0.0
C480 C 0.42283 0.79138 0.55876 0.0
C481 C 0.47787 0.76974 0.54463 0.0
C482 C 0.5018 0.76113 0.52681 0.0
C483 C 0.52222 0.794 0.5104 0.0
C484 C 0.54481 0.78574 0.49373 0.0
C485 C 0.54743 0.74479 0.49332 0.0
C486 C 0.52752 0.71206 0.5096 0.0
C487 C 0.50487 0.72015 0.52631 0.0
H488 H 0.56494 0.73845 0.4804 0.0
H489 H 0.36354 0.83905 0.6431 0.0
H490 H 0.7448 0.60981 0.96677 0.0
H491 H 0.7108 0.57918 0.93226 0.0
H492 H 0.69043 0.44382 0.94977 0.0
H493 H 0.72279 0.4739 0.98469 0.0
H494 H 0.73438 0.54818 0.90081 0.0
H495 H 0.59861 0.35667 0.92452 0.0
H496 H 0.54825 0.314 0.9548 0.0
H497 H 0.55002 0.43892 0.97515 0.0
H498 H 0.59983 0.48216 0.94485 0.0
H499 H 0.66102 0.41204 0.80835 0.0
H500 H 0.6896 0.4421 0.84356 0.0
H501 H 0.55434 0.42269 0.86021 0.0
H502 H 0.5244 0.38927 0.82555 0.0
H503 H 0.58487 0.39897 0.89201 0.0
H504 H 0.65226 0.53535 0.84848 0.0
H505 H 0.69515 0.58313 0.8176 0.0
H506 H 0.81775 0.57883 0.83668 0.0
H507 H 0.77553 0.53094 0.86767 0.0
C508 C 0.73277 0.57341 0.9634 0.0
C509 C 0.73627 0.54431 0.97868 0.0
C510 C 0.71348 0.55593 0.94353 0.0
C511 C 0.69741 0.50893 0.93831 0.0
C512 C 0.70149 0.47993 0.95345 0.0
C513 C 0.72024 0.49726 0.97345 0.0
C514 C 0.67699 0.49056 0.91701 0.0
C515 C 0.70167 0.51554 0.89896 0.0
C516 C 0.63365 0.44858 0.91434 0.0
C517 C 0.60338 0.42275 0.93253 0.0
C518 C 0.58812 0.37498 0.93542 0.0
C519 C 0.55969 0.35071 0.95259 0.0
C520 C 0.54608 0.37378 0.96693 0.0
C521 C 0.56074 0.42114 0.96408 0.0
C522 C 0.58912 0.44556 0.94693 0.0
C523 C 0.63697 0.41341 0.81953 0.0
C524 C 0.59026 0.39819 0.81385 0.0
C525 C 0.65368 0.43139 0.83966 0.0
C526 C 0.62452 0.43568 0.85457 0.0
C527 C 0.57777 0.4201 0.84906 0.0
C528 C 0.56082 0.40147 0.82902 0.0
C529 C 0.64267 0.45614 0.87588 0.0
C530 C 0.61758 0.43159 0.8939 0.0
C531 C 0.68468 0.4994 0.87853 0.0
C532 C 0.71063 0.52926 0.86027 0.0
C533 C 0.68833 0.54451 0.84604 0.0
C534 C 0.71252 0.57162 0.82854 0.0
C535 C 0.75907 0.58381 0.82513 0.0
C536 C 0.78163 0.56919 0.8393 0.0
C537 C 0.75767 0.54226 0.85689 0.0
H538 H 0.77774 0.6048 0.81157 0.0
H539 H 0.5241 0.35493 0.98022 0.0
H540 H 0.30406 0.41827 0.1003 0.0
H541 H 0.38748 0.44533 0.10361 0.0
H542 H 0.39138 0.40891 0.03869 0.0
H543 H 0.30804 0.38189 0.03519 0.0
H544 H 0.46272 0.41766 0.08838 0.0
H545 H 0.44858 0.50751 0.018 0.0
H546 H 0.39222 0.52521 1.00051 0.0
H547 H 0.35095 0.55186 0.06076 0.0
H548 H 0.40622 0.53329 0.07851 0.0
H549 H 0.67523 0.59533 0.02884 0.0
H550 H 0.59128 0.5625 0.03327 0.0
H551 H 0.60734 0.56285 0.10083 0.0
H552 H 0.69133 0.59365 0.09639 0.0
H553 H 0.52464 0.57048 0.05151 0.0
H554 H 0.5299 0.45778 0.12022 0.0
H555 H 0.58312 0.43243 0.13471 0.0
H556 H 0.64285 0.44418 0.07333 0.0
H557 H 0.58978 0.4692 0.05847 0.0
C558 C 0.32223 0.41398 0.08703 0.0
C559 C 0.30035 0.39966 0.06729 0.0
C560 C 0.36975 0.42919 0.089 0.0
C561 C 0.39527 0.42982 0.07126 0.0
C562 C 0.37191 0.40873 0.05247 0.0
C563 C 0.32441 0.39351 0.05049 0.0
C564 C 0.44577 0.4628 0.07069 0.0
C565 C 0.47648 0.45129 0.08058 0.0
C566 C 0.4632 0.50607 0.06011 0.0
C567 C 0.4315 0.51925 0.04951 0.0
C568 C 0.42761 0.51744 0.02744 0.0
C569 C 0.39567 0.52731 0.0175 0.0
C570 C 0.36796 0.53962 0.02951 0.0
C571 C 0.37215 0.54206 0.05146 0.0
C572 C 0.40367 0.53176 0.06147 0.0
C573 C 0.66114 0.59009 0.04467 0.0
C574 C 0.68915 0.59545 0.06228 0.0
C575 C 0.61312 0.57129 0.04719 0.0
C576 C 0.59309 0.55853 0.06733 0.0
C577 C 0.62218 0.57113 0.08512 0.0
C578 C 0.67007 0.58903 0.08259 0.0
C579 C 0.54239 0.52577 0.06932 0.0
C580 C 0.51132 0.5372 0.05958 0.0
C581 C 0.52488 0.48188 0.07961 0.0
C582 C 0.55622 0.46583 0.08831 0.0
C583 C 0.55429 0.45478 0.10982 0.0
C584 C 0.58449 0.44055 0.1181 0.0
C585 C 0.61652 0.43693 0.10497 0.0
C586 C 0.61824 0.44726 0.08351 0.0
C587 C 0.58812 0.46148 0.07515 0.0
H588 H 0.63992 0.42599 0.11141 0.0
H589 H 0.34329 0.54727 0.02179 0.0
H590 H 0.07506 0.64925 0.39179 0.0
H591 H 0.02225 0.57065 0.40543 0.0
H592 H 0.11602 0.5957 0.45748 0.0
H593 H 0.16838 0.67476 0.44427 0.0
H594 H 0.09938 0.51979 0.4307 0.0
H595 H 0.01439 0.57052 0.47175 0.0
H596 H 0.97419 0.61448 0.48013 0.0
H597 H 0.87249 0.54001 0.43189 0.0
H598 H 0.91243 0.49611 0.42297 0.0
H599 H 0.85402 0.28417 0.4301 0.0
H600 H 0.91731 0.34922 0.44973 0.0
H601 H 0.98698 0.41154 0.39104 0.0
H602 H 0.92325 0.34753 0.37154 0.0
H603 H 0.92739 0.43717 0.44066 0.0
H604 H 0.10206 0.47556 0.39973 0.0
H605 H 0.14154 0.43186 0.38969 0.0
H606 H 0.06371 0.32804 0.43678 0.0
H607 H 0.02422 0.37146 0.44737 0.0
C608 C 0.0836 0.6385 0.40648 0.0
C609 C 0.12593 0.66762 0.41681 0.0
C610 C 0.05343 0.59378 0.41431 0.0
C611 C 0.06548 0.57763 0.43243 0.0
C612 C 0.10621 0.60778 0.44354 0.0
C613 C 0.136 0.65279 0.43592 0.0
C614 C 0.03947 0.52726 0.43734 0.0
C615 C 0.06189 0.50145 0.43334 0.0
C616 C 0.99097 0.50383 0.4414 0.0
C617 C 0.96649 0.52995 0.4467 0.0
C618 C 0.9836 0.56367 0.46284 0.0
C619 C 0.96083 0.58858 0.4677 0.0
C620 C 0.9208 0.58003 0.45656 0.0
C621 C 0.90345 0.54653 0.44054 0.0
C622 C 0.92609 0.52154 0.43561 0.0
C623 C 0.884 0.31089 0.42158 0.0
C624 C 0.88446 0.31139 0.39946 0.0
C625 C 0.91991 0.34784 0.43275 0.0
C626 C 0.95678 0.38486 0.42181 0.0
C627 C 0.95918 0.38284 0.39976 0.0
C628 C 0.92287 0.34651 0.38862 0.0
C629 C 0.98677 0.43006 0.43226 0.0
C630 C 0.96515 0.45512 0.43904 0.0
C631 C 0.03595 0.45284 0.43054 0.0
C632 C 0.06015 0.4269 0.42438 0.0
C633 C 0.09363 0.44366 0.40811 0.0
C634 C 0.11595 0.41885 0.40227 0.0
C635 C 0.10515 0.37721 0.41259 0.0
C636 C 0.07201 0.36028 0.42878 0.0
C637 C 0.04959 0.38495 0.43469 0.0
H638 H 0.12245 0.35805 0.40804 0.0
H639 H 0.90323 0.59935 0.46034 0.0
H640 H 0.4111 0.10288 0.69211 0.0
H641 H 0.43576 0.04434 0.69417 0.0
H642 H 0.45224 0.06359 0.76152 0.0
H643 H 0.42832 0.12278 0.75956 0.0
H644 H 0.52841 0.07511 0.71083 0.0
H645 H 0.43112 0.95365 0.78083 0.0
H646 H 0.35389 0.91792 0.79815 0.0
H647 H 0.29043 0.9224 0.73974 0.0
H648 H 0.36711 0.95751 0.72202 0.0
H649 H 0.55894 0.87089 0.76028 0.0
H650 H 0.53847 0.93246 0.76298 0.0
H651 H 0.55001 0.94993 0.69534 0.0
H652 H 0.57272 0.89041 0.69276 0.0
H653 H 0.46193 0.92321 0.74838 0.0
H654 H 0.5639 0.05167 0.6796 0.0
H655 H 0.64245 0.08886 0.66354 0.0
H656 H 0.70027 0.07395 0.72173 0.0
H657 H 0.62222 0.03726 0.73822 0.0
C658 C 0.41867 0.09364 0.70743 0.0
C659 C 0.41867 0.1177 0.72566 0.0
C660 C 0.4329 0.06044 0.70855 0.0
C661 C 0.44621 0.05033 0.72795 0.0
C662 C 0.44205 0.07114 0.74643 0.0
C663 C 0.42841 0.1048 0.74529 0.0
C664 C 0.4699 0.02267 0.72853 0.0
C665 C 0.51378 0.04154 0.71878 0.0
C666 C 0.45141 0.98019 0.73975 0.0
C667 C 0.40499 0.95875 0.75018 0.0
C668 C 0.40066 0.94691 0.77168 0.0
C669 C 0.35698 0.92676 0.78156 0.0
C670 C 0.31731 0.91807 0.77007 0.0
C671 C 0.32122 0.92937 0.74865 0.0
C672 C 0.36481 0.94949 0.73869 0.0
C673 C 0.55864 0.88916 0.74613 0.0
C674 C 0.56685 0.87584 0.72632 0.0
C675 C 0.54673 0.92404 0.74766 0.0
C676 C 0.54248 0.94564 0.72937 0.0
C677 C 0.55382 0.93441 0.70971 0.0
C678 C 0.56661 0.90021 0.70823 0.0
C679 C 0.52065 0.97524 0.73044 0.0
C680 C 0.47705 0.95693 0.74055 0.0
C681 C 0.53977 0.01865 0.7198 0.0
C682 C 0.58707 0.04136 0.7101 0.0
C683 C 0.59341 0.05656 0.68901 0.0
C684 C 0.63785 0.07749 0.67982 0.0
C685 C 0.6763 0.08365 0.69159 0.0
C686 C 0.67043 0.06901 0.7126 0.0
C687 C 0.62607 0.04807 0.72187 0.0
H688 H 0.71067 0.09983 0.68444 0.0
H689 H 0.28353 0.90247 0.77775 0.0
H690 H 0.64495 0.70165 0.7375 0.0
H691 H 0.60128 0.62424 0.75464 0.0
H692 H 0.51123 0.5713 0.70018 0.0
H693 H 0.55382 0.64776 0.68339 0.0
H694 H 0.46229 0.55313 0.73993 0.0
H695 H 0.60402 0.55452 0.7075 0.0
H696 H 0.68836 0.58068 0.70858 0.0
H697 H 0.67522 0.53537 0.77299 0.0
H698 H 0.59088 0.50933 0.77229 0.0
H699 H 0.43671 0.34713 0.68267 0.0
H700 H 0.47753 0.42392 0.69912 0.0
H701 H 0.37942 0.37278 0.75084 0.0
H702 H 0.33808 0.29518 0.7342 0.0
H703 H 0.5228 0.44306 0.73697 0.0
H704 H 0.3917 0.4815 0.77223 0.0
H705 H 0.30728 0.45506 0.77238 0.0
H706 H 0.29823 0.41901 0.70682 0.0
H707 H 0.38271 0.44564 0.70631 0.0
C708 C 0.61647 0.67296 0.72912 0.0
C709 C 0.60238 0.68017 0.7092 0.0
C710 C 0.59126 0.62924 0.73902 0.0
C711 C 0.55233 0.59273 0.72888 0.0
C712 C 0.54047 0.59948 0.70846 0.0
C713 C 0.5652 0.64281 0.69873 0.0
C714 C 0.52379 0.54615 0.73843 0.0
C715 C 0.47547 0.52891 0.74031 0.0
C716 C 0.54096 0.51481 0.73969 0.0
C717 C 0.59154 0.53087 0.73997 0.0
C718 C 0.61928 0.5506 0.72193 0.0
C719 C 0.66702 0.56528 0.72246 0.0
C720 C 0.68719 0.55992 0.74087 0.0
C721 C 0.65962 0.5397 0.75877 0.0
C722 C 0.6119 0.52503 0.75832 0.0
C723 C 0.42333 0.35257 0.69736 0.0
C724 C 0.38466 0.31557 0.70729 0.0
C725 C 0.44698 0.39615 0.7069 0.0
C726 C 0.43252 0.40356 0.72661 0.0
C727 C 0.39187 0.36743 0.73596 0.0
C728 C 0.36788 0.32347 0.72628 0.0
C729 C 0.46104 0.44981 0.73656 0.0
C730 C 0.50929 0.46681 0.73863 0.0
C731 C 0.44371 0.48079 0.73941 0.0
C732 C 0.39314 0.46479 0.73934 0.0
C733 C 0.3716 0.46789 0.75787 0.0
C734 C 0.32381 0.45293 0.75801 0.0
C735 C 0.29735 0.43516 0.73964 0.0
C736 C 0.31871 0.43255 0.72107 0.0
C737 C 0.36652 0.44752 0.72084 0.0
H738 H 0.26034 0.42354 0.73978 0.0
H739 H 0.72414 0.57128 0.74124 0.0
H740 H 0.12215 0.45645 0.01489 0.0
H741 H 0.08275 0.49773 0.0271 0.0
H742 H 0.01129 0.39231 0.07496 0.0
H743 H 0.04841 0.34897 0.06162 0.0
H744 H 0.95305 0.40872 0.05648 0.0
H745 H 0.08864 0.53153 0.09788 0.0
H746 H 0.17093 0.58983 0.10536 0.0
H747 H 0.19066 0.63671 0.0411 0.0
H748 H 0.10729 0.58135 0.03372 0.0
H749 H 0.93588 0.64003 0.06652 0.0
H750 H 0.96815 0.5917 0.07931 0.0
H751 H 0.91389 0.5042 0.02419 0.0
H752 H 0.8794 0.55029 0.01215 0.0
H753 H 0.03229 0.58157 0.06241 0.0
H754 H 0.88619 0.41861 0.02618 0.0
H755 H 0.80111 0.36333 0.02795 0.0
H756 H 0.80236 0.38954 0.09426 0.0
H757 H 0.88659 0.44773 0.0925 0.0
C758 C 0.09782 0.44209 0.02795 0.0
C759 C 0.08796 0.39969 0.03731 0.0
C760 C 0.07636 0.46635 0.03533 0.0
C761 C 0.04576 0.44935 0.0526 0.0
C762 C 0.03555 0.40656 0.06188 0.0
C763 C 0.0562 0.38159 0.05412 0.0
C764 C 0.01945 0.47285 0.0586 0.0
C765 C 0.97048 0.44646 0.05822 0.0
C766 C 0.0416 0.52177 0.06159 0.0
C767 C 0.09241 0.55128 0.06508 0.0
C768 C 0.1108 0.55376 0.08528 0.0
C769 C 0.15742 0.58672 0.08958 0.0
C770 C 0.18638 0.61616 0.07361 0.0
C771 C 0.16839 0.6135 0.0534 0.0
C772 C 0.12132 0.58178 0.04921 0.0
C773 C 0.93101 0.61039 0.05723 0.0
C774 C 0.90569 0.59876 0.03832 0.0
C775 C 0.94866 0.58245 0.0647 0.0
C776 C 0.94175 0.54317 0.05317 0.0
C777 C 0.91746 0.53261 0.03398 0.0
C778 C 0.89901 0.55977 0.02678 0.0
C779 C 0.96613 0.51766 0.05905 0.0
C780 C 0.01475 0.54367 0.06157 0.0
C781 C 0.94357 0.4683 0.05869 0.0
C782 C 0.89219 0.43832 0.05908 0.0
C783 C 0.86789 0.41361 0.04098 0.0
C784 C 0.81982 0.38198 0.04197 0.0
C785 C 0.79611 0.37361 0.06115 0.0
C786 C 0.82043 0.39707 0.07932 0.0
C787 C 0.86815 0.42997 0.07826 0.0
H788 H 0.75905 0.34856 0.06199 0.0
H789 H 0.22257 0.64139 0.07697 0.0
H790 H 0.26428 0.93735 0.37091 0.0
H791 H 0.3469 0.00026 0.37241 0.0
H792 H 0.38957 0.90441 0.34936 0.0
H793 H 0.30814 0.84249 0.34724 0.0
H794 H 0.4304 0.97238 0.39383 0.0
H795 H 0.4089 0.95511 0.31327 0.0
H796 H 0.3643 0.95689 0.28234 0.0
H797 H 0.38126 0.08847 0.30291 0.0
H798 H 0.42557 0.08706 0.33405 0.0
H799 H 0.66182 0.04485 0.36602 0.0
H800 H 0.57632 0.00585 0.36866 0.0
H801 H 0.58058 0.13306 0.34858 0.0
H802 H 0.66509 0.17098 0.34483 0.0
H803 H 0.5127 0.06512 0.33031 0.0
H804 H 0.56508 0.0975 0.40051 0.0
H805 H 0.60893 0.10032 0.43248 0.0
H806 H 0.532 0.9503 0.43629 0.0
H807 H 0.48838 0.94654 0.4041 0.0
C808 C 0.29143 0.93018 0.3659 0.0
C809 C 0.28021 0.88532 0.35902 0.0
C810 C 0.33827 0.96579 0.36692 0.0
C811 C 0.3737 0.95634 0.36117 0.0
C812 C 0.36236 0.9119 0.35395 0.0
C813 C 0.31595 0.87677 0.35268 0.0
C814 C 0.42319 0.99217 0.36233 0.0
C815 C 0.44879 0.99324 0.38014 0.0
C816 C 0.44624 0.01987 0.34465 0.0
C817 C 0.42011 0.02083 0.32594 0.0
C818 C 0.40287 0.98426 0.31119 0.0
C819 C 0.3777 0.98521 0.29365 0.0
C820 C 0.36988 0.02274 0.29068 0.0
C821 C 0.38728 0.0594 0.30524 0.0
C822 C 0.41238 0.05854 0.32283 0.0
C823 C 0.64425 0.06407 0.36193 0.0
C824 C 0.66977 0.11086 0.35543 0.0
C825 C 0.59564 0.0421 0.36369 0.0
C826 C 0.5723 0.06702 0.35931 0.0
C827 C 0.59787 0.11331 0.35217 0.0
C828 C 0.64614 0.1349 0.35007 0.0
C829 C 0.52108 0.04453 0.36166 0.0
C830 C 0.49499 0.04574 0.34442 0.0
C831 C 0.49777 0.01992 0.38021 0.0
C832 C 0.52363 0.0218 0.39975 0.0
C833 C 0.55772 0.06511 0.40808 0.0
C834 C 0.58255 0.06688 0.42625 0.0
C835 C 0.57332 0.02552 0.43639 0.0
C836 C 0.53916 0.98232 0.4284 0.0
C837 C 0.51434 0.98036 0.41019 0.0
H838 H 0.59261 0.02694 0.45045 0.0
H839 H 0.35041 0.02343 0.27709 0.0
H840 H 0.28242 0.2193 0.75317 0.0
H841 H 0.25627 0.22565 0.78869 0.0
H842 H 0.35138 0.18618 0.81588 0.0
H843 H 0.37837 0.18103 0.78037 0.0
H844 H 0.2552 0.14239 0.83474 0.0
H845 H 0.39368 0.29388 0.8217 0.0
H846 H 0.44354 0.36286 0.79972 0.0
H847 H 0.32918 0.38833 0.79121 0.0
H848 H 0.2789 0.32002 0.81361 0.0
H849 H 0.27466 0.22678 0.93963 0.0
H850 H 0.29577 0.21481 0.904 0.0
H851 H 0.21109 0.26779 0.87735 0.0
H852 H 0.18957 0.27937 0.9129 0.0
H853 H 0.30023 0.30333 0.85781 0.0
H854 H 0.16686 0.1566 0.87775 0.0
H855 H 0.12117 0.0883 0.90076 0.0
H856 H 0.22766 0.05036 0.89556 0.0
H857 H 0.27437 0.11893 0.87277 0.0
C858 C 0.29686 0.21107 0.76677 0.0
C859 C 0.33183 0.19922 0.76429 0.0
C860 C 0.28215 0.21485 0.78695 0.0
C861 C 0.30199 0.20637 0.80481 0.0
C862 C 0.33553 0.19254 0.80225 0.0
C863 C 0.35079 0.18952 0.78208 0.0
C864 C 0.29014 0.21523 0.82613 0.0
C865 C 0.26533 0.17753 0.83992 0.0
C866 C 0.30294 0.26098 0.83266 0.0
C867 C 0.3327 0.30209 0.81931 0.0
C868 C 0.37927 0.31434 0.81517 0.0
C869 C 0.40766 0.35344 0.80275 0.0
C870 C 0.38977 0.38039 0.79431 0.0
C871 C 0.34319 0.36782 0.798 0.0
C872 C 0.3148 0.32912 0.81068 0.0
C873 C 0.26096 0.23623 0.92615 0.0
C874 C 0.23031 0.2537 0.92894 0.0
C875 C 0.27282 0.2292 0.90586 0.0
C876 C 0.25461 0.24005 0.88809 0.0
C877 C 0.22533 0.25907 0.89087 0.0
C878 C 0.21293 0.26544 0.91113 0.0
C879 C 0.26514 0.23041 0.86661 0.0
C880 C 0.28978 0.26806 0.85271 0.0
C881 C 0.25237 0.18451 0.86008 0.0
C882 C 0.22435 0.1432 0.87374 0.0
C883 C 0.18075 0.13396 0.88168 0.0
C884 C 0.15463 0.09514 0.89465 0.0
C885 C 0.17156 0.06508 0.89967 0.0
C886 C 0.21462 0.07372 0.89168 0.0
C887 C 0.24093 0.11255 0.87873 0.0
H888 H 0.15127 0.03503 0.9097 0.0
H889 H 0.41194 0.41085 0.78481 0.0
H890 H 0.92476 0.2612 0.25271 0.0
H891 H 0.95834 0.27938 0.2173 0.0
H892 H 0.04774 0.2234 0.23331 0.0
H893 H 0.01524 0.20631 0.26903 0.0
H894 H 0.09536 0.30523 0.21173 0.0
H895 H 0.95106 0.16047 0.20319 0.0
H896 H 0.86606 0.1069 0.20652 0.0
H897 H 0.83971 0.20043 0.16958 0.0
H898 H 0.92459 0.2549 0.16626 0.0
H899 H 0.15338 0.28888 0.10319 0.0
H900 H 0.1189 0.26247 0.13844 0.0
H901 H 0.05028 0.34399 0.13298 0.0
H902 H 0.08572 0.37176 0.09835 0.0
H903 H 0.9927 0.24493 0.1488 0.0
H904 H 0.13443 0.39203 0.15989 0.0
H905 H 0.21897 0.44759 0.1565 0.0
H906 H 0.24932 0.35118 0.1886 0.0
H907 H 0.16483 0.29459 0.19182 0.0
C908 C 0.95189 0.25315 0.2488 0.0
C909 C 0.96723 0.2322 0.26374 0.0
C910 C 0.97074 0.26315 0.22846 0.0
C911 C 0.00516 0.25221 0.22254 0.0
C912 C 0.02107 0.23195 0.23748 0.0
C913 C 0.00218 0.22186 0.25785 0.0
C914 C 0.02453 0.26207 0.20077 0.0
C915 C 0.07295 0.29133 0.198 0.0
C916 C -0.00474 0.24479 0.1828 0.0
C917 C 0.94419 0.21194 0.18463 0.0
C918 C 0.92714 0.16978 0.1959 0.0
C919 C 0.87898 0.13922 0.19776 0.0
C920 C 0.8475 0.1503 0.1883 0.0
C921 C 0.86413 0.19191 0.17691 0.0
C922 C 0.91227 0.22261 0.17501 0.0
C923 C 0.1305 0.30065 0.10943 0.0
C924 C 0.12211 0.33221 0.09798 0.0
C925 C 0.11102 0.28573 0.12955 0.0
C926 C 0.0821 0.30135 0.13823 0.0
C927 C 0.07237 0.33146 0.1265 0.0
C928 C 0.09269 0.34726 0.10671 0.0
C929 C 0.06325 0.28792 0.15989 0.0
C930 C 0.01501 0.25822 0.16259 0.0
C931 C 0.09257 0.30496 0.17778 0.0
C932 C 0.14334 0.33879 0.17582 0.0
C933 C 0.15912 0.38241 0.16599 0.0
C934 C 0.20703 0.41417 0.16416 0.0
C935 C 0.2395 0.40287 0.17228 0.0
C936 C 0.22412 0.35982 0.18228 0.0
C937 C 0.17623 0.32789 0.18411 0.0
H938 H 0.27658 0.42752 0.17088 0.0
H939 H 0.81023 0.12661 0.18977 0.0
H940 H 0.67474 0.99639 0.59972 0.0
H941 H 0.68079 0.02688 0.56397 0.0
H942 H 0.77025 0.97217 0.54626 0.0
H943 H 0.76379 0.94089 0.58178 0.0
H944 H 0.80494 0.06137 0.53258 0.0
H945 H 0.65717 0.91918 0.53204 0.0
H946 H 0.57815 0.86458 0.54542 0.0
H947 H 0.53497 0.96481 0.53173 0.0
H948 H 0.61436 0.02087 0.51906 0.0
H949 H 0.80937 0.1044 0.42297 0.0
H950 H 0.79705 0.06418 0.45683 0.0
H951 H 0.69612 0.10486 0.47429 0.0
H952 H 0.70706 0.14366 0.44034 0.0
H953 H 0.66637 0.02012 0.48782 0.0
H954 H 0.81321 0.16425 0.49207 0.0
H955 H 0.89308 0.22257 0.48084 0.0
H956 H 0.93689 0.12083 0.48834 0.0
H957 H 0.85707 0.06171 0.49934 0.0
C958 C 0.69531 0.99034 0.58819 0.0
C959 C 0.71884 0.96615 0.59378 0.0
C960 C 0.69883 0.00795 0.56773 0.0
C961 C 0.72577 0.00162 0.55232 0.0
C962 C 0.74941 0.9777 0.55786 0.0
C963 C 0.74583 0.96 0.57827 0.0
C964 C 0.72989 0.02037 0.53052 0.0
C965 C 0.77465 0.05179 0.52269 0.0
C966 C 0.69029 0.00878 0.51775 0.0
C967 C 0.64205 0.97455 0.52482 0.0
C968 C 0.63103 0.92984 0.53207 0.0
C969 C 0.58615 0.89862 0.53956 0.0
C970 C 0.55157 0.91123 0.53945 0.0
C971 C 0.56182 0.95511 0.53184 0.0
C972 C 0.60683 0.98671 0.52457 0.0
C973 C 0.78439 0.1046 0.43396 0.0
C974 C 0.75964 0.12777 0.42892 0.0
C975 C 0.77747 0.0817 0.45341 0.0
C976 C 0.74627 0.08213 0.46842 0.0
C977 C 0.72049 0.10401 0.46312 0.0
C978 C 0.72702 0.12646 0.44364 0.0
C979 C 0.74153 0.06129 0.48989 0.0
C980 C 0.69667 0.02953 0.49768 0.0
C981 C 0.78098 0.07284 0.50276 0.0
C982 C 0.82907 0.10844 0.49632 0.0
C983 C 0.83981 0.15425 0.4912 0.0
C984 C 0.88507 0.18745 0.48489 0.0
C985 C 0.92001 0.17538 0.48382 0.0
C986 C 0.90978 0.13011 0.48914 0.0
C987 C 0.86455 0.09675 0.49542 0.0
H988 H 0.95502 0.20112 0.47893 0.0
H989 H 0.51684 0.88696 0.54523 0.0
H990 H 0.58244 0.73792 0.77958 0.0
H991 H 0.61364 0.73731 0.81434 0.0
H992 H 0.75223 0.83905 0.79344 0.0
H993 H 0.72097 0.84056 0.75836 0.0
H994 H 0.7396 0.75249 0.81664 0.0
H995 H 0.70892 0.88068 0.82267 0.0
H996 H 0.66002 0.91736 0.81894 0.0
H997 H 0.55736 0.81446 0.86051 0.0
H998 H 0.60535 0.77672 0.86423 0.0
H999 H 0.84006 0.79309 0.9187 0.0
H1000 H 0.81743 0.80326 0.88333 0.0
H1001 H 0.67283 0.7352 0.90269 0.0
H1002 H 0.69544 0.72681 0.93842 0.0
H1003 H 0.69253 0.80886 0.8794 0.0
H1004 H 0.71588 0.67778 0.87293 0.0
H1005 H 0.75913 0.63525 0.877 0.0
H1006 H 0.86764 0.73423 0.83633 0.0
H1007 H 0.82538 0.77785 0.83228 0.0
C1008 C 0.61959 0.76037 0.78231 0.0
C1009 C 0.64929 0.78945 0.76622 0.0
C1010 C 0.6373 0.75992 0.80221 0.0
C1011 C 0.68515 0.78812 0.80641 0.0
C1012 C 0.71515 0.81703 0.79042 0.0
C1013 C 0.69725 0.81809 0.77049 0.0
C1014 C 0.70311 0.78714 0.8277 0.0
C1015 C 0.73023 0.76566 0.83036 0.0
C1016 C 0.68919 0.80267 0.84558 0.0
C1017 C 0.66057 0.82567 0.84359 0.0
C1018 C 0.67575 0.86566 0.83089 0.0
C1019 C 0.64823 0.88668 0.8288 0.0
C1020 C 0.60557 0.8682 0.83945 0.0
C1021 C 0.5904 0.82872 0.85226 0.0
C1022 C 0.61778 0.80754 0.85438 0.0
C1023 C 0.80349 0.78084 0.91556 0.0
C1024 C 0.76959 0.75916 0.93149 0.0
C1025 C 0.79053 0.78618 0.89522 0.0
C1026 C 0.74334 0.76946 0.89024 0.0
C1027 C 0.70946 0.74826 0.90612 0.0
C1028 C 0.72241 0.74311 0.92652 0.0
C1029 C 0.72933 0.77428 0.8685 0.0
C1030 C 0.70256 0.79617 0.86573 0.0
C1031 C 0.74282 0.75824 0.85057 0.0
C1032 C 0.76778 0.73146 0.85254 0.0
C1033 C 0.74913 0.69069 0.86498 0.0
C1034 C 0.77347 0.66639 0.86729 0.0
C1035 C 0.81629 0.68228 0.85707 0.0
C1036 C 0.83459 0.72215 0.84432 0.0
C1037 C 0.81045 0.74666 0.84201 0.0
H1038 H 0.83523 0.66359 0.85896 0.0
H1039 H 0.5843 0.88451 0.8378 0.0
H1040 H 0.03826 0.79408 0.26158 0.0
H1041 H 0.01266 0.78487 0.22489 0.0
H1042 H 0.93834 0.63484 0.23246 0.0
H1043 H 0.96477 0.64383 0.26908 0.0
H1044 H 0.98151 0.65727 0.19568 0.0
H1045 H 0.88223 0.70127 0.233 0.0
H1046 H 0.86502 0.75094 0.25604 0.0
H1047 H 0.93782 0.86658 0.21344 0.0
H1048 H 0.95599 0.81774 0.19029 0.0
H1049 H 0.82702 0.58451 0.11133 0.0
H1050 H 0.86052 0.60481 0.14641 0.0
H1051 H 0.93291 0.75115 0.12957 0.0
H1052 H 0.89791 0.73074 0.09404 0.0
H1053 H 0.8974 0.73687 0.16952 0.0
H1054 H -0.00126 0.6933 0.13294 0.0
H1055 H 0.01375 0.64275 0.10942 0.0
H1056 H 0.93277 0.525 0.14999 0.0
H1057 H 0.91742 0.57506 0.17367 0.0
C1058 C 0.01618 0.7591 0.25549 0.0
C1059 C 0.00324 0.71969 0.26835 0.0
C1060 C 0.0016 0.75387 0.23447 0.0
C1061 C 0.97287 0.70914 0.22592 0.0
C1062 C 0.96049 0.66971 0.23863 0.0
C1063 C 0.97561 0.6749 0.25959 0.0
C1064 C 0.95536 0.7034 0.20383 0.0
C1065 C 0.96273 0.67435 0.1901 0.0
C1066 C 0.93197 0.72669 0.19618 0.0
C1067 C 0.92087 0.756 0.21003 0.0
C1068 C 0.89485 0.73739 0.22863 0.0
C1069 C 0.88488 0.76537 0.24169 0.0
C1070 C 0.90043 0.81192 0.23624 0.0
C1071 C 0.92586 0.83054 0.21767 0.0
C1072 C 0.93598 0.80272 0.20456 0.0
C1073 C 0.85009 0.62111 0.115 0.0
C1074 C 0.86044 0.65605 0.09981 0.0
C1075 C 0.86941 0.63265 0.1351 0.0
C1076 C 0.90042 0.67938 0.14048 0.0
C1077 C 0.90947 0.71476 0.12567 0.0
C1078 C 0.88946 0.70317 0.10543 0.0
C1079 C 0.92306 0.69036 0.16161 0.0
C1080 C 0.91662 0.72025 0.17513 0.0
C1081 C 0.94721 0.66783 0.16911 0.0
C1082 C 0.9573 0.63792 0.15517 0.0
C1083 C 0.9843 0.65665 0.13685 0.0
C1084 C 0.99279 0.62808 0.12347 0.0
C1085 C 0.9742 0.58065 0.12818 0.0
C1086 C 0.94735 0.56178 0.14638 0.0
C1087 C 0.939 0.59029 0.15987 0.0
H1088 H 0.98058 0.55853 0.11773 0.0
H1089 H 0.89268 0.83353 0.24637 0.0
H1090 H 0.19043 0.9642 0.60018 0.0
H1091 H 0.17901 0.92877 0.56542 0.0
H1092 H 0.3189 0.03411 0.54766 0.0
H1093 H 0.32984 0.07122 0.58216 0.0
H1094 H 0.26114 0.02137 0.51661 0.0
H1095 H 0.29092 0.9202 0.55906 0.0
H1096 H 0.28215 0.86892 0.5891 0.0
H1097 H 0.13928 0.77519 0.5717 0.0
H1098 H 0.14704 0.82621 0.54168 0.0
H1099 H 0.27698 0.89882 0.42717 0.0
H1100 H 0.28698 0.93776 0.46104 0.0
H1101 H 0.14135 0.84482 0.47543 0.0
H1102 H 0.13096 0.80547 0.44137 0.0
H1103 H 0.20235 0.85153 0.50784 0.0
H1104 H 0.17727 0.95593 0.46376 0.0
H1105 H 0.19193 0.00759 0.43314 0.0
H1106 H 0.33387 0.09609 0.45331 0.0
H1107 H 0.32026 0.04458 0.48391 0.0
C1108 C 0.21873 0.98016 0.58887 0.0
C1109 C 0.26104 0.02074 0.59405 0.0
C1110 C 0.21232 0.95946 0.56902 0.0
C1111 C 0.24826 0.97835 0.55393 0.0
C1112 C 0.29065 0.01874 0.55903 0.0
C1113 C 0.29703 0.03967 0.57888 0.0
C1114 C 0.24103 0.95645 0.5327 0.0
C1115 C 0.24889 0.98435 0.51472 0.0
C1116 C 0.22437 0.90797 0.53013 0.0
C1117 C 0.21943 0.87729 0.54824 0.0
C1118 C 0.2575 0.88887 0.56174 0.0
C1119 C 0.25275 0.8598 0.57875 0.0
C1120 C 0.21014 0.8189 0.58234 0.0
C1121 C 0.17224 0.80692 0.56891 0.0
C1122 C 0.17681 0.83587 0.55188 0.0
C1123 C 0.24688 0.88688 0.43742 0.0
C1124 C 0.20312 0.84899 0.43158 0.0
C1125 C 0.25266 0.90933 0.45677 0.0
C1126 C 0.2149 0.89433 0.47075 0.0
C1127 C 0.17095 0.85698 0.46485 0.0
C1128 C 0.16499 0.83474 0.44535 0.0
C1129 C 0.22206 0.91637 0.49187 0.0
C1130 C 0.21438 0.8885 0.5098 0.0
C1131 C 0.23967 0.96498 0.49436 0.0
C1132 C 0.24784 0.99615 0.47603 0.0
C1133 C 0.21172 0.9862 0.46158 0.0
C1134 C 0.21982 0.0155 0.44424 0.0
C1135 C 0.26383 0.05503 0.44125 0.0
C1136 C 0.29981 0.06542 0.45563 0.0
C1137 C 0.2919 0.03622 0.47299 0.0
H1138 H 0.27004 0.07767 0.42782 0.0
H1139 H 0.20654 0.79642 0.59551 0.0
loop_
_geom_bond_atom_site_label_1
_geom_bond_atom_site_label_2
_geom_bond_distance
_geom_bond_site_symmetry_2
_ccdc_geom_bond_type
Gd0 C3 2.818 . S
Gd0 O20 2.377 . S
Gd0 O22 2.448 . S
Gd0 O23 2.506 . S
Gd0 O24 2.435 . S
Gd0 O25 2.717 . S
Gd0 O27 2.395 . S
Gd0 O31 2.327 . S
Gd1 C12 2.818 1_554 S
Gd1 O21 2.395 . S
Gd1 O25 2.327 . S
Gd1 O26 2.377 1_554 S
Gd1 O28 2.448 1_554 S
Gd1 O29 2.506 1_554 S
Gd1 O30 2.435 . S
Gd1 O31 2.717 . S
C2 O20 1.240 . S
C2 O21 1.240 . S
C3 Gd0 2.818 . S
C3 C4 1.510 . S
C3 O22 1.249 . S
C3 O23 1.252 . S
C4 C3 1.510 . S
C4 C5 1.404 . S
C4 C6 1.352 . S
C5 C4 1.404 . S
C5 C9 1.389 . S
C5 H32 0.930 . S
C6 C4 1.352 . S
C6 C8 1.374 . S
C6 H33 0.931 . S
C7 C8 1.359 . S
C7 C9 1.364 . S
C8 C6 1.374 . S
C8 C7 1.359 . S
C8 H34 0.931 . S
C9 C5 1.389 . S
C9 C7 1.364 . S
C9 H35 0.931 . S
C10 O24 1.256 . S
C10 O25 1.257 . S
C11 O26 1.240 . S
C11 O27 1.240 1_556 S
C12 Gd1 2.818 1_556 S
C12 C13 1.510 . S
C12 O28 1.249 . S
C12 O29 1.252 . S
C13 C12 1.510 . S
C13 C14 1.404 . S
C13 C15 1.352 . S
C14 C13 1.404 . S
C14 C18 1.389 . S
C14 H36 0.930 . S
C15 C13 1.352 . S
C15 C17 1.374 . S
C15 H37 0.931 . S
C16 C17 1.359 . S
C16 C18 1.364 . S
C17 C15 1.374 . S
C17 C16 1.359 . S
C17 H38 0.931 . S
C18 C14 1.389 . S
C18 C16 1.364 . S
C18 H39 0.931 . S
C19 O30 1.256 . S
C19 O31 1.257 . S
O20 Gd0 2.377 . S
O20 C2 1.240 . S
O21 Gd1 2.395 . S
O21 C2 1.240 . S
O22 Gd0 2.448 . S
O22 C3 1.249 . S
O23 Gd0 2.506 . S
O23 C3 1.252 . S
O24 Gd0 2.435 . S
O24 C10 1.256 . S
O25 Gd0 2.717 . S
O25 Gd1 2.327 . S
O25 C10 1.257 . S
O26 Gd1 2.377 1_556 S
O26 C11 1.240 . S
O27 Gd0 2.395 . S
O27 C11 1.240 1_554 S
O28 Gd1 2.448 1_556 S
O28 C12 1.249 . S
O29 Gd1 2.506 1_556 S
O29 C12 1.252 . S
O30 Gd1 2.435 . S
O30 C19 1.256 . S
O31 Gd0 2.327 . S
O31 Gd1 2.717 . S
O31 C19 1.257 . S
H32 C5 0.930 . S
H33 C6 0.931 . S
H34 C8 0.931 . S
H35 C9 0.931 . S
H36 C14 0.930 . S
H37 C15 0.931 . S
H38 C17 0.931 . S
H39 C18 0.931 . S
Gd40 C43 2.818 . S
Gd40 O60 2.377 . S
Gd40 O62 2.448 . S
Gd40 O63 2.506 . S
Gd40 O64 2.435 . S
Gd40 O65 2.717 . S
Gd40 O67 2.395 . S
Gd40 O71 2.327 . S
Gd41 C52 2.818 . S
Gd41 O61 2.395 . S
Gd41 O65 2.327 . S
Gd41 O66 2.377 . S
Gd41 O68 2.448 . S
Gd41 O69 2.506 . S
Gd41 O70 2.435 . S
Gd41 O71 2.717 . S
C42 O60 1.240 . S
C42 O61 1.240 . S
C43 Gd40 2.818 . S
C43 C44 1.510 . S
C43 O62 1.249 . S
C43 O63 1.252 . S
C44 C43 1.510 . S
C44 C45 1.404 . S
C44 C46 1.352 . S
C45 C44 1.404 . S
C45 C49 1.389 . S
C45 H72 0.930 . S
C46 C44 1.352 . S
C46 C48 1.374 . S
C46 H73 0.931 . S
C47 C48 1.359 . S
C47 C49 1.364 . S
C48 C46 1.374 . S
C48 C47 1.359 . S
C48 H74 0.931 . S
C49 C45 1.389 . S
C49 C47 1.364 . S
C49 H75 0.931 . S
C50 O64 1.256 . S
C50 O65 1.257 . S
C51 O66 1.240 . S
C51 O67 1.240 . S
C52 Gd41 2.818 . S
C52 C53 1.510 . S
C52 O68 1.249 . S
C52 O69 1.252 . S
C53 C52 1.510 . S
C53 C54 1.404 . S
C53 C55 1.352 . S
C54 C53 1.404 . S
C54 C58 1.389 . S
C54 H76 0.930 . S
C55 C53 1.352 . S
C55 C57 1.374 . S
C55 H77 0.931 . S
C56 C57 1.359 . S
C56 C58 1.364 . S
C57 C55 1.374 . S
C57 C56 1.359 . S
C57 H78 0.931 . S
C58 C54 1.389 . S
C58 C56 1.364 . S
C58 H79 0.931 . S
C59 O70 1.256 . S
C59 O71 1.257 . S
O60 Gd40 2.377 . S
O60 C42 1.240 . S
O61 Gd41 2.395 . S
O61 C42 1.240 . S
O62 Gd40 2.448 . S
O62 C43 1.249 . S
O63 Gd40 2.506 . S
O63 C43 1.252 . S
O64 Gd40 2.435 . S
O64 C50 1.256 . S
O65 Gd40 2.717 . S
O65 Gd41 2.327 . S
O65 C50 1.257 . S
O66 Gd41 2.377 . S
O66 C51 1.240 . S
O67 Gd40 2.395 . S
O67 C51 1.240 . S
O68 Gd41 2.448 . S
O68 C52 1.249 . S
O69 Gd41 2.506 . S
O69 C52 1.252 . S
O70 Gd41 2.435 . S
O70 C59 1.256 . S
O71 Gd40 2.327 . S
O71 Gd41 2.717 . S
O71 C59 1.257 . S
H72 C45 0.930 . S
H73 C46 0.931 . S
H74 C48 0.931 . S
H75 C49 0.931 . S
H76 C54 0.930 . S
H77 C55 0.931 . S
H78 C57 0.931 . S
H79 C58 0.931 . S
Gd80 C83 2.818 . S
Gd80 O100 2.377 . S
Gd80 O102 2.448 . S
Gd80 O103 2.506 . S
Gd80 O104 2.435 . S
Gd80 O105 2.717 . S
Gd80 O107 2.395 . S
Gd80 O111 2.327 . S
Gd81 C92 2.818 . S
Gd81 O101 2.395 . S
Gd81 O105 2.327 . S
Gd81 O106 2.377 . S
Gd81 O108 2.448 . S
Gd81 O109 2.506 . S
Gd81 O110 2.435 . S
Gd81 O111 2.717 . S
C82 O100 1.240 . S
C82 O101 1.240 . S
C83 Gd80 2.818 . S
C83 C84 1.510 . S
C83 O102 1.249 . S
C83 O103 1.252 . S
C84 C83 1.510 . S
C84 C85 1.404 . S
C84 C86 1.352 . S
C85 C84 1.404 . S
C85 C89 1.389 . S
C85 H112 0.930 . S
C86 C84 1.352 . S
C86 C88 1.374 . S
C86 H113 0.931 . S
C87 C88 1.359 . S
C87 C89 1.364 . S
C88 C86 1.374 . S
C88 C87 1.359 . S
C88 H114 0.931 . S
C89 C85 1.389 . S
C89 C87 1.364 . S
C89 H115 0.931 . S
C90 O104 1.256 . S
C90 O105 1.257 . S
C91 O106 1.240 . S
C91 O107 1.240 . S
C92 Gd81 2.818 . S
C92 C93 1.510 . S
C92 O108 1.249 . S
C92 O109 1.252 . S
C93 C92 1.510 . S
C93 C94 1.404 . S
C93 C95 1.352 . S
C94 C93 1.404 . S
C94 C98 1.389 . S
C94 H116 0.930 . S
C95 C93 1.352 . S
C95 C97 1.374 . S
C95 H117 0.931 . S
C96 C97 1.359 . S
C96 C98 1.364 . S
C97 C95 1.374 . S
C97 C96 1.359 . S
C97 H118 0.931 . S
C98 C94 1.389 . S
C98 C96 1.364 . S
C98 H119 0.931 . S
C99 O110 1.256 . S
C99 O111 1.257 . S
O100 Gd80 2.377 . S
O100 C82 1.240 . S
O101 Gd81 2.395 . S
O101 C82 1.240 . S
O102 Gd80 2.448 . S
O102 C83 1.249 . S
O103 Gd80 2.506 . S
O103 C83 1.252 . S
O104 Gd80 2.435 . S
O104 C90 1.256 . S
O105 Gd80 2.717 . S
O105 Gd81 2.327 . S
O105 C90 1.257 . S
O106 Gd81 2.377 . S
O106 C91 1.240 . S
O107 Gd80 2.395 . S
O107 C91 1.240 . S
O108 Gd81 2.448 . S
O108 C92 1.249 . S
O109 Gd81 2.506 . S
O109 C92 1.252 . S
O110 Gd81 2.435 . S
O110 C99 1.256 . S
O111 Gd80 2.327 . S
O111 Gd81 2.717 . S
O111 C99 1.257 . S
H112 C85 0.930 . S
H113 C86 0.931 . S
H114 C88 0.931 . S
H115 C89 0.931 . S
H116 C94 0.930 . S
H117 C95 0.931 . S
H118 C97 0.931 . S
H119 C98 0.931 . S
Gd120 C123 2.818 . S
Gd120 O140 2.377 . S
Gd120 O142 2.448 . S
Gd120 O143 2.506 . S
Gd120 O144 2.435 . S
Gd120 O145 2.717 . S
Gd120 O147 2.395 . S
Gd120 O151 2.327 . S
Gd121 C132 2.818 1_554 S
Gd121 O141 2.395 . S
Gd121 O145 2.327 . S
Gd121 O146 2.377 1_554 S
Gd121 O148 2.448 1_554 S
Gd121 O149 2.506 1_554 S
Gd121 O150 2.435 . S
Gd121 O151 2.717 . S
C122 O140 1.240 . S
C122 O141 1.240 . S
C123 Gd120 2.818 . S
C123 C124 1.510 . S
C123 O142 1.249 . S
C123 O143 1.252 . S
C124 C123 1.510 . S
C124 C125 1.404 . S
C124 C126 1.352 . S
C125 C124 1.404 . S
C125 C129 1.389 . S
C125 H152 0.930 . S
C126 C124 1.352 . S
C126 C128 1.374 . S
C126 H153 0.931 . S
C127 C128 1.359 . S
C127 C129 1.364 . S
C128 C126 1.374 . S
C128 C127 1.359 . S
C128 H154 0.931 . S
C129 C125 1.389 . S
C129 C127 1.364 . S
C129 H155 0.931 . S
C130 O144 1.256 . S
C130 O145 1.257 . S
C131 O146 1.240 . S
C131 O147 1.240 1_556 S
C132 Gd121 2.818 1_556 S
C132 C133 1.510 . S
C132 O148 1.249 . S
C132 O149 1.252 . S
C133 C132 1.510 . S
C133 C134 1.404 . S
C133 C135 1.352 . S
C134 C133 1.404 . S
C134 C138 1.389 . S
C134 H156 0.930 . S
C135 C133 1.352 . S
C135 C137 1.374 . S
C135 H157 0.931 . S
C136 C137 1.359 . S
C136 C138 1.364 . S
C137 C135 1.374 . S
C137 C136 1.359 . S
C137 H158 0.931 . S
C138 C134 1.389 . S
C138 C136 1.364 . S
C138 H159 0.931 . S
C139 O150 1.256 . S
C139 O151 1.257 . S
O140 Gd120 2.377 . S
O140 C122 1.240 . S
O141 Gd121 2.395 . S
O141 C122 1.240 . S
O142 Gd120 2.448 . S
O142 C123 1.249 . S
O143 Gd120 2.506 . S
O143 C123 1.252 . S
O144 Gd120 2.435 . S
O144 C130 1.256 . S
O145 Gd120 2.717 . S
O145 Gd121 2.327 . S
O145 C130 1.257 . S
O146 Gd121 2.377 1_556 S
O146 C131 1.240 . S
O147 Gd120 2.395 . S
O147 C131 1.240 1_554 S
O148 Gd121 2.448 1_556 S
O148 C132 1.249 . S
O149 Gd121 2.506 1_556 S
O149 C132 1.252 . S
O150 Gd121 2.435 . S
O150 C139 1.256 . S
O151 Gd120 2.327 . S
O151 Gd121 2.717 . S
O151 C139 1.257 . S
H152 C125 0.930 . S
H153 C126 0.931 . S
H154 C128 0.931 . S
H155 C129 0.931 . S
H156 C134 0.930 . S
H157 C135 0.931 . S
H158 C137 0.931 . S
H159 C138 0.931 . S
Gd160 C163 2.818 . S
Gd160 O180 2.377 . S
Gd160 O182 2.448 . S
Gd160 O183 2.506 . S
Gd160 O184 2.435 . S
Gd160 O185 2.717 . S
Gd160 O187 2.395 . S
Gd160 O191 2.327 . S
Gd161 C172 2.818 . S
Gd161 O181 2.395 . S
Gd161 O185 2.327 . S
Gd161 O186 2.377 . S
Gd161 O188 2.448 . S
Gd161 O189 2.506 . S
Gd161 O190 2.435 . S
Gd161 O191 2.717 . S
C162 O180 1.240 . S
C162 O181 1.240 . S
C163 Gd160 2.818 . S
C163 C164 1.510 . S
C163 O182 1.249 . S
C163 O183 1.252 . S
C164 C163 1.510 . S
C164 C165 1.404 . S
C164 C166 1.352 . S
C165 C164 1.404 . S
C165 C169 1.389 . S
C165 H192 0.930 . S
C166 C164 1.352 . S
C166 C168 1.374 . S
C166 H193 0.931 . S
C167 C168 1.359 . S
C167 C169 1.364 . S
C168 C166 1.374 . S
C168 C167 1.359 . S
C168 H194 0.931 . S
C169 C165 1.389 . S
C169 C167 1.364 . S
C169 H195 0.931 . S
C170 O184 1.256 . S
C170 O185 1.257 . S
C171 O186 1.240 . S
C171 O187 1.240 . S
C172 Gd161 2.818 . S
C172 C173 1.510 . S
C172 O188 1.249 . S
C172 O189 1.252 . S
C173 C172 1.510 . S
C173 C174 1.404 . S
C173 C175 1.352 . S
C174 C173 1.404 . S
C174 C178 1.389 . S
C174 H196 0.930 . S
C175 C173 1.352 . S
C175 C177 1.374 . S
C175 H197 0.931 . S
C176 C177 1.359 . S
C176 C178 1.364 . S
C177 C175 1.374 . S
C177 C176 1.359 . S
C177 H198 0.931 . S
C178 C174 1.389 . S
C178 C176 1.364 . S
C178 H199 0.931 . S
C179 O190 1.256 . S
C179 O191 1.257 . S
O180 Gd160 2.377 . S
O180 C162 1.240 . S
O181 Gd161 2.395 . S
O181 C162 1.240 . S
O182 Gd160 2.448 . S
O182 C163 1.249 . S
O183 Gd160 2.506 . S
O183 C163 1.252 . S
O184 Gd160 2.435 . S
O184 C170 1.256 . S
O185 Gd160 2.717 . S
O185 Gd161 2.327 . S
O185 C170 1.257 . S
O186 Gd161 2.377 . S
O186 C171 1.240 . S
O187 Gd160 2.395 . S
O187 C171 1.240 . S
O188 Gd161 2.448 . S
O188 C172 1.249 . S
O189 Gd161 2.506 . S
O189 C172 1.252 . S
O190 Gd161 2.435 . S
O190 C179 1.256 . S
O191 Gd160 2.327 . S
O191 Gd161 2.717 . S
O191 C179 1.257 . S
H192 C165 0.930 . S
H193 C166 0.931 . S
H194 C168 0.931 . S
H195 C169 0.931 . S
H196 C174 0.930 . S
H197 C175 0.931 . S
H198 C177 0.931 . S
H199 C178 0.931 . S
Gd200 C203 2.818 . S
Gd200 O220 2.377 . S
Gd200 O222 2.448 . S
Gd200 O223 2.506 . S
Gd200 O224 2.435 . S
Gd200 O225 2.717 . S
Gd200 O227 2.395 . S
Gd200 O231 2.327 . S
Gd201 C212 2.818 . S
Gd201 O221 2.395 . S
Gd201 O225 2.327 . S
Gd201 O226 2.377 . S
Gd201 O228 2.448 . S
Gd201 O229 2.506 . S
Gd201 O230 2.435 . S
Gd201 O231 2.717 . S
C202 O220 1.240 . S
C202 O221 1.240 . S
C203 Gd200 2.818 . S
C203 C204 1.510 . S
C203 O222 1.249 . S
C203 O223 1.252 . S
C204 C203 1.510 . S
C204 C205 1.404 . S
C204 C206 1.352 . S
C205 C204 1.404 . S
C205 C209 1.389 . S
C205 H232 0.930 . S
C206 C204 1.352 . S
C206 C208 1.374 . S
C206 H233 0.931 . S
C207 C208 1.359 . S
C207 C209 1.364 . S
C208 C206 1.374 . S
C208 C207 1.359 . S
C208 H234 0.931 . S
C209 C205 1.389 . S
C209 C207 1.364 . S
C209 H235 0.931 . S
C210 O224 1.256 . S
C210 O225 1.257 . S
C211 O226 1.240 . S
C211 O227 1.240 . S
C212 Gd201 2.818 . S
C212 C213 1.510 . S
C212 O228 1.249 . S
C212 O229 1.252 . S
C213 C212 1.510 . S
C213 C214 1.404 . S
C213 C215 1.352 . S
C214 C213 1.404 . S
C214 C218 1.389 . S
C214 H236 0.930 . S
C215 C213 1.352 . S
C215 C217 1.374 . S
C215 H237 0.931 . S
C216 C217 1.359 . S
C216 C218 1.364 . S
C217 C215 1.374 . S
C217 C216 1.359 . S
C217 H238 0.931 . S
C218 C214 1.389 . S
C218 C216 1.364 . S
C218 H239 0.931 . S
C219 O230 1.256 . S
C219 O231 1.257 . S
O220 Gd200 2.377 . S
O220 C202 1.240 . S
O221 Gd201 2.395 . S
O221 C202 1.240 . S
O222 Gd200 2.448 . S
O222 C203 1.249 . S
O223 Gd200 2.506 . S
O223 C203 1.252 . S
O224 Gd200 2.435 . S
O224 C210 1.256 . S
O225 Gd200 2.717 . S
O225 Gd201 2.327 . S
O225 C210 1.257 . S
O226 Gd201 2.377 . S
O226 C211 1.240 . S
O227 Gd200 2.395 . S
O227 C211 1.240 . S
O228 Gd201 2.448 . S
O228 C212 1.249 . S
O229 Gd201 2.506 . S
O229 C212 1.252 . S
O230 Gd201 2.435 . S
O230 C219 1.256 . S
O231 Gd200 2.327 . S
O231 Gd201 2.717 . S
O231 C219 1.257 . S
H232 C205 0.930 . S
H233 C206 0.931 . S
H234 C208 0.931 . S
H235 C209 0.931 . S
H236 C214 0.930 . S
H237 C215 0.931 . S
H238 C217 0.931 . S
H239 C218 0.931 . S
H240 C258 0.951 . S
H241 C260 0.951 . S
H242 C262 0.950 . S
H243 C263 0.950 . S
H244 C265 0.950 . S
H245 C268 0.950 . S
H246 C269 0.950 . S
H247 C271 0.950 . S
H248 C272 0.950 . S
H249 C273 0.951 . S
H250 C275 0.951 . S
H251 C277 0.950 . S
H252 C278 0.950 . S
H253 C280 0.950 . S
H254 C283 0.950 . S
H255 C284 0.950 . S
H256 C286 0.950 . S
H257 C287 0.950 . S
C258 H240 0.951 . S
C258 C259 1.366 . S
C258 C260 1.388 . S
C259 C258 1.366 . S
C259 C263 1.385 . S
C260 H241 0.951 . S
C260 C258 1.388 . S
C260 C261 1.366 . S
C261 C260 1.366 . S
C261 C262 1.414 . S
C261 C264 1.499 . S
C262 H242 0.950 . S
C262 C261 1.414 . S
C262 C263 1.374 . S
C263 H243 0.950 . S
C263 C259 1.385 . S
C263 C262 1.374 . S
C264 C261 1.499 . S
C264 C265 1.373 . S
C264 C266 1.389 . S
C265 H244 0.950 . S
C265 C264 1.373 . S
C265 C281 1.377 . S
C266 C264 1.389 . S
C266 C267 1.524 . S
C266 C280 1.377 . S
C267 C266 1.524 . S
C267 C268 1.397 . S
C267 C272 1.363 . S
C268 H245 0.950 . S
C268 C267 1.397 . S
C268 C269 1.334 . S
C269 H246 0.950 . S
C269 C268 1.334 . S
C269 C270 1.287 . S
C270 C269 1.287 . S
C270 C271 1.524 . S
C270 H289 0.913 . S
C271 H247 0.950 . S
C271 C270 1.524 . S
C271 C272 1.415 . S
C272 H248 0.950 . S
C272 C267 1.363 . S
C272 C271 1.415 . S
C273 H249 0.951 . S
C273 C274 1.366 . S
C273 C275 1.388 . S
C274 C273 1.366 . S
C274 C278 1.385 . S
C275 H250 0.951 . S
C275 C273 1.388 . S
C275 C276 1.366 . S
C276 C275 1.366 . S
C276 C277 1.414 . S
C276 C279 1.499 . S
C277 H251 0.950 . S
C277 C276 1.414 . S
C277 C278 1.374 . S
C278 H252 0.950 . S
C278 C274 1.385 . S
C278 C277 1.374 . S
C279 C276 1.499 . S
C279 C280 1.373 . S
C279 C281 1.389 . S
C280 H253 0.950 . S
C280 C266 1.377 . S
C280 C279 1.373 . S
C281 C265 1.377 . S
C281 C279 1.389 . S
C281 C282 1.524 . S
C282 C281 1.524 . S
C282 C283 1.397 . S
C282 C287 1.363 . S
C283 H254 0.950 . S
C283 C282 1.397 . S
C283 C284 1.334 . S
C284 H255 0.950 . S
C284 C283 1.334 . S
C284 C285 1.287 . S
C285 C284 1.287 . S
C285 C286 1.524 . S
C285 H288 0.999 . S
C286 H256 0.950 . S
C286 C285 1.524 . S
C286 C287 1.415 . S
C287 H257 0.950 . S
C287 C282 1.363 . S
C287 C286 1.415 . S
H288 C285 0.999 . S
H289 C270 0.913 . S
H290 C308 0.951 . S
H291 C310 0.951 . S
H292 C312 0.950 . S
H293 C313 0.950 . S
H294 C315 0.950 . S
H295 C318 0.950 . S
H296 C319 0.950 . S
H297 C321 0.950 . S
H298 C322 0.950 . S
H299 C323 0.951 . S
H300 C325 0.951 . S
H301 C327 0.950 . S
H302 C328 0.950 . S
H303 C330 0.950 . S
H304 C333 0.950 . S
H305 C334 0.950 . S
H306 C336 0.950 . S
H307 C337 0.950 . S
C308 H290 0.951 . S
C308 C309 1.366 . S
C308 C310 1.388 . S
C309 C308 1.366 . S
C309 C313 1.385 . S
C310 H291 0.951 . S
C310 C308 1.388 . S
C310 C311 1.366 . S
C311 C310 1.366 . S
C311 C312 1.414 . S
C311 C314 1.499 . S
C312 H292 0.950 . S
C312 C311 1.414 . S
C312 C313 1.374 . S
C313 H293 0.950 . S
C313 C309 1.385 . S
C313 C312 1.374 . S
C314 C311 1.499 . S
C314 C315 1.373 . S
C314 C316 1.389 . S
C315 H294 0.950 . S
C315 C314 1.373 . S
C315 C331 1.377 . S
C316 C314 1.389 . S
C316 C317 1.524 . S
C316 C330 1.377 . S
C317 C316 1.524 . S
C317 C318 1.397 . S
C317 C322 1.363 . S
C318 H295 0.950 . S
C318 C317 1.397 . S
C318 C319 1.334 . S
C319 H296 0.950 . S
C319 C318 1.334 . S
C319 C320 1.287 . S
C320 C319 1.287 . S
C320 C321 1.524 . S
C320 H339 0.913 . S
C321 H297 0.950 . S
C321 C320 1.524 . S
C321 C322 1.415 . S
C322 H298 0.950 . S
C322 C317 1.363 . S
C322 C321 1.415 . S
C323 H299 0.951 . S
C323 C324 1.366 . S
C323 C325 1.388 . S
C324 C323 1.366 . S
C324 C328 1.385 . S
C325 H300 0.951 . S
C325 C323 1.388 . S
C325 C326 1.366 . S
C326 C325 1.366 . S
C326 C327 1.414 . S
C326 C329 1.499 . S
C327 H301 0.950 . S
C327 C326 1.414 . S
C327 C328 1.374 . S
C328 H302 0.950 . S
C328 C324 1.385 . S
C328 C327 1.374 . S
C329 C326 1.499 . S
C329 C330 1.373 . S
C329 C331 1.389 . S
C330 H303 0.950 . S
C330 C316 1.377 . S
C330 C329 1.373 . S
C331 C315 1.377 . S
C331 C329 1.389 . S
C331 C332 1.524 . S
C332 C331 1.524 . S
C332 C333 1.397 . S
C332 C337 1.363 . S
C333 H304 0.950 . S
C333 C332 1.397 . S
C333 C334 1.334 . S
C334 H305 0.950 . S
C334 C333 1.334 . S
C334 C335 1.287 . S
C335 C334 1.287 . S
C335 C336 1.524 . S
C335 H338 0.999 . S
C336 H306 0.950 . S
C336 C335 1.524 . S
C336 C337 1.415 . S
C337 H307 0.950 . S
C337 C332 1.363 . S
C337 C336 1.415 . S
H338 C335 0.999 . S
H339 C320 0.913 . S
H340 C358 0.951 . S
H341 C360 0.951 . S
H342 C362 0.950 . S
H343 C363 0.950 . S
H344 C365 0.950 . S
H345 C368 0.950 . S
H346 C369 0.950 . S
H347 C371 0.950 . S
H348 C372 0.950 . S
H349 C373 0.951 . S
H350 C375 0.951 . S
H351 C377 0.950 . S
H352 C378 0.950 . S
H353 C380 0.950 . S
H354 C383 0.950 . S
H355 C384 0.950 . S
H356 C386 0.950 . S
H357 C387 0.950 . S
C358 H340 0.951 . S
C358 C359 1.366 . S
C358 C360 1.388 . S
C359 C358 1.366 . S
C359 C363 1.385 . S
C360 H341 0.951 . S
C360 C358 1.388 . S
C360 C361 1.366 . S
C361 C360 1.366 . S
C361 C362 1.414 . S
C361 C364 1.499 . S
C362 H342 0.950 . S
C362 C361 1.414 . S
C362 C363 1.374 . S
C363 H343 0.950 . S
C363 C359 1.385 . S
C363 C362 1.374 . S
C364 C361 1.499 . S
C364 C365 1.373 . S
C364 C366 1.389 . S
C365 H344 0.950 . S
C365 C364 1.373 . S
C365 C381 1.377 . S
C366 C364 1.389 . S
C366 C367 1.524 . S
C366 C380 1.377 . S
C367 C366 1.524 . S
C367 C368 1.397 . S
C367 C372 1.363 . S
C368 H345 0.950 . S
C368 C367 1.397 . S
C368 C369 1.334 . S
C369 H346 0.950 . S
C369 C368 1.334 . S
C369 C370 1.287 . S
C370 C369 1.287 . S
C370 C371 1.524 . S
C370 H389 0.913 . S
C371 H347 0.950 . S
C371 C370 1.524 . S
C371 C372 1.415 . S
C372 H348 0.950 . S
C372 C367 1.363 . S
C372 C371 1.415 . S
C373 H349 0.951 . S
C373 C374 1.366 . S
C373 C375 1.388 . S
C374 C373 1.366 . S
C374 C378 1.385 . S
C375 H350 0.951 . S
C375 C373 1.388 . S
C375 C376 1.366 . S
C376 C375 1.366 . S
C376 C377 1.414 . S
C376 C379 1.499 . S
C377 H351 0.950 . S
C377 C376 1.414 . S
C377 C378 1.374 . S
C378 H352 0.950 . S
C378 C374 1.385 . S
C378 C377 1.374 . S
C379 C376 1.499 . S
C379 C380 1.373 . S
C379 C381 1.389 . S
C380 H353 0.950 . S
C380 C366 1.377 . S
C380 C379 1.373 . S
C381 C365 1.377 . S
C381 C379 1.389 . S
C381 C382 1.524 . S
C382 C381 1.524 . S
C382 C383 1.397 . S
C382 C387 1.363 . S
C383 H354 0.950 . S
C383 C382 1.397 . S
C383 C384 1.334 . S
C384 H355 0.950 . S
C384 C383 1.334 . S
C384 C385 1.287 . S
C385 C384 1.287 . S
C385 C386 1.524 . S
C385 H388 0.999 . S
C386 H356 0.950 . S
C386 C385 1.524 . S
C386 C387 1.415 . S
C387 H357 0.950 . S
C387 C382 1.363 . S
C387 C386 1.415 . S
H388 C385 0.999 . S
H389 C370 0.913 . S
H390 C408 0.951 . S
H391 C410 0.951 . S
H392 C412 0.950 . S
H393 C413 0.950 . S
H394 C415 0.950 . S
H395 C418 0.950 . S
H396 C419 0.950 . S
H397 C421 0.950 . S
H398 C422 0.950 . S
H399 C423 0.951 . S
H400 C425 0.951 . S
H401 C427 0.950 . S
H402 C428 0.950 . S
H403 C430 0.950 . S
H404 C433 0.950 . S
H405 C434 0.950 . S
H406 C436 0.950 . S
H407 C437 0.950 . S
C408 H390 0.951 . S
C408 C409 1.366 . S
C408 C410 1.388 . S
C409 C408 1.366 . S
C409 C413 1.385 . S
C410 H391 0.951 . S
C410 C408 1.388 . S
C410 C411 1.366 . S
C411 C410 1.366 . S
C411 C412 1.414 . S
C411 C414 1.499 . S
C412 H392 0.950 . S
C412 C411 1.414 . S
C412 C413 1.374 . S
C413 H393 0.950 . S
C413 C409 1.385 . S
C413 C412 1.374 . S
C414 C411 1.499 . S
C414 C415 1.373 . S
C414 C416 1.389 . S
C415 H394 0.950 . S
C415 C414 1.373 . S
C415 C431 1.377 . S
C416 C414 1.389 . S
C416 C417 1.524 . S
C416 C430 1.377 . S
C417 C416 1.524 . S
C417 C418 1.397 . S
C417 C422 1.363 . S
C418 H395 0.950 . S
C418 C417 1.397 . S
C418 C419 1.334 . S
C419 H396 0.950 . S
C419 C418 1.334 . S
C419 C420 1.287 . S
C420 C419 1.287 . S
C420 C421 1.524 . S
C420 H439 0.913 . S
C421 H397 0.950 . S
C421 C420 1.524 . S
C421 C422 1.415 . S
C422 H398 0.950 . S
C422 C417 1.363 . S
C422 C421 1.415 . S
C423 H399 0.951 . S
C423 C424 1.366 . S
C423 C425 1.388 . S
C424 C423 1.366 . S
C424 C428 1.385 . S
C425 H400 0.951 . S
C425 C423 1.388 . S
C425 C426 1.366 . S
C426 C425 1.366 . S
C426 C427 1.414 . S
C426 C429 1.499 . S
C427 H401 0.950 . S
C427 C426 1.414 . S
C427 C428 1.374 . S
C428 H402 0.950 . S
C428 C424 1.385 . S
C428 C427 1.374 . S
C429 C426 1.499 . S
C429 C430 1.373 . S
C429 C431 1.389 . S
C430 H403 0.950 . S
C430 C416 1.377 . S
C430 C429 1.373 . S
C431 C415 1.377 . S
C431 C429 1.389 . S
C431 C432 1.524 . S
C432 C431 1.524 . S
C432 C433 1.397 . S
C432 C437 1.363 . S
C433 H404 0.950 . S
C433 C432 1.397 . S
C433 C434 1.334 . S
C434 H405 0.950 . S
C434 C433 1.334 . S
C434 C435 1.287 . S
C435 C434 1.287 . S
C435 C436 1.524 . S
C435 H438 0.999 . S
C436 H406 0.950 . S
C436 C435 1.524 . S
C436 C437 1.415 . S
C437 H407 0.950 . S
C437 C432 1.363 . S
C437 C436 1.415 . S
H438 C435 0.999 . S
H439 C420 0.913 . S
H440 C458 0.951 . S
H441 C460 0.951 . S
H442 C462 0.950 . S
H443 C463 0.950 . S
H444 C465 0.950 . S
H445 C468 0.950 . S
H446 C469 0.950 . S
H447 C471 0.950 . S
H448 C472 0.950 . S
H449 C473 0.951 . S
H450 C475 0.951 . S
H451 C477 0.950 . S
H452 C478 0.950 . S
H453 C480 0.950 . S
H454 C483 0.950 . S
H455 C484 0.950 . S
H456 C486 0.950 . S
H457 C487 0.950 . S
C458 H440 0.951 . S
C458 C459 1.366 . S
C458 C460 1.388 . S
C459 C458 1.366 . S
C459 C463 1.385 . S
C460 H441 0.951 . S
C460 C458 1.388 . S
C460 C461 1.366 . S
C461 C460 1.366 . S
C461 C462 1.414 . S
C461 C464 1.499 . S
C462 H442 0.950 . S
C462 C461 1.414 . S
C462 C463 1.374 . S
C463 H443 0.950 . S
C463 C459 1.385 . S
C463 C462 1.374 . S
C464 C461 1.499 . S
C464 C465 1.373 . S
C464 C466 1.389 . S
C465 H444 0.950 . S
C465 C464 1.373 . S
C465 C481 1.377 . S
C466 C464 1.389 . S
C466 C467 1.524 . S
C466 C480 1.377 . S
C467 C466 1.524 . S
C467 C468 1.397 . S
C467 C472 1.363 . S
C468 H445 0.950 . S
C468 C467 1.397 . S
C468 C469 1.334 . S
C469 H446 0.950 . S
C469 C468 1.334 . S
C469 C470 1.287 . S
C470 C469 1.287 . S
C470 C471 1.524 . S
C470 H489 0.913 . S
C471 H447 0.950 . S
C471 C470 1.524 . S
C471 C472 1.415 . S
C472 H448 0.950 . S
C472 C467 1.363 . S
C472 C471 1.415 . S
C473 H449 0.951 . S
C473 C474 1.366 . S
C473 C475 1.388 . S
C474 C473 1.366 . S
C474 C478 1.385 . S
C475 H450 0.951 . S
C475 C473 1.388 . S
C475 C476 1.366 . S
C476 C475 1.366 . S
C476 C477 1.414 . S
C476 C479 1.499 . S
C477 H451 0.950 . S
C477 C476 1.414 . S
C477 C478 1.374 . S
C478 H452 0.950 . S
C478 C474 1.385 . S
C478 C477 1.374 . S
C479 C476 1.499 . S
C479 C480 1.373 . S
C479 C481 1.389 . S
C480 H453 0.950 . S
C480 C466 1.377 . S
C480 C479 1.373 . S
C481 C465 1.377 . S
C481 C479 1.389 . S
C481 C482 1.524 . S
C482 C481 1.524 . S
C482 C483 1.397 . S
C482 C487 1.363 . S
C483 H454 0.950 . S
C483 C482 1.397 . S
C483 C484 1.334 . S
C484 H455 0.950 . S
C484 C483 1.334 . S
C484 C485 1.287 . S
C485 C484 1.287 . S
C485 C486 1.524 . S
C485 H488 0.999 . S
C486 H456 0.950 . S
C486 C485 1.524 . S
C486 C487 1.415 . S
C487 H457 0.950 . S
C487 C482 1.363 . S
C487 C486 1.415 . S
H488 C485 0.999 . S
H489 C470 0.913 . S
H490 C508 0.951 . S
H491 C510 0.951 . S
H492 C512 0.950 . S
H493 C513 0.950 . S
H494 C515 0.950 . S
H495 C518 0.950 . S
H496 C519 0.950 . S
H497 C521 0.950 . S
H498 C522 0.950 . S
H499 C523 0.951 . S
H500 C525 0.951 . S
H501 C527 0.950 . S
H502 C528 0.950 . S
H503 C530 0.950 . S
H504 C533 0.950 . S
H505 C534 0.950 . S
H506 C536 0.950 . S
H507 C537 0.950 . S
C508 H490 0.951 . S
C508 C509 1.366 . S
C508 C510 1.388 . S
C509 C508 1.366 . S
C509 C513 1.385 . S
C510 H491 0.951 . S
C510 C508 1.388 . S
C510 C511 1.366 . S
C511 C510 1.366 . S
C511 C512 1.414 . S
C511 C514 1.499 . S
C512 H492 0.950 . S
C512 C511 1.414 . S
C512 C513 1.374 . S
C513 H493 0.950 . S
C513 C509 1.385 . S
C513 C512 1.374 . S
C514 C511 1.499 . S
C514 C515 1.373 . S
C514 C516 1.389 . S
C515 H494 0.950 . S
C515 C514 1.373 . S
C515 C531 1.377 . S
C516 C514 1.389 . S
C516 C517 1.524 . S
C516 C530 1.377 . S
C517 C516 1.524 . S
C517 C518 1.397 . S
C517 C522 1.363 . S
C518 H495 0.950 . S
C518 C517 1.397 . S
C518 C519 1.334 . S
C519 H496 0.950 . S
C519 C518 1.334 . S
C519 C520 1.287 . S
C520 C519 1.287 . S
C520 C521 1.524 . S
C520 H539 0.913 . S
C521 H497 0.950 . S
C521 C520 1.524 . S
C521 C522 1.415 . S
C522 H498 0.950 . S
C522 C517 1.363 . S
C522 C521 1.415 . S
C523 H499 0.951 . S
C523 C524 1.366 . S
C523 C525 1.388 . S
C524 C523 1.366 . S
C524 C528 1.385 . S
C525 H500 0.951 . S
C525 C523 1.388 . S
C525 C526 1.366 . S
C526 C525 1.366 . S
C526 C527 1.414 . S
C526 C529 1.499 . S
C527 H501 0.950 . S
C527 C526 1.414 . S
C527 C528 1.374 . S
C528 H502 0.950 . S
C528 C524 1.385 . S
C528 C527 1.374 . S
C529 C526 1.499 . S
C529 C530 1.373 . S
C529 C531 1.389 . S
C530 H503 0.950 . S
C530 C516 1.377 . S
C530 C529 1.373 . S
C531 C515 1.377 . S
C531 C529 1.389 . S
C531 C532 1.524 . S
C532 C531 1.524 . S
C532 C533 1.397 . S
C532 C537 1.363 . S
C533 H504 0.950 . S
C533 C532 1.397 . S
C533 C534 1.334 . S
C534 H505 0.950 . S
C534 C533 1.334 . S
C534 C535 1.287 . S
C535 C534 1.287 . S
C535 C536 1.524 . S
C535 H538 0.999 . S
C536 H506 0.950 . S
C536 C535 1.524 . S
C536 C537 1.415 . S
C537 H507 0.950 . S
C537 C532 1.363 . S
C537 C536 1.415 . S
H538 C535 0.999 . S
H539 C520 0.913 . S
H540 C558 0.951 . S
H541 C560 0.951 . S
H542 C562 0.950 . S
H543 C563 0.950 . S
H544 C565 0.950 . S
H545 C568 0.950 . S
H546 C569 0.950 . S
H547 C571 0.950 . S
H548 C572 0.950 . S
H549 C573 0.951 . S
H550 C575 0.951 . S
H551 C577 0.950 . S
H552 C578 0.950 . S
H553 C580 0.950 . S
H554 C583 0.950 . S
H555 C584 0.950 . S
H556 C586 0.950 . S
H557 C587 0.950 . S
C558 H540 0.951 . S
C558 C559 1.366 . S
C558 C560 1.388 . S
C559 C558 1.366 . S
C559 C563 1.385 . S
C560 H541 0.951 . S
C560 C558 1.388 . S
C560 C561 1.366 . S
C561 C560 1.366 . S
C561 C562 1.414 . S
C561 C564 1.499 . S
C562 H542 0.950 . S
C562 C561 1.414 . S
C562 C563 1.374 . S
C563 H543 0.950 . S
C563 C559 1.385 . S
C563 C562 1.374 . S
C564 C561 1.499 . S
C564 C565 1.373 . S
C564 C566 1.389 . S
C565 H544 0.950 . S
C565 C564 1.373 . S
C565 C581 1.377 . S
C566 C564 1.389 . S
C566 C567 1.524 . S
C566 C580 1.377 . S
C567 C566 1.524 . S
C567 C568 1.397 1_554 S
C567 C572 1.363 . S
C568 H545 0.950 . S
C568 C567 1.397 1_556 S
C568 C569 1.334 . S
C569 H546 0.950 . S
C569 C568 1.334 . S
C569 C570 1.287 . S
C570 C569 1.287 . S
C570 C571 1.524 . S
C570 H589 0.913 . S
C571 H547 0.950 . S
C571 C570 1.524 . S
C571 C572 1.415 1_556 S
C572 H548 0.950 . S
C572 C567 1.363 . S
C572 C571 1.415 1_554 S
C573 H549 0.951 . S
C573 C574 1.366 . S
C573 C575 1.388 . S
C574 C573 1.366 . S
C574 C578 1.385 . S
C575 H550 0.951 . S
C575 C573 1.388 . S
C575 C576 1.366 . S
C576 C575 1.366 . S
C576 C577 1.414 . S
C576 C579 1.499 . S
C577 H551 0.950 . S
C577 C576 1.414 . S
C577 C578 1.374 . S
C578 H552 0.950 . S
C578 C574 1.385 . S
C578 C577 1.374 . S
C579 C576 1.499 . S
C579 C580 1.373 . S
C579 C581 1.389 . S
C580 H553 0.950 . S
C580 C566 1.377 . S
C580 C579 1.373 . S
C581 C565 1.377 . S
C581 C579 1.389 . S
C581 C582 1.524 . S
C582 C581 1.524 . S
C582 C583 1.397 . S
C582 C587 1.363 . S
C583 H554 0.950 . S
C583 C582 1.397 . S
C583 C584 1.334 . S
C584 H555 0.950 . S
C584 C583 1.334 . S
C584 C585 1.287 . S
C585 C584 1.287 . S
C585 C586 1.524 . S
C585 H588 0.999 . S
C586 H556 0.950 . S
C586 C585 1.524 . S
C586 C587 1.415 . S
C587 H557 0.950 . S
C587 C582 1.363 . S
C587 C586 1.415 . S
H588 C585 0.999 . S
H589 C570 0.913 . S
H590 C608 0.951 . S
H591 C610 0.951 . S
H592 C612 0.950 . S
H593 C613 0.950 . S
H594 C615 0.950 . S
H595 C618 0.950 1_455 S
H596 C619 0.950 . S
H597 C621 0.950 . S
H598 C622 0.950 . S
H599 C623 0.951 . S
H600 C625 0.951 . S
H601 C627 0.950 . S
H602 C628 0.950 . S
H603 C630 0.950 . S
H604 C633 0.950 1_655 S
H605 C634 0.950 . S
H606 C636 0.950 . S
H607 C637 0.950 . S
C608 H590 0.951 . S
C608 C609 1.366 . S
C608 C610 1.388 . S
C609 C608 1.366 . S
C609 C613 1.385 . S
C610 H591 0.951 . S
C610 C608 1.388 . S
C610 C611 1.366 . S
C611 C610 1.366 . S
C611 C612 1.414 . S
C611 C614 1.499 . S
C612 H592 0.950 . S
C612 C611 1.414 . S
C612 C613 1.374 . S
C613 H593 0.950 . S
C613 C609 1.385 . S
C613 C612 1.374 . S
C614 C611 1.499 . S
C614 C615 1.373 . S
C614 C616 1.389 1_455 S
C615 H594 0.950 . S
C615 C614 1.373 . S
C615 C631 1.377 . S
C616 C614 1.389 1_655 S
C616 C617 1.524 . S
C616 C630 1.377 . S
C617 C616 1.524 . S
C617 C618 1.397 . S
C617 C622 1.363 . S
C618 H595 0.950 1_655 S
C618 C617 1.397 . S
C618 C619 1.334 . S
C619 H596 0.950 . S
C619 C618 1.334 . S
C619 C620 1.287 . S
C620 C619 1.287 . S
C620 C621 1.524 . S
C620 H639 0.913 . S
C621 H597 0.950 . S
C621 C620 1.524 . S
C621 C622 1.415 . S
C622 H598 0.950 . S
C622 C617 1.363 . S
C622 C621 1.415 . S
C623 H599 0.951 . S
C623 C624 1.366 . S
C623 C625 1.388 . S
C624 C623 1.366 . S
C624 C628 1.385 . S
C625 H600 0.951 . S
C625 C623 1.388 . S
C625 C626 1.366 . S
C626 C625 1.366 . S
C626 C627 1.414 . S
C626 C629 1.499 . S
C627 H601 0.950 . S
C627 C626 1.414 . S
C627 C628 1.374 . S
C628 H602 0.950 . S
C628 C624 1.385 . S
C628 C627 1.374 . S
C629 C626 1.499 . S
C629 C630 1.373 . S
C629 C631 1.389 1_655 S
C630 H603 0.950 . S
C630 C616 1.377 . S
C630 C629 1.373 . S
C631 C615 1.377 . S
C631 C629 1.389 1_455 S
C631 C632 1.524 . S
C632 C631 1.524 . S
C632 C633 1.397 . S
C632 C637 1.363 . S
C633 H604 0.950 1_455 S
C633 C632 1.397 . S
C633 C634 1.334 . S
C634 H605 0.950 . S
C634 C633 1.334 . S
C634 C635 1.287 . S
C635 C634 1.287 . S
C635 C636 1.524 . S
C635 H638 0.999 . S
C636 H606 0.950 . S
C636 C635 1.524 . S
C636 C637 1.415 . S
C637 H607 0.950 . S
C637 C632 1.363 . S
C637 C636 1.415 . S
H638 C635 0.999 . S
H639 C620 0.913 . S
H640 C658 0.951 . S
H641 C660 0.951 . S
H642 C662 0.950 . S
H643 C663 0.950 . S
H644 C665 0.950 . S
H645 C668 0.950 1_545 S
H646 C669 0.950 . S
H647 C671 0.950 . S
H648 C672 0.950 . S
H649 C673 0.951 . S
H650 C675 0.951 . S
H651 C677 0.950 . S
H652 C678 0.950 . S
H653 C680 0.950 . S
H654 C683 0.950 1_565 S
H655 C684 0.950 . S
H656 C686 0.950 . S
H657 C687 0.950 . S
C658 H640 0.951 . S
C658 C659 1.366 . S
C658 C660 1.388 . S
C659 C658 1.366 . S
C659 C663 1.385 . S
C660 H641 0.951 . S
C660 C658 1.388 . S
C660 C661 1.366 . S
C661 C660 1.366 . S
C661 C662 1.414 . S
C661 C664 1.499 . S
C662 H642 0.950 . S
C662 C661 1.414 . S
C662 C663 1.374 . S
C663 H643 0.950 . S
C663 C659 1.385 . S
C663 C662 1.374 . S
C664 C661 1.499 . S
C664 C665 1.373 . S
C664 C666 1.389 1_545 S
C665 H644 0.950 . S
C665 C664 1.373 . S
C665 C681 1.377 . S
C666 C664 1.389 1_565 S
C666 C667 1.524 . S
C666 C680 1.377 . S
C667 C666 1.524 . S
C667 C668 1.397 . S
C667 C672 1.363 . S
C668 H645 0.950 1_565 S
C668 C667 1.397 . S
C668 C669 1.334 . S
C669 H646 0.950 . S
C669 C668 1.334 . S
C669 C670 1.287 . S
C670 C669 1.287 . S
C670 C671 1.524 . S
C670 H689 0.913 . S
C671 H647 0.950 . S
C671 C670 1.524 . S
C671 C672 1.415 . S
C672 H648 0.950 . S
C672 C667 1.363 . S
C672 C671 1.415 . S
C673 H649 0.951 . S
C673 C674 1.366 . S
C673 C675 1.388 . S
C674 C673 1.366 . S
C674 C678 1.385 . S
C675 H650 0.951 . S
C675 C673 1.388 . S
C675 C676 1.366 . S
C676 C675 1.366 . S
C676 C677 1.414 . S
C676 C679 1.499 . S
C677 H651 0.950 . S
C677 C676 1.414 . S
C677 C678 1.374 . S
C678 H652 0.950 . S
C678 C674 1.385 . S
C678 C677 1.374 . S
C679 C676 1.499 . S
C679 C680 1.373 . S
C679 C681 1.389 1_565 S
C680 H653 0.950 . S
C680 C666 1.377 . S
C680 C679 1.373 . S
C681 C665 1.377 . S
C681 C679 1.389 1_545 S
C681 C682 1.524 . S
C682 C681 1.524 . S
C682 C683 1.397 . S
C682 C687 1.363 . S
C683 H654 0.950 1_545 S
C683 C682 1.397 . S
C683 C684 1.334 . S
C684 H655 0.950 . S
C684 C683 1.334 . S
C684 C685 1.287 . S
C685 C684 1.287 . S
C685 C686 1.524 . S
C685 H688 0.999 . S
C686 H656 0.950 . S
C686 C685 1.524 . S
C686 C687 1.415 . S
C687 H657 0.950 . S
C687 C682 1.363 . S
C687 C686 1.415 . S
H688 C685 0.999 . S
H689 C670 0.913 . S
H690 C708 0.951 . S
H691 C710 0.951 . S
H692 C712 0.950 . S
H693 C713 0.950 . S
H694 C715 0.950 . S
H695 C718 0.950 . S
H696 C719 0.950 . S
H697 C721 0.950 . S
H698 C722 0.950 . S
H699 C723 0.951 . S
H700 C725 0.951 . S
H701 C727 0.950 . S
H702 C728 0.950 . S
H703 C730 0.950 . S
H704 C733 0.950 . S
H705 C734 0.950 . S
H706 C736 0.950 . S
H707 C737 0.950 . S
C708 H690 0.951 . S
C708 C709 1.366 . S
C708 C710 1.388 . S
C709 C708 1.366 . S
C709 C713 1.385 . S
C710 H691 0.951 . S
C710 C708 1.388 . S
C710 C711 1.366 . S
C711 C710 1.366 . S
C711 C712 1.414 . S
C711 C714 1.499 . S
C712 H692 0.950 . S
C712 C711 1.414 . S
C712 C713 1.374 . S
C713 H693 0.950 . S
C713 C709 1.385 . S
C713 C712 1.374 . S
C714 C711 1.499 . S
C714 C715 1.373 . S
C714 C716 1.389 . S
C715 H694 0.950 . S
C715 C714 1.373 . S
C715 C731 1.377 . S
C716 C714 1.389 . S
C716 C717 1.524 . S
C716 C730 1.377 . S
C717 C716 1.524 . S
C717 C718 1.397 . S
C717 C722 1.363 . S
C718 H695 0.950 . S
C718 C717 1.397 . S
C718 C719 1.334 . S
C719 H696 0.950 . S
C719 C718 1.334 . S
C719 C720 1.287 . S
C720 C719 1.287 . S
C720 C721 1.524 . S
C720 H739 0.913 . S
C721 H697 0.950 . S
C721 C720 1.524 . S
C721 C722 1.415 . S
C722 H698 0.950 . S
C722 C717 1.363 . S
C722 C721 1.415 . S
C723 H699 0.951 . S
C723 C724 1.366 . S
C723 C725 1.388 . S
C724 C723 1.366 . S
C724 C728 1.385 . S
C725 H700 0.951 . S
C725 C723 1.388 . S
C725 C726 1.366 . S
C726 C725 1.366 . S
C726 C727 1.414 . S
C726 C729 1.499 . S
C727 H701 0.950 . S
C727 C726 1.414 . S
C727 C728 1.374 . S
C728 H702 0.950 . S
C728 C724 1.385 . S
C728 C727 1.374 . S
C729 C726 1.499 . S
C729 C730 1.373 . S
C729 C731 1.389 . S
C730 H703 0.950 . S
C730 C716 1.377 . S
C730 C729 1.373 . S
C731 C715 1.377 . S
C731 C729 1.389 . S
C731 C732 1.524 . S
C732 C731 1.524 . S
C732 C733 1.397 . S
C732 C737 1.363 . S
C733 H704 0.950 . S
C733 C732 1.397 . S
C733 C734 1.334 . S
C734 H705 0.950 . S
C734 C733 1.334 . S
C734 C735 1.287 . S
C735 C734 1.287 . S
C735 C736 1.524 . S
C735 H738 0.999 . S
C736 H706 0.950 . S
C736 C735 1.524 . S
C736 C737 1.415 . S
C737 H707 0.950 . S
C737 C732 1.363 . S
C737 C736 1.415 . S
H738 C735 0.999 . S
H739 C720 0.913 . S
H740 C758 0.951 . S
H741 C760 0.951 . S
H742 C762 0.950 . S
H743 C763 0.950 . S
H744 C765 0.950 . S
H745 C768 0.950 . S
H746 C769 0.950 . S
H747 C771 0.950 . S
H748 C772 0.950 . S
H749 C773 0.951 . S
H750 C775 0.951 . S
H751 C777 0.950 . S
H752 C778 0.950 . S
H753 C780 0.950 . S
H754 C783 0.950 1_556 S
H755 C784 0.950 1_556 S
H756 C786 0.950 . S
H757 C787 0.950 . S
C758 H740 0.951 . S
C758 C759 1.366 . S
C758 C760 1.388 . S
C759 C758 1.366 . S
C759 C763 1.385 . S
C760 H741 0.951 . S
C760 C758 1.388 . S
C760 C761 1.366 . S
C761 C760 1.366 . S
C761 C762 1.414 . S
C761 C764 1.499 . S
C762 H742 0.950 . S
C762 C761 1.414 . S
C762 C763 1.374 . S
C763 H743 0.950 . S
C763 C759 1.385 . S
C763 C762 1.374 . S
C764 C761 1.499 . S
C764 C765 1.373 1_455 S
C764 C766 1.389 . S
C765 H744 0.950 . S
C765 C764 1.373 1_655 S
C765 C781 1.377 . S
C766 C764 1.389 . S
C766 C767 1.524 . S
C766 C780 1.377 . S
C767 C766 1.524 . S
C767 C768 1.397 . S
C767 C772 1.363 . S
C768 H745 0.950 . S
C768 C767 1.397 . S
C768 C769 1.334 . S
C769 H746 0.950 . S
C769 C768 1.334 . S
C769 C770 1.287 . S
C770 C769 1.287 . S
C770 C771 1.524 . S
C770 H789 0.913 . S
C771 H747 0.950 . S
C771 C770 1.524 . S
C771 C772 1.415 . S
C772 H748 0.950 . S
C772 C767 1.363 . S
C772 C771 1.415 . S
C773 H749 0.951 . S
C773 C774 1.366 . S
C773 C775 1.388 . S
C774 C773 1.366 . S
C774 C778 1.385 . S
C775 H750 0.951 . S
C775 C773 1.388 . S
C775 C776 1.366 . S
C776 C775 1.366 . S
C776 C777 1.414 . S
C776 C779 1.499 . S
C777 H751 0.950 . S
C777 C776 1.414 . S
C777 C778 1.374 . S
C778 H752 0.950 . S
C778 C774 1.385 . S
C778 C777 1.374 . S
C779 C776 1.499 . S
C779 C780 1.373 1_655 S
C779 C781 1.389 . S
C780 H753 0.950 . S
C780 C766 1.377 . S
C780 C779 1.373 1_455 S
C781 C765 1.377 . S
C781 C779 1.389 . S
C781 C782 1.524 . S
C782 C781 1.524 . S
C782 C783 1.397 . S
C782 C787 1.363 . S
C783 H754 0.950 1_554 S
C783 C782 1.397 . S
C783 C784 1.334 . S
C784 H755 0.950 1_554 S
C784 C783 1.334 . S
C784 C785 1.287 . S
C785 C784 1.287 . S
C785 C786 1.524 . S
C785 H788 0.999 . S
C786 H756 0.950 . S
C786 C785 1.524 . S
C786 C787 1.415 . S
C787 H757 0.950 . S
C787 C782 1.363 . S
C787 C786 1.415 . S
H788 C785 0.999 . S
H789 C770 0.913 . S
H790 C808 0.951 . S
H791 C810 0.951 . S
H792 C812 0.950 . S
H793 C813 0.950 . S
H794 C815 0.950 . S
H795 C818 0.950 1_565 S
H796 C819 0.950 . S
H797 C821 0.950 . S
H798 C822 0.950 . S
H799 C823 0.951 . S
H800 C825 0.951 . S
H801 C827 0.950 . S
H802 C828 0.950 . S
H803 C830 0.950 . S
H804 C833 0.950 1_545 S
H805 C834 0.950 . S
H806 C836 0.950 . S
H807 C837 0.950 . S
C808 H790 0.951 . S
C808 C809 1.366 . S
C808 C810 1.388 . S
C809 C808 1.366 . S
C809 C813 1.385 . S
C810 H791 0.951 . S
C810 C808 1.388 . S
C810 C811 1.366 . S
C811 C810 1.366 . S
C811 C812 1.414 . S
C811 C814 1.499 . S
C812 H792 0.950 . S
C812 C811 1.414 . S
C812 C813 1.374 . S
C813 H793 0.950 . S
C813 C809 1.385 . S
C813 C812 1.374 . S
C814 C811 1.499 . S
C814 C815 1.373 . S
C814 C816 1.389 1_565 S
C815 H794 0.950 . S
C815 C814 1.373 . S
C815 C831 1.377 . S
C816 C814 1.389 1_545 S
C816 C817 1.524 . S
C816 C830 1.377 . S
C817 C816 1.524 . S
C817 C818 1.397 . S
C817 C822 1.363 . S
C818 H795 0.950 1_545 S
C818 C817 1.397 . S
C818 C819 1.334 . S
C819 H796 0.950 . S
C819 C818 1.334 . S
C819 C820 1.287 . S
C820 C819 1.287 . S
C820 C821 1.524 . S
C820 H839 0.913 . S
C821 H797 0.950 . S
C821 C820 1.524 . S
C821 C822 1.415 . S
C822 H798 0.950 . S
C822 C817 1.363 . S
C822 C821 1.415 . S
C823 H799 0.951 . S
C823 C824 1.366 . S
C823 C825 1.388 . S
C824 C823 1.366 . S
C824 C828 1.385 . S
C825 H800 0.951 . S
C825 C823 1.388 . S
C825 C826 1.366 . S
C826 C825 1.366 . S
C826 C827 1.414 . S
C826 C829 1.499 . S
C827 H801 0.950 . S
C827 C826 1.414 . S
C827 C828 1.374 . S
C828 H802 0.950 . S
C828 C824 1.385 . S
C828 C827 1.374 . S
C829 C826 1.499 . S
C829 C830 1.373 . S
C829 C831 1.389 1_545 S
C830 H803 0.950 . S
C830 C816 1.377 . S
C830 C829 1.373 . S
C831 C815 1.377 . S
C831 C829 1.389 1_565 S
C831 C832 1.524 . S
C832 C831 1.524 . S
C832 C833 1.397 . S
C832 C837 1.363 . S
C833 H804 0.950 1_565 S
C833 C832 1.397 . S
C833 C834 1.334 . S
C834 H805 0.950 . S
C834 C833 1.334 . S
C834 C835 1.287 . S
C835 C834 1.287 . S
C835 C836 1.524 . S
C835 H838 0.999 . S
C836 H806 0.950 . S
C836 C835 1.524 . S
C836 C837 1.415 . S
C837 H807 0.950 . S
C837 C832 1.363 . S
C837 C836 1.415 . S
H838 C835 0.999 . S
H839 C820 0.913 . S
H840 C858 0.951 . S
H841 C860 0.951 . S
H842 C862 0.950 . S
H843 C863 0.950 . S
H844 C865 0.950 . S
H845 C868 0.950 . S
H846 C869 0.950 . S
H847 C871 0.950 . S
H848 C872 0.950 . S
H849 C873 0.951 . S
H850 C875 0.951 . S
H851 C877 0.950 . S
H852 C878 0.950 . S
H853 C880 0.950 . S
H854 C883 0.950 . S
H855 C884 0.950 . S
H856 C886 0.950 . S
H857 C887 0.950 . S
C858 H840 0.951 . S
C858 C859 1.366 . S
C858 C860 1.388 . S
C859 C858 1.366 . S
C859 C863 1.385 . S
C860 H841 0.951 . S
C860 C858 1.388 . S
C860 C861 1.366 . S
C861 C860 1.366 . S
C861 C862 1.414 . S
C861 C864 1.499 . S
C862 H842 0.950 . S
C862 C861 1.414 . S
C862 C863 1.374 . S
C863 H843 0.950 . S
C863 C859 1.385 . S
C863 C862 1.374 . S
C864 C861 1.499 . S
C864 C865 1.373 . S
C864 C866 1.389 . S
C865 H844 0.950 . S
C865 C864 1.373 . S
C865 C881 1.377 . S
C866 C864 1.389 . S
C866 C867 1.524 . S
C866 C880 1.377 . S
C867 C866 1.524 . S
C867 C868 1.397 . S
C867 C872 1.363 . S
C868 H845 0.950 . S
C868 C867 1.397 . S
C868 C869 1.334 . S
C869 H846 0.950 . S
C869 C868 1.334 . S
C869 C870 1.287 . S
C870 C869 1.287 . S
C870 C871 1.524 . S
C870 H889 0.913 . S
C871 H847 0.950 . S
C871 C870 1.524 . S
C871 C872 1.415 . S
C872 H848 0.950 . S
C872 C867 1.363 . S
C872 C871 1.415 . S
C873 H849 0.951 . S
C873 C874 1.366 . S
C873 C875 1.388 . S
C874 C873 1.366 . S
C874 C878 1.385 . S
C875 H850 0.951 . S
C875 C873 1.388 . S
C875 C876 1.366 . S
C876 C875 1.366 . S
C876 C877 1.414 . S
C876 C879 1.499 . S
C877 H851 0.950 . S
C877 C876 1.414 . S
C877 C878 1.374 . S
C878 H852 0.950 . S
C878 C874 1.385 . S
C878 C877 1.374 . S
C879 C876 1.499 . S
C879 C880 1.373 . S
C879 C881 1.389 . S
C880 H853 0.950 . S
C880 C866 1.377 . S
C880 C879 1.373 . S
C881 C865 1.377 . S
C881 C879 1.389 . S
C881 C882 1.524 . S
C882 C881 1.524 . S
C882 C883 1.397 . S
C882 C887 1.363 . S
C883 H854 0.950 . S
C883 C882 1.397 . S
C883 C884 1.334 . S
C884 H855 0.950 . S
C884 C883 1.334 . S
C884 C885 1.287 . S
C885 C884 1.287 . S
C885 C886 1.524 . S
C885 H888 0.999 . S
C886 H856 0.950 . S
C886 C885 1.524 . S
C886 C887 1.415 . S
C887 H857 0.950 . S
C887 C882 1.363 . S
C887 C886 1.415 . S
H888 C885 0.999 . S
H889 C870 0.913 . S
H890 C908 0.951 . S
H891 C910 0.951 . S
H892 C912 0.950 . S
H893 C913 0.950 . S
H894 C915 0.950 . S
H895 C918 0.950 . S
H896 C919 0.950 . S
H897 C921 0.950 . S
H898 C922 0.950 . S
H899 C923 0.951 . S
H900 C925 0.951 . S
H901 C927 0.950 . S
H902 C928 0.950 . S
H903 C930 0.950 . S
H904 C933 0.950 . S
H905 C934 0.950 . S
H906 C936 0.950 . S
H907 C937 0.950 . S
C908 H890 0.951 . S
C908 C909 1.366 . S
C908 C910 1.388 . S
C909 C908 1.366 . S
C909 C913 1.385 . S
C910 H891 0.951 . S
C910 C908 1.388 . S
C910 C911 1.366 . S
C911 C910 1.366 . S
C911 C912 1.414 1_655 S
C911 C914 1.499 1_655 S
C912 H892 0.950 . S
C912 C911 1.414 1_455 S
C912 C913 1.374 1_455 S
C913 H893 0.950 . S
C913 C909 1.385 . S
C913 C912 1.374 1_655 S
C914 C911 1.499 1_455 S
C914 C915 1.373 . S
C914 C916 1.402 . S
C915 H894 0.950 . S
C915 C914 1.373 . S
C915 C931 1.377 . S
C916 C914 1.402 . S
C916 C917 1.504 1_455 S
C916 C930 1.386 . S
C917 C916 1.504 1_655 S
C917 C918 1.397 . S
C917 C922 1.363 . S
C918 H895 0.950 . S
C918 C917 1.397 . S
C918 C919 1.334 . S
C919 H896 0.950 . S
C919 C918 1.334 . S
C919 C920 1.287 . S
C920 C919 1.287 . S
C920 C921 1.524 . S
C920 H939 0.913 . S
C921 H897 0.950 . S
C921 C920 1.524 . S
C921 C922 1.415 . S
C922 H898 0.950 . S
C922 C917 1.363 . S
C922 C921 1.415 . S
C923 H899 0.951 . S
C923 C924 1.366 . S
C923 C925 1.388 . S
C924 C923 1.366 . S
C924 C928 1.385 . S
C925 H900 0.951 . S
C925 C923 1.388 . S
C925 C926 1.366 . S
C926 C925 1.366 . S
C926 C927 1.414 . S
C926 C929 1.499 . S
C927 H901 0.950 . S
C927 C926 1.414 . S
C927 C928 1.374 . S
C928 H902 0.950 . S
C928 C924 1.385 . S
C928 C927 1.374 . S
C929 C926 1.499 . S
C929 C930 1.373 . S
C929 C931 1.389 . S
C930 H903 0.950 . S
C930 C916 1.386 . S
C930 C929 1.373 . S
C931 C915 1.377 . S
C931 C929 1.389 . S
C931 C932 1.524 . S
C932 C931 1.524 . S
C932 C933 1.397 . S
C932 C937 1.363 . S
C933 H904 0.950 . S
C933 C932 1.397 . S
C933 C934 1.334 . S
C934 H905 0.950 . S
C934 C933 1.334 . S
C934 C935 1.287 . S
C935 C934 1.287 . S
C935 C936 1.524 . S
C935 H938 0.999 . S
C936 H906 0.950 . S
C936 C935 1.524 . S
C936 C937 1.415 . S
C937 H907 0.950 . S
C937 C932 1.363 . S
C937 C936 1.415 . S
H938 C935 0.999 . S
H939 C920 0.913 . S
H940 C958 0.951 1_545 S
H941 C960 0.951 . S
H942 C962 0.950 . S
H943 C963 0.950 . S
H944 C965 0.950 . S
H945 C968 0.950 . S
H946 C969 0.950 . S
H947 C971 0.950 . S
H948 C972 0.950 . S
H949 C973 0.951 . S
H950 C975 0.951 . S
H951 C977 0.950 . S
H952 C978 0.950 . S
H953 C980 0.950 . S
H954 C983 0.950 . S
H955 C984 0.950 . S
H956 C986 0.950 1_565 S
H957 C987 0.950 1_565 S
C958 H940 0.951 1_565 S
C958 C959 1.366 . S
C958 C960 1.388 1_565 S
C959 C958 1.366 . S
C959 C963 1.385 . S
C960 H941 0.951 . S
C960 C958 1.388 1_545 S
C960 C961 1.366 1_545 S
C961 C960 1.366 1_565 S
C961 C962 1.414 . S
C961 C964 1.499 1_565 S
C962 H942 0.950 . S
C962 C961 1.414 . S
C962 C963 1.374 . S
C963 H943 0.950 . S
C963 C959 1.385 . S
C963 C962 1.374 . S
C964 C961 1.499 1_545 S
C964 C965 1.373 . S
C964 C966 1.389 . S
C965 H944 0.950 . S
C965 C964 1.373 . S
C965 C981 1.377 . S
C966 C964 1.389 . S
C966 C967 1.524 . S
C966 C980 1.377 . S
C967 C966 1.524 . S
C967 C968 1.397 1_545 S
C967 C972 1.363 . S
C968 H945 0.950 . S
C968 C967 1.397 1_565 S
C968 C969 1.334 . S
C969 H946 0.950 . S
C969 C968 1.334 . S
C969 C970 1.287 1_565 S
C970 C969 1.287 1_545 S
C970 C971 1.524 . S
C970 H989 0.913 . S
C971 H947 0.950 . S
C971 C970 1.524 . S
C971 C972 1.415 . S
C972 H948 0.950 . S
C972 C967 1.363 . S
C972 C971 1.415 . S
C973 H949 0.951 . S
C973 C974 1.366 . S
C973 C975 1.388 . S
C974 C973 1.366 . S
C974 C978 1.385 . S
C975 H950 0.951 . S
C975 C973 1.388 . S
C975 C976 1.366 . S
C976 C975 1.366 . S
C976 C977 1.414 . S
C976 C979 1.499 . S
C977 H951 0.950 . S
C977 C976 1.414 . S
C977 C978 1.374 . S
C978 H952 0.950 . S
C978 C974 1.385 . S
C978 C977 1.374 . S
C979 C976 1.499 . S
C979 C980 1.373 . S
C979 C981 1.389 . S
C980 H953 0.950 . S
C980 C966 1.377 . S
C980 C979 1.373 . S
C981 C965 1.377 . S
C981 C979 1.389 . S
C981 C982 1.524 . S
C982 C981 1.524 . S
C982 C983 1.397 . S
C982 C987 1.363 . S
C983 H954 0.950 . S
C983 C982 1.397 . S
C983 C984 1.334 . S
C984 H955 0.950 . S
C984 C983 1.334 . S
C984 C985 1.287 . S
C985 C984 1.287 . S
C985 C986 1.524 . S
C985 H988 0.999 . S
C986 H956 0.950 1_545 S
C986 C985 1.524 . S
C986 C987 1.415 . S
C987 H957 0.950 1_545 S
C987 C982 1.363 . S
C987 C986 1.415 . S
H988 C985 0.999 . S
H989 C970 0.913 . S
H990 C1008 0.951 . S
H991 C1010 0.951 . S
H992 C1012 0.950 . S
H993 C1013 0.950 . S
H994 C1015 0.950 . S
H995 C1018 0.950 . S
H996 C1019 0.950 . S
H997 C1021 0.950 . S
H998 C1022 0.950 . S
H999 C1023 0.951 . S
H1000 C1025 0.951 . S
H1001 C1027 0.950 . S
H1002 C1028 0.950 . S
H1003 C1030 0.950 . S
H1004 C1033 0.950 . S
H1005 C1034 0.950 . S
H1006 C1036 0.950 . S
H1007 C1037 0.950 . S
C1008 H990 0.951 . S
C1008 C1009 1.366 . S
C1008 C1010 1.388 . S
C1009 C1008 1.366 . S
C1009 C1013 1.385 . S
C1010 H991 0.951 . S
C1010 C1008 1.388 . S
C1010 C1011 1.366 . S
C1011 C1010 1.366 . S
C1011 C1012 1.414 . S
C1011 C1014 1.499 . S
C1012 H992 0.950 . S
C1012 C1011 1.414 . S
C1012 C1013 1.374 . S
C1013 H993 0.950 . S
C1013 C1009 1.385 . S
C1013 C1012 1.374 . S
C1014 C1011 1.499 . S
C1014 C1015 1.373 . S
C1014 C1016 1.389 . S
C1015 H994 0.950 . S
C1015 C1014 1.373 . S
C1015 C1031 1.377 . S
C1016 C1014 1.389 . S
C1016 C1017 1.524 . S
C1016 C1030 1.377 . S
C1017 C1016 1.524 . S
C1017 C1018 1.397 . S
C1017 C1022 1.363 . S
C1018 H995 0.950 . S
C1018 C1017 1.397 . S
C1018 C1019 1.334 . S
C1019 H996 0.950 . S
C1019 C1018 1.334 . S
C1019 C1020 1.287 . S
C1020 C1019 1.287 . S
C1020 C1021 1.524 . S
C1020 H1039 0.913 . S
C1021 H997 0.950 . S
C1021 C1020 1.524 . S
C1021 C1022 1.415 . S
C1022 H998 0.950 . S
C1022 C1017 1.363 . S
C1022 C1021 1.415 . S
C1023 H999 0.951 . S
C1023 C1024 1.366 . S
C1023 C1025 1.388 . S
C1024 C1023 1.366 . S
C1024 C1028 1.385 . S
C1025 H1000 0.951 . S
C1025 C1023 1.388 . S
C1025 C1026 1.366 . S
C1026 C1025 1.366 . S
C1026 C1027 1.414 . S
C1026 C1029 1.499 . S
C1027 H1001 0.950 . S
C1027 C1026 1.414 . S
C1027 C1028 1.374 . S
C1028 H1002 0.950 . S
C1028 C1024 1.385 . S
C1028 C1027 1.374 . S
C1029 C1026 1.499 . S
C1029 C1030 1.373 . S
C1029 C1031 1.389 . S
C1030 H1003 0.950 . S
C1030 C1016 1.377 . S
C1030 C1029 1.373 . S
C1031 C1015 1.377 . S
C1031 C1029 1.389 . S
C1031 C1032 1.524 . S
C1032 C1031 1.524 . S
C1032 C1033 1.397 . S
C1032 C1037 1.363 . S
C1033 H1004 0.950 . S
C1033 C1032 1.397 . S
C1033 C1034 1.334 . S
C1034 H1005 0.950 . S
C1034 C1033 1.334 . S
C1034 C1035 1.287 . S
C1035 C1034 1.287 . S
C1035 C1036 1.524 . S
C1035 H1038 0.999 . S
C1036 H1006 0.950 . S
C1036 C1035 1.524 . S
C1036 C1037 1.415 . S
C1037 H1007 0.950 . S
C1037 C1032 1.363 . S
C1037 C1036 1.415 . S
H1038 C1035 0.999 . S
H1039 C1020 0.913 . S
H1040 C1058 0.951 . S
H1041 C1060 0.951 . S
H1042 C1062 0.950 . S
H1043 C1063 0.950 1_655 S
H1044 C1065 0.950 . S
H1045 C1068 0.950 . S
H1046 C1069 0.950 . S
H1047 C1071 0.950 1_455 S
H1048 C1072 0.950 1_455 S
H1049 C1073 0.951 . S
H1050 C1075 0.951 . S
H1051 C1077 0.950 . S
H1052 C1078 0.950 . S
H1053 C1080 0.950 . S
H1054 C1083 0.950 . S
H1055 C1084 0.950 . S
H1056 C1086 0.950 . S
H1057 C1087 0.950 . S
C1058 H1040 0.951 . S
C1058 C1059 1.366 . S
C1058 C1060 1.388 . S
C1059 C1058 1.366 . S
C1059 C1063 1.385 . S
C1060 H1041 0.951 . S
C1060 C1058 1.388 . S
C1060 C1061 1.366 1_455 S
C1061 C1060 1.366 1_655 S
C1061 C1062 1.414 . S
C1061 C1064 1.498 . S
C1062 H1042 0.950 . S
C1062 C1061 1.414 . S
C1062 C1063 1.374 1_655 S
C1063 H1043 0.950 1_455 S
C1063 C1059 1.385 . S
C1063 C1062 1.374 1_455 S
C1064 C1061 1.498 . S
C1064 C1065 1.373 . S
C1064 C1066 1.389 . S
C1065 H1044 0.950 . S
C1065 C1064 1.373 . S
C1065 C1081 1.377 . S
C1066 C1064 1.389 . S
C1066 C1067 1.524 . S
C1066 C1080 1.377 . S
C1067 C1066 1.524 . S
C1067 C1068 1.397 . S
C1067 C1072 1.363 . S
C1068 H1045 0.950 . S
C1068 C1067 1.397 . S
C1068 C1069 1.334 . S
C1069 H1046 0.950 . S
C1069 C1068 1.334 . S
C1069 C1070 1.287 . S
C1070 C1069 1.287 . S
C1070 C1071 1.524 . S
C1070 H1089 0.913 . S
C1071 H1047 0.950 1_655 S
C1071 C1070 1.524 . S
C1071 C1072 1.415 . S
C1072 H1048 0.950 1_655 S
C1072 C1067 1.363 . S
C1072 C1071 1.415 . S
C1073 H1049 0.951 . S
C1073 C1074 1.366 . S
C1073 C1075 1.388 . S
C1074 C1073 1.366 . S
C1074 C1078 1.385 . S
C1075 H1050 0.951 . S
C1075 C1073 1.388 . S
C1075 C1076 1.366 . S
C1076 C1075 1.366 . S
C1076 C1077 1.414 . S
C1076 C1079 1.499 . S
C1077 H1051 0.950 . S
C1077 C1076 1.414 . S
C1077 C1078 1.374 . S
C1078 H1052 0.950 . S
C1078 C1074 1.385 . S
C1078 C1077 1.374 . S
C1079 C1076 1.499 . S
C1079 C1080 1.373 . S
C1079 C1081 1.389 . S
C1080 H1053 0.950 . S
C1080 C1066 1.377 . S
C1080 C1079 1.373 . S
C1081 C1065 1.377 . S
C1081 C1079 1.389 . S
C1081 C1082 1.524 . S
C1082 C1081 1.524 . S
C1082 C1083 1.397 . S
C1082 C1087 1.363 . S
C1083 H1054 0.950 . S
C1083 C1082 1.397 . S
C1083 C1084 1.334 . S
C1084 H1055 0.950 . S
C1084 C1083 1.334 . S
C1084 C1085 1.287 . S
C1085 C1084 1.287 . S
C1085 C1086 1.524 . S
C1085 H1088 0.999 . S
C1086 H1056 0.950 . S
C1086 C1085 1.524 . S
C1086 C1087 1.415 . S
C1087 H1057 0.950 . S
C1087 C1082 1.363 . S
C1087 C1086 1.415 . S
H1088 C1085 0.999 . S
H1089 C1070 0.913 . S
H1090 C1108 0.951 1_565 S
H1091 C1110 0.951 . S
H1092 C1112 0.950 . S
H1093 C1113 0.950 . S
H1094 C1115 0.950 1_545 S
H1095 C1118 0.950 . S
H1096 C1119 0.950 . S
H1097 C1121 0.950 . S
H1098 C1122 0.950 . S
H1099 C1123 0.951 . S
H1100 C1125 0.951 . S
H1101 C1127 0.950 . S
H1102 C1128 0.950 . S
H1103 C1130 0.950 . S
H1104 C1133 0.950 . S
H1105 C1134 0.950 1_565 S
H1106 C1136 0.950 . S
H1107 C1137 0.950 . S
C1108 H1090 0.951 1_545 S
C1108 C1109 1.366 . S
C1108 C1110 1.388 1_545 S
C1109 C1108 1.366 . S
C1109 C1113 1.385 . S
C1110 H1091 0.951 . S
C1110 C1108 1.388 1_565 S
C1110 C1111 1.365 1_565 S
C1111 C1110 1.365 1_545 S
C1111 C1112 1.418 . S
C1111 C1114 1.495 1_545 S
C1112 H1092 0.950 . S
C1112 C1111 1.418 . S
C1112 C1113 1.374 . S
C1113 H1093 0.950 . S
C1113 C1109 1.385 . S
C1113 C1112 1.374 . S
C1114 C1111 1.495 1_565 S
C1114 C1115 1.373 . S
C1114 C1116 1.389 . S
C1115 H1094 0.950 1_565 S
C1115 C1114 1.373 . S
C1115 C1131 1.377 . S
C1116 C1114 1.389 . S
C1116 C1117 1.524 . S
C1116 C1130 1.377 . S
C1117 C1116 1.524 . S
C1117 C1118 1.397 . S
C1117 C1122 1.363 . S
C1118 H1095 0.950 . S
C1118 C1117 1.397 . S
C1118 C1119 1.334 . S
C1119 H1096 0.950 . S
C1119 C1118 1.334 . S
C1119 C1120 1.287 . S
C1120 C1119 1.287 . S
C1120 C1121 1.524 . S
C1120 H1139 0.913 . S
C1121 H1097 0.950 . S
C1121 C1120 1.524 . S
C1121 C1122 1.415 . S
C1122 H1098 0.950 . S
C1122 C1117 1.363 . S
C1122 C1121 1.415 . S
C1123 H1099 0.951 . S
C1123 C1124 1.366 . S
C1123 C1125 1.388 . S
C1124 C1123 1.366 . S
C1124 C1128 1.385 . S
C1125 H1100 0.951 . S
C1125 C1123 1.388 . S
C1125 C1126 1.366 . S
C1126 C1125 1.366 . S
C1126 C1127 1.414 . S
C1126 C1129 1.499 . S
C1127 H1101 0.950 . S
C1127 C1126 1.414 . S
C1127 C1128 1.374 . S
C1128 H1102 0.950 . S
C1128 C1124 1.385 . S
C1128 C1127 1.374 . S
C1129 C1126 1.499 . S
C1129 C1130 1.373 . S
C1129 C1131 1.389 . S
C1130 H1103 0.950 . S
C1130 C1116 1.377 . S
C1130 C1129 1.373 . S
C1131 C1115 1.377 . S
C1131 C1129 1.389 . S
C1131 C1132 1.524 1_565 S
C1132 C1131 1.524 1_545 S
C1132 C1133 1.397 1_545 S
C1132 C1137 1.363 . S
C1133 H1104 0.950 . S
C1133 C1132 1.397 1_565 S
C1133 C1134 1.334 1_565 S
C1134 H1105 0.950 1_545 S
C1134 C1133 1.334 1_545 S
C1134 C1135 1.287 . S
C1135 C1134 1.287 . S
C1135 C1136 1.524 . S
C1135 H1138 0.999 . S
C1136 H1106 0.950 . S
C1136 C1135 1.524 . S
C1136 C1137 1.415 . S
C1137 H1107 0.950 . S
C1137 C1132 1.363 . S
C1137 C1136 1.415 . S
H1138 C1135 0.999 . S
H1139 C1120 0.913 . S
C259 C171 1.158 . S
C274 C7 1.159 . S
C309 C211 1.158 . S
C324 C47 1.160 . S
C359 C11 1.157 . S
C374 C87 1.159 . S
C409 C51 1.158 . S
C424 C127 1.160 . S
C459 C91 1.158 . S
C474 C167 1.160 . S
C509 C131 1.157 . S
C524 C207 1.159 . S
C559 C10 0.687 . S
C574 C130 0.687 . S
C609 C170 0.685 . S
C624 C50 0.684 . S
C659 C210 0.685 . S
C674 C90 0.685 . S
C709 C99 0.682 . S
C724 C219 0.682 . S
C759 C19 0.683 . S
C774 C139 0.683 . S
C809 C179 0.682 . S
C824 C59 0.682 . S
C859 C202 1.247 . S
C874 C16 1.227 . S
C909 C56 1.227 . S
C924 C2 1.247 . S
C959 C96 1.228 . S
C974 C42 1.247 . S
C1009 C82 1.247 . S
C1024 C136 1.228 . S
C1059 C176 1.227 . S
C1074 C122 1.247 . S
C1109 C216 1.228 . S
C1124 C162 1.247 . S
