# Generated by pormake.
# Topology smk, (6)-cn, num edge types: 1
# Building blocks:
#     Node 0, Type 0, BuildingBlock: LEVNOQ01_clean_sbu_1, # of connection points: 6
#     Node 1, Type 0, BuildingBlock: LEVNOQ01_clean_sbu_1, # of connection points: 6
#     Node 2, Type 0, BuildingBlock: LEVNOQ01_clean_sbu_1, # of connection points: 6
#     Node 3, Type 0, BuildingBlock: LEVNOQ01_clean_sbu_1, # of connection points: 6
#     Node 4, Type 0, BuildingBlock: LEVNOQ01_clean_sbu_1, # of connection points: 6
#     Node 5, Type 0, BuildingBlock: LEVNOQ01_clean_sbu_1, # of connection points: 6
#     Edge 6, Type (0, 0), BuildingBlock: MIFKUJ_clean_linker_0, # of connection points: 2
#     Edge 7, Type (0, 0), BuildingBlock: MIFKUJ_clean_linker_0, # of connection points: 2
#     Edge 8, Type (0, 0), BuildingBlock: MIFKUJ_clean_linker_0, # of connection points: 2
#     Edge 9, Type (0, 0), BuildingBlock: MIFKUJ_clean_linker_0, # of connection points: 2
#     Edge 10, Type (0, 0), BuildingBlock: MIFKUJ_clean_linker_0, # of connection points: 2
#     Edge 11, Type (0, 0), BuildingBlock: MIFKUJ_clean_linker_0, # of connection points: 2
#     Edge 12, Type (0, 0), BuildingBlock: MIFKUJ_clean_linker_0, # of connection points: 2
#     Edge 13, Type (0, 0), BuildingBlock: MIFKUJ_clean_linker_0, # of connection points: 2
#     Edge 14, Type (0, 0), BuildingBlock: MIFKUJ_clean_linker_0, # of connection points: 2
#     Edge 15, Type (0, 0), BuildingBlock: MIFKUJ_clean_linker_0, # of connection points: 2
#     Edge 16, Type (0, 0), BuildingBlock: MIFKUJ_clean_linker_0, # of connection points: 2
#     Edge 17, Type (0, 0), BuildingBlock: MIFKUJ_clean_linker_0, # of connection points: 2
#     Edge 18, Type (0, 0), BuildingBlock: MIFKUJ_clean_linker_0, # of connection points: 2
#     Edge 19, Type (0, 0), BuildingBlock: MIFKUJ_clean_linker_0, # of connection points: 2
#     Edge 20, Type (0, 0), BuildingBlock: MIFKUJ_clean_linker_0, # of connection points: 2
#     Edge 21, Type (0, 0), BuildingBlock: MIFKUJ_clean_linker_0, # of connection points: 2
#     Edge 22, Type (0, 0), BuildingBlock: MIFKUJ_clean_linker_0, # of connection points: 2
#     Edge 23, Type (0, 0), BuildingBlock: MIFKUJ_clean_linker_0, # of connection points: 2
# Relax obj value: 0.261
# Max RMSD: 0.244
# Mean RMSD: 0.244
data_MOF--net-smk--node1-LEVNOQ01_clean_sbu_1--edge1-MIFKUJ_clean_linker_0
_symmetry_space_group_name_H-M    P1
_symmetry_Int_Tables_number       1
_symmetry_cell_setting            triclinic
loop_
_symmetry_equiv_pos_as_xyz
'x, y, z'
_cell_length_a     53.368858
_cell_length_b     53.348968
_cell_length_c     19.672072
_cell_angle_alpha  89.840133
_cell_angle_beta   89.886726
_cell_angle_gamma 120.02784
loop_
_atom_site_label
_atom_site_type_symbol
_atom_site_fract_x
_atom_site_fract_y
_atom_site_fract_z
_atom_type_partial_charge
O0 O 0.41193 0.17887 0.70281 0.0
Mg1 Mg 0.39649 0.19187 0.61741 0.0
O2 O 0.45454 0.21748 0.68926 0.0
Mg3 Mg 0.44678 0.22018 0.57618 0.0
O4 O 0.41148 0.2346 0.59652 0.0
O5 O 0.36992 0.20574 0.65224 0.0
O6 O 0.43787 0.22197 0.46314 0.0
O7 O 0.47632 0.27105 0.58105 0.0
Mg8 Mg 0.50455 0.24469 0.49376 0.0
O9 O 0.48396 0.2108 0.55985 0.0
O10 O 0.47941 0.24065 0.40683 0.0
O11 O 0.52078 0.28334 0.54875 0.0
O12 O 0.52428 0.22024 0.50496 0.0
C13 C 0.39446 0.15239 0.53771 0.0
C14 C 0.43707 0.19588 0.72502 0.0
C15 C 0.38782 0.23052 0.62584 0.0
C16 C 0.45228 0.23062 0.40816 0.0
C17 C 0.50306 0.29006 0.57369 0.0
C18 C 0.50495 0.20555 0.55054 0.0
O19 O 0.37747 0.16234 0.53777 0.0
O20 O 0.41974 0.16811 0.56252 0.0
O21 O 0.23035 0.4049 0.85388 0.0
Mg22 Mg 0.20793 0.39583 0.75764 0.0
O23 O 0.23362 0.44748 0.85278 0.0
Mg24 Mg 0.23032 0.44555 0.73958 0.0
O25 O 0.17889 0.4096 0.74289 0.0
O26 O 0.16693 0.36419 0.77179 0.0
O27 O 0.22741 0.44218 0.62504 0.0
O28 O 0.2069 0.47449 0.74142 0.0
Mg29 Mg 0.26007 0.49897 0.69717 0.0
O30 O 0.28062 0.48091 0.74579 0.0
O31 O 0.24299 0.48743 0.59728 0.0
O32 O 0.24367 0.51632 0.76641 0.0
O33 O 0.30352 0.52387 0.69211 0.0
C34 C 0.25077 0.39936 0.69057 0.0
C35 C 0.23712 0.42854 0.88344 0.0
C36 C 0.15925 0.38295 0.75732 0.0
C37 C 0.23197 0.46117 0.58045 0.0
C38 C 0.21681 0.50086 0.75879 0.0
C39 C 0.30437 0.50485 0.73105 0.0
O40 O 0.22475 0.38462 0.67258 0.0
O41 O 0.25744 0.42057 0.73036 0.0
O42 O 0.79823 0.20329 0.08128 0.0
Mg43 Mg 0.81219 0.19173 -0.00749 0.0
O44 O 0.78305 0.22939 0.02568 0.0
Mg45 Mg 0.79102 0.22502 0.91188 0.0
O46 O 0.77914 0.1762 0.92324 0.0
O47 O 0.79436 0.14872 0.97512 0.0
O48 O 0.80046 0.21931 0.79729 0.0
O49 O 0.74099 0.20417 0.89749 0.0
Mg50 Mg 0.78132 0.26238 0.81762 0.0
O51 O 0.801 0.27355 0.90943 0.0
O52 O 0.80882 0.25975 0.74752 0.0
O53 O 0.73635 0.23233 0.82168 0.0
O54 O 0.79391 0.30363 0.84295 0.0
C55 C 0.86139 0.2415 0.93127 0.0
C56 C 0.78657 0.21898 0.08073 0.0
C57 C 0.77636 0.15087 0.93532 0.0
C58 C 0.81109 0.23736 0.74826 0.0
C59 C 0.72525 0.21032 0.86029 0.0
C60 C 0.80423 0.29912 0.89796 0.0
O61 O 0.85475 0.2172 0.95674 0.0
O62 O 0.8417 0.24778 0.91936 0.0
O63 O 0.61252 0.82518 0.18449 0.0
Mg64 Mg 0.62001 0.81513 0.08256 0.0
O65 O 0.56859 0.7869 0.18744 0.0
Mg66 Mg 0.56411 0.78421 0.07381 0.0
O67 O 0.60129 0.77198 0.06503 0.0
O68 O 0.64931 0.80165 0.07498 0.0
O69 O 0.56275 0.78491 0.95915 0.0
O70 O 0.53939 0.73244 0.07856 0.0
Mg71 Mg 0.50742 0.755 0.03644 0.0
O72 O 0.52507 0.79353 0.08909 0.0
O73 O 0.51734 0.75598 0.93154 0.0
O74 O 0.49356 0.71738 0.09426 0.0
O75 O 0.4798 0.76979 0.04764 0.0
C76 C 0.60726 0.8508 0.01868 0.0
C77 C 0.58968 0.80798 0.21731 0.0
C78 C 0.62749 0.7761 0.06566 0.0
C79 C 0.54338 0.7727 0.91439 0.0
C80 C 0.51386 0.71186 0.09203 0.0
C81 C 0.4996 0.79105 0.08177 0.0
O82 O 0.62297 0.84095 -0.0016 0.0
O83 O 0.58791 0.83618 0.06326 0.0
O84 O 0.77705 0.60117 0.35054 0.0
Mg85 Mg 0.80137 0.61055 0.25749 0.0
O86 O 0.77217 0.55784 0.35094 0.0
Mg87 Mg 0.77907 0.55873 0.2372 0.0
O88 O 0.82959 0.59552 0.2458 0.0
O89 O 0.84252 0.64083 0.27729 0.0
O90 O 0.78613 0.56119 0.12231 0.0
O91 O 0.80226 0.53067 0.2496 0.0
Mg92 Mg 0.74843 0.49997 0.18544 0.0
O93 O 0.73081 0.52101 0.23544 0.0
O94 O 0.76743 0.51597 0.08871 0.0
O95 O 0.76836 0.48495 0.25252 0.0
O96 O 0.70463 0.47734 0.1873 0.0
C97 C 0.76025 0.60594 0.18013 0.0
C98 C 0.76941 0.5774 0.38084 0.0
C99 C 0.84954 0.6216 0.26279 0.0
C100 C 0.78135 0.54285 0.07586 0.0
C101 C 0.79452 0.50408 0.26003 0.0
C102 C 0.70598 0.49774 0.22499 0.0
O103 O 0.7869 0.62219 0.16938 0.0
O104 O 0.75241 0.58372 0.21779 0.0
O105 O 0.17939 0.77633 0.52304 0.0
Mg106 Mg 0.19226 0.79995 0.42942 0.0
O107 O 0.21737 0.7707 0.51778 0.0
Mg108 Mg 0.22232 0.77765 0.40381 0.0
O109 O 0.23507 0.82782 0.41219 0.0
O110 O 0.20335 0.8416 0.44416 0.0
O111 O 0.22601 0.78456 0.28985 0.0
O112 O 0.27342 0.80295 0.41231 0.0
Mg113 Mg 0.25301 0.74963 0.35147 0.0
O114 O 0.21393 0.72999 0.40138 0.0
O115 O 0.25437 0.76816 0.25462 0.0
O116 O 0.28834 0.77162 0.41743 0.0
O117 O 0.23392 0.70591 0.35441 0.0
C118 C 0.15453 0.75791 0.35548 0.0
C119 C 0.19567 0.76824 0.55036 0.0
C120 C 0.22925 0.8482 0.42685 0.0
C121 C 0.24013 0.78087 0.24281 0.0
C122 C 0.2938 0.79742 0.42213 0.0
C123 C 0.21377 0.70579 0.39106 0.0
O124 O 0.16406 0.78454 0.347 0.0
O125 O 0.17044 0.75014 0.38703 0.0
H126 H 0.46735 0.26731 0.30085 0.0
H127 H 0.45098 0.2533 0.18388 0.0
H128 H 0.38831 0.16748 0.25265 0.0
H129 H 0.40361 0.18191 0.37039 0.0
H130 H 0.44663 0.18288 0.17257 0.0
H131 H 0.35758 0.18328 0.16607 0.0
H132 H 0.32508 0.2031 0.18329 0.0
H133 H 0.37646 0.27297 0.0456 0.0
H134 H 0.40957 0.25387 0.0284 0.0
H135 H 0.4128 0.14705 0.8027 0.0
H136 H 0.41121 0.14575 0.92706 0.0
H137 H 0.4728 0.23724 0.93221 0.0
H138 H 0.4751 0.23864 0.8081 0.0
H139 H 0.4044 0.20748 0.97702 0.0
H140 H 0.49879 0.21737 0.0088 0.0
H141 H 0.53641 0.20378 -0.00356 0.0
H142 H 0.48021 0.12146 0.09027 0.0
H143 H 0.44199 0.1344 0.10189 0.0
C144 C 0.44916 0.24593 0.29115 0.0
C145 C 0.43699 0.22546 0.34363 0.0
C146 C 0.43967 0.23802 0.22468 0.0
C147 C 0.41862 0.20937 0.21017 0.0
C148 C 0.40438 0.18975 0.26336 0.0
C149 C 0.41323 0.19797 0.33028 0.0
C150 C 0.41831 0.19871 0.1414 0.0
C151 C 0.43667 0.18738 0.12972 0.0
C152 C 0.40606 0.20562 0.08622 0.0
C153 C 0.38625 0.21727 0.09651 0.0
C154 C 0.36215 0.20305 0.14004 0.0
C155 C 0.34356 0.21412 0.14964 0.0
C156 C 0.34875 0.23932 0.11572 0.0
C157 C 0.37248 0.25346 0.07192 0.0
C158 C 0.39115 0.2425 0.06216 0.0
C159 C 0.42688 0.16663 0.8305 0.0
C160 C 0.4435 0.19311 0.79621 0.0
C161 C 0.42599 0.16581 0.90131 0.0
C162 C 0.44162 0.19146 0.93802 0.0
C163 C 0.46067 0.21726 0.90415 0.0
C164 C 0.46196 0.21801 0.83338 0.0
C165 C 0.43347 0.19269 0.00862 0.0
C166 C 0.41358 0.20216 0.02008 0.0
C167 C 0.44492 0.18488 0.06375 0.0
C168 C 0.46731 0.17655 0.05457 0.0
C169 C 0.49423 0.19614 0.02544 0.0
C170 C 0.51573 0.18863 0.019 0.0
C171 C 0.51066 0.16172 0.04228 0.0
C172 C 0.48407 0.14226 0.07206 0.0
C173 C 0.46246 0.14964 0.07844 0.0
H174 H 0.52736 0.15597 0.03739 0.0
H175 H 0.33435 0.24787 0.12328 0.0
H176 H 0.22657 0.49067 0.47322 0.0
H177 H 0.23066 0.48178 0.3525 0.0
H178 H 0.23606 0.40615 0.40554 0.0
H179 H 0.23112 0.41421 0.52572 0.0
H180 H 0.28599 0.45862 0.32139 0.0
H181 H 0.18435 0.3856 0.33415 0.0
H182 H 0.13319 0.36786 0.36305 0.0
H183 H 0.13277 0.43215 0.23193 0.0
H184 H 0.18411 0.45056 0.20311 0.0
H185 H 0.24382 0.39161 0.96836 0.0
H186 H 0.25434 0.3985 0.09011 0.0
H187 H 0.26722 0.48482 0.07581 0.0
H188 H 0.25741 0.47852 0.95453 0.0
H189 H 0.21033 0.42371 0.14341 0.0
H190 H 0.31259 0.4996 0.1381 0.0
H191 H 0.36446 0.51961 0.11334 0.0
H192 H 0.36443 0.45164 0.23084 0.0
H193 H 0.31235 0.4309 0.25514 0.0
C194 C 0.22798 0.47182 0.45889 0.0
C195 C 0.22883 0.45329 0.50847 0.0
C196 C 0.23035 0.46683 0.39033 0.0
C197 C 0.23401 0.44358 0.37116 0.0
C198 C 0.23339 0.42425 0.42011 0.0
C199 C 0.23039 0.42883 0.48844 0.0
C200 C 0.24058 0.44077 0.30034 0.0
C201 C 0.26949 0.45062 0.28228 0.0
C202 C 0.21897 0.43074 0.25023 0.0
C203 C 0.18814 0.41971 0.26732 0.0
C204 C 0.17344 0.39617 0.31215 0.0
C205 C 0.14439 0.38594 0.32834 0.0
C206 C 0.12977 0.39895 0.29958 0.0
C207 C 0.14414 0.42214 0.25432 0.0
C208 C 0.1732 0.43247 0.23802 0.0
C209 C 0.2498 0.41237 -0.0092 0.0
C210 C 0.24869 0.43413 0.95284 0.0
C211 C 0.25626 0.41641 0.05995 0.0
C212 C 0.26174 0.44222 0.09126 0.0
C213 C 0.26359 0.46499 0.05199 0.0
C214 C 0.25734 0.46107 0.98302 0.0
C215 C 0.25583 0.44186 0.16395 0.0
C216 C 0.22688 0.43138 0.18243 0.0
C217 C 0.27749 0.45157 0.21406 0.0
C218 C 0.30842 0.4633 0.197 0.0
C219 C 0.32346 0.48853 0.15733 0.0
C220 C 0.35296 0.50013 0.14379 0.0
C221 C 0.3677 0.48682 0.17025 0.0
C222 C 0.35296 0.46185 0.21015 0.0
C223 C 0.32345 0.45016 0.22374 0.0
H224 H 0.39059 0.49594 0.16029 0.0
H225 H 0.10728 0.39101 0.31221 0.0
H226 H 0.79827 0.27159 0.13011 0.0
H227 H 0.79933 0.28269 0.25115 0.0
H228 H 0.75565 0.19138 0.29811 0.0
H229 H 0.75532 0.18042 0.17809 0.0
H230 H 0.74954 0.22772 0.40152 0.0
H231 H 0.82719 0.21936 0.26263 0.0
H232 H 0.85903 0.23764 0.16157 0.0
H233 H 0.88988 0.32515 0.22571 0.0
H234 H 0.85807 0.30728 0.32693 0.0
H235 H 0.78788 0.18634 0.67862 0.0
H236 H 0.78781 0.18602 0.55436 0.0
H237 H 0.85658 0.27513 0.55193 0.0
H238 H 0.85781 0.27491 0.67541 0.0
H239 H 0.85207 0.25275 0.42945 0.0
H240 H 0.78844 0.2613 0.58806 0.0
H241 H 0.75564 0.24609 0.68718 0.0
H242 H 0.69736 0.16642 0.58757 0.0
H243 H 0.72993 0.18109 0.48779 0.0
C244 C 0.78773 0.25395 0.16604 0.0
C245 C 0.77763 0.22527 0.14581 0.0
C246 C 0.78816 0.26028 0.23508 0.0
C247 C 0.77825 0.23782 0.2833 0.0
C248 C 0.7636 0.20899 0.26157 0.0
C249 C 0.76369 0.20274 0.19312 0.0
C250 C 0.79068 0.24317 0.352 0.0
C251 C 0.77201 0.23363 0.40809 0.0
C252 C 0.82014 0.25137 0.36047 0.0
C253 C 0.84063 0.26203 0.30248 0.0
C254 C 0.84106 0.24248 0.25546 0.0
C255 C 0.85896 0.25276 0.19805 0.0
C256 C 0.87657 0.28254 0.1874 0.0
C257 C 0.87634 0.30209 0.2342 0.0
C258 C 0.85844 0.29191 0.29165 0.0
C259 C 0.80438 0.20509 0.65153 0.0
C260 C 0.82189 0.2311 0.68576 0.0
C261 C 0.80414 0.20506 0.58047 0.0
C262 C 0.82087 0.23119 0.54462 0.0
C263 C 0.84284 0.25503 0.57873 0.0
C264 C 0.84351 0.25486 0.64944 0.0
C265 C 0.81056 0.23606 0.47883 0.0
C266 C 0.82978 0.24759 0.42373 0.0
C267 C 0.78181 0.23071 0.47193 0.0
C268 C 0.76167 0.22222 0.53068 0.0
C269 C 0.76866 0.24051 0.58736 0.0
C270 C 0.75022 0.23192 0.64377 0.0
C271 C 0.72465 0.20517 0.64394 0.0
C272 C 0.71731 0.18704 0.58748 0.0
C273 C 0.7357 0.19551 0.53089 0.0
H274 H 0.71027 0.19876 0.68728 0.0
H275 H 0.89035 0.29045 0.14285 0.0
H276 H 0.5542 0.76814 0.30909 0.0
H277 H 0.5477 0.77568 0.42795 0.0
H278 H 0.61107 0.86646 0.40801 0.0
H279 H 0.61836 0.85878 0.28808 0.0
H280 H 0.6203 0.84183 0.51837 0.0
H281 H 0.53746 0.84588 0.43471 0.0
H282 H 0.49373 0.82998 0.36563 0.0
H283 H 0.45412 0.74607 0.45996 0.0
H284 H 0.49751 0.76154 0.53034 0.0
H285 H 0.58307 0.82614 0.8718 0.0
H286 H 0.5923 0.8447 0.75568 0.0
H287 H 0.52958 0.75988 0.68219 0.0
H288 H 0.51932 0.74156 0.79926 0.0
H289 H 0.52261 0.80002 0.62215 0.0
H290 H 0.60472 0.78717 0.6737 0.0
H291 H 0.64683 0.79583 0.74274 0.0
H292 H 0.68621 0.88727 0.70625 0.0
H293 H 0.64413 0.87911 0.63742 0.0
C294 C 0.56665 0.78976 0.32977 0.0
C295 C 0.58676 0.81287 0.28957 0.0
C296 C 0.56266 0.79413 0.39751 0.0
C297 C 0.57823 0.82181 0.42616 0.0
C298 C 0.59855 0.84503 0.38639 0.0
C299 C 0.60285 0.84057 0.31834 0.0
C300 C 0.57488 0.82514 0.49948 0.0
C301 C 0.59907 0.83355 0.54124 0.0
C302 C 0.54712 0.81398 0.52917 0.0
C303 C 0.52079 0.80489 0.48768 0.0
C304 C 0.51945 0.82402 0.44059 0.0
C305 C 0.4947 0.81503 0.40109 0.0
C306 C 0.47125 0.78689 0.40769 0.0
C307 C 0.47232 0.76782 0.45469 0.0
C308 C 0.49691 0.77675 0.49471 0.0
C309 C 0.57151 0.81138 0.8307 0.0
C310 C 0.55064 0.78236 0.84388 0.0
C311 C 0.57673 0.82206 0.76454 0.0
C312 C 0.56175 0.80365 0.71046 0.0
C313 C 0.54118 0.77449 0.72351 0.0
C314 C 0.53545 0.76396 0.78998 0.0
C315 C 0.56757 0.81439 0.63984 0.0
C316 C 0.54396 0.80922 0.59929 0.0
C317 C 0.59565 0.82762 0.6111 0.0
C318 C 0.62123 0.83256 0.65102 0.0
C319 C 0.62234 0.80912 0.68061 0.0
C320 C 0.64618 0.81393 0.71968 0.0
C321 C 0.66916 0.84209 0.729 0.0
C322 C 0.66838 0.86548 0.69902 0.0
C323 C 0.64456 0.86078 0.65992 0.0
H324 H 0.68758 0.84578 0.75934 0.0
H325 H 0.45216 0.77978 0.37676 0.0
H326 H 0.75296 0.52989 0.46051 0.0
H327 H 0.74831 0.52748 0.58329 0.0
H328 H 0.75848 0.61301 0.58624 0.0
H329 H 0.76394 0.6159 0.46254 0.0
H330 H 0.79922 0.6117 0.6577 0.0
H331 H 0.69639 0.55378 0.6612 0.0
H332 H 0.64817 0.51465 0.62777 0.0
H333 H 0.6717 0.45115 0.68172 0.0
H334 H 0.72009 0.48996 0.71632 0.0
H335 H 0.79438 0.59539 0.02354 0.0
H336 H 0.79273 0.60642 0.9038 0.0
H337 H 0.78327 0.52392 0.84822 0.0
H338 H 0.78424 0.51242 0.96805 0.0
H339 H 0.73749 0.52932 0.81013 0.0
H340 H 0.84159 0.58716 0.79574 0.0
H341 H 0.89003 0.62612 0.82956 0.0
H342 H 0.86421 0.68943 0.79409 0.0
H343 H 0.81549 0.65078 0.76079 0.0
C344 C 0.75355 0.54795 0.48698 0.0
C345 C 0.75987 0.57348 0.45229 0.0
C346 C 0.75046 0.54639 0.55733 0.0
C347 C 0.75327 0.57018 0.59404 0.0
C348 C 0.7565 0.59453 0.5588 0.0
C349 C 0.75974 0.59617 0.48822 0.0
C350 C 0.75873 0.57154 0.66788 0.0
C351 C 0.78532 0.59407 0.69166 0.0
C352 C 0.74098 0.54826 0.71161 0.0
C353 C 0.71193 0.52481 0.69086 0.0
C354 C 0.69135 0.53148 0.66554 0.0
C355 C 0.66394 0.50932 0.64648 0.0
C356 C 0.65688 0.4804 0.65199 0.0
C357 C 0.67718 0.47356 0.67733 0.0
C358 C 0.70455 0.49562 0.69705 0.0
C359 C 0.79283 0.57996 0.98572 0.0
C360 C 0.78851 0.55266 0.00494 0.0
C361 C 0.792 0.58636 0.9173 0.0
C362 C 0.78731 0.56572 0.86756 0.0
C363 C 0.78642 0.53989 0.88626 0.0
C364 C 0.78694 0.53334 0.9546 0.0
C365 C 0.77846 0.56871 0.7985 0.0
C366 C 0.75113 0.54714 0.77633 0.0
C367 C 0.79556 0.59283 0.75637 0.0
C368 C 0.82479 0.61605 0.77668 0.0
C369 C 0.84615 0.60936 0.79583 0.0
C370 C 0.87368 0.63139 0.81471 0.0
C371 C 0.88016 0.66022 0.81423 0.0
C372 C 0.85914 0.66708 0.79459 0.0
C373 C 0.83158 0.64513 0.77565 0.0
H374 H 0.90148 0.67725 0.82889 0.0
H375 H 0.63567 0.46329 0.63687 0.0
H376 H 0.27303 0.78457 0.13278 0.0
H377 H 0.26197 0.78807 0.01397 0.0
H378 H 0.19017 0.79851 0.07607 0.0
H379 H 0.20132 0.79558 0.19515 0.0
H380 H 0.17593 0.74779 -0.00182 0.0
H381 H 0.23658 0.84961 0.98641 0.0
H382 H 0.28057 0.89701 0.00264 0.0
H383 H 0.32865 0.87093 0.87457 0.0
H384 H 0.28508 0.82319 0.85839 0.0
H385 H 0.15256 0.76238 0.63562 0.0
H386 H 0.15343 0.76074 0.75966 0.0
H387 H 0.22937 0.75194 0.75093 0.0
H388 H 0.22854 0.75309 0.62703 0.0
H389 H 0.23594 0.80609 0.80316 0.0
H390 H 0.17806 0.70294 0.82838 0.0
H391 H 0.13527 0.65447 0.81464 0.0
H392 H 0.08287 0.68245 0.91911 0.0
H393 H 0.1254 0.73127 0.93242 0.0
C394 C 0.25537 0.78837 0.12119 0.0
C395 C 0.23754 0.789 0.1729 0.0
C396 C 0.24924 0.79062 0.05346 0.0
C397 C 0.22512 0.79326 0.03686 0.0
C398 C 0.20881 0.7964 0.08839 0.0
C399 C 0.21519 0.79461 0.1562 0.0
C400 C 0.21417 0.78717 0.967 0.0
C401 C 0.18859 0.76087 0.95528 0.0
C402 C 0.2312 0.80402 0.91184 0.0
C403 C 0.25757 0.83267 0.92173 0.0
C404 C 0.2566 0.85385 0.96225 0.0
C405 C 0.28145 0.88082 0.97131 0.0
C406 C 0.30741 0.88695 0.93981 0.0
C407 C 0.30854 0.86614 0.899 0.0
C408 C 0.28375 0.83913 0.88981 0.0
C409 C 0.1689 0.75915 0.66003 0.0
C410 C 0.19126 0.75914 0.62204 0.0
C411 C 0.16917 0.75796 0.73079 0.0
C412 C 0.19176 0.75674 0.76371 0.0
C413 C 0.2119 0.75304 0.72577 0.0
C414 C 0.21153 0.75397 0.65514 0.0
C415 C 0.19842 0.76618 0.83455 0.0
C416 C 0.22304 0.79325 0.84607 0.0
C417 C 0.18058 0.74996 0.8894 0.0
C418 C 0.15481 0.7209 0.88009 0.0
C419 C 0.15733 0.69888 0.84735 0.0
C420 C 0.13315 0.6713 0.83997 0.0
C421 C 0.10631 0.66542 0.86565 0.0
C422 C 0.10365 0.68708 0.89898 0.0
C423 C 0.1278 0.71471 0.90644 0.0
H424 H 0.0876 0.64404 0.85998 0.0
H425 H 0.32664 0.90784 0.94692 0.0
H426 H 0.42144 0.11996 0.54964 0.0
H427 H 0.40004 0.06777 0.52871 0.0
H428 H 0.32109 0.06356 0.46219 0.0
H429 H 0.34207 0.11518 0.4826 0.0
H430 H 0.3121 0.02305 0.56115 0.0
H431 H 0.36655 0.05927 0.34886 0.0
H432 H 0.41159 0.08724 0.28263 0.0
H433 H 0.44676 0.03821 0.37325 0.0
H434 H 0.40203 0.01016 0.44052 0.0
H435 H 0.22179 0.89413 0.40566 0.0
H436 H 0.25668 0.94516 0.42217 0.0
H437 H 0.32304 0.92401 0.46702 0.0
H438 H 0.28795 0.87232 0.44865 0.0
H439 H 0.3448 0.9756 0.39463 0.0
H440 H 0.29046 0.93618 0.59756 0.0
H441 H 0.24679 0.90789 0.66794 0.0
H442 H 0.21373 0.96281 0.60419 0.0
H443 H 0.25705 0.99124 0.53278 0.0
C444 C 0.39968 0.10795 0.52961 0.0
C445 C 0.38342 0.12174 0.51822 0.0
C446 C 0.38749 0.07815 0.51768 0.0
C447 C 0.35891 0.06175 0.49411 0.0
C448 C 0.3431 0.07573 0.48074 0.0
C449 C 0.3552 0.10533 0.49235 0.0
C450 C 0.34443 0.02978 0.48647 0.0
C451 C 0.3192 0.01272 0.52449 0.0
C452 C 0.35438 0.0161 0.44097 0.0
C453 C 0.38111 0.03286 0.40022 0.0
C454 C 0.38399 0.05462 0.35502 0.0
C455 C 0.40943 0.07044 0.31721 0.0
C456 C 0.43206 0.06457 0.32388 0.0
C457 C 0.42924 0.04278 0.3682 0.0
C458 C 0.40385 0.0269 0.40611 0.0
C459 C 0.24389 0.90028 0.41818 0.0
C460 C 0.25201 0.87917 0.42684 0.0
C461 C 0.26382 0.9295 0.42782 0.0
C462 C 0.29229 0.93838 0.44773 0.0
C463 C 0.30111 0.91761 0.45231 0.0
C464 C 0.28108 0.88813 0.44174 0.0
C465 C 0.31177 0.96913 0.46718 0.0
C466 C 0.33794 0.98589 0.43195 0.0
C467 C 0.30298 0.98262 0.51617 0.0
C468 C 0.27695 0.96574 0.5595 0.0
C469 C 0.2738 0.94212 0.59824 0.0
C470 C 0.24912 0.92608 0.63837 0.0
C471 C 0.22748 0.93352 0.64044 0.0
C472 C 0.23051 0.95708 0.60253 0.0
C473 C 0.25515 0.9732 0.56232 0.0
H474 H 0.20838 0.92106 0.6715 0.0
H475 H 0.45174 0.07685 0.2946 0.0
H476 H 0.36446 0.24234 0.73409 0.0
H477 H 0.34846 0.27778 0.742 0.0
H478 H 0.37883 0.30671 0.53749 0.0
H479 H 0.39658 0.27213 0.53107 0.0
H480 H 0.38579 0.35146 0.61188 0.0
H481 H 0.30628 0.2554 0.5712 0.0
H482 H 0.27594 0.20298 0.59312 0.0
H483 H 0.25575 0.2203 0.79279 0.0
H484 H 0.28621 0.27282 0.77224 0.0
H485 H 0.24701 0.36353 0.58782 0.0
H486 H 0.27713 0.34145 0.57026 0.0
H487 H 0.33008 0.38898 0.74081 0.0
H488 H 0.30055 0.41183 0.75752 0.0
H489 H 0.28222 0.30746 0.6766 0.0
H490 H 0.38161 0.40493 0.71377 0.0
H491 H 0.40998 0.45656 0.68109 0.0
H492 H 0.38724 0.434 0.47179 0.0
H493 H 0.35829 0.38231 0.50377 0.0
C494 C 0.36807 0.25653 0.69112 0.0
C495 C 0.38127 0.25423 0.63155 0.0
C496 C 0.35885 0.27673 0.69558 0.0
C497 C 0.36156 0.29429 0.63958 0.0
C498 C 0.37626 0.29321 0.58118 0.0
C499 C 0.3863 0.27343 0.57741 0.0
C500 C 0.3471 0.31199 0.64086 0.0
C501 C 0.36316 0.34175 0.62605 0.0
C502 C 0.31742 0.29949 0.65839 0.0
C503 C 0.29864 0.26797 0.67033 0.0
C504 C 0.29543 0.24799 0.61983 0.0
C505 C 0.27822 0.21828 0.63201 0.0
C506 C 0.26397 0.20831 0.69435 0.0
C507 C 0.2668 0.22805 0.74454 0.0
C508 C 0.28399 0.25778 0.73262 0.0
C509 C 0.26548 0.36978 0.62063 0.0
C510 C 0.2714 0.38936 0.67415 0.0
C511 C 0.28269 0.3572 0.61043 0.0
C512 C 0.30608 0.36386 0.6536 0.0
C513 C 0.31267 0.38416 0.70567 0.0
C514 C 0.29565 0.39705 0.71544 0.0
C515 C 0.32104 0.34683 0.64923 0.0
C516 C 0.30492 0.3171 0.66301 0.0
C517 C 0.35039 0.35923 0.63013 0.0
C518 C 0.36771 0.39003 0.61112 0.0
C519 C 0.38259 0.4111 0.6609 0.0
C520 C 0.39872 0.44032 0.64254 0.0
C521 C 0.40037 0.44857 0.57441 0.0
C522 C 0.38586 0.42761 0.52454 0.0
C523 C 0.36952 0.39838 0.54277 0.0
H524 H 0.41293 0.47119 0.56024 0.0
H525 H 0.25069 0.1853 0.70373 0.0
H526 H 0.90718 0.23259 0.94244 0.0
H527 H 0.95709 0.26467 0.90857 0.0
H528 H 0.93558 0.32881 0.84281 0.0
H529 H 0.88483 0.29617 0.87525 0.0
H530 H 0.97171 0.32504 0.75294 0.0
H531 H 0.97226 0.33828 -0.00917 0.0
H532 H 0.96136 0.32453 0.1116 0.0
H533 H 0.00988 0.28028 0.10244 0.0
H534 H 0.02072 0.29336 0.98131 0.0
H535 H 0.13287 0.41625 0.74592 0.0
H536 H 0.08165 0.40042 0.76969 0.0
H537 H 0.0646 0.31354 0.80584 0.0
H538 H 0.11475 0.32864 0.78138 0.0
H539 H 0.04923 0.34122 0.91581 0.0
H540 H 0.04016 0.32265 0.66951 0.0
H541 H 0.05173 0.3389 0.5502 0.0
H542 H 0.02098 0.39859 0.58072 0.0
H543 H 0.00942 0.38283 0.70044 0.0
C544 C 0.91292 0.25355 0.92114 0.0
C545 C 0.89197 0.26188 0.91233 0.0
C546 C 0.9416 0.27196 0.90191 0.0
C547 C 0.95029 0.29944 0.87438 0.0
C548 C 0.92942 0.3078 0.86442 0.0
C549 C 0.90049 0.28918 0.88334 0.0
C550 C 0.98124 0.31893 0.85625 0.0
C551 C 0.98869 0.32916 0.78901 0.0
C552 C 1.00349 0.32457 0.90337 0.0
C553 C 0.99724 0.31677 0.97666 0.0
C554 C 0.98049 0.32548 0.01438 0.0
C555 C 0.97433 0.31781 0.08297 0.0
C556 C 0.98492 0.30154 0.11466 0.0
C557 C 1.00172 0.29292 0.07783 0.0
C558 C 0.00792 0.3005 0.0092 0.0
C559 C 0.11805 0.3937 0.75778 0.0
C560 C 0.12805 0.37381 0.7624 0.0
C561 C 0.08887 0.38473 0.77144 0.0
C562 C 0.06951 0.35588 0.79014 0.0
C563 C 0.07925 0.33593 0.79201 0.0
C564 C 0.10804 0.3447 0.77788 0.0
C565 C 0.03945 0.34612 0.81223 0.0
C566 C 0.03223 0.33773 0.8804 0.0
C567 C 0.01762 0.34267 0.76635 0.0
C568 C 0.02423 0.35181 0.69415 0.0
C569 C 0.03607 0.3394 0.65094 0.0
C570 C 0.04256 0.34847 0.58319 0.0
C571 C 0.03718 0.36983 0.55796 0.0
C572 C 0.02516 0.38207 0.60035 0.0
C573 C 0.0186 0.37304 0.66811 0.0
H574 H 0.04226 0.37686 0.50555 0.0
H575 H 0.98013 0.29563 0.16774 0.0
H576 H 0.63435 0.87896 0.90269 0.0
H577 H 0.65506 0.93032 0.87677 0.0
H578 H 0.61949 0.94198 0.06315 0.0
H579 H 0.59807 0.89005 0.08892 0.0
H580 H 0.61941 0.97743 0.95532 0.0
H581 H 0.68676 0.95586 0.06561 0.0
H582 H 0.71304 0.92921 0.08175 0.0
H583 H 0.75078 0.95543 0.88284 0.0
H584 H 0.72441 0.98192 0.8652 0.0
H585 H 0.7246 0.12779 -0.00261 0.0
H586 H 0.68831 0.07639 0.00053 0.0
H587 H 0.73349 0.06049 0.83911 0.0
H588 H 0.77089 0.11178 0.83973 0.0
H589 H 0.72637 0.02662 0.93595 0.0
H590 H 0.66041 0.05111 0.82817 0.0
H591 H 0.63469 0.07848 0.81566 0.0
H592 H 0.5946 0.04786 0.01096 0.0
H593 H 0.62046 0.02069 0.02515 0.0
C594 C 0.63044 0.89231 0.93764 0.0
C595 C 0.61492 0.88057 -0.00165 0.0
C596 C 0.6423 0.92168 0.92272 0.0
C597 C 0.63934 0.94013 0.96865 0.0
C598 C 0.62212 0.92815 0.02708 0.0
C599 C 0.60991 0.89851 0.04178 0.0
C600 C 0.65674 0.97205 0.95854 0.0
C601 C 0.64282 0.98833 0.95154 0.0
C602 C 0.68725 0.98622 0.95298 0.0
C603 C 0.70345 0.97066 0.96389 0.0
C604 C 0.70054 0.9558 0.02518 0.0
C605 C 0.71546 0.94074 0.03461 0.0
C606 C 0.73352 0.94058 0.98329 0.0
C607 C 0.73677 0.95555 0.92252 0.0
C608 C 0.72187 0.97062 0.91281 0.0
C609 C 0.72596 0.11348 0.96042 0.0
C610 C 0.75009 0.12376 0.91714 0.0
C611 C 0.70521 0.08398 0.96235 0.0
C612 C 0.70785 0.06428 0.91976 0.0
C613 C 0.73087 0.0751 0.87265 0.0
C614 C 0.75203 0.10449 0.87208 0.0
C615 C 0.68918 0.03233 0.9303 0.0
C616 C 0.70295 0.01594 0.93852 0.0
C617 C 0.6586 0.01826 0.93709 0.0
C618 C 0.64253 0.03402 0.92788 0.0
C619 C 0.64621 0.05032 0.86857 0.0
C620 C 0.63161 0.0658 0.86119 0.0
C621 C 0.61306 0.06494 0.91252 0.0
C622 C 0.60899 0.04851 0.97125 0.0
C623 C 0.62359 0.03304 0.97895 0.0
H624 H 0.60181 0.07698 0.90675 0.0
H625 H 0.74504 0.92889 -0.00934 0.0
H626 H 0.76466 0.6385 0.06946 0.0
H627 H 0.73541 0.66072 0.04288 0.0
H628 H 0.68148 0.61892 0.218 0.0
H629 H 0.71006 0.59552 0.24302 0.0
H630 H 0.64944 0.62248 0.11752 0.0
H631 H 0.7385 0.68939 0.22684 0.0
H632 H 0.79141 0.71619 0.24324 0.0
H633 H 0.80302 0.75511 0.04578 0.0
H634 H 0.7502 0.72828 0.02792 0.0
H635 H 0.60189 0.72715 0.14278 0.0
H636 H 0.61886 0.69252 0.15823 0.0
H637 H 0.68175 0.73507 -0.00214 0.0
H638 H 0.66625 0.77094 0.98659 0.0
H639 H 0.70746 0.72945 0.09819 0.0
H640 H 0.61628 0.662 -0.00907 0.0
H641 H 0.56306 0.63701 0.98181 0.0
H642 H 0.55476 0.60029 0.1808 0.0
H643 H 0.60791 0.62542 0.19153 0.0
C644 C 0.74624 0.63362 0.10156 0.0
C645 C 0.7398 0.61552 0.15867 0.0
C646 C 0.7296 0.64643 0.08655 0.0
C647 C 0.7067 0.64217 0.1295 0.0
C648 C 0.69912 0.6227 0.18431 0.0
C649 C 0.71546 0.60934 0.19858 0.0
C650 C 0.69233 0.65975 0.11983 0.0
C651 C 0.66207 0.64589 0.11365 0.0
C652 C 0.7087 0.69032 0.11489 0.0
C653 C 0.74044 0.70666 0.12586 0.0
C654 C 0.75236 0.70355 0.1868 0.0
C655 C 0.78233 0.71875 0.19637 0.0
C656 C 0.80057 0.73729 0.14553 0.0
C657 C 0.78888 0.74073 0.08509 0.0
C658 C 0.75893 0.72556 0.07526 0.0
C659 C 0.61882 0.72853 0.10977 0.0
C660 C 0.63271 0.7515 0.06325 0.0
C661 C 0.62851 0.70869 0.11845 0.0
C662 C 0.65154 0.71087 0.07887 0.0
C663 C 0.6641 0.7329 0.0294 0.0
C664 C 0.6551 0.75326 0.02244 0.0
C665 C 0.66455 0.69226 0.09266 0.0
C666 C 0.69469 0.70602 0.10092 0.0
C667 C 0.64797 0.66171 0.09984 0.0
C668 C 0.61606 0.64572 0.09216 0.0
C669 C 0.60309 0.64863 0.03276 0.0
C670 C 0.57294 0.63447 0.02735 0.0
C671 C 0.55554 0.61711 0.08072 0.0
C672 C 0.56826 0.61375 0.13949 0.0
C673 C 0.59839 0.62791 0.14523 0.0
H674 H 0.53221 0.60625 0.07651 0.0
H675 H 0.82376 0.74903 0.15301 0.0
H676 H 0.89135 0.66682 0.3325 0.0
H677 H 0.94252 0.68264 0.33944 0.0
H678 H 0.92978 0.61124 0.21324 0.0
H679 H 0.87757 0.59452 0.20754 0.0
H680 H 0.96919 0.62238 0.31937 0.0
H681 H 0.95704 0.67754 0.14173 0.0
H682 H 0.9384 0.70743 0.09156 0.0
H683 H 0.98208 0.77207 0.24466 0.0
H684 H 1.00069 0.74245 0.29621 0.0
H685 H 0.12753 0.70322 0.29881 0.0
H686 H 0.0755 0.67316 0.27282 0.0
H687 H 0.05997 0.73749 0.3654 0.0
H688 H 0.11135 0.76767 0.38758 0.0
H689 H 0.03507 0.72439 0.25068 0.0
H690 H 0.04138 0.66761 0.43823 0.0
H691 H 0.0591 0.63797 0.494 0.0
H692 H 0.02652 0.57741 0.32909 0.0
H693 H 0.00894 0.6069 0.27198 0.0
C694 C 0.89925 0.65434 0.30608 0.0
C695 C 0.88041 0.62968 0.26835 0.0
C696 C 0.92861 0.66346 0.31017 0.0
C697 C 0.94016 0.64858 0.2755 0.0
C698 C 0.92135 0.6232 0.2399 0.0
C699 C 0.89159 0.61374 0.23648 0.0
C700 C 0.97205 0.6607 0.2752 0.0
C701 C 0.98371 0.64451 0.30324 0.0
C702 C 0.991 0.68965 0.25461 0.0
C703 C 0.98022 0.70773 0.22285 0.0
C704 C 0.96259 0.69809 0.1648 0.0
C705 C 0.95203 0.71499 0.13613 0.0
C706 C 0.95905 0.74162 0.16491 0.0
C707 C 0.97669 0.75146 0.22235 0.0
C708 C 0.9873 0.73465 0.25121 0.0
C709 C 0.11279 0.71065 0.31368 0.0
C710 C 0.12338 0.73787 0.34424 0.0
C711 C 0.0831 0.69348 0.29917 0.0
C712 C 0.06366 0.70305 0.31689 0.0
C713 C 0.0744 0.72971 0.35016 0.0
C714 C 0.10382 0.74698 0.36296 0.0
C715 C 0.03236 0.68672 0.29859 0.0
C716 C 0.02075 0.7021 0.26613 0.0
C717 C 0.01362 0.65725 0.31593 0.0
C718 C 0.02418 0.63963 0.35047 0.0
C719 C 0.03821 0.6481 0.41364 0.0
C720 C 0.04819 0.6313 0.44553 0.0
C721 C 0.04403 0.60588 0.41499 0.0
C722 C 0.0298 0.59714 0.35261 0.0
C723 C 0.01982 0.61388 0.32048 0.0
H724 H 0.05177 0.59291 0.43976 0.0
H725 H 0.95082 0.75466 0.14268 0.0
H726 H 0.47769 0.31603 0.50855 0.0
H727 H 0.50481 0.36467 0.45976 0.0
H728 H 0.57793 0.38265 0.58538 0.0
H729 H 0.55131 0.33356 0.63219 0.0
H730 H 0.56335 0.43464 0.52528 0.0
H731 H 0.5892 0.35621 0.47432 0.0
H732 H 0.57192 0.30492 0.44749 0.0
H733 H 0.51922 0.30821 0.28693 0.0
H734 H 0.53588 0.35939 0.31376 0.0
H735 H 0.70102 0.51111 0.35664 0.0
H736 H 0.65673 0.48657 0.4255 0.0
H737 H 0.60717 0.44639 0.24484 0.0
H738 H 0.65133 0.47011 0.1767 0.0
H739 H 0.60231 0.40712 0.32778 0.0
H740 H 0.59375 0.48932 0.34369 0.0
H741 H 0.60564 0.53964 0.36257 0.0
H742 H 0.61658 0.53083 0.57567 0.0
H743 H 0.60585 0.48068 0.55785 0.0
C744 C 0.49883 0.33098 0.52906 0.0
C745 C 0.51252 0.3211 0.57387 0.0
C746 C 0.51435 0.35877 0.5009 0.0
C747 C 0.54339 0.3771 0.51874 0.0
C748 C 0.55546 0.36885 0.57144 0.0
C749 C 0.54022 0.34082 0.59831 0.0
C750 C 0.56302 0.39975 0.47045 0.0
C751 C 0.57222 0.42899 0.48221 0.0
C752 C 0.57329 0.39195 0.41276 0.0
C753 C 0.56348 0.36136 0.3965 0.0
C754 C 0.57376 0.34587 0.43368 0.0
C755 C 0.5641 0.31686 0.41847 0.0
C756 C 0.54436 0.30326 0.36577 0.0
C757 C 0.53435 0.31869 0.32801 0.0
C758 C 0.54388 0.34768 0.3432 0.0
C759 C 0.68047 0.49804 0.33141 0.0
C760 C 0.67953 0.49217 0.26158 0.0
C761 C 0.65513 0.48397 0.3708 0.0
C762 C 0.62862 0.46426 0.34049 0.0
C763 C 0.62737 0.46121 0.26951 0.0
C764 C 0.6526 0.47487 0.23052 0.0
C765 C 0.60391 0.44291 0.38276 0.0
C766 C 0.59361 0.41346 0.37004 0.0
C767 C 0.59227 0.45082 0.43816 0.0
C768 C 0.59959 0.48129 0.44914 0.0
C769 C 0.59932 0.49822 0.39443 0.0
C770 C 0.60578 0.52673 0.40497 0.0
C771 C 0.61212 0.5385 0.47021 0.0
C772 C 0.61195 0.52175 0.52507 0.0
C773 C 0.60576 0.49329 0.51473 0.0
H774 H 0.61699 0.56054 0.47833 0.0
H775 H 0.53693 0.28082 0.35402 0.0
H776 H 0.15815 0.47871 0.73081 0.0
H777 H 0.13603 0.50661 0.68835 0.0
H778 H 0.21896 0.58517 0.70626 0.0
H779 H 0.23906 0.55872 0.75671 0.0
H780 H 0.18715 0.60161 0.72418 0.0
H781 H 0.18065 0.5323 0.54228 0.0
H782 H 0.16015 0.48298 0.49536 0.0
H783 H 0.07413 0.46803 0.52833 0.0
H784 H 0.0942 0.51724 0.57548 0.0
H785 H 0.20225 0.65144 0.36136 0.0
H786 H 0.18142 0.60992 0.43702 0.0
H787 H 0.15731 0.65613 0.57813 0.0
H788 H 0.17958 0.69869 0.50306 0.0
H789 H 0.13839 0.57189 0.50108 0.0
H790 H 0.17666 0.64616 0.7424 0.0
H791 H 0.21312 0.69612 0.77424 0.0
H792 H 0.26169 0.70453 0.59319 0.0
H793 H 0.2265 0.65429 0.56198 0.0
C794 C 0.17113 0.50209 0.72793 0.0
C795 C 0.20049 0.51631 0.74671 0.0
C796 C 0.15866 0.51806 0.7022 0.0
C797 C 0.17577 0.54826 0.69166 0.0
C798 C 0.20463 0.56217 0.71395 0.0
C799 C 0.21643 0.54668 0.74268 0.0
C800 C 0.16564 0.5661 0.65401 0.0
C801 C 0.17634 0.59485 0.67548 0.0
C802 C 0.15078 0.55763 0.59102 0.0
C803 C 0.13887 0.52814 0.56322 0.0
C804 C 0.15738 0.51839 0.53972 0.0
C805 C 0.14584 0.4905 0.51305 0.0
C806 C 0.11586 0.47234 0.50916 0.0
C807 C 0.09734 0.48207 0.5316 0.0
C808 C 0.10877 0.50994 0.55826 0.0
C809 C 0.19193 0.65264 0.40774 0.0
C810 C 0.19334 0.67867 0.4271 0.0
C811 C 0.1797 0.62863 0.45092 0.0
C812 C 0.16842 0.63 0.51445 0.0
C813 C 0.16646 0.65473 0.53006 0.0
C814 C 0.17906 0.67903 0.48693 0.0
C815 C 0.16384 0.60793 0.5673 0.0
C816 C 0.14912 0.57841 0.54995 0.0
C817 C 0.17775 0.61614 0.63124 0.0
C818 C 0.19839 0.64676 0.64877 0.0
C819 C 0.19501 0.65875 0.70918 0.0
C820 C 0.21553 0.68706 0.7273 0.0
C821 C 0.2394 0.70361 0.68527 0.0
C822 C 0.24304 0.69179 0.6254 0.0
C823 C 0.22288 0.66337 0.6076 0.0
H824 H 0.25522 0.72552 0.6994 0.0
H825 H 0.10696 0.45075 0.48859 0.0
H826 H 0.69323 0.16389 0.78069 0.0
H827 H 0.64308 0.14707 0.74723 0.0
H828 H 0.63604 0.19948 0.90414 0.0
H829 H 0.6867 0.21739 0.93542 0.0
H830 H 0.57955 0.13928 0.85788 0.0
H831 H 0.65648 0.23533 0.79189 0.0
H832 H 0.70401 0.27158 0.74578 0.0
H833 H 0.68467 0.22488 0.55784 0.0
H834 H 0.6375 0.18758 0.60414 0.0
H835 H 0.49857 0.19948 0.6887 0.0
H836 H 0.52415 0.18234 0.76204 0.0
H837 H 0.54863 0.15166 0.58552 0.0
H838 H 0.52373 0.16919 0.51252 0.0
H839 H 0.59392 0.19732 0.64894 0.0
H840 H 0.51265 0.10627 0.70869 0.0
H841 H 0.46396 0.07246 0.75321 0.0
H842 H 0.48899 0.11106 0.95054 0.0
H843 H 0.5377 0.14579 0.90686 0.0
C844 C 0.68054 0.17081 0.8098 0.0
C845 C 0.69363 0.192 0.86012 0.0
C846 C 0.65191 0.16114 0.79087 0.0
C847 C 0.636 0.17224 0.82293 0.0
C848 C 0.64792 0.19054 0.87916 0.0
C849 C 0.67681 0.20074 0.89702 0.0
C850 C 0.61065 0.17046 0.78792 0.0
C851 C 0.5825 0.15205 0.81246 0.0
C852 C 0.61466 0.18697 0.72843 0.0
C853 C 0.64376 0.20831 0.70212 0.0
C854 C 0.66268 0.23235 0.74146 0.0
C855 C 0.68949 0.25318 0.71514 0.0
C856 C 0.69734 0.25054 0.64891 0.0
C857 C 0.67853 0.2269 0.60912 0.0
C858 C 0.65188 0.20578 0.6356 0.0
C859 C 0.50815 0.18774 0.66607 0.0
C860 C 0.50954 0.18592 0.595 0.0
C861 C 0.52281 0.17798 0.70801 0.0
C862 C 0.53862 0.16605 0.67911 0.0
C863 C 0.53669 0.1609 0.60886 0.0
C864 C 0.52244 0.17091 0.56715 0.0
C865 C 0.56235 0.16567 0.71754 0.0
C866 C 0.59057 0.18414 0.6939 0.0
C867 C 0.55814 0.14941 0.77781 0.0
C868 C 0.52875 0.12895 0.80415 0.0
C869 C 0.50768 0.10792 0.76133 0.0
C870 C 0.48009 0.08854 0.78647 0.0
C871 C 0.47335 0.08976 0.85459 0.0
C872 C 0.49423 0.11033 0.89773 0.0
C873 C 0.52183 0.12987 0.87278 0.0
H874 H 0.45199 0.07469 0.87402 0.0
H875 H 0.71802 0.26681 0.62841 0.0
H876 H 0.53483 0.69112 -0.00494 0.0
H877 H 0.50603 0.64396 0.94125 0.0
H878 H 0.44435 0.61644 0.10571 0.0
H879 H 0.47249 0.66404 0.15851 0.0
H880 H 0.45453 0.56945 0.01286 0.0
H881 H 0.42327 0.64288 0.02169 0.0
H882 H 0.43368 0.69338 0.01411 0.0
H883 H 0.46995 0.70131 0.8148 0.0
H884 H 0.46071 0.65117 0.82244 0.0
H885 H 0.31208 0.48956 0.85938 0.0
H886 H 0.35624 0.51554 0.92753 0.0
H887 H 0.40254 0.56565 0.75102 0.0
H888 H 0.35861 0.54019 0.68345 0.0
H889 H 0.40336 0.59946 0.85016 0.0
H890 H 0.42135 0.52108 0.82972 0.0
H891 H 0.40974 0.47024 0.83596 0.0
H892 H 0.39779 0.46992 0.05195 0.0
H893 H 0.40884 0.52068 0.04676 0.0
C894 C 0.51609 0.67449 0.02194 0.0
C895 C 0.50565 0.68135 0.0805 0.0
C896 C 0.49957 0.6475 -0.00908 0.0
C897 C 0.47288 0.62689 0.01908 0.0
C898 C 0.46492 0.63203 0.08329 0.0
C899 C 0.48104 0.65927 0.11349 0.0
C900 C 0.45033 0.60492 0.97423 0.0
C901 C 0.44312 0.57579 0.97746 0.0
C902 C 0.43584 0.61336 0.92744 0.0
C903 C 0.44181 0.64357 0.92316 0.0
C904 C 0.43394 0.6556 0.9768 0.0
C905 C 0.4396 0.68412 0.97247 0.0
C906 C 0.45264 0.70062 0.91418 0.0
C907 C 0.46011 0.68862 0.86019 0.0
C908 C 0.45475 0.66019 0.86456 0.0
C909 C 0.33199 0.50529 0.83459 0.0
C910 C 0.33188 0.51309 0.76625 0.0
C911 C 0.35722 0.5202 0.87365 0.0
C912 C 0.38269 0.54281 0.84458 0.0
C913 C 0.38315 0.54849 0.77474 0.0
C914 C 0.35803 0.53385 0.73606 0.0
C915 C 0.40715 0.56351 0.88795 0.0
C916 C 0.41473 0.59275 0.88477 0.0
C917 C 0.42173 0.55491 0.93443 0.0
C918 C 0.41552 0.52456 0.93778 0.0
C919 C 0.41596 0.5101 0.87848 0.0
C920 C 0.40954 0.48131 0.88182 0.0
C921 C 0.40292 0.46683 0.94429 0.0
C922 C 0.40284 0.48115 0.00359 0.0
C923 C 0.40918 0.50992 0.00048 0.0
H924 H 0.39794 0.44453 0.94679 0.0
H925 H 0.4568 0.72262 0.9107 0.0
H926 H 0.80085 0.4661 0.34128 0.0
H927 H 0.82044 0.4356 0.30353 0.0
H928 H 0.84883 0.48475 0.11641 0.0
H929 H 0.83206 0.5166 0.15731 0.0
H930 H 0.79833 0.40056 0.21162 0.0
H931 H 0.88763 0.47205 0.01702 0.0
H932 H 0.92986 0.5213 0.00888 0.0
H933 H 0.93995 0.52359 0.22568 0.0
H934 H 0.8978 0.47426 0.23511 0.0
H935 H 0.82238 0.3559 0.87536 0.0
H936 H 0.83766 0.39425 0.9588 0.0
H937 H 0.8337 0.33588 0.11616 0.0
H938 H 0.81869 0.29707 0.03133 0.0
H939 H 0.88056 0.42247 0.05767 0.0
H940 H 0.79741 0.34444 0.24433 0.0
H941 H 0.75451 0.29532 0.24562 0.0
H942 H 0.73318 0.30817 0.04292 0.0
H943 H 0.77571 0.35744 0.04095 0.0
C944 C 0.81309 0.47145 0.29424 0.0
C945 C 0.8155 0.49402 0.25281 0.0
C946 C 0.82387 0.45373 0.27199 0.0
C947 C 0.83628 0.45759 0.20679 0.0
C948 C 0.84046 0.48156 0.16776 0.0
C949 C 0.83077 0.49995 0.19125 0.0
C950 C 0.84002 0.43418 0.175 0.0
C951 C 0.81697 0.40547 0.1802 0.0
C952 C 0.86378 0.44011 0.132 0.0
C953 C 0.88958 0.46946 0.12674 0.0
C954 C 0.89902 0.48295 0.0629 0.0
C955 C 0.92286 0.51093 0.05808 0.0
C956 C 0.93758 0.52556 0.11673 0.0
C957 C 0.92849 0.51224 0.18032 0.0
C958 C 0.90458 0.4843 0.18545 0.0
C959 C 0.82521 0.35121 0.92748 0.0
C960 C 0.81838 0.32312 0.94739 0.0
C961 C 0.83428 0.37335 0.97507 0.0
C962 C 0.83647 0.3679 0.04385 0.0
C963 C 0.83189 0.34049 0.06331 0.0
C964 C 0.82311 0.31829 0.01515 0.0
C965 C 0.83903 0.38955 0.09485 0.0
C966 C 0.86285 0.41776 0.09218 0.0
C967 C 0.8161 0.38332 0.1403 0.0
C968 C 0.78973 0.35441 0.14243 0.0
C969 C 0.7834 0.3368 0.20035 0.0
C970 C 0.75921 0.30895 0.20112 0.0
C971 C 0.74119 0.29859 0.14431 0.0
C972 C 0.74717 0.31617 0.08682 0.0
C973 C 0.77128 0.34406 0.08589 0.0
H974 H 0.72258 0.27696 0.14488 0.0
H975 H 0.95603 0.54723 0.1129 0.0
H976 H 0.45584 0.8003 0.04677 0.0
H977 H 0.43531 0.82378 0.11399 0.0
H978 H 0.50491 0.85151 0.25806 0.0
H979 H 0.52534 0.82695 0.19154 0.0
H980 H 0.44874 0.81449 0.31055 0.0
H981 H 0.49575 0.90193 0.17895 0.0
H982 H 0.51096 0.92958 0.07151 0.0
H983 H 0.42206 0.89501 0.0148 0.0
H984 H 0.40627 0.86685 0.12144 0.0
H985 H 0.34262 0.81913 0.50155 0.0
H986 H 0.39233 0.84223 0.45733 0.0
H987 H 0.36023 0.84243 0.25586 0.0
H988 H 0.31188 0.82328 0.30175 0.0
H989 H 0.41044 0.87891 0.24893 0.0
H990 H 0.36595 0.78006 0.34317 0.0
H991 H 0.34608 0.74353 0.43514 0.0
H992 H 0.42516 0.79095 0.5471 0.0
H993 H 0.44528 0.82794 0.45617 0.0
C994 C 0.4672 0.81185 0.0921 0.0
C995 C 0.49186 0.81119 0.11472 0.0
C996 C 0.45554 0.82558 0.13014 0.0
C997 C 0.46837 0.83915 0.19151 0.0
C998 C 0.49445 0.84076 0.21133 0.0
C999 C 0.50621 0.82691 0.17309 0.0
C1000 C 0.45143 0.84632 0.23972 0.0
C1001 C 0.44137 0.82956 0.29901 0.0
C1002 C 0.44044 0.86466 0.22187 0.0
C1003 C 0.44983 0.88228 0.15845 0.0
C1004 C 0.47942 0.90017 0.14355 0.0
C1005 C 0.48815 0.91593 0.08273 0.0
C1006 C 0.46749 0.91407 0.03638 0.0
C1007 C 0.43805 0.89649 0.05084 0.0
C1008 C 0.42919 0.88069 0.11159 0.0
C1009 C 0.34668 0.82576 0.4487 0.0
C1010 C 0.3236 0.81963 0.405 0.0
C1011 C 0.37498 0.83836 0.42291 0.0
C1012 C 0.38012 0.84275 0.3523 0.0
C1013 C 0.35728 0.83921 0.31031 0.0
C1014 C 0.32944 0.82821 0.33665 0.0
C1015 C 0.40726 0.84651 0.32004 0.0
C1016 C 0.41899 0.865 0.26312 0.0
C1017 C 0.41917 0.82887 0.33848 0.0
C1018 C 0.40695 0.80687 0.39342 0.0
C1019 C 0.379 0.78272 0.38762 0.0
C1020 C 0.36769 0.76197 0.43954 0.0
C1021 C 0.38431 0.76497 0.49703 0.0
C1022 C 0.41227 0.78872 0.50271 0.0
C1023 C 0.4236 0.80961 0.4511 0.0
H1024 H 0.37555 0.74885 0.53709 0.0
H1025 H 0.4743 0.92624 -0.01073 0.0
loop_
_geom_bond_atom_site_label_1
_geom_bond_atom_site_label_2
_geom_bond_distance
_geom_bond_site_symmetry_2
_ccdc_geom_bond_type
O0 Mg1 1.990 . S
O0 C14 1.253 . S
Mg1 O0 1.990 . S
Mg1 O4 2.180 . S
Mg1 O5 2.117 . S
Mg1 O19 2.030 . S
O2 Mg3 2.072 . S
O2 C14 1.260 . S
Mg3 O2 2.072 . S
Mg3 O4 2.099 . S
Mg3 O6 2.079 . S
Mg3 O7 2.072 . S
Mg3 O9 2.099 . S
Mg3 O20 2.079 . S
O4 Mg1 2.180 . S
O4 Mg3 2.099 . S
O4 C15 1.279 . S
O5 Mg1 2.117 . S
O5 C15 1.250 . S
O6 Mg3 2.079 . S
O6 C16 1.264 . S
O7 Mg3 2.072 . S
O7 C17 1.260 . S
Mg8 O9 2.180 . S
Mg8 O10 2.030 . S
Mg8 O11 1.990 . S
Mg8 O12 2.117 . S
O9 Mg3 2.099 . S
O9 Mg8 2.180 . S
O9 C18 1.279 . S
O10 Mg8 2.030 . S
O10 C16 1.248 . S
O11 Mg8 1.990 . S
O11 C17 1.253 . S
O12 Mg8 2.117 . S
O12 C18 1.250 . S
C13 O19 1.248 . S
C13 O20 1.264 . S
C14 O0 1.253 . S
C14 O2 1.260 . S
C15 O4 1.279 . S
C15 O5 1.250 . S
C16 O6 1.264 . S
C16 O10 1.248 . S
C17 O7 1.260 . S
C17 O11 1.253 . S
C18 O9 1.279 . S
C18 O12 1.250 . S
O19 Mg1 2.030 . S
O19 C13 1.248 . S
O20 Mg3 2.079 . S
O20 C13 1.264 . S
O21 Mg22 1.990 . S
O21 C35 1.253 . S
Mg22 O21 1.990 . S
Mg22 O25 2.180 . S
Mg22 O26 2.117 . S
Mg22 O40 2.030 . S
O23 Mg24 2.072 . S
O23 C35 1.260 . S
Mg24 O23 2.072 . S
Mg24 O25 2.099 . S
Mg24 O27 2.079 . S
Mg24 O28 2.072 . S
Mg24 O30 2.099 . S
Mg24 O41 2.079 . S
O25 Mg22 2.180 . S
O25 Mg24 2.099 . S
O25 C36 1.279 . S
O26 Mg22 2.117 . S
O26 C36 1.250 . S
O27 Mg24 2.079 . S
O27 C37 1.264 . S
O28 Mg24 2.072 . S
O28 C38 1.260 . S
Mg29 O30 2.180 . S
Mg29 O31 2.030 . S
Mg29 O32 1.990 . S
Mg29 O33 2.117 . S
O30 Mg24 2.099 . S
O30 Mg29 2.180 . S
O30 C39 1.279 . S
O31 Mg29 2.030 . S
O31 C37 1.248 . S
O32 Mg29 1.990 . S
O32 C38 1.253 . S
O33 Mg29 2.117 . S
O33 C39 1.250 . S
C34 O40 1.248 . S
C34 O41 1.264 . S
C35 O21 1.253 . S
C35 O23 1.260 . S
C36 O25 1.279 . S
C36 O26 1.250 . S
C37 O27 1.264 . S
C37 O31 1.248 . S
C38 O28 1.260 . S
C38 O32 1.253 . S
C39 O30 1.279 . S
C39 O33 1.250 . S
O40 Mg22 2.030 . S
O40 C34 1.248 . S
O41 Mg24 2.079 . S
O41 C34 1.264 . S
O42 Mg43 1.990 . S
O42 C56 1.253 . S
Mg43 O42 1.990 . S
Mg43 O46 2.180 1_554 S
Mg43 O47 2.117 1_554 S
Mg43 O61 2.030 1_554 S
O44 Mg45 2.072 1_554 S
O44 C56 1.260 . S
Mg45 O44 2.072 1_556 S
Mg45 O46 2.099 . S
Mg45 O48 2.079 . S
Mg45 O49 2.072 . S
Mg45 O51 2.099 . S
Mg45 O62 2.079 . S
O46 Mg43 2.180 1_556 S
O46 Mg45 2.099 . S
O46 C57 1.279 . S
O47 Mg43 2.117 1_556 S
O47 C57 1.250 . S
O48 Mg45 2.079 . S
O48 C58 1.264 . S
O49 Mg45 2.072 . S
O49 C59 1.260 . S
Mg50 O51 2.180 . S
Mg50 O52 2.030 . S
Mg50 O53 1.990 . S
Mg50 O54 2.117 . S
O51 Mg45 2.099 . S
O51 Mg50 2.180 . S
O51 C60 1.279 . S
O52 Mg50 2.030 . S
O52 C58 1.248 . S
O53 Mg50 1.990 . S
O53 C59 1.253 . S
O54 Mg50 2.117 . S
O54 C60 1.250 . S
C55 O61 1.248 . S
C55 O62 1.264 . S
C56 O42 1.253 . S
C56 O44 1.260 . S
C57 O46 1.279 . S
C57 O47 1.250 . S
C58 O48 1.264 . S
C58 O52 1.248 . S
C59 O49 1.260 . S
C59 O53 1.253 . S
C60 O51 1.279 . S
C60 O54 1.250 . S
O61 Mg43 2.030 1_556 S
O61 C55 1.248 . S
O62 Mg45 2.079 . S
O62 C55 1.264 . S
O63 Mg64 1.990 . S
O63 C77 1.253 . S
Mg64 O63 1.990 . S
Mg64 O67 2.180 . S
Mg64 O68 2.117 . S
Mg64 O82 2.030 . S
O65 Mg66 2.072 . S
O65 C77 1.260 . S
Mg66 O65 2.072 . S
Mg66 O67 2.099 . S
Mg66 O69 2.079 1_554 S
Mg66 O70 2.072 . S
Mg66 O72 2.099 . S
Mg66 O83 2.079 . S
O67 Mg64 2.180 . S
O67 Mg66 2.099 . S
O67 C78 1.279 . S
O68 Mg64 2.117 . S
O68 C78 1.250 . S
O69 Mg66 2.079 1_556 S
O69 C79 1.264 . S
O70 Mg66 2.072 . S
O70 C80 1.260 . S
Mg71 O72 2.180 1_556 S
Mg71 O73 2.030 . S
Mg71 O74 1.990 1_556 S
Mg71 O75 2.117 1_556 S
O72 Mg66 2.099 . S
O72 Mg71 2.180 1_554 S
O72 C81 1.279 . S
O73 Mg71 2.030 . S
O73 C79 1.248 . S
O74 Mg71 1.990 1_554 S
O74 C80 1.253 . S
O75 Mg71 2.117 1_554 S
O75 C81 1.250 . S
C76 O82 1.248 . S
C76 O83 1.264 . S
C77 O63 1.253 . S
C77 O65 1.260 . S
C78 O67 1.279 . S
C78 O68 1.250 . S
C79 O69 1.264 . S
C79 O73 1.248 . S
C80 O70 1.260 . S
C80 O74 1.253 . S
C81 O72 1.279 . S
C81 O75 1.250 . S
O82 Mg64 2.030 . S
O82 C76 1.248 . S
O83 Mg66 2.079 . S
O83 C76 1.264 . S
O84 Mg85 1.990 . S
O84 C98 1.253 . S
Mg85 O84 1.990 . S
Mg85 O88 2.180 . S
Mg85 O89 2.117 . S
Mg85 O103 2.030 . S
O86 Mg87 2.072 . S
O86 C98 1.260 . S
Mg87 O86 2.072 . S
Mg87 O88 2.099 . S
Mg87 O90 2.079 . S
Mg87 O91 2.072 . S
Mg87 O93 2.099 . S
Mg87 O104 2.079 . S
O88 Mg85 2.180 . S
O88 Mg87 2.099 . S
O88 C99 1.279 . S
O89 Mg85 2.117 . S
O89 C99 1.250 . S
O90 Mg87 2.079 . S
O90 C100 1.264 . S
O91 Mg87 2.072 . S
O91 C101 1.260 . S
Mg92 O93 2.180 . S
Mg92 O94 2.030 . S
Mg92 O95 1.990 . S
Mg92 O96 2.117 . S
O93 Mg87 2.099 . S
O93 Mg92 2.180 . S
O93 C102 1.279 . S
O94 Mg92 2.030 . S
O94 C100 1.248 . S
O95 Mg92 1.990 . S
O95 C101 1.253 . S
O96 Mg92 2.117 . S
O96 C102 1.250 . S
C97 O103 1.248 . S
C97 O104 1.264 . S
C98 O84 1.253 . S
C98 O86 1.260 . S
C99 O88 1.279 . S
C99 O89 1.250 . S
C100 O90 1.264 . S
C100 O94 1.248 . S
C101 O91 1.260 . S
C101 O95 1.253 . S
C102 O93 1.279 . S
C102 O96 1.250 . S
O103 Mg85 2.030 . S
O103 C97 1.248 . S
O104 Mg87 2.079 . S
O104 C97 1.264 . S
O105 Mg106 1.990 . S
O105 C119 1.253 . S
Mg106 O105 1.990 . S
Mg106 O109 2.180 . S
Mg106 O110 2.117 . S
Mg106 O124 2.030 . S
O107 Mg108 2.072 . S
O107 C119 1.260 . S
Mg108 O107 2.072 . S
Mg108 O109 2.099 . S
Mg108 O111 2.079 . S
Mg108 O112 2.072 . S
Mg108 O114 2.099 . S
Mg108 O125 2.079 . S
O109 Mg106 2.180 . S
O109 Mg108 2.099 . S
O109 C120 1.279 . S
O110 Mg106 2.117 . S
O110 C120 1.250 . S
O111 Mg108 2.079 . S
O111 C121 1.264 . S
O112 Mg108 2.072 . S
O112 C122 1.260 . S
Mg113 O114 2.180 . S
Mg113 O115 2.030 . S
Mg113 O116 1.990 . S
Mg113 O117 2.117 . S
O114 Mg108 2.099 . S
O114 Mg113 2.180 . S
O114 C123 1.279 . S
O115 Mg113 2.030 . S
O115 C121 1.248 . S
O116 Mg113 1.990 . S
O116 C122 1.253 . S
O117 Mg113 2.117 . S
O117 C123 1.250 . S
C118 O124 1.248 . S
C118 O125 1.264 . S
C119 O105 1.253 . S
C119 O107 1.260 . S
C120 O109 1.279 . S
C120 O110 1.250 . S
C121 O111 1.264 . S
C121 O115 1.248 . S
C122 O112 1.260 . S
C122 O116 1.253 . S
C123 O114 1.279 . S
C123 O117 1.250 . S
O124 Mg106 2.030 . S
O124 C118 1.248 . S
O125 Mg108 2.079 . S
O125 C118 1.264 . S
H126 C144 0.951 . S
H127 C146 0.951 . S
H128 C148 0.950 . S
H129 C149 0.950 . S
H130 C151 0.950 . S
H131 C154 0.950 . S
H132 C155 0.950 . S
H133 C157 0.950 . S
H134 C158 0.950 . S
H135 C159 0.951 . S
H136 C161 0.951 . S
H137 C163 0.950 . S
H138 C164 0.950 . S
H139 C166 0.950 . S
H140 C169 0.950 . S
H141 C170 0.950 . S
H142 C172 0.950 . S
H143 C173 0.950 . S
C144 H126 0.951 . S
C144 C145 1.366 . S
C144 C146 1.388 . S
C145 C144 1.366 . S
C145 C149 1.385 . S
C146 H127 0.951 . S
C146 C144 1.388 . S
C146 C147 1.366 . S
C147 C146 1.366 . S
C147 C148 1.414 . S
C147 C150 1.499 . S
C148 H128 0.950 . S
C148 C147 1.414 . S
C148 C149 1.374 . S
C149 H129 0.950 . S
C149 C145 1.385 . S
C149 C148 1.374 . S
C150 C147 1.499 . S
C150 C151 1.373 . S
C150 C152 1.389 . S
C151 H130 0.950 . S
C151 C150 1.373 . S
C151 C167 1.377 . S
C152 C150 1.389 . S
C152 C153 1.524 . S
C152 C166 1.377 . S
C153 C152 1.524 . S
C153 C154 1.397 . S
C153 C158 1.363 . S
C154 H131 0.950 . S
C154 C153 1.397 . S
C154 C155 1.334 . S
C155 H132 0.950 . S
C155 C154 1.334 . S
C155 C156 1.287 . S
C156 C155 1.287 . S
C156 C157 1.524 . S
C156 H175 0.913 . S
C157 H133 0.950 . S
C157 C156 1.524 . S
C157 C158 1.415 . S
C158 H134 0.950 . S
C158 C153 1.363 . S
C158 C157 1.415 . S
C159 H135 0.951 . S
C159 C160 1.366 . S
C159 C161 1.388 . S
C160 C159 1.366 . S
C160 C164 1.385 . S
C161 H136 0.951 . S
C161 C159 1.388 . S
C161 C162 1.366 . S
C162 C161 1.366 . S
C162 C163 1.414 . S
C162 C165 1.499 1_556 S
C163 H137 0.950 . S
C163 C162 1.414 . S
C163 C164 1.374 . S
C164 H138 0.950 . S
C164 C160 1.385 . S
C164 C163 1.374 . S
C165 C162 1.499 1_554 S
C165 C166 1.373 . S
C165 C167 1.389 . S
C166 H139 0.950 . S
C166 C152 1.377 . S
C166 C165 1.373 . S
C167 C151 1.377 . S
C167 C165 1.389 . S
C167 C168 1.524 . S
C168 C167 1.524 . S
C168 C169 1.397 1_554 S
C168 C173 1.363 . S
C169 H140 0.950 . S
C169 C168 1.397 1_556 S
C169 C170 1.334 . S
C170 H141 0.950 . S
C170 C169 1.334 . S
C170 C171 1.287 . S
C171 C170 1.287 . S
C171 C172 1.524 1_556 S
C171 H174 0.999 . S
C172 H142 0.950 . S
C172 C171 1.524 1_554 S
C172 C173 1.415 . S
C173 H143 0.950 . S
C173 C168 1.363 . S
C173 C172 1.415 . S
H174 C171 0.999 . S
H175 C156 0.913 . S
H176 C194 0.951 . S
H177 C196 0.951 . S
H178 C198 0.950 . S
H179 C199 0.950 . S
H180 C201 0.950 . S
H181 C204 0.950 . S
H182 C205 0.950 . S
H183 C207 0.950 . S
H184 C208 0.950 . S
H185 C209 0.951 . S
H186 C211 0.951 . S
H187 C213 0.950 . S
H188 C214 0.950 . S
H189 C216 0.950 . S
H190 C219 0.950 . S
H191 C220 0.950 . S
H192 C222 0.950 . S
H193 C223 0.950 . S
C194 H176 0.951 . S
C194 C195 1.366 . S
C194 C196 1.388 . S
C195 C194 1.366 . S
C195 C199 1.385 . S
C196 H177 0.951 . S
C196 C194 1.388 . S
C196 C197 1.366 . S
C197 C196 1.366 . S
C197 C198 1.414 . S
C197 C200 1.499 . S
C198 H178 0.950 . S
C198 C197 1.414 . S
C198 C199 1.374 . S
C199 H179 0.950 . S
C199 C195 1.385 . S
C199 C198 1.374 . S
C200 C197 1.499 . S
C200 C201 1.373 . S
C200 C202 1.389 . S
C201 H180 0.950 . S
C201 C200 1.373 . S
C201 C217 1.377 . S
C202 C200 1.389 . S
C202 C203 1.524 . S
C202 C216 1.377 . S
C203 C202 1.524 . S
C203 C204 1.397 . S
C203 C208 1.363 . S
C204 H181 0.950 . S
C204 C203 1.397 . S
C204 C205 1.334 . S
C205 H182 0.950 . S
C205 C204 1.334 . S
C205 C206 1.287 . S
C206 C205 1.287 . S
C206 C207 1.524 . S
C206 H225 0.913 . S
C207 H183 0.950 . S
C207 C206 1.524 . S
C207 C208 1.415 . S
C208 H184 0.950 . S
C208 C203 1.363 . S
C208 C207 1.415 . S
C209 H185 0.951 . S
C209 C210 1.366 . S
C209 C211 1.388 1_556 S
C210 C209 1.366 . S
C210 C214 1.385 . S
C211 H186 0.951 . S
C211 C209 1.388 1_554 S
C211 C212 1.366 . S
C212 C211 1.366 . S
C212 C213 1.414 . S
C212 C215 1.499 . S
C213 H187 0.950 . S
C213 C212 1.414 . S
C213 C214 1.374 1_554 S
C214 H188 0.950 . S
C214 C210 1.385 . S
C214 C213 1.374 1_556 S
C215 C212 1.499 . S
C215 C216 1.373 . S
C215 C217 1.389 . S
C216 H189 0.950 . S
C216 C202 1.377 . S
C216 C215 1.373 . S
C217 C201 1.377 . S
C217 C215 1.389 . S
C217 C218 1.524 . S
C218 C217 1.524 . S
C218 C219 1.397 . S
C218 C223 1.363 . S
C219 H190 0.950 . S
C219 C218 1.397 . S
C219 C220 1.334 . S
C220 H191 0.950 . S
C220 C219 1.334 . S
C220 C221 1.287 . S
C221 C220 1.287 . S
C221 C222 1.524 . S
C221 H224 0.999 . S
C222 H192 0.950 . S
C222 C221 1.524 . S
C222 C223 1.415 . S
C223 H193 0.950 . S
C223 C218 1.363 . S
C223 C222 1.415 . S
H224 C221 0.999 . S
H225 C206 0.913 . S
H226 C244 0.951 . S
H227 C246 0.951 . S
H228 C248 0.950 . S
H229 C249 0.950 . S
H230 C251 0.950 . S
H231 C254 0.950 . S
H232 C255 0.950 . S
H233 C257 0.950 . S
H234 C258 0.950 . S
H235 C259 0.951 . S
H236 C261 0.951 . S
H237 C263 0.950 . S
H238 C264 0.950 . S
H239 C266 0.950 . S
H240 C269 0.950 . S
H241 C270 0.950 . S
H242 C272 0.950 . S
H243 C273 0.950 . S
C244 H226 0.951 . S
C244 C245 1.366 . S
C244 C246 1.388 . S
C245 C244 1.366 . S
C245 C249 1.385 . S
C246 H227 0.951 . S
C246 C244 1.388 . S
C246 C247 1.366 . S
C247 C246 1.366 . S
C247 C248 1.414 . S
C247 C250 1.499 . S
C248 H228 0.950 . S
C248 C247 1.414 . S
C248 C249 1.374 . S
C249 H229 0.950 . S
C249 C245 1.385 . S
C249 C248 1.374 . S
C250 C247 1.499 . S
C250 C251 1.373 . S
C250 C252 1.389 . S
C251 H230 0.950 . S
C251 C250 1.373 . S
C251 C267 1.377 . S
C252 C250 1.389 . S
C252 C253 1.524 . S
C252 C266 1.377 . S
C253 C252 1.524 . S
C253 C254 1.397 . S
C253 C258 1.363 . S
C254 H231 0.950 . S
C254 C253 1.397 . S
C254 C255 1.334 . S
C255 H232 0.950 . S
C255 C254 1.334 . S
C255 C256 1.287 . S
C256 C255 1.287 . S
C256 C257 1.524 . S
C256 H275 0.913 . S
C257 H233 0.950 . S
C257 C256 1.524 . S
C257 C258 1.415 . S
C258 H234 0.950 . S
C258 C253 1.363 . S
C258 C257 1.415 . S
C259 H235 0.951 . S
C259 C260 1.366 . S
C259 C261 1.388 . S
C260 C259 1.366 . S
C260 C264 1.385 . S
C261 H236 0.951 . S
C261 C259 1.388 . S
C261 C262 1.366 . S
C262 C261 1.366 . S
C262 C263 1.414 . S
C262 C265 1.499 . S
C263 H237 0.950 . S
C263 C262 1.414 . S
C263 C264 1.374 . S
C264 H238 0.950 . S
C264 C260 1.385 . S
C264 C263 1.374 . S
C265 C262 1.499 . S
C265 C266 1.373 . S
C265 C267 1.389 . S
C266 H239 0.950 . S
C266 C252 1.377 . S
C266 C265 1.373 . S
C267 C251 1.377 . S
C267 C265 1.389 . S
C267 C268 1.524 . S
C268 C267 1.524 . S
C268 C269 1.397 . S
C268 C273 1.363 . S
C269 H240 0.950 . S
C269 C268 1.397 . S
C269 C270 1.334 . S
C270 H241 0.950 . S
C270 C269 1.334 . S
C270 C271 1.287 . S
C271 C270 1.287 . S
C271 C272 1.524 . S
C271 H274 0.999 . S
C272 H242 0.950 . S
C272 C271 1.524 . S
C272 C273 1.415 . S
C273 H243 0.950 . S
C273 C268 1.363 . S
C273 C272 1.415 . S
H274 C271 0.999 . S
H275 C256 0.913 . S
H276 C294 0.951 . S
H277 C296 0.951 . S
H278 C298 0.950 . S
H279 C299 0.950 . S
H280 C301 0.950 . S
H281 C304 0.950 . S
H282 C305 0.950 . S
H283 C307 0.950 . S
H284 C308 0.950 . S
H285 C309 0.951 . S
H286 C311 0.951 . S
H287 C313 0.950 . S
H288 C314 0.950 . S
H289 C316 0.950 . S
H290 C319 0.950 . S
H291 C320 0.950 . S
H292 C322 0.950 . S
H293 C323 0.950 . S
C294 H276 0.951 . S
C294 C295 1.366 . S
C294 C296 1.388 . S
C295 C294 1.366 . S
C295 C299 1.385 . S
C296 H277 0.951 . S
C296 C294 1.388 . S
C296 C297 1.366 . S
C297 C296 1.366 . S
C297 C298 1.414 . S
C297 C300 1.499 . S
C298 H278 0.950 . S
C298 C297 1.414 . S
C298 C299 1.374 . S
C299 H279 0.950 . S
C299 C295 1.385 . S
C299 C298 1.374 . S
C300 C297 1.499 . S
C300 C301 1.373 . S
C300 C302 1.389 . S
C301 H280 0.950 . S
C301 C300 1.373 . S
C301 C317 1.377 . S
C302 C300 1.389 . S
C302 C303 1.524 . S
C302 C316 1.377 . S
C303 C302 1.524 . S
C303 C304 1.397 . S
C303 C308 1.363 . S
C304 H281 0.950 . S
C304 C303 1.397 . S
C304 C305 1.334 . S
C305 H282 0.950 . S
C305 C304 1.334 . S
C305 C306 1.287 . S
C306 C305 1.287 . S
C306 C307 1.524 . S
C306 H325 0.913 . S
C307 H283 0.950 . S
C307 C306 1.524 . S
C307 C308 1.415 . S
C308 H284 0.950 . S
C308 C303 1.363 . S
C308 C307 1.415 . S
C309 H285 0.951 . S
C309 C310 1.366 . S
C309 C311 1.388 . S
C310 C309 1.366 . S
C310 C314 1.385 . S
C311 H286 0.951 . S
C311 C309 1.388 . S
C311 C312 1.366 . S
C312 C311 1.366 . S
C312 C313 1.414 . S
C312 C315 1.499 . S
C313 H287 0.950 . S
C313 C312 1.414 . S
C313 C314 1.374 . S
C314 H288 0.950 . S
C314 C310 1.385 . S
C314 C313 1.374 . S
C315 C312 1.499 . S
C315 C316 1.373 . S
C315 C317 1.389 . S
C316 H289 0.950 . S
C316 C302 1.377 . S
C316 C315 1.373 . S
C317 C301 1.377 . S
C317 C315 1.389 . S
C317 C318 1.524 . S
C318 C317 1.524 . S
C318 C319 1.397 . S
C318 C323 1.363 . S
C319 H290 0.950 . S
C319 C318 1.397 . S
C319 C320 1.334 . S
C320 H291 0.950 . S
C320 C319 1.334 . S
C320 C321 1.287 . S
C321 C320 1.287 . S
C321 C322 1.524 . S
C321 H324 0.999 . S
C322 H292 0.950 . S
C322 C321 1.524 . S
C322 C323 1.415 . S
C323 H293 0.950 . S
C323 C318 1.363 . S
C323 C322 1.415 . S
H324 C321 0.999 . S
H325 C306 0.913 . S
H326 C344 0.951 . S
H327 C346 0.951 . S
H328 C348 0.950 . S
H329 C349 0.950 . S
H330 C351 0.950 . S
H331 C354 0.950 . S
H332 C355 0.950 . S
H333 C357 0.950 . S
H334 C358 0.950 . S
H335 C359 0.951 . S
H336 C361 0.951 . S
H337 C363 0.950 . S
H338 C364 0.950 . S
H339 C366 0.950 . S
H340 C369 0.950 . S
H341 C370 0.950 . S
H342 C372 0.950 . S
H343 C373 0.950 . S
C344 H326 0.951 . S
C344 C345 1.366 . S
C344 C346 1.388 . S
C345 C344 1.366 . S
C345 C349 1.385 . S
C346 H327 0.951 . S
C346 C344 1.388 . S
C346 C347 1.366 . S
C347 C346 1.366 . S
C347 C348 1.414 . S
C347 C350 1.499 . S
C348 H328 0.950 . S
C348 C347 1.414 . S
C348 C349 1.374 . S
C349 H329 0.950 . S
C349 C345 1.385 . S
C349 C348 1.374 . S
C350 C347 1.499 . S
C350 C351 1.373 . S
C350 C352 1.389 . S
C351 H330 0.950 . S
C351 C350 1.373 . S
C351 C367 1.377 . S
C352 C350 1.389 . S
C352 C353 1.524 . S
C352 C366 1.377 . S
C353 C352 1.524 . S
C353 C354 1.397 . S
C353 C358 1.363 . S
C354 H331 0.950 . S
C354 C353 1.397 . S
C354 C355 1.334 . S
C355 H332 0.950 . S
C355 C354 1.334 . S
C355 C356 1.287 . S
C356 C355 1.287 . S
C356 C357 1.524 . S
C356 H375 0.913 . S
C357 H333 0.950 . S
C357 C356 1.524 . S
C357 C358 1.415 . S
C358 H334 0.950 . S
C358 C353 1.363 . S
C358 C357 1.415 . S
C359 H335 0.951 . S
C359 C360 1.366 . S
C359 C361 1.388 1_554 S
C360 C359 1.366 . S
C360 C364 1.384 . S
C361 H336 0.951 . S
C361 C359 1.388 1_556 S
C361 C362 1.366 . S
C362 C361 1.366 . S
C362 C363 1.414 . S
C362 C365 1.499 . S
C363 H337 0.950 . S
C363 C362 1.414 . S
C363 C364 1.374 1_556 S
C364 H338 0.950 . S
C364 C360 1.384 . S
C364 C363 1.374 1_554 S
C365 C362 1.499 . S
C365 C366 1.373 . S
C365 C367 1.389 . S
C366 H339 0.950 . S
C366 C352 1.377 . S
C366 C365 1.373 . S
C367 C351 1.377 . S
C367 C365 1.389 . S
C367 C368 1.524 . S
C368 C367 1.524 . S
C368 C369 1.397 . S
C368 C373 1.363 . S
C369 H340 0.950 . S
C369 C368 1.397 . S
C369 C370 1.334 . S
C370 H341 0.950 . S
C370 C369 1.334 . S
C370 C371 1.287 . S
C371 C370 1.287 . S
C371 C372 1.524 . S
C371 H374 0.999 . S
C372 H342 0.950 . S
C372 C371 1.524 . S
C372 C373 1.415 . S
C373 H343 0.950 . S
C373 C368 1.363 . S
C373 C372 1.415 . S
H374 C371 0.999 . S
H375 C356 0.913 . S
H376 C394 0.951 . S
H377 C396 0.951 . S
H378 C398 0.950 . S
H379 C399 0.950 . S
H380 C401 0.950 . S
H381 C404 0.950 . S
H382 C405 0.950 . S
H383 C407 0.950 . S
H384 C408 0.950 . S
H385 C409 0.951 . S
H386 C411 0.951 . S
H387 C413 0.950 . S
H388 C414 0.950 . S
H389 C416 0.950 . S
H390 C419 0.950 . S
H391 C420 0.950 . S
H392 C422 0.950 . S
H393 C423 0.950 . S
C394 H376 0.951 . S
C394 C395 1.366 . S
C394 C396 1.388 . S
C395 C394 1.366 . S
C395 C399 1.385 . S
C396 H377 0.951 . S
C396 C394 1.388 . S
C396 C397 1.366 . S
C397 C396 1.366 . S
C397 C398 1.414 . S
C397 C400 1.499 1_554 S
C398 H378 0.950 . S
C398 C397 1.414 . S
C398 C399 1.374 . S
C399 H379 0.950 . S
C399 C395 1.385 . S
C399 C398 1.374 . S
C400 C397 1.499 1_556 S
C400 C401 1.373 . S
C400 C402 1.389 . S
C401 H380 0.950 . S
C401 C400 1.373 . S
C401 C417 1.377 . S
C402 C400 1.389 . S
C402 C403 1.524 . S
C402 C416 1.377 . S
C403 C402 1.524 . S
C403 C404 1.397 1_556 S
C403 C408 1.363 . S
C404 H381 0.950 . S
C404 C403 1.397 1_554 S
C404 C405 1.334 . S
C405 H382 0.950 . S
C405 C404 1.334 . S
C405 C406 1.287 . S
C406 C405 1.287 . S
C406 C407 1.524 1_554 S
C406 H425 0.913 . S
C407 H383 0.950 . S
C407 C406 1.524 1_556 S
C407 C408 1.415 . S
C408 H384 0.950 . S
C408 C403 1.363 . S
C408 C407 1.415 . S
C409 H385 0.951 . S
C409 C410 1.366 . S
C409 C411 1.388 . S
C410 C409 1.366 . S
C410 C414 1.385 . S
C411 H386 0.951 . S
C411 C409 1.388 . S
C411 C412 1.366 . S
C412 C411 1.366 . S
C412 C413 1.414 . S
C412 C415 1.499 . S
C413 H387 0.950 . S
C413 C412 1.414 . S
C413 C414 1.374 . S
C414 H388 0.950 . S
C414 C410 1.385 . S
C414 C413 1.374 . S
C415 C412 1.499 . S
C415 C416 1.373 . S
C415 C417 1.389 . S
C416 H389 0.950 . S
C416 C402 1.377 . S
C416 C415 1.373 . S
C417 C401 1.377 . S
C417 C415 1.389 . S
C417 C418 1.524 . S
C418 C417 1.524 . S
C418 C419 1.397 . S
C418 C423 1.363 . S
C419 H390 0.950 . S
C419 C418 1.397 . S
C419 C420 1.334 . S
C420 H391 0.950 . S
C420 C419 1.334 . S
C420 C421 1.287 . S
C421 C420 1.287 . S
C421 C422 1.524 . S
C421 H424 0.999 . S
C422 H392 0.950 . S
C422 C421 1.524 . S
C422 C423 1.415 . S
C423 H393 0.950 . S
C423 C418 1.363 . S
C423 C422 1.415 . S
H424 C421 0.999 . S
H425 C406 0.913 . S
H426 C444 0.951 . S
H427 C446 0.951 . S
H428 C448 0.950 . S
H429 C449 0.950 . S
H430 C451 0.950 . S
H431 C454 0.950 . S
H432 C455 0.950 . S
H433 C457 0.950 . S
H434 C458 0.950 . S
H435 C459 0.951 . S
H436 C461 0.951 . S
H437 C463 0.950 . S
H438 C464 0.950 . S
H439 C466 0.950 . S
H440 C469 0.950 . S
H441 C470 0.950 . S
H442 C472 0.950 . S
H443 C473 0.950 . S
C444 H426 0.951 . S
C444 C445 1.366 . S
C444 C446 1.388 . S
C445 C444 1.366 . S
C445 C449 1.385 . S
C446 H427 0.951 . S
C446 C444 1.388 . S
C446 C447 1.366 . S
C447 C446 1.366 . S
C447 C448 1.414 . S
C447 C450 1.499 . S
C448 H428 0.950 . S
C448 C447 1.414 . S
C448 C449 1.374 . S
C449 H429 0.950 . S
C449 C445 1.385 . S
C449 C448 1.374 . S
C450 C447 1.499 . S
C450 C451 1.373 . S
C450 C452 1.389 . S
C451 H430 0.950 . S
C451 C450 1.373 . S
C451 C467 1.377 1_545 S
C452 C450 1.389 . S
C452 C453 1.524 . S
C452 C466 1.377 1_545 S
C453 C452 1.524 . S
C453 C454 1.397 . S
C453 C458 1.363 . S
C454 H431 0.950 . S
C454 C453 1.397 . S
C454 C455 1.334 . S
C455 H432 0.950 . S
C455 C454 1.334 . S
C455 C456 1.287 . S
C456 C455 1.287 . S
C456 C457 1.524 . S
C456 H475 0.913 . S
C457 H433 0.950 . S
C457 C456 1.524 . S
C457 C458 1.415 . S
C458 H434 0.950 . S
C458 C453 1.363 . S
C458 C457 1.415 . S
C459 H435 0.951 . S
C459 C460 1.366 . S
C459 C461 1.388 . S
C460 C459 1.366 . S
C460 C464 1.385 . S
C461 H436 0.951 . S
C461 C459 1.388 . S
C461 C462 1.366 . S
C462 C461 1.366 . S
C462 C463 1.414 . S
C462 C465 1.499 . S
C463 H437 0.950 . S
C463 C462 1.414 . S
C463 C464 1.374 . S
C464 H438 0.950 . S
C464 C460 1.385 . S
C464 C463 1.374 . S
C465 C462 1.499 . S
C465 C466 1.373 . S
C465 C467 1.389 . S
C466 H439 0.950 . S
C466 C452 1.377 1_565 S
C466 C465 1.373 . S
C467 C451 1.377 1_565 S
C467 C465 1.389 . S
C467 C468 1.524 . S
C468 C467 1.524 . S
C468 C469 1.397 . S
C468 C473 1.363 . S
C469 H440 0.950 . S
C469 C468 1.397 . S
C469 C470 1.334 . S
C470 H441 0.950 . S
C470 C469 1.334 . S
C470 C471 1.287 . S
C471 C470 1.287 . S
C471 C472 1.524 . S
C471 H474 0.999 . S
C472 H442 0.950 . S
C472 C471 1.524 . S
C472 C473 1.415 . S
C473 H443 0.950 . S
C473 C468 1.363 . S
C473 C472 1.415 . S
H474 C471 0.999 . S
H475 C456 0.913 . S
H476 C494 0.951 . S
H477 C496 0.951 . S
H478 C498 0.950 . S
H479 C499 0.950 . S
H480 C501 0.950 . S
H481 C504 0.950 . S
H482 C505 0.950 . S
H483 C507 0.950 . S
H484 C508 0.950 . S
H485 C509 0.951 . S
H486 C511 0.951 . S
H487 C513 0.950 . S
H488 C514 0.950 . S
H489 C516 0.950 . S
H490 C519 0.950 . S
H491 C520 0.950 . S
H492 C522 0.950 . S
H493 C523 0.950 . S
C494 H476 0.951 . S
C494 C495 1.366 . S
C494 C496 1.388 . S
C495 C494 1.366 . S
C495 C499 1.385 . S
C496 H477 0.951 . S
C496 C494 1.388 . S
C496 C497 1.366 . S
C497 C496 1.366 . S
C497 C498 1.414 . S
C497 C500 1.499 . S
C498 H478 0.950 . S
C498 C497 1.414 . S
C498 C499 1.374 . S
C499 H479 0.950 . S
C499 C495 1.385 . S
C499 C498 1.374 . S
C500 C497 1.499 . S
C500 C501 1.373 . S
C500 C502 1.389 . S
C501 H480 0.950 . S
C501 C500 1.373 . S
C501 C517 1.377 . S
C502 C500 1.389 . S
C502 C503 1.524 . S
C502 C516 1.377 . S
C503 C502 1.524 . S
C503 C504 1.397 . S
C503 C508 1.363 . S
C504 H481 0.950 . S
C504 C503 1.397 . S
C504 C505 1.334 . S
C505 H482 0.950 . S
C505 C504 1.334 . S
C505 C506 1.287 . S
C506 C505 1.287 . S
C506 C507 1.524 . S
C506 H525 0.913 . S
C507 H483 0.950 . S
C507 C506 1.524 . S
C507 C508 1.415 . S
C508 H484 0.950 . S
C508 C503 1.363 . S
C508 C507 1.415 . S
C509 H485 0.951 . S
C509 C510 1.366 . S
C509 C511 1.388 . S
C510 C509 1.366 . S
C510 C514 1.385 . S
C511 H486 0.951 . S
C511 C509 1.388 . S
C511 C512 1.366 . S
C512 C511 1.366 . S
C512 C513 1.414 . S
C512 C515 1.499 . S
C513 H487 0.950 . S
C513 C512 1.414 . S
C513 C514 1.374 . S
C514 H488 0.950 . S
C514 C510 1.385 . S
C514 C513 1.374 . S
C515 C512 1.499 . S
C515 C516 1.373 . S
C515 C517 1.389 . S
C516 H489 0.950 . S
C516 C502 1.377 . S
C516 C515 1.373 . S
C517 C501 1.377 . S
C517 C515 1.389 . S
C517 C518 1.524 . S
C518 C517 1.524 . S
C518 C519 1.397 . S
C518 C523 1.363 . S
C519 H490 0.950 . S
C519 C518 1.397 . S
C519 C520 1.334 . S
C520 H491 0.950 . S
C520 C519 1.334 . S
C520 C521 1.287 . S
C521 C520 1.287 . S
C521 C522 1.524 . S
C521 H524 0.999 . S
C522 H492 0.950 . S
C522 C521 1.524 . S
C522 C523 1.415 . S
C523 H493 0.950 . S
C523 C518 1.363 . S
C523 C522 1.415 . S
H524 C521 0.999 . S
H525 C506 0.913 . S
H526 C544 0.951 . S
H527 C546 0.951 . S
H528 C548 0.950 . S
H529 C549 0.950 . S
H530 C551 0.950 . S
H531 C554 0.950 . S
H532 C555 0.950 . S
H533 C557 0.950 . S
H534 C558 0.950 1_556 S
H535 C559 0.951 . S
H536 C561 0.951 . S
H537 C563 0.950 . S
H538 C564 0.950 . S
H539 C566 0.950 . S
H540 C569 0.950 . S
H541 C570 0.950 . S
H542 C572 0.950 . S
H543 C573 0.933 1_655 S
C544 H526 0.951 . S
C544 C545 1.366 . S
C544 C546 1.388 . S
C545 C544 1.366 . S
C545 C549 1.385 . S
C546 H527 0.951 . S
C546 C544 1.388 . S
C546 C547 1.366 . S
C547 C546 1.366 . S
C547 C548 1.414 . S
C547 C550 1.499 . S
C548 H528 0.950 . S
C548 C547 1.414 . S
C548 C549 1.374 . S
C549 H529 0.950 . S
C549 C545 1.385 . S
C549 C548 1.374 . S
C550 C547 1.499 . S
C550 C551 1.373 . S
C550 C552 1.389 1_655 S
C551 H530 0.950 . S
C551 C550 1.373 . S
C551 C567 1.377 1_655 S
C552 C550 1.389 1_455 S
C552 C553 1.524 1_455 S
C552 C566 1.377 . S
C553 C552 1.524 1_655 S
C553 C554 1.396 1_556 S
C553 C558 1.364 1_656 S
C554 H531 0.950 . S
C554 C553 1.396 1_554 S
C554 C555 1.334 . S
C555 H532 0.950 . S
C555 C554 1.334 . S
C555 C556 1.287 . S
C556 C555 1.287 . S
C556 C557 1.524 1_655 S
C556 H575 0.913 . S
C557 H533 0.950 . S
C557 C556 1.524 1_455 S
C557 C558 1.415 . S
C558 H534 0.950 1_554 S
C558 C553 1.364 1_454 S
C558 C557 1.415 . S
C559 H535 0.951 . S
C559 C560 1.366 . S
C559 C561 1.388 . S
C560 C559 1.366 . S
C560 C564 1.385 . S
C561 H536 0.951 . S
C561 C559 1.388 . S
C561 C562 1.366 . S
C562 C561 1.366 . S
C562 C563 1.414 . S
C562 C565 1.499 . S
C563 H537 0.950 . S
C563 C562 1.414 . S
C563 C564 1.374 . S
C564 H538 0.950 . S
C564 C560 1.385 . S
C564 C563 1.374 . S
C565 C562 1.499 . S
C565 C566 1.373 . S
C565 C567 1.389 . S
C566 H539 0.950 . S
C566 C552 1.377 . S
C566 C565 1.373 . S
C567 C551 1.377 1_455 S
C567 C565 1.389 . S
C567 C568 1.524 . S
C568 C567 1.524 . S
C568 C569 1.397 . S
C568 C573 1.363 . S
C569 H540 0.950 . S
C569 C568 1.397 . S
C569 C570 1.334 . S
C570 H541 0.950 . S
C570 C569 1.334 . S
C570 C571 1.287 . S
C571 C570 1.287 . S
C571 C572 1.524 . S
C571 H574 0.999 . S
C572 H542 0.950 . S
C572 C571 1.524 . S
C572 C573 1.415 . S
C573 H543 0.933 1_455 S
C573 C568 1.363 . S
C573 C572 1.415 . S
H574 C571 0.999 . S
H575 C556 0.913 . S
H576 C594 0.961 . S
H577 C596 0.951 1_556 S
H578 C598 0.950 . S
H579 C599 0.950 . S
H580 C601 0.950 . S
H581 C604 0.950 . S
H582 C605 0.950 . S
H583 C607 0.950 . S
H584 C608 0.950 . S
H585 C609 0.951 1_554 S
H586 C611 0.951 . S
H587 C613 0.950 . S
H588 C614 0.950 . S
H589 C616 0.950 . S
H590 C619 0.950 . S
H591 C620 0.950 . S
H592 C622 0.950 . S
H593 C623 0.950 . S
C594 H576 0.961 . S
C594 C595 1.366 . S
C594 C596 1.388 . S
C595 C594 1.366 . S
C595 C599 1.385 . S
C596 H577 0.951 1_554 S
C596 C594 1.388 . S
C596 C597 1.366 . S
C597 C596 1.366 . S
C597 C598 1.414 . S
C597 C600 1.499 . S
C598 H578 0.950 . S
C598 C597 1.414 . S
C598 C599 1.374 . S
C599 H579 0.950 . S
C599 C595 1.385 . S
C599 C598 1.374 . S
C600 C597 1.499 . S
C600 C601 1.373 . S
C600 C602 1.389 . S
C601 H580 0.950 . S
C601 C600 1.373 . S
C601 C617 1.377 1_565 S
C602 C600 1.389 . S
C602 C603 1.524 1_554 S
C602 C616 1.377 1_564 S
C603 C602 1.524 1_556 S
C603 C604 1.397 1_556 S
C603 C608 1.363 . S
C604 H581 0.950 . S
C604 C603 1.397 1_554 S
C604 C605 1.334 . S
C605 H582 0.950 . S
C605 C604 1.334 . S
C605 C606 1.287 . S
C606 C605 1.287 . S
C606 C607 1.524 1_554 S
C606 H625 0.913 . S
C607 H583 0.950 . S
C607 C606 1.524 1_556 S
C607 C608 1.415 . S
C608 H584 0.950 . S
C608 C603 1.363 . S
C608 C607 1.415 . S
C609 H585 0.951 1_556 S
C609 C610 1.366 . S
C609 C611 1.388 1_556 S
C610 C609 1.366 . S
C610 C614 1.385 . S
C611 H586 0.951 . S
C611 C609 1.388 1_554 S
C611 C612 1.366 1_554 S
C612 C611 1.366 1_556 S
C612 C613 1.414 . S
C612 C615 1.499 . S
C613 H587 0.950 . S
C613 C612 1.414 . S
C613 C614 1.374 . S
C614 H588 0.950 . S
C614 C610 1.385 . S
C614 C613 1.374 . S
C615 C612 1.499 . S
C615 C616 1.373 . S
C615 C617 1.389 1_556 S
C616 H589 0.950 . S
C616 C602 1.377 1_546 S
C616 C615 1.373 . S
C617 C601 1.377 1_545 S
C617 C615 1.389 1_554 S
C617 C618 1.524 . S
C618 C617 1.524 . S
C618 C619 1.397 1_554 S
C618 C623 1.363 . S
C619 H590 0.950 . S
C619 C618 1.397 1_556 S
C619 C620 1.334 . S
C620 H591 0.950 . S
C620 C619 1.334 . S
C620 C621 1.287 1_556 S
C621 C620 1.287 1_554 S
C621 C622 1.524 . S
C621 H624 0.999 . S
C622 H592 0.950 . S
C622 C621 1.524 . S
C622 C623 1.415 . S
C623 H593 0.950 . S
C623 C618 1.363 . S
C623 C622 1.415 . S
H624 C621 0.999 . S
H625 C606 0.913 . S
H626 C644 0.951 . S
H627 C646 0.951 . S
H628 C648 0.950 . S
H629 C649 0.950 . S
H630 C651 0.950 . S
H631 C654 0.950 . S
H632 C655 0.950 . S
H633 C657 0.950 . S
H634 C658 0.950 . S
H635 C659 0.951 . S
H636 C661 0.951 . S
H637 C663 0.950 . S
H638 C664 0.950 1_556 S
H639 C666 0.950 . S
H640 C669 0.950 . S
H641 C670 0.950 . S
H642 C672 0.950 . S
H643 C673 0.950 . S
C644 H626 0.951 . S
C644 C645 1.366 . S
C644 C646 1.388 . S
C645 C644 1.366 . S
C645 C649 1.385 . S
C646 H627 0.951 . S
C646 C644 1.388 . S
C646 C647 1.366 . S
C647 C646 1.366 . S
C647 C648 1.414 . S
C647 C650 1.499 . S
C648 H628 0.950 . S
C648 C647 1.414 . S
C648 C649 1.374 . S
C649 H629 0.950 . S
C649 C645 1.385 . S
C649 C648 1.374 . S
C650 C647 1.499 . S
C650 C651 1.373 . S
C650 C652 1.389 . S
C651 H630 0.950 . S
C651 C650 1.373 . S
C651 C667 1.377 . S
C652 C650 1.389 . S
C652 C653 1.524 . S
C652 C666 1.377 . S
C653 C652 1.524 . S
C653 C654 1.397 . S
C653 C658 1.363 . S
C654 H631 0.950 . S
C654 C653 1.397 . S
C654 C655 1.334 . S
C655 H632 0.950 . S
C655 C654 1.334 . S
C655 C656 1.287 . S
C656 C655 1.287 . S
C656 C657 1.524 . S
C656 H675 0.913 . S
C657 H633 0.950 . S
C657 C656 1.524 . S
C657 C658 1.415 . S
C658 H634 0.950 . S
C658 C653 1.363 . S
C658 C657 1.415 . S
C659 H635 0.951 . S
C659 C660 1.366 . S
C659 C661 1.388 . S
C660 C659 1.366 . S
C660 C664 1.385 . S
C661 H636 0.951 . S
C661 C659 1.388 . S
C661 C662 1.366 . S
C662 C661 1.366 . S
C662 C663 1.414 . S
C662 C665 1.499 . S
C663 H637 0.950 . S
C663 C662 1.414 . S
C663 C664 1.374 . S
C664 H638 0.950 1_554 S
C664 C660 1.385 . S
C664 C663 1.374 . S
C665 C662 1.499 . S
C665 C666 1.373 . S
C665 C667 1.389 . S
C666 H639 0.950 . S
C666 C652 1.377 . S
C666 C665 1.373 . S
C667 C651 1.377 . S
C667 C665 1.389 . S
C667 C668 1.524 . S
C668 C667 1.524 . S
C668 C669 1.397 . S
C668 C673 1.363 . S
C669 H640 0.950 . S
C669 C668 1.397 . S
C669 C670 1.334 . S
C670 H641 0.950 . S
C670 C669 1.334 . S
C670 C671 1.287 . S
C671 C670 1.287 . S
C671 C672 1.524 . S
C671 H674 0.999 . S
C672 H642 0.950 . S
C672 C671 1.524 . S
C672 C673 1.415 . S
C673 H643 0.950 . S
C673 C668 1.363 . S
C673 C672 1.415 . S
H674 C671 0.999 . S
H675 C656 0.913 . S
H676 C694 0.951 . S
H677 C696 0.951 . S
H678 C698 0.950 . S
H679 C699 0.950 . S
H680 C701 0.950 . S
H681 C704 0.950 . S
H682 C705 0.950 . S
H683 C707 0.950 . S
H684 C708 0.950 . S
H685 C709 0.951 . S
H686 C711 0.951 . S
H687 C713 0.950 . S
H688 C714 0.950 . S
H689 C716 0.950 . S
H690 C719 0.950 . S
H691 C720 0.950 . S
H692 C722 0.950 . S
H693 C723 0.950 . S
C694 H676 0.951 . S
C694 C695 1.366 . S
C694 C696 1.388 . S
C695 C694 1.366 . S
C695 C699 1.385 . S
C696 H677 0.951 . S
C696 C694 1.388 . S
C696 C697 1.366 . S
C697 C696 1.366 . S
C697 C698 1.414 . S
C697 C700 1.499 . S
C698 H678 0.950 . S
C698 C697 1.414 . S
C698 C699 1.374 . S
C699 H679 0.950 . S
C699 C695 1.385 . S
C699 C698 1.374 . S
C700 C697 1.499 . S
C700 C701 1.373 . S
C700 C702 1.389 . S
C701 H680 0.950 . S
C701 C700 1.373 . S
C701 C717 1.377 1_655 S
C702 C700 1.389 . S
C702 C703 1.524 . S
C702 C716 1.377 1_655 S
C703 C702 1.524 . S
C703 C704 1.397 . S
C703 C708 1.363 . S
C704 H681 0.950 . S
C704 C703 1.397 . S
C704 C705 1.334 . S
C705 H682 0.950 . S
C705 C704 1.334 . S
C705 C706 1.287 . S
C706 C705 1.287 . S
C706 C707 1.524 . S
C706 H725 0.913 . S
C707 H683 0.950 . S
C707 C706 1.524 . S
C707 C708 1.415 . S
C708 H684 0.950 . S
C708 C703 1.363 . S
C708 C707 1.415 . S
C709 H685 0.951 . S
C709 C710 1.366 . S
C709 C711 1.388 . S
C710 C709 1.366 . S
C710 C714 1.385 . S
C711 H686 0.951 . S
C711 C709 1.388 . S
C711 C712 1.366 . S
C712 C711 1.366 . S
C712 C713 1.414 . S
C712 C715 1.499 . S
C713 H687 0.950 . S
C713 C712 1.414 . S
C713 C714 1.374 . S
C714 H688 0.950 . S
C714 C710 1.385 . S
C714 C713 1.374 . S
C715 C712 1.499 . S
C715 C716 1.373 . S
C715 C717 1.389 . S
C716 H689 0.950 . S
C716 C702 1.377 1_455 S
C716 C715 1.373 . S
C717 C701 1.377 1_455 S
C717 C715 1.389 . S
C717 C718 1.524 . S
C718 C717 1.524 . S
C718 C719 1.397 . S
C718 C723 1.363 . S
C719 H690 0.950 . S
C719 C718 1.397 . S
C719 C720 1.334 . S
C720 H691 0.950 . S
C720 C719 1.334 . S
C720 C721 1.287 . S
C721 C720 1.287 . S
C721 C722 1.524 . S
C721 H724 0.999 . S
C722 H692 0.950 . S
C722 C721 1.524 . S
C722 C723 1.415 . S
C723 H693 0.950 . S
C723 C718 1.363 . S
C723 C722 1.415 . S
H724 C721 0.999 . S
H725 C706 0.913 . S
H726 C744 0.951 . S
H727 C746 0.951 . S
H728 C748 0.950 . S
H729 C749 0.950 . S
H730 C751 0.950 . S
H731 C754 0.950 . S
H732 C755 0.950 . S
H733 C757 0.950 . S
H734 C758 0.950 . S
H735 C759 0.951 . S
H736 C761 0.951 . S
H737 C763 0.950 . S
H738 C764 0.950 . S
H739 C766 0.950 . S
H740 C769 0.950 . S
H741 C770 0.950 . S
H742 C772 0.950 . S
H743 C773 0.950 . S
C744 H726 0.951 . S
C744 C745 1.366 . S
C744 C746 1.388 . S
C745 C744 1.366 . S
C745 C749 1.385 . S
C746 H727 0.951 . S
C746 C744 1.388 . S
C746 C747 1.366 . S
C747 C746 1.366 . S
C747 C748 1.414 . S
C747 C750 1.499 . S
C748 H728 0.950 . S
C748 C747 1.414 . S
C748 C749 1.374 . S
C749 H729 0.950 . S
C749 C745 1.385 . S
C749 C748 1.374 . S
C750 C747 1.499 . S
C750 C751 1.373 . S
C750 C752 1.389 . S
C751 H730 0.950 . S
C751 C750 1.373 . S
C751 C767 1.377 . S
C752 C750 1.389 . S
C752 C753 1.524 . S
C752 C766 1.377 . S
C753 C752 1.524 . S
C753 C754 1.397 . S
C753 C758 1.363 . S
C754 H731 0.950 . S
C754 C753 1.397 . S
C754 C755 1.334 . S
C755 H732 0.950 . S
C755 C754 1.334 . S
C755 C756 1.287 . S
C756 C755 1.287 . S
C756 C757 1.524 . S
C756 H775 0.913 . S
C757 H733 0.950 . S
C757 C756 1.524 . S
C757 C758 1.415 . S
C758 H734 0.950 . S
C758 C753 1.363 . S
C758 C757 1.415 . S
C759 H735 0.951 . S
C759 C760 1.366 . S
C759 C761 1.388 . S
C760 C759 1.366 . S
C760 C764 1.385 . S
C761 H736 0.951 . S
C761 C759 1.388 . S
C761 C762 1.366 . S
C762 C761 1.366 . S
C762 C763 1.414 . S
C762 C765 1.499 . S
C763 H737 0.950 . S
C763 C762 1.414 . S
C763 C764 1.374 . S
C764 H738 0.950 . S
C764 C760 1.385 . S
C764 C763 1.374 . S
C765 C762 1.499 . S
C765 C766 1.373 . S
C765 C767 1.389 . S
C766 H739 0.950 . S
C766 C752 1.377 . S
C766 C765 1.373 . S
C767 C751 1.377 . S
C767 C765 1.389 . S
C767 C768 1.524 . S
C768 C767 1.524 . S
C768 C769 1.397 . S
C768 C773 1.363 . S
C769 H740 0.950 . S
C769 C768 1.397 . S
C769 C770 1.334 . S
C770 H741 0.950 . S
C770 C769 1.334 . S
C770 C771 1.287 . S
C771 C770 1.287 . S
C771 C772 1.524 . S
C771 H774 0.999 . S
C772 H742 0.950 . S
C772 C771 1.524 . S
C772 C773 1.415 . S
C773 H743 0.950 . S
C773 C768 1.363 . S
C773 C772 1.415 . S
H774 C771 0.999 . S
H775 C756 0.913 . S
H776 C794 0.951 . S
H777 C796 0.951 . S
H778 C798 0.950 . S
H779 C799 0.950 . S
H780 C801 0.950 . S
H781 C804 0.950 . S
H782 C805 0.950 . S
H783 C807 0.950 . S
H784 C808 0.950 . S
H785 C809 0.951 . S
H786 C811 0.951 . S
H787 C813 0.950 . S
H788 C814 0.950 . S
H789 C816 0.950 . S
H790 C819 0.950 . S
H791 C820 0.950 . S
H792 C822 0.950 . S
H793 C823 0.950 . S
C794 H776 0.951 . S
C794 C795 1.366 . S
C794 C796 1.388 . S
C795 C794 1.366 . S
C795 C799 1.385 . S
C796 H777 0.951 . S
C796 C794 1.388 . S
C796 C797 1.366 . S
C797 C796 1.366 . S
C797 C798 1.414 . S
C797 C800 1.499 . S
C798 H778 0.950 . S
C798 C797 1.414 . S
C798 C799 1.374 . S
C799 H779 0.950 . S
C799 C795 1.385 . S
C799 C798 1.374 . S
C800 C797 1.499 . S
C800 C801 1.373 . S
C800 C802 1.389 . S
C801 H780 0.950 . S
C801 C800 1.373 . S
C801 C817 1.377 . S
C802 C800 1.389 . S
C802 C803 1.524 . S
C802 C816 1.377 . S
C803 C802 1.524 . S
C803 C804 1.397 . S
C803 C808 1.363 . S
C804 H781 0.950 . S
C804 C803 1.397 . S
C804 C805 1.334 . S
C805 H782 0.950 . S
C805 C804 1.334 . S
C805 C806 1.287 . S
C806 C805 1.287 . S
C806 C807 1.524 . S
C806 H825 0.913 . S
C807 H783 0.950 . S
C807 C806 1.524 . S
C807 C808 1.415 . S
C808 H784 0.950 . S
C808 C803 1.363 . S
C808 C807 1.415 . S
C809 H785 0.951 . S
C809 C810 1.366 . S
C809 C811 1.388 . S
C810 C809 1.366 . S
C810 C814 1.385 . S
C811 H786 0.951 . S
C811 C809 1.388 . S
C811 C812 1.366 . S
C812 C811 1.366 . S
C812 C813 1.414 . S
C812 C815 1.499 . S
C813 H787 0.950 . S
C813 C812 1.414 . S
C813 C814 1.374 . S
C814 H788 0.950 . S
C814 C810 1.385 . S
C814 C813 1.374 . S
C815 C812 1.499 . S
C815 C816 1.373 . S
C815 C817 1.389 . S
C816 H789 0.950 . S
C816 C802 1.377 . S
C816 C815 1.373 . S
C817 C801 1.377 . S
C817 C815 1.389 . S
C817 C818 1.524 . S
C818 C817 1.524 . S
C818 C819 1.397 . S
C818 C823 1.363 . S
C819 H790 0.950 . S
C819 C818 1.397 . S
C819 C820 1.334 . S
C820 H791 0.950 . S
C820 C819 1.334 . S
C820 C821 1.287 . S
C821 C820 1.287 . S
C821 C822 1.524 . S
C821 H824 0.999 . S
C822 H792 0.950 . S
C822 C821 1.524 . S
C822 C823 1.415 . S
C823 H793 0.950 . S
C823 C818 1.363 . S
C823 C822 1.415 . S
H824 C821 0.999 . S
H825 C806 0.913 . S
H826 C844 0.951 . S
H827 C846 0.951 . S
H828 C848 0.950 . S
H829 C849 0.950 . S
H830 C851 0.950 . S
H831 C854 0.950 . S
H832 C855 0.950 . S
H833 C857 0.950 . S
H834 C858 0.950 . S
H835 C859 0.951 . S
H836 C861 0.951 . S
H837 C863 0.950 . S
H838 C864 0.950 . S
H839 C866 0.950 . S
H840 C869 0.950 . S
H841 C870 0.950 . S
H842 C872 0.950 . S
H843 C873 0.950 . S
C844 H826 0.951 . S
C844 C845 1.366 . S
C844 C846 1.388 . S
C845 C844 1.366 . S
C845 C849 1.385 . S
C846 H827 0.951 . S
C846 C844 1.388 . S
C846 C847 1.366 . S
C847 C846 1.366 . S
C847 C848 1.414 . S
C847 C850 1.499 . S
C848 H828 0.950 . S
C848 C847 1.414 . S
C848 C849 1.374 . S
C849 H829 0.950 . S
C849 C845 1.385 . S
C849 C848 1.374 . S
C850 C847 1.499 . S
C850 C851 1.373 . S
C850 C852 1.389 . S
C851 H830 0.950 . S
C851 C850 1.373 . S
C851 C867 1.377 . S
C852 C850 1.389 . S
C852 C853 1.524 . S
C852 C866 1.377 . S
C853 C852 1.524 . S
C853 C854 1.397 . S
C853 C858 1.363 . S
C854 H831 0.950 . S
C854 C853 1.397 . S
C854 C855 1.334 . S
C855 H832 0.950 . S
C855 C854 1.334 . S
C855 C856 1.287 . S
C856 C855 1.287 . S
C856 C857 1.524 . S
C856 H875 0.913 . S
C857 H833 0.950 . S
C857 C856 1.524 . S
C857 C858 1.415 . S
C858 H834 0.950 . S
C858 C853 1.363 . S
C858 C857 1.415 . S
C859 H835 0.951 . S
C859 C860 1.366 . S
C859 C861 1.388 . S
C860 C859 1.366 . S
C860 C864 1.385 . S
C861 H836 0.951 . S
C861 C859 1.388 . S
C861 C862 1.366 . S
C862 C861 1.366 . S
C862 C863 1.414 . S
C862 C865 1.499 . S
C863 H837 0.950 . S
C863 C862 1.414 . S
C863 C864 1.374 . S
C864 H838 0.950 . S
C864 C860 1.385 . S
C864 C863 1.374 . S
C865 C862 1.499 . S
C865 C866 1.373 . S
C865 C867 1.389 . S
C866 H839 0.950 . S
C866 C852 1.377 . S
C866 C865 1.373 . S
C867 C851 1.377 . S
C867 C865 1.389 . S
C867 C868 1.524 . S
C868 C867 1.524 . S
C868 C869 1.397 . S
C868 C873 1.363 . S
C869 H840 0.950 . S
C869 C868 1.397 . S
C869 C870 1.334 . S
C870 H841 0.950 . S
C870 C869 1.334 . S
C870 C871 1.287 . S
C871 C870 1.287 . S
C871 C872 1.524 . S
C871 H874 0.999 . S
C872 H842 0.950 . S
C872 C871 1.524 . S
C872 C873 1.415 . S
C873 H843 0.950 . S
C873 C868 1.363 . S
C873 C872 1.415 . S
H874 C871 0.999 . S
H875 C856 0.913 . S
H876 C894 0.951 . S
H877 C896 0.951 . S
H878 C898 0.950 . S
H879 C899 0.950 . S
H880 C901 0.950 . S
H881 C904 0.950 1_554 S
H882 C905 0.950 1_554 S
H883 C907 0.950 . S
H884 C908 0.950 . S
H885 C909 0.951 . S
H886 C911 0.951 . S
H887 C913 0.950 . S
H888 C914 0.950 . S
H889 C916 0.950 . S
H890 C919 0.950 . S
H891 C920 0.950 . S
H892 C922 0.950 1_554 S
H893 C923 0.950 1_554 S
C894 H876 0.951 . S
C894 C895 1.366 1_556 S
C894 C896 1.388 . S
C895 C894 1.366 1_554 S
C895 C899 1.385 . S
C896 H877 0.951 . S
C896 C894 1.388 . S
C896 C897 1.366 . S
C897 C896 1.366 . S
C897 C898 1.414 1_556 S
C897 C900 1.499 . S
C898 H878 0.950 . S
C898 C897 1.414 1_554 S
C898 C899 1.374 . S
C899 H879 0.950 . S
C899 C895 1.385 . S
C899 C898 1.374 . S
C900 C897 1.499 . S
C900 C901 1.373 . S
C900 C902 1.389 . S
C901 H880 0.950 . S
C901 C900 1.373 . S
C901 C917 1.377 . S
C902 C900 1.389 . S
C902 C903 1.524 . S
C902 C916 1.377 . S
C903 C902 1.524 . S
C903 C904 1.397 . S
C903 C908 1.363 . S
C904 H881 0.950 1_556 S
C904 C903 1.397 . S
C904 C905 1.334 . S
C905 H882 0.950 1_556 S
C905 C904 1.334 . S
C905 C906 1.287 . S
C906 C905 1.287 . S
C906 C907 1.524 . S
C906 H925 0.913 . S
C907 H883 0.950 . S
C907 C906 1.524 . S
C907 C908 1.415 . S
C908 H884 0.950 . S
C908 C903 1.363 . S
C908 C907 1.415 . S
C909 H885 0.951 . S
C909 C910 1.366 . S
C909 C911 1.388 . S
C910 C909 1.366 . S
C910 C914 1.385 . S
C911 H886 0.951 . S
C911 C909 1.388 . S
C911 C912 1.366 . S
C912 C911 1.366 . S
C912 C913 1.414 . S
C912 C915 1.499 . S
C913 H887 0.950 . S
C913 C912 1.414 . S
C913 C914 1.374 . S
C914 H888 0.950 . S
C914 C910 1.385 . S
C914 C913 1.374 . S
C915 C912 1.499 . S
C915 C916 1.373 . S
C915 C917 1.389 . S
C916 H889 0.950 . S
C916 C902 1.377 . S
C916 C915 1.373 . S
C917 C901 1.377 . S
C917 C915 1.389 . S
C917 C918 1.524 . S
C918 C917 1.524 . S
C918 C919 1.397 . S
C918 C923 1.363 . S
C919 H890 0.950 . S
C919 C918 1.397 . S
C919 C920 1.334 . S
C920 H891 0.950 . S
C920 C919 1.334 . S
C920 C921 1.287 . S
C921 C920 1.287 . S
C921 C922 1.524 . S
C921 H924 0.999 . S
C922 H892 0.950 1_556 S
C922 C921 1.524 . S
C922 C923 1.415 . S
C923 H893 0.950 1_556 S
C923 C918 1.363 . S
C923 C922 1.415 . S
H924 C921 0.999 . S
H925 C906 0.913 . S
H926 C944 0.951 . S
H927 C946 0.951 . S
H928 C948 0.950 . S
H929 C949 0.950 . S
H930 C951 0.950 . S
H931 C954 0.950 . S
H932 C955 0.950 . S
H933 C957 0.950 . S
H934 C958 0.950 . S
H935 C959 0.951 . S
H936 C961 0.951 . S
H937 C963 0.950 . S
H938 C964 0.950 . S
H939 C966 0.950 . S
H940 C969 0.950 . S
H941 C970 0.950 . S
H942 C972 0.950 . S
H943 C973 0.950 . S
C944 H926 0.951 . S
C944 C945 1.366 . S
C944 C946 1.388 . S
C945 C944 1.366 . S
C945 C949 1.385 . S
C946 H927 0.951 . S
C946 C944 1.388 . S
C946 C947 1.366 . S
C947 C946 1.366 . S
C947 C948 1.414 . S
C947 C950 1.499 . S
C948 H928 0.950 . S
C948 C947 1.414 . S
C948 C949 1.374 . S
C949 H929 0.950 . S
C949 C945 1.385 . S
C949 C948 1.374 . S
C950 C947 1.499 . S
C950 C951 1.373 . S
C950 C952 1.389 . S
C951 H930 0.950 . S
C951 C950 1.373 . S
C951 C967 1.377 . S
C952 C950 1.389 . S
C952 C953 1.524 . S
C952 C966 1.377 . S
C953 C952 1.524 . S
C953 C954 1.397 . S
C953 C958 1.363 . S
C954 H931 0.950 . S
C954 C953 1.397 . S
C954 C955 1.334 . S
C955 H932 0.950 . S
C955 C954 1.334 . S
C955 C956 1.287 . S
C956 C955 1.287 . S
C956 C957 1.524 . S
C956 H975 0.913 . S
C957 H933 0.950 . S
C957 C956 1.524 . S
C957 C958 1.415 . S
C958 H934 0.950 . S
C958 C953 1.363 . S
C958 C957 1.415 . S
C959 H935 0.951 . S
C959 C960 1.366 . S
C959 C961 1.388 . S
C960 C959 1.366 . S
C960 C964 1.385 1_556 S
C961 H936 0.951 . S
C961 C959 1.388 . S
C961 C962 1.366 1_556 S
C962 C961 1.366 1_554 S
C962 C963 1.414 . S
C962 C965 1.499 . S
C963 H937 0.950 . S
C963 C962 1.414 . S
C963 C964 1.374 . S
C964 H938 0.950 . S
C964 C960 1.385 1_554 S
C964 C963 1.374 . S
C965 C962 1.499 . S
C965 C966 1.373 . S
C965 C967 1.389 . S
C966 H939 0.950 . S
C966 C952 1.377 . S
C966 C965 1.373 . S
C967 C951 1.377 . S
C967 C965 1.389 . S
C967 C968 1.524 . S
C968 C967 1.524 . S
C968 C969 1.397 . S
C968 C973 1.363 . S
C969 H940 0.950 . S
C969 C968 1.397 . S
C969 C970 1.334 . S
C970 H941 0.950 . S
C970 C969 1.334 . S
C970 C971 1.287 . S
C971 C970 1.287 . S
C971 C972 1.524 . S
C971 H974 0.999 . S
C972 H942 0.950 . S
C972 C971 1.524 . S
C972 C973 1.415 . S
C973 H943 0.950 . S
C973 C968 1.363 . S
C973 C972 1.415 . S
H974 C971 0.999 . S
H975 C956 0.913 . S
H976 C994 0.951 . S
H977 C996 0.951 . S
H978 C998 0.950 . S
H979 C999 0.950 . S
H980 C1001 0.950 . S
H981 C1004 0.950 . S
H982 C1005 0.950 . S
H983 C1007 0.950 . S
H984 C1008 0.950 . S
H985 C1009 0.951 . S
H986 C1011 0.951 . S
H987 C1013 0.950 . S
H988 C1014 0.950 . S
H989 C1016 0.950 . S
H990 C1019 0.950 . S
H991 C1020 0.950 . S
H992 C1022 0.950 . S
H993 C1023 0.950 . S
C994 H976 0.951 . S
C994 C995 1.366 . S
C994 C996 1.388 . S
C995 C994 1.366 . S
C995 C999 1.385 . S
C996 H977 0.951 . S
C996 C994 1.388 . S
C996 C997 1.366 . S
C997 C996 1.366 . S
C997 C998 1.414 . S
C997 C1000 1.499 . S
C998 H978 0.950 . S
C998 C997 1.414 . S
C998 C999 1.374 . S
C999 H979 0.950 . S
C999 C995 1.385 . S
C999 C998 1.374 . S
C1000 C997 1.499 . S
C1000 C1001 1.373 . S
C1000 C1002 1.389 . S
C1001 H980 0.950 . S
C1001 C1000 1.373 . S
C1001 C1017 1.377 . S
C1002 C1000 1.389 . S
C1002 C1003 1.524 . S
C1002 C1016 1.377 . S
C1003 C1002 1.524 . S
C1003 C1004 1.397 . S
C1003 C1008 1.363 . S
C1004 H981 0.950 . S
C1004 C1003 1.397 . S
C1004 C1005 1.334 . S
C1005 H982 0.950 . S
C1005 C1004 1.334 . S
C1005 C1006 1.287 1_554 S
C1006 C1005 1.287 1_556 S
C1006 C1007 1.524 . S
C1006 H1025 0.913 . S
C1007 H983 0.950 . S
C1007 C1006 1.524 . S
C1007 C1008 1.415 1_556 S
C1008 H984 0.950 . S
C1008 C1003 1.363 . S
C1008 C1007 1.415 1_554 S
C1009 H985 0.951 . S
C1009 C1010 1.366 . S
C1009 C1011 1.388 . S
C1010 C1009 1.366 . S
C1010 C1014 1.385 . S
C1011 H986 0.951 . S
C1011 C1009 1.388 . S
C1011 C1012 1.366 . S
C1012 C1011 1.366 . S
C1012 C1013 1.414 . S
C1012 C1015 1.499 . S
C1013 H987 0.950 . S
C1013 C1012 1.414 . S
C1013 C1014 1.374 . S
C1014 H988 0.950 . S
C1014 C1010 1.385 . S
C1014 C1013 1.374 . S
C1015 C1012 1.499 . S
C1015 C1016 1.373 . S
C1015 C1017 1.389 . S
C1016 H989 0.950 . S
C1016 C1002 1.377 . S
C1016 C1015 1.373 . S
C1017 C1001 1.377 . S
C1017 C1015 1.389 . S
C1017 C1018 1.524 . S
C1018 C1017 1.524 . S
C1018 C1019 1.397 . S
C1018 C1023 1.363 . S
C1019 H990 0.950 . S
C1019 C1018 1.397 . S
C1019 C1020 1.334 . S
C1020 H991 0.950 . S
C1020 C1019 1.334 . S
C1020 C1021 1.287 . S
C1021 C1020 1.287 . S
C1021 C1022 1.524 . S
C1021 H1024 0.999 . S
C1022 H992 0.950 . S
C1022 C1021 1.524 . S
C1022 C1023 1.415 . S
C1023 H993 0.950 . S
C1023 C1018 1.363 . S
C1023 C1022 1.415 . S
H1024 C1021 0.999 . S
H1025 C1006 0.913 . S
C145 C16 0.935 . S
C160 C14 0.930 . S
C195 C37 0.935 . S
C210 C35 0.930 . S
C245 C56 0.931 . S
C260 C58 0.936 . S
C295 C77 0.930 . S
C310 C79 0.935 . S
C345 C98 0.930 . S
C360 C100 0.935 . S
C395 C121 0.935 . S
C410 C119 0.930 . S
C445 C13 1.812 . S
C460 C120 1.487 . S
C495 C15 1.486 . S
C510 C34 1.812 . S
C545 C55 1.812 . S
C560 C36 1.485 . S
C595 C76 1.812 . S
C610 C57 1.485 . S
C645 C97 1.812 . S
C660 C78 1.485 . S
C695 C99 1.486 . S
C710 C118 1.812 . S
C745 C17 1.511 . S
C760 C102 1.427 . S
C795 C38 1.509 . S
C810 C123 1.427 . S
C845 C59 1.511 . S
C860 C18 1.427 . S
C895 C80 1.511 . S
C910 C39 1.427 . S
C945 C101 1.509 . S
C960 C60 1.428 . S
C995 C81 1.428 . S
C1010 C122 1.510 . S
