# Generated by pormake.
# Topology lcy-e, (6)-cn, num edge types: 1
# Building blocks:
#     Node 0, Type 0, BuildingBlock: FUNLAD_clean_sbu_0, # of connection points: 6
#     Node 1, Type 0, BuildingBlock: FUNLAD_clean_sbu_0, # of connection points: 6
#     Node 2, Type 0, BuildingBlock: FUNLAD_clean_sbu_0, # of connection points: 6
#     Node 3, Type 0, BuildingBlock: FUNLAD_clean_sbu_0, # of connection points: 6
#     Node 4, Type 0, BuildingBlock: FUNLAD_clean_sbu_0, # of connection points: 6
#     Node 5, Type 0, BuildingBlock: FUNLAD_clean_sbu_0, # of connection points: 6
#     Node 6, Type 0, BuildingBlock: FUNLAD_clean_sbu_0, # of connection points: 6
#     Node 7, Type 0, BuildingBlock: FUNLAD_clean_sbu_0, # of connection points: 6
#     Node 8, Type 0, BuildingBlock: FUNLAD_clean_sbu_0, # of connection points: 6
#     Node 9, Type 0, BuildingBlock: FUNLAD_clean_sbu_0, # of connection points: 6
#     Node 10, Type 0, BuildingBlock: FUNLAD_clean_sbu_0, # of connection points: 6
#     Node 11, Type 0, BuildingBlock: FUNLAD_clean_sbu_0, # of connection points: 6
#     Edge 12, Type (0, 0), BuildingBlock: XIVTED_clean_linker_0, # of connection points: 2
#     Edge 13, Type (0, 0), BuildingBlock: XIVTED_clean_linker_0, # of connection points: 2
#     Edge 14, Type (0, 0), BuildingBlock: XIVTED_clean_linker_0, # of connection points: 2
#     Edge 15, Type (0, 0), BuildingBlock: XIVTED_clean_linker_0, # of connection points: 2
#     Edge 16, Type (0, 0), BuildingBlock: XIVTED_clean_linker_0, # of connection points: 2
#     Edge 17, Type (0, 0), BuildingBlock: XIVTED_clean_linker_0, # of connection points: 2
#     Edge 18, Type (0, 0), BuildingBlock: XIVTED_clean_linker_0, # of connection points: 2
#     Edge 19, Type (0, 0), BuildingBlock: XIVTED_clean_linker_0, # of connection points: 2
#     Edge 20, Type (0, 0), BuildingBlock: XIVTED_clean_linker_0, # of connection points: 2
#     Edge 21, Type (0, 0), BuildingBlock: XIVTED_clean_linker_0, # of connection points: 2
#     Edge 22, Type (0, 0), BuildingBlock: XIVTED_clean_linker_0, # of connection points: 2
#     Edge 23, Type (0, 0), BuildingBlock: XIVTED_clean_linker_0, # of connection points: 2
#     Edge 24, Type (0, 0), BuildingBlock: XIVTED_clean_linker_0, # of connection points: 2
#     Edge 25, Type (0, 0), BuildingBlock: XIVTED_clean_linker_0, # of connection points: 2
#     Edge 26, Type (0, 0), BuildingBlock: XIVTED_clean_linker_0, # of connection points: 2
#     Edge 27, Type (0, 0), BuildingBlock: XIVTED_clean_linker_0, # of connection points: 2
#     Edge 28, Type (0, 0), BuildingBlock: XIVTED_clean_linker_0, # of connection points: 2
#     Edge 29, Type (0, 0), BuildingBlock: XIVTED_clean_linker_0, # of connection points: 2
#     Edge 30, Type (0, 0), BuildingBlock: XIVTED_clean_linker_0, # of connection points: 2
#     Edge 31, Type (0, 0), BuildingBlock: XIVTED_clean_linker_0, # of connection points: 2
#     Edge 32, Type (0, 0), BuildingBlock: XIVTED_clean_linker_0, # of connection points: 2
#     Edge 33, Type (0, 0), BuildingBlock: XIVTED_clean_linker_0, # of connection points: 2
#     Edge 34, Type (0, 0), BuildingBlock: XIVTED_clean_linker_0, # of connection points: 2
#     Edge 35, Type (0, 0), BuildingBlock: XIVTED_clean_linker_0, # of connection points: 2
#     Edge 36, Type (0, 0), BuildingBlock: XIVTED_clean_linker_0, # of connection points: 2
#     Edge 37, Type (0, 0), BuildingBlock: XIVTED_clean_linker_0, # of connection points: 2
#     Edge 38, Type (0, 0), BuildingBlock: XIVTED_clean_linker_0, # of connection points: 2
#     Edge 39, Type (0, 0), BuildingBlock: XIVTED_clean_linker_0, # of connection points: 2
#     Edge 40, Type (0, 0), BuildingBlock: XIVTED_clean_linker_0, # of connection points: 2
#     Edge 41, Type (0, 0), BuildingBlock: XIVTED_clean_linker_0, # of connection points: 2
#     Edge 42, Type (0, 0), BuildingBlock: XIVTED_clean_linker_0, # of connection points: 2
#     Edge 43, Type (0, 0), BuildingBlock: XIVTED_clean_linker_0, # of connection points: 2
#     Edge 44, Type (0, 0), BuildingBlock: XIVTED_clean_linker_0, # of connection points: 2
#     Edge 45, Type (0, 0), BuildingBlock: XIVTED_clean_linker_0, # of connection points: 2
#     Edge 46, Type (0, 0), BuildingBlock: XIVTED_clean_linker_0, # of connection points: 2
#     Edge 47, Type (0, 0), BuildingBlock: XIVTED_clean_linker_0, # of connection points: 2
# Relax obj value: 0.597
# Max RMSD: 0.359
# Mean RMSD: 0.291
data_MOF--net-lcy-e--node1-FUNLAD_clean_sbu_0--edge1-XIVTED_clean_linker_0
_symmetry_space_group_name_H-M    P1
_symmetry_Int_Tables_number       1
_symmetry_cell_setting            triclinic
loop_
_symmetry_equiv_pos_as_xyz
'x, y, z'
_cell_length_a     40.689204
_cell_length_b     38.216937
_cell_length_c     37.699755
_cell_angle_alpha  92.943534
_cell_angle_beta   87.271443
_cell_angle_gamma 95.609251
loop_
_atom_site_label
_atom_site_type_symbol
_atom_site_fract_x
_atom_site_fract_y
_atom_site_fract_z
_atom_type_partial_charge
C0 C 0.13411 0.20622 0.52232 0.0
N1 N 0.07722 0.20861 0.43147 0.0
C2 C 0.07998 0.17411 0.42229 0.0
C3 C 0.05596 0.15488 0.40197 0.0
C4 C 0.02891 0.17137 0.39109 0.0
C5 C 0.02652 0.20679 0.40152 0.0
C6 C 0.05104 0.22497 0.4217 0.0
Zn7 Zn 0.11332 0.23923 0.45736 0.0
C8 C 0.08583 0.28707 0.51284 0.0
N9 N 0.18837 0.30788 0.50802 0.0
C10 C 0.21921 0.30196 0.51751 0.0
C11 C 0.17897 0.34115 0.50896 0.0
C12 C 0.20027 0.36978 0.51969 0.0
C13 C 0.23211 0.36484 0.5297 0.0
C14 C 0.24174 0.33038 0.52846 0.0
Zn15 Zn 0.15359 0.27171 0.48518 0.0
O16 O 0.11561 0.20172 0.49586 0.0
C17 C 0.18153 0.22108 0.43396 0.0
O18 O 0.15294 0.23476 0.52654 0.0
H19 H 0.15511 0.34604 0.50001 0.0
H20 H 0.10103 0.16165 0.43029 0.0
H21 H 0.22662 0.27547 0.5158 0.0
O22 O 0.15114 0.21463 0.42692 0.0
O23 O 0.19002 0.24513 0.45721 0.0
H24 H 0.04947 0.25252 0.4289 0.0
O25 O 0.15386 0.30698 0.44279 0.0
O26 O 0.11218 0.27682 0.41774 0.0
O27 O 0.11645 0.2965 0.51432 0.0
O28 O 0.07609 0.26286 0.49033 0.0
C29 C 0.13378 0.30306 0.41786 0.0
H30 H 0.05849 0.12742 0.39492 0.0
H31 H 0.00633 0.22063 0.39341 0.0
H32 H 0.19204 0.39585 0.51911 0.0
H33 H 0.26624 0.32553 0.53579 0.0
C34 C 0.08688 0.95935 0.75876 0.0
N35 N 0.14015 0.90108 0.68185 0.0
C36 C 0.16852 0.9199 0.69231 0.0
C37 C 0.19875 0.90504 0.68823 0.0
C38 C 0.19959 0.87102 0.67247 0.0
C39 C 0.1701 0.85256 0.6616 0.0
C40 C 0.14056 0.86789 0.667 0.0
Zn41 Zn 0.09434 0.9192 0.68892 0.0
C42 C 0.04782 0.86824 0.72956 0.0
N43 N 0.9972 0.95259 0.70386 0.0
C44 C 0.98909 0.98613 0.71037 0.0
C45 C 0.97374 0.92598 0.69535 0.0
C46 C 0.94105 0.93247 0.69236 0.0
C47 C 0.93199 0.96684 0.69761 0.0
C48 C 0.95632 0.99388 0.7075 0.0
Zn49 Zn 0.0447 0.9385 0.6996 0.0
O50 O 0.1067 0.94453 0.73715 0.0
C51 C 0.09131 0.99084 0.66173 0.0
O52 O 0.05692 0.96071 0.75095 0.0
H53 H 0.98045 0.89959 0.68949 0.0
H54 H 0.16765 0.94612 0.70434 0.0
H55 H 0.00814 0.00701 0.71662 0.0
O56 O 0.11031 0.96626 0.66217 0.0
O57 O 0.06232 0.98654 0.67608 0.0
H58 H 0.11779 0.85279 0.65987 0.0
O59 O 0.03329 0.91573 0.64841 0.0
O60 O 0.08136 0.89493 0.63962 0.0
O61 O 0.02847 0.89117 0.72384 0.0
O62 O 0.07763 0.87243 0.7176 0.0
C63 C 0.05309 0.8989 0.62875 0.0
H64 H 0.22111 0.91981 0.69732 0.0
H65 H 0.16972 0.82592 0.65018 0.0
H66 H 0.92309 0.91065 0.68552 0.0
H67 H 0.95035 0.02081 0.71178 0.0
C68 C 0.35502 0.7833 0.95163 0.0
N69 N 0.27126 0.8407 0.95543 0.0
C70 C 0.27984 0.85388 0.92314 0.0
C71 C 0.25673 0.86913 0.90435 0.0
C72 C 0.22421 0.87028 0.91854 0.0
C73 C 0.21553 0.85422 0.95081 0.0
C74 C 0.23963 0.83973 0.96903 0.0
Zn75 Zn 0.30762 0.83049 0.98745 0.0
C76 C 0.29068 0.76529 0.02842 0.0
N77 N 0.38376 0.81222 0.05547 0.0
C78 C 0.41608 0.81506 0.04408 0.0
C79 C 0.37489 0.81099 0.09065 0.0
C80 C 0.39884 0.81515 0.11607 0.0
C81 C 0.43248 0.81967 0.10531 0.0
C82 C 0.44095 0.81848 0.06865 0.0
Zn83 Zn 0.34773 0.8187 0.02138 0.0
O84 O 0.32939 0.79888 0.94714 0.0
C85 C 0.36802 0.87916 0.97632 0.0
O86 O 0.36794 0.7854 0.9818 0.0
H87 H 0.34905 0.8087 0.0992 0.0
H88 H 0.30514 0.85444 0.91284 0.0
H89 H 0.42259 0.81614 0.01597 0.0
O90 O 0.33812 0.87439 0.96753 0.0
O91 O 0.37763 0.86073 0.00011 0.0
H92 H 0.23343 0.82931 0.99489 0.0
O93 O 0.32753 0.85258 0.06018 0.0
O94 O 0.28709 0.86405 0.02778 0.0
O95 O 0.31862 0.77561 0.04085 0.0
O96 O 0.27854 0.78401 0.00621 0.0
C97 C 0.30217 0.86855 0.05653 0.0
H98 H 0.26492 0.88147 0.87985 0.0
H99 H 0.19065 0.85368 0.96244 0.0
H100 H 0.39082 0.81618 0.14385 0.0
H101 H 0.46648 0.82074 0.05889 0.0
C102 C 0.35886 0.09874 0.31643 0.0
N103 N 0.37749 0.16857 0.23401 0.0
C104 C 0.34564 0.16336 0.22401 0.0
C105 C 0.33163 0.18945 0.20694 0.0
C106 C 0.35022 0.22175 0.20079 0.0
C107 C 0.38271 0.22677 0.21263 0.0
C108 C 0.39601 0.19962 0.22883 0.0
Zn109 Zn 0.39883 0.12769 0.25343 0.0
C110 C 0.4466 0.14874 0.30916 0.0
N111 N 0.44222 0.03925 0.29063 0.0
C112 C 0.4295 0.00487 0.28734 0.0
C113 C 0.4752 0.04763 0.29478 0.0
C114 C 0.49682 0.02168 0.29343 0.0
C115 C 0.48485 0.98655 0.28703 0.0
C116 C 0.45066 0.97778 0.28534 0.0
Zn117 Zn 0.41752 0.08071 0.27559 0.0
O118 O 0.36119 0.12096 0.29231 0.0
C119 C 0.36933 0.05817 0.22188 0.0
O120 O 0.38067 0.07712 0.31816 0.0
H121 H 0.48572 0.07461 0.29564 0.0
H122 H 0.33122 0.13857 0.22848 0.0
H123 H 0.40342 -0.00154 0.28345 0.0
O124 O 0.37052 0.09117 0.21811 0.0
O125 O 0.38703 0.04659 0.24454 0.0
H126 H 0.42135 0.20318 0.23674 0.0
O127 O 0.45344 0.08546 0.23238 0.0
O128 O 0.43652 0.13384 0.21418 0.0
O129 O 0.44686 0.11565 0.30713 0.0
O130 O 0.42739 0.16318 0.28992 0.0
C131 C 0.45642 0.11026 0.21094 0.0
H132 H 0.30672 0.18383 0.19797 0.0
H133 H 0.3979 0.25137 0.20945 0.0
H134 H 0.52313 0.02929 0.29467 0.0
H135 H 0.44073 0.95075 0.28023 0.0
C136 C 0.66345 0.30759 0.49383 0.0
N137 N 0.59314 0.32745 0.57651 0.0
C138 C 0.60412 0.36221 0.57922 0.0
C139 C 0.58321 0.38671 0.59363 0.0
C140 C 0.55082 0.37525 0.60554 0.0
C141 C 0.54012 0.33927 0.60174 0.0
C142 C 0.56168 0.31582 0.587 0.0
Zn143 Zn 0.62373 0.29015 0.55982 0.0
C144 C 0.59075 0.23783 0.50765 0.0
N145 N 0.68522 0.20882 0.52617 0.0
C146 C 0.71846 0.21623 0.52108 0.0
C147 C 0.67103 0.17511 0.5234 0.0
C148 C 0.69033 0.14734 0.51511 0.0
C149 C 0.72484 0.15397 0.51029 0.0
C150 C 0.73881 0.18912 0.51337 0.0
Zn151 Zn 0.65556 0.24801 0.54107 0.0
O152 O 0.64295 0.31966 0.51669 0.0
C153 C 0.68952 0.30252 0.5904 0.0
O154 O 0.67335 0.27741 0.49698 0.0
H155 H 0.64463 0.16962 0.52788 0.0
H156 H 0.62924 0.37085 0.57072 0.0
H157 H 0.72934 0.24317 0.52346 0.0
O158 O 0.66164 0.31496 0.59124 0.0
O159 O 0.69358 0.27428 0.57208 0.0
H160 H 0.55345 0.28806 0.58474 0.0
O161 O 0.63677 0.21875 0.58519 0.0
O162 O 0.6056 0.26036 0.60337 0.0
O163 O 0.61761 0.22379 0.5096 0.0
O164 O 0.58616 0.26548 0.52669 0.0
C165 C 0.61579 0.23063 0.60755 0.0
H166 H 0.59238 0.41428 0.59546 0.0
H167 H 0.5156 0.32908 0.61094 0.0
H168 H 0.6781 0.12097 0.51222 0.0
H169 H 0.76523 0.19575 0.51039 0.0
C170 C 0.87834 0.40134 0.72951 0.0
N171 N 0.88485 0.32487 0.80298 0.0
C172 C 0.85172 0.32387 0.81025 0.0
C173 C 0.83329 0.29206 0.81689 0.0
C174 C 0.84901 0.26093 0.81541 0.0
C175 C 0.88315 0.26254 0.80774 0.0
C176 C 0.9008 0.2951 0.80191 0.0
Zn177 Zn 0.91003 0.37181 0.79155 0.0
C178 C 0.96261 0.36449 0.73411 0.0
N179 N 0.95866 0.47017 0.76519 0.0
C180 C 0.96273 0.49176 0.79488 0.0
C181 C 0.97886 0.47495 0.73567 0.0
C182 C 0.0069 0.49917 0.73705 0.0
C183 C 0.0139 0.51821 0.76911 0.0
C184 C 0.99039 0.51604 0.79743 0.0
Zn185 Zn 0.93254 0.42254 0.77338 0.0
O186 O 0.87542 0.37875 0.75329 0.0
C187 C 0.87927 0.43176 0.8277 0.0
O188 O 0.90308 0.42444 0.72867 0.0
H189 H 0.97535 0.45745 0.71241 0.0
H190 H 0.83945 0.34773 0.81041 0.0
H191 H 0.94688 0.48737 0.81835 0.0
O192 O 0.88087 0.39911 0.83161 0.0
O193 O 0.89726 0.44722 0.80388 0.0
H194 H 0.92717 0.29655 0.79615 0.0
O195 O 0.96135 0.41992 0.81921 0.0
O196 O 0.94446 0.36536 0.8304 0.0
O197 O 0.96716 0.39727 0.74156 0.0
O198 O 0.93943 0.34621 0.75053 0.0
C199 C 0.96259 0.39342 0.83794 0.0
H200 H 0.80687 0.29166 0.82229 0.0
H201 H 0.896 0.23896 0.80652 0.0
H202 H 0.0246 0.50017 0.71464 0.0
H203 H 0.99489 0.53057 0.82244 0.0
C204 C 0.87964 0.6545 0.95321 0.0
N205 N 0.95429 0.68586 0.02506 0.0
C206 C 0.94683 0.65572 0.04262 0.0
C207 C 0.97057 0.64222 0.06219 0.0
C208 C 0.00283 0.65928 0.06319 0.0
C209 C 0.01 0.68998 0.04405 0.0
C210 C 0.98523 0.703 0.02539 0.0
Zn211 Zn 0.91706 0.70723 0.001 0.0
C212 C 0.93828 0.73963 0.93184 0.0
N213 N 0.83827 0.7524 0.95416 0.0
C214 C 0.80597 0.73928 0.95775 0.0
C215 C 0.84691 0.78405 0.93964 0.0
C216 C 0.82281 0.80393 0.92837 0.0
C217 C 0.78938 0.7916 0.93278 0.0
C218 C 0.78092 0.75878 0.94749 0.0
Zn219 Zn 0.87522 0.72884 0.97599 0.0
O220 O 0.90458 0.65961 0.97257 0.0
C221 C 0.85172 0.69549 0.04223 0.0
O222 O 0.86248 0.67986 0.94832 0.0
H223 H 0.87253 0.79459 0.93786 0.0
H224 H 0.92217 0.64236 0.0421 0.0
H225 H 0.79953 0.71418 0.96952 0.0
O226 O 0.88186 0.68929 0.04317 0.0
O227 O 0.84297 0.7129 0.01722 0.0
H228 H 0.99065 0.7271 0.01151 0.0
O229 O 0.88774 0.77672 0.00556 0.0
O230 O 0.92809 0.75458 0.03049 0.0
O231 O 0.90774 0.74396 0.9339 0.0
O232 O 0.95082 0.7253 0.95719 0.0
C233 C 0.91053 0.77988 0.02773 0.0
H234 H 0.96328 0.61897 0.07695 0.0
H235 H 0.03449 0.70387 0.0433 0.0
H236 H 0.8302 0.82931 0.91741 0.0
H237 H 0.75529 0.74844 0.95105 0.0
C238 C 0.60773 0.63647 0.34469 0.0
N239 N 0.65286 0.55 0.29939 0.0
C240 C 0.66459 0.54884 0.33242 0.0
C241 C 0.67356 0.51756 0.34442 0.0
C242 C 0.67055 0.48685 0.32232 0.0
C243 C 0.65793 0.48844 0.28844 0.0
C244 C 0.64931 0.52064 0.27734 0.0
Zn245 Zn 0.64304 0.59834 0.28495 0.0
C246 C 0.57665 0.59904 0.25385 0.0
N247 N 0.62363 0.70134 0.25913 0.0
C248 C 0.62427 0.72878 0.28374 0.0
C249 C 0.61561 0.70534 0.22509 0.0
C250 C 0.60671 0.73744 0.21494 0.0
C251 C 0.60526 0.76557 0.24021 0.0
C252 C 0.61466 0.76127 0.2749 0.0
Zn253 Zn 0.63237 0.65221 0.27266 0.0
O254 O 0.61901 0.60733 0.3356 0.0
C255 C 0.69622 0.65294 0.30624 0.0
O256 O 0.60933 0.66048 0.32254 0.0
H257 H 0.61472 0.68318 0.20604 0.0
H258 H 0.66717 0.57236 0.34963 0.0
H259 H 0.631 0.72512 0.31062 0.0
O260 O 0.68877 0.61995 0.30607 0.0
O261 O 0.67701 0.67264 0.2933 0.0
H262 H 0.64 0.52226 0.25113 0.0
O263 O 0.65663 0.64366 0.22303 0.0
O264 O 0.66851 0.59079 0.23472 0.0
O265 O 0.58669 0.63154 0.25322 0.0
O266 O 0.59586 0.57761 0.26444 0.0
C267 C 0.67067 0.61617 0.21396 0.0
H268 H 0.68225 0.51737 0.37112 0.0
H269 H 0.65507 0.46525 0.27072 0.0
H270 H 0.59874 0.73942 0.18816 0.0
H271 H 0.61339 0.78232 0.29514 0.0
C272 C 0.1733 0.53712 0.16267 0.0
N273 N 0.15058 0.44501 0.09919 0.0
C274 C 0.11846 0.44941 0.10872 0.0
C275 C 0.09339 0.43886 0.08506 0.0
C276 C 0.10147 0.42301 0.05173 0.0
C277 C 0.1345 0.4174 0.04337 0.0
C278 C 0.15874 0.42906 0.06727 0.0
Zn279 Zn 0.18954 0.46791 0.12821 0.0
C280 C 0.2317 0.51934 0.0846 0.0
N281 N 0.27385 0.51794 0.18241 0.0
C282 C 0.27643 0.53202 0.21625 0.0
C283 C 0.30149 0.51386 0.16128 0.0
C284 C 0.33286 0.52266 0.17394 0.0
C285 C 0.33646 0.53636 0.20876 0.0
C286 C 0.30781 0.54188 0.22995 0.0
Zn287 Zn 0.23092 0.49636 0.15861 0.0
O288 O 0.16241 0.50911 0.14579 0.0
C289 C 0.18787 0.44774 0.20421 0.0
O290 O 0.20319 0.54099 0.17226 0.0
H291 H 0.29948 0.50262 0.13451 0.0
H292 H 0.11236 0.46243 0.13398 0.0
H293 H 0.25432 0.53485 0.23285 0.0
O294 O 0.17344 0.44018 0.17504 0.0
O295 O 0.21239 0.47122 0.20507 0.0
H296 H 0.18433 0.42684 0.05933 0.0
O297 O 0.25674 0.45174 0.14429 0.0
O298 O 0.21761 0.42579 0.11177 0.0
O299 O 0.24789 0.52118 0.11256 0.0
O300 O 0.2057 0.49814 0.08262 0.0
C301 C 0.24584 0.42577 0.12455 0.0
H302 H 0.06812 0.44374 0.09236 0.0
H303 H 0.14183 0.40595 0.01766 0.0
H304 H 0.35427 0.51854 0.15656 0.0
H305 H 0.3097 0.55258 0.25702 0.0
C306 C 0.55485 0.98453 0.83367 0.0
N307 N 0.59729 0.05435 0.91114 0.0
C308 C 0.56747 0.06744 0.91657 0.0
C309 C 0.55717 0.07931 0.9505 0.0
C310 C 0.57771 0.07754 0.97913 0.0
C311 C 0.60861 0.06448 0.97265 0.0
C312 C 0.61799 0.05304 0.93825 0.0
Zn313 Zn 0.61064 0.03507 0.86183 0.0
C314 C 0.64236 0.96777 0.86364 0.0
N315 N 0.6364 0.99378 0.75835 0.0
C316 C 0.64799 0.01999 0.73654 0.0
C317 C 0.64698 0.96108 0.75348 0.0
C318 C 0.67431 0.95579 0.73059 0.0
C319 C 0.69017 0.98433 0.71235 0.0
C320 C 0.67488 0.01568 0.71303 0.0
Zn321 Zn 0.61983 0.01065 0.80823 0.0
O322 O 0.56411 0.00721 0.85782 0.0
C323 C 0.58808 0.07636 0.80434 0.0
O324 O 0.5746 0.9773 0.80766 0.0
H325 H 0.63726 0.94035 0.77062 0.0
H326 H 0.55137 0.06809 0.89464 0.0
H327 H 0.63981 0.04598 0.74066 0.0
O328 O 0.59278 0.07953 0.83755 0.0
O329 O 0.59615 0.04921 0.78673 0.0
H330 H 0.64166 0.04268 0.93328 0.0
O331 O 0.66534 0.04493 0.81016 0.0
O332 O 0.65647 0.06289 0.8655 0.0
O333 O 0.64256 0.97167 0.83052 0.0
O334 O 0.62948 0.9902 0.88478 0.0
C335 C 0.675 0.06308 0.83759 0.0
H336 H 0.53294 0.08871 0.95445 0.0
H337 H 0.62528 0.06298 0.99397 0.0
H338 H 0.6851 0.93099 0.7306 0.0
H339 H 0.6859 0.03806 0.69869 0.0
C340 C 0.86836 0.99501 0.30333 0.0
N341 N 0.91748 0.91963 0.35164 0.0
C342 C 0.93278 0.94547 0.37287 0.0
C343 C 0.95859 0.93809 0.39355 0.0
C344 C 0.96823 0.90375 0.3925 0.0
C345 C 0.95423 0.87864 0.36781 0.0
C346 C 0.92885 0.88728 0.3473 0.0
Zn347 Zn 0.87182 0.92523 0.33402 0.0
C348 C 0.82888 0.9586 0.38986 0.0
N349 N 0.77445 0.93425 0.29947 0.0
C350 C 0.76672 0.94277 0.26645 0.0
C351 C 0.75039 0.92265 0.3236 0.0
C352 C 0.71732 0.91903 0.31508 0.0
C353 C 0.70844 0.92706 0.28116 0.0
C354 C 0.73365 0.93944 0.25671 0.0
Zn355 Zn 0.82208 0.93256 0.31496 0.0
O356 O 0.88736 0.97453 0.31555 0.0
C357 C 0.86539 0.90188 0.2582 0.0
O358 O 0.8377 0.98524 0.30034 0.0
H359 H 0.7568 0.9154 0.34954 0.0
H360 H 0.92324 0.97094 0.376 0.0
H361 H 0.78619 0.95145 0.24744 0.0
O362 O 0.88489 0.90258 0.28365 0.0
O363 O 0.83702 0.91292 0.26383 0.0
H364 H 0.9164 0.86716 0.33016 0.0
O365 O 0.80785 0.88079 0.33055 0.0
O366 O 0.85585 0.87507 0.35232 0.0
O367 O 0.80836 0.95269 0.36555 0.0
O368 O 0.85814 0.94994 0.38441 0.0
C369 C 0.82662 0.8626 0.34628 0.0
H370 H 0.96866 0.95805 0.41255 0.0
H371 H 0.96118 0.85194 0.36627 0.0
H372 H 0.69887 0.91025 0.33516 0.0
H373 H 0.72798 0.94588 0.23018 0.0
C374 C 0.40876 0.5627 0.68339 0.0
N375 N 0.43904 0.65179 0.62628 0.0
C376 C 0.47008 0.64752 0.63618 0.0
C377 C 0.49715 0.65441 0.61251 0.0
C378 C 0.49202 0.6662 0.57873 0.0
C379 C 0.45999 0.67247 0.57023 0.0
C380 C 0.43373 0.66478 0.59437 0.0
Zn381 Zn 0.39844 0.63338 0.65548 0.0
C382 C 0.35207 0.58681 0.61256 0.0
N383 N 0.31429 0.59368 0.71618 0.0
C384 C 0.31147 0.58081 0.74935 0.0
C385 C 0.28708 0.6006 0.69911 0.0
C386 C 0.25587 0.59535 0.71518 0.0
C387 C 0.25203 0.58325 0.74966 0.0
C388 C 0.28018 0.57512 0.76669 0.0
Zn389 Zn 0.35745 0.60968 0.68894 0.0
O390 O 0.42242 0.58988 0.66864 0.0
C391 C 0.40341 0.65366 0.73275 0.0
O392 O 0.37857 0.56161 0.69423 0.0
H393 H 0.28943 0.61144 0.67313 0.0
H394 H 0.47368 0.63714 0.66172 0.0
H395 H 0.33342 0.57586 0.76266 0.0
O396 O 0.41583 0.66209 0.70234 0.0
O397 O 0.37905 0.63034 0.73497 0.0
H398 H 0.40885 0.66734 0.58673 0.0
O399 O 0.33756 0.6585 0.68388 0.0
O400 O 0.37381 0.67751 0.64295 0.0
O401 O 0.33656 0.58818 0.64236 0.0
O402 O 0.38072 0.60301 0.60916 0.0
C403 C 0.34824 0.68198 0.66254 0.0
H404 H 0.52156 0.64931 0.61994 0.0
H405 H 0.45487 0.68086 0.54421 0.0
H406 H 0.23484 0.60102 0.70062 0.0
H407 H 0.27811 0.56547 0.79329 0.0
H408 H 0.29791 0.38207 0.50993 0.0
H409 H 0.2892 0.57785 0.59199 0.0
H410 H 0.21657 0.41993 0.57354 0.0
H411 H 0.38327 0.53536 0.57525 0.0
H412 H 0.26195 0.523 0.5672 0.0
H413 H 0.33009 0.4395 0.52122 0.0
C414 C 0.28702 0.40219 0.52659 0.0
C415 C 0.25435 0.39638 0.54046 0.0
C416 C 0.28865 0.52584 0.56818 0.0
C417 C 0.29028 0.46193 0.55218 0.0
C418 C 0.30421 0.55736 0.58175 0.0
C419 C 0.33842 0.56102 0.58557 0.0
C420 C 0.30737 0.49754 0.5588 0.0
C421 C 0.3568 0.53354 0.57234 0.0
C422 C 0.3052 0.43496 0.53263 0.0
C423 C 0.24136 0.42343 0.56167 0.0
N424 N 0.34094 0.50248 0.5601 0.0
N425 N 0.25917 0.45498 0.56651 0.0
H426 H 0.72087 0.93168 0.67517 0.0
H427 H 0.89156 0.93894 0.6452 0.0
H428 H 0.73997 0.03601 0.72376 0.0
H429 H 0.89327 0.01052 0.73761 0.0
H430 H 0.83271 0.94447 0.64095 0.0
H431 H 0.78049 0.92912 0.66517 0.0
C432 C 0.73755 0.95434 0.68291 0.0
C433 C 0.72535 0.98418 0.69998 0.0
C434 C 0.84584 0.95874 0.66232 0.0
C435 C 0.79354 0.98161 0.68864 0.0
C436 C 0.87951 0.95572 0.66474 0.0
C437 C 0.89725 0.97363 0.69239 0.0
C438 C 0.82972 0.9799 0.6877 0.0
C439 C 0.88059 0.99608 0.71603 0.0
C440 C 0.7716 0.95301 0.67699 0.0
C441 C 0.74812 0.01271 0.70984 0.0
N442 N 0.84768 -0.0016 0.71326 0.0
N443 N 0.78107 0.01049 0.70451 0.0
H444 H 0.23488 0.72803 0.00074 0.0
H445 H 0.29217 0.54877 0.06364 0.0
H446 H 0.31471 0.71881 0.07022 0.0
H447 H 0.18825 0.55725 0.05312 0.0
H448 H 0.30412 0.60913 0.0453 0.0
H449 H 0.21903 0.66421 0.00476 0.0
C450 C 0.24874 0.71285 0.01718 0.0
C451 C 0.27626 0.72891 0.03508 0.0
C452 C 0.27873 0.59751 0.04614 0.0
C453 C 0.2592 0.65627 0.03837 0.0
C454 C 0.27197 0.5629 0.05603 0.0
C455 C 0.23921 0.5481 0.06002 0.0
C456 C 0.25258 0.61761 0.04034 0.0
C457 C 0.21388 0.5677 0.05011 0.0
C458 C 0.23986 0.6765 0.01914 0.0
C459 C 0.29344 0.70783 0.05578 0.0
N460 N 0.22101 0.6019 0.04136 0.0
N461 N 0.28489 0.67272 0.05644 0.0
H462 H 0.50409 0.93531 0.32755 0.0
H463 H 0.65926 0.87587 0.30032 0.0
H464 H 0.52267 0.98298 0.22661 0.0
H465 H 0.67622 0.97083 0.24212 0.0
H466 H 0.59971 0.87725 0.29499 0.0
H467 H 0.55657 0.90876 0.31905 0.0
C468 C 0.51857 0.93878 0.3029 0.0
C469 C 0.50925 0.96114 0.27768 0.0
C470 C 0.61651 0.89769 0.28335 0.0
C471 C 0.5694 0.93183 0.268 0.0
C472 C 0.65052 0.89698 0.28633 0.0
C473 C 0.67287 0.92394 0.27258 0.0
C474 C 0.60475 0.92554 0.26643 0.0
C475 C 0.6601 0.94968 0.25342 0.0
C476 C 0.54858 0.92374 0.29801 0.0
C477 C 0.52914 0.96571 0.24655 0.0
N478 N 0.62689 0.95005 0.25129 0.0
N479 N 0.55868 0.95194 0.24298 0.0
H480 H 0.78241 0.15459 0.46835 0.0
H481 H 0.7713 0.95357 0.42955 0.0
H482 H 0.71547 0.08553 0.5316 0.0
H483 H 0.86473 0.01635 0.41785 0.0
H484 H 0.75023 0.0006 0.46814 0.0
H485 H 0.81326 0.10473 0.44988 0.0
C486 C 0.77438 0.12921 0.47891 0.0
C487 C 0.74577 0.12446 0.50126 0.0
C488 C 0.77565 0.0037 0.458 0.0
C489 C 0.7808 0.06696 0.47929 0.0
C490 C 0.78769 0.97683 0.43617 0.0
C491 C 0.8198 0.98113 0.42085 0.0
C492 C 0.79549 0.03553 0.46338 0.0
C493 C 0.83995 0.01195 0.42962 0.0
C494 C 0.79208 0.10069 0.46823 0.0
C495 C 0.7366 0.09051 0.51343 0.0
N496 N 0.82718 0.03846 0.44961 0.0
N497 N 0.75368 0.063 0.50179 0.0
H498 H 0.05223 0.50709 0.82372 0.0
H499 H 0.22247 0.52759 0.78657 0.0
H500 H 0.05278 0.5646 0.72813 0.0
H501 H 0.20456 0.62883 0.74976 0.0
H502 H 0.16305 0.51559 0.80042 0.0
H503 H 0.11087 0.52679 0.82976 0.0
C504 C 0.06458 0.52446 0.80439 0.0
C505 C 0.04777 0.53429 0.77531 0.0
C506 C 0.17232 0.54083 0.79026 0.0
C507 C 0.11465 0.55627 0.78182 0.0
C508 C 0.2062 0.54768 0.78243 0.0
C509 C 0.21829 0.57891 0.76636 0.0
C510 C 0.15066 0.56532 0.78159 0.0
C511 C 0.19608 0.60399 0.76128 0.0
C512 C 0.09805 0.53527 0.80767 0.0
C513 C 0.06497 0.55636 0.75078 0.0
N514 N 0.16323 0.59627 0.76797 0.0
N515 N 0.09757 0.56666 0.75461 0.0
H516 H 0.65667 0.90941 0.82454 0.0
H517 H 0.78471 0.81976 0.86887 0.0
H518 H 0.66336 0.95672 0.93078 0.0
H519 H 0.73703 0.8141 0.97329 0.0
H520 H 0.74531 0.85991 0.8528 0.0
H521 H 0.68864 0.86298 0.84131 0.0
C522 C 0.66484 0.91006 0.85151 0.0
C523 C 0.65796 0.93752 0.8761 0.0
C524 C 0.74301 0.8494 0.87904 0.0
C525 C 0.69525 0.88443 0.89521 0.0
C526 C 0.7656 0.82672 0.88823 0.0
C527 C 0.7638 0.81347 0.92226 0.0
C528 C 0.71856 0.85923 0.90416 0.0
C529 C 0.73879 0.82348 0.94659 0.0
C530 C 0.68326 0.88356 0.86095 0.0
C531 C 0.66848 0.93626 0.91092 0.0
N532 N 0.71726 0.84621 0.93721 0.0
N533 N 0.68696 0.9102 0.91945 0.0
H534 H 0.54503 0.53167 0.24878 0.0
H535 H 0.36489 0.59856 0.23812 0.0
H536 H 0.52772 0.64091 0.24333 0.0
H537 H 0.38532 0.49233 0.2078 0.0
H538 H 0.42362 0.61305 0.25026 0.0
H539 H 0.48566 0.51528 0.24173 0.0
C540 C 0.52889 0.55215 0.24583 0.0
C541 C 0.54154 0.5877 0.24642 0.0
C542 C 0.41517 0.58648 0.24125 0.0
C543 C 0.47357 0.56922 0.23929 0.0
C544 C 0.38164 0.57817 0.23472 0.0
C545 C 0.37035 0.54428 0.22188 0.0
C546 C 0.43743 0.56059 0.23527 0.0
C547 C 0.39315 0.51885 0.2175 0.0
C548 C 0.495 0.5428 0.24197 0.0
C549 C 0.51928 0.61313 0.24279 0.0
N550 N 0.42558 0.52751 0.22409 0.0
N551 N 0.48649 0.60343 0.23961 0.0
H552 H 0.4358 0.20742 0.35278 0.0
H553 H 0.59353 0.17937 0.46359 0.0
H554 H 0.50759 0.13402 0.32359 0.0
H555 H 0.53483 0.26632 0.48854 0.0
H556 H 0.55925 0.16148 0.41369 0.0
H557 H 0.47018 0.23065 0.4026 0.0
C558 C 0.45908 0.19682 0.35637 0.0
C559 C 0.46885 0.16867 0.33431 0.0
C560 C 0.55369 0.18447 0.43002 0.0
C561 C 0.50756 0.19422 0.3911 0.0
C562 C 0.57319 0.19456 0.45879 0.0
C563 C 0.56715 0.22445 0.48029 0.0
C564 C 0.52776 0.20431 0.42246 0.0
C565 C 0.54033 0.24304 0.47265 0.0
C566 C 0.47847 0.20975 0.38492 0.0
C567 C 0.49897 0.15548 0.34024 0.0
N568 N 0.52163 0.23273 0.44423 0.0
N569 N 0.51702 0.16814 0.36811 0.0
H570 H 0.09475 0.34928 0.55066 0.0
H571 H 0.94892 0.30175 0.69571 0.0
H572 H 0.02685 0.2557 0.54005 0.0
H573 H 0.01854 0.39443 0.70135 0.0
H574 H 0.97623 0.28347 0.63911 0.0
H575 H 0.06459 0.36685 0.60481 0.0
C576 C 0.07306 0.3327 0.55945 0.0
C577 C 0.06331 0.30098 0.54084 0.0
C578 C 0.98557 0.30768 0.65293 0.0
C579 C 0.02895 0.3205 0.60366 0.0
C580 C 0.97025 0.31791 0.6854 0.0
C581 C 0.98148 0.34966 0.70332 0.0
C582 C 0.01226 0.32936 0.63845 0.0
C583 C 0.00894 0.3698 0.6885 0.0
C584 C 0.05595 0.3426 0.5906 0.0
C585 C 0.03503 0.28052 0.55349 0.0
N586 N 0.02322 0.35939 0.657 0.0
N587 N 0.01899 0.29044 0.58442 0.0
H588 H 0.08245 0.83706 0.77844 0.0
H589 H 0.91434 0.74791 0.8675 0.0
H590 H 0.98554 0.83637 0.73676 0.0
H591 H 0.0061 0.757 0.92158 0.0
H592 H 0.94336 0.77162 0.81519 0.0
H593 H 0.0584 0.79956 0.82626 0.0
C594 C 0.05633 0.82819 0.77876 0.0
C595 C 0.03592 0.83978 0.75359 0.0
C596 C 0.95741 0.76841 0.8383 0.0
C597 C 0.00831 0.79746 0.80821 0.0
C598 C 0.94077 0.75483 0.86837 0.0
C599 C 0.95769 0.75089 0.8993 0.0
C600 C 0.99145 0.77871 0.8388 0.0
C601 C 0.99207 0.75978 0.89838 0.0
C602 C 0.04259 0.80713 0.80624 0.0
C603 C 0.00218 0.82812 0.75562 0.0
N604 N 0.00782 0.77374 0.86871 0.0
N605 N 0.98951 0.80786 0.78244 0.0
H606 H 0.61716 0.80744 0.18338 0.0
H607 H 0.43143 0.79394 0.17229 0.0
H608 H 0.55242 0.79078 0.27603 0.0
H609 H 0.49291 0.85927 0.10023 0.0
H610 H 0.47531 0.80036 0.21393 0.0
H611 H 0.57458 0.83698 0.15651 0.0
C612 C 0.59448 0.8114 0.19866 0.0
C613 C 0.58777 0.79582 0.23142 0.0
C614 C 0.47903 0.8139 0.1893 0.0
C615 C 0.53877 0.82823 0.20056 0.0
C616 C 0.45384 0.81021 0.16531 0.0
C617 C 0.45843 0.82553 0.13213 0.0
C618 C 0.50952 0.83216 0.17983 0.0
C619 C 0.48853 0.84583 0.12482 0.0
C620 C 0.5701 0.82811 0.18328 0.0
C621 C 0.55827 0.80193 0.2504 0.0
N622 N 0.5132 0.84791 0.14812 0.0
N623 N 0.53429 0.81661 0.23416 0.0
H624 H 0.09981 0.29835 0.35618 0.0
H625 H 0.21252 0.45894 0.2705 0.0
H626 H 0.17654 0.36248 0.41106 0.0
H627 H 0.13873 0.39344 0.2126 0.0
H628 H 0.19656 0.42628 0.32343 0.0
H629 H 0.11037 0.33536 0.30491 0.0
C630 C 0.11864 0.32041 0.35763 0.0
C631 C 0.13742 0.32717 0.38798 0.0
C632 C 0.18372 0.41907 0.29923 0.0
C633 C 0.14977 0.36951 0.32923 0.0
C634 C 0.19284 0.43775 0.2689 0.0
C635 C 0.17707 0.42887 0.23688 0.0
C636 C 0.15863 0.39111 0.29776 0.0
C637 C 0.15165 0.40118 0.23663 0.0
C638 C 0.12472 0.34146 0.32827 0.0
C639 C 0.16153 0.35611 0.38824 0.0
N640 N 0.14332 0.3832 0.26655 0.0
N641 N 0.16708 0.37604 0.35931 0.0
H642 H 0.09483 0.89863 0.57018 0.0
H643 H 0.95116 0.84951 0.4353 0.0
H644 H 0.99244 0.87648 0.604 0.0
H645 H 0.02748 0.93397 0.41686 0.0
H646 H 0.97597 0.83901 0.49119 0.0
H647 H 0.0789 0.89158 0.50795 0.0
C648 C 0.06916 0.8913 0.56446 0.0
C649 C 0.04478 0.88827 0.59203 0.0
C650 C 0.98769 0.85921 0.4744 0.0
C651 C 0.02679 0.87974 0.52158 0.0
C652 C 0.97378 0.86507 0.44246 0.0
C653 C 0.98734 0.89272 0.42161 0.0
C654 C 0.01559 0.88077 0.48518 0.0
C655 C 0.0163 0.91252 0.43238 0.0
C656 C 0.06017 0.88752 0.52911 0.0
C657 C 0.01186 0.8792 0.58338 0.0
N658 N 0.02945 0.9063 0.46368 0.0
N659 N 0.00376 0.87528 0.54879 0.0
H660 H 0.42144 0.72402 0.74034 0.0
H661 H 0.39155 0.72672 0.95122 0.0
H662 H 0.40552 0.6294 0.79892 0.0
H663 H 0.35609 0.80075 0.8829 0.0
H664 H 0.41672 0.69715 0.89859 0.0
H665 H 0.41972 0.75902 0.79668 0.0
C666 C 0.41893 0.71066 0.76513 0.0
C667 C 0.41314 0.67394 0.76525 0.0
C668 C 0.40377 0.72017 0.8954 0.0
C669 C 0.41096 0.71344 0.82912 0.0
C670 C 0.38933 0.73684 0.92521 0.0
C671 C 0.37117 0.76558 0.92106 0.0
C672 C 0.40067 0.73309 0.86165 0.0
C673 C 0.36925 0.77809 0.887 0.0
C674 C 0.41763 0.73057 0.79713 0.0
C675 C 0.40966 0.65777 0.79794 0.0
N676 N 0.38379 0.76171 0.85853 0.0
N677 N 0.40816 0.67767 0.82871 0.0
H678 H 0.50213 0.06309 0.19513 0.0
H679 H 0.54513 0.13461 0.00166 0.0
H680 H 0.46626 0.15675 0.15783 0.0
H681 H 0.58353 0.04282 0.03987 0.0
H682 H 0.52103 0.14688 0.06105 0.0
H683 H 0.5374 0.05915 0.1411 0.0
C684 C 0.50194 0.08305 0.17577 0.0
C685 C 0.4809 0.11003 0.18077 0.0
C686 C 0.53502 0.12425 0.05656 0.0
C687 C 0.521 0.10554 0.11879 0.0
C688 C 0.54864 0.11716 0.02263 0.0
C689 C 0.56606 0.08746 0.01575 0.0
C690 C 0.53861 0.10131 0.08377 0.0
C691 C 0.5704 0.06609 0.04403 0.0
C692 C 0.52208 0.08078 0.14491 0.0
C693 C 0.48186 0.13531 0.15493 0.0
N694 N 0.55644 0.07321 0.07671 0.0
N695 N 0.5013 0.13222 0.12488 0.0
H696 H 0.6066 0.15956 0.61072 0.0
H697 H 0.60389 0.14774 0.81363 0.0
H698 H 0.59801 0.25562 0.67429 0.0
H699 H 0.5498 0.06882 0.7476 0.0
H700 H 0.60275 0.18972 0.76636 0.0
H701 H 0.58897 0.12584 0.66278 0.0
C702 C 0.60085 0.17348 0.63567 0.0
C703 C 0.60376 0.21027 0.63839 0.0
C704 C 0.59019 0.16354 0.76287 0.0
C705 C 0.58404 0.17206 0.698 0.0
C706 C 0.59057 0.13975 0.7899 0.0
C707 C 0.57734 0.10476 0.78411 0.0
C708 C 0.57693 0.15172 0.73014 0.0
C709 C 0.56073 0.09549 0.75275 0.0
C710 C 0.59055 0.15431 0.66525 0.0
C711 C 0.59591 0.22717 0.67126 0.0
N712 N 0.56173 0.11853 0.72654 0.0
N713 N 0.58695 0.2079 0.70014 0.0
H714 H 0.08867 0.36225 0.01089 0.0
H715 H 0.98991 0.45371 0.871 0.0
H716 H 0.05905 0.46721 0.02876 0.0
H717 H 0.98082 0.34074 0.87791 0.0
H718 H 0.02059 0.45943 0.92541 0.0
H719 H 0.05335 0.35362 0.95951 0.0
C720 C 0.07435 0.38327 0.00424 0.0
C721 C 0.07665 0.41545 0.0241 0.0
C722 C 0.01185 0.43339 0.91506 0.0
C723 C 0.037 0.40611 0.96506 0.0
C724 C 0.99457 0.43005 0.88381 0.0
C725 C 0.98283 0.39664 0.86979 0.0
C726 C 0.01801 0.40313 0.93223 0.0
C727 C 0.98943 0.36698 0.88778 0.0
C728 C 0.05427 0.37835 0.97498 0.0
C729 C 0.05771 0.44189 0.01436 0.0
N730 N 0.00681 0.37089 0.91797 0.0
N731 N 0.03903 0.43681 0.98524 0.0
H732 H 0.92319 0.87416 0.2373 0.0
H733 H 0.86912 0.83222 0.03765 0.0
H734 H 0.83213 0.90182 0.19676 0.0
H735 H 0.95377 0.79286 0.08136 0.0
H736 H 0.86182 0.86853 0.09208 0.0
H737 H 0.94 0.85321 0.17749 0.0
C738 C 0.90674 0.87589 0.21582 0.0
C739 C 0.87601 0.88936 0.22213 0.0
C740 C 0.88233 0.85239 0.08952 0.0
C741 C 0.89527 0.86574 0.15355 0.0
C742 C 0.88671 0.83187 0.05828 0.0
C743 C 0.91172 0.80892 0.05521 0.0
C744 C 0.90308 0.84991 0.11782 0.0
C745 C 0.93385 0.80977 0.08277 0.0
C746 C 0.91643 0.86406 0.18165 0.0
C747 C 0.85587 0.89126 0.19321 0.0
N748 N 0.92868 0.82945 0.11318 0.0
N749 N 0.86579 0.8794 0.16023 0.0
H750 H 0.53506 0.61694 0.56164 0.0
H751 H 0.58327 0.69645 0.3726 0.0
H752 H 0.50798 0.71702 0.53063 0.0
H753 H 0.60323 0.59252 0.40025 0.0
H754 H 0.56267 0.70792 0.4334 0.0
H755 H 0.56889 0.61213 0.50666 0.0
C756 C 0.53698 0.63837 0.54371 0.0
C757 C 0.51842 0.66724 0.55041 0.0
C758 C 0.57164 0.68263 0.42622 0.0
C759 C 0.55627 0.66148 0.48716 0.0
C760 C 0.58324 0.67597 0.39144 0.0
C761 C 0.59458 0.64328 0.38122 0.0
C762 C 0.57131 0.65641 0.45101 0.0
C763 C 0.59435 0.61794 0.40689 0.0
C764 C 0.55597 0.63542 0.51213 0.0
C765 C 0.52152 0.69407 0.52612 0.0
N766 N 0.58272 0.62498 0.4406 0.0
N767 N 0.53972 0.69032 0.49531 0.0
H768 H 0.17305 0.16745 0.38296 0.0
H769 H 0.36077 0.12209 0.38558 0.0
H770 H 0.24623 0.22175 0.45063 0.0
H771 H 0.29438 0.08354 0.30374 0.0
H772 H 0.3148 0.14756 0.41879 0.0
H773 H 0.21384 0.12771 0.36077 0.0
C774 C 0.19772 0.17116 0.39299 0.0
C775 C 0.20635 0.1983 0.41832 0.0
C776 C 0.31005 0.13262 0.39406 0.0
C777 C 0.25287 0.15243 0.39367 0.0
C778 C 0.33613 0.11754 0.37554 0.0
C779 C 0.33103 0.10043 0.34227 0.0
C780 C 0.27894 0.13065 0.37891 0.0
C781 C 0.29899 0.09621 0.32962 0.0
C782 C 0.2209 0.14829 0.38054 0.0
C783 C 0.23857 0.20152 0.43075 0.0
N784 N 0.27419 0.11166 0.34772 0.0
N785 N 0.26064 0.17891 0.41827 0.0
H786 H 0.1252 0.20733 0.5951 0.0
H787 H 0.13881 0.00123 0.60844 0.0
H788 H 0.14262 0.13859 0.50333 0.0
H789 H 0.06908 0.05579 0.67488 0.0
H790 H 0.15417 0.05552 0.57702 0.0
H791 H 0.11826 0.15551 0.6323 0.0
C792 C 0.12825 0.18145 0.58303 0.0
C793 C 0.13446 0.17698 0.54627 0.0
C794 C 0.13574 0.05559 0.59872 0.0
C795 C 0.127 0.11826 0.58823 0.0
C796 C 0.12702 0.02472 0.61668 0.0
C797 C 0.10243 0.02395 0.64408 0.0
C798 C 0.12032 0.08611 0.60877 0.0
C799 C 0.08792 0.05517 0.65364 0.0
C800 C 0.12407 0.152 0.60409 0.0
C801 C 0.13777 0.14296 0.53164 0.0
N802 N 0.09713 0.08505 0.63606 0.0
N803 N 0.13412 0.1149 0.55265 0.0
H804 H 0.14217 -0.00025 0.77681 0.0
H805 H 0.21857 0.87638 0.84697 0.0
H806 H 0.05935 0.93457 0.8207 0.0
H807 H 0.17485 0.90852 0.94884 0.0
H808 H 0.1826 0.91238 0.81808 0.0
H809 H 0.17539 0.98527 0.82538 0.0
C810 C 0.1304 0.98419 0.79794 0.0
C811 C 0.09826 0.96788 0.79468 0.0
C812 C 0.1812 0.91162 0.84682 0.0
C813 C 0.13613 0.95054 0.84918 0.0
C814 C 0.20171 0.89114 0.8634 0.0
C815 C 0.20028 0.88971 0.90056 0.0
C816 C 0.1586 0.93037 0.86732 0.0
C817 C 0.17673 0.90853 0.92013 0.0
C818 C 0.14945 0.97562 0.82532 0.0
C819 C 0.08415 0.94753 0.82242 0.0
N820 N 0.15649 0.92795 0.9032 0.0
N821 N 0.10363 0.93827 0.84807 0.0
H822 H 0.34451 0.99311 0.24037 0.0
H823 H 0.28536 0.93471 0.04652 0.0
H824 H 0.34386 0.06563 0.15643 0.0
H825 H 0.30345 0.86449 0.12779 0.0
H826 H 0.29076 0.98433 0.09065 0.0
H827 H 0.31398 0.94811 0.20388 0.0
C828 C 0.33776 -0.00039 0.2142 0.0
C829 C 0.34743 0.03284 0.20099 0.0
C830 C 0.29257 0.95792 0.099 0.0
C831 C 0.31263 0.98113 0.15877 0.0
C832 C 0.28912 0.92961 0.07397 0.0
C833 C 0.29427 0.8957 0.08368 0.0
C834 C 0.30094 0.9519 0.13376 0.0
C835 C 0.29956 0.89038 0.11932 0.0
C836 C 0.32017 0.97391 0.19341 0.0
C837 C 0.33725 0.0401 0.16732 0.0
N838 N 0.30318 0.91824 0.14296 0.0
N839 N 0.32089 0.01415 0.14697 0.0
H840 H 0.8839 0.38097 0.65952 0.0
H841 H 0.68773 0.35682 0.64053 0.0
H842 H 0.81455 0.41355 0.74161 0.0
H843 H 0.75516 0.29281 0.58145 0.0
H844 H 0.73474 0.38898 0.66989 0.0
H845 H 0.83746 0.36107 0.62165 0.0
C846 C 0.85893 0.38513 0.66891 0.0
C847 C 0.85276 0.39923 0.7033 0.0
C848 C 0.73918 0.36796 0.6504 0.0
C849 C 0.79992 0.37594 0.661 0.0
C850 C 0.7124 0.34953 0.63373 0.0
C851 C 0.71751 0.32179 0.60886 0.0
C852 C 0.77131 0.35891 0.64177 0.0
C853 C 0.75004 0.31369 0.60083 0.0
C854 C 0.83249 0.37336 0.64762 0.0
C855 C 0.82008 0.40315 0.71495 0.0
N856 N 0.77573 0.33217 0.61725 0.0
N857 N 0.79479 0.39138 0.6939 0.0
H858 H 0.88043 0.43507 0.8999 0.0
H859 H 0.83575 0.63372 0.90114 0.0
H860 H 0.83929 0.48057 0.81176 0.0
H861 H 0.90026 0.59327 0.97356 0.0
H862 H 0.82171 0.57348 0.87707 0.0
H863 H 0.87006 0.48772 0.93709 0.0
C864 C 0.86772 0.45541 0.88893 0.0
C865 C 0.86091 0.45388 0.85283 0.0
C866 C 0.83865 0.57787 0.89851 0.0
C867 C 0.85009 0.51427 0.89443 0.0
C868 C 0.84681 0.6122 0.91206 0.0
C869 C 0.86981 0.61857 0.93874 0.0
C870 C 0.85335 0.54984 0.91206 0.0
C871 C 0.88301 0.58968 0.95237 0.0
C872 C 0.8623 0.48568 0.90992 0.0
C873 C 0.84503 0.4811 0.83956 0.0
N874 N 0.87477 0.55665 0.93872 0.0
N875 N 0.84073 0.51058 0.86017 0.0
H876 H 0.85651 0.64776 0.09424 0.0
H877 H 0.66501 0.64982 0.15337 0.0
H878 H 0.78745 0.70906 0.0476 0.0
H879 H 0.72979 0.5874 0.20481 0.0
H880 H 0.70918 0.66548 0.10962 0.0
H881 H 0.81081 0.62136 0.13241 0.0
C882 C 0.83191 0.65584 0.09219 0.0
C883 C 0.82588 0.6808 0.0678 0.0
C884 C 0.71379 0.64793 0.1301 0.0
C885 C 0.77367 0.65036 0.11063 0.0
C886 C 0.68839 0.63872 0.15487 0.0
C887 C 0.69381 0.61736 0.18268 0.0
C888 C 0.74516 0.63626 0.13346 0.0
C889 C 0.72461 0.60377 0.18353 0.0
C890 C 0.80583 0.64057 0.11372 0.0
C891 C 0.79345 0.69002 0.06599 0.0
N892 N 0.74942 0.61395 0.1596 0.0
N893 N 0.76875 0.67485 0.08701 0.0
H894 H 0.69506 0.37304 0.49551 0.0
H895 H 0.63598 0.42152 0.31662 0.0
H896 H 0.65585 0.2896 0.42377 0.0
H897 H 0.72399 0.4762 0.36014 0.0
H898 H 0.64311 0.37135 0.35256 0.0
H899 H 0.70617 0.41126 0.44534 0.0
C900 C 0.6894 0.36272 0.46896 0.0
C901 C 0.67469 0.32842 0.46339 0.0
C902 C 0.6613 0.39401 0.35345 0.0
C903 C 0.68625 0.37189 0.40635 0.0
C904 C 0.65731 0.42259 0.33291 0.0
C905 C 0.67891 0.45341 0.33622 0.0
C906 C 0.6867 0.39676 0.37768 0.0
C907 C 0.70613 0.45336 0.35774 0.0
C908 C 0.69582 0.38435 0.44038 0.0
C909 C 0.66746 0.31601 0.42874 0.0
N910 N 0.70879 0.42585 0.37837 0.0
N911 N 0.67261 0.33808 0.40142 0.0
H912 H 0.21912 0.35793 0.11481 0.0
H913 H 0.38224 0.27155 0.15727 0.0
H914 H 0.31173 0.42065 0.13111 0.0
H915 H 0.28515 0.23654 0.20128 0.0
H916 H 0.35835 0.31929 0.12994 0.0
H917 H 0.24569 0.30512 0.1266 0.0
C918 C 0.24528 0.36045 0.11974 0.0
C919 C 0.26325 0.39366 0.12233 0.0
C920 C 0.34242 0.30078 0.14531 0.0
C921 C 0.29353 0.33364 0.13576 0.0
C922 C 0.356 0.27371 0.16134 0.0
C923 C 0.33588 0.2499 0.1822 0.0
C924 C 0.30839 0.30361 0.14938 0.0
C925 C 0.30179 0.25367 0.18521 0.0
C926 C 0.26027 0.33041 0.12678 0.0
C927 C 0.297 0.3955 0.12915 0.0
N928 N 0.28916 0.27999 0.169 0.0
N929 N 0.31107 0.36585 0.13589 0.0
H930 H 0.84694 0.20079 0.77268 0.0
H931 H 0.70197 0.10361 0.89231 0.0
H932 H 0.80627 0.24457 0.87099 0.0
H933 H 0.71908 0.07547 0.78098 0.0
H934 H 0.74955 0.14731 0.88925 0.0
H935 H 0.8091 0.14713 0.77986 0.0
C936 C 0.8304 0.19878 0.79603 0.0
C937 C 0.82936 0.22704 0.82118 0.0
C938 C 0.74308 0.13139 0.86554 0.0
C939 C 0.78646 0.16625 0.82955 0.0
C940 C 0.71593 0.10637 0.86724 0.0
C941 C 0.70621 0.08625 0.83667 0.0
C942 C 0.76074 0.13642 0.83307 0.0
C943 C 0.72554 0.0907 0.80508 0.0
C944 C 0.80879 0.16837 0.8 0.0
C945 C 0.80748 0.22343 0.85085 0.0
N946 N 0.75179 0.11563 0.80398 0.0
N947 N 0.78681 0.19363 0.85416 0.0
H948 H 0.11135 0.53315 0.19153 0.0
H949 H 0.00936 0.59011 0.07608 0.0
H950 H 0.18421 0.60323 0.13744 0.0
H951 H 0.05594 0.69524 0.09745 0.0
H952 H 0.04993 0.56709 0.11136 0.0
H953 H 0.06799 0.56762 0.17339 0.0
C954 C 0.11831 0.55682 0.17723 0.0
C955 C 0.1513 0.5655 0.16603 0.0
C956 C 0.05091 0.59528 0.10875 0.0
C957 C 0.10184 0.60387 0.14372 0.0
C958 C 0.02765 0.60859 0.08858 0.0
C959 C 0.02852 0.64495 0.08401 0.0
C960 C 0.07588 0.6182 0.12417 0.0
C961 C 0.05419 0.66704 0.09982 0.0
C962 C 0.09356 0.57605 0.16635 0.0
C963 C 0.15904 0.59602 0.14693 0.0
N964 N 0.07709 0.65327 0.11889 0.0
N965 N 0.13431 0.61385 0.13567 0.0
H966 H 0.86153 0.80491 0.3412 0.0
H967 H 0.7607 0.66053 0.28266 0.0
H968 H 0.76523 0.83839 0.36995 0.0
H969 H 0.69446 0.68524 0.37087 0.0
H970 H 0.80199 0.70613 0.30549 0.0
H971 H 0.83791 0.7432 0.34335 0.0
C972 C 0.83563 0.79918 0.34885 0.0
C973 C 0.81497 0.8264 0.35473 0.0
C974 C 0.77914 0.7004 0.3209 0.0
C975 C 0.78818 0.7568 0.35728 0.0
C976 C 0.75565 0.67443 0.3078 0.0
C977 C 0.72449 0.66955 0.32509 0.0
C978 C 0.7707 0.72172 0.35085 0.0
C979 C 0.71843 0.68853 0.35702 0.0
C980 C 0.82222 0.76414 0.34983 0.0
C981 C 0.78172 0.81796 0.36462 0.0
N982 N 0.74104 0.71453 0.36844 0.0
N983 N 0.76928 0.78382 0.36536 0.0
H984 H 0.48374 0.3752 0.59928 0.0
H985 H 0.4741 0.56317 0.69382 0.0
H986 H 0.56662 0.43254 0.6506 0.0
H987 H 0.38698 0.49315 0.67219 0.0
H988 H 0.50812 0.51459 0.68079 0.0
H989 H 0.4476 0.41701 0.62704 0.0
C990 C 0.49435 0.39634 0.61664 0.0
C991 C 0.52843 0.40041 0.62237 0.0
C992 C 0.48153 0.50956 0.67956 0.0
C993 C 0.48709 0.44865 0.6539 0.0
C994 C 0.46212 0.53724 0.68712 0.0
C995 C 0.42778 0.53201 0.68401 0.0
C996 C 0.46656 0.47659 0.66795 0.0
C997 C 0.41339 0.49807 0.67511 0.0
C998 C 0.47364 0.42022 0.63248 0.0
C999 C 0.54071 0.42872 0.64472 0.0
N1000 N 0.43296 0.47168 0.66669 0.0
N1001 N 0.52011 0.45188 0.65943 0.0
H1002 H 0.34602 0.72705 0.60824 0.0
H1003 H 0.23891 0.85847 0.72595 0.0
H1004 H 0.3139 0.71176 0.71756 0.0
H1005 H 0.22828 0.84108 0.61303 0.0
H1006 H 0.28141 0.81691 0.72306 0.0
H1007 H 0.31621 0.78029 0.60978 0.0
C1008 C 0.33295 0.73506 0.63256 0.0
C1009 C 0.33194 0.71481 0.66265 0.0
C1010 C 0.27022 0.82279 0.69882 0.0
C1011 C 0.29889 0.77567 0.66485 0.0
C1012 C 0.24629 0.84668 0.70042 0.0
C1013 C 0.23013 0.85293 0.66971 0.0
C1014 C 0.2782 0.80545 0.66623 0.0
C1015 C 0.24018 0.83669 0.63729 0.0
C1016 C 0.31605 0.76532 0.63342 0.0
C1017 C 0.31483 0.72634 0.69359 0.0
N1018 N 0.26347 0.81344 0.63639 0.0
N1019 N 0.29903 0.75601 0.69391 0.0
H1020 H 0.35889 0.92655 0.92565 0.0
H1021 H 0.54095 0.91452 0.84189 0.0
H1022 H 0.43418 0.87438 0.97325 0.0
H1023 H 0.49608 0.01205 0.84165 0.0
H1024 H 0.4913 0.88806 0.87365 0.0
H1025 H 0.40088 0.9497 0.88125 0.0
C1026 C 0.38421 0.92041 0.9271 0.0
C1027 C 0.39309 0.89882 0.95344 0.0
C1028 C 0.49199 0.91493 0.86558 0.0
C1029 C 0.44022 0.92334 0.90197 0.0
C1030 C 0.51998 0.92976 0.847 0.0
C1031 C 0.52225 0.96528 0.83911 0.0
C1032 C 0.46625 0.9358 0.87583 0.0
C1033 C 0.49489 0.98441 0.84719 0.0
C1034 C 0.40792 0.93322 0.90161 0.0
C1035 C 0.42617 0.89121 0.95377 0.0
N1036 N 0.46799 0.96953 0.86551 0.0
N1037 N 0.44838 0.90309 0.92819 0.0
H1038 H 0.9166 0.01821 0.25598 0.0
H1039 H 0.0381 0.12489 0.33467 0.0
H1040 H 0.8537 0.05259 0.3433 0.0
H1041 H 0.96165 0.17364 0.39675 0.0
H1042 H 0.99603 0.09017 0.30117 0.0
H1043 H 0.95538 0.06996 0.26703 0.0
C1044 C 0.91047 0.03753 0.27668 0.0
C1045 C 0.88211 0.03135 0.2988 0.0
C1046 C 0.98816 0.10909 0.32129 0.0
C1047 C 0.92773 0.08866 0.31406 0.0
C1048 C 0.01237 0.1285 0.34099 0.0
C1049 C 0.00342 0.15188 0.36885 0.0
C1050 C 0.95455 0.11301 0.32947 0.0
C1051 C 0.9697 0.15597 0.37543 0.0
C1052 C 0.93307 0.06659 0.28373 0.0
C1053 C 0.87529 0.05674 0.32552 0.0
N1054 N 0.94651 0.13637 0.35623 0.0
N1055 N 0.89841 0.08389 0.33304 0.0
loop_
_geom_bond_atom_site_label_1
_geom_bond_atom_site_label_2
_geom_bond_distance
_geom_bond_site_symmetry_2
_ccdc_geom_bond_type
C0 O16 1.251 . S
C0 O18 1.254 . S
N1 C2 1.333 . S
N1 C6 1.307 . S
N1 Zn7 2.020 . S
C2 N1 1.333 . S
C2 C3 1.379 . S
C2 H20 0.952 . S
C3 C2 1.379 . S
C3 C4 1.390 . S
C3 H30 0.949 . S
C4 C3 1.390 . S
C4 C5 1.357 . S
C5 C4 1.357 . S
C5 C6 1.370 . S
C5 H31 0.950 . S
C6 N1 1.307 . S
C6 C5 1.370 . S
C6 H24 0.948 . S
Zn7 N1 2.020 . S
Zn7 O16 2.039 . S
Zn7 O22 2.034 . S
Zn7 O26 2.025 . S
Zn7 O28 2.024 . S
C8 O27 1.246 . S
C8 O28 1.249 . S
N9 C10 1.307 . S
N9 C11 1.333 . S
N9 Zn15 2.020 . S
C10 N9 1.307 . S
C10 C14 1.370 . S
C10 H21 0.948 . S
C11 N9 1.333 . S
C11 C12 1.379 . S
C11 H19 0.952 . S
C12 C11 1.379 . S
C12 C13 1.390 . S
C12 H32 0.949 . S
C13 C12 1.390 . S
C13 C14 1.357 . S
C14 C10 1.370 . S
C14 C13 1.357 . S
C14 H33 0.950 . S
Zn15 N9 2.020 . S
Zn15 O18 2.025 . S
Zn15 O23 2.024 . S
Zn15 O25 2.039 . S
Zn15 O27 2.034 . S
O16 C0 1.251 . S
O16 Zn7 2.039 . S
C17 O22 1.246 . S
C17 O23 1.249 . S
O18 C0 1.254 . S
O18 Zn15 2.025 . S
H19 C11 0.952 . S
H20 C2 0.952 . S
H21 C10 0.948 . S
O22 Zn7 2.034 . S
O22 C17 1.246 . S
O23 Zn15 2.024 . S
O23 C17 1.249 . S
H24 C6 0.948 . S
O25 Zn15 2.039 . S
O25 C29 1.251 . S
O26 Zn7 2.025 . S
O26 C29 1.254 . S
O27 C8 1.246 . S
O27 Zn15 2.034 . S
O28 Zn7 2.024 . S
O28 C8 1.249 . S
C29 O25 1.251 . S
C29 O26 1.254 . S
H30 C3 0.949 . S
H31 C5 0.950 . S
H32 C12 0.949 . S
H33 C14 0.950 . S
C34 O50 1.251 . S
C34 O52 1.254 . S
N35 C36 1.333 . S
N35 C40 1.307 . S
N35 Zn41 2.020 . S
C36 N35 1.333 . S
C36 C37 1.379 . S
C36 H54 0.952 . S
C37 C36 1.379 . S
C37 C38 1.390 . S
C37 H64 0.949 . S
C38 C37 1.390 . S
C38 C39 1.357 . S
C39 C38 1.357 . S
C39 C40 1.370 . S
C39 H65 0.950 . S
C40 N35 1.307 . S
C40 C39 1.370 . S
C40 H58 0.948 . S
Zn41 N35 2.020 . S
Zn41 O50 2.039 . S
Zn41 O56 2.034 . S
Zn41 O60 2.025 . S
Zn41 O62 2.024 . S
C42 O61 1.246 . S
C42 O62 1.249 . S
N43 C44 1.307 . S
N43 C45 1.333 1_455 S
N43 Zn49 2.020 . S
C44 N43 1.307 . S
C44 C48 1.370 1_565 S
C44 H55 0.948 . S
C45 N43 1.333 1_655 S
C45 C46 1.379 . S
C45 H53 0.952 . S
C46 C45 1.379 . S
C46 C47 1.388 . S
C46 H66 0.949 . S
C47 C46 1.388 . S
C47 C48 1.357 1_665 S
C48 C44 1.370 1_545 S
C48 C47 1.357 1_445 S
C48 H67 0.950 . S
Zn49 N43 2.020 . S
Zn49 O52 2.025 . S
Zn49 O57 2.024 . S
Zn49 O59 2.039 . S
Zn49 O61 2.034 . S
O50 C34 1.251 . S
O50 Zn41 2.039 . S
C51 O56 1.246 . S
C51 O57 1.249 . S
O52 C34 1.254 . S
O52 Zn49 2.025 . S
H53 C45 0.952 . S
H54 C36 0.952 . S
H55 C44 0.948 . S
O56 Zn41 2.034 . S
O56 C51 1.246 . S
O57 Zn49 2.024 . S
O57 C51 1.249 . S
H58 C40 0.948 . S
O59 Zn49 2.039 . S
O59 C63 1.251 . S
O60 Zn41 2.025 . S
O60 C63 1.254 . S
O61 C42 1.246 . S
O61 Zn49 2.034 . S
O62 Zn41 2.024 . S
O62 C42 1.249 . S
C63 O59 1.251 . S
C63 O60 1.254 . S
H64 C37 0.949 . S
H65 C39 0.950 . S
H66 C46 0.949 . S
H67 C48 0.950 . S
C68 O84 1.251 . S
C68 O86 1.254 . S
N69 C70 1.333 . S
N69 C74 1.307 . S
N69 Zn75 2.020 . S
C70 N69 1.333 . S
C70 C71 1.379 . S
C70 H88 0.952 . S
C71 C70 1.379 . S
C71 C72 1.390 . S
C71 H98 0.949 . S
C72 C71 1.390 . S
C72 C73 1.357 . S
C73 C72 1.357 . S
C73 C74 1.370 . S
C73 H99 0.950 . S
C74 N69 1.307 . S
C74 C73 1.370 . S
C74 H92 0.948 . S
Zn75 N69 2.020 . S
Zn75 O84 2.039 . S
Zn75 O90 2.034 . S
Zn75 O94 2.025 . S
Zn75 O96 2.024 . S
C76 O95 1.246 . S
C76 O96 1.249 . S
N77 C78 1.299 1_554 S
N77 C79 1.358 . S
N77 Zn83 2.005 1_554 S
C78 N77 1.299 1_556 S
C78 C82 1.370 1_556 S
C78 H89 0.948 . S
C79 N77 1.358 . S
C79 C80 1.379 . S
C79 H87 0.952 . S
C80 C79 1.379 . S
C80 C81 1.390 . S
C80 H100 0.949 . S
C81 C80 1.390 . S
C81 C82 1.357 . S
C82 C78 1.370 1_554 S
C82 C81 1.357 . S
C82 H101 0.950 1_554 S
Zn83 N77 2.005 1_556 S
Zn83 O86 2.025 . S
Zn83 O91 2.024 . S
Zn83 O93 2.039 1_556 S
Zn83 O95 2.034 . S
O84 C68 1.251 . S
O84 Zn75 2.039 . S
C85 O90 1.246 . S
C85 O91 1.249 . S
O86 C68 1.254 . S
O86 Zn83 2.025 . S
H87 C79 0.952 . S
H88 C70 0.952 . S
H89 C78 0.948 . S
O90 Zn75 2.034 . S
O90 C85 1.246 . S
O91 Zn83 2.024 . S
O91 C85 1.249 . S
H92 C74 0.948 . S
O93 Zn83 2.039 1_554 S
O93 C97 1.251 . S
O94 Zn75 2.025 . S
O94 C97 1.254 1_556 S
O95 C76 1.246 . S
O95 Zn83 2.034 . S
O96 Zn75 2.024 . S
O96 C76 1.249 . S
C97 O93 1.251 . S
C97 O94 1.254 1_554 S
H98 C71 0.949 . S
H99 C73 0.950 . S
H100 C80 0.949 . S
H101 C82 0.950 1_556 S
C102 O118 1.251 . S
C102 O120 1.254 . S
N103 C104 1.333 . S
N103 C108 1.307 . S
N103 Zn109 2.020 . S
C104 N103 1.333 . S
C104 C105 1.379 . S
C104 H122 0.952 . S
C105 C104 1.379 . S
C105 C106 1.390 . S
C105 H132 0.949 . S
C106 C105 1.390 . S
C106 C107 1.357 . S
C107 C106 1.357 . S
C107 C108 1.370 . S
C107 H133 0.950 . S
C108 N103 1.307 . S
C108 C107 1.370 . S
C108 H126 0.948 . S
Zn109 N103 2.020 . S
Zn109 O118 2.039 . S
Zn109 O124 2.034 . S
Zn109 O128 2.025 . S
Zn109 O130 2.024 . S
C110 O129 1.246 . S
C110 O130 1.249 . S
N111 C112 1.307 . S
N111 C113 1.333 . S
N111 Zn117 2.020 . S
C112 N111 1.307 . S
C112 C116 1.370 . S
C112 H123 0.948 . S
C113 N111 1.333 . S
C113 C114 1.379 . S
C113 H121 0.952 . S
C114 C113 1.379 . S
C114 C115 1.390 . S
C114 H134 0.949 . S
C115 C114 1.390 . S
C115 C116 1.357 . S
C116 C112 1.370 . S
C116 C115 1.357 . S
C116 H135 0.950 1_545 S
Zn117 N111 2.020 . S
Zn117 O120 2.025 . S
Zn117 O125 2.024 . S
Zn117 O127 2.039 . S
Zn117 O129 2.034 . S
O118 C102 1.251 . S
O118 Zn109 2.039 . S
C119 O124 1.246 . S
C119 O125 1.249 . S
O120 C102 1.254 . S
O120 Zn117 2.025 . S
H121 C113 0.952 . S
H122 C104 0.952 . S
H123 C112 0.948 . S
O124 Zn109 2.034 . S
O124 C119 1.246 . S
O125 Zn117 2.024 . S
O125 C119 1.249 . S
H126 C108 0.948 . S
O127 Zn117 2.039 . S
O127 C131 1.251 . S
O128 Zn109 2.025 . S
O128 C131 1.254 . S
O129 C110 1.246 . S
O129 Zn117 2.034 . S
O130 Zn109 2.024 . S
O130 C110 1.249 . S
C131 O127 1.251 . S
C131 O128 1.254 . S
H132 C105 0.949 . S
H133 C107 0.950 . S
H134 C114 0.949 . S
H135 C116 0.950 1_565 S
C136 O152 1.251 . S
C136 O154 1.254 . S
N137 C138 1.333 . S
N137 C142 1.307 . S
N137 Zn143 2.020 . S
C138 N137 1.333 . S
C138 C139 1.379 . S
C138 H156 0.952 . S
C139 C138 1.379 . S
C139 C140 1.390 . S
C139 H166 0.949 . S
C140 C139 1.390 . S
C140 C141 1.357 . S
C141 C140 1.357 . S
C141 C142 1.370 . S
C141 H167 0.950 . S
C142 N137 1.307 . S
C142 C141 1.370 . S
C142 H160 0.948 . S
Zn143 N137 2.020 . S
Zn143 O152 2.039 . S
Zn143 O158 2.034 . S
Zn143 O162 2.025 . S
Zn143 O164 2.024 . S
C144 O163 1.246 . S
C144 O164 1.249 . S
N145 C146 1.307 . S
N145 C147 1.333 . S
N145 Zn151 2.020 . S
C146 N145 1.307 . S
C146 C150 1.370 . S
C146 H157 0.948 . S
C147 N145 1.333 . S
C147 C148 1.379 . S
C147 H155 0.952 . S
C148 C147 1.379 . S
C148 C149 1.390 . S
C148 H168 0.949 . S
C149 C148 1.390 . S
C149 C150 1.357 . S
C150 C146 1.370 . S
C150 C149 1.357 . S
C150 H169 0.950 . S
Zn151 N145 2.020 . S
Zn151 O154 2.025 . S
Zn151 O159 2.024 . S
Zn151 O161 2.039 . S
Zn151 O163 2.034 . S
O152 C136 1.251 . S
O152 Zn143 2.039 . S
C153 O158 1.246 . S
C153 O159 1.249 . S
O154 C136 1.254 . S
O154 Zn151 2.025 . S
H155 C147 0.952 . S
H156 C138 0.952 . S
H157 C146 0.948 . S
O158 Zn143 2.034 . S
O158 C153 1.246 . S
O159 Zn151 2.024 . S
O159 C153 1.249 . S
H160 C142 0.948 . S
O161 Zn151 2.039 . S
O161 C165 1.251 . S
O162 Zn143 2.025 . S
O162 C165 1.254 . S
O163 C144 1.246 . S
O163 Zn151 2.034 . S
O164 Zn143 2.024 . S
O164 C144 1.249 . S
C165 O161 1.251 . S
C165 O162 1.254 . S
H166 C139 0.949 . S
H167 C141 0.950 . S
H168 C148 0.949 . S
H169 C150 0.950 . S
C170 O186 1.251 . S
C170 O188 1.254 . S
N171 C172 1.333 . S
N171 C176 1.307 . S
N171 Zn177 2.020 . S
C172 N171 1.333 . S
C172 C173 1.379 . S
C172 H190 0.952 . S
C173 C172 1.379 . S
C173 C174 1.390 . S
C173 H200 0.949 . S
C174 C173 1.390 . S
C174 C175 1.357 . S
C175 C174 1.357 . S
C175 C176 1.370 . S
C175 H201 0.950 . S
C176 N171 1.307 . S
C176 C175 1.370 . S
C176 H194 0.948 . S
Zn177 N171 2.020 . S
Zn177 O186 2.039 . S
Zn177 O192 2.034 . S
Zn177 O196 2.025 . S
Zn177 O198 2.024 . S
C178 O197 1.246 . S
C178 O198 1.249 . S
N179 C180 1.307 . S
N179 C181 1.333 1_655 S
N179 Zn185 2.020 . S
C180 N179 1.307 . S
C180 C184 1.370 . S
C180 H191 0.948 . S
C181 N179 1.333 1_455 S
C181 C182 1.379 . S
C181 H189 0.952 . S
C182 C181 1.379 . S
C182 C183 1.390 . S
C182 H202 0.949 . S
C183 C182 1.390 . S
C183 C184 1.357 1_455 S
C184 C180 1.370 . S
C184 C183 1.357 1_655 S
C184 H203 0.950 . S
Zn185 N179 2.020 . S
Zn185 O188 2.025 . S
Zn185 O193 2.024 . S
Zn185 O195 2.039 . S
Zn185 O197 2.034 . S
O186 C170 1.251 . S
O186 Zn177 2.039 . S
C187 O192 1.246 . S
C187 O193 1.249 . S
O188 C170 1.254 . S
O188 Zn185 2.025 . S
H189 C181 0.952 . S
H190 C172 0.952 . S
H191 C180 0.948 . S
O192 Zn177 2.034 . S
O192 C187 1.246 . S
O193 Zn185 2.024 . S
O193 C187 1.249 . S
H194 C176 0.948 . S
O195 Zn185 2.039 . S
O195 C199 1.251 . S
O196 Zn177 2.025 . S
O196 C199 1.254 . S
O197 C178 1.246 . S
O197 Zn185 2.034 . S
O198 Zn177 2.024 . S
O198 C178 1.249 . S
C199 O195 1.251 . S
C199 O196 1.254 . S
H200 C173 0.949 . S
H201 C175 0.950 . S
H202 C182 0.949 . S
H203 C184 0.950 . S
C204 O220 1.251 1_556 S
C204 O222 1.254 . S
N205 C206 1.333 . S
N205 C210 1.307 . S
N205 Zn211 2.020 . S
C206 N205 1.333 . S
C206 C207 1.379 . S
C206 H224 0.952 . S
C207 C206 1.379 . S
C207 C208 1.390 . S
C207 H234 0.949 . S
C208 C207 1.390 . S
C208 C209 1.357 . S
C209 C208 1.357 . S
C209 C210 1.370 . S
C209 H235 0.950 1_655 S
C210 N205 1.307 . S
C210 C209 1.370 . S
C210 H228 0.948 . S
Zn211 N205 2.020 . S
Zn211 O220 2.039 . S
Zn211 O226 2.034 . S
Zn211 O230 2.025 . S
Zn211 O232 2.024 . S
C212 O231 1.246 . S
C212 O232 1.249 1_556 S
N213 C214 1.307 . S
N213 C215 1.333 1_556 S
N213 Zn219 2.020 1_556 S
C214 N213 1.307 . S
C214 C218 1.370 . S
C214 H225 0.948 . S
C215 N213 1.333 1_554 S
C215 C216 1.379 1_554 S
C215 H223 0.952 . S
C216 C215 1.379 1_556 S
C216 C217 1.390 . S
C216 H236 0.949 . S
C217 C216 1.390 . S
C217 C218 1.357 . S
C218 C214 1.370 . S
C218 C217 1.357 . S
C218 H237 0.950 . S
Zn219 N213 2.020 1_554 S
Zn219 O222 2.025 1_554 S
Zn219 O227 2.024 . S
Zn219 O229 2.039 . S
Zn219 O231 2.034 1_554 S
O220 C204 1.251 1_554 S
O220 Zn211 2.039 . S
C221 O226 1.246 . S
C221 O227 1.249 . S
O222 C204 1.254 . S
O222 Zn219 2.025 1_556 S
H223 C215 0.952 . S
H224 C206 0.952 . S
H225 C214 0.948 . S
O226 Zn211 2.034 . S
O226 C221 1.246 . S
O227 Zn219 2.024 . S
O227 C221 1.249 . S
H228 C210 0.948 . S
O229 Zn219 2.039 . S
O229 C233 1.251 . S
O230 Zn211 2.025 . S
O230 C233 1.254 . S
O231 C212 1.246 . S
O231 Zn219 2.034 1_556 S
O232 Zn211 2.024 . S
O232 C212 1.249 1_554 S
C233 O229 1.251 . S
C233 O230 1.254 . S
H234 C207 0.949 . S
H235 C209 0.950 1_455 S
H236 C216 0.949 . S
H237 C218 0.950 . S
C238 O254 1.251 . S
C238 O256 1.254 . S
N239 C240 1.333 . S
N239 C244 1.307 . S
N239 Zn245 2.020 . S
C240 N239 1.333 . S
C240 C241 1.379 . S
C240 H258 0.952 . S
C241 C240 1.379 . S
C241 C242 1.390 . S
C241 H268 0.949 . S
C242 C241 1.390 . S
C242 C243 1.357 . S
C243 C242 1.357 . S
C243 C244 1.370 . S
C243 H269 0.950 . S
C244 N239 1.307 . S
C244 C243 1.370 . S
C244 H262 0.948 . S
Zn245 N239 2.020 . S
Zn245 O254 2.039 . S
Zn245 O260 2.034 . S
Zn245 O264 2.025 . S
Zn245 O266 2.024 . S
C246 O265 1.246 . S
C246 O266 1.249 . S
N247 C248 1.307 . S
N247 C249 1.333 . S
N247 Zn253 2.020 . S
C248 N247 1.307 . S
C248 C252 1.370 . S
C248 H259 0.948 . S
C249 N247 1.333 . S
C249 C250 1.379 . S
C249 H257 0.952 . S
C250 C249 1.379 . S
C250 C251 1.390 . S
C250 H270 0.949 . S
C251 C250 1.390 . S
C251 C252 1.357 . S
C252 C248 1.370 . S
C252 C251 1.357 . S
C252 H271 0.950 . S
Zn253 N247 2.020 . S
Zn253 O256 2.025 . S
Zn253 O261 2.024 . S
Zn253 O263 2.039 . S
Zn253 O265 2.034 . S
O254 C238 1.251 . S
O254 Zn245 2.039 . S
C255 O260 1.246 . S
C255 O261 1.249 . S
O256 C238 1.254 . S
O256 Zn253 2.025 . S
H257 C249 0.952 . S
H258 C240 0.952 . S
H259 C248 0.948 . S
O260 Zn245 2.034 . S
O260 C255 1.246 . S
O261 Zn253 2.024 . S
O261 C255 1.249 . S
H262 C244 0.948 . S
O263 Zn253 2.039 . S
O263 C267 1.251 . S
O264 Zn245 2.025 . S
O264 C267 1.254 . S
O265 C246 1.246 . S
O265 Zn253 2.034 . S
O266 Zn245 2.024 . S
O266 C246 1.249 . S
C267 O263 1.251 . S
C267 O264 1.254 . S
H268 C241 0.949 . S
H269 C243 0.950 . S
H270 C250 0.949 . S
H271 C252 0.950 . S
C272 O288 1.251 . S
C272 O290 1.254 . S
N273 C274 1.333 . S
N273 C278 1.307 . S
N273 Zn279 2.020 . S
C274 N273 1.333 . S
C274 C275 1.379 . S
C274 H292 0.952 . S
C275 C274 1.379 . S
C275 C276 1.390 . S
C275 H302 0.949 . S
C276 C275 1.390 . S
C276 C277 1.357 . S
C277 C276 1.357 . S
C277 C278 1.370 . S
C277 H303 0.950 . S
C278 N273 1.307 . S
C278 C277 1.370 . S
C278 H296 0.948 . S
Zn279 N273 2.020 . S
Zn279 O288 2.039 . S
Zn279 O294 2.034 . S
Zn279 O298 2.025 . S
Zn279 O300 2.024 . S
C280 O299 1.246 . S
C280 O300 1.249 . S
N281 C282 1.307 . S
N281 C283 1.333 . S
N281 Zn287 2.020 . S
C282 N281 1.307 . S
C282 C286 1.370 . S
C282 H293 0.948 . S
C283 N281 1.333 . S
C283 C284 1.379 . S
C283 H291 0.952 . S
C284 C283 1.379 . S
C284 C285 1.390 . S
C284 H304 0.949 . S
C285 C284 1.390 . S
C285 C286 1.357 . S
C286 C282 1.370 . S
C286 C285 1.357 . S
C286 H305 0.950 . S
Zn287 N281 2.020 . S
Zn287 O290 2.025 . S
Zn287 O295 2.024 . S
Zn287 O297 2.039 . S
Zn287 O299 2.034 . S
O288 C272 1.251 . S
O288 Zn279 2.039 . S
C289 O294 1.246 . S
C289 O295 1.249 . S
O290 C272 1.254 . S
O290 Zn287 2.025 . S
H291 C283 0.952 . S
H292 C274 0.952 . S
H293 C282 0.948 . S
O294 Zn279 2.034 . S
O294 C289 1.246 . S
O295 Zn287 2.024 . S
O295 C289 1.249 . S
H296 C278 0.948 . S
O297 Zn287 2.039 . S
O297 C301 1.251 . S
O298 Zn279 2.025 . S
O298 C301 1.254 . S
O299 C280 1.246 . S
O299 Zn287 2.034 . S
O300 Zn279 2.024 . S
O300 C280 1.249 . S
C301 O297 1.251 . S
C301 O298 1.254 . S
H302 C275 0.949 . S
H303 C277 0.950 . S
H304 C284 0.949 . S
H305 C286 0.950 . S
C306 O322 1.251 . S
C306 O324 1.254 . S
N307 C308 1.333 . S
N307 C312 1.307 . S
N307 Zn313 2.020 . S
C308 N307 1.333 . S
C308 C309 1.379 . S
C308 H326 0.952 . S
C309 C308 1.379 . S
C309 C310 1.390 . S
C309 H336 0.949 . S
C310 C309 1.390 . S
C310 C311 1.357 . S
C311 C310 1.357 . S
C311 C312 1.370 . S
C311 H337 0.950 1_556 S
C312 N307 1.307 . S
C312 C311 1.370 . S
C312 H330 0.948 . S
Zn313 N307 2.020 . S
Zn313 O322 2.039 . S
Zn313 O328 2.034 . S
Zn313 O332 2.025 . S
Zn313 O334 2.024 . S
C314 O333 1.246 . S
C314 O334 1.249 . S
N315 C316 1.307 . S
N315 C317 1.333 . S
N315 Zn321 2.020 . S
C316 N315 1.307 . S
C316 C320 1.370 1_545 S
C316 H327 0.948 1_545 S
C317 N315 1.333 . S
C317 C318 1.379 . S
C317 H325 0.952 . S
C318 C317 1.379 . S
C318 C319 1.390 1_545 S
C318 H338 0.949 . S
C319 C318 1.390 1_565 S
C319 C320 1.357 . S
C320 C316 1.370 1_565 S
C320 C319 1.357 . S
C320 H339 0.950 . S
Zn321 N315 2.020 . S
Zn321 O324 2.025 . S
Zn321 O329 2.024 . S
Zn321 O331 2.039 . S
Zn321 O333 2.034 . S
O322 C306 1.251 . S
O322 Zn313 2.039 . S
C323 O328 1.246 . S
C323 O329 1.249 . S
O324 C306 1.254 . S
O324 Zn321 2.025 . S
H325 C317 0.952 . S
H326 C308 0.952 . S
H327 C316 0.948 1_565 S
O328 Zn313 2.034 . S
O328 C323 1.246 . S
O329 Zn321 2.024 . S
O329 C323 1.249 . S
H330 C312 0.948 . S
O331 Zn321 2.039 . S
O331 C335 1.251 . S
O332 Zn313 2.025 . S
O332 C335 1.254 . S
O333 C314 1.246 . S
O333 Zn321 2.034 . S
O334 Zn313 2.024 . S
O334 C314 1.249 . S
C335 O331 1.251 . S
C335 O332 1.254 . S
H336 C309 0.949 . S
H337 C311 0.950 1_554 S
H338 C318 0.949 . S
H339 C320 0.950 . S
C340 O356 1.251 . S
C340 O358 1.254 . S
N341 C342 1.333 . S
N341 C346 1.307 . S
N341 Zn347 2.020 . S
C342 N341 1.333 . S
C342 C343 1.379 . S
C342 H360 0.952 . S
C343 C342 1.379 . S
C343 C344 1.390 . S
C343 H370 0.949 . S
C344 C343 1.390 . S
C344 C345 1.357 . S
C345 C344 1.357 . S
C345 C346 1.370 . S
C345 H371 0.950 . S
C346 N341 1.307 . S
C346 C345 1.370 . S
C346 H364 0.948 . S
Zn347 N341 2.020 . S
Zn347 O356 2.039 . S
Zn347 O362 2.034 . S
Zn347 O366 2.025 . S
Zn347 O368 2.024 . S
C348 O367 1.246 . S
C348 O368 1.249 . S
N349 C350 1.307 . S
N349 C351 1.333 . S
N349 Zn355 2.020 . S
C350 N349 1.307 . S
C350 C354 1.370 . S
C350 H361 0.948 . S
C351 N349 1.333 . S
C351 C352 1.379 . S
C351 H359 0.952 . S
C352 C351 1.379 . S
C352 C353 1.390 . S
C352 H372 0.949 . S
C353 C352 1.390 . S
C353 C354 1.357 . S
C354 C350 1.370 . S
C354 C353 1.357 . S
C354 H373 0.950 1_565 S
Zn355 N349 2.020 . S
Zn355 O358 2.025 . S
Zn355 O363 2.024 . S
Zn355 O365 2.039 . S
Zn355 O367 2.034 . S
O356 C340 1.251 . S
O356 Zn347 2.039 . S
C357 O362 1.246 . S
C357 O363 1.249 . S
O358 C340 1.254 . S
O358 Zn355 2.025 . S
H359 C351 0.952 . S
H360 C342 0.952 . S
H361 C350 0.948 . S
O362 Zn347 2.034 . S
O362 C357 1.246 . S
O363 Zn355 2.024 . S
O363 C357 1.249 . S
H364 C346 0.948 . S
O365 Zn355 2.039 . S
O365 C369 1.251 . S
O366 Zn347 2.025 . S
O366 C369 1.254 . S
O367 C348 1.246 . S
O367 Zn355 2.034 . S
O368 Zn347 2.024 . S
O368 C348 1.249 . S
C369 O365 1.251 . S
C369 O366 1.254 . S
H370 C343 0.949 . S
H371 C345 0.950 . S
H372 C352 0.949 . S
H373 C354 0.950 1_545 S
C374 O390 1.251 . S
C374 O392 1.254 . S
N375 C376 1.333 . S
N375 C380 1.307 . S
N375 Zn381 2.020 . S
C376 N375 1.333 . S
C376 C377 1.379 . S
C376 H394 0.952 . S
C377 C376 1.379 . S
C377 C378 1.390 . S
C377 H404 0.949 . S
C378 C377 1.390 . S
C378 C379 1.357 . S
C379 C378 1.357 . S
C379 C380 1.370 . S
C379 H405 0.950 . S
C380 N375 1.307 . S
C380 C379 1.370 . S
C380 H398 0.948 . S
Zn381 N375 2.020 . S
Zn381 O390 2.039 . S
Zn381 O396 2.034 . S
Zn381 O400 2.025 . S
Zn381 O402 2.024 . S
C382 O401 1.246 . S
C382 O402 1.249 . S
N383 C384 1.307 . S
N383 C385 1.333 . S
N383 Zn389 2.020 . S
C384 N383 1.307 . S
C384 C388 1.370 . S
C384 H395 0.948 . S
C385 N383 1.333 . S
C385 C386 1.379 . S
C385 H393 0.952 . S
C386 C385 1.379 . S
C386 C387 1.390 . S
C386 H406 0.949 . S
C387 C386 1.390 . S
C387 C388 1.357 . S
C388 C384 1.370 . S
C388 C387 1.357 . S
C388 H407 0.950 . S
Zn389 N383 2.020 . S
Zn389 O392 2.025 . S
Zn389 O397 2.024 . S
Zn389 O399 2.039 . S
Zn389 O401 2.034 . S
O390 C374 1.251 . S
O390 Zn381 2.039 . S
C391 O396 1.246 . S
C391 O397 1.249 . S
O392 C374 1.254 . S
O392 Zn389 2.025 . S
H393 C385 0.952 . S
H394 C376 0.952 . S
H395 C384 0.948 . S
O396 Zn381 2.034 . S
O396 C391 1.246 . S
O397 Zn389 2.024 . S
O397 C391 1.249 . S
H398 C380 0.948 . S
O399 Zn389 2.039 . S
O399 C403 1.251 . S
O400 Zn381 2.025 . S
O400 C403 1.254 . S
O401 C382 1.246 . S
O401 Zn389 2.034 . S
O402 Zn381 2.024 . S
O402 C382 1.249 . S
C403 O399 1.251 . S
C403 O400 1.254 . S
H404 C377 0.949 . S
H405 C379 0.950 . S
H406 C386 0.949 . S
H407 C388 0.950 . S
H408 C414 0.930 . S
H409 C418 0.930 . S
H410 C423 0.929 . S
H411 C421 0.929 . S
H412 C416 0.929 . S
H413 C422 0.929 . S
C414 H408 0.930 . S
C414 C415 1.367 . S
C414 C422 1.378 . S
C415 C414 1.367 . S
C415 C423 1.433 . S
C416 H412 0.929 . S
C416 C418 1.378 . S
C416 C420 1.350 . S
C417 C420 1.463 . S
C417 C422 1.350 . S
C417 N425 1.427 . S
C418 H409 0.930 . S
C418 C416 1.378 . S
C418 C419 1.367 . S
C419 C418 1.367 . S
C419 C421 1.433 . S
C420 C416 1.350 . S
C420 C417 1.463 . S
C420 N424 1.427 . S
C421 H411 0.929 . S
C421 C419 1.433 . S
C421 N424 1.384 . S
C422 H413 0.929 . S
C422 C414 1.378 . S
C422 C417 1.350 . S
C423 H410 0.929 . S
C423 C415 1.433 . S
C423 N425 1.384 . S
N424 C420 1.427 . S
N424 C421 1.384 . S
N425 C417 1.427 . S
N425 C423 1.384 . S
H426 C432 0.930 . S
H427 C436 0.930 . S
H428 C441 0.929 . S
H429 C439 0.929 . S
H430 C434 0.929 . S
H431 C440 0.929 . S
C432 H426 0.930 . S
C432 C433 1.367 . S
C432 C440 1.378 . S
C433 C432 1.367 . S
C433 C441 1.433 1_565 S
C434 H430 0.929 . S
C434 C436 1.378 . S
C434 C438 1.350 . S
C435 C438 1.463 1_565 S
C435 C440 1.350 . S
C435 N443 1.427 1_565 S
C436 H427 0.930 . S
C436 C434 1.378 . S
C436 C437 1.367 . S
C437 C436 1.367 . S
C437 C439 1.433 1_545 S
C438 C434 1.350 . S
C438 C435 1.463 1_545 S
C438 N442 1.427 1_545 S
C439 H429 0.929 . S
C439 C437 1.433 1_565 S
C439 N442 1.384 . S
C440 H431 0.929 . S
C440 C432 1.378 . S
C440 C435 1.350 . S
C441 H428 0.929 . S
C441 C433 1.433 1_545 S
C441 N443 1.384 . S
N442 C438 1.427 1_565 S
N442 C439 1.384 . S
N443 C435 1.427 1_545 S
N443 C441 1.384 . S
H444 C450 0.930 . S
H445 C454 0.930 . S
H446 C459 0.928 1_556 S
H447 C457 0.929 . S
H448 C452 0.929 . S
H449 C458 0.929 . S
C450 H444 0.930 . S
C450 C451 1.367 . S
C450 C458 1.378 . S
C451 C450 1.367 . S
C451 C459 1.433 . S
C452 H448 0.929 . S
C452 C454 1.378 . S
C452 C456 1.350 . S
C453 C456 1.463 . S
C453 C458 1.350 . S
C453 N461 1.427 . S
C454 H445 0.930 . S
C454 C452 1.378 . S
C454 C455 1.367 . S
C455 C454 1.367 . S
C455 C457 1.433 . S
C456 C452 1.350 . S
C456 C453 1.463 . S
C456 N460 1.427 . S
C457 H447 0.929 . S
C457 C455 1.433 . S
C457 N460 1.384 . S
C458 H449 0.929 . S
C458 C450 1.378 . S
C458 C453 1.350 . S
C459 H446 0.928 1_554 S
C459 C451 1.433 . S
C459 N461 1.384 . S
N460 C456 1.427 . S
N460 C457 1.384 . S
N461 C453 1.427 . S
N461 C459 1.384 . S
H462 C468 0.930 . S
H463 C472 0.930 . S
H464 C477 0.929 . S
H465 C475 0.929 . S
H466 C470 0.929 . S
H467 C476 0.929 . S
C468 H462 0.930 . S
C468 C469 1.367 . S
C468 C476 1.378 . S
C469 C468 1.367 . S
C469 C477 1.433 1_545 S
C470 H466 0.929 . S
C470 C472 1.378 . S
C470 C474 1.350 . S
C471 C474 1.467 . S
C471 C476 1.333 1_565 S
C471 N479 1.441 . S
C472 H463 0.930 . S
C472 C470 1.378 . S
C472 C473 1.367 . S
C473 C472 1.367 . S
C473 C475 1.433 1_565 S
C474 C470 1.350 . S
C474 C471 1.467 . S
C474 N478 1.427 1_565 S
C475 H465 0.929 . S
C475 C473 1.433 1_545 S
C475 N478 1.384 . S
C476 H467 0.929 . S
C476 C468 1.378 . S
C476 C471 1.333 1_545 S
C477 H464 0.929 . S
C477 C469 1.433 1_565 S
C477 N479 1.384 . S
N478 C474 1.427 1_545 S
N478 C475 1.384 . S
N479 C471 1.441 . S
N479 C477 1.384 . S
H480 C486 0.930 . S
H481 C490 0.930 . S
H482 C495 0.929 . S
H483 C493 0.929 . S
H484 C488 0.929 . S
H485 C494 0.929 . S
C486 H480 0.930 . S
C486 C487 1.367 . S
C486 C494 1.378 . S
C487 C486 1.367 . S
C487 C495 1.433 . S
C488 H484 0.929 . S
C488 C490 1.378 1_545 S
C488 C492 1.350 . S
C489 C492 1.463 . S
C489 C494 1.350 . S
C489 N497 1.427 . S
C490 H481 0.930 . S
C490 C488 1.378 1_565 S
C490 C491 1.367 . S
C491 C490 1.367 . S
C491 C493 1.433 1_565 S
C492 C488 1.350 . S
C492 C489 1.463 . S
C492 N496 1.427 . S
C493 H483 0.929 . S
C493 C491 1.433 1_545 S
C493 N496 1.384 . S
C494 H485 0.929 . S
C494 C486 1.378 . S
C494 C489 1.350 . S
C495 H482 0.929 . S
C495 C487 1.433 . S
C495 N497 1.384 . S
N496 C492 1.427 . S
N496 C493 1.384 . S
N497 C489 1.427 . S
N497 C495 1.384 . S
H498 C504 0.930 . S
H499 C508 0.930 . S
H500 C513 0.929 . S
H501 C511 0.929 . S
H502 C506 0.929 . S
H503 C512 0.929 . S
C504 H498 0.930 . S
C504 C505 1.367 . S
C504 C512 1.378 . S
C505 C504 1.367 . S
C505 C513 1.433 . S
C506 H502 0.929 . S
C506 C508 1.378 . S
C506 C510 1.350 . S
C507 C510 1.463 . S
C507 C512 1.350 . S
C507 N515 1.427 . S
C508 H499 0.930 . S
C508 C506 1.378 . S
C508 C509 1.367 . S
C509 C508 1.367 . S
C509 C511 1.433 . S
C510 C506 1.350 . S
C510 C507 1.463 . S
C510 N514 1.427 . S
C511 H501 0.929 . S
C511 C509 1.433 . S
C511 N514 1.384 . S
C512 H503 0.929 . S
C512 C504 1.378 . S
C512 C507 1.350 . S
C513 H500 0.929 . S
C513 C505 1.433 . S
C513 N515 1.384 . S
N514 C510 1.427 . S
N514 C511 1.384 . S
N515 C507 1.427 . S
N515 C513 1.384 . S
H516 C522 0.930 . S
H517 C526 0.930 . S
H518 C531 0.929 . S
H519 C529 0.929 1_554 S
H520 C524 0.929 . S
H521 C530 0.929 . S
C522 H516 0.930 . S
C522 C523 1.367 . S
C522 C530 1.378 . S
C523 C522 1.367 . S
C523 C531 1.433 . S
C524 H520 0.929 . S
C524 C526 1.378 . S
C524 C528 1.350 . S
C525 C528 1.463 . S
C525 C530 1.350 . S
C525 N533 1.427 . S
C526 H517 0.930 . S
C526 C524 1.378 . S
C526 C527 1.367 . S
C527 C526 1.367 . S
C527 C529 1.433 . S
C528 C524 1.350 . S
C528 C525 1.463 . S
C528 N532 1.427 . S
C529 H519 0.929 1_556 S
C529 C527 1.433 . S
C529 N532 1.384 . S
C530 H521 0.929 . S
C530 C522 1.378 . S
C530 C525 1.350 . S
C531 H518 0.929 . S
C531 C523 1.433 . S
C531 N533 1.384 . S
N532 C528 1.427 . S
N532 C529 1.384 . S
N533 C525 1.427 . S
N533 C531 1.384 . S
H534 C540 0.930 . S
H535 C544 0.930 . S
H536 C549 0.929 . S
H537 C547 0.929 . S
H538 C542 0.929 . S
H539 C548 0.929 . S
C540 H534 0.930 . S
C540 C541 1.367 . S
C540 C548 1.378 . S
C541 C540 1.367 . S
C541 C549 1.433 . S
C542 H538 0.929 . S
C542 C544 1.378 . S
C542 C546 1.350 . S
C543 C546 1.463 . S
C543 C548 1.350 . S
C543 N551 1.427 . S
C544 H535 0.930 . S
C544 C542 1.378 . S
C544 C545 1.367 . S
C545 C544 1.367 . S
C545 C547 1.433 . S
C546 C542 1.350 . S
C546 C543 1.463 . S
C546 N550 1.427 . S
C547 H537 0.929 . S
C547 C545 1.433 . S
C547 N550 1.384 . S
C548 H539 0.929 . S
C548 C540 1.378 . S
C548 C543 1.350 . S
C549 H536 0.929 . S
C549 C541 1.433 . S
C549 N551 1.384 . S
N550 C546 1.427 . S
N550 C547 1.384 . S
N551 C543 1.427 . S
N551 C549 1.384 . S
H552 C558 0.930 . S
H553 C562 0.930 . S
H554 C567 0.929 . S
H555 C565 0.929 . S
H556 C560 0.929 . S
H557 C566 0.929 . S
C558 H552 0.930 . S
C558 C559 1.367 . S
C558 C566 1.378 . S
C559 C558 1.367 . S
C559 C567 1.433 . S
C560 H556 0.929 . S
C560 C562 1.378 . S
C560 C564 1.350 . S
C561 C564 1.463 . S
C561 C566 1.350 . S
C561 N569 1.427 . S
C562 H553 0.930 . S
C562 C560 1.378 . S
C562 C563 1.367 . S
C563 C562 1.367 . S
C563 C565 1.433 . S
C564 C560 1.350 . S
C564 C561 1.463 . S
C564 N568 1.427 . S
C565 H555 0.929 . S
C565 C563 1.433 . S
C565 N568 1.384 . S
C566 H557 0.929 . S
C566 C558 1.378 . S
C566 C561 1.350 . S
C567 H554 0.929 . S
C567 C559 1.433 . S
C567 N569 1.384 . S
N568 C564 1.427 . S
N568 C565 1.384 . S
N569 C561 1.427 . S
N569 C567 1.384 . S
H570 C576 0.930 . S
H571 C580 0.930 . S
H572 C585 0.929 . S
H573 C583 0.929 . S
H574 C578 0.929 . S
H575 C584 0.929 . S
C576 H570 0.930 . S
C576 C577 1.367 . S
C576 C584 1.378 . S
C577 C576 1.367 . S
C577 C585 1.433 . S
C578 H574 0.929 . S
C578 C580 1.378 1_455 S
C578 C582 1.350 . S
C579 C582 1.463 . S
C579 C584 1.350 . S
C579 N587 1.427 . S
C580 H571 0.930 . S
C580 C578 1.378 1_655 S
C580 C581 1.367 . S
C581 C580 1.367 . S
C581 C583 1.433 . S
C582 C578 1.350 . S
C582 C579 1.463 . S
C582 N586 1.440 . S
C583 H573 0.929 . S
C583 C581 1.433 . S
C583 N586 1.368 1_655 S
C584 H575 0.929 . S
C584 C576 1.378 . S
C584 C579 1.350 . S
C585 H572 0.929 . S
C585 C577 1.433 . S
C585 N587 1.384 . S
N586 C582 1.440 . S
N586 C583 1.368 1_455 S
N587 C579 1.427 . S
N587 C585 1.384 . S
H588 C594 0.930 . S
H589 C598 0.930 . S
H590 C603 0.929 . S
H591 C601 0.929 . S
H592 C596 0.929 . S
H593 C602 0.929 . S
C594 H588 0.930 . S
C594 C595 1.367 . S
C594 C602 1.378 . S
C595 C594 1.367 . S
C595 C603 1.433 1_455 S
C596 H592 0.929 . S
C596 C598 1.378 . S
C596 C600 1.350 . S
C597 C600 1.463 . S
C597 C602 1.350 1_655 S
C597 N605 1.427 . S
C598 H589 0.930 . S
C598 C596 1.378 . S
C598 C599 1.367 . S
C599 C598 1.367 . S
C599 C601 1.433 . S
C600 C596 1.350 . S
C600 C597 1.463 . S
C600 N604 1.427 . S
C601 H591 0.929 . S
C601 C599 1.433 . S
C601 N604 1.384 . S
C602 H593 0.929 . S
C602 C594 1.378 . S
C602 C597 1.350 1_455 S
C603 H590 0.929 . S
C603 C595 1.433 1_655 S
C603 N605 1.384 . S
N604 C600 1.427 . S
N604 C601 1.384 . S
N605 C597 1.427 . S
N605 C603 1.384 . S
H606 C612 0.930 . S
H607 C616 0.930 . S
H608 C621 0.929 . S
H609 C619 0.929 . S
H610 C614 0.929 . S
H611 C620 0.929 . S
C612 H606 0.930 . S
C612 C613 1.367 . S
C612 C620 1.378 . S
C613 C612 1.367 . S
C613 C621 1.433 . S
C614 H610 0.929 . S
C614 C616 1.378 . S
C614 C618 1.350 . S
C615 C618 1.463 . S
C615 C620 1.350 . S
C615 N623 1.427 . S
C616 H607 0.930 . S
C616 C614 1.378 . S
C616 C617 1.367 . S
C617 C616 1.367 . S
C617 C619 1.433 . S
C618 C614 1.350 . S
C618 C615 1.463 . S
C618 N622 1.427 . S
C619 H609 0.929 . S
C619 C617 1.433 . S
C619 N622 1.384 . S
C620 H611 0.929 . S
C620 C612 1.378 . S
C620 C615 1.350 . S
C621 H608 0.929 . S
C621 C613 1.433 . S
C621 N623 1.384 . S
N622 C618 1.427 . S
N622 C619 1.384 . S
N623 C615 1.427 . S
N623 C621 1.384 . S
H624 C630 0.930 . S
H625 C634 0.930 . S
H626 C639 0.929 . S
H627 C637 0.929 . S
H628 C632 0.929 . S
H629 C638 0.929 . S
C630 H624 0.930 . S
C630 C631 1.367 . S
C630 C638 1.378 . S
C631 C630 1.367 . S
C631 C639 1.433 . S
C632 H628 0.929 . S
C632 C634 1.378 . S
C632 C636 1.350 . S
C633 C636 1.463 . S
C633 C638 1.350 . S
C633 N641 1.427 . S
C634 H625 0.930 . S
C634 C632 1.378 . S
C634 C635 1.367 . S
C635 C634 1.367 . S
C635 C637 1.433 . S
C636 C632 1.350 . S
C636 C633 1.463 . S
C636 N640 1.427 . S
C637 H627 0.929 . S
C637 C635 1.433 . S
C637 N640 1.384 . S
C638 H629 0.929 . S
C638 C630 1.378 . S
C638 C633 1.350 . S
C639 H626 0.929 . S
C639 C631 1.433 . S
C639 N641 1.384 . S
N640 C636 1.427 . S
N640 C637 1.384 . S
N641 C633 1.427 . S
N641 C639 1.384 . S
H642 C648 0.930 . S
H643 C652 0.930 . S
H644 C657 0.929 . S
H645 C655 0.929 . S
H646 C650 0.929 . S
H647 C656 0.929 . S
C648 H642 0.930 . S
C648 C649 1.367 . S
C648 C656 1.378 . S
C649 C648 1.367 . S
C649 C657 1.433 1_455 S
C650 H646 0.929 . S
C650 C652 1.378 . S
C650 C654 1.350 . S
C651 C654 1.463 . S
C651 C656 1.350 1_655 S
C651 N659 1.427 . S
C652 H643 0.930 . S
C652 C650 1.378 . S
C652 C653 1.367 . S
C653 C652 1.367 . S
C653 C655 1.433 . S
C654 C650 1.350 . S
C654 C651 1.463 . S
C654 N658 1.427 . S
C655 H645 0.929 . S
C655 C653 1.433 . S
C655 N658 1.384 . S
C656 H647 0.929 . S
C656 C648 1.378 . S
C656 C651 1.350 1_455 S
C657 H644 0.929 . S
C657 C649 1.433 1_655 S
C657 N659 1.384 . S
N658 C654 1.427 . S
N658 C655 1.384 . S
N659 C651 1.427 . S
N659 C657 1.384 . S
H660 C666 0.930 . S
H661 C670 0.930 . S
H662 C675 0.929 . S
H663 C673 0.929 . S
H664 C668 0.929 . S
H665 C674 0.929 . S
C666 H660 0.930 . S
C666 C667 1.367 . S
C666 C674 1.378 . S
C667 C666 1.367 . S
C667 C675 1.433 . S
C668 H664 0.929 . S
C668 C670 1.378 . S
C668 C672 1.350 . S
C669 C672 1.463 . S
C669 C674 1.350 . S
C669 N677 1.427 . S
C670 H661 0.930 . S
C670 C668 1.378 . S
C670 C671 1.367 . S
C671 C670 1.367 . S
C671 C673 1.433 . S
C672 C668 1.350 . S
C672 C669 1.463 . S
C672 N676 1.427 . S
C673 H663 0.929 . S
C673 C671 1.433 . S
C673 N676 1.384 . S
C674 H665 0.929 . S
C674 C666 1.378 . S
C674 C669 1.350 . S
C675 H662 0.929 . S
C675 C667 1.433 . S
C675 N677 1.384 . S
N676 C672 1.427 . S
N676 C673 1.384 . S
N677 C669 1.427 . S
N677 C675 1.384 . S
H678 C684 0.930 . S
H679 C688 0.930 . S
H680 C693 0.929 . S
H681 C691 0.929 1_556 S
H682 C686 0.929 . S
H683 C692 0.929 . S
C684 H678 0.930 . S
C684 C685 1.367 . S
C684 C692 1.378 . S
C685 C684 1.367 . S
C685 C693 1.433 . S
C686 H682 0.929 . S
C686 C688 1.378 . S
C686 C690 1.350 . S
C687 C690 1.463 . S
C687 C692 1.350 . S
C687 N695 1.427 . S
C688 H679 0.930 . S
C688 C686 1.378 . S
C688 C689 1.367 1_554 S
C689 C688 1.367 1_556 S
C689 C691 1.433 1_556 S
C690 C686 1.350 . S
C690 C687 1.463 . S
C690 N694 1.427 . S
C691 H681 0.929 1_554 S
C691 C689 1.433 1_554 S
C691 N694 1.384 . S
C692 H683 0.929 . S
C692 C684 1.378 . S
C692 C687 1.350 . S
C693 H680 0.929 . S
C693 C685 1.433 . S
C693 N695 1.384 . S
N694 C690 1.427 . S
N694 C691 1.384 . S
N695 C687 1.427 . S
N695 C693 1.384 . S
H696 C702 0.930 . S
H697 C706 0.930 . S
H698 C711 0.929 . S
H699 C709 0.929 . S
H700 C704 0.929 . S
H701 C710 0.929 . S
C702 H696 0.930 . S
C702 C703 1.367 . S
C702 C710 1.378 . S
C703 C702 1.367 . S
C703 C711 1.433 . S
C704 H700 0.929 . S
C704 C706 1.378 . S
C704 C708 1.350 . S
C705 C708 1.463 . S
C705 C710 1.350 . S
C705 N713 1.427 . S
C706 H697 0.930 . S
C706 C704 1.378 . S
C706 C707 1.367 . S
C707 C706 1.367 . S
C707 C709 1.433 . S
C708 C704 1.350 . S
C708 C705 1.463 . S
C708 N712 1.427 . S
C709 H699 0.929 . S
C709 C707 1.433 . S
C709 N712 1.384 . S
C710 H701 0.929 . S
C710 C702 1.378 . S
C710 C705 1.350 . S
C711 H698 0.929 . S
C711 C703 1.433 . S
C711 N713 1.384 . S
N712 C708 1.427 . S
N712 C709 1.384 . S
N713 C705 1.427 . S
N713 C711 1.384 . S
H714 C720 0.930 . S
H715 C724 0.926 1_655 S
H716 C729 0.929 1_554 S
H717 C727 0.929 . S
H718 C722 0.929 . S
H719 C728 0.929 . S
C720 H714 0.930 . S
C720 C721 1.367 . S
C720 C728 1.378 1_554 S
C721 C720 1.367 . S
C721 C729 1.433 1_554 S
C722 H718 0.929 . S
C722 C724 1.378 . S
C722 C726 1.350 . S
C723 C726 1.463 . S
C723 C728 1.350 . S
C723 N731 1.427 . S
C724 H715 0.926 1_455 S
C724 C722 1.378 . S
C724 C725 1.367 1_455 S
C725 C724 1.367 1_655 S
C725 C727 1.433 . S
C726 C722 1.350 . S
C726 C723 1.463 . S
C726 N730 1.427 . S
C727 H717 0.929 . S
C727 C725 1.433 . S
C727 N730 1.384 1_655 S
C728 H719 0.929 . S
C728 C720 1.378 1_556 S
C728 C723 1.350 . S
C729 H716 0.929 1_556 S
C729 C721 1.433 1_556 S
C729 N731 1.384 . S
N730 C726 1.427 . S
N730 C727 1.384 1_455 S
N731 C723 1.427 . S
N731 C729 1.384 . S
H732 C738 0.930 . S
H733 C742 0.930 . S
H734 C747 0.929 . S
H735 C745 0.929 . S
H736 C740 0.929 . S
H737 C746 0.929 . S
C738 H732 0.930 . S
C738 C739 1.367 . S
C738 C746 1.378 . S
C739 C738 1.367 . S
C739 C747 1.433 . S
C740 H736 0.929 . S
C740 C742 1.378 . S
C740 C744 1.350 . S
C741 C744 1.463 . S
C741 C746 1.350 . S
C741 N749 1.427 . S
C742 H733 0.930 . S
C742 C740 1.378 . S
C742 C743 1.367 . S
C743 C742 1.367 . S
C743 C745 1.433 . S
C744 C740 1.350 . S
C744 C741 1.463 . S
C744 N748 1.427 . S
C745 H735 0.929 . S
C745 C743 1.433 . S
C745 N748 1.384 . S
C746 H737 0.929 . S
C746 C738 1.378 . S
C746 C741 1.350 . S
C747 H734 0.929 . S
C747 C739 1.433 . S
C747 N749 1.384 . S
N748 C744 1.427 . S
N748 C745 1.384 . S
N749 C741 1.427 . S
N749 C747 1.384 . S
H750 C756 0.930 . S
H751 C760 0.930 . S
H752 C765 0.929 . S
H753 C763 0.929 . S
H754 C758 0.929 . S
H755 C764 0.929 . S
C756 H750 0.930 . S
C756 C757 1.367 . S
C756 C764 1.378 . S
C757 C756 1.367 . S
C757 C765 1.433 . S
C758 H754 0.929 . S
C758 C760 1.378 . S
C758 C762 1.350 . S
C759 C762 1.463 . S
C759 C764 1.350 . S
C759 N767 1.427 . S
C760 H751 0.930 . S
C760 C758 1.378 . S
C760 C761 1.367 . S
C761 C760 1.367 . S
C761 C763 1.433 . S
C762 C758 1.350 . S
C762 C759 1.463 . S
C762 N766 1.427 . S
C763 H753 0.929 . S
C763 C761 1.433 . S
C763 N766 1.384 . S
C764 H755 0.929 . S
C764 C756 1.378 . S
C764 C759 1.350 . S
C765 H752 0.929 . S
C765 C757 1.433 . S
C765 N767 1.384 . S
N766 C762 1.427 . S
N766 C763 1.384 . S
N767 C759 1.427 . S
N767 C765 1.384 . S
H768 C774 0.930 . S
H769 C778 0.930 . S
H770 C783 0.929 . S
H771 C781 0.929 . S
H772 C776 0.929 . S
H773 C782 0.929 . S
C774 H768 0.930 . S
C774 C775 1.367 . S
C774 C782 1.378 . S
C775 C774 1.367 . S
C775 C783 1.433 . S
C776 H772 0.929 . S
C776 C778 1.378 . S
C776 C780 1.350 . S
C777 C780 1.463 . S
C777 C782 1.350 . S
C777 N785 1.427 . S
C778 H769 0.930 . S
C778 C776 1.378 . S
C778 C779 1.367 . S
C779 C778 1.367 . S
C779 C781 1.433 . S
C780 C776 1.350 . S
C780 C777 1.463 . S
C780 N784 1.427 . S
C781 H771 0.929 . S
C781 C779 1.433 . S
C781 N784 1.384 . S
C782 H773 0.929 . S
C782 C774 1.378 . S
C782 C777 1.350 . S
C783 H770 0.929 . S
C783 C775 1.433 . S
C783 N785 1.384 . S
N784 C780 1.427 . S
N784 C781 1.384 . S
N785 C777 1.427 . S
N785 C783 1.384 . S
H786 C792 0.930 . S
H787 C796 0.930 . S
H788 C801 0.929 . S
H789 C799 0.929 . S
H790 C794 0.929 . S
H791 C800 0.929 . S
C792 H786 0.930 . S
C792 C793 1.367 . S
C792 C800 1.378 . S
C793 C792 1.367 . S
C793 C801 1.433 . S
C794 H790 0.929 . S
C794 C796 1.378 1_545 S
C794 C798 1.350 . S
C795 C798 1.463 . S
C795 C800 1.350 . S
C795 N803 1.427 . S
C796 H787 0.930 . S
C796 C794 1.378 1_565 S
C796 C797 1.367 . S
C797 C796 1.367 . S
C797 C799 1.433 1_565 S
C798 C794 1.350 . S
C798 C795 1.463 . S
C798 N802 1.427 . S
C799 H789 0.929 . S
C799 C797 1.433 1_545 S
C799 N802 1.384 . S
C800 H791 0.929 . S
C800 C792 1.378 . S
C800 C795 1.350 . S
C801 H788 0.929 . S
C801 C793 1.433 . S
C801 N803 1.384 . S
N802 C798 1.427 . S
N802 C799 1.384 . S
N803 C795 1.427 . S
N803 C801 1.384 . S
H804 C810 0.930 . S
H805 C814 0.930 . S
H806 C819 0.929 . S
H807 C817 0.929 . S
H808 C812 0.929 . S
H809 C818 0.929 . S
C810 H804 0.930 . S
C810 C811 1.367 . S
C810 C818 1.378 . S
C811 C810 1.367 . S
C811 C819 1.433 . S
C812 H808 0.929 . S
C812 C814 1.378 . S
C812 C816 1.350 . S
C813 C816 1.463 . S
C813 C818 1.350 . S
C813 N821 1.427 . S
C814 H805 0.930 . S
C814 C812 1.378 . S
C814 C815 1.367 . S
C815 C814 1.367 . S
C815 C817 1.433 . S
C816 C812 1.350 . S
C816 C813 1.463 . S
C816 N820 1.427 . S
C817 H807 0.929 . S
C817 C815 1.433 . S
C817 N820 1.384 . S
C818 H809 0.929 . S
C818 C810 1.378 . S
C818 C813 1.350 . S
C819 H806 0.929 . S
C819 C811 1.433 . S
C819 N821 1.384 . S
N820 C816 1.427 . S
N820 C817 1.384 . S
N821 C813 1.427 . S
N821 C819 1.384 . S
H822 C828 0.930 . S
H823 C832 0.930 . S
H824 C837 0.929 . S
H825 C835 0.929 . S
H826 C830 0.932 . S
H827 C836 0.923 1_565 S
C828 H822 0.930 . S
C828 C829 1.367 . S
C828 C836 1.383 . S
C829 C828 1.367 . S
C829 C837 1.433 . S
C830 H826 0.932 . S
C830 C832 1.378 . S
C830 C834 1.350 . S
C831 C834 1.463 1_545 S
C831 C836 1.351 . S
C831 N839 1.427 . S
C832 H823 0.930 . S
C832 C830 1.378 . S
C832 C833 1.367 . S
C833 C832 1.367 . S
C833 C835 1.433 . S
C834 C830 1.350 . S
C834 C831 1.463 1_565 S
C834 N838 1.427 . S
C835 H825 0.929 . S
C835 C833 1.433 . S
C835 N838 1.384 . S
C836 H827 0.923 1_545 S
C836 C828 1.383 . S
C836 C831 1.351 . S
C837 H824 0.929 . S
C837 C829 1.433 . S
C837 N839 1.384 . S
N838 C834 1.427 . S
N838 C835 1.384 . S
N839 C831 1.427 . S
N839 C837 1.384 . S
H840 C846 0.930 . S
H841 C850 0.930 . S
H842 C855 0.929 . S
H843 C853 0.929 . S
H844 C848 0.929 . S
H845 C854 0.929 . S
C846 H840 0.930 . S
C846 C847 1.367 . S
C846 C854 1.378 . S
C847 C846 1.367 . S
C847 C855 1.433 . S
C848 H844 0.929 . S
C848 C850 1.378 . S
C848 C852 1.350 . S
C849 C852 1.463 . S
C849 C854 1.350 . S
C849 N857 1.427 . S
C850 H841 0.930 . S
C850 C848 1.378 . S
C850 C851 1.367 . S
C851 C850 1.367 . S
C851 C853 1.433 . S
C852 C848 1.350 . S
C852 C849 1.463 . S
C852 N856 1.427 . S
C853 H843 0.929 . S
C853 C851 1.433 . S
C853 N856 1.384 . S
C854 H845 0.929 . S
C854 C846 1.378 . S
C854 C849 1.350 . S
C855 H842 0.929 . S
C855 C847 1.433 . S
C855 N857 1.384 . S
N856 C852 1.427 . S
N856 C853 1.384 . S
N857 C849 1.427 . S
N857 C855 1.384 . S
H858 C864 0.930 . S
H859 C868 0.930 . S
H860 C873 0.929 . S
H861 C871 0.929 1_554 S
H862 C866 0.929 . S
H863 C872 0.929 . S
C864 H858 0.930 . S
C864 C865 1.367 . S
C864 C872 1.378 . S
C865 C864 1.367 . S
C865 C873 1.433 . S
C866 H862 0.929 . S
C866 C868 1.378 . S
C866 C870 1.350 . S
C867 C870 1.463 . S
C867 C872 1.350 . S
C867 N875 1.427 . S
C868 H859 0.930 . S
C868 C866 1.378 . S
C868 C869 1.367 . S
C869 C868 1.367 . S
C869 C871 1.433 . S
C870 C866 1.350 . S
C870 C867 1.463 . S
C870 N874 1.427 . S
C871 H861 0.929 1_556 S
C871 C869 1.433 . S
C871 N874 1.384 . S
C872 H863 0.929 . S
C872 C864 1.378 . S
C872 C867 1.350 . S
C873 H860 0.929 . S
C873 C865 1.433 . S
C873 N875 1.384 . S
N874 C870 1.427 . S
N874 C871 1.384 . S
N875 C867 1.427 . S
N875 C873 1.384 . S
H876 C882 0.930 . S
H877 C886 0.930 . S
H878 C891 0.929 . S
H879 C889 0.929 . S
H880 C884 0.929 . S
H881 C890 0.929 . S
C882 H876 0.930 . S
C882 C883 1.367 . S
C882 C890 1.378 . S
C883 C882 1.367 . S
C883 C891 1.433 . S
C884 H880 0.929 . S
C884 C886 1.378 . S
C884 C888 1.350 . S
C885 C888 1.463 . S
C885 C890 1.350 . S
C885 N893 1.427 . S
C886 H877 0.930 . S
C886 C884 1.378 . S
C886 C887 1.367 . S
C887 C886 1.367 . S
C887 C889 1.433 . S
C888 C884 1.350 . S
C888 C885 1.463 . S
C888 N892 1.427 . S
C889 H879 0.929 . S
C889 C887 1.433 . S
C889 N892 1.384 . S
C890 H881 0.929 . S
C890 C882 1.378 . S
C890 C885 1.350 . S
C891 H878 0.929 . S
C891 C883 1.433 . S
C891 N893 1.384 . S
N892 C888 1.427 . S
N892 C889 1.384 . S
N893 C885 1.427 . S
N893 C891 1.384 . S
H894 C900 0.930 . S
H895 C904 0.930 . S
H896 C909 0.929 . S
H897 C907 0.929 . S
H898 C902 0.929 . S
H899 C908 0.929 . S
C900 H894 0.930 . S
C900 C901 1.367 . S
C900 C908 1.378 . S
C901 C900 1.367 . S
C901 C909 1.433 . S
C902 H898 0.929 . S
C902 C904 1.378 . S
C902 C906 1.350 . S
C903 C906 1.463 . S
C903 C908 1.350 . S
C903 N911 1.427 . S
C904 H895 0.930 . S
C904 C902 1.378 . S
C904 C905 1.367 . S
C905 C904 1.367 . S
C905 C907 1.433 . S
C906 C902 1.350 . S
C906 C903 1.463 . S
C906 N910 1.427 . S
C907 H897 0.929 . S
C907 C905 1.433 . S
C907 N910 1.384 . S
C908 H899 0.929 . S
C908 C900 1.378 . S
C908 C903 1.350 . S
C909 H896 0.929 . S
C909 C901 1.433 . S
C909 N911 1.384 . S
N910 C906 1.427 . S
N910 C907 1.384 . S
N911 C903 1.427 . S
N911 C909 1.384 . S
H912 C918 0.930 . S
H913 C922 0.930 . S
H914 C927 0.929 . S
H915 C925 0.929 . S
H916 C920 0.929 . S
H917 C926 0.929 . S
C918 H912 0.930 . S
C918 C919 1.367 . S
C918 C926 1.378 . S
C919 C918 1.367 . S
C919 C927 1.433 . S
C920 H916 0.929 . S
C920 C922 1.378 . S
C920 C924 1.350 . S
C921 C924 1.463 . S
C921 C926 1.350 . S
C921 N929 1.427 . S
C922 H913 0.930 . S
C922 C920 1.378 . S
C922 C923 1.367 . S
C923 C922 1.367 . S
C923 C925 1.433 . S
C924 C920 1.350 . S
C924 C921 1.463 . S
C924 N928 1.427 . S
C925 H915 0.929 . S
C925 C923 1.433 . S
C925 N928 1.384 . S
C926 H917 0.929 . S
C926 C918 1.378 . S
C926 C921 1.350 . S
C927 H914 0.929 . S
C927 C919 1.433 . S
C927 N929 1.384 . S
N928 C924 1.427 . S
N928 C925 1.384 . S
N929 C921 1.427 . S
N929 C927 1.384 . S
H930 C936 0.930 . S
H931 C940 0.930 . S
H932 C945 0.929 . S
H933 C943 0.929 . S
H934 C938 0.929 . S
H935 C944 0.929 . S
C936 H930 0.930 . S
C936 C937 1.367 . S
C936 C944 1.378 . S
C937 C936 1.367 . S
C937 C945 1.433 . S
C938 H934 0.929 . S
C938 C940 1.378 . S
C938 C942 1.350 . S
C939 C942 1.463 . S
C939 C944 1.350 . S
C939 N947 1.427 . S
C940 H931 0.930 . S
C940 C938 1.378 . S
C940 C941 1.367 . S
C941 C940 1.367 . S
C941 C943 1.433 . S
C942 C938 1.350 . S
C942 C939 1.463 . S
C942 N946 1.427 . S
C943 H933 0.929 . S
C943 C941 1.433 . S
C943 N946 1.384 . S
C944 H935 0.929 . S
C944 C936 1.378 . S
C944 C939 1.350 . S
C945 H932 0.929 . S
C945 C937 1.433 . S
C945 N947 1.384 . S
N946 C942 1.427 . S
N946 C943 1.384 . S
N947 C939 1.427 . S
N947 C945 1.384 . S
H948 C954 0.930 . S
H949 C958 0.930 . S
H950 C963 0.929 . S
H951 C961 0.929 . S
H952 C956 0.929 . S
H953 C962 0.929 . S
C954 H948 0.930 . S
C954 C955 1.367 . S
C954 C962 1.378 . S
C955 C954 1.367 . S
C955 C963 1.433 . S
C956 H952 0.929 . S
C956 C958 1.378 . S
C956 C960 1.350 . S
C957 C960 1.463 . S
C957 C962 1.350 . S
C957 N965 1.427 . S
C958 H949 0.930 . S
C958 C956 1.378 . S
C958 C959 1.367 . S
C959 C958 1.367 . S
C959 C961 1.433 . S
C960 C956 1.350 . S
C960 C957 1.463 . S
C960 N964 1.427 . S
C961 H951 0.929 . S
C961 C959 1.433 . S
C961 N964 1.384 . S
C962 H953 0.929 . S
C962 C954 1.378 . S
C962 C957 1.350 . S
C963 H950 0.929 . S
C963 C955 1.433 . S
C963 N965 1.384 . S
N964 C960 1.427 . S
N964 C961 1.384 . S
N965 C957 1.427 . S
N965 C963 1.384 . S
H966 C972 0.930 . S
H967 C976 0.930 . S
H968 C981 0.929 . S
H969 C979 0.929 . S
H970 C974 0.929 . S
H971 C980 0.929 . S
C972 H966 0.930 . S
C972 C973 1.367 . S
C972 C980 1.378 . S
C973 C972 1.367 . S
C973 C981 1.433 . S
C974 H970 0.929 . S
C974 C976 1.378 . S
C974 C978 1.350 . S
C975 C978 1.463 . S
C975 C980 1.350 . S
C975 N983 1.427 . S
C976 H967 0.930 . S
C976 C974 1.378 . S
C976 C977 1.367 . S
C977 C976 1.367 . S
C977 C979 1.433 . S
C978 C974 1.350 . S
C978 C975 1.463 . S
C978 N982 1.427 . S
C979 H969 0.929 . S
C979 C977 1.433 . S
C979 N982 1.384 . S
C980 H971 0.929 . S
C980 C972 1.378 . S
C980 C975 1.350 . S
C981 H968 0.929 . S
C981 C973 1.433 . S
C981 N983 1.384 . S
N982 C978 1.427 . S
N982 C979 1.384 . S
N983 C975 1.427 . S
N983 C981 1.384 . S
H984 C990 0.930 . S
H985 C994 0.930 . S
H986 C999 0.929 . S
H987 C997 0.929 . S
H988 C992 0.929 . S
H989 C998 0.929 . S
C990 H984 0.930 . S
C990 C991 1.367 . S
C990 C998 1.378 . S
C991 C990 1.367 . S
C991 C999 1.433 . S
C992 H988 0.929 . S
C992 C994 1.378 . S
C992 C996 1.350 . S
C993 C996 1.463 . S
C993 C998 1.350 . S
C993 N1001 1.427 . S
C994 H985 0.930 . S
C994 C992 1.378 . S
C994 C995 1.367 . S
C995 C994 1.367 . S
C995 C997 1.433 . S
C996 C992 1.350 . S
C996 C993 1.463 . S
C996 N1000 1.427 . S
C997 H987 0.929 . S
C997 C995 1.433 . S
C997 N1000 1.384 . S
C998 H989 0.929 . S
C998 C990 1.378 . S
C998 C993 1.350 . S
C999 H986 0.929 . S
C999 C991 1.433 . S
C999 N1001 1.384 . S
N1000 C996 1.427 . S
N1000 C997 1.384 . S
N1001 C993 1.427 . S
N1001 C999 1.384 . S
H1002 C1008 0.930 . S
H1003 C1012 0.930 . S
H1004 C1017 0.929 . S
H1005 C1015 0.929 . S
H1006 C1010 0.929 . S
H1007 C1016 0.929 . S
C1008 H1002 0.930 . S
C1008 C1009 1.367 . S
C1008 C1016 1.378 . S
C1009 C1008 1.367 . S
C1009 C1017 1.433 . S
C1010 H1006 0.929 . S
C1010 C1012 1.378 . S
C1010 C1014 1.350 . S
C1011 C1014 1.463 . S
C1011 C1016 1.350 . S
C1011 N1019 1.427 . S
C1012 H1003 0.930 . S
C1012 C1010 1.378 . S
C1012 C1013 1.367 . S
C1013 C1012 1.367 . S
C1013 C1015 1.433 . S
C1014 C1010 1.350 . S
C1014 C1011 1.463 . S
C1014 N1018 1.427 . S
C1015 H1005 0.929 . S
C1015 C1013 1.433 . S
C1015 N1018 1.384 . S
C1016 H1007 0.929 . S
C1016 C1008 1.378 . S
C1016 C1011 1.350 . S
C1017 H1004 0.929 . S
C1017 C1009 1.433 . S
C1017 N1019 1.384 . S
N1018 C1014 1.427 . S
N1018 C1015 1.384 . S
N1019 C1011 1.427 . S
N1019 C1017 1.384 . S
H1020 C1026 0.930 . S
H1021 C1030 0.930 . S
H1022 C1035 0.929 . S
H1023 C1033 0.929 1_545 S
H1024 C1028 0.929 . S
H1025 C1034 0.929 . S
C1026 H1020 0.930 . S
C1026 C1027 1.367 . S
C1026 C1034 1.378 . S
C1027 C1026 1.367 . S
C1027 C1035 1.433 . S
C1028 H1024 0.929 . S
C1028 C1030 1.378 . S
C1028 C1032 1.350 . S
C1029 C1032 1.463 . S
C1029 C1034 1.350 . S
C1029 N1037 1.427 . S
C1030 H1021 0.930 . S
C1030 C1028 1.378 . S
C1030 C1031 1.367 . S
C1031 C1030 1.367 . S
C1031 C1033 1.433 . S
C1032 C1028 1.350 . S
C1032 C1029 1.463 . S
C1032 N1036 1.427 . S
C1033 H1023 0.929 1_565 S
C1033 C1031 1.433 . S
C1033 N1036 1.384 . S
C1034 H1025 0.929 . S
C1034 C1026 1.378 . S
C1034 C1029 1.350 . S
C1035 H1022 0.929 . S
C1035 C1027 1.433 . S
C1035 N1037 1.384 . S
N1036 C1032 1.427 . S
N1036 C1033 1.384 . S
N1037 C1029 1.427 . S
N1037 C1035 1.384 . S
H1038 C1044 0.936 . S
H1039 C1048 0.930 . S
H1040 C1053 0.929 1_565 S
H1041 C1051 0.929 1_455 S
H1042 C1046 0.929 . S
H1043 C1052 0.929 . S
C1044 H1038 0.936 . S
C1044 C1045 1.370 . S
C1044 C1052 1.369 1_565 S
C1045 C1044 1.370 . S
C1045 C1053 1.433 1_565 S
C1046 H1042 0.929 . S
C1046 C1048 1.378 1_655 S
C1046 C1050 1.350 . S
C1047 C1050 1.463 . S
C1047 C1052 1.350 . S
C1047 N1055 1.427 . S
C1048 H1039 0.930 . S
C1048 C1046 1.378 1_455 S
C1048 C1049 1.367 . S
C1049 C1048 1.367 . S
C1049 C1051 1.433 1_455 S
C1050 C1046 1.350 . S
C1050 C1047 1.463 . S
C1050 N1054 1.427 . S
C1051 H1041 0.929 1_655 S
C1051 C1049 1.433 1_655 S
C1051 N1054 1.384 . S
C1052 H1043 0.929 . S
C1052 C1044 1.369 1_545 S
C1052 C1047 1.350 . S
C1053 H1040 0.929 1_545 S
C1053 C1045 1.433 1_545 S
C1053 N1055 1.384 . S
N1054 C1050 1.427 . S
N1054 C1051 1.384 . S
N1055 C1047 1.427 . S
N1055 C1053 1.384 . S
C415 C13 1.208 . S
C419 C382 1.196 . S
C433 C319 1.389 . S
C437 C47 1.434 1_545 S
C451 C76 2.465 1_554 S
C455 C280 2.459 . S
C469 C115 1.581 . S
C473 C353 1.568 . S
C487 C149 1.435 . S
C491 C348 1.419 . S
C505 C183 1.207 . S
C509 C387 1.187 . S
C523 C314 1.684 1_565 S
C527 C217 1.692 . S
C541 C246 2.166 . S
C545 C285 2.132 . S
C559 C110 2.453 . S
C563 C144 2.487 . S
C577 C8 2.409 . S
C581 C178 2.375 . S
C595 C42 2.445 . S
C599 C212 2.471 . S
C613 C251 0.561 . S
C617 C81 0.479 . S
C631 C29 1.926 . S
C635 C289 1.917 . S
C649 C63 0.708 . S
C653 C344 0.712 . S
C667 C391 1.334 . S
C671 C68 1.367 . S
C685 C131 0.569 . S
C689 C310 0.593 . S
C703 C165 1.445 . S
C707 C323 1.429 . S
C721 C276 1.128 . S
C725 C199 1.134 . S
C739 C357 1.231 . S
C743 C233 1.232 . S
C757 C378 0.722 . S
C761 C238 0.729 . S
C775 C17 1.395 . S
C779 C102 1.360 . S
C793 C0 1.845 . S
C797 C51 1.838 . S
C811 C34 0.650 . S
C815 C72 0.632 . S
C829 C119 1.515 . S
C833 C97 1.542 . S
C847 C170 1.613 . S
C851 C153 1.644 . S
C865 C187 1.667 . S
C869 C204 1.675 . S
C883 C221 1.260 . S
C887 C267 1.240 . S
C901 C136 1.139 . S
C905 C242 1.111 . S
C919 C301 0.768 . S
C923 C106 0.775 . S
C937 C174 0.443 . S
C941 C335 0.424 . S
C955 C272 1.082 . S
C959 C208 1.100 1_455 S
C973 C369 0.679 . S
C977 C255 0.671 . S
C991 C140 1.089 . S
C995 C374 1.104 . S
C1009 C403 0.852 . S
C1013 C38 0.845 . S
C1027 C85 1.018 . S
C1031 C306 1.005 1_565 S
C1045 C340 0.756 . S
C1049 C4 0.767 . S
