# Generated by pormake.
# Topology uns, (4)-cn, num edge types: 1
# Building blocks:
#     Node 0, Type 0, BuildingBlock: QUQFOY_clean_sbu_1, # of connection points: 4
#     Node 1, Type 0, BuildingBlock: QUQFOY_clean_sbu_1, # of connection points: 4
#     Node 2, Type 0, BuildingBlock: QUQFOY_clean_sbu_1, # of connection points: 4
#     Node 3, Type 0, BuildingBlock: QUQFOY_clean_sbu_1, # of connection points: 4
#     Node 4, Type 0, BuildingBlock: QUQFOY_clean_sbu_1, # of connection points: 4
#     Node 5, Type 0, BuildingBlock: QUQFOY_clean_sbu_1, # of connection points: 4
#     Node 6, Type 0, BuildingBlock: QUQFOY_clean_sbu_1, # of connection points: 4
#     Node 7, Type 0, BuildingBlock: QUQFOY_clean_sbu_1, # of connection points: 4
#     Node 8, Type 0, BuildingBlock: QUQFOY_clean_sbu_1, # of connection points: 4
#     Node 9, Type 0, BuildingBlock: QUQFOY_clean_sbu_1, # of connection points: 4
#     Node 10, Type 0, BuildingBlock: QUQFOY_clean_sbu_1, # of connection points: 4
#     Node 11, Type 0, BuildingBlock: QUQFOY_clean_sbu_1, # of connection points: 4
#     Node 12, Type 0, BuildingBlock: QUQFOY_clean_sbu_1, # of connection points: 4
#     Node 13, Type 0, BuildingBlock: QUQFOY_clean_sbu_1, # of connection points: 4
#     Node 14, Type 0, BuildingBlock: QUQFOY_clean_sbu_1, # of connection points: 4
#     Node 15, Type 0, BuildingBlock: QUQFOY_clean_sbu_1, # of connection points: 4
#     Node 16, Type 0, BuildingBlock: QUQFOY_clean_sbu_1, # of connection points: 4
#     Node 17, Type 0, BuildingBlock: QUQFOY_clean_sbu_1, # of connection points: 4
#     Node 18, Type 0, BuildingBlock: QUQFOY_clean_sbu_1, # of connection points: 4
#     Node 19, Type 0, BuildingBlock: QUQFOY_clean_sbu_1, # of connection points: 4
#     Node 20, Type 0, BuildingBlock: QUQFOY_clean_sbu_1, # of connection points: 4
#     Node 21, Type 0, BuildingBlock: QUQFOY_clean_sbu_1, # of connection points: 4
#     Node 22, Type 0, BuildingBlock: QUQFOY_clean_sbu_1, # of connection points: 4
#     Node 23, Type 0, BuildingBlock: QUQFOY_clean_sbu_1, # of connection points: 4
#     Node 24, Type 0, BuildingBlock: QUQFOY_clean_sbu_1, # of connection points: 4
#     Node 25, Type 0, BuildingBlock: QUQFOY_clean_sbu_1, # of connection points: 4
#     Node 26, Type 0, BuildingBlock: QUQFOY_clean_sbu_1, # of connection points: 4
#     Node 27, Type 0, BuildingBlock: QUQFOY_clean_sbu_1, # of connection points: 4
#     Node 28, Type 0, BuildingBlock: QUQFOY_clean_sbu_1, # of connection points: 4
#     Node 29, Type 0, BuildingBlock: QUQFOY_clean_sbu_1, # of connection points: 4
#     Node 30, Type 0, BuildingBlock: QUQFOY_clean_sbu_1, # of connection points: 4
#     Node 31, Type 0, BuildingBlock: QUQFOY_clean_sbu_1, # of connection points: 4
#     Node 32, Type 0, BuildingBlock: QUQFOY_clean_sbu_1, # of connection points: 4
#     Node 33, Type 0, BuildingBlock: QUQFOY_clean_sbu_1, # of connection points: 4
#     Node 34, Type 0, BuildingBlock: QUQFOY_clean_sbu_1, # of connection points: 4
#     Node 35, Type 0, BuildingBlock: QUQFOY_clean_sbu_1, # of connection points: 4
#     Edge 36, Type (0, 0), BuildingBlock: EZIPEK_clean_linker_0, # of connection points: 2
#     Edge 37, Type (0, 0), BuildingBlock: EZIPEK_clean_linker_0, # of connection points: 2
#     Edge 38, Type (0, 0), BuildingBlock: EZIPEK_clean_linker_0, # of connection points: 2
#     Edge 39, Type (0, 0), BuildingBlock: EZIPEK_clean_linker_0, # of connection points: 2
#     Edge 40, Type (0, 0), BuildingBlock: EZIPEK_clean_linker_0, # of connection points: 2
#     Edge 41, Type (0, 0), BuildingBlock: EZIPEK_clean_linker_0, # of connection points: 2
#     Edge 42, Type (0, 0), BuildingBlock: EZIPEK_clean_linker_0, # of connection points: 2
#     Edge 43, Type (0, 0), BuildingBlock: EZIPEK_clean_linker_0, # of connection points: 2
#     Edge 44, Type (0, 0), BuildingBlock: EZIPEK_clean_linker_0, # of connection points: 2
#     Edge 45, Type (0, 0), BuildingBlock: EZIPEK_clean_linker_0, # of connection points: 2
#     Edge 46, Type (0, 0), BuildingBlock: EZIPEK_clean_linker_0, # of connection points: 2
#     Edge 47, Type (0, 0), BuildingBlock: EZIPEK_clean_linker_0, # of connection points: 2
#     Edge 48, Type (0, 0), BuildingBlock: EZIPEK_clean_linker_0, # of connection points: 2
#     Edge 49, Type (0, 0), BuildingBlock: EZIPEK_clean_linker_0, # of connection points: 2
#     Edge 50, Type (0, 0), BuildingBlock: EZIPEK_clean_linker_0, # of connection points: 2
#     Edge 51, Type (0, 0), BuildingBlock: EZIPEK_clean_linker_0, # of connection points: 2
#     Edge 52, Type (0, 0), BuildingBlock: EZIPEK_clean_linker_0, # of connection points: 2
#     Edge 53, Type (0, 0), BuildingBlock: EZIPEK_clean_linker_0, # of connection points: 2
#     Edge 54, Type (0, 0), BuildingBlock: EZIPEK_clean_linker_0, # of connection points: 2
#     Edge 55, Type (0, 0), BuildingBlock: EZIPEK_clean_linker_0, # of connection points: 2
#     Edge 56, Type (0, 0), BuildingBlock: EZIPEK_clean_linker_0, # of connection points: 2
#     Edge 57, Type (0, 0), BuildingBlock: EZIPEK_clean_linker_0, # of connection points: 2
#     Edge 58, Type (0, 0), BuildingBlock: EZIPEK_clean_linker_0, # of connection points: 2
#     Edge 59, Type (0, 0), BuildingBlock: EZIPEK_clean_linker_0, # of connection points: 2
#     Edge 60, Type (0, 0), BuildingBlock: EZIPEK_clean_linker_0, # of connection points: 2
#     Edge 61, Type (0, 0), BuildingBlock: EZIPEK_clean_linker_0, # of connection points: 2
#     Edge 62, Type (0, 0), BuildingBlock: EZIPEK_clean_linker_0, # of connection points: 2
#     Edge 63, Type (0, 0), BuildingBlock: EZIPEK_clean_linker_0, # of connection points: 2
#     Edge 64, Type (0, 0), BuildingBlock: EZIPEK_clean_linker_0, # of connection points: 2
#     Edge 65, Type (0, 0), BuildingBlock: EZIPEK_clean_linker_0, # of connection points: 2
#     Edge 66, Type (0, 0), BuildingBlock: EZIPEK_clean_linker_0, # of connection points: 2
#     Edge 67, Type (0, 0), BuildingBlock: EZIPEK_clean_linker_0, # of connection points: 2
#     Edge 68, Type (0, 0), BuildingBlock: EZIPEK_clean_linker_0, # of connection points: 2
#     Edge 69, Type (0, 0), BuildingBlock: EZIPEK_clean_linker_0, # of connection points: 2
#     Edge 70, Type (0, 0), BuildingBlock: EZIPEK_clean_linker_0, # of connection points: 2
#     Edge 71, Type (0, 0), BuildingBlock: EZIPEK_clean_linker_0, # of connection points: 2
#     Edge 72, Type (0, 0), BuildingBlock: EZIPEK_clean_linker_0, # of connection points: 2
#     Edge 73, Type (0, 0), BuildingBlock: EZIPEK_clean_linker_0, # of connection points: 2
#     Edge 74, Type (0, 0), BuildingBlock: EZIPEK_clean_linker_0, # of connection points: 2
#     Edge 75, Type (0, 0), BuildingBlock: EZIPEK_clean_linker_0, # of connection points: 2
#     Edge 76, Type (0, 0), BuildingBlock: EZIPEK_clean_linker_0, # of connection points: 2
#     Edge 77, Type (0, 0), BuildingBlock: EZIPEK_clean_linker_0, # of connection points: 2
#     Edge 78, Type (0, 0), BuildingBlock: EZIPEK_clean_linker_0, # of connection points: 2
#     Edge 79, Type (0, 0), BuildingBlock: EZIPEK_clean_linker_0, # of connection points: 2
#     Edge 80, Type (0, 0), BuildingBlock: EZIPEK_clean_linker_0, # of connection points: 2
#     Edge 81, Type (0, 0), BuildingBlock: EZIPEK_clean_linker_0, # of connection points: 2
#     Edge 82, Type (0, 0), BuildingBlock: EZIPEK_clean_linker_0, # of connection points: 2
#     Edge 83, Type (0, 0), BuildingBlock: EZIPEK_clean_linker_0, # of connection points: 2
#     Edge 84, Type (0, 0), BuildingBlock: EZIPEK_clean_linker_0, # of connection points: 2
#     Edge 85, Type (0, 0), BuildingBlock: EZIPEK_clean_linker_0, # of connection points: 2
#     Edge 86, Type (0, 0), BuildingBlock: EZIPEK_clean_linker_0, # of connection points: 2
#     Edge 87, Type (0, 0), BuildingBlock: EZIPEK_clean_linker_0, # of connection points: 2
#     Edge 88, Type (0, 0), BuildingBlock: EZIPEK_clean_linker_0, # of connection points: 2
#     Edge 89, Type (0, 0), BuildingBlock: EZIPEK_clean_linker_0, # of connection points: 2
#     Edge 90, Type (0, 0), BuildingBlock: EZIPEK_clean_linker_0, # of connection points: 2
#     Edge 91, Type (0, 0), BuildingBlock: EZIPEK_clean_linker_0, # of connection points: 2
#     Edge 92, Type (0, 0), BuildingBlock: EZIPEK_clean_linker_0, # of connection points: 2
#     Edge 93, Type (0, 0), BuildingBlock: EZIPEK_clean_linker_0, # of connection points: 2
#     Edge 94, Type (0, 0), BuildingBlock: EZIPEK_clean_linker_0, # of connection points: 2
#     Edge 95, Type (0, 0), BuildingBlock: EZIPEK_clean_linker_0, # of connection points: 2
#     Edge 96, Type (0, 0), BuildingBlock: EZIPEK_clean_linker_0, # of connection points: 2
#     Edge 97, Type (0, 0), BuildingBlock: EZIPEK_clean_linker_0, # of connection points: 2
#     Edge 98, Type (0, 0), BuildingBlock: EZIPEK_clean_linker_0, # of connection points: 2
#     Edge 99, Type (0, 0), BuildingBlock: EZIPEK_clean_linker_0, # of connection points: 2
#     Edge 100, Type (0, 0), BuildingBlock: EZIPEK_clean_linker_0, # of connection points: 2
#     Edge 101, Type (0, 0), BuildingBlock: EZIPEK_clean_linker_0, # of connection points: 2
#     Edge 102, Type (0, 0), BuildingBlock: EZIPEK_clean_linker_0, # of connection points: 2
#     Edge 103, Type (0, 0), BuildingBlock: EZIPEK_clean_linker_0, # of connection points: 2
#     Edge 104, Type (0, 0), BuildingBlock: EZIPEK_clean_linker_0, # of connection points: 2
#     Edge 105, Type (0, 0), BuildingBlock: EZIPEK_clean_linker_0, # of connection points: 2
#     Edge 106, Type (0, 0), BuildingBlock: EZIPEK_clean_linker_0, # of connection points: 2
#     Edge 107, Type (0, 0), BuildingBlock: EZIPEK_clean_linker_0, # of connection points: 2
# Relax obj value: 0.035
# Max RMSD: 0.162
# Mean RMSD: 0.162
data_MOF--net-uns--node1-QUQFOY_clean_sbu_1--edge1-EZIPEK_clean_linker_0
_symmetry_space_group_name_H-M    P1
_symmetry_Int_Tables_number       1
_symmetry_cell_setting            triclinic
loop_
_symmetry_equiv_pos_as_xyz
'x, y, z'
_cell_length_a     38.452477
_cell_length_b     38.394709
_cell_length_c     49.172258
_cell_angle_alpha  89.912027
_cell_angle_beta   90.346373
_cell_angle_gamma 119.97975
loop_
_atom_site_label
_atom_site_type_symbol
_atom_site_fract_x
_atom_site_fract_y
_atom_site_fract_z
_atom_type_partial_charge
O0 O 0.27729 0.22746 0.06221 0.0
Cd1 Cd 0.32161 0.2127 0.06493 0.0
Cd2 Cd 0.29454 0.19704 0.11789 0.0
O3 O 0.247 0.20291 0.10167 0.0
O4 O 0.32135 0.18378 1.0309 0.0
O5 O 0.30127 0.15399 0.0711 0.0
C6 C 0.305 0.15112 0.04516 0.0
C7 C 0.30301 0.17207 0.15856 0.0
C8 C 0.24885 0.21934 0.07865 0.0
C9 C 0.37722 0.2702 0.10362 0.0
O10 O 0.34779 0.24835 0.11857 0.0
O11 O 0.37649 0.26019 0.07887 0.0
O12 O 0.29099 0.19792 0.15816 0.0
O13 O 0.30053 0.15323 0.13619 0.0
O14 O 0.77993 0.04813 0.05726 0.0
Cd15 Cd 0.80904 0.10971 0.06621 0.0
Cd16 Cd 0.78585 0.07325 0.11597 0.0
O17 O 0.78789 0.02635 0.09718 0.0
O18 O 0.83728 0.13869 1.03203 0.0
O19 O 0.86946 0.13827 0.06939 0.0
C20 C 0.87085 0.14918 0.04434 0.0
C21 C 0.8061 0.1019 0.15884 0.0
C22 C 0.77859 0.02022 0.07207 0.0
C23 C 0.74537 0.11386 0.09655 0.0
O24 O 0.73845 0.08004 0.10546 0.0
O25 O 0.77681 0.13554 0.08273 0.0
O26 O 0.7796 0.06434 0.1562 0.0
O27 O 0.82563 0.12103 0.13734 0.0
O28 O 0.95809 0.73739 0.06713 0.0
Cd29 Cd 0.89761 0.70075 0.07689 0.0
Cd30 Cd 0.92842 0.727 0.12367 0.0
O31 O 0.9746 0.77583 0.10375 0.0
O32 O 0.86404 0.69558 0.04387 0.0
O33 O 0.86713 0.73057 0.08052 0.0
C34 C 0.85413 0.71916 0.05601 0.0
C35 C 0.88586 0.71805 0.15966 0.0
C36 C 0.98315 0.76884 0.08008 0.0
C37 C 0.90526 0.64443 0.11321 0.0
O38 O 0.93382 0.67713 0.12228 0.0
O39 O 0.88042 0.64543 0.09638 0.0
O40 O 0.92376 0.73156 0.16369 0.0
O41 O 0.87367 0.71627 0.13487 0.0
O42 O 0.22519 0.26173 0.50114 0.0
Cd43 Cd 0.19704 0.29585 0.4965 0.0
Cd44 Cd 0.21152 0.28324 0.44387 0.0
O45 O 0.21804 0.23662 0.45958 0.0
O46 O 0.16996 0.29171 0.53224 0.0
O47 O 0.13633 0.26555 0.49402 0.0
C48 C 0.13588 0.27095 0.51995 0.0
C49 C 0.18389 0.29051 0.4032 0.0
C50 C 0.22814 0.23796 0.48448 0.0
C51 C 0.25883 0.36553 0.46651 0.0
O52 O 0.2587 0.33829 0.45201 0.0
O53 O 0.2324 0.35646 0.48483 0.0
O54 O 0.21535 0.28664 0.40327 0.0
O55 O 0.16453 0.28372 0.42578 0.0
O56 O 0.73146 0.95613 0.51658 0.0
Cd57 Cd 0.70262 0.89546 0.5055 0.0
Cd58 Cd 0.73028 0.92857 0.4603 0.0
O59 O 0.77537 0.9738 0.48352 0.0
O60 O 0.69996 0.8587 0.53585 0.0
O61 O 0.74162 0.87532 0.50132 0.0
C62 C 0.72878 0.85645 0.52411 0.0
C63 C 0.72949 0.89227 0.42194 0.0
C64 C 0.76414 0.98244 0.50561 0.0
C65 C 0.64616 0.8972 0.46678 0.0
O66 O 0.67777 0.92893 0.45985 0.0
O67 O 0.64868 0.87281 0.48314 0.0
O68 O 0.74162 0.93028 0.42068 0.0
O69 O 0.72299 0.87657 0.44598 0.0
O70 O 0.05815 0.77694 0.50777 0.0
Cd71 Cd 0.11926 0.80307 0.50019 0.0
Cd72 Cd 0.09157 0.79974 0.45268 0.0
O73 O 0.04358 0.8005 0.47105 0.0
O74 O 0.14955 0.83257 0.53398 0.0
O75 O 0.14745 0.86324 0.49631 0.0
C76 C 0.15861 0.86561 0.52141 0.0
C77 C 0.13516 0.83421 0.41743 0.0
C78 C 0.03359 0.78336 0.4942 0.0
C79 C 0.11522 0.74079 0.46428 0.0
O80 O 0.08715 0.74497 0.45427 0.0
O81 O 0.1389 0.76628 0.48174 0.0
O82 O 0.09757 0.80925 0.41275 0.0
O83 O 0.14628 0.84469 0.44236 0.0
O84 O 0.72853 0.7737 1.01393 0.0
Cd85 Cd 0.69322 0.79903 1.00359 0.0
Cd86 Cd 0.72291 0.79831 0.95743 0.0
O87 O 0.76938 0.79772 0.97875 0.0
O88 O 0.68889 0.82931 0.03565 0.0
O89 O 0.72504 0.85897 0.99906 0.0
C90 C 0.71351 0.86201 1.02309 0.0
C91 C 0.71798 0.83488 0.92125 0.0
C92 C 0.76058 0.78039 1.00189 0.0
C93 C 0.63908 0.73914 0.96447 0.0
O94 O 0.67224 0.74384 0.95625 0.0
O95 O 0.6389 0.7631 0.98229 0.0
O96 O 0.72982 0.80909 0.91756 0.0
O97 O 0.71592 0.84483 0.94598 0.0
O98 O 0.22709 0.96445 1.0131 0.0
Cd99 Cd 0.20143 0.90268 1.00782 0.0
Cd100 Cd 0.22166 0.9319 0.95324 0.0
O101 O 0.22884 0.9847 0.97054 0.0
O102 O 0.17112 0.87736 0.0422 0.0
O103 O 0.14129 0.86918 1.0022 0.0
C104 C 0.13842 0.86241 1.02808 0.0
C105 C 0.2061 0.90873 0.90862 0.0
C106 C 0.23426 0.99219 0.996 0.0
C107 C 0.26688 0.89619 0.98197 0.0
O108 O 0.26452 0.91878 0.96421 0.0
O109 O 0.24185 0.88225 1.00138 0.0
O110 O 0.23676 0.94337 0.91401 0.0
O111 O 0.18075 0.89015 0.92789 0.0
O112 O 0.05245 0.26655 1.01359 0.0
Cd113 Cd 0.11377 0.30592 1.01158 0.0
Cd114 Cd 0.09049 0.29899 0.95686 0.0
O115 O 0.03767 0.24902 0.97028 0.0
O116 O 0.13568 0.29826 0.04682 0.0
O117 O 0.15018 0.28269 1.00673 0.0
C118 C 0.15356 0.2834 1.03293 0.0
C119 C 0.1245 0.31211 0.9157 0.0
C120 C 0.02745 0.24502 0.99525 0.0
C121 C 0.11774 0.37731 0.98668 0.0
O122 O 0.09691 0.35257 0.96822 0.0
O123 O 0.13232 0.3667 1.00616 0.0
O124 O 0.08847 0.30626 0.91667 0.0
O125 O 0.13881 0.30426 0.93725 0.0
O126 O 0.78885 0.73122 0.55518 0.0
Cd127 Cd 0.8125 0.69373 0.56089 0.0
Cd128 Cd 0.80751 0.7125 0.61128 0.0
O129 O 0.80966 0.76371 0.59409 0.0
O130 O 0.8436 0.69705 0.52756 0.0
O131 O 0.87183 0.7201 0.568 0.0
C132 C 0.87566 0.71564 0.54232 0.0
C133 C 0.83065 0.70031 0.65171 0.0
C134 C 0.79431 0.76031 0.57041 0.0
C135 C 0.74696 0.63109 0.58958 0.0
O136 O 0.75497 0.66095 0.60463 0.0
O137 O 0.77044 0.6348 0.57033 0.0
O138 O 0.8046 0.71213 0.65175 0.0
O139 O 0.84868 0.70223 0.62914 0.0
O140 O 0.27489 0.04695 0.55307 0.0
Cd141 Cd 0.3152 0.10708 0.55736 0.0
Cd142 Cd 0.28164 0.09522 0.60721 0.0
O143 O 0.23875 0.03982 0.58981 0.0
O144 O 0.31769 0.13639 0.52282 0.0
O145 O 0.29035 0.14181 0.56106 0.0
C146 C 0.29765 0.15013 0.53551 0.0
C147 C 0.27638 0.1337 0.64212 0.0
C148 C 0.2448 0.02549 0.56802 0.0
C149 C 0.36765 0.1109 0.60167 0.0
O150 O 0.3362 0.1015 0.61498 0.0
O151 O 0.36857 0.11854 0.57639 0.0
O152 O 0.26793 0.09709 0.64609 0.0
O153 O 0.28117 0.14578 0.6172 0.0
O154 O 0.9629 0.22115 0.56272 0.0
Cd155 Cd 0.90537 0.20463 0.57278 0.0
Cd156 Cd 0.92302 0.18645 0.6197 0.0
O157 O 0.96913 0.18592 0.59625 0.0
O158 O 0.86522 0.17595 0.54246 0.0
O159 O 0.87447 0.14488 0.57718 0.0
C160 C 0.8573 0.14252 0.55411 0.0
C161 C 0.87568 0.15019 0.65283 0.0
C162 C 0.98263 0.20699 0.57453 0.0
C163 C 0.92147 0.26246 0.61719 0.0
O164 O 0.93586 0.24263 0.62814 0.0
O165 O 0.90166 0.24944 0.59503 0.0
O166 O 0.91341 0.16313 0.65739 0.0
O167 O 0.86454 0.15125 0.62818 0.0
O168 O 0.93787 0.55493 0.39917 0.0
Cd169 Cd 0.97257 0.52785 0.4046 0.0
Cd170 Cd 0.96373 0.54433 0.45675 0.0
O171 O 0.9158 0.54941 0.4414 0.0
O172 O 0.96669 0.49506 0.3712 0.0
O173 O 0.94086 0.46794 0.41091 0.0
C174 C 0.94527 0.46308 0.38539 0.0
C175 C 0.97323 0.51784 0.4969 0.0
C176 C 0.915 0.55812 0.4164 0.0
C177 C 0.04407 0.59291 0.43137 0.0
O178 O 0.01827 0.59172 0.44775 0.0
O179 O 0.03381 0.56601 0.4131 0.0
O180 O 0.96881 0.54902 0.49723 0.0
O181 O 0.96551 0.49781 0.47439 0.0
O182 O 0.44502 0.39124 0.3898 0.0
Cd183 Cd 0.46886 0.45178 0.39946 0.0
Cd184 Cd 0.45809 0.41981 0.44729 0.0
O185 O 0.46822 0.37795 0.42689 0.0
O186 O 0.50096 0.48483 0.36753 0.0
O187 O 0.52843 0.48308 0.40689 0.0
C188 C 0.53291 0.49563 0.38202 0.0
C189 C 0.48067 0.45498 0.48799 0.0
C190 C 0.45288 0.36754 0.40316 0.0
C191 C 0.4014 0.4442 0.43044 0.0
O192 O 0.40355 0.41499 0.44067 0.0
O193 O 0.42918 0.46909 0.41496 0.0
O194 O 0.46091 0.41614 0.48783 0.0
O195 O 0.49337 0.47313 0.4649 0.0
O196 O 0.64437 0.07054 0.38508 0.0
Cd197 Cd 0.58289 0.03436 0.39201 0.0
Cd198 Cd 0.61135 0.04857 0.44365 0.0
O199 O 0.66463 0.09255 0.42706 0.0
O200 O 0.55316 0.04007 0.36012 0.0
O201 O 0.55113 0.06151 0.40154 0.0
C202 C 0.54062 0.05797 0.37621 0.0
C203 C 0.58103 0.04937 0.48396 0.0
C204 C 0.67205 0.09278 0.40184 0.0
C205 C 0.57623 0.96444 0.42132 0.0
O206 O 0.59916 0.99113 0.43815 0.0
O207 O 0.56189 0.97372 0.40099 0.0
O208 O 0.61496 0.05023 0.48406 0.0
O209 O 0.56726 0.05412 0.46104 0.0
O210 O 0.90578 0.60013 0.84056 0.0
Cd211 Cd 0.88861 0.64143 0.83138 0.0
Cd212 Cd 0.87376 0.60701 0.78281 0.0
O213 O 0.87703 0.56118 0.8045 0.0
O214 O 0.85765 0.6497 0.86123 0.0
O215 O 0.8296 0.61376 0.82423 0.0
C216 C 0.82532 0.62608 0.84771 0.0
C217 C 0.83975 0.61368 0.74624 0.0
C218 C 0.89568 0.56798 0.82731 0.0
C219 C 0.94675 0.68902 0.78965 0.0
O220 O 0.92774 0.65598 0.77714 0.0
O221 O 0.9336 0.69312 0.81242 0.0
O222 O 0.86069 0.5961 0.74328 0.0
O223 O 0.83066 0.61868 0.77063 0.0
O224 O 0.42737 0.2938 0.83571 0.0
Cd225 Cd 0.38709 0.23291 0.83859 0.0
Cd226 Cd 0.38319 0.25163 0.7798 0.0
O227 O 0.43386 0.30597 0.79124 0.0
O228 O 0.39956 0.21838 0.8753 0.0
O229 O 0.40676 0.19294 0.83686 0.0
C230 C 0.41036 0.1957 0.86303 0.0
C231 C 0.36323 0.22497 0.73586 0.0
C232 C 0.44353 0.31774 0.81585 0.0
C233 C 0.31212 0.22789 0.81876 0.0
O234 O 0.33183 0.24273 0.7972 0.0
O235 O 0.32713 0.21809 0.83844 0.0
O236 O 0.36909 0.26009 0.74189 0.0
O237 O 0.37399 0.20717 0.75352 0.0
O238 O 0.71987 0.10161 0.84679 0.0
Cd239 Cd 0.7808 0.13127 0.83617 0.0
Cd240 Cd 0.74139 0.10274 0.78722 0.0
O241 O 0.69406 0.103 0.80674 0.0
O242 O 0.81154 0.16194 0.86951 0.0
O243 O 0.80762 0.19177 0.83205 0.0
C244 C 0.82006 0.19473 0.85689 0.0
C245 C 0.76994 0.12378 0.74452 0.0
C246 C 0.69016 0.09671 0.83227 0.0
C247 C 0.78598 0.06643 0.8067 0.0
O248 O 0.75142 0.05746 0.79798 0.0
O249 O 0.80704 0.09898 0.81989 0.0
O250 O 0.73271 0.09634 0.74688 0.0
O251 O 0.78843 0.14376 0.7662 0.0
O252 O 0.41429 0.1197 0.34533 0.0
Cd253 Cd 0.3798 0.14599 0.33423 0.0
Cd254 Cd 0.40171 0.13469 0.2872 0.0
O255 O 0.44938 0.13536 0.30732 0.0
O256 O 0.37467 0.17737 0.36532 0.0
O257 O 0.4133 0.20625 0.32988 0.0
C258 C 0.40039 0.21006 0.35326 0.0
C259 C 0.39584 0.17047 0.25083 0.0
C260 C 0.44371 0.12245 0.3317 0.0
C261 C 0.31897 0.08205 0.29887 0.0
O262 O 0.34957 0.08188 0.28976 0.0
O263 O 0.32348 0.11001 0.31497 0.0
O264 O 0.407 0.14414 0.24716 0.0
O265 O 0.39343 0.17995 0.27567 0.0
O266 O 0.90531 0.29134 0.34148 0.0
Cd267 Cd 0.88977 0.23337 0.33301 0.0
Cd268 Cd 0.86569 0.24889 0.28758 0.0
O269 O 0.8606 0.2909 0.31299 0.0
O270 O 0.86395 0.19824 0.36592 0.0
O271 O 0.83042 0.19854 0.3292 0.0
C272 C 0.82989 0.18642 0.35373 0.0
C273 C 0.82998 0.20311 0.25322 0.0
C274 C 0.88569 0.30758 0.33262 0.0
C275 C 0.94389 0.25027 0.28786 0.0
O276 O 0.92282 0.2646 0.27871 0.0
O277 O 0.93285 0.22931 0.30957 0.0
O278 O 0.84219 0.24095 0.24995 0.0
O279 O 0.83144 0.19067 0.27737 0.0
O280 O 0.72035 0.61386 0.35592 0.0
Cd281 Cd 0.78231 0.65071 0.35201 0.0
Cd282 Cd 0.75668 0.64194 0.29764 0.0
O283 O 0.70262 0.59608 0.31291 0.0
O284 O 0.80744 0.64312 0.38579 0.0
O285 O 0.81515 0.62397 0.34488 0.0
C286 C 0.82203 0.62602 0.37077 0.0
C287 C 0.78707 0.64751 0.25572 0.0
C288 C 0.69376 0.59311 0.3381 0.0
C289 C 0.7922 0.72364 0.3249 0.0
O290 O 0.76991 0.69878 0.30693 0.0
O291 O 0.80482 0.71212 0.34503 0.0
O292 O 0.75328 0.64681 0.25732 0.0
O293 O 0.8004 0.63867 0.27733 0.0
O294 O 0.4644 0.07377 0.89895 0.0
Cd295 Cd 0.47575 0.02746 0.90423 0.0
Cd296 Cd 0.49553 0.0594 0.95596 0.0
O297 O 0.48963 0.10605 0.93791 0.0
O298 O 0.50294 0.02246 0.87102 0.0
O299 O 0.53362 0.04467 0.91092 0.0
C300 C 0.53573 0.03833 0.88528 0.0
C301 C 0.52461 0.05708 0.99683 0.0
C302 C 0.47346 0.10342 0.91461 0.0
C303 C 0.41935 0.97694 0.94519 0.0
O304 O 0.44388 1.00645 0.95936 0.0
O305 O 0.42667 0.97584 0.9201 0.0
O306 O 0.49794 0.06798 0.99596 0.0
O307 O 0.54115 0.05625 0.97421 0.0
O308 O 0.94276 0.37484 0.89815 0.0
Cd309 Cd 0.97709 0.4361 0.90649 0.0
Cd310 Cd 0.94921 0.40871 0.95323 0.0
O311 O 0.90172 0.36069 0.9329 0.0
O312 O 0.98232 0.46679 0.87204 0.0
O313 O 0.94486 0.46431 0.90687 0.0
C314 C 0.9571 0.47598 0.88237 0.0
C315 C 0.9583 0.45588 0.98624 0.0
C316 C 0.91048 0.35051 0.91036 0.0
C317 C 0.03234 0.43359 0.9467 0.0
O318 O 0.99965 0.40417 0.95482 0.0
O319 O 0.03123 0.45691 0.92865 0.0
O320 O 0.94381 0.41836 0.99245 0.0
O321 O 0.96004 0.46485 0.96075 0.0
O322 O 0.63811 0.5695 0.876 0.0
Cd323 Cd 0.57646 0.53994 0.88277 0.0
Cd324 Cd 0.60591 0.54904 0.93232 0.0
O325 O 0.65143 0.54513 0.91249 0.0
O326 O 0.54799 0.51069 0.84859 0.0
O327 O 0.54833 0.47971 0.8866 0.0
C328 C 0.5377 0.47754 0.86136 0.0
C329 C 0.57697 0.52582 0.97453 0.0
C330 C 0.66256 0.56311 0.8897 0.0
C331 C 0.57489 0.60136 0.91553 0.0
O332 O 0.60447 0.60092 0.92668 0.0
O333 O 0.55298 0.57428 0.89844 0.0
O334 O 0.61499 0.55061 0.97246 0.0
O335 O 0.55685 0.50925 0.95252 0.0
O336 O 0.63466 0.91514 0.72439 0.0
Cd337 Cd 0.66614 0.88436 0.72928 0.0
Cd338 Cd 0.65229 0.897 0.78173 0.0
O339 O 0.60856 0.90736 0.76553 0.0
O340 O 0.65718 0.85336 0.69456 0.0
O341 O 0.63267 0.82421 0.73417 0.0
C342 C 0.63526 0.82087 0.70818 0.0
C343 C 0.65436 0.86872 0.82317 0.0
C344 C 0.61092 0.91834 0.74082 0.0
C345 C 0.73663 0.94129 0.76086 0.0
O346 O 0.70962 0.94113 0.77551 0.0
O347 O 0.72709 0.91698 0.74094 0.0
O348 O 0.65485 0.9025 0.8221 0.0
O349 O 0.64594 0.84782 0.80104 0.0
O350 O 0.14388 0.73934 0.71698 0.0
Cd351 Cd 0.16548 0.80023 0.72083 0.0
Cd352 Cd 0.16638 0.78074 0.77088 0.0
O353 O 0.17164 0.73314 0.7545 0.0
O354 O 0.19703 0.82783 0.68755 0.0
O355 O 0.2242 0.83516 0.72865 0.0
C356 C 0.22873 0.84265 0.70285 0.0
C357 C 0.19158 0.81881 0.81024 0.0
C358 C 0.15298 0.71819 0.73216 0.0
C359 C 0.09922 0.7925 0.75021 0.0
O360 O 0.11077 0.77342 0.76533 0.0
O361 O 0.12116 0.81359 0.73068 0.0
O362 O 0.16804 0.7804 0.81146 0.0
O363 O 0.20535 0.83485 0.78677 0.0
O364 O 0.307 0.4111 0.73166 0.0
Cd365 Cd 0.24807 0.37118 0.73992 0.0
Cd366 Cd 0.26614 0.4064 0.78807 0.0
O367 O 0.31572 0.45149 0.76651 0.0
O368 O 0.21013 0.36384 0.70879 0.0
O369 O 0.21888 0.40168 0.74471 0.0
C370 C 0.20288 0.38939 0.72097 0.0
C371 C 0.22378 0.39975 0.82306 0.0
C372 C 0.32844 0.44379 0.74454 0.0
C373 C 0.25695 0.32434 0.78405 0.0
O374 O 0.27114 0.35785 0.79585 0.0
O375 O 0.24006 0.31978 0.76089 0.0
O376 O 0.26216 0.41775 0.82711 0.0
O377 O 0.21088 0.39489 0.79825 0.0
O378 O 0.58661 0.96821 0.19365 0.0
Cd379 Cd 0.55946 1.0021 0.18316 0.0
Cd380 Cd 0.57267 0.98126 0.1358 0.0
O381 O 0.57253 0.93351 0.15537 0.0
O382 O 0.52545 1.00086 0.21452 0.0
O383 O 0.50008 0.96956 0.17542 0.0
C384 C 0.49428 0.97754 0.19996 0.0
C385 C 0.53999 0.98484 0.09653 0.0
C386 C 0.58478 0.93914 0.17996 0.0
C387 C 0.62272 0.06499 0.15012 0.0
O388 O 0.6238 0.03479 0.14092 0.0
O389 O 0.59444 0.05978 0.16595 0.0
O390 O 0.56928 0.9775 0.09522 0.0
O391 O 0.5263 0.98507 0.1204 0.0
O392 O 0.08134 0.63116 0.17618 0.0
Cd393 Cd 0.04668 0.56982 0.16875 0.0
Cd394 Cd 0.05373 0.59834 0.11827 0.0
O395 O 0.10308 0.64977 0.13406 0.0
O396 O 0.05372 0.53934 0.19962 0.0
O397 O 0.07996 0.54444 0.15913 0.0
C398 C 0.07622 0.53207 0.18399 0.0
C399 C 0.04143 0.56309 0.07758 0.0
C400 C 0.10442 0.65798 0.15936 0.0
C401 C 0.9747 0.56571 0.14496 0.0
O402 O 1.0003 0.59211 0.1293 0.0
O403 O 0.98513 0.54698 0.16147 0.0
O404 O 0.0466 0.599 0.07801 0.0
O405 O 0.04987 0.54996 0.09947 0.0
O406 O 0.41364 0.4688 0.17104 0.0
Cd407 Cd 0.47484 0.49104 0.16737 0.0
Cd408 Cd 0.45186 0.47983 0.11417 0.0
O409 O 0.39939 0.47653 0.12853 0.0
O410 O 0.49968 0.52103 0.20208 0.0
O411 O 0.51106 0.55076 0.1619 0.0
C412 C 0.51623 0.55374 0.18799 0.0
C413 C 0.48565 0.5034 0.07335 0.0
C414 C 0.38874 0.46716 0.15323 0.0
C415 C 0.47454 0.4231 0.14027 0.0
O416 O 0.45484 0.42994 0.12247 0.0
O417 O 0.49046 0.44696 0.16034 0.0
O418 O 0.44856 0.47526 0.07371 0.0
O419 O 0.50174 0.52223 0.09581 0.0
O420 O 0.08225 0.45594 0.68852 0.0
Cd421 Cd 0.04936 0.48399 0.68066 0.0
Cd422 Cd 0.06577 0.47439 0.63179 0.0
O423 O 0.11572 0.47494 0.65009 0.0
O424 O 0.05527 0.52227 0.71058 0.0
O425 O 0.08337 0.54209 0.6703 0.0
C426 C 0.07858 0.55147 0.69469 0.0
C427 C 0.05393 0.49955 0.59202 0.0
C428 C 0.11092 0.45939 0.67379 0.0
C429 C 0.98471 0.41741 0.65353 0.0
O430 O 0.01396 0.42255 0.63898 0.0
O431 O 0.98959 0.44381 0.67105 0.0
O432 O 0.06526 0.47305 0.59117 0.0
O433 O 0.05594 0.51661 0.61512 0.0
O434 O 0.56143 0.64076 0.67498 0.0
Cd435 Cd 0.5433 0.58091 0.67089 0.0
Cd436 Cd 0.52748 0.59558 0.61981 0.0
O437 O 0.53325 0.64817 0.63756 0.0
O438 O 0.51684 0.55216 0.70536 0.0
O439 O 0.48383 0.54469 0.66657 0.0
C440 C 0.48307 0.53718 0.69231 0.0
C441 C 0.49772 0.55729 0.58107 0.0
C442 C 0.55249 0.66212 0.65994 0.0
C443 C 0.59974 0.58476 0.63114 0.0
O444 O 0.58023 0.59722 0.61758 0.0
O445 O 0.58772 0.57072 0.65485 0.0
O446 O 0.51922 0.59594 0.57946 0.0
O447 O 0.48589 0.5417 0.60494 0.0
O448 O 0.41389 0.96257 0.67911 0.0
Cd449 Cd 0.47432 1.00378 0.67492 0.0
Cd450 Cd 0.45412 0.98698 0.62269 0.0
O451 O 0.40246 0.93741 0.63743 0.0
O452 O 0.50236 1.00109 0.70861 0.0
O453 O 0.5113 0.98219 0.6678 0.0
C454 C 0.51851 0.98538 0.69369 0.0
C455 C 0.48922 0.99272 0.58327 0.0
C456 C 0.39058 0.93707 0.66163 0.0
C457 C 0.47138 0.06732 0.64474 0.0
O458 O 0.45439 0.03953 0.62729 0.0
O459 O 0.48696 0.06187 0.66605 0.0
O460 O 0.45229 0.98414 0.58229 0.0
O461 O 0.50475 0.99284 0.60668 0.0
O462 O 0.1415 0.41052 0.20985 0.0
Cd463 Cd 0.16292 0.37107 0.21376 0.0
Cd464 Cd 0.16114 0.39043 0.26454 0.0
O465 O 0.16671 0.44353 0.24807 0.0
O466 O 0.19507 0.37619 0.18048 0.0
O467 O 0.22185 0.39522 0.2217 0.0
C468 C 0.22668 0.39317 0.19584 0.0
C469 C 0.17951 0.37487 0.30609 0.0
C470 C 0.14953 0.44035 0.22512 0.0
C471 C 0.09526 0.31179 0.24172 0.0
O472 O 0.1065 0.342 0.25709 0.0
O473 O 0.11769 0.31291 0.22244 0.0
O474 O 0.15551 0.38919 0.30494 0.0
O475 O 0.19854 0.37604 0.28418 0.0
O476 O 0.63199 0.73691 0.23236 0.0
Cd477 Cd 0.66444 0.79648 0.24639 0.0
Cd478 Cd 0.63931 0.75705 0.29143 0.0
O479 O 0.59414 0.71141 0.26877 0.0
O480 O 0.66908 0.83383 0.21605 0.0
O481 O 0.63155 0.82342 0.25251 0.0
C482 C 0.64395 0.84051 0.22913 0.0
C483 C 0.64089 0.79211 0.33068 0.0
C484 C 0.60223 0.70777 0.24421 0.0
C485 C 0.72348 0.79152 0.28218 0.0
O486 O 0.69272 0.75909 0.28921 0.0
O487 O 0.71961 0.8162 0.2669 0.0
O488 O 0.63058 0.7545 0.33149 0.0
O489 O 0.64517 0.80785 0.30679 0.0
O490 O 0.30566 0.90297 0.22447 0.0
Cd491 Cd 0.24381 0.87875 0.22857 0.0
Cd492 Cd 0.26887 0.89021 0.28211 0.0
O493 O 0.3225 0.8979 0.26692 0.0
O494 O 0.2178 0.84837 0.19418 0.0
O495 O 0.20946 0.8189 0.23426 0.0
C496 C 0.20234 0.81577 0.20837 0.0
C497 C 0.23655 0.86334 0.323 0.0
C498 C 0.33178 0.90635 0.24196 0.0
C499 C 0.23771 0.94188 0.25812 0.0
O500 O 0.25956 0.93689 0.27519 0.0
O501 O 0.22349 0.91885 0.23754 0.0
O502 O 0.27137 0.89539 0.32251 0.0
O503 O 0.22321 0.8428 0.30075 0.0
C504 C 0.31526 0.17295 0.20889 0.0
C505 C 0.32814 0.1725 0.18203 0.0
C506 C 0.39221 0.18224 0.2005 0.0
C507 C 0.37893 0.18262 0.22733 0.0
N508 N 0.33624 0.19856 0.25442 0.0
N509 N 0.3853 0.19153 0.15253 0.0
C510 C 0.34323 0.18458 0.23077 0.0
C511 C 0.36843 0.18119 0.17779 0.0
N512 N 0.276 0.16132 0.21373 0.0
N513 N 0.42822 0.18404 0.19667 0.0
H514 H 0.37048 0.19374 0.13542 0.0
H515 H 0.41566 0.2023 0.14896 0.0
H516 H 0.44912 0.19121 0.21236 0.0
H517 H 0.43687 0.17774 0.17812 0.0
H518 H 0.26432 0.15743 0.2333 0.0
H519 H 0.25435 0.15139 0.19833 0.0
H520 H 0.31147 0.20237 0.25708 0.0
H521 H 0.35801 0.21252 0.26948 0.0
C522 C 0.77816 0.11775 0.20119 0.0
C523 C 0.81171 0.12395 0.18511 0.0
C524 C 0.85582 0.18335 0.21261 0.0
C525 C 0.82284 0.17629 0.22939 0.0
N526 N 0.7547 0.13197 0.24333 0.0
N527 N 0.88353 0.15449 0.18182 0.0
C528 C 0.78478 0.14161 0.22503 0.0
C529 C 0.85083 0.15444 0.19265 0.0
N530 N 0.73976 0.09135 0.1929 0.0
N531 N 0.89223 0.21757 0.21567 0.0
H532 H 0.88105 0.13223 0.16848 0.0
H533 H 0.91283 0.17346 0.18853 0.0
H534 H 0.89845 0.23889 0.23073 0.0
H535 H 0.9156 0.2264 0.20186 0.0
H536 H 0.71432 0.08693 0.20319 0.0
H537 H 0.73237 0.07664 0.17425 0.0
H538 H 0.72795 0.10454 0.24331 0.0
H539 H 0.75759 0.15025 0.25985 0.0
C540 C 0.79766 0.64581 0.20515 0.0
C541 C 0.81228 0.66419 0.23089 0.0
C542 C 0.8685 0.72191 0.20823 0.0
C543 C 0.85723 0.70124 0.18302 0.0
N544 N 0.8131 0.6395 0.15849 0.0
N545 N 0.86535 0.71801 0.2572 0.0
C546 C 0.82206 0.66229 0.18159 0.0
C547 C 0.84892 0.70155 0.23251 0.0
N548 N 0.76059 0.61216 0.20317 0.0
N549 N 0.89666 0.76191 0.20883 0.0
H550 H 0.85136 0.70628 0.27569 0.0
H551 H 0.89446 0.74216 0.2594 0.0
H552 H 0.91003 0.77838 0.19126 0.0
H553 H 0.90321 0.77975 0.22616 0.0
H554 H 0.7459 0.60065 0.18469 0.0
H555 H 0.74335 0.59704 0.22007 0.0
H556 H 0.79094 0.6093 0.15762 0.0
H557 H 0.82992 0.64883 0.14079 0.0
C558 C 0.17456 0.29171 0.35231 0.0
C559 C 0.17424 0.30721 0.37848 0.0
C560 C 0.18164 0.36846 0.35702 0.0
C561 C 0.18001 0.35233 0.33084 0.0
N562 N 0.16148 0.29248 0.30416 0.0
N563 N 0.16224 0.35425 0.40404 0.0
C564 C 0.17283 0.31224 0.32856 0.0
C565 C 0.17277 0.3435 0.38036 0.0
N566 N 0.17566 0.25682 0.35005 0.0
N567 N 0.19335 0.40823 0.35987 0.0
H568 H 0.15444 0.33716 0.42168 0.0
H569 H 0.15711 0.37841 0.4053 0.0
H570 H 0.20182 0.42797 0.34344 0.0
H571 H 0.19899 0.42247 0.37874 0.0
H572 H 0.18144 0.24696 0.33179 0.0
H573 H 0.17223 0.2385 0.36669 0.0
H574 H 0.15191 0.26201 0.30202 0.0
H575 H 0.15708 0.30495 0.28657 0.0
C576 C 0.65927 0.80062 0.38075 0.0
C577 C 0.65721 0.81815 0.35577 0.0
C578 C 0.71168 0.88351 0.37183 0.0
C579 C 0.71353 0.8661 0.3969 0.0
N580 N 0.70082 0.80497 0.41917 0.0
N581 N 0.66978 0.87958 0.33384 0.0
C582 C 0.6906 0.82368 0.39971 0.0
C583 C 0.68013 0.86061 0.35303 0.0
N584 N 0.62953 0.76285 0.38736 0.0
N585 N 0.74175 0.92101 0.365 0.0
H586 H 0.64339 0.86441 0.32242 0.0
H587 H 0.68362 0.91078 0.33239 0.0
H588 H 0.76789 0.93638 0.37665 0.0
H589 H 0.74349 0.9339 0.34602 0.0
H590 H 0.62779 0.74977 0.40625 0.0
H591 H 0.60358 0.74725 0.37554 0.0
H592 H 0.68716 0.7738 0.42077 0.0
H593 H 0.72691 0.82045 0.43085 0.0
C594 C 0.15431 0.85676 0.36933 0.0
C595 C 0.16469 0.84672 0.39466 0.0
C596 C 0.2243 0.85005 0.37331 0.0
C597 C 0.21058 0.85457 0.3474 0.0
N598 N 0.15933 0.85795 0.32044 0.0
N599 N 0.20827 0.82936 0.42017 0.0
C600 C 0.17453 0.85638 0.34531 0.0
C601 C 0.19967 0.84272 0.39666 0.0
N602 N 0.12641 0.86893 0.36846 0.0
N603 N 0.26079 0.85221 0.37566 0.0
H604 H 0.19159 0.82288 0.43788 0.0
H605 H 0.23004 0.82087 0.42155 0.0
H606 H 0.27782 0.85325 0.35893 0.0
H607 H 0.27523 0.85518 0.39421 0.0
H608 H 0.12055 0.88086 0.35114 0.0
H609 H 0.11251 0.87158 0.38586 0.0
H610 H 0.13048 0.8535 0.31778 0.0
H611 H 0.17414 0.86136 0.30215 0.0
C612 C 0.65166 0.8583 0.87399 0.0
C613 C 0.66838 0.85763 0.84845 0.0
C614 C 0.723 0.85415 0.87223 0.0
C615 C 0.70347 0.84891 0.89748 0.0
N616 N 0.64522 0.84189 0.92179 0.0
N617 N 0.71715 0.84778 0.82351 0.0
C618 C 0.66702 0.85047 0.89836 0.0
C619 C 0.70292 0.85306 0.84763 0.0
N620 N 0.62039 0.86569 0.87504 0.0
N621 N 0.76199 0.86252 0.87179 0.0
H622 H 0.70626 0.84963 0.80451 0.0
H623 H 0.7387 0.83891 0.82247 0.0
H624 H 0.77866 0.86645 0.8895 0.0
H625 H 0.77922 0.87055 0.85417 0.0
H626 H 0.61111 0.87306 0.89291 0.0
H627 H 0.60476 0.86632 0.85782 0.0
H628 H 0.61614 0.83724 0.92245 0.0
H629 H 0.65365 0.83539 0.94033 0.0
C630 C 0.16842 0.87335 0.86597 0.0
C631 C 0.20344 0.88826 0.88232 0.0
C632 C 0.23333 0.86305 0.84898 0.0
C633 C 0.19662 0.84422 0.83439 0.0
N634 N 0.12777 0.82883 0.82959 0.0
N635 N 0.26676 0.89118 0.89185 0.0
C636 C 0.16372 0.8486 0.84309 0.0
C637 C 0.23547 0.88185 0.87438 0.0
N638 N 0.14038 0.88422 0.8717 0.0
N639 N 0.26613 0.86282 0.83865 0.0
H640 H 0.26908 0.90336 0.91112 0.0
H641 H 0.28864 0.88331 0.8884 0.0
H642 H 0.26514 0.84799 0.82065 0.0
H643 H 0.29496 0.87995 0.84669 0.0
H644 H 0.11621 0.87802 0.85899 0.0
H645 H 0.1432 0.90274 0.88807 0.0
H646 H 0.10132 0.82648 0.83689 0.0
H647 H 0.12365 0.81266 0.81172 0.0
C648 C 0.18177 0.37415 0.89488 0.0
C649 C 0.15048 0.33348 0.89196 0.0
C650 C 0.16777 0.33564 0.8438 0.0
C651 C 0.19587 0.37776 0.84598 0.0
N652 N 0.22345 0.43828 0.87279 0.0
N653 N 0.10946 0.27743 0.86255 0.0
C654 C 0.20117 0.39728 0.87134 0.0
C655 C 0.14192 0.31501 0.86601 0.0
N656 N 0.19341 0.39089 0.92013 0.0
N657 N 0.16767 0.31431 0.82152 0.0
H658 H 0.09143 0.26024 0.87862 0.0
H659 H 0.09894 0.26453 0.84346 0.0
H660 H 0.18727 0.32679 0.80528 0.0
H661 H 0.15102 0.28304 0.82043 0.0
H662 H 0.21951 0.4183 0.92353 0.0
H663 H 0.17893 0.37632 0.93795 0.0
H664 H 0.22502 0.4546 0.89011 0.0
H665 H 0.23694 0.45624 0.85579 0.0
C666 C 0.8492 0.69925 0.70082 0.0
C667 C 0.83422 0.6787 0.67583 0.0
C668 C 0.81618 0.61447 0.69848 0.0
C669 C 0.83461 0.63551 0.72278 0.0
N670 N 0.8758 0.6995 0.74548 0.0
N671 N 0.80646 0.61686 0.64996 0.0
C672 C 0.85276 0.67831 0.72364 0.0
C673 C 0.81879 0.63637 0.67438 0.0
N674 N 0.8602 0.73897 0.70282 0.0
N675 N 0.79458 0.57337 0.69877 0.0
H676 H 0.80464 0.63056 0.63214 0.0
H677 H 0.80034 0.5875 0.64692 0.0
H678 H 0.79157 0.55656 0.71619 0.0
H679 H 0.7766 0.55603 0.68266 0.0
H680 H 0.86621 0.75423 0.72129 0.0
H681 H 0.86085 0.75615 0.68617 0.0
H682 H 0.89395 0.73068 0.74563 0.0
H683 H 0.87988 0.68624 0.76272 0.0
C684 C 0.34998 0.21975 0.6853 0.0
C685 C 0.33814 0.20323 0.71169 0.0
C686 C 0.27624 0.14698 0.69239 0.0
C687 C 0.28952 0.16236 0.66584 0.0
N688 N 0.3279 0.22307 0.63969 0.0
N689 N 0.28418 0.15817 0.74119 0.0
C690 C 0.32296 0.20181 0.66302 0.0
C691 C 0.29949 0.16882 0.71552 0.0
N692 N 0.38749 0.2519 0.68129 0.0
N693 N 0.2411 0.11149 0.69536 0.0
H694 H 0.29968 0.17381 0.75859 0.0
H695 H 0.25479 0.13599 0.74524 0.0
H696 H 0.22092 0.09804 0.67924 0.0
H697 H 0.23221 0.0953 0.71344 0.0
H698 H 0.39922 0.26247 0.66204 0.0
H699 H 0.4082 0.26565 0.69707 0.0
H700 H 0.35044 0.25289 0.63729 0.0
H701 H 0.30588 0.21334 0.6246 0.0
C702 C 0.85314 0.17509 0.69263 0.0
C703 C 0.84731 0.14248 0.6757 0.0
C704 C 0.78728 0.09692 0.70202 0.0
C705 C 0.79257 0.13003 0.71847 0.0
N706 N 0.82225 0.20181 0.72249 0.0
N707 N 0.80383 0.07466 0.66022 0.0
C708 C 0.82313 0.16945 0.71173 0.0
C709 C 0.81243 0.10427 0.67889 0.0
N710 N 0.8872 0.21179 0.69052 0.0
N711 N 0.76068 0.05819 0.7094 0.0
H712 H 0.82308 0.07791 0.64434 0.0
H713 H 0.77637 0.04799 0.65925 0.0
H714 H 0.74497 0.05009 0.72756 0.0
H715 H 0.75701 0.03307 0.69887 0.0
H716 H 0.89512 0.23486 0.70461 0.0
H717 H 0.90917 0.21862 0.67598 0.0
H718 H 0.84134 0.23133 0.71632 0.0
H719 H 0.79917 0.19884 0.73508 0.0
C720 C 0.97397 0.50317 0.54694 0.0
C721 C 0.99175 0.50906 0.52089 0.0
C722 C 0.05239 0.51414 0.5422 0.0
C723 C 0.0335 0.50533 0.5679 0.0
N724 N 0.97229 0.48198 0.59355 0.0
N725 N 0.04545 0.51253 0.49329 0.0
C726 C 0.99324 0.49748 0.57003 0.0
C727 C 0.03005 0.51193 0.51837 0.0
N728 N 0.93829 0.50252 0.54969 0.0
N729 N 0.09245 0.52672 0.54065 0.0
H730 H 0.03219 0.51371 0.47509 0.0
H731 H 0.07038 0.50908 0.49042 0.0
H732 H 0.10998 0.52967 0.55771 0.0
H733 H 0.10918 0.53814 0.52297 0.0
H734 H 0.92661 0.50396 0.56844 0.0
H735 H 0.92124 0.50256 0.53312 0.0
H736 H 0.94167 0.47154 0.59528 0.0
H737 H 0.98426 0.47571 0.61067 0.0
C738 C 0.45173 0.47013 0.52993 0.0
C739 C 0.48566 0.47863 0.51347 0.0
C740 C 0.52794 0.53688 0.54278 0.0
C741 C 0.49321 0.53122 0.55705 0.0
N742 N 0.42145 0.49545 0.56173 0.0
N743 N 0.5562 0.52081 0.50413 0.0
C744 C 0.45506 0.49836 0.55015 0.0
C745 C 0.52366 0.51236 0.51983 0.0
N746 N 0.41591 0.43542 0.5263 0.0
N747 N 0.5655 0.56385 0.55216 0.0
H748 H 0.55626 0.5008 0.48985 0.0
H749 H 0.58288 0.54833 0.50463 0.0
H750 H 0.57089 0.58273 0.56863 0.0
H751 H 0.59169 0.56532 0.54512 0.0
H752 H 0.393 0.42464 0.54064 0.0
H753 H 0.40896 0.41626 0.50976 0.0
H754 H 0.39233 0.47492 0.55549 0.0
H755 H 0.42253 0.51614 0.57592 0.0
C756 C 0.52081 0.99818 0.50968 0.0
C757 C 0.55608 0.03678 0.50891 0.0
C758 C 0.54663 0.04711 0.55693 0.0
C759 C 0.51402 1.00691 0.55835 0.0
N760 N 0.47411 0.94205 0.53742 0.0
N761 N 0.60524 0.09645 0.53238 0.0
C762 C 0.5021 0.98193 0.53504 0.0
C763 C 0.56991 0.06068 0.53278 0.0
N764 N 0.50495 0.97684 0.48623 0.0
N765 N 0.55393 0.07316 0.57801 0.0
H766 H 0.62156 0.10882 0.51463 0.0
H767 H 0.61948 0.11275 0.54987 0.0
H768 H 0.53722 0.065 0.59586 0.0
H769 H 0.57422 0.1039 0.57688 0.0
H770 H 0.47661 0.95125 0.48517 0.0
H771 H 0.51852 0.9859 0.46731 0.0
H772 H 0.46739 0.92112 0.52192 0.0
H773 H 0.46032 0.92898 0.5558 0.0
C774 C 0.52307 0.99815 1.02137 0.0
C775 C 0.5288 0.03785 1.02216 0.0
C776 C 0.52265 0.03242 0.07182 0.0
C777 C 0.52679 0.99757 0.0714 0.0
N778 N 0.5281 0.94537 0.04496 0.0
N779 N 0.53974 0.09487 0.04911 0.0
C780 C 0.5265 0.9801 0.04587 0.0
C781 C 0.53019 0.05553 0.0477 0.0
N782 N 0.51106 0.97615 0.99784 0.0
N783 N 0.51022 0.04313 0.09467 0.0
H784 H 0.54702 0.11325 1.03199 0.0
H785 H 0.54486 0.11027 0.06748 0.0
H786 H 0.50029 0.0255 0.11205 0.0
H787 H 0.50421 0.06676 0.09497 0.0
H788 H 0.50248 0.9458 0.99692 0.0
H789 H 0.50503 0.98636 0.97979 0.0
H790 H 0.53402 0.93451 1.02721 0.0
H791 H 0.52434 0.92792 0.06216 0.0
C792 C 0.01745 0.52137 1.00474 0.0
C793 C 0.97785 0.48756 1.00796 0.0
C794 C 0.98277 0.50087 0.05714 0.0
C795 C 0.02096 0.53612 0.05375 0.0
N796 N 0.07157 0.58352 1.02341 0.0
N797 N 0.91936 0.45342 0.03613 0.0
C798 C 0.037 0.54769 1.02722 0.0
C799 C 0.95962 0.47981 1.03388 0.0
N800 N 0.0382 0.52695 0.98112 0.0
N801 N 0.96819 0.48704 0.08254 0.0
H802 H 0.90108 0.43907 1.01931 0.0
H803 H 0.90337 0.44948 0.05399 0.0
H804 H 0.98177 0.50241 0.10041 0.0
H805 H 0.94345 0.45865 0.08594 0.0
H806 H 0.0687 0.5476 0.97922 0.0
H807 H 0.02686 0.50881 0.96404 0.0
H808 H 0.08153 0.59631 1.0043 0.0
H809 H 0.0892 0.60169 0.0394 0.0
C810 C 0.55845 0.55449 1.01455 0.0
C811 C 0.55599 0.52042 1.00097 0.0
C812 C 0.51189 0.47658 0.03705 0.0
C813 C 0.51041 0.50978 0.04866 0.0
N814 N 0.52911 0.57958 0.04732 0.0
N815 N 0.52833 0.44863 0.99832 0.0
C816 C 0.53326 0.54864 0.03731 0.0
C817 C 0.53189 0.48134 1.01187 0.0
N818 N 0.58429 0.59254 1.00554 0.0
N819 N 0.49646 0.44108 0.05098 0.0
H820 H 0.54539 0.45089 0.98131 0.0
H821 H 0.50695 0.41914 1.00312 0.0
H822 H 0.48335 0.4367 0.07009 0.0
H823 H 0.50028 0.4172 0.04503 0.0
H824 H 0.59212 0.61827 1.01696 0.0
H825 H 0.59945 0.59893 0.98714 0.0
H826 H 0.54204 0.60798 0.03859 0.0
H827 H 0.51005 0.57621 0.06334 0.0
C828 C 0.29329 0.06194 1.0029 0.0
C829 C 0.25162 0.03419 1.0063 0.0
C830 C 0.24467 0.08471 1.0327 0.0
C831 C 0.28694 0.11096 1.03163 0.0
N832 N 0.35228 0.12351 1.01815 0.0
N833 N 0.18815 0.01726 1.02647 0.0
C834 C 0.31145 0.09944 1.01715 0.0
C835 C 0.2275 0.04506 1.02183 0.0
N836 N 0.31557 0.0523 0.98621 0.0
N837 N 0.22063 0.09836 0.04292 0.0
H838 H 0.17379 0.98885 1.01744 0.0
H839 H 0.17032 0.02142 0.04046 0.0
H840 H 0.23177 0.12733 0.05062 0.0
H841 H 0.18943 0.08239 0.04157 0.0
H842 H 0.34487 0.07262 0.98044 0.0
H843 H 0.30399 0.02451 0.97654 0.0
H844 H 0.37231 0.11518 1.0106 0.0
H845 H 0.36651 0.15091 1.02849 0.0
C846 C 0.97596 0.18109 1.01778 0.0
C847 C 0.98535 0.21699 1.00369 0.0
C848 C 0.92012 0.20908 1.01662 0.0
C849 C 0.90991 0.17217 1.02976 0.0
N850 N 0.92422 0.11838 0.03705 0.0
N851 N 0.96372 0.26114 0.98498 0.0
C852 C 0.93676 0.15684 1.02871 0.0
C853 C 0.95639 0.22948 1.00144 0.0
N854 N 1.00478 0.17049 1.02109 0.0
N855 N 0.89651 0.22605 1.02007 0.0
H856 H 0.99035 0.27746 0.97417 0.0
H857 H 0.94214 0.26901 0.98013 0.0
H858 H 0.87052 0.21295 1.03177 0.0
H859 H 0.90456 0.2549 1.01352 0.0
H860 H 1.00159 0.1476 1.03404 0.0
H861 H 0.03294 0.18617 1.01199 0.0
H862 H 0.94089 0.10408 1.03426 0.0
H863 H 0.89541 0.0992 0.04436 0.0
C864 C 0.79056 0.7079 1.03287 0.0
C865 C 0.83048 0.73476 0.04156 0.0
C866 C 0.82475 0.79202 1.02438 0.0
C867 C 0.78574 0.76495 1.01426 0.0
N868 N 0.73436 0.69684 1.00415 0.0
N869 N 0.88845 0.80144 0.04096 0.0
C870 C 0.76946 0.72277 1.01717 0.0
C871 C 0.84838 0.7766 0.03605 0.0
N872 N 0.77221 0.66843 0.04053 0.0
N873 N 0.83874 0.83248 1.02371 0.0
H874 H 0.90684 0.79128 0.04917 0.0
H875 H 0.90427 0.83131 1.03471 0.0
H876 H 0.82269 0.84489 1.01486 0.0
H877 H 0.86482 0.85356 1.03365 0.0
H878 H 0.74177 0.64828 0.03748 0.0
H879 H 0.78662 0.6565 0.05206 0.0
H880 H 0.72307 0.66595 1.00302 0.0
H881 H 0.71825 0.70654 0.99228 0.0
C882 C 0.0539 0.2611 0.56843 0.0
C883 C 0.02384 0.22037 0.56435 0.0
C884 C 0.06961 0.21124 0.53433 0.0
C885 C 0.09737 0.25335 0.53543 0.0
N886 N 0.11301 0.31938 0.55071 0.0
N887 N 1.00125 0.15707 0.54175 0.0
C888 C 0.08892 0.27853 0.55195 0.0
C889 C 0.03126 0.19545 0.54693 0.0
N890 N 0.04897 0.28311 0.5883 0.0
N891 N 0.08045 0.1861 0.52221 0.0
H892 H 0.97348 0.14424 0.55143 0.0
H893 H 1.00299 0.13892 0.52673 0.0
H894 H 0.10847 0.19627 0.51337 0.0
H895 H 0.0632 0.15487 0.52313 0.0
H896 H 0.07144 0.31166 0.59424 0.0
H897 H 0.0237 0.27117 0.60073 0.0
H898 H 0.10601 0.33943 0.56003 0.0
H899 H 0.13809 0.33356 0.5382 0.0
C900 C 0.76155 0.80385 0.57656 0.0
C901 C 0.78151 0.78905 0.55989 0.0
C902 C 0.76207 0.81377 0.51976 0.0
C903 C 0.74708 0.83339 0.53655 0.0
N904 N 0.74572 0.85688 0.58209 0.0
N905 N 0.81177 0.7932 0.51611 0.0
C906 C 0.75071 0.83142 0.56533 0.0
C907 C 0.7853 0.79826 0.53165 0.0
N908 N 0.7508 0.79039 0.60257 0.0
N909 N 0.75244 0.80756 0.49275 0.0
H910 H 0.83155 0.78478 0.52431 0.0
H911 H 0.81749 0.80239 0.49586 0.0
H912 H 0.73204 0.8143 0.48355 0.0
H913 H 0.76049 0.79068 0.48041 0.0
H914 H 0.73299 0.7979 0.61431 0.0
H915 H 0.75542 0.76835 0.61134 0.0
H916 H 0.75117 0.8583 0.60298 0.0
H917 H 0.74151 0.88006 0.57492 0.0
C918 C 0.18143 0.96875 0.54759 0.0
C919 C 0.21911 0.98239 0.56049 0.0
C920 C 0.21724 0.91937 0.5482 0.0
C921 C 0.17899 0.90516 0.53586 0.0
N922 N 0.1204 0.91209 0.52981 0.0
N923 N 0.26853 0.96761 0.57876 0.0
C924 C 0.15982 0.92865 0.53731 0.0
C925 C 0.23555 0.95659 0.56262 0.0
N926 N 0.16696 0.99455 0.54428 0.0
N927 N 0.23712 0.89847 0.54489 0.0
H928 H 0.28247 0.99457 0.58966 0.0
H929 H 0.2797 0.94856 0.58342 0.0
H930 H 0.2251 0.87151 0.53411 0.0
H931 H 0.26686 0.90948 0.5508 0.0
H932 H 0.14221 0.98817 0.5321 0.0
H933 H 0.18125 0.02352 0.55245 0.0
H934 H 0.10357 0.92616 0.5329 0.0
H935 H 0.10328 0.88256 0.5229 0.0
C936 C 0.70383 0.91616 0.04465 0.0
C937 C 0.72997 0.90208 0.0364 0.0
C938 C 0.78834 0.96629 0.05063 0.0
C939 C 0.76209 0.9792 0.06049 0.0
N940 N 0.69496 0.9645 0.0711 0.0
N941 N 0.79647 0.91035 0.03638 0.0
C942 C 0.71982 0.9535 0.05877 0.0
C943 C 0.77211 0.92627 0.04066 0.0
N944 N 0.66398 0.89478 0.03789 0.0
N945 N 0.82879 0.99259 0.05024 0.0
H946 H 0.7857 0.8809 1.02975 0.0
H947 H 0.82674 0.9249 0.04177 0.0
H948 H 0.84174 0.02172 0.05805 0.0
H949 H 0.84919 0.98664 0.04043 0.0
H950 H 0.64418 0.90552 0.04064 0.0
H951 H 0.65123 0.86757 1.02733 0.0
H952 H 0.66419 0.94528 0.07325 0.0
H953 H 0.70551 0.99188 0.08119 0.0
C954 C 0.07239 0.85475 0.0433 0.0
C955 C 0.09864 0.83877 0.04154 0.0
C956 C 0.05173 0.78051 0.06887 0.0
C957 C 0.02389 0.79461 0.06845 0.0
N958 N 1.00558 0.84302 0.05347 0.0
N959 N 0.1115 0.78429 0.04958 0.0
C960 C 0.03369 0.83124 0.05523 0.0
C961 C 0.08789 0.80112 0.05362 0.0
N962 N 0.08511 0.89306 1.03454 0.0
N963 N 0.04398 0.74789 0.08446 0.0
H964 H 0.13808 0.79839 0.03848 0.0
H965 H 0.10327 0.75503 0.05522 0.0
H966 H 0.01783 0.73204 0.09584 0.0
H967 H 0.06474 0.73851 0.088 0.0
H968 H 0.06938 0.9082 0.03791 0.0
H969 H 0.11308 0.91111 1.02566 0.0
H970 H 1.00876 0.86667 0.04134 0.0
H971 H 0.97775 0.8275 0.063 0.0
C972 C 0.16182 0.22417 0.0454 0.0
C973 C 0.17617 0.26626 0.04687 0.0
C974 C 0.23483 0.27599 0.07334 0.0
C975 C 0.22083 0.23409 0.07152 0.0
N976 N 0.16899 0.16726 0.0599 0.0
N977 N 0.22264 0.33146 0.06559 0.0
C978 C 0.18354 0.20783 0.05884 0.0
C979 C 0.21143 0.29187 0.06204 0.0
N980 N 0.12752 0.19995 1.03097 0.0
N981 N 0.2715 0.30084 0.08496 0.0
H982 H 0.20826 0.34506 0.05598 0.0
H983 H 0.24487 0.35057 0.07917 0.0
H984 H 0.28825 0.29012 0.09498 0.0
H985 H 0.28637 0.33205 0.08367 0.0
H986 H 0.11736 0.16991 1.0265 0.0
H987 H 0.10941 0.21025 1.02248 0.0
H988 H 0.1407 0.14568 0.053 0.0
H989 H 0.18447 0.15478 0.06953 0.0
C990 C 0.92957 0.70744 0.51973 0.0
C991 C 0.91594 0.73316 0.52966 0.0
C992 C 0.97915 0.79242 0.51548 0.0
C993 C 0.99198 0.76661 0.50448 0.0
N994 N 0.97719 0.69999 0.49164 0.0
N995 N 0.92431 0.79957 0.53339 0.0
C996 C 0.96649 0.72419 0.50532 0.0
C997 C 0.93981 0.77555 0.52657 0.0
N998 N 0.90786 0.66709 0.52494 0.0
N999 N 1.00507 0.83298 0.51614 0.0
H1000 H 0.89595 0.78846 0.54193 0.0
H1001 H 0.93818 0.83007 0.52882 0.0
H1002 H 0.03339 0.84641 0.50724 0.0
H1003 H 0.99962 0.85314 0.52683 0.0
H1004 H 0.91813 0.64717 0.52095 0.0
H1005 H 0.88063 0.6538 0.53531 0.0
H1006 H 0.9584 0.66915 0.4892 0.0
H1007 H 1.00374 0.71122 0.48061 0.0
C1008 C 0.28658 0.22655 0.49134 0.0
C1009 C 0.24501 0.21287 0.49459 0.0
C1010 C 0.23747 0.15511 0.52092 0.0
C1011 C 0.27982 0.17146 0.52062 0.0
N1012 N 0.34543 0.22484 0.50779 0.0
N1013 N 0.18124 0.16636 0.51443 0.0
C1014 C 0.3046 0.20756 0.50617 0.0
C1015 C 0.22057 0.17776 0.50994 0.0
N1016 N 0.30883 0.25782 0.47411 0.0
N1017 N 0.21315 0.11703 0.53051 0.0
H1018 H 0.16724 0.18089 0.50553 0.0
H1019 H 0.16319 0.14414 0.52826 0.0
H1020 H 0.2241 0.09885 0.53788 0.0
H1021 H 0.18199 0.10185 0.52869 0.0
H1022 H 0.33818 0.26666 0.46859 0.0
H1023 H 0.29688 0.27307 0.46356 0.0
H1024 H 0.36535 0.25324 0.50018 0.0
H1025 H 0.35966 0.21216 0.51873 0.0
C1026 C 0.80526 0.05844 0.50092 0.0
C1027 C 0.78756 0.02371 0.5178 0.0
C1028 C 0.807 0.06823 0.5576 0.0
C1029 C 0.83111 0.10227 0.54107 0.0
N1030 N 0.86078 0.12603 0.49659 0.0
N1031 N 0.78114 0.99702 0.56332 0.0
C1032 C 0.83241 0.09647 0.51257 0.0
C1033 C 0.7911 0.02896 0.5465 0.0
N1034 N 0.79508 0.0559 0.47403 0.0
N1035 N 0.79787 0.0731 0.5836 0.0
H1036 H 0.7724 0.96824 0.55617 0.0
H1037 H 0.78643 1.00032 0.58424 0.0
H1038 H 0.80595 0.10121 0.59177 0.0
H1039 H 0.7779 0.04905 0.59563 0.0
H1040 H 0.80501 0.08124 0.46173 0.0
H1041 H 0.77289 0.02955 0.46493 0.0
H1042 H 0.86446 0.12133 0.47618 0.0
H1043 H 0.88373 0.15318 0.50419 0.0
C1044 C 0.92248 0.3884 0.38663 0.0
C1045 C 0.92562 0.42212 0.37244 0.0
C1046 C 0.89934 0.38009 0.33126 0.0
C1047 C 0.89312 0.34572 0.34621 0.0
N1048 N 0.88552 0.31604 0.39072 0.0
N1049 N 0.90282 0.44466 0.33376 0.0
C1050 C 0.90028 0.34955 0.37476 0.0
C1051 C 0.9097 0.41638 0.3455 0.0
N1052 N 0.94265 0.39323 0.41056 0.0
N1053 N 0.89766 0.37934 0.30351 0.0
H1054 H 0.9068 0.47008 0.34412 0.0
H1055 H 0.88825 0.44016 0.31505 0.0
H1056 H 0.89163 0.35426 0.29193 0.0
H1057 H 0.90615 0.40511 0.29192 0.0
H1058 H 0.94373 0.36958 0.42021 0.0
H1059 H 0.96229 0.42121 0.41901 0.0
H1060 H 0.88729 0.31748 0.41189 0.0
H1061 H 0.86736 0.2871 0.38301 0.0
C1062 C 0.60085 0.50501 0.37004 0.0
C1063 C 0.57375 0.5201 0.36992 0.0
C1064 C 0.62302 0.57938 0.34426 0.0
C1065 C 0.65161 0.56645 0.3472 0.0
N1066 N 0.66949 0.51909 0.36527 0.0
N1067 N 0.56109 0.57439 0.36025 0.0
C1068 C 0.64102 0.52991 0.36085 0.0
C1069 C 0.58525 0.5579 0.3577 0.0
N1070 N 0.58764 0.46609 0.37758 0.0
N1071 N 0.63199 0.61231 0.32866 0.0
H1072 H 0.53378 0.56018 0.3705 0.0
H1073 H 0.56961 0.60365 0.35443 0.0
H1074 H 0.65977 0.6297 0.31938 0.0
H1075 H 0.61094 0.6206 0.32314 0.0
H1076 H 0.60462 0.45201 0.37536 0.0
H1077 H 0.55822 0.44641 0.3836 0.0
H1078 H 0.66512 0.49555 0.378 0.0
H1079 H 0.69853 0.53528 0.35754 0.0
C1080 C 0.52817 0.11606 0.36864 0.0
C1081 C 0.51528 0.07447 0.3656 0.0
C1082 C 0.45752 0.06555 0.3383 0.0
C1083 C 0.46863 0.10625 0.34328 0.0
N1084 N 0.51087 0.16884 0.36643 0.0
N1085 N 0.46367 1.00811 0.35191 0.0
C1086 C 0.50282 0.13105 0.35951 0.0
C1087 C 0.47889 0.04881 0.35153 0.0
N1088 N 0.56558 0.14172 0.37889 0.0
N1089 N 0.42678 0.04296 0.32061 0.0
H1090 H 0.47778 0.99458 0.362 0.0
H1091 H 0.43526 0.98748 0.34453 0.0
H1092 H 0.40955 0.05364 0.3112 0.0
H1093 H 0.42029 0.01473 0.31364 0.0
H1094 H 0.57839 0.17286 0.3789 0.0
H1095 H 0.5855 0.13229 0.38517 0.0
H1096 H 0.53261 0.18677 0.3807 0.0
H1097 H 0.49369 0.18117 0.35941 0.0
C1098 C 0.71156 0.57961 0.85101 0.0
C1099 C 0.70442 0.57853 0.87943 0.0
C1100 C 0.77626 0.604 0.88735 0.0
C1101 C 0.78416 0.61166 0.85904 0.0
N1102 N 0.75803 0.61721 0.81529 0.0
N1103 N 0.73428 0.60265 0.92402 0.0
C1104 C 0.75144 0.60261 0.84122 0.0
C1105 C 0.73796 0.59451 0.89751 0.0
N1106 N 0.68083 0.55752 0.83326 0.0
N1107 N 0.80398 0.60344 0.90456 0.0
H1108 H 0.70803 0.59994 0.93201 0.0
H1109 H 0.75898 0.61719 0.93706 0.0
H1110 H 0.83088 0.60606 0.89802 0.0
H1111 H 0.79768 0.59488 0.92489 0.0
H1112 H 0.68559 0.55542 0.81261 0.0
H1113 H 0.65173 0.53729 0.83959 0.0
H1114 H 0.73477 0.61345 0.80239 0.0
H1115 H 0.78655 0.6375 0.80805 0.0
C1116 C 0.40402 0.14442 0.89779 0.0
C1117 C 0.42789 0.17466 0.8786 0.0
C1118 C 0.48539 0.16517 0.88931 0.0
C1119 C 0.46023 0.1322 0.90615 0.0
N1120 N 0.39588 0.08928 0.92654 0.0
N1121 N 0.49154 0.21543 0.85648 0.0
C1122 C 0.41977 0.12192 0.91074 0.0
C1123 C 0.46876 0.18559 0.87455 0.0
N1124 N 0.36613 0.137 0.90348 0.0
N1125 N 0.5253 0.17704 0.88782 0.0
H1126 H 0.48145 0.23299 0.84686 0.0
H1127 H 0.52005 0.22231 0.85021 0.0
H1128 H 0.53796 0.16264 0.89863 0.0
H1129 H 0.54654 0.2025 0.87761 0.0
H1130 H 0.34893 0.1191 0.91953 0.0
H1131 H 0.35225 0.15039 0.89298 0.0
H1132 H 0.3649 0.07651 0.92801 0.0
H1133 H 0.40694 0.07356 0.9375 0.0
C1134 C 0.84779 0.29813 0.88622 0.0
C1135 C 0.88519 0.30931 0.89888 0.0
C1136 C 0.88127 0.24698 0.88229 0.0
C1137 C 0.84272 0.23455 0.87095 0.0
N1138 N 0.78597 0.24492 0.86654 0.0
N1139 N 0.93371 0.29103 0.91382 0.0
C1140 C 0.82507 0.25925 0.87409 0.0
C1141 C 0.90075 0.28267 0.89835 0.0
N1142 N 0.83453 0.32515 0.88502 0.0
N1143 N 0.9002 0.22573 0.87663 0.0
H1144 H 0.94857 0.3167 0.92596 0.0
H1145 H 0.94401 0.27083 0.9167 0.0
H1146 H 0.88741 0.2 0.86447 0.0
H1147 H 0.92999 0.2356 0.88181 0.0
H1148 H 0.81018 0.32093 0.87318 0.0
H1149 H 0.84954 0.35317 0.89453 0.0
H1150 H 0.76998 0.25945 0.87106 0.0
H1151 H 0.76827 0.2167 0.85775 0.0
C1152 C 0.42581 0.28531 0.35006 0.0
C1153 C 0.41534 0.25068 0.3662 0.0
C1154 C 0.42641 0.29194 0.40708 0.0
C1155 C 0.44243 0.32749 0.39102 0.0
N1156 N 0.46883 0.35731 0.3471 0.0
N1157 N 0.41971 0.22621 0.41088 0.0
C1158 C 0.44571 0.324 0.36246 0.0
C1159 C 0.41981 0.25544 0.39497 0.0
N1160 N 0.41507 0.28169 0.32324 0.0
N1161 N 0.41528 0.29186 0.43342 0.0
H1162 H 0.419 0.20072 0.40295 0.0
H1163 H 0.4259 0.23009 0.43169 0.0
H1164 H 0.41606 0.31656 0.44274 0.0
H1165 H 0.40046 0.26555 0.44485 0.0
H1166 H 0.41959 0.30623 0.31149 0.0
H1167 H 0.39709 0.2541 0.31374 0.0
H1168 H 0.47433 0.35557 0.32655 0.0
H1169 H 0.48656 0.38583 0.35555 0.0
C1170 C 0.74162 0.10432 0.39389 0.0
C1171 C 0.71366 0.11818 0.3917 0.0
C1172 C 0.76458 0.17947 0.3692 0.0
C1173 C 0.79084 0.16337 0.3682 0.0
N1174 N 0.80287 0.1085 0.37707 0.0
N1175 N 0.69664 0.16681 0.37497 0.0
C1176 C 0.77917 0.12541 0.38014 0.0
C1177 C 0.72461 0.15514 0.37866 0.0
N1178 N 0.73227 0.07097 0.40912 0.0
N1179 N 0.77845 0.21876 0.36234 0.0
H1180 H 0.66759 0.15078 0.38273 0.0
H1181 H 0.70132 0.19086 0.36266 0.0
H1182 H 0.80788 0.23814 0.35625 0.0
H1183 H 0.76215 0.2334 0.36535 0.0
H1184 H 0.75287 0.06184 0.41404 0.0
H1185 H 0.70461 0.05401 0.41867 0.0
H1186 H 0.79408 0.07909 0.38266 0.0
H1187 H 0.83022 0.12276 0.36688 0.0
C1188 C 0.9003 0.61485 0.4125 0.0
C1189 C 0.88887 0.57419 0.40696 0.0
C1190 C 0.83133 0.5665 0.38 0.0
C1191 C 0.84514 0.60822 0.38319 0.0
N1192 N 0.89598 0.67351 0.39918 0.0
N1193 N 0.84617 0.51215 0.38322 0.0
C1194 C 0.88032 0.63274 0.39877 0.0
C1195 C 0.85517 0.55029 0.39001 0.0
N1196 N 0.93049 0.63654 0.43075 0.0
N1197 N 0.79447 0.54193 0.36858 0.0
H1198 H 0.86135 0.49836 0.39141 0.0
H1199 H 0.82529 0.49504 0.36827 0.0
H1200 H 0.77571 0.55237 0.3615 0.0
H1201 H 0.78078 0.5107 0.36833 0.0
H1202 H 0.93725 0.66472 0.43797 0.0
H1203 H 0.94702 0.62521 0.44031 0.0
H1204 H 0.92383 0.69358 0.40761 0.0
H1205 H 0.88285 0.68785 0.38891 0.0
C1206 C 0.58329 0.02591 0.85705 0.0
C1207 C 0.5754 0.05291 0.87188 0.0
C1208 C 0.64347 0.10823 0.86173 0.0
C1209 C 0.65029 0.08191 0.8453 0.0
N1210 N 0.62536 0.01682 0.82444 0.0
N1211 N 0.59482 0.12144 0.88344 0.0
C1212 C 0.61967 0.04109 0.842 0.0
C1213 C 0.60472 0.09452 0.87302 0.0
N1214 N 0.55683 0.9855 0.8584 0.0
N1215 N 0.67411 0.14643 0.86663 0.0
H1216 H 0.56652 0.11309 0.89115 0.0
H1217 H 0.61329 0.15248 0.88209 0.0
H1218 H 0.70216 0.15829 0.85751 0.0
H1219 H 0.67264 0.16543 0.88109 0.0
H1220 H 0.5626 0.96378 0.85049 0.0
H1221 H 0.5303 0.97333 0.86952 0.0
H1222 H 0.60266 0.98834 0.81861 0.0
H1223 H 0.65224 0.02613 0.81417 0.0
C1224 C 0.96794 0.53659 0.85544 0.0
C1225 C 0.94123 0.49797 0.86616 0.0
C1226 C 0.88357 0.50327 0.84924 0.0
C1227 C 0.91039 0.54114 0.83766 0.0
N1228 N 0.9777 0.58955 0.82411 0.0
N1229 N 0.87424 0.44058 0.86779 0.0
C1230 C 0.95248 0.55638 0.839 0.0
C1231 C 0.89916 0.48013 0.86147 0.0
N1232 N 1.00782 0.55539 0.86213 0.0
N1233 N 0.84334 0.49009 0.84951 0.0
H1234 H 0.88462 0.42245 0.87612 0.0
H1235 H 0.84396 0.42473 0.86241 0.0
H1236 H 0.83088 0.50578 0.84016 0.0
H1237 H 0.8227 0.4651 0.86049 0.0
H1238 H 0.02797 0.58531 0.85746 0.0
H1239 H 0.02029 0.54233 0.87449 0.0
H1240 H 1.00823 0.59977 0.82194 0.0
H1241 H 0.96735 0.60458 0.81172 0.0
C1242 C 0.53264 0.41309 0.84468 0.0
C1243 C 0.51516 0.43797 0.84715 0.0
C1244 C 0.45564 0.38783 0.82185 0.0
C1245 C 0.47094 0.36094 0.82252 0.0
N1246 N 0.52267 0.34643 0.83597 0.0
N1247 N 0.45833 0.4476 0.84065 0.0
C1248 C 0.50917 0.37324 0.83426 0.0
C1249 C 0.47639 0.42519 0.83609 0.0
N1250 N 0.57217 0.42811 0.85139 0.0
N1251 N 0.4209 0.37738 0.80792 0.0
H1252 H 0.4722 0.47475 0.85128 0.0
H1253 H 0.42842 0.43789 0.83597 0.0
H1254 H 0.40414 0.34986 0.798 0.0
H1255 H 0.41016 0.39705 0.8044 0.0
H1256 H 0.58787 0.41309 0.84749 0.0
H1257 H 0.59046 0.45728 0.85868 0.0
H1258 H 0.54775 0.35157 0.84732 0.0
H1259 H 0.50743 0.31792 0.82708 0.0
C1260 C 0.55009 0.71635 0.68716 0.0
C1261 C 0.5697 0.70508 0.66772 0.0
C1262 C 0.63246 0.76877 0.67537 0.0
C1263 C 0.61254 0.78105 0.69406 0.0
N1264 N 0.54972 0.77026 0.71245 0.0
N1265 N 0.6263 0.724 0.63851 0.0
C1266 C 0.57053 0.75588 0.69847 0.0
C1267 C 0.6098 0.73262 0.66018 0.0
N1268 N 0.51217 0.6889 0.69527 0.0
N1269 N 0.67338 0.79012 0.67339 0.0
H1270 H 0.61028 0.69784 0.627 0.0
H1271 H 0.65406 0.74442 0.63029 0.0
H1272 H 0.69141 0.81555 0.6851 0.0
H1273 H 0.68984 0.78036 0.66223 0.0
H1274 H 0.49806 0.69331 0.71185 0.0
H1275 H 0.49561 0.66069 0.68616 0.0
H1276 H 0.51854 0.75489 0.7139 0.0
H1277 H 0.56312 0.79925 0.72045 0.0
C1278 C 0.28076 0.9012 0.67568 0.0
C1279 C 0.26954 0.86561 0.69079 0.0
C1280 C 0.33743 0.87545 0.68533 0.0
C1281 C 0.34802 0.90993 0.66922 0.0
N1282 N 0.32833 0.95204 0.64495 0.0
N1283 N 0.28403 0.8138 0.70464 0.0
C1284 C 0.31909 0.9215 0.66297 0.0
C1285 C 0.29702 0.8513 0.69415 0.0
N1286 N 0.25571 0.91688 0.67474 0.0
N1287 N 0.36619 0.86612 0.69257 0.0
H1288 H 0.25448 0.7947 0.71066 0.0
H1289 H 0.30146 0.8 0.705 0.0
H1290 H 0.39551 0.88186 0.68528 0.0
H1291 H 0.36167 0.8444 0.707 0.0
H1292 H 0.2639 0.945 0.66665 0.0
H1293 H 0.22777 0.90335 0.68418 0.0
H1294 H 0.30727 0.95899 0.63721 0.0
H1295 H 0.35648 0.96855 0.63597 0.0
C1296 C 0.17856 0.41182 0.67926 0.0
C1297 C 0.1786 0.40601 0.70795 0.0
C1298 C 0.14409 0.44474 0.71322 0.0
C1299 C 0.13718 0.44371 0.6847 0.0
N1300 N 0.1397 0.41461 0.64144 0.0
N1301 N 0.1485 0.40696 0.7509 0.0
C1302 C 0.15202 0.42391 0.66786 0.0
C1303 C 0.15755 0.4195 0.72458 0.0
N1304 N 0.20498 0.40812 0.66277 0.0
N1305 N 0.13921 0.47067 0.72959 0.0
H1306 H 0.15354 0.38489 0.75924 0.0
H1307 H 0.13089 0.41429 0.763 0.0
H1308 H 0.13313 0.49245 0.72194 0.0
H1309 H 0.14658 0.47398 0.75024 0.0
H1310 H 0.20755 0.41521 0.64213 0.0
H1311 H 0.22779 0.40345 0.67003 0.0
H1312 H 0.14749 0.39719 0.62945 0.0
H1313 H 0.11802 0.41969 0.63254 0.0
C1314 C 0.3869 0.89931 0.21986 0.0
C1315 C 0.37422 0.92377 0.23316 0.0
C1316 C 0.43916 0.98383 0.22315 0.0
C1317 C 0.45296 0.95909 0.21151 0.0
N1318 N 0.44283 0.89243 0.20421 0.0
N1319 N 0.39008 0.98828 0.25154 0.0
C1320 C 0.42757 0.91655 0.21128 0.0
C1321 C 0.40104 0.96571 0.23618 0.0
N1322 N 0.35993 0.85965 0.21511 0.0
N1323 N 0.46144 0.02468 0.22041 0.0
H1324 H 0.36201 0.97641 0.26068 0.0
H1325 H 0.40984 0.01799 0.25706 0.0
H1326 H 0.48886 0.0391 0.2103 0.0
H1327 H 0.45113 0.04414 0.22584 0.0
H1328 H 0.36594 0.84139 0.20267 0.0
H1329 H 0.33046 0.84561 0.22216 0.0
H1330 H 0.42707 0.86129 0.20635 0.0
H1331 H 0.4727 0.90367 0.19871 0.0
C1332 C 0.13449 0.47498 0.18712 0.0
C1333 C 0.1367 0.46955 0.21559 0.0
C1334 C 0.1095 0.51467 0.22261 0.0
C1335 C 0.09809 0.51137 0.19465 0.0
N1336 N 0.09259 0.47782 0.15165 0.0
N1337 N 0.11676 0.47903 0.26059 0.0
C1338 C 0.10867 0.48869 0.17716 0.0
C1339 C 0.12168 0.48799 0.23351 0.0
N1340 N 0.15751 0.46787 0.16946 0.0
N1341 N 0.11077 0.54427 0.23867 0.0
H1342 H 0.12225 0.45775 0.26965 0.0
H1343 H 0.10263 0.48962 0.27349 0.0
H1344 H 0.10678 0.56739 0.23109 0.0
H1345 H 0.12159 0.54903 0.25862 0.0
H1346 H 0.15853 0.47402 0.14872 0.0
H1347 H 0.1793 0.46108 0.17605 0.0
H1348 H 0.09787 0.45892 0.13928 0.0
H1349 H 0.06992 0.48268 0.14433 0.0
C1350 C 0.58945 0.63777 0.23546 0.0
C1351 C 0.57962 0.66822 0.23007 0.0
C1352 C 0.52671 0.62287 0.19827 0.0
C1353 C 0.53893 0.59372 0.20178 0.0
N1354 N 0.58648 0.57626 0.22015 0.0
N1355 N 0.54301 0.69228 0.20363 0.0
C1356 C 0.57146 0.60188 0.21952 0.0
C1357 C 0.54958 0.66155 0.21056 0.0
N1358 N 0.61588 0.64303 0.25594 0.0
N1359 N 0.49194 0.6129 0.18451 0.0
H1360 H 0.55797 0.7204 0.21302 0.0
H1361 H 0.52495 0.69085 0.18732 0.0
H1362 H 0.47361 0.58467 0.17587 0.0
H1363 H 0.47917 0.63125 0.18383 0.0
H1364 H 0.62071 0.6202 0.26302 0.0
H1365 H 0.63093 0.66943 0.26733 0.0
H1366 H 0.61274 0.58253 0.23043 0.0
H1367 H 0.57486 0.5503 0.20828 0.0
C1368 C 0.12454 0.64314 0.74222 0.0
C1369 C 0.13943 0.67574 0.72348 0.0
C1370 C 0.11045 0.62679 0.68619 0.0
C1371 C 0.10022 0.59439 0.70449 0.0
N1372 N 0.11282 0.57593 0.7492 0.0
N1373 N 0.15866 0.69623 0.67685 0.0
C1374 C 0.11187 0.60371 0.73231 0.0
C1375 C 0.13636 0.66681 0.69521 0.0
N1376 N 0.12012 0.64862 0.76913 0.0
N1377 N 0.09391 0.62021 0.66074 0.0
H1378 H 0.18035 0.72522 0.68275 0.0
H1379 H 0.1592 0.69022 0.65622 0.0
H1380 H 0.07129 0.5922 0.65405 0.0
H1381 H 0.09878 0.64368 0.64772 0.0
H1382 H 0.10603 0.62459 0.78264 0.0
H1383 H 0.12592 0.67591 0.77744 0.0
H1384 H 0.12389 0.58283 0.76905 0.0
H1385 H 0.10813 0.5482 0.74241 0.0
C1386 C 0.39829 0.45767 0.73577 0.0
C1387 C 0.36982 0.47095 0.73443 0.0
C1388 C 0.4177 0.53013 0.70835 0.0
C1389 C 0.4442 0.51436 0.70699 0.0
N1390 N 0.45803 0.46095 0.71679 0.0
N1391 N 0.35028 0.51746 0.7173 0.0
C1392 C 0.43418 0.47766 0.72018 0.0
C1393 C 0.37903 0.50671 0.72027 0.0
N1394 N 0.39119 0.42621 0.75237 0.0
N1395 N 0.43005 0.56815 0.69913 0.0
H1396 H 0.32214 0.5017 0.72641 0.0
H1397 H 0.35329 0.54035 0.70441 0.0
H1398 H 0.45813 0.58635 0.69046 0.0
H1399 H 0.414 0.58303 0.70219 0.0
H1400 H 0.41222 0.41728 0.75627 0.0
H1401 H 0.36543 0.41116 0.76424 0.0
H1402 H 0.45021 0.43215 0.7233 0.0
H1403 H 0.48433 0.47456 0.7054 0.0
C1404 C 0.59772 0.97582 0.7353 0.0
C1405 C 0.58572 0.93486 0.73053 0.0
C1406 C 0.52766 0.92637 0.70403 0.0
C1407 C 0.54193 0.96827 0.70637 0.0
N1408 N 0.59287 0.03404 0.72146 0.0
N1409 N 0.54198 0.87185 0.70818 0.0
C1410 C 0.57746 0.99331 0.72146 0.0
C1411 C 0.55149 0.91037 0.71422 0.0
N1412 N 0.62848 0.99797 0.75308 0.0
N1413 N 0.49037 0.90147 0.69328 0.0
H1414 H 0.55735 0.85834 0.71646 0.0
H1415 H 0.52057 0.85413 0.69367 0.0
H1416 H 0.47157 0.91174 0.68602 0.0
H1417 H 0.47641 0.87024 0.6938 0.0
H1418 H 0.63602 0.02665 0.75971 0.0
H1419 H 0.64478 0.98653 0.76286 0.0
H1420 H 0.62083 0.05444 0.72959 0.0
H1421 H 0.57915 0.04788 0.71129 0.0
C1422 C 0.28032 0.38904 0.16898 0.0
C1423 C 0.26765 0.41246 0.18374 0.0
C1424 C 0.33397 0.47266 0.17715 0.0
C1425 C 0.34597 0.44968 0.16131 0.0
N1426 N 0.32936 0.38741 0.13885 0.0
N1427 N 0.27913 0.47794 0.19691 0.0
C1428 C 0.3186 0.40833 0.15606 0.0
C1429 C 0.2936 0.45469 0.18649 0.0
N1430 N 0.25663 0.34808 0.16853 0.0
N1431 N 0.3614 0.51157 0.18366 0.0
H1432 H 0.24962 0.46618 0.2035 0.0
H1433 H 0.29514 0.50924 0.19679 0.0
H1434 H 0.39054 0.52636 0.17598 0.0
H1435 H 0.35613 0.52841 0.1979 0.0
H1436 H 0.26574 0.32875 0.16073 0.0
H1437 H 0.22873 0.33292 0.178 0.0
H1438 H 0.30958 0.35848 0.13193 0.0
H1439 H 0.35757 0.39994 0.12984 0.0
C1440 C 0.57227 0.87348 0.20009 0.0
C1441 C 0.59973 0.91361 0.19232 0.0
C1442 C 0.65562 0.90707 0.21122 0.0
C1443 C 0.62859 0.86596 0.21704 0.0
N1444 N 0.56209 0.80812 0.21324 0.0
N1445 N 0.66807 0.96707 0.1866 0.0
C1446 C 0.58709 0.84866 0.21055 0.0
C1447 C 0.64159 0.93 0.19683 0.0
N1448 N 0.53191 0.85942 0.1982 0.0
N1449 N 0.6944 0.92466 0.22039 0.0
H1450 H 0.659 0.98484 0.17609 0.0
H1451 H 0.69904 0.97891 0.1865 0.0
H1452 H 0.70564 0.90897 0.23119 0.0
H1453 H 0.71448 0.95545 0.21944 0.0
H1454 H 0.51027 0.8322 0.20647 0.0
H1455 H 0.52002 0.87643 0.19014 0.0
H1456 H 0.53268 0.79295 0.20596 0.0
H1457 H 0.57165 0.7889 0.22079 0.0
C1458 C 0.14309 0.76711 0.17975 0.0
C1459 C 0.17799 0.7757 0.19503 0.0
C1460 C 0.16519 0.70714 0.18631 0.0
C1461 C 0.13173 0.69943 0.1697 0.0
N1462 N 0.092 0.72365 0.14721 0.0
N1463 N 0.22695 0.75691 0.20816 0.0
C1464 C 0.12187 0.73006 0.16522 0.0
C1465 C 0.19029 0.74649 0.19709 0.0
N1466 N 0.12884 0.79339 0.18039 0.0
N1467 N 0.17279 0.6767 0.192 0.0
H1468 H 0.24664 0.78557 0.21571 0.0
H1469 H 0.23955 0.73842 0.20762 0.0
H1470 H 0.15671 0.64822 0.18318 0.0
H1471 H 0.19343 0.67889 0.20668 0.0
H1472 H 0.10125 0.78704 0.17221 0.0
H1473 H 0.14287 0.82031 0.19128 0.0
H1474 H 0.08641 0.74621 0.14068 0.0
H1475 H 0.07456 0.6964 0.13711 0.0
C1476 C 0.40007 0.32469 0.13917 0.0
C1477 C 0.40974 0.30838 0.11611 0.0
C1478 C 0.47757 0.36721 0.11757 0.0
C1479 C 0.4668 0.3815 0.14076 0.0
N1480 N 0.42575 0.36362 0.18043 0.0
N1481 N 0.46338 0.30942 0.08971 0.0
C1482 C 0.43145 0.35536 0.15445 0.0
C1483 C 0.45042 0.32796 0.10724 0.0
N1484 N 0.36148 0.31515 0.14467 0.0
N1485 N 0.51275 0.39213 0.10479 0.0
H1486 H 0.44521 0.27989 0.08317 0.0
H1487 H 0.49339 0.32186 0.08419 0.0
H1488 H 0.53302 0.42039 0.11279 0.0
H1489 H 0.52059 0.38538 0.08608 0.0
H1490 H 0.35435 0.32839 0.16057 0.0
H1491 H 0.33776 0.29978 0.13105 0.0
H1492 H 0.40016 0.34436 0.1915 0.0
H1493 H 0.44863 0.38744 0.19136 0.0
C1494 C 0.68863 0.12747 0.15033 0.0
C1495 C 0.65095 0.10418 0.13775 0.0
C1496 C 0.68221 0.11579 0.09321 0.0
C1497 C 0.71924 0.12895 0.10658 0.0
N1498 N 0.76145 0.16223 0.14504 0.0
N1499 N 0.61143 0.09458 0.09799 0.0
C1500 C 0.72377 0.14087 0.13425 0.0
C1501 C 0.6479 0.10572 0.10923 0.0
N1502 N 0.69005 0.13431 0.17759 0.0
N1503 N 0.67961 0.10955 0.06579 0.0
H1504 H 0.58663 0.0868 0.11038 0.0
H1505 H 0.60692 0.09649 0.07729 0.0
H1506 H 0.70517 0.11769 0.05414 0.0
H1507 H 0.65269 0.09604 0.05493 0.0
H1508 H 0.71643 0.15107 0.18867 0.0
H1509 H 0.66369 0.12371 0.18882 0.0
H1510 H 0.76756 0.17226 0.16507 0.0
H1511 H 0.78687 0.17153 0.13299 0.0
C1512 C 0.90761 0.60557 0.15303 0.0
C1513 C 0.90125 0.6066 0.12454 0.0
C1514 C 0.9149 0.55149 0.11869 0.0
C1515 C 0.93411 0.56091 0.14433 0.0
N1516 N 0.94071 0.58868 0.18878 0.0
N1517 N 0.89241 0.57532 0.0805 0.0
C1518 C 0.92646 0.5842 0.16279 0.0
C1519 C 0.9016 0.57703 0.10748 0.0
N1520 N 0.89692 0.62632 0.17031 0.0
N1521 N 0.91142 0.51914 0.10497 0.0
H1522 H 0.88136 0.59264 0.07184 0.0
H1523 H 0.8968 0.55748 0.06658 0.0
H1524 H 0.92041 0.50036 0.11415 0.0
H1525 H 0.89622 0.50889 0.08651 0.0
H1526 H 0.89829 0.62502 0.19141 0.0
H1527 H 0.88342 0.64228 0.1632 0.0
H1528 H 0.94069 0.60907 0.20269 0.0
H1529 H 0.9534 0.57194 0.19606 0.0
C1530 C 0.29459 0.41661 0.43163 0.0
C1531 C 0.28978 0.40733 0.45972 0.0
C1532 C 0.36142 0.45236 0.46623 0.0
C1533 C 0.36673 0.44858 0.43817 0.0
N1534 N 0.33939 0.43539 0.39291 0.0
N1535 N 0.31679 0.42439 0.50495 0.0
C1536 C 0.33361 0.43456 0.42029 0.0
C1537 C 0.32251 0.42897 0.47757 0.0
N1538 N 0.26131 0.40539 0.41602 0.0
N1539 N 0.39391 0.47732 0.48171 0.0
H1540 H 0.28814 0.40819 0.51329 0.0
H1541 H 0.34015 0.4362 0.51908 0.0
H1542 H 0.42251 0.4937 0.47324 0.0
H1543 H 0.39166 0.48458 0.50178 0.0
H1544 H 0.26214 0.41231 0.39547 0.0
H1545 H 0.23301 0.39216 0.42496 0.0
H1546 H 0.31608 0.42163 0.37879 0.0
H1547 H 0.36809 0.44949 0.38451 0.0
C1548 C 0.59083 0.90988 0.41078 0.0
C1549 C 0.56901 0.92331 0.42626 0.0
C1550 C 0.57971 0.89435 0.46753 0.0
C1551 C 0.6083 0.88883 0.45319 0.0
N1552 N 0.6273 0.87321 0.41064 0.0
N1553 N 0.52648 0.91106 0.46452 0.0
C1554 C 0.60853 0.88985 0.42441 0.0
C1555 C 0.55729 0.90863 0.45298 0.0
N1556 N 0.59751 0.91955 0.38389 0.0
N1557 N 0.57653 0.88915 0.49502 0.0
H1558 H 0.51029 0.92132 0.45322 0.0
H1559 H 0.515 0.89972 0.48369 0.0
H1560 H 0.59216 0.8777 0.50568 0.0
H1561 H 0.55928 0.8969 0.50711 0.0
H1562 H 0.6171 0.9148 0.37202 0.0
H1563 H 0.58342 0.93303 0.3737 0.0
H1564 H 0.62682 0.87076 0.38955 0.0
H1565 H 0.63997 0.85839 0.42094 0.0
C1566 C 0.1169 0.67627 0.47086 0.0
C1567 C 0.11963 0.707 0.45347 0.0
C1568 C 0.09528 0.66002 0.41491 0.0
C1569 C 0.08484 0.62844 0.43351 0.0
N1570 N 0.10227 0.6069 0.47426 0.0
N1571 N 0.12748 0.73207 0.40772 0.0
C1572 C 0.10216 0.63712 0.4598 0.0
C1573 C 0.11484 0.70013 0.4249 0.0
N1574 N 0.12519 0.68351 0.49795 0.0
N1575 N 0.08316 0.65119 0.38845 0.0
H1576 H 0.14108 0.76139 0.41506 0.0
H1577 H 0.12738 0.72991 0.38662 0.0
H1578 H 0.07041 0.62194 0.38088 0.0
H1579 H 0.08528 0.67228 0.37426 0.0
H1580 H 0.11914 0.66104 0.51212 0.0
H1581 H 0.13754 0.71215 0.50637 0.0
H1582 H 0.1158 0.61075 0.49327 0.0
H1583 H 0.09195 0.57872 0.46537 0.0
C1584 C 0.55622 0.63547 0.95015 0.0
C1585 C 0.56784 0.63449 0.92303 0.0
C1586 C 0.60371 0.70747 0.92153 0.0
C1587 C 0.60249 0.70784 0.95036 0.0
N1588 N 0.56801 0.67542 0.99133 0.0
N1589 N 0.59318 0.66785 0.88054 0.0
C1590 C 0.57469 0.67286 0.9644 0.0
C1591 C 0.58737 0.67013 0.90769 0.0
N1592 N 0.5294 0.60016 0.96222 0.0
N1593 N 0.62247 0.74314 0.90798 0.0
H1594 H 0.58022 0.64031 0.87034 0.0
H1595 H 0.61062 0.69258 0.86827 0.0
H1596 H 0.63456 0.77022 0.91851 0.0
H1597 H 0.6236 0.74598 0.88691 0.0
H1598 H 0.51856 0.59781 0.98185 0.0
H1599 H 0.51644 0.573 0.95151 0.0
H1600 H 0.5487 0.65105 1.00321 0.0
H1601 H 0.58104 0.70289 1.00156 0.0
C1602 C 0.31695 0.88352 0.95974 0.0
C1603 C 0.3056 0.89712 0.98298 0.0
C1604 C 0.3676 0.95975 0.98204 0.0
C1605 C 0.38075 0.94733 0.95861 0.0
N1606 N 0.37173 0.89053 0.93159 0.0
N1607 N 0.32841 0.93741 1.0232 0.0
C1608 C 0.3568 0.90683 0.94945 0.0
C1609 C 0.33504 0.93052 0.9971 0.0
N1610 N 0.28879 0.84967 0.94678 0.0
N1611 N 0.38164 0.9994 0.98793 0.0
H1612 H 0.30306 0.91643 1.03381 0.0
H1613 H 0.34995 0.96161 1.03457 0.0
H1614 H 0.39827 0.02264 0.97435 0.0
H1615 H 0.37074 1.00858 1.00414 0.0
H1616 H 0.29363 0.84022 0.92804 0.0
H1617 H 0.25996 0.83227 0.95473 0.0
H1618 H 0.35589 0.86042 0.92572 0.0
H1619 H 0.40145 0.90572 0.92515 0.0
C1620 C 0.13082 0.43633 0.96029 0.0
C1621 C 0.1198 0.41672 0.98566 0.0
C1622 C 0.06844 0.43555 0.98958 0.0
C1623 C 0.0699 0.44102 0.96083 0.0
N1624 N 0.10748 0.45323 0.91918 0.0
N1625 N 0.08656 0.40786 1.02811 0.0
C1626 C 0.10342 0.44483 0.94633 0.0
C1627 C 0.09229 0.42111 1.00188 0.0
N1628 N 0.16645 0.44434 0.94934 0.0
N1629 N 0.04356 0.44333 1.00472 0.0
H1630 H 0.10527 0.3988 0.03732 0.0
H1631 H 0.06342 0.40529 0.04037 0.0
H1632 H 0.02636 0.45418 0.99575 0.0
H1633 H 0.04272 0.44262 1.02587 0.0
H1634 H 0.17788 0.4605 0.93141 0.0
H1635 H 0.18595 0.4378 0.96018 0.0
H1636 H 0.12886 0.45164 0.90717 0.0
H1637 H 0.08861 0.46053 0.90842 0.0
C1638 C 0.69102 0.57329 0.6128 0.0
C1639 C 0.70483 0.5988 0.58984 0.0
C1640 C 0.65276 0.61489 0.5951 0.0
C1641 C 0.63632 0.58821 0.61778 0.0
N1642 N 0.63433 0.53167 0.6417 0.0
N1643 N 0.68678 0.62602 0.55216 0.0
C1644 C 0.6535 0.56383 0.62473 0.0
C1645 C 0.67966 0.61105 0.57792 0.0
N1646 N 0.71467 0.55969 0.62367 0.0
N1647 N 0.64742 0.64727 0.59179 0.0
H1648 H 0.70873 0.62539 0.54009 0.0
H1649 H 0.66839 0.63516 0.54256 0.0
H1650 H 0.63573 0.65728 0.60698 0.0
H1651 H 0.66086 0.66796 0.57607 0.0
H1652 H 0.70874 0.54474 0.64225 0.0
H1653 H 0.74106 0.5651 0.61404 0.0
H1654 H 0.64512 0.51209 0.64573 0.0
H1655 H 0.60566 0.52175 0.6492 0.0
C1656 C 0.39206 0.08455 0.64007 0.0
C1657 C 0.40107 0.1092 0.61633 0.0
C1658 C 0.47038 0.12262 0.61949 0.0
C1659 C 0.46031 0.09883 0.64328 0.0
N1660 N 0.41829 0.07536 0.68257 0.0
N1661 N 0.45385 0.16294 0.58996 0.0
C1662 C 0.42397 0.08798 0.65623 0.0
C1663 C 0.44194 0.13212 0.60803 0.0
N1664 N 0.35402 0.05418 0.64551 0.0
N1665 N 0.50619 0.13415 0.60721 0.0
H1666 H 0.43467 0.17276 0.58277 0.0
H1667 H 0.48383 0.18169 0.58475 0.0
H1668 H 0.52749 0.12824 0.61605 0.0
H1669 H 0.51358 0.14769 0.58812 0.0
H1670 H 0.34753 0.0349 0.66205 0.0
H1671 H 0.33054 0.04361 0.63145 0.0
H1672 H 0.39198 0.06798 0.69307 0.0
H1673 H 0.44165 0.0767 0.69431 0.0
C1674 C 0.92225 0.36076 0.63411 0.0
C1675 C 0.95132 0.37574 0.65512 0.0
C1676 C 0.95993 0.31821 0.65153 0.0
C1677 C 0.92952 0.30088 0.63081 0.0
N1678 N 0.87139 0.30117 0.61105 0.0
N1679 N 0.98169 0.35966 0.69194 0.0
C1680 C 0.9071 0.32053 0.62472 0.0
C1681 C 0.96245 0.34985 0.66741 0.0
N1682 N 0.91032 0.38542 0.62264 0.0
N1683 N 0.99009 0.3093 0.65377 0.0
H1684 H 0.98566 0.3847 0.70289 0.0
H1685 H 0.98974 0.34076 0.70202 0.0
H1686 H 0.99673 0.29467 0.63862 0.0
H1687 H 1.01317 0.32307 0.6681 0.0
H1688 H 0.89248 0.37777 0.60517 0.0
H1689 H 0.91996 0.41413 0.63044 0.0
H1690 H 0.85364 0.31424 0.60764 0.0
H1691 H 0.85693 0.27063 0.60645 0.0
C1692 C 1.00054 0.76299 0.78156 0.0
C1693 C 0.98449 0.721 0.77675 0.0
C1694 C 0.03322 0.73834 0.74029 0.0
C1695 C 0.05583 0.77751 0.75055 0.0
N1696 N 0.06153 0.8284 0.78144 0.0
N1697 N 0.99838 0.67098 0.75682 0.0
C1698 C 0.03941 0.79048 0.77119 0.0
C1699 C 1.00386 0.70901 0.7572 0.0
N1700 N 0.97895 0.77688 0.795 0.0
N1701 N 0.0438 0.72816 0.71644 0.0
H1702 H 0.98385 0.65021 0.7723 0.0
H1703 H 0.01405 0.66249 0.74368 0.0
H1704 H 0.06683 0.74966 0.70438 0.0
H1705 H 0.02706 0.69961 0.70782 0.0
H1706 H 0.989 0.80745 0.79728 0.0
H1707 H 0.9493 0.75837 0.8009 0.0
H1708 H 0.05299 0.83823 0.79855 0.0
H1709 H 0.08936 0.84902 0.77325 0.0
C1710 C 0.29121 0.30332 0.81946 0.0
C1711 C 0.26188 0.29224 0.79811 0.0
C1712 C 0.24935 0.22319 0.8019 0.0
C1713 C 0.27871 0.23574 0.82276 0.0
N1714 N 0.30876 0.28046 0.86041 0.0
N1715 N 0.20213 0.23656 0.77781 0.0
C1716 C 0.29111 0.27274 0.83538 0.0
C1717 C 0.23714 0.25046 0.79205 0.0
N1718 N 0.32244 0.34174 0.82251 0.0
N1719 N 0.23528 0.1862 0.79049 0.0
H1720 H 0.19019 0.25476 0.77255 0.0
H1721 H 0.18253 0.20603 0.77441 0.0
H1722 H 0.24363 0.16602 0.79818 0.0
H1723 H 0.21729 0.17683 0.77307 0.0
H1724 H 0.3446 0.34954 0.83739 0.0
H1725 H 0.3306 0.36386 0.80771 0.0
H1726 H 0.31782 0.30748 0.87065 0.0
H1727 H 0.31009 0.258 0.87161 0.0
C1728 C 0.7983 1.00652 0.75445 0.0
C1729 C 0.77855 0.97023 0.76899 0.0
C1730 C 0.79402 1.00648 0.81193 0.0
C1731 C 0.80251 0.04125 0.79705 0.0
N1732 N 0.83048 0.07974 0.75652 0.0
N1733 N 0.78049 0.93743 0.80968 0.0
C1734 C 0.81154 0.0432 0.76898 0.0
C1735 C 0.7857 0.97133 0.79724 0.0
N1736 N 0.80169 1.00506 0.72699 0.0
N1737 N 0.7906 1.00637 0.8395 0.0
H1738 H 0.77399 0.91206 0.79812 0.0
H1739 H 0.78599 0.93592 0.83029 0.0
H1740 H 0.79738 0.03254 0.85018 0.0
H1741 H 0.7805 0.98066 0.85138 0.0
H1742 H 0.81566 0.03031 0.71459 0.0
H1743 H 0.79125 0.97759 0.717 0.0
H1744 H 0.83945 0.08395 0.73631 0.0
H1745 H 0.8395 0.10623 0.76748 0.0
C1746 C 0.2543 0.01102 0.24592 0.0
C1747 C 0.23274 0.97724 0.26274 0.0
C1748 C 0.25104 0.01999 0.30311 0.0
C1749 C 0.27955 0.05211 0.28716 0.0
N1750 N 0.2962 0.08373 0.24344 0.0
N1751 N 0.19404 0.9517 0.30315 0.0
C1752 C 0.27648 0.04944 0.25838 0.0
C1753 C 0.22483 0.98297 0.28993 0.0
N1754 N 0.25615 1.00569 0.21867 0.0
N1755 N 0.25127 0.02389 0.33068 0.0
H1756 H 0.17516 0.92499 0.29281 0.0
H1757 H 0.18525 0.95358 0.32283 0.0
H1758 H 0.26974 0.0512 0.34046 0.0
H1759 H 0.23399 1.00008 0.34372 0.0
H1760 H 0.27493 0.02845 0.20542 0.0
H1761 H 0.23839 0.97774 0.20945 0.0
H1762 H 0.29442 0.08487 0.22236 0.0
H1763 H 0.31165 0.11161 0.25305 0.0
C1764 C 0.99854 0.29426 0.25519 0.0
C1765 C 0.98141 0.25999 0.27268 0.0
C1766 C 0.03788 0.24981 0.26129 0.0
C1767 C 0.05209 0.28219 0.24276 0.0
N1768 N 0.03632 0.32299 0.21413 0.0
N1769 N 0.9797 0.19756 0.28443 0.0
C1770 C 0.02769 0.2986 0.23623 0.0
C1771 C 0.99932 0.23511 0.27335 0.0
N1772 N 0.99121 0.32533 0.25869 0.0
N1773 N 0.06179 0.23426 0.2681 0.0
H1774 H 0.95026 0.18416 0.29131 0.0
H1775 H 0.99104 0.17794 0.28365 0.0
H1776 H 0.08934 0.24387 0.2586 0.0
H1777 H 0.05493 0.21356 0.28378 0.0
H1778 H 1.0052 0.35149 0.24704 0.0
H1779 H 0.97698 0.32822 0.2758 0.0
H1780 H 0.01823 0.33479 0.2081 0.0
H1781 H 0.05928 0.32775 0.20073 0.0
C1782 C 0.81306 0.78146 0.29492 0.0
C1783 C 0.80092 0.76555 0.32135 0.0
C1784 C 0.76185 0.79933 0.32415 0.0
C1785 C 0.76186 0.80089 0.29537 0.0
N1786 N 0.79366 0.8018 0.25332 0.0
N1787 N 0.77276 0.7684 0.36406 0.0
C1788 C 0.79054 0.79594 0.28075 0.0
C1789 C 0.77938 0.77878 0.33729 0.0
N1790 N 0.84414 0.77975 0.28323 0.0
N1791 N 0.74323 0.81575 0.33833 0.0
H1792 H 0.78672 0.75443 0.37382 0.0
H1793 H 0.75345 0.77313 0.37625 0.0
H1794 H 0.73069 0.83091 0.3283 0.0
H1795 H 0.74366 0.81763 0.35945 0.0
H1796 H 0.85583 0.79198 0.26427 0.0
H1797 H 0.86025 0.76912 0.29426 0.0
H1798 H 0.81107 0.79455 0.241 0.0
H1799 H 0.77776 0.81327 0.24301 0.0
loop_
_geom_bond_atom_site_label_1
_geom_bond_atom_site_label_2
_geom_bond_distance
_geom_bond_site_symmetry_2
_ccdc_geom_bond_type
O0 Cd1 2.223 . S
O0 C8 1.315 . S
Cd1 O0 2.223 . S
Cd1 O4 2.274 1_554 S
Cd1 O5 2.439 . S
Cd1 O11 2.240 . S
Cd2 O3 2.240 . S
Cd2 O10 2.223 . S
Cd2 O12 2.297 . S
Cd2 O13 2.439 . S
O3 Cd2 2.240 . S
O3 C8 1.279 . S
O4 Cd1 2.274 1_556 S
O4 C6 1.222 1_556 S
O5 Cd1 2.439 . S
O5 C6 1.208 . S
C6 O4 1.222 1_554 S
C6 O5 1.208 . S
C7 O12 1.247 . S
C7 O13 1.208 . S
C8 O0 1.315 . S
C8 O3 1.279 . S
C9 O10 1.315 . S
C9 O11 1.279 . S
O10 Cd2 2.223 . S
O10 C9 1.315 . S
O11 Cd1 2.240 . S
O11 C9 1.279 . S
O12 Cd2 2.297 . S
O12 C7 1.247 . S
O13 Cd2 2.439 . S
O13 C7 1.208 . S
O14 Cd15 2.223 . S
O14 C22 1.315 . S
Cd15 O14 2.223 . S
Cd15 O18 2.274 1_554 S
Cd15 O19 2.439 . S
Cd15 O25 2.240 . S
Cd16 O17 2.240 . S
Cd16 O24 2.223 . S
Cd16 O26 2.297 . S
Cd16 O27 2.439 . S
O17 Cd16 2.240 . S
O17 C22 1.279 . S
O18 Cd15 2.274 1_556 S
O18 C20 1.222 1_556 S
O19 Cd15 2.439 . S
O19 C20 1.208 . S
C20 O18 1.222 1_554 S
C20 O19 1.208 . S
C21 O26 1.247 . S
C21 O27 1.208 . S
C22 O14 1.315 . S
C22 O17 1.279 . S
C23 O24 1.315 . S
C23 O25 1.279 . S
O24 Cd16 2.223 . S
O24 C23 1.315 . S
O25 Cd15 2.240 . S
O25 C23 1.279 . S
O26 Cd16 2.297 . S
O26 C21 1.247 . S
O27 Cd16 2.439 . S
O27 C21 1.208 . S
O28 Cd29 2.223 . S
O28 C36 1.315 . S
Cd29 O28 2.223 . S
Cd29 O32 2.274 1_554 S
Cd29 O33 2.439 . S
Cd29 O39 2.240 . S
Cd30 O31 2.240 . S
Cd30 O38 2.223 . S
Cd30 O40 2.297 . S
Cd30 O41 2.439 . S
O31 Cd30 2.240 . S
O31 C36 1.279 . S
O32 Cd29 2.274 1_556 S
O32 C34 1.222 1_556 S
O33 Cd29 2.439 . S
O33 C34 1.208 . S
C34 O32 1.222 1_554 S
C34 O33 1.208 . S
C35 O40 1.247 . S
C35 O41 1.208 . S
C36 O28 1.315 . S
C36 O31 1.279 . S
C37 O38 1.315 . S
C37 O39 1.279 . S
O38 Cd30 2.223 . S
O38 C37 1.315 . S
O39 Cd29 2.240 . S
O39 C37 1.279 . S
O40 Cd30 2.297 . S
O40 C35 1.247 . S
O41 Cd30 2.439 . S
O41 C35 1.208 . S
O42 Cd43 2.223 . S
O42 C50 1.315 . S
Cd43 O42 2.223 . S
Cd43 O46 2.297 . S
Cd43 O47 2.439 . S
Cd43 O53 2.240 . S
Cd44 O45 2.240 . S
Cd44 O52 2.223 . S
Cd44 O54 2.297 . S
Cd44 O55 2.439 . S
O45 Cd44 2.240 . S
O45 C50 1.279 . S
O46 Cd43 2.297 . S
O46 C48 1.247 . S
O47 Cd43 2.439 . S
O47 C48 1.208 . S
C48 O46 1.247 . S
C48 O47 1.208 . S
C49 O54 1.247 . S
C49 O55 1.208 . S
C50 O42 1.315 . S
C50 O45 1.279 . S
C51 O52 1.315 . S
C51 O53 1.279 . S
O52 Cd44 2.223 . S
O52 C51 1.315 . S
O53 Cd43 2.240 . S
O53 C51 1.279 . S
O54 Cd44 2.297 . S
O54 C49 1.247 . S
O55 Cd44 2.439 . S
O55 C49 1.208 . S
O56 Cd57 2.223 . S
O56 C64 1.315 . S
Cd57 O56 2.223 . S
Cd57 O60 2.297 . S
Cd57 O61 2.439 . S
Cd57 O67 2.240 . S
Cd58 O59 2.240 . S
Cd58 O66 2.223 . S
Cd58 O68 2.297 . S
Cd58 O69 2.439 . S
O59 Cd58 2.240 . S
O59 C64 1.279 . S
O60 Cd57 2.297 . S
O60 C62 1.247 . S
O61 Cd57 2.439 . S
O61 C62 1.208 . S
C62 O60 1.247 . S
C62 O61 1.208 . S
C63 O68 1.247 . S
C63 O69 1.208 . S
C64 O56 1.315 . S
C64 O59 1.279 . S
C65 O66 1.315 . S
C65 O67 1.279 . S
O66 Cd58 2.223 . S
O66 C65 1.315 . S
O67 Cd57 2.240 . S
O67 C65 1.279 . S
O68 Cd58 2.297 . S
O68 C63 1.247 . S
O69 Cd58 2.439 . S
O69 C63 1.208 . S
O70 Cd71 2.223 . S
O70 C78 1.315 . S
Cd71 O70 2.223 . S
Cd71 O74 2.297 . S
Cd71 O75 2.439 . S
Cd71 O81 2.240 . S
Cd72 O73 2.240 . S
Cd72 O80 2.223 . S
Cd72 O82 2.297 . S
Cd72 O83 2.439 . S
O73 Cd72 2.240 . S
O73 C78 1.279 . S
O74 Cd71 2.297 . S
O74 C76 1.247 . S
O75 Cd71 2.439 . S
O75 C76 1.208 . S
C76 O74 1.247 . S
C76 O75 1.208 . S
C77 O82 1.247 . S
C77 O83 1.208 . S
C78 O70 1.315 . S
C78 O73 1.279 . S
C79 O80 1.315 . S
C79 O81 1.279 . S
O80 Cd72 2.223 . S
O80 C79 1.315 . S
O81 Cd71 2.240 . S
O81 C79 1.279 . S
O82 Cd72 2.297 . S
O82 C77 1.247 . S
O83 Cd72 2.439 . S
O83 C77 1.208 . S
O84 Cd85 2.223 . S
O84 C92 1.315 . S
Cd85 O84 2.223 . S
Cd85 O88 2.274 1_556 S
Cd85 O89 2.439 . S
Cd85 O95 2.240 . S
Cd86 O87 2.240 . S
Cd86 O94 2.223 . S
Cd86 O96 2.297 . S
Cd86 O97 2.439 . S
O87 Cd86 2.240 . S
O87 C92 1.279 . S
O88 Cd85 2.274 1_554 S
O88 C90 1.222 1_554 S
O89 Cd85 2.439 . S
O89 C90 1.208 . S
C90 O88 1.222 1_556 S
C90 O89 1.208 . S
C91 O96 1.247 . S
C91 O97 1.208 . S
C92 O84 1.315 . S
C92 O87 1.279 . S
C93 O94 1.315 . S
C93 O95 1.279 . S
O94 Cd86 2.223 . S
O94 C93 1.315 . S
O95 Cd85 2.240 . S
O95 C93 1.279 . S
O96 Cd86 2.297 . S
O96 C91 1.247 . S
O97 Cd86 2.439 . S
O97 C91 1.208 . S
O98 Cd99 2.223 . S
O98 C106 1.315 . S
Cd99 O98 2.223 . S
Cd99 O102 2.274 1_556 S
Cd99 O103 2.439 . S
Cd99 O109 2.240 . S
Cd100 O101 2.240 . S
Cd100 O108 2.223 . S
Cd100 O110 2.297 . S
Cd100 O111 2.439 . S
O101 Cd100 2.240 . S
O101 C106 1.279 . S
O102 Cd99 2.274 1_554 S
O102 C104 1.222 1_554 S
O103 Cd99 2.439 . S
O103 C104 1.208 . S
C104 O102 1.222 1_556 S
C104 O103 1.208 . S
C105 O110 1.247 . S
C105 O111 1.208 . S
C106 O98 1.315 . S
C106 O101 1.279 . S
C107 O108 1.315 . S
C107 O109 1.279 . S
O108 Cd100 2.223 . S
O108 C107 1.315 . S
O109 Cd99 2.240 . S
O109 C107 1.279 . S
O110 Cd100 2.297 . S
O110 C105 1.247 . S
O111 Cd100 2.439 . S
O111 C105 1.208 . S
O112 Cd113 2.223 . S
O112 C120 1.315 . S
Cd113 O112 2.223 . S
Cd113 O116 2.274 1_556 S
Cd113 O117 2.439 . S
Cd113 O123 2.240 . S
Cd114 O115 2.240 . S
Cd114 O122 2.223 . S
Cd114 O124 2.297 . S
Cd114 O125 2.439 . S
O115 Cd114 2.240 . S
O115 C120 1.279 . S
O116 Cd113 2.274 1_554 S
O116 C118 1.222 1_554 S
O117 Cd113 2.439 . S
O117 C118 1.208 . S
C118 O116 1.222 1_556 S
C118 O117 1.208 . S
C119 O124 1.247 . S
C119 O125 1.208 . S
C120 O112 1.315 . S
C120 O115 1.279 . S
C121 O122 1.315 . S
C121 O123 1.279 . S
O122 Cd114 2.223 . S
O122 C121 1.315 . S
O123 Cd113 2.240 . S
O123 C121 1.279 . S
O124 Cd114 2.297 . S
O124 C119 1.247 . S
O125 Cd114 2.439 . S
O125 C119 1.208 . S
O126 Cd127 2.223 . S
O126 C134 1.315 . S
Cd127 O126 2.223 . S
Cd127 O130 2.297 . S
Cd127 O131 2.439 . S
Cd127 O137 2.240 . S
Cd128 O129 2.240 . S
Cd128 O136 2.223 . S
Cd128 O138 2.297 . S
Cd128 O139 2.439 . S
O129 Cd128 2.240 . S
O129 C134 1.279 . S
O130 Cd127 2.297 . S
O130 C132 1.247 . S
O131 Cd127 2.439 . S
O131 C132 1.208 . S
C132 O130 1.247 . S
C132 O131 1.208 . S
C133 O138 1.247 . S
C133 O139 1.208 . S
C134 O126 1.315 . S
C134 O129 1.279 . S
C135 O136 1.315 . S
C135 O137 1.279 . S
O136 Cd128 2.223 . S
O136 C135 1.315 . S
O137 Cd127 2.240 . S
O137 C135 1.279 . S
O138 Cd128 2.297 . S
O138 C133 1.247 . S
O139 Cd128 2.439 . S
O139 C133 1.208 . S
O140 Cd141 2.223 . S
O140 C148 1.315 . S
Cd141 O140 2.223 . S
Cd141 O144 2.297 . S
Cd141 O145 2.439 . S
Cd141 O151 2.240 . S
Cd142 O143 2.240 . S
Cd142 O150 2.223 . S
Cd142 O152 2.297 . S
Cd142 O153 2.439 . S
O143 Cd142 2.240 . S
O143 C148 1.279 . S
O144 Cd141 2.297 . S
O144 C146 1.247 . S
O145 Cd141 2.439 . S
O145 C146 1.208 . S
C146 O144 1.247 . S
C146 O145 1.208 . S
C147 O152 1.247 . S
C147 O153 1.208 . S
C148 O140 1.315 . S
C148 O143 1.279 . S
C149 O150 1.315 . S
C149 O151 1.279 . S
O150 Cd142 2.223 . S
O150 C149 1.315 . S
O151 Cd141 2.240 . S
O151 C149 1.279 . S
O152 Cd142 2.297 . S
O152 C147 1.247 . S
O153 Cd142 2.439 . S
O153 C147 1.208 . S
O154 Cd155 2.223 . S
O154 C162 1.315 . S
Cd155 O154 2.223 . S
Cd155 O158 2.297 . S
Cd155 O159 2.439 . S
Cd155 O165 2.240 . S
Cd156 O157 2.240 . S
Cd156 O164 2.223 . S
Cd156 O166 2.297 . S
Cd156 O167 2.439 . S
O157 Cd156 2.240 . S
O157 C162 1.279 . S
O158 Cd155 2.297 . S
O158 C160 1.247 . S
O159 Cd155 2.439 . S
O159 C160 1.208 . S
C160 O158 1.247 . S
C160 O159 1.208 . S
C161 O166 1.247 . S
C161 O167 1.208 . S
C162 O154 1.315 . S
C162 O157 1.279 . S
C163 O164 1.315 . S
C163 O165 1.279 . S
O164 Cd156 2.223 . S
O164 C163 1.315 . S
O165 Cd155 2.240 . S
O165 C163 1.279 . S
O166 Cd156 2.297 . S
O166 C161 1.247 . S
O167 Cd156 2.439 . S
O167 C161 1.208 . S
O168 Cd169 2.223 . S
O168 C176 1.315 . S
Cd169 O168 2.223 . S
Cd169 O172 2.297 . S
Cd169 O173 2.439 . S
Cd169 O179 2.240 . S
Cd170 O171 2.240 . S
Cd170 O178 2.223 . S
Cd170 O180 2.297 . S
Cd170 O181 2.439 . S
O171 Cd170 2.240 . S
O171 C176 1.279 . S
O172 Cd169 2.297 . S
O172 C174 1.247 . S
O173 Cd169 2.439 . S
O173 C174 1.208 . S
C174 O172 1.247 . S
C174 O173 1.208 . S
C175 O180 1.247 . S
C175 O181 1.208 . S
C176 O168 1.315 . S
C176 O171 1.279 . S
C177 O178 1.315 . S
C177 O179 1.279 . S
O178 Cd170 2.223 . S
O178 C177 1.315 . S
O179 Cd169 2.240 . S
O179 C177 1.279 . S
O180 Cd170 2.297 . S
O180 C175 1.247 . S
O181 Cd170 2.439 . S
O181 C175 1.208 . S
O182 Cd183 2.223 . S
O182 C190 1.315 . S
Cd183 O182 2.223 . S
Cd183 O186 2.297 . S
Cd183 O187 2.439 . S
Cd183 O193 2.240 . S
Cd184 O185 2.240 . S
Cd184 O192 2.223 . S
Cd184 O194 2.297 . S
Cd184 O195 2.439 . S
O185 Cd184 2.240 . S
O185 C190 1.279 . S
O186 Cd183 2.297 . S
O186 C188 1.247 . S
O187 Cd183 2.439 . S
O187 C188 1.208 . S
C188 O186 1.247 . S
C188 O187 1.208 . S
C189 O194 1.247 . S
C189 O195 1.208 . S
C190 O182 1.315 . S
C190 O185 1.279 . S
C191 O192 1.315 . S
C191 O193 1.279 . S
O192 Cd184 2.223 . S
O192 C191 1.315 . S
O193 Cd183 2.240 . S
O193 C191 1.279 . S
O194 Cd184 2.297 . S
O194 C189 1.247 . S
O195 Cd184 2.439 . S
O195 C189 1.208 . S
O196 Cd197 2.223 . S
O196 C204 1.315 . S
Cd197 O196 2.223 . S
Cd197 O200 2.297 . S
Cd197 O201 2.439 . S
Cd197 O207 2.240 . S
Cd198 O199 2.240 . S
Cd198 O206 2.223 . S
Cd198 O208 2.297 . S
Cd198 O209 2.439 . S
O199 Cd198 2.240 . S
O199 C204 1.279 . S
O200 Cd197 2.297 . S
O200 C202 1.247 . S
O201 Cd197 2.439 . S
O201 C202 1.208 . S
C202 O200 1.247 . S
C202 O201 1.208 . S
C203 O208 1.247 . S
C203 O209 1.208 . S
C204 O196 1.315 . S
C204 O199 1.279 . S
C205 O206 1.315 . S
C205 O207 1.279 . S
O206 Cd198 2.223 . S
O206 C205 1.315 . S
O207 Cd197 2.240 . S
O207 C205 1.279 . S
O208 Cd198 2.297 . S
O208 C203 1.247 . S
O209 Cd198 2.439 . S
O209 C203 1.208 . S
O210 Cd211 2.223 . S
O210 C218 1.315 . S
Cd211 O210 2.223 . S
Cd211 O214 2.297 . S
Cd211 O215 2.439 . S
Cd211 O221 2.240 . S
Cd212 O213 2.240 . S
Cd212 O220 2.223 . S
Cd212 O222 2.297 . S
Cd212 O223 2.439 . S
O213 Cd212 2.240 . S
O213 C218 1.279 . S
O214 Cd211 2.297 . S
O214 C216 1.247 . S
O215 Cd211 2.439 . S
O215 C216 1.208 . S
C216 O214 1.247 . S
C216 O215 1.208 . S
C217 O222 1.247 . S
C217 O223 1.208 . S
C218 O210 1.315 . S
C218 O213 1.279 . S
C219 O220 1.315 . S
C219 O221 1.279 . S
O220 Cd212 2.223 . S
O220 C219 1.315 . S
O221 Cd211 2.240 . S
O221 C219 1.279 . S
O222 Cd212 2.297 . S
O222 C217 1.247 . S
O223 Cd212 2.439 . S
O223 C217 1.208 . S
O224 Cd225 2.223 . S
O224 C232 1.315 . S
Cd225 O224 2.223 . S
Cd225 O228 2.297 . S
Cd225 O229 2.439 . S
Cd225 O235 2.240 . S
Cd226 O227 2.240 . S
Cd226 O234 2.223 . S
Cd226 O236 2.297 . S
Cd226 O237 2.439 . S
O227 Cd226 2.240 . S
O227 C232 1.279 . S
O228 Cd225 2.297 . S
O228 C230 1.247 . S
O229 Cd225 2.439 . S
O229 C230 1.208 . S
C230 O228 1.247 . S
C230 O229 1.208 . S
C231 O236 1.247 . S
C231 O237 1.208 . S
C232 O224 1.315 . S
C232 O227 1.279 . S
C233 O234 1.315 . S
C233 O235 1.279 . S
O234 Cd226 2.223 . S
O234 C233 1.315 . S
O235 Cd225 2.240 . S
O235 C233 1.279 . S
O236 Cd226 2.297 . S
O236 C231 1.247 . S
O237 Cd226 2.439 . S
O237 C231 1.208 . S
O238 Cd239 2.223 . S
O238 C246 1.315 . S
Cd239 O238 2.223 . S
Cd239 O242 2.297 . S
Cd239 O243 2.439 . S
Cd239 O249 2.240 . S
Cd240 O241 2.240 . S
Cd240 O248 2.223 . S
Cd240 O250 2.297 . S
Cd240 O251 2.439 . S
O241 Cd240 2.240 . S
O241 C246 1.279 . S
O242 Cd239 2.297 . S
O242 C244 1.247 . S
O243 Cd239 2.439 . S
O243 C244 1.208 . S
C244 O242 1.247 . S
C244 O243 1.208 . S
C245 O250 1.247 . S
C245 O251 1.208 . S
C246 O238 1.315 . S
C246 O241 1.279 . S
C247 O248 1.315 . S
C247 O249 1.279 . S
O248 Cd240 2.223 . S
O248 C247 1.315 . S
O249 Cd239 2.240 . S
O249 C247 1.279 . S
O250 Cd240 2.297 . S
O250 C245 1.247 . S
O251 Cd240 2.439 . S
O251 C245 1.208 . S
O252 Cd253 2.223 . S
O252 C260 1.315 . S
Cd253 O252 2.223 . S
Cd253 O256 2.297 . S
Cd253 O257 2.439 . S
Cd253 O263 2.240 . S
Cd254 O255 2.240 . S
Cd254 O262 2.223 . S
Cd254 O264 2.297 . S
Cd254 O265 2.439 . S
O255 Cd254 2.240 . S
O255 C260 1.279 . S
O256 Cd253 2.297 . S
O256 C258 1.247 . S
O257 Cd253 2.439 . S
O257 C258 1.208 . S
C258 O256 1.247 . S
C258 O257 1.208 . S
C259 O264 1.247 . S
C259 O265 1.208 . S
C260 O252 1.315 . S
C260 O255 1.279 . S
C261 O262 1.315 . S
C261 O263 1.279 . S
O262 Cd254 2.223 . S
O262 C261 1.315 . S
O263 Cd253 2.240 . S
O263 C261 1.279 . S
O264 Cd254 2.297 . S
O264 C259 1.247 . S
O265 Cd254 2.439 . S
O265 C259 1.208 . S
O266 Cd267 2.223 . S
O266 C274 1.315 . S
Cd267 O266 2.223 . S
Cd267 O270 2.297 . S
Cd267 O271 2.439 . S
Cd267 O277 2.240 . S
Cd268 O269 2.240 . S
Cd268 O276 2.223 . S
Cd268 O278 2.297 . S
Cd268 O279 2.439 . S
O269 Cd268 2.240 . S
O269 C274 1.279 . S
O270 Cd267 2.297 . S
O270 C272 1.247 . S
O271 Cd267 2.439 . S
O271 C272 1.208 . S
C272 O270 1.247 . S
C272 O271 1.208 . S
C273 O278 1.247 . S
C273 O279 1.208 . S
C274 O266 1.315 . S
C274 O269 1.279 . S
C275 O276 1.315 . S
C275 O277 1.279 . S
O276 Cd268 2.223 . S
O276 C275 1.315 . S
O277 Cd267 2.240 . S
O277 C275 1.279 . S
O278 Cd268 2.297 . S
O278 C273 1.247 . S
O279 Cd268 2.439 . S
O279 C273 1.208 . S
O280 Cd281 2.223 . S
O280 C288 1.315 . S
Cd281 O280 2.223 . S
Cd281 O284 2.297 . S
Cd281 O285 2.439 . S
Cd281 O291 2.240 . S
Cd282 O283 2.240 . S
Cd282 O290 2.223 . S
Cd282 O292 2.297 . S
Cd282 O293 2.439 . S
O283 Cd282 2.240 . S
O283 C288 1.279 . S
O284 Cd281 2.297 . S
O284 C286 1.247 . S
O285 Cd281 2.439 . S
O285 C286 1.208 . S
C286 O284 1.247 . S
C286 O285 1.208 . S
C287 O292 1.247 . S
C287 O293 1.208 . S
C288 O280 1.315 . S
C288 O283 1.279 . S
C289 O290 1.315 . S
C289 O291 1.279 . S
O290 Cd282 2.223 . S
O290 C289 1.315 . S
O291 Cd281 2.240 . S
O291 C289 1.279 . S
O292 Cd282 2.297 . S
O292 C287 1.247 . S
O293 Cd282 2.439 . S
O293 C287 1.208 . S
O294 Cd295 2.223 . S
O294 C302 1.315 . S
Cd295 O294 2.223 . S
Cd295 O298 2.297 . S
Cd295 O299 2.439 . S
Cd295 O305 2.240 . S
Cd296 O297 2.240 . S
Cd296 O304 2.223 . S
Cd296 O306 2.297 . S
Cd296 O307 2.439 . S
O297 Cd296 2.240 . S
O297 C302 1.279 . S
O298 Cd295 2.297 . S
O298 C300 1.247 . S
O299 Cd295 2.439 . S
O299 C300 1.208 . S
C300 O298 1.247 . S
C300 O299 1.208 . S
C301 O306 1.247 . S
C301 O307 1.208 . S
C302 O294 1.315 . S
C302 O297 1.279 . S
C303 O304 1.315 . S
C303 O305 1.279 . S
O304 Cd296 2.223 . S
O304 C303 1.315 . S
O305 Cd295 2.240 . S
O305 C303 1.279 . S
O306 Cd296 2.297 . S
O306 C301 1.247 . S
O307 Cd296 2.439 . S
O307 C301 1.208 . S
O308 Cd309 2.223 . S
O308 C316 1.315 . S
Cd309 O308 2.223 . S
Cd309 O312 2.297 . S
Cd309 O313 2.439 . S
Cd309 O319 2.240 . S
Cd310 O311 2.240 . S
Cd310 O318 2.223 . S
Cd310 O320 2.297 . S
Cd310 O321 2.439 . S
O311 Cd310 2.240 . S
O311 C316 1.279 . S
O312 Cd309 2.297 . S
O312 C314 1.247 . S
O313 Cd309 2.439 . S
O313 C314 1.208 . S
C314 O312 1.247 . S
C314 O313 1.208 . S
C315 O320 1.247 . S
C315 O321 1.208 . S
C316 O308 1.315 . S
C316 O311 1.279 . S
C317 O318 1.315 . S
C317 O319 1.279 . S
O318 Cd310 2.223 . S
O318 C317 1.315 . S
O319 Cd309 2.240 . S
O319 C317 1.279 . S
O320 Cd310 2.297 . S
O320 C315 1.247 . S
O321 Cd310 2.439 . S
O321 C315 1.208 . S
O322 Cd323 2.223 . S
O322 C330 1.315 . S
Cd323 O322 2.223 . S
Cd323 O326 2.297 . S
Cd323 O327 2.439 . S
Cd323 O333 2.240 . S
Cd324 O325 2.240 . S
Cd324 O332 2.223 . S
Cd324 O334 2.297 . S
Cd324 O335 2.439 . S
O325 Cd324 2.240 . S
O325 C330 1.279 . S
O326 Cd323 2.297 . S
O326 C328 1.247 . S
O327 Cd323 2.439 . S
O327 C328 1.208 . S
C328 O326 1.247 . S
C328 O327 1.208 . S
C329 O334 1.247 . S
C329 O335 1.208 . S
C330 O322 1.315 . S
C330 O325 1.279 . S
C331 O332 1.315 . S
C331 O333 1.279 . S
O332 Cd324 2.223 . S
O332 C331 1.315 . S
O333 Cd323 2.240 . S
O333 C331 1.279 . S
O334 Cd324 2.297 . S
O334 C329 1.247 . S
O335 Cd324 2.439 . S
O335 C329 1.208 . S
O336 Cd337 2.223 . S
O336 C344 1.315 . S
Cd337 O336 2.223 . S
Cd337 O340 2.297 . S
Cd337 O341 2.439 . S
Cd337 O347 2.240 . S
Cd338 O339 2.240 . S
Cd338 O346 2.223 . S
Cd338 O348 2.297 . S
Cd338 O349 2.439 . S
O339 Cd338 2.240 . S
O339 C344 1.279 . S
O340 Cd337 2.297 . S
O340 C342 1.247 . S
O341 Cd337 2.439 . S
O341 C342 1.208 . S
C342 O340 1.247 . S
C342 O341 1.208 . S
C343 O348 1.247 . S
C343 O349 1.208 . S
C344 O336 1.315 . S
C344 O339 1.279 . S
C345 O346 1.315 . S
C345 O347 1.279 . S
O346 Cd338 2.223 . S
O346 C345 1.315 . S
O347 Cd337 2.240 . S
O347 C345 1.279 . S
O348 Cd338 2.297 . S
O348 C343 1.247 . S
O349 Cd338 2.439 . S
O349 C343 1.208 . S
O350 Cd351 2.223 . S
O350 C358 1.315 . S
Cd351 O350 2.223 . S
Cd351 O354 2.297 . S
Cd351 O355 2.439 . S
Cd351 O361 2.240 . S
Cd352 O353 2.240 . S
Cd352 O360 2.223 . S
Cd352 O362 2.297 . S
Cd352 O363 2.439 . S
O353 Cd352 2.240 . S
O353 C358 1.279 . S
O354 Cd351 2.297 . S
O354 C356 1.247 . S
O355 Cd351 2.439 . S
O355 C356 1.208 . S
C356 O354 1.247 . S
C356 O355 1.208 . S
C357 O362 1.247 . S
C357 O363 1.208 . S
C358 O350 1.315 . S
C358 O353 1.279 . S
C359 O360 1.315 . S
C359 O361 1.279 . S
O360 Cd352 2.223 . S
O360 C359 1.315 . S
O361 Cd351 2.240 . S
O361 C359 1.279 . S
O362 Cd352 2.297 . S
O362 C357 1.247 . S
O363 Cd352 2.439 . S
O363 C357 1.208 . S
O364 Cd365 2.223 . S
O364 C372 1.315 . S
Cd365 O364 2.223 . S
Cd365 O368 2.297 . S
Cd365 O369 2.439 . S
Cd365 O375 2.240 . S
Cd366 O367 2.240 . S
Cd366 O374 2.223 . S
Cd366 O376 2.297 . S
Cd366 O377 2.439 . S
O367 Cd366 2.240 . S
O367 C372 1.279 . S
O368 Cd365 2.297 . S
O368 C370 1.247 . S
O369 Cd365 2.439 . S
O369 C370 1.208 . S
C370 O368 1.247 . S
C370 O369 1.208 . S
C371 O376 1.247 . S
C371 O377 1.208 . S
C372 O364 1.315 . S
C372 O367 1.279 . S
C373 O374 1.315 . S
C373 O375 1.279 . S
O374 Cd366 2.223 . S
O374 C373 1.315 . S
O375 Cd365 2.240 . S
O375 C373 1.279 . S
O376 Cd366 2.297 . S
O376 C371 1.247 . S
O377 Cd366 2.439 . S
O377 C371 1.208 . S
O378 Cd379 2.223 . S
O378 C386 1.315 . S
Cd379 O378 2.223 . S
Cd379 O382 2.297 . S
Cd379 O383 2.439 . S
Cd379 O389 2.240 . S
Cd380 O381 2.240 . S
Cd380 O388 2.223 . S
Cd380 O390 2.297 . S
Cd380 O391 2.439 . S
O381 Cd380 2.240 . S
O381 C386 1.279 . S
O382 Cd379 2.297 . S
O382 C384 1.247 . S
O383 Cd379 2.439 . S
O383 C384 1.208 . S
C384 O382 1.247 . S
C384 O383 1.208 . S
C385 O390 1.247 . S
C385 O391 1.208 . S
C386 O378 1.315 . S
C386 O381 1.279 . S
C387 O388 1.315 . S
C387 O389 1.279 . S
O388 Cd380 2.223 . S
O388 C387 1.315 . S
O389 Cd379 2.240 . S
O389 C387 1.279 . S
O390 Cd380 2.297 . S
O390 C385 1.247 . S
O391 Cd380 2.439 . S
O391 C385 1.208 . S
O392 Cd393 2.223 . S
O392 C400 1.315 . S
Cd393 O392 2.223 . S
Cd393 O396 2.297 . S
Cd393 O397 2.439 . S
Cd393 O403 2.240 . S
Cd394 O395 2.240 . S
Cd394 O402 2.223 . S
Cd394 O404 2.297 . S
Cd394 O405 2.439 . S
O395 Cd394 2.240 . S
O395 C400 1.279 . S
O396 Cd393 2.297 . S
O396 C398 1.247 . S
O397 Cd393 2.439 . S
O397 C398 1.208 . S
C398 O396 1.247 . S
C398 O397 1.208 . S
C399 O404 1.247 . S
C399 O405 1.208 . S
C400 O392 1.315 . S
C400 O395 1.279 . S
C401 O402 1.315 . S
C401 O403 1.279 . S
O402 Cd394 2.223 . S
O402 C401 1.315 . S
O403 Cd393 2.240 . S
O403 C401 1.279 . S
O404 Cd394 2.297 . S
O404 C399 1.247 . S
O405 Cd394 2.439 . S
O405 C399 1.208 . S
O406 Cd407 2.223 . S
O406 C414 1.315 . S
Cd407 O406 2.223 . S
Cd407 O410 2.297 . S
Cd407 O411 2.439 . S
Cd407 O417 2.240 . S
Cd408 O409 2.240 . S
Cd408 O416 2.223 . S
Cd408 O418 2.297 . S
Cd408 O419 2.439 . S
O409 Cd408 2.240 . S
O409 C414 1.279 . S
O410 Cd407 2.297 . S
O410 C412 1.247 . S
O411 Cd407 2.439 . S
O411 C412 1.208 . S
C412 O410 1.247 . S
C412 O411 1.208 . S
C413 O418 1.247 . S
C413 O419 1.208 . S
C414 O406 1.315 . S
C414 O409 1.279 . S
C415 O416 1.315 . S
C415 O417 1.279 . S
O416 Cd408 2.223 . S
O416 C415 1.315 . S
O417 Cd407 2.240 . S
O417 C415 1.279 . S
O418 Cd408 2.297 . S
O418 C413 1.247 . S
O419 Cd408 2.439 . S
O419 C413 1.208 . S
O420 Cd421 2.223 . S
O420 C428 1.315 . S
Cd421 O420 2.223 . S
Cd421 O424 2.297 . S
Cd421 O425 2.439 . S
Cd421 O431 2.240 . S
Cd422 O423 2.240 . S
Cd422 O430 2.223 . S
Cd422 O432 2.297 . S
Cd422 O433 2.439 . S
O423 Cd422 2.240 . S
O423 C428 1.279 . S
O424 Cd421 2.297 . S
O424 C426 1.247 . S
O425 Cd421 2.439 . S
O425 C426 1.208 . S
C426 O424 1.247 . S
C426 O425 1.208 . S
C427 O432 1.247 . S
C427 O433 1.208 . S
C428 O420 1.315 . S
C428 O423 1.279 . S
C429 O430 1.315 . S
C429 O431 1.279 . S
O430 Cd422 2.223 . S
O430 C429 1.315 . S
O431 Cd421 2.240 . S
O431 C429 1.279 . S
O432 Cd422 2.297 . S
O432 C427 1.247 . S
O433 Cd422 2.439 . S
O433 C427 1.208 . S
O434 Cd435 2.223 . S
O434 C442 1.315 . S
Cd435 O434 2.223 . S
Cd435 O438 2.297 . S
Cd435 O439 2.439 . S
Cd435 O445 2.240 . S
Cd436 O437 2.240 . S
Cd436 O444 2.223 . S
Cd436 O446 2.297 . S
Cd436 O447 2.439 . S
O437 Cd436 2.240 . S
O437 C442 1.279 . S
O438 Cd435 2.297 . S
O438 C440 1.247 . S
O439 Cd435 2.439 . S
O439 C440 1.208 . S
C440 O438 1.247 . S
C440 O439 1.208 . S
C441 O446 1.247 . S
C441 O447 1.208 . S
C442 O434 1.315 . S
C442 O437 1.279 . S
C443 O444 1.315 . S
C443 O445 1.279 . S
O444 Cd436 2.223 . S
O444 C443 1.315 . S
O445 Cd435 2.240 . S
O445 C443 1.279 . S
O446 Cd436 2.297 . S
O446 C441 1.247 . S
O447 Cd436 2.439 . S
O447 C441 1.208 . S
O448 Cd449 2.223 . S
O448 C456 1.315 . S
Cd449 O448 2.223 . S
Cd449 O452 2.297 . S
Cd449 O453 2.439 . S
Cd449 O459 2.240 . S
Cd450 O451 2.240 . S
Cd450 O458 2.223 . S
Cd450 O460 2.297 . S
Cd450 O461 2.439 . S
O451 Cd450 2.240 . S
O451 C456 1.279 . S
O452 Cd449 2.297 . S
O452 C454 1.247 . S
O453 Cd449 2.439 . S
O453 C454 1.208 . S
C454 O452 1.247 . S
C454 O453 1.208 . S
C455 O460 1.247 . S
C455 O461 1.208 . S
C456 O448 1.315 . S
C456 O451 1.279 . S
C457 O458 1.315 . S
C457 O459 1.279 . S
O458 Cd450 2.223 . S
O458 C457 1.315 . S
O459 Cd449 2.240 . S
O459 C457 1.279 . S
O460 Cd450 2.297 . S
O460 C455 1.247 . S
O461 Cd450 2.439 . S
O461 C455 1.208 . S
O462 Cd463 2.223 . S
O462 C470 1.315 . S
Cd463 O462 2.223 . S
Cd463 O466 2.297 . S
Cd463 O467 2.439 . S
Cd463 O473 2.240 . S
Cd464 O465 2.240 . S
Cd464 O472 2.223 . S
Cd464 O474 2.297 . S
Cd464 O475 2.439 . S
O465 Cd464 2.240 . S
O465 C470 1.279 . S
O466 Cd463 2.297 . S
O466 C468 1.247 . S
O467 Cd463 2.439 . S
O467 C468 1.208 . S
C468 O466 1.247 . S
C468 O467 1.208 . S
C469 O474 1.247 . S
C469 O475 1.208 . S
C470 O462 1.315 . S
C470 O465 1.279 . S
C471 O472 1.315 . S
C471 O473 1.279 . S
O472 Cd464 2.223 . S
O472 C471 1.315 . S
O473 Cd463 2.240 . S
O473 C471 1.279 . S
O474 Cd464 2.297 . S
O474 C469 1.247 . S
O475 Cd464 2.439 . S
O475 C469 1.208 . S
O476 Cd477 2.223 . S
O476 C484 1.315 . S
Cd477 O476 2.223 . S
Cd477 O480 2.297 . S
Cd477 O481 2.439 . S
Cd477 O487 2.240 . S
Cd478 O479 2.240 . S
Cd478 O486 2.223 . S
Cd478 O488 2.297 . S
Cd478 O489 2.439 . S
O479 Cd478 2.240 . S
O479 C484 1.279 . S
O480 Cd477 2.297 . S
O480 C482 1.247 . S
O481 Cd477 2.439 . S
O481 C482 1.208 . S
C482 O480 1.247 . S
C482 O481 1.208 . S
C483 O488 1.247 . S
C483 O489 1.208 . S
C484 O476 1.315 . S
C484 O479 1.279 . S
C485 O486 1.315 . S
C485 O487 1.279 . S
O486 Cd478 2.223 . S
O486 C485 1.315 . S
O487 Cd477 2.240 . S
O487 C485 1.279 . S
O488 Cd478 2.297 . S
O488 C483 1.247 . S
O489 Cd478 2.439 . S
O489 C483 1.208 . S
O490 Cd491 2.223 . S
O490 C498 1.315 . S
Cd491 O490 2.223 . S
Cd491 O494 2.297 . S
Cd491 O495 2.439 . S
Cd491 O501 2.240 . S
Cd492 O493 2.240 . S
Cd492 O500 2.223 . S
Cd492 O502 2.297 . S
Cd492 O503 2.439 . S
O493 Cd492 2.240 . S
O493 C498 1.279 . S
O494 Cd491 2.297 . S
O494 C496 1.247 . S
O495 Cd491 2.439 . S
O495 C496 1.208 . S
C496 O494 1.247 . S
C496 O495 1.208 . S
C497 O502 1.247 . S
C497 O503 1.208 . S
C498 O490 1.315 . S
C498 O493 1.279 . S
C499 O500 1.315 . S
C499 O501 1.279 . S
O500 Cd492 2.223 . S
O500 C499 1.315 . S
O501 Cd491 2.240 . S
O501 C499 1.279 . S
O502 Cd492 2.297 . S
O502 C497 1.247 . S
O503 Cd492 2.439 . S
O503 C497 1.208 . S
C504 C505 1.363 . S
C504 C510 1.379 . S
C504 N512 1.356 . S
C505 C504 1.363 . S
C505 C511 1.363 . S
C506 C507 1.363 . S
C506 C511 1.379 . S
C506 N513 1.356 . S
C507 C506 1.363 . S
C507 C510 1.363 . S
N508 C510 1.356 . S
N508 H520 0.984 . S
N508 H521 0.985 . S
N509 C511 1.356 . S
N509 H514 0.984 . S
N509 H515 0.985 . S
C510 C504 1.379 . S
C510 C507 1.363 . S
C510 N508 1.356 . S
C511 C505 1.363 . S
C511 C506 1.379 . S
C511 N509 1.356 . S
N512 C504 1.356 . S
N512 H518 0.984 . S
N512 H519 0.984 . S
N513 C506 1.356 . S
N513 H516 0.984 . S
N513 H517 0.985 . S
H514 N509 0.984 . S
H515 N509 0.985 . S
H516 N513 0.984 . S
H517 N513 0.985 . S
H518 N512 0.984 . S
H519 N512 0.984 . S
H520 N508 0.984 . S
H521 N508 0.985 . S
C522 C523 1.363 . S
C522 C528 1.379 . S
C522 N530 1.356 . S
C523 C522 1.363 . S
C523 C529 1.363 . S
C524 C525 1.363 . S
C524 C529 1.379 . S
C524 N531 1.356 . S
C525 C524 1.363 . S
C525 C528 1.363 . S
N526 C528 1.356 . S
N526 H538 0.984 . S
N526 H539 0.985 . S
N527 C529 1.356 . S
N527 H532 0.984 . S
N527 H533 0.985 . S
C528 C522 1.379 . S
C528 C525 1.363 . S
C528 N526 1.356 . S
C529 C523 1.363 . S
C529 C524 1.379 . S
C529 N527 1.356 . S
N530 C522 1.356 . S
N530 H536 0.984 . S
N530 H537 0.984 . S
N531 C524 1.356 . S
N531 H534 0.984 . S
N531 H535 0.985 . S
H532 N527 0.984 . S
H533 N527 0.985 . S
H534 N531 0.984 . S
H535 N531 0.985 . S
H536 N530 0.984 . S
H537 N530 0.984 . S
H538 N526 0.984 . S
H539 N526 0.985 . S
C540 C541 1.363 . S
C540 C546 1.379 . S
C540 N548 1.356 . S
C541 C540 1.363 . S
C541 C547 1.363 . S
C542 C543 1.363 . S
C542 C547 1.379 . S
C542 N549 1.356 . S
C543 C542 1.363 . S
C543 C546 1.363 . S
N544 C546 1.356 . S
N544 H556 0.984 . S
N544 H557 0.985 . S
N545 C547 1.356 . S
N545 H550 0.984 . S
N545 H551 0.985 . S
C546 C540 1.379 . S
C546 C543 1.363 . S
C546 N544 1.356 . S
C547 C541 1.363 . S
C547 C542 1.379 . S
C547 N545 1.356 . S
N548 C540 1.356 . S
N548 H554 0.984 . S
N548 H555 0.984 . S
N549 C542 1.356 . S
N549 H552 0.984 . S
N549 H553 0.985 . S
H550 N545 0.984 . S
H551 N545 0.985 . S
H552 N549 0.984 . S
H553 N549 0.985 . S
H554 N548 0.984 . S
H555 N548 0.984 . S
H556 N544 0.984 . S
H557 N544 0.985 . S
C558 C559 1.363 . S
C558 C564 1.379 . S
C558 N566 1.356 . S
C559 C558 1.363 . S
C559 C565 1.363 . S
C560 C561 1.363 . S
C560 C565 1.379 . S
C560 N567 1.356 . S
C561 C560 1.363 . S
C561 C564 1.363 . S
N562 C564 1.356 . S
N562 H574 0.984 . S
N562 H575 0.985 . S
N563 C565 1.356 . S
N563 H568 0.984 . S
N563 H569 0.985 . S
C564 C558 1.379 . S
C564 C561 1.363 . S
C564 N562 1.356 . S
C565 C559 1.363 . S
C565 C560 1.379 . S
C565 N563 1.356 . S
N566 C558 1.356 . S
N566 H572 0.984 . S
N566 H573 0.984 . S
N567 C560 1.356 . S
N567 H570 0.984 . S
N567 H571 0.985 . S
H568 N563 0.984 . S
H569 N563 0.985 . S
H570 N567 0.984 . S
H571 N567 0.985 . S
H572 N566 0.984 . S
H573 N566 0.984 . S
H574 N562 0.984 . S
H575 N562 0.985 . S
C576 C577 1.363 . S
C576 C582 1.379 . S
C576 N584 1.356 . S
C577 C576 1.363 . S
C577 C583 1.363 . S
C578 C579 1.363 . S
C578 C583 1.379 . S
C578 N585 1.356 . S
C579 C578 1.363 . S
C579 C582 1.363 . S
N580 C582 1.356 . S
N580 H592 0.984 . S
N580 H593 0.985 . S
N581 C583 1.356 . S
N581 H586 0.984 . S
N581 H587 0.985 . S
C582 C576 1.379 . S
C582 C579 1.363 . S
C582 N580 1.356 . S
C583 C577 1.363 . S
C583 C578 1.379 . S
C583 N581 1.356 . S
N584 C576 1.356 . S
N584 H590 0.984 . S
N584 H591 0.984 . S
N585 C578 1.356 . S
N585 H588 0.984 . S
N585 H589 0.985 . S
H586 N581 0.984 . S
H587 N581 0.985 . S
H588 N585 0.984 . S
H589 N585 0.985 . S
H590 N584 0.984 . S
H591 N584 0.984 . S
H592 N580 0.984 . S
H593 N580 0.985 . S
C594 C595 1.363 . S
C594 C600 1.379 . S
C594 N602 1.356 . S
C595 C594 1.363 . S
C595 C601 1.363 . S
C596 C597 1.363 . S
C596 C601 1.379 . S
C596 N603 1.356 . S
C597 C596 1.363 . S
C597 C600 1.363 . S
N598 C600 1.356 . S
N598 H610 0.984 . S
N598 H611 0.985 . S
N599 C601 1.356 . S
N599 H604 0.984 . S
N599 H605 0.985 . S
C600 C594 1.379 . S
C600 C597 1.363 . S
C600 N598 1.356 . S
C601 C595 1.363 . S
C601 C596 1.379 . S
C601 N599 1.356 . S
N602 C594 1.356 . S
N602 H608 0.984 . S
N602 H609 0.984 . S
N603 C596 1.356 . S
N603 H606 0.984 . S
N603 H607 0.985 . S
H604 N599 0.984 . S
H605 N599 0.985 . S
H606 N603 0.984 . S
H607 N603 0.985 . S
H608 N602 0.984 . S
H609 N602 0.984 . S
H610 N598 0.984 . S
H611 N598 0.985 . S
C612 C613 1.363 . S
C612 C618 1.379 . S
C612 N620 1.356 . S
C613 C612 1.363 . S
C613 C619 1.363 . S
C614 C615 1.363 . S
C614 C619 1.379 . S
C614 N621 1.356 . S
C615 C614 1.363 . S
C615 C618 1.363 . S
N616 C618 1.356 . S
N616 H628 0.984 . S
N616 H629 0.985 . S
N617 C619 1.356 . S
N617 H622 0.984 . S
N617 H623 0.985 . S
C618 C612 1.379 . S
C618 C615 1.363 . S
C618 N616 1.356 . S
C619 C613 1.363 . S
C619 C614 1.379 . S
C619 N617 1.356 . S
N620 C612 1.356 . S
N620 H626 0.984 . S
N620 H627 0.984 . S
N621 C614 1.356 . S
N621 H624 0.984 . S
N621 H625 0.985 . S
H622 N617 0.984 . S
H623 N617 0.985 . S
H624 N621 0.984 . S
H625 N621 0.985 . S
H626 N620 0.984 . S
H627 N620 0.984 . S
H628 N616 0.984 . S
H629 N616 0.985 . S
C630 C631 1.363 . S
C630 C636 1.379 . S
C630 N638 1.356 . S
C631 C630 1.363 . S
C631 C637 1.363 . S
C632 C633 1.363 . S
C632 C637 1.379 . S
C632 N639 1.356 . S
C633 C632 1.363 . S
C633 C636 1.363 . S
N634 C636 1.356 . S
N634 H646 0.984 . S
N634 H647 0.985 . S
N635 C637 1.356 . S
N635 H640 0.984 . S
N635 H641 0.985 . S
C636 C630 1.379 . S
C636 C633 1.363 . S
C636 N634 1.356 . S
C637 C631 1.363 . S
C637 C632 1.379 . S
C637 N635 1.356 . S
N638 C630 1.356 . S
N638 H644 0.984 . S
N638 H645 0.984 . S
N639 C632 1.356 . S
N639 H642 0.984 . S
N639 H643 0.985 . S
H640 N635 0.984 . S
H641 N635 0.985 . S
H642 N639 0.984 . S
H643 N639 0.985 . S
H644 N638 0.984 . S
H645 N638 0.984 . S
H646 N634 0.984 . S
H647 N634 0.985 . S
C648 C649 1.363 . S
C648 C654 1.379 . S
C648 N656 1.356 . S
C649 C648 1.363 . S
C649 C655 1.363 . S
C650 C651 1.363 . S
C650 C655 1.379 . S
C650 N657 1.356 . S
C651 C650 1.363 . S
C651 C654 1.363 . S
N652 C654 1.356 . S
N652 H664 0.984 . S
N652 H665 0.985 . S
N653 C655 1.356 . S
N653 H658 0.984 . S
N653 H659 0.985 . S
C654 C648 1.379 . S
C654 C651 1.363 . S
C654 N652 1.356 . S
C655 C649 1.363 . S
C655 C650 1.379 . S
C655 N653 1.356 . S
N656 C648 1.356 . S
N656 H662 0.984 . S
N656 H663 0.984 . S
N657 C650 1.356 . S
N657 H660 0.984 . S
N657 H661 0.985 . S
H658 N653 0.984 . S
H659 N653 0.985 . S
H660 N657 0.984 . S
H661 N657 0.985 . S
H662 N656 0.984 . S
H663 N656 0.984 . S
H664 N652 0.984 . S
H665 N652 0.985 . S
C666 C667 1.363 . S
C666 C672 1.379 . S
C666 N674 1.356 . S
C667 C666 1.363 . S
C667 C673 1.363 . S
C668 C669 1.363 . S
C668 C673 1.379 . S
C668 N675 1.356 . S
C669 C668 1.363 . S
C669 C672 1.363 . S
N670 C672 1.356 . S
N670 H682 0.984 . S
N670 H683 0.985 . S
N671 C673 1.356 . S
N671 H676 0.984 . S
N671 H677 0.985 . S
C672 C666 1.379 . S
C672 C669 1.363 . S
C672 N670 1.356 . S
C673 C667 1.363 . S
C673 C668 1.379 . S
C673 N671 1.356 . S
N674 C666 1.356 . S
N674 H680 0.984 . S
N674 H681 0.984 . S
N675 C668 1.356 . S
N675 H678 0.984 . S
N675 H679 0.985 . S
H676 N671 0.984 . S
H677 N671 0.985 . S
H678 N675 0.984 . S
H679 N675 0.985 . S
H680 N674 0.984 . S
H681 N674 0.984 . S
H682 N670 0.984 . S
H683 N670 0.985 . S
C684 C685 1.363 . S
C684 C690 1.379 . S
C684 N692 1.356 . S
C685 C684 1.363 . S
C685 C691 1.363 . S
C686 C687 1.363 . S
C686 C691 1.379 . S
C686 N693 1.356 . S
C687 C686 1.363 . S
C687 C690 1.363 . S
N688 C690 1.356 . S
N688 H700 0.984 . S
N688 H701 0.985 . S
N689 C691 1.356 . S
N689 H694 0.984 . S
N689 H695 0.985 . S
C690 C684 1.379 . S
C690 C687 1.363 . S
C690 N688 1.356 . S
C691 C685 1.363 . S
C691 C686 1.379 . S
C691 N689 1.356 . S
N692 C684 1.356 . S
N692 H698 0.984 . S
N692 H699 0.984 . S
N693 C686 1.356 . S
N693 H696 0.984 . S
N693 H697 0.985 . S
H694 N689 0.984 . S
H695 N689 0.985 . S
H696 N693 0.984 . S
H697 N693 0.985 . S
H698 N692 0.984 . S
H699 N692 0.984 . S
H700 N688 0.984 . S
H701 N688 0.985 . S
C702 C703 1.363 . S
C702 C708 1.379 . S
C702 N710 1.356 . S
C703 C702 1.363 . S
C703 C709 1.363 . S
C704 C705 1.363 . S
C704 C709 1.379 . S
C704 N711 1.356 . S
C705 C704 1.363 . S
C705 C708 1.363 . S
N706 C708 1.356 . S
N706 H718 0.984 . S
N706 H719 0.985 . S
N707 C709 1.356 . S
N707 H712 0.984 . S
N707 H713 0.985 . S
C708 C702 1.379 . S
C708 C705 1.363 . S
C708 N706 1.356 . S
C709 C703 1.363 . S
C709 C704 1.379 . S
C709 N707 1.356 . S
N710 C702 1.356 . S
N710 H716 0.984 . S
N710 H717 0.984 . S
N711 C704 1.356 . S
N711 H714 0.984 . S
N711 H715 0.985 . S
H712 N707 0.984 . S
H713 N707 0.985 . S
H714 N711 0.984 . S
H715 N711 0.985 . S
H716 N710 0.984 . S
H717 N710 0.984 . S
H718 N706 0.984 . S
H719 N706 0.985 . S
C720 C721 1.363 . S
C720 C726 1.379 . S
C720 N728 1.356 . S
C721 C720 1.363 . S
C721 C727 1.363 1_655 S
C722 C723 1.363 . S
C722 C727 1.379 . S
C722 N729 1.356 . S
C723 C722 1.363 . S
C723 C726 1.363 1_455 S
N724 C726 1.356 . S
N724 H736 0.984 . S
N724 H737 0.985 1_655 S
N725 C727 1.356 . S
N725 H730 0.984 1_455 S
N725 H731 0.985 . S
C726 C720 1.379 . S
C726 C723 1.363 1_655 S
C726 N724 1.356 . S
C727 C721 1.363 1_455 S
C727 C722 1.379 . S
C727 N725 1.356 . S
N728 C720 1.356 . S
N728 H734 0.984 . S
N728 H735 0.984 . S
N729 C722 1.356 . S
N729 H732 0.984 . S
N729 H733 0.985 . S
H730 N725 0.984 1_655 S
H731 N725 0.985 . S
H732 N729 0.984 . S
H733 N729 0.985 . S
H734 N728 0.984 . S
H735 N728 0.984 . S
H736 N724 0.984 . S
H737 N724 0.985 1_455 S
C738 C739 1.363 . S
C738 C744 1.379 . S
C738 N746 1.356 . S
C739 C738 1.363 . S
C739 C745 1.363 . S
C740 C741 1.363 . S
C740 C745 1.379 . S
C740 N747 1.356 . S
C741 C740 1.363 . S
C741 C744 1.363 . S
N742 C744 1.356 . S
N742 H754 0.984 . S
N742 H755 0.985 . S
N743 C745 1.356 . S
N743 H748 0.984 . S
N743 H749 0.985 . S
C744 C738 1.379 . S
C744 C741 1.363 . S
C744 N742 1.356 . S
C745 C739 1.363 . S
C745 C740 1.379 . S
C745 N743 1.356 . S
N746 C738 1.356 . S
N746 H752 0.984 . S
N746 H753 0.984 . S
N747 C740 1.356 . S
N747 H750 0.984 . S
N747 H751 0.985 . S
H748 N743 0.984 . S
H749 N743 0.985 . S
H750 N747 0.984 . S
H751 N747 0.985 . S
H752 N746 0.984 . S
H753 N746 0.984 . S
H754 N742 0.984 . S
H755 N742 0.985 . S
C756 C757 1.363 1_565 S
C756 C762 1.379 . S
C756 N764 1.356 . S
C757 C756 1.363 1_545 S
C757 C763 1.363 . S
C758 C759 1.363 1_545 S
C758 C763 1.379 . S
C758 N765 1.356 . S
C759 C758 1.363 1_565 S
C759 C762 1.363 . S
N760 C762 1.356 . S
N760 H772 0.984 . S
N760 H773 0.985 . S
N761 C763 1.356 . S
N761 H766 0.984 . S
N761 H767 0.985 . S
C762 C756 1.379 . S
C762 C759 1.363 . S
C762 N760 1.356 . S
C763 C757 1.363 . S
C763 C758 1.379 . S
C763 N761 1.356 . S
N764 C756 1.356 . S
N764 H770 0.984 . S
N764 H771 0.984 1_565 S
N765 C758 1.356 . S
N765 H768 0.984 1_545 S
N765 H769 0.985 . S
H766 N761 0.984 . S
H767 N761 0.985 . S
H768 N765 0.984 1_565 S
H769 N765 0.985 . S
H770 N764 0.984 . S
H771 N764 0.984 1_545 S
H772 N760 0.984 . S
H773 N760 0.985 . S
C774 C775 1.363 1_565 S
C774 C780 1.389 . S
C774 N782 1.356 . S
C775 C774 1.363 1_545 S
C775 C781 1.353 1_556 S
C776 C777 1.363 1_545 S
C776 C781 1.389 . S
C776 N783 1.356 . S
C777 C776 1.363 1_565 S
C777 C780 1.353 1_554 S
N778 C780 1.353 1_554 S
N778 H790 0.984 1_554 S
N778 H791 0.985 . S
N779 C781 1.353 1_556 S
N779 H784 0.984 . S
N779 H785 0.985 1_556 S
C780 C774 1.389 . S
C780 C777 1.353 1_556 S
C780 N778 1.353 1_556 S
C781 C775 1.353 1_554 S
C781 C776 1.389 . S
C781 N779 1.353 1_554 S
N782 C774 1.356 . S
N782 H788 0.984 . S
N782 H789 0.984 1_565 S
N783 C776 1.356 . S
N783 H786 0.984 1_545 S
N783 H787 0.985 . S
H784 N779 0.984 . S
H785 N779 0.985 1_554 S
H786 N783 0.984 1_565 S
H787 N783 0.985 . S
H788 N782 0.984 . S
H789 N782 0.984 1_545 S
H790 N778 0.984 1_556 S
H791 N778 0.985 . S
C792 C793 1.363 1_455 S
C792 C798 1.379 . S
C792 N800 1.356 . S
C793 C792 1.363 1_655 S
C793 C799 1.363 1_556 S
C794 C795 1.363 1_655 S
C794 C799 1.379 . S
C794 N801 1.356 . S
C795 C794 1.363 1_455 S
C795 C798 1.363 1_554 S
N796 C798 1.357 . S
N796 H808 0.990 . S
N796 H809 0.978 1_556 S
N797 C799 1.357 . S
N797 H802 0.978 1_554 S
N797 H803 0.990 . S
C798 C792 1.379 . S
C798 C795 1.363 1_556 S
C798 N796 1.357 . S
C799 C793 1.363 1_554 S
C799 C794 1.379 . S
C799 N797 1.357 . S
N800 C792 1.356 . S
N800 H806 0.984 . S
N800 H807 0.984 1_455 S
N801 C794 1.356 . S
N801 H804 0.984 1_655 S
N801 H805 0.985 . S
H802 N797 0.978 1_556 S
H803 N797 0.990 . S
H804 N801 0.984 1_455 S
H805 N801 0.985 . S
H806 N800 0.984 . S
H807 N800 0.984 1_655 S
H808 N796 0.990 . S
H809 N796 0.978 1_554 S
C810 C811 1.363 . S
C810 C816 1.379 1_556 S
C810 N818 1.356 . S
C811 C810 1.363 . S
C811 C817 1.363 . S
C812 C813 1.363 . S
C812 C817 1.379 1_554 S
C812 N819 1.356 . S
C813 C812 1.363 . S
C813 C816 1.363 . S
N814 C816 1.356 . S
N814 H826 0.984 . S
N814 H827 0.985 . S
N815 C817 1.356 . S
N815 H820 0.984 . S
N815 H821 0.985 . S
C816 C810 1.379 1_554 S
C816 C813 1.363 . S
C816 N814 1.356 . S
C817 C811 1.363 . S
C817 C812 1.379 1_556 S
C817 N815 1.356 . S
N818 C810 1.356 . S
N818 H824 0.984 . S
N818 H825 0.984 . S
N819 C812 1.356 . S
N819 H822 0.984 . S
N819 H823 0.985 . S
H820 N815 0.984 . S
H821 N815 0.985 . S
H822 N819 0.984 . S
H823 N819 0.985 . S
H824 N818 0.984 . S
H825 N818 0.984 . S
H826 N814 0.984 . S
H827 N814 0.985 . S
C828 C829 1.363 . S
C828 C834 1.379 . S
C828 N836 1.356 . S
C829 C828 1.363 . S
C829 C835 1.363 . S
C830 C831 1.363 . S
C830 C835 1.379 1_554 S
C830 N837 1.356 . S
C831 C830 1.363 . S
C831 C834 1.363 1_554 S
N832 C834 1.356 . S
N832 H844 0.984 . S
N832 H845 0.985 . S
N833 C835 1.355 1_564 S
N833 H838 0.973 1_554 S
N833 H839 0.998 . S
C834 C828 1.379 . S
C834 C831 1.363 1_556 S
C834 N832 1.356 . S
C835 C829 1.363 . S
C835 C830 1.379 1_556 S
C835 N833 1.355 1_546 S
N836 C828 1.356 . S
N836 H842 0.984 . S
N836 H843 0.984 . S
N837 C830 1.356 . S
N837 H840 0.984 . S
N837 H841 0.985 . S
H838 N833 0.973 1_556 S
H839 N833 0.998 . S
H840 N837 0.984 . S
H841 N837 0.985 . S
H842 N836 0.984 . S
H843 N836 0.984 . S
H844 N832 0.984 . S
H845 N832 0.985 . S
C846 C847 1.406 . S
C846 C852 1.355 1_556 S
C846 N854 1.351 1_656 S
C847 C846 1.406 . S
C847 C853 1.363 . S
C848 C849 1.363 1_556 S
C848 C853 1.379 . S
C848 N855 1.356 . S
C849 C848 1.363 1_554 S
C849 C852 1.363 . S
N850 C852 1.356 . S
N850 H862 0.984 . S
N850 H863 0.985 . S
N851 C853 1.356 . S
N851 H856 0.984 . S
N851 H857 0.985 . S
C852 C846 1.355 1_554 S
C852 C849 1.363 . S
C852 N850 1.356 . S
C853 C847 1.363 . S
C853 C848 1.379 . S
C853 N851 1.356 . S
N854 C846 1.351 1_454 S
N854 H860 0.984 . S
N854 H861 0.984 1_554 S
N855 C848 1.356 . S
N855 H858 0.984 . S
N855 H859 0.985 . S
H856 N851 0.984 . S
H857 N851 0.985 . S
H858 N855 0.984 . S
H859 N855 0.985 . S
H860 N854 0.984 . S
H861 N854 0.984 1_556 S
H862 N850 0.984 . S
H863 N850 0.985 . S
C864 C865 1.363 1_556 S
C864 C870 1.379 . S
C864 N872 1.356 . S
C865 C864 1.363 1_554 S
C865 C871 1.363 . S
C866 C867 1.363 . S
C866 C871 1.379 1_556 S
C866 N873 1.356 1_556 S
C867 C866 1.363 . S
C867 C870 1.363 . S
N868 C870 1.356 . S
N868 H880 0.984 . S
N868 H881 0.985 . S
N869 C871 1.356 . S
N869 H874 0.984 . S
N869 H875 0.985 . S
C870 C864 1.379 . S
C870 C867 1.363 . S
C870 N868 1.356 . S
C871 C865 1.363 . S
C871 C866 1.379 1_554 S
C871 N869 1.356 . S
N872 C864 1.356 . S
N872 H878 0.984 . S
N872 H879 0.984 . S
N873 C866 1.356 1_554 S
N873 H876 0.984 1_554 S
N873 H877 0.985 . S
H874 N869 0.984 . S
H875 N869 0.985 . S
H876 N873 0.984 1_556 S
H877 N873 0.985 . S
H878 N872 0.984 . S
H879 N872 0.984 . S
H880 N868 0.984 . S
H881 N868 0.985 . S
C882 C883 1.363 . S
C882 C888 1.379 . S
C882 N890 1.356 1_455 S
C883 C882 1.363 . S
C883 C889 1.363 . S
C884 C885 1.363 . S
C884 C889 1.379 . S
C884 N891 1.356 . S
C885 C884 1.363 . S
C885 C888 1.363 . S
N886 C888 1.356 . S
N886 H898 0.984 . S
N886 H899 0.985 . S
N887 C889 1.356 . S
N887 H892 0.984 1_455 S
N887 H893 0.985 . S
C888 C882 1.379 . S
C888 C885 1.363 . S
C888 N886 1.356 . S
C889 C883 1.363 . S
C889 C884 1.379 . S
C889 N887 1.356 . S
N890 C882 1.356 1_655 S
N890 H896 0.984 1_655 S
N890 H897 0.984 . S
N891 C884 1.356 . S
N891 H894 0.984 . S
N891 H895 0.985 . S
H892 N887 0.984 1_655 S
H893 N887 0.985 . S
H894 N891 0.984 . S
H895 N891 0.985 . S
H896 N890 0.984 1_455 S
H897 N890 0.984 . S
H898 N886 0.984 . S
H899 N886 0.985 . S
C900 C901 1.363 . S
C900 C906 1.379 . S
C900 N908 1.356 . S
C901 C900 1.363 . S
C901 C907 1.363 . S
C902 C903 1.363 . S
C902 C907 1.379 . S
C902 N909 1.356 . S
C903 C902 1.363 . S
C903 C906 1.363 . S
N904 C906 1.356 . S
N904 H916 0.984 . S
N904 H917 0.985 . S
N905 C907 1.356 . S
N905 H910 0.984 . S
N905 H911 0.985 . S
C906 C900 1.379 . S
C906 C903 1.363 . S
C906 N904 1.356 . S
C907 C901 1.363 . S
C907 C902 1.379 . S
C907 N905 1.356 . S
N908 C900 1.356 . S
N908 H914 0.984 . S
N908 H915 0.984 . S
N909 C902 1.356 . S
N909 H912 0.984 . S
N909 H913 0.985 . S
H910 N905 0.984 . S
H911 N905 0.985 . S
H912 N909 0.984 . S
H913 N909 0.985 . S
H914 N908 0.984 . S
H915 N908 0.984 . S
H916 N904 0.984 . S
H917 N904 0.985 . S
C918 C919 1.363 . S
C918 C924 1.379 . S
C918 N926 1.356 1_565 S
C919 C918 1.363 . S
C919 C925 1.363 . S
C920 C921 1.363 . S
C920 C925 1.379 . S
C920 N927 1.356 . S
C921 C920 1.363 . S
C921 C924 1.363 . S
N922 C924 1.356 . S
N922 H934 0.984 . S
N922 H935 0.985 . S
N923 C925 1.356 . S
N923 H928 0.984 . S
N923 H929 0.985 . S
C924 C918 1.379 . S
C924 C921 1.363 . S
C924 N922 1.356 . S
C925 C919 1.363 . S
C925 C920 1.379 . S
C925 N923 1.356 . S
N926 C918 1.356 1_545 S
N926 H932 0.984 . S
N926 H933 0.984 . S
N927 C920 1.356 . S
N927 H930 0.984 . S
N927 H931 0.985 . S
H928 N923 0.984 . S
H929 N923 0.985 . S
H930 N927 0.984 . S
H931 N927 0.985 . S
H932 N926 0.984 . S
H933 N926 0.984 . S
H934 N922 0.984 . S
H935 N922 0.985 . S
C936 C937 1.363 1_554 S
C936 C942 1.379 . S
C936 N944 1.356 . S
C937 C936 1.363 1_556 S
C937 C943 1.363 . S
C938 C939 1.363 . S
C938 C943 1.379 1_554 S
C938 N945 1.356 1_565 S
C939 C938 1.363 . S
C939 C942 1.363 . S
N940 C942 1.356 . S
N940 H952 0.984 . S
N940 H953 0.985 1_565 S
N941 C943 1.356 . S
N941 H946 0.984 . S
N941 H947 0.985 . S
C942 C936 1.379 . S
C942 C939 1.363 . S
C942 N940 1.356 . S
C943 C937 1.363 . S
C943 C938 1.379 1_556 S
C943 N941 1.356 . S
N944 C936 1.356 . S
N944 H950 0.984 . S
N944 H951 0.984 . S
N945 C938 1.356 1_545 S
N945 H948 0.984 . S
N945 H949 0.985 1_554 S
H946 N941 0.984 . S
H947 N941 0.985 . S
H948 N945 0.984 . S
H949 N945 0.985 1_556 S
H950 N944 0.984 . S
H951 N944 0.984 . S
H952 N940 0.984 . S
H953 N940 0.985 1_545 S
C954 C955 1.363 . S
C954 C960 1.379 1_556 S
C954 N962 1.356 . S
C955 C954 1.363 . S
C955 C961 1.363 1_556 S
C956 C957 1.363 . S
C956 C961 1.379 . S
C956 N963 1.356 . S
C957 C956 1.363 . S
C957 C960 1.363 . S
N958 C960 1.354 1_656 S
N958 H970 1.007 . S
N958 H971 0.965 1_556 S
N959 C961 1.356 . S
N959 H964 0.984 . S
N959 H965 0.985 . S
C960 C954 1.379 1_554 S
C960 C957 1.363 . S
C960 N958 1.354 1_454 S
C961 C955 1.363 1_554 S
C961 C956 1.379 . S
C961 N959 1.356 . S
N962 C954 1.356 . S
N962 H968 0.984 . S
N962 H969 0.984 . S
N963 C956 1.356 . S
N963 H966 0.984 . S
N963 H967 0.985 . S
H964 N959 0.984 . S
H965 N959 0.985 . S
H966 N963 0.984 . S
H967 N963 0.985 . S
H968 N962 0.984 . S
H969 N962 0.984 . S
H970 N958 1.007 . S
H971 N958 0.965 1_554 S
C972 C973 1.363 1_554 S
C972 C978 1.379 . S
C972 N980 1.355 . S
C973 C972 1.363 1_556 S
C973 C979 1.359 1_556 S
C974 C975 1.363 . S
C974 C979 1.393 . S
C974 N981 1.356 . S
C975 C974 1.363 . S
C975 C978 1.363 . S
N976 C978 1.356 . S
N976 H988 0.984 . S
N976 H989 0.985 . S
N977 C979 1.343 1_556 S
N977 H982 0.984 . S
N977 H983 0.985 . S
C978 C972 1.379 . S
C978 C975 1.363 . S
C978 N976 1.356 . S
C979 C973 1.359 1_554 S
C979 C974 1.393 . S
C979 N977 1.343 1_554 S
N980 C972 1.355 . S
N980 H986 0.983 . S
N980 H987 0.987 1_554 S
N981 C974 1.356 . S
N981 H984 0.984 . S
N981 H985 0.985 . S
H982 N977 0.984 . S
H983 N977 0.985 . S
H984 N981 0.984 . S
H985 N981 0.985 . S
H986 N980 0.983 . S
H987 N980 0.987 1_556 S
H988 N976 0.984 . S
H989 N976 0.985 . S
C990 C991 1.363 . S
C990 C996 1.379 . S
C990 N998 1.356 . S
C991 C990 1.363 . S
C991 C997 1.363 . S
C992 C993 1.363 . S
C992 C997 1.379 . S
C992 N999 1.356 1_655 S
C993 C992 1.363 . S
C993 C996 1.363 . S
N994 C996 1.356 . S
N994 H1006 0.984 . S
N994 H1007 0.985 1_655 S
N995 C997 1.356 . S
N995 H1000 0.984 . S
N995 H1001 0.985 . S
C996 C990 1.379 . S
C996 C993 1.363 . S
C996 N994 1.356 . S
C997 C991 1.363 . S
C997 C992 1.379 . S
C997 N995 1.356 . S
N998 C990 1.356 . S
N998 H1004 0.984 . S
N998 H1005 0.984 . S
N999 C992 1.356 1_455 S
N999 H1002 0.984 . S
N999 H1003 0.985 1_455 S
H1000 N995 0.984 . S
H1001 N995 0.985 . S
H1002 N999 0.984 . S
H1003 N999 0.985 1_655 S
H1004 N998 0.984 . S
H1005 N998 0.984 . S
H1006 N994 0.984 . S
H1007 N994 0.985 1_455 S
C1008 C1009 1.363 . S
C1008 C1014 1.379 . S
C1008 N1016 1.356 . S
C1009 C1008 1.363 . S
C1009 C1015 1.363 . S
C1010 C1011 1.363 . S
C1010 C1015 1.379 . S
C1010 N1017 1.356 . S
C1011 C1010 1.363 . S
C1011 C1014 1.363 . S
N1012 C1014 1.356 . S
N1012 H1024 0.984 . S
N1012 H1025 0.985 . S
N1013 C1015 1.356 . S
N1013 H1018 0.984 . S
N1013 H1019 0.985 . S
C1014 C1008 1.379 . S
C1014 C1011 1.363 . S
C1014 N1012 1.356 . S
C1015 C1009 1.363 . S
C1015 C1010 1.379 . S
C1015 N1013 1.356 . S
N1016 C1008 1.356 . S
N1016 H1022 0.984 . S
N1016 H1023 0.984 . S
N1017 C1010 1.356 . S
N1017 H1020 0.984 . S
N1017 H1021 0.985 . S
H1018 N1013 0.984 . S
H1019 N1013 0.985 . S
H1020 N1017 0.984 . S
H1021 N1017 0.985 . S
H1022 N1016 0.984 . S
H1023 N1016 0.984 . S
H1024 N1012 0.984 . S
H1025 N1012 0.985 . S
C1026 C1027 1.363 . S
C1026 C1032 1.379 . S
C1026 N1034 1.356 . S
C1027 C1026 1.363 . S
C1027 C1033 1.363 . S
C1028 C1029 1.363 . S
C1028 C1033 1.379 . S
C1028 N1035 1.356 . S
C1029 C1028 1.363 . S
C1029 C1032 1.363 . S
N1030 C1032 1.356 . S
N1030 H1042 0.984 . S
N1030 H1043 0.985 . S
N1031 C1033 1.356 1_565 S
N1031 H1036 0.984 . S
N1031 H1037 0.985 . S
C1032 C1026 1.379 . S
C1032 C1029 1.363 . S
C1032 N1030 1.356 . S
C1033 C1027 1.363 . S
C1033 C1028 1.379 . S
C1033 N1031 1.356 1_545 S
N1034 C1026 1.356 . S
N1034 H1040 0.984 . S
N1034 H1041 0.984 . S
N1035 C1028 1.356 . S
N1035 H1038 0.984 . S
N1035 H1039 0.985 . S
H1036 N1031 0.984 . S
H1037 N1031 0.985 . S
H1038 N1035 0.984 . S
H1039 N1035 0.985 . S
H1040 N1034 0.984 . S
H1041 N1034 0.984 . S
H1042 N1030 0.984 . S
H1043 N1030 0.985 . S
C1044 C1045 1.363 . S
C1044 C1050 1.379 . S
C1044 N1052 1.356 . S
C1045 C1044 1.363 . S
C1045 C1051 1.363 . S
C1046 C1047 1.363 . S
C1046 C1051 1.379 . S
C1046 N1053 1.356 . S
C1047 C1046 1.363 . S
C1047 C1050 1.363 . S
N1048 C1050 1.356 . S
N1048 H1060 0.984 . S
N1048 H1061 0.985 . S
N1049 C1051 1.356 . S
N1049 H1054 0.984 . S
N1049 H1055 0.985 . S
C1050 C1044 1.379 . S
C1050 C1047 1.363 . S
C1050 N1048 1.356 . S
C1051 C1045 1.363 . S
C1051 C1046 1.379 . S
C1051 N1049 1.356 . S
N1052 C1044 1.356 . S
N1052 H1058 0.984 . S
N1052 H1059 0.984 . S
N1053 C1046 1.356 . S
N1053 H1056 0.984 . S
N1053 H1057 0.985 . S
H1054 N1049 0.984 . S
H1055 N1049 0.985 . S
H1056 N1053 0.984 . S
H1057 N1053 0.985 . S
H1058 N1052 0.984 . S
H1059 N1052 0.984 . S
H1060 N1048 0.984 . S
H1061 N1048 0.985 . S
C1062 C1063 1.363 . S
C1062 C1068 1.379 . S
C1062 N1070 1.356 . S
C1063 C1062 1.363 . S
C1063 C1069 1.363 . S
C1064 C1065 1.363 . S
C1064 C1069 1.379 . S
C1064 N1071 1.356 . S
C1065 C1064 1.363 . S
C1065 C1068 1.363 . S
N1066 C1068 1.356 . S
N1066 H1078 0.984 . S
N1066 H1079 0.985 . S
N1067 C1069 1.356 . S
N1067 H1072 0.984 . S
N1067 H1073 0.985 . S
C1068 C1062 1.379 . S
C1068 C1065 1.363 . S
C1068 N1066 1.356 . S
C1069 C1063 1.363 . S
C1069 C1064 1.379 . S
C1069 N1067 1.356 . S
N1070 C1062 1.356 . S
N1070 H1076 0.984 . S
N1070 H1077 0.984 . S
N1071 C1064 1.356 . S
N1071 H1074 0.984 . S
N1071 H1075 0.985 . S
H1072 N1067 0.984 . S
H1073 N1067 0.985 . S
H1074 N1071 0.984 . S
H1075 N1071 0.985 . S
H1076 N1070 0.984 . S
H1077 N1070 0.984 . S
H1078 N1066 0.984 . S
H1079 N1066 0.985 . S
C1080 C1081 1.363 . S
C1080 C1086 1.379 . S
C1080 N1088 1.356 . S
C1081 C1080 1.363 . S
C1081 C1087 1.363 . S
C1082 C1083 1.363 . S
C1082 C1087 1.379 . S
C1082 N1089 1.356 . S
C1083 C1082 1.363 . S
C1083 C1086 1.363 . S
N1084 C1086 1.356 . S
N1084 H1096 0.984 . S
N1084 H1097 0.985 . S
N1085 C1087 1.356 . S
N1085 H1090 0.984 . S
N1085 H1091 0.985 . S
C1086 C1080 1.379 . S
C1086 C1083 1.363 . S
C1086 N1084 1.356 . S
C1087 C1081 1.363 . S
C1087 C1082 1.379 . S
C1087 N1085 1.356 . S
N1088 C1080 1.356 . S
N1088 H1094 0.984 . S
N1088 H1095 0.984 . S
N1089 C1082 1.356 . S
N1089 H1092 0.984 . S
N1089 H1093 0.985 . S
H1090 N1085 0.984 . S
H1091 N1085 0.985 . S
H1092 N1089 0.984 . S
H1093 N1089 0.985 . S
H1094 N1088 0.984 . S
H1095 N1088 0.984 . S
H1096 N1084 0.984 . S
H1097 N1084 0.985 . S
C1098 C1099 1.363 . S
C1098 C1104 1.379 . S
C1098 N1106 1.356 . S
C1099 C1098 1.363 . S
C1099 C1105 1.363 . S
C1100 C1101 1.363 . S
C1100 C1105 1.379 . S
C1100 N1107 1.356 . S
C1101 C1100 1.363 . S
C1101 C1104 1.363 . S
N1102 C1104 1.356 . S
N1102 H1114 0.984 . S
N1102 H1115 0.985 . S
N1103 C1105 1.356 . S
N1103 H1108 0.984 . S
N1103 H1109 0.985 . S
C1104 C1098 1.379 . S
C1104 C1101 1.363 . S
C1104 N1102 1.356 . S
C1105 C1099 1.363 . S
C1105 C1100 1.379 . S
C1105 N1103 1.356 . S
N1106 C1098 1.356 . S
N1106 H1112 0.984 . S
N1106 H1113 0.984 . S
N1107 C1100 1.356 . S
N1107 H1110 0.984 . S
N1107 H1111 0.985 . S
H1108 N1103 0.984 . S
H1109 N1103 0.985 . S
H1110 N1107 0.984 . S
H1111 N1107 0.985 . S
H1112 N1106 0.984 . S
H1113 N1106 0.984 . S
H1114 N1102 0.984 . S
H1115 N1102 0.985 . S
C1116 C1117 1.363 . S
C1116 C1122 1.379 . S
C1116 N1124 1.356 . S
C1117 C1116 1.363 . S
C1117 C1123 1.363 . S
C1118 C1119 1.363 . S
C1118 C1123 1.379 . S
C1118 N1125 1.356 . S
C1119 C1118 1.363 . S
C1119 C1122 1.363 . S
N1120 C1122 1.356 . S
N1120 H1132 0.984 . S
N1120 H1133 0.985 . S
N1121 C1123 1.356 . S
N1121 H1126 0.984 . S
N1121 H1127 0.985 . S
C1122 C1116 1.379 . S
C1122 C1119 1.363 . S
C1122 N1120 1.356 . S
C1123 C1117 1.363 . S
C1123 C1118 1.379 . S
C1123 N1121 1.356 . S
N1124 C1116 1.356 . S
N1124 H1130 0.984 . S
N1124 H1131 0.984 . S
N1125 C1118 1.356 . S
N1125 H1128 0.984 . S
N1125 H1129 0.985 . S
H1126 N1121 0.984 . S
H1127 N1121 0.985 . S
H1128 N1125 0.984 . S
H1129 N1125 0.985 . S
H1130 N1124 0.984 . S
H1131 N1124 0.984 . S
H1132 N1120 0.984 . S
H1133 N1120 0.985 . S
C1134 C1135 1.363 . S
C1134 C1140 1.379 . S
C1134 N1142 1.356 . S
C1135 C1134 1.363 . S
C1135 C1141 1.363 . S
C1136 C1137 1.363 . S
C1136 C1141 1.379 . S
C1136 N1143 1.356 . S
C1137 C1136 1.363 . S
C1137 C1140 1.363 . S
N1138 C1140 1.356 . S
N1138 H1150 0.984 . S
N1138 H1151 0.985 . S
N1139 C1141 1.356 . S
N1139 H1144 0.984 . S
N1139 H1145 0.985 . S
C1140 C1134 1.379 . S
C1140 C1137 1.363 . S
C1140 N1138 1.356 . S
C1141 C1135 1.363 . S
C1141 C1136 1.379 . S
C1141 N1139 1.356 . S
N1142 C1134 1.356 . S
N1142 H1148 0.984 . S
N1142 H1149 0.984 . S
N1143 C1136 1.356 . S
N1143 H1146 0.984 . S
N1143 H1147 0.985 . S
H1144 N1139 0.984 . S
H1145 N1139 0.985 . S
H1146 N1143 0.984 . S
H1147 N1143 0.985 . S
H1148 N1142 0.984 . S
H1149 N1142 0.984 . S
H1150 N1138 0.984 . S
H1151 N1138 0.985 . S
C1152 C1153 1.363 . S
C1152 C1158 1.379 . S
C1152 N1160 1.356 . S
C1153 C1152 1.363 . S
C1153 C1159 1.363 . S
C1154 C1155 1.363 . S
C1154 C1159 1.379 . S
C1154 N1161 1.356 . S
C1155 C1154 1.363 . S
C1155 C1158 1.363 . S
N1156 C1158 1.356 . S
N1156 H1168 0.984 . S
N1156 H1169 0.985 . S
N1157 C1159 1.356 . S
N1157 H1162 0.984 . S
N1157 H1163 0.985 . S
C1158 C1152 1.379 . S
C1158 C1155 1.363 . S
C1158 N1156 1.356 . S
C1159 C1153 1.363 . S
C1159 C1154 1.379 . S
C1159 N1157 1.356 . S
N1160 C1152 1.356 . S
N1160 H1166 0.984 . S
N1160 H1167 0.984 . S
N1161 C1154 1.356 . S
N1161 H1164 0.984 . S
N1161 H1165 0.985 . S
H1162 N1157 0.984 . S
H1163 N1157 0.985 . S
H1164 N1161 0.984 . S
H1165 N1161 0.985 . S
H1166 N1160 0.984 . S
H1167 N1160 0.984 . S
H1168 N1156 0.984 . S
H1169 N1156 0.985 . S
C1170 C1171 1.363 . S
C1170 C1176 1.379 . S
C1170 N1178 1.356 . S
C1171 C1170 1.363 . S
C1171 C1177 1.363 . S
C1172 C1173 1.363 . S
C1172 C1177 1.379 . S
C1172 N1179 1.356 . S
C1173 C1172 1.363 . S
C1173 C1176 1.363 . S
N1174 C1176 1.356 . S
N1174 H1186 0.984 . S
N1174 H1187 0.985 . S
N1175 C1177 1.356 . S
N1175 H1180 0.984 . S
N1175 H1181 0.985 . S
C1176 C1170 1.379 . S
C1176 C1173 1.363 . S
C1176 N1174 1.356 . S
C1177 C1171 1.363 . S
C1177 C1172 1.379 . S
C1177 N1175 1.356 . S
N1178 C1170 1.356 . S
N1178 H1184 0.984 . S
N1178 H1185 0.984 . S
N1179 C1172 1.356 . S
N1179 H1182 0.984 . S
N1179 H1183 0.985 . S
H1180 N1175 0.984 . S
H1181 N1175 0.985 . S
H1182 N1179 0.984 . S
H1183 N1179 0.985 . S
H1184 N1178 0.984 . S
H1185 N1178 0.984 . S
H1186 N1174 0.984 . S
H1187 N1174 0.985 . S
C1188 C1189 1.363 . S
C1188 C1194 1.379 . S
C1188 N1196 1.356 . S
C1189 C1188 1.363 . S
C1189 C1195 1.363 . S
C1190 C1191 1.363 . S
C1190 C1195 1.379 . S
C1190 N1197 1.356 . S
C1191 C1190 1.363 . S
C1191 C1194 1.363 . S
N1192 C1194 1.356 . S
N1192 H1204 0.984 . S
N1192 H1205 0.985 . S
N1193 C1195 1.356 . S
N1193 H1198 0.984 . S
N1193 H1199 0.985 . S
C1194 C1188 1.379 . S
C1194 C1191 1.363 . S
C1194 N1192 1.356 . S
C1195 C1189 1.363 . S
C1195 C1190 1.379 . S
C1195 N1193 1.356 . S
N1196 C1188 1.356 . S
N1196 H1202 0.984 . S
N1196 H1203 0.984 . S
N1197 C1190 1.356 . S
N1197 H1200 0.984 . S
N1197 H1201 0.985 . S
H1198 N1193 0.984 . S
H1199 N1193 0.985 . S
H1200 N1197 0.984 . S
H1201 N1197 0.985 . S
H1202 N1196 0.984 . S
H1203 N1196 0.984 . S
H1204 N1192 0.984 . S
H1205 N1192 0.985 . S
C1206 C1207 1.363 . S
C1206 C1212 1.379 . S
C1206 N1214 1.356 . S
C1207 C1206 1.363 . S
C1207 C1213 1.363 . S
C1208 C1209 1.363 . S
C1208 C1213 1.379 . S
C1208 N1215 1.356 . S
C1209 C1208 1.363 . S
C1209 C1212 1.363 . S
N1210 C1212 1.356 . S
N1210 H1222 0.984 . S
N1210 H1223 0.985 . S
N1211 C1213 1.356 . S
N1211 H1216 0.984 . S
N1211 H1217 0.985 . S
C1212 C1206 1.379 . S
C1212 C1209 1.363 . S
C1212 N1210 1.356 . S
C1213 C1207 1.363 . S
C1213 C1208 1.379 . S
C1213 N1211 1.356 . S
N1214 C1206 1.356 . S
N1214 H1220 0.984 . S
N1214 H1221 0.984 . S
N1215 C1208 1.356 . S
N1215 H1218 0.984 . S
N1215 H1219 0.985 . S
H1216 N1211 0.984 . S
H1217 N1211 0.985 . S
H1218 N1215 0.984 . S
H1219 N1215 0.985 . S
H1220 N1214 0.984 . S
H1221 N1214 0.984 . S
H1222 N1210 0.984 . S
H1223 N1210 0.985 . S
C1224 C1225 1.363 . S
C1224 C1230 1.379 . S
C1224 N1232 1.356 . S
C1225 C1224 1.363 . S
C1225 C1231 1.363 . S
C1226 C1227 1.363 . S
C1226 C1231 1.379 . S
C1226 N1233 1.356 . S
C1227 C1226 1.363 . S
C1227 C1230 1.363 . S
N1228 C1230 1.356 . S
N1228 H1240 0.984 . S
N1228 H1241 0.985 . S
N1229 C1231 1.356 . S
N1229 H1234 0.984 . S
N1229 H1235 0.985 . S
C1230 C1224 1.379 . S
C1230 C1227 1.363 . S
C1230 N1228 1.356 . S
C1231 C1225 1.363 . S
C1231 C1226 1.379 . S
C1231 N1229 1.356 . S
N1232 C1224 1.356 . S
N1232 H1238 0.984 . S
N1232 H1239 0.984 . S
N1233 C1226 1.356 . S
N1233 H1236 0.984 . S
N1233 H1237 0.985 . S
H1234 N1229 0.984 . S
H1235 N1229 0.985 . S
H1236 N1233 0.984 . S
H1237 N1233 0.985 . S
H1238 N1232 0.984 . S
H1239 N1232 0.984 . S
H1240 N1228 0.984 . S
H1241 N1228 0.985 . S
C1242 C1243 1.363 . S
C1242 C1248 1.379 . S
C1242 N1250 1.356 . S
C1243 C1242 1.363 . S
C1243 C1249 1.363 . S
C1244 C1245 1.363 . S
C1244 C1249 1.379 . S
C1244 N1251 1.356 . S
C1245 C1244 1.363 . S
C1245 C1248 1.363 . S
N1246 C1248 1.356 . S
N1246 H1258 0.984 . S
N1246 H1259 0.985 . S
N1247 C1249 1.356 . S
N1247 H1252 0.984 . S
N1247 H1253 0.985 . S
C1248 C1242 1.379 . S
C1248 C1245 1.363 . S
C1248 N1246 1.356 . S
C1249 C1243 1.363 . S
C1249 C1244 1.379 . S
C1249 N1247 1.356 . S
N1250 C1242 1.356 . S
N1250 H1256 0.984 . S
N1250 H1257 0.984 . S
N1251 C1244 1.356 . S
N1251 H1254 0.984 . S
N1251 H1255 0.985 . S
H1252 N1247 0.984 . S
H1253 N1247 0.985 . S
H1254 N1251 0.984 . S
H1255 N1251 0.985 . S
H1256 N1250 0.984 . S
H1257 N1250 0.984 . S
H1258 N1246 0.984 . S
H1259 N1246 0.985 . S
C1260 C1261 1.363 . S
C1260 C1266 1.379 . S
C1260 N1268 1.356 . S
C1261 C1260 1.363 . S
C1261 C1267 1.363 . S
C1262 C1263 1.363 . S
C1262 C1267 1.379 . S
C1262 N1269 1.356 . S
C1263 C1262 1.363 . S
C1263 C1266 1.363 . S
N1264 C1266 1.356 . S
N1264 H1276 0.984 . S
N1264 H1277 0.985 . S
N1265 C1267 1.356 . S
N1265 H1270 0.984 . S
N1265 H1271 0.985 . S
C1266 C1260 1.379 . S
C1266 C1263 1.363 . S
C1266 N1264 1.356 . S
C1267 C1261 1.363 . S
C1267 C1262 1.379 . S
C1267 N1265 1.356 . S
N1268 C1260 1.356 . S
N1268 H1274 0.984 . S
N1268 H1275 0.984 . S
N1269 C1262 1.356 . S
N1269 H1272 0.984 . S
N1269 H1273 0.985 . S
H1270 N1265 0.984 . S
H1271 N1265 0.985 . S
H1272 N1269 0.984 . S
H1273 N1269 0.985 . S
H1274 N1268 0.984 . S
H1275 N1268 0.984 . S
H1276 N1264 0.984 . S
H1277 N1264 0.985 . S
C1278 C1279 1.363 . S
C1278 C1284 1.379 . S
C1278 N1286 1.356 . S
C1279 C1278 1.363 . S
C1279 C1285 1.363 . S
C1280 C1281 1.363 . S
C1280 C1285 1.379 . S
C1280 N1287 1.356 . S
C1281 C1280 1.363 . S
C1281 C1284 1.363 . S
N1282 C1284 1.356 . S
N1282 H1294 0.984 . S
N1282 H1295 0.985 . S
N1283 C1285 1.356 . S
N1283 H1288 0.984 . S
N1283 H1289 0.985 . S
C1284 C1278 1.379 . S
C1284 C1281 1.363 . S
C1284 N1282 1.356 . S
C1285 C1279 1.363 . S
C1285 C1280 1.379 . S
C1285 N1283 1.356 . S
N1286 C1278 1.356 . S
N1286 H1292 0.984 . S
N1286 H1293 0.984 . S
N1287 C1280 1.356 . S
N1287 H1290 0.984 . S
N1287 H1291 0.985 . S
H1288 N1283 0.984 . S
H1289 N1283 0.985 . S
H1290 N1287 0.984 . S
H1291 N1287 0.985 . S
H1292 N1286 0.984 . S
H1293 N1286 0.984 . S
H1294 N1282 0.984 . S
H1295 N1282 0.985 . S
C1296 C1297 1.363 . S
C1296 C1302 1.379 . S
C1296 N1304 1.356 . S
C1297 C1296 1.363 . S
C1297 C1303 1.363 . S
C1298 C1299 1.363 . S
C1298 C1303 1.379 . S
C1298 N1305 1.356 . S
C1299 C1298 1.363 . S
C1299 C1302 1.363 . S
N1300 C1302 1.356 . S
N1300 H1312 0.984 . S
N1300 H1313 0.985 . S
N1301 C1303 1.356 . S
N1301 H1306 0.984 . S
N1301 H1307 0.985 . S
C1302 C1296 1.379 . S
C1302 C1299 1.363 . S
C1302 N1300 1.356 . S
C1303 C1297 1.363 . S
C1303 C1298 1.379 . S
C1303 N1301 1.356 . S
N1304 C1296 1.356 . S
N1304 H1310 0.984 . S
N1304 H1311 0.984 . S
N1305 C1298 1.356 . S
N1305 H1308 0.984 . S
N1305 H1309 0.985 . S
H1306 N1301 0.984 . S
H1307 N1301 0.985 . S
H1308 N1305 0.984 . S
H1309 N1305 0.985 . S
H1310 N1304 0.984 . S
H1311 N1304 0.984 . S
H1312 N1300 0.984 . S
H1313 N1300 0.985 . S
C1314 C1315 1.363 . S
C1314 C1320 1.379 . S
C1314 N1322 1.356 . S
C1315 C1314 1.363 . S
C1315 C1321 1.363 . S
C1316 C1317 1.363 . S
C1316 C1321 1.379 . S
C1316 N1323 1.356 . S
C1317 C1316 1.363 . S
C1317 C1320 1.363 . S
N1318 C1320 1.356 . S
N1318 H1330 0.984 . S
N1318 H1331 0.985 . S
N1319 C1321 1.356 . S
N1319 H1324 0.984 . S
N1319 H1325 0.985 . S
C1320 C1314 1.379 . S
C1320 C1317 1.363 . S
C1320 N1318 1.356 . S
C1321 C1315 1.363 . S
C1321 C1316 1.379 . S
C1321 N1319 1.356 . S
N1322 C1314 1.356 . S
N1322 H1328 0.984 . S
N1322 H1329 0.984 . S
N1323 C1316 1.356 . S
N1323 H1326 0.984 . S
N1323 H1327 0.985 . S
H1324 N1319 0.984 . S
H1325 N1319 0.985 . S
H1326 N1323 0.984 . S
H1327 N1323 0.985 . S
H1328 N1322 0.984 . S
H1329 N1322 0.984 . S
H1330 N1318 0.984 . S
H1331 N1318 0.985 . S
C1332 C1333 1.363 . S
C1332 C1338 1.379 . S
C1332 N1340 1.356 . S
C1333 C1332 1.363 . S
C1333 C1339 1.363 . S
C1334 C1335 1.363 . S
C1334 C1339 1.379 . S
C1334 N1341 1.356 . S
C1335 C1334 1.363 . S
C1335 C1338 1.363 . S
N1336 C1338 1.356 . S
N1336 H1348 0.984 . S
N1336 H1349 0.985 . S
N1337 C1339 1.356 . S
N1337 H1342 0.984 . S
N1337 H1343 0.985 . S
C1338 C1332 1.379 . S
C1338 C1335 1.363 . S
C1338 N1336 1.356 . S
C1339 C1333 1.363 . S
C1339 C1334 1.379 . S
C1339 N1337 1.356 . S
N1340 C1332 1.356 . S
N1340 H1346 0.984 . S
N1340 H1347 0.984 . S
N1341 C1334 1.356 . S
N1341 H1344 0.984 . S
N1341 H1345 0.985 . S
H1342 N1337 0.984 . S
H1343 N1337 0.985 . S
H1344 N1341 0.984 . S
H1345 N1341 0.985 . S
H1346 N1340 0.984 . S
H1347 N1340 0.984 . S
H1348 N1336 0.984 . S
H1349 N1336 0.985 . S
C1350 C1351 1.363 . S
C1350 C1356 1.379 . S
C1350 N1358 1.356 . S
C1351 C1350 1.363 . S
C1351 C1357 1.363 . S
C1352 C1353 1.363 . S
C1352 C1357 1.379 . S
C1352 N1359 1.356 . S
C1353 C1352 1.363 . S
C1353 C1356 1.363 . S
N1354 C1356 1.356 . S
N1354 H1366 0.984 . S
N1354 H1367 0.985 . S
N1355 C1357 1.356 . S
N1355 H1360 0.984 . S
N1355 H1361 0.985 . S
C1356 C1350 1.379 . S
C1356 C1353 1.363 . S
C1356 N1354 1.356 . S
C1357 C1351 1.363 . S
C1357 C1352 1.379 . S
C1357 N1355 1.356 . S
N1358 C1350 1.356 . S
N1358 H1364 0.984 . S
N1358 H1365 0.984 . S
N1359 C1352 1.356 . S
N1359 H1362 0.984 . S
N1359 H1363 0.985 . S
H1360 N1355 0.984 . S
H1361 N1355 0.985 . S
H1362 N1359 0.984 . S
H1363 N1359 0.985 . S
H1364 N1358 0.984 . S
H1365 N1358 0.984 . S
H1366 N1354 0.984 . S
H1367 N1354 0.985 . S
C1368 C1369 1.363 . S
C1368 C1374 1.379 . S
C1368 N1376 1.356 . S
C1369 C1368 1.363 . S
C1369 C1375 1.363 . S
C1370 C1371 1.363 . S
C1370 C1375 1.379 . S
C1370 N1377 1.356 . S
C1371 C1370 1.363 . S
C1371 C1374 1.363 . S
N1372 C1374 1.356 . S
N1372 H1384 0.984 . S
N1372 H1385 0.985 . S
N1373 C1375 1.356 . S
N1373 H1378 0.984 . S
N1373 H1379 0.985 . S
C1374 C1368 1.379 . S
C1374 C1371 1.363 . S
C1374 N1372 1.356 . S
C1375 C1369 1.363 . S
C1375 C1370 1.379 . S
C1375 N1373 1.356 . S
N1376 C1368 1.356 . S
N1376 H1382 0.984 . S
N1376 H1383 0.984 . S
N1377 C1370 1.356 . S
N1377 H1380 0.984 . S
N1377 H1381 0.985 . S
H1378 N1373 0.984 . S
H1379 N1373 0.985 . S
H1380 N1377 0.984 . S
H1381 N1377 0.985 . S
H1382 N1376 0.984 . S
H1383 N1376 0.984 . S
H1384 N1372 0.984 . S
H1385 N1372 0.985 . S
C1386 C1387 1.363 . S
C1386 C1392 1.379 . S
C1386 N1394 1.356 . S
C1387 C1386 1.363 . S
C1387 C1393 1.363 . S
C1388 C1389 1.363 . S
C1388 C1393 1.379 . S
C1388 N1395 1.356 . S
C1389 C1388 1.363 . S
C1389 C1392 1.363 . S
N1390 C1392 1.356 . S
N1390 H1402 0.984 . S
N1390 H1403 0.985 . S
N1391 C1393 1.356 . S
N1391 H1396 0.984 . S
N1391 H1397 0.985 . S
C1392 C1386 1.379 . S
C1392 C1389 1.363 . S
C1392 N1390 1.356 . S
C1393 C1387 1.363 . S
C1393 C1388 1.379 . S
C1393 N1391 1.356 . S
N1394 C1386 1.356 . S
N1394 H1400 0.984 . S
N1394 H1401 0.984 . S
N1395 C1388 1.356 . S
N1395 H1398 0.984 . S
N1395 H1399 0.985 . S
H1396 N1391 0.984 . S
H1397 N1391 0.985 . S
H1398 N1395 0.984 . S
H1399 N1395 0.985 . S
H1400 N1394 0.984 . S
H1401 N1394 0.984 . S
H1402 N1390 0.984 . S
H1403 N1390 0.985 . S
C1404 C1405 1.363 . S
C1404 C1410 1.379 . S
C1404 N1412 1.356 . S
C1405 C1404 1.363 . S
C1405 C1411 1.363 . S
C1406 C1407 1.363 . S
C1406 C1411 1.379 . S
C1406 N1413 1.356 . S
C1407 C1406 1.363 . S
C1407 C1410 1.363 . S
N1408 C1410 1.356 . S
N1408 H1420 0.984 . S
N1408 H1421 0.985 . S
N1409 C1411 1.356 . S
N1409 H1414 0.984 . S
N1409 H1415 0.985 . S
C1410 C1404 1.379 . S
C1410 C1407 1.363 . S
C1410 N1408 1.356 . S
C1411 C1405 1.363 . S
C1411 C1406 1.379 . S
C1411 N1409 1.356 . S
N1412 C1404 1.356 . S
N1412 H1418 0.984 . S
N1412 H1419 0.984 . S
N1413 C1406 1.356 . S
N1413 H1416 0.984 . S
N1413 H1417 0.985 . S
H1414 N1409 0.984 . S
H1415 N1409 0.985 . S
H1416 N1413 0.984 . S
H1417 N1413 0.985 . S
H1418 N1412 0.984 . S
H1419 N1412 0.984 . S
H1420 N1408 0.984 . S
H1421 N1408 0.985 . S
C1422 C1423 1.363 . S
C1422 C1428 1.379 . S
C1422 N1430 1.356 . S
C1423 C1422 1.363 . S
C1423 C1429 1.363 . S
C1424 C1425 1.363 . S
C1424 C1429 1.379 . S
C1424 N1431 1.356 . S
C1425 C1424 1.363 . S
C1425 C1428 1.363 . S
N1426 C1428 1.356 . S
N1426 H1438 0.984 . S
N1426 H1439 0.985 . S
N1427 C1429 1.356 . S
N1427 H1432 0.984 . S
N1427 H1433 0.985 . S
C1428 C1422 1.379 . S
C1428 C1425 1.363 . S
C1428 N1426 1.356 . S
C1429 C1423 1.363 . S
C1429 C1424 1.379 . S
C1429 N1427 1.356 . S
N1430 C1422 1.356 . S
N1430 H1436 0.984 . S
N1430 H1437 0.984 . S
N1431 C1424 1.356 . S
N1431 H1434 0.984 . S
N1431 H1435 0.985 . S
H1432 N1427 0.984 . S
H1433 N1427 0.985 . S
H1434 N1431 0.984 . S
H1435 N1431 0.985 . S
H1436 N1430 0.984 . S
H1437 N1430 0.984 . S
H1438 N1426 0.984 . S
H1439 N1426 0.985 . S
C1440 C1441 1.363 . S
C1440 C1446 1.379 . S
C1440 N1448 1.356 . S
C1441 C1440 1.363 . S
C1441 C1447 1.363 . S
C1442 C1443 1.363 . S
C1442 C1447 1.379 . S
C1442 N1449 1.356 . S
C1443 C1442 1.363 . S
C1443 C1446 1.363 . S
N1444 C1446 1.356 . S
N1444 H1456 0.984 . S
N1444 H1457 0.985 . S
N1445 C1447 1.356 . S
N1445 H1450 0.984 . S
N1445 H1451 0.985 . S
C1446 C1440 1.379 . S
C1446 C1443 1.363 . S
C1446 N1444 1.356 . S
C1447 C1441 1.363 . S
C1447 C1442 1.379 . S
C1447 N1445 1.356 . S
N1448 C1440 1.356 . S
N1448 H1454 0.984 . S
N1448 H1455 0.984 . S
N1449 C1442 1.356 . S
N1449 H1452 0.984 . S
N1449 H1453 0.985 . S
H1450 N1445 0.984 . S
H1451 N1445 0.985 . S
H1452 N1449 0.984 . S
H1453 N1449 0.985 . S
H1454 N1448 0.984 . S
H1455 N1448 0.984 . S
H1456 N1444 0.984 . S
H1457 N1444 0.985 . S
C1458 C1459 1.363 . S
C1458 C1464 1.379 . S
C1458 N1466 1.356 . S
C1459 C1458 1.363 . S
C1459 C1465 1.363 . S
C1460 C1461 1.363 . S
C1460 C1465 1.379 . S
C1460 N1467 1.356 . S
C1461 C1460 1.363 . S
C1461 C1464 1.363 . S
N1462 C1464 1.356 . S
N1462 H1474 0.984 . S
N1462 H1475 0.985 . S
N1463 C1465 1.356 . S
N1463 H1468 0.984 . S
N1463 H1469 0.985 . S
C1464 C1458 1.379 . S
C1464 C1461 1.363 . S
C1464 N1462 1.356 . S
C1465 C1459 1.363 . S
C1465 C1460 1.379 . S
C1465 N1463 1.356 . S
N1466 C1458 1.356 . S
N1466 H1472 0.984 . S
N1466 H1473 0.984 . S
N1467 C1460 1.356 . S
N1467 H1470 0.984 . S
N1467 H1471 0.985 . S
H1468 N1463 0.984 . S
H1469 N1463 0.985 . S
H1470 N1467 0.984 . S
H1471 N1467 0.985 . S
H1472 N1466 0.984 . S
H1473 N1466 0.984 . S
H1474 N1462 0.984 . S
H1475 N1462 0.985 . S
C1476 C1477 1.363 . S
C1476 C1482 1.379 . S
C1476 N1484 1.356 . S
C1477 C1476 1.363 . S
C1477 C1483 1.363 . S
C1478 C1479 1.363 . S
C1478 C1483 1.379 . S
C1478 N1485 1.356 . S
C1479 C1478 1.363 . S
C1479 C1482 1.363 . S
N1480 C1482 1.356 . S
N1480 H1492 0.984 . S
N1480 H1493 0.985 . S
N1481 C1483 1.356 . S
N1481 H1486 0.984 . S
N1481 H1487 0.985 . S
C1482 C1476 1.379 . S
C1482 C1479 1.363 . S
C1482 N1480 1.356 . S
C1483 C1477 1.363 . S
C1483 C1478 1.379 . S
C1483 N1481 1.356 . S
N1484 C1476 1.356 . S
N1484 H1490 0.984 . S
N1484 H1491 0.984 . S
N1485 C1478 1.356 . S
N1485 H1488 0.984 . S
N1485 H1489 0.985 . S
H1486 N1481 0.984 . S
H1487 N1481 0.985 . S
H1488 N1485 0.984 . S
H1489 N1485 0.985 . S
H1490 N1484 0.984 . S
H1491 N1484 0.984 . S
H1492 N1480 0.984 . S
H1493 N1480 0.985 . S
C1494 C1495 1.363 . S
C1494 C1500 1.379 . S
C1494 N1502 1.356 . S
C1495 C1494 1.363 . S
C1495 C1501 1.363 1_545 S
C1496 C1497 1.363 . S
C1496 C1501 1.379 1_545 S
C1496 N1503 1.356 . S
C1497 C1496 1.363 . S
C1497 C1500 1.363 . S
N1498 C1500 1.356 . S
N1498 H1510 0.984 . S
N1498 H1511 0.985 . S
N1499 C1501 1.356 . S
N1499 H1504 0.984 . S
N1499 H1505 0.985 . S
C1500 C1494 1.379 . S
C1500 C1497 1.363 . S
C1500 N1498 1.356 . S
C1501 C1495 1.363 1_565 S
C1501 C1496 1.379 1_565 S
C1501 N1499 1.356 . S
N1502 C1494 1.356 . S
N1502 H1508 0.984 . S
N1502 H1509 0.984 . S
N1503 C1496 1.356 . S
N1503 H1506 0.984 . S
N1503 H1507 0.985 1_545 S
H1504 N1499 0.984 . S
H1505 N1499 0.985 . S
H1506 N1503 0.984 . S
H1507 N1503 0.985 1_565 S
H1508 N1502 0.984 . S
H1509 N1502 0.984 . S
H1510 N1498 0.984 . S
H1511 N1498 0.985 . S
C1512 C1513 1.363 . S
C1512 C1518 1.379 . S
C1512 N1520 1.356 . S
C1513 C1512 1.363 . S
C1513 C1519 1.363 . S
C1514 C1515 1.363 . S
C1514 C1519 1.379 . S
C1514 N1521 1.356 . S
C1515 C1514 1.363 . S
C1515 C1518 1.363 . S
N1516 C1518 1.356 . S
N1516 H1528 0.984 . S
N1516 H1529 0.985 1_655 S
N1517 C1519 1.356 . S
N1517 H1522 0.984 . S
N1517 H1523 0.985 . S
C1518 C1512 1.379 . S
C1518 C1515 1.363 . S
C1518 N1516 1.356 . S
C1519 C1513 1.363 . S
C1519 C1514 1.379 . S
C1519 N1517 1.356 . S
N1520 C1512 1.356 . S
N1520 H1526 0.984 . S
N1520 H1527 0.984 . S
N1521 C1514 1.356 . S
N1521 H1524 0.984 1_655 S
N1521 H1525 0.985 . S
H1522 N1517 0.984 . S
H1523 N1517 0.985 . S
H1524 N1521 0.984 1_455 S
H1525 N1521 0.985 . S
H1526 N1520 0.984 . S
H1527 N1520 0.984 . S
H1528 N1516 0.984 . S
H1529 N1516 0.985 1_455 S
C1530 C1531 1.363 . S
C1530 C1536 1.379 . S
C1530 N1538 1.356 . S
C1531 C1530 1.363 . S
C1531 C1537 1.363 . S
C1532 C1533 1.363 . S
C1532 C1537 1.379 . S
C1532 N1539 1.356 . S
C1533 C1532 1.363 . S
C1533 C1536 1.363 . S
N1534 C1536 1.356 . S
N1534 H1546 0.984 . S
N1534 H1547 0.985 . S
N1535 C1537 1.356 . S
N1535 H1540 0.984 . S
N1535 H1541 0.985 . S
C1536 C1530 1.379 . S
C1536 C1533 1.363 . S
C1536 N1534 1.356 . S
C1537 C1531 1.363 . S
C1537 C1532 1.379 . S
C1537 N1535 1.356 . S
N1538 C1530 1.356 . S
N1538 H1544 0.984 . S
N1538 H1545 0.984 . S
N1539 C1532 1.356 . S
N1539 H1542 0.984 . S
N1539 H1543 0.985 . S
H1540 N1535 0.984 . S
H1541 N1535 0.985 . S
H1542 N1539 0.984 . S
H1543 N1539 0.985 . S
H1544 N1538 0.984 . S
H1545 N1538 0.984 . S
H1546 N1534 0.984 . S
H1547 N1534 0.985 . S
C1548 C1549 1.363 . S
C1548 C1554 1.379 . S
C1548 N1556 1.356 . S
C1549 C1548 1.363 . S
C1549 C1555 1.364 . S
C1550 C1551 1.363 . S
C1550 C1555 1.390 . S
C1550 N1557 1.356 . S
C1551 C1550 1.363 . S
C1551 C1554 1.363 . S
N1552 C1554 1.356 . S
N1552 H1564 0.984 . S
N1552 H1565 0.985 . S
N1553 C1555 1.342 1_545 S
N1553 H1558 0.984 . S
N1553 H1559 0.985 . S
C1554 C1548 1.379 . S
C1554 C1551 1.363 . S
C1554 N1552 1.356 . S
C1555 C1549 1.364 . S
C1555 C1550 1.390 . S
C1555 N1553 1.342 1_565 S
N1556 C1548 1.356 . S
N1556 H1562 0.984 . S
N1556 H1563 0.984 . S
N1557 C1550 1.356 . S
N1557 H1560 0.984 . S
N1557 H1561 0.985 . S
H1558 N1553 0.984 . S
H1559 N1553 0.985 . S
H1560 N1557 0.984 . S
H1561 N1557 0.985 . S
H1562 N1556 0.984 . S
H1563 N1556 0.984 . S
H1564 N1552 0.984 . S
H1565 N1552 0.985 . S
C1566 C1567 1.363 . S
C1566 C1572 1.379 . S
C1566 N1574 1.356 . S
C1567 C1566 1.363 . S
C1567 C1573 1.363 . S
C1568 C1569 1.363 . S
C1568 C1573 1.379 . S
C1568 N1575 1.356 1_455 S
C1569 C1568 1.363 . S
C1569 C1572 1.363 . S
N1570 C1572 1.356 . S
N1570 H1582 0.984 . S
N1570 H1583 0.985 . S
N1571 C1573 1.356 . S
N1571 H1576 0.984 . S
N1571 H1577 0.985 . S
C1572 C1566 1.379 . S
C1572 C1569 1.363 . S
C1572 N1570 1.356 . S
C1573 C1567 1.363 . S
C1573 C1568 1.379 . S
C1573 N1571 1.356 . S
N1574 C1566 1.356 . S
N1574 H1580 0.984 . S
N1574 H1581 0.984 . S
N1575 C1568 1.356 1_655 S
N1575 H1578 0.984 . S
N1575 H1579 0.985 . S
H1576 N1571 0.984 . S
H1577 N1571 0.985 . S
H1578 N1575 0.984 . S
H1579 N1575 0.985 . S
H1580 N1574 0.984 . S
H1581 N1574 0.984 . S
H1582 N1570 0.984 . S
H1583 N1570 0.985 . S
C1584 C1585 1.363 . S
C1584 C1590 1.379 . S
C1584 N1592 1.356 . S
C1585 C1584 1.363 . S
C1585 C1591 1.363 . S
C1586 C1587 1.363 . S
C1586 C1591 1.379 . S
C1586 N1593 1.356 . S
C1587 C1586 1.363 . S
C1587 C1590 1.363 . S
N1588 C1590 1.356 . S
N1588 H1600 0.984 . S
N1588 H1601 0.985 . S
N1589 C1591 1.356 . S
N1589 H1594 0.984 . S
N1589 H1595 0.985 . S
C1590 C1584 1.379 . S
C1590 C1587 1.363 . S
C1590 N1588 1.356 . S
C1591 C1585 1.363 . S
C1591 C1586 1.379 . S
C1591 N1589 1.356 . S
N1592 C1584 1.356 . S
N1592 H1598 0.984 . S
N1592 H1599 0.984 . S
N1593 C1586 1.356 . S
N1593 H1596 0.984 . S
N1593 H1597 0.985 . S
H1594 N1589 0.984 . S
H1595 N1589 0.985 . S
H1596 N1593 0.984 . S
H1597 N1593 0.985 . S
H1598 N1592 0.984 . S
H1599 N1592 0.984 . S
H1600 N1588 0.984 . S
H1601 N1588 0.985 . S
C1602 C1603 1.363 . S
C1602 C1608 1.379 . S
C1602 N1610 1.356 . S
C1603 C1602 1.363 . S
C1603 C1609 1.363 . S
C1604 C1605 1.363 1_545 S
C1604 C1609 1.379 1_545 S
C1604 N1611 1.356 . S
C1605 C1604 1.363 1_565 S
C1605 C1608 1.363 . S
N1606 C1608 1.356 . S
N1606 H1618 0.984 . S
N1606 H1619 0.985 . S
N1607 C1609 1.356 1_545 S
N1607 H1612 0.984 1_545 S
N1607 H1613 0.985 . S
C1608 C1602 1.379 . S
C1608 C1605 1.363 . S
C1608 N1606 1.356 . S
C1609 C1603 1.363 . S
C1609 C1604 1.379 1_565 S
C1609 N1607 1.356 1_565 S
N1610 C1602 1.356 . S
N1610 H1616 0.984 . S
N1610 H1617 0.984 . S
N1611 C1604 1.356 . S
N1611 H1614 0.984 . S
N1611 H1615 0.985 . S
H1612 N1607 0.984 1_565 S
H1613 N1607 0.985 . S
H1614 N1611 0.984 . S
H1615 N1611 0.985 . S
H1616 N1610 0.984 . S
H1617 N1610 0.984 . S
H1618 N1606 0.984 . S
H1619 N1606 0.985 . S
C1620 C1621 1.363 . S
C1620 C1626 1.379 . S
C1620 N1628 1.356 . S
C1621 C1620 1.363 . S
C1621 C1627 1.363 . S
C1622 C1623 1.363 . S
C1622 C1627 1.379 . S
C1622 N1629 1.356 1_455 S
C1623 C1622 1.363 . S
C1623 C1626 1.363 . S
N1624 C1626 1.356 . S
N1624 H1636 0.984 . S
N1624 H1637 0.985 . S
N1625 C1627 1.356 . S
N1625 H1630 0.984 . S
N1625 H1631 0.985 . S
C1626 C1620 1.379 . S
C1626 C1623 1.363 . S
C1626 N1624 1.356 . S
C1627 C1621 1.363 . S
C1627 C1622 1.379 . S
C1627 N1625 1.356 . S
N1628 C1620 1.356 . S
N1628 H1634 0.984 . S
N1628 H1635 0.984 . S
N1629 C1622 1.356 1_655 S
N1629 H1632 0.984 . S
N1629 H1633 0.985 . S
H1630 N1625 0.984 . S
H1631 N1625 0.985 . S
H1632 N1629 0.984 . S
H1633 N1629 0.985 . S
H1634 N1628 0.984 . S
H1635 N1628 0.984 . S
H1636 N1624 0.984 . S
H1637 N1624 0.985 . S
C1638 C1639 1.363 . S
C1638 C1644 1.379 . S
C1638 N1646 1.356 . S
C1639 C1638 1.363 . S
C1639 C1645 1.363 . S
C1640 C1641 1.363 . S
C1640 C1645 1.379 . S
C1640 N1647 1.356 . S
C1641 C1640 1.363 . S
C1641 C1644 1.363 . S
N1642 C1644 1.356 . S
N1642 H1654 0.984 . S
N1642 H1655 0.985 . S
N1643 C1645 1.356 . S
N1643 H1648 0.984 . S
N1643 H1649 0.985 . S
C1644 C1638 1.379 . S
C1644 C1641 1.363 . S
C1644 N1642 1.356 . S
C1645 C1639 1.363 . S
C1645 C1640 1.379 . S
C1645 N1643 1.356 . S
N1646 C1638 1.356 . S
N1646 H1652 0.984 . S
N1646 H1653 0.984 . S
N1647 C1640 1.356 . S
N1647 H1650 0.984 . S
N1647 H1651 0.985 . S
H1648 N1643 0.984 . S
H1649 N1643 0.985 . S
H1650 N1647 0.984 . S
H1651 N1647 0.985 . S
H1652 N1646 0.984 . S
H1653 N1646 0.984 . S
H1654 N1642 0.984 . S
H1655 N1642 0.985 . S
C1656 C1657 1.363 . S
C1656 C1662 1.394 . S
C1656 N1664 1.356 . S
C1657 C1656 1.363 . S
C1657 C1663 1.363 . S
C1658 C1659 1.363 . S
C1658 C1663 1.379 . S
C1658 N1665 1.356 . S
C1659 C1658 1.363 . S
C1659 C1662 1.357 . S
N1660 C1662 1.344 1_565 S
N1660 H1672 0.984 . S
N1660 H1673 0.985 . S
N1661 C1663 1.356 . S
N1661 H1666 0.984 . S
N1661 H1667 0.985 . S
C1662 C1656 1.394 . S
C1662 C1659 1.357 . S
C1662 N1660 1.344 1_545 S
C1663 C1657 1.363 . S
C1663 C1658 1.379 . S
C1663 N1661 1.356 . S
N1664 C1656 1.356 . S
N1664 H1670 0.984 . S
N1664 H1671 0.984 . S
N1665 C1658 1.356 . S
N1665 H1668 0.984 . S
N1665 H1669 0.985 . S
H1666 N1661 0.984 . S
H1667 N1661 0.985 . S
H1668 N1665 0.984 . S
H1669 N1665 0.985 . S
H1670 N1664 0.984 . S
H1671 N1664 0.984 . S
H1672 N1660 0.984 . S
H1673 N1660 0.985 . S
C1674 C1675 1.363 . S
C1674 C1680 1.379 . S
C1674 N1682 1.356 . S
C1675 C1674 1.363 . S
C1675 C1681 1.363 1_655 S
C1676 C1677 1.363 . S
C1676 C1681 1.379 1_655 S
C1676 N1683 1.356 . S
C1677 C1676 1.363 . S
C1677 C1680 1.363 . S
N1678 C1680 1.356 . S
N1678 H1690 0.984 . S
N1678 H1691 0.985 . S
N1679 C1681 1.356 . S
N1679 H1684 0.984 . S
N1679 H1685 0.985 . S
C1680 C1674 1.379 . S
C1680 C1677 1.363 . S
C1680 N1678 1.356 . S
C1681 C1675 1.363 1_455 S
C1681 C1676 1.379 1_455 S
C1681 N1679 1.356 . S
N1682 C1674 1.356 . S
N1682 H1688 0.984 . S
N1682 H1689 0.984 . S
N1683 C1676 1.356 . S
N1683 H1686 0.984 . S
N1683 H1687 0.985 1_655 S
H1684 N1679 0.984 . S
H1685 N1679 0.985 . S
H1686 N1683 0.984 . S
H1687 N1683 0.985 1_455 S
H1688 N1682 0.984 . S
H1689 N1682 0.984 . S
H1690 N1678 0.984 . S
H1691 N1678 0.985 . S
C1692 C1693 1.363 . S
C1692 C1698 1.379 1_655 S
C1692 N1700 1.356 . S
C1693 C1692 1.363 . S
C1693 C1699 1.363 . S
C1694 C1695 1.363 . S
C1694 C1699 1.379 1_455 S
C1694 N1701 1.356 . S
C1695 C1694 1.363 . S
C1695 C1698 1.363 . S
N1696 C1698 1.356 . S
N1696 H1708 0.984 . S
N1696 H1709 0.985 . S
N1697 C1699 1.356 . S
N1697 H1702 0.984 . S
N1697 H1703 0.985 . S
C1698 C1692 1.379 1_455 S
C1698 C1695 1.363 . S
C1698 N1696 1.356 . S
C1699 C1693 1.363 . S
C1699 C1694 1.379 1_655 S
C1699 N1697 1.356 . S
N1700 C1692 1.356 . S
N1700 H1706 0.984 . S
N1700 H1707 0.984 . S
N1701 C1694 1.356 . S
N1701 H1704 0.984 . S
N1701 H1705 0.985 . S
H1702 N1697 0.984 . S
H1703 N1697 0.985 . S
H1704 N1701 0.984 . S
H1705 N1701 0.985 . S
H1706 N1700 0.984 . S
H1707 N1700 0.984 . S
H1708 N1696 0.984 . S
H1709 N1696 0.985 . S
C1710 C1711 1.363 . S
C1710 C1716 1.379 . S
C1710 N1718 1.356 . S
C1711 C1710 1.363 . S
C1711 C1717 1.363 . S
C1712 C1713 1.363 . S
C1712 C1717 1.379 . S
C1712 N1719 1.356 . S
C1713 C1712 1.363 . S
C1713 C1716 1.363 . S
N1714 C1716 1.356 . S
N1714 H1726 0.984 . S
N1714 H1727 0.985 . S
N1715 C1717 1.356 . S
N1715 H1720 0.984 . S
N1715 H1721 0.985 . S
C1716 C1710 1.379 . S
C1716 C1713 1.363 . S
C1716 N1714 1.356 . S
C1717 C1711 1.363 . S
C1717 C1712 1.379 . S
C1717 N1715 1.356 . S
N1718 C1710 1.356 . S
N1718 H1724 0.984 . S
N1718 H1725 0.984 . S
N1719 C1712 1.356 . S
N1719 H1722 0.984 . S
N1719 H1723 0.985 . S
H1720 N1715 0.984 . S
H1721 N1715 0.985 . S
H1722 N1719 0.984 . S
H1723 N1719 0.985 . S
H1724 N1718 0.984 . S
H1725 N1718 0.984 . S
H1726 N1714 0.984 . S
H1727 N1714 0.985 . S
C1728 C1729 1.363 . S
C1728 C1734 1.379 1_565 S
C1728 N1736 1.356 . S
C1729 C1728 1.363 . S
C1729 C1735 1.363 . S
C1730 C1731 1.363 . S
C1730 C1735 1.379 1_545 S
C1730 N1737 1.356 . S
C1731 C1730 1.363 . S
C1731 C1734 1.363 . S
N1732 C1734 1.356 . S
N1732 H1744 0.984 . S
N1732 H1745 0.985 . S
N1733 C1735 1.356 . S
N1733 H1738 0.984 . S
N1733 H1739 0.985 . S
C1734 C1728 1.379 1_545 S
C1734 C1731 1.363 . S
C1734 N1732 1.356 . S
C1735 C1729 1.363 . S
C1735 C1730 1.379 1_565 S
C1735 N1733 1.356 . S
N1736 C1728 1.356 . S
N1736 H1742 0.984 . S
N1736 H1743 0.984 . S
N1737 C1730 1.356 . S
N1737 H1740 0.984 . S
N1737 H1741 0.985 . S
H1738 N1733 0.984 . S
H1739 N1733 0.985 . S
H1740 N1737 0.984 . S
H1741 N1737 0.985 . S
H1742 N1736 0.984 . S
H1743 N1736 0.984 . S
H1744 N1732 0.984 . S
H1745 N1732 0.985 . S
C1746 C1747 1.363 . S
C1746 C1752 1.379 1_565 S
C1746 N1754 1.356 . S
C1747 C1746 1.363 . S
C1747 C1753 1.363 . S
C1748 C1749 1.363 . S
C1748 C1753 1.379 1_545 S
C1748 N1755 1.356 . S
C1749 C1748 1.363 . S
C1749 C1752 1.363 . S
N1750 C1752 1.356 . S
N1750 H1762 0.984 . S
N1750 H1763 0.985 . S
N1751 C1753 1.356 . S
N1751 H1756 0.984 . S
N1751 H1757 0.985 . S
C1752 C1746 1.379 1_545 S
C1752 C1749 1.363 . S
C1752 N1750 1.356 . S
C1753 C1747 1.363 . S
C1753 C1748 1.379 1_565 S
C1753 N1751 1.356 . S
N1754 C1746 1.356 . S
N1754 H1760 0.984 . S
N1754 H1761 0.984 . S
N1755 C1748 1.356 . S
N1755 H1758 0.984 . S
N1755 H1759 0.985 . S
H1756 N1751 0.984 . S
H1757 N1751 0.985 . S
H1758 N1755 0.984 . S
H1759 N1755 0.985 . S
H1760 N1754 0.984 . S
H1761 N1754 0.984 . S
H1762 N1750 0.984 . S
H1763 N1750 0.985 . S
C1764 C1765 1.363 . S
C1764 C1770 1.379 1_655 S
C1764 N1772 1.356 . S
C1765 C1764 1.363 . S
C1765 C1771 1.363 . S
C1766 C1767 1.363 . S
C1766 C1771 1.379 1_455 S
C1766 N1773 1.356 . S
C1767 C1766 1.363 . S
C1767 C1770 1.363 . S
N1768 C1770 1.356 . S
N1768 H1780 0.984 . S
N1768 H1781 0.985 . S
N1769 C1771 1.356 . S
N1769 H1774 0.984 . S
N1769 H1775 0.985 . S
C1770 C1764 1.379 1_455 S
C1770 C1767 1.363 . S
C1770 N1768 1.356 . S
C1771 C1765 1.363 . S
C1771 C1766 1.379 1_655 S
C1771 N1769 1.356 . S
N1772 C1764 1.356 . S
N1772 H1778 0.984 . S
N1772 H1779 0.984 . S
N1773 C1766 1.356 . S
N1773 H1776 0.984 . S
N1773 H1777 0.985 . S
H1774 N1769 0.984 . S
H1775 N1769 0.985 . S
H1776 N1773 0.984 . S
H1777 N1773 0.985 . S
H1778 N1772 0.984 . S
H1779 N1772 0.984 . S
H1780 N1768 0.984 . S
H1781 N1768 0.985 . S
C1782 C1783 1.363 . S
C1782 C1788 1.379 . S
C1782 N1790 1.356 . S
C1783 C1782 1.363 . S
C1783 C1789 1.363 . S
C1784 C1785 1.363 . S
C1784 C1789 1.379 . S
C1784 N1791 1.356 . S
C1785 C1784 1.363 . S
C1785 C1788 1.363 . S
N1786 C1788 1.356 . S
N1786 H1798 0.984 . S
N1786 H1799 0.985 . S
N1787 C1789 1.356 . S
N1787 H1792 0.984 . S
N1787 H1793 0.985 . S
C1788 C1782 1.379 . S
C1788 C1785 1.363 . S
C1788 N1786 1.356 . S
C1789 C1783 1.363 . S
C1789 C1784 1.379 . S
C1789 N1787 1.356 . S
N1790 C1782 1.356 . S
N1790 H1796 0.984 . S
N1790 H1797 0.984 . S
N1791 C1784 1.356 . S
N1791 H1794 0.984 . S
N1791 H1795 0.985 . S
H1792 N1787 0.984 . S
H1793 N1787 0.985 . S
H1794 N1791 0.984 . S
H1795 N1791 0.985 . S
H1796 N1790 0.984 . S
H1797 N1790 0.984 . S
H1798 N1786 0.984 . S
H1799 N1786 0.985 . S
C505 C7 1.420 . S
C507 C259 1.420 . S
C523 C21 1.420 . S
C525 C273 1.420 . S
C541 C287 1.420 . S
C543 C35 1.420 . S
C559 C49 1.420 . S
C561 C469 1.420 . S
C577 C483 1.420 . S
C579 C63 1.420 . S
C595 C77 1.420 . S
C597 C497 1.420 . S
C613 C343 1.420 . S
C615 C91 1.420 . S
C631 C105 1.420 . S
C633 C357 1.420 . S
C649 C119 1.420 . S
C651 C371 1.420 . S
C667 C133 1.420 . S
C669 C217 1.420 . S
C685 C231 1.420 . S
C687 C147 1.420 . S
C703 C161 1.420 . S
C705 C245 1.420 . S
C721 C175 1.420 . S
C723 C427 1.420 . S
C739 C189 1.420 . S
C741 C441 1.420 . S
C757 C203 1.420 . S
C759 C455 1.420 . S
C775 C301 1.420 . S
C777 C385 1.420 . S
C793 C315 1.420 . S
C795 C399 1.420 . S
C811 C329 1.420 . S
C813 C413 1.420 . S
C829 C106 1.450 1_545 S
C831 C6 1.490 . S
C847 C120 1.450 1_655 S
C849 C20 1.490 . S
C865 C34 1.490 . S
C867 C92 1.450 . S
C883 C162 1.450 1_455 S
C885 C48 1.490 . S
C901 C134 1.450 . S
C903 C62 1.490 . S
C919 C148 1.450 1_565 S
C921 C76 1.490 . S
C937 C90 1.490 . S
C939 C22 1.450 1_565 S
C955 C104 1.490 . S
C957 C36 1.450 1_455 S
C973 C118 1.490 . S
C975 C8 1.450 . S
C991 C132 1.490 . S
C993 C78 1.450 1_655 S
C1009 C50 1.450 . S
C1011 C146 1.490 . S
C1027 C64 1.450 1_545 S
C1029 C160 1.490 . S
C1045 C174 1.490 . S
C1047 C274 1.450 . S
C1063 C188 1.490 . S
C1065 C288 1.450 . S
C1081 C202 1.490 . S
C1083 C260 1.450 . S
C1099 C330 1.450 . S
C1101 C216 1.490 . S
C1117 C230 1.490 . S
C1119 C302 1.450 . S
C1135 C316 1.450 . S
C1137 C244 1.490 . S
C1153 C258 1.490 . S
C1155 C190 1.450 . S
C1171 C204 1.450 . S
C1173 C272 1.490 . S
C1189 C176 1.450 . S
C1191 C286 1.490 . S
C1207 C300 1.490 . S
C1209 C246 1.450 . S
C1225 C314 1.490 . S
C1227 C218 1.450 . S
C1243 C328 1.490 . S
C1245 C232 1.450 . S
C1261 C442 1.450 . S
C1263 C342 1.490 . S
C1279 C356 1.490 . S
C1281 C456 1.450 . S
C1297 C370 1.490 . S
C1299 C428 1.450 . S
C1315 C498 1.450 . S
C1317 C384 1.490 . S
C1333 C470 1.450 . S
C1335 C398 1.490 . S
C1351 C484 1.450 . S
C1353 C412 1.490 . S
C1369 C358 1.450 . S
C1371 C426 1.490 . S
C1387 C372 1.450 . S
C1389 C440 1.490 . S
C1405 C344 1.450 . S
C1407 C454 1.490 . S
C1423 C468 1.490 . S
C1425 C414 1.450 . S
C1441 C386 1.450 . S
C1443 C482 1.490 . S
C1459 C496 1.490 . S
C1461 C400 1.450 . S
C1477 C9 1.229 . S
C1479 C415 1.229 . S
C1495 C387 1.229 1_545 S
C1497 C23 1.229 . S
C1513 C37 1.229 . S
C1515 C401 1.229 1_655 S
C1531 C51 1.229 . S
C1533 C191 1.229 . S
C1549 C205 1.229 1_565 S
C1551 C65 1.229 . S
C1567 C79 1.229 . S
C1569 C177 1.229 1_455 S
C1585 C331 1.229 . S
C1587 C93 1.229 . S
C1603 C107 1.229 . S
C1605 C303 1.229 1_565 S
C1621 C121 1.229 . S
C1623 C317 1.229 1_455 S
C1639 C135 1.229 . S
C1641 C443 1.229 . S
C1657 C149 1.229 . S
C1659 C457 1.229 1_545 S
C1675 C429 1.229 1_655 S
C1677 C163 1.229 . S
C1693 C219 1.229 . S
C1695 C359 1.229 . S
C1711 C373 1.229 . S
C1713 C233 1.229 . S
C1729 C345 1.229 . S
C1731 C247 1.229 . S
C1747 C499 1.229 . S
C1749 C261 1.229 . S
C1765 C275 1.229 . S
C1767 C471 1.229 . S
C1783 C289 1.229 . S
C1785 C485 1.229 . S
