# Generated by pormake.
# Topology xfu, (5)-cn, num edge types: 1
# Building blocks:
#     Node 0, Type 0, BuildingBlock: BEQFEK_clean_sbu_0, # of connection points: 5
#     Node 1, Type 0, BuildingBlock: BEQFEK_clean_sbu_0, # of connection points: 5
#     Node 2, Type 0, BuildingBlock: BEQFEK_clean_sbu_0, # of connection points: 5
#     Node 3, Type 0, BuildingBlock: BEQFEK_clean_sbu_0, # of connection points: 5
#     Node 4, Type 0, BuildingBlock: BEQFEK_clean_sbu_0, # of connection points: 5
#     Node 5, Type 0, BuildingBlock: BEQFEK_clean_sbu_0, # of connection points: 5
#     Node 6, Type 0, BuildingBlock: BEQFEK_clean_sbu_0, # of connection points: 5
#     Node 7, Type 0, BuildingBlock: BEQFEK_clean_sbu_0, # of connection points: 5
#     Edge 8, Type (0, 0), BuildingBlock: OJICUG_clean_linker_0, # of connection points: 2
#     Edge 9, Type (0, 0), BuildingBlock: OJICUG_clean_linker_0, # of connection points: 2
#     Edge 10, Type (0, 0), BuildingBlock: OJICUG_clean_linker_0, # of connection points: 2
#     Edge 11, Type (0, 0), BuildingBlock: OJICUG_clean_linker_0, # of connection points: 2
#     Edge 12, Type (0, 0), BuildingBlock: OJICUG_clean_linker_0, # of connection points: 2
#     Edge 13, Type (0, 0), BuildingBlock: OJICUG_clean_linker_0, # of connection points: 2
#     Edge 14, Type (0, 0), BuildingBlock: OJICUG_clean_linker_0, # of connection points: 2
#     Edge 15, Type (0, 0), BuildingBlock: OJICUG_clean_linker_0, # of connection points: 2
#     Edge 16, Type (0, 0), BuildingBlock: OJICUG_clean_linker_0, # of connection points: 2
#     Edge 17, Type (0, 0), BuildingBlock: OJICUG_clean_linker_0, # of connection points: 2
#     Edge 18, Type (0, 0), BuildingBlock: OJICUG_clean_linker_0, # of connection points: 2
#     Edge 19, Type (0, 0), BuildingBlock: OJICUG_clean_linker_0, # of connection points: 2
#     Edge 20, Type (0, 0), BuildingBlock: OJICUG_clean_linker_0, # of connection points: 2
#     Edge 21, Type (0, 0), BuildingBlock: OJICUG_clean_linker_0, # of connection points: 2
#     Edge 22, Type (0, 0), BuildingBlock: OJICUG_clean_linker_0, # of connection points: 2
#     Edge 23, Type (0, 0), BuildingBlock: OJICUG_clean_linker_0, # of connection points: 2
#     Edge 24, Type (0, 0), BuildingBlock: OJICUG_clean_linker_0, # of connection points: 2
#     Edge 25, Type (0, 0), BuildingBlock: OJICUG_clean_linker_0, # of connection points: 2
#     Edge 26, Type (0, 0), BuildingBlock: OJICUG_clean_linker_0, # of connection points: 2
#     Edge 27, Type (0, 0), BuildingBlock: OJICUG_clean_linker_0, # of connection points: 2
# Relax obj value: 0.263
# Max RMSD: 0.192
# Mean RMSD: 0.192
data_MOF--net-xfu--node1-BEQFEK_clean_sbu_0--edge1-OJICUG_clean_linker_0
_symmetry_space_group_name_H-M    P1
_symmetry_Int_Tables_number       1
_symmetry_cell_setting            triclinic
loop_
_symmetry_equiv_pos_as_xyz
'x, y, z'
_cell_length_a     22.886296
_cell_length_b     22.868564
_cell_length_c     44.702218
_cell_angle_alpha  89.967423
_cell_angle_beta   89.965444
_cell_angle_gamma 89.956218
loop_
_atom_site_label
_atom_site_type_symbol
_atom_site_fract_x
_atom_site_fract_y
_atom_site_fract_z
_atom_type_partial_charge
Co0 Co 0.06193 0.29094 0.67037 0.0
Co1 Co 0.06103 0.17608 0.63217 0.0
C2 C 0.16267 0.26092 0.63174 0.0
O3 O 0.13674 0.29686 0.64891 0.0
O4 O 0.13886 0.21284 0.62412 0.0
C5 C 0.08163 0.40677 0.69267 0.0
O6 O 0.1122 0.41296 0.66799 0.0
C7 C 0.05065 0.12061 0.57382 0.0
C8 C 0.03958 0.02728 0.58522 0.0
C9 C 0.04267 0.06568 0.56125 0.0
N10 N 0.05142 0.11491 0.60372 0.0
N11 N 0.04485 0.05903 0.61045 0.0
C12 C 0.06065 0.17743 0.55797 0.0
H13 H 0.08271 0.20915 0.57291 0.0
H14 H 0.01801 0.19646 0.55133 0.0
H15 H 0.08719 0.17052 0.53748 0.0
C16 C 0.94814 0.30718 0.64207 0.0
N17 N -0.00039 0.2793 0.64405 0.0
N18 N -0.00296 0.22983 0.62911 0.0
C19 C 0.94278 0.22406 0.61766 0.0
C20 C 0.91011 0.27308 0.62541 0.0
C21 C 0.934 0.36215 0.65872 0.0
H22 H 0.97046 0.39371 0.65625 0.0
H23 H 0.89298 0.38231 0.65038 0.0
H24 H 0.92915 0.35193 0.68287 0.0
O25 O 0.06575 0.22484 0.6988 0.0
O26 O 0.06426 0.14193 0.67299 0.0
H27 H 0.93882 0.13024 0.61636 0.0
H28 H 0.87123 0.16604 0.60633 0.0
C29 C 0.91954 0.16838 0.60464 0.0
H30 H 0.9317 0.16596 0.58068 0.0
H31 H 0.04413 0.04258 0.63222 0.0
O32 O 0.05234 0.36022 0.69648 0.0
C33 C 0.06612 0.16921 0.69781 0.0
Co34 Co 0.77477 0.55848 0.17131 0.0
Co35 Co 0.88916 0.55758 0.1327 0.0
C36 C 0.8041 0.65872 0.13182 0.0
O37 O 0.76885 0.63312 0.14949 0.0
O38 O 0.85203 0.63486 0.12394 0.0
C39 C 0.65882 0.57828 0.1935 0.0
O40 O 0.65256 0.60848 0.1687 0.0
C41 C 0.94642 0.55273 0.07478 0.0
C42 C 0.03629 0.52518 0.08603 0.0
C43 C 0.00014 0.53894 0.06214 0.0
N44 N 0.9508 0.54742 0.1046 0.0
N45 N 0.00472 0.53141 0.11127 0.0
C46 C 0.89013 0.56559 0.05906 0.0
H47 H 0.85244 0.55535 0.07379 0.0
H48 H 0.88687 0.54003 0.03803 0.0
H49 H 0.88837 0.61283 0.05347 0.0
C50 C 0.75873 0.44431 0.14313 0.0
N51 N 0.78656 0.49577 0.14521 0.0
N52 N 0.83548 0.49359 0.12977 0.0
C53 C 0.84065 0.43979 0.11765 0.0
C54 C 0.79212 0.40678 0.12575 0.0
C55 C 0.70433 0.42975 0.16015 0.0
H56 H 0.71515 0.42504 0.18423 0.0
H57 H 0.67242 0.46601 0.15789 0.0
H58 H 0.68432 0.38856 0.15196 0.0
O59 O 0.84059 0.5627 0.19972 0.0
O60 O 0.92308 0.56177 0.17358 0.0
H61 H 0.93386 0.43138 0.11611 0.0
H62 H 0.89522 0.36929 0.10092 0.0
C63 C 0.89517 0.41762 0.10298 0.0
H64 H 0.89873 0.43687 0.08028 0.0
H65 H 0.01959 0.52359 0.13297 0.0
O66 O 0.70547 0.54918 0.19743 0.0
C67 C 0.89613 0.56353 0.19851 0.0
Co68 Co 0.50773 0.2736 0.67148 0.0
Co69 Co 0.50903 0.3886 0.63326 0.0
C70 C 0.4077 0.30401 0.63212 0.0
O71 O 0.43322 0.26837 0.64963 0.0
O72 O 0.43164 0.352 0.62441 0.0
C73 C 0.48698 0.15754 0.69326 0.0
O74 O 0.45674 0.15197 0.66846 0.0
C75 C 0.5138 0.44655 0.57552 0.0
C76 C 0.54201 0.53616 0.58692 0.0
C77 C 0.52777 0.50034 0.56297 0.0
N78 N 0.51943 0.45058 0.60533 0.0
N79 N 0.53586 0.50434 0.61209 0.0
C80 C 0.50049 0.39047 0.5597 0.0
H81 H 0.51078 0.35253 0.57427 0.0
H82 H 0.5257 0.38727 0.53854 0.0
H83 H 0.45319 0.38903 0.55432 0.0
C84 C 0.6219 0.2575 0.64333 0.0
N85 N 0.57051 0.28549 0.64545 0.0
N86 N 0.57279 0.33456 0.63012 0.0
C87 C 0.62656 0.33961 0.61798 0.0
C88 C 0.65944 0.29088 0.62597 0.0
C89 C 0.63649 0.2031 0.66038 0.0
H90 H 0.6004 0.17108 0.65804 0.0
H91 H 0.67781 0.18318 0.65228 0.0
H92 H 0.64089 0.21394 0.68447 0.0
O93 O 0.5035 0.33907 0.70011 0.0
O94 O 0.50479 0.42199 0.67427 0.0
H95 H 0.69709 0.39376 0.60101 0.0
H96 H 0.62916 0.39824 0.58082 0.0
C97 C 0.64885 0.39416 0.60337 0.0
H98 H 0.63567 0.43282 0.61673 0.0
H99 H 0.54397 0.51894 0.6338 0.0
O100 O 0.51658 0.20381 0.69732 0.0
C101 C 0.50279 0.39468 0.6991 0.0
Co102 Co 0.79155 0.00395 0.17038 0.0
Co103 Co 0.67648 0.00575 0.13237 0.0
C104 C 0.76063 0.90383 0.13125 0.0
O105 O 0.79645 0.92928 0.14863 0.0
O106 O 0.71271 0.92798 0.12361 0.0
C107 C 0.90747 0.98271 0.19219 0.0
O108 O 0.91283 0.95178 0.16758 0.0
C109 C 0.61871 0.01105 0.07467 0.0
C110 C 0.52908 0.03911 0.08613 0.0
C111 C 0.56497 0.02511 0.06215 0.0
N112 N 0.6146 0.01639 0.10449 0.0
N113 N 0.56083 0.03274 0.11129 0.0
C114 C 0.67482 -0.00212 0.05882 0.0
H115 H 0.71267 0.00799 0.07343 0.0
H116 H 0.67805 0.02335 0.03774 0.0
H117 H 0.67633 0.95061 0.0533 0.0
C118 C 0.80797 0.11798 0.14214 0.0
N119 N 0.77986 0.06668 0.14428 0.0
N120 N 0.73066 0.0693 0.12914 0.0
C121 C 0.72555 0.12326 0.11718 0.0
C122 C 0.77443 0.15591 0.12506 0.0
C123 C 0.8627 0.13209 0.15894 0.0
H124 H 0.89436 0.09566 0.15648 0.0
H125 H 0.88282 0.17323 0.15072 0.0
H126 H 0.85227 0.13668 0.18308 0.0
O127 O 0.72612 0.00028 0.1991 0.0
O128 O 0.64317 0.00196 0.17339 0.0
H129 H 0.63237 0.13232 0.11639 0.0
H130 H 0.67101 0.19427 0.10098 0.0
C131 C 0.67079 0.14594 0.10297 0.0
H132 H 0.66645 0.12688 0.08028 0.0
H133 H 0.54617 0.04065 0.13302 0.0
O134 O 0.86137 0.01269 0.19613 0.0
C135 C 0.67055 -6e-05 0.19818 0.0
Co136 Co 0.00671 0.77299 0.32844 0.0
Co137 Co 0.0078 0.8885 0.36613 0.0
C138 C 0.90632 0.80343 0.36719 0.0
O139 O 0.93213 0.7672 0.35014 0.0
O140 O 0.93012 0.85171 0.37449 0.0
C141 C 0.98678 0.65697 0.30649 0.0
O142 O 0.95645 0.65105 0.33127 0.0
C143 C 0.01856 0.94457 0.42428 0.0
C144 C 0.02949 0.03782 0.41266 0.0
C145 C 0.02664 -0.0004 0.43672 0.0
N146 N 0.01751 0.95003 0.39437 0.0
N147 N 0.02399 0.00586 0.38751 0.0
C148 C 0.00873 0.88787 0.44027 0.0
H149 H 0.98655 0.85602 0.42545 0.0
H150 H 0.05143 0.8689 0.44685 0.0
H151 H 0.98237 0.89492 0.46081 0.0
C152 C 0.12068 0.75721 0.35672 0.0
N153 N 0.06927 0.78516 0.35455 0.0
N154 N 0.07189 0.8349 0.36927 0.0
C155 C 0.12612 0.84077 0.38074 0.0
C156 C 0.15871 0.79153 0.37326 0.0
C157 C 0.13464 0.70173 0.34049 0.0
H158 H 0.09792 0.67048 0.34303 0.0
H159 H 0.1754 0.6815 0.3491 0.0
H160 H 0.13986 0.71129 0.31629 0.0
O161 O 0.00237 0.83867 0.29978 0.0
O162 O 0.00414 0.92204 0.3252 0.0
H163 H 0.12984 0.93462 0.38185 0.0
H164 H 0.19769 0.89908 0.39159 0.0
C165 C 0.14943 0.89662 0.39353 0.0
H166 H 0.13777 0.89914 0.41756 0.0
H167 H 0.02452 0.02213 0.3657 0.0
O168 O 0.01617 0.70341 0.30253 0.0
C169 C 0.00195 0.89431 0.30051 0.0
Co170 Co 0.29122 0.50416 0.82886 0.0
Co171 Co 0.17614 0.50572 0.86693 0.0
C172 C 0.26054 0.40399 0.86808 0.0
O173 O 0.29631 0.42949 0.85064 0.0
O174 O 0.21258 0.42807 0.87574 0.0
C175 C 0.40732 0.4835 0.80707 0.0
O176 O 0.41287 0.45285 0.83177 0.0
C177 C 0.11847 0.51096 0.9247 0.0
C178 C 0.02875 0.53878 0.91332 0.0
C179 C 0.06473 0.52493 0.93727 0.0
N180 N 0.11427 0.51621 0.89488 0.0
N181 N 0.06045 0.53242 0.88812 0.0
C182 C 0.17465 0.49797 0.94049 0.0
H183 H 0.21244 0.50809 0.92582 0.0
H184 H 0.17789 0.52354 0.96152 0.0
H185 H 0.17627 0.45072 0.94609 0.0
C186 C 0.30746 0.61819 0.85707 0.0
N187 N 0.27941 0.56686 0.85494 0.0
N188 N 0.23019 0.56938 0.8701 0.0
C189 C 0.22502 0.6233 0.88209 0.0
C190 C 0.27388 0.65602 0.87419 0.0
C191 C 0.36222 0.63239 0.84028 0.0
H192 H 0.39391 0.59599 0.84274 0.0
H193 H 0.38228 0.67353 0.84851 0.0
H194 H 0.35185 0.63703 0.81615 0.0
O195 O 0.22579 0.50039 0.80019 0.0
O196 O 0.14281 0.50186 0.82593 0.0
H197 H 0.13182 0.63211 0.88302 0.0
H198 H 0.17036 0.69421 0.89828 0.0
C199 C 0.17026 0.64586 0.89635 0.0
H200 H 0.16608 0.62687 0.91908 0.0
H201 H 0.04572 0.54025 0.8664 0.0
O202 O 0.36101 0.51309 0.80305 0.0
C203 C 0.17022 0.49994 0.80113 0.0
Co204 Co 0.56094 0.79024 0.32859 0.0
Co205 Co 0.55978 0.67598 0.36738 0.0
C206 C 0.66129 0.76032 0.36785 0.0
O207 O 0.63567 0.79562 0.3502 0.0
O208 O 0.63734 0.71255 0.3759 0.0
C209 C 0.58136 0.90614 0.30646 0.0
O210 O 0.61174 0.91204 0.33121 0.0
C211 C 0.55496 0.61883 0.42537 0.0
C212 C 0.52653 0.52916 0.41424 0.0
C213 C 0.5408 0.56523 0.43809 0.0
N214 N 0.54937 0.61445 0.39557 0.0
N215 N 0.53281 0.56065 0.38897 0.0
C216 C 0.56839 0.67506 0.44102 0.0
H217 H 0.55833 0.71285 0.42631 0.0
H218 H 0.54307 0.67861 0.46213 0.0
H219 H 0.61566 0.67639 0.44647 0.0
C220 C 0.44693 0.8069 0.35673 0.0
N221 N 0.49838 0.77897 0.35481 0.0
N222 N 0.49612 0.73019 0.37038 0.0
C223 C 0.4423 0.72528 0.38249 0.0
C224 C 0.40937 0.77378 0.3742 0.0
C225 C 0.4322 0.86073 0.33924 0.0
H226 H 0.46802 0.89307 0.3415 0.0
H227 H 0.39061 0.88057 0.34704 0.0
H228 H 0.42824 0.84923 0.31521 0.0
O229 O 0.56461 0.72428 0.30023 0.0
O230 O 0.5636 0.64187 0.3265 0.0
H231 H 0.43292 0.63212 0.38397 0.0
H232 H 0.37176 0.67151 0.39976 0.0
C233 C 0.41998 0.67093 0.39727 0.0
H234 H 0.43987 0.66698 0.41979 0.0
H235 H 0.52468 0.54582 0.3673 0.0
O236 O 0.55198 0.8597 0.30253 0.0
C237 C 0.56527 0.6687 0.30153 0.0
Co238 Co 0.27441 0.05878 0.82844 0.0
Co239 Co 0.38884 0.05757 0.86694 0.0
C240 C 0.30402 0.15889 0.86788 0.0
O241 O 0.2687 0.13337 0.85025 0.0
O242 O 0.35192 0.13495 0.87572 0.0
C243 C 0.15867 0.07932 0.80622 0.0
O244 O 0.15266 0.10984 0.83092 0.0
C245 C 0.44624 0.05259 0.92478 0.0
C246 C 0.53601 0.02481 0.91344 0.0
C247 C 0.49996 0.03871 0.93737 0.0
N248 N 0.45051 0.04722 0.89496 0.0
N249 N 0.50437 0.03105 0.88824 0.0
C250 C 0.39003 0.06562 0.94056 0.0
H251 H 0.35227 0.05538 0.92591 0.0
H252 H 0.38679 0.04017 0.96165 0.0
H253 H 0.38837 0.11289 0.94607 0.0
C254 C 0.25823 0.94454 0.85657 0.0
N255 N 0.28611 -0.00402 0.85452 0.0
N256 N 0.33503 0.99368 0.86992 0.0
C257 C 0.34016 0.93982 0.882 0.0
C258 C 0.2916 0.90689 0.8739 0.0
C259 C 0.20386 0.93009 0.83955 0.0
H260 H 0.17198 0.96638 0.84182 0.0
H261 H 0.18379 0.88889 0.84773 0.0
H262 H 0.21472 0.92545 0.81547 0.0
O263 O 0.3402 0.06295 0.79996 0.0
O264 O 0.4227 0.06176 0.82604 0.0
H265 H 0.43334 0.93115 0.88337 0.0
H266 H 0.3946 0.8692 0.89871 0.0
C267 C 0.39467 0.91752 0.89659 0.0
H268 H 0.39841 0.93683 0.91925 0.0
H269 H 0.51916 0.02317 0.86653 0.0
O270 O 0.20505 0.04972 0.80238 0.0
C271 C 0.39575 0.06366 0.80113 0.0
C272 C 0.05962 0.98015 0.48937 0.0
C273 C 0.03067 0.01613 0.46864 0.0
H274 H 0.08598 0.96787 0.53491 0.0
C275 C 0.0064 0.06914 0.47848 0.0
H276 H 0.08059 0.94006 0.48236 0.0
C277 C 0.01006 0.08539 0.50855 0.0
C278 C 0.03892 0.04936 0.52929 0.0
H279 H 0.98365 0.09764 0.46301 0.0
H280 H 0.98909 0.12548 0.51556 0.0
C281 C 0.06326 -0.00362 0.51944 0.0
C282 C 0.99402 0.5757 0.00926 0.0
C283 C 0.01629 0.53553 0.03013 0.0
H284 H 0.992 0.60361 0.96352 0.0
C285 C 0.05508 0.49197 0.02029 0.0
H286 H 0.96548 0.61086 0.01623 0.0
C287 C 0.07063 0.4881 0.99013 0.0
C288 C 0.04842 0.5283 0.96926 0.0
H289 H 0.07267 0.4602 0.03586 0.0
H290 H 0.09914 0.45291 0.98316 0.0
C291 C 0.00959 0.57183 0.97909 0.0
C292 C 0.49034 0.49489 0.51023 0.0
C293 C 0.53083 0.5168 0.53098 0.0
H294 H 0.46198 0.49314 0.46459 0.0
C295 C 0.57438 0.55545 0.52104 0.0
H296 H 0.45514 0.46653 0.51729 0.0
C297 C 0.578 0.5711 0.49087 0.0
C298 C 0.53756 0.5491 0.47011 0.0
H299 H 0.60638 0.5728 0.53651 0.0
H300 H 0.61321 0.59944 0.48381 0.0
C301 C 0.49396 0.51052 0.48007 0.0
C302 C 0.55496 0.9918 0.97921 0.0
C303 C 0.51622 0.03539 0.96935 0.0
H304 H 0.59907 0.95282 0.01633 0.0
C305 C 0.49412 0.07571 0.99018 0.0
H306 H 0.57243 0.95992 0.96367 0.0
C307 C 0.50979 0.07195 0.02033 0.0
C308 C 0.54857 0.02838 0.03018 0.0
H309 H 0.46563 0.1109 0.9832 0.0
H310 H 0.49234 0.10384 0.03587 0.0
C311 C 0.57062 0.98804 0.00935 0.0
C312 C 0.08496 0.14168 0.78022 0.0
C313 C 0.12145 0.09228 0.77997 0.0
H314 H 0.03846 0.20475 0.75412 0.0
C315 C 0.12966 0.06191 0.7529 0.0
H316 H 0.07724 0.16583 0.80069 0.0
C317 C 0.10686 0.08403 0.72615 0.0
C318 C 0.07608 0.13717 0.72606 0.0
H319 H 0.15707 0.0233 0.75204 0.0
H320 H 0.11745 0.06212 0.70536 0.0
C321 C 0.06288 0.16416 0.75349 0.0
C322 C 0.00364 0.62789 0.25312 0.0
C323 C 0.97372 0.61959 0.28032 0.0
H324 H 0.00288 0.61554 0.20559 0.0
C325 C 0.92458 0.58284 0.28079 0.0
H326 H 0.04204 0.6555 0.25209 0.0
C327 C 0.90191 0.56056 0.25417 0.0
C328 C 0.92843 0.57383 0.22662 0.0
H329 H 0.90078 0.57504 0.30136 0.0
H330 H 0.86152 0.53592 0.25498 0.0
C331 C 0.98132 0.6049 0.22648 0.0
C332 C 0.48199 0.4217 0.78142 0.0
C333 C 0.4452 0.47087 0.78101 0.0
H334 H 0.52949 0.35907 0.75553 0.0
C335 C 0.43745 0.50135 0.75393 0.0
H336 H 0.48937 0.39748 0.80191 0.0
C337 C 0.46101 0.47952 0.72728 0.0
C338 C 0.49212 0.42658 0.72731 0.0
H339 H 0.40984 0.53981 0.75295 0.0
H340 H 0.45076 0.50148 0.70646 0.0
C341 C 0.50485 0.39952 0.75479 0.0
C342 C 0.56367 0.93585 0.25326 0.0
C343 C 0.59417 0.94369 0.2803 0.0
H344 H 0.56359 0.94866 0.20576 0.0
C345 C 0.64352 0.98015 0.28058 0.0
H346 H 0.52509 0.90848 0.25239 0.0
C347 C 0.66581 0.00257 0.25387 0.0
C348 C 0.63869 0.98972 0.22645 0.0
H349 H 0.66777 0.98758 0.30102 0.0
H350 H 0.70637 0.02694 0.2545 0.0
C351 C 0.5856 0.95898 0.22654 0.0
C352 C 0.96099 0.97915 0.27198 0.0
C353 C 0.99148 0.92585 0.27216 0.0
H354 H 0.91055 0.03968 0.24608 0.0
C355 C 0.0039 0.89826 0.24479 0.0
H356 H 0.95101 0.00153 0.29272 0.0
C357 C 0.98133 0.92035 0.21807 0.0
C358 C 0.94514 0.96997 0.21829 0.0
H359 H 0.02808 0.85752 0.24421 0.0
H360 H 0.98845 0.89576 0.19769 0.0
C361 C 0.93771 0.0009 0.24525 0.0
C362 C 0.16546 0.50312 0.74546 0.0
C363 C 0.13841 0.4898 0.77287 0.0
H364 H 0.16752 0.4887 0.69827 0.0
C365 C 0.08553 0.45871 0.77273 0.0
H366 H 0.20586 0.52776 0.74486 0.0
C367 C 0.06374 0.43575 0.74597 0.0
C368 C 0.09419 0.4441 0.71892 0.0
H369 H 0.06359 0.44802 0.79351 0.0
H370 H 0.02534 0.40811 0.7468 0.0
C371 C 0.14331 0.48088 0.71871 0.0
C372 C 0.56184 0.6626 0.24589 0.0
C373 C 0.57543 0.63623 0.27344 0.0
H374 H 0.57618 0.66375 0.19868 0.0
C375 C 0.60689 0.5835 0.27357 0.0
H376 H 0.53691 0.70287 0.2451 0.0
C377 C 0.62997 0.56126 0.2469 0.0
C378 C 0.62138 0.59112 0.2197 0.0
H379 H 0.61779 0.56207 0.29446 0.0
H380 H 0.65789 0.52304 0.24793 0.0
C381 C 0.58422 0.64001 0.21925 0.0
C382 C 0.40143 0.06124 0.74545 0.0
C383 C 0.42807 0.07403 0.773 0.0
H384 H 0.40036 0.07622 0.69829 0.0
C385 C 0.48119 0.10471 0.77316 0.0
H386 H 0.36086 0.0369 0.74462 0.0
C387 C 0.50366 0.1278 0.74655 0.0
C388 C 0.47365 0.12 0.71936 0.0
H389 H 0.50285 0.11497 0.79405 0.0
H390 H 0.54226 0.15511 0.74761 0.0
C391 C 0.42425 0.08362 0.71885 0.0
C392 C 0.81499 0.27833 0.59788 0.0
C393 C 0.84595 0.27817 0.62497 0.0
H394 H 0.73044 0.28314 0.57697 0.0
C395 C 0.81536 0.28146 0.6521 0.0
H396 H 0.83803 0.27546 0.57675 0.0
C397 C 0.75469 0.28536 0.65222 0.0
C398 C 0.72356 0.28585 0.62523 0.0
H399 H 0.83841 0.2805 0.67325 0.0
H400 H 0.73203 0.28841 0.67345 0.0
C401 C 0.75394 0.28263 0.598 0.0
C402 C 0.78525 0.31223 0.09768 0.0
C403 C 0.78716 0.34259 0.12494 0.0
H404 H 0.77925 0.2281 0.07637 0.0
C405 C 0.7855 0.31137 0.15192 0.0
H406 H 0.78671 0.33578 0.07666 0.0
C407 C 0.78156 0.25068 0.15176 0.0
C408 C 0.7795 0.22011 0.1246 0.0
H409 H 0.78768 0.33396 0.17319 0.0
H410 H 0.77967 0.22758 0.1729 0.0
C411 C 0.78104 0.25113 0.09752 0.0
C412 C 0.31461 0.77742 0.34741 0.0
C413 C 0.34521 0.77843 0.37456 0.0
H414 H 0.23133 0.78124 0.32589 0.0
C415 C 0.31432 0.783 0.40158 0.0
H416 H 0.33771 0.77336 0.32635 0.0
C417 C 0.25328 0.78728 0.40133 0.0
C418 C 0.22283 0.78607 0.37409 0.0
H419 H 0.33741 0.78366 0.42272 0.0
H420 H 0.22984 0.79129 0.42229 0.0
C421 C 0.25394 0.7813 0.34717 0.0
C422 C 0.28461 0.81211 0.90182 0.0
C423 C 0.28664 0.8427 0.87461 0.0
H424 H 0.27852 0.72781 0.923 0.0
C425 C 0.28509 0.81169 0.84757 0.0
H426 H 0.286 0.83548 0.92287 0.0
C427 C 0.28115 0.75099 0.84765 0.0
C428 C 0.27897 0.72021 0.87475 0.0
H429 H 0.28735 0.83446 0.82634 0.0
H430 H 0.27934 0.72807 0.82646 0.0
C431 C 0.2804 0.75101 0.90189 0.0
C432 C 0.30631 0.33981 0.62287 0.0
C433 C 0.34591 0.29295 0.62451 0.0
H434 H 0.21647 0.36626 0.62411 0.0
C435 C 0.3244 0.23544 0.62358 0.0
H436 H 0.32165 0.38458 0.62371 0.0
C437 C 0.26423 0.22497 0.62308 0.0
C438 C 0.22461 0.27186 0.62436 0.0
H439 H 0.35405 0.19855 0.62476 0.0
H440 H 0.24888 0.18021 0.62409 0.0
C441 C 0.24613 0.32935 0.62322 0.0
C442 C 0.8394 0.76013 0.12201 0.0
C443 C 0.7927 0.7205 0.12413 0.0
H444 H 0.8657 0.85005 0.12283 0.0
C445 C 0.73517 0.74201 0.12354 0.0
H446 H 0.88419 0.7448 0.12257 0.0
C447 C 0.7246 0.80223 0.12293 0.0
C448 C 0.77141 0.84189 0.12376 0.0
H449 H 0.69839 0.71235 0.12508 0.0
H450 H 0.67989 0.81761 0.12425 0.0
C451 C 0.82886 0.82035 0.12226 0.0
C452 C 0.74469 0.82896 0.37589 0.0
C453 C 0.72318 0.77144 0.37522 0.0
H454 H 0.82018 0.8842 0.37491 0.0
C455 C 0.76281 0.72461 0.37684 0.0
H456 H 0.71502 0.86584 0.37471 0.0
C457 C 0.82298 0.73507 0.37622 0.0
C458 C 0.84448 0.79256 0.37481 0.0
H459 H 0.74746 0.67982 0.37619 0.0
H460 H 0.85263 0.69815 0.37532 0.0
C461 C 0.80486 0.83944 0.37611 0.0
C462 C 0.33946 0.26034 0.87735 0.0
C463 C 0.29274 0.2207 0.87552 0.0
H464 H 0.36575 0.35026 0.87619 0.0
C465 C 0.23522 0.24221 0.87628 0.0
H466 H 0.38424 0.245 0.87664 0.0
C467 C 0.22465 0.30243 0.87677 0.0
C468 C 0.27145 0.34209 0.87565 0.0
H469 H 0.19842 0.21254 0.87495 0.0
H470 H 0.17992 0.31779 0.8756 0.0
C471 C 0.32891 0.32056 0.87699 0.0
loop_
_geom_bond_atom_site_label_1
_geom_bond_atom_site_label_2
_geom_bond_distance
_geom_bond_site_symmetry_2
_ccdc_geom_bond_type
Co0 O3 1.970 . S
Co0 N17 1.989 . S
Co0 O25 1.967 . S
Co0 O32 1.920 . S
Co1 O4 1.966 . S
Co1 N10 2.022 . S
Co1 N18 1.984 1_455 S
Co1 O26 1.941 . S
C2 O3 1.258 . S
C2 O4 1.263 . S
O3 Co0 1.970 . S
O3 C2 1.258 . S
O4 Co1 1.966 . S
O4 C2 1.263 . S
C5 O6 1.235 . S
C5 O32 1.289 . S
O6 C5 1.235 . S
C7 C9 1.400 . S
C7 N10 1.351 . S
C7 C12 1.501 . S
C8 C9 1.382 1_655 S
C8 N11 1.338 1_655 S
C9 C7 1.400 . S
C9 C8 1.382 1_455 S
N10 Co1 2.022 . S
N10 C7 1.351 . S
N10 N11 1.365 . S
N11 C8 1.338 1_455 S
N11 N10 1.365 . S
N11 H31 0.855 1_455 S
C12 C7 1.501 . S
C12 H13 0.961 . S
C12 H14 0.961 . S
C12 H15 0.960 . S
H13 C12 0.961 . S
H14 C12 0.961 . S
H15 C12 0.960 . S
C16 N17 1.342 1_655 S
C16 C20 1.401 . S
C16 C21 1.499 . S
N17 Co0 1.989 . S
N17 C16 1.342 1_455 S
N17 N18 1.387 1_455 S
N18 Co1 1.984 1_655 S
N18 N17 1.387 1_655 S
N18 C19 1.357 . S
C19 N18 1.357 . S
C19 C20 1.396 . S
C19 C29 1.510 . S
C20 C16 1.401 . S
C20 C19 1.396 . S
C21 C16 1.499 . S
C21 H22 0.959 . S
C21 H23 0.960 . S
C21 H24 0.961 . S
H22 C21 0.959 . S
H23 C21 0.960 . S
H24 C21 0.961 . S
O25 Co0 1.967 . S
O25 C33 1.258 . S
O26 Co1 1.941 . S
O26 C33 1.266 . S
H27 C29 0.959 . S
H28 C29 0.961 . S
C29 C19 1.510 . S
C29 H27 0.959 . S
C29 H28 0.961 . S
C29 H30 0.960 . S
H30 C29 0.960 . S
H31 N11 0.855 1_655 S
O32 Co0 1.920 . S
O32 C5 1.289 . S
C33 O25 1.258 . S
C33 O26 1.266 . S
Co34 O37 1.970 . S
Co34 N51 1.989 . S
Co34 O59 1.967 . S
Co34 O66 1.920 . S
Co35 O38 1.966 . S
Co35 N44 2.022 . S
Co35 N52 1.993 . S
Co35 O60 1.941 . S
C36 O37 1.258 . S
C36 O38 1.263 . S
O37 Co34 1.970 . S
O37 C36 1.258 . S
O38 Co35 1.966 . S
O38 C36 1.263 . S
C39 O40 1.235 . S
C39 O66 1.289 . S
O40 C39 1.235 . S
C41 C43 1.400 . S
C41 N44 1.351 . S
C41 C46 1.501 . S
C42 C43 1.387 1_455 S
C42 N45 1.341 1_455 S
C43 C41 1.400 . S
C43 C42 1.387 1_655 S
N44 Co35 2.022 . S
N44 C41 1.351 . S
N44 N45 1.365 . S
N45 C42 1.341 1_655 S
N45 N44 1.365 . S
N45 H65 0.862 1_655 S
C46 C41 1.501 . S
C46 H47 0.961 . S
C46 H48 0.961 . S
C46 H49 0.960 . S
H47 C46 0.961 . S
H48 C46 0.961 . S
H49 C46 0.960 . S
C50 N51 1.342 . S
C50 C54 1.401 . S
C50 C55 1.499 . S
N51 Co34 1.989 . S
N51 C50 1.342 . S
N51 N52 1.388 . S
N52 Co35 1.993 . S
N52 N51 1.388 . S
N52 C53 1.346 . S
C53 N52 1.346 . S
C53 C54 1.396 . S
C53 C63 1.510 . S
C54 C50 1.401 . S
C54 C53 1.396 . S
C55 C50 1.499 . S
C55 H56 0.959 . S
C55 H57 0.960 . S
C55 H58 0.961 . S
H56 C55 0.959 . S
H57 C55 0.960 . S
H58 C55 0.961 . S
O59 Co34 1.967 . S
O59 C67 1.258 . S
O60 Co35 1.941 . S
O60 C67 1.266 . S
H61 C63 0.959 . S
H62 C63 0.961 . S
C63 C53 1.510 . S
C63 H61 0.959 . S
C63 H62 0.961 . S
C63 H64 0.960 . S
H64 C63 0.960 . S
H65 N45 0.862 1_455 S
O66 Co34 1.920 . S
O66 C39 1.289 . S
C67 O59 1.258 . S
C67 O60 1.266 . S
Co68 O71 1.970 . S
Co68 N85 1.989 . S
Co68 O93 1.967 . S
Co68 O100 1.920 . S
Co69 O72 1.966 . S
Co69 N78 2.022 . S
Co69 N86 1.993 . S
Co69 O94 1.941 . S
C70 O71 1.258 . S
C70 O72 1.263 . S
O71 Co68 1.970 . S
O71 C70 1.258 . S
O72 Co69 1.966 . S
O72 C70 1.263 . S
C73 O74 1.235 . S
C73 O100 1.289 . S
O74 C73 1.235 . S
C75 C77 1.400 . S
C75 N78 1.351 . S
C75 C80 1.501 . S
C76 C77 1.387 . S
C76 N79 1.341 . S
C77 C75 1.400 . S
C77 C76 1.387 . S
N78 Co69 2.022 . S
N78 C75 1.351 . S
N78 N79 1.365 . S
N79 C76 1.341 . S
N79 N78 1.365 . S
N79 H99 0.862 . S
C80 C75 1.501 . S
C80 H81 0.961 . S
C80 H82 0.961 . S
C80 H83 0.960 . S
H81 C80 0.961 . S
H82 C80 0.961 . S
H83 C80 0.960 . S
C84 N85 1.342 . S
C84 C88 1.401 . S
C84 C89 1.499 . S
N85 Co68 1.989 . S
N85 C84 1.342 . S
N85 N86 1.388 . S
N86 Co69 1.993 . S
N86 N85 1.388 . S
N86 C87 1.346 . S
C87 N86 1.346 . S
C87 C88 1.396 . S
C87 C97 1.510 . S
C88 C84 1.401 . S
C88 C87 1.396 . S
C89 C84 1.499 . S
C89 H90 0.959 . S
C89 H91 0.960 . S
C89 H92 0.961 . S
H90 C89 0.959 . S
H91 C89 0.960 . S
H92 C89 0.961 . S
O93 Co68 1.967 . S
O93 C101 1.258 . S
O94 Co69 1.941 . S
O94 C101 1.266 . S
H95 C97 0.959 . S
H96 C97 0.961 . S
C97 C87 1.510 . S
C97 H95 0.959 . S
C97 H96 0.961 . S
C97 H98 0.960 . S
H98 C97 0.960 . S
H99 N79 0.862 . S
O100 Co68 1.920 . S
O100 C73 1.289 . S
C101 O93 1.258 . S
C101 O94 1.266 . S
Co102 O105 1.970 . S
Co102 N119 1.989 1_565 S
Co102 O127 1.967 . S
Co102 O134 1.920 . S
Co103 O106 1.966 1_545 S
Co103 N112 2.022 . S
Co103 N120 1.993 . S
Co103 O128 1.941 1_545 S
C104 O105 1.258 . S
C104 O106 1.263 . S
O105 Co102 1.970 . S
O105 C104 1.258 . S
O106 Co103 1.966 1_565 S
O106 C104 1.263 . S
C107 O108 1.235 . S
C107 O134 1.289 1_545 S
O108 C107 1.235 . S
C109 C111 1.400 . S
C109 N112 1.351 . S
C109 C114 1.501 1_545 S
C110 C111 1.387 . S
C110 N113 1.341 . S
C111 C109 1.400 . S
C111 C110 1.387 . S
N112 Co103 2.022 . S
N112 C109 1.351 . S
N112 N113 1.365 . S
N113 C110 1.341 . S
N113 N112 1.365 . S
N113 H133 0.862 . S
C114 C109 1.501 1_565 S
C114 H115 0.961 . S
C114 H116 0.961 . S
C114 H117 0.960 . S
H115 C114 0.961 . S
H116 C114 0.961 . S
H117 C114 0.960 . S
C118 N119 1.342 . S
C118 C122 1.401 . S
C118 C123 1.499 . S
N119 Co102 1.989 1_545 S
N119 C118 1.342 . S
N119 N120 1.388 . S
N120 Co103 1.993 . S
N120 N119 1.388 . S
N120 C121 1.346 . S
C121 N120 1.346 . S
C121 C122 1.396 . S
C121 C131 1.510 . S
C122 C118 1.401 . S
C122 C121 1.396 . S
C123 C118 1.499 . S
C123 H124 0.959 . S
C123 H125 0.960 . S
C123 H126 0.961 . S
H124 C123 0.959 . S
H125 C123 0.960 . S
H126 C123 0.961 . S
O127 Co102 1.967 . S
O127 C135 1.258 . S
O128 Co103 1.941 1_565 S
O128 C135 1.266 . S
H129 C131 0.959 . S
H130 C131 0.961 . S
C131 C121 1.510 . S
C131 H129 0.959 . S
C131 H130 0.961 . S
C131 H132 0.960 . S
H132 C131 0.960 . S
H133 N113 0.862 . S
O134 Co102 1.920 . S
O134 C107 1.289 1_565 S
C135 O127 1.258 . S
C135 O128 1.266 . S
Co136 O139 1.983 . S
Co136 N153 1.975 1_655 S
Co136 O161 1.972 . S
Co136 O168 1.920 1_655 S
Co137 O140 1.966 1_455 S
Co137 N146 2.022 . S
Co137 N154 1.993 . S
Co137 O162 1.941 1_455 S
C138 O139 1.258 . S
C138 O140 1.263 . S
O139 Co136 1.983 . S
O139 C138 1.258 . S
O140 Co137 1.966 1_655 S
O140 C138 1.263 . S
C141 O142 1.235 . S
C141 O168 1.290 . S
O142 C141 1.235 . S
C143 C145 1.400 . S
C143 N146 1.351 . S
C143 C148 1.501 1_455 S
C144 C145 1.387 1_545 S
C144 N147 1.341 1_545 S
C145 C143 1.400 . S
C145 C144 1.387 1_565 S
N146 Co137 2.022 . S
N146 C143 1.351 . S
N146 N147 1.365 . S
N147 C144 1.341 1_565 S
N147 N146 1.365 . S
N147 H167 0.862 1_565 S
C148 C143 1.501 1_655 S
C148 H149 0.961 . S
C148 H150 0.961 . S
C148 H151 0.960 . S
H149 C148 0.961 . S
H150 C148 0.961 . S
H151 C148 0.960 . S
C152 N153 1.342 . S
C152 C156 1.401 . S
C152 C157 1.499 . S
N153 Co136 1.975 1_455 S
N153 C152 1.342 . S
N153 N154 1.388 . S
N154 Co137 1.993 . S
N154 N153 1.388 . S
N154 C155 1.346 . S
C155 N154 1.346 . S
C155 C156 1.396 . S
C155 C165 1.510 . S
C156 C152 1.401 . S
C156 C155 1.396 . S
C157 C152 1.499 . S
C157 H158 0.959 . S
C157 H159 0.960 . S
C157 H160 0.961 . S
H158 C157 0.959 . S
H159 C157 0.960 . S
H160 C157 0.961 . S
O161 Co136 1.972 . S
O161 C169 1.258 . S
O162 Co137 1.941 1_655 S
O162 C169 1.266 . S
H163 C165 0.959 . S
H164 C165 0.961 . S
C165 C155 1.510 . S
C165 H163 0.959 . S
C165 H164 0.961 . S
C165 H166 0.960 . S
H166 C165 0.960 . S
H167 N147 0.862 1_545 S
O168 Co136 1.920 1_455 S
O168 C141 1.290 . S
C169 O161 1.258 . S
C169 O162 1.266 . S
Co170 O173 1.970 . S
Co170 N187 1.989 . S
Co170 O195 1.967 . S
Co170 O202 1.920 . S
Co171 O174 1.966 . S
Co171 N180 2.022 . S
Co171 N188 1.993 . S
Co171 O196 1.941 . S
C172 O173 1.258 . S
C172 O174 1.263 . S
O173 Co170 1.970 . S
O173 C172 1.258 . S
O174 Co171 1.966 . S
O174 C172 1.263 . S
C175 O176 1.235 . S
C175 O202 1.289 . S
O176 C175 1.235 . S
C177 C179 1.400 . S
C177 N180 1.351 . S
C177 C182 1.501 . S
C178 C179 1.387 . S
C178 N181 1.341 . S
C179 C177 1.400 . S
C179 C178 1.387 . S
N180 Co171 2.022 . S
N180 C177 1.351 . S
N180 N181 1.365 . S
N181 C178 1.341 . S
N181 N180 1.365 . S
N181 H201 0.862 . S
C182 C177 1.501 . S
C182 H183 0.961 . S
C182 H184 0.961 . S
C182 H185 0.960 . S
H183 C182 0.961 . S
H184 C182 0.961 . S
H185 C182 0.960 . S
C186 N187 1.342 . S
C186 C190 1.401 . S
C186 C191 1.499 . S
N187 Co170 1.989 . S
N187 C186 1.342 . S
N187 N188 1.388 . S
N188 Co171 1.993 . S
N188 N187 1.388 . S
N188 C189 1.346 . S
C189 N188 1.346 . S
C189 C190 1.396 . S
C189 C199 1.510 . S
C190 C186 1.401 . S
C190 C189 1.396 . S
C191 C186 1.499 . S
C191 H192 0.959 . S
C191 H193 0.960 . S
C191 H194 0.961 . S
H192 C191 0.959 . S
H193 C191 0.960 . S
H194 C191 0.961 . S
O195 Co170 1.967 . S
O195 C203 1.258 . S
O196 Co171 1.941 . S
O196 C203 1.266 . S
H197 C199 0.959 . S
H198 C199 0.961 . S
C199 C189 1.510 . S
C199 H197 0.959 . S
C199 H198 0.961 . S
C199 H200 0.960 . S
H200 C199 0.960 . S
H201 N181 0.862 . S
O202 Co170 1.920 . S
O202 C175 1.289 . S
C203 O195 1.258 . S
C203 O196 1.266 . S
Co204 O207 1.970 . S
Co204 N221 1.989 . S
Co204 O229 1.967 . S
Co204 O236 1.920 . S
Co205 O208 1.966 . S
Co205 N214 2.022 . S
Co205 N222 1.993 . S
Co205 O230 1.941 . S
C206 O207 1.258 . S
C206 O208 1.263 . S
O207 Co204 1.970 . S
O207 C206 1.258 . S
O208 Co205 1.966 . S
O208 C206 1.263 . S
C209 O210 1.235 . S
C209 O236 1.289 . S
O210 C209 1.235 . S
C211 C213 1.400 . S
C211 N214 1.351 . S
C211 C216 1.501 . S
C212 C213 1.387 . S
C212 N215 1.341 . S
C213 C211 1.400 . S
C213 C212 1.387 . S
N214 Co205 2.022 . S
N214 C211 1.351 . S
N214 N215 1.365 . S
N215 C212 1.341 . S
N215 N214 1.365 . S
N215 H235 0.862 . S
C216 C211 1.501 . S
C216 H217 0.961 . S
C216 H218 0.961 . S
C216 H219 0.960 . S
H217 C216 0.961 . S
H218 C216 0.961 . S
H219 C216 0.960 . S
C220 N221 1.342 . S
C220 C224 1.401 . S
C220 C225 1.499 . S
N221 Co204 1.989 . S
N221 C220 1.342 . S
N221 N222 1.388 . S
N222 Co205 1.993 . S
N222 N221 1.388 . S
N222 C223 1.346 . S
C223 N222 1.346 . S
C223 C224 1.396 . S
C223 C233 1.510 . S
C224 C220 1.401 . S
C224 C223 1.396 . S
C225 C220 1.499 . S
C225 H226 0.959 . S
C225 H227 0.960 . S
C225 H228 0.961 . S
H226 C225 0.959 . S
H227 C225 0.960 . S
H228 C225 0.961 . S
O229 Co204 1.967 . S
O229 C237 1.258 . S
O230 Co205 1.941 . S
O230 C237 1.266 . S
H231 C233 0.959 . S
H232 C233 0.961 . S
C233 C223 1.510 . S
C233 H231 0.959 . S
C233 H232 0.961 . S
C233 H234 0.960 . S
H234 C233 0.960 . S
H235 N215 0.862 . S
O236 Co204 1.920 . S
O236 C209 1.289 . S
C237 O229 1.258 . S
C237 O230 1.266 . S
Co238 O241 1.970 . S
Co238 N255 1.983 1_545 S
Co238 O263 1.967 . S
Co238 O270 1.920 . S
Co239 O242 1.966 . S
Co239 N248 2.022 . S
Co239 N256 1.993 1_545 S
Co239 O264 1.941 . S
C240 O241 1.258 . S
C240 O242 1.263 . S
O241 Co238 1.970 . S
O241 C240 1.258 . S
O242 Co239 1.966 . S
O242 C240 1.263 . S
C243 O244 1.235 . S
C243 O270 1.289 . S
O244 C243 1.235 . S
C245 C247 1.400 . S
C245 N248 1.351 . S
C245 C250 1.501 . S
C246 C247 1.387 1_565 S
C246 N249 1.341 1_565 S
C247 C245 1.400 . S
C247 C246 1.387 1_545 S
N248 Co239 2.022 . S
N248 C245 1.351 . S
N248 N249 1.365 . S
N249 C246 1.341 1_545 S
N249 N248 1.365 . S
N249 H269 0.862 1_545 S
C250 C245 1.501 . S
C250 H251 0.961 . S
C250 H252 0.961 . S
C250 H253 0.960 . S
H251 C250 0.961 . S
H252 C250 0.961 . S
H253 C250 0.960 . S
C254 N255 1.348 . S
C254 C258 1.401 . S
C254 C259 1.499 . S
N255 Co238 1.983 1_565 S
N255 C254 1.348 . S
N255 N256 1.388 . S
N256 Co239 1.993 1_565 S
N256 N255 1.388 . S
N256 C257 1.346 . S
C257 N256 1.346 . S
C257 C258 1.396 . S
C257 C267 1.510 . S
C258 C254 1.401 . S
C258 C257 1.396 . S
C259 C254 1.499 . S
C259 H260 0.959 . S
C259 H261 0.960 . S
C259 H262 0.961 . S
H260 C259 0.959 . S
H261 C259 0.960 . S
H262 C259 0.961 . S
O263 Co238 1.967 . S
O263 C271 1.258 . S
O264 Co239 1.941 . S
O264 C271 1.266 . S
H265 C267 0.959 . S
H266 C267 0.961 . S
C267 C257 1.510 . S
C267 H265 0.959 . S
C267 H266 0.961 . S
C267 H268 0.960 . S
H268 C267 0.960 . S
H269 N249 0.862 1_565 S
O270 Co238 1.920 . S
O270 C243 1.289 . S
C271 O263 1.258 . S
C271 O264 1.266 . S
C272 C273 1.387 1_565 S
C272 H276 0.950 . S
C272 C281 1.390 1_565 S
C273 C272 1.387 1_545 S
C273 C275 1.387 . S
H274 C281 0.950 . S
C275 C273 1.387 . S
C275 C277 1.390 1_455 S
C275 H279 0.950 1_455 S
H276 C272 0.950 . S
C277 C275 1.390 1_655 S
C277 C278 1.387 1_655 S
C277 H280 0.950 . S
C278 C277 1.387 1_455 S
C278 C281 1.387 . S
H279 C275 0.950 1_655 S
H280 C277 0.950 . S
C281 C272 1.390 1_545 S
C281 H274 0.950 . S
C281 C278 1.387 . S
C282 C283 1.387 . S
C282 H286 0.950 . S
C282 C291 1.390 1_554 S
C283 C282 1.387 . S
C283 C285 1.387 . S
H284 C291 0.950 . S
C285 C283 1.387 . S
C285 C287 1.390 1_554 S
C285 H289 0.950 . S
H286 C282 0.950 . S
C287 C285 1.390 1_556 S
C287 C288 1.387 . S
C287 H290 0.950 . S
C288 C287 1.387 . S
C288 C291 1.387 . S
H289 C285 0.950 . S
H290 C287 0.950 . S
C291 C282 1.390 1_556 S
C291 H284 0.950 . S
C291 C288 1.387 . S
C292 C293 1.387 . S
C292 H296 0.950 . S
C292 C301 1.390 . S
C293 C292 1.387 . S
C293 C295 1.387 . S
H294 C301 0.950 . S
C295 C293 1.387 . S
C295 C297 1.390 . S
C295 H299 0.950 . S
H296 C292 0.950 . S
C297 C295 1.390 . S
C297 C298 1.387 . S
C297 H300 0.950 . S
C298 C297 1.387 . S
C298 C301 1.387 . S
H299 C295 0.950 . S
H300 C297 0.950 . S
C301 C292 1.390 . S
C301 H294 0.950 . S
C301 C298 1.387 . S
C302 C303 1.387 1_565 S
C302 H306 0.950 . S
C302 C311 1.390 1_556 S
C303 C302 1.387 1_545 S
C303 C305 1.387 . S
H304 C311 0.950 . S
C305 C303 1.387 . S
C305 C307 1.390 1_556 S
C305 H309 0.950 . S
H306 C302 0.950 . S
C307 C305 1.390 1_554 S
C307 C308 1.387 . S
C307 H310 0.950 . S
C308 C307 1.387 . S
C308 C311 1.387 1_545 S
H309 C305 0.950 . S
H310 C307 0.950 . S
C311 C302 1.390 1_554 S
C311 H304 0.950 . S
C311 C308 1.387 1_565 S
C312 C313 1.387 . S
C312 H316 0.950 . S
C312 C321 1.390 . S
C313 C312 1.387 . S
C313 C315 1.387 . S
H314 C321 0.950 . S
C315 C313 1.387 . S
C315 C317 1.390 . S
C315 H319 0.950 . S
H316 C312 0.950 . S
C317 C315 1.390 . S
C317 C318 1.387 . S
C317 H320 0.950 . S
C318 C317 1.387 . S
C318 C321 1.387 . S
H319 C315 0.950 . S
H320 C317 0.950 . S
C321 C312 1.390 . S
C321 H314 0.950 . S
C321 C318 1.387 . S
C322 C323 1.387 1_455 S
C322 H326 0.950 . S
C322 C331 1.390 1_455 S
C323 C322 1.387 1_655 S
C323 C325 1.387 . S
H324 C331 0.950 1_455 S
C325 C323 1.387 . S
C325 C327 1.390 . S
C325 H329 0.950 . S
H326 C322 0.950 . S
C327 C325 1.390 . S
C327 C328 1.387 . S
C327 H330 0.950 . S
C328 C327 1.387 . S
C328 C331 1.387 . S
H329 C325 0.950 . S
H330 C327 0.950 . S
C331 C322 1.390 1_655 S
C331 H324 0.950 1_655 S
C331 C328 1.387 . S
C332 C333 1.387 . S
C332 H336 0.950 . S
C332 C341 1.390 . S
C333 C332 1.387 . S
C333 C335 1.387 . S
H334 C341 0.950 . S
C335 C333 1.387 . S
C335 C337 1.390 . S
C335 H339 0.950 . S
H336 C332 0.950 . S
C337 C335 1.390 . S
C337 C338 1.387 . S
C337 H340 0.950 . S
C338 C337 1.387 . S
C338 C341 1.387 . S
H339 C335 0.950 . S
H340 C337 0.950 . S
C341 C332 1.390 . S
C341 H334 0.950 . S
C341 C338 1.387 . S
C342 C343 1.387 . S
C342 H346 0.950 . S
C342 C351 1.390 . S
C343 C342 1.387 . S
C343 C345 1.387 . S
H344 C351 0.950 . S
C345 C343 1.387 . S
C345 C347 1.390 . S
C345 H349 0.950 . S
H346 C342 0.950 . S
C347 C345 1.390 . S
C347 C348 1.387 . S
C347 H350 0.950 . S
C348 C347 1.387 . S
C348 C351 1.387 . S
H349 C345 0.950 . S
H350 C347 0.950 . S
C351 C342 1.390 . S
C351 H344 0.950 . S
C351 C348 1.387 . S
C352 C353 1.387 . S
C352 H356 0.950 1_565 S
C352 C361 1.390 1_565 S
C353 C352 1.387 . S
C353 C355 1.387 . S
H354 C361 0.950 . S
C355 C353 1.387 . S
C355 C357 1.390 . S
C355 H359 0.950 . S
H356 C352 0.950 1_545 S
C357 C355 1.390 . S
C357 C358 1.387 . S
C357 H360 0.950 . S
C358 C357 1.387 . S
C358 C361 1.387 1_565 S
H359 C355 0.950 . S
H360 C357 0.950 . S
C361 C352 1.390 1_545 S
C361 H354 0.950 . S
C361 C358 1.387 1_545 S
C362 C363 1.387 . S
C362 H366 0.950 . S
C362 C371 1.390 . S
C363 C362 1.387 . S
C363 C365 1.387 . S
H364 C371 0.950 . S
C365 C363 1.387 . S
C365 C367 1.390 . S
C365 H369 0.950 . S
H366 C362 0.950 . S
C367 C365 1.390 . S
C367 C368 1.387 . S
C367 H370 0.950 . S
C368 C367 1.387 . S
C368 C371 1.387 . S
H369 C365 0.950 . S
H370 C367 0.950 . S
C371 C362 1.390 . S
C371 H364 0.950 . S
C371 C368 1.387 . S
C372 C373 1.387 . S
C372 H376 0.950 . S
C372 C381 1.390 . S
C373 C372 1.387 . S
C373 C375 1.387 . S
H374 C381 0.950 . S
C375 C373 1.387 . S
C375 C377 1.390 . S
C375 H379 0.950 . S
H376 C372 0.950 . S
C377 C375 1.390 . S
C377 C378 1.387 . S
C377 H380 0.950 . S
C378 C377 1.387 . S
C378 C381 1.387 . S
H379 C375 0.950 . S
H380 C377 0.950 . S
C381 C372 1.390 . S
C381 H374 0.950 . S
C381 C378 1.387 . S
C382 C383 1.387 . S
C382 H386 0.950 . S
C382 C391 1.390 . S
C383 C382 1.387 . S
C383 C385 1.387 . S
H384 C391 0.950 . S
C385 C383 1.387 . S
C385 C387 1.390 . S
C385 H389 0.950 . S
H386 C382 0.950 . S
C387 C385 1.390 . S
C387 C388 1.387 . S
C387 H390 0.950 . S
C388 C387 1.387 . S
C388 C391 1.387 . S
H389 C385 0.950 . S
H390 C387 0.950 . S
C391 C382 1.390 . S
C391 H384 0.950 . S
C391 C388 1.387 . S
C392 C393 1.387 . S
C392 H396 0.950 . S
C392 C401 1.390 . S
C393 C392 1.387 . S
C393 C395 1.387 . S
H394 C401 0.950 . S
C395 C393 1.387 . S
C395 C397 1.390 . S
C395 H399 0.950 . S
H396 C392 0.950 . S
C397 C395 1.390 . S
C397 C398 1.387 . S
C397 H400 0.950 . S
C398 C397 1.387 . S
C398 C401 1.387 . S
H399 C395 0.950 . S
H400 C397 0.950 . S
C401 C392 1.390 . S
C401 H394 0.950 . S
C401 C398 1.387 . S
C402 C403 1.387 . S
C402 H406 0.950 . S
C402 C411 1.390 . S
C403 C402 1.387 . S
C403 C405 1.387 . S
H404 C411 0.950 . S
C405 C403 1.387 . S
C405 C407 1.390 . S
C405 H409 0.950 . S
H406 C402 0.950 . S
C407 C405 1.390 . S
C407 C408 1.387 . S
C407 H410 0.950 . S
C408 C407 1.387 . S
C408 C411 1.387 . S
H409 C405 0.950 . S
H410 C407 0.950 . S
C411 C402 1.390 . S
C411 H404 0.950 . S
C411 C408 1.387 . S
C412 C413 1.387 . S
C412 H416 0.950 . S
C412 C421 1.390 . S
C413 C412 1.387 . S
C413 C415 1.387 . S
H414 C421 0.950 . S
C415 C413 1.387 . S
C415 C417 1.390 . S
C415 H419 0.950 . S
H416 C412 0.950 . S
C417 C415 1.390 . S
C417 C418 1.387 . S
C417 H420 0.950 . S
C418 C417 1.387 . S
C418 C421 1.387 . S
H419 C415 0.950 . S
H420 C417 0.950 . S
C421 C412 1.390 . S
C421 H414 0.950 . S
C421 C418 1.387 . S
C422 C423 1.387 . S
C422 H426 0.950 . S
C422 C431 1.390 . S
C423 C422 1.387 . S
C423 C425 1.387 . S
H424 C431 0.950 . S
C425 C423 1.387 . S
C425 C427 1.390 . S
C425 H429 0.950 . S
H426 C422 0.950 . S
C427 C425 1.390 . S
C427 C428 1.387 . S
C427 H430 0.950 . S
C428 C427 1.387 . S
C428 C431 1.387 . S
H429 C425 0.950 . S
H430 C427 0.950 . S
C431 C422 1.390 . S
C431 H424 0.950 . S
C431 C428 1.387 . S
C432 C433 1.387 . S
C432 H436 0.950 . S
C432 C441 1.390 . S
C433 C432 1.387 . S
C433 C435 1.387 . S
H434 C441 0.950 . S
C435 C433 1.387 . S
C435 C437 1.390 . S
C435 H439 0.950 . S
H436 C432 0.950 . S
C437 C435 1.390 . S
C437 C438 1.387 . S
C437 H440 0.950 . S
C438 C437 1.387 . S
C438 C441 1.387 . S
H439 C435 0.950 . S
H440 C437 0.950 . S
C441 C432 1.390 . S
C441 H434 0.950 . S
C441 C438 1.387 . S
C442 C443 1.387 . S
C442 H446 0.950 . S
C442 C451 1.390 . S
C443 C442 1.387 . S
C443 C445 1.387 . S
H444 C451 0.950 . S
C445 C443 1.387 . S
C445 C447 1.390 . S
C445 H449 0.950 . S
H446 C442 0.950 . S
C447 C445 1.390 . S
C447 C448 1.387 . S
C447 H450 0.950 . S
C448 C447 1.387 . S
C448 C451 1.387 . S
H449 C445 0.950 . S
H450 C447 0.950 . S
C451 C442 1.390 . S
C451 H444 0.950 . S
C451 C448 1.387 . S
C452 C453 1.387 . S
C452 H456 0.950 . S
C452 C461 1.390 . S
C453 C452 1.387 . S
C453 C455 1.387 . S
H454 C461 0.950 . S
C455 C453 1.387 . S
C455 C457 1.390 . S
C455 H459 0.950 . S
H456 C452 0.950 . S
C457 C455 1.390 . S
C457 C458 1.387 . S
C457 H460 0.950 . S
C458 C457 1.387 . S
C458 C461 1.387 . S
H459 C455 0.950 . S
H460 C457 0.950 . S
C461 C452 1.390 . S
C461 H454 0.950 . S
C461 C458 1.387 . S
C462 C463 1.387 . S
C462 H466 0.950 . S
C462 C471 1.390 . S
C463 C462 1.387 . S
C463 C465 1.387 . S
H464 C471 0.950 . S
C465 C463 1.387 . S
C465 C467 1.390 . S
C465 H469 0.950 . S
H466 C462 0.950 . S
C467 C465 1.390 . S
C467 C468 1.387 . S
C467 H470 0.950 . S
C468 C467 1.387 . S
C468 C471 1.387 . S
H469 C465 0.950 . S
H470 C467 0.950 . S
C471 C462 1.390 . S
C471 H464 0.950 . S
C471 C468 1.387 . S
C273 C145 1.454 1_545 S
C278 C9 1.454 . S
C283 C43 1.454 1_455 S
C288 C179 1.454 . S
C293 C77 1.454 . S
C298 C213 1.454 . S
C303 C247 1.454 . S
C308 C111 1.454 . S
C313 C243 1.043 . S
C318 C33 1.062 . S
C323 C141 1.040 1_655 S
C328 C67 1.062 . S
C333 C175 1.043 . S
C338 C101 1.062 . S
C343 C209 1.040 . S
C348 C135 1.063 . S
C353 C169 1.062 . S
C358 C107 1.043 1_565 S
C363 C203 1.063 . S
C368 C5 1.040 . S
C373 C237 1.062 . S
C378 C39 1.041 . S
C383 C271 1.063 . S
C388 C73 1.040 . S
C393 C20 1.326 . S
C398 C88 1.326 . S
C403 C54 1.326 . S
C408 C122 1.326 . S
C413 C224 1.326 . S
C418 C156 1.326 . S
C423 C258 1.326 . S
C428 C190 1.326 . S
C433 C70 1.454 . S
C438 C2 1.454 . S
C443 C36 1.453 . S
C448 C104 1.453 . S
C453 C206 1.454 . S
C458 C138 1.454 . S
C463 C240 1.454 . S
C468 C172 1.454 . S
