# Generated by pormake.
# Topology uki, (4)-cn, num edge types: 1
# Building blocks:
#     Node 0, Type 0, BuildingBlock: ICAMEG_clean_sbu_1, # of connection points: 4
#     Node 1, Type 0, BuildingBlock: ICAMEG_clean_sbu_1, # of connection points: 4
#     Node 2, Type 0, BuildingBlock: ICAMEG_clean_sbu_1, # of connection points: 4
#     Node 3, Type 0, BuildingBlock: ICAMEG_clean_sbu_1, # of connection points: 4
#     Node 4, Type 0, BuildingBlock: ICAMEG_clean_sbu_1, # of connection points: 4
#     Node 5, Type 0, BuildingBlock: ICAMEG_clean_sbu_1, # of connection points: 4
#     Node 6, Type 0, BuildingBlock: ICAMEG_clean_sbu_1, # of connection points: 4
#     Node 7, Type 0, BuildingBlock: ICAMEG_clean_sbu_1, # of connection points: 4
#     Node 8, Type 0, BuildingBlock: ICAMEG_clean_sbu_1, # of connection points: 4
#     Node 9, Type 0, BuildingBlock: ICAMEG_clean_sbu_1, # of connection points: 4
#     Node 10, Type 0, BuildingBlock: ICAMEG_clean_sbu_1, # of connection points: 4
#     Node 11, Type 0, BuildingBlock: ICAMEG_clean_sbu_1, # of connection points: 4
#     Node 12, Type 0, BuildingBlock: ICAMEG_clean_sbu_1, # of connection points: 4
#     Node 13, Type 0, BuildingBlock: ICAMEG_clean_sbu_1, # of connection points: 4
#     Node 14, Type 0, BuildingBlock: ICAMEG_clean_sbu_1, # of connection points: 4
#     Node 15, Type 0, BuildingBlock: ICAMEG_clean_sbu_1, # of connection points: 4
#     Edge 16, Type (0, 0), BuildingBlock: AJUNOK_clean_linker_0, # of connection points: 2
#     Edge 17, Type (0, 0), BuildingBlock: AJUNOK_clean_linker_0, # of connection points: 2
#     Edge 18, Type (0, 0), BuildingBlock: AJUNOK_clean_linker_0, # of connection points: 2
#     Edge 19, Type (0, 0), BuildingBlock: AJUNOK_clean_linker_0, # of connection points: 2
#     Edge 20, Type (0, 0), BuildingBlock: AJUNOK_clean_linker_0, # of connection points: 2
#     Edge 21, Type (0, 0), BuildingBlock: AJUNOK_clean_linker_0, # of connection points: 2
#     Edge 22, Type (0, 0), BuildingBlock: AJUNOK_clean_linker_0, # of connection points: 2
#     Edge 23, Type (0, 0), BuildingBlock: AJUNOK_clean_linker_0, # of connection points: 2
#     Edge 24, Type (0, 0), BuildingBlock: AJUNOK_clean_linker_0, # of connection points: 2
#     Edge 25, Type (0, 0), BuildingBlock: AJUNOK_clean_linker_0, # of connection points: 2
#     Edge 26, Type (0, 0), BuildingBlock: AJUNOK_clean_linker_0, # of connection points: 2
#     Edge 27, Type (0, 0), BuildingBlock: AJUNOK_clean_linker_0, # of connection points: 2
#     Edge 28, Type (0, 0), BuildingBlock: AJUNOK_clean_linker_0, # of connection points: 2
#     Edge 29, Type (0, 0), BuildingBlock: AJUNOK_clean_linker_0, # of connection points: 2
#     Edge 30, Type (0, 0), BuildingBlock: AJUNOK_clean_linker_0, # of connection points: 2
#     Edge 31, Type (0, 0), BuildingBlock: AJUNOK_clean_linker_0, # of connection points: 2
#     Edge 32, Type (0, 0), BuildingBlock: AJUNOK_clean_linker_0, # of connection points: 2
#     Edge 33, Type (0, 0), BuildingBlock: AJUNOK_clean_linker_0, # of connection points: 2
#     Edge 34, Type (0, 0), BuildingBlock: AJUNOK_clean_linker_0, # of connection points: 2
#     Edge 35, Type (0, 0), BuildingBlock: AJUNOK_clean_linker_0, # of connection points: 2
#     Edge 36, Type (0, 0), BuildingBlock: AJUNOK_clean_linker_0, # of connection points: 2
#     Edge 37, Type (0, 0), BuildingBlock: AJUNOK_clean_linker_0, # of connection points: 2
#     Edge 38, Type (0, 0), BuildingBlock: AJUNOK_clean_linker_0, # of connection points: 2
#     Edge 39, Type (0, 0), BuildingBlock: AJUNOK_clean_linker_0, # of connection points: 2
#     Edge 40, Type (0, 0), BuildingBlock: AJUNOK_clean_linker_0, # of connection points: 2
#     Edge 41, Type (0, 0), BuildingBlock: AJUNOK_clean_linker_0, # of connection points: 2
#     Edge 42, Type (0, 0), BuildingBlock: AJUNOK_clean_linker_0, # of connection points: 2
#     Edge 43, Type (0, 0), BuildingBlock: AJUNOK_clean_linker_0, # of connection points: 2
#     Edge 44, Type (0, 0), BuildingBlock: AJUNOK_clean_linker_0, # of connection points: 2
#     Edge 45, Type (0, 0), BuildingBlock: AJUNOK_clean_linker_0, # of connection points: 2
#     Edge 46, Type (0, 0), BuildingBlock: AJUNOK_clean_linker_0, # of connection points: 2
#     Edge 47, Type (0, 0), BuildingBlock: AJUNOK_clean_linker_0, # of connection points: 2
# Relax obj value: 0.014
# Max RMSD: 0.103
# Mean RMSD: 0.103
data_MOF--net-uki--node1-ICAMEG_clean_sbu_1--edge1-AJUNOK_clean_linker_0
_symmetry_space_group_name_H-M    P1
_symmetry_Int_Tables_number       1
_symmetry_cell_setting            triclinic
loop_
_symmetry_equiv_pos_as_xyz
'x, y, z'
_cell_length_a     24.971479
_cell_length_b     24.973983
_cell_length_c     59.173151
_cell_angle_alpha  90.019435
_cell_angle_beta   90.002219
_cell_angle_gamma 89.999102
loop_
_atom_site_label
_atom_site_type_symbol
_atom_site_fract_x
_atom_site_fract_y
_atom_site_fract_z
_atom_type_partial_charge
Co0 Co 0.1003 0.19551 0.26536 0.0
Co1 Co 0.08399 0.27959 0.31102 0.0
O2 O 0.10139 0.20946 0.29807 0.0
C3 C 0.03772 0.10652 0.28525 0.0
O4 O 0.01591 0.14138 0.29904 0.0
C5 C 0.17589 0.23543 0.33906 0.0
O6 O 0.17728 0.19132 0.32708 0.0
O7 O 0.13733 0.31411 0.29093 0.0
O8 O 0.12638 0.26992 0.25828 0.0
H9 H 0.04977 0.47714 0.306 0.0
H10 H 0.15737 0.11679 0.29416 0.0
O11 O 0.07311 0.12116 0.27104 0.0
H12 H 0.29451 0.18918 0.24259 0.0
H13 H 0.12737 0.08162 0.19605 0.0
H14 H 0.06372 0.25544 0.22491 0.0
H15 H 0.2009 0.21992 0.24014 0.0
H16 H 0.13144 0.10216 0.23678 0.0
O17 O 0.14197 0.27227 0.33474 0.0
H18 H 0.06058 0.38568 0.29103 0.0
H19 H 0.07484 0.32436 0.35771 0.0
H20 H 0.05959 0.23703 0.18403 0.0
H21 H 0.25041 0.08437 0.29699 0.0
H22 H 0.09142 0.14941 0.16934 0.0
H23 H 0.31979 0.12083 0.27115 0.0
O24 O 0.02555 0.22129 0.26353 0.0
H25 H 0.01599 0.13954 0.36536 0.0
H26 H 0.97185 0.30494 0.32397 0.0
H27 H 0.90395 0.26363 0.34859 0.0
H28 H 0.92591 0.18043 0.36963 0.0
H29 H 0.08215 0.18156 0.34031 0.0
H30 H 0.06441 0.41531 0.3734 0.0
H31 H 0.05345 0.49258 0.34743 0.0
O32 O 0.02544 0.29031 0.28783 0.0
C33 C 0.14333 0.30986 0.26966 0.0
C34 C 0.05489 0.44382 0.31748 0.0
C35 C 0.06317 0.40909 0.35531 0.0
N36 N 0.06823 0.34971 0.32347 0.0
C37 C 0.06072 0.39188 0.30911 0.0
C38 C 0.069 0.3577 0.34633 0.0
C39 C 0.0567 0.45242 0.34073 0.0
C40 C 0.18725 0.13263 0.28277 0.0
N41 N 0.17375 0.17051 0.26714 0.0
C42 C 0.23991 0.11422 0.28449 0.0
C43 C 0.27883 0.13473 0.27001 0.0
C44 C 0.26469 0.17314 0.25401 0.0
C45 C 0.21165 0.19064 0.2528 0.0
C46 C 0.11361 0.12004 0.20222 0.0
C47 C 0.07849 0.21769 0.21862 0.0
C48 C 0.11577 0.13189 0.22527 0.0
N49 N 0.09849 0.18033 0.23319 0.0
C50 C 0.0757 0.20729 0.19546 0.0
C51 C 0.09345 0.15809 0.18724 0.0
C52 C 0.00408 0.26319 0.2718 0.0
C53 C 0.00607 0.17604 0.35643 0.0
C54 C 0.9818 0.2687 0.33299 0.0
C55 C 0.94315 0.24553 0.34696 0.0
C56 C 0.9555 0.1989 0.35877 0.0
N57 N 0.03155 0.24633 0.33089 0.0
C58 C 0.04373 0.2004 0.34233 0.0
Co59 Co 0.20013 0.90202 0.73555 0.0
Co60 Co 0.2829 0.92251 0.68995 0.0
O61 O 0.21394 0.9027 0.70302 0.0
C62 C 0.11091 0.96535 0.71642 0.0
O63 O 0.14567 0.98817 0.70289 0.0
C64 C 0.26104 0.8167 0.66894 0.0
O65 O 0.25195 0.79817 0.68934 0.0
O66 O 0.32055 0.87039 0.7098 0.0
O67 O 0.27456 0.87606 0.74231 0.0
H68 H 0.48061 0.95683 0.69218 0.0
H69 H 0.12561 0.84583 0.70467 0.0
O70 O 0.12562 0.92892 0.73013 0.0
H71 H 0.19526 0.70624 0.75574 0.0
H72 H 0.08636 0.86895 0.8044 0.0
H73 H 0.25883 0.938 0.7764 0.0
H74 H 0.22327 0.80037 0.7602 0.0
H75 H 0.10726 0.86751 0.76367 0.0
O76 O 0.27368 0.86569 0.66626 0.0
H77 H 0.39028 0.9473 0.70854 0.0
H78 H 0.32314 0.93444 0.6428 0.0
H79 H 0.24015 0.93952 0.81731 0.0
H80 H 0.09618 0.75223 0.69972 0.0
H81 H 0.15318 0.90494 0.83156 0.0
H82 H 0.13128 0.68167 0.72531 0.0
O83 O 0.2256 0.977 0.7382 0.0
H84 H 0.13964 0.9813 0.63573 0.0
H85 H 0.30065 0.03704 0.67785 0.0
H86 H 0.25398 0.10249 0.65365 0.0
H87 H 0.17291 0.07468 0.63233 0.0
H88 H 0.18719 0.91735 0.66036 0.0
H89 H 0.41264 0.94454 0.62573 0.0
H90 H 0.4923 0.95365 0.65048 0.0
O91 O 0.29333 0.98067 0.71324 0.0
C92 C 0.3156 0.86195 0.73092 0.0
C93 C 0.44619 0.95264 0.68121 0.0
C94 C 0.40805 0.94556 0.64392 0.0
N95 N 0.35153 0.94031 0.67664 0.0
C96 C 0.39493 0.94745 0.69037 0.0
C97 C 0.35745 0.94009 0.65368 0.0
C98 C 0.45272 0.951 0.65783 0.0
C99 C 0.14056 0.81542 0.71603 0.0
N100 N 0.17588 0.82856 0.73276 0.0
C101 C 0.12395 0.76246 0.71308 0.0
C102 C 0.14373 0.72288 0.72743 0.0
C103 C 0.17966 0.73663 0.74449 0.0
C104 C 0.19545 0.78998 0.74691 0.0
C105 C 0.12452 0.88383 0.79843 0.0
C106 C 0.22148 0.92194 0.78252 0.0
C107 C 0.13659 0.88312 0.77538 0.0
N108 N 0.18474 0.90178 0.76771 0.0
C109 C 0.21087 0.9233 0.80568 0.0
C110 C 0.16202 0.90402 0.81365 0.0
C111 C 0.26647 1.00019 0.72976 0.0
C112 C 0.17496 0.99388 0.64491 0.0
C113 C 0.26517 0.02478 0.66878 0.0
C114 C 0.23904 0.06194 0.65502 0.0
C115 C 0.1936 0.04629 0.64304 0.0
N116 N 0.24659 0.97348 0.67055 0.0
C117 C 0.20217 0.95779 0.65881 0.0
Co118 Co 0.90288 0.79506 0.26928 0.0
Co119 Co 0.92135 0.71699 0.31653 0.0
O120 O 0.90262 0.78481 0.30209 0.0
C121 C 0.96782 0.88497 0.28694 0.0
O122 O 0.98994 0.85111 0.30107 0.0
C123 C 0.81582 0.7417 0.33735 0.0
O124 O 0.79698 0.74925 0.31688 0.0
O125 O 0.8687 0.67816 0.29731 0.0
O126 O 0.87481 0.72086 0.26402 0.0
H127 H 0.95761 0.51933 0.31809 0.0
H128 H 0.84812 0.87407 0.2986 0.0
O129 O 0.9315 0.86947 0.27332 0.0
H130 H 0.70777 0.8035 0.24809 0.0
H131 H 0.87507 0.90114 0.1979 0.0
H132 H 0.93639 0.72948 0.22992 0.0
H133 H 0.80112 0.77226 0.24463 0.0
H134 H 0.87218 0.88548 0.23903 0.0
O135 O 0.86484 0.7293 0.34007 0.0
H136 H 0.94388 0.60721 0.30001 0.0
H137 H 0.93381 0.68175 0.36441 0.0
H138 H 0.93948 0.74323 0.18867 0.0
H139 H 0.75533 0.90674 0.30254 0.0
H140 H 0.90874 0.82962 0.1724 0.0
H141 H 0.68439 0.87123 0.27721 0.0
O142 O 0.97723 0.76749 0.2672 0.0
H143 H 0.98167 0.86574 0.36773 0.0
H144 H 0.03566 0.69915 0.32931 0.0
H145 H 0.10156 0.74789 0.35252 0.0
H146 H 0.07464 0.83181 0.37199 0.0
H147 H 0.9173 0.816 0.34408 0.0
H148 H 0.94795 0.59474 0.38317 0.0
H149 H 0.95896 0.51264 0.35999 0.0
O150 O 0.97911 0.70289 0.29353 0.0
C151 C 0.85951 0.68154 0.27617 0.0
C152 C 0.95293 0.55484 0.32838 0.0
C153 C 0.94737 0.59716 0.36491 0.0
N154 N 0.93838 0.6496 0.33113 0.0
C155 C 0.94529 0.60473 0.31824 0.0
C156 C 0.93952 0.64633 0.35419 0.0
C157 C 0.95367 0.55111 0.35188 0.0
C158 C 0.81755 0.85886 0.28737 0.0
N159 N 0.83005 0.82154 0.27134 0.0
C160 C 0.76505 0.87733 0.28974 0.0
C161 C 0.72525 0.85734 0.27555 0.0
C162 C 0.73834 0.81931 0.25921 0.0
C163 C 0.79125 0.8017 0.25736 0.0
C164 C 0.88839 0.86325 0.20477 0.0
C165 C 0.92244 0.76697 0.22295 0.0
C166 C 0.8869 0.85417 0.22805 0.0
N167 N 0.90359 0.8064 0.23685 0.0
C168 C 0.92449 0.77461 0.19959 0.0
C169 C 0.9073 0.82311 0.19048 0.0
C170 C 0.99921 0.72694 0.27643 0.0
C171 C 0.99388 0.8292 0.35935 0.0
C172 C 0.02382 0.73585 0.33752 0.0
C173 C 0.06121 0.76316 0.35075 0.0
C174 C 0.04606 0.81019 0.3617 0.0
N175 N 0.97277 0.75479 0.33525 0.0
C176 C 0.95755 0.80075 0.34601 0.0
Co177 Co 0.80166 0.10252 0.73572 0.0
Co178 Co 0.71875 0.08047 0.69041 0.0
O179 O 0.78809 0.09999 0.70317 0.0
C180 C 0.89024 0.03745 0.71721 0.0
O181 O 0.85497 0.01377 0.70417 0.0
C182 C 0.74277 0.18332 0.66693 0.0
O183 O 0.75062 0.2054 0.6868 0.0
O184 O 0.68262 0.13558 0.70929 0.0
O185 O 0.72723 0.12923 0.74211 0.0
H186 H 0.52022 0.05203 0.69338 0.0
H187 H 0.87667 0.15653 0.70436 0.0
O188 O 0.87603 0.07482 0.73057 0.0
H189 H 0.80885 0.29903 0.75447 0.0
H190 H 0.91575 0.1376 0.80431 0.0
H191 H 0.74172 0.07096 0.77694 0.0
H192 H 0.77924 0.20553 0.75943 0.0
H193 H 0.89505 0.1369 0.76356 0.0
O194 O 0.72955 0.1342 0.66558 0.0
H195 H 0.61089 0.06053 0.70947 0.0
H196 H 0.67792 0.06439 0.64352 0.0
H197 H 0.76024 0.07164 0.81785 0.0
H198 H 0.90772 0.24944 0.69891 0.0
H199 H 0.84798 0.10499 0.83179 0.0
H200 H 0.87364 0.32144 0.72406 0.0
O201 O 0.77562 0.02796 0.73914 0.0
H202 H 0.8602 0.01237 0.63728 0.0
H203 H 0.69781 0.96534 0.68032 0.0
H204 H 0.74247 0.89632 0.65721 0.0
H205 H 0.82419 0.91975 0.63541 0.0
H206 H 0.8147 0.07989 0.66089 0.0
H207 H 0.58802 0.05533 0.62672 0.0
H208 H 0.5083 0.05139 0.65169 0.0
O209 O 0.70674 0.02509 0.71475 0.0
C210 C 0.68686 0.14397 0.73044 0.0
C211 C 0.55466 0.05406 0.68231 0.0
C212 C 0.59272 0.05608 0.6449 0.0
N213 N 0.64962 0.06307 0.67745 0.0
C214 C 0.60613 0.05865 0.69133 0.0
C215 C 0.64354 0.061 0.65451 0.0
C216 C 0.54801 0.05351 0.65893 0.0
C217 C 0.86206 0.18759 0.71548 0.0
N218 N 0.82644 0.17562 0.73226 0.0
C219 C 0.87961 0.24014 0.71227 0.0
C220 C 0.86041 0.28054 0.72636 0.0
C221 C 0.82403 0.268 0.74342 0.0
C222 C 0.80732 0.21501 0.74612 0.0
C223 C 0.87728 0.1232 0.79847 0.0
C224 C 0.7795 0.08638 0.78289 0.0
C225 C 0.86534 0.12265 0.7754 0.0
N226 N 0.81684 0.10455 0.76789 0.0
C227 C 0.78998 0.08632 0.80607 0.0
C228 C 0.83925 0.10491 0.81387 0.0
C229 C 0.73357 0.00571 0.73131 0.0
C230 C 0.82458 1.00168 0.64668 0.0
C231 C 0.73362 0.97568 0.67106 0.0
C232 C 0.7586 0.93652 0.65792 0.0
C233 C 0.8044 0.94971 0.64566 0.0
N234 N 0.75368 0.02654 0.67199 0.0
C235 C 0.79853 0.0398 0.66 0.0
Co236 Co 0.10773 0.30684 0.98972 0.0
Co237 Co 0.08773 0.22695 0.94276 0.0
O238 O 0.10632 0.29557 0.9568 0.0
C239 C 0.04129 0.39467 0.97145 0.0
O240 O 0.01881 0.35899 0.95823 0.0
C241 C 0.17974 0.27215 0.91497 0.0
O242 O 0.18216 0.31545 0.92744 0.0
O243 O 0.141 0.18985 0.96196 0.0
O244 O 0.13692 0.2328 0.99519 0.0
H245 H 0.05783 0.02864 0.9443 0.0
H246 H 0.15965 0.38932 0.96102 0.0
O247 O 0.0777 0.38085 0.98536 0.0
H248 H 0.30347 0.3182 0.00958 0.0
H249 H 0.13635 0.41613 0.06021 0.0
H250 H 0.07998 0.2411 0.02986 0.0
H251 H 0.21123 0.28403 0.013 0.0
H252 H 0.13662 0.39941 0.01913 0.0
O253 O 0.14525 0.23567 0.91898 0.0
H254 H 0.0652 0.11887 0.96091 0.0
H255 H 0.07628 0.18737 0.89538 0.0
H256 H 0.07956 0.25592 0.07105 0.0
H257 H 0.25122 0.42518 0.95726 0.0
H258 H 0.10776 0.34404 0.08648 0.0
H259 H 0.32396 0.3894 0.98158 0.0
O260 O 0.03399 0.27866 0.99256 0.0
H261 H 0.02065 0.37255 0.89086 0.0
H262 H 0.97503 0.20429 0.92984 0.0
H263 H 0.90718 0.24873 0.90617 0.0
H264 H 0.9299 0.33338 0.88635 0.0
H265 H 0.08663 0.32762 0.9151 0.0
H266 H 0.06846 0.09788 0.87805 0.0
H267 H 0.06145 0.01766 0.9026 0.0
O268 O 0.0296 0.21464 0.96597 0.0
C269 C 0.15148 0.19334 0.98294 0.0
C270 C 0.06108 0.06331 0.93342 0.0
C271 C 0.06723 0.10218 0.89624 0.0
N272 N 0.07108 0.15832 0.92913 0.0
C273 C 0.06502 0.11453 0.94273 0.0
C274 C 0.07144 0.15275 0.90615 0.0
C275 C 0.06286 0.05719 0.91003 0.0
C276 C 0.19099 0.37378 0.97177 0.0
N277 N 0.18011 0.33439 0.9871 0.0
C278 C 0.24281 0.39413 0.96951 0.0
C279 C 0.28361 0.37399 0.98314 0.0
C280 C 0.27216 0.33399 0.99883 0.0
C281 C 0.21988 0.31457 1.00059 0.0
C282 C 0.12403 0.37755 0.05369 0.0
C283 C 0.09285 0.27936 0.03644 0.0
C284 C 0.12398 0.36788 0.03044 0.0
N285 N 0.10858 0.31922 0.02209 0.0
C286 C 0.0923 0.2876 0.05978 0.0
C287 C 0.10803 0.33707 0.06843 0.0
C288 C 0.01066 0.239 0.98328 0.0
C289 C 0.01036 0.3355 0.8993 0.0
C290 C 0.98525 0.24122 0.92139 0.0
C291 C 0.94664 0.26614 0.90794 0.0
C292 C 0.95942 0.31359 0.89681 0.0
N293 N 0.03532 0.26275 0.92367 0.0
C294 C 0.04792 0.30948 0.91292 0.0
Co295 Co 0.3054 0.90106 0.01775 0.0
Co296 Co 0.22532 0.92286 0.06429 0.0
O297 O 0.29396 0.90386 0.05052 0.0
C298 C 0.39474 0.97059 0.03313 0.0
O299 O 0.35886 0.00186 0.04256 0.0
C300 C 0.27117 0.8326 0.09292 0.0
O301 O 0.31543 0.83132 0.08105 0.0
O302 O 0.18819 0.86895 0.04529 0.0
O303 O 0.23098 0.87349 0.01209 0.0
H304 H 0.02688 0.95237 0.06252 0.0
H305 H 0.38531 0.84743 0.04719 0.0
O306 O 0.38018 0.92865 0.0225 0.0
H307 H 0.31302 0.7049 0.99827 0.0
H308 H 0.41531 0.8681 0.94778 0.0
H309 H 0.24132 0.93001 0.97727 0.0
H310 H 0.28099 0.79782 0.99452 0.0
H311 H 0.39775 0.86908 0.9888 0.0
O312 O 0.23396 0.86592 0.08835 0.0
H313 H 0.11719 0.94486 0.04597 0.0
H314 H 0.1856 0.93546 0.11157 0.0
H315 H 0.25702 0.9293 0.93614 0.0
H316 H 0.41918 0.75521 0.05126 0.0
H317 H 0.3446 0.89826 0.92114 0.0
H318 H 0.38277 0.68309 0.02675 0.0
O319 O 0.2783 0.97534 0.01456 0.0
H320 H 0.3739 0.99434 0.11366 0.0
H321 H 0.20092 0.03497 0.07747 0.0
H322 H 0.24565 0.10423 0.1003 0.0
H323 H 0.33271 0.08405 0.11871 0.0
H324 H 0.32824 0.92672 0.09053 0.0
H325 H 0.09609 0.94362 0.12883 0.0
H326 H 0.01586 0.95001 0.10425 0.0
O327 O 0.21337 0.98038 0.04078 0.0
C328 C 0.19149 0.85877 0.02427 0.0
C329 C 0.06156 0.94947 0.07342 0.0
C330 C 0.1004 0.94435 0.11064 0.0
N331 N 0.15659 0.93982 0.07778 0.0
C332 C 0.11281 0.94544 0.06414 0.0
C333 C 0.15098 0.93996 0.10076 0.0
C334 C 0.0554 0.94828 0.09682 0.0
C335 C 0.36957 0.81639 0.03635 0.0
N336 N 0.33109 0.82805 0.02072 0.0
C337 C 0.38876 0.76418 0.03879 0.0
C338 C 0.36828 0.72374 0.02505 0.0
C339 C 0.32909 0.73593 0.0091 0.0
C340 C 0.31089 0.78861 0.00714 0.0
C341 C 0.37696 0.88163 0.95411 0.0
C342 C 0.27934 0.91594 0.97088 0.0
C343 C 0.36681 0.88239 0.97732 0.0
N344 N 0.31842 0.89928 0.98543 0.0
C345 C 0.28808 0.91584 0.94757 0.0
C346 C 0.33725 0.89852 0.93917 0.0
C347 C 0.23851 0.99911 0.02363 0.0
C348 C 0.33571 0.00346 0.10591 0.0
C349 C 0.23868 0.02569 0.08546 0.0
C350 C 0.26385 0.06516 0.09837 0.0
C351 C 0.31267 0.05382 0.10869 0.0
N352 N 0.26112 0.97606 0.08301 0.0
C353 C 0.30932 0.96497 0.09289 0.0
Co354 Co 0.9011 0.70353 0.98504 0.0
Co355 Co 0.92983 0.78227 0.93858 0.0
O356 O 0.9074 0.71492 0.95245 0.0
C357 C 0.9717 0.61625 0.96899 0.0
O358 O 0.99522 0.65149 0.95589 0.0
C359 C 0.82494 0.76084 0.91638 0.0
O360 O 0.8041 0.75402 0.93655 0.0
O361 O 0.87789 0.82375 0.95731 0.0
O362 O 0.86938 0.77651 0.98932 0.0
H363 H 0.97124 0.97878 0.93773 0.0
H364 H 0.85607 0.62433 0.953 0.0
O365 O 0.93314 0.63016 0.9818 0.0
H366 H 0.7028 0.68562 0.99874 0.0
H367 H 0.8612 0.59456 0.05463 0.0
H368 H 0.92145 0.76969 0.02579 0.0
H369 H 0.79357 0.72046 0.00597 0.0
H370 H 0.86825 0.61077 0.01361 0.0
O371 O 0.8743 0.77263 0.91438 0.0
H372 H 0.95664 0.89075 0.95558 0.0
H373 H 0.94666 0.81726 0.89098 0.0
H374 H 0.91452 0.7554 0.06691 0.0
H375 H 0.76604 0.58798 0.9453 0.0
H376 H 0.88424 0.66726 0.08159 0.0
H377 H 0.6886 0.61878 0.96822 0.0
O378 O 0.97392 0.73347 0.99023 0.0
H379 H 0.98676 0.63252 0.88716 0.0
H380 H 0.04566 0.79499 0.92748 0.0
H381 H 0.11085 0.74401 0.90472 0.0
H382 H 0.08144 0.66221 0.8843 0.0
H383 H 0.9232 0.6841 0.91048 0.0
H384 H 0.96189 0.9043 0.87245 0.0
H385 H 0.97236 0.98606 0.89582 0.0
O386 O 0.98658 0.79308 0.96228 0.0
C387 C 0.86104 0.8185 0.97755 0.0
C388 C 0.96662 0.94343 0.92735 0.0
C389 C 0.96115 0.90164 0.89071 0.0
N390 N 0.95073 0.84895 0.92434 0.0
C391 C 0.95847 0.89346 0.93736 0.0
C392 C 0.95267 0.85244 0.9013 0.0
C393 C 0.96738 0.94748 0.90385 0.0
C394 C 0.82263 0.6376 0.96316 0.0
N395 N 0.83009 0.67443 0.97995 0.0
C396 C 0.77172 0.61702 0.95867 0.0
C397 C 0.72828 0.63436 0.97152 0.0
C398 C 0.73622 0.67189 0.98863 0.0
C399 C 0.78768 0.69165 0.99261 0.0
C400 C 0.87436 0.63316 0.04844 0.0
C401 C 0.90789 0.73135 0.03204 0.0
C402 C 0.87855 0.64253 0.02524 0.0
N403 N 0.8949 0.69127 0.01731 0.0
C404 C 0.9042 0.72344 0.05535 0.0
C405 C 0.88727 0.67398 0.06356 0.0
C406 C 1.00093 0.77056 0.98074 0.0
C407 C 1.00006 0.6681 0.89597 0.0
C408 C 0.03272 0.75916 0.91884 0.0
C409 C 0.06973 0.7306 0.90588 0.0
C410 C 0.05319 0.68475 0.8944 0.0
N411 N 0.98071 0.74251 0.92034 0.0
C412 C 0.96419 0.69761 0.90913 0.0
Co413 Co 0.7049 0.10721 0.01756 0.0
Co414 Co 0.78511 0.07913 0.06358 0.0
O415 O 0.71727 0.10031 0.05006 0.0
C416 C 0.61934 0.03293 0.0321 0.0
O417 O 0.65709 0.00321 0.0411 0.0
C418 C 0.76357 0.18361 0.08638 0.0
O419 O 0.75718 0.2055 0.06638 0.0
O420 O 0.82444 0.13222 0.0448 0.0
O421 O 0.77809 0.1377 0.01234 0.0
H422 H 0.98256 0.04365 0.06234 0.0
H423 H 0.62727 0.15343 0.05013 0.0
O424 O 0.63132 0.07643 0.02204 0.0
H425 H 0.69043 0.30578 0.00431 0.0
H426 H 0.59109 0.14833 0.94954 0.0
H427 H 0.76795 0.08672 0.97587 0.0
H428 H 0.72357 0.21442 0.99686 0.0
H429 H 0.6105 0.14101 0.99029 0.0
O430 O 0.77492 0.13406 0.08799 0.0
H431 H 0.89282 0.05429 0.04554 0.0
H432 H 0.82362 0.06453 0.11097 0.0
H433 H 0.75044 0.09374 0.93497 0.0
H434 H 0.59276 0.24406 0.05803 0.0
H435 H 0.66141 0.12475 0.92156 0.0
H436 H 0.62448 0.32102 0.03507 0.0
O437 O 0.73476 0.0345 0.0119 0.0
H438 H 0.6346 0.01652 0.11334 0.0
H439 H 0.80514 0.96605 0.07716 0.0
H440 H 0.75659 0.89943 0.10016 0.0
H441 H 0.67062 0.92458 0.11844 0.0
H442 H 0.68438 0.08165 0.09007 0.0
H443 H 0.9125 0.05338 0.12847 0.0
H444 H 0.99291 0.04498 0.10411 0.0
O445 O 0.79564 0.02237 0.03971 0.0
C446 C 0.8193 0.14748 0.02438 0.0
C447 C 0.94781 0.04744 0.07314 0.0
C448 C 0.9085 0.05313 0.11026 0.0
N449 N 0.85305 0.06 0.07725 0.0
C450 C 0.89687 0.05325 0.06373 0.0
C451 C 0.85825 0.05928 0.10024 0.0
C452 C 0.95358 0.04803 0.09657 0.0
C453 C 0.64088 0.18664 0.03992 0.0
N454 N 0.67713 0.1786 0.02296 0.0
C455 C 0.62136 0.2379 0.04454 0.0
C456 C 0.63923 0.28108 0.03167 0.0
C457 C 0.67625 0.27255 0.01441 0.0
C458 C 0.69495 0.22075 0.0103 0.0
C459 C 0.63005 0.13483 0.95517 0.0
C460 C 0.72924 0.10044 0.97018 0.0
C461 C 0.64124 0.13048 0.97822 0.0
N462 N 0.69043 0.11367 0.98546 0.0
C463 C 0.7195 0.10425 0.94699 0.0
C464 C 0.66953 0.12161 0.93948 0.0
C465 C 0.77243 0.00809 0.02134 0.0
C466 C 0.67191 0.005 0.1054 0.0
C467 C 0.76752 0.97703 0.08489 0.0
C468 C 0.74034 0.93928 0.09799 0.0
C469 C 0.69214 0.95343 0.10825 0.0
N470 N 0.74726 0.02737 0.08205 0.0
C471 C 0.70024 0.04168 0.09219 0.0
Co472 Co 0.59952 0.7046 0.76884 0.0
Co473 Co 0.58089 0.78273 0.8161 0.0
O474 O 0.59995 0.71495 0.80167 0.0
C475 C 0.53588 0.61381 0.78671 0.0
O476 O 0.51371 0.6474 0.80096 0.0
C477 C 0.68686 0.75905 0.83659 0.0
O478 O 0.70508 0.75128 0.81604 0.0
O479 O 0.63308 0.82183 0.79683 0.0
O480 O 0.62686 0.77911 0.76352 0.0
H481 H 0.54203 0.97997 0.81745 0.0
H482 H 0.65522 0.62615 0.79811 0.0
O483 O 0.57163 0.62982 0.77293 0.0
H484 H 0.79463 0.69821 0.74754 0.0
H485 H 0.6279 0.59862 0.69745 0.0
H486 H 0.56545 0.7699 0.7295 0.0
H487 H 0.70092 0.72836 0.7441 0.0
H488 H 0.63073 0.61434 0.73859 0.0
O489 O 0.6378 0.77105 0.83956 0.0
H490 H 0.55712 0.89215 0.79949 0.0
H491 H 0.56863 0.81833 0.86396 0.0
H492 H 0.56241 0.75609 0.68825 0.0
H493 H 0.74838 0.59454 0.80201 0.0
H494 H 0.59372 0.66989 0.67197 0.0
H495 H 0.81885 0.63082 0.77666 0.0
O496 O 0.5249 0.73154 0.76684 0.0
H497 H 0.52223 0.63396 0.86758 0.0
H498 H 0.46644 0.79958 0.82891 0.0
H499 H 0.40111 0.75044 0.85225 0.0
H500 H 0.42894 0.667 0.87185 0.0
H501 H 0.58601 0.68407 0.8438 0.0
H502 H 0.55345 0.90534 0.88262 0.0
H503 H 0.54117 0.98706 0.85934 0.0
O504 O 0.52295 0.79625 0.79314 0.0
C505 C 0.64202 0.8185 0.77568 0.0
C506 C 0.54736 0.94464 0.82779 0.0
C507 C 0.55389 0.90275 0.86436 0.0
N508 N 0.56338 0.8501 0.83065 0.0
C509 C 0.55577 0.89477 0.81771 0.0
C510 C 0.56237 0.85358 0.8537 0.0
C511 C 0.54678 0.94857 0.85128 0.0
C512 C 0.68558 0.64166 0.78686 0.0
N513 N 0.67261 0.67881 0.77083 0.0
C514 C 0.73829 0.6238 0.78921 0.0
C515 C 0.77783 0.64423 0.775 0.0
C516 C 0.76427 0.68207 0.75867 0.0
C517 C 0.71115 0.69905 0.75683 0.0
C518 C 0.61431 0.63642 0.70433 0.0
C519 C 0.57961 0.73248 0.72253 0.0
C520 C 0.61575 0.64552 0.72761 0.0
N521 N 0.59872 0.69318 0.73642 0.0
C522 C 0.5776 0.72481 0.69916 0.0
C523 C 0.59512 0.67642 0.69004 0.0
C524 C 0.5029 0.77215 0.77604 0.0
C525 C 0.50963 0.67029 0.85915 0.0
C526 C 0.47868 0.7631 0.83718 0.0
C527 C 0.44161 0.73556 0.85049 0.0
C528 C 0.45727 0.6888 0.8615 0.0
N529 N 0.52991 0.74465 0.83492 0.0
C530 C 0.54562 0.69895 0.84574 0.0
Co531 Co 0.70036 0.39672 0.23548 0.0
Co532 Co 0.78245 0.4215 0.18985 0.0
O533 O 0.71375 0.40051 0.20288 0.0
C534 C 0.61274 0.46328 0.21709 0.0
O535 O 0.64877 0.48709 0.20448 0.0
C536 C 0.76081 0.31716 0.1676 0.0
O537 O 0.75111 0.29777 0.18781 0.0
O538 O 0.82046 0.36811 0.20885 0.0
O539 O 0.77416 0.36809 0.2414 0.0
H540 H 0.97948 0.45986 0.19245 0.0
H541 H 0.62433 0.34562 0.20362 0.0
O542 O 0.62631 0.42599 0.23062 0.0
H543 H 0.69046 0.19929 0.25211 0.0
H544 H 0.58665 0.36139 0.30414 0.0
H545 H 0.76296 0.42219 0.27678 0.0
H546 H 0.72096 0.29212 0.25819 0.0
H547 H 0.60626 0.36429 0.26329 0.0
O548 O 0.77336 0.36632 0.1654 0.0
H549 H 0.88966 0.44562 0.20866 0.0
H550 H 0.82248 0.43728 0.1428 0.0
H551 H 0.74523 0.41949 0.31775 0.0
H552 H 0.59243 0.25341 0.19705 0.0
H553 H 0.65647 0.38904 0.33167 0.0
H554 H 0.62574 0.17947 0.22134 0.0
O555 O 0.7276 0.47065 0.23974 0.0
H556 H 0.63857 0.48325 0.13653 0.0
H557 H 0.79913 0.53714 0.17938 0.0
H558 H 0.75171 0.60406 0.15617 0.0
H559 H 0.67086 0.57718 0.13449 0.0
H560 H 0.68667 0.41789 0.16029 0.0
H561 H 0.91156 0.4519 0.12588 0.0
H562 H 0.991 0.46159 0.15075 0.0
O563 O 0.79307 0.47773 0.21388 0.0
C564 C 0.81501 0.35565 0.22958 0.0
C565 C 0.94517 0.45556 0.18143 0.0
C566 C 0.90705 0.45094 0.14406 0.0
N567 N 0.85088 0.44078 0.1767 0.0
C568 C 0.89418 0.44768 0.19051 0.0
C569 C 0.8567 0.44282 0.15374 0.0
C570 C 0.95159 0.45669 0.15804 0.0
C571 C 0.63852 0.31373 0.21442 0.0
N572 N 0.67422 0.32427 0.23134 0.0
C573 C 0.62052 0.26158 0.21055 0.0
C574 C 0.63928 0.22009 0.22417 0.0
C575 C 0.67562 0.23118 0.24142 0.0
C576 C 0.6928 0.28381 0.24477 0.0
C577 C 0.6255 0.37469 0.29828 0.0
C578 C 0.72442 0.4084 0.2827 0.0
C579 C 0.63679 0.37655 0.27517 0.0
N580 N 0.68579 0.3932 0.26765 0.0
C581 C 0.71453 0.40716 0.30592 0.0
C582 C 0.6647 0.39017 0.31372 0.0
C583 C 0.76777 0.4949 0.23126 0.0
C584 C 0.67377 0.49544 0.14589 0.0
C585 C 0.76373 0.52528 0.17016 0.0
C586 C 0.73718 0.56328 0.15696 0.0
C587 C 0.69186 0.54815 0.14477 0.0
N588 N 0.74564 0.4737 0.17122 0.0
C589 C 0.70131 0.45855 0.15928 0.0
Co590 Co 0.40284 0.30248 0.7669 0.0
Co591 Co 0.4172 0.2218 0.81371 0.0
O592 O 0.40093 0.29114 0.79976 0.0
C593 C 0.46772 0.39141 0.78581 0.0
O594 O 0.48804 0.35725 0.8003 0.0
C595 C 0.31442 0.25521 0.83521 0.0
O596 O 0.29901 0.27542 0.81582 0.0
O597 O 0.36369 0.18618 0.79407 0.0
O598 O 0.37362 0.22871 0.76093 0.0
H599 H 0.44777 0.02322 0.81272 0.0
H600 H 0.34853 0.38347 0.79545 0.0
O601 O 0.43263 0.37635 0.77154 0.0
H602 H 0.20928 0.31586 0.74369 0.0
H603 H 0.38093 0.41104 0.6958 0.0
H604 H 0.43686 0.23725 0.72752 0.0
H605 H 0.30168 0.2814 0.74154 0.0
H606 H 0.37559 0.39438 0.73682 0.0
O607 O 0.36021 0.23334 0.83717 0.0
H608 H 0.4373 0.11284 0.79585 0.0
H609 H 0.42704 0.18251 0.8612 0.0
H610 H 0.44238 0.25202 0.68638 0.0
H611 H 0.25679 0.41963 0.79798 0.0
H612 H 0.41436 0.33948 0.67027 0.0
H613 H 0.18638 0.38561 0.77203 0.0
O614 O 0.47671 0.27385 0.76535 0.0
H615 H 0.48034 0.36534 0.86686 0.0
H616 H 0.53059 0.1997 0.82681 0.0
H617 H 0.59715 0.24494 0.85095 0.0
H618 H 0.5721 0.32836 0.87123 0.0
H619 H 0.41529 0.31907 0.84229 0.0
H620 H 0.43719 0.09355 0.87878 0.0
H621 H 0.44635 0.01303 0.85447 0.0
O622 O 0.47534 0.20745 0.79083 0.0
C623 C 0.35603 0.18994 0.77287 0.0
C624 C 0.44366 0.05799 0.82349 0.0
C625 C 0.43767 0.09748 0.86056 0.0
N626 N 0.43192 0.15291 0.82751 0.0
C627 C 0.43796 0.10889 0.81404 0.0
C628 C 0.43205 0.14776 0.85051 0.0
C629 C 0.44305 0.05233 0.84691 0.0
C630 C 0.31825 0.36892 0.78394 0.0
N631 N 0.33047 0.33046 0.76835 0.0
C632 C 0.26631 0.38935 0.78552 0.0
C633 C 0.2268 0.37017 0.77098 0.0
C634 C 0.23961 0.33098 0.7551 0.0
C635 C 0.29195 0.31146 0.75402 0.0
C636 C 0.39308 0.3727 0.70261 0.0
C637 C 0.4241 0.27522 0.72062 0.0
C638 C 0.39019 0.36304 0.72582 0.0
N639 N 0.40541 0.31469 0.73454 0.0
C640 C 0.42751 0.28343 0.69732 0.0
C641 C 0.41185 0.33253 0.68829 0.0
C642 C 0.49708 0.23212 0.77425 0.0
C643 C 0.49172 0.32899 0.85813 0.0
C644 C 0.51957 0.23619 0.8354 0.0
C645 C 0.55733 0.26151 0.84914 0.0
C646 C 0.54323 0.30827 0.86055 0.0
N647 N 0.46918 0.25679 0.83308 0.0
C648 C 0.455 0.30251 0.84427 0.0
Co649 Co 0.30188 0.59439 0.23618 0.0
Co650 Co 0.22103 0.58445 0.18925 0.0
O651 O 0.29003 0.60027 0.20351 0.0
C652 C 0.39115 0.53315 0.21585 0.0
O653 O 0.35649 0.51307 0.20151 0.0
C654 C 0.25205 0.69055 0.17024 0.0
O655 O 0.27098 0.70413 0.1901 0.0
O656 O 0.18425 0.6347 0.21014 0.0
O657 O 0.2275 0.62102 0.24292 0.0
H658 H 0.02272 0.55189 0.18899 0.0
H659 H 0.38147 0.6538 0.20879 0.0
O660 O 0.37622 0.56679 0.23075 0.0
H661 H 0.31062 0.78538 0.26328 0.0
H662 H 0.41007 0.61366 0.30757 0.0
H663 H 0.24031 0.54995 0.2747 0.0
H664 H 0.27852 0.692 0.26362 0.0
H665 H 0.39276 0.62254 0.2667 0.0
O666 O 0.23165 0.64445 0.16711 0.0
H667 H 0.11205 0.56057 0.20637 0.0
H668 H 0.18268 0.57935 0.14155 0.0
H669 H 0.25554 0.54077 0.31568 0.0
H670 H 0.41527 0.7466 0.20808 0.0
H671 H 0.34103 0.57279 0.33238 0.0
H672 H 0.37961 0.81317 0.23541 0.0
O673 O 0.2747 0.51986 0.23603 0.0
H674 H 0.36638 0.53059 0.13515 0.0
H675 H 0.2013 0.4724 0.17364 0.0
H676 H 0.24828 0.40962 0.14833 0.0
H677 H 0.33146 0.43867 0.12883 0.0
H678 H 0.31842 0.59178 0.16087 0.0
H679 H 0.09418 0.57047 0.12347 0.0
H680 H 0.0133 0.55793 0.14726 0.0
O681 O 0.20768 0.52334 0.21084 0.0
C682 C 0.18785 0.63889 0.23154 0.0
C683 C 0.05768 0.55731 0.17844 0.0
C684 C 0.09778 0.56787 0.14167 0.0
N685 N 0.15256 0.57021 0.175 0.0
C686 C 0.10839 0.56211 0.18818 0.0
C687 C 0.1478 0.57272 0.15201 0.0
C688 C 0.05242 0.56065 0.15503 0.0
C689 C 0.36624 0.68239 0.22091 0.0
N690 N 0.32819 0.66747 0.23626 0.0
C691 C 0.38532 0.73494 0.22035 0.0
C692 C 0.36522 0.77229 0.23566 0.0
C693 C 0.32645 0.75675 0.25128 0.0
C694 C 0.30826 0.70386 0.25133 0.0
C695 C 0.37249 0.59993 0.30053 0.0
C696 C 0.27711 0.5648 0.2819 0.0
C697 C 0.36243 0.60492 0.2774 0.0
N698 N 0.31492 0.588 0.26841 0.0
C699 C 0.28574 0.55912 0.30509 0.0
C700 C 0.33375 0.57698 0.31444 0.0
C701 C 0.23298 0.50003 0.22686 0.0
C702 C 0.33014 0.51748 0.14352 0.0
C703 C 0.23764 0.48515 0.16539 0.0
C704 C 0.26397 0.44953 0.15097 0.0
C705 C 0.31058 0.46588 0.14001 0.0
N706 N 0.25715 0.53563 0.16879 0.0
C707 C 0.30269 0.55202 0.15803 0.0
Co708 Co 0.60419 0.80502 0.48615 0.0
Co709 Co 0.57705 0.72169 0.44106 0.0
O710 O 0.59788 0.79054 0.45378 0.0
C711 C 0.53104 0.89088 0.4708 0.0
O712 O 0.50073 0.8531 0.46218 0.0
C713 C 0.68112 0.74297 0.41813 0.0
O714 O 0.70264 0.75094 0.4381 0.0
O715 O 0.63043 0.68373 0.46024 0.0
O716 O 0.63312 0.73155 0.49239 0.0
H717 H 0.54141 0.52453 0.44503 0.0
H718 H 0.65246 0.88009 0.45306 0.0
O719 O 0.57469 0.87883 0.48074 0.0
H720 H 0.8027 0.81676 0.50008 0.0
H721 H 0.64714 0.92268 0.55283 0.0
H722 H 0.58005 0.74631 0.52857 0.0
H723 H 0.71063 0.78553 0.50743 0.0
H724 H 0.64012 0.90041 0.51232 0.0
O725 O 0.63184 0.73055 0.41654 0.0
H726 H 0.55217 0.61554 0.46053 0.0
H727 H 0.56289 0.6794 0.39416 0.0
H728 H 0.58674 0.76651 0.56925 0.0
H729 H 0.74384 0.91273 0.44526 0.0
H730 H 0.62053 0.85538 0.58162 0.0
H731 H 0.81974 0.8809 0.46882 0.0
O732 O 0.53085 0.77651 0.49175 0.0
H733 H 0.51373 0.86845 0.38952 0.0
H734 H 0.46399 0.70028 0.42776 0.0
H735 H 0.39721 0.74685 0.40411 0.0
H736 H 0.42198 0.83163 0.38481 0.0
H737 H 0.57906 0.82062 0.4134 0.0
H738 H 0.55174 0.58912 0.37794 0.0
H739 H 0.54312 0.51076 0.40347 0.0
O740 O 0.52036 0.71259 0.46505 0.0
C741 C 0.64371 0.68971 0.48085 0.0
C742 C 0.54538 0.55837 0.43374 0.0
C743 C 0.55137 0.59462 0.39608 0.0
N744 N 0.55813 0.65272 0.42828 0.0
C745 C 0.55123 0.61003 0.44241 0.0
C746 C 0.55755 0.64566 0.40537 0.0
C747 C 0.5461 0.55069 0.41042 0.0
C748 C 0.68521 0.86647 0.46353 0.0
N749 N 0.67618 0.83121 0.48076 0.0
C750 C 0.7369 0.88491 0.45897 0.0
C751 C 0.77948 0.86698 0.47218 0.0
C752 C 0.76995 0.83096 0.48971 0.0
C753 C 0.71775 0.81333 0.49376 0.0
C754 C 0.63249 0.88377 0.54766 0.0
C755 C 0.59512 0.78474 0.53382 0.0
C756 C 0.62835 0.87095 0.52475 0.0
N757 N 0.61016 0.82177 0.51809 0.0
C758 C 0.59867 0.79612 0.55688 0.0
C759 C 0.61757 0.84599 0.56381 0.0
C760 C 0.50515 0.73761 0.48285 0.0
C761 C 0.50238 0.83165 0.39791 0.0
C762 C 0.47484 0.73736 0.41954 0.0
C763 C 0.43698 0.76343 0.4061 0.0
C764 C 0.45092 0.81097 0.39527 0.0
N765 N 0.52508 0.75804 0.42216 0.0
C766 C 0.53917 0.80442 0.41146 0.0
Co767 Co 0.80035 0.40363 0.51786 0.0
Co768 Co 0.71869 0.42006 0.56387 0.0
O769 O 0.78771 0.40299 0.5504 0.0
C770 C 0.8882 0.47248 0.53476 0.0
O771 O 0.85133 0.50138 0.54483 0.0
C772 C 0.74395 0.31524 0.58534 0.0
O773 O 0.75219 0.29576 0.56502 0.0
O774 O 0.68258 0.3663 0.54421 0.0
O775 O 0.72591 0.37667 0.51125 0.0
H776 H 0.51958 0.44574 0.56291 0.0
H777 H 0.87658 0.34737 0.54806 0.0
O778 O 0.87497 0.43092 0.52355 0.0
H779 H 0.80786 0.20874 0.49626 0.0
H780 H 0.91191 0.37228 0.44823 0.0
H781 H 0.74127 0.44281 0.47762 0.0
H782 H 0.77808 0.30253 0.49268 0.0
H783 H 0.89236 0.37 0.48909 0.0
O784 O 0.73103 0.36423 0.58771 0.0
H785 H 0.60953 0.43936 0.54596 0.0
H786 H 0.67978 0.43162 0.61126 0.0
H787 H 0.75873 0.44538 0.43663 0.0
H788 H 0.90782 0.25416 0.55211 0.0
H789 H 0.84467 0.40989 0.42168 0.0
H790 H 0.87323 0.18406 0.52614 0.0
O791 O 0.77279 0.47823 0.5157 0.0
H792 H 0.86426 0.48614 0.6154 0.0
H793 H 0.69595 0.5334 0.57674 0.0
H794 H 0.74188 0.60124 0.6 0.0
H795 H 0.82669 0.57771 0.61957 0.0
H796 H 0.81716 0.41973 0.59178 0.0
H797 H 0.59059 0.43846 0.62892 0.0
H798 H 0.50966 0.44339 0.60469 0.0
O799 O 0.70492 0.4773 0.5406 0.0
C800 C 0.68606 0.36009 0.52287 0.0
C801 C 0.55456 0.44331 0.57366 0.0
C802 C 0.59443 0.43909 0.6107 0.0
N803 N 0.64985 0.43519 0.5776 0.0
C804 C 0.60562 0.4399 0.56415 0.0
C805 C 0.64483 0.43544 0.6006 0.0
C806 C 0.54903 0.4422 0.59708 0.0
C807 C 0.8618 0.3172 0.53654 0.0
N808 N 0.8258 0.33042 0.52007 0.0
C809 C 0.87945 0.26444 0.53898 0.0
C810 C 0.85996 0.22512 0.52442 0.0
C811 C 0.82325 0.23893 0.50767 0.0
C812 C 0.80645 0.29208 0.50575 0.0
C813 C 0.87414 0.38747 0.45451 0.0
C814 C 0.77824 0.42646 0.4712 0.0
C815 C 0.86281 0.38623 0.47763 0.0
N816 N 0.81504 0.40498 0.48566 0.0
C817 C 0.78815 0.42841 0.44799 0.0
C818 C 0.83641 0.40859 0.43962 0.0
C819 C 0.73052 0.49881 0.5242 0.0
C820 C 0.82732 0.49687 0.60698 0.0
C821 C 0.73294 0.523 0.58507 0.0
C822 C 0.7587 0.5615 0.59829 0.0
C823 C 0.80625 0.54826 0.60928 0.0
N824 N 0.75386 0.47272 0.58287 0.0
C825 C 0.80041 0.4594 0.59363 0.0
Co826 Co 0.39809 0.20455 0.48591 0.0
Co827 Co 0.4181 0.28165 0.43844 0.0
O828 O 0.39915 0.21436 0.45316 0.0
C829 C 0.46832 0.11551 0.47073 0.0
O830 O 0.49875 0.15144 0.46086 0.0
C831 C 0.31343 0.25249 0.41786 0.0
O832 O 0.29684 0.23704 0.43784 0.0
O833 O 0.3661 0.32146 0.45753 0.0
O834 O 0.36919 0.27872 0.49089 0.0
H835 H 0.45242 0.47942 0.43576 0.0
H836 H 0.34493 0.12466 0.45636 0.0
O837 O 0.42675 0.12998 0.48164 0.0
H838 H 0.20271 0.19309 0.50644 0.0
H839 H 0.36756 0.09847 0.55709 0.0
H840 H 0.42906 0.27051 0.52552 0.0
H841 H 0.29524 0.22672 0.50982 0.0
H842 H 0.36741 0.11366 0.51589 0.0
O843 O 0.36074 0.27027 0.41515 0.0
H844 H 0.44174 0.39172 0.45436 0.0
H845 H 0.43006 0.31535 0.3904 0.0
H846 H 0.42948 0.2572 0.56681 0.0
H847 H 0.25317 0.08922 0.45267 0.0
H848 H 0.39854 0.17065 0.58285 0.0
H849 H 0.18125 0.12366 0.47777 0.0
O850 O 0.47213 0.2333 0.48863 0.0
H851 H 0.47642 0.12878 0.3891 0.0
H852 H 0.53192 0.29845 0.42463 0.0
H853 H 0.59704 0.24753 0.40183 0.0
H854 H 0.56935 0.16201 0.38384 0.0
H855 H 0.41281 0.18088 0.41221 0.0
H856 H 0.44131 0.4021 0.37112 0.0
H857 H 0.45109 0.48506 0.39382 0.0
O858 O 0.47644 0.29538 0.46123 0.0
C859 C 0.35535 0.31833 0.47854 0.0
C860 C 0.44827 0.44353 0.42567 0.0
C861 C 0.44186 0.40015 0.38939 0.0
N862 N 0.43554 0.34846 0.42349 0.0
C863 C 0.44237 0.39375 0.43611 0.0
C864 C 0.43572 0.35112 0.40041 0.0
C865 C 0.44754 0.44667 0.40215 0.0
C866 C 0.31403 0.13924 0.46757 0.0
N867 N 0.32555 0.17734 0.48342 0.0
C868 C 0.26206 0.11929 0.4653 0.0
C869 C 0.22171 0.13871 0.47935 0.0
C870 C 0.23372 0.17771 0.49543 0.0
C871 C 0.28615 0.19673 0.49721 0.0
C872 C 0.38096 0.13641 0.55031 0.0
C873 C 0.41511 0.23292 0.53238 0.0
C874 C 0.38104 0.14522 0.527 0.0
N875 N 0.39761 0.19317 0.51833 0.0
C876 C 0.41564 0.22553 0.55577 0.0
C877 C 0.39834 0.17694 0.56476 0.0
C878 C 0.49531 0.2726 0.4789 0.0
C879 C 0.48897 0.166 0.39683 0.0
C880 C 0.51974 0.26118 0.417 0.0
C881 C 0.55669 0.23258 0.40402 0.0
C882 C 0.54111 0.18463 0.39391 0.0
N883 N 0.4687 0.24264 0.41979 0.0
C884 C 0.45309 0.19573 0.40989 0.0
Co885 Co 0.2007 0.60854 0.51981 0.0
Co886 Co 0.28159 0.57786 0.56515 0.0
O887 O 0.21359 0.60027 0.55211 0.0
C888 C 0.11315 0.5346 0.53356 0.0
O889 O 0.14989 0.50212 0.54155 0.0
C890 C 0.26072 0.68124 0.5884 0.0
O891 O 0.25402 0.70297 0.56839 0.0
O892 O 0.32154 0.63148 0.54678 0.0
O893 O 0.27405 0.63913 0.51481 0.0
H894 H 0.47871 0.54023 0.56365 0.0
H895 H 0.12553 0.65426 0.55345 0.0
O896 O 0.12669 0.57851 0.52418 0.0
H897 H 0.18495 0.8074 0.50725 0.0
H898 H 0.08717 0.65293 0.45202 0.0
H899 H 0.2637 0.5895 0.47803 0.0
H900 H 0.21785 0.7163 0.49921 0.0
H901 H 0.10628 0.64365 0.49273 0.0
O902 O 0.27212 0.6317 0.59003 0.0
H903 H 0.38925 0.55302 0.54686 0.0
H904 H 0.31952 0.55942 0.61227 0.0
H905 H 0.2465 0.59866 0.43719 0.0
H906 H 0.09101 0.74457 0.56192 0.0
H907 H 0.15766 0.63056 0.42394 0.0
H908 H 0.12089 0.82197 0.53877 0.0
O909 O 0.22965 0.53546 0.51368 0.0
H910 H 0.13226 0.51443 0.61534 0.0
H911 H 0.29777 0.46224 0.57562 0.0
H912 H 0.24811 0.39454 0.59757 0.0
H913 H 0.16474 0.42057 0.61767 0.0
H914 H 0.18295 0.58063 0.593 0.0
H915 H 0.40813 0.54611 0.62977 0.0
H916 H 0.4887 0.53877 0.60544 0.0
O917 O 0.29183 0.52292 0.54071 0.0
C918 C 0.31606 0.64803 0.52652 0.0
C919 C 0.4439 0.5437 0.57444 0.0
C920 C 0.4043 0.54719 0.61155 0.0
N921 N 0.34926 0.55707 0.57857 0.0
C922 C 0.39312 0.55071 0.56503 0.0
C923 C 0.35421 0.55453 0.60155 0.0
C924 C 0.44947 0.54266 0.59787 0.0
C925 C 0.1383 0.68764 0.54316 0.0
N926 N 0.17343 0.67993 0.52576 0.0
C927 C 0.1188 0.73873 0.5481 0.0
C928 C 0.13563 0.78214 0.53513 0.0
C929 C 0.1716 0.774 0.51745 0.0
C930 C 0.19024 0.72234 0.51301 0.0
C931 C 0.12606 0.63904 0.45758 0.0
C932 C 0.22504 0.6037 0.47241 0.0
C933 C 0.13706 0.63355 0.48061 0.0
N934 N 0.18617 0.61631 0.48776 0.0
C935 C 0.21549 0.60867 0.44926 0.0
C936 C 0.16563 0.62651 0.44183 0.0
C937 C 0.26804 0.50878 0.52248 0.0
C938 C 0.16853 0.50259 0.60666 0.0
C939 C 0.26135 0.47371 0.58417 0.0
C940 C 0.2335 0.43529 0.59666 0.0
C941 C 0.18675 0.44993 0.60795 0.0
N942 N 0.24323 0.52525 0.58299 0.0
C943 C 0.19746 0.53992 0.59402 0.0
C944 C 0.2124 0.38187 0.26669 0.0
C945 C 0.16782 0.35543 0.25751 0.0
C946 C 0.23407 0.42737 0.25624 0.0
C947 C 0.2113 0.44912 0.23641 0.0
H948 H 0.23058 0.36738 0.28216 0.0
H949 H 0.26831 0.44623 0.26416 0.0
S950 S 0.09188 0.39555 0.20638 0.0
N951 N 0.10069 0.35436 0.22786 0.0
N952 N 0.14034 0.44024 0.20836 0.0
C953 C 0.16643 0.42277 0.22711 0.0
C954 C 0.14499 0.37591 0.23761 0.0
C955 C 0.43421 0.7727 0.74489 0.0
C956 C 0.45317 0.79405 0.76551 0.0
C957 C 0.38951 0.79455 0.73383 0.0
C958 C 0.36134 0.83793 0.74313 0.0
H959 H 0.45454 0.73936 0.73693 0.0
H960 H 0.37684 0.7773 0.7179 0.0
S961 S 0.39473 0.91063 0.79595 0.0
N962 N 0.44013 0.86281 0.79426 0.0
N963 N 0.35627 0.90294 0.77352 0.0
C964 C 0.37942 0.85961 0.76366 0.0
C965 C 0.42523 0.83793 0.77483 0.0
C966 C 0.82733 0.57595 0.23212 0.0
C967 C 0.78763 0.54446 0.24262 0.0
C968 C 0.84907 0.62104 0.24285 0.0
C969 C 0.83292 0.636 0.26473 0.0
H970 H 0.84238 0.56552 0.21554 0.0
H971 H 0.88005 0.64338 0.23417 0.0
S972 S 0.72846 0.56989 0.29936 0.0
N973 N 0.73094 0.53411 0.27593 0.0
N974 N 0.77353 0.61765 0.29624 0.0
C975 C 0.79284 0.60573 0.27535 0.0
C976 C 0.76973 0.56039 0.26426 0.0
C977 C 0.56855 0.23359 0.74427 0.0
C978 C 0.54713 0.21011 0.76403 0.0
C979 C 0.614 0.21235 0.73355 0.0
C980 C 0.64052 0.16748 0.74239 0.0
H981 H 0.54965 0.26826 0.7367 0.0
H982 H 0.62856 0.23124 0.71825 0.0
S983 S 0.60031 0.0887 0.79273 0.0
N984 N 0.5559 0.1375 0.79133 0.0
N985 N 0.64134 0.09855 0.77127 0.0
C986 C 0.61995 0.14353 0.76203 0.0
C987 C 0.57331 0.16458 0.77282 0.0
C988 C 0.18245 0.0829 0.02508 0.0
C989 C 0.2198 0.05061 0.01349 0.0
C990 C 0.16247 0.13037 0.01554 0.0
C991 C 0.17811 0.14697 0.99381 0.0
H992 H 0.16785 0.07125 0.04158 0.0
H993 H 0.13294 0.15307 0.02492 0.0
S994 S 0.27666 0.07936 0.95661 0.0
N995 N 0.27375 0.0412 0.97934 0.0
N996 N 0.23456 0.12907 0.96129 0.0
C997 C 0.21604 0.11592 0.98217 0.0
C998 C 0.23729 0.06819 0.99203 0.0
C999 C 0.13286 0.84401 0.9905 0.0
C1000 C 0.14527 0.83221 0.01315 0.0
C1001 C 0.0866 0.82354 0.98017 0.0
C1002 C 0.05117 0.78947 0.9919 0.0
H1003 H 0.15811 0.8708 0.98082 0.0
H1004 H 0.07842 0.83516 0.9629 0.0
S1005 S 0.06791 0.74313 0.05125 0.0
N1006 N 0.11978 0.78268 0.0468 0.0
N1007 N 0.03388 0.74278 0.02735 0.0
C1008 C 0.0643 0.77583 0.01439 0.0
C1009 C 0.11095 0.79755 0.02501 0.0
C1010 C 0.82916 0.91425 0.97687 0.0
C1011 C 0.83359 0.86502 0.98846 0.0
C1012 C 0.80807 0.96001 0.98745 0.0
C1013 C 0.79103 0.95861 0.01006 0.0
H1014 H 0.84318 0.91801 0.95963 0.0
H1015 H 0.80666 0.99715 0.97804 0.0
S1016 S 0.78748 0.83952 0.04731 0.0
N1017 N 0.8144 0.8176 0.02358 0.0
N1018 N 0.77504 0.9036 0.04306 0.0
C1019 C 0.79316 0.90966 0.02159 0.0
C1020 C 0.81427 0.8629 0.01089 0.0
C1021 C 0.8815 0.1599 0.99174 0.0
C1022 C 0.86527 0.17469 0.01362 0.0
C1023 C 0.92813 0.1812 0.98201 0.0
C1024 C 0.95979 0.2191 0.99356 0.0
H1025 H 0.8591 0.13012 0.98237 0.0
H1026 H 0.93963 0.16723 0.96538 0.0
S1027 S 0.93125 0.27408 0.05083 0.0
N1028 N 0.88262 0.23064 0.0463 0.0
N1029 N 0.96877 0.2727 0.02787 0.0
C1030 C 0.94246 0.2357 0.01521 0.0
C1031 C 0.89568 0.21295 0.02527 0.0
C1032 C 0.64965 0.88139 0.74308 0.0
C1033 C 0.66826 0.86418 0.76429 0.0
C1034 C 0.67132 0.92672 0.73251 0.0
C1035 C 0.71342 0.95606 0.74247 0.0
H1036 H 0.61688 0.86064 0.73487 0.0
H1037 H 0.6544 0.93901 0.71649 0.0
S1038 S 0.77921 0.92408 0.79729 0.0
N1039 N 0.73217 0.87809 0.79459 0.0
N1040 N 0.77486 0.9618 0.77446 0.0
C1041 C 0.73365 0.93781 0.7634 0.0
C1042 C 0.71056 0.89235 0.77438 0.0
C1043 C 0.92498 0.32552 0.27178 0.0
C1044 C 0.95321 0.28302 0.26155 0.0
C1045 C 0.87896 0.34734 0.26176 0.0
C1046 C 0.86009 0.32841 0.24087 0.0
H1047 H 0.93883 0.34278 0.28752 0.0
H1048 H 0.8592 0.38065 0.27003 0.0
S1049 S 0.91586 0.2159 0.20759 0.0
N1050 N 0.95545 0.2204 0.22985 0.0
N1051 N 0.87071 0.26359 0.21072 0.0
C1052 C 0.88684 0.28549 0.23062 0.0
C1053 C 0.93287 0.26221 0.24105 0.0
C1054 C 0.32666 0.08097 0.72996 0.0
C1055 C 0.28531 0.05121 0.74025 0.0
C1056 C 0.34771 0.12712 0.74016 0.0
C1057 C 0.32911 0.14482 0.76131 0.0
H1058 H 0.34369 0.06818 0.71402 0.0
H1059 H 0.38026 0.14789 0.73181 0.0
S1060 S 0.21921 0.08462 0.79486 0.0
N1061 N 0.22403 0.04602 0.77231 0.0
N1062 N 0.26544 0.13125 0.79174 0.0
C1063 C 0.28712 0.11653 0.77159 0.0
C1064 C 0.26474 0.07022 0.76101 0.0
C1065 C 0.06841 0.72708 0.24553 0.0
C1066 C 0.04922 0.70535 0.26602 0.0
C1067 C 0.11355 0.70581 0.23461 0.0
C1068 C 0.14203 0.6626 0.2439 0.0
H1069 H 0.04793 0.76029 0.23754 0.0
H1070 H 0.12624 0.72335 0.21874 0.0
S1071 S 0.10842 0.58943 0.29659 0.0
N1072 N 0.0624 0.6366 0.29473 0.0
N1073 N 0.14732 0.59768 0.27433 0.0
C1074 C 0.12382 0.64067 0.26437 0.0
C1075 C 0.07746 0.66174 0.27538 0.0
C1076 C 0.73306 0.5709 0.49441 0.0
C1077 C 0.70899 0.54908 0.51396 0.0
C1078 C 0.71222 0.61677 0.48382 0.0
C1079 C 0.66729 0.64328 0.49265 0.0
H1080 H 0.76783 0.552 0.48692 0.0
H1081 H 0.73139 0.63163 0.46864 0.0
S1082 S 0.58698 0.60214 0.54236 0.0
N1083 N 0.63556 0.55748 0.54095 0.0
N1084 N 0.59769 0.64372 0.52119 0.0
C1085 C 0.64279 0.6223 0.51205 0.0
C1086 C 0.6633 0.57526 0.52267 0.0
C1087 C 0.60954 0.29506 0.52085 0.0
C1088 C 0.63968 0.33621 0.51081 0.0
C1089 C 0.56386 0.27401 0.51018 0.0
C1090 C 0.54571 0.29393 0.48919 0.0
H1091 H 0.62134 0.27898 0.53711 0.0
H1092 H 0.54214 0.24244 0.51875 0.0
S1093 S 0.60907 0.40448 0.45661 0.0
N1094 N 0.64738 0.39744 0.47912 0.0
N1095 N 0.56158 0.35902 0.45924 0.0
C1096 C 0.57553 0.33555 0.47911 0.0
C1097 C 0.62241 0.35634 0.48985 0.0
C1098 C 0.32008 0.42273 0.52276 0.0
C1099 C 0.28673 0.45885 0.51105 0.0
C1100 C 0.34032 0.37656 0.51235 0.0
C1101 C 0.32913 0.36488 0.48958 0.0
H1102 H 0.33127 0.43022 0.54014 0.0
H1103 H 0.36642 0.35074 0.52208 0.0
S1104 S 0.24256 0.44464 0.45131 0.0
N1105 N 0.24166 0.47791 0.47542 0.0
N1106 N 0.28127 0.3921 0.45572 0.0
C1107 C 0.29537 0.40002 0.47766 0.0
C1108 C 0.27378 0.44662 0.48841 0.0
C1109 C 0.45713 0.70209 0.51674 0.0
C1110 C 0.45563 0.71931 0.49416 0.0
C1111 C 0.41151 0.68061 0.52724 0.0
C1112 C 0.36234 0.67584 0.51562 0.0
H1113 H 0.49423 0.7036 0.52616 0.0
H1114 H 0.41539 0.66649 0.54447 0.0
S1115 S 0.33662 0.72207 0.45683 0.0
N1116 N 0.4006 0.73506 0.46113 0.0
N1117 N 0.31482 0.69483 0.4805 0.0
C1118 C 0.36009 0.69531 0.49323 0.0
C1119 C 0.40671 0.7169 0.48259 0.0
C1120 C 0.24972 0.20165 0.39333 0.0
C1121 C 0.2774 0.2493 0.39813 0.0
C1122 C 0.21767 0.19713 0.3739 0.0
C1123 C 0.2109 0.24069 0.35908 0.0
H1124 H 0.25385 0.16731 0.40439 0.0
H1125 H 0.1974 0.15956 0.37063 0.0
S1126 S 0.27328 0.37474 0.36469 0.0
N1127 N 0.29592 0.34084 0.38668 0.0
N1128 N 0.23363 0.33322 0.3508 0.0
C1129 C 0.23743 0.28889 0.36402 0.0
C1130 C 0.27129 0.29295 0.38338 0.0
C1131 C 0.26162 0.77079 0.60756 0.0
C1132 C 0.25772 0.71475 0.60916 0.0
C1133 C 0.26206 0.80318 0.62693 0.0
C1134 C 0.25809 0.78103 0.64879 0.0
H1135 H 0.26553 0.78992 0.59121 0.0
H1136 H 0.26595 0.84605 0.62467 0.0
S1137 S 0.2432 0.63651 0.66223 0.0
N1138 N 0.2472 0.6385 0.6344 0.0
N1139 N 0.24768 0.6993 0.67074 0.0
C1140 C 0.25261 0.72508 0.65062 0.0
C1141 C 0.25256 0.69202 0.63086 0.0
C1142 C 0.7706 0.74367 0.39884 0.0
C1143 C 0.71446 0.74598 0.3973 0.0
C1144 C 0.8028 0.74312 0.3794 0.0
C1145 C 0.78034 0.74536 0.35754 0.0
H1146 H 0.78998 0.74105 0.41518 0.0
H1147 H 0.84578 0.7404 0.38161 0.0
S1148 S 0.63536 0.75575 0.34423 0.0
N1149 N 0.63774 0.75332 0.37208 0.0
N1150 N 0.69817 0.75246 0.33565 0.0
C1151 C 0.72427 0.74932 0.35577 0.0
C1152 C 0.69141 0.74954 0.37558 0.0
C1153 C 0.74448 0.27213 0.64711 0.0
C1154 C 0.74662 0.21593 0.64592 0.0
C1155 C 0.74451 0.30366 0.62747 0.0
C1156 C 0.74724 0.28045 0.60576 0.0
H1157 H 0.74146 0.29207 0.66332 0.0
H1158 H 0.74182 0.34671 0.62941 0.0
S1159 S 0.75761 0.13501 0.59338 0.0
N1160 N 0.75438 0.13835 0.6212 0.0
N1161 N 0.75478 0.19752 0.58441 0.0
C1162 C 0.75115 0.22432 0.60435 0.0
C1163 C 0.7507 0.19214 0.62436 0.0
C1164 C 0.22213 0.3113 0.88039 0.0
C1165 C 0.21442 0.26718 0.89482 0.0
C1166 C 0.25334 0.30678 0.86071 0.0
C1167 C 0.27923 0.2585 0.85524 0.0
H1168 H 0.20314 0.34929 0.88413 0.0
H1169 H 0.25819 0.34159 0.84997 0.0
S1170 S 0.27223 0.13152 0.88759 0.0
N1171 N 0.2345 0.17359 0.90212 0.0
N1172 N 0.29513 0.1658 0.86576 0.0
C1173 C 0.27224 0.21431 0.86965 0.0
C1174 C 0.23926 0.21845 0.88928 0.0
C1175 C 0.30304 0.75672 0.1469 0.0
C1176 C 0.25555 0.72804 0.15097 0.0
C1177 C 0.30813 0.7899 0.12783 0.0
C1178 C 0.26529 0.79684 0.11266 0.0
H1179 H 0.3369 0.75243 0.1582 0.0
H1180 H 0.34559 0.81082 0.12511 0.0
S1181 S 0.132 0.73207 0.1162 0.0
N1182 N 0.16493 0.70884 0.13834 0.0
N1183 N 0.17369 0.7731 0.10317 0.0
C1184 C 0.21726 0.76933 0.11684 0.0
C1185 C 0.21262 0.73438 0.13583 0.0
C1186 C 0.73465 0.75929 0.89775 0.0
C1187 C 0.79075 0.75716 0.89581 0.0
C1188 C 0.70162 0.75908 0.87856 0.0
C1189 C 0.72317 0.75624 0.85655 0.0
H1190 H 0.71595 0.76231 0.91422 0.0
H1191 H 0.65873 0.76167 0.88107 0.0
S1192 S 0.86763 0.74623 0.8422 0.0
N1193 N 0.86641 0.74947 0.87005 0.0
N1194 N 0.80445 0.74893 0.83408 0.0
C1195 C 0.77919 0.75253 0.85438 0.0
C1196 C 0.81289 0.75307 0.87394 0.0
C1197 C 0.76313 0.27291 0.10593 0.0
C1198 C 0.75995 0.21676 0.10726 0.0
C1199 C 0.76282 0.30485 0.12547 0.0
C1200 C 0.75882 0.2821 0.14722 0.0
H1201 H 0.76699 0.29247 0.08967 0.0
H1202 H 0.7661 0.34783 0.12344 0.0
S1203 S 0.74636 0.13701 0.16 0.0
N1204 N 0.75042 0.13978 0.1322 0.0
N1205 N 0.74973 0.19965 0.16878 0.0
C1206 C 0.75429 0.22602 0.14878 0.0
C1207 C 0.75492 0.19345 0.12888 0.0
C1208 C 0.99611 0.96924 0.30647 0.0
C1209 C 0.98588 0.94123 0.2863 0.0
C1210 C 0.01197 0.02323 0.30608 0.0
C1211 C 0.01986 0.05021 0.28549 0.0
H1212 H 0.99088 0.94958 0.32265 0.0
H1213 H 0.01898 0.04372 0.32195 0.0
S1214 S 0.99953 0.99435 0.22806 0.0
N1215 N 0.98462 0.94444 0.24525 0.0
N1216 N 0.01641 0.04504 0.24451 0.0
C1217 C 0.01049 0.02238 0.26524 0.0
C1218 C 0.99295 0.96807 0.26565 0.0
C1219 C 0.973 0.0088 0.69671 0.0
C1220 C 0.9464 0.01922 0.71719 0.0
C1221 C 0.02681 0.99229 0.69649 0.0
C1222 C 0.05488 0.98388 0.71679 0.0
H1223 H 0.95237 0.0143 0.68076 0.0
H1224 H 0.04626 0.98515 0.6804 0.0
S1225 S 0.00279 0.00448 0.77482 0.0
N1226 N 0.95206 0.0202 0.75819 0.0
N1227 N 0.05227 0.98706 0.75782 0.0
C1228 C 0.02844 0.99348 0.73734 0.0
C1229 C 0.97436 0.01173 0.73754 0.0
C1230 C 0.01431 0.47972 0.99044 0.0
C1231 C 0.02406 0.45113 0.97039 0.0
C1232 C 0.99666 0.53307 0.98983 0.0
C1233 C 0.99012 0.56011 0.96916 0.0
H1234 H 0.01936 0.46039 0.0067 0.0
H1235 H 0.9888 0.55354 0.00563 0.0
S1236 S 0.01197 0.50348 0.912 0.0
N1237 N 0.02595 0.45358 0.92936 0.0
N1238 N 0.99519 0.55464 0.92824 0.0
C1239 C 1.00072 0.53228 0.94903 0.0
C1240 C 0.01704 0.4775 0.94964 0.0
C1241 C 0.46747 0.03948 0.0347 0.0
C1242 C 0.45224 0.98528 0.03387 0.0
C1243 C 0.52162 0.05452 0.03412 0.0
C1244 C 0.56261 0.01588 0.0333 0.0
H1245 H 0.43731 0.07064 0.03523 0.0
H1246 H 0.53146 0.09678 0.03439 0.0
S1247 S 0.54415 0.86853 0.03171 0.0
N1248 N 0.48268 0.89282 0.03246 0.0
N1249 N 0.58433 0.92105 0.03213 0.0
C1250 C 0.548 0.96153 0.03303 0.0
C1251 C 0.49287 0.94624 0.03309 0.0
C1252 C 0.4937 0.47521 0.8063 0.0
C1253 C 0.48572 0.44777 0.78581 0.0
C1254 C 0.50906 0.52937 0.80651 0.0
C1255 C 0.51868 0.5572 0.78624 0.0
H1256 H 0.48701 0.455 0.82225 0.0
H1257 H 0.51427 0.54934 0.82262 0.0
S1258 S 0.5046 0.50301 0.72818 0.0
N1259 N 0.48849 0.45239 0.7448 0.0
N1260 N 0.51937 0.55331 0.7452 0.0
C1261 C 0.51163 0.52992 0.76568 0.0
C1262 C 0.49459 0.4754 0.76546 0.0
C1263 C 0.52724 0.48702 0.23638 0.0
C1264 C 0.55635 0.48081 0.21622 0.0
C1265 C 0.47396 0.50475 0.23609 0.0
C1266 C 0.44742 0.51507 0.21557 0.0
H1267 H 0.5461 0.47904 0.25253 0.0
H1268 H 0.45311 0.50966 0.25202 0.0
S1269 S 0.50549 0.50347 0.15814 0.0
N1270 N 0.55496 0.48636 0.17523 0.0
N1271 N 0.45391 0.51735 0.17462 0.0
C1272 C 0.47575 0.50811 0.19529 0.0
C1273 C 0.53052 0.49163 0.19562 0.0
C1274 C 0.5373 0.04286 0.46839 0.0
C1275 C 0.48313 0.05802 0.46984 0.0
C1276 C 0.55245 0.9887 0.46868 0.0
C1277 C 0.51392 0.94764 0.46977 0.0
H1278 H 0.56837 0.07307 0.4676 0.0
H1279 H 0.59469 0.9789 0.46795 0.0
S1280 S 0.36667 0.96591 0.47303 0.0
N1281 N 0.39083 0.02741 0.47217 0.0
N1282 N 0.4192 0.92582 0.47193 0.0
C1283 C 0.45958 0.9622 0.47067 0.0
C1284 C 0.44422 0.01731 0.47094 0.0
C1285 C 0.98613 0.4505 0.5345 0.0
C1286 C 0.94518 0.48917 0.53552 0.0
C1287 C 0.04038 0.46545 0.53448 0.0
C1288 C 0.05569 0.51968 0.53483 0.0
H1289 H 0.9762 0.4083 0.53379 0.0
H1290 H 0.0705 0.43429 0.5336 0.0
S1291 S 0.96395 0.6365 0.53752 0.0
N1292 N 0.92372 0.58403 0.53728 0.0
N1293 N 0.02536 0.61214 0.5365 0.0
C1294 C 0.0151 0.55872 0.53587 0.0
C1295 C 0.95996 0.54346 0.53643 0.0
loop_
_geom_bond_atom_site_label_1
_geom_bond_atom_site_label_2
_geom_bond_distance
_geom_bond_site_symmetry_2
_ccdc_geom_bond_type
Co0 O2 2.143 . S
Co0 O8 2.074 . S
Co0 O11 2.093 . S
Co0 O24 2.097 . S
Co0 N41 2.151 . S
Co0 N49 2.214 . S
Co1 O2 2.160 . S
Co1 O7 2.058 . S
Co1 O17 2.057 . S
Co1 O32 2.037 . S
Co1 N36 2.145 . S
Co1 N57 2.257 . S
O2 Co0 2.143 . S
O2 Co1 2.160 . S
C3 O4 1.278 . S
C3 O11 1.224 . S
O4 C3 1.278 . S
C5 O6 1.245 . S
C5 O17 1.232 . S
O6 C5 1.245 . S
O7 Co1 2.058 . S
O7 C33 1.269 . S
O8 Co0 2.074 . S
O8 C33 1.257 . S
H9 C34 0.930 . S
H10 C40 0.930 . S
O11 Co0 2.093 . S
O11 C3 1.224 . S
H12 C44 0.929 . S
H13 C46 0.930 . S
H14 C47 0.930 . S
H15 C45 0.929 . S
H16 C48 0.928 . S
O17 Co1 2.057 . S
O17 C5 1.232 . S
H18 C37 0.929 . S
H19 C38 0.929 . S
H20 C50 0.931 . S
H21 C42 0.929 . S
H22 C51 0.930 . S
H23 C43 0.931 . S
O24 Co0 2.097 . S
O24 C52 1.214 1_455 S
H25 C53 0.928 1_455 S
H26 C54 0.929 . S
H27 C55 0.930 . S
H28 C56 0.929 . S
H29 C58 0.930 . S
H30 C35 0.930 . S
H31 C39 0.930 . S
O32 Co1 2.037 . S
O32 C52 1.234 1_455 S
C33 O7 1.269 . S
C33 O8 1.257 . S
C34 H9 0.930 . S
C34 C37 1.388 . S
C34 C39 1.418 . S
C35 H30 0.930 . S
C35 C38 1.404 . S
C35 C39 1.353 . S
N36 Co1 2.145 . S
N36 C37 1.397 . S
N36 C38 1.334 . S
C37 H18 0.929 . S
C37 C34 1.388 . S
C37 N36 1.397 . S
C38 H19 0.929 . S
C38 C35 1.404 . S
C38 N36 1.334 . S
C39 H31 0.930 . S
C39 C34 1.418 . S
C39 C35 1.353 . S
C40 H10 0.930 . S
C40 N41 1.330 . S
C40 C42 1.446 . S
N41 Co0 2.151 . S
N41 C40 1.330 . S
N41 C45 1.418 . S
C42 H21 0.929 . S
C42 C40 1.446 . S
C42 C43 1.332 . S
C43 H23 0.931 . S
C43 C42 1.332 . S
C43 C44 1.267 . S
C44 H12 0.929 . S
C44 C43 1.267 . S
C44 C45 1.251 . S
C45 H15 0.929 . S
C45 N41 1.418 . S
C45 C44 1.251 . S
C46 H13 0.930 . S
C46 C48 1.406 . S
C46 C51 1.261 . S
C47 H14 0.930 . S
C47 N49 1.325 . S
C47 C50 1.357 . S
C48 H16 0.928 . S
C48 C46 1.406 . S
C48 N49 1.261 . S
N49 Co0 2.214 . S
N49 C47 1.325 . S
N49 C48 1.261 . S
C50 H20 0.931 . S
C50 C47 1.357 . S
C50 C51 1.312 . S
C51 H22 0.930 . S
C51 C46 1.261 . S
C51 C50 1.312 . S
C52 O24 1.214 1_655 S
C52 O32 1.234 1_655 S
C53 H25 0.928 1_655 S
C53 C56 1.391 . S
C53 C58 1.391 1_655 S
C54 H26 0.929 . S
C54 C55 1.390 . S
C54 N57 1.391 1_655 S
C55 H27 0.930 . S
C55 C54 1.390 . S
C55 C56 1.392 . S
C56 H28 0.929 . S
C56 C53 1.391 . S
C56 C55 1.392 . S
N57 Co1 2.257 . S
N57 C54 1.391 1_455 S
N57 C58 1.388 . S
C58 H29 0.930 . S
C58 C53 1.391 1_455 S
C58 N57 1.388 . S
Co59 O61 2.143 . S
Co59 O67 2.074 . S
Co59 O70 2.093 . S
Co59 O83 2.097 . S
Co59 N100 2.151 . S
Co59 N108 2.214 . S
Co60 O61 2.160 . S
Co60 O66 2.058 . S
Co60 O76 2.057 . S
Co60 O91 2.037 . S
Co60 N95 2.145 . S
Co60 N116 2.257 . S
O61 Co59 2.143 . S
O61 Co60 2.160 . S
C62 O63 1.278 . S
C62 O70 1.224 . S
O63 C62 1.278 . S
C64 O65 1.245 . S
C64 O76 1.232 . S
O65 C64 1.245 . S
O66 Co60 2.058 . S
O66 C92 1.269 . S
O67 Co59 2.074 . S
O67 C92 1.257 . S
H68 C93 0.930 . S
H69 C99 0.930 . S
O70 Co59 2.093 . S
O70 C62 1.224 . S
H71 C103 0.929 . S
H72 C105 0.930 . S
H73 C106 0.930 . S
H74 C104 0.929 . S
H75 C107 0.928 . S
O76 Co60 2.057 . S
O76 C64 1.232 . S
H77 C96 0.929 . S
H78 C97 0.929 . S
H79 C109 0.931 . S
H80 C101 0.929 . S
H81 C110 0.930 . S
H82 C102 0.931 . S
O83 Co59 2.097 . S
O83 C111 1.214 1_565 S
H84 C112 0.928 1_565 S
H85 C113 0.929 . S
H86 C114 0.930 . S
H87 C115 0.929 . S
H88 C117 0.930 . S
H89 C94 0.930 . S
H90 C98 0.930 . S
O91 Co60 2.037 . S
O91 C111 1.234 1_565 S
C92 O66 1.269 . S
C92 O67 1.257 . S
C93 H68 0.930 . S
C93 C96 1.388 . S
C93 C98 1.418 . S
C94 H89 0.930 . S
C94 C97 1.404 . S
C94 C98 1.353 . S
N95 Co60 2.145 . S
N95 C96 1.397 . S
N95 C97 1.334 . S
C96 H77 0.929 . S
C96 C93 1.388 . S
C96 N95 1.397 . S
C97 H78 0.929 . S
C97 C94 1.404 . S
C97 N95 1.334 . S
C98 H90 0.930 . S
C98 C93 1.418 . S
C98 C94 1.353 . S
C99 H69 0.930 . S
C99 N100 1.330 . S
C99 C101 1.446 . S
N100 Co59 2.151 . S
N100 C99 1.330 . S
N100 C104 1.418 . S
C101 H80 0.929 . S
C101 C99 1.446 . S
C101 C102 1.332 . S
C102 H82 0.931 . S
C102 C101 1.332 . S
C102 C103 1.267 . S
C103 H71 0.929 . S
C103 C102 1.267 . S
C103 C104 1.251 . S
C104 H74 0.929 . S
C104 N100 1.418 . S
C104 C103 1.251 . S
C105 H72 0.930 . S
C105 C107 1.406 . S
C105 C110 1.261 . S
C106 H73 0.930 . S
C106 N108 1.325 . S
C106 C109 1.357 . S
C107 H75 0.928 . S
C107 C105 1.406 . S
C107 N108 1.261 . S
N108 Co59 2.214 . S
N108 C106 1.325 . S
N108 C107 1.261 . S
C109 H79 0.931 . S
C109 C106 1.357 . S
C109 C110 1.312 . S
C110 H81 0.930 . S
C110 C105 1.261 . S
C110 C109 1.312 . S
C111 O83 1.214 1_545 S
C111 O91 1.234 1_545 S
C112 H84 0.928 1_545 S
C112 C115 1.391 . S
C112 C117 1.391 1_545 S
C113 H85 0.929 . S
C113 C114 1.390 . S
C113 N116 1.391 1_545 S
C114 H86 0.930 . S
C114 C113 1.390 . S
C114 C115 1.392 . S
C115 H87 0.929 . S
C115 C112 1.391 . S
C115 C114 1.392 . S
N116 Co60 2.257 . S
N116 C113 1.391 1_565 S
N116 C117 1.388 . S
C117 H88 0.930 . S
C117 C112 1.391 1_565 S
C117 N116 1.388 . S
Co118 O120 2.143 . S
Co118 O126 2.074 . S
Co118 O129 2.093 . S
Co118 O142 2.097 . S
Co118 N159 2.151 . S
Co118 N167 2.214 . S
Co119 O120 2.160 . S
Co119 O125 2.058 . S
Co119 O135 2.057 . S
Co119 O150 2.037 . S
Co119 N154 2.145 . S
Co119 N175 2.257 . S
O120 Co118 2.143 . S
O120 Co119 2.160 . S
C121 O122 1.278 . S
C121 O129 1.224 . S
O122 C121 1.278 . S
C123 O124 1.245 . S
C123 O135 1.232 . S
O124 C123 1.245 . S
O125 Co119 2.058 . S
O125 C151 1.269 . S
O126 Co118 2.074 . S
O126 C151 1.257 . S
H127 C152 0.930 . S
H128 C158 0.930 . S
O129 Co118 2.093 . S
O129 C121 1.224 . S
H130 C162 0.929 . S
H131 C164 0.930 . S
H132 C165 0.930 . S
H133 C163 0.929 . S
H134 C166 0.928 . S
O135 Co119 2.057 . S
O135 C123 1.232 . S
H136 C155 0.929 . S
H137 C156 0.929 . S
H138 C168 0.931 . S
H139 C160 0.929 . S
H140 C169 0.930 . S
H141 C161 0.931 . S
O142 Co118 2.097 . S
O142 C170 1.214 1_655 S
H143 C171 0.928 1_655 S
H144 C172 0.929 . S
H145 C173 0.930 . S
H146 C174 0.929 . S
H147 C176 0.930 . S
H148 C153 0.930 . S
H149 C157 0.930 . S
O150 Co119 2.037 . S
O150 C170 1.234 1_655 S
C151 O125 1.269 . S
C151 O126 1.257 . S
C152 H127 0.930 . S
C152 C155 1.388 . S
C152 C157 1.418 . S
C153 H148 0.930 . S
C153 C156 1.404 . S
C153 C157 1.353 . S
N154 Co119 2.145 . S
N154 C155 1.397 . S
N154 C156 1.334 . S
C155 H136 0.929 . S
C155 C152 1.388 . S
C155 N154 1.397 . S
C156 H137 0.929 . S
C156 C153 1.404 . S
C156 N154 1.334 . S
C157 H149 0.930 . S
C157 C152 1.418 . S
C157 C153 1.353 . S
C158 H128 0.930 . S
C158 N159 1.330 . S
C158 C160 1.446 . S
N159 Co118 2.151 . S
N159 C158 1.330 . S
N159 C163 1.418 . S
C160 H139 0.929 . S
C160 C158 1.446 . S
C160 C161 1.332 . S
C161 H141 0.931 . S
C161 C160 1.332 . S
C161 C162 1.267 . S
C162 H130 0.929 . S
C162 C161 1.267 . S
C162 C163 1.251 . S
C163 H133 0.929 . S
C163 N159 1.418 . S
C163 C162 1.251 . S
C164 H131 0.930 . S
C164 C166 1.406 . S
C164 C169 1.261 . S
C165 H132 0.930 . S
C165 N167 1.325 . S
C165 C168 1.357 . S
C166 H134 0.928 . S
C166 C164 1.406 . S
C166 N167 1.261 . S
N167 Co118 2.214 . S
N167 C165 1.325 . S
N167 C166 1.261 . S
C168 H138 0.931 . S
C168 C165 1.357 . S
C168 C169 1.312 . S
C169 H140 0.930 . S
C169 C164 1.261 . S
C169 C168 1.312 . S
C170 O142 1.214 1_455 S
C170 O150 1.234 1_455 S
C171 H143 0.928 1_455 S
C171 C174 1.391 . S
C171 C176 1.391 1_455 S
C172 H144 0.929 . S
C172 C173 1.390 . S
C172 N175 1.391 1_455 S
C173 H145 0.930 . S
C173 C172 1.390 . S
C173 C174 1.392 . S
C174 H146 0.929 . S
C174 C171 1.391 . S
C174 C173 1.392 . S
N175 Co119 2.257 . S
N175 C172 1.391 1_655 S
N175 C176 1.388 . S
C176 H147 0.930 . S
C176 C171 1.391 1_655 S
C176 N175 1.388 . S
Co177 O179 2.143 . S
Co177 O185 2.074 . S
Co177 O188 2.093 . S
Co177 O201 2.097 . S
Co177 N218 2.151 . S
Co177 N226 2.214 . S
Co178 O179 2.160 . S
Co178 O184 2.058 . S
Co178 O194 2.057 . S
Co178 O209 2.037 . S
Co178 N213 2.145 . S
Co178 N234 2.257 . S
O179 Co177 2.143 . S
O179 Co178 2.160 . S
C180 O181 1.278 . S
C180 O188 1.224 . S
O181 C180 1.278 . S
C182 O183 1.245 . S
C182 O194 1.232 . S
O183 C182 1.245 . S
O184 Co178 2.058 . S
O184 C210 1.269 . S
O185 Co177 2.074 . S
O185 C210 1.257 . S
H186 C211 0.930 . S
H187 C217 0.930 . S
O188 Co177 2.093 . S
O188 C180 1.224 . S
H189 C221 0.929 . S
H190 C223 0.930 . S
H191 C224 0.930 . S
H192 C222 0.929 . S
H193 C225 0.928 . S
O194 Co178 2.057 . S
O194 C182 1.232 . S
H195 C214 0.929 . S
H196 C215 0.929 . S
H197 C227 0.931 . S
H198 C219 0.929 . S
H199 C228 0.930 . S
H200 C220 0.931 . S
O201 Co177 2.097 . S
O201 C229 1.214 1_545 S
H202 C230 0.928 1_545 S
H203 C231 0.929 . S
H204 C232 0.930 . S
H205 C233 0.929 . S
H206 C235 0.930 . S
H207 C212 0.930 . S
H208 C216 0.930 . S
O209 Co178 2.037 . S
O209 C229 1.234 1_545 S
C210 O184 1.269 . S
C210 O185 1.257 . S
C211 H186 0.930 . S
C211 C214 1.388 . S
C211 C216 1.418 . S
C212 H207 0.930 . S
C212 C215 1.404 . S
C212 C216 1.353 . S
N213 Co178 2.145 . S
N213 C214 1.397 . S
N213 C215 1.334 . S
C214 H195 0.929 . S
C214 C211 1.388 . S
C214 N213 1.397 . S
C215 H196 0.929 . S
C215 C212 1.404 . S
C215 N213 1.334 . S
C216 H208 0.930 . S
C216 C211 1.418 . S
C216 C212 1.353 . S
C217 H187 0.930 . S
C217 N218 1.330 . S
C217 C219 1.446 . S
N218 Co177 2.151 . S
N218 C217 1.330 . S
N218 C222 1.418 . S
C219 H198 0.929 . S
C219 C217 1.446 . S
C219 C220 1.332 . S
C220 H200 0.931 . S
C220 C219 1.332 . S
C220 C221 1.267 . S
C221 H189 0.929 . S
C221 C220 1.267 . S
C221 C222 1.251 . S
C222 H192 0.929 . S
C222 N218 1.418 . S
C222 C221 1.251 . S
C223 H190 0.930 . S
C223 C225 1.406 . S
C223 C228 1.261 . S
C224 H191 0.930 . S
C224 N226 1.325 . S
C224 C227 1.357 . S
C225 H193 0.928 . S
C225 C223 1.406 . S
C225 N226 1.261 . S
N226 Co177 2.214 . S
N226 C224 1.325 . S
N226 C225 1.261 . S
C227 H197 0.931 . S
C227 C224 1.357 . S
C227 C228 1.312 . S
C228 H199 0.930 . S
C228 C223 1.261 . S
C228 C227 1.312 . S
C229 O201 1.214 1_565 S
C229 O209 1.234 1_565 S
C230 H202 0.928 1_565 S
C230 C233 1.391 . S
C230 C235 1.391 1_565 S
C231 H203 0.929 . S
C231 C232 1.390 . S
C231 N234 1.391 1_565 S
C232 H204 0.930 . S
C232 C231 1.390 . S
C232 C233 1.392 . S
C233 H205 0.929 . S
C233 C230 1.391 . S
C233 C232 1.392 . S
N234 Co178 2.257 . S
N234 C231 1.391 1_545 S
N234 C235 1.388 . S
C235 H206 0.930 . S
C235 C230 1.391 1_545 S
C235 N234 1.388 . S
Co236 O238 2.143 . S
Co236 O244 2.074 . S
Co236 O247 2.093 . S
Co236 O260 2.097 . S
Co236 N277 2.151 . S
Co236 N285 2.214 1_556 S
Co237 O238 2.160 . S
Co237 O243 2.058 . S
Co237 O253 2.057 . S
Co237 O268 2.037 . S
Co237 N272 2.145 . S
Co237 N293 2.257 . S
O238 Co236 2.143 . S
O238 Co237 2.160 . S
C239 O240 1.278 . S
C239 O247 1.224 . S
O240 C239 1.278 . S
C241 O242 1.245 . S
C241 O253 1.232 . S
O242 C241 1.245 . S
O243 Co237 2.058 . S
O243 C269 1.269 . S
O244 Co236 2.074 . S
O244 C269 1.257 . S
H245 C270 0.930 . S
H246 C276 0.930 . S
O247 Co236 2.093 . S
O247 C239 1.224 . S
H248 C280 0.929 . S
H249 C282 0.930 . S
H250 C283 0.930 . S
H251 C281 0.929 . S
H252 C284 0.928 . S
O253 Co237 2.057 . S
O253 C241 1.232 . S
H254 C273 0.929 . S
H255 C274 0.929 . S
H256 C286 0.931 . S
H257 C278 0.929 . S
H258 C287 0.930 . S
H259 C279 0.931 . S
O260 Co236 2.097 . S
O260 C288 1.214 1_455 S
H261 C289 0.928 1_455 S
H262 C290 0.929 . S
H263 C291 0.930 . S
H264 C292 0.929 . S
H265 C294 0.930 . S
H266 C271 0.930 . S
H267 C275 0.930 . S
O268 Co237 2.037 . S
O268 C288 1.234 1_455 S
C269 O243 1.269 . S
C269 O244 1.257 . S
C270 H245 0.930 . S
C270 C273 1.388 . S
C270 C275 1.418 . S
C271 H266 0.930 . S
C271 C274 1.404 . S
C271 C275 1.353 . S
N272 Co237 2.145 . S
N272 C273 1.397 . S
N272 C274 1.334 . S
C273 H254 0.929 . S
C273 C270 1.388 . S
C273 N272 1.397 . S
C274 H255 0.929 . S
C274 C271 1.404 . S
C274 N272 1.334 . S
C275 H267 0.930 . S
C275 C270 1.418 . S
C275 C271 1.353 . S
C276 H246 0.930 . S
C276 N277 1.330 . S
C276 C278 1.446 . S
N277 Co236 2.151 . S
N277 C276 1.330 . S
N277 C281 1.418 1_556 S
C278 H257 0.929 . S
C278 C276 1.446 . S
C278 C279 1.332 1_556 S
C279 H259 0.931 . S
C279 C278 1.332 1_554 S
C279 C280 1.267 . S
C280 H248 0.929 . S
C280 C279 1.267 . S
C280 C281 1.251 . S
C281 H251 0.929 . S
C281 N277 1.418 1_554 S
C281 C280 1.251 . S
C282 H249 0.930 . S
C282 C284 1.406 . S
C282 C287 1.261 . S
C283 H250 0.930 . S
C283 N285 1.325 . S
C283 C286 1.357 . S
C284 H252 0.928 . S
C284 C282 1.406 . S
C284 N285 1.261 . S
N285 Co236 2.214 1_554 S
N285 C283 1.325 . S
N285 C284 1.261 . S
C286 H256 0.931 . S
C286 C283 1.357 . S
C286 C287 1.312 . S
C287 H258 0.930 . S
C287 C282 1.261 . S
C287 C286 1.312 . S
C288 O260 1.214 1_655 S
C288 O268 1.234 1_655 S
C289 H261 0.928 1_655 S
C289 C292 1.391 . S
C289 C294 1.391 1_655 S
C290 H262 0.929 . S
C290 C291 1.390 . S
C290 N293 1.391 1_655 S
C291 H263 0.930 . S
C291 C290 1.390 . S
C291 C292 1.392 . S
C292 H264 0.929 . S
C292 C289 1.391 . S
C292 C291 1.392 . S
N293 Co237 2.257 . S
N293 C290 1.391 1_455 S
N293 C294 1.388 . S
C294 H265 0.930 . S
C294 C289 1.391 1_455 S
C294 N293 1.388 . S
Co295 O297 2.143 . S
Co295 O303 2.074 . S
Co295 O306 2.093 . S
Co295 O319 2.097 . S
Co295 N336 2.151 . S
Co295 N344 2.214 1_554 S
Co296 O297 2.160 . S
Co296 O302 2.058 . S
Co296 O312 2.057 . S
Co296 O327 2.037 . S
Co296 N331 2.145 . S
Co296 N352 2.257 . S
O297 Co295 2.143 . S
O297 Co296 2.160 . S
C298 O299 1.278 . S
C298 O306 1.224 . S
O299 C298 1.278 . S
C300 O301 1.245 . S
C300 O312 1.232 . S
O301 C300 1.245 . S
O302 Co296 2.058 . S
O302 C328 1.269 . S
O303 Co295 2.074 . S
O303 C328 1.257 . S
H304 C329 0.930 . S
H305 C335 0.930 . S
O306 Co295 2.093 . S
O306 C298 1.224 . S
H307 C339 0.929 . S
H308 C341 0.930 . S
H309 C342 0.930 . S
H310 C340 0.929 . S
H311 C343 0.928 . S
O312 Co296 2.057 . S
O312 C300 1.232 . S
H313 C332 0.929 . S
H314 C333 0.929 . S
H315 C345 0.931 . S
H316 C337 0.929 . S
H317 C346 0.930 . S
H318 C338 0.931 . S
O319 Co295 2.097 . S
O319 C347 1.214 1_565 S
H320 C348 0.928 1_565 S
H321 C349 0.929 . S
H322 C350 0.930 . S
H323 C351 0.929 . S
H324 C353 0.930 . S
H325 C330 0.930 . S
H326 C334 0.930 . S
O327 Co296 2.037 . S
O327 C347 1.234 1_565 S
C328 O302 1.269 . S
C328 O303 1.257 . S
C329 H304 0.930 . S
C329 C332 1.388 . S
C329 C334 1.418 . S
C330 H325 0.930 . S
C330 C333 1.404 . S
C330 C334 1.353 . S
N331 Co296 2.145 . S
N331 C332 1.397 . S
N331 C333 1.334 . S
C332 H313 0.929 . S
C332 C329 1.388 . S
C332 N331 1.397 . S
C333 H314 0.929 . S
C333 C330 1.404 . S
C333 N331 1.334 . S
C334 H326 0.930 . S
C334 C329 1.418 . S
C334 C330 1.353 . S
C335 H305 0.930 . S
C335 N336 1.330 . S
C335 C337 1.446 . S
N336 Co295 2.151 . S
N336 C335 1.330 . S
N336 C340 1.418 1_554 S
C337 H316 0.929 . S
C337 C335 1.446 . S
C337 C338 1.332 1_554 S
C338 H318 0.931 . S
C338 C337 1.332 1_556 S
C338 C339 1.267 . S
C339 H307 0.929 . S
C339 C338 1.267 . S
C339 C340 1.251 . S
C340 H310 0.929 . S
C340 N336 1.418 1_556 S
C340 C339 1.251 . S
C341 H308 0.930 . S
C341 C343 1.406 . S
C341 C346 1.261 . S
C342 H309 0.930 . S
C342 N344 1.325 . S
C342 C345 1.357 . S
C343 H311 0.928 . S
C343 C341 1.406 . S
C343 N344 1.261 . S
N344 Co295 2.214 1_556 S
N344 C342 1.325 . S
N344 C343 1.261 . S
C345 H315 0.931 . S
C345 C342 1.357 . S
C345 C346 1.312 . S
C346 H317 0.930 . S
C346 C341 1.261 . S
C346 C345 1.312 . S
C347 O319 1.214 1_545 S
C347 O327 1.234 1_545 S
C348 H320 0.928 1_545 S
C348 C351 1.391 . S
C348 C353 1.391 1_545 S
C349 H321 0.929 . S
C349 C350 1.390 . S
C349 N352 1.391 1_545 S
C350 H322 0.930 . S
C350 C349 1.390 . S
C350 C351 1.392 . S
C351 H323 0.929 . S
C351 C348 1.391 . S
C351 C350 1.392 . S
N352 Co296 2.257 . S
N352 C349 1.391 1_565 S
N352 C353 1.388 . S
C353 H324 0.930 . S
C353 C348 1.391 1_565 S
C353 N352 1.388 . S
Co354 O356 2.143 . S
Co354 O362 2.074 . S
Co354 O365 2.093 . S
Co354 O378 2.097 . S
Co354 N395 2.151 . S
Co354 N403 2.214 1_556 S
Co355 O356 2.160 . S
Co355 O361 2.058 . S
Co355 O371 2.057 . S
Co355 O386 2.037 . S
Co355 N390 2.145 . S
Co355 N411 2.257 . S
O356 Co354 2.143 . S
O356 Co355 2.160 . S
C357 O358 1.278 . S
C357 O365 1.224 . S
O358 C357 1.278 . S
C359 O360 1.245 . S
C359 O371 1.232 . S
O360 C359 1.245 . S
O361 Co355 2.058 . S
O361 C387 1.269 . S
O362 Co354 2.074 . S
O362 C387 1.257 . S
H363 C388 0.930 . S
H364 C394 0.930 . S
O365 Co354 2.093 . S
O365 C357 1.224 . S
H366 C398 0.929 . S
H367 C400 0.930 . S
H368 C401 0.930 . S
H369 C399 0.929 . S
H370 C402 0.928 . S
O371 Co355 2.057 . S
O371 C359 1.232 . S
H372 C391 0.929 . S
H373 C392 0.929 . S
H374 C404 0.931 . S
H375 C396 0.929 . S
H376 C405 0.930 . S
H377 C397 0.931 . S
O378 Co354 2.097 . S
O378 C406 1.214 1_655 S
H379 C407 0.928 1_655 S
H380 C408 0.929 . S
H381 C409 0.930 . S
H382 C410 0.929 . S
H383 C412 0.930 . S
H384 C389 0.930 . S
H385 C393 0.930 . S
O386 Co355 2.037 . S
O386 C406 1.234 1_655 S
C387 O361 1.269 . S
C387 O362 1.257 . S
C388 H363 0.930 . S
C388 C391 1.388 . S
C388 C393 1.418 . S
C389 H384 0.930 . S
C389 C392 1.404 . S
C389 C393 1.353 . S
N390 Co355 2.145 . S
N390 C391 1.397 . S
N390 C392 1.334 . S
C391 H372 0.929 . S
C391 C388 1.388 . S
C391 N390 1.397 . S
C392 H373 0.929 . S
C392 C389 1.404 . S
C392 N390 1.334 . S
C393 H385 0.930 . S
C393 C388 1.418 . S
C393 C389 1.353 . S
C394 H364 0.930 . S
C394 N395 1.330 . S
C394 C396 1.446 . S
N395 Co354 2.151 . S
N395 C394 1.330 . S
N395 C399 1.418 1_556 S
C396 H375 0.929 . S
C396 C394 1.446 . S
C396 C397 1.332 1_556 S
C397 H377 0.931 . S
C397 C396 1.332 1_554 S
C397 C398 1.267 . S
C398 H366 0.929 . S
C398 C397 1.267 . S
C398 C399 1.251 . S
C399 H369 0.929 . S
C399 N395 1.418 1_554 S
C399 C398 1.251 . S
C400 H367 0.930 . S
C400 C402 1.406 . S
C400 C405 1.261 . S
C401 H368 0.930 . S
C401 N403 1.325 . S
C401 C404 1.357 . S
C402 H370 0.928 . S
C402 C400 1.406 . S
C402 N403 1.261 . S
N403 Co354 2.214 1_554 S
N403 C401 1.325 . S
N403 C402 1.261 . S
C404 H374 0.931 . S
C404 C401 1.357 . S
C404 C405 1.312 . S
C405 H376 0.930 . S
C405 C400 1.261 . S
C405 C404 1.312 . S
C406 O378 1.214 1_455 S
C406 O386 1.234 1_455 S
C407 H379 0.928 1_455 S
C407 C410 1.391 . S
C407 C412 1.391 1_455 S
C408 H380 0.929 . S
C408 C409 1.390 . S
C408 N411 1.391 1_455 S
C409 H381 0.930 . S
C409 C408 1.390 . S
C409 C410 1.392 . S
C410 H382 0.929 . S
C410 C407 1.391 . S
C410 C409 1.392 . S
N411 Co355 2.257 . S
N411 C408 1.391 1_655 S
N411 C412 1.388 . S
C412 H383 0.930 . S
C412 C407 1.391 1_655 S
C412 N411 1.388 . S
Co413 O415 2.143 . S
Co413 O421 2.074 . S
Co413 O424 2.093 . S
Co413 O437 2.097 . S
Co413 N454 2.151 . S
Co413 N462 2.214 1_554 S
Co414 O415 2.160 . S
Co414 O420 2.058 . S
Co414 O430 2.057 . S
Co414 O445 2.037 . S
Co414 N449 2.145 . S
Co414 N470 2.257 . S
O415 Co413 2.143 . S
O415 Co414 2.160 . S
C416 O417 1.278 . S
C416 O424 1.224 . S
O417 C416 1.278 . S
C418 O419 1.245 . S
C418 O430 1.232 . S
O419 C418 1.245 . S
O420 Co414 2.058 . S
O420 C446 1.269 . S
O421 Co413 2.074 . S
O421 C446 1.257 . S
H422 C447 0.930 . S
H423 C453 0.930 . S
O424 Co413 2.093 . S
O424 C416 1.224 . S
H425 C457 0.929 . S
H426 C459 0.930 . S
H427 C460 0.930 . S
H428 C458 0.929 . S
H429 C461 0.928 . S
O430 Co414 2.057 . S
O430 C418 1.232 . S
H431 C450 0.929 . S
H432 C451 0.929 . S
H433 C463 0.931 . S
H434 C455 0.929 . S
H435 C464 0.930 . S
H436 C456 0.931 . S
O437 Co413 2.097 . S
O437 C465 1.214 1_545 S
H438 C466 0.928 1_545 S
H439 C467 0.929 . S
H440 C468 0.930 . S
H441 C469 0.929 . S
H442 C471 0.930 . S
H443 C448 0.930 . S
H444 C452 0.930 . S
O445 Co414 2.037 . S
O445 C465 1.234 1_545 S
C446 O420 1.269 . S
C446 O421 1.257 . S
C447 H422 0.930 . S
C447 C450 1.388 . S
C447 C452 1.418 . S
C448 H443 0.930 . S
C448 C451 1.404 . S
C448 C452 1.353 . S
N449 Co414 2.145 . S
N449 C450 1.397 . S
N449 C451 1.334 . S
C450 H431 0.929 . S
C450 C447 1.388 . S
C450 N449 1.397 . S
C451 H432 0.929 . S
C451 C448 1.404 . S
C451 N449 1.334 . S
C452 H444 0.930 . S
C452 C447 1.418 . S
C452 C448 1.353 . S
C453 H423 0.930 . S
C453 N454 1.330 . S
C453 C455 1.446 . S
N454 Co413 2.151 . S
N454 C453 1.330 . S
N454 C458 1.418 1_554 S
C455 H434 0.929 . S
C455 C453 1.446 . S
C455 C456 1.332 1_554 S
C456 H436 0.931 . S
C456 C455 1.332 1_556 S
C456 C457 1.267 . S
C457 H425 0.929 . S
C457 C456 1.267 . S
C457 C458 1.251 . S
C458 H428 0.929 . S
C458 N454 1.418 1_556 S
C458 C457 1.251 . S
C459 H426 0.930 . S
C459 C461 1.406 . S
C459 C464 1.261 . S
C460 H427 0.930 . S
C460 N462 1.325 . S
C460 C463 1.357 . S
C461 H429 0.928 . S
C461 C459 1.406 . S
C461 N462 1.261 . S
N462 Co413 2.214 1_556 S
N462 C460 1.325 . S
N462 C461 1.261 . S
C463 H433 0.931 . S
C463 C460 1.357 . S
C463 C464 1.312 . S
C464 H435 0.930 . S
C464 C459 1.261 . S
C464 C463 1.312 . S
C465 O437 1.214 1_565 S
C465 O445 1.234 1_565 S
C466 H438 0.928 1_565 S
C466 C469 1.391 . S
C466 C471 1.391 1_565 S
C467 H439 0.929 . S
C467 C468 1.390 . S
C467 N470 1.391 1_565 S
C468 H440 0.930 . S
C468 C467 1.390 . S
C468 C469 1.392 . S
C469 H441 0.929 . S
C469 C466 1.391 . S
C469 C468 1.392 . S
N470 Co414 2.257 . S
N470 C467 1.391 1_545 S
N470 C471 1.388 . S
C471 H442 0.930 . S
C471 C466 1.391 1_545 S
C471 N470 1.388 . S
Co472 O474 2.143 . S
Co472 O480 2.074 . S
Co472 O483 2.093 . S
Co472 O496 2.097 . S
Co472 N513 2.151 . S
Co472 N521 2.214 . S
Co473 O474 2.160 . S
Co473 O479 2.058 . S
Co473 O489 2.057 . S
Co473 O504 2.037 . S
Co473 N508 2.145 . S
Co473 N529 2.257 . S
O474 Co472 2.143 . S
O474 Co473 2.160 . S
C475 O476 1.278 . S
C475 O483 1.224 . S
O476 C475 1.278 . S
C477 O478 1.245 . S
C477 O489 1.232 . S
O478 C477 1.245 . S
O479 Co473 2.058 . S
O479 C505 1.269 . S
O480 Co472 2.074 . S
O480 C505 1.257 . S
H481 C506 0.930 . S
H482 C512 0.930 . S
O483 Co472 2.093 . S
O483 C475 1.224 . S
H484 C516 0.929 . S
H485 C518 0.930 . S
H486 C519 0.930 . S
H487 C517 0.929 . S
H488 C520 0.928 . S
O489 Co473 2.057 . S
O489 C477 1.232 . S
H490 C509 0.929 . S
H491 C510 0.929 . S
H492 C522 0.931 . S
H493 C514 0.929 . S
H494 C523 0.930 . S
H495 C515 0.931 . S
O496 Co472 2.097 . S
O496 C524 1.214 . S
H497 C525 0.929 . S
H498 C526 0.929 . S
H499 C527 0.930 . S
H500 C528 0.929 . S
H501 C530 0.930 . S
H502 C507 0.930 . S
H503 C511 0.930 . S
O504 Co473 2.037 . S
O504 C524 1.234 . S
C505 O479 1.269 . S
C505 O480 1.257 . S
C506 H481 0.930 . S
C506 C509 1.388 . S
C506 C511 1.418 . S
C507 H502 0.930 . S
C507 C510 1.404 . S
C507 C511 1.353 . S
N508 Co473 2.145 . S
N508 C509 1.397 . S
N508 C510 1.334 . S
C509 H490 0.929 . S
C509 C506 1.388 . S
C509 N508 1.397 . S
C510 H491 0.929 . S
C510 C507 1.404 . S
C510 N508 1.334 . S
C511 H503 0.930 . S
C511 C506 1.418 . S
C511 C507 1.353 . S
C512 H482 0.930 . S
C512 N513 1.330 . S
C512 C514 1.446 . S
N513 Co472 2.151 . S
N513 C512 1.330 . S
N513 C517 1.418 . S
C514 H493 0.929 . S
C514 C512 1.446 . S
C514 C515 1.332 . S
C515 H495 0.931 . S
C515 C514 1.332 . S
C515 C516 1.267 . S
C516 H484 0.929 . S
C516 C515 1.267 . S
C516 C517 1.251 . S
C517 H487 0.929 . S
C517 N513 1.418 . S
C517 C516 1.251 . S
C518 H485 0.930 . S
C518 C520 1.406 . S
C518 C523 1.261 . S
C519 H486 0.930 . S
C519 N521 1.325 . S
C519 C522 1.357 . S
C520 H488 0.928 . S
C520 C518 1.406 . S
C520 N521 1.261 . S
N521 Co472 2.214 . S
N521 C519 1.325 . S
N521 C520 1.261 . S
C522 H492 0.931 . S
C522 C519 1.357 . S
C522 C523 1.312 . S
C523 H494 0.930 . S
C523 C518 1.261 . S
C523 C522 1.312 . S
C524 O496 1.214 . S
C524 O504 1.234 . S
C525 H497 0.929 . S
C525 C528 1.391 . S
C525 C530 1.391 . S
C526 H498 0.929 . S
C526 C527 1.390 . S
C526 N529 1.391 . S
C527 H499 0.930 . S
C527 C526 1.390 . S
C527 C528 1.392 . S
C528 H500 0.929 . S
C528 C525 1.391 . S
C528 C527 1.392 . S
N529 Co473 2.257 . S
N529 C526 1.391 . S
N529 C530 1.388 . S
C530 H501 0.930 . S
C530 C525 1.391 . S
C530 N529 1.388 . S
Co531 O533 2.143 . S
Co531 O539 2.074 . S
Co531 O542 2.093 . S
Co531 O555 2.097 . S
Co531 N572 2.151 . S
Co531 N580 2.214 . S
Co532 O533 2.160 . S
Co532 O538 2.058 . S
Co532 O548 2.057 . S
Co532 O563 2.037 . S
Co532 N567 2.145 . S
Co532 N588 2.257 . S
O533 Co531 2.143 . S
O533 Co532 2.160 . S
C534 O535 1.278 . S
C534 O542 1.224 . S
O535 C534 1.278 . S
C536 O537 1.245 . S
C536 O548 1.232 . S
O537 C536 1.245 . S
O538 Co532 2.058 . S
O538 C564 1.269 . S
O539 Co531 2.074 . S
O539 C564 1.257 . S
H540 C565 0.930 . S
H541 C571 0.930 . S
O542 Co531 2.093 . S
O542 C534 1.224 . S
H543 C575 0.929 . S
H544 C577 0.930 . S
H545 C578 0.930 . S
H546 C576 0.929 . S
H547 C579 0.928 . S
O548 Co532 2.057 . S
O548 C536 1.232 . S
H549 C568 0.929 . S
H550 C569 0.929 . S
H551 C581 0.931 . S
H552 C573 0.929 . S
H553 C582 0.930 . S
H554 C574 0.931 . S
O555 Co531 2.097 . S
O555 C583 1.214 . S
H556 C584 0.929 . S
H557 C585 0.929 . S
H558 C586 0.930 . S
H559 C587 0.929 . S
H560 C589 0.930 . S
H561 C566 0.930 . S
H562 C570 0.930 . S
O563 Co532 2.037 . S
O563 C583 1.234 . S
C564 O538 1.269 . S
C564 O539 1.257 . S
C565 H540 0.930 . S
C565 C568 1.388 . S
C565 C570 1.418 . S
C566 H561 0.930 . S
C566 C569 1.404 . S
C566 C570 1.353 . S
N567 Co532 2.145 . S
N567 C568 1.397 . S
N567 C569 1.334 . S
C568 H549 0.929 . S
C568 C565 1.388 . S
C568 N567 1.397 . S
C569 H550 0.929 . S
C569 C566 1.404 . S
C569 N567 1.334 . S
C570 H562 0.930 . S
C570 C565 1.418 . S
C570 C566 1.353 . S
C571 H541 0.930 . S
C571 N572 1.330 . S
C571 C573 1.446 . S
N572 Co531 2.151 . S
N572 C571 1.330 . S
N572 C576 1.418 . S
C573 H552 0.929 . S
C573 C571 1.446 . S
C573 C574 1.332 . S
C574 H554 0.931 . S
C574 C573 1.332 . S
C574 C575 1.267 . S
C575 H543 0.929 . S
C575 C574 1.267 . S
C575 C576 1.251 . S
C576 H546 0.929 . S
C576 N572 1.418 . S
C576 C575 1.251 . S
C577 H544 0.930 . S
C577 C579 1.406 . S
C577 C582 1.261 . S
C578 H545 0.930 . S
C578 N580 1.325 . S
C578 C581 1.357 . S
C579 H547 0.928 . S
C579 C577 1.406 . S
C579 N580 1.261 . S
N580 Co531 2.214 . S
N580 C578 1.325 . S
N580 C579 1.261 . S
C581 H551 0.931 . S
C581 C578 1.357 . S
C581 C582 1.312 . S
C582 H553 0.930 . S
C582 C577 1.261 . S
C582 C581 1.312 . S
C583 O555 1.214 . S
C583 O563 1.234 . S
C584 H556 0.929 . S
C584 C587 1.391 . S
C584 C589 1.391 . S
C585 H557 0.929 . S
C585 C586 1.390 . S
C585 N588 1.391 . S
C586 H558 0.930 . S
C586 C585 1.390 . S
C586 C587 1.392 . S
C587 H559 0.929 . S
C587 C584 1.391 . S
C587 C586 1.392 . S
N588 Co532 2.257 . S
N588 C585 1.391 . S
N588 C589 1.388 . S
C589 H560 0.930 . S
C589 C584 1.391 . S
C589 N588 1.388 . S
Co590 O592 2.143 . S
Co590 O598 2.074 . S
Co590 O601 2.093 . S
Co590 O614 2.097 . S
Co590 N631 2.151 . S
Co590 N639 2.214 . S
Co591 O592 2.160 . S
Co591 O597 2.058 . S
Co591 O607 2.057 . S
Co591 O622 2.037 . S
Co591 N626 2.145 . S
Co591 N647 2.257 . S
O592 Co590 2.143 . S
O592 Co591 2.160 . S
C593 O594 1.278 . S
C593 O601 1.224 . S
O594 C593 1.278 . S
C595 O596 1.245 . S
C595 O607 1.232 . S
O596 C595 1.245 . S
O597 Co591 2.058 . S
O597 C623 1.269 . S
O598 Co590 2.074 . S
O598 C623 1.257 . S
H599 C624 0.930 . S
H600 C630 0.930 . S
O601 Co590 2.093 . S
O601 C593 1.224 . S
H602 C634 0.929 . S
H603 C636 0.930 . S
H604 C637 0.930 . S
H605 C635 0.929 . S
H606 C638 0.928 . S
O607 Co591 2.057 . S
O607 C595 1.232 . S
H608 C627 0.929 . S
H609 C628 0.929 . S
H610 C640 0.931 . S
H611 C632 0.929 . S
H612 C641 0.930 . S
H613 C633 0.931 . S
O614 Co590 2.097 . S
O614 C642 1.214 . S
H615 C643 0.929 . S
H616 C644 0.929 . S
H617 C645 0.930 . S
H618 C646 0.929 . S
H619 C648 0.930 . S
H620 C625 0.930 . S
H621 C629 0.930 . S
O622 Co591 2.037 . S
O622 C642 1.234 . S
C623 O597 1.269 . S
C623 O598 1.257 . S
C624 H599 0.930 . S
C624 C627 1.388 . S
C624 C629 1.418 . S
C625 H620 0.930 . S
C625 C628 1.404 . S
C625 C629 1.353 . S
N626 Co591 2.145 . S
N626 C627 1.397 . S
N626 C628 1.334 . S
C627 H608 0.929 . S
C627 C624 1.388 . S
C627 N626 1.397 . S
C628 H609 0.929 . S
C628 C625 1.404 . S
C628 N626 1.334 . S
C629 H621 0.930 . S
C629 C624 1.418 . S
C629 C625 1.353 . S
C630 H600 0.930 . S
C630 N631 1.330 . S
C630 C632 1.446 . S
N631 Co590 2.151 . S
N631 C630 1.330 . S
N631 C635 1.418 . S
C632 H611 0.929 . S
C632 C630 1.446 . S
C632 C633 1.332 . S
C633 H613 0.931 . S
C633 C632 1.332 . S
C633 C634 1.267 . S
C634 H602 0.929 . S
C634 C633 1.267 . S
C634 C635 1.251 . S
C635 H605 0.929 . S
C635 N631 1.418 . S
C635 C634 1.251 . S
C636 H603 0.930 . S
C636 C638 1.406 . S
C636 C641 1.261 . S
C637 H604 0.930 . S
C637 N639 1.325 . S
C637 C640 1.357 . S
C638 H606 0.928 . S
C638 C636 1.406 . S
C638 N639 1.261 . S
N639 Co590 2.214 . S
N639 C637 1.325 . S
N639 C638 1.261 . S
C640 H610 0.931 . S
C640 C637 1.357 . S
C640 C641 1.312 . S
C641 H612 0.930 . S
C641 C636 1.261 . S
C641 C640 1.312 . S
C642 O614 1.214 . S
C642 O622 1.234 . S
C643 H615 0.929 . S
C643 C646 1.391 . S
C643 C648 1.391 . S
C644 H616 0.929 . S
C644 C645 1.390 . S
C644 N647 1.391 . S
C645 H617 0.930 . S
C645 C644 1.390 . S
C645 C646 1.392 . S
C646 H618 0.929 . S
C646 C643 1.391 . S
C646 C645 1.392 . S
N647 Co591 2.257 . S
N647 C644 1.391 . S
N647 C648 1.388 . S
C648 H619 0.930 . S
C648 C643 1.391 . S
C648 N647 1.388 . S
Co649 O651 2.143 . S
Co649 O657 2.074 . S
Co649 O660 2.093 . S
Co649 O673 2.097 . S
Co649 N690 2.151 . S
Co649 N698 2.214 . S
Co650 O651 2.160 . S
Co650 O656 2.058 . S
Co650 O666 2.057 . S
Co650 O681 2.037 . S
Co650 N685 2.145 . S
Co650 N706 2.257 . S
O651 Co649 2.143 . S
O651 Co650 2.160 . S
C652 O653 1.278 . S
C652 O660 1.224 . S
O653 C652 1.278 . S
C654 O655 1.245 . S
C654 O666 1.232 . S
O655 C654 1.245 . S
O656 Co650 2.058 . S
O656 C682 1.269 . S
O657 Co649 2.074 . S
O657 C682 1.257 . S
H658 C683 0.930 . S
H659 C689 0.930 . S
O660 Co649 2.093 . S
O660 C652 1.224 . S
H661 C693 0.929 . S
H662 C695 0.930 . S
H663 C696 0.930 . S
H664 C694 0.929 . S
H665 C697 0.928 . S
O666 Co650 2.057 . S
O666 C654 1.232 . S
H667 C686 0.929 . S
H668 C687 0.929 . S
H669 C699 0.931 . S
H670 C691 0.929 . S
H671 C700 0.930 . S
H672 C692 0.931 . S
O673 Co649 2.097 . S
O673 C701 1.214 . S
H674 C702 0.929 . S
H675 C703 0.929 . S
H676 C704 0.930 . S
H677 C705 0.929 . S
H678 C707 0.930 . S
H679 C684 0.930 . S
H680 C688 0.930 . S
O681 Co650 2.037 . S
O681 C701 1.234 . S
C682 O656 1.269 . S
C682 O657 1.257 . S
C683 H658 0.930 . S
C683 C686 1.388 . S
C683 C688 1.418 . S
C684 H679 0.930 . S
C684 C687 1.404 . S
C684 C688 1.353 . S
N685 Co650 2.145 . S
N685 C686 1.397 . S
N685 C687 1.334 . S
C686 H667 0.929 . S
C686 C683 1.388 . S
C686 N685 1.397 . S
C687 H668 0.929 . S
C687 C684 1.404 . S
C687 N685 1.334 . S
C688 H680 0.930 . S
C688 C683 1.418 . S
C688 C684 1.353 . S
C689 H659 0.930 . S
C689 N690 1.330 . S
C689 C691 1.446 . S
N690 Co649 2.151 . S
N690 C689 1.330 . S
N690 C694 1.418 . S
C691 H670 0.929 . S
C691 C689 1.446 . S
C691 C692 1.332 . S
C692 H672 0.931 . S
C692 C691 1.332 . S
C692 C693 1.267 . S
C693 H661 0.929 . S
C693 C692 1.267 . S
C693 C694 1.251 . S
C694 H664 0.929 . S
C694 N690 1.418 . S
C694 C693 1.251 . S
C695 H662 0.930 . S
C695 C697 1.406 . S
C695 C700 1.261 . S
C696 H663 0.930 . S
C696 N698 1.325 . S
C696 C699 1.357 . S
C697 H665 0.928 . S
C697 C695 1.406 . S
C697 N698 1.261 . S
N698 Co649 2.214 . S
N698 C696 1.325 . S
N698 C697 1.261 . S
C699 H669 0.931 . S
C699 C696 1.357 . S
C699 C700 1.312 . S
C700 H671 0.930 . S
C700 C695 1.261 . S
C700 C699 1.312 . S
C701 O673 1.214 . S
C701 O681 1.234 . S
C702 H674 0.929 . S
C702 C705 1.391 . S
C702 C707 1.391 . S
C703 H675 0.929 . S
C703 C704 1.390 . S
C703 N706 1.391 . S
C704 H676 0.930 . S
C704 C703 1.390 . S
C704 C705 1.392 . S
C705 H677 0.929 . S
C705 C702 1.391 . S
C705 C704 1.392 . S
N706 Co650 2.257 . S
N706 C703 1.391 . S
N706 C707 1.388 . S
C707 H678 0.930 . S
C707 C702 1.391 . S
C707 N706 1.388 . S
Co708 O710 2.143 . S
Co708 O716 2.074 . S
Co708 O719 2.093 . S
Co708 O732 2.097 . S
Co708 N749 2.151 . S
Co708 N757 2.214 . S
Co709 O710 2.160 . S
Co709 O715 2.058 . S
Co709 O725 2.057 . S
Co709 O740 2.037 . S
Co709 N744 2.145 . S
Co709 N765 2.257 . S
O710 Co708 2.143 . S
O710 Co709 2.160 . S
C711 O712 1.278 . S
C711 O719 1.224 . S
O712 C711 1.278 . S
C713 O714 1.245 . S
C713 O725 1.232 . S
O714 C713 1.245 . S
O715 Co709 2.058 . S
O715 C741 1.269 . S
O716 Co708 2.074 . S
O716 C741 1.257 . S
H717 C742 0.930 . S
H718 C748 0.930 . S
O719 Co708 2.093 . S
O719 C711 1.224 . S
H720 C752 0.929 . S
H721 C754 0.930 . S
H722 C755 0.930 . S
H723 C753 0.929 . S
H724 C756 0.928 . S
O725 Co709 2.057 . S
O725 C713 1.232 . S
H726 C745 0.929 . S
H727 C746 0.929 . S
H728 C758 0.931 . S
H729 C750 0.929 . S
H730 C759 0.930 . S
H731 C751 0.931 . S
O732 Co708 2.097 . S
O732 C760 1.214 . S
H733 C761 0.929 . S
H734 C762 0.929 . S
H735 C763 0.930 . S
H736 C764 0.929 . S
H737 C766 0.930 . S
H738 C743 0.930 . S
H739 C747 0.930 . S
O740 Co709 2.037 . S
O740 C760 1.234 . S
C741 O715 1.269 . S
C741 O716 1.257 . S
C742 H717 0.930 . S
C742 C745 1.388 . S
C742 C747 1.418 . S
C743 H738 0.930 . S
C743 C746 1.404 . S
C743 C747 1.353 . S
N744 Co709 2.145 . S
N744 C745 1.397 . S
N744 C746 1.334 . S
C745 H726 0.929 . S
C745 C742 1.388 . S
C745 N744 1.397 . S
C746 H727 0.929 . S
C746 C743 1.404 . S
C746 N744 1.334 . S
C747 H739 0.930 . S
C747 C742 1.418 . S
C747 C743 1.353 . S
C748 H718 0.930 . S
C748 N749 1.330 . S
C748 C750 1.446 . S
N749 Co708 2.151 . S
N749 C748 1.330 . S
N749 C753 1.418 . S
C750 H729 0.929 . S
C750 C748 1.446 . S
C750 C751 1.332 . S
C751 H731 0.931 . S
C751 C750 1.332 . S
C751 C752 1.267 . S
C752 H720 0.929 . S
C752 C751 1.267 . S
C752 C753 1.251 . S
C753 H723 0.929 . S
C753 N749 1.418 . S
C753 C752 1.251 . S
C754 H721 0.930 . S
C754 C756 1.406 . S
C754 C759 1.261 . S
C755 H722 0.930 . S
C755 N757 1.325 . S
C755 C758 1.357 . S
C756 H724 0.928 . S
C756 C754 1.406 . S
C756 N757 1.261 . S
N757 Co708 2.214 . S
N757 C755 1.325 . S
N757 C756 1.261 . S
C758 H728 0.931 . S
C758 C755 1.357 . S
C758 C759 1.312 . S
C759 H730 0.930 . S
C759 C754 1.261 . S
C759 C758 1.312 . S
C760 O732 1.214 . S
C760 O740 1.234 . S
C761 H733 0.929 . S
C761 C764 1.391 . S
C761 C766 1.391 . S
C762 H734 0.929 . S
C762 C763 1.390 . S
C762 N765 1.391 . S
C763 H735 0.930 . S
C763 C762 1.390 . S
C763 C764 1.392 . S
C764 H736 0.929 . S
C764 C761 1.391 . S
C764 C763 1.392 . S
N765 Co709 2.257 . S
N765 C762 1.391 . S
N765 C766 1.388 . S
C766 H737 0.930 . S
C766 C761 1.391 . S
C766 N765 1.388 . S
Co767 O769 2.143 . S
Co767 O775 2.074 . S
Co767 O778 2.093 . S
Co767 O791 2.097 . S
Co767 N808 2.151 . S
Co767 N816 2.214 . S
Co768 O769 2.160 . S
Co768 O774 2.058 . S
Co768 O784 2.057 . S
Co768 O799 2.037 . S
Co768 N803 2.145 . S
Co768 N824 2.257 . S
O769 Co767 2.143 . S
O769 Co768 2.160 . S
C770 O771 1.278 . S
C770 O778 1.224 . S
O771 C770 1.278 . S
C772 O773 1.245 . S
C772 O784 1.232 . S
O773 C772 1.245 . S
O774 Co768 2.058 . S
O774 C800 1.269 . S
O775 Co767 2.074 . S
O775 C800 1.257 . S
H776 C801 0.930 . S
H777 C807 0.930 . S
O778 Co767 2.093 . S
O778 C770 1.224 . S
H779 C811 0.929 . S
H780 C813 0.930 . S
H781 C814 0.930 . S
H782 C812 0.929 . S
H783 C815 0.928 . S
O784 Co768 2.057 . S
O784 C772 1.232 . S
H785 C804 0.929 . S
H786 C805 0.929 . S
H787 C817 0.931 . S
H788 C809 0.929 . S
H789 C818 0.930 . S
H790 C810 0.931 . S
O791 Co767 2.097 . S
O791 C819 1.214 . S
H792 C820 0.929 . S
H793 C821 0.929 . S
H794 C822 0.930 . S
H795 C823 0.929 . S
H796 C825 0.930 . S
H797 C802 0.930 . S
H798 C806 0.930 . S
O799 Co768 2.037 . S
O799 C819 1.234 . S
C800 O774 1.269 . S
C800 O775 1.257 . S
C801 H776 0.930 . S
C801 C804 1.388 . S
C801 C806 1.418 . S
C802 H797 0.930 . S
C802 C805 1.404 . S
C802 C806 1.353 . S
N803 Co768 2.145 . S
N803 C804 1.397 . S
N803 C805 1.334 . S
C804 H785 0.929 . S
C804 C801 1.388 . S
C804 N803 1.397 . S
C805 H786 0.929 . S
C805 C802 1.404 . S
C805 N803 1.334 . S
C806 H798 0.930 . S
C806 C801 1.418 . S
C806 C802 1.353 . S
C807 H777 0.930 . S
C807 N808 1.330 . S
C807 C809 1.446 . S
N808 Co767 2.151 . S
N808 C807 1.330 . S
N808 C812 1.418 . S
C809 H788 0.929 . S
C809 C807 1.446 . S
C809 C810 1.332 . S
C810 H790 0.931 . S
C810 C809 1.332 . S
C810 C811 1.267 . S
C811 H779 0.929 . S
C811 C810 1.267 . S
C811 C812 1.251 . S
C812 H782 0.929 . S
C812 N808 1.418 . S
C812 C811 1.251 . S
C813 H780 0.930 . S
C813 C815 1.406 . S
C813 C818 1.261 . S
C814 H781 0.930 . S
C814 N816 1.325 . S
C814 C817 1.357 . S
C815 H783 0.928 . S
C815 C813 1.406 . S
C815 N816 1.261 . S
N816 Co767 2.214 . S
N816 C814 1.325 . S
N816 C815 1.261 . S
C817 H787 0.931 . S
C817 C814 1.357 . S
C817 C818 1.312 . S
C818 H789 0.930 . S
C818 C813 1.261 . S
C818 C817 1.312 . S
C819 O791 1.214 . S
C819 O799 1.234 . S
C820 H792 0.929 . S
C820 C823 1.391 . S
C820 C825 1.391 . S
C821 H793 0.929 . S
C821 C822 1.390 . S
C821 N824 1.391 . S
C822 H794 0.930 . S
C822 C821 1.390 . S
C822 C823 1.392 . S
C823 H795 0.929 . S
C823 C820 1.391 . S
C823 C822 1.392 . S
N824 Co768 2.257 . S
N824 C821 1.391 . S
N824 C825 1.388 . S
C825 H796 0.930 . S
C825 C820 1.391 . S
C825 N824 1.388 . S
Co826 O828 2.143 . S
Co826 O834 2.074 . S
Co826 O837 2.093 . S
Co826 O850 2.097 . S
Co826 N867 2.151 . S
Co826 N875 2.214 . S
Co827 O828 2.160 . S
Co827 O833 2.058 . S
Co827 O843 2.057 . S
Co827 O858 2.037 . S
Co827 N862 2.145 . S
Co827 N883 2.257 . S
O828 Co826 2.143 . S
O828 Co827 2.160 . S
C829 O830 1.278 . S
C829 O837 1.224 . S
O830 C829 1.278 . S
C831 O832 1.245 . S
C831 O843 1.232 . S
O832 C831 1.245 . S
O833 Co827 2.058 . S
O833 C859 1.269 . S
O834 Co826 2.074 . S
O834 C859 1.257 . S
H835 C860 0.930 . S
H836 C866 0.930 . S
O837 Co826 2.093 . S
O837 C829 1.224 . S
H838 C870 0.929 . S
H839 C872 0.930 . S
H840 C873 0.930 . S
H841 C871 0.929 . S
H842 C874 0.928 . S
O843 Co827 2.057 . S
O843 C831 1.232 . S
H844 C863 0.929 . S
H845 C864 0.929 . S
H846 C876 0.931 . S
H847 C868 0.929 . S
H848 C877 0.930 . S
H849 C869 0.931 . S
O850 Co826 2.097 . S
O850 C878 1.214 . S
H851 C879 0.929 . S
H852 C880 0.929 . S
H853 C881 0.930 . S
H854 C882 0.929 . S
H855 C884 0.930 . S
H856 C861 0.930 . S
H857 C865 0.930 . S
O858 Co827 2.037 . S
O858 C878 1.234 . S
C859 O833 1.269 . S
C859 O834 1.257 . S
C860 H835 0.930 . S
C860 C863 1.388 . S
C860 C865 1.418 . S
C861 H856 0.930 . S
C861 C864 1.404 . S
C861 C865 1.353 . S
N862 Co827 2.145 . S
N862 C863 1.397 . S
N862 C864 1.334 . S
C863 H844 0.929 . S
C863 C860 1.388 . S
C863 N862 1.397 . S
C864 H845 0.929 . S
C864 C861 1.404 . S
C864 N862 1.334 . S
C865 H857 0.930 . S
C865 C860 1.418 . S
C865 C861 1.353 . S
C866 H836 0.930 . S
C866 N867 1.330 . S
C866 C868 1.446 . S
N867 Co826 2.151 . S
N867 C866 1.330 . S
N867 C871 1.418 . S
C868 H847 0.929 . S
C868 C866 1.446 . S
C868 C869 1.332 . S
C869 H849 0.931 . S
C869 C868 1.332 . S
C869 C870 1.267 . S
C870 H838 0.929 . S
C870 C869 1.267 . S
C870 C871 1.251 . S
C871 H841 0.929 . S
C871 N867 1.418 . S
C871 C870 1.251 . S
C872 H839 0.930 . S
C872 C874 1.406 . S
C872 C877 1.261 . S
C873 H840 0.930 . S
C873 N875 1.325 . S
C873 C876 1.357 . S
C874 H842 0.928 . S
C874 C872 1.406 . S
C874 N875 1.261 . S
N875 Co826 2.214 . S
N875 C873 1.325 . S
N875 C874 1.261 . S
C876 H846 0.931 . S
C876 C873 1.357 . S
C876 C877 1.312 . S
C877 H848 0.930 . S
C877 C872 1.261 . S
C877 C876 1.312 . S
C878 O850 1.214 . S
C878 O858 1.234 . S
C879 H851 0.929 . S
C879 C882 1.391 . S
C879 C884 1.391 . S
C880 H852 0.929 . S
C880 C881 1.390 . S
C880 N883 1.391 . S
C881 H853 0.930 . S
C881 C880 1.390 . S
C881 C882 1.392 . S
C882 H854 0.929 . S
C882 C879 1.391 . S
C882 C881 1.392 . S
N883 Co827 2.257 . S
N883 C880 1.391 . S
N883 C884 1.388 . S
C884 H855 0.930 . S
C884 C879 1.391 . S
C884 N883 1.388 . S
Co885 O887 2.143 . S
Co885 O893 2.074 . S
Co885 O896 2.093 . S
Co885 O909 2.097 . S
Co885 N926 2.151 . S
Co885 N934 2.214 . S
Co886 O887 2.160 . S
Co886 O892 2.058 . S
Co886 O902 2.057 . S
Co886 O917 2.037 . S
Co886 N921 2.145 . S
Co886 N942 2.257 . S
O887 Co885 2.143 . S
O887 Co886 2.160 . S
C888 O889 1.278 . S
C888 O896 1.224 . S
O889 C888 1.278 . S
C890 O891 1.245 . S
C890 O902 1.232 . S
O891 C890 1.245 . S
O892 Co886 2.058 . S
O892 C918 1.269 . S
O893 Co885 2.074 . S
O893 C918 1.257 . S
H894 C919 0.930 . S
H895 C925 0.930 . S
O896 Co885 2.093 . S
O896 C888 1.224 . S
H897 C929 0.929 . S
H898 C931 0.930 . S
H899 C932 0.930 . S
H900 C930 0.929 . S
H901 C933 0.928 . S
O902 Co886 2.057 . S
O902 C890 1.232 . S
H903 C922 0.929 . S
H904 C923 0.929 . S
H905 C935 0.931 . S
H906 C927 0.929 . S
H907 C936 0.930 . S
H908 C928 0.931 . S
O909 Co885 2.097 . S
O909 C937 1.214 . S
H910 C938 0.929 . S
H911 C939 0.929 . S
H912 C940 0.930 . S
H913 C941 0.929 . S
H914 C943 0.930 . S
H915 C920 0.930 . S
H916 C924 0.930 . S
O917 Co886 2.037 . S
O917 C937 1.234 . S
C918 O892 1.269 . S
C918 O893 1.257 . S
C919 H894 0.930 . S
C919 C922 1.388 . S
C919 C924 1.418 . S
C920 H915 0.930 . S
C920 C923 1.404 . S
C920 C924 1.353 . S
N921 Co886 2.145 . S
N921 C922 1.397 . S
N921 C923 1.334 . S
C922 H903 0.929 . S
C922 C919 1.388 . S
C922 N921 1.397 . S
C923 H904 0.929 . S
C923 C920 1.404 . S
C923 N921 1.334 . S
C924 H916 0.930 . S
C924 C919 1.418 . S
C924 C920 1.353 . S
C925 H895 0.930 . S
C925 N926 1.330 . S
C925 C927 1.446 . S
N926 Co885 2.151 . S
N926 C925 1.330 . S
N926 C930 1.418 . S
C927 H906 0.929 . S
C927 C925 1.446 . S
C927 C928 1.332 . S
C928 H908 0.931 . S
C928 C927 1.332 . S
C928 C929 1.267 . S
C929 H897 0.929 . S
C929 C928 1.267 . S
C929 C930 1.251 . S
C930 H900 0.929 . S
C930 N926 1.418 . S
C930 C929 1.251 . S
C931 H898 0.930 . S
C931 C933 1.406 . S
C931 C936 1.261 . S
C932 H899 0.930 . S
C932 N934 1.325 . S
C932 C935 1.357 . S
C933 H901 0.928 . S
C933 C931 1.406 . S
C933 N934 1.261 . S
N934 Co885 2.214 . S
N934 C932 1.325 . S
N934 C933 1.261 . S
C935 H905 0.931 . S
C935 C932 1.357 . S
C935 C936 1.312 . S
C936 H907 0.930 . S
C936 C931 1.261 . S
C936 C935 1.312 . S
C937 O909 1.214 . S
C937 O917 1.234 . S
C938 H910 0.929 . S
C938 C941 1.391 . S
C938 C943 1.391 . S
C939 H911 0.929 . S
C939 C940 1.390 . S
C939 N942 1.391 . S
C940 H912 0.930 . S
C940 C939 1.390 . S
C940 C941 1.392 . S
C941 H913 0.929 . S
C941 C938 1.391 . S
C941 C940 1.392 . S
N942 Co886 2.257 . S
N942 C939 1.391 . S
N942 C943 1.388 . S
C943 H914 0.930 . S
C943 C938 1.391 . S
C943 N942 1.388 . S
C944 C945 1.369 . S
C944 C946 1.419 . S
C944 H948 0.930 . S
C945 C944 1.369 . S
C945 C954 1.429 . S
C946 C944 1.419 . S
C946 C947 1.363 . S
C946 H949 0.929 . S
C947 C946 1.363 . S
C947 C953 1.428 . S
H948 C944 0.930 . S
H949 C946 0.929 . S
S950 N951 1.613 . S
S950 N952 1.610 . S
N951 S950 1.613 . S
N951 C954 1.350 . S
N952 S950 1.610 . S
N952 C953 1.351 . S
C953 C947 1.428 . S
C953 N952 1.351 . S
C953 C954 1.434 . S
C954 C945 1.429 . S
C954 N951 1.350 . S
C954 C953 1.434 . S
C955 C956 1.369 . S
C955 C957 1.419 . S
C955 H959 0.930 . S
C956 C955 1.369 . S
C956 C965 1.429 . S
C957 C955 1.419 . S
C957 C958 1.363 . S
C957 H960 0.929 . S
C958 C957 1.363 . S
C958 C964 1.428 . S
H959 C955 0.930 . S
H960 C957 0.929 . S
S961 N962 1.613 . S
S961 N963 1.610 . S
N962 S961 1.613 . S
N962 C965 1.350 . S
N963 S961 1.610 . S
N963 C964 1.351 . S
C964 C958 1.428 . S
C964 N963 1.351 . S
C964 C965 1.434 . S
C965 C956 1.429 . S
C965 N962 1.350 . S
C965 C964 1.434 . S
C966 C967 1.369 . S
C966 C968 1.419 . S
C966 H970 0.930 . S
C967 C966 1.369 . S
C967 C976 1.429 . S
C968 C966 1.419 . S
C968 C969 1.363 . S
C968 H971 0.929 . S
C969 C968 1.363 . S
C969 C975 1.428 . S
H970 C966 0.930 . S
H971 C968 0.929 . S
S972 N973 1.613 . S
S972 N974 1.610 . S
N973 S972 1.613 . S
N973 C976 1.350 . S
N974 S972 1.610 . S
N974 C975 1.351 . S
C975 C969 1.428 . S
C975 N974 1.351 . S
C975 C976 1.434 . S
C976 C967 1.429 . S
C976 N973 1.350 . S
C976 C975 1.434 . S
C977 C978 1.369 . S
C977 C979 1.419 . S
C977 H981 0.930 . S
C978 C977 1.369 . S
C978 C987 1.429 . S
C979 C977 1.419 . S
C979 C980 1.363 . S
C979 H982 0.929 . S
C980 C979 1.363 . S
C980 C986 1.428 . S
H981 C977 0.930 . S
H982 C979 0.929 . S
S983 N984 1.613 . S
S983 N985 1.610 . S
N984 S983 1.613 . S
N984 C987 1.350 . S
N985 S983 1.610 . S
N985 C986 1.351 . S
C986 C980 1.428 . S
C986 N985 1.351 . S
C986 C987 1.434 . S
C987 C978 1.429 . S
C987 N984 1.350 . S
C987 C986 1.434 . S
C988 C989 1.369 . S
C988 C990 1.419 1_554 S
C988 H992 0.930 . S
C989 C988 1.369 . S
C989 C998 1.429 . S
C990 C988 1.419 1_556 S
C990 C991 1.363 . S
C990 H993 0.929 . S
C991 C990 1.363 . S
C991 C997 1.428 1_556 S
H992 C988 0.930 . S
H993 C990 0.929 . S
S994 N995 1.613 . S
S994 N996 1.610 . S
N995 S994 1.613 . S
N995 C998 1.350 . S
N996 S994 1.610 . S
N996 C997 1.351 . S
C997 C991 1.428 1_554 S
C997 N996 1.351 . S
C997 C998 1.434 . S
C998 C989 1.429 . S
C998 N995 1.350 . S
C998 C997 1.434 . S
C999 C1000 1.369 1_556 S
C999 C1001 1.419 . S
C999 H1003 0.930 . S
C1000 C999 1.369 1_554 S
C1000 C1009 1.429 . S
C1001 C999 1.419 . S
C1001 C1002 1.363 . S
C1001 H1004 0.929 . S
C1002 C1001 1.363 . S
C1002 C1008 1.428 1_556 S
H1003 C999 0.930 . S
H1004 C1001 0.929 . S
S1005 N1006 1.613 . S
S1005 N1007 1.610 . S
N1006 S1005 1.613 . S
N1006 C1009 1.350 . S
N1007 S1005 1.610 . S
N1007 C1008 1.351 . S
C1008 C1002 1.428 1_554 S
C1008 N1007 1.351 . S
C1008 C1009 1.434 . S
C1009 C1000 1.429 . S
C1009 N1006 1.350 . S
C1009 C1008 1.434 . S
C1010 C1011 1.369 . S
C1010 C1012 1.419 . S
C1010 H1014 0.930 . S
C1011 C1010 1.369 . S
C1011 C1020 1.429 1_556 S
C1012 C1010 1.419 . S
C1012 C1013 1.363 1_556 S
C1012 H1015 0.929 . S
C1013 C1012 1.363 1_554 S
C1013 C1019 1.428 . S
H1014 C1010 0.930 . S
H1015 C1012 0.929 . S
S1016 N1017 1.613 . S
S1016 N1018 1.610 . S
N1017 S1016 1.613 . S
N1017 C1020 1.350 . S
N1018 S1016 1.610 . S
N1018 C1019 1.351 . S
C1019 C1013 1.428 . S
C1019 N1018 1.351 . S
C1019 C1020 1.434 . S
C1020 C1011 1.429 1_554 S
C1020 N1017 1.350 . S
C1020 C1019 1.434 . S
C1021 C1022 1.369 1_556 S
C1021 C1023 1.419 . S
C1021 H1025 0.930 . S
C1022 C1021 1.369 1_554 S
C1022 C1031 1.429 . S
C1023 C1021 1.419 . S
C1023 C1024 1.363 . S
C1023 H1026 0.929 . S
C1024 C1023 1.363 . S
C1024 C1030 1.428 . S
H1025 C1021 0.930 . S
H1026 C1023 0.929 . S
S1027 N1028 1.613 . S
S1027 N1029 1.601 1_554 S
N1028 S1027 1.613 . S
N1028 C1031 1.350 . S
N1029 S1027 1.601 1_556 S
N1029 C1030 1.353 . S
C1030 C1024 1.428 . S
C1030 N1029 1.353 . S
C1030 C1031 1.434 1_556 S
C1031 C1022 1.429 . S
C1031 N1028 1.350 . S
C1031 C1030 1.434 1_554 S
C1032 C1033 1.369 . S
C1032 C1034 1.419 . S
C1032 H1036 0.930 . S
C1033 C1032 1.369 . S
C1033 C1042 1.429 . S
C1034 C1032 1.419 . S
C1034 C1035 1.363 . S
C1034 H1037 0.929 . S
C1035 C1034 1.363 . S
C1035 C1041 1.428 . S
H1036 C1032 0.930 . S
H1037 C1034 0.929 . S
S1038 N1039 1.613 . S
S1038 N1040 1.610 . S
N1039 S1038 1.613 . S
N1039 C1042 1.350 . S
N1040 S1038 1.610 . S
N1040 C1041 1.351 . S
C1041 C1035 1.428 . S
C1041 N1040 1.351 . S
C1041 C1042 1.434 . S
C1042 C1033 1.429 . S
C1042 N1039 1.350 . S
C1042 C1041 1.434 . S
C1043 C1044 1.369 . S
C1043 C1045 1.419 . S
C1043 H1047 0.930 . S
C1044 C1043 1.369 . S
C1044 C1053 1.429 . S
C1045 C1043 1.419 . S
C1045 C1046 1.363 . S
C1045 H1048 0.929 . S
C1046 C1045 1.363 . S
C1046 C1052 1.428 . S
H1047 C1043 0.930 . S
H1048 C1045 0.929 . S
S1049 N1050 1.613 . S
S1049 N1051 1.610 . S
N1050 S1049 1.613 . S
N1050 C1053 1.350 . S
N1051 S1049 1.610 . S
N1051 C1052 1.351 . S
C1052 C1046 1.428 . S
C1052 N1051 1.351 . S
C1052 C1053 1.434 . S
C1053 C1044 1.429 . S
C1053 N1050 1.350 . S
C1053 C1052 1.434 . S
C1054 C1055 1.369 . S
C1054 C1056 1.419 . S
C1054 H1058 0.930 . S
C1055 C1054 1.369 . S
C1055 C1064 1.429 . S
C1056 C1054 1.419 . S
C1056 C1057 1.363 . S
C1056 H1059 0.929 . S
C1057 C1056 1.363 . S
C1057 C1063 1.428 . S
H1058 C1054 0.930 . S
H1059 C1056 0.929 . S
S1060 N1061 1.613 . S
S1060 N1062 1.610 . S
N1061 S1060 1.613 . S
N1061 C1064 1.350 . S
N1062 S1060 1.610 . S
N1062 C1063 1.351 . S
C1063 C1057 1.428 . S
C1063 N1062 1.351 . S
C1063 C1064 1.434 . S
C1064 C1055 1.429 . S
C1064 N1061 1.350 . S
C1064 C1063 1.434 . S
C1065 C1066 1.369 . S
C1065 C1067 1.419 . S
C1065 H1069 0.930 . S
C1066 C1065 1.369 . S
C1066 C1075 1.429 . S
C1067 C1065 1.419 . S
C1067 C1068 1.363 . S
C1067 H1070 0.929 . S
C1068 C1067 1.363 . S
C1068 C1074 1.428 . S
H1069 C1065 0.930 . S
H1070 C1067 0.929 . S
S1071 N1072 1.613 . S
S1071 N1073 1.610 . S
N1072 S1071 1.613 . S
N1072 C1075 1.350 . S
N1073 S1071 1.610 . S
N1073 C1074 1.351 . S
C1074 C1068 1.428 . S
C1074 N1073 1.351 . S
C1074 C1075 1.434 . S
C1075 C1066 1.429 . S
C1075 N1072 1.350 . S
C1075 C1074 1.434 . S
C1076 C1077 1.369 . S
C1076 C1078 1.419 . S
C1076 H1080 0.930 . S
C1077 C1076 1.369 . S
C1077 C1086 1.429 . S
C1078 C1076 1.419 . S
C1078 C1079 1.363 . S
C1078 H1081 0.929 . S
C1079 C1078 1.363 . S
C1079 C1085 1.428 . S
H1080 C1076 0.930 . S
H1081 C1078 0.929 . S
S1082 N1083 1.613 . S
S1082 N1084 1.610 . S
N1083 S1082 1.613 . S
N1083 C1086 1.350 . S
N1084 S1082 1.610 . S
N1084 C1085 1.351 . S
C1085 C1079 1.428 . S
C1085 N1084 1.351 . S
C1085 C1086 1.434 . S
C1086 C1077 1.429 . S
C1086 N1083 1.350 . S
C1086 C1085 1.434 . S
C1087 C1088 1.369 . S
C1087 C1089 1.419 . S
C1087 H1091 0.930 . S
C1088 C1087 1.369 . S
C1088 C1097 1.429 . S
C1089 C1087 1.419 . S
C1089 C1090 1.363 . S
C1089 H1092 0.929 . S
C1090 C1089 1.363 . S
C1090 C1096 1.428 . S
H1091 C1087 0.930 . S
H1092 C1089 0.929 . S
S1093 N1094 1.613 . S
S1093 N1095 1.610 . S
N1094 S1093 1.613 . S
N1094 C1097 1.350 . S
N1095 S1093 1.610 . S
N1095 C1096 1.351 . S
C1096 C1090 1.428 . S
C1096 N1095 1.351 . S
C1096 C1097 1.434 . S
C1097 C1088 1.429 . S
C1097 N1094 1.350 . S
C1097 C1096 1.434 . S
C1098 C1099 1.369 . S
C1098 C1100 1.419 . S
C1098 H1102 0.930 . S
C1099 C1098 1.369 . S
C1099 C1108 1.429 . S
C1100 C1098 1.419 . S
C1100 C1101 1.363 . S
C1100 H1103 0.929 . S
C1101 C1100 1.363 . S
C1101 C1107 1.428 . S
H1102 C1098 0.930 . S
H1103 C1100 0.929 . S
S1104 N1105 1.613 . S
S1104 N1106 1.610 . S
N1105 S1104 1.613 . S
N1105 C1108 1.350 . S
N1106 S1104 1.610 . S
N1106 C1107 1.351 . S
C1107 C1101 1.428 . S
C1107 N1106 1.351 . S
C1107 C1108 1.434 . S
C1108 C1099 1.429 . S
C1108 N1105 1.350 . S
C1108 C1107 1.434 . S
C1109 C1110 1.369 . S
C1109 C1111 1.419 . S
C1109 H1113 0.930 . S
C1110 C1109 1.369 . S
C1110 C1119 1.429 . S
C1111 C1109 1.419 . S
C1111 C1112 1.363 . S
C1111 H1114 0.929 . S
C1112 C1111 1.363 . S
C1112 C1118 1.428 . S
H1113 C1109 0.930 . S
H1114 C1111 0.929 . S
S1115 N1116 1.613 . S
S1115 N1117 1.610 . S
N1116 S1115 1.613 . S
N1116 C1119 1.350 . S
N1117 S1115 1.610 . S
N1117 C1118 1.351 . S
C1118 C1112 1.428 . S
C1118 N1117 1.351 . S
C1118 C1119 1.434 . S
C1119 C1110 1.429 . S
C1119 N1116 1.350 . S
C1119 C1118 1.434 . S
C1120 C1121 1.369 . S
C1120 C1122 1.419 . S
C1120 H1124 0.930 . S
C1121 C1120 1.369 . S
C1121 C1130 1.429 . S
C1122 C1120 1.419 . S
C1122 C1123 1.363 . S
C1122 H1125 0.929 . S
C1123 C1122 1.363 . S
C1123 C1129 1.428 . S
H1124 C1120 0.930 . S
H1125 C1122 0.929 . S
S1126 N1127 1.613 . S
S1126 N1128 1.610 . S
N1127 S1126 1.613 . S
N1127 C1130 1.350 . S
N1128 S1126 1.610 . S
N1128 C1129 1.351 . S
C1129 C1123 1.428 . S
C1129 N1128 1.351 . S
C1129 C1130 1.434 . S
C1130 C1121 1.429 . S
C1130 N1127 1.350 . S
C1130 C1129 1.434 . S
C1131 C1132 1.369 . S
C1131 C1133 1.419 . S
C1131 H1135 0.930 . S
C1132 C1131 1.369 . S
C1132 C1141 1.429 . S
C1133 C1131 1.419 . S
C1133 C1134 1.363 . S
C1133 H1136 0.929 . S
C1134 C1133 1.363 . S
C1134 C1140 1.428 . S
H1135 C1131 0.930 . S
H1136 C1133 0.929 . S
S1137 N1138 1.613 . S
S1137 N1139 1.610 . S
N1138 S1137 1.613 . S
N1138 C1141 1.350 . S
N1139 S1137 1.610 . S
N1139 C1140 1.351 . S
C1140 C1134 1.428 . S
C1140 N1139 1.351 . S
C1140 C1141 1.434 . S
C1141 C1132 1.429 . S
C1141 N1138 1.350 . S
C1141 C1140 1.434 . S
C1142 C1143 1.369 . S
C1142 C1144 1.419 . S
C1142 H1146 0.930 . S
C1143 C1142 1.369 . S
C1143 C1152 1.429 . S
C1144 C1142 1.419 . S
C1144 C1145 1.363 . S
C1144 H1147 0.929 . S
C1145 C1144 1.363 . S
C1145 C1151 1.428 . S
H1146 C1142 0.930 . S
H1147 C1144 0.929 . S
S1148 N1149 1.613 . S
S1148 N1150 1.610 . S
N1149 S1148 1.613 . S
N1149 C1152 1.350 . S
N1150 S1148 1.610 . S
N1150 C1151 1.351 . S
C1151 C1145 1.428 . S
C1151 N1150 1.351 . S
C1151 C1152 1.434 . S
C1152 C1143 1.429 . S
C1152 N1149 1.350 . S
C1152 C1151 1.434 . S
C1153 C1154 1.369 . S
C1153 C1155 1.419 . S
C1153 H1157 0.930 . S
C1154 C1153 1.369 . S
C1154 C1163 1.429 . S
C1155 C1153 1.419 . S
C1155 C1156 1.363 . S
C1155 H1158 0.929 . S
C1156 C1155 1.363 . S
C1156 C1162 1.428 . S
H1157 C1153 0.930 . S
H1158 C1155 0.929 . S
S1159 N1160 1.613 . S
S1159 N1161 1.610 . S
N1160 S1159 1.613 . S
N1160 C1163 1.350 . S
N1161 S1159 1.610 . S
N1161 C1162 1.351 . S
C1162 C1156 1.428 . S
C1162 N1161 1.351 . S
C1162 C1163 1.434 . S
C1163 C1154 1.429 . S
C1163 N1160 1.350 . S
C1163 C1162 1.434 . S
C1164 C1165 1.369 . S
C1164 C1166 1.419 . S
C1164 H1168 0.930 . S
C1165 C1164 1.369 . S
C1165 C1174 1.429 . S
C1166 C1164 1.419 . S
C1166 C1167 1.363 . S
C1166 H1169 0.929 . S
C1167 C1166 1.363 . S
C1167 C1173 1.428 . S
H1168 C1164 0.930 . S
H1169 C1166 0.929 . S
S1170 N1171 1.613 . S
S1170 N1172 1.610 . S
N1171 S1170 1.613 . S
N1171 C1174 1.350 . S
N1172 S1170 1.610 . S
N1172 C1173 1.351 . S
C1173 C1167 1.428 . S
C1173 N1172 1.351 . S
C1173 C1174 1.434 . S
C1174 C1165 1.429 . S
C1174 N1171 1.350 . S
C1174 C1173 1.434 . S
C1175 C1176 1.369 . S
C1175 C1177 1.419 . S
C1175 H1179 0.930 . S
C1176 C1175 1.369 . S
C1176 C1185 1.429 . S
C1177 C1175 1.419 . S
C1177 C1178 1.363 . S
C1177 H1180 0.929 . S
C1178 C1177 1.363 . S
C1178 C1184 1.428 . S
H1179 C1175 0.930 . S
H1180 C1177 0.929 . S
S1181 N1182 1.613 . S
S1181 N1183 1.610 . S
N1182 S1181 1.613 . S
N1182 C1185 1.350 . S
N1183 S1181 1.610 . S
N1183 C1184 1.351 . S
C1184 C1178 1.428 . S
C1184 N1183 1.351 . S
C1184 C1185 1.434 . S
C1185 C1176 1.429 . S
C1185 N1182 1.350 . S
C1185 C1184 1.434 . S
C1186 C1187 1.369 . S
C1186 C1188 1.419 . S
C1186 H1190 0.930 . S
C1187 C1186 1.369 . S
C1187 C1196 1.429 . S
C1188 C1186 1.419 . S
C1188 C1189 1.363 . S
C1188 H1191 0.929 . S
C1189 C1188 1.363 . S
C1189 C1195 1.428 . S
H1190 C1186 0.930 . S
H1191 C1188 0.929 . S
S1192 N1193 1.613 . S
S1192 N1194 1.610 . S
N1193 S1192 1.613 . S
N1193 C1196 1.350 . S
N1194 S1192 1.610 . S
N1194 C1195 1.351 . S
C1195 C1189 1.428 . S
C1195 N1194 1.351 . S
C1195 C1196 1.434 . S
C1196 C1187 1.429 . S
C1196 N1193 1.350 . S
C1196 C1195 1.434 . S
C1197 C1198 1.369 . S
C1197 C1199 1.419 . S
C1197 H1201 0.930 . S
C1198 C1197 1.369 . S
C1198 C1207 1.429 . S
C1199 C1197 1.419 . S
C1199 C1200 1.363 . S
C1199 H1202 0.929 . S
C1200 C1199 1.363 . S
C1200 C1206 1.428 . S
H1201 C1197 0.930 . S
H1202 C1199 0.929 . S
S1203 N1204 1.613 . S
S1203 N1205 1.610 . S
N1204 S1203 1.613 . S
N1204 C1207 1.350 . S
N1205 S1203 1.610 . S
N1205 C1206 1.351 . S
C1206 C1200 1.428 . S
C1206 N1205 1.351 . S
C1206 C1207 1.434 . S
C1207 C1198 1.429 . S
C1207 N1204 1.350 . S
C1207 C1206 1.434 . S
C1208 C1209 1.369 . S
C1208 C1210 1.419 1_665 S
C1208 H1212 0.930 . S
C1209 C1208 1.369 . S
C1209 C1218 1.429 . S
C1210 C1208 1.419 1_445 S
C1210 C1211 1.363 . S
C1210 H1213 0.929 . S
C1211 C1210 1.363 . S
C1211 C1217 1.428 . S
H1212 C1208 0.930 . S
H1213 C1210 0.929 . S
S1214 N1215 1.613 1_455 S
S1214 N1216 1.610 1_565 S
N1215 S1214 1.613 1_655 S
N1215 C1218 1.350 . S
N1216 S1214 1.610 1_545 S
N1216 C1217 1.351 . S
C1217 C1211 1.428 . S
C1217 N1216 1.351 . S
C1217 C1218 1.434 1_445 S
C1218 C1209 1.429 . S
C1218 N1215 1.350 . S
C1218 C1217 1.434 1_665 S
C1219 C1220 1.369 1_565 S
C1219 C1221 1.419 1_655 S
C1219 H1223 0.930 . S
C1220 C1219 1.369 1_545 S
C1220 C1229 1.429 . S
C1221 C1219 1.419 1_455 S
C1221 C1222 1.363 . S
C1221 H1224 0.929 . S
C1222 C1221 1.363 . S
C1222 C1228 1.428 1_565 S
H1223 C1219 0.930 . S
H1224 C1221 0.929 . S
S1225 N1226 1.613 1_455 S
S1225 N1227 1.610 . S
N1226 S1225 1.613 1_655 S
N1226 C1229 1.350 . S
N1227 S1225 1.610 . S
N1227 C1228 1.351 . S
C1228 C1222 1.428 1_545 S
C1228 N1227 1.351 . S
C1228 C1229 1.434 1_455 S
C1229 C1220 1.429 . S
C1229 N1226 1.350 . S
C1229 C1228 1.434 1_655 S
C1230 C1231 1.369 . S
C1230 C1232 1.419 . S
C1230 H1234 0.930 . S
C1231 C1230 1.369 . S
C1231 C1240 1.429 1_455 S
C1232 C1230 1.419 . S
C1232 C1233 1.363 1_455 S
C1232 H1235 0.929 . S
C1233 C1232 1.363 1_655 S
C1233 C1239 1.428 . S
H1234 C1230 0.930 . S
H1235 C1232 0.929 . S
S1236 N1237 1.613 . S
S1236 N1238 1.610 . S
N1237 S1236 1.613 . S
N1237 C1240 1.350 . S
N1238 S1236 1.610 . S
N1238 C1239 1.351 . S
C1239 C1233 1.428 . S
C1239 N1238 1.351 . S
C1239 C1240 1.434 . S
C1240 C1231 1.429 1_655 S
C1240 N1237 1.350 . S
C1240 C1239 1.434 . S
C1241 C1242 1.369 1_545 S
C1241 C1243 1.419 . S
C1241 H1245 0.930 . S
C1242 C1241 1.369 1_565 S
C1242 C1251 1.429 . S
C1243 C1241 1.419 . S
C1243 C1244 1.363 . S
C1243 H1246 0.929 . S
C1244 C1243 1.363 . S
C1244 C1250 1.428 1_545 S
H1245 C1241 0.930 . S
H1246 C1243 0.929 . S
S1247 N1248 1.613 . S
S1247 N1249 1.610 . S
N1248 S1247 1.613 . S
N1248 C1251 1.350 . S
N1249 S1247 1.610 . S
N1249 C1250 1.351 . S
C1250 C1244 1.428 1_565 S
C1250 N1249 1.351 . S
C1250 C1251 1.434 . S
C1251 C1242 1.429 . S
C1251 N1248 1.350 . S
C1251 C1250 1.434 . S
C1252 C1253 1.369 . S
C1252 C1254 1.419 . S
C1252 H1256 0.930 . S
C1253 C1252 1.369 . S
C1253 C1262 1.429 . S
C1254 C1252 1.419 . S
C1254 C1255 1.363 . S
C1254 H1257 0.929 . S
C1255 C1254 1.363 . S
C1255 C1261 1.428 . S
H1256 C1252 0.930 . S
H1257 C1254 0.929 . S
S1258 N1259 1.613 . S
S1258 N1260 1.610 . S
N1259 S1258 1.613 . S
N1259 C1262 1.350 . S
N1260 S1258 1.610 . S
N1260 C1261 1.351 . S
C1261 C1255 1.428 . S
C1261 N1260 1.351 . S
C1261 C1262 1.434 . S
C1262 C1253 1.429 . S
C1262 N1259 1.350 . S
C1262 C1261 1.434 . S
C1263 C1264 1.369 . S
C1263 C1265 1.419 . S
C1263 H1267 0.930 . S
C1264 C1263 1.369 . S
C1264 C1273 1.429 . S
C1265 C1263 1.419 . S
C1265 C1266 1.363 . S
C1265 H1268 0.929 . S
C1266 C1265 1.363 . S
C1266 C1272 1.428 . S
H1267 C1263 0.930 . S
H1268 C1265 0.929 . S
S1269 N1270 1.613 . S
S1269 N1271 1.610 . S
N1270 S1269 1.613 . S
N1270 C1273 1.350 . S
N1271 S1269 1.610 . S
N1271 C1272 1.351 . S
C1272 C1266 1.428 . S
C1272 N1271 1.351 . S
C1272 C1273 1.434 . S
C1273 C1264 1.429 . S
C1273 N1270 1.350 . S
C1273 C1272 1.434 . S
C1274 C1275 1.369 . S
C1274 C1276 1.419 1_545 S
C1274 H1278 0.930 . S
C1275 C1274 1.369 . S
C1275 C1284 1.435 . S
C1276 C1274 1.419 1_565 S
C1276 C1277 1.363 . S
C1276 H1279 0.929 . S
C1277 C1276 1.363 . S
C1277 C1283 1.428 . S
H1278 C1274 0.930 . S
H1279 C1276 0.929 . S
S1280 N1281 1.613 . S
S1280 N1282 1.610 . S
N1281 S1280 1.613 . S
N1281 C1284 1.349 1_565 S
N1282 S1280 1.610 . S
N1282 C1283 1.351 . S
C1283 C1277 1.428 . S
C1283 N1282 1.351 . S
C1283 C1284 1.427 1_565 S
C1284 C1275 1.435 . S
C1284 N1281 1.349 1_545 S
C1284 C1283 1.427 1_545 S
C1285 C1286 1.369 . S
C1285 C1287 1.419 1_655 S
C1285 H1289 0.930 . S
C1286 C1285 1.369 . S
C1286 C1295 1.429 . S
C1287 C1285 1.419 1_455 S
C1287 C1288 1.363 . S
C1287 H1290 0.929 . S
C1288 C1287 1.363 . S
C1288 C1294 1.438 . S
H1289 C1285 0.930 . S
H1290 C1287 0.929 . S
S1291 N1292 1.613 . S
S1291 N1293 1.610 . S
N1292 S1291 1.613 . S
N1292 C1295 1.350 . S
N1293 S1291 1.610 . S
N1293 C1294 1.350 1_655 S
C1294 C1288 1.438 . S
C1294 N1293 1.350 1_455 S
C1294 C1295 1.424 1_455 S
C1295 C1286 1.429 . S
C1295 N1292 1.350 . S
C1295 C1294 1.424 1_655 S
C945 C33 1.364 . S
C947 C701 1.373 . S
C956 C524 1.374 . S
C958 C92 1.361 . S
C967 C583 1.371 . S
C969 C151 1.363 . S
C978 C642 1.373 . S
C980 C210 1.364 . S
C989 C347 1.372 . S
C991 C269 1.365 . S
C1000 C328 1.362 . S
C1002 C406 1.371 . S
C1011 C387 1.366 . S
C1013 C465 1.371 . S
C1022 C446 1.365 . S
C1024 C288 1.371 . S
C1033 C505 1.362 . S
C1035 C229 1.371 . S
C1044 C52 1.371 . S
C1046 C564 1.365 . S
C1055 C111 1.371 . S
C1057 C623 1.364 . S
C1066 C170 1.373 . S
C1068 C682 1.361 . S
C1077 C819 1.374 . S
C1079 C741 1.362 . S
C1088 C800 1.364 . S
C1090 C878 1.373 . S
C1099 C937 1.371 . S
C1101 C859 1.362 . S
C1110 C760 1.371 . S
C1112 C918 1.365 . S
C1121 C831 1.512 . S
C1123 C5 1.511 . S
C1132 C890 1.514 . S
C1134 C64 1.511 . S
C1143 C713 1.513 . S
C1145 C123 1.510 . S
C1154 C182 1.514 . S
C1156 C772 1.510 . S
C1165 C241 1.510 . S
C1167 C595 1.512 . S
C1176 C654 1.514 . S
C1178 C300 1.510 . S
C1187 C359 1.514 . S
C1189 C477 1.510 . S
C1198 C418 1.514 . S
C1200 C536 1.510 . S
C1209 C121 1.410 . S
C1211 C3 1.413 . S
C1220 C180 1.415 . S
C1222 C62 1.410 . S
C1231 C239 1.410 . S
C1233 C357 1.415 . S
C1242 C298 1.416 . S
C1244 C416 1.410 . S
C1253 C593 1.409 . S
C1255 C475 1.414 . S
C1264 C534 1.410 . S
C1266 C652 1.415 . S
C1275 C829 1.416 . S
C1277 C711 1.409 . S
C1286 C770 1.409 . S
C1288 C888 1.415 . S
