# Generated by pormake.
# Topology reo, (8)-cn, num edge types: 1
# Building blocks:
#     Node 0, Type 0, BuildingBlock: GIZVER_clean_sbu_0, # of connection points: 8
#     Node 1, Type 0, BuildingBlock: GIZVER_clean_sbu_0, # of connection points: 8
#     Node 2, Type 0, BuildingBlock: GIZVER_clean_sbu_0, # of connection points: 8
#     Edge 3, Type (0, 0), BuildingBlock: ZUJKAS_clean_linker_0, # of connection points: 2
#     Edge 4, Type (0, 0), BuildingBlock: ZUJKAS_clean_linker_0, # of connection points: 2
#     Edge 5, Type (0, 0), BuildingBlock: ZUJKAS_clean_linker_0, # of connection points: 2
#     Edge 6, Type (0, 0), BuildingBlock: ZUJKAS_clean_linker_0, # of connection points: 2
#     Edge 7, Type (0, 0), BuildingBlock: ZUJKAS_clean_linker_0, # of connection points: 2
#     Edge 8, Type (0, 0), BuildingBlock: ZUJKAS_clean_linker_0, # of connection points: 2
#     Edge 9, Type (0, 0), BuildingBlock: ZUJKAS_clean_linker_0, # of connection points: 2
#     Edge 10, Type (0, 0), BuildingBlock: ZUJKAS_clean_linker_0, # of connection points: 2
#     Edge 11, Type (0, 0), BuildingBlock: ZUJKAS_clean_linker_0, # of connection points: 2
#     Edge 12, Type (0, 0), BuildingBlock: ZUJKAS_clean_linker_0, # of connection points: 2
#     Edge 13, Type (0, 0), BuildingBlock: ZUJKAS_clean_linker_0, # of connection points: 2
#     Edge 14, Type (0, 0), BuildingBlock: ZUJKAS_clean_linker_0, # of connection points: 2
# Relax obj value: 0.086
# Max RMSD: 0.191
# Mean RMSD: 0.141
data_MOF--net-reo--node1-GIZVER_clean_sbu_0--edge1-ZUJKAS_clean_linker_0
_symmetry_space_group_name_H-M    P1
_symmetry_Int_Tables_number       1
_symmetry_cell_setting            triclinic
loop_
_symmetry_equiv_pos_as_xyz
'x, y, z'
_cell_length_a     30.470424
_cell_length_b     31.300499
_cell_length_c     31.848641
_cell_angle_alpha  105.5923
_cell_angle_beta   94.585516
_cell_angle_gamma 82.027543
loop_
_atom_site_label
_atom_site_type_symbol
_atom_site_fract_x
_atom_site_fract_y
_atom_site_fract_z
_atom_type_partial_charge
Co0 Co 0.03241 0.97882 0.5897 0.0
Co1 Co 0.09651 1.0076 0.56083 0.0
Co2 Co 1.01131 1.02369 0.50054 0.0
O3 O 0.04767 0.98237 0.5326 0.0
H4 H 0.05674 0.95327 0.51351 0.0
O5 O 0.97277 0.06441 0.46822 0.0
Co6 Co 0.99106 0.10422 0.43548 0.0
Co7 Co 0.96782 0.03125 0.41219 0.0
H8 H 0.94398 0.07481 0.48046 0.0
O9 O 0.14609 0.97114 0.57097 0.0
O10 O 0.08946 1.0009 0.61592 0.0
O11 O 0.09834 0.07016 0.56635 0.0
O12 O 0.02868 0.08106 0.54094 0.0
O13 O 0.06501 1.01776 0.46362 0.0
O14 O 1.00571 0.14203 0.40848 0.0
O15 O 0.94118 0.14661 0.43984 0.0
O16 O 0.04499 0.06827 0.4258 0.0
O17 O 0.99289 0.96637 0.46002 0.0
O18 O 1.00436 0.97501 0.39532 0.0
O19 O 0.9647 0.06966 0.37822 0.0
O20 O 0.91198 0.03069 0.39177 0.0
C21 C 0.03957 0.93108 0.62553 0.0
C22 C 0.96392 0.03876 0.5809 0.0
C23 C 0.06359 0.09604 0.56124 0.0
C24 C 0.1288 0.97835 0.60863 0.0
C25 C 0.96656 0.16285 0.41794 0.0
C26 C 0.07274 0.03792 0.43532 0.0
C27 C 1.00445 0.94997 0.42063 0.0
C28 C 0.92485 0.0568 0.37076 0.0
O29 O 0.01957 0.9712 0.64079 0.0
O30 O 0.05674 0.92103 0.58713 0.0
O31 O 0.95979 0.02838 0.53905 0.0
O32 O 1.00261 0.03745 0.59919 0.0
Co33 Co 0.60393 1.02159 0.93918 0.0
Co34 Co 0.56591 0.10003 0.98269 0.0
Co35 Co 0.5166 0.02869 1.00685 0.0
O36 O 0.54418 0.04469 0.95839 0.0
H37 H 0.52325 0.0466 0.93432 0.0
O38 O 0.48942 1.012 0.05473 0.0
Co39 Co 0.42955 0.03258 0.07402 0.0
Co40 Co 0.46928 0.9561 0.02813 0.0
H41 H 0.51051 1.0097 0.07858 0.0
O42 O 0.59213 0.13498 0.95354 0.0
O43 O 0.62512 0.07617 0.97603 0.0
O44 O 0.56082 0.12381 0.04482 0.0
O45 O 0.56218 0.05545 0.05264 0.0
O46 O 0.47592 0.08798 0.01754 0.0
O47 O 0.37555 0.04881 0.0967 0.0
O48 O 0.43475 1.01064 0.12238 0.0
O49 O 0.41546 0.05987 0.02696 0.0
O50 O 0.47119 1.00299 0.96109 0.0
O51 O 0.47105 0.9337 0.96512 0.0
O52 O 0.40989 0.97638 0.03755 0.0
O53 O 0.44966 0.91866 0.05775 0.0
C54 C 0.64088 1.02329 0.88707 0.0
C55 C 0.59835 0.96367 0.9927 0.0
C56 C 0.57152 0.09558 0.06701 0.0
C57 C 0.62807 0.11099 0.96251 0.0
C58 C 0.39322 0.02831 0.12571 0.0
C59 C 0.43351 0.09147 0.01974 0.0
C60 C 0.46148 0.96343 0.94454 0.0
C61 C 0.41152 0.94035 0.05062 0.0
O62 O 0.65757 1.00272 0.91631 0.0
O63 O 0.6002 0.04344 0.89078 0.0
O64 O 0.55616 0.96876 0.99616 0.0
O65 O 0.61709 0.99499 0.98629 0.0
Co66 Co 0.9997 0.45237 0.0766 0.0
Co67 Co 0.94237 0.45343 0.01329 0.0
Co68 Co 1.01 0.52345 1.00651 0.0
O69 O 0.97714 0.49615 0.04401 0.0
H70 H 0.95804 0.51961 0.06268 0.0
O71 O 0.04118 0.55249 0.97008 0.0
Co72 Co 0.02048 0.61137 0.96182 0.0
Co73 Co 0.08948 0.57741 1.00159 0.0
H74 H 0.05105 0.53162 0.94325 0.0
O75 O 0.89495 0.43775 0.03615 0.0
O76 O 0.96648 0.40693 0.03595 0.0
O77 O 0.94597 0.43615 0.95163 0.0
O78 O 0.99484 0.48162 0.94813 0.0
O79 O 0.95304 0.56551 1.00217 0.0
O80 O 1.0041 0.66406 0.94909 0.0
O81 O 0.04873 0.60533 0.9115 0.0
O82 O 0.987 0.62551 0.01244 0.0
O83 O 0.02586 0.56496 0.06439 0.0
O84 O 0.09508 0.57937 0.06273 0.0
O85 O 0.07164 0.63535 0.9978 0.0
O86 O 0.13556 0.59281 0.97576 0.0
C87 C 0.98034 0.43304 0.12967 0.0
C88 C 0.07532 0.44409 0.01947 0.0
C89 C 0.97091 0.4506 0.93003 0.0
C90 C 0.92477 0.40492 0.04018 0.0
C91 C 0.02844 0.64584 0.91555 0.0
C92 C 0.95131 0.60818 0.01035 0.0
C93 C 0.06154 0.57895 0.0837 0.0
C94 C 0.11136 0.63142 0.98402 0.0
O95 O 0.01649 0.41457 0.10972 0.0
O96 O 0.95561 0.46499 0.11626 0.0
O97 O 0.06781 0.48144 0.00901 0.0
O98 O 0.0486 0.43278 0.04185 0.0
H99 H 0.89635 0.43191 0.15664 0.0
H100 H 0.8768 0.39495 0.21085 0.0
H101 H 1.01546 0.35569 0.23613 0.0
H102 H 0.03502 0.39157 0.18213 0.0
H103 H 0.91051 0.29456 0.21069 0.0
H104 H 0.95741 0.4226 0.35922 0.0
H105 H 0.94108 0.43556 0.30775 0.0
H106 H 0.99566 0.40819 0.31594 0.0
C107 C 0.92261 0.41595 0.17427 0.0
C108 C 0.9673 0.41509 0.16525 0.0
C109 C 0.91139 0.39453 0.20498 0.0
C110 C 0.94468 0.37262 0.22779 0.0
C111 C 0.98917 0.37248 0.21923 0.0
H112 H 0.01928 0.22064 0.40631 0.0
H113 H 1.00384 0.27432 0.36283 0.0
C114 C 1.0003 0.39313 0.18828 0.0
C115 C 0.93403 0.34905 0.26018 0.0
H116 H 0.95103 0.35063 0.368 0.0
C117 C 0.91839 0.30713 0.24527 0.0
C118 C 0.94438 0.36536 0.30526 0.0
C119 C 0.96026 0.41056 0.32328 0.0
C120 C 0.9157 0.27992 0.27377 0.0
C121 C 0.92823 0.29538 0.31869 0.0
C122 C 0.94137 0.33849 0.33378 0.0
C123 C 0.93453 0.26541 0.34909 0.0
C124 C 0.90232 0.23369 0.25494 0.0
C125 C 0.90033 0.24327 0.35789 0.0
C126 C 0.90917 0.21223 0.38351 0.0
C127 C 0.95243 0.20264 0.40045 0.0
C128 C 0.9856 0.22693 0.39368 0.0
C129 C 0.97681 0.25777 0.36859 0.0
H130 H 0.9012 0.22399 0.21869 0.0
H131 H 0.92573 0.20851 0.26678 0.0
H132 H 0.86879 0.23269 0.26564 0.0
H133 H 0.86709 0.24914 0.34417 0.0
H134 H 0.88291 0.19396 0.38783 0.0
H135 H 0.84768 1.02362 0.33994 0.0
H136 H 0.79164 0.04852 0.2907 0.0
H137 H 0.87174 0.14708 0.27742 0.0
H138 H 0.92981 0.12083 0.32629 0.0
H139 H 0.74539 0.13352 0.30481 0.0
H140 H 0.83592 0.08599 0.15034 0.0
H141 H 0.85623 0.06452 0.19644 0.0
H142 H 0.86038 0.12155 0.19801 0.0
C143 C 0.85392 0.05043 0.32652 0.0
C144 C 0.89315 0.07068 0.33768 0.0
C145 C 0.82158 0.06472 0.29834 0.0
C146 C 0.82727 0.0998 0.28056 0.0
C147 C 0.86679 0.11969 0.29056 0.0
H148 H 0.62171 0.16508 0.08886 0.0
H149 H 0.68306 0.17621 0.14353 0.0
C150 C 0.89979 0.10487 0.31866 0.0
C151 C 0.79058 0.1149 0.25238 0.0
H152 H 0.75907 0.10693 0.14549 0.0
C153 C 0.74854 0.12858 0.27008 0.0
C154 C 0.79479 0.10882 0.20719 0.0
C155 C 0.83912 0.09424 0.18655 0.0
C156 C 0.71025 0.13315 0.2434 0.0
C157 C 0.7141 0.12373 0.19788 0.0
C158 C 0.75636 0.11364 0.18047 0.0
C159 C 0.67457 0.11968 0.16755 0.0
C160 C 0.66574 0.14628 0.26384 0.0
C161 C 0.64927 0.0844 0.16333 0.0
C162 C 0.61434 0.07768 0.13196 0.0
C163 C 0.60393 0.10634 0.10441 0.0
C164 C 0.62844 0.14264 0.10986 0.0
C165 C 0.66372 0.14897 0.14089 0.0
H166 H 0.66909 0.16346 0.29913 0.0
H167 H 0.64366 0.16855 0.24715 0.0
H168 H 0.64965 0.11576 0.26056 0.0
H169 H 0.65754 0.06111 0.18334 0.0
H170 H 0.59633 0.04932 0.12846 0.0
H171 H 0.97136 0.88171 0.44232 0.0
H172 H 0.98309 0.80167 0.40371 0.0
H173 H 0.07394 0.82973 0.32031 0.0
H174 H 0.06156 0.90901 0.35749 0.0
H175 H 0.96529 0.77562 0.30585 0.0
H176 H 0.13482 0.71412 0.35738 0.0
H177 H 0.10061 0.76022 0.3916 0.0
H178 H 0.12961 0.76884 0.34816 0.0
C179 C 0.99446 0.87047 0.41631 0.0
C180 C 1.0153 0.90141 0.40256 0.0
C181 C 1.00116 0.82492 0.39442 0.0
C182 C 0.0298 0.80992 0.35961 0.0
C183 C 0.05229 0.84059 0.34756 0.0
H184 H 0.1146 0.64031 0.13012 0.0
H185 H 0.10532 0.68681 0.20438 0.0
C186 C 0.04492 0.8859 0.36861 0.0
C187 C 0.03205 0.76389 0.3312 0.0
H188 H 0.10787 0.67614 0.28566 0.0
C189 C 0.9959 0.75293 0.30208 0.0
C190 C 0.07217 0.73485 0.32649 0.0
C191 C 0.11147 0.74482 0.35782 0.0
C192 C 1.00015 0.71588 0.2656 0.0
C193 C 0.04141 0.68832 0.2591 0.0
C194 C 0.07635 0.69728 0.29053 0.0
C195 C 0.05094 0.65483 0.21701 0.0
C196 C 0.96169 0.70918 0.23246 0.0
C197 C 0.02469 0.6201 0.19994 0.0
C198 C 0.02936 0.59395 0.15701 0.0
C199 C 0.06113 0.60142 0.13088 0.0
C200 C 0.08977 0.63374 0.14932 0.0
C201 C 0.08453 0.66034 0.19188 0.0
H202 H 0.93554 0.73836 0.23851 0.0
H203 H 0.97311 0.70333 0.19891 0.0
H204 H 0.9464 0.67954 0.23409 0.0
H205 H 0.99945 0.61435 0.21918 0.0
H206 H 1.00728 0.56876 0.14387 0.0
H207 H 0.41771 0.98849 0.19319 0.0
H208 H 0.37031 0.97914 0.24825 0.0
H209 H 0.25773 0.04648 0.19121 0.0
H210 H 0.30447 0.05562 0.13626 0.0
H211 H 0.3213 0.04185 0.3108 0.0
H212 H 0.20838 0.93488 0.19899 0.0
H213 H 0.26033 0.94492 0.18208 0.0
H214 H 0.21191 0.98532 0.18357 0.0
C215 C 0.38284 1.00126 0.19231 0.0
C216 C 0.36514 1.02292 0.16011 0.0
C217 C 0.35569 0.99582 0.22386 0.0
C218 C 0.31003 1.01134 0.22368 0.0
C219 C 0.29247 0.03318 0.1917 0.0
H220 H 0.11895 0.09844 0.41842 0.0
H221 H 0.18041 0.08589 0.37048 0.0
C222 C 0.31952 0.03878 0.16038 0.0
C223 C 0.28092 1.00655 0.25771 0.0
H224 H 0.18256 0.97112 0.27091 0.0
C225 C 0.29131 1.02582 0.302 0.0
C226 C 0.24199 0.98494 0.24677 0.0
C227 C 0.23018 0.96092 0.20031 0.0
C228 C 0.26286 1.02628 0.33505 0.0
C229 C 0.22243 1.00741 0.32381 0.0
C230 C 0.21323 0.98595 0.2798 0.0
C231 C 0.18746 1.01382 0.35641 0.0
C232 C 0.27618 0.0476 0.38184 0.0
C233 C 0.17043 0.97749 0.36509 0.0
C234 C 0.13504 0.98469 0.39333 0.0
C235 C 0.11544 0.02835 0.41255 0.0
C236 C 0.13337 0.06437 0.40446 0.0
C237 C 0.16875 0.05725 0.37699 0.0
H238 H 0.31277 0.04691 0.3866 0.0
H239 H 0.2613 0.08309 0.39073 0.0
H240 H 0.26432 0.03053 0.40439 0.0
H241 H 0.18398 0.94357 0.34944 0.0
H242 H 0.12166 0.95624 0.39834 0.0
H243 H 0.08397 0.845 0.60977 0.0
H244 H 0.0856 0.79172 0.65468 0.0
H245 H 1.00347 0.8897 0.74734 0.0
H246 H 1.0014 0.94247 0.70308 0.0
H247 H 0.11411 0.79858 0.74444 0.0
H248 H 0.93497 0.78086 0.71835 0.0
H249 H 0.96383 0.80482 0.68459 0.0
H250 H 0.94598 0.83793 0.73724 0.0
C251 C 0.0662 0.85512 0.63967 0.0
C252 C 0.04229 0.89809 0.65243 0.0
C253 C 0.06724 0.82464 0.66541 0.0
C254 C 0.04401 0.83626 0.70419 0.0
C255 C 0.02094 0.87939 0.71726 0.0
H256 H 0.99024 0.73046 0.91612 0.0
H257 H 0.99683 0.77327 0.86368 0.0
C258 C 0.02002 0.90975 0.69182 0.0
C259 C 0.04349 0.80388 0.73137 0.0
H260 H 0.97299 0.7539 0.77627 0.0
C261 C 0.08334 0.78832 0.75096 0.0
C262 C 1.00338 0.79038 0.74011 0.0
C263 C 0.95964 0.80397 0.71867 0.0
C264 C 0.08389 0.76137 0.78028 0.0
C265 C 0.04358 0.7488 0.78982 0.0
C266 C 1.00394 0.7635 0.76932 0.0
C267 C 0.04122 0.72218 0.82227 0.0
C268 C 0.12744 0.74815 0.80222 0.0
C269 C 0.06382 0.67875 0.81679 0.0
C270 C 0.06006 0.65391 0.84699 0.0
C271 C 0.03344 0.67182 0.88332 0.0
C272 C 1.01101 0.71533 0.88865 0.0
C273 C 1.01472 0.74 0.85854 0.0
H274 H 0.15332 0.76891 0.79951 0.0
H275 H 0.12341 0.75124 0.83731 0.0
H276 H 0.13939 0.71276 0.78642 0.0
H277 H 0.08384 0.6637 0.78877 0.0
H278 H 0.07777 0.62057 0.84167 0.0
H279 H 0.42915 1.02195 0.89657 0.0
H280 H 0.37096 1.0132 0.83915 0.0
H281 H 0.36546 0.87824 0.84587 0.0
H282 H 0.4232 0.88711 0.90467 0.0
H283 H 0.367 0.95685 0.75966 0.0
H284 H 0.23651 0.9315 0.85992 0.0
H285 H 0.28873 0.94987 0.88345 0.0
H286 H 0.2857 0.89201 0.85628 0.0
C287 C 0.41593 0.99019 0.88576 0.0
C288 C 0.43075 0.95531 0.90551 0.0
C289 C 0.38251 0.9853 0.85291 0.0
C290 C 0.36318 0.94542 0.83884 0.0
C291 C 0.37913 0.90972 0.85702 0.0
H292 H 0.19528 0.90965 0.60031 0.0
H293 H 0.24947 0.89439 0.65687 0.0
C294 C 0.41252 0.91467 0.89025 0.0
C295 C 0.32653 0.9419 0.80497 0.0
H296 H 0.21642 0.92921 0.78611 0.0
C297 C 0.33415 0.9505 0.76534 0.0
C298 C 0.28354 0.93418 0.81273 0.0
C299 C 0.27282 0.92674 0.8555 0.0
C300 C 0.29994 0.95254 0.73357 0.0
C301 C 0.25705 0.94428 0.74099 0.0
C302 C 0.24942 0.93505 0.78037 0.0
C303 C 0.21952 0.94748 0.70889 0.0
C304 C 0.30975 0.96541 0.69315 0.0
C305 C 0.18286 0.98023 0.72004 0.0
C306 C 0.15125 0.98848 0.68783 0.0
C307 C 0.15631 0.96438 0.64405 0.0
C308 C 0.19111 0.92936 0.63368 0.0
C309 C 0.22215 0.92066 0.66591 0.0
H310 H 0.3406 0.98166 0.69773 0.0
H311 H 0.31428 0.93493 0.66563 0.0
H312 H 0.28199 0.98861 0.68394 0.0
H313 H 0.18001 1.00105 0.75315 0.0
H314 H 0.12457 1.01549 0.69674 0.0
H315 H 0.03472 0.45663 0.87639 0.0
H316 H 0.05152 0.40681 0.80445 0.0
H317 H 0.93689 0.34072 0.80635 0.0
H318 H 0.92003 0.38985 0.87822 0.0
H319 H 0.01748 0.28454 0.79643 0.0
H320 H 0.99619 0.3892 0.67838 0.0
H321 H 0.02833 0.40983 0.72782 0.0
H322 H 0.97034 0.40648 0.73041 0.0
C323 C 1.01237 0.4323 0.86103 0.0
C324 C 0.97626 0.42695 0.88334 0.0
C325 C 0.02198 0.40395 0.81979 0.0
C326 C 0.99538 0.37017 0.80006 0.0
C327 C 0.95781 0.36663 0.82105 0.0
H328 H 0.99268 0.16076 0.56385 0.0
H329 H 0.98085 0.23231 0.61859 0.0
C330 C 0.94827 0.39475 0.86219 0.0
C331 C 1.00966 0.33475 0.76073 0.0
H332 H 0.0276 0.31367 0.65207 0.0
C333 C 0.01977 0.29094 0.76489 0.0
C334 C 1.01257 0.34329 0.7197 0.0
C335 C 1.001 0.38966 0.71345 0.0
C336 C 0.03231 0.25527 0.7291 0.0
C337 C 0.0356 0.26371 0.68808 0.0
C338 C 0.02559 0.30753 0.68374 0.0
C339 C 0.04656 0.22644 0.64917 0.0
C340 C 0.0408 0.20856 0.73521 0.0
C341 C 0.08822 0.20065 0.64692 0.0
C342 C 0.09512 0.15956 0.6158 0.0
C343 C 0.06037 0.14363 0.58644 0.0
C344 C 0.02003 0.17169 0.58622 0.0
C345 C 1.0132 0.21274 0.61741 0.0
H346 H 0.02885 0.20688 0.76672 0.0
H347 H 0.02429 0.1848 0.70828 0.0
H348 H 0.07699 0.19737 0.73475 0.0
H349 H 0.1145 0.211 0.67097 0.0
H350 H 0.12674 0.1391 0.61669 0.0
H351 H 0.63821 0.08979 0.84476 0.0
H352 H 0.6894 0.09506 0.79117 0.0
H353 H 0.75856 0.96615 0.79525 0.0
H354 H 0.70923 0.96224 0.85053 0.0
H355 H 0.8166 1.01527 0.79547 0.0
H356 H 0.69497 0.04369 0.66458 0.0
H357 H 0.68566 0.08638 0.71437 0.0
H358 H 0.67897 0.02938 0.71186 0.0
C359 C 0.664 0.06235 0.83374 0.0
C360 C 0.66929 1.02539 0.85169 0.0
C361 C 0.69325 0.06522 0.80275 0.0
C362 C 0.72775 0.03057 0.78789 0.0
C363 C 0.7325 0.99348 0.80569 0.0
H364 H 0.88553 1.00123 0.55885 0.0
H365 H 0.82816 0.99961 0.60827 0.0
C366 C 0.70404 0.99113 0.83732 0.0
C367 C 0.7603 0.03343 0.75567 0.0
H368 H 0.76936 0.05558 0.65708 0.0
C369 C 0.80597 1.02384 0.76512 0.0
C370 C 0.74717 0.04385 0.71537 0.0
C371 C 0.69903 0.05092 0.70069 0.0
C372 C 0.83839 1.02454 0.73616 0.0
C373 C 0.82541 0.03738 0.69703 0.0
C374 C 0.77976 0.04647 0.68721 0.0
C375 C 0.85867 0.04097 0.66592 0.0
C376 C 0.88621 1.00988 0.74741 0.0
C377 C 0.89438 0.06604 0.68094 0.0
C378 C 0.92751 0.06634 0.6529 0.0
C379 C 0.92534 0.04274 0.60855 0.0
C380 C 0.88823 1.01993 0.59273 0.0
C381 C 0.8554 1.0189 0.62111 0.0
H382 H 0.88881 0.9872 0.76925 0.0
H383 H 0.90467 0.99232 0.71771 0.0
H384 H 0.90251 0.03964 0.76497 0.0
H385 H 0.89715 0.08492 0.71472 0.0
H386 H 0.95533 0.08469 0.66616 0.0
H387 H 0.08688 0.35518 0.01359 0.0
H388 H 0.1546 0.30342 1.00616 0.0
H389 H 0.22835 0.40702 0.99379 0.0
H390 H 0.15958 0.46019 1.00216 0.0
H391 H 0.21217 0.27139 0.94156 0.0
H392 H 0.30181 0.36314 0.09029 0.0
H393 H 0.24331 0.37731 0.07938 0.0
H394 H 0.28349 0.39321 0.05001 0.0
C395 C 0.11732 0.36737 0.00916 0.0
C396 C 0.11735 0.4124 0.00887 0.0
C397 C 0.15634 0.33737 1.00482 0.0
C398 C 0.19729 0.35096 1.00019 0.0
C399 C 0.19757 0.39556 0.99829 0.0
H400 H 0.45369 0.17116 1.00583 0.0
H401 H 0.40112 0.23618 0.99717 0.0
C402 C 0.15803 0.42594 1.0025 0.0
C403 C 0.23863 0.31762 0.99756 0.0
H404 H 0.336 0.2925 0.05312 0.0
C405 C 0.23942 0.27644 0.96574 0.0
C406 C 0.2748 0.32366 0.02875 0.0
C407 C 0.27601 0.36652 0.0643 0.0
C408 C 0.27394 0.24115 0.96508 0.0
C409 C 0.30885 0.24625 0.99765 0.0
C410 C 0.30941 0.28816 0.02818 0.0
C411 C 0.34205 0.20718 1.00282 0.0
C412 C 0.27226 0.19831 0.92952 0.0
C413 C 0.32698 0.16923 0.00954 0.0
C414 C 0.35673 0.13229 0.01435 0.0
C415 C 0.40305 0.1317 0.013 0.0
C416 C 0.41845 0.16995 1.00674 0.0
C417 C 0.3883 0.20732 1.00193 0.0
H418 H 0.25352 0.20443 0.89988 0.0
H419 H 0.30608 0.1818 0.92037 0.0
H420 H 0.25496 0.17506 0.94124 0.0
H421 H 0.29184 0.16823 0.0115 0.0
H422 H 0.34302 0.10407 0.0195 0.0
H423 H 0.19432 0.63638 0.96043 0.0
H424 H 0.2298 0.70393 0.97035 0.0
H425 H 0.10768 0.78529 0.01447 0.0
H426 H 0.07173 0.71788 1.00482 0.0
H427 H 0.20664 0.78591 0.93995 0.0
H428 H 0.2014 0.81142 0.11984 0.0
H429 H 0.19243 0.75881 0.0817 0.0
H430 H 0.15025 0.8058 0.08755 0.0
C431 C 0.17473 0.66859 0.97152 0.0
C432 C 0.13051 0.67179 0.98269 0.0
C433 C 0.19501 0.70713 0.97703 0.0
C434 C 0.17143 0.74934 0.99379 0.0
C435 C 0.12644 0.75285 1.00203 0.0
H436 H 0.32705 0.97458 0.03191 0.0
H437 H 0.26036 0.93696 0.02232 0.0
C438 C 0.10604 0.7143 0.99645 0.0
C439 C 0.19563 0.78881 1.00657 0.0
H440 H 0.24457 0.85568 0.09562 0.0
C441 C 0.21423 0.80199 0.97392 0.0
C442 C 0.20542 0.8093 0.05101 0.0
C443 C 0.18662 0.79568 0.08725 0.0
C444 C 0.24434 0.83372 0.98457 0.0
C445 C 0.25578 0.85256 0.02901 0.0
C446 C 0.23541 0.84111 0.06167 0.0
C447 C 0.29332 0.87906 0.04171 0.0
C448 C 0.26585 0.84476 0.94832 0.0
C449 C 0.33315 0.85972 0.05782 0.0
C450 C 0.3713 0.88096 0.06329 0.0
C451 C 0.37004 0.92189 0.05276 0.0
C452 C 0.32921 0.94276 0.0398 0.0
C453 C 0.29108 0.92139 0.03422 0.0
H454 H 0.25682 0.82349 0.91564 0.0
H455 H 0.25521 0.88021 0.94861 0.0
H456 H 0.30252 0.84049 0.95333 0.0
H457 H 0.33527 0.82706 0.06396 0.0
H458 H 0.40213 0.86427 0.07372 0.0
H459 H 0.64845 0.18331 0.93844 0.0
H460 H 0.71983 0.21311 0.95107 0.0
H461 H 0.77826 0.10078 0.99913 0.0
H462 H 0.70741 0.07052 0.98638 0.0
H463 H 0.78307 0.18658 0.05862 0.0
H464 H 0.84364 0.17692 0.89658 0.0
H465 H 0.78569 0.19727 0.90152 0.0
H466 H 0.80496 0.14111 0.90442 0.0
C467 C 0.67675 0.16439 0.95062 0.0
C468 C 0.67217 0.12499 0.96198 0.0
C469 C 0.71753 0.18128 0.95759 0.0
C470 C 0.75414 0.15893 0.97589 0.0
C471 C 0.75035 0.11828 0.98483 0.0
H472 H 0.97162 0.32187 0.02265 0.0
H473 H 0.94195 0.25142 0.01584 0.0
C474 C 0.70976 0.10119 0.97756 0.0
C475 C 0.79397 0.18145 0.99124 0.0
H476 H 0.86785 0.2355 0.95701 0.0
C477 C 0.80256 0.19633 0.03646 0.0
C478 C 0.81974 0.19327 0.96223 0.0
C479 C 0.8134 0.17593 0.91344 0.0
C480 C 0.83341 0.22654 0.05347 0.0
C481 C 0.85569 0.24212 0.02441 0.0
C482 C 0.85038 0.22367 0.97923 0.0
C483 C 0.87759 0.283 0.03917 0.0
C484 C 0.84005 0.24354 0.10227 0.0
C485 C 0.85153 0.32385 0.05585 0.0
C486 C 0.86803 0.36398 0.0591 0.0
C487 C 0.91088 0.36376 0.04585 0.0
C488 C 0.93834 0.32295 0.03291 0.0
C489 C 0.92157 0.28271 0.02908 0.0
H490 H 0.83312 0.21853 0.11912 0.0
H491 H 0.87438 0.25184 0.11154 0.0
H492 H 0.8167 0.2743 0.11399 0.0
H493 H 0.81725 0.32469 0.06317 0.0
H494 H 0.84639 0.39502 0.06966 0.0
H495 H 0.86585 0.58773 0.98291 0.0
H496 H 0.79794 0.6405 0.98196 0.0
H497 H 0.87149 0.75063 0.04351 0.0
H498 H 0.93885 0.69866 0.04451 0.0
H499 H 0.78641 0.75873 0.07881 0.0
H500 H 0.77528 0.72315 0.89778 0.0
H501 H 0.77816 0.67594 0.9204 0.0
H502 H 0.82499 0.70657 0.92722 0.0
C503 C 0.86744 0.62312 0.99672 0.0
C504 C 0.9082 0.63865 0.01362 0.0
C505 C 0.82856 0.65342 0.99586 0.0
C506 C 0.82937 0.69994 0.01219 0.0
C507 C 0.86964 0.71515 0.03057 0.0
H508 H 0.68407 0.93881 0.96922 0.0
H509 H 0.73392 0.87263 0.97461 0.0
C510 C 0.90836 0.68515 0.03103 0.0
C511 C 0.78924 0.73329 0.00912 0.0
H512 H 0.72256 0.77893 0.93629 0.0
C513 C 0.77201 0.76263 0.0476 0.0
C514 C 0.7705 0.7391 0.96851 0.0
C515 C 0.78818 0.70985 0.92599 0.0
C516 C 0.73741 0.79761 0.04654 0.0
C517 C 0.71923 0.80385 1.00594 0.0
C518 C 0.73594 0.77407 0.96748 0.0
C519 C 0.68676 0.8439 1.0026 0.0
C520 C 0.72182 0.82904 0.0889 0.0
C521 C 0.64278 0.8503 0.0162 0.0
C522 C 0.61343 0.88862 0.01279 0.0
C523 C 0.62759 0.92165 0.99619 0.0
C524 C 0.6716 0.91466 0.98252 0.0
C525 C 0.70043 0.87647 0.98542 0.0
H526 H 0.74251 0.82286 0.11751 0.0
H527 H 0.72242 0.86424 0.08818 0.0
H528 H 0.68704 0.82482 0.09323 0.0
H529 H 0.63108 0.82558 0.02926 0.0
H530 H 0.57993 0.89258 0.02356 0.0
loop_
_geom_bond_atom_site_label_1
_geom_bond_atom_site_label_2
_geom_bond_distance
_geom_bond_site_symmetry_2
_ccdc_geom_bond_type
Co0 O3 2.042 . S
Co0 O10 2.264 . S
Co0 O29 2.286 . S
Co0 O30 2.069 . S
Co0 O32 2.015 1_455 S
Co1 O3 2.122 1_545 S
Co1 O9 2.073 1_545 S
Co1 O10 2.327 1_545 S
Co1 O11 1.976 . S
Co2 O3 2.087 1_545 S
Co2 O5 2.087 1_455 S
Co2 O12 2.111 . S
Co2 O13 2.143 . S
Co2 O17 2.111 1_445 S
Co2 O31 2.143 1_445 S
O3 Co0 2.042 . S
O3 Co1 2.122 1_565 S
O3 Co2 2.087 1_565 S
O3 H4 0.980 . S
H4 O3 0.980 . S
O5 Co2 2.087 1_655 S
O5 Co6 2.042 . S
O5 Co7 2.122 1_545 S
O5 H8 0.980 . S
Co6 O5 2.042 . S
Co6 O14 2.286 . S
Co6 O15 2.069 . S
Co6 O16 2.015 1_655 S
Co6 O19 2.264 . S
Co7 O5 2.122 1_565 S
Co7 O18 1.976 . S
Co7 O19 2.327 1_565 S
Co7 O20 2.073 1_565 S
H8 O5 0.980 . S
O9 Co1 2.073 1_565 S
O9 C24 1.245 . S
O10 Co0 2.264 . S
O10 Co1 2.327 1_565 S
O10 C24 1.257 . S
O11 Co1 1.976 . S
O11 C23 1.251 . S
O12 Co2 2.111 . S
O12 C23 1.274 . S
O13 Co2 2.143 . S
O13 C26 1.246 1_545 S
O14 Co6 2.286 . S
O14 C25 1.259 . S
O15 Co6 2.069 . S
O15 C25 1.289 . S
O16 Co6 2.015 1_455 S
O16 C26 1.257 1_545 S
O17 Co2 2.111 1_665 S
O17 C27 1.274 . S
O18 Co7 1.976 . S
O18 C27 1.251 . S
O19 Co6 2.264 . S
O19 Co7 2.327 1_545 S
O19 C28 1.257 . S
O20 Co7 2.073 1_545 S
O20 C28 1.245 . S
C21 O29 1.259 . S
C21 O30 1.289 . S
C22 O31 1.246 1_545 S
C22 O32 1.257 1_545 S
C23 O11 1.251 . S
C23 O12 1.274 . S
C24 O9 1.245 . S
C24 O10 1.257 . S
C25 O14 1.259 . S
C25 O15 1.289 . S
C26 O13 1.246 1_565 S
C26 O16 1.257 1_565 S
C27 O17 1.274 . S
C27 O18 1.251 . S
C28 O19 1.257 . S
C28 O20 1.245 . S
O29 Co0 2.286 . S
O29 C21 1.259 . S
O30 Co0 2.069 . S
O30 C21 1.289 . S
O31 Co2 2.143 1_665 S
O31 C22 1.246 1_565 S
O32 Co0 2.015 1_655 S
O32 C22 1.257 1_565 S
Co33 O36 2.042 . S
Co33 O43 2.264 . S
Co33 O62 2.286 1_545 S
Co33 O63 2.069 . S
Co33 O65 2.015 1_545 S
Co34 O36 2.122 1_554 S
Co34 O42 2.073 . S
Co34 O43 2.327 1_554 S
Co34 O44 1.976 . S
Co35 O36 2.087 1_554 S
Co35 O38 2.087 1_545 S
Co35 O45 2.111 . S
Co35 O46 2.143 . S
Co35 O50 2.111 1_544 S
Co35 O64 2.143 1_544 S
O36 Co33 2.042 . S
O36 Co34 2.122 1_556 S
O36 Co35 2.087 1_556 S
O36 H37 0.980 . S
H37 O36 0.980 . S
O38 Co35 2.087 1_565 S
O38 Co39 2.042 . S
O38 Co40 2.122 1_554 S
O38 H41 0.980 . S
Co39 O38 2.042 . S
Co39 O47 2.286 1_565 S
Co39 O48 2.069 . S
Co39 O49 2.015 1_565 S
Co39 O52 2.264 . S
Co40 O38 2.122 1_556 S
Co40 O51 1.976 . S
Co40 O52 2.327 1_556 S
Co40 O53 2.073 . S
H41 O38 0.980 . S
O42 Co34 2.073 . S
O42 C57 1.245 1_554 S
O43 Co33 2.264 . S
O43 Co34 2.327 1_556 S
O43 C57 1.257 . S
O44 Co34 1.976 . S
O44 C56 1.251 . S
O45 Co35 2.111 . S
O45 C56 1.274 . S
O46 Co35 2.143 . S
O46 C59 1.246 . S
O47 Co39 2.286 1_545 S
O47 C58 1.259 1_545 S
O48 Co39 2.069 . S
O48 C58 1.289 . S
O49 Co39 2.015 1_545 S
O49 C59 1.257 . S
O50 Co35 2.111 1_566 S
O50 C60 1.274 . S
O51 Co40 1.976 . S
O51 C60 1.251 . S
O52 Co39 2.264 . S
O52 Co40 2.327 1_554 S
O52 C61 1.257 . S
O53 Co40 2.073 . S
O53 C61 1.245 1_556 S
C54 O62 1.259 1_545 S
C54 O63 1.289 . S
C55 O64 1.246 . S
C55 O65 1.257 . S
C56 O44 1.251 . S
C56 O45 1.274 . S
C57 O42 1.245 1_556 S
C57 O43 1.257 . S
C58 O47 1.259 1_565 S
C58 O48 1.289 . S
C59 O46 1.246 . S
C59 O49 1.257 . S
C60 O50 1.274 . S
C60 O51 1.251 . S
C61 O52 1.257 . S
C61 O53 1.245 1_554 S
O62 Co33 2.286 1_565 S
O62 C54 1.259 1_565 S
O63 Co33 2.069 . S
O63 C54 1.289 . S
O64 Co35 2.143 1_566 S
O64 C55 1.246 . S
O65 Co33 2.015 1_565 S
O65 C55 1.257 . S
Co66 O69 2.042 . S
Co66 O76 2.264 . S
Co66 O95 2.286 1_655 S
Co66 O96 2.069 . S
Co66 O98 2.015 1_655 S
Co67 O69 2.122 1_556 S
Co67 O75 2.073 1_556 S
Co67 O76 2.327 1_556 S
Co67 O77 1.976 . S
Co68 O69 2.087 1_455 S
Co68 O71 2.087 1_554 S
Co68 O78 2.111 1_454 S
Co68 O79 2.143 1_454 S
Co68 O83 2.111 . S
Co68 O97 2.143 . S
O69 Co66 2.042 . S
O69 Co67 2.122 1_554 S
O69 Co68 2.087 1_655 S
O69 H70 0.980 . S
H70 O69 0.980 . S
O71 Co68 2.087 1_556 S
O71 Co72 2.042 . S
O71 Co73 2.122 1_556 S
O71 H74 0.980 . S
Co72 O71 2.042 . S
Co72 O80 2.286 1_455 S
Co72 O81 2.069 . S
Co72 O82 2.015 1_455 S
Co72 O85 2.264 . S
Co73 O71 2.122 1_554 S
Co73 O84 1.976 . S
Co73 O85 2.327 1_554 S
Co73 O86 2.073 1_554 S
H74 O71 0.980 . S
O75 Co67 2.073 1_554 S
O75 C90 1.245 . S
O76 Co66 2.264 . S
O76 Co67 2.327 1_554 S
O76 C90 1.257 . S
O77 Co67 1.976 . S
O77 C89 1.251 . S
O78 Co68 2.111 1_656 S
O78 C89 1.274 . S
O79 Co68 2.143 1_656 S
O79 C92 1.243 . S
O80 Co72 2.286 1_655 S
O80 C91 1.259 1_655 S
O81 Co72 2.069 . S
O81 C91 1.289 . S
O82 Co72 2.015 1_655 S
O82 C92 1.268 . S
O83 Co68 2.111 . S
O83 C93 1.274 . S
O84 Co73 1.976 . S
O84 C93 1.251 . S
O85 Co72 2.264 . S
O85 Co73 2.327 1_556 S
O85 C94 1.257 . S
O86 Co73 2.073 1_556 S
O86 C94 1.245 . S
C87 O95 1.259 1_655 S
C87 O96 1.289 . S
C88 O97 1.242 . S
C88 O98 1.272 . S
C89 O77 1.251 . S
C89 O78 1.274 . S
C90 O75 1.245 . S
C90 O76 1.257 . S
C91 O80 1.259 1_455 S
C91 O81 1.289 . S
C92 O79 1.243 . S
C92 O82 1.268 . S
C93 O83 1.274 . S
C93 O84 1.251 . S
C94 O85 1.257 . S
C94 O86 1.245 . S
O95 Co66 2.286 1_455 S
O95 C87 1.259 1_455 S
O96 Co66 2.069 . S
O96 C87 1.289 . S
O97 Co68 2.143 . S
O97 C88 1.242 . S
O98 Co66 2.015 1_455 S
O98 C88 1.272 . S
H99 C107 0.929 . S
H100 C109 0.930 . S
H101 C111 0.930 1_455 S
H102 C114 0.929 . S
H103 C117 0.930 . S
H104 C119 0.960 . S
H105 C119 0.960 . S
H106 C119 0.960 . S
C107 H99 0.929 . S
C107 C108 1.377 . S
C107 C109 1.384 . S
C108 C107 1.377 . S
C108 C114 1.390 1_655 S
C109 H100 0.930 . S
C109 C107 1.384 . S
C109 C110 1.372 . S
C110 C109 1.372 . S
C110 C111 1.400 . S
C110 C115 1.490 . S
C111 H101 0.930 1_655 S
C111 C110 1.400 . S
C111 C114 1.386 1_655 S
H112 C128 0.930 1_455 S
H113 C129 0.931 1_455 S
C114 H102 0.929 . S
C114 C108 1.390 1_455 S
C114 C111 1.386 1_455 S
C115 C110 1.490 . S
C115 C117 1.395 . S
C115 C118 1.403 . S
H116 C122 0.930 . S
C117 H103 0.930 . S
C117 C115 1.395 . S
C117 C120 1.403 . S
C118 C115 1.403 . S
C118 C119 1.524 . S
C118 C122 1.400 . S
C119 H104 0.960 . S
C119 H105 0.960 . S
C119 H106 0.960 . S
C119 C118 1.524 . S
C120 C117 1.403 . S
C120 C121 1.392 . S
C120 C124 1.495 . S
C121 C120 1.392 . S
C121 C122 1.385 . S
C121 C123 1.478 . S
C122 H116 0.930 . S
C122 C118 1.400 . S
C122 C121 1.385 . S
C123 C121 1.478 . S
C123 C125 1.381 . S
C123 C129 1.383 . S
C124 C120 1.495 . S
C124 H130 0.959 . S
C124 H131 0.961 . S
C124 H132 0.960 . S
C125 C123 1.381 . S
C125 C126 1.394 . S
C125 H133 0.930 . S
C126 C125 1.394 . S
C126 C127 1.383 . S
C126 H134 0.929 . S
C127 C126 1.383 . S
C127 C128 1.377 . S
C128 H112 0.930 1_655 S
C128 C127 1.377 . S
C128 C129 1.379 . S
C129 H113 0.931 1_655 S
C129 C123 1.383 . S
C129 C128 1.379 . S
H130 C124 0.959 . S
H131 C124 0.961 . S
H132 C124 0.960 . S
H133 C125 0.930 . S
H134 C126 0.929 . S
H135 C143 0.929 1_565 S
H136 C145 0.930 1_565 S
H137 C147 0.930 . S
H138 C150 0.929 . S
H139 C153 0.930 . S
H140 C155 0.960 . S
H141 C155 0.960 . S
H142 C155 0.960 1_545 S
C143 H135 0.929 1_545 S
C143 C144 1.377 . S
C143 C145 1.384 . S
C144 C143 1.377 . S
C144 C150 1.390 . S
C145 H136 0.930 1_545 S
C145 C143 1.384 . S
C145 C146 1.372 . S
C146 C145 1.372 . S
C146 C147 1.400 . S
C146 C151 1.490 . S
C147 H137 0.930 . S
C147 C146 1.400 . S
C147 C150 1.386 . S
H148 C164 0.930 . S
H149 C165 0.931 . S
C150 H138 0.929 . S
C150 C144 1.390 . S
C150 C147 1.386 . S
C151 C146 1.490 . S
C151 C153 1.395 . S
C151 C154 1.403 . S
H152 C158 0.930 1_565 S
C153 H139 0.930 . S
C153 C151 1.395 . S
C153 C156 1.403 . S
C154 C151 1.403 . S
C154 C155 1.524 1_545 S
C154 C158 1.400 . S
C155 H140 0.960 . S
C155 H141 0.960 . S
C155 H142 0.960 1_565 S
C155 C154 1.524 1_565 S
C156 C153 1.403 . S
C156 C157 1.392 . S
C156 C160 1.495 . S
C157 C156 1.392 . S
C157 C158 1.385 . S
C157 C159 1.478 . S
C158 H152 0.930 1_545 S
C158 C154 1.400 . S
C158 C157 1.385 . S
C159 C157 1.478 . S
C159 C161 1.381 1_545 S
C159 C165 1.383 . S
C160 C156 1.495 . S
C160 H166 0.959 . S
C160 H167 0.961 . S
C160 H168 0.960 . S
C161 C159 1.381 1_565 S
C161 C162 1.394 . S
C161 H169 0.930 . S
C162 C161 1.394 . S
C162 C163 1.383 1_565 S
C162 H170 0.929 . S
C163 C162 1.383 1_545 S
C163 C164 1.377 . S
C164 H148 0.930 . S
C164 C163 1.377 . S
C164 C165 1.379 . S
C165 H149 0.931 . S
C165 C159 1.383 . S
C165 C164 1.379 . S
H166 C160 0.959 . S
H167 C160 0.961 . S
H168 C160 0.960 . S
H169 C161 0.930 . S
H170 C162 0.929 . S
H171 C179 0.929 . S
H172 C181 0.930 . S
H173 C183 0.930 . S
H174 C186 0.929 . S
H175 C189 0.930 . S
H176 C191 0.960 . S
H177 C191 0.960 . S
H178 C191 0.960 . S
C179 H171 0.929 . S
C179 C180 1.377 1_655 S
C179 C181 1.384 . S
C180 C179 1.377 1_455 S
C180 C186 1.390 . S
C181 H172 0.930 . S
C181 C179 1.384 . S
C181 C182 1.372 1_655 S
C182 C181 1.372 1_455 S
C182 C183 1.400 . S
C182 C187 1.490 . S
C183 H173 0.930 . S
C183 C182 1.400 . S
C183 C186 1.386 . S
H184 C200 0.930 . S
H185 C201 0.931 . S
C186 H174 0.929 . S
C186 C180 1.390 . S
C186 C183 1.386 . S
C187 C182 1.490 . S
C187 C189 1.395 1_455 S
C187 C190 1.403 . S
H188 C194 0.930 . S
C189 H175 0.930 . S
C189 C187 1.395 1_655 S
C189 C192 1.403 . S
C190 C187 1.403 . S
C190 C191 1.524 . S
C190 C194 1.400 . S
C191 H176 0.960 . S
C191 H177 0.960 . S
C191 H178 0.960 . S
C191 C190 1.524 . S
C192 C189 1.403 . S
C192 C193 1.392 . S
C192 C196 1.495 . S
C193 C192 1.392 . S
C193 C194 1.385 1_655 S
C193 C195 1.478 . S
C194 H188 0.930 . S
C194 C190 1.400 . S
C194 C193 1.385 1_455 S
C195 C193 1.478 . S
C195 C197 1.381 . S
C195 C201 1.383 1_655 S
C196 C192 1.495 . S
C196 H202 0.959 . S
C196 H203 0.961 . S
C196 H204 0.960 . S
C197 C195 1.381 . S
C197 C198 1.394 . S
C197 H205 0.930 . S
C198 C197 1.394 . S
C198 C199 1.383 . S
C198 H206 0.929 . S
C199 C198 1.383 . S
C199 C200 1.377 1_655 S
C200 H184 0.930 . S
C200 C199 1.377 1_455 S
C200 C201 1.379 . S
C201 H185 0.931 . S
C201 C195 1.383 1_455 S
C201 C200 1.379 . S
H202 C196 0.959 . S
H203 C196 0.961 . S
H204 C196 0.960 . S
H205 C197 0.930 . S
H206 C198 0.929 . S
H207 C215 0.929 . S
H208 C217 0.930 . S
H209 C219 0.930 . S
H210 C222 0.929 . S
H211 C225 0.930 . S
H212 C227 0.960 1_545 S
H213 C227 0.960 . S
H214 C227 0.960 1_545 S
C215 H207 0.929 . S
C215 C216 1.377 . S
C215 C217 1.384 . S
C216 C215 1.377 . S
C216 C222 1.390 1_565 S
C217 H208 0.930 . S
C217 C215 1.384 . S
C217 C218 1.372 . S
C218 C217 1.372 . S
C218 C219 1.400 1_565 S
C218 C223 1.490 . S
C219 H209 0.930 . S
C219 C218 1.400 1_545 S
C219 C222 1.386 . S
H220 C236 0.930 . S
H221 C237 0.931 . S
C222 H210 0.929 . S
C222 C216 1.390 1_545 S
C222 C219 1.386 . S
C223 C218 1.490 . S
C223 C225 1.395 . S
C223 C226 1.403 . S
H224 C230 0.930 . S
C225 H211 0.930 . S
C225 C223 1.395 . S
C225 C228 1.403 . S
C226 C223 1.403 . S
C226 C227 1.524 . S
C226 C230 1.400 . S
C227 H212 0.960 1_565 S
C227 H213 0.960 . S
C227 H214 0.960 1_565 S
C227 C226 1.524 . S
C228 C225 1.403 . S
C228 C229 1.392 . S
C228 C232 1.495 . S
C229 C228 1.392 . S
C229 C230 1.385 . S
C229 C231 1.478 . S
C230 H224 0.930 . S
C230 C226 1.400 . S
C230 C229 1.385 . S
C231 C229 1.478 . S
C231 C233 1.381 . S
C231 C237 1.383 1_565 S
C232 C228 1.495 . S
C232 H238 0.959 . S
C232 H239 0.961 . S
C232 H240 0.960 . S
C233 C231 1.381 . S
C233 C234 1.394 . S
C233 H241 0.930 . S
C234 C233 1.394 . S
C234 C235 1.383 . S
C234 H242 0.929 . S
C235 C234 1.383 . S
C235 C236 1.377 1_565 S
C236 H220 0.930 . S
C236 C235 1.377 1_545 S
C236 C237 1.379 . S
C237 H221 0.931 . S
C237 C231 1.383 1_545 S
C237 C236 1.379 . S
H238 C232 0.959 . S
H239 C232 0.961 . S
H240 C232 0.960 . S
H241 C233 0.930 . S
H242 C234 0.929 . S
H243 C251 0.929 . S
H244 C253 0.930 . S
H245 C255 0.930 1_655 S
H246 C258 0.929 1_655 S
H247 C261 0.930 . S
H248 C263 0.960 . S
H249 C263 0.960 . S
H250 C263 0.960 . S
C251 H243 0.929 . S
C251 C252 1.377 . S
C251 C253 1.384 . S
C252 C251 1.377 . S
C252 C258 1.390 . S
C253 H244 0.930 . S
C253 C251 1.384 . S
C253 C254 1.372 . S
C254 C253 1.372 . S
C254 C255 1.400 . S
C254 C259 1.490 . S
C255 H245 0.930 1_455 S
C255 C254 1.400 . S
C255 C258 1.386 . S
H256 C272 0.930 1_655 S
H257 C273 0.931 1_655 S
C258 H246 0.929 1_455 S
C258 C252 1.390 . S
C258 C255 1.386 . S
C259 C254 1.490 . S
C259 C261 1.395 . S
C259 C262 1.403 . S
H260 C266 0.930 1_655 S
C261 H247 0.930 . S
C261 C259 1.395 . S
C261 C264 1.403 . S
C262 C259 1.403 . S
C262 C263 1.524 1_455 S
C262 C266 1.400 . S
C263 H248 0.960 . S
C263 H249 0.960 . S
C263 H250 0.960 . S
C263 C262 1.524 1_655 S
C264 C261 1.403 . S
C264 C265 1.392 . S
C264 C268 1.495 . S
C265 C264 1.392 . S
C265 C266 1.385 . S
C265 C267 1.478 . S
C266 H260 0.930 1_455 S
C266 C262 1.400 . S
C266 C265 1.385 . S
C267 C265 1.478 . S
C267 C269 1.381 . S
C267 C273 1.383 . S
C268 C264 1.495 . S
C268 H274 0.959 . S
C268 H275 0.961 . S
C268 H276 0.960 . S
C269 C267 1.381 . S
C269 C270 1.394 . S
C269 H277 0.930 . S
C270 C269 1.394 . S
C270 C271 1.383 . S
C270 H278 0.929 . S
C271 C270 1.383 . S
C271 C272 1.377 . S
C272 H256 0.930 1_455 S
C272 C271 1.377 . S
C272 C273 1.379 . S
C273 H257 0.931 1_455 S
C273 C267 1.383 . S
C273 C272 1.379 . S
H274 C268 0.959 . S
H275 C268 0.961 . S
H276 C268 0.960 . S
H277 C269 0.930 . S
H278 C270 0.929 . S
H279 C287 0.929 . S
H280 C289 0.930 . S
H281 C291 0.930 . S
H282 C294 0.929 . S
H283 C297 0.930 1_545 S
H284 C299 0.960 . S
H285 C299 0.960 . S
H286 C299 0.960 . S
C287 H279 0.929 . S
C287 C288 1.363 1_545 S
C287 C289 1.384 . S
C288 C287 1.363 1_565 S
C288 C294 1.403 . S
C289 H280 0.930 . S
C289 C287 1.384 . S
C289 C290 1.372 1_545 S
C290 C289 1.372 1_565 S
C290 C291 1.400 . S
C290 C295 1.490 . S
C291 H281 0.930 . S
C291 C290 1.400 . S
C291 C294 1.386 . S
H292 C308 0.930 . S
H293 C309 0.931 . S
C294 H282 0.929 . S
C294 C288 1.403 . S
C294 C291 1.386 . S
C295 C290 1.490 . S
C295 C297 1.395 . S
C295 C298 1.403 . S
H296 C302 0.930 . S
C297 H283 0.930 1_565 S
C297 C295 1.395 . S
C297 C300 1.403 . S
C298 C295 1.403 . S
C298 C299 1.524 . S
C298 C302 1.400 . S
C299 H284 0.960 . S
C299 H285 0.960 . S
C299 H286 0.960 . S
C299 C298 1.524 . S
C300 C297 1.403 . S
C300 C301 1.392 . S
C300 C304 1.495 . S
C301 C300 1.392 . S
C301 C302 1.385 . S
C301 C303 1.478 . S
C302 H296 0.930 . S
C302 C298 1.400 . S
C302 C301 1.385 . S
C303 C301 1.478 . S
C303 C305 1.381 1_565 S
C303 C309 1.383 . S
C304 C300 1.495 . S
C304 H310 0.959 1_565 S
C304 H311 0.961 . S
C304 H312 0.960 1_565 S
C305 C303 1.381 1_545 S
C305 C306 1.394 . S
C305 H313 0.930 . S
C306 C305 1.394 . S
C306 C307 1.383 1_545 S
C306 H314 0.929 . S
C307 C306 1.383 1_565 S
C307 C308 1.377 . S
C308 H292 0.930 . S
C308 C307 1.377 . S
C308 C309 1.379 . S
C309 H293 0.931 . S
C309 C303 1.383 . S
C309 C308 1.379 . S
H310 C304 0.959 1_545 S
H311 C304 0.961 . S
H312 C304 0.960 1_545 S
H313 C305 0.930 . S
H314 C306 0.929 . S
H315 C323 0.929 . S
H316 C325 0.930 . S
H317 C327 0.930 . S
H318 C330 0.929 . S
H319 C333 0.930 . S
H320 C335 0.960 . S
H321 C335 0.960 1_455 S
H322 C335 0.960 . S
C323 H315 0.929 . S
C323 C324 1.377 . S
C323 C325 1.384 . S
C324 C323 1.377 . S
C324 C330 1.390 1_455 S
C325 H316 0.930 . S
C325 C323 1.384 . S
C325 C326 1.372 . S
C326 C325 1.372 . S
C326 C327 1.400 1_455 S
C326 C331 1.490 . S
C327 H317 0.930 . S
C327 C326 1.400 1_655 S
C327 C330 1.386 . S
H328 C344 0.930 . S
H329 C345 0.931 . S
C330 H318 0.929 . S
C330 C324 1.390 1_655 S
C330 C327 1.386 . S
C331 C326 1.490 . S
C331 C333 1.395 . S
C331 C334 1.403 1_455 S
H332 C338 0.930 . S
C333 H319 0.930 . S
C333 C331 1.395 . S
C333 C336 1.403 . S
C334 C331 1.403 1_655 S
C334 C335 1.524 . S
C334 C338 1.400 . S
C335 H320 0.960 . S
C335 H321 0.960 1_655 S
C335 H322 0.960 . S
C335 C334 1.524 . S
C336 C333 1.403 . S
C336 C337 1.392 1_455 S
C336 C340 1.495 . S
C337 C336 1.392 1_655 S
C337 C338 1.385 . S
C337 C339 1.478 . S
C338 H332 0.930 . S
C338 C334 1.400 . S
C338 C337 1.385 . S
C339 C337 1.478 . S
C339 C341 1.381 1_655 S
C339 C345 1.383 . S
C340 C336 1.495 . S
C340 H346 0.959 . S
C340 H347 0.964 . S
C340 H348 0.960 . S
C341 C339 1.381 1_455 S
C341 C342 1.394 . S
C341 H349 0.930 . S
C342 C341 1.394 . S
C342 C343 1.383 1_455 S
C342 H350 0.929 . S
C343 C342 1.383 1_655 S
C343 C344 1.377 . S
C344 H328 0.930 . S
C344 C343 1.377 . S
C344 C345 1.379 . S
C345 H329 0.931 . S
C345 C339 1.383 . S
C345 C344 1.379 . S
H346 C340 0.959 . S
H347 C340 0.964 . S
H348 C340 0.960 . S
H349 C341 0.930 . S
H350 C342 0.929 . S
H351 C359 0.929 . S
H352 C361 0.930 . S
H353 C363 0.930 . S
H354 C366 0.929 . S
H355 C369 0.930 . S
H356 C371 0.960 . S
H357 C371 0.960 1_545 S
H358 C371 0.960 . S
C359 H351 0.929 . S
C359 C360 1.377 . S
C359 C361 1.384 . S
C360 C359 1.377 . S
C360 C366 1.390 1_545 S
C361 H352 0.930 . S
C361 C359 1.384 . S
C361 C362 1.372 . S
C362 C361 1.372 . S
C362 C363 1.400 1_545 S
C362 C367 1.490 . S
C363 H353 0.930 . S
C363 C362 1.400 1_565 S
C363 C366 1.386 . S
H364 C380 0.930 . S
H365 C381 0.931 . S
C366 H354 0.929 . S
C366 C360 1.390 1_565 S
C366 C363 1.386 . S
C367 C362 1.490 . S
C367 C369 1.395 . S
C367 C370 1.403 . S
H368 C374 0.930 . S
C369 H355 0.930 . S
C369 C367 1.395 . S
C369 C372 1.403 . S
C370 C367 1.403 . S
C370 C371 1.524 1_545 S
C370 C374 1.400 . S
C371 H356 0.960 . S
C371 H357 0.960 1_565 S
C371 H358 0.960 . S
C371 C370 1.524 1_565 S
C372 C369 1.403 . S
C372 C373 1.392 . S
C372 C376 1.495 . S
C373 C372 1.392 . S
C373 C374 1.385 . S
C373 C375 1.478 . S
C374 H368 0.930 . S
C374 C370 1.400 . S
C374 C373 1.385 . S
C375 C373 1.478 . S
C375 C377 1.381 . S
C375 C381 1.383 1_545 S
C376 C372 1.495 . S
C376 H382 0.959 . S
C376 H383 0.961 . S
C376 H384 0.960 . S
C377 C375 1.381 . S
C377 C378 1.394 . S
C377 H385 0.930 . S
C378 C377 1.394 . S
C378 C379 1.383 . S
C378 H386 0.929 . S
C379 C378 1.383 . S
C379 C380 1.377 1_545 S
C380 H364 0.930 . S
C380 C379 1.377 1_565 S
C380 C381 1.379 . S
C381 H365 0.931 . S
C381 C375 1.383 1_565 S
C381 C380 1.379 . S
H382 C376 0.959 . S
H383 C376 0.961 . S
H384 C376 0.960 . S
H385 C377 0.930 . S
H386 C378 0.929 . S
H387 C395 0.929 . S
H388 C397 0.930 . S
H389 C399 0.930 . S
H390 C402 0.929 . S
H391 C405 0.930 . S
H392 C407 0.960 . S
H393 C407 0.960 1_554 S
H394 C407 0.960 . S
C395 H387 0.929 . S
C395 C396 1.377 1_554 S
C395 C397 1.384 . S
C396 C395 1.377 1_556 S
C396 C402 1.390 . S
C397 H388 0.930 . S
C397 C395 1.384 . S
C397 C398 1.372 1_554 S
C398 C397 1.372 1_556 S
C398 C399 1.400 . S
C398 C403 1.492 . S
C399 H389 0.930 . S
C399 C398 1.400 . S
C399 C402 1.386 . S
H400 C416 0.930 . S
H401 C417 0.931 . S
C402 H390 0.929 . S
C402 C396 1.390 . S
C402 C399 1.386 . S
C403 C398 1.492 . S
C403 C405 1.390 1_556 S
C403 C406 1.405 . S
H404 C410 0.930 . S
C405 H391 0.930 . S
C405 C403 1.390 1_554 S
C405 C408 1.403 . S
C406 C403 1.405 . S
C406 C407 1.524 . S
C406 C410 1.400 . S
C407 H392 0.960 . S
C407 H393 0.960 1_556 S
C407 H394 0.960 . S
C407 C406 1.524 . S
C408 C405 1.403 . S
C408 C409 1.392 . S
C408 C412 1.495 . S
C409 C408 1.392 . S
C409 C410 1.385 1_554 S
C409 C411 1.478 . S
C410 H404 0.930 . S
C410 C406 1.400 . S
C410 C409 1.385 1_556 S
C411 C409 1.478 . S
C411 C413 1.381 . S
C411 C417 1.383 1_554 S
C412 C408 1.495 . S
C412 H418 0.959 . S
C412 H419 0.961 1_554 S
C412 H420 0.960 . S
C413 C411 1.381 . S
C413 C414 1.394 . S
C413 H421 0.930 . S
C414 C413 1.394 . S
C414 C415 1.383 . S
C414 H422 0.929 . S
C415 C414 1.383 . S
C415 C416 1.377 1_554 S
C416 H400 0.930 . S
C416 C415 1.377 1_556 S
C416 C417 1.379 . S
C417 H401 0.931 . S
C417 C411 1.383 1_556 S
C417 C416 1.379 . S
H418 C412 0.959 . S
H419 C412 0.961 1_556 S
H420 C412 0.960 . S
H421 C413 0.930 . S
H422 C414 0.929 . S
H423 C431 0.929 1_554 S
H424 C433 0.940 . S
H425 C435 0.930 . S
H426 C438 0.929 . S
H427 C441 0.930 . S
H428 C443 0.960 . S
H429 C443 0.960 . S
H430 C443 0.960 . S
C431 H423 0.929 1_556 S
C431 C432 1.377 . S
C431 C433 1.388 1_556 S
C432 C431 1.377 . S
C432 C438 1.390 . S
C433 H424 0.940 . S
C433 C431 1.388 1_554 S
C433 C434 1.358 1_554 S
C434 C433 1.358 1_556 S
C434 C435 1.400 . S
C434 C439 1.490 . S
C435 H425 0.930 . S
C435 C434 1.400 . S
C435 C438 1.386 . S
H436 C452 0.930 . S
H437 C453 0.931 . S
C438 H426 0.929 . S
C438 C432 1.390 . S
C438 C435 1.386 . S
C439 C434 1.490 . S
C439 C441 1.395 . S
C439 C442 1.403 1_556 S
H440 C446 0.930 . S
C441 H427 0.930 . S
C441 C439 1.395 . S
C441 C444 1.403 . S
C442 C439 1.403 1_554 S
C442 C443 1.524 . S
C442 C446 1.400 . S
C443 H428 0.960 . S
C443 H429 0.960 . S
C443 H430 0.960 . S
C443 C442 1.524 . S
C444 C441 1.403 . S
C444 C445 1.392 1_556 S
C444 C448 1.495 . S
C445 C444 1.392 1_554 S
C445 C446 1.385 . S
C445 C447 1.478 . S
C446 H440 0.930 . S
C446 C442 1.400 . S
C446 C445 1.385 . S
C447 C445 1.478 . S
C447 C449 1.381 . S
C447 C453 1.383 1_554 S
C448 C444 1.495 . S
C448 H454 0.959 . S
C448 H455 0.961 . S
C448 H456 0.960 . S
C449 C447 1.381 . S
C449 C450 1.394 . S
C449 H457 0.930 . S
C450 C449 1.394 . S
C450 C451 1.383 . S
C450 H458 0.929 . S
C451 C450 1.383 . S
C451 C452 1.377 1_554 S
C452 H436 0.930 . S
C452 C451 1.377 1_556 S
C452 C453 1.379 . S
C453 H437 0.931 . S
C453 C447 1.383 1_556 S
C453 C452 1.379 . S
H454 C448 0.959 . S
H455 C448 0.961 . S
H456 C448 0.960 . S
H457 C449 0.930 . S
H458 C450 0.929 . S
H459 C467 0.929 . S
H460 C469 0.930 . S
H461 C471 0.930 . S
H462 C474 0.929 . S
H463 C477 0.930 . S
H464 C479 0.960 . S
H465 C479 0.960 . S
H466 C479 0.960 . S
C467 H459 0.929 . S
C467 C468 1.377 . S
C467 C469 1.384 . S
C468 C467 1.377 . S
C468 C474 1.390 1_556 S
C469 H460 0.930 . S
C469 C467 1.384 . S
C469 C470 1.372 . S
C470 C469 1.372 . S
C470 C471 1.400 1_556 S
C470 C475 1.490 . S
C471 H461 0.930 . S
C471 C470 1.400 1_554 S
C471 C474 1.386 . S
H472 C488 0.930 . S
H473 C489 0.931 . S
C474 H462 0.929 . S
C474 C468 1.390 1_554 S
C474 C471 1.386 . S
C475 C470 1.490 . S
C475 C477 1.395 1_556 S
C475 C478 1.403 . S
H476 C482 0.930 . S
C477 H463 0.930 . S
C477 C475 1.395 1_554 S
C477 C480 1.403 . S
C478 C475 1.403 . S
C478 C479 1.524 . S
C478 C482 1.400 . S
C479 H464 0.960 . S
C479 H465 0.960 . S
C479 H466 0.960 . S
C479 C478 1.524 . S
C480 C477 1.403 . S
C480 C481 1.392 . S
C480 C484 1.495 . S
C481 C480 1.392 . S
C481 C482 1.385 1_554 S
C481 C483 1.478 . S
C482 H476 0.930 . S
C482 C478 1.400 . S
C482 C481 1.385 1_556 S
C483 C481 1.478 . S
C483 C485 1.381 1_554 S
C483 C489 1.383 . S
C484 C480 1.495 . S
C484 H490 0.959 . S
C484 H491 0.961 . S
C484 H492 0.960 . S
C485 C483 1.381 1_556 S
C485 C486 1.394 . S
C485 H493 0.930 . S
C486 C485 1.394 . S
C486 C487 1.383 1_556 S
C486 H494 0.929 . S
C487 C486 1.383 1_554 S
C487 C488 1.377 . S
C488 H472 0.930 . S
C488 C487 1.377 . S
C488 C489 1.379 . S
C489 H473 0.931 . S
C489 C483 1.383 . S
C489 C488 1.379 . S
H490 C484 0.959 . S
H491 C484 0.961 . S
H492 C484 0.960 . S
H493 C485 0.930 . S
H494 C486 0.929 . S
H495 C503 0.929 . S
H496 C505 0.930 . S
H497 C507 0.930 . S
H498 C510 0.929 . S
H499 C513 0.930 . S
H500 C515 0.960 . S
H501 C515 0.960 . S
H502 C515 0.960 . S
C503 H495 0.929 . S
C503 C504 1.377 . S
C503 C505 1.384 . S
C504 C503 1.377 . S
C504 C510 1.390 1_554 S
C505 H496 0.930 . S
C505 C503 1.384 . S
C505 C506 1.372 . S
C506 C505 1.372 . S
C506 C507 1.400 1_554 S
C506 C511 1.490 . S
C507 H497 0.930 . S
C507 C506 1.400 1_556 S
C507 C510 1.386 . S
H508 C524 0.930 . S
H509 C525 0.931 . S
C510 H498 0.929 . S
C510 C504 1.390 1_556 S
C510 C507 1.386 . S
C511 C506 1.490 . S
C511 C513 1.395 . S
C511 C514 1.403 1_554 S
H512 C518 0.930 . S
C513 H499 0.930 . S
C513 C511 1.395 . S
C513 C516 1.403 . S
C514 C511 1.403 1_556 S
C514 C515 1.524 . S
C514 C518 1.400 . S
C515 H500 0.960 . S
C515 H501 0.960 . S
C515 H502 0.960 . S
C515 C514 1.524 . S
C516 C513 1.403 . S
C516 C517 1.392 . S
C516 C520 1.495 . S
C517 C516 1.392 . S
C517 C518 1.385 1_554 S
C517 C519 1.478 . S
C518 H512 0.930 . S
C518 C514 1.400 . S
C518 C517 1.385 1_556 S
C519 C517 1.478 . S
C519 C521 1.381 . S
C519 C525 1.383 1_554 S
C520 C516 1.495 . S
C520 H526 0.959 . S
C520 H527 0.961 . S
C520 H528 0.960 . S
C521 C519 1.381 . S
C521 C522 1.394 . S
C521 H529 0.930 . S
C522 C521 1.394 . S
C522 C523 1.383 1_554 S
C522 H530 0.929 . S
C523 C522 1.383 1_556 S
C523 C524 1.377 . S
C524 H508 0.930 . S
C524 C523 1.377 . S
C524 C525 1.379 . S
C525 H509 0.931 . S
C525 C519 1.383 1_556 S
C525 C524 1.379 . S
H526 C520 0.959 . S
H527 C520 0.961 . S
H528 C520 0.960 . S
H529 C521 0.930 . S
H530 C522 0.929 . S
C108 C87 1.894 . S
C127 C25 1.842 . S
C144 C28 1.060 . S
C163 C56 1.057 . S
C180 C27 0.989 1_455 S
C199 C93 1.002 1_655 S
C216 C58 2.056 . S
C235 C26 1.958 . S
C252 C21 1.858 . S
C271 C91 1.892 . S
C288 C60 1.074 . S
C307 C24 1.045 . S
C324 C89 1.012 1_455 S
C343 C23 0.973 1_655 S
C360 C54 2.058 . S
C379 C22 1.929 . S
C396 C88 2.108 1_556 S
C415 C59 2.138 . S
C432 C94 1.037 . S
C451 C61 1.015 . S
C468 C57 1.061 . S
C487 C90 1.056 . S
C504 C92 2.113 1_554 S
C523 C55 2.149 . S
