# Generated by pormake.
# Topology uoy, (4)-cn, num edge types: 1
# Building blocks:
#     Node 0, Type 0, BuildingBlock: ICAMEG_clean_sbu_1, # of connection points: 4
#     Node 1, Type 0, BuildingBlock: ICAMEG_clean_sbu_1, # of connection points: 4
#     Node 2, Type 0, BuildingBlock: ICAMEG_clean_sbu_1, # of connection points: 4
#     Node 3, Type 0, BuildingBlock: ICAMEG_clean_sbu_1, # of connection points: 4
#     Node 4, Type 0, BuildingBlock: ICAMEG_clean_sbu_1, # of connection points: 4
#     Node 5, Type 0, BuildingBlock: ICAMEG_clean_sbu_1, # of connection points: 4
#     Node 6, Type 0, BuildingBlock: ICAMEG_clean_sbu_1, # of connection points: 4
#     Node 7, Type 0, BuildingBlock: ICAMEG_clean_sbu_1, # of connection points: 4
#     Node 8, Type 0, BuildingBlock: ICAMEG_clean_sbu_1, # of connection points: 4
#     Node 9, Type 0, BuildingBlock: ICAMEG_clean_sbu_1, # of connection points: 4
#     Node 10, Type 0, BuildingBlock: ICAMEG_clean_sbu_1, # of connection points: 4
#     Node 11, Type 0, BuildingBlock: ICAMEG_clean_sbu_1, # of connection points: 4
#     Node 12, Type 0, BuildingBlock: ICAMEG_clean_sbu_1, # of connection points: 4
#     Node 13, Type 0, BuildingBlock: ICAMEG_clean_sbu_1, # of connection points: 4
#     Node 14, Type 0, BuildingBlock: ICAMEG_clean_sbu_1, # of connection points: 4
#     Node 15, Type 0, BuildingBlock: ICAMEG_clean_sbu_1, # of connection points: 4
#     Edge 16, Type (0, 0), BuildingBlock: AJUNOK_clean_linker_0, # of connection points: 2
#     Edge 17, Type (0, 0), BuildingBlock: AJUNOK_clean_linker_0, # of connection points: 2
#     Edge 18, Type (0, 0), BuildingBlock: AJUNOK_clean_linker_0, # of connection points: 2
#     Edge 19, Type (0, 0), BuildingBlock: AJUNOK_clean_linker_0, # of connection points: 2
#     Edge 20, Type (0, 0), BuildingBlock: AJUNOK_clean_linker_0, # of connection points: 2
#     Edge 21, Type (0, 0), BuildingBlock: AJUNOK_clean_linker_0, # of connection points: 2
#     Edge 22, Type (0, 0), BuildingBlock: AJUNOK_clean_linker_0, # of connection points: 2
#     Edge 23, Type (0, 0), BuildingBlock: AJUNOK_clean_linker_0, # of connection points: 2
#     Edge 24, Type (0, 0), BuildingBlock: AJUNOK_clean_linker_0, # of connection points: 2
#     Edge 25, Type (0, 0), BuildingBlock: AJUNOK_clean_linker_0, # of connection points: 2
#     Edge 26, Type (0, 0), BuildingBlock: AJUNOK_clean_linker_0, # of connection points: 2
#     Edge 27, Type (0, 0), BuildingBlock: AJUNOK_clean_linker_0, # of connection points: 2
#     Edge 28, Type (0, 0), BuildingBlock: AJUNOK_clean_linker_0, # of connection points: 2
#     Edge 29, Type (0, 0), BuildingBlock: AJUNOK_clean_linker_0, # of connection points: 2
#     Edge 30, Type (0, 0), BuildingBlock: AJUNOK_clean_linker_0, # of connection points: 2
#     Edge 31, Type (0, 0), BuildingBlock: AJUNOK_clean_linker_0, # of connection points: 2
#     Edge 32, Type (0, 0), BuildingBlock: AJUNOK_clean_linker_0, # of connection points: 2
#     Edge 33, Type (0, 0), BuildingBlock: AJUNOK_clean_linker_0, # of connection points: 2
#     Edge 34, Type (0, 0), BuildingBlock: AJUNOK_clean_linker_0, # of connection points: 2
#     Edge 35, Type (0, 0), BuildingBlock: AJUNOK_clean_linker_0, # of connection points: 2
#     Edge 36, Type (0, 0), BuildingBlock: AJUNOK_clean_linker_0, # of connection points: 2
#     Edge 37, Type (0, 0), BuildingBlock: AJUNOK_clean_linker_0, # of connection points: 2
#     Edge 38, Type (0, 0), BuildingBlock: AJUNOK_clean_linker_0, # of connection points: 2
#     Edge 39, Type (0, 0), BuildingBlock: AJUNOK_clean_linker_0, # of connection points: 2
#     Edge 40, Type (0, 0), BuildingBlock: AJUNOK_clean_linker_0, # of connection points: 2
#     Edge 41, Type (0, 0), BuildingBlock: AJUNOK_clean_linker_0, # of connection points: 2
#     Edge 42, Type (0, 0), BuildingBlock: AJUNOK_clean_linker_0, # of connection points: 2
#     Edge 43, Type (0, 0), BuildingBlock: AJUNOK_clean_linker_0, # of connection points: 2
#     Edge 44, Type (0, 0), BuildingBlock: AJUNOK_clean_linker_0, # of connection points: 2
#     Edge 45, Type (0, 0), BuildingBlock: AJUNOK_clean_linker_0, # of connection points: 2
#     Edge 46, Type (0, 0), BuildingBlock: AJUNOK_clean_linker_0, # of connection points: 2
#     Edge 47, Type (0, 0), BuildingBlock: AJUNOK_clean_linker_0, # of connection points: 2
# Relax obj value: 0.021
# Max RMSD: 0.072
# Mean RMSD: 0.072
data_MOF--net-uoy--node1-ICAMEG_clean_sbu_1--edge1-AJUNOK_clean_linker_0
_symmetry_space_group_name_H-M    P1
_symmetry_Int_Tables_number       1
_symmetry_cell_setting            triclinic
loop_
_symmetry_equiv_pos_as_xyz
'x, y, z'
_cell_length_a     21.768617
_cell_length_b     21.795348
_cell_length_c     88.188497
_cell_angle_alpha  90.019286
_cell_angle_beta   90.032488
_cell_angle_gamma 90.008725
loop_
_atom_site_label
_atom_site_type_symbol
_atom_site_fract_x
_atom_site_fract_y
_atom_site_fract_z
_atom_type_partial_charge
Co0 Co 0.31547 0.20303 0.18893 0.0
Co1 Co 0.25896 0.06109 0.19776 0.0
O2 O 0.25168 0.1397 0.18706 0.0
C3 C 0.29552 0.20238 0.15537 0.0
O4 O 0.29943 0.14225 0.15538 0.0
C5 C 0.13457 0.04704 0.21155 0.0
O6 O 0.16114 0.04591 0.22492 0.0
O7 O 0.26711 0.10625 0.21746 0.0
O8 O 0.33392 0.17869 0.21035 0.0
H9 H 0.3502 0.91789 0.23634 0.0
H10 H 0.19046 0.23752 0.17883 0.0
O11 O 0.29939 0.23191 0.16775 0.0
H12 H 0.22847 0.36055 0.22484 0.0
H13 H 0.40429 0.41451 0.18155 0.0
H14 H 0.44369 0.20536 0.20035 0.0
H15 H 0.30767 0.29001 0.2151 0.0
H16 H 0.32376 0.33521 0.18015 0.0
O17 O 0.16656 0.05747 0.19969 0.0
H18 H 0.34041 0.01476 0.22211 0.0
H19 H 0.19222 0.94075 0.19665 0.0
H20 H 0.52554 0.28317 0.20206 0.0
H21 H 0.11013 0.30809 0.18808 0.0
H22 H 0.506 0.38881 0.19264 0.0
H23 H 0.12891 0.37014 0.21126 0.0
O24 O 0.37843 0.14328 0.1816 0.0
H25 H 0.16809 0.02105 0.14631 0.0
H26 H 0.32813 0.9591 0.18282 0.0
H27 H 0.32139 0.90668 0.1581 0.0
H28 H 0.24092 0.9376 0.13964 0.0
H29 H 0.17654 0.07237 0.17116 0.0
H30 H 0.20026 0.84316 0.21064 0.0
H31 H 0.27975 0.83125 0.23065 0.0
O32 O 0.35059 0.06139 0.19549 0.0
C33 C 0.30681 0.14765 0.2206 0.0
C34 C 0.31535 0.92253 0.22765 0.0
C35 C 0.2312 0.88061 0.21324 0.0
N36 N 0.26567 0.98358 0.20858 0.0
C37 C 0.30956 0.9773 0.21956 0.0
C38 C 0.22678 0.93604 0.20537 0.0
C39 C 0.27581 0.87394 0.22446 0.0
C40 C 0.19906 0.26467 0.18887 0.0
N41 N 0.25376 0.25983 0.19637 0.0
C42 C 0.15337 0.30442 0.19408 0.0
C43 C 0.16391 0.33917 0.20709 0.0
C44 C 0.21974 0.3338 0.21472 0.0
C45 C 0.26435 0.29359 0.20918 0.0
C46 C 0.41331 0.36873 0.18575 0.0
C47 C 0.43481 0.25111 0.19627 0.0
C48 C 0.36788 0.32357 0.18498 0.0
N49 N 0.37873 0.26572 0.19035 0.0
C50 C 0.48136 0.29505 0.19725 0.0
C51 C 0.47037 0.35428 0.19196 0.0
C52 C 0.3888 0.09011 0.18714 0.0
C53 C 0.20322 0.00703 0.15428 0.0
C54 C 0.29295 0.97284 0.17485 0.0
C55 C 0.28931 0.9429 0.16088 0.0
C56 C 0.24415 0.96027 0.15053 0.0
N57 N 0.25252 0.01855 0.17847 0.0
C58 C 0.20812 0.0358 0.16838 0.0
Co59 Co 0.83286 0.8295 0.43961 0.0
Co60 Co 0.96777 0.76021 0.44927 0.0
O61 O 0.89225 0.76229 0.43697 0.0
C62 C 0.82725 0.79866 0.40596 0.0
O63 O 0.87335 0.76015 0.40697 0.0
C64 C 0.9758 0.63073 0.45908 0.0
O65 O 0.97338 0.65101 0.47308 0.0
O66 O 0.91639 0.75892 0.46801 0.0
O67 O 0.85144 0.83431 0.46184 0.0
H68 H 0.1003 0.82174 0.49345 0.0
H69 H 0.79508 0.70958 0.42628 0.0
O70 O 0.80932 0.82848 0.41756 0.0
H71 H 0.65431 0.74393 0.46918 0.0
H72 H 0.634 0.94324 0.43125 0.0
H73 H 0.83646 0.94742 0.45634 0.0
H74 H 0.73426 0.81983 0.46302 0.0
H75 H 0.70625 0.85701 0.42822 0.0
O76 O 0.96804 0.66794 0.44807 0.0
H77 H 0.00761 0.823 0.47743 0.0
H78 H 0.08754 0.69208 0.44774 0.0
H79 H 0.76532 0.03429 0.45979 0.0
H80 H 0.71528 0.63296 0.4319 0.0
H81 H 0.66325 0.03257 0.44719 0.0
H82 H 0.64412 0.64977 0.45351 0.0
O83 O 0.89926 0.88992 0.43505 0.0
H84 H 0.02439 0.69616 0.39635 0.0
H85 H 0.07507 0.83491 0.43872 0.0
H86 H 0.13536 0.84027 0.41512 0.0
H87 H 0.11037 0.77035 0.39374 0.0
H88 H 0.96474 0.69288 0.4201 0.0
H89 H 0.18097 0.68899 0.46351 0.0
H90 H 0.18788 0.75429 0.48655 0.0
O91 O 0.97122 0.85158 0.45048 0.0
C92 C 0.87644 0.79926 0.47164 0.0
C93 C 0.09787 0.79306 0.48345 0.0
C94 C 0.14312 0.71857 0.46665 0.0
N95 N 0.04193 0.75767 0.46163 0.0
C96 C 0.04547 0.79363 0.47431 0.0
C97 C 0.09001 0.72044 0.45776 0.0
C98 C 0.14697 0.75521 0.47957 0.0
C99 C 0.76393 0.71787 0.43555 0.0
N100 N 0.76889 0.7699 0.44412 0.0
C101 C 0.71896 0.67401 0.43875 0.0
C102 C 0.67913 0.6834 0.45089 0.0
C103 C 0.68482 0.7362 0.45968 0.0
C104 C 0.73031 0.77904 0.45615 0.0
C105 C 0.67832 0.9445 0.43681 0.0
C106 C 0.79203 0.94615 0.45087 0.0
C107 C 0.71954 0.89589 0.4351 0.0
N108 N 0.77548 0.89697 0.44216 0.0
C109 C 0.75198 0.99556 0.45285 0.0
C110 C 0.69475 0.99459 0.44576 0.0
C111 C 0.94954 0.89474 0.44237 0.0
C112 C 0.03581 0.72681 0.40559 0.0
C113 C 0.06353 0.8046 0.42944 0.0
C114 C 0.09803 0.80771 0.41612 0.0
C115 C 0.08401 0.76846 0.40413 0.0
N116 N 0.01642 0.76343 0.43082 0.0
C117 C 1.00227 0.72506 0.41908 0.0
Co118 Co 0.17476 0.32874 0.69209 0.0
Co119 Co 0.24325 0.46425 0.70124 0.0
O120 O 0.24459 0.38559 0.69018 0.0
C121 C 0.20762 0.31931 0.65872 0.0
O122 O 0.23296 0.3739 0.65862 0.0
C123 C 0.36941 0.47282 0.71421 0.0
O124 O 0.34442 0.4749 0.72775 0.0
O125 O 0.23464 0.41801 0.72078 0.0
O126 O 0.15914 0.35528 0.71346 0.0
H127 H 0.16503 0.60895 0.74119 0.0
H128 H 0.29533 0.28124 0.68208 0.0
O129 O 0.18571 0.29714 0.67091 0.0
H130 H 0.24516 0.16396 0.72825 0.0
H131 H 0.06275 0.12772 0.68587 0.0
H132 H 0.04673 0.34222 0.70313 0.0
H133 H 0.17362 0.24209 0.71843 0.0
H134 H 0.15193 0.19708 0.68421 0.0
O135 O 0.33581 0.46222 0.70262 0.0
H136 H 0.16798 0.51286 0.72647 0.0
H137 H 0.31537 0.58181 0.69996 0.0
H138 H 0.95648 0.2745 0.70498 0.0
H139 H 0.36792 0.20288 0.6914 0.0
H140 H 0.96413 0.16627 0.69634 0.0
H141 H 0.34301 0.14369 0.71466 0.0
O142 O 0.11926 0.39433 0.68446 0.0
H143 H 0.33217 0.50294 0.64954 0.0
H144 H 0.17935 0.57179 0.68709 0.0
H145 H 0.18736 0.62567 0.66262 0.0
H146 H 0.26449 0.59155 0.64366 0.0
H147 H 0.32193 0.44975 0.67409 0.0
H148 H 0.31423 0.6785 0.71443 0.0
H149 H 0.23859 0.6926 0.73522 0.0
O150 O 0.15149 0.47028 0.69952 0.0
C151 C 0.19099 0.38075 0.72381 0.0
C152 C 0.19831 0.6033 0.73218 0.0
C153 C 0.28204 0.64232 0.71717 0.0
N154 N 0.24216 0.54132 0.71242 0.0
C155 C 0.20028 0.54891 0.72381 0.0
C156 C 0.28261 0.58733 0.70904 0.0
C157 C 0.23959 0.65022 0.72883 0.0
C158 C 0.284 0.2553 0.69214 0.0
N159 N 0.23015 0.26595 0.69963 0.0
C160 C 0.32535 0.21115 0.69739 0.0
C161 C 0.31137 0.17801 0.71046 0.0
C162 C 0.2565 0.18938 0.71809 0.0
C163 C 0.21626 0.23384 0.7125 0.0
C164 C 0.05892 0.17467 0.68975 0.0
C165 C 0.05063 0.29517 0.69941 0.0
C166 C 0.10932 0.21418 0.68887 0.0
N167 N 0.10492 0.27355 0.69377 0.0
C168 C 0.99927 0.25703 0.70046 0.0
C169 C 1.00359 0.19634 0.69561 0.0
C170 C 0.11189 0.447 0.69052 0.0
C171 C 0.29846 0.51834 0.65772 0.0
C172 C 0.21263 0.55623 0.67887 0.0
C173 C 0.21715 0.58714 0.66505 0.0
C174 C 0.26045 0.568 0.65442 0.0
N175 N 0.25031 0.50772 0.68207 0.0
C176 C 0.29257 0.48852 0.67165 0.0
Co177 Co 0.70026 0.68691 0.94092 0.0
Co178 Co 0.56419 0.75254 0.95031 0.0
O179 O 0.64139 0.75437 0.93888 0.0
C180 C 0.69889 0.70256 0.90717 0.0
O181 O 0.6388 0.69706 0.90708 0.0
C182 C 0.55216 0.88037 0.96167 0.0
O183 O 0.55163 0.85806 0.9755 0.0
O184 O 0.61284 0.74857 0.96959 0.0
O185 O 0.67684 0.67336 0.96263 0.0
H186 H 0.42596 0.68124 0.99245 0.0
H187 H 0.74135 0.80843 0.92991 0.0
O188 O 0.72827 0.69923 0.91958 0.0
H189 H 0.87024 0.76523 0.97465 0.0
H190 H 0.90304 0.57986 0.93298 0.0
H191 H 0.69349 0.56115 0.95364 0.0
H192 H 0.79246 0.69072 0.96613 0.0
H193 H 0.83052 0.66643 0.93135 0.0
O194 O 0.56341 0.84499 0.95047 0.0
H195 H 0.52101 0.68415 0.97734 0.0
H196 H 0.44374 0.81943 0.94843 0.0
H197 H 0.76459 0.47355 0.95558 0.0
H198 H 0.81928 0.88399 0.93791 0.0
H199 H 0.87032 0.4826 0.94524 0.0
H200 H 0.88433 0.86263 0.96045 0.0
O201 O 0.63519 0.62783 0.93431 0.0
H202 H 0.52009 0.82637 0.89744 0.0
H203 H 0.45787 0.68193 0.93763 0.0
H204 H 0.40239 0.68189 0.91326 0.0
H205 H 0.43319 0.75472 0.89298 0.0
H206 H 0.57474 0.82448 0.92194 0.0
H207 H 0.34799 0.81843 0.96331 0.0
H208 H 0.33853 0.74879 0.98549 0.0
O209 O 0.56118 0.66098 0.94989 0.0
C210 C 0.65129 0.70604 0.97284 0.0
C211 C 0.42946 0.71171 0.9828 0.0
C212 C 0.38572 0.78869 0.96645 0.0
N213 N 0.48807 0.75164 0.96193 0.0
C214 C 0.4832 0.71347 0.97416 0.0
C215 C 0.44014 0.7891 0.95806 0.0
C216 C 0.38044 0.74963 0.97889 0.0
C217 C 0.76964 0.7987 0.9397 0.0
N218 N 0.76233 0.74512 0.94753 0.0
C219 C 0.81362 0.84171 0.94419 0.0
C220 C 0.85007 0.82972 0.95684 0.0
C221 C 0.84216 0.77512 0.96482 0.0
C222 C 0.79779 0.73317 0.95998 0.0
C223 C 0.85715 0.57539 0.93757 0.0
C224 C 0.73939 0.56555 0.94912 0.0
C225 C 0.81581 0.62426 0.93665 0.0
N226 N 0.75791 0.61917 0.94252 0.0
C227 C 0.77947 0.51573 0.95025 0.0
C228 C 0.83876 0.52084 0.94444 0.0
C229 C 0.58432 0.62016 0.94126 0.0
C230 C 0.506 0.79465 0.90622 0.0
C231 C 0.47164 0.71377 0.92887 0.0
C232 C 0.43998 0.71355 0.91509 0.0
C233 C 0.4573 0.7544 0.90372 0.0
N234 N 0.51896 0.75389 0.93131 0.0
C235 C 0.53662 0.79353 0.92014 0.0
Co236 Co 0.31663 0.34037 0.06527 0.0
Co237 Co 0.26297 0.48185 0.05459 0.0
O238 O 0.25358 0.40527 0.06624 0.0
C239 C 0.29772 0.34318 0.099 0.0
O240 O 0.31044 0.4021 0.0992 0.0
C241 C 0.12597 0.45595 0.05481 0.0
O242 O 0.13403 0.40461 0.0623 0.0
O243 O 0.27317 0.43304 0.03562 0.0
O244 O 0.33841 0.36147 0.04383 0.0
H245 H 0.36593 0.61472 0.0156 0.0
H246 H 0.19109 0.30655 0.07512 0.0
O247 O 0.29701 0.31422 0.0865 0.0
H248 H 0.2316 0.17907 0.03003 0.0
H249 H 0.40325 0.12957 0.07509 0.0
H250 H 0.44435 0.33437 0.05369 0.0
H251 H 0.31023 0.25052 0.03962 0.0
H252 H 0.3235 0.20974 0.07553 0.0
O253 O 0.17181 0.48795 0.05055 0.0
H254 H 0.35269 0.52253 0.03145 0.0
H255 H 0.19406 0.60045 0.05185 0.0
H256 H 0.52531 0.2554 0.05287 0.0
H257 H 0.11136 0.23502 0.06604 0.0
H258 H 0.50501 0.15208 0.06364 0.0
H259 H 0.13131 0.17078 0.0433 0.0
O260 O 0.37944 0.39998 0.07267 0.0
H261 H 0.16987 0.53309 0.10541 0.0
H262 H 0.32628 0.59105 0.06766 0.0
H263 H 0.31524 0.65242 0.09093 0.0
H264 H 0.23653 0.62368 0.11002 0.0
H265 H 0.18228 0.47321 0.08203 0.0
H266 H 0.20541 0.69332 0.03614 0.0
H267 H 0.29195 0.70095 0.01788 0.0
O268 O 0.35385 0.48129 0.0583 0.0
C269 C 0.31223 0.39062 0.03312 0.0
C270 C 0.32817 0.61204 0.02355 0.0
C271 C 0.238 0.65608 0.03506 0.0
N272 N 0.27291 0.55617 0.04266 0.0
C273 C 0.32052 0.56001 0.0326 0.0
C274 C 0.23171 0.60327 0.0439 0.0
C275 C 0.28659 0.66036 0.02482 0.0
C276 C 0.20014 0.27872 0.06523 0.0
N277 N 0.25507 0.28325 0.05783 0.0
C278 C 0.1548 0.23831 0.06013 0.0
C279 C 0.16602 0.20231 0.04737 0.0
C280 C 0.22223 0.207 0.03991 0.0
C281 C 0.26647 0.24789 0.04534 0.0
C282 C 0.41271 0.17443 0.07038 0.0
C283 C 0.43512 0.28958 0.05838 0.0
C284 C 0.36777 0.22014 0.07066 0.0
N285 N 0.37921 0.27685 0.06467 0.0
C286 C 0.48117 0.24501 0.05789 0.0
C287 C 0.46976 0.18707 0.06394 0.0
C288 C 0.3902 0.4533 0.0673 0.0
C289 C 0.2039 0.54651 0.0971 0.0
C290 C 0.29129 0.57856 0.07578 0.0
C291 C 0.28546 0.61343 0.08899 0.0
C292 C 0.24137 0.59724 0.0997 0.0
N293 N 0.25356 0.52948 0.07314 0.0
C294 C 0.21084 0.51291 0.08372 0.0
Co295 Co 0.66583 0.80883 0.3179 0.0
Co296 Co 0.5224 0.75686 0.30597 0.0
O297 O 0.59847 0.74802 0.31794 0.0
C298 C 0.68612 0.83484 0.35036 0.0
O299 O 0.67323 0.8922 0.34709 0.0
C300 C 0.556 0.62214 0.30327 0.0
O301 O 0.60561 0.62963 0.31149 0.0
O302 O 0.57085 0.77718 0.2874 0.0
O303 O 0.65487 0.82531 0.29591 0.0
H304 H 0.38563 0.86612 0.26886 0.0
H305 H 0.69026 0.68548 0.33073 0.0
O306 O 0.68001 0.79355 0.34019 0.0
H307 H 0.83612 0.70759 0.28834 0.0
H308 H 0.87725 0.88767 0.3311 0.0
H309 H 0.68295 0.93258 0.30461 0.0
H310 H 0.76404 0.79096 0.29459 0.0
H311 H 0.79291 0.81225 0.33101 0.0
O312 O 0.52222 0.66775 0.29984 0.0
H313 H 0.477 0.85294 0.28507 0.0
H314 H 0.40911 0.68129 0.30059 0.0
H315 H 0.7661 0.00936 0.30441 0.0
H316 H 0.76245 0.6014 0.32507 0.0
H317 H 0.86416 0.98712 0.31773 0.0
H318 H 0.83594 0.61206 0.30369 0.0
O319 O 0.60632 0.87635 0.3225 0.0
H320 H 0.47527 0.6436 0.35451 0.0
H321 H 0.40603 0.80473 0.31926 0.0
H322 H 0.34424 0.78152 0.3419 0.0
H323 H 0.37856 0.7002 0.35971 0.0
H324 H 0.53583 0.66857 0.33188 0.0
H325 H 0.31746 0.69235 0.28441 0.0
H326 H 0.30514 0.78538 0.26842 0.0
O327 O 0.51763 0.84519 0.31178 0.0
C328 C 0.61952 0.8086 0.2852 0.0
C329 C 0.39034 0.8255 0.27583 0.0
C330 C 0.35217 0.7279 0.28452 0.0
N331 N 0.44832 0.76665 0.29387 0.0
C332 C 0.44185 0.8179 0.28509 0.0
C333 C 0.40434 0.72181 0.29362 0.0
C334 C 0.34526 0.78013 0.27556 0.0
C335 C 0.72249 0.69073 0.32151 0.0
N336 N 0.72294 0.74321 0.31305 0.0
C337 C 0.76308 0.64283 0.31831 0.0
C338 C 0.80422 0.64881 0.3063 0.0
C339 C 0.80429 0.70236 0.29767 0.0
C340 C 0.76307 0.74931 0.30122 0.0
C341 C 0.83469 0.898 0.32529 0.0
C342 C 0.72527 0.92272 0.31051 0.0
C343 C 0.78668 0.85549 0.32522 0.0
N344 N 0.73266 0.86821 0.31793 0.0
C345 C 0.7723 0.96629 0.31032 0.0
C346 C 0.82731 0.95377 0.31779 0.0
C347 C 0.55031 0.88486 0.31869 0.0
C348 C 0.45955 0.67883 0.34677 0.0
C349 C 0.42136 0.76911 0.32688 0.0
C350 C 0.38609 0.75621 0.33972 0.0
C351 C 0.40537 0.71064 0.3497 0.0
N352 N 0.47419 0.7373 0.32395 0.0
C353 C 0.49361 0.69298 0.33382 0.0
Co354 Co 0.21057 0.17092 0.56983 0.0
Co355 Co 0.26063 0.03582 0.55458 0.0
O356 O 0.26973 0.10287 0.56942 0.0
C357 C 0.18044 0.18353 0.60217 0.0
O358 O 0.1237 0.17208 0.59797 0.0
C359 C 0.39769 0.05035 0.55971 0.0
O360 O 0.38895 0.09699 0.56885 0.0
O361 O 0.26254 0.09692 0.53781 0.0
O362 O 0.19594 0.16466 0.54737 0.0
H363 H 0.16825 0.93637 0.50842 0.0
H364 H 0.33267 0.19182 0.58367 0.0
O365 O 0.22362 0.18066 0.59238 0.0
H366 H 0.31607 0.34589 0.54295 0.0
H367 H 0.13122 0.37999 0.58473 0.0
H368 H 0.08554 0.18824 0.55727 0.0
H369 H 0.23099 0.27425 0.54799 0.0
H370 H 0.20712 0.29612 0.58391 0.0
O371 O 0.35261 0.02455 0.55303 0.0
H372 H 0.18077 0.01747 0.52765 0.0
H373 H 0.32169 0.91469 0.54925 0.0
H374 H 0.00831 0.27091 0.55782 0.0
H375 H 0.41866 0.26318 0.57916 0.0
H376 H 0.03099 0.36772 0.5716 0.0
H377 H 0.41074 0.34082 0.55864 0.0
O378 O 0.14408 0.10995 0.5735 0.0
H379 H 0.32268 0.9446 0.60488 0.0
H380 H 0.18129 0.92791 0.56141 0.0
H381 H 0.17305 0.85405 0.58241 0.0
H382 H 0.24439 0.86172 0.60432 0.0
H383 H 0.32836 0.01819 0.58386 0.0
H384 H 0.31096 0.83268 0.53015 0.0
H385 H 0.23356 0.84308 0.5096 0.0
O386 O 0.16896 0.04213 0.55544 0.0
C387 C 0.22447 0.14102 0.53615 0.0
C388 C 0.20206 0.93125 0.51734 0.0
C389 C 0.28221 0.87311 0.52952 0.0
N390 N 0.25177 0.97086 0.53962 0.0
C391 C 0.20932 0.97701 0.52829 0.0
C392 C 0.28824 0.91984 0.54027 0.0
C393 C 0.23876 0.87895 0.518 0.0
C394 C 0.32878 0.22562 0.57476 0.0
N395 N 0.27692 0.22856 0.56607 0.0
C396 C 0.37767 0.26584 0.57224 0.0
C397 C 0.37322 0.30935 0.56072 0.0
C398 C 0.32016 0.31216 0.5519 0.0
C399 C 0.27223 0.27117 0.55475 0.0
C400 C 0.12087 0.33812 0.57864 0.0
C401 C 0.09579 0.23021 0.56329 0.0
C402 C 0.16374 0.29051 0.5781 0.0
N403 N 0.15106 0.23748 0.57041 0.0
C404 C 0.05186 0.27688 0.56356 0.0
C405 C 0.06463 0.33118 0.57129 0.0
C406 C 0.13194 0.06353 0.56527 0.0
C407 C 0.29181 0.94027 0.59531 0.0
C408 C 0.2129 0.93148 0.57083 0.0
C409 C 0.20786 0.8895 0.58272 0.0
C410 C 0.24781 0.89388 0.59501 0.0
N411 N 0.25677 0.97649 0.57108 0.0
C412 C 0.29532 0.98159 0.58324 0.0
Co413 Co 0.83765 0.67981 0.81735 0.0
Co414 Co 0.9728 0.74624 0.8074 0.0
O415 O 0.89495 0.74904 0.81857 0.0
C416 C 0.83808 0.70348 0.85062 0.0
O417 O 0.89839 0.70276 0.85039 0.0
C418 C 0.97975 0.87233 0.79409 0.0
O419 O 0.98144 0.84769 0.7805 0.0
O420 O 0.92523 0.73578 0.78805 0.0
O421 O 0.86301 0.66086 0.79607 0.0
H422 H 0.11593 0.66473 0.76751 0.0
H423 H 0.79201 0.80246 0.82632 0.0
O424 O 0.80808 0.69643 0.83839 0.0
H425 H 0.67102 0.74567 0.78114 0.0
H426 H 0.63639 0.57111 0.82609 0.0
H427 H 0.84812 0.55078 0.80696 0.0
H428 H 0.74907 0.67507 0.79142 0.0
H429 H 0.70714 0.65944 0.82659 0.0
O430 O 0.97078 0.83851 0.80569 0.0
H431 H 0.02042 0.6687 0.78248 0.0
H432 H 0.09003 0.8188 0.80794 0.0
H433 H 0.77887 0.46143 0.80614 0.0
H434 H 0.71384 0.87423 0.8165 0.0
H435 H 0.67204 0.47126 0.81574 0.0
H436 H 0.65281 0.84599 0.79374 0.0
O437 O 0.90331 0.62442 0.82512 0.0
H438 H 0.01242 0.83839 0.85872 0.0
H439 H 0.081 0.68366 0.82163 0.0
H440 H 0.13498 0.69282 0.84609 0.0
H441 H 0.10086 0.77078 0.86483 0.0
H442 H 0.9593 0.82722 0.83418 0.0
H443 H 0.18616 0.81668 0.79321 0.0
H444 H 0.19961 0.73916 0.77281 0.0
O445 O 0.97872 0.65459 0.80962 0.0
C446 C 0.88762 0.69185 0.78544 0.0
C447 C 0.11057 0.6988 0.77635 0.0
C448 C 0.14998 0.78408 0.79076 0.0
N449 N 0.04934 0.74421 0.79603 0.0
C450 C 0.05653 0.70133 0.78486 0.0
C451 C 0.09533 0.78519 0.79905 0.0
C452 C 0.15751 0.74057 0.77933 0.0
C453 C 0.76532 0.78973 0.81646 0.0
N454 N 0.77491 0.73456 0.8095 0.0
C455 C 0.72126 0.8306 0.81093 0.0
C456 C 0.68707 0.81474 0.79815 0.0
C457 C 0.69727 0.75848 0.79108 0.0
C458 C 0.74167 0.71876 0.79693 0.0
C459 C 0.68272 0.56631 0.82181 0.0
C460 C 0.8016 0.55564 0.81103 0.0
C461 C 0.72303 0.61617 0.82207 0.0
N462 N 0.7815 0.6106 0.81659 0.0
C463 C 0.76263 0.50477 0.8106 0.0
C464 C 0.70275 0.5103 0.816 0.0
C465 C 0.95565 0.61603 0.81893 0.0
C466 C 0.02785 0.80437 0.85063 0.0
C467 C 0.06561 0.71746 0.82974 0.0
C468 C 0.09653 0.72259 0.84356 0.0
C469 C 0.0774 0.76636 0.85406 0.0
N470 N 0.0171 0.75499 0.82643 0.0
C471 C 0.99808 0.79796 0.83669 0.0
Co472 Co 0.79798 0.68437 0.69201 0.0
Co473 Co 0.7496 0.53768 0.70263 0.0
O474 O 0.73867 0.61572 0.6916 0.0
C475 C 0.82705 0.70439 0.65971 0.0
O476 O 0.88445 0.69405 0.66352 0.0
C477 C 0.61671 0.57294 0.70785 0.0
O478 O 0.62574 0.62692 0.70171 0.0
O479 O 0.77373 0.5825 0.72155 0.0
O480 O 0.8127 0.67281 0.71408 0.0
H481 H 0.86727 0.39239 0.73602 0.0
H482 H 0.67572 0.70678 0.67821 0.0
O483 O 0.78462 0.69835 0.66961 0.0
H484 H 0.68911 0.85072 0.72123 0.0
H485 H 0.8728 0.89754 0.67951 0.0
H486 H 0.92031 0.7041 0.706 0.0
H487 H 0.77481 0.78062 0.71549 0.0
H488 H 0.79948 0.81136 0.67903 0.0
O489 O 0.66121 0.53574 0.7096 0.0
H490 H 0.85008 0.48782 0.72165 0.0
H491 H 0.6753 0.42318 0.70728 0.0
H492 H 0.99491 0.78915 0.70679 0.0
H493 H 0.58951 0.77711 0.68333 0.0
H494 H 0.97136 0.88675 0.69346 0.0
H495 H 0.59574 0.84956 0.70503 0.0
O496 O 0.86775 0.62715 0.68769 0.0
H497 H 0.6245 0.49939 0.65548 0.0
H498 H 0.79681 0.42615 0.6869 0.0
H499 H 0.7693 0.36987 0.66364 0.0
H500 H 0.68228 0.4062 0.64778 0.0
H501 H 0.65419 0.55473 0.67864 0.0
H502 H 0.69036 0.32743 0.72167 0.0
H503 H 0.78698 0.31144 0.73614 0.0
O504 O 0.8367 0.53446 0.69591 0.0
C505 C 0.80105 0.63326 0.72429 0.0
C506 C 0.82502 0.39875 0.72973 0.0
C507 C 0.72566 0.36239 0.72172 0.0
N508 N 0.7618 0.46119 0.71359 0.0
C509 C 0.8151 0.45263 0.72152 0.0
C510 C 0.71727 0.4169 0.71365 0.0
C511 C 0.77992 0.3534 0.72982 0.0
C512 C 0.67915 0.7387 0.68756 0.0
N513 N 0.73039 0.73962 0.69651 0.0
C514 C 0.63 0.77817 0.69046 0.0
C515 C 0.63348 0.81872 0.70264 0.0
C516 C 0.68581 0.81931 0.71175 0.0
C517 C 0.73407 0.77919 0.70851 0.0
C518 C 0.88364 0.85522 0.68534 0.0
C519 C 0.90976 0.74633 0.70015 0.0
C520 C 0.84231 0.80622 0.68511 0.0
N521 N 0.85568 0.75253 0.69243 0.0
C522 C 0.95216 0.79439 0.70065 0.0
C523 C 0.93892 0.84914 0.69317 0.0
C524 C 0.87653 0.57008 0.69009 0.0
C525 C 0.6623 0.48288 0.66233 0.0
C526 C 0.75902 0.44245 0.68006 0.0
C527 C 0.74357 0.41027 0.6669 0.0
C528 C 0.69477 0.43067 0.65801 0.0
N529 N 0.72671 0.4934 0.68432 0.0
C530 C 0.67915 0.51392 0.67556 0.0
Co531 Co 0.34227 0.31881 0.93821 0.0
Co532 Co 0.47608 0.25995 0.95254 0.0
O533 O 0.40337 0.25183 0.93925 0.0
C534 C 0.34009 0.26171 0.90655 0.0
O535 O 0.38126 0.22 0.91 0.0
C536 C 0.44645 0.12378 0.95263 0.0
O537 O 0.3964 0.13243 0.94462 0.0
O538 O 0.42082 0.27185 0.97027 0.0
O539 O 0.3566 0.3406 0.96015 0.0
H540 H 0.59852 0.36055 0.99403 0.0
H541 H 0.30531 0.19057 0.92984 0.0
O542 O 0.32336 0.30177 0.91623 0.0
H543 H 0.16113 0.25366 0.96988 0.0
H544 H 0.14244 0.41837 0.92306 0.0
H545 H 0.34173 0.44832 0.94859 0.0
H546 H 0.24151 0.32445 0.96104 0.0
H547 H 0.21689 0.33343 0.92482 0.0
O548 O 0.47938 0.16908 0.95675 0.0
H549 H 0.51032 0.34803 0.97678 0.0
H550 H 0.593 0.19016 0.95723 0.0
H551 H 0.26852 0.53435 0.94718 0.0
H552 H 0.2252 0.11888 0.93813 0.0
H553 H 0.16791 0.51962 0.93437 0.0
H554 H 0.15224 0.15005 0.95835 0.0
O555 O 0.40831 0.37658 0.93178 0.0
H556 H 0.54623 0.16145 0.90382 0.0
H557 H 0.58693 0.32533 0.94102 0.0
H558 H 0.6543 0.31473 0.91876 0.0
H559 H 0.63439 0.2321 0.89998 0.0
H560 H 0.47963 0.17419 0.92609 0.0
H561 H 0.68188 0.20072 0.97438 0.0
H562 H 0.68516 0.28657 0.9929 0.0
O563 O 0.47829 0.35041 0.94919 0.0
C564 C 0.3805 0.31404 0.97163 0.0
C565 C 0.5977 0.32304 0.98598 0.0
C566 C 0.64443 0.2333 0.97497 0.0
N567 N 0.54654 0.26864 0.96592 0.0
C568 C 0.5479 0.31577 0.97615 0.0
C569 C 0.59387 0.22745 0.96531 0.0
C570 C 0.64627 0.28149 0.98535 0.0
C571 C 0.27356 0.2052 0.93843 0.0
N572 N 0.27803 0.26231 0.94471 0.0
C573 C 0.22831 0.16405 0.94318 0.0
C574 C 0.18748 0.18149 0.95454 0.0
C575 C 0.19247 0.23957 0.96102 0.0
C576 C 0.2383 0.27946 0.95597 0.0
C577 C 0.18603 0.4253 0.92872 0.0
C578 C 0.29803 0.44144 0.94304 0.0
C579 C 0.22843 0.37739 0.92974 0.0
N580 N 0.28338 0.38562 0.93699 0.0
C581 C 0.25676 0.49039 0.94225 0.0
C582 C 0.20035 0.4821 0.93506 0.0
C583 C 0.45716 0.38718 0.93928 0.0
C584 C 0.55568 0.19737 0.91197 0.0
C585 C 0.57783 0.28918 0.93293 0.0
C586 C 0.61624 0.28342 0.92034 0.0
C587 C 0.60505 0.23708 0.90981 0.0
N588 N 0.52973 0.2497 0.93507 0.0
C589 C 0.51823 0.20455 0.9247 0.0
Co590 Co 0.68684 0.84651 0.19155 0.0
Co591 Co 0.7502 0.97912 0.20469 0.0
O592 O 0.75588 0.9051 0.19195 0.0
C593 C 0.70857 0.85135 0.15796 0.0
O594 O 0.70053 0.91106 0.15811 0.0
C595 C 0.88687 0.94751 0.20431 0.0
O596 O 0.87786 0.89921 0.1957 0.0
O597 O 0.73645 0.92591 0.22281 0.0
O598 O 0.66316 0.86645 0.21296 0.0
H599 H 0.65447 0.10849 0.24554 0.0
H600 H 0.81093 0.80323 0.18305 0.0
O601 O 0.70766 0.82132 0.17031 0.0
H602 H 0.74927 0.67349 0.22624 0.0
H603 H 0.58297 0.64583 0.17923 0.0
H604 H 0.55535 0.85358 0.20026 0.0
H605 H 0.67922 0.75262 0.21628 0.0
H606 H 0.67036 0.71748 0.18074 0.0
O607 O 0.84156 0.9796 0.20889 0.0
H608 H 0.66307 0.01897 0.22858 0.0
H609 H 0.8249 0.09327 0.2089 0.0
H610 H 0.46683 0.78332 0.19905 0.0
H611 H 0.88227 0.72413 0.19256 0.0
H612 H 0.48032 0.67849 0.1885 0.0
H613 H 0.8516 0.65869 0.21434 0.0
O614 O 0.63179 0.91328 0.18411 0.0
H615 H 0.84564 0.03738 0.1546 0.0
H616 H 0.69112 0.09303 0.19304 0.0
H617 H 0.70306 0.1575 0.17032 0.0
H618 H 0.78103 0.13006 0.15092 0.0
H619 H 0.83178 0.97394 0.17734 0.0
H620 H 0.81845 0.18319 0.22579 0.0
H621 H 0.73257 0.19138 0.24423 0.0
O622 O 0.65939 0.98441 0.20107 0.0
C623 C 0.69206 0.88807 0.22434 0.0
C624 C 0.692 0.10554 0.23752 0.0
C625 C 0.78406 0.14742 0.22645 0.0
N626 N 0.74417 0.05097 0.21767 0.0
C627 C 0.69703 0.05501 0.22785 0.0
C628 C 0.78757 0.09625 0.21695 0.0
C629 C 0.73587 0.152 0.23679 0.0
C630 C 0.79722 0.77479 0.1925 0.0
N631 N 0.74109 0.78274 0.19912 0.0
C632 C 0.83782 0.73013 0.19785 0.0
C633 C 0.8206 0.69347 0.21007 0.0
C634 C 0.76322 0.70177 0.21676 0.0
C635 C 0.72384 0.74689 0.21111 0.0
C636 C 0.57653 0.69131 0.1839 0.0
C637 C 0.56173 0.80804 0.19569 0.0
C638 C 0.62586 0.73215 0.18476 0.0
N639 N 0.61823 0.78955 0.19073 0.0
C640 C 0.51136 0.76845 0.19501 0.0
C641 C 0.51895 0.70967 0.18909 0.0
C642 C 0.62244 0.96389 0.19103 0.0
C643 C 0.81205 0.05027 0.16307 0.0
C644 C 0.72561 0.08092 0.18475 0.0
C645 C 0.73199 0.11759 0.17187 0.0
C646 C 0.77568 0.10216 0.16098 0.0
N647 N 0.76214 0.03054 0.18687 0.0
C648 C 0.80439 0.0147 0.1761 0.0
Co649 Co 0.19802 0.19559 0.44165 0.0
Co650 Co 0.05931 0.2513 0.45331 0.0
O651 O 0.13321 0.25859 0.44055 0.0
C652 C 0.18561 0.20909 0.40805 0.0
O653 O 0.12584 0.20296 0.4094 0.0
C654 C 0.08289 0.38809 0.45081 0.0
O655 O 0.13377 0.37944 0.44314 0.0
O656 O 0.11227 0.24859 0.47168 0.0
O657 O 0.18124 0.18003 0.4637 0.0
H658 H 0.9356 0.15919 0.49571 0.0
H659 H 0.22995 0.31801 0.42948 0.0
O660 O 0.21941 0.20887 0.41981 0.0
H661 H 0.3663 0.28849 0.47354 0.0
H662 H 0.40607 0.1046 0.43061 0.0
H663 H 0.20535 0.07127 0.45515 0.0
H664 H 0.293 0.20785 0.46602 0.0
H665 H 0.32624 0.18479 0.42983 0.0
O666 O 0.05155 0.34277 0.45559 0.0
H667 H 0.02555 0.17 0.47897 0.0
H668 H 0.93886 0.31686 0.45561 0.0
H669 H 0.28406 0.99011 0.45633 0.0
H670 H 0.30306 0.39971 0.43652 0.0
H671 H 0.38529 1.0065 0.44399 0.0
H672 H 0.37178 0.38525 0.45873 0.0
O673 O 0.13675 0.13163 0.43589 0.0
H674 H 0.99504 0.32678 0.40168 0.0
H675 H 0.95257 0.17778 0.44239 0.0
H676 H 0.8892 0.17664 0.41925 0.0
H677 H 0.91005 0.25171 0.3987 0.0
H678 H 0.05766 0.32585 0.42488 0.0
H679 H 0.84818 0.30797 0.47222 0.0
H680 H 0.84605 0.22848 0.49239 0.0
O681 O 0.06179 0.16005 0.45181 0.0
C682 C 0.1548 0.20978 0.4743 0.0
C683 C 0.93591 0.19389 0.48693 0.0
C684 C 0.88689 0.27744 0.47376 0.0
N685 N 0.9874 0.24373 0.46624 0.0
C686 C 0.98668 0.20014 0.47738 0.0
C687 C 0.93847 0.28237 0.46442 0.0
C688 C 0.88571 0.23282 0.48508 0.0
C689 C 0.25984 0.31134 0.43913 0.0
N690 N 0.25691 0.25838 0.44737 0.0
C691 C 0.30109 0.35777 0.44307 0.0
C692 C 0.33959 0.34965 0.45554 0.0
C693 C 0.33649 0.29541 0.46387 0.0
C694 C 0.29465 0.25001 0.45959 0.0
C695 C 0.36215 0.09692 0.43604 0.0
C696 C 0.24933 0.07887 0.4498 0.0
C697 C 0.31668 0.14209 0.43559 0.0
N698 N 0.2612 0.13283 0.44247 0.0
C699 C 0.29371 0.03269 0.45048 0.0
C700 C 0.35047 0.0419 0.44355 0.0
C701 C 0.08644 0.12158 0.44283 0.0
C702 C 0.98507 0.29425 0.41062 0.0
C703 C 0.96183 0.21091 0.43356 0.0
C704 C 0.92578 0.20994 0.42046 0.0
C705 C 0.93751 0.25203 0.40894 0.0
N706 N 0.00808 0.2529 0.43523 0.0
C707 C 0.02016 0.29387 0.42389 0.0
Co708 Co 0.83171 0.81936 0.56785 0.0
Co709 Co 0.76848 0.95245 0.55461 0.0
O710 O 0.76555 0.88119 0.56841 0.0
C711 C 0.79394 0.82453 0.60115 0.0
O712 O 0.75755 0.87174 0.59905 0.0
C713 C 0.63283 0.92493 0.55889 0.0
O714 O 0.64476 0.87663 0.56725 0.0
O715 O 0.77144 0.89566 0.53698 0.0
O716 O 0.84401 0.83196 0.54546 0.0
H717 H 0.85093 0.07019 0.51001 0.0
H718 H 0.70975 0.78508 0.58049 0.0
O719 O 0.82413 0.80185 0.59013 0.0
H720 H 0.74744 0.6379 0.53912 0.0
H721 H 0.93563 0.6195 0.58089 0.0
H722 H 0.95607 0.81717 0.5542 0.0
H723 H 0.82404 0.71714 0.54532 0.0
H724 H 0.85075 0.69438 0.58107 0.0
O725 O 0.67609 0.95619 0.553 0.0
H726 H 0.84556 0.98369 0.52795 0.0
H727 H 0.6976 0.0693 0.55117 0.0
H728 H 0.04195 0.7435 0.55367 0.0
H729 H 0.63224 0.70613 0.57483 0.0
H730 H 0.03199 0.64374 0.56706 0.0
H731 H 0.6507 0.6318 0.55397 0.0
O732 O 0.89229 0.88508 0.57251 0.0
H733 H 0.69396 0.02895 0.60536 0.0
H734 H 0.83965 0.06371 0.56347 0.0
H735 H 0.83996 0.13368 0.58538 0.0
H736 H 0.76647 0.11683 0.60651 0.0
H737 H 0.69601 0.95964 0.58341 0.0
H738 H 0.70106 0.15646 0.53337 0.0
H739 H 0.77835 0.15742 0.51266 0.0
O740 O 0.86035 0.95396 0.55548 0.0
C741 C 0.81259 0.85503 0.53466 0.0
C742 C 0.81714 0.07037 0.51901 0.0
C743 C 0.73298 0.11874 0.53211 0.0
N744 N 0.77158 0.02148 0.54067 0.0
C745 C 0.81395 0.02155 0.52924 0.0
C746 C 0.73113 0.06912 0.54213 0.0
C747 C 0.77637 0.11927 0.5205 0.0
C748 C 0.71853 0.75276 0.5715 0.0
N749 N 0.77166 0.75586 0.56331 0.0
C750 C 0.67426 0.70819 0.5683 0.0
C751 C 0.6846 0.66657 0.55658 0.0
C752 C 0.73882 0.67 0.54824 0.0
C753 C 0.78198 0.71522 0.55177 0.0
C754 C 0.94043 0.6627 0.57496 0.0
C755 C 0.95126 0.77379 0.56001 0.0
C756 C 0.89252 0.70532 0.57502 0.0
N757 N 0.89809 0.75983 0.56747 0.0
C758 C 1.00011 0.73228 0.55969 0.0
C759 C 0.9945 0.67634 0.56721 0.0
C760 C 0.90028 0.93383 0.5648 0.0
C761 C 0.72589 0.03711 0.59617 0.0
C762 C 0.80746 0.05586 0.57259 0.0
C763 C 0.80787 0.09578 0.58498 0.0
C764 C 0.76665 0.08631 0.59683 0.0
N765 N 0.76694 0.00792 0.57194 0.0
C766 C 0.72689 0.99812 0.5836 0.0
Co767 Co 0.19418 0.30458 0.81802 0.0
Co768 Co 0.047 0.25265 0.80857 0.0
O769 O 0.12709 0.24281 0.81903 0.0
C770 C 0.1966 0.25932 0.85081 0.0
O771 O 0.15065 0.2214 0.84865 0.0
C772 C 0.07939 0.11788 0.80401 0.0
O773 O 0.13185 0.12434 0.81115 0.0
O774 O 0.08926 0.27436 0.78921 0.0
O775 O 0.17718 0.31961 0.79613 0.0
H776 H 0.89785 0.36621 0.77531 0.0
H777 H 0.22148 0.17723 0.82918 0.0
O778 O 0.21569 0.29381 0.84014 0.0
H779 H 0.36154 0.21085 0.78618 0.0
H780 H 0.40432 0.39018 0.8295 0.0
H781 H 0.2077 0.42619 0.80323 0.0
H782 H 0.28924 0.29161 0.79401 0.0
H783 H 0.32168 0.31299 0.83052 0.0
O784 O 0.04425 0.16385 0.80192 0.0
H785 H 0.99492 0.3508 0.7892 0.0
H786 H 0.93182 0.17812 0.80525 0.0
H787 H 0.28925 0.50441 0.80182 0.0
H788 H 0.29371 0.09594 0.82195 0.0
H789 H 0.38847 0.48666 0.81504 0.0
H790 H 0.36447 0.11219 0.80024 0.0
O791 O 0.13623 0.37204 0.82363 0.0
H792 H 0.01086 0.13153 0.85649 0.0
H793 H 0.93836 0.30294 0.82478 0.0
H794 H 0.8841 0.27885 0.84854 0.0
H795 H 0.92013 0.19235 0.86457 0.0
H796 H 0.06415 0.15785 0.83283 0.0
H797 H 0.83448 0.19136 0.79135 0.0
H798 H 0.81688 0.28604 0.77628 0.0
O799 O 0.04448 0.34074 0.81475 0.0
C800 C 0.13792 0.30452 0.78613 0.0
C801 C 0.9049 0.32483 0.78187 0.0
C802 C 0.86942 0.22663 0.79084 0.0
N803 N 0.96911 0.26374 0.7981 0.0
C804 C 0.95969 0.31594 0.78982 0.0
C805 C 0.9248 0.21928 0.79864 0.0
C806 C 0.85953 0.27979 0.7824 0.0
C807 C 0.25256 0.18554 0.81994 0.0
N808 N 0.25135 0.23989 0.81224 0.0
C809 C 0.29321 0.13889 0.81579 0.0
C810 C 0.33278 0.14796 0.80359 0.0
C811 C 0.33111 0.20325 0.7957 0.0
C812 C 0.28982 0.24881 0.80018 0.0
C813 C 0.36124 0.39851 0.82372 0.0
C814 C 0.25062 0.41813 0.80902 0.0
C815 C 0.31412 0.35508 0.82432 0.0
N816 N 0.25963 0.36514 0.81699 0.0
C817 C 0.2967 0.46259 0.80818 0.0
C818 C 0.35234 0.45261 0.8156 0.0
C819 C 0.07929 0.38067 0.82087 0.0
C820 C 0.99457 0.16922 0.84959 0.0
C821 C 0.9547 0.26554 0.83173 0.0
C822 C 0.92356 0.25193 0.84515 0.0
C823 C 0.94375 0.2034 0.85413 0.0
N824 N 1.00454 0.23183 0.8273 0.0
C825 C 0.02451 0.1842 0.83608 0.0
Co826 Co 0.6831 0.70583 0.06793 0.0
Co827 Co 0.75421 0.57028 0.0601 0.0
O828 O 0.7525 0.64926 0.07079 0.0
C829 C 0.70085 0.70927 0.10168 0.0
O830 O 0.7015 0.64903 0.10206 0.0
C831 C 0.88165 0.56266 0.04834 0.0
O832 O 0.85784 0.56053 0.03467 0.0
O833 O 0.7485 0.61523 0.04042 0.0
O834 O 0.67214 0.67964 0.04629 0.0
H835 H 0.68588 0.42188 0.01982 0.0
H836 H 0.80276 0.75128 0.07925 0.0
O837 O 0.69266 0.73697 0.08918 0.0
H838 H 0.7597 0.87396 0.0335 0.0
H839 H 0.56834 0.90535 0.07386 0.0
H840 H 0.56015 0.69439 0.05375 0.0
H841 H 0.68631 0.79547 0.04221 0.0
H842 H 0.65693 0.83591 0.07669 0.0
O843 O 0.84691 0.57306 0.05973 0.0
H844 H 0.68452 0.51889 0.03416 0.0
H845 H 0.82726 0.45387 0.06278 0.0
H846 H 0.4707 0.76247 0.05054 0.0
H847 H 0.87711 0.82998 0.07109 0.0
H848 H 0.4744 0.86881 0.06064 0.0
H849 H 0.85585 0.89188 0.04803 0.0
O850 O 0.62495 0.64 0.07469 0.0
H851 H 0.83256 0.53634 0.11302 0.0
H852 H 0.68759 0.46392 0.07394 0.0
H853 H 0.69078 0.4121 0.09876 0.0
H854 H 0.7639 0.44805 0.11849 0.0
H855 H 0.8273 0.58738 0.0881 0.0
H856 H 0.83027 0.35618 0.04874 0.0
H857 H 0.7592 0.33966 0.02707 0.0
O858 O 0.66282 0.56364 0.06057 0.0
C859 C 0.70597 0.65259 0.03657 0.0
C860 C 0.71716 0.42855 0.02923 0.0
C861 C 0.79819 0.3917 0.04545 0.0
N862 N 0.7561 0.49243 0.04925 0.0
C863 C 0.71667 0.48347 0.03739 0.0
C864 C 0.79638 0.44722 0.05334 0.0
C865 C 0.7583 0.38245 0.03329 0.0
C866 C 0.79306 0.77818 0.06924 0.0
N867 N 0.74021 0.76868 0.06121 0.0
C868 C 0.83539 0.82262 0.06466 0.0
C869 C 0.82345 0.8573 0.05172 0.0
C870 C 0.76955 0.84724 0.04355 0.0
C871 C 0.72826 0.80247 0.04849 0.0
C872 C 0.56613 0.8591 0.06942 0.0
C873 C 0.56224 0.74063 0.05815 0.0
C874 C 0.6161 0.81945 0.07105 0.0
N875 N 0.61384 0.76109 0.0654 0.0
C876 C 0.51138 0.77896 0.05631 0.0
C877 C 0.51347 0.83859 0.06199 0.0
C878 C 0.62012 0.58699 0.06859 0.0
C879 C 0.80069 0.52006 0.1045 0.0
C880 C 0.71941 0.48003 0.08247 0.0
C881 C 0.72108 0.45039 0.0965 0.0
C882 C 0.76211 0.47058 0.10756 0.0
N883 N 0.75778 0.52824 0.0795 0.0
C884 C 0.79769 0.54862 0.09034 0.0
Co885 Co 0.30799 0.1867 0.31572 0.0
Co886 Co 0.44702 0.25175 0.30768 0.0
O887 O 0.36738 0.25383 0.31805 0.0
C888 C 0.31009 0.20343 0.34929 0.0
O889 O 0.37031 0.20019 0.34882 0.0
C890 C 0.45582 0.37694 0.29452 0.0
O891 O 0.45927 0.35133 0.28108 0.0
O892 O 0.40345 0.243 0.28785 0.0
O893 O 0.33276 0.17283 0.29409 0.0
H894 H 0.59694 0.17323 0.26894 0.0
H895 H 0.26672 0.30812 0.32677 0.0
O896 O 0.27919 0.19894 0.33711 0.0
H897 H 0.14243 0.26749 0.28109 0.0
H898 H 0.10424 0.08099 0.32308 0.0
H899 H 0.31347 0.06235 0.30219 0.0
H900 H 0.2186 0.19195 0.28998 0.0
H901 H 0.17751 0.16689 0.32508 0.0
O902 O 0.44554 0.34394 0.3062 0.0
H903 H 0.49903 0.17593 0.28294 0.0
H904 H 0.56412 0.32394 0.30984 0.0
H905 H 0.24158 0.97546 0.29984 0.0
H906 H 0.19043 0.38468 0.31841 0.0
H907 H 0.13609 0.98444 0.31034 0.0
H908 H 0.12774 0.36461 0.29539 0.0
O909 O 0.37132 0.12669 0.32262 0.0
H910 H 0.47915 0.34127 0.35959 0.0
H911 H 0.55147 0.18676 0.32288 0.0
H912 H 0.60139 0.19415 0.34789 0.0
H913 H 0.56542 0.27202 0.36644 0.0
H914 H 0.42995 0.33173 0.3345 0.0
H915 H 0.66274 0.32291 0.29612 0.0
H916 H 0.67965 0.24714 0.27549 0.0
O917 O 0.45213 0.16045 0.30937 0.0
C918 C 0.3634 0.20266 0.28421 0.0
C919 C 0.59012 0.20651 0.2779 0.0
C920 C 0.62702 0.29052 0.29314 0.0
N921 N 0.52558 0.25029 0.29715 0.0
C922 C 0.53472 0.2083 0.28586 0.0
C923 C 0.57101 0.29097 0.30086 0.0
C924 C 0.63649 0.248 0.28157 0.0
C925 C 0.2394 0.29895 0.31679 0.0
N926 N 0.24709 0.24559 0.30889 0.0
C927 C 0.19636 0.34252 0.31209 0.0
C928 C 0.16124 0.33125 0.29917 0.0
C929 C 0.16949 0.2768 0.29113 0.0
C930 C 0.21291 0.23429 0.29618 0.0
C931 C 0.15007 0.07651 0.31846 0.0
C932 C 0.26758 0.06674 0.30674 0.0
C933 C 0.19184 0.12494 0.31962 0.0
N934 N 0.2497 0.11974 0.31375 0.0
C935 C 0.2271 0.01732 0.3054 0.0
C936 C 0.16796 0.02237 0.3113 0.0
C937 C 0.42539 0.11952 0.31731 0.0
C938 C 0.49536 0.30726 0.35159 0.0
C939 C 0.53522 0.22046 0.3309 0.0
C940 C 0.56386 0.22461 0.34504 0.0
C941 C 0.54369 0.26834 0.35543 0.0
N942 N 0.48791 0.2589 0.32719 0.0
C943 C 0.46783 0.3018 0.33734 0.0
C944 C 0.30712 0.33473 0.12732 0.0
C945 C 0.2908 0.30786 0.11339 0.0
C946 C 0.30719 0.30049 0.14079 0.0
C947 C 0.29126 0.23771 0.14096 0.0
H948 H 0.32165 0.38222 0.1278 0.0
H949 H 0.32156 0.32331 0.15111 0.0
S950 S 0.23807 0.14689 0.10789 0.0
N951 N 0.25268 0.21557 0.10089 0.0
N952 N 0.25424 0.15132 0.12615 0.0
C953 C 0.27272 0.21073 0.12723 0.0
C954 C 0.27204 0.24574 0.1135 0.0
C955 C 0.75119 0.85548 0.38997 0.0
C956 C 0.79173 0.80549 0.39164 0.0
C957 C 0.71594 0.86326 0.37681 0.0
C958 C 0.71891 0.82106 0.36477 0.0
H959 H 0.74705 0.88962 0.39884 0.0
H960 H 0.68649 0.90321 0.37604 0.0
S961 S 0.8163 0.68108 0.36352 0.0
N962 N 0.83182 0.71227 0.38015 0.0
N963 N 0.76518 0.72656 0.35548 0.0
C964 C 0.75832 0.7701 0.36637 0.0
C965 C 0.7949 0.76252 0.37975 0.0
C966 C 0.23954 0.25479 0.61925 0.0
C967 C 0.19124 0.21245 0.61719 0.0
C968 C 0.24467 0.28953 0.63266 0.0
C969 C 0.20225 0.28253 0.64457 0.0
H970 H 0.27234 0.26287 0.61023 0.0
H971 H 0.28202 0.32212 0.63368 0.0
S972 S 0.06839 0.17657 0.64496 0.0
N973 N 0.10129 0.16449 0.62838 0.0
N974 N 0.11051 0.22952 0.65337 0.0
C975 C 0.1546 0.23935 0.64273 0.0
C976 C 0.14925 0.20438 0.62912 0.0
C977 C 0.73972 0.69563 0.86529 0.0
C978 C 0.8034 0.70801 0.86512 0.0
C979 C 0.70593 0.69573 0.87883 0.0
C980 C 0.73425 0.7083 0.8928 0.0
H981 H 0.71566 0.68431 0.85491 0.0
H982 H 0.65754 0.68429 0.87834 0.0
S983 S 0.89839 0.75043 0.89846 0.0
N984 N 0.89241 0.73761 0.88007 0.0
N985 N 0.82912 0.73869 0.90547 0.0
C986 C 0.79743 0.72327 0.89274 0.0
C987 C 0.8319 0.72287 0.87894 0.0
C988 C 0.84942 0.75462 0.61894 0.0
C989 C 0.79951 0.79431 0.61622 0.0
C990 C 0.85666 0.7246 0.63286 0.0
C991 C 0.81396 0.73213 0.64466 0.0
H992 H 0.88403 0.74715 0.61031 0.0
H993 H 0.89655 0.69552 0.6344 0.0
S994 S 0.67401 0.82952 0.64334 0.0
N995 N 0.70582 0.83864 0.62649 0.0
N996 N 0.71916 0.78171 0.65265 0.0
C997 C 0.76307 0.77073 0.64205 0.0
C998 C 0.75603 0.80204 0.62787 0.0
C999 C 0.29036 0.314 0.88454 0.0
C1000 C 0.30639 0.25913 0.89195 0.0
C1001 C 0.25476 0.31354 0.87126 0.0
C1002 C 0.23185 0.25836 0.8652 0.0
H1003 H 0.30574 0.35771 0.889 0.0
H1004 H 0.24441 0.35684 0.86579 0.0
S1005 S 0.25975 0.10223 0.88044 0.0
N1006 N 0.2969 0.14806 0.89222 0.0
N1007 N 0.22811 0.14734 0.86756 0.0
C1008 C 0.247 0.20319 0.87258 0.0
C1009 C 0.28479 0.20353 0.88587 0.0
C1010 C 0.70364 0.71759 0.1301 0.0
C1011 C 0.70752 0.74615 0.11585 0.0
C1012 C 0.70592 0.75188 0.14356 0.0
C1013 C 0.71192 0.81642 0.14343 0.0
H1014 H 0.69747 0.66838 0.13091 0.0
H1015 H 0.70146 0.72732 0.15416 0.0
S1016 S 0.73107 0.91313 0.10914 0.0
N1017 N 0.72335 0.84278 0.10249 0.0
N1018 N 0.72636 0.90691 0.12775 0.0
C1019 C 0.71813 0.8454 0.12928 0.0
C1020 C 0.71625 0.81043 0.11554 0.0
C1021 C 0.2801 0.20506 0.39181 0.0
C1022 C 0.21575 0.21164 0.39289 0.0
C1023 C 0.31014 0.2037 0.37775 0.0
C1024 C 0.27732 0.20902 0.36408 0.0
H1025 H 0.30784 0.19966 0.40191 0.0
H1026 H 0.35948 0.19728 0.37764 0.0
S1027 S 0.10865 0.23298 0.36056 0.0
N1028 N 0.12058 0.22725 0.37899 0.0
N1029 N 0.1768 0.22553 0.35258 0.0
C1030 C 0.21309 0.21774 0.36498 0.0
C1031 C 0.18243 0.2188 0.37934 0.0
C1032 C 0.29 0.13403 0.24868 0.0
C1033 C 0.32349 0.16064 0.23674 0.0
C1034 C 0.3037 0.14745 0.26388 0.0
C1035 C 0.3514 0.18837 0.26791 0.0
H1036 H 0.2524 0.10292 0.2463 0.0
H1037 H 0.27609 0.12557 0.27254 0.0
S1038 S 0.45666 0.26678 0.24106 0.0
N1039 N 0.40942 0.22738 0.23016 0.0
N1040 N 0.43439 0.25261 0.25858 0.0
C1041 C 0.38622 0.21418 0.25611 0.0
C1042 C 0.37248 0.20037 0.24062 0.0
C1043 C 0.81357 0.85254 0.49151 0.0
C1044 C 0.86004 0.80982 0.48786 0.0
C1045 C 0.79795 0.86581 0.50656 0.0
C1046 C 0.82827 0.83742 0.51876 0.0
H1047 H 0.78907 0.87685 0.48268 0.0
H1048 H 0.76226 0.89946 0.50859 0.0
S1049 S 0.95396 0.72217 0.51553 0.0
N1050 N 0.93613 0.73888 0.49783 0.0
N1051 N 0.90763 0.76413 0.52608 0.0
C1052 C 0.87475 0.79427 0.51531 0.0
C1053 C 0.89038 0.78044 0.49992 0.0
C1054 C 0.21843 0.3731 0.75151 0.0
C1055 C 0.17525 0.36525 0.73982 0.0
C1056 C 0.20593 0.35337 0.76637 0.0
C1057 C 0.14976 0.32466 0.7702 0.0
H1058 H 0.26279 0.39342 0.74912 0.0
H1059 H 0.24111 0.36037 0.77487 0.0
S1060 S 0.01858 0.29864 0.74402 0.0
N1061 N 0.07177 0.33119 0.73342 0.0
N1062 N 0.04928 0.2928 0.76105 0.0
C1063 C 0.10561 0.31798 0.75867 0.0
C1064 C 0.11806 0.3386 0.7436 0.0
C1065 C 0.65075 0.71098 0.01607 0.0
C1066 C 0.69281 0.66452 0.02023 0.0
C1067 C 0.63769 0.7242 1.00083 0.0
C1068 C 0.66533 0.69098 0.98901 0.0
H1069 H 0.62742 0.7378 0.02464 0.0
H1070 H 0.60548 0.76073 0.99835 0.0
S1071 S 0.77478 0.56068 0.99373 0.0
N1072 N 0.75981 0.58334 0.01116 0.0
N1073 N 0.73429 0.60637 0.98268 0.0
C1074 C 0.70621 0.64308 0.99302 0.0
C1075 C 0.72013 0.63031 0.00855 0.0
C1076 C 0.37087 0.325 0.0147 0.0
C1077 C 0.32928 0.37364 0.01726 0.0
C1078 C 0.38695 0.30628 1.00002 0.0
C1079 C 0.36257 0.33541 0.98712 0.0
H1080 H 0.39134 0.30057 0.02412 0.0
H1081 H 0.41881 0.26841 0.99883 0.0
S1082 S 0.25472 0.46809 0.98745 0.0
N1083 N 0.26588 0.45224 0.00553 0.0
N1084 N 0.2964 0.4178 0.97799 0.0
C1085 C 0.32184 0.38506 0.98949 0.0
C1086 C 0.30522 0.40397 0.0045 0.0
C1087 C 0.69085 0.86204 0.26706 0.0
C1088 C 0.6364 0.82814 0.26953 0.0
C1089 C 0.70801 0.88191 0.25254 0.0
C1090 C 0.6716 0.86887 0.23978 0.0
H1091 H 0.72094 0.87349 0.27643 0.0
H1092 H 0.75058 0.90717 0.25133 0.0
S1093 S 0.52282 0.78431 0.24002 0.0
N1094 N 0.54527 0.784 0.25788 0.0
N1095 N 0.57676 0.82175 0.23072 0.0
C1096 C 0.61647 0.83581 0.2421 0.0
C1097 C 0.59912 0.81538 0.25689 0.0
C1098 C 0.21744 0.14966 0.49304 0.0
C1099 C 0.17285 0.1953 0.49022 0.0
C1100 C 0.23462 0.13344 0.50783 0.0
C1101 C 0.20809 0.16201 0.52054 0.0
H1102 H 0.23913 0.12545 0.48375 0.0
H1103 H 0.26846 0.09747 0.50924 0.0
S1104 S 0.08995 0.28559 0.51947 0.0
N1105 N 0.10324 0.26966 0.50148 0.0
N1106 N 0.1353 0.23955 0.5292 0.0
C1107 C 0.16397 0.20843 0.51789 0.0
C1108 C 0.14642 0.2249 0.50279 0.0
C1109 C 0.84938 0.70467 0.74339 0.0
C1110 C 0.82323 0.64684 0.73997 0.0
C1111 C 0.87222 0.71843 0.75792 0.0
C1112 C 0.87011 0.67494 0.76965 0.0
H1113 H 0.85199 0.74011 0.73482 0.0
H1114 H 0.89025 0.76396 0.76005 0.0
S1115 S 0.812 0.51479 0.76645 0.0
N1116 N 0.79977 0.54487 0.74957 0.0
N1117 N 0.84415 0.56985 0.77654 0.0
C1118 C 0.84599 0.61633 0.76627 0.0
C1119 C 0.82215 0.60255 0.75157 0.0
C1120 C 0.05406 0.98944 0.19699 0.0
C1121 C 0.07049 0.02408 0.20987 0.0
C1122 C 0.99542 0.96304 0.19555 0.0
C1123 C 0.95019 0.97141 0.20676 0.0
H1124 H 0.08715 0.98159 0.18802 0.0
H1125 H 0.98506 0.93703 0.1854 0.0
S1126 S 0.96903 0.05957 0.24249 0.0
N1127 N 0.03651 0.0653 0.23404 0.0
N1128 N 0.92567 0.01778 0.2311 0.0
C1129 C 0.96569 0.00664 0.2196 0.0
C1130 C 0.02592 0.03234 0.22122 0.0
C1131 C 0.02159 0.46451 0.46557 0.0
C1132 C 0.05688 0.45043 0.45266 0.0
C1133 C 0.99443 0.52245 0.46739 0.0
C1134 C 0.99996 0.56802 0.45617 0.0
H1135 H 0.01556 0.4307 0.47445 0.0
H1136 H 0.96897 0.53162 0.4777 0.0
S1137 S 0.08476 0.55268 0.41978 0.0
N1138 N 0.09459 0.48592 0.42828 0.0
N1139 N 0.04219 0.59399 0.43142 0.0
C1140 C 0.03386 0.55381 0.443 0.0
C1141 C 0.06276 0.49531 0.44133 0.0
C1142 C 0.47667 0.49098 0.72398 0.0
C1143 C 0.43353 0.4954 0.7121 0.0
C1144 C 0.53598 0.51623 0.7226 0.0
C1145 C 0.55342 0.54902 0.70956 0.0
H1146 H 0.46461 0.46759 0.73439 0.0
H1147 H 0.56814 0.5108 0.73189 0.0
S1148 S 0.45915 0.57285 0.67505 0.0
N1149 N 0.41435 0.53333 0.68654 0.0
N1150 N 0.52407 0.58302 0.68439 0.0
C1151 C 0.51103 0.55385 0.69763 0.0
C1152 C 0.45158 0.52647 0.69879 0.0
C1153 C 0.50368 0.0464 0.96823 0.0
C1154 C 0.4713 0.0611 0.95489 0.0
C1155 C 0.53037 0.9882 0.97027 0.0
C1156 C 0.52756 0.94317 0.95884 0.0
H1157 H 0.50789 0.07998 0.97723 0.0
H1158 H 0.55362 0.97854 0.98087 0.0
S1159 S 0.45093 0.96043 0.92137 0.0
N1160 N 0.43912 0.0267 0.92994 0.0
N1161 N 0.49083 0.91857 0.93345 0.0
C1162 C 0.49647 0.95809 0.94528 0.0
C1163 C 0.46791 0.01665 0.9434 0.0
C1164 C 0.04654 0.51432 0.04011 0.0
C1165 C 0.06367 0.48271 0.05335 0.0
C1166 C 0.98814 0.54135 0.03871 0.0
C1167 C 0.94543 0.5397 0.05071 0.0
H1168 H 0.07812 0.51722 0.03064 0.0
H1169 H 0.97629 0.56353 0.02811 0.0
S1170 S 0.97056 0.46691 0.08833 0.0
N1171 N 0.0347 0.45346 0.07892 0.0
N1172 N 0.92634 0.50613 0.07663 0.0
C1173 C 0.96319 0.51011 0.06424 0.0
C1174 C 0.02188 0.48109 0.06547 0.0
C1175 C 0.53893 0.51391 0.3115 0.0
C1176 C 0.53199 0.55961 0.30039 0.0
C1177 C 0.51192 0.45591 0.30975 0.0
C1178 C 0.47828 0.44068 0.29662 0.0
H1179 H 0.5642 0.52345 0.32183 0.0
H1180 H 0.51863 0.42236 0.31866 0.0
S1181 S 0.44637 0.54429 0.26421 0.0
N1182 N 0.48769 0.58646 0.27598 0.0
N1183 N 0.43928 0.47639 0.27236 0.0
C1184 C 0.47131 0.48586 0.28537 0.0
C1185 C 0.4975 0.54555 0.28735 0.0
C1186 C 0.54356 0.97347 0.5456 0.0
C1187 C 0.57087 0.95258 0.55911 0.0
C1188 C 0.48709 1.00487 0.5458 0.0
C1189 C 0.45775 0.01886 0.55958 0.0
H1190 H 0.56596 0.96535 0.53482 0.0
H1191 H 0.46684 0.0193 0.53516 0.0
S1192 S 0.51098 0.97551 0.59805 0.0
N1193 N 0.56402 0.9476 0.58658 0.0
N1194 N 0.45979 0.00918 0.58701 0.0
C1195 C 0.48491 0.99873 0.57314 0.0
C1196 C 0.54108 0.96497 0.5729 0.0
C1197 C 0.06486 0.00801 0.81133 0.0
C1198 C 0.05499 0.05553 0.80084 0.0
C1199 C 0.03835 0.94986 0.80929 0.0
C1200 C 1.00238 0.93612 0.79642 0.0
H1201 H 0.0921 0.0162 0.82142 0.0
H1202 H 0.04721 0.91505 0.81777 0.0
S1203 S 0.96232 0.0448 0.76562 0.0
N1204 N 1.00523 0.08569 0.77732 0.0
N1205 N 0.95806 0.97537 0.77308 0.0
C1206 C 0.99252 0.98313 0.78578 0.0
C1207 C 0.01806 0.04303 0.7881 0.0
C1208 C 0.54718 0.04341 0.19947 0.0
C1209 C 0.56412 0.99834 0.18875 0.0
C1210 C 0.49152 0.07504 0.19836 0.0
C1211 C 0.45104 0.06423 0.1863 0.0
H1212 H 0.57611 0.0532 0.20916 0.0
H1213 H 0.47909 0.10658 0.20734 0.0
S1214 S 0.47325 0.95388 0.15484 0.0
N1215 N 0.53553 0.94598 0.16539 0.0
N1216 N 0.43113 0.00707 0.16322 0.0
C1217 C 0.46748 0.02086 0.17526 0.0
C1218 C 0.52403 0.98766 0.17648 0.0
C1219 C 0.99318 0.98635 0.42892 0.0
C1220 C 0.98378 0.95314 0.44241 0.0
C1221 C 0.02994 0.03948 0.42882 0.0
C1222 C 0.05765 0.06082 0.44221 0.0
H1223 H 0.97265 0.97081 0.41841 0.0
H1224 H 0.03512 0.065 0.41835 0.0
S1225 S 0.04577 0.99173 0.48046 0.0
N1226 N 1.00446 0.94632 0.46948 0.0
N1227 N 0.07282 0.04588 0.46922 0.0
C1228 C 0.04845 0.02814 0.4557 0.0
C1229 C 0.01168 0.97428 0.45581 0.0
C1230 C 0.04556 0.53924 0.69507 0.0
C1231 C 0.05313 0.48086 0.68835 0.0
C1232 C 0.9892 0.57019 0.69457 0.0
C1233 C 0.938 0.54378 0.68748 0.0
H1234 H 0.08277 0.56065 0.70127 0.0
H1235 H 0.98483 0.61338 0.70055 0.0
S1236 S 0.93409 0.39633 0.66654 0.0
N1237 N 1.00503 0.401 0.67307 0.0
N1238 N 0.89918 0.45937 0.67232 0.0
C1239 C 0.94539 0.4873 0.68002 0.0
C1240 C 1.00291 0.45583 0.6804 0.0
C1241 C 0.51603 0.47092 0.92629 0.0
C1242 C 0.48452 0.44871 0.93907 0.0
C1243 C 0.5497 0.52606 0.92705 0.0
C1244 C 0.55214 0.56045 0.94056 0.0
H1245 H 0.51605 0.44475 0.91585 0.0
H1246 H 0.57341 0.54211 0.91701 0.0
S1247 S 0.47787 0.51996 0.97717 0.0
N1248 N 0.45802 0.4642 0.9655 0.0
N1249 N 0.52101 0.56684 0.96705 0.0
C1250 C 0.52045 0.5382 0.95335 0.0
C1251 C 0.48669 0.48254 0.95256 0.0
C1252 C 0.55159 0.50369 0.05896 0.0
C1253 C 0.56183 0.55151 0.06949 0.0
C1254 C 0.49707 0.4698 0.05892 0.0
C1255 C 0.45088 0.48139 0.06957 0.0
H1256 H 0.5852 0.49321 0.05029 0.0
H1257 H 0.49014 0.43575 0.05014 0.0
S1258 S 0.45487 0.59784 0.10016 0.0
N1259 N 0.52109 0.60668 0.09127 0.0
N1260 N 0.41871 0.54161 0.0913 0.0
C1261 C 0.4606 0.52747 0.08045 0.0
C1262 C 0.51605 0.5628 0.0804 0.0
C1263 C 0.51855 0.05354 0.31361 0.0
C1264 C 0.45861 0.06044 0.31953 0.0
C1265 C 0.54982 0.99748 0.31436 0.0
C1266 C 0.52239 0.94585 0.32096 0.0
H1267 H 0.54121 0.09116 0.30787 0.0
H1268 H 0.59437 0.99385 0.30901 0.0
S1269 S 0.37028 0.94001 0.3398 0.0
N1270 N 0.37566 0.0111 0.33347 0.0
N1271 N 0.43495 0.9059 0.33484 0.0
C1272 C 0.4641 0.95248 0.3276 0.0
C1273 C 0.43213 0.00968 0.32692 0.0
C1274 C 0.97909 1.00099 0.55286 0.0
C1275 C 0.95945 0.96707 0.56557 0.0
C1276 C 0.03429 0.03369 0.55306 0.0
C1277 C 0.07108 0.03506 0.5661 0.0
H1278 H 0.95222 1.00138 0.54251 0.0
H1279 H 0.04866 0.05767 0.54289 0.0
S1280 S 0.0412 0.95511 0.60237 0.0
N1281 N 0.98178 0.93706 0.59158 0.0
N1282 N 0.08535 1.00019 0.59198 0.0
C1283 C 0.05206 1.00241 0.57896 0.0
C1284 C 0.99627 0.96789 0.57868 0.0
C1285 C 0.04757 0.54882 0.81459 0.0
C1286 C 0.98948 0.55739 0.82141 0.0
C1287 C 0.07862 0.49262 0.81548 0.0
C1288 C 0.05277 0.44242 0.8231 0.0
H1289 H 0.06869 0.58512 0.80803 0.0
H1290 H 0.12148 0.48756 0.8094 0.0
S1291 S 0.90612 0.4415 0.84443 0.0
N1292 N 0.91034 0.51137 0.83728 0.0
N1293 N 0.96901 0.40586 0.83879 0.0
C1294 C 0.99653 0.45086 0.83061 0.0
C1295 C 0.96488 0.50827 0.82983 0.0
loop_
_geom_bond_atom_site_label_1
_geom_bond_atom_site_label_2
_geom_bond_distance
_geom_bond_site_symmetry_2
_ccdc_geom_bond_type
Co0 O2 2.143 . S
Co0 O8 2.074 . S
Co0 O11 2.093 . S
Co0 O24 2.097 . S
Co0 N41 2.151 . S
Co0 N49 2.214 . S
Co1 O2 2.160 . S
Co1 O7 2.058 . S
Co1 O17 2.057 . S
Co1 O32 2.037 . S
Co1 N36 2.145 1_545 S
Co1 N57 2.257 1_545 S
O2 Co0 2.143 . S
O2 Co1 2.160 . S
C3 O4 1.278 . S
C3 O11 1.224 . S
O4 C3 1.278 . S
C5 O6 1.245 . S
C5 O17 1.232 . S
O6 C5 1.245 . S
O7 Co1 2.058 . S
O7 C33 1.269 . S
O8 Co0 2.074 . S
O8 C33 1.257 . S
H9 C34 0.930 . S
H10 C40 0.930 . S
O11 Co0 2.093 . S
O11 C3 1.224 . S
H12 C44 0.929 . S
H13 C46 0.930 . S
H14 C47 0.930 . S
H15 C45 0.929 . S
H16 C48 0.928 . S
O17 Co1 2.057 . S
O17 C5 1.232 . S
H18 C37 0.929 . S
H19 C38 0.929 . S
H20 C50 0.931 . S
H21 C42 0.929 . S
H22 C51 0.930 . S
H23 C43 0.931 . S
O24 Co0 2.097 . S
O24 C52 1.214 . S
H25 C53 0.929 . S
H26 C54 0.929 . S
H27 C55 0.930 . S
H28 C56 0.929 . S
H29 C58 0.930 1_545 S
H30 C35 0.930 . S
H31 C39 0.930 . S
O32 Co1 2.037 . S
O32 C52 1.234 . S
C33 O7 1.269 . S
C33 O8 1.257 . S
C34 H9 0.930 . S
C34 C37 1.388 . S
C34 C39 1.418 . S
C35 H30 0.930 . S
C35 C38 1.404 . S
C35 C39 1.353 . S
N36 Co1 2.145 1_565 S
N36 C37 1.397 . S
N36 C38 1.334 . S
C37 H18 0.929 . S
C37 C34 1.388 . S
C37 N36 1.397 . S
C38 H19 0.929 . S
C38 C35 1.404 . S
C38 N36 1.334 . S
C39 H31 0.930 . S
C39 C34 1.418 . S
C39 C35 1.353 . S
C40 H10 0.930 . S
C40 N41 1.330 . S
C40 C42 1.446 . S
N41 Co0 2.151 . S
N41 C40 1.330 . S
N41 C45 1.418 . S
C42 H21 0.929 . S
C42 C40 1.446 . S
C42 C43 1.332 . S
C43 H23 0.931 . S
C43 C42 1.332 . S
C43 C44 1.267 . S
C44 H12 0.929 . S
C44 C43 1.267 . S
C44 C45 1.251 . S
C45 H15 0.929 . S
C45 N41 1.418 . S
C45 C44 1.251 . S
C46 H13 0.930 . S
C46 C48 1.406 . S
C46 C51 1.261 . S
C47 H14 0.930 . S
C47 N49 1.325 . S
C47 C50 1.357 . S
C48 H16 0.928 . S
C48 C46 1.406 . S
C48 N49 1.261 . S
N49 Co0 2.214 . S
N49 C47 1.325 . S
N49 C48 1.261 . S
C50 H20 0.931 . S
C50 C47 1.357 . S
C50 C51 1.312 . S
C51 H22 0.930 . S
C51 C46 1.261 . S
C51 C50 1.312 . S
C52 O24 1.214 . S
C52 O32 1.234 . S
C53 H25 0.929 . S
C53 C56 1.391 . S
C53 C58 1.391 . S
C54 H26 0.929 . S
C54 C55 1.390 . S
C54 N57 1.391 . S
C55 H27 0.930 . S
C55 C54 1.390 . S
C55 C56 1.392 . S
C56 H28 0.929 . S
C56 C53 1.391 . S
C56 C55 1.392 . S
N57 Co1 2.257 1_565 S
N57 C54 1.391 . S
N57 C58 1.388 . S
C58 H29 0.930 1_565 S
C58 C53 1.391 . S
C58 N57 1.388 . S
Co59 O61 2.143 . S
Co59 O67 2.074 . S
Co59 O70 2.093 . S
Co59 O83 2.097 . S
Co59 N100 2.151 . S
Co59 N108 2.214 . S
Co60 O61 2.160 . S
Co60 O66 2.058 . S
Co60 O76 2.057 . S
Co60 O91 2.037 . S
Co60 N95 2.145 1_655 S
Co60 N116 2.257 1_655 S
O61 Co59 2.143 . S
O61 Co60 2.160 . S
C62 O63 1.278 . S
C62 O70 1.224 . S
O63 C62 1.278 . S
C64 O65 1.245 . S
C64 O76 1.232 . S
O65 C64 1.245 . S
O66 Co60 2.058 . S
O66 C92 1.269 . S
O67 Co59 2.074 . S
O67 C92 1.257 . S
H68 C93 0.930 . S
H69 C99 0.930 . S
O70 Co59 2.093 . S
O70 C62 1.224 . S
H71 C103 0.929 . S
H72 C105 0.930 . S
H73 C106 0.930 . S
H74 C104 0.929 . S
H75 C107 0.928 . S
O76 Co60 2.057 . S
O76 C64 1.232 . S
H77 C96 0.929 . S
H78 C97 0.929 . S
H79 C109 0.931 1_545 S
H80 C101 0.929 . S
H81 C110 0.930 1_545 S
H82 C102 0.931 . S
O83 Co59 2.097 . S
O83 C111 1.214 . S
H84 C112 0.929 . S
H85 C113 0.929 . S
H86 C114 0.930 . S
H87 C115 0.929 . S
H88 C117 0.930 1_655 S
H89 C94 0.930 . S
H90 C98 0.930 . S
O91 Co60 2.037 . S
O91 C111 1.234 . S
C92 O66 1.269 . S
C92 O67 1.257 . S
C93 H68 0.930 . S
C93 C96 1.388 . S
C93 C98 1.418 . S
C94 H89 0.930 . S
C94 C97 1.404 . S
C94 C98 1.353 . S
N95 Co60 2.145 1_455 S
N95 C96 1.397 . S
N95 C97 1.334 . S
C96 H77 0.929 . S
C96 C93 1.388 . S
C96 N95 1.397 . S
C97 H78 0.929 . S
C97 C94 1.404 . S
C97 N95 1.334 . S
C98 H90 0.930 . S
C98 C93 1.418 . S
C98 C94 1.353 . S
C99 H69 0.930 . S
C99 N100 1.330 . S
C99 C101 1.446 . S
N100 Co59 2.151 . S
N100 C99 1.330 . S
N100 C104 1.418 . S
C101 H80 0.929 . S
C101 C99 1.446 . S
C101 C102 1.332 . S
C102 H82 0.931 . S
C102 C101 1.332 . S
C102 C103 1.267 . S
C103 H71 0.929 . S
C103 C102 1.267 . S
C103 C104 1.251 . S
C104 H74 0.929 . S
C104 N100 1.418 . S
C104 C103 1.251 . S
C105 H72 0.930 . S
C105 C107 1.406 . S
C105 C110 1.261 . S
C106 H73 0.930 . S
C106 N108 1.325 . S
C106 C109 1.357 . S
C107 H75 0.928 . S
C107 C105 1.406 . S
C107 N108 1.261 . S
N108 Co59 2.214 . S
N108 C106 1.325 . S
N108 C107 1.261 . S
C109 H79 0.931 1_565 S
C109 C106 1.357 . S
C109 C110 1.312 . S
C110 H81 0.930 1_565 S
C110 C105 1.261 . S
C110 C109 1.312 . S
C111 O83 1.214 . S
C111 O91 1.234 . S
C112 H84 0.929 . S
C112 C115 1.391 . S
C112 C117 1.391 . S
C113 H85 0.929 . S
C113 C114 1.390 . S
C113 N116 1.391 . S
C114 H86 0.930 . S
C114 C113 1.390 . S
C114 C115 1.392 . S
C115 H87 0.929 . S
C115 C112 1.391 . S
C115 C114 1.392 . S
N116 Co60 2.257 1_455 S
N116 C113 1.391 . S
N116 C117 1.388 . S
C117 H88 0.930 1_455 S
C117 C112 1.391 . S
C117 N116 1.388 . S
Co118 O120 2.143 . S
Co118 O126 2.074 . S
Co118 O129 2.093 . S
Co118 O142 2.097 . S
Co118 N159 2.151 . S
Co118 N167 2.214 . S
Co119 O120 2.160 . S
Co119 O125 2.058 . S
Co119 O135 2.057 . S
Co119 O150 2.037 . S
Co119 N154 2.145 . S
Co119 N175 2.257 . S
O120 Co118 2.143 . S
O120 Co119 2.160 . S
C121 O122 1.278 . S
C121 O129 1.224 . S
O122 C121 1.278 . S
C123 O124 1.245 . S
C123 O135 1.232 . S
O124 C123 1.245 . S
O125 Co119 2.058 . S
O125 C151 1.269 . S
O126 Co118 2.074 . S
O126 C151 1.257 . S
H127 C152 0.930 . S
H128 C158 0.930 . S
O129 Co118 2.093 . S
O129 C121 1.224 . S
H130 C162 0.929 . S
H131 C164 0.930 . S
H132 C165 0.930 . S
H133 C163 0.929 . S
H134 C166 0.928 . S
O135 Co119 2.057 . S
O135 C123 1.232 . S
H136 C155 0.929 . S
H137 C156 0.929 . S
H138 C168 0.931 1_655 S
H139 C160 0.929 . S
H140 C169 0.930 1_655 S
H141 C161 0.931 . S
O142 Co118 2.097 . S
O142 C170 1.214 . S
H143 C171 0.929 . S
H144 C172 0.929 . S
H145 C173 0.930 . S
H146 C174 0.929 . S
H147 C176 0.930 . S
H148 C153 0.930 . S
H149 C157 0.930 . S
O150 Co119 2.037 . S
O150 C170 1.234 . S
C151 O125 1.269 . S
C151 O126 1.257 . S
C152 H127 0.930 . S
C152 C155 1.388 . S
C152 C157 1.418 . S
C153 H148 0.930 . S
C153 C156 1.404 . S
C153 C157 1.353 . S
N154 Co119 2.145 . S
N154 C155 1.397 . S
N154 C156 1.334 . S
C155 H136 0.929 . S
C155 C152 1.388 . S
C155 N154 1.397 . S
C156 H137 0.929 . S
C156 C153 1.404 . S
C156 N154 1.334 . S
C157 H149 0.930 . S
C157 C152 1.418 . S
C157 C153 1.353 . S
C158 H128 0.930 . S
C158 N159 1.330 . S
C158 C160 1.446 . S
N159 Co118 2.151 . S
N159 C158 1.330 . S
N159 C163 1.418 . S
C160 H139 0.929 . S
C160 C158 1.446 . S
C160 C161 1.332 . S
C161 H141 0.931 . S
C161 C160 1.332 . S
C161 C162 1.267 . S
C162 H130 0.929 . S
C162 C161 1.267 . S
C162 C163 1.251 . S
C163 H133 0.929 . S
C163 N159 1.418 . S
C163 C162 1.251 . S
C164 H131 0.930 . S
C164 C166 1.406 . S
C164 C169 1.261 . S
C165 H132 0.930 . S
C165 N167 1.325 . S
C165 C168 1.357 . S
C166 H134 0.928 . S
C166 C164 1.406 . S
C166 N167 1.261 . S
N167 Co118 2.214 . S
N167 C165 1.325 . S
N167 C166 1.261 . S
C168 H138 0.931 1_455 S
C168 C165 1.357 . S
C168 C169 1.312 . S
C169 H140 0.930 1_455 S
C169 C164 1.261 . S
C169 C168 1.312 . S
C170 O142 1.214 . S
C170 O150 1.234 . S
C171 H143 0.929 . S
C171 C174 1.391 . S
C171 C176 1.391 . S
C172 H144 0.929 . S
C172 C173 1.390 . S
C172 N175 1.391 . S
C173 H145 0.930 . S
C173 C172 1.390 . S
C173 C174 1.392 . S
C174 H146 0.929 . S
C174 C171 1.391 . S
C174 C173 1.392 . S
N175 Co119 2.257 . S
N175 C172 1.391 . S
N175 C176 1.388 . S
C176 H147 0.930 . S
C176 C171 1.391 . S
C176 N175 1.388 . S
Co177 O179 2.143 . S
Co177 O185 2.074 . S
Co177 O188 2.093 . S
Co177 O201 2.097 . S
Co177 N218 2.151 . S
Co177 N226 2.214 . S
Co178 O179 2.160 . S
Co178 O184 2.058 . S
Co178 O194 2.057 . S
Co178 O209 2.037 . S
Co178 N213 2.145 . S
Co178 N234 2.257 . S
O179 Co177 2.143 . S
O179 Co178 2.160 . S
C180 O181 1.278 . S
C180 O188 1.224 . S
O181 C180 1.278 . S
C182 O183 1.245 . S
C182 O194 1.232 . S
O183 C182 1.245 . S
O184 Co178 2.058 . S
O184 C210 1.269 . S
O185 Co177 2.074 . S
O185 C210 1.257 . S
H186 C211 0.930 . S
H187 C217 0.930 . S
O188 Co177 2.093 . S
O188 C180 1.224 . S
H189 C221 0.929 . S
H190 C223 0.930 . S
H191 C224 0.930 . S
H192 C222 0.929 . S
H193 C225 0.928 . S
O194 Co178 2.057 . S
O194 C182 1.232 . S
H195 C214 0.929 . S
H196 C215 0.929 . S
H197 C227 0.931 . S
H198 C219 0.929 . S
H199 C228 0.930 . S
H200 C220 0.931 . S
O201 Co177 2.097 . S
O201 C229 1.214 . S
H202 C230 0.929 . S
H203 C231 0.929 . S
H204 C232 0.930 . S
H205 C233 0.929 . S
H206 C235 0.930 . S
H207 C212 0.930 . S
H208 C216 0.930 . S
O209 Co178 2.037 . S
O209 C229 1.234 . S
C210 O184 1.269 . S
C210 O185 1.257 . S
C211 H186 0.930 . S
C211 C214 1.388 . S
C211 C216 1.418 . S
C212 H207 0.930 . S
C212 C215 1.404 . S
C212 C216 1.353 . S
N213 Co178 2.145 . S
N213 C214 1.397 . S
N213 C215 1.334 . S
C214 H195 0.929 . S
C214 C211 1.388 . S
C214 N213 1.397 . S
C215 H196 0.929 . S
C215 C212 1.404 . S
C215 N213 1.334 . S
C216 H208 0.930 . S
C216 C211 1.418 . S
C216 C212 1.353 . S
C217 H187 0.930 . S
C217 N218 1.330 . S
C217 C219 1.446 . S
N218 Co177 2.151 . S
N218 C217 1.330 . S
N218 C222 1.418 . S
C219 H198 0.929 . S
C219 C217 1.446 . S
C219 C220 1.332 . S
C220 H200 0.931 . S
C220 C219 1.332 . S
C220 C221 1.267 . S
C221 H189 0.929 . S
C221 C220 1.267 . S
C221 C222 1.251 . S
C222 H192 0.929 . S
C222 N218 1.418 . S
C222 C221 1.251 . S
C223 H190 0.930 . S
C223 C225 1.406 . S
C223 C228 1.261 . S
C224 H191 0.930 . S
C224 N226 1.325 . S
C224 C227 1.357 . S
C225 H193 0.928 . S
C225 C223 1.406 . S
C225 N226 1.261 . S
N226 Co177 2.214 . S
N226 C224 1.325 . S
N226 C225 1.261 . S
C227 H197 0.931 . S
C227 C224 1.357 . S
C227 C228 1.312 . S
C228 H199 0.930 . S
C228 C223 1.261 . S
C228 C227 1.312 . S
C229 O201 1.214 . S
C229 O209 1.234 . S
C230 H202 0.929 . S
C230 C233 1.391 . S
C230 C235 1.391 . S
C231 H203 0.929 . S
C231 C232 1.390 . S
C231 N234 1.391 . S
C232 H204 0.930 . S
C232 C231 1.390 . S
C232 C233 1.392 . S
C233 H205 0.929 . S
C233 C230 1.391 . S
C233 C232 1.392 . S
N234 Co178 2.257 . S
N234 C231 1.391 . S
N234 C235 1.388 . S
C235 H206 0.930 . S
C235 C230 1.391 . S
C235 N234 1.388 . S
Co236 O238 2.143 . S
Co236 O244 2.074 . S
Co236 O247 2.093 . S
Co236 O260 2.097 . S
Co236 N277 2.151 . S
Co236 N285 2.214 . S
Co237 O238 2.160 . S
Co237 O243 2.058 . S
Co237 O253 2.057 . S
Co237 O268 2.037 . S
Co237 N272 2.145 . S
Co237 N293 2.257 . S
O238 Co236 2.143 . S
O238 Co237 2.160 . S
C239 O240 1.278 . S
C239 O247 1.224 . S
O240 C239 1.278 . S
C241 O242 1.245 . S
C241 O253 1.232 . S
O242 C241 1.245 . S
O243 Co237 2.058 . S
O243 C269 1.269 . S
O244 Co236 2.074 . S
O244 C269 1.257 . S
H245 C270 0.930 . S
H246 C276 0.930 . S
O247 Co236 2.093 . S
O247 C239 1.224 . S
H248 C280 0.929 . S
H249 C282 0.930 . S
H250 C283 0.930 . S
H251 C281 0.929 . S
H252 C284 0.928 . S
O253 Co237 2.057 . S
O253 C241 1.232 . S
H254 C273 0.929 . S
H255 C274 0.929 . S
H256 C286 0.931 . S
H257 C278 0.929 . S
H258 C287 0.930 . S
H259 C279 0.931 . S
O260 Co236 2.097 . S
O260 C288 1.214 . S
H261 C289 0.929 . S
H262 C290 0.929 . S
H263 C291 0.930 . S
H264 C292 0.929 . S
H265 C294 0.930 . S
H266 C271 0.930 . S
H267 C275 0.930 . S
O268 Co237 2.037 . S
O268 C288 1.234 . S
C269 O243 1.269 . S
C269 O244 1.257 . S
C270 H245 0.930 . S
C270 C273 1.388 . S
C270 C275 1.418 . S
C271 H266 0.930 . S
C271 C274 1.404 . S
C271 C275 1.353 . S
N272 Co237 2.145 . S
N272 C273 1.397 . S
N272 C274 1.334 . S
C273 H254 0.929 . S
C273 C270 1.388 . S
C273 N272 1.397 . S
C274 H255 0.929 . S
C274 C271 1.404 . S
C274 N272 1.334 . S
C275 H267 0.930 . S
C275 C270 1.418 . S
C275 C271 1.353 . S
C276 H246 0.930 . S
C276 N277 1.330 . S
C276 C278 1.446 . S
N277 Co236 2.151 . S
N277 C276 1.330 . S
N277 C281 1.418 . S
C278 H257 0.929 . S
C278 C276 1.446 . S
C278 C279 1.332 . S
C279 H259 0.931 . S
C279 C278 1.332 . S
C279 C280 1.267 . S
C280 H248 0.929 . S
C280 C279 1.267 . S
C280 C281 1.251 . S
C281 H251 0.929 . S
C281 N277 1.418 . S
C281 C280 1.251 . S
C282 H249 0.930 . S
C282 C284 1.406 . S
C282 C287 1.261 . S
C283 H250 0.930 . S
C283 N285 1.325 . S
C283 C286 1.357 . S
C284 H252 0.928 . S
C284 C282 1.406 . S
C284 N285 1.261 . S
N285 Co236 2.214 . S
N285 C283 1.325 . S
N285 C284 1.261 . S
C286 H256 0.931 . S
C286 C283 1.357 . S
C286 C287 1.312 . S
C287 H258 0.930 . S
C287 C282 1.261 . S
C287 C286 1.312 . S
C288 O260 1.214 . S
C288 O268 1.234 . S
C289 H261 0.929 . S
C289 C292 1.391 . S
C289 C294 1.391 . S
C290 H262 0.929 . S
C290 C291 1.390 . S
C290 N293 1.391 . S
C291 H263 0.930 . S
C291 C290 1.390 . S
C291 C292 1.392 . S
C292 H264 0.929 . S
C292 C289 1.391 . S
C292 C291 1.392 . S
N293 Co237 2.257 . S
N293 C290 1.391 . S
N293 C294 1.388 . S
C294 H265 0.930 . S
C294 C289 1.391 . S
C294 N293 1.388 . S
Co295 O297 2.143 . S
Co295 O303 2.074 . S
Co295 O306 2.093 . S
Co295 O319 2.097 . S
Co295 N336 2.151 . S
Co295 N344 2.214 . S
Co296 O297 2.160 . S
Co296 O302 2.058 . S
Co296 O312 2.057 . S
Co296 O327 2.037 . S
Co296 N331 2.145 . S
Co296 N352 2.257 . S
O297 Co295 2.143 . S
O297 Co296 2.160 . S
C298 O299 1.278 . S
C298 O306 1.224 . S
O299 C298 1.278 . S
C300 O301 1.245 . S
C300 O312 1.232 . S
O301 C300 1.245 . S
O302 Co296 2.058 . S
O302 C328 1.269 . S
O303 Co295 2.074 . S
O303 C328 1.257 . S
H304 C329 0.930 . S
H305 C335 0.930 . S
O306 Co295 2.093 . S
O306 C298 1.224 . S
H307 C339 0.929 . S
H308 C341 0.930 . S
H309 C342 0.930 . S
H310 C340 0.929 . S
H311 C343 0.928 . S
O312 Co296 2.057 . S
O312 C300 1.232 . S
H313 C332 0.929 . S
H314 C333 0.929 . S
H315 C345 0.931 1_545 S
H316 C337 0.929 . S
H317 C346 0.930 1_545 S
H318 C338 0.931 . S
O319 Co295 2.097 . S
O319 C347 1.214 . S
H320 C348 0.929 . S
H321 C349 0.929 . S
H322 C350 0.930 . S
H323 C351 0.929 . S
H324 C353 0.930 . S
H325 C330 0.930 . S
H326 C334 0.930 . S
O327 Co296 2.037 . S
O327 C347 1.234 . S
C328 O302 1.269 . S
C328 O303 1.257 . S
C329 H304 0.930 . S
C329 C332 1.388 . S
C329 C334 1.418 . S
C330 H325 0.930 . S
C330 C333 1.404 . S
C330 C334 1.353 . S
N331 Co296 2.145 . S
N331 C332 1.397 . S
N331 C333 1.334 . S
C332 H313 0.929 . S
C332 C329 1.388 . S
C332 N331 1.397 . S
C333 H314 0.929 . S
C333 C330 1.404 . S
C333 N331 1.334 . S
C334 H326 0.930 . S
C334 C329 1.418 . S
C334 C330 1.353 . S
C335 H305 0.930 . S
C335 N336 1.330 . S
C335 C337 1.446 . S
N336 Co295 2.151 . S
N336 C335 1.330 . S
N336 C340 1.418 . S
C337 H316 0.929 . S
C337 C335 1.446 . S
C337 C338 1.332 . S
C338 H318 0.931 . S
C338 C337 1.332 . S
C338 C339 1.267 . S
C339 H307 0.929 . S
C339 C338 1.267 . S
C339 C340 1.251 . S
C340 H310 0.929 . S
C340 N336 1.418 . S
C340 C339 1.251 . S
C341 H308 0.930 . S
C341 C343 1.406 . S
C341 C346 1.261 . S
C342 H309 0.930 . S
C342 N344 1.325 . S
C342 C345 1.357 . S
C343 H311 0.928 . S
C343 C341 1.406 . S
C343 N344 1.261 . S
N344 Co295 2.214 . S
N344 C342 1.325 . S
N344 C343 1.261 . S
C345 H315 0.931 1_565 S
C345 C342 1.357 . S
C345 C346 1.312 . S
C346 H317 0.930 1_565 S
C346 C341 1.261 . S
C346 C345 1.312 . S
C347 O319 1.214 . S
C347 O327 1.234 . S
C348 H320 0.929 . S
C348 C351 1.391 . S
C348 C353 1.391 . S
C349 H321 0.929 . S
C349 C350 1.390 . S
C349 N352 1.391 . S
C350 H322 0.930 . S
C350 C349 1.390 . S
C350 C351 1.392 . S
C351 H323 0.929 . S
C351 C348 1.391 . S
C351 C350 1.392 . S
N352 Co296 2.257 . S
N352 C349 1.391 . S
N352 C353 1.388 . S
C353 H324 0.930 . S
C353 C348 1.391 . S
C353 N352 1.388 . S
Co354 O356 2.143 . S
Co354 O362 2.074 . S
Co354 O365 2.093 . S
Co354 O378 2.097 . S
Co354 N395 2.151 . S
Co354 N403 2.214 . S
Co355 O356 2.160 . S
Co355 O361 2.058 . S
Co355 O371 2.057 . S
Co355 O386 2.037 . S
Co355 N390 2.145 1_545 S
Co355 N411 2.257 1_545 S
O356 Co354 2.143 . S
O356 Co355 2.160 . S
C357 O358 1.278 . S
C357 O365 1.224 . S
O358 C357 1.278 . S
C359 O360 1.245 . S
C359 O371 1.232 . S
O360 C359 1.245 . S
O361 Co355 2.058 . S
O361 C387 1.269 . S
O362 Co354 2.074 . S
O362 C387 1.257 . S
H363 C388 0.930 . S
H364 C394 0.930 . S
O365 Co354 2.093 . S
O365 C357 1.224 . S
H366 C398 0.929 . S
H367 C400 0.930 . S
H368 C401 0.930 . S
H369 C399 0.929 . S
H370 C402 0.928 . S
O371 Co355 2.057 . S
O371 C359 1.232 . S
H372 C391 0.929 . S
H373 C392 0.929 . S
H374 C404 0.931 1_655 S
H375 C396 0.929 . S
H376 C405 0.930 1_655 S
H377 C397 0.931 . S
O378 Co354 2.097 . S
O378 C406 1.214 . S
H379 C407 0.929 . S
H380 C408 0.929 . S
H381 C409 0.930 . S
H382 C410 0.929 . S
H383 C412 0.930 1_545 S
H384 C389 0.930 . S
H385 C393 0.930 . S
O386 Co355 2.037 . S
O386 C406 1.234 . S
C387 O361 1.269 . S
C387 O362 1.257 . S
C388 H363 0.930 . S
C388 C391 1.388 . S
C388 C393 1.418 . S
C389 H384 0.930 . S
C389 C392 1.404 . S
C389 C393 1.353 . S
N390 Co355 2.145 1_565 S
N390 C391 1.397 . S
N390 C392 1.334 . S
C391 H372 0.929 . S
C391 C388 1.388 . S
C391 N390 1.397 . S
C392 H373 0.929 . S
C392 C389 1.404 . S
C392 N390 1.334 . S
C393 H385 0.930 . S
C393 C388 1.418 . S
C393 C389 1.353 . S
C394 H364 0.930 . S
C394 N395 1.330 . S
C394 C396 1.446 . S
N395 Co354 2.151 . S
N395 C394 1.330 . S
N395 C399 1.418 . S
C396 H375 0.929 . S
C396 C394 1.446 . S
C396 C397 1.332 . S
C397 H377 0.931 . S
C397 C396 1.332 . S
C397 C398 1.267 . S
C398 H366 0.929 . S
C398 C397 1.267 . S
C398 C399 1.251 . S
C399 H369 0.929 . S
C399 N395 1.418 . S
C399 C398 1.251 . S
C400 H367 0.930 . S
C400 C402 1.406 . S
C400 C405 1.261 . S
C401 H368 0.930 . S
C401 N403 1.325 . S
C401 C404 1.357 . S
C402 H370 0.928 . S
C402 C400 1.406 . S
C402 N403 1.261 . S
N403 Co354 2.214 . S
N403 C401 1.325 . S
N403 C402 1.261 . S
C404 H374 0.931 1_455 S
C404 C401 1.357 . S
C404 C405 1.312 . S
C405 H376 0.930 1_455 S
C405 C400 1.261 . S
C405 C404 1.312 . S
C406 O378 1.214 . S
C406 O386 1.234 . S
C407 H379 0.929 . S
C407 C410 1.391 . S
C407 C412 1.391 . S
C408 H380 0.929 . S
C408 C409 1.390 . S
C408 N411 1.391 . S
C409 H381 0.930 . S
C409 C408 1.390 . S
C409 C410 1.392 . S
C410 H382 0.929 . S
C410 C407 1.391 . S
C410 C409 1.392 . S
N411 Co355 2.257 1_565 S
N411 C408 1.391 . S
N411 C412 1.388 . S
C412 H383 0.930 1_565 S
C412 C407 1.391 . S
C412 N411 1.388 . S
Co413 O415 2.143 . S
Co413 O421 2.074 . S
Co413 O424 2.093 . S
Co413 O437 2.097 . S
Co413 N454 2.151 . S
Co413 N462 2.214 . S
Co414 O415 2.160 . S
Co414 O420 2.058 . S
Co414 O430 2.057 . S
Co414 O445 2.037 . S
Co414 N449 2.145 1_655 S
Co414 N470 2.257 1_655 S
O415 Co413 2.143 . S
O415 Co414 2.160 . S
C416 O417 1.278 . S
C416 O424 1.224 . S
O417 C416 1.278 . S
C418 O419 1.245 . S
C418 O430 1.232 . S
O419 C418 1.245 . S
O420 Co414 2.058 . S
O420 C446 1.269 . S
O421 Co413 2.074 . S
O421 C446 1.257 . S
H422 C447 0.930 . S
H423 C453 0.930 . S
O424 Co413 2.093 . S
O424 C416 1.224 . S
H425 C457 0.929 . S
H426 C459 0.930 . S
H427 C460 0.930 . S
H428 C458 0.929 . S
H429 C461 0.928 . S
O430 Co414 2.057 . S
O430 C418 1.232 . S
H431 C450 0.929 . S
H432 C451 0.929 . S
H433 C463 0.931 . S
H434 C455 0.929 . S
H435 C464 0.930 . S
H436 C456 0.931 . S
O437 Co413 2.097 . S
O437 C465 1.214 . S
H438 C466 0.929 . S
H439 C467 0.929 . S
H440 C468 0.930 . S
H441 C469 0.929 . S
H442 C471 0.930 1_655 S
H443 C448 0.930 . S
H444 C452 0.930 . S
O445 Co414 2.037 . S
O445 C465 1.234 . S
C446 O420 1.269 . S
C446 O421 1.257 . S
C447 H422 0.930 . S
C447 C450 1.388 . S
C447 C452 1.418 . S
C448 H443 0.930 . S
C448 C451 1.404 . S
C448 C452 1.353 . S
N449 Co414 2.145 1_455 S
N449 C450 1.397 . S
N449 C451 1.334 . S
C450 H431 0.929 . S
C450 C447 1.388 . S
C450 N449 1.397 . S
C451 H432 0.929 . S
C451 C448 1.404 . S
C451 N449 1.334 . S
C452 H444 0.930 . S
C452 C447 1.418 . S
C452 C448 1.353 . S
C453 H423 0.930 . S
C453 N454 1.330 . S
C453 C455 1.446 . S
N454 Co413 2.151 . S
N454 C453 1.330 . S
N454 C458 1.418 . S
C455 H434 0.929 . S
C455 C453 1.446 . S
C455 C456 1.332 . S
C456 H436 0.931 . S
C456 C455 1.332 . S
C456 C457 1.267 . S
C457 H425 0.929 . S
C457 C456 1.267 . S
C457 C458 1.251 . S
C458 H428 0.929 . S
C458 N454 1.418 . S
C458 C457 1.251 . S
C459 H426 0.930 . S
C459 C461 1.406 . S
C459 C464 1.261 . S
C460 H427 0.930 . S
C460 N462 1.325 . S
C460 C463 1.357 . S
C461 H429 0.928 . S
C461 C459 1.406 . S
C461 N462 1.261 . S
N462 Co413 2.214 . S
N462 C460 1.325 . S
N462 C461 1.261 . S
C463 H433 0.931 . S
C463 C460 1.357 . S
C463 C464 1.312 . S
C464 H435 0.930 . S
C464 C459 1.261 . S
C464 C463 1.312 . S
C465 O437 1.214 . S
C465 O445 1.234 . S
C466 H438 0.929 . S
C466 C469 1.391 . S
C466 C471 1.391 . S
C467 H439 0.929 . S
C467 C468 1.390 . S
C467 N470 1.391 . S
C468 H440 0.930 . S
C468 C467 1.390 . S
C468 C469 1.392 . S
C469 H441 0.929 . S
C469 C466 1.391 . S
C469 C468 1.392 . S
N470 Co414 2.257 1_455 S
N470 C467 1.391 . S
N470 C471 1.388 . S
C471 H442 0.930 1_455 S
C471 C466 1.391 . S
C471 N470 1.388 . S
Co472 O474 2.143 . S
Co472 O480 2.074 . S
Co472 O483 2.093 . S
Co472 O496 2.097 . S
Co472 N513 2.151 . S
Co472 N521 2.214 . S
Co473 O474 2.160 . S
Co473 O479 2.058 . S
Co473 O489 2.057 . S
Co473 O504 2.037 . S
Co473 N508 2.145 . S
Co473 N529 2.257 . S
O474 Co472 2.143 . S
O474 Co473 2.160 . S
C475 O476 1.278 . S
C475 O483 1.224 . S
O476 C475 1.278 . S
C477 O478 1.245 . S
C477 O489 1.232 . S
O478 C477 1.245 . S
O479 Co473 2.058 . S
O479 C505 1.269 . S
O480 Co472 2.074 . S
O480 C505 1.257 . S
H481 C506 0.930 . S
H482 C512 0.930 . S
O483 Co472 2.093 . S
O483 C475 1.224 . S
H484 C516 0.929 . S
H485 C518 0.930 . S
H486 C519 0.930 . S
H487 C517 0.929 . S
H488 C520 0.928 . S
O489 Co473 2.057 . S
O489 C477 1.232 . S
H490 C509 0.929 . S
H491 C510 0.929 . S
H492 C522 0.931 1_455 S
H493 C514 0.929 . S
H494 C523 0.930 1_455 S
H495 C515 0.931 . S
O496 Co472 2.097 . S
O496 C524 1.214 . S
H497 C525 0.929 . S
H498 C526 0.929 . S
H499 C527 0.930 . S
H500 C528 0.929 . S
H501 C530 0.930 . S
H502 C507 0.930 . S
H503 C511 0.930 . S
O504 Co473 2.037 . S
O504 C524 1.234 . S
C505 O479 1.269 . S
C505 O480 1.257 . S
C506 H481 0.930 . S
C506 C509 1.388 . S
C506 C511 1.418 . S
C507 H502 0.930 . S
C507 C510 1.404 . S
C507 C511 1.353 . S
N508 Co473 2.145 . S
N508 C509 1.397 . S
N508 C510 1.334 . S
C509 H490 0.929 . S
C509 C506 1.388 . S
C509 N508 1.397 . S
C510 H491 0.929 . S
C510 C507 1.404 . S
C510 N508 1.334 . S
C511 H503 0.930 . S
C511 C506 1.418 . S
C511 C507 1.353 . S
C512 H482 0.930 . S
C512 N513 1.330 . S
C512 C514 1.446 . S
N513 Co472 2.151 . S
N513 C512 1.330 . S
N513 C517 1.418 . S
C514 H493 0.929 . S
C514 C512 1.446 . S
C514 C515 1.332 . S
C515 H495 0.931 . S
C515 C514 1.332 . S
C515 C516 1.267 . S
C516 H484 0.929 . S
C516 C515 1.267 . S
C516 C517 1.251 . S
C517 H487 0.929 . S
C517 N513 1.418 . S
C517 C516 1.251 . S
C518 H485 0.930 . S
C518 C520 1.406 . S
C518 C523 1.261 . S
C519 H486 0.930 . S
C519 N521 1.325 . S
C519 C522 1.357 . S
C520 H488 0.928 . S
C520 C518 1.406 . S
C520 N521 1.261 . S
N521 Co472 2.214 . S
N521 C519 1.325 . S
N521 C520 1.261 . S
C522 H492 0.931 1_655 S
C522 C519 1.357 . S
C522 C523 1.312 . S
C523 H494 0.930 1_655 S
C523 C518 1.261 . S
C523 C522 1.312 . S
C524 O496 1.214 . S
C524 O504 1.234 . S
C525 H497 0.929 . S
C525 C528 1.391 . S
C525 C530 1.391 . S
C526 H498 0.929 . S
C526 C527 1.390 . S
C526 N529 1.391 . S
C527 H499 0.930 . S
C527 C526 1.390 . S
C527 C528 1.392 . S
C528 H500 0.929 . S
C528 C525 1.391 . S
C528 C527 1.392 . S
N529 Co473 2.257 . S
N529 C526 1.391 . S
N529 C530 1.388 . S
C530 H501 0.930 . S
C530 C525 1.391 . S
C530 N529 1.388 . S
Co531 O533 2.143 . S
Co531 O539 2.074 . S
Co531 O542 2.093 . S
Co531 O555 2.097 . S
Co531 N572 2.151 . S
Co531 N580 2.214 . S
Co532 O533 2.160 . S
Co532 O538 2.058 . S
Co532 O548 2.057 . S
Co532 O563 2.037 . S
Co532 N567 2.145 . S
Co532 N588 2.257 . S
O533 Co531 2.143 . S
O533 Co532 2.160 . S
C534 O535 1.278 . S
C534 O542 1.224 . S
O535 C534 1.278 . S
C536 O537 1.245 . S
C536 O548 1.232 . S
O537 C536 1.245 . S
O538 Co532 2.058 . S
O538 C564 1.269 . S
O539 Co531 2.074 . S
O539 C564 1.257 . S
H540 C565 0.930 . S
H541 C571 0.930 . S
O542 Co531 2.093 . S
O542 C534 1.224 . S
H543 C575 0.929 . S
H544 C577 0.930 . S
H545 C578 0.930 . S
H546 C576 0.929 . S
H547 C579 0.928 . S
O548 Co532 2.057 . S
O548 C536 1.232 . S
H549 C568 0.929 . S
H550 C569 0.929 . S
H551 C581 0.931 . S
H552 C573 0.929 . S
H553 C582 0.930 . S
H554 C574 0.931 . S
O555 Co531 2.097 . S
O555 C583 1.214 . S
H556 C584 0.929 . S
H557 C585 0.929 . S
H558 C586 0.930 . S
H559 C587 0.929 . S
H560 C589 0.930 . S
H561 C566 0.930 . S
H562 C570 0.930 . S
O563 Co532 2.037 . S
O563 C583 1.234 . S
C564 O538 1.269 . S
C564 O539 1.257 . S
C565 H540 0.930 . S
C565 C568 1.388 . S
C565 C570 1.418 . S
C566 H561 0.930 . S
C566 C569 1.404 . S
C566 C570 1.353 . S
N567 Co532 2.145 . S
N567 C568 1.397 . S
N567 C569 1.334 . S
C568 H549 0.929 . S
C568 C565 1.388 . S
C568 N567 1.397 . S
C569 H550 0.929 . S
C569 C566 1.404 . S
C569 N567 1.334 . S
C570 H562 0.930 . S
C570 C565 1.418 . S
C570 C566 1.353 . S
C571 H541 0.930 . S
C571 N572 1.330 . S
C571 C573 1.446 . S
N572 Co531 2.151 . S
N572 C571 1.330 . S
N572 C576 1.418 . S
C573 H552 0.929 . S
C573 C571 1.446 . S
C573 C574 1.332 . S
C574 H554 0.931 . S
C574 C573 1.332 . S
C574 C575 1.267 . S
C575 H543 0.929 . S
C575 C574 1.267 . S
C575 C576 1.251 . S
C576 H546 0.929 . S
C576 N572 1.418 . S
C576 C575 1.251 . S
C577 H544 0.930 . S
C577 C579 1.406 . S
C577 C582 1.261 . S
C578 H545 0.930 . S
C578 N580 1.325 . S
C578 C581 1.357 . S
C579 H547 0.928 . S
C579 C577 1.406 . S
C579 N580 1.261 . S
N580 Co531 2.214 . S
N580 C578 1.325 . S
N580 C579 1.261 . S
C581 H551 0.931 . S
C581 C578 1.357 . S
C581 C582 1.312 . S
C582 H553 0.930 . S
C582 C577 1.261 . S
C582 C581 1.312 . S
C583 O555 1.214 . S
C583 O563 1.234 . S
C584 H556 0.929 . S
C584 C587 1.391 . S
C584 C589 1.391 . S
C585 H557 0.929 . S
C585 C586 1.390 . S
C585 N588 1.391 . S
C586 H558 0.930 . S
C586 C585 1.390 . S
C586 C587 1.392 . S
C587 H559 0.929 . S
C587 C584 1.391 . S
C587 C586 1.392 . S
N588 Co532 2.257 . S
N588 C585 1.391 . S
N588 C589 1.388 . S
C589 H560 0.930 . S
C589 C584 1.391 . S
C589 N588 1.388 . S
Co590 O592 2.143 . S
Co590 O598 2.074 . S
Co590 O601 2.093 . S
Co590 O614 2.097 . S
Co590 N631 2.151 . S
Co590 N639 2.214 . S
Co591 O592 2.160 . S
Co591 O597 2.058 . S
Co591 O607 2.057 . S
Co591 O622 2.037 . S
Co591 N626 2.145 1_565 S
Co591 N647 2.257 1_565 S
O592 Co590 2.143 . S
O592 Co591 2.160 . S
C593 O594 1.278 . S
C593 O601 1.224 . S
O594 C593 1.278 . S
C595 O596 1.245 . S
C595 O607 1.232 . S
O596 C595 1.245 . S
O597 Co591 2.058 . S
O597 C623 1.269 . S
O598 Co590 2.074 . S
O598 C623 1.257 . S
H599 C624 0.930 . S
H600 C630 0.930 . S
O601 Co590 2.093 . S
O601 C593 1.224 . S
H602 C634 0.929 . S
H603 C636 0.930 . S
H604 C637 0.930 . S
H605 C635 0.929 . S
H606 C638 0.928 . S
O607 Co591 2.057 . S
O607 C595 1.232 . S
H608 C627 0.929 . S
H609 C628 0.929 . S
H610 C640 0.931 . S
H611 C632 0.929 . S
H612 C641 0.930 . S
H613 C633 0.931 . S
O614 Co590 2.097 . S
O614 C642 1.214 . S
H615 C643 0.929 . S
H616 C644 0.929 . S
H617 C645 0.930 . S
H618 C646 0.929 . S
H619 C648 0.930 1_565 S
H620 C625 0.930 . S
H621 C629 0.930 . S
O622 Co591 2.037 . S
O622 C642 1.234 . S
C623 O597 1.269 . S
C623 O598 1.257 . S
C624 H599 0.930 . S
C624 C627 1.388 . S
C624 C629 1.418 . S
C625 H620 0.930 . S
C625 C628 1.404 . S
C625 C629 1.353 . S
N626 Co591 2.145 1_545 S
N626 C627 1.397 . S
N626 C628 1.334 . S
C627 H608 0.929 . S
C627 C624 1.388 . S
C627 N626 1.397 . S
C628 H609 0.929 . S
C628 C625 1.404 . S
C628 N626 1.334 . S
C629 H621 0.930 . S
C629 C624 1.418 . S
C629 C625 1.353 . S
C630 H600 0.930 . S
C630 N631 1.330 . S
C630 C632 1.446 . S
N631 Co590 2.151 . S
N631 C630 1.330 . S
N631 C635 1.418 . S
C632 H611 0.929 . S
C632 C630 1.446 . S
C632 C633 1.332 . S
C633 H613 0.931 . S
C633 C632 1.332 . S
C633 C634 1.267 . S
C634 H602 0.929 . S
C634 C633 1.267 . S
C634 C635 1.251 . S
C635 H605 0.929 . S
C635 N631 1.418 . S
C635 C634 1.251 . S
C636 H603 0.930 . S
C636 C638 1.406 . S
C636 C641 1.261 . S
C637 H604 0.930 . S
C637 N639 1.325 . S
C637 C640 1.357 . S
C638 H606 0.928 . S
C638 C636 1.406 . S
C638 N639 1.261 . S
N639 Co590 2.214 . S
N639 C637 1.325 . S
N639 C638 1.261 . S
C640 H610 0.931 . S
C640 C637 1.357 . S
C640 C641 1.312 . S
C641 H612 0.930 . S
C641 C636 1.261 . S
C641 C640 1.312 . S
C642 O614 1.214 . S
C642 O622 1.234 . S
C643 H615 0.929 . S
C643 C646 1.391 . S
C643 C648 1.391 . S
C644 H616 0.929 . S
C644 C645 1.390 . S
C644 N647 1.391 . S
C645 H617 0.930 . S
C645 C644 1.390 . S
C645 C646 1.392 . S
C646 H618 0.929 . S
C646 C643 1.391 . S
C646 C645 1.392 . S
N647 Co591 2.257 1_545 S
N647 C644 1.391 . S
N647 C648 1.388 . S
C648 H619 0.930 1_545 S
C648 C643 1.391 . S
C648 N647 1.388 . S
Co649 O651 2.143 . S
Co649 O657 2.074 . S
Co649 O660 2.093 . S
Co649 O673 2.097 . S
Co649 N690 2.151 . S
Co649 N698 2.214 . S
Co650 O651 2.160 . S
Co650 O656 2.058 . S
Co650 O666 2.057 . S
Co650 O681 2.037 . S
Co650 N685 2.145 1_455 S
Co650 N706 2.257 1_455 S
O651 Co649 2.143 . S
O651 Co650 2.160 . S
C652 O653 1.278 . S
C652 O660 1.224 . S
O653 C652 1.278 . S
C654 O655 1.245 . S
C654 O666 1.232 . S
O655 C654 1.245 . S
O656 Co650 2.058 . S
O656 C682 1.269 . S
O657 Co649 2.074 . S
O657 C682 1.257 . S
H658 C683 0.930 . S
H659 C689 0.930 . S
O660 Co649 2.093 . S
O660 C652 1.224 . S
H661 C693 0.929 . S
H662 C695 0.930 . S
H663 C696 0.930 . S
H664 C694 0.929 . S
H665 C697 0.928 . S
O666 Co650 2.057 . S
O666 C654 1.232 . S
H667 C686 0.929 . S
H668 C687 0.929 . S
H669 C699 0.931 1_565 S
H670 C691 0.929 . S
H671 C700 0.930 1_565 S
H672 C692 0.931 . S
O673 Co649 2.097 . S
O673 C701 1.214 . S
H674 C702 0.929 . S
H675 C703 0.929 . S
H676 C704 0.930 . S
H677 C705 0.929 . S
H678 C707 0.930 1_455 S
H679 C684 0.930 . S
H680 C688 0.930 . S
O681 Co650 2.037 . S
O681 C701 1.234 . S
C682 O656 1.269 . S
C682 O657 1.257 . S
C683 H658 0.930 . S
C683 C686 1.388 . S
C683 C688 1.418 . S
C684 H679 0.930 . S
C684 C687 1.404 . S
C684 C688 1.353 . S
N685 Co650 2.145 1_655 S
N685 C686 1.397 . S
N685 C687 1.334 . S
C686 H667 0.929 . S
C686 C683 1.388 . S
C686 N685 1.397 . S
C687 H668 0.929 . S
C687 C684 1.404 . S
C687 N685 1.334 . S
C688 H680 0.930 . S
C688 C683 1.418 . S
C688 C684 1.353 . S
C689 H659 0.930 . S
C689 N690 1.330 . S
C689 C691 1.446 . S
N690 Co649 2.151 . S
N690 C689 1.330 . S
N690 C694 1.418 . S
C691 H670 0.929 . S
C691 C689 1.446 . S
C691 C692 1.332 . S
C692 H672 0.931 . S
C692 C691 1.332 . S
C692 C693 1.267 . S
C693 H661 0.929 . S
C693 C692 1.267 . S
C693 C694 1.251 . S
C694 H664 0.929 . S
C694 N690 1.418 . S
C694 C693 1.251 . S
C695 H662 0.930 . S
C695 C697 1.406 . S
C695 C700 1.261 . S
C696 H663 0.930 . S
C696 N698 1.325 . S
C696 C699 1.357 . S
C697 H665 0.928 . S
C697 C695 1.406 . S
C697 N698 1.261 . S
N698 Co649 2.214 . S
N698 C696 1.325 . S
N698 C697 1.261 . S
C699 H669 0.931 1_545 S
C699 C696 1.357 . S
C699 C700 1.312 . S
C700 H671 0.930 1_545 S
C700 C695 1.261 . S
C700 C699 1.312 . S
C701 O673 1.214 . S
C701 O681 1.234 . S
C702 H674 0.929 . S
C702 C705 1.391 . S
C702 C707 1.391 . S
C703 H675 0.929 . S
C703 C704 1.390 . S
C703 N706 1.391 . S
C704 H676 0.930 . S
C704 C703 1.390 . S
C704 C705 1.392 . S
C705 H677 0.929 . S
C705 C702 1.391 . S
C705 C704 1.392 . S
N706 Co650 2.257 1_655 S
N706 C703 1.391 . S
N706 C707 1.388 . S
C707 H678 0.930 1_655 S
C707 C702 1.391 . S
C707 N706 1.388 . S
Co708 O710 2.143 . S
Co708 O716 2.074 . S
Co708 O719 2.093 . S
Co708 O732 2.097 . S
Co708 N749 2.151 . S
Co708 N757 2.214 . S
Co709 O710 2.160 . S
Co709 O715 2.058 . S
Co709 O725 2.057 . S
Co709 O740 2.037 . S
Co709 N744 2.145 1_565 S
Co709 N765 2.257 1_565 S
O710 Co708 2.143 . S
O710 Co709 2.160 . S
C711 O712 1.278 . S
C711 O719 1.224 . S
O712 C711 1.278 . S
C713 O714 1.245 . S
C713 O725 1.232 . S
O714 C713 1.245 . S
O715 Co709 2.058 . S
O715 C741 1.269 . S
O716 Co708 2.074 . S
O716 C741 1.257 . S
H717 C742 0.930 . S
H718 C748 0.930 . S
O719 Co708 2.093 . S
O719 C711 1.224 . S
H720 C752 0.929 . S
H721 C754 0.930 . S
H722 C755 0.930 . S
H723 C753 0.929 . S
H724 C756 0.928 . S
O725 Co709 2.057 . S
O725 C713 1.232 . S
H726 C745 0.929 . S
H727 C746 0.929 . S
H728 C758 0.931 1_455 S
H729 C750 0.929 . S
H730 C759 0.930 1_455 S
H731 C751 0.931 . S
O732 Co708 2.097 . S
O732 C760 1.214 . S
H733 C761 0.929 . S
H734 C762 0.929 . S
H735 C763 0.930 . S
H736 C764 0.929 . S
H737 C766 0.930 1_565 S
H738 C743 0.930 . S
H739 C747 0.930 . S
O740 Co709 2.037 . S
O740 C760 1.234 . S
C741 O715 1.269 . S
C741 O716 1.257 . S
C742 H717 0.930 . S
C742 C745 1.388 . S
C742 C747 1.418 . S
C743 H738 0.930 . S
C743 C746 1.404 . S
C743 C747 1.353 . S
N744 Co709 2.145 1_545 S
N744 C745 1.397 . S
N744 C746 1.334 . S
C745 H726 0.929 . S
C745 C742 1.388 . S
C745 N744 1.397 . S
C746 H727 0.929 . S
C746 C743 1.404 . S
C746 N744 1.334 . S
C747 H739 0.930 . S
C747 C742 1.418 . S
C747 C743 1.353 . S
C748 H718 0.930 . S
C748 N749 1.330 . S
C748 C750 1.446 . S
N749 Co708 2.151 . S
N749 C748 1.330 . S
N749 C753 1.418 . S
C750 H729 0.929 . S
C750 C748 1.446 . S
C750 C751 1.332 . S
C751 H731 0.931 . S
C751 C750 1.332 . S
C751 C752 1.267 . S
C752 H720 0.929 . S
C752 C751 1.267 . S
C752 C753 1.251 . S
C753 H723 0.929 . S
C753 N749 1.418 . S
C753 C752 1.251 . S
C754 H721 0.930 . S
C754 C756 1.406 . S
C754 C759 1.261 . S
C755 H722 0.930 . S
C755 N757 1.325 . S
C755 C758 1.357 . S
C756 H724 0.928 . S
C756 C754 1.406 . S
C756 N757 1.261 . S
N757 Co708 2.214 . S
N757 C755 1.325 . S
N757 C756 1.261 . S
C758 H728 0.931 1_655 S
C758 C755 1.357 . S
C758 C759 1.312 . S
C759 H730 0.930 1_655 S
C759 C754 1.261 . S
C759 C758 1.312 . S
C760 O732 1.214 . S
C760 O740 1.234 . S
C761 H733 0.929 . S
C761 C764 1.391 . S
C761 C766 1.391 . S
C762 H734 0.929 . S
C762 C763 1.390 . S
C762 N765 1.391 . S
C763 H735 0.930 . S
C763 C762 1.390 . S
C763 C764 1.392 . S
C764 H736 0.929 . S
C764 C761 1.391 . S
C764 C763 1.392 . S
N765 Co709 2.257 1_545 S
N765 C762 1.391 . S
N765 C766 1.388 . S
C766 H737 0.930 1_545 S
C766 C761 1.391 . S
C766 N765 1.388 . S
Co767 O769 2.143 . S
Co767 O775 2.074 . S
Co767 O778 2.093 . S
Co767 O791 2.097 . S
Co767 N808 2.151 . S
Co767 N816 2.214 . S
Co768 O769 2.160 . S
Co768 O774 2.058 . S
Co768 O784 2.057 . S
Co768 O799 2.037 . S
Co768 N803 2.145 1_455 S
Co768 N824 2.257 1_455 S
O769 Co767 2.143 . S
O769 Co768 2.160 . S
C770 O771 1.278 . S
C770 O778 1.224 . S
O771 C770 1.278 . S
C772 O773 1.245 . S
C772 O784 1.232 . S
O773 C772 1.245 . S
O774 Co768 2.058 . S
O774 C800 1.269 . S
O775 Co767 2.074 . S
O775 C800 1.257 . S
H776 C801 0.930 . S
H777 C807 0.930 . S
O778 Co767 2.093 . S
O778 C770 1.224 . S
H779 C811 0.929 . S
H780 C813 0.930 . S
H781 C814 0.930 . S
H782 C812 0.929 . S
H783 C815 0.928 . S
O784 Co768 2.057 . S
O784 C772 1.232 . S
H785 C804 0.929 . S
H786 C805 0.929 . S
H787 C817 0.931 . S
H788 C809 0.929 . S
H789 C818 0.930 . S
H790 C810 0.931 . S
O791 Co767 2.097 . S
O791 C819 1.214 . S
H792 C820 0.929 . S
H793 C821 0.929 . S
H794 C822 0.930 . S
H795 C823 0.929 . S
H796 C825 0.930 1_455 S
H797 C802 0.930 . S
H798 C806 0.930 . S
O799 Co768 2.037 . S
O799 C819 1.234 . S
C800 O774 1.269 . S
C800 O775 1.257 . S
C801 H776 0.930 . S
C801 C804 1.388 . S
C801 C806 1.418 . S
C802 H797 0.930 . S
C802 C805 1.404 . S
C802 C806 1.353 . S
N803 Co768 2.145 1_655 S
N803 C804 1.397 . S
N803 C805 1.334 . S
C804 H785 0.929 . S
C804 C801 1.388 . S
C804 N803 1.397 . S
C805 H786 0.929 . S
C805 C802 1.404 . S
C805 N803 1.334 . S
C806 H798 0.930 . S
C806 C801 1.418 . S
C806 C802 1.353 . S
C807 H777 0.930 . S
C807 N808 1.330 . S
C807 C809 1.446 . S
N808 Co767 2.151 . S
N808 C807 1.330 . S
N808 C812 1.418 . S
C809 H788 0.929 . S
C809 C807 1.446 . S
C809 C810 1.332 . S
C810 H790 0.931 . S
C810 C809 1.332 . S
C810 C811 1.267 . S
C811 H779 0.929 . S
C811 C810 1.267 . S
C811 C812 1.251 . S
C812 H782 0.929 . S
C812 N808 1.418 . S
C812 C811 1.251 . S
C813 H780 0.930 . S
C813 C815 1.406 . S
C813 C818 1.261 . S
C814 H781 0.930 . S
C814 N816 1.325 . S
C814 C817 1.357 . S
C815 H783 0.928 . S
C815 C813 1.406 . S
C815 N816 1.261 . S
N816 Co767 2.214 . S
N816 C814 1.325 . S
N816 C815 1.261 . S
C817 H787 0.931 . S
C817 C814 1.357 . S
C817 C818 1.312 . S
C818 H789 0.930 . S
C818 C813 1.261 . S
C818 C817 1.312 . S
C819 O791 1.214 . S
C819 O799 1.234 . S
C820 H792 0.929 . S
C820 C823 1.391 . S
C820 C825 1.391 . S
C821 H793 0.929 . S
C821 C822 1.390 . S
C821 N824 1.391 . S
C822 H794 0.930 . S
C822 C821 1.390 . S
C822 C823 1.392 . S
C823 H795 0.929 . S
C823 C820 1.391 . S
C823 C822 1.392 . S
N824 Co768 2.257 1_655 S
N824 C821 1.391 . S
N824 C825 1.388 . S
C825 H796 0.930 1_655 S
C825 C820 1.391 . S
C825 N824 1.388 . S
Co826 O828 2.143 . S
Co826 O834 2.074 . S
Co826 O837 2.093 . S
Co826 O850 2.097 . S
Co826 N867 2.151 . S
Co826 N875 2.214 . S
Co827 O828 2.160 . S
Co827 O833 2.058 . S
Co827 O843 2.057 . S
Co827 O858 2.037 . S
Co827 N862 2.145 . S
Co827 N883 2.257 . S
O828 Co826 2.143 . S
O828 Co827 2.160 . S
C829 O830 1.278 . S
C829 O837 1.224 . S
O830 C829 1.278 . S
C831 O832 1.245 . S
C831 O843 1.232 . S
O832 C831 1.245 . S
O833 Co827 2.058 . S
O833 C859 1.269 . S
O834 Co826 2.074 . S
O834 C859 1.257 . S
H835 C860 0.930 . S
H836 C866 0.930 . S
O837 Co826 2.093 . S
O837 C829 1.224 . S
H838 C870 0.929 . S
H839 C872 0.930 . S
H840 C873 0.930 . S
H841 C871 0.929 . S
H842 C874 0.928 . S
O843 Co827 2.057 . S
O843 C831 1.232 . S
H844 C863 0.929 . S
H845 C864 0.929 . S
H846 C876 0.931 . S
H847 C868 0.929 . S
H848 C877 0.930 . S
H849 C869 0.931 . S
O850 Co826 2.097 . S
O850 C878 1.214 . S
H851 C879 0.929 . S
H852 C880 0.929 . S
H853 C881 0.930 . S
H854 C882 0.929 . S
H855 C884 0.930 . S
H856 C861 0.930 . S
H857 C865 0.930 . S
O858 Co827 2.037 . S
O858 C878 1.234 . S
C859 O833 1.269 . S
C859 O834 1.257 . S
C860 H835 0.930 . S
C860 C863 1.388 . S
C860 C865 1.418 . S
C861 H856 0.930 . S
C861 C864 1.404 . S
C861 C865 1.353 . S
N862 Co827 2.145 . S
N862 C863 1.397 . S
N862 C864 1.334 . S
C863 H844 0.929 . S
C863 C860 1.388 . S
C863 N862 1.397 . S
C864 H845 0.929 . S
C864 C861 1.404 . S
C864 N862 1.334 . S
C865 H857 0.930 . S
C865 C860 1.418 . S
C865 C861 1.353 . S
C866 H836 0.930 . S
C866 N867 1.330 . S
C866 C868 1.446 . S
N867 Co826 2.151 . S
N867 C866 1.330 . S
N867 C871 1.418 . S
C868 H847 0.929 . S
C868 C866 1.446 . S
C868 C869 1.332 . S
C869 H849 0.931 . S
C869 C868 1.332 . S
C869 C870 1.267 . S
C870 H838 0.929 . S
C870 C869 1.267 . S
C870 C871 1.251 . S
C871 H841 0.929 . S
C871 N867 1.418 . S
C871 C870 1.251 . S
C872 H839 0.930 . S
C872 C874 1.406 . S
C872 C877 1.261 . S
C873 H840 0.930 . S
C873 N875 1.325 . S
C873 C876 1.357 . S
C874 H842 0.928 . S
C874 C872 1.406 . S
C874 N875 1.261 . S
N875 Co826 2.214 . S
N875 C873 1.325 . S
N875 C874 1.261 . S
C876 H846 0.931 . S
C876 C873 1.357 . S
C876 C877 1.312 . S
C877 H848 0.930 . S
C877 C872 1.261 . S
C877 C876 1.312 . S
C878 O850 1.214 . S
C878 O858 1.234 . S
C879 H851 0.929 . S
C879 C882 1.391 . S
C879 C884 1.391 . S
C880 H852 0.929 . S
C880 C881 1.390 . S
C880 N883 1.391 . S
C881 H853 0.930 . S
C881 C880 1.390 . S
C881 C882 1.392 . S
C882 H854 0.929 . S
C882 C879 1.391 . S
C882 C881 1.392 . S
N883 Co827 2.257 . S
N883 C880 1.391 . S
N883 C884 1.388 . S
C884 H855 0.930 . S
C884 C879 1.391 . S
C884 N883 1.388 . S
Co885 O887 2.143 . S
Co885 O893 2.074 . S
Co885 O896 2.093 . S
Co885 O909 2.097 . S
Co885 N926 2.151 . S
Co885 N934 2.214 . S
Co886 O887 2.160 . S
Co886 O892 2.058 . S
Co886 O902 2.057 . S
Co886 O917 2.037 . S
Co886 N921 2.145 . S
Co886 N942 2.257 . S
O887 Co885 2.143 . S
O887 Co886 2.160 . S
C888 O889 1.278 . S
C888 O896 1.224 . S
O889 C888 1.278 . S
C890 O891 1.245 . S
C890 O902 1.232 . S
O891 C890 1.245 . S
O892 Co886 2.058 . S
O892 C918 1.269 . S
O893 Co885 2.074 . S
O893 C918 1.257 . S
H894 C919 0.930 . S
H895 C925 0.930 . S
O896 Co885 2.093 . S
O896 C888 1.224 . S
H897 C929 0.929 . S
H898 C931 0.930 . S
H899 C932 0.930 . S
H900 C930 0.929 . S
H901 C933 0.928 . S
O902 Co886 2.057 . S
O902 C890 1.232 . S
H903 C922 0.929 . S
H904 C923 0.929 . S
H905 C935 0.931 1_565 S
H906 C927 0.929 . S
H907 C936 0.930 1_565 S
H908 C928 0.931 . S
O909 Co885 2.097 . S
O909 C937 1.214 . S
H910 C938 0.929 . S
H911 C939 0.929 . S
H912 C940 0.930 . S
H913 C941 0.929 . S
H914 C943 0.930 . S
H915 C920 0.930 . S
H916 C924 0.930 . S
O917 Co886 2.037 . S
O917 C937 1.234 . S
C918 O892 1.269 . S
C918 O893 1.257 . S
C919 H894 0.930 . S
C919 C922 1.388 . S
C919 C924 1.418 . S
C920 H915 0.930 . S
C920 C923 1.404 . S
C920 C924 1.353 . S
N921 Co886 2.145 . S
N921 C922 1.397 . S
N921 C923 1.334 . S
C922 H903 0.929 . S
C922 C919 1.388 . S
C922 N921 1.397 . S
C923 H904 0.929 . S
C923 C920 1.404 . S
C923 N921 1.334 . S
C924 H916 0.930 . S
C924 C919 1.418 . S
C924 C920 1.353 . S
C925 H895 0.930 . S
C925 N926 1.330 . S
C925 C927 1.446 . S
N926 Co885 2.151 . S
N926 C925 1.330 . S
N926 C930 1.418 . S
C927 H906 0.929 . S
C927 C925 1.446 . S
C927 C928 1.332 . S
C928 H908 0.931 . S
C928 C927 1.332 . S
C928 C929 1.267 . S
C929 H897 0.929 . S
C929 C928 1.267 . S
C929 C930 1.251 . S
C930 H900 0.929 . S
C930 N926 1.418 . S
C930 C929 1.251 . S
C931 H898 0.930 . S
C931 C933 1.406 . S
C931 C936 1.261 . S
C932 H899 0.930 . S
C932 N934 1.325 . S
C932 C935 1.357 . S
C933 H901 0.928 . S
C933 C931 1.406 . S
C933 N934 1.261 . S
N934 Co885 2.214 . S
N934 C932 1.325 . S
N934 C933 1.261 . S
C935 H905 0.931 1_545 S
C935 C932 1.357 . S
C935 C936 1.312 . S
C936 H907 0.930 1_545 S
C936 C931 1.261 . S
C936 C935 1.312 . S
C937 O909 1.214 . S
C937 O917 1.234 . S
C938 H910 0.929 . S
C938 C941 1.391 . S
C938 C943 1.391 . S
C939 H911 0.929 . S
C939 C940 1.390 . S
C939 N942 1.391 . S
C940 H912 0.930 . S
C940 C939 1.390 . S
C940 C941 1.392 . S
C941 H913 0.929 . S
C941 C938 1.391 . S
C941 C940 1.392 . S
N942 Co886 2.257 . S
N942 C939 1.391 . S
N942 C943 1.388 . S
C943 H914 0.930 . S
C943 C938 1.391 . S
C943 N942 1.388 . S
C944 C945 1.369 . S
C944 C946 1.419 . S
C944 H948 0.930 . S
C945 C944 1.369 . S
C945 C954 1.429 . S
C946 C944 1.419 . S
C946 C947 1.363 . S
C946 H949 0.929 . S
C947 C946 1.363 . S
C947 C953 1.428 . S
H948 C944 0.930 . S
H949 C946 0.929 . S
S950 N951 1.613 . S
S950 N952 1.610 . S
N951 S950 1.613 . S
N951 C954 1.350 . S
N952 S950 1.610 . S
N952 C953 1.351 . S
C953 C947 1.428 . S
C953 N952 1.351 . S
C953 C954 1.434 . S
C954 C945 1.429 . S
C954 N951 1.350 . S
C954 C953 1.434 . S
C955 C956 1.369 . S
C955 C957 1.419 . S
C955 H959 0.930 . S
C956 C955 1.369 . S
C956 C965 1.429 . S
C957 C955 1.419 . S
C957 C958 1.363 . S
C957 H960 0.929 . S
C958 C957 1.363 . S
C958 C964 1.428 . S
H959 C955 0.930 . S
H960 C957 0.929 . S
S961 N962 1.613 . S
S961 N963 1.610 . S
N962 S961 1.613 . S
N962 C965 1.350 . S
N963 S961 1.610 . S
N963 C964 1.351 . S
C964 C958 1.428 . S
C964 N963 1.351 . S
C964 C965 1.434 . S
C965 C956 1.429 . S
C965 N962 1.350 . S
C965 C964 1.434 . S
C966 C967 1.369 . S
C966 C968 1.419 . S
C966 H970 0.930 . S
C967 C966 1.369 . S
C967 C976 1.429 . S
C968 C966 1.419 . S
C968 C969 1.363 . S
C968 H971 0.929 . S
C969 C968 1.363 . S
C969 C975 1.428 . S
H970 C966 0.930 . S
H971 C968 0.929 . S
S972 N973 1.613 . S
S972 N974 1.610 . S
N973 S972 1.613 . S
N973 C976 1.350 . S
N974 S972 1.610 . S
N974 C975 1.351 . S
C975 C969 1.428 . S
C975 N974 1.351 . S
C975 C976 1.434 . S
C976 C967 1.429 . S
C976 N973 1.350 . S
C976 C975 1.434 . S
C977 C978 1.369 . S
C977 C979 1.419 . S
C977 H981 0.930 . S
C978 C977 1.369 . S
C978 C987 1.429 . S
C979 C977 1.419 . S
C979 C980 1.363 . S
C979 H982 0.929 . S
C980 C979 1.363 . S
C980 C986 1.428 . S
H981 C977 0.930 . S
H982 C979 0.929 . S
S983 N984 1.613 . S
S983 N985 1.610 . S
N984 S983 1.613 . S
N984 C987 1.350 . S
N985 S983 1.610 . S
N985 C986 1.351 . S
C986 C980 1.428 . S
C986 N985 1.351 . S
C986 C987 1.434 . S
C987 C978 1.429 . S
C987 N984 1.350 . S
C987 C986 1.434 . S
C988 C989 1.369 . S
C988 C990 1.419 . S
C988 H992 0.930 . S
C989 C988 1.369 . S
C989 C998 1.429 . S
C990 C988 1.419 . S
C990 C991 1.363 . S
C990 H993 0.929 . S
C991 C990 1.363 . S
C991 C997 1.428 . S
H992 C988 0.930 . S
H993 C990 0.929 . S
S994 N995 1.613 . S
S994 N996 1.610 . S
N995 S994 1.613 . S
N995 C998 1.350 . S
N996 S994 1.610 . S
N996 C997 1.351 . S
C997 C991 1.428 . S
C997 N996 1.351 . S
C997 C998 1.434 . S
C998 C989 1.429 . S
C998 N995 1.350 . S
C998 C997 1.434 . S
C999 C1000 1.369 . S
C999 C1001 1.419 . S
C999 H1003 0.930 . S
C1000 C999 1.369 . S
C1000 C1009 1.429 . S
C1001 C999 1.419 . S
C1001 C1002 1.363 . S
C1001 H1004 0.929 . S
C1002 C1001 1.363 . S
C1002 C1008 1.428 . S
H1003 C999 0.930 . S
H1004 C1001 0.929 . S
S1005 N1006 1.613 . S
S1005 N1007 1.610 . S
N1006 S1005 1.613 . S
N1006 C1009 1.350 . S
N1007 S1005 1.610 . S
N1007 C1008 1.351 . S
C1008 C1002 1.428 . S
C1008 N1007 1.351 . S
C1008 C1009 1.434 . S
C1009 C1000 1.429 . S
C1009 N1006 1.350 . S
C1009 C1008 1.434 . S
C1010 C1011 1.369 . S
C1010 C1012 1.419 . S
C1010 H1014 0.930 . S
C1011 C1010 1.369 . S
C1011 C1020 1.429 . S
C1012 C1010 1.419 . S
C1012 C1013 1.363 . S
C1012 H1015 0.929 . S
C1013 C1012 1.363 . S
C1013 C1019 1.428 . S
H1014 C1010 0.930 . S
H1015 C1012 0.929 . S
S1016 N1017 1.613 . S
S1016 N1018 1.610 . S
N1017 S1016 1.613 . S
N1017 C1020 1.350 . S
N1018 S1016 1.610 . S
N1018 C1019 1.351 . S
C1019 C1013 1.428 . S
C1019 N1018 1.351 . S
C1019 C1020 1.434 . S
C1020 C1011 1.429 . S
C1020 N1017 1.350 . S
C1020 C1019 1.434 . S
C1021 C1022 1.369 . S
C1021 C1023 1.419 . S
C1021 H1025 0.930 . S
C1022 C1021 1.369 . S
C1022 C1031 1.429 . S
C1023 C1021 1.419 . S
C1023 C1024 1.363 . S
C1023 H1026 0.929 . S
C1024 C1023 1.363 . S
C1024 C1030 1.428 . S
H1025 C1021 0.930 . S
H1026 C1023 0.929 . S
S1027 N1028 1.613 . S
S1027 N1029 1.610 . S
N1028 S1027 1.613 . S
N1028 C1031 1.350 . S
N1029 S1027 1.610 . S
N1029 C1030 1.351 . S
C1030 C1024 1.428 . S
C1030 N1029 1.351 . S
C1030 C1031 1.434 . S
C1031 C1022 1.429 . S
C1031 N1028 1.350 . S
C1031 C1030 1.434 . S
C1032 C1033 1.369 . S
C1032 C1034 1.419 . S
C1032 H1036 0.930 . S
C1033 C1032 1.369 . S
C1033 C1042 1.429 . S
C1034 C1032 1.419 . S
C1034 C1035 1.363 . S
C1034 H1037 0.929 . S
C1035 C1034 1.363 . S
C1035 C1041 1.428 . S
H1036 C1032 0.930 . S
H1037 C1034 0.929 . S
S1038 N1039 1.613 . S
S1038 N1040 1.610 . S
N1039 S1038 1.613 . S
N1039 C1042 1.350 . S
N1040 S1038 1.610 . S
N1040 C1041 1.351 . S
C1041 C1035 1.428 . S
C1041 N1040 1.351 . S
C1041 C1042 1.434 . S
C1042 C1033 1.429 . S
C1042 N1039 1.350 . S
C1042 C1041 1.434 . S
C1043 C1044 1.369 . S
C1043 C1045 1.419 . S
C1043 H1047 0.930 . S
C1044 C1043 1.369 . S
C1044 C1053 1.429 . S
C1045 C1043 1.419 . S
C1045 C1046 1.363 . S
C1045 H1048 0.929 . S
C1046 C1045 1.363 . S
C1046 C1052 1.428 . S
H1047 C1043 0.930 . S
H1048 C1045 0.929 . S
S1049 N1050 1.613 . S
S1049 N1051 1.610 . S
N1050 S1049 1.613 . S
N1050 C1053 1.350 . S
N1051 S1049 1.610 . S
N1051 C1052 1.351 . S
C1052 C1046 1.428 . S
C1052 N1051 1.351 . S
C1052 C1053 1.434 . S
C1053 C1044 1.429 . S
C1053 N1050 1.350 . S
C1053 C1052 1.434 . S
C1054 C1055 1.369 . S
C1054 C1056 1.419 . S
C1054 H1058 0.930 . S
C1055 C1054 1.369 . S
C1055 C1064 1.429 . S
C1056 C1054 1.419 . S
C1056 C1057 1.363 . S
C1056 H1059 0.929 . S
C1057 C1056 1.363 . S
C1057 C1063 1.428 . S
H1058 C1054 0.930 . S
H1059 C1056 0.929 . S
S1060 N1061 1.613 . S
S1060 N1062 1.610 . S
N1061 S1060 1.613 . S
N1061 C1064 1.350 . S
N1062 S1060 1.610 . S
N1062 C1063 1.351 . S
C1063 C1057 1.428 . S
C1063 N1062 1.351 . S
C1063 C1064 1.434 . S
C1064 C1055 1.429 . S
C1064 N1061 1.350 . S
C1064 C1063 1.434 . S
C1065 C1066 1.369 . S
C1065 C1067 1.419 1_554 S
C1065 H1069 0.930 . S
C1066 C1065 1.369 . S
C1066 C1075 1.429 . S
C1067 C1065 1.419 1_556 S
C1067 C1068 1.363 . S
C1067 H1070 0.929 . S
C1068 C1067 1.363 . S
C1068 C1074 1.428 . S
H1069 C1065 0.930 . S
H1070 C1067 0.929 . S
S1071 N1072 1.613 1_556 S
S1071 N1073 1.610 . S
N1072 S1071 1.613 1_554 S
N1072 C1075 1.350 . S
N1073 S1071 1.610 . S
N1073 C1074 1.351 . S
C1074 C1068 1.428 . S
C1074 N1073 1.351 . S
C1074 C1075 1.434 1_556 S
C1075 C1066 1.429 . S
C1075 N1072 1.350 . S
C1075 C1074 1.434 1_554 S
C1076 C1077 1.369 . S
C1076 C1078 1.419 1_554 S
C1076 H1080 0.930 . S
C1077 C1076 1.369 . S
C1077 C1086 1.429 . S
C1078 C1076 1.419 1_556 S
C1078 C1079 1.363 . S
C1078 H1081 0.929 . S
C1079 C1078 1.363 . S
C1079 C1085 1.428 . S
H1080 C1076 0.930 . S
H1081 C1078 0.929 . S
S1082 N1083 1.613 . S
S1082 N1084 1.610 1_554 S
N1083 S1082 1.613 . S
N1083 C1086 1.350 . S
N1084 S1082 1.610 1_556 S
N1084 C1085 1.351 . S
C1085 C1079 1.428 . S
C1085 N1084 1.351 . S
C1085 C1086 1.434 1_556 S
C1086 C1077 1.429 . S
C1086 N1083 1.350 . S
C1086 C1085 1.434 1_554 S
C1087 C1088 1.369 . S
C1087 C1089 1.419 . S
C1087 H1091 0.930 . S
C1088 C1087 1.369 . S
C1088 C1097 1.429 . S
C1089 C1087 1.419 . S
C1089 C1090 1.363 . S
C1089 H1092 0.929 . S
C1090 C1089 1.363 . S
C1090 C1096 1.428 . S
H1091 C1087 0.930 . S
H1092 C1089 0.929 . S
S1093 N1094 1.613 . S
S1093 N1095 1.610 . S
N1094 S1093 1.613 . S
N1094 C1097 1.350 . S
N1095 S1093 1.610 . S
N1095 C1096 1.351 . S
C1096 C1090 1.428 . S
C1096 N1095 1.351 . S
C1096 C1097 1.434 . S
C1097 C1088 1.429 . S
C1097 N1094 1.350 . S
C1097 C1096 1.434 . S
C1098 C1099 1.369 . S
C1098 C1100 1.419 . S
C1098 H1102 0.930 . S
C1099 C1098 1.369 . S
C1099 C1108 1.429 . S
C1100 C1098 1.419 . S
C1100 C1101 1.363 . S
C1100 H1103 0.929 . S
C1101 C1100 1.363 . S
C1101 C1107 1.428 . S
H1102 C1098 0.930 . S
H1103 C1100 0.929 . S
S1104 N1105 1.613 . S
S1104 N1106 1.610 . S
N1105 S1104 1.613 . S
N1105 C1108 1.350 . S
N1106 S1104 1.610 . S
N1106 C1107 1.351 . S
C1107 C1101 1.428 . S
C1107 N1106 1.351 . S
C1107 C1108 1.434 . S
C1108 C1099 1.429 . S
C1108 N1105 1.350 . S
C1108 C1107 1.434 . S
C1109 C1110 1.369 . S
C1109 C1111 1.419 . S
C1109 H1113 0.930 . S
C1110 C1109 1.369 . S
C1110 C1119 1.429 . S
C1111 C1109 1.419 . S
C1111 C1112 1.363 . S
C1111 H1114 0.929 . S
C1112 C1111 1.363 . S
C1112 C1118 1.428 . S
H1113 C1109 0.930 . S
H1114 C1111 0.929 . S
S1115 N1116 1.613 . S
S1115 N1117 1.610 . S
N1116 S1115 1.613 . S
N1116 C1119 1.350 . S
N1117 S1115 1.610 . S
N1117 C1118 1.351 . S
C1118 C1112 1.428 . S
C1118 N1117 1.351 . S
C1118 C1119 1.434 . S
C1119 C1110 1.429 . S
C1119 N1116 1.350 . S
C1119 C1118 1.434 . S
C1120 C1121 1.369 1_565 S
C1120 C1122 1.419 1_455 S
C1120 H1124 0.930 . S
C1121 C1120 1.369 1_545 S
C1121 C1130 1.420 1_455 S
C1122 C1120 1.419 1_655 S
C1122 C1123 1.363 . S
C1122 H1125 0.929 1_655 S
C1123 C1122 1.363 . S
C1123 C1129 1.428 1_565 S
H1124 C1120 0.930 . S
H1125 C1122 0.929 1_455 S
S1126 N1127 1.613 . S
S1126 N1128 1.610 . S
N1127 S1126 1.613 . S
N1127 C1130 1.351 . S
N1128 S1126 1.610 . S
N1128 C1129 1.351 . S
C1129 C1123 1.428 1_545 S
C1129 N1128 1.351 . S
C1129 C1130 1.443 . S
C1130 C1121 1.420 1_655 S
C1130 N1127 1.351 . S
C1130 C1129 1.443 . S
C1131 C1132 1.369 1_655 S
C1131 C1133 1.419 . S
C1131 H1135 0.930 . S
C1132 C1131 1.369 1_455 S
C1132 C1141 1.429 . S
C1133 C1131 1.419 . S
C1133 C1134 1.363 . S
C1133 H1136 0.929 . S
C1134 C1133 1.363 . S
C1134 C1140 1.428 1_655 S
H1135 C1131 0.930 . S
H1136 C1133 0.929 . S
S1137 N1138 1.613 . S
S1137 N1139 1.610 . S
N1138 S1137 1.613 . S
N1138 C1141 1.350 . S
N1139 S1137 1.610 . S
N1139 C1140 1.351 . S
C1140 C1134 1.428 1_455 S
C1140 N1139 1.351 . S
C1140 C1141 1.434 . S
C1141 C1132 1.429 . S
C1141 N1138 1.350 . S
C1141 C1140 1.434 . S
C1142 C1143 1.369 . S
C1142 C1144 1.419 . S
C1142 H1146 0.930 . S
C1143 C1142 1.369 . S
C1143 C1152 1.429 . S
C1144 C1142 1.419 . S
C1144 C1145 1.363 . S
C1144 H1147 0.929 . S
C1145 C1144 1.363 . S
C1145 C1151 1.428 . S
H1146 C1142 0.930 . S
H1147 C1144 0.929 . S
S1148 N1149 1.613 . S
S1148 N1150 1.610 . S
N1149 S1148 1.613 . S
N1149 C1152 1.350 . S
N1150 S1148 1.610 . S
N1150 C1151 1.351 . S
C1151 C1145 1.428 . S
C1151 N1150 1.351 . S
C1151 C1152 1.434 . S
C1152 C1143 1.429 . S
C1152 N1149 1.350 . S
C1152 C1151 1.434 . S
C1153 C1154 1.369 . S
C1153 C1155 1.419 1_545 S
C1153 H1157 0.930 . S
C1154 C1153 1.369 . S
C1154 C1163 1.421 1_545 S
C1155 C1153 1.419 1_565 S
C1155 C1156 1.363 . S
C1155 H1158 0.930 . S
C1156 C1155 1.363 . S
C1156 C1162 1.428 . S
H1157 C1153 0.930 . S
H1158 C1155 0.930 . S
S1159 N1160 1.613 . S
S1159 N1161 1.610 . S
N1160 S1159 1.613 . S
N1160 C1163 1.351 . S
N1161 S1159 1.610 . S
N1161 C1162 1.351 . S
C1162 C1156 1.428 . S
C1162 N1161 1.351 . S
C1162 C1163 1.442 . S
C1163 C1154 1.421 1_565 S
C1163 N1160 1.351 . S
C1163 C1162 1.442 . S
C1164 C1165 1.369 . S
C1164 C1166 1.419 1_455 S
C1164 H1168 0.930 . S
C1165 C1164 1.369 . S
C1165 C1174 1.429 . S
C1166 C1164 1.419 1_655 S
C1166 C1167 1.363 . S
C1166 H1169 0.929 . S
C1167 C1166 1.363 . S
C1167 C1173 1.428 . S
H1168 C1164 0.930 . S
H1169 C1166 0.929 . S
S1170 N1171 1.613 1_655 S
S1170 N1172 1.610 . S
N1171 S1170 1.613 1_455 S
N1171 C1174 1.350 . S
N1172 S1170 1.610 . S
N1172 C1173 1.351 . S
C1173 C1167 1.428 . S
C1173 N1172 1.351 . S
C1173 C1174 1.434 1_655 S
C1174 C1165 1.429 . S
C1174 N1171 1.350 . S
C1174 C1173 1.434 1_455 S
C1175 C1176 1.369 . S
C1175 C1177 1.419 . S
C1175 H1179 0.930 . S
C1176 C1175 1.369 . S
C1176 C1185 1.429 . S
C1177 C1175 1.419 . S
C1177 C1178 1.363 . S
C1177 H1180 0.929 . S
C1178 C1177 1.363 . S
C1178 C1184 1.428 . S
H1179 C1175 0.930 . S
H1180 C1177 0.929 . S
S1181 N1182 1.613 . S
S1181 N1183 1.610 . S
N1182 S1181 1.613 . S
N1182 C1185 1.350 . S
N1183 S1181 1.610 . S
N1183 C1184 1.351 . S
C1184 C1178 1.428 . S
C1184 N1183 1.351 . S
C1184 C1185 1.434 . S
C1185 C1176 1.429 . S
C1185 N1182 1.350 . S
C1185 C1184 1.434 . S
C1186 C1187 1.369 . S
C1186 C1188 1.419 1_565 S
C1186 H1190 0.930 . S
C1187 C1186 1.369 . S
C1187 C1196 1.429 . S
C1188 C1186 1.419 1_545 S
C1188 C1189 1.363 . S
C1188 H1191 0.929 . S
C1189 C1188 1.363 . S
C1189 C1195 1.428 . S
H1190 C1186 0.930 . S
H1191 C1188 0.929 . S
S1192 N1193 1.613 . S
S1192 N1194 1.610 1_565 S
N1193 S1192 1.613 . S
N1193 C1196 1.350 . S
N1194 S1192 1.610 1_545 S
N1194 C1195 1.351 . S
C1195 C1189 1.428 . S
C1195 N1194 1.351 . S
C1195 C1196 1.434 1_545 S
C1196 C1187 1.429 . S
C1196 N1193 1.350 . S
C1196 C1195 1.434 1_565 S
C1197 C1198 1.369 . S
C1197 C1199 1.419 1_445 S
C1197 H1201 0.930 . S
C1198 C1197 1.369 . S
C1198 C1207 1.429 . S
C1199 C1197 1.419 1_665 S
C1199 C1200 1.363 . S
C1199 H1202 0.929 . S
C1200 C1199 1.363 . S
C1200 C1206 1.428 . S
H1201 C1197 0.930 . S
H1202 C1199 0.929 . S
S1203 N1204 1.613 1_565 S
S1203 N1205 1.611 1_455 S
N1204 S1203 1.613 1_545 S
N1204 C1207 1.350 . S
N1205 S1203 1.611 1_655 S
N1205 C1206 1.351 . S
C1206 C1200 1.428 . S
C1206 N1205 1.351 . S
C1206 C1207 1.434 1_665 S
C1207 C1198 1.429 . S
C1207 N1204 1.350 . S
C1207 C1206 1.434 1_445 S
C1208 C1209 1.369 1_545 S
C1208 C1210 1.419 . S
C1208 H1212 0.930 . S
C1209 C1208 1.369 1_565 S
C1209 C1218 1.429 . S
C1210 C1208 1.419 . S
C1210 C1211 1.363 . S
C1210 H1213 0.929 . S
C1211 C1210 1.363 . S
C1211 C1217 1.428 1_545 S
H1212 C1208 0.930 . S
H1213 C1210 0.929 . S
S1214 N1215 1.613 . S
S1214 N1216 1.610 . S
N1215 S1214 1.613 . S
N1215 C1218 1.350 . S
N1216 S1214 1.610 . S
N1216 C1217 1.351 . S
C1217 C1211 1.428 1_565 S
C1217 N1216 1.351 . S
C1217 C1218 1.434 . S
C1218 C1209 1.429 . S
C1218 N1215 1.350 . S
C1218 C1217 1.434 . S
C1219 C1220 1.369 . S
C1219 C1221 1.419 1_665 S
C1219 H1223 0.930 . S
C1220 C1219 1.369 . S
C1220 C1229 1.429 . S
C1221 C1219 1.419 1_445 S
C1221 C1222 1.363 . S
C1221 H1224 0.929 . S
C1222 C1221 1.363 . S
C1222 C1228 1.438 . S
H1223 C1219 0.930 . S
H1224 C1221 0.929 . S
S1225 N1226 1.613 1_545 S
S1225 N1227 1.610 . S
N1226 S1225 1.613 1_565 S
N1226 C1229 1.350 . S
N1227 S1225 1.610 . S
N1227 C1228 1.349 1_655 S
C1228 C1222 1.438 . S
C1228 N1227 1.349 1_455 S
C1228 C1229 1.424 1_445 S
C1229 C1220 1.429 . S
C1229 N1226 1.350 . S
C1229 C1228 1.424 1_665 S
C1230 C1231 1.369 . S
C1230 C1232 1.419 . S
C1230 H1234 0.930 . S
C1231 C1230 1.369 . S
C1231 C1240 1.429 1_455 S
C1232 C1230 1.419 . S
C1232 C1233 1.363 1_455 S
C1232 H1235 0.929 . S
C1233 C1232 1.363 1_655 S
C1233 C1239 1.428 . S
H1234 C1230 0.930 . S
H1235 C1232 0.929 . S
S1236 N1237 1.613 . S
S1236 N1238 1.610 . S
N1237 S1236 1.613 . S
N1237 C1240 1.350 . S
N1238 S1236 1.610 . S
N1238 C1239 1.351 . S
C1239 C1233 1.428 . S
C1239 N1238 1.351 . S
C1239 C1240 1.434 . S
C1240 C1231 1.429 1_655 S
C1240 N1237 1.350 . S
C1240 C1239 1.434 . S
C1241 C1242 1.369 . S
C1241 C1243 1.419 . S
C1241 H1245 0.930 . S
C1242 C1241 1.369 . S
C1242 C1251 1.429 . S
C1243 C1241 1.419 . S
C1243 C1244 1.363 . S
C1243 H1246 0.929 . S
C1244 C1243 1.363 . S
C1244 C1250 1.428 . S
H1245 C1241 0.930 . S
H1246 C1243 0.929 . S
S1247 N1248 1.613 . S
S1247 N1249 1.610 . S
N1248 S1247 1.613 . S
N1248 C1251 1.350 . S
N1249 S1247 1.610 . S
N1249 C1250 1.351 . S
C1250 C1244 1.428 . S
C1250 N1249 1.351 . S
C1250 C1251 1.434 . S
C1251 C1242 1.429 . S
C1251 N1248 1.350 . S
C1251 C1250 1.434 . S
C1252 C1253 1.369 . S
C1252 C1254 1.419 . S
C1252 H1256 0.930 . S
C1253 C1252 1.369 . S
C1253 C1262 1.429 . S
C1254 C1252 1.419 . S
C1254 C1255 1.363 . S
C1254 H1257 0.929 . S
C1255 C1254 1.363 . S
C1255 C1261 1.428 . S
H1256 C1252 0.930 . S
H1257 C1254 0.929 . S
S1258 N1259 1.613 . S
S1258 N1260 1.610 . S
N1259 S1258 1.613 . S
N1259 C1262 1.350 . S
N1260 S1258 1.610 . S
N1260 C1261 1.351 . S
C1261 C1255 1.428 . S
C1261 N1260 1.351 . S
C1261 C1262 1.434 . S
C1262 C1253 1.429 . S
C1262 N1259 1.350 . S
C1262 C1261 1.434 . S
C1263 C1264 1.369 . S
C1263 C1265 1.419 . S
C1263 H1267 0.930 . S
C1264 C1263 1.369 . S
C1264 C1273 1.429 1_545 S
C1265 C1263 1.419 . S
C1265 C1266 1.363 1_545 S
C1265 H1268 0.929 . S
C1266 C1265 1.363 1_565 S
C1266 C1272 1.428 . S
H1267 C1263 0.930 . S
H1268 C1265 0.929 . S
S1269 N1270 1.613 . S
S1269 N1271 1.610 . S
N1270 S1269 1.613 . S
N1270 C1273 1.350 . S
N1271 S1269 1.610 . S
N1271 C1272 1.351 . S
C1272 C1266 1.428 . S
C1272 N1271 1.351 . S
C1272 C1273 1.434 . S
C1273 C1264 1.429 1_565 S
C1273 N1270 1.350 . S
C1273 C1272 1.434 . S
C1274 C1275 1.369 1_545 S
C1274 C1276 1.419 1_655 S
C1274 H1278 0.930 . S
C1275 C1274 1.369 1_565 S
C1275 C1284 1.429 . S
C1276 C1274 1.419 1_455 S
C1276 C1277 1.363 . S
C1276 H1279 0.929 . S
C1277 C1276 1.363 . S
C1277 C1283 1.428 1_545 S
H1278 C1274 0.930 . S
H1279 C1276 0.929 . S
S1280 N1281 1.613 1_455 S
S1280 N1282 1.610 . S
N1281 S1280 1.613 1_655 S
N1281 C1284 1.350 . S
N1282 S1280 1.610 . S
N1282 C1283 1.351 . S
C1283 C1277 1.428 1_565 S
C1283 N1282 1.351 . S
C1283 C1284 1.434 1_455 S
C1284 C1275 1.429 . S
C1284 N1281 1.350 . S
C1284 C1283 1.434 1_655 S
C1285 C1286 1.369 1_455 S
C1285 C1287 1.419 . S
C1285 H1289 0.930 . S
C1286 C1285 1.369 1_655 S
C1286 C1295 1.429 . S
C1287 C1285 1.419 . S
C1287 C1288 1.363 . S
C1287 H1290 0.929 . S
C1288 C1287 1.363 . S
C1288 C1294 1.428 1_455 S
H1289 C1285 0.930 . S
H1290 C1287 0.929 . S
S1291 N1292 1.613 . S
S1291 N1293 1.610 . S
N1292 S1291 1.613 . S
N1292 C1295 1.350 . S
N1293 S1291 1.610 . S
N1293 C1294 1.351 . S
C1294 C1288 1.428 1_655 S
C1294 N1293 1.351 . S
C1294 C1295 1.434 . S
C1295 C1286 1.429 . S
C1295 N1292 1.350 . S
C1295 C1294 1.434 . S
C945 C239 1.528 . S
C947 C3 1.527 . S
C956 C62 1.526 . S
C958 C298 1.526 . S
C967 C357 1.525 . S
C969 C121 1.526 . S
C978 C416 1.526 . S
C980 C180 1.526 . S
C989 C711 1.527 . S
C991 C475 1.527 . S
C1000 C534 1.528 . S
C1002 C770 1.528 . S
C1011 C829 1.528 . S
C1013 C593 1.528 . S
C1022 C652 1.526 . S
C1024 C888 1.527 . S
C1033 C33 1.552 . S
C1035 C918 1.555 . S
C1044 C92 1.555 . S
C1046 C741 1.553 . S
C1055 C151 1.553 . S
C1057 C800 1.554 . S
C1066 C859 1.555 . S
C1068 C210 1.553 . S
C1077 C269 1.554 . S
C1079 C564 1.555 . S
C1088 C328 1.555 . S
C1090 C623 1.553 . S
C1099 C682 1.554 . S
C1101 C387 1.553 . S
C1110 C505 1.555 . S
C1112 C446 1.554 . S
C1121 C5 1.619 . S
C1123 C595 1.617 . S
C1132 C654 1.619 . S
C1134 C64 1.617 . S
C1143 C123 1.616 . S
C1145 C477 1.619 . S
C1154 C536 1.620 . S
C1156 C182 1.617 . S
C1165 C241 1.619 . S
C1167 C831 1.617 . S
C1176 C300 1.616 . S
C1178 C890 1.619 . S
C1187 C713 1.619 . S
C1189 C359 1.618 . S
C1198 C772 1.617 . S
C1200 C418 1.618 . S
C1209 C642 1.489 . S
C1211 C52 1.486 . S
C1220 C111 1.489 . S
C1222 C701 1.487 . S
C1231 C170 1.489 . S
C1233 C524 1.487 . S
C1242 C583 1.490 . S
C1244 C229 1.486 . S
C1253 C878 1.488 . S
C1255 C288 1.487 . S
C1264 C937 1.490 . S
C1266 C347 1.486 . S
C1275 C760 1.488 . S
C1277 C406 1.487 . S
C1286 C465 1.489 . S
C1288 C819 1.486 . S
