# Generated by pormake.
# Topology tfs, (6)-cn, num edge types: 1
# Building blocks:
#     Node 0, Type 0, BuildingBlock: CUWYAW_clean_sbu_0, # of connection points: 6
#     Node 1, Type 0, BuildingBlock: CUWYAW_clean_sbu_0, # of connection points: 6
#     Node 2, Type 0, BuildingBlock: CUWYAW_clean_sbu_0, # of connection points: 6
#     Node 3, Type 0, BuildingBlock: CUWYAW_clean_sbu_0, # of connection points: 6
#     Node 4, Type 0, BuildingBlock: CUWYAW_clean_sbu_0, # of connection points: 6
#     Node 5, Type 0, BuildingBlock: CUWYAW_clean_sbu_0, # of connection points: 6
#     Edge 6, Type (0, 0), BuildingBlock: UVAHIK_clean_linker_0, # of connection points: 2
#     Edge 7, Type (0, 0), BuildingBlock: UVAHIK_clean_linker_0, # of connection points: 2
#     Edge 8, Type (0, 0), BuildingBlock: UVAHIK_clean_linker_0, # of connection points: 2
#     Edge 9, Type (0, 0), BuildingBlock: UVAHIK_clean_linker_0, # of connection points: 2
#     Edge 10, Type (0, 0), BuildingBlock: UVAHIK_clean_linker_0, # of connection points: 2
#     Edge 11, Type (0, 0), BuildingBlock: UVAHIK_clean_linker_0, # of connection points: 2
#     Edge 12, Type (0, 0), BuildingBlock: UVAHIK_clean_linker_0, # of connection points: 2
#     Edge 13, Type (0, 0), BuildingBlock: UVAHIK_clean_linker_0, # of connection points: 2
#     Edge 14, Type (0, 0), BuildingBlock: UVAHIK_clean_linker_0, # of connection points: 2
#     Edge 15, Type (0, 0), BuildingBlock: UVAHIK_clean_linker_0, # of connection points: 2
#     Edge 16, Type (0, 0), BuildingBlock: UVAHIK_clean_linker_0, # of connection points: 2
#     Edge 17, Type (0, 0), BuildingBlock: UVAHIK_clean_linker_0, # of connection points: 2
#     Edge 18, Type (0, 0), BuildingBlock: UVAHIK_clean_linker_0, # of connection points: 2
#     Edge 19, Type (0, 0), BuildingBlock: UVAHIK_clean_linker_0, # of connection points: 2
#     Edge 20, Type (0, 0), BuildingBlock: UVAHIK_clean_linker_0, # of connection points: 2
#     Edge 21, Type (0, 0), BuildingBlock: UVAHIK_clean_linker_0, # of connection points: 2
#     Edge 22, Type (0, 0), BuildingBlock: UVAHIK_clean_linker_0, # of connection points: 2
#     Edge 23, Type (0, 0), BuildingBlock: UVAHIK_clean_linker_0, # of connection points: 2
# Relax obj value: 0.513
# Max RMSD: 0.285
# Mean RMSD: 0.285
data_MOF--net-tfs--node1-CUWYAW_clean_sbu_0--edge1-UVAHIK_clean_linker_0
_symmetry_space_group_name_H-M    P1
_symmetry_Int_Tables_number       1
_symmetry_cell_setting            triclinic
loop_
_symmetry_equiv_pos_as_xyz
'x, y, z'
_cell_length_a     67.105304
_cell_length_b     67.106942
_cell_length_c     18.918027
_cell_angle_alpha  89.991987
_cell_angle_beta   90.003327
_cell_angle_gamma 120.02251
loop_
_atom_site_label
_atom_site_type_symbol
_atom_site_fract_x
_atom_site_fract_y
_atom_site_fract_z
_atom_type_partial_charge
C0 C 0.22869 0.37839 0.9337 0.0
Eu1 Eu 0.21598 0.40575 0.99067 0.0
C2 C 0.23169 0.35861 0.9513 0.0
C3 C 0.24496 0.35925 0.00961 0.0
C4 C 0.25006 0.34168 0.02025 0.0
C5 C 0.24187 0.32295 0.97317 0.0
C6 C 0.22771 0.32188 0.91666 0.0
C7 C 0.22276 0.33958 0.90573 0.0
C8 C 0.21514 0.41226 0.13271 0.0
C9 C 0.16107 0.38061 0.01806 0.0
C10 C 0.1815 0.4613 0.08528 0.0
Eu11 Eu 0.19412 0.43373 0.03028 0.0
C12 C 0.18534 0.48459 0.07291 0.0
C13 C 0.18984 0.49423 1.00487 0.0
C14 C 0.19243 0.51602 0.99382 0.0
C15 C 0.19067 0.52858 0.05069 0.0
C16 C 0.18667 0.51899 0.11897 0.0
C17 C 0.18399 0.49719 0.12986 0.0
C18 C 0.19491 0.42657 0.88841 0.0
C19 C 0.24901 0.45974 1.00323 0.0
O20 O 0.20769 0.37478 0.92953 0.0
O21 O 0.24283 0.39804 0.9635 0.0
O22 O 0.23111 0.41019 0.10123 0.0
O23 O 0.1994 0.40841 0.08964 0.0
O24 O 0.17725 0.38093 0.97722 0.0
O25 O 0.16562 0.39847 0.05795 0.0
O26 O 0.19913 0.45987 0.10817 0.0
O27 O 0.16963 0.44587 0.03716 0.0
O28 O 0.1784 0.4277 0.92001 0.0
O29 O 0.21082 0.43106 0.93146 0.0
O30 O 0.23217 0.45966 0.03946 0.0
O31 O 0.24542 0.44144 0.96683 0.0
H32 H 0.25207 0.37371 0.04576 0.0
H33 H 0.26126 0.34333 0.06379 0.0
H34 H 0.22076 0.30756 0.88005 0.0
H35 H 0.21246 0.33871 0.86046 0.0
H36 H 0.19105 0.48479 0.96018 0.0
H37 H 0.19529 0.52278 0.94051 0.0
H38 H 0.18567 0.52835 0.16417 0.0
H39 H 0.18069 0.49007 0.18281 0.0
C40 C 0.85099 0.22966 0.92658 0.0
Eu41 Eu 0.81121 0.21592 0.98708 0.0
C42 C 0.87305 0.23043 0.93677 0.0
C43 C 0.87909 0.22513 1.00221 0.0
C44 C 0.9015 0.22934 0.01358 0.0
C45 C 0.91822 0.23901 0.95978 0.0
C46 C 0.91161 0.2432 0.89331 0.0
C47 C 0.88925 0.23894 0.88203 0.0
C48 C 0.80391 0.21487 0.12919 0.0
C49 C 0.78224 0.16089 0.01715 0.0
C50 C 0.72097 0.18076 0.08129 0.0
Eu51 Eu 0.76132 0.19348 0.02723 0.0
C52 C 0.7017 0.18489 0.06821 0.0
C53 C 0.69489 0.18646 0.99917 0.0
C54 C 0.67609 0.18968 0.98798 0.0
C55 C 0.66393 0.19162 0.0456 0.0
C56 C 0.67108 0.19044 0.1146 0.0
C57 C 0.68976 0.18705 0.12573 0.0
C58 C 0.76931 0.19472 0.88533 0.0
C59 C 0.7898 0.24847 1.00174 0.0
O60 O 0.83279 0.20965 0.91398 0.0
O61 O 0.84679 0.24228 0.96983 0.0
O62 O 0.82181 0.23105 0.09762 0.0
O63 O 0.7921 0.19908 0.0861 0.0
O64 O 0.79859 0.1773 0.97802 0.0
O65 O 0.76818 0.16503 0.05478 0.0
O66 O 0.74001 0.19821 0.10521 0.0
O67 O 0.72466 0.16892 0.03339 0.0
O68 O 0.75188 0.17792 0.91678 0.0
O69 O 0.78056 0.21061 0.92866 0.0
O70 O 0.77319 0.23145 0.03785 0.0
O71 O 0.80453 0.24513 0.96459 0.0
H72 H 0.86675 0.21855 0.04513 0.0
H73 H 0.9059 0.22561 0.06508 0.0
H74 H 0.92402 0.25095 0.85096 0.0
H75 H 0.88489 0.24326 0.83132 0.0
H76 H 0.70401 0.18508 0.95388 0.0
H77 H 0.67115 0.1908 0.93426 0.0
H78 H 0.66193 0.19167 0.16004 0.0
H79 H 0.69477 0.1859 0.17937 0.0
C80 C 0.62133 0.85149 0.91618 0.0
Eu81 Eu 0.59541 0.81146 0.97555 0.0
C82 C 0.64252 0.87356 0.9278 0.0
C83 C 0.65372 0.87913 0.99347 0.0
C84 C 0.67197 0.90142 0.00613 0.0
C85 C 0.67921 0.9185 0.95338 0.0
C86 C 0.66849 0.91239 0.88671 0.0
C87 C 0.65033 0.89013 0.87415 0.0
C88 C 0.58939 0.804 0.11763 0.0
C89 C 0.62195 0.78284 1.00274 0.0
C90 C 0.54122 0.72119 0.07064 0.0
Eu91 Eu 0.56841 0.76151 0.01557 0.0
C92 C 0.51763 0.7019 0.06012 0.0
C93 C 0.50844 0.69462 0.99207 0.0
C94 C 0.48631 0.6757 0.98341 0.0
C95 C 0.47291 0.66388 0.04261 0.0
C96 C 0.48205 0.6715 0.1106 0.0
C97 C 0.50423 0.6903 0.1192 0.0
C98 C 0.57506 0.76953 0.87373 0.0
C99 C 0.54135 0.78946 0.98912 0.0
O100 O 0.62336 0.83344 0.9033 0.0
O101 O 0.60427 0.84697 0.95878 0.0
O102 O 0.59073 0.82176 0.08628 0.0
O103 O 0.59354 0.79238 0.07428 0.0
O104 O 0.62153 0.79917 0.96461 0.0
O105 O 0.60398 0.76853 0.04087 0.0
O106 O 0.54321 0.74027 0.09572 0.0
O107 O 0.5561 0.72479 0.02059 0.0
O108 O 0.57457 0.75215 0.90512 0.0
O109 O 0.57029 0.78068 0.91708 0.0
O110 O 0.54183 0.77286 0.02512 0.0
O111 O 0.55946 0.80439 0.9525 0.0
H112 H 0.64786 0.86648 0.03554 0.0
H113 H 0.68002 0.90544 0.05775 0.0
H114 H 0.67329 0.92509 0.84518 0.0
H115 H 0.64175 0.88614 0.82329 0.0
H116 H 0.51839 0.70345 0.94561 0.0
H117 H 0.47962 0.6704 0.93042 0.0
H118 H 0.47224 0.66262 0.15721 0.0
H119 H 0.51102 0.69564 0.1721 0.0
C120 C 0.77046 0.62085 0.92773 0.0
Eu121 Eu 0.78434 0.59415 0.98288 0.0
C122 C 0.76676 0.64023 0.94588 0.0
C123 C 0.74794 0.63669 0.98772 0.0
C124 C 0.74303 0.6544 0.998 0.0
C125 C 0.75681 0.67613 0.96682 0.0
C126 C 0.77603 0.67985 0.92666 0.0
C127 C 0.78088 0.66207 0.91609 0.0
C128 C 0.7857 0.58797 0.12477 0.0
C129 C 0.83945 0.6204 0.00656 0.0
C130 C 0.82018 0.54019 0.08093 0.0
Eu131 Eu 0.80727 0.56722 0.02351 0.0
C132 C 0.81617 0.51674 0.06989 0.0
C133 C 0.81413 0.50767 1.00161 0.0
C134 C 0.81102 0.48562 0.99232 0.0
C135 C 0.80966 0.47217 0.05112 0.0
C136 C 0.81134 0.4812 0.11937 0.0
C137 C 0.81462 0.50331 0.12859 0.0
C138 C 0.80643 0.57378 0.88164 0.0
C139 C 0.7524 0.54012 0.99425 0.0
O140 O 0.79165 0.62503 0.92299 0.0
O141 O 0.75676 0.60094 0.95684 0.0
O142 O 0.76889 0.58851 0.09334 0.0
O143 O 0.8016 0.59253 0.08166 0.0
O144 O 0.82273 0.61939 0.96687 0.0
O145 O 0.83572 0.60295 0.04737 0.0
O146 O 0.80266 0.54185 0.10382 0.0
O147 O 0.83198 0.55538 0.0321 0.0
O148 O 0.82267 0.57218 0.91325 0.0
O149 O 0.79045 0.56941 0.92434 0.0
O150 O 0.76927 0.54066 0.03165 0.0
O151 O 0.75579 0.55825 0.95734 0.0
H152 H 0.73653 0.62003 0.01096 0.0
H153 H 0.72786 0.65071 0.02821 0.0
H154 H 0.78717 0.69644 0.90257 0.0
H155 H 0.79539 0.66525 0.88317 0.0
H156 H 0.81504 0.51767 0.95547 0.0
H157 H 0.80951 0.47901 0.93916 0.0
H158 H 0.81057 0.47134 0.16567 0.0
H159 H 0.81614 0.51 0.18165 0.0
C160 C 0.14999 0.77264 0.93852 0.0
Eu161 Eu 0.19024 0.7854 0.99436 0.0
C162 C 0.12699 0.7692 0.95612 0.0
C163 C 0.11201 0.75134 1.00143 0.0
C164 C 0.08932 0.74636 0.01054 0.0
C165 C 0.08102 0.75916 0.97483 0.0
C166 C 0.09631 0.77758 0.93156 0.0
C167 C 0.119 0.78247 0.92209 0.0
C168 C 0.1979 0.78594 0.13612 0.0
C169 C 0.22014 0.84023 0.02227 0.0
C170 C 0.28044 0.81955 0.08784 0.0
Eu171 Eu 0.24023 0.80714 0.03314 0.0
C172 C 0.2997 0.81542 0.07552 0.0
C173 C 0.30417 0.8099 0.00799 0.0
C174 C 0.32321 0.80706 0.99678 0.0
C175 C 0.33804 0.80957 0.053 0.0
C176 C 0.33311 0.81458 0.12086 0.0
C177 C 0.31415 0.81752 0.1319 0.0
C178 C 0.23206 0.8068 0.89163 0.0
C179 C 0.21131 0.75238 1.00346 0.0
O180 O 0.16728 0.79373 0.93507 0.0
O181 O 0.15573 0.75848 0.96694 0.0
O182 O 0.17977 0.77004 0.10475 0.0
O183 O 0.20971 0.80174 0.09316 0.0
O184 O 0.20417 0.82411 0.98153 0.0
O185 O 0.23357 0.83565 0.06152 0.0
O186 O 0.2613 0.80209 0.11119 0.0
O187 O 0.27697 0.83137 0.03935 0.0
O188 O 0.24983 0.82317 0.92322 0.0
O189 O 0.22067 0.79079 0.93441 0.0
O190 O 0.2282 0.76903 0.03987 0.0
O191 O 0.1965 0.75614 0.96841 0.0
H192 H 0.11752 0.74065 0.02819 0.0
H193 H 0.07803 0.73182 0.04337 0.0
H194 H 0.09064 0.78801 0.90402 0.0
H195 H 0.13015 0.79626 0.88659 0.0
H196 H 0.29312 0.80811 0.96377 0.0
H197 H 0.32658 0.80341 0.94376 0.0
H198 H 0.34388 0.8162 0.16562 0.0
H199 H 0.31085 0.82161 0.18447 0.0
C200 C 0.37986 0.14943 0.92275 0.0
Eu201 Eu 0.40601 0.18924 0.98291 0.0
C202 C 0.3586 0.12743 0.93427 0.0
C203 C 0.34737 0.12191 0.99988 0.0
C204 C 0.32906 0.09965 0.01251 0.0
C205 C 0.32179 0.08257 0.95979 0.0
C206 C 0.33252 0.08865 0.89313 0.0
C207 C 0.35074 0.11087 0.8806 0.0
C208 C 0.41201 0.19645 0.1252 0.0
C209 C 0.37988 0.21808 0.01139 0.0
C210 C 0.46058 0.27925 0.0795 0.0
Eu211 Eu 0.43332 0.23908 0.02362 0.0
C212 C 0.4841 0.29849 0.06866 0.0
C213 C 0.49447 0.30325 1.00166 0.0
C214 C 0.5165 0.32222 0.9919 0.0
C215 C 0.52859 0.33669 0.04906 0.0
C216 C 0.51826 0.33146 0.11639 0.0
C217 C 0.49621 0.31256 0.12598 0.0
C218 C 0.42669 0.23128 0.88158 0.0
C219 C 0.46004 0.21086 0.99659 0.0
O220 O 0.37794 0.16758 0.91065 0.0
O221 O 0.39694 0.15373 0.96499 0.0
O222 O 0.41047 0.17864 0.0936 0.0
O223 O 0.40803 0.20822 0.08197 0.0
O224 O 0.38021 0.20198 0.9719 0.0
O225 O 0.39782 0.23203 0.05013 0.0
O226 O 0.45867 0.2601 0.1036 0.0
O227 O 0.44569 0.27579 0.02961 0.0
O228 O 0.42727 0.24866 0.91321 0.0
O229 O 0.43133 0.22001 0.92484 0.0
O230 O 0.45966 0.22744 0.03299 0.0
O231 O 0.4419 0.19608 0.9598 0.0
H232 H 0.35327 0.13455 0.04196 0.0
H233 H 0.32099 0.09565 0.06412 0.0
H234 H 0.32769 0.07594 0.85162 0.0
H235 H 0.35934 0.11483 0.82977 0.0
H236 H 0.48542 0.29249 0.95673 0.0
H237 H 0.52382 0.32584 0.93925 0.0
H238 H 0.52724 0.34194 0.16183 0.0
H239 H 0.48853 0.30902 0.17817 0.0
C240 C 0.35421 0.22882 0.07491 0.0
C241 C 0.35954 0.22103 0.01286 0.0
C242 C 0.33716 0.23491 0.07484 0.0
C243 C 0.29041 0.23476 0.96579 0.0
H244 H 0.30645 0.28926 0.07724 0.0
C245 C 0.25492 0.29694 0.92025 0.0
C246 C 0.24945 0.30561 0.98046 0.0
C247 C 0.26455 0.28276 0.92712 0.0
C248 C 0.30153 0.27384 0.04662 0.0
H249 H 0.3507 0.21256 0.90269 0.0
H250 H 0.32152 0.22421 0.90129 0.0
H251 H 0.33038 0.27172 0.08352 0.0
H252 H 0.24845 0.30473 0.09517 0.0
H253 H 0.26586 0.28051 0.10691 0.0
H254 H 0.26211 0.23795 0.9263 0.0
C255 C 0.33002 0.22505 0.95075 0.0
C256 C 0.31521 0.26364 0.05038 0.0
C257 C 0.34679 0.21842 0.95133 0.0
C258 C 0.25292 0.29885 0.04764 0.0
C259 C 0.26278 0.28488 0.05445 0.0
C260 C 0.27688 0.24523 0.96127 0.0
C261 C 0.32543 0.23399 0.01214 0.0
C262 C 0.30992 0.24397 0.00997 0.0
C263 C 0.26914 0.2771 0.99429 0.0
C264 C 0.28237 0.26491 1.00158 0.0
H265 H 0.36361 0.23068 0.12336 0.0
H266 H 0.33362 0.24093 0.12377 0.0
H267 H 0.28559 0.21949 0.93455 0.0
H268 H 0.2528 0.30198 0.86765 0.0
H269 H 0.26948 0.27718 0.87984 0.0
C270 C 0.12308 0.35765 0.07697 0.0
C271 C 0.13747 0.36059 0.01928 0.0
C272 C 0.09987 0.34083 0.07552 0.0
C273 C 0.05522 0.28903 0.98176 0.0
H274 H 0.01566 0.3119 0.04779 0.0
C275 C 0.95713 0.2456 0.92214 0.0
C276 C 0.94291 0.24695 0.97439 0.0
C277 C 0.98097 0.25629 0.93211 0.0
C278 C 0.02638 0.30502 0.03026 0.0
H279 H 0.13914 0.3474 0.91629 0.0
H280 H 0.09818 0.3181 0.91295 0.0
H281 H 0.05705 0.33623 0.05604 0.0
H282 H 0.94264 0.2596 0.07978 0.0
H283 H 0.98392 0.27755 0.09783 0.0
H284 H 0.02421 0.25787 0.95466 0.0
C285 C 0.105 0.32871 0.95972 0.0
C286 C 0.0502 0.31902 0.03494 0.0
C287 C 0.12842 0.3455 0.9615 0.0
C288 C 0.95295 0.25804 0.03849 0.0
C289 C 0.97672 0.26863 0.0485 0.0
C290 C 0.03124 0.27494 0.97697 0.0
C291 C 0.09033 0.32667 0.01594 0.0
C292 C 0.06495 0.31122 0.01105 0.0
C293 C 0.9911 0.26854 0.99459 0.0
C294 C 0.01656 0.2828 1.00139 0.0
H295 H 0.12963 0.36875 0.12285 0.0
H296 H 0.08924 0.33932 0.12057 0.0
H297 H 0.0661 0.28247 0.96319 0.0
H298 H 0.94993 0.23688 0.87257 0.0
H299 H 0.99153 0.25589 0.88947 0.0
C300 C 0.76761 0.12315 0.07725 0.0
C301 C 0.77903 0.13745 0.01936 0.0
C302 C 0.76123 0.09994 0.07616 0.0
C303 C 0.76786 0.055 0.9818 0.0
H304 H 0.70529 0.01587 0.04764 0.0
C305 C 0.71196 0.95741 0.91765 0.0
C306 C 0.6962 0.94302 0.96927 0.0
C307 C 0.72543 0.98115 0.92896 0.0
C308 C 0.72293 0.02647 0.03019 0.0
H309 H 0.79392 0.13901 0.91651 0.0
H310 H 0.78225 0.09806 0.91373 0.0
H311 H 0.72287 0.05727 0.05724 0.0
H312 H 0.68325 0.94234 0.07491 0.0
H313 H 0.70714 0.98346 0.09527 0.0
H314 H 0.76749 0.02385 0.95325 0.0
C315 C 0.77849 0.10493 0.96042 0.0
C316 C 0.73305 0.05029 0.03567 0.0
C317 C 0.78514 0.12836 0.96188 0.0
C318 C 0.69526 0.95278 0.03407 0.0
C319 C 0.70876 0.97646 0.04542 0.0
C320 C 0.75766 0.03101 0.97619 0.0
C321 C 0.7658 0.09031 0.0167 0.0
C322 C 0.75564 0.0649 0.01172 0.0
C323 C 0.72346 0.99103 0.99218 0.0
C324 C 0.73505 0.01648 1.00042 0.0
H325 H 0.763 0.12975 0.12288 0.0
H326 H 0.75208 0.08936 0.12128 0.0
H327 H 0.78533 0.06576 0.96319 0.0
H328 H 0.7134 0.95042 0.86756 0.0
H329 H 0.73655 0.99186 0.88679 0.0
C330 C 0.75207 0.70802 0.91447 0.0
C331 C 0.7502 0.69422 0.97294 0.0
C332 C 0.74362 0.72329 0.9179 0.0
C333 C 0.72121 0.75065 0.04297 0.0
H334 H 0.68584 0.74995 0.87991 0.0
C335 C 0.64549 0.76762 0.05724 0.0
C336 C 0.6424 0.77997 1.00251 0.0
C337 C 0.66321 0.76249 0.05402 0.0
C338 C 0.69601 0.75072 0.9254 0.0
H339 H 0.73914 0.68676 0.08225 0.0
H340 H 0.72366 0.7126 0.08741 0.0
H341 H 0.70855 0.7309 0.87344 0.0
H342 H 0.65594 0.79737 0.90264 0.0
H343 H 0.68686 0.78801 0.8964 0.0
H344 H 0.70757 0.76949 0.09588 0.0
C345 C 0.73193 0.71193 0.03905 0.0
C346 C 0.70909 0.73981 0.92175 0.0
C347 C 0.74053 0.6968 0.03578 0.0
C348 C 0.65795 0.78785 0.94563 0.0
C349 C 0.67554 0.7824 0.94189 0.0
C350 C 0.70795 0.76138 0.04678 0.0
C351 C 0.73296 0.72506 0.97972 0.0
C352 C 0.72144 0.73916 0.98102 0.0
C353 C 0.6781 0.76934 0.99558 0.0
C354 C 0.69481 0.76108 0.98853 0.0
H355 H 0.75926 0.70642 0.86499 0.0
H356 H 0.74506 0.73339 0.87152 0.0
H357 H 0.73089 0.75096 0.08915 0.0
H358 H 0.63386 0.76141 0.10198 0.0
H359 H 0.66459 0.75221 0.09585 0.0
C360 C 0.04386 0.74342 0.04258 0.0
C361 C 0.05619 0.7522 0.97928 0.0
C362 C 0.02004 0.7343 0.04457 0.0
C363 C 0.96964 0.70838 0.92535 0.0
H364 H 0.93733 0.7082 0.09549 0.0
C365 C 0.87036 0.65578 0.9465 0.0
C366 C 0.86274 0.64089 1.00501 0.0
C367 C 0.8933 0.67359 0.94231 0.0
C368 C 0.94614 0.7082 0.04749 0.0
H369 H 0.05304 0.75918 0.86903 0.0
H370 H 0.01172 0.74418 0.87326 0.0
H371 H 0.97913 0.73244 0.08958 0.0
H372 H 0.87275 0.63371 0.10669 0.0
H373 H 0.91252 0.66485 0.09977 0.0
H374 H 0.93661 0.68391 0.88379 0.0
C375 C 0.02039 0.74379 0.92106 0.0
C376 C 0.9701 0.72198 0.04417 0.0
C377 C 0.04421 0.75272 0.91891 0.0
C378 C 0.87814 0.64482 0.06069 0.0
C379 C 0.9009 0.66277 0.057 0.0
C380 C 0.94567 0.6948 0.92844 0.0
C381 C 0.0079 0.73393 0.98345 0.0
C382 C 0.98224 0.72177 0.98376 0.0
C383 C 0.90886 0.67704 0.99716 0.0
C384 C 0.93374 0.69411 0.99021 0.0
H385 H 0.05254 0.7431 0.09046 0.0
H386 H 0.01107 0.7267 0.0935 0.0
H387 H 0.97832 0.70746 0.8783 0.0
H388 H 0.85886 0.65313 0.90278 0.0
H389 H 0.89898 0.68442 0.8957 0.0
C390 C 0.21746 0.87286 0.96675 0.0
C391 C 0.22369 0.8638 0.02407 0.0
C392 C 0.22401 0.89626 0.96539 0.0
C393 C 0.26916 0.95104 0.04064 0.0
H394 H 0.23395 0.97689 0.95994 0.0
C395 C 0.30587 0.04832 0.0405 0.0
C396 C 0.30483 0.05806 0.97576 0.0
C397 C 0.29252 0.02463 0.05176 0.0
C398 C 0.24399 0.96989 0.98242 0.0
H399 H 0.23989 0.87156 0.12734 0.0
H400 H 0.25069 0.91191 0.12585 0.0
H401 H 0.21661 0.93502 0.96928 0.0
H402 H 0.28757 0.05062 0.87415 0.0
H403 H 0.26467 0.00915 0.89323 0.0
H404 H 0.29663 0.98559 0.05278 0.0
C405 C 0.2415 0.90131 0.0808 0.0
C406 C 0.23408 0.94593 0.98766 0.0
C407 C 0.23521 0.87813 0.08179 0.0
C408 C 0.28908 0.04364 0.92418 0.0
C409 C 0.27576 0.01989 0.9354 0.0
C410 C 0.27899 0.97484 0.03554 0.0
C411 C 0.23672 0.91088 0.02161 0.0
C412 C 0.24659 0.93624 0.01694 0.0
C413 C 0.27788 0.01003 0.99848 0.0
C414 C 0.26658 0.98461 0.0064 0.0
H415 H 0.20858 0.86218 0.92153 0.0
H416 H 0.2201 0.90308 0.9189 0.0
H417 H 0.27955 0.94422 0.06174 0.0
H418 H 0.31787 0.05879 0.08131 0.0
H419 H 0.29424 0.01763 0.1015 0.0
C420 C 0.22509 0.72531 0.03829 0.0
C421 C 0.20954 0.72949 1.00032 0.0
C422 C 0.22317 0.70361 0.03708 0.0
C423 C 0.18137 0.64242 1.00321 0.0
H424 H 0.23601 0.63657 1.00385 0.0
C425 C 0.17823 0.55751 0.07578 0.0
C426 C 0.1926 0.55142 0.03893 0.0
C427 C 0.18012 0.579 0.0656 0.0
C428 C 0.22055 0.63785 1.00287 0.0
H429 H 0.17997 0.71418 0.93034 0.0
H430 H 0.17679 0.67634 0.92759 0.0
H431 H 0.23989 0.67453 0.99354 0.0
H432 H 0.22024 0.56328 0.96215 0.0
H433 H 0.22317 0.6006 0.9431 0.0
H434 H 0.16202 0.60572 0.01156 0.0
C435 C 0.19028 0.68979 0.95913 0.0
C436 C 0.22279 0.65966 0.99785 0.0
C437 C 0.19218 0.71152 0.96041 0.0
C438 C 0.20877 0.56731 0.99101 0.0
C439 C 0.21063 0.58882 0.98067 0.0
C440 C 0.17913 0.62061 0.00808 0.0
C441 C 0.20569 0.68554 0.99776 0.0
C442 C 0.20325 0.66224 0.9988 0.0
C443 C 0.19637 0.59496 0.01804 0.0
C444 C 0.1987 0.61806 0.00882 0.0
H445 H 0.23865 0.73873 0.06975 0.0
H446 H 0.23512 0.70088 0.06832 0.0
H447 H 0.16596 0.64377 1.00469 0.0
H448 H 0.16535 0.54559 0.11233 0.0
H449 H 0.16906 0.58324 0.09596 0.0
C450 C 0.50039 0.22447 0.03686 0.0
C451 C 0.48136 0.20943 0.99537 0.0
C452 C 0.52039 0.22293 0.03704 0.0
C453 C 0.5416 0.18281 0.99735 0.0
H454 H 0.60142 0.2382 0.00811 0.0
C455 C 0.62685 0.18104 0.98355 0.0
C456 C 0.64363 0.19452 0.03396 0.0
C457 C 0.60733 0.1832 0.97437 0.0
C458 C 0.58483 0.22258 0.00556 0.0
H459 H 0.46856 0.18111 0.9208 0.0
H460 H 0.50362 0.17865 0.92033 0.0
H461 H 0.56683 0.24132 0.99931 0.0
H462 H 0.65339 0.2212 0.11301 0.0
H463 H 0.61929 0.22492 0.09717 0.0
H464 H 0.55968 0.1641 1.00359 0.0
C465 C 0.50293 0.19142 0.95361 0.0
C466 C 0.56499 0.22435 1.00064 0.0
C467 C 0.48287 0.19291 0.95358 0.0
C468 C 0.64066 0.21044 0.0742 0.0
C469 C 0.62124 0.21272 0.06464 0.0
C470 C 0.56146 0.18105 1.00191 0.0
C471 C 0.52192 0.20636 0.99555 0.0
C472 C 0.5431 0.20448 0.99723 0.0
C473 C 0.60428 0.19901 0.01497 0.0
C474 C 0.58327 0.20091 0.00677 0.0
H475 H 0.4998 0.23735 0.06993 0.0
H476 H 0.5345 0.23448 0.07086 0.0
H477 H 0.52503 0.16715 0.99583 0.0
H478 H 0.62858 0.16849 0.95215 0.0
H479 H 0.59465 0.17253 0.9353 0.0
C480 C 0.43124 0.64056 0.07636 0.0
C481 C 0.44963 0.64342 0.03374 0.0
C482 C 0.40955 0.62091 0.06998 0.0
C483 C 0.37358 0.57171 0.95108 0.0
H484 H 0.33913 0.54468 0.12316 0.0
C485 C 0.28999 0.48232 0.96097 0.0
C486 C 0.27194 0.48087 1.00259 0.0
C487 C 0.31174 0.5022 0.9622 0.0
C488 C 0.34844 0.55213 0.07455 0.0
H489 H 0.45967 0.62791 0.95084 0.0
H490 H 0.42187 0.59343 0.94027 0.0
H491 H 0.37681 0.57924 0.1299 0.0
H492 H 0.26258 0.49932 0.07748 0.0
H493 H 0.30036 0.53381 0.07949 0.0
H494 H 0.34515 0.54429 0.896 0.0
C495 C 0.42408 0.60657 0.97778 0.0
C496 C 0.37003 0.572 0.07835 0.0
C497 C 0.44576 0.62632 0.98388 0.0
C498 C 0.27608 0.49978 0.0449 0.0
C499 C 0.29779 0.51954 0.04641 0.0
C500 C 0.35198 0.55172 0.94733 0.0
C501 C 0.40573 0.60353 0.02117 0.0
C502 C 0.38283 0.58216 0.01667 0.0
C503 C 0.31591 0.52094 0.00546 0.0
C504 C 0.33911 0.54181 0.00902 0.0
H505 H 0.4336 0.65361 0.11447 0.0
H506 H 0.39572 0.6194 0.10321 0.0
H507 H 0.38283 0.57921 0.90243 0.0
H508 H 0.28738 0.46806 0.92776 0.0
H509 H 0.32541 0.50271 0.93041 0.0
C510 C 0.79138 0.43044 0.08408 0.0
C511 C 0.80684 0.44892 0.04155 0.0
C512 C 0.78926 0.40875 0.07682 0.0
C513 C 0.80204 0.37303 0.95548 0.0
H514 H 0.7949 0.33802 0.12608 0.0
C515 C 0.80795 0.28954 0.96073 0.0
C516 C 0.79147 0.27133 1.00216 0.0
C517 C 0.80974 0.31124 0.96301 0.0
C518 C 0.79667 0.34749 0.07788 0.0
H519 H 0.83219 0.45912 0.95795 0.0
H520 H 0.82875 0.42132 0.94586 0.0
H521 H 0.79813 0.37571 0.13464 0.0
H522 H 0.76378 0.26162 0.07782 0.0
H523 H 0.76695 0.29933 0.08167 0.0
H524 H 0.80086 0.34475 0.89897 0.0
C525 C 0.81793 0.42346 0.98398 0.0
C526 C 0.79847 0.36909 0.08273 0.0
C527 C 0.81993 0.44514 0.99095 0.0
C528 C 0.77672 0.27525 0.04535 0.0
C529 C 0.77861 0.29692 0.04791 0.0
C530 C 0.80037 0.35143 0.95067 0.0
C531 C 0.80268 0.40502 0.02719 0.0
C532 C 0.80103 0.3821 0.0216 0.0
C533 C 0.79522 0.3152 0.00715 0.0
C534 C 0.79752 0.33837 0.01183 0.0
H535 H 0.78079 0.43273 0.12275 0.0
H536 H 0.77699 0.39485 0.10996 0.0
H537 H 0.80373 0.38243 0.90723 0.0
H538 H 0.81957 0.2871 0.92687 0.0
H539 H 0.82282 0.32504 0.93136 0.0
C540 C 0.35804 0.79058 0.99487 0.0
C541 C 0.3588 0.8074 0.04092 0.0
C542 C 0.3776 0.78859 0.98395 0.0
C543 C 0.44116 0.82066 1.0045 0.0
H544 H 0.43452 0.75992 0.99463 0.0
C545 C 0.51862 0.80775 0.94834 0.0
C546 C 0.52002 0.79089 0.98858 0.0
C547 C 0.49868 0.80945 0.94964 0.0
C548 C 0.4367 0.77701 0.99765 0.0
H549 H 0.38095 0.83562 0.11046 0.0
H550 H 0.41473 0.8317 0.09313 0.0
H551 H 0.40045 0.76369 0.00795 0.0
H552 H 0.50145 0.76244 0.06137 0.0
H553 H 0.46692 0.76563 0.06446 0.0
H554 H 0.47745 0.83397 0.99672 0.0
C555 C 0.39912 0.82022 0.06466 0.0
C556 C 0.41712 0.77918 1.00441 0.0
C557 C 0.37962 0.82225 0.07542 0.0
C558 C 0.50095 0.77561 0.02954 0.0
C559 C 0.48105 0.77734 0.03096 0.0
C560 C 0.46073 0.81849 0.99793 0.0
C561 C 0.39837 0.80336 0.01885 0.0
C562 C 0.41911 0.80103 0.00854 0.0
C563 C 0.47969 0.79435 0.99132 0.0
C564 C 0.45877 0.79664 0.99501 0.0
H565 H 0.34226 0.77873 0.96788 0.0
H566 H 0.37646 0.77556 0.94775 0.0
H567 H 0.44332 0.83776 0.00653 0.0
H568 H 0.53296 0.81974 0.91598 0.0
H569 H 0.49811 0.82255 0.91772 0.0
C570 C 0.72578 0.49959 0.03331 0.0
C571 C 0.72968 0.51876 0.99272 0.0
C572 C 0.70416 0.47966 0.03392 0.0
C573 C 0.64278 0.45938 0.99958 0.0
H574 H 0.63725 0.39908 0.00829 0.0
C575 C 0.55762 0.37808 0.07383 0.0
C576 C 0.55167 0.35741 0.03845 0.0
C577 C 0.57924 0.39757 0.06414 0.0
C578 C 0.63844 0.41575 1.00513 0.0
H579 H 0.71396 0.53184 0.91991 0.0
H580 H 0.67631 0.49694 0.92028 0.0
H581 H 0.67515 0.4332 0.99613 0.0
H582 H 0.56398 0.34111 0.96516 0.0
H583 H 0.60152 0.37531 0.9469 0.0
H584 H 0.60607 0.44194 0.00743 0.0
C585 C 0.68989 0.49745 0.95251 0.0
C586 C 0.66022 0.43536 0.99902 0.0
C587 C 0.71153 0.51742 0.95199 0.0
C588 C 0.56789 0.35678 0.99277 0.0
C589 C 0.58953 0.37633 0.98293 0.0
C590 C 0.62102 0.43979 0.00553 0.0
C591 C 0.6859 0.47837 0.99386 0.0
C592 C 0.66268 0.45743 0.99683 0.0
C593 C 0.59547 0.39697 0.01856 0.0
C594 C 0.61858 0.41774 0.00908 0.0
H595 H 0.73935 0.50003 0.06548 0.0
H596 H 0.70164 0.46544 0.06716 0.0
H597 H 0.64403 0.4761 0.99872 0.0
H598 H 0.54547 0.37931 0.10865 0.0
H599 H 0.58332 0.41307 0.09318 0.0
C600 C 0.2161 0.42479 0.782 0.0
C601 C 0.19665 0.42438 0.8112 0.0
C602 C 0.21806 0.42327 0.7088 0.0
C603 C 0.18376 0.40527 0.54334 0.0
H604 H 0.24289 0.44391 0.45384 0.0
C605 C 0.19405 0.41398 0.23949 0.0
C606 C 0.21335 0.41417 0.21004 0.0
C607 C 0.19209 0.4153 0.31276 0.0
C608 C 0.22631 0.43281 0.47804 0.0
H609 H 0.16389 0.42179 0.78703 0.0
H610 H 0.16736 0.41937 0.65916 0.0
H611 H 0.23919 0.44573 0.58155 0.0
H612 H 0.24588 0.41617 0.23387 0.0
H613 H 0.24244 0.41833 0.3619 0.0
H614 H 0.17089 0.39239 0.43977 0.0
C615 C 0.18102 0.42063 0.69269 0.0
C616 C 0.22418 0.43384 0.55136 0.0
C617 C 0.17908 0.42215 0.76593 0.0
C618 C 0.2308 0.41598 0.25517 0.0
C619 C 0.22887 0.41735 0.32847 0.0
C620 C 0.18589 0.40425 0.47001 0.0
C621 C 0.2006 0.42129 0.66312 0.0
C622 C 0.20288 0.42009 0.585 0.0
C623 C 0.20943 0.41691 0.35825 0.0
C624 C 0.20719 0.41802 0.43639 0.0
H625 H 0.22985 0.42634 0.81572 0.0
H626 H 0.23319 0.42346 0.68807 0.0
H627 H 0.16718 0.39416 0.56749 0.0
H628 H 0.1804 0.41275 0.20592 0.0
H629 H 0.17706 0.41528 0.33373 0.0
C630 C 0.75816 0.17883 0.76285 0.0
C631 C 0.77327 0.19658 0.80808 0.0
C632 C 0.76159 0.18082 0.6896 0.0
C633 C 0.80588 0.21242 0.55239 0.0
H634 H 0.75309 0.19217 0.42895 0.0
C635 C 0.81565 0.23076 0.25152 0.0
C636 C 0.80022 0.2131 0.20657 0.0
C637 C 0.81237 0.22889 0.32485 0.0
C638 C 0.76801 0.19767 0.46255 0.0
H639 H 0.80403 0.23018 0.81244 0.0
H640 H 0.80998 0.23377 0.68461 0.0
H641 H 0.74754 0.18844 0.55661 0.0
H642 H 0.76914 0.17974 0.20288 0.0
H643 H 0.76351 0.17632 0.33074 0.0
H644 H 0.82635 0.22162 0.45833 0.0
C645 C 0.79555 0.21822 0.70555 0.0
C646 C 0.76482 0.19553 0.53586 0.0
C647 C 0.79207 0.21624 0.77879 0.0
C648 C 0.78133 0.19363 0.23626 0.0
C649 C 0.77803 0.19175 0.30956 0.0
C650 C 0.80907 0.21455 0.47906 0.0
C651 C 0.78028 0.20058 0.65994 0.0
C652 C 0.78371 0.20285 0.58178 0.0
C653 C 0.79355 0.20932 0.3549 0.0
C654 C 0.79017 0.20719 0.43312 0.0
H655 H 0.74359 0.16343 0.78401 0.0
H656 H 0.7497 0.16675 0.65623 0.0
H657 H 0.82079 0.21794 0.58605 0.0
H658 H 0.8303 0.24602 0.23004 0.0
H659 H 0.82447 0.24292 0.35795 0.0
C660 C 0.57619 0.79223 0.7672 0.0
C661 C 0.5772 0.77352 0.79652 0.0
C662 C 0.57774 0.79573 0.69397 0.0
C663 C 0.59686 0.78032 0.52892 0.0
H664 H 0.55711 0.79919 0.43832 0.0
C665 C 0.58845 0.78155 0.22463 0.0
C666 C 0.58758 0.80029 0.195 0.0
C667 C 0.58714 0.77829 0.29795 0.0
C668 C 0.56852 0.79416 0.46281 0.0
H669 H 0.58087 0.74397 0.77251 0.0
H670 H 0.58333 0.74988 0.64471 0.0
H671 H 0.55526 0.79377 0.56607 0.0
H672 H 0.58443 0.83018 0.21861 0.0
H673 H 0.58231 0.82463 0.34659 0.0
H674 H 0.61007 0.78066 0.42561 0.0
C675 C 0.58159 0.76202 0.67812 0.0
C676 C 0.56747 0.79107 0.53618 0.0
C677 C 0.58004 0.75853 0.75134 0.0
C678 C 0.58515 0.81558 0.24001 0.0
C679 C 0.5838 0.81231 0.31332 0.0
C680 C 0.59788 0.78339 0.45555 0.0
C681 C 0.58036 0.78061 0.6484 0.0
C682 C 0.58162 0.78409 0.57024 0.0
C683 C 0.58486 0.79366 0.3433 0.0
C684 C 0.58372 0.79034 0.4215 0.0
H685 H 0.57417 0.80416 0.80084 0.0
H686 H 0.57709 0.81042 0.67313 0.0
H687 H 0.60827 0.77529 0.55339 0.0
H688 H 0.59018 0.7694 0.19116 0.0
H689 H 0.58767 0.76356 0.31906 0.0
C690 C 0.81628 0.56861 0.75831 0.0
C691 C 0.80462 0.57559 0.80454 0.0
C692 C 0.81399 0.56968 0.68513 0.0
C693 C 0.77827 0.5781 0.54778 0.0
H694 H 0.82774 0.5852 0.42585 0.0
C695 C 0.76806 0.57416 0.24377 0.0
C696 C 0.78775 0.58645 0.20189 0.0
C697 C 0.77005 0.57249 0.3169 0.0
C698 C 0.81384 0.58365 0.4587 0.0
H699 H 0.78196 0.58974 0.81137 0.0
H700 H 0.7792 0.59327 0.68417 0.0
H701 H 0.83202 0.58468 0.55224 0.0
H702 H 0.82492 0.60707 0.20299 0.0
H703 H 0.82847 0.60567 0.33045 0.0
H704 H 0.76086 0.57893 0.4545 0.0
C705 C 0.78925 0.58585 0.70341 0.0
C706 C 0.8161 0.5828 0.53195 0.0
C707 C 0.79099 0.58409 0.77658 0.0
C708 C 0.80946 0.59731 0.23423 0.0
C709 C 0.81145 0.59627 0.30752 0.0
C710 C 0.77629 0.57964 0.47462 0.0
C711 C 0.80054 0.57846 0.6563 0.0
C712 C 0.79828 0.57983 0.57783 0.0
C713 C 0.79179 0.58368 0.35019 0.0
C714 C 0.79398 0.58228 0.42869 0.0
H715 H 0.82674 0.56178 0.77872 0.0
H716 H 0.82254 0.56322 0.65149 0.0
H717 H 0.76388 0.57536 0.58046 0.0
H718 H 0.75113 0.56545 0.21976 0.0
H719 H 0.75448 0.56213 0.34687 0.0
C720 C 0.18595 0.77035 0.25863 0.0
C721 C 0.20162 0.78774 0.21342 0.0
C722 C 0.18922 0.77237 0.33194 0.0
C723 C 0.21904 0.81554 0.47295 0.0
H724 H 0.20711 0.76241 0.58551 0.0
C725 C 0.24354 0.82265 0.76918 0.0
C726 C 0.22812 0.80511 0.81445 0.0
C727 C 0.24011 0.82067 0.69593 0.0
C728 C 0.21025 0.77737 0.55502 0.0
H729 H 0.23321 0.82067 0.20911 0.0
H730 H 0.23904 0.82415 0.3369 0.0
H731 H 0.20169 0.75852 0.4578 0.0
H732 H 0.19677 0.77198 0.81899 0.0
H733 H 0.19063 0.76858 0.69134 0.0
H734 H 0.22758 0.83439 0.57015 0.0
C735 C 0.22402 0.80911 0.31601 0.0
C736 C 0.20716 0.77513 0.4817 0.0
C737 C 0.22076 0.80706 0.24275 0.0
C738 C 0.20904 0.7857 0.78526 0.0
C739 C 0.2056 0.78371 0.71208 0.0
C740 C 0.22212 0.81778 0.54627 0.0
C741 C 0.20823 0.79183 0.36159 0.0
C742 C 0.21153 0.7942 0.4397 0.0
C743 C 0.22117 0.8011 0.66638 0.0
C744 C 0.21778 0.79872 0.58828 0.0
H745 H 0.17104 0.75527 0.23741 0.0
H746 H 0.1766 0.75885 0.36545 0.0
H747 H 0.22221 0.8305 0.4424 0.0
H748 H 0.2584 0.83781 0.79028 0.0
H749 H 0.25258 0.83428 0.66236 0.0
C750 C 0.42185 0.24237 0.75903 0.0
C751 C 0.42451 0.22729 0.80432 0.0
C752 C 0.42026 0.23885 0.68579 0.0
C753 C 0.43383 0.20924 0.54402 0.0
H754 H 0.39174 0.22033 0.43317 0.0
C755 C 0.41599 0.18468 0.24772 0.0
C756 C 0.4138 0.2001 0.20264 0.0
C757 C 0.41734 0.18796 0.32106 0.0
C758 C 0.40378 0.2174 0.46318 0.0
H759 H 0.42716 0.19643 0.80877 0.0
H760 H 0.42415 0.1901 0.68115 0.0
H761 H 0.39366 0.22586 0.56088 0.0
H762 H 0.41162 0.23123 0.19875 0.0
H763 H 0.41414 0.23708 0.32659 0.0
H764 H 0.44393 0.20076 0.44629 0.0
C765 C 0.42369 0.2049 0.70187 0.0
C766 C 0.40489 0.22057 0.53653 0.0
C767 C 0.42528 0.20845 0.77507 0.0
C768 C 0.41316 0.21897 0.23224 0.0
C769 C 0.41447 0.22224 0.30556 0.0
C770 C 0.43271 0.20605 0.47067 0.0
C771 C 0.42126 0.22012 0.65616 0.0
C772 C 0.41994 0.21656 0.57798 0.0
C773 C 0.41652 0.20674 0.35101 0.0
C774 C 0.41769 0.21011 0.42923 0.0
H775 H 0.42121 0.25705 0.78012 0.0
H776 H 0.41867 0.25107 0.65231 0.0
H777 H 0.44591 0.20635 0.57397 0.0
H778 H 0.41652 0.16998 0.22636 0.0
H779 H 0.41865 0.17554 0.35439 0.0
loop_
_geom_bond_atom_site_label_1
_geom_bond_atom_site_label_2
_geom_bond_distance
_geom_bond_site_symmetry_2
_ccdc_geom_bond_type
C0 Eu1 2.835 1_556 S
C0 C2 1.500 . S
C0 O20 1.257 . S
C0 O21 1.260 1_556 S
Eu1 C0 2.835 1_554 S
Eu1 O20 2.473 1_554 S
Eu1 O21 2.480 . S
Eu1 O22 2.430 . S
Eu1 O23 2.670 . S
Eu1 O24 2.394 . S
Eu1 O29 2.355 1_554 S
Eu1 O31 2.374 . S
C2 C0 1.500 . S
C2 C3 1.377 1_556 S
C2 C7 1.377 . S
C3 C2 1.377 1_554 S
C3 C4 1.395 . S
C3 H32 0.931 . S
C4 C3 1.395 . S
C4 C5 1.383 1_554 S
C4 H33 0.931 . S
C5 C4 1.383 1_556 S
C5 C6 1.394 . S
C6 C5 1.394 . S
C6 C7 1.378 . S
C6 H34 0.931 . S
C7 C2 1.377 . S
C7 C6 1.378 . S
C7 H35 0.931 . S
C8 O22 1.259 . S
C8 O23 1.270 . S
C9 O24 1.251 . S
C9 O25 1.252 . S
C10 Eu11 2.835 1_554 S
C10 C12 1.500 . S
C10 O26 1.257 . S
C10 O27 1.260 1_554 S
Eu11 C10 2.835 1_556 S
Eu11 O23 2.355 1_556 S
Eu11 O25 2.374 1_556 S
Eu11 O26 2.473 1_556 S
Eu11 O27 2.480 . S
Eu11 O28 2.430 . S
Eu11 O29 2.670 . S
Eu11 O30 2.394 . S
C12 C10 1.500 . S
C12 C13 1.377 1_554 S
C12 C17 1.377 . S
C13 C12 1.377 1_556 S
C13 C14 1.395 . S
C13 H36 0.931 . S
C14 C13 1.395 . S
C14 C15 1.383 1_556 S
C14 H37 0.931 . S
C15 C14 1.383 1_554 S
C15 C16 1.394 . S
C16 C15 1.394 . S
C16 C17 1.378 . S
C16 H38 0.931 . S
C17 C12 1.377 . S
C17 C16 1.378 . S
C17 H39 0.931 . S
C18 O28 1.259 . S
C18 O29 1.270 . S
C19 O30 1.251 . S
C19 O31 1.252 1_556 S
O20 C0 1.257 . S
O20 Eu1 2.473 1_556 S
O21 C0 1.260 1_554 S
O21 Eu1 2.480 . S
O22 Eu1 2.430 . S
O22 C8 1.259 . S
O23 Eu1 2.670 . S
O23 C8 1.270 . S
O23 Eu11 2.355 1_554 S
O24 Eu1 2.394 . S
O24 C9 1.251 . S
O25 C9 1.252 . S
O25 Eu11 2.374 1_554 S
O26 C10 1.257 . S
O26 Eu11 2.473 1_554 S
O27 C10 1.260 1_556 S
O27 Eu11 2.480 . S
O28 Eu11 2.430 . S
O28 C18 1.259 . S
O29 Eu1 2.355 1_556 S
O29 Eu11 2.670 . S
O29 C18 1.270 . S
O30 Eu11 2.394 . S
O30 C19 1.251 . S
O31 Eu1 2.374 . S
O31 C19 1.252 1_554 S
H32 C3 0.931 . S
H33 C4 0.931 . S
H34 C6 0.931 . S
H35 C7 0.931 . S
H36 C13 0.931 . S
H37 C14 0.931 . S
H38 C16 0.931 . S
H39 C17 0.931 . S
C40 Eu41 2.835 1_556 S
C40 C42 1.500 . S
C40 O60 1.257 . S
C40 O61 1.260 1_556 S
Eu41 C40 2.835 1_554 S
Eu41 O60 2.473 1_554 S
Eu41 O61 2.480 . S
Eu41 O62 2.430 . S
Eu41 O63 2.670 . S
Eu41 O64 2.394 . S
Eu41 O69 2.355 1_554 S
Eu41 O71 2.374 . S
C42 C40 1.500 . S
C42 C43 1.377 1_556 S
C42 C47 1.377 . S
C43 C42 1.377 1_554 S
C43 C44 1.395 . S
C43 H72 0.931 . S
C44 C43 1.395 . S
C44 C45 1.383 1_554 S
C44 H73 0.931 . S
C45 C44 1.383 1_556 S
C45 C46 1.394 . S
C46 C45 1.394 . S
C46 C47 1.378 . S
C46 H74 0.931 . S
C47 C42 1.377 . S
C47 C46 1.378 . S
C47 H75 0.931 . S
C48 O62 1.259 . S
C48 O63 1.270 . S
C49 O64 1.251 . S
C49 O65 1.252 . S
C50 Eu51 2.835 1_554 S
C50 C52 1.500 . S
C50 O66 1.257 . S
C50 O67 1.260 1_554 S
Eu51 C50 2.835 1_556 S
Eu51 O63 2.355 1_556 S
Eu51 O65 2.374 1_556 S
Eu51 O66 2.473 1_556 S
Eu51 O67 2.480 . S
Eu51 O68 2.430 . S
Eu51 O69 2.670 . S
Eu51 O70 2.394 . S
C52 C50 1.500 . S
C52 C53 1.377 1_554 S
C52 C57 1.377 . S
C53 C52 1.377 1_556 S
C53 C54 1.395 . S
C53 H76 0.931 . S
C54 C53 1.395 . S
C54 C55 1.383 1_556 S
C54 H77 0.931 . S
C55 C54 1.383 1_554 S
C55 C56 1.394 . S
C56 C55 1.394 . S
C56 C57 1.378 . S
C56 H78 0.931 . S
C57 C52 1.377 . S
C57 C56 1.378 . S
C57 H79 0.931 . S
C58 O68 1.259 . S
C58 O69 1.270 . S
C59 O70 1.251 . S
C59 O71 1.252 1_556 S
O60 C40 1.257 . S
O60 Eu41 2.473 1_556 S
O61 C40 1.260 1_554 S
O61 Eu41 2.480 . S
O62 Eu41 2.430 . S
O62 C48 1.259 . S
O63 Eu41 2.670 . S
O63 C48 1.270 . S
O63 Eu51 2.355 1_554 S
O64 Eu41 2.394 . S
O64 C49 1.251 . S
O65 C49 1.252 . S
O65 Eu51 2.374 1_554 S
O66 C50 1.257 . S
O66 Eu51 2.473 1_554 S
O67 C50 1.260 1_556 S
O67 Eu51 2.480 . S
O68 Eu51 2.430 . S
O68 C58 1.259 . S
O69 Eu41 2.355 1_556 S
O69 Eu51 2.670 . S
O69 C58 1.270 . S
O70 Eu51 2.394 . S
O70 C59 1.251 . S
O71 Eu41 2.374 . S
O71 C59 1.252 1_554 S
H72 C43 0.931 . S
H73 C44 0.931 . S
H74 C46 0.931 . S
H75 C47 0.931 . S
H76 C53 0.931 . S
H77 C54 0.931 . S
H78 C56 0.931 . S
H79 C57 0.931 . S
C80 Eu81 2.835 1_556 S
C80 C82 1.500 . S
C80 O100 1.257 . S
C80 O101 1.260 1_556 S
Eu81 C80 2.835 1_554 S
Eu81 O100 2.473 1_554 S
Eu81 O101 2.480 . S
Eu81 O102 2.430 . S
Eu81 O103 2.670 . S
Eu81 O104 2.394 . S
Eu81 O109 2.355 1_554 S
Eu81 O111 2.374 . S
C82 C80 1.500 . S
C82 C83 1.377 1_556 S
C82 C87 1.377 . S
C83 C82 1.377 1_554 S
C83 C84 1.395 . S
C83 H112 0.931 . S
C84 C83 1.395 . S
C84 C85 1.383 1_554 S
C84 H113 0.931 . S
C85 C84 1.383 1_556 S
C85 C86 1.394 . S
C86 C85 1.394 . S
C86 C87 1.378 . S
C86 H114 0.931 . S
C87 C82 1.377 . S
C87 C86 1.378 . S
C87 H115 0.931 . S
C88 O102 1.259 . S
C88 O103 1.270 . S
C89 O104 1.251 . S
C89 O105 1.252 . S
C90 Eu91 2.835 1_554 S
C90 C92 1.500 . S
C90 O106 1.257 . S
C90 O107 1.260 1_554 S
Eu91 C90 2.835 1_556 S
Eu91 O103 2.355 1_556 S
Eu91 O105 2.374 1_556 S
Eu91 O106 2.473 1_556 S
Eu91 O107 2.480 . S
Eu91 O108 2.430 . S
Eu91 O109 2.670 . S
Eu91 O110 2.394 . S
C92 C90 1.500 . S
C92 C93 1.377 1_554 S
C92 C97 1.377 . S
C93 C92 1.377 1_556 S
C93 C94 1.395 . S
C93 H116 0.931 . S
C94 C93 1.395 . S
C94 C95 1.383 1_556 S
C94 H117 0.931 . S
C95 C94 1.383 1_554 S
C95 C96 1.394 . S
C96 C95 1.394 . S
C96 C97 1.378 . S
C96 H118 0.931 . S
C97 C92 1.377 . S
C97 C96 1.378 . S
C97 H119 0.931 . S
C98 O108 1.259 . S
C98 O109 1.270 . S
C99 O110 1.251 . S
C99 O111 1.252 1_556 S
O100 C80 1.257 . S
O100 Eu81 2.473 1_556 S
O101 C80 1.260 1_554 S
O101 Eu81 2.480 . S
O102 Eu81 2.430 . S
O102 C88 1.259 . S
O103 Eu81 2.670 . S
O103 C88 1.270 . S
O103 Eu91 2.355 1_554 S
O104 Eu81 2.394 . S
O104 C89 1.251 . S
O105 C89 1.252 . S
O105 Eu91 2.374 1_554 S
O106 C90 1.257 . S
O106 Eu91 2.473 1_554 S
O107 C90 1.260 1_556 S
O107 Eu91 2.480 . S
O108 Eu91 2.430 . S
O108 C98 1.259 . S
O109 Eu81 2.355 1_556 S
O109 Eu91 2.670 . S
O109 C98 1.270 . S
O110 Eu91 2.394 . S
O110 C99 1.251 . S
O111 Eu81 2.374 . S
O111 C99 1.252 1_554 S
H112 C83 0.931 . S
H113 C84 0.931 . S
H114 C86 0.931 . S
H115 C87 0.931 . S
H116 C93 0.931 . S
H117 C94 0.931 . S
H118 C96 0.931 . S
H119 C97 0.931 . S
C120 Eu121 2.835 1_556 S
C120 C122 1.500 . S
C120 O140 1.257 . S
C120 O141 1.260 1_556 S
Eu121 C120 2.835 1_554 S
Eu121 O140 2.473 1_554 S
Eu121 O141 2.480 . S
Eu121 O142 2.430 . S
Eu121 O143 2.670 . S
Eu121 O144 2.394 . S
Eu121 O149 2.355 1_554 S
Eu121 O151 2.374 . S
C122 C120 1.500 . S
C122 C123 1.377 1_556 S
C122 C127 1.377 . S
C123 C122 1.377 1_554 S
C123 C124 1.395 . S
C123 H152 0.931 . S
C124 C123 1.395 . S
C124 C125 1.383 1_554 S
C124 H153 0.931 . S
C125 C124 1.383 1_556 S
C125 C126 1.394 . S
C126 C125 1.394 . S
C126 C127 1.378 . S
C126 H154 0.931 . S
C127 C122 1.377 . S
C127 C126 1.378 . S
C127 H155 0.931 . S
C128 O142 1.259 . S
C128 O143 1.270 . S
C129 O144 1.251 . S
C129 O145 1.252 . S
C130 Eu131 2.835 1_554 S
C130 C132 1.500 . S
C130 O146 1.257 . S
C130 O147 1.260 1_554 S
Eu131 C130 2.835 1_556 S
Eu131 O143 2.355 1_556 S
Eu131 O145 2.374 1_556 S
Eu131 O146 2.473 1_556 S
Eu131 O147 2.480 . S
Eu131 O148 2.430 . S
Eu131 O149 2.670 . S
Eu131 O150 2.394 . S
C132 C130 1.500 . S
C132 C133 1.377 1_554 S
C132 C137 1.377 . S
C133 C132 1.377 1_556 S
C133 C134 1.395 . S
C133 H156 0.931 . S
C134 C133 1.395 . S
C134 C135 1.383 1_556 S
C134 H157 0.931 . S
C135 C134 1.383 1_554 S
C135 C136 1.394 . S
C136 C135 1.394 . S
C136 C137 1.378 . S
C136 H158 0.931 . S
C137 C132 1.377 . S
C137 C136 1.378 . S
C137 H159 0.931 . S
C138 O148 1.259 . S
C138 O149 1.270 . S
C139 O150 1.251 . S
C139 O151 1.252 1_556 S
O140 C120 1.257 . S
O140 Eu121 2.473 1_556 S
O141 C120 1.260 1_554 S
O141 Eu121 2.480 . S
O142 Eu121 2.430 . S
O142 C128 1.259 . S
O143 Eu121 2.670 . S
O143 C128 1.270 . S
O143 Eu131 2.355 1_554 S
O144 Eu121 2.394 . S
O144 C129 1.251 . S
O145 C129 1.252 . S
O145 Eu131 2.374 1_554 S
O146 C130 1.257 . S
O146 Eu131 2.473 1_554 S
O147 C130 1.260 1_556 S
O147 Eu131 2.480 . S
O148 Eu131 2.430 . S
O148 C138 1.259 . S
O149 Eu121 2.355 1_556 S
O149 Eu131 2.670 . S
O149 C138 1.270 . S
O150 Eu131 2.394 . S
O150 C139 1.251 . S
O151 Eu121 2.374 . S
O151 C139 1.252 1_554 S
H152 C123 0.931 . S
H153 C124 0.931 . S
H154 C126 0.931 . S
H155 C127 0.931 . S
H156 C133 0.931 . S
H157 C134 0.931 . S
H158 C136 0.931 . S
H159 C137 0.931 . S
C160 Eu161 2.835 1_556 S
C160 C162 1.500 . S
C160 O180 1.257 . S
C160 O181 1.260 1_556 S
Eu161 C160 2.835 1_554 S
Eu161 O180 2.473 1_554 S
Eu161 O181 2.480 . S
Eu161 O182 2.430 . S
Eu161 O183 2.670 . S
Eu161 O184 2.394 . S
Eu161 O189 2.355 1_554 S
Eu161 O191 2.374 . S
C162 C160 1.500 . S
C162 C163 1.377 1_556 S
C162 C167 1.377 . S
C163 C162 1.377 1_554 S
C163 C164 1.395 . S
C163 H192 0.931 . S
C164 C163 1.395 . S
C164 C165 1.383 1_554 S
C164 H193 0.931 . S
C165 C164 1.383 1_556 S
C165 C166 1.394 . S
C166 C165 1.394 . S
C166 C167 1.378 . S
C166 H194 0.931 . S
C167 C162 1.377 . S
C167 C166 1.378 . S
C167 H195 0.931 . S
C168 O182 1.259 . S
C168 O183 1.270 . S
C169 O184 1.251 . S
C169 O185 1.252 . S
C170 Eu171 2.835 1_554 S
C170 C172 1.500 . S
C170 O186 1.257 . S
C170 O187 1.260 1_554 S
Eu171 C170 2.835 1_556 S
Eu171 O183 2.355 1_556 S
Eu171 O185 2.374 1_556 S
Eu171 O186 2.473 1_556 S
Eu171 O187 2.480 . S
Eu171 O188 2.430 . S
Eu171 O189 2.670 . S
Eu171 O190 2.394 . S
C172 C170 1.500 . S
C172 C173 1.377 1_554 S
C172 C177 1.377 . S
C173 C172 1.377 1_556 S
C173 C174 1.395 . S
C173 H196 0.931 . S
C174 C173 1.395 . S
C174 C175 1.383 1_556 S
C174 H197 0.931 . S
C175 C174 1.383 1_554 S
C175 C176 1.394 . S
C176 C175 1.394 . S
C176 C177 1.378 . S
C176 H198 0.931 . S
C177 C172 1.377 . S
C177 C176 1.378 . S
C177 H199 0.931 . S
C178 O188 1.259 . S
C178 O189 1.270 . S
C179 O190 1.251 . S
C179 O191 1.252 1_556 S
O180 C160 1.257 . S
O180 Eu161 2.473 1_556 S
O181 C160 1.260 1_554 S
O181 Eu161 2.480 . S
O182 Eu161 2.430 . S
O182 C168 1.259 . S
O183 Eu161 2.670 . S
O183 C168 1.270 . S
O183 Eu171 2.355 1_554 S
O184 Eu161 2.394 . S
O184 C169 1.251 . S
O185 C169 1.252 . S
O185 Eu171 2.374 1_554 S
O186 C170 1.257 . S
O186 Eu171 2.473 1_554 S
O187 C170 1.260 1_556 S
O187 Eu171 2.480 . S
O188 Eu171 2.430 . S
O188 C178 1.259 . S
O189 Eu161 2.355 1_556 S
O189 Eu171 2.670 . S
O189 C178 1.270 . S
O190 Eu171 2.394 . S
O190 C179 1.251 . S
O191 Eu161 2.374 . S
O191 C179 1.252 1_554 S
H192 C163 0.931 . S
H193 C164 0.931 . S
H194 C166 0.931 . S
H195 C167 0.931 . S
H196 C173 0.931 . S
H197 C174 0.931 . S
H198 C176 0.931 . S
H199 C177 0.931 . S
C200 Eu201 2.835 1_556 S
C200 C202 1.500 . S
C200 O220 1.257 . S
C200 O221 1.260 1_556 S
Eu201 C200 2.835 1_554 S
Eu201 O220 2.473 1_554 S
Eu201 O221 2.480 . S
Eu201 O222 2.430 . S
Eu201 O223 2.670 . S
Eu201 O224 2.394 . S
Eu201 O229 2.355 1_554 S
Eu201 O231 2.374 . S
C202 C200 1.500 . S
C202 C203 1.377 1_556 S
C202 C207 1.377 . S
C203 C202 1.377 1_554 S
C203 C204 1.395 . S
C203 H232 0.931 . S
C204 C203 1.395 . S
C204 C205 1.383 1_554 S
C204 H233 0.931 . S
C205 C204 1.383 1_556 S
C205 C206 1.394 . S
C206 C205 1.394 . S
C206 C207 1.378 . S
C206 H234 0.931 . S
C207 C202 1.377 . S
C207 C206 1.378 . S
C207 H235 0.931 . S
C208 O222 1.259 . S
C208 O223 1.270 . S
C209 O224 1.251 . S
C209 O225 1.252 . S
C210 Eu211 2.835 1_554 S
C210 C212 1.500 . S
C210 O226 1.257 . S
C210 O227 1.260 1_554 S
Eu211 C210 2.835 1_556 S
Eu211 O223 2.355 1_556 S
Eu211 O225 2.374 1_556 S
Eu211 O226 2.473 1_556 S
Eu211 O227 2.480 . S
Eu211 O228 2.430 . S
Eu211 O229 2.670 . S
Eu211 O230 2.394 . S
C212 C210 1.500 . S
C212 C213 1.377 1_554 S
C212 C217 1.377 . S
C213 C212 1.377 1_556 S
C213 C214 1.395 . S
C213 H236 0.931 . S
C214 C213 1.395 . S
C214 C215 1.383 1_556 S
C214 H237 0.931 . S
C215 C214 1.383 1_554 S
C215 C216 1.394 . S
C216 C215 1.394 . S
C216 C217 1.378 . S
C216 H238 0.931 . S
C217 C212 1.377 . S
C217 C216 1.378 . S
C217 H239 0.931 . S
C218 O228 1.259 . S
C218 O229 1.270 . S
C219 O230 1.251 . S
C219 O231 1.252 1_556 S
O220 C200 1.257 . S
O220 Eu201 2.473 1_556 S
O221 C200 1.260 1_554 S
O221 Eu201 2.480 . S
O222 Eu201 2.430 . S
O222 C208 1.259 . S
O223 Eu201 2.670 . S
O223 C208 1.270 . S
O223 Eu211 2.355 1_554 S
O224 Eu201 2.394 . S
O224 C209 1.251 . S
O225 C209 1.252 . S
O225 Eu211 2.374 1_554 S
O226 C210 1.257 . S
O226 Eu211 2.473 1_554 S
O227 C210 1.260 1_556 S
O227 Eu211 2.480 . S
O228 Eu211 2.430 . S
O228 C218 1.259 . S
O229 Eu201 2.355 1_556 S
O229 Eu211 2.670 . S
O229 C218 1.270 . S
O230 Eu211 2.394 . S
O230 C219 1.251 . S
O231 Eu201 2.374 . S
O231 C219 1.252 1_554 S
H232 C203 0.931 . S
H233 C204 0.931 . S
H234 C206 0.931 . S
H235 C207 0.931 . S
H236 C213 0.931 . S
H237 C214 0.931 . S
H238 C216 0.931 . S
H239 C217 0.931 . S
C240 C241 1.349 . S
C240 C242 1.327 . S
C240 H265 0.950 . S
C241 C240 1.349 . S
C241 C257 1.349 1_554 S
C242 C240 1.327 . S
C242 C261 1.429 1_554 S
C242 H266 0.950 . S
C243 C260 1.574 . S
C243 C262 1.368 . S
C243 H267 0.949 . S
H244 C248 0.949 . S
C245 C246 1.349 . S
C245 C247 1.327 . S
C245 H268 0.950 . S
C246 C245 1.349 . S
C246 C258 1.349 1_556 S
C247 C245 1.327 . S
C247 C263 1.429 . S
C247 H269 0.950 . S
C248 H244 0.949 . S
C248 C256 1.574 . S
C248 C264 1.368 1_554 S
H249 C257 0.950 . S
H250 C255 0.950 . S
H251 C256 0.949 . S
H252 C258 0.950 . S
H253 C259 0.950 . S
H254 C260 0.949 . S
C255 H250 0.950 . S
C255 C257 1.327 . S
C255 C261 1.429 . S
C256 C248 1.574 . S
C256 H251 0.949 . S
C256 C262 1.368 1_554 S
C257 C241 1.349 1_556 S
C257 H249 0.950 . S
C257 C255 1.327 . S
C258 C246 1.349 1_554 S
C258 H252 0.950 . S
C258 C259 1.327 . S
C259 H253 0.950 . S
C259 C258 1.327 . S
C259 C263 1.429 1_554 S
C260 C243 1.574 . S
C260 H254 0.949 . S
C260 C264 1.368 . S
C261 C242 1.429 1_556 S
C261 C255 1.429 . S
C261 C262 1.523 . S
C262 C243 1.368 . S
C262 C256 1.368 1_556 S
C262 C261 1.523 . S
C263 C247 1.429 . S
C263 C259 1.429 1_556 S
C263 C264 1.523 . S
C264 C248 1.368 1_556 S
C264 C260 1.368 . S
C264 C263 1.523 . S
H265 C240 0.950 . S
H266 C242 0.950 . S
H267 C243 0.949 . S
H268 C245 0.950 . S
H269 C247 0.950 . S
C270 C271 1.349 . S
C270 C272 1.327 . S
C270 H295 0.950 . S
C271 C270 1.349 . S
C271 C287 1.349 1_554 S
C272 C270 1.327 . S
C272 C291 1.429 1_554 S
C272 H296 0.950 . S
C273 C290 1.574 . S
C273 C292 1.368 . S
C273 H297 0.949 . S
H274 C278 0.949 . S
C275 C276 1.349 . S
C275 C277 1.327 . S
C275 H298 0.950 . S
C276 C275 1.349 . S
C276 C288 1.349 1_556 S
C277 C275 1.327 . S
C277 C293 1.429 . S
C277 H299 0.950 . S
C278 H274 0.949 . S
C278 C286 1.574 . S
C278 C294 1.368 1_554 S
H279 C287 0.950 . S
H280 C285 0.950 . S
H281 C286 0.949 . S
H282 C288 0.950 . S
H283 C289 0.950 . S
H284 C290 0.949 . S
C285 H280 0.950 . S
C285 C287 1.327 . S
C285 C291 1.429 . S
C286 C278 1.574 . S
C286 H281 0.949 . S
C286 C292 1.368 1_554 S
C287 C271 1.349 1_556 S
C287 H279 0.950 . S
C287 C285 1.327 . S
C288 C276 1.349 1_554 S
C288 H282 0.950 . S
C288 C289 1.327 . S
C289 H283 0.950 . S
C289 C288 1.327 . S
C289 C293 1.429 1_554 S
C290 C273 1.574 . S
C290 H284 0.949 . S
C290 C294 1.368 . S
C291 C272 1.429 1_556 S
C291 C285 1.429 . S
C291 C292 1.523 . S
C292 C273 1.368 . S
C292 C286 1.368 1_556 S
C292 C291 1.523 . S
C293 C277 1.429 . S
C293 C289 1.429 1_556 S
C293 C294 1.523 1_655 S
C294 C278 1.368 1_556 S
C294 C290 1.368 . S
C294 C293 1.523 1_455 S
H295 C270 0.950 . S
H296 C272 0.950 . S
H297 C273 0.949 . S
H298 C275 0.950 . S
H299 C277 0.950 . S
C300 C301 1.349 . S
C300 C302 1.327 . S
C300 H325 0.950 . S
C301 C300 1.349 . S
C301 C317 1.349 1_554 S
C302 C300 1.327 . S
C302 C321 1.429 1_554 S
C302 H326 0.950 . S
C303 C320 1.574 . S
C303 C322 1.368 . S
C303 H327 0.949 . S
H304 C308 0.949 . S
C305 C306 1.349 . S
C305 C307 1.327 . S
C305 H328 0.950 . S
C306 C305 1.349 . S
C306 C318 1.349 1_556 S
C307 C305 1.327 . S
C307 C323 1.429 . S
C307 H329 0.950 . S
C308 H304 0.949 . S
C308 C316 1.574 . S
C308 C324 1.368 1_554 S
H309 C317 0.950 . S
H310 C315 0.950 . S
H311 C316 0.949 . S
H312 C318 0.950 . S
H313 C319 0.950 . S
H314 C320 0.949 . S
C315 H310 0.950 . S
C315 C317 1.327 . S
C315 C321 1.429 . S
C316 C308 1.574 . S
C316 H311 0.949 . S
C316 C322 1.368 1_554 S
C317 C301 1.349 1_556 S
C317 H309 0.950 . S
C317 C315 1.327 . S
C318 C306 1.349 1_554 S
C318 H312 0.950 . S
C318 C319 1.327 . S
C319 H313 0.950 . S
C319 C318 1.327 . S
C319 C323 1.429 1_554 S
C320 C303 1.574 . S
C320 H314 0.949 . S
C320 C324 1.368 . S
C321 C302 1.429 1_556 S
C321 C315 1.429 . S
C321 C322 1.523 . S
C322 C303 1.368 . S
C322 C316 1.368 1_556 S
C322 C321 1.523 . S
C323 C307 1.429 . S
C323 C319 1.429 1_556 S
C323 C324 1.523 1_565 S
C324 C308 1.368 1_556 S
C324 C320 1.368 . S
C324 C323 1.523 1_545 S
H325 C300 0.950 . S
H326 C302 0.950 . S
H327 C303 0.949 . S
H328 C305 0.950 . S
H329 C307 0.950 . S
C330 C331 1.349 . S
C330 C332 1.327 . S
C330 H355 0.950 . S
C331 C330 1.349 . S
C331 C347 1.349 1_556 S
C332 C330 1.327 . S
C332 C351 1.429 . S
C332 H356 0.950 . S
C333 C350 1.574 . S
C333 C352 1.368 1_554 S
C333 H357 0.949 . S
H334 C338 0.949 . S
C335 C336 1.349 . S
C335 C337 1.327 . S
C335 H358 0.950 . S
C336 C335 1.349 . S
C336 C348 1.349 1_554 S
C337 C335 1.327 . S
C337 C353 1.429 1_554 S
C337 H359 0.950 . S
C338 H334 0.949 . S
C338 C346 1.574 . S
C338 C354 1.368 . S
H339 C347 0.950 . S
H340 C345 0.950 . S
H341 C346 0.949 . S
H342 C348 0.950 . S
H343 C349 0.950 . S
H344 C350 0.949 . S
C345 H340 0.950 . S
C345 C347 1.327 . S
C345 C351 1.429 1_554 S
C346 C338 1.574 . S
C346 H341 0.949 . S
C346 C352 1.368 . S
C347 C331 1.349 1_554 S
C347 H339 0.950 . S
C347 C345 1.327 . S
C348 C336 1.349 1_556 S
C348 H342 0.950 . S
C348 C349 1.327 . S
C349 H343 0.950 . S
C349 C348 1.327 . S
C349 C353 1.429 . S
C350 C333 1.574 . S
C350 H344 0.949 . S
C350 C354 1.368 1_554 S
C351 C332 1.429 . S
C351 C345 1.429 1_556 S
C351 C352 1.523 . S
C352 C333 1.368 1_556 S
C352 C346 1.368 . S
C352 C351 1.523 . S
C353 C337 1.429 1_556 S
C353 C349 1.429 . S
C353 C354 1.523 . S
C354 C338 1.368 . S
C354 C350 1.368 1_556 S
C354 C353 1.523 . S
H355 C330 0.950 . S
H356 C332 0.950 . S
H357 C333 0.949 . S
H358 C335 0.950 . S
H359 C337 0.950 . S
C360 C361 1.349 1_554 S
C360 C362 1.327 . S
C360 H385 0.950 . S
C361 C360 1.349 1_556 S
C361 C377 1.349 . S
C362 C360 1.327 . S
C362 C381 1.429 1_554 S
C362 H386 0.950 . S
C363 C380 1.574 . S
C363 C382 1.368 . S
C363 H387 0.949 . S
H364 C368 0.949 . S
C365 C366 1.349 1_556 S
C365 C367 1.327 . S
C365 H388 0.950 . S
C366 C365 1.349 1_554 S
C366 C378 1.349 . S
C367 C365 1.327 . S
C367 C383 1.429 . S
C367 H389 0.950 . S
C368 H364 0.949 . S
C368 C376 1.574 . S
C368 C384 1.368 1_554 S
H369 C377 0.950 . S
H370 C375 0.950 . S
H371 C376 0.949 . S
H372 C378 0.950 . S
H373 C379 0.950 . S
H374 C380 0.949 . S
C375 H370 0.950 . S
C375 C377 1.327 . S
C375 C381 1.429 . S
C376 C368 1.574 . S
C376 H371 0.949 . S
C376 C382 1.368 1_554 S
C377 C361 1.349 . S
C377 H369 0.950 . S
C377 C375 1.327 . S
C378 C366 1.349 . S
C378 H372 0.950 . S
C378 C379 1.327 . S
C379 H373 0.950 . S
C379 C378 1.327 . S
C379 C383 1.429 1_554 S
C380 C363 1.574 . S
C380 H374 0.949 . S
C380 C384 1.368 . S
C381 C362 1.429 1_556 S
C381 C375 1.429 . S
C381 C382 1.523 1_455 S
C382 C363 1.368 . S
C382 C376 1.368 1_556 S
C382 C381 1.523 1_655 S
C383 C367 1.429 . S
C383 C379 1.429 1_556 S
C383 C384 1.523 . S
C384 C368 1.368 1_556 S
C384 C380 1.368 . S
C384 C383 1.523 . S
H385 C360 0.950 . S
H386 C362 0.950 . S
H387 C363 0.949 . S
H388 C365 0.950 . S
H389 C367 0.950 . S
C390 C391 1.349 1_556 S
C390 C392 1.327 . S
C390 H415 0.950 . S
C391 C390 1.349 1_554 S
C391 C407 1.349 . S
C392 C390 1.327 . S
C392 C411 1.429 . S
C392 H416 0.950 . S
C393 C410 1.574 . S
C393 C412 1.368 1_554 S
C393 H417 0.949 . S
H394 C398 0.949 . S
C395 C396 1.349 1_554 S
C395 C397 1.327 . S
C395 H418 0.950 . S
C396 C395 1.349 1_556 S
C396 C408 1.349 . S
C397 C395 1.327 . S
C397 C413 1.429 1_554 S
C397 H419 0.950 . S
C398 H394 0.949 . S
C398 C406 1.574 . S
C398 C414 1.368 . S
H399 C407 0.950 . S
H400 C405 0.950 . S
H401 C406 0.949 . S
H402 C408 0.950 . S
H403 C409 0.950 . S
H404 C410 0.949 . S
C405 H400 0.950 . S
C405 C407 1.327 . S
C405 C411 1.429 1_554 S
C406 C398 1.574 . S
C406 H401 0.949 . S
C406 C412 1.368 . S
C407 C391 1.349 . S
C407 H399 0.950 . S
C407 C405 1.327 . S
C408 C396 1.349 . S
C408 H402 0.950 . S
C408 C409 1.327 . S
C409 H403 0.950 . S
C409 C408 1.327 . S
C409 C413 1.429 . S
C410 C393 1.574 . S
C410 H404 0.949 . S
C410 C414 1.368 1_554 S
C411 C392 1.429 . S
C411 C405 1.429 1_556 S
C411 C412 1.523 . S
C412 C393 1.368 1_556 S
C412 C406 1.368 . S
C412 C411 1.523 . S
C413 C397 1.429 1_556 S
C413 C409 1.429 . S
C413 C414 1.523 1_545 S
C414 C398 1.368 . S
C414 C410 1.368 1_556 S
C414 C413 1.523 1_565 S
H415 C390 0.950 . S
H416 C392 0.950 . S
H417 C393 0.949 . S
H418 C395 0.950 . S
H419 C397 0.950 . S
C420 C421 1.353 . S
C420 C422 1.327 . S
C420 H445 0.950 . S
C421 C420 1.353 . S
C421 C437 1.345 1_556 S
C422 C420 1.327 . S
C422 C441 1.429 1_556 S
C422 H446 0.950 . S
C423 C440 1.574 . S
C423 C442 1.368 . S
C423 H447 0.949 . S
H424 C428 0.949 . S
C425 C426 1.349 . S
C425 C427 1.327 . S
C425 H448 0.950 . S
C426 C425 1.349 . S
C426 C438 1.349 1_554 S
C427 C425 1.327 . S
C427 C443 1.429 . S
C427 H449 0.950 . S
C428 H424 0.949 . S
C428 C436 1.574 . S
C428 C444 1.368 1_556 S
H429 C437 0.950 . S
H430 C435 0.950 . S
H431 C436 0.949 . S
H432 C438 0.950 . S
H433 C439 0.950 . S
H434 C440 0.949 . S
C435 H430 0.950 . S
C435 C437 1.327 . S
C435 C441 1.429 . S
C436 C428 1.574 . S
C436 H431 0.949 . S
C436 C442 1.368 1_556 S
C437 C421 1.345 1_554 S
C437 H429 0.950 . S
C437 C435 1.327 . S
C438 C426 1.349 1_556 S
C438 H432 0.950 . S
C438 C439 1.327 . S
C439 H433 0.950 . S
C439 C438 1.327 . S
C439 C443 1.429 1_556 S
C440 C423 1.574 . S
C440 H434 0.949 . S
C440 C444 1.368 . S
C441 C422 1.429 1_554 S
C441 C435 1.429 . S
C441 C442 1.523 . S
C442 C423 1.368 . S
C442 C436 1.368 1_554 S
C442 C441 1.523 . S
C443 C427 1.429 . S
C443 C439 1.429 1_554 S
C443 C444 1.523 . S
C444 C428 1.368 1_554 S
C444 C440 1.368 . S
C444 C443 1.523 . S
H445 C420 0.950 . S
H446 C422 0.950 . S
H447 C423 0.949 . S
H448 C425 0.950 . S
H449 C427 0.950 . S
C450 C451 1.348 1_554 S
C450 C452 1.327 . S
C450 H475 0.950 . S
C451 C450 1.348 1_556 S
C451 C467 1.349 . S
C452 C450 1.327 . S
C452 C471 1.429 . S
C452 H476 0.950 . S
C453 C470 1.574 . S
C453 C472 1.368 . S
C453 H477 0.949 1_554 S
H454 C458 0.949 . S
C455 C456 1.349 . S
C455 C457 1.327 . S
C455 H478 0.950 . S
C456 C455 1.349 . S
C456 C468 1.349 . S
C457 C455 1.327 . S
C457 C473 1.429 . S
C457 H479 0.950 . S
C458 H454 0.949 . S
C458 C466 1.574 . S
C458 C474 1.368 . S
H459 C467 0.950 . S
H460 C465 0.950 . S
H461 C466 0.949 . S
H462 C468 0.950 . S
H463 C469 0.950 . S
H464 C470 0.949 . S
C465 H460 0.950 . S
C465 C467 1.327 . S
C465 C471 1.429 1_556 S
C466 C458 1.574 . S
C466 H461 0.949 . S
C466 C472 1.368 . S
C467 C451 1.349 . S
C467 H459 0.950 . S
C467 C465 1.327 . S
C468 C456 1.349 . S
C468 H462 0.950 . S
C468 C469 1.327 . S
C469 H463 0.950 . S
C469 C468 1.327 . S
C469 C473 1.429 . S
C470 C453 1.574 . S
C470 H464 0.949 . S
C470 C474 1.368 . S
C471 C452 1.429 . S
C471 C465 1.429 1_554 S
C471 C472 1.523 . S
C472 C453 1.368 . S
C472 C466 1.368 . S
C472 C471 1.523 . S
C473 C457 1.429 . S
C473 C469 1.429 . S
C473 C474 1.523 . S
C474 C458 1.368 . S
C474 C470 1.368 . S
C474 C473 1.523 . S
H475 C450 0.950 . S
H476 C452 0.950 . S
H477 C453 0.949 1_556 S
H478 C455 0.950 . S
H479 C457 0.950 . S
C480 C481 1.349 . S
C480 C482 1.327 . S
C480 H505 0.950 . S
C481 C480 1.349 . S
C481 C497 1.349 1_554 S
C482 C480 1.327 . S
C482 C501 1.429 . S
C482 H506 0.950 . S
C483 C500 1.574 . S
C483 C502 1.368 1_556 S
C483 H507 0.949 . S
H484 C488 0.949 . S
C485 C486 1.353 . S
C485 C487 1.327 . S
C485 H508 0.950 . S
C486 C485 1.353 . S
C486 C498 1.345 1_556 S
C487 C485 1.327 . S
C487 C503 1.429 1_556 S
C487 H509 0.950 . S
C488 H484 0.949 . S
C488 C496 1.574 . S
C488 C504 1.368 . S
H489 C497 0.950 . S
H490 C495 0.950 . S
H491 C496 0.949 . S
H492 C498 0.950 . S
H493 C499 0.950 . S
H494 C500 0.949 . S
C495 H490 0.950 . S
C495 C497 1.327 . S
C495 C501 1.429 1_556 S
C496 C488 1.574 . S
C496 H491 0.949 . S
C496 C502 1.368 . S
C497 C481 1.349 1_556 S
C497 H489 0.950 . S
C497 C495 1.327 . S
C498 C486 1.345 1_554 S
C498 H492 0.950 . S
C498 C499 1.327 . S
C499 H493 0.950 . S
C499 C498 1.327 . S
C499 C503 1.429 . S
C500 C483 1.574 . S
C500 H494 0.949 . S
C500 C504 1.368 1_556 S
C501 C482 1.429 . S
C501 C495 1.429 1_554 S
C501 C502 1.523 . S
C502 C483 1.368 1_554 S
C502 C496 1.368 . S
C502 C501 1.523 . S
C503 C487 1.429 1_554 S
C503 C499 1.429 . S
C503 C504 1.523 . S
C504 C488 1.368 . S
C504 C500 1.368 1_554 S
C504 C503 1.523 . S
H505 C480 0.950 . S
H506 C482 0.950 . S
H507 C483 0.949 . S
H508 C485 0.950 . S
H509 C487 0.950 . S
C510 C511 1.349 . S
C510 C512 1.327 . S
C510 H535 0.950 . S
C511 C510 1.349 . S
C511 C527 1.349 1_554 S
C512 C510 1.327 . S
C512 C531 1.429 . S
C512 H536 0.950 . S
C513 C530 1.574 . S
C513 C532 1.368 1_556 S
C513 H537 0.949 . S
H514 C518 0.949 . S
C515 C516 1.352 . S
C515 C517 1.327 . S
C515 H538 0.950 . S
C516 C515 1.352 . S
C516 C528 1.345 1_556 S
C517 C515 1.327 . S
C517 C533 1.429 1_556 S
C517 H539 0.950 . S
C518 H514 0.949 . S
C518 C526 1.574 . S
C518 C534 1.368 . S
H519 C527 0.950 . S
H520 C525 0.950 . S
H521 C526 0.949 . S
H522 C528 0.950 . S
H523 C529 0.950 . S
H524 C530 0.949 . S
C525 H520 0.950 . S
C525 C527 1.327 . S
C525 C531 1.429 1_556 S
C526 C518 1.574 . S
C526 H521 0.949 . S
C526 C532 1.368 . S
C527 C511 1.349 1_556 S
C527 H519 0.950 . S
C527 C525 1.327 . S
C528 C516 1.345 1_554 S
C528 H522 0.950 . S
C528 C529 1.327 . S
C529 H523 0.950 . S
C529 C528 1.327 . S
C529 C533 1.429 . S
C530 C513 1.574 . S
C530 H524 0.949 . S
C530 C534 1.368 1_556 S
C531 C512 1.429 . S
C531 C525 1.429 1_554 S
C531 C532 1.523 . S
C532 C513 1.368 1_554 S
C532 C526 1.368 . S
C532 C531 1.523 . S
C533 C517 1.429 1_554 S
C533 C529 1.429 . S
C533 C534 1.523 . S
C534 C518 1.368 . S
C534 C530 1.368 1_554 S
C534 C533 1.523 . S
H535 C510 0.950 . S
H536 C512 0.950 . S
H537 C513 0.949 . S
H538 C515 0.950 . S
H539 C517 0.950 . S
C540 C541 1.349 1_556 S
C540 C542 1.327 . S
C540 H565 0.950 . S
C541 C540 1.349 1_554 S
C541 C557 1.349 . S
C542 C540 1.327 . S
C542 C561 1.429 1_556 S
C542 H566 0.950 . S
C543 C560 1.574 . S
C543 C562 1.368 . S
C543 H567 0.949 . S
H544 C548 0.949 . S
C545 C546 1.346 1_554 S
C545 C547 1.327 . S
C545 H568 0.950 . S
C546 C545 1.346 1_556 S
C546 C558 1.351 . S
C547 C545 1.327 . S
C547 C563 1.429 . S
C547 H569 0.950 . S
C548 H544 0.949 . S
C548 C556 1.574 . S
C548 C564 1.368 1_556 S
H549 C557 0.950 . S
H550 C555 0.950 . S
H551 C556 0.949 . S
H552 C558 0.950 . S
H553 C559 0.950 . S
H554 C560 0.949 . S
C555 H550 0.950 . S
C555 C557 1.327 . S
C555 C561 1.429 . S
C556 C548 1.574 . S
C556 H551 0.949 . S
C556 C562 1.368 1_556 S
C557 C541 1.349 . S
C557 H549 0.950 . S
C557 C555 1.327 . S
C558 C546 1.351 . S
C558 H552 0.950 . S
C558 C559 1.327 . S
C559 H553 0.950 . S
C559 C558 1.327 . S
C559 C563 1.429 1_556 S
C560 C543 1.574 . S
C560 H554 0.949 . S
C560 C564 1.368 . S
C561 C542 1.429 1_554 S
C561 C555 1.429 . S
C561 C562 1.523 . S
C562 C543 1.368 . S
C562 C556 1.368 1_554 S
C562 C561 1.523 . S
C563 C547 1.429 . S
C563 C559 1.429 1_554 S
C563 C564 1.523 . S
C564 C548 1.368 1_554 S
C564 C560 1.368 . S
C564 C563 1.523 . S
H565 C540 0.950 . S
H566 C542 0.950 . S
H567 C543 0.949 . S
H568 C545 0.950 . S
H569 C547 0.950 . S
C570 C571 1.352 . S
C570 C572 1.327 . S
C570 H595 0.950 . S
C571 C570 1.352 . S
C571 C587 1.345 1_556 S
C572 C570 1.327 . S
C572 C591 1.429 1_556 S
C572 H596 0.950 . S
C573 C590 1.574 . S
C573 C592 1.368 . S
C573 H597 0.949 . S
H574 C578 0.949 . S
C575 C576 1.349 . S
C575 C577 1.327 . S
C575 H598 0.950 . S
C576 C575 1.349 . S
C576 C588 1.349 1_554 S
C577 C575 1.327 . S
C577 C593 1.429 . S
C577 H599 0.950 . S
C578 H574 0.949 . S
C578 C586 1.574 . S
C578 C594 1.368 1_556 S
H579 C587 0.950 . S
H580 C585 0.950 . S
H581 C586 0.949 . S
H582 C588 0.950 . S
H583 C589 0.950 . S
H584 C590 0.949 . S
C585 H580 0.950 . S
C585 C587 1.327 . S
C585 C591 1.429 . S
C586 C578 1.574 . S
C586 H581 0.949 . S
C586 C592 1.368 1_556 S
C587 C571 1.345 1_554 S
C587 H579 0.950 . S
C587 C585 1.327 . S
C588 C576 1.349 1_556 S
C588 H582 0.950 . S
C588 C589 1.327 . S
C589 H583 0.950 . S
C589 C588 1.327 . S
C589 C593 1.429 1_556 S
C590 C573 1.574 . S
C590 H584 0.949 . S
C590 C594 1.368 . S
C591 C572 1.429 1_554 S
C591 C585 1.429 . S
C591 C592 1.523 . S
C592 C573 1.368 . S
C592 C586 1.368 1_554 S
C592 C591 1.523 . S
C593 C577 1.429 . S
C593 C589 1.429 1_554 S
C593 C594 1.523 . S
C594 C578 1.368 1_554 S
C594 C590 1.368 . S
C594 C593 1.523 . S
H595 C570 0.950 . S
H596 C572 0.950 . S
H597 C573 0.949 . S
H598 C575 0.950 . S
H599 C577 0.950 . S
C600 C601 1.349 . S
C600 C602 1.327 . S
C600 H625 0.950 . S
C601 C600 1.349 . S
C601 C617 1.349 . S
C602 C600 1.327 . S
C602 C621 1.429 . S
C602 H626 0.950 . S
C603 C620 1.574 . S
C603 C622 1.368 . S
C603 H627 0.949 . S
H604 C608 0.949 . S
C605 C606 1.349 . S
C605 C607 1.327 . S
C605 H628 0.950 . S
C606 C605 1.349 . S
C606 C618 1.349 . S
C607 C605 1.327 . S
C607 C623 1.429 . S
C607 H629 0.950 . S
C608 H604 0.949 . S
C608 C616 1.574 . S
C608 C624 1.368 . S
H609 C617 0.950 . S
H610 C615 0.950 . S
H611 C616 0.949 . S
H612 C618 0.950 . S
H613 C619 0.950 . S
H614 C620 0.949 . S
C615 H610 0.950 . S
C615 C617 1.327 . S
C615 C621 1.429 . S
C616 C608 1.574 . S
C616 H611 0.949 . S
C616 C622 1.368 . S
C617 C601 1.349 . S
C617 H609 0.950 . S
C617 C615 1.327 . S
C618 C606 1.349 . S
C618 H612 0.950 . S
C618 C619 1.327 . S
C619 H613 0.950 . S
C619 C618 1.327 . S
C619 C623 1.429 . S
C620 C603 1.574 . S
C620 H614 0.949 . S
C620 C624 1.368 . S
C621 C602 1.429 . S
C621 C615 1.429 . S
C621 C622 1.523 . S
C622 C603 1.368 . S
C622 C616 1.368 . S
C622 C621 1.523 . S
C623 C607 1.429 . S
C623 C619 1.429 . S
C623 C624 1.523 . S
C624 C608 1.368 . S
C624 C620 1.368 . S
C624 C623 1.523 . S
H625 C600 0.950 . S
H626 C602 0.950 . S
H627 C603 0.949 . S
H628 C605 0.950 . S
H629 C607 0.950 . S
C630 C631 1.349 . S
C630 C632 1.327 . S
C630 H655 0.950 . S
C631 C630 1.349 . S
C631 C647 1.349 . S
C632 C630 1.327 . S
C632 C651 1.429 . S
C632 H656 0.950 . S
C633 C650 1.574 . S
C633 C652 1.368 . S
C633 H657 0.949 . S
H634 C638 0.949 . S
C635 C636 1.349 . S
C635 C637 1.327 . S
C635 H658 0.950 . S
C636 C635 1.349 . S
C636 C648 1.349 . S
C637 C635 1.327 . S
C637 C653 1.429 . S
C637 H659 0.950 . S
C638 H634 0.949 . S
C638 C646 1.574 . S
C638 C654 1.368 . S
H639 C647 0.950 . S
H640 C645 0.950 . S
H641 C646 0.949 . S
H642 C648 0.950 . S
H643 C649 0.950 . S
H644 C650 0.949 . S
C645 H640 0.950 . S
C645 C647 1.327 . S
C645 C651 1.429 . S
C646 C638 1.574 . S
C646 H641 0.949 . S
C646 C652 1.368 . S
C647 C631 1.349 . S
C647 H639 0.950 . S
C647 C645 1.327 . S
C648 C636 1.349 . S
C648 H642 0.950 . S
C648 C649 1.327 . S
C649 H643 0.950 . S
C649 C648 1.327 . S
C649 C653 1.429 . S
C650 C633 1.574 . S
C650 H644 0.949 . S
C650 C654 1.368 . S
C651 C632 1.429 . S
C651 C645 1.429 . S
C651 C652 1.523 . S
C652 C633 1.368 . S
C652 C646 1.368 . S
C652 C651 1.523 . S
C653 C637 1.429 . S
C653 C649 1.429 . S
C653 C654 1.523 . S
C654 C638 1.368 . S
C654 C650 1.368 . S
C654 C653 1.523 . S
H655 C630 0.950 . S
H656 C632 0.950 . S
H657 C633 0.949 . S
H658 C635 0.950 . S
H659 C637 0.950 . S
C660 C661 1.349 . S
C660 C662 1.327 . S
C660 H685 0.950 . S
C661 C660 1.349 . S
C661 C677 1.349 . S
C662 C660 1.327 . S
C662 C681 1.429 . S
C662 H686 0.950 . S
C663 C680 1.574 . S
C663 C682 1.368 . S
C663 H687 0.949 . S
H664 C668 0.949 . S
C665 C666 1.349 . S
C665 C667 1.327 . S
C665 H688 0.950 . S
C666 C665 1.349 . S
C666 C678 1.349 . S
C667 C665 1.327 . S
C667 C683 1.429 . S
C667 H689 0.950 . S
C668 H664 0.949 . S
C668 C676 1.574 . S
C668 C684 1.368 . S
H669 C677 0.950 . S
H670 C675 0.950 . S
H671 C676 0.949 . S
H672 C678 0.950 . S
H673 C679 0.950 . S
H674 C680 0.949 . S
C675 H670 0.950 . S
C675 C677 1.327 . S
C675 C681 1.429 . S
C676 C668 1.574 . S
C676 H671 0.949 . S
C676 C682 1.368 . S
C677 C661 1.349 . S
C677 H669 0.950 . S
C677 C675 1.327 . S
C678 C666 1.349 . S
C678 H672 0.950 . S
C678 C679 1.327 . S
C679 H673 0.950 . S
C679 C678 1.327 . S
C679 C683 1.429 . S
C680 C663 1.574 . S
C680 H674 0.949 . S
C680 C684 1.368 . S
C681 C662 1.429 . S
C681 C675 1.429 . S
C681 C682 1.523 . S
C682 C663 1.368 . S
C682 C676 1.368 . S
C682 C681 1.523 . S
C683 C667 1.429 . S
C683 C679 1.429 . S
C683 C684 1.523 . S
C684 C668 1.368 . S
C684 C680 1.368 . S
C684 C683 1.523 . S
H685 C660 0.950 . S
H686 C662 0.950 . S
H687 C663 0.949 . S
H688 C665 0.950 . S
H689 C667 0.950 . S
C690 C691 1.349 . S
C690 C692 1.327 . S
C690 H715 0.950 . S
C691 C690 1.349 . S
C691 C707 1.349 . S
C692 C690 1.327 . S
C692 C711 1.429 . S
C692 H716 0.950 . S
C693 C710 1.574 . S
C693 C712 1.368 . S
C693 H717 0.949 . S
H694 C698 0.949 . S
C695 C696 1.349 . S
C695 C697 1.327 . S
C695 H718 0.950 . S
C696 C695 1.349 . S
C696 C708 1.349 . S
C697 C695 1.327 . S
C697 C713 1.429 . S
C697 H719 0.950 . S
C698 H694 0.949 . S
C698 C706 1.574 . S
C698 C714 1.368 . S
H699 C707 0.950 . S
H700 C705 0.950 . S
H701 C706 0.949 . S
H702 C708 0.950 . S
H703 C709 0.950 . S
H704 C710 0.949 . S
C705 H700 0.950 . S
C705 C707 1.327 . S
C705 C711 1.429 . S
C706 C698 1.574 . S
C706 H701 0.949 . S
C706 C712 1.368 . S
C707 C691 1.349 . S
C707 H699 0.950 . S
C707 C705 1.327 . S
C708 C696 1.349 . S
C708 H702 0.950 . S
C708 C709 1.327 . S
C709 H703 0.950 . S
C709 C708 1.327 . S
C709 C713 1.429 . S
C710 C693 1.574 . S
C710 H704 0.949 . S
C710 C714 1.368 . S
C711 C692 1.429 . S
C711 C705 1.429 . S
C711 C712 1.523 . S
C712 C693 1.368 . S
C712 C706 1.368 . S
C712 C711 1.523 . S
C713 C697 1.429 . S
C713 C709 1.429 . S
C713 C714 1.523 . S
C714 C698 1.368 . S
C714 C710 1.368 . S
C714 C713 1.523 . S
H715 C690 0.950 . S
H716 C692 0.950 . S
H717 C693 0.949 . S
H718 C695 0.950 . S
H719 C697 0.950 . S
C720 C721 1.349 . S
C720 C722 1.327 . S
C720 H745 0.950 . S
C721 C720 1.349 . S
C721 C737 1.349 . S
C722 C720 1.327 . S
C722 C741 1.429 . S
C722 H746 0.950 . S
C723 C740 1.574 . S
C723 C742 1.368 . S
C723 H747 0.949 . S
H724 C728 0.949 . S
C725 C726 1.349 . S
C725 C727 1.327 . S
C725 H748 0.950 . S
C726 C725 1.349 . S
C726 C738 1.349 . S
C727 C725 1.327 . S
C727 C743 1.429 . S
C727 H749 0.950 . S
C728 H724 0.949 . S
C728 C736 1.574 . S
C728 C744 1.368 . S
H729 C737 0.950 . S
H730 C735 0.950 . S
H731 C736 0.949 . S
H732 C738 0.950 . S
H733 C739 0.950 . S
H734 C740 0.949 . S
C735 H730 0.950 . S
C735 C737 1.327 . S
C735 C741 1.429 . S
C736 C728 1.574 . S
C736 H731 0.949 . S
C736 C742 1.368 . S
C737 C721 1.349 . S
C737 H729 0.950 . S
C737 C735 1.327 . S
C738 C726 1.349 . S
C738 H732 0.950 . S
C738 C739 1.327 . S
C739 H733 0.950 . S
C739 C738 1.327 . S
C739 C743 1.429 . S
C740 C723 1.574 . S
C740 H734 0.949 . S
C740 C744 1.368 . S
C741 C722 1.429 . S
C741 C735 1.429 . S
C741 C742 1.523 . S
C742 C723 1.368 . S
C742 C736 1.368 . S
C742 C741 1.523 . S
C743 C727 1.429 . S
C743 C739 1.429 . S
C743 C744 1.523 . S
C744 C728 1.368 . S
C744 C740 1.368 . S
C744 C743 1.523 . S
H745 C720 0.950 . S
H746 C722 0.950 . S
H747 C723 0.949 . S
H748 C725 0.950 . S
H749 C727 0.950 . S
C750 C751 1.349 . S
C750 C752 1.327 . S
C750 H775 0.950 . S
C751 C750 1.349 . S
C751 C767 1.349 . S
C752 C750 1.327 . S
C752 C771 1.429 . S
C752 H776 0.950 . S
C753 C770 1.574 . S
C753 C772 1.368 . S
C753 H777 0.949 . S
H754 C758 0.949 . S
C755 C756 1.349 . S
C755 C757 1.327 . S
C755 H778 0.950 . S
C756 C755 1.349 . S
C756 C768 1.349 . S
C757 C755 1.327 . S
C757 C773 1.429 . S
C757 H779 0.950 . S
C758 H754 0.949 . S
C758 C766 1.574 . S
C758 C774 1.368 . S
H759 C767 0.950 . S
H760 C765 0.950 . S
H761 C766 0.949 . S
H762 C768 0.950 . S
H763 C769 0.950 . S
H764 C770 0.949 . S
C765 H760 0.950 . S
C765 C767 1.327 . S
C765 C771 1.429 . S
C766 C758 1.574 . S
C766 H761 0.949 . S
C766 C772 1.368 . S
C767 C751 1.349 . S
C767 H759 0.950 . S
C767 C765 1.327 . S
C768 C756 1.349 . S
C768 H762 0.950 . S
C768 C769 1.327 . S
C769 H763 0.950 . S
C769 C768 1.327 . S
C769 C773 1.429 . S
C770 C753 1.574 . S
C770 H764 0.949 . S
C770 C774 1.368 . S
C771 C752 1.429 . S
C771 C765 1.429 . S
C771 C772 1.523 . S
C772 C753 1.368 . S
C772 C766 1.368 . S
C772 C771 1.523 . S
C773 C757 1.429 . S
C773 C769 1.429 . S
C773 C774 1.523 . S
C774 C758 1.368 . S
C774 C770 1.368 . S
C774 C773 1.523 . S
H775 C750 0.950 . S
H776 C752 0.950 . S
H777 C753 0.949 . S
H778 C755 0.950 . S
H779 C757 0.950 . S
C241 C209 1.600 . S
C246 C5 1.500 . S
C271 C9 1.600 . S
C276 C45 1.500 . S
C301 C49 1.600 . S
C306 C85 1.500 . S
C331 C125 1.500 . S
C336 C89 1.600 . S
C361 C165 1.500 . S
C366 C129 1.600 . S
C391 C169 1.600 . S
C396 C205 1.500 . S
C421 C179 1.976 . S
C426 C15 1.976 . S
C451 C219 1.976 . S
C456 C55 1.976 . S
C481 C95 1.976 . S
C486 C19 1.976 . S
C511 C135 1.976 . S
C516 C59 1.976 . S
C541 C175 1.976 . S
C546 C99 1.976 . S
C571 C139 1.976 . S
C576 C215 1.976 . S
C601 C18 1.442 . S
C606 C8 1.442 . S
C631 C58 1.442 . S
C636 C48 1.442 . S
C661 C98 1.442 . S
C666 C88 1.442 . S
C691 C138 1.442 . S
C696 C128 1.442 . S
C721 C168 1.442 . S
C726 C178 1.442 . S
C751 C218 1.442 . S
C756 C208 1.442 . S
