# Generated by pormake.
# Topology pem, (4)-cn, num edge types: 1
# Building blocks:
#     Node 0, Type 0, BuildingBlock: QUQFOY_clean_sbu_3, # of connection points: 4
#     Node 1, Type 0, BuildingBlock: QUQFOY_clean_sbu_3, # of connection points: 4
#     Node 2, Type 0, BuildingBlock: QUQFOY_clean_sbu_3, # of connection points: 4
#     Node 3, Type 0, BuildingBlock: QUQFOY_clean_sbu_3, # of connection points: 4
#     Node 4, Type 0, BuildingBlock: QUQFOY_clean_sbu_3, # of connection points: 4
#     Node 5, Type 0, BuildingBlock: QUQFOY_clean_sbu_3, # of connection points: 4
#     Node 6, Type 0, BuildingBlock: QUQFOY_clean_sbu_3, # of connection points: 4
#     Node 7, Type 0, BuildingBlock: QUQFOY_clean_sbu_3, # of connection points: 4
#     Node 8, Type 0, BuildingBlock: QUQFOY_clean_sbu_3, # of connection points: 4
#     Node 9, Type 0, BuildingBlock: QUQFOY_clean_sbu_3, # of connection points: 4
#     Node 10, Type 0, BuildingBlock: QUQFOY_clean_sbu_3, # of connection points: 4
#     Node 11, Type 0, BuildingBlock: QUQFOY_clean_sbu_3, # of connection points: 4
#     Node 12, Type 0, BuildingBlock: QUQFOY_clean_sbu_3, # of connection points: 4
#     Node 13, Type 0, BuildingBlock: QUQFOY_clean_sbu_3, # of connection points: 4
#     Node 14, Type 0, BuildingBlock: QUQFOY_clean_sbu_3, # of connection points: 4
#     Node 15, Type 0, BuildingBlock: QUQFOY_clean_sbu_3, # of connection points: 4
#     Node 16, Type 0, BuildingBlock: QUQFOY_clean_sbu_3, # of connection points: 4
#     Node 17, Type 0, BuildingBlock: QUQFOY_clean_sbu_3, # of connection points: 4
#     Node 18, Type 0, BuildingBlock: QUQFOY_clean_sbu_3, # of connection points: 4
#     Node 19, Type 0, BuildingBlock: QUQFOY_clean_sbu_3, # of connection points: 4
#     Node 20, Type 0, BuildingBlock: QUQFOY_clean_sbu_3, # of connection points: 4
#     Node 21, Type 0, BuildingBlock: QUQFOY_clean_sbu_3, # of connection points: 4
#     Node 22, Type 0, BuildingBlock: QUQFOY_clean_sbu_3, # of connection points: 4
#     Node 23, Type 0, BuildingBlock: QUQFOY_clean_sbu_3, # of connection points: 4
#     Node 24, Type 0, BuildingBlock: QUQFOY_clean_sbu_3, # of connection points: 4
#     Node 25, Type 0, BuildingBlock: QUQFOY_clean_sbu_3, # of connection points: 4
#     Node 26, Type 0, BuildingBlock: QUQFOY_clean_sbu_3, # of connection points: 4
#     Node 27, Type 0, BuildingBlock: QUQFOY_clean_sbu_3, # of connection points: 4
#     Node 28, Type 0, BuildingBlock: QUQFOY_clean_sbu_3, # of connection points: 4
#     Node 29, Type 0, BuildingBlock: QUQFOY_clean_sbu_3, # of connection points: 4
#     Node 30, Type 0, BuildingBlock: QUQFOY_clean_sbu_3, # of connection points: 4
#     Node 31, Type 0, BuildingBlock: QUQFOY_clean_sbu_3, # of connection points: 4
#     Edge 32, Type (0, 0), BuildingBlock: KIFKEQ_clean_linker_1, # of connection points: 2
#     Edge 33, Type (0, 0), BuildingBlock: KIFKEQ_clean_linker_1, # of connection points: 2
#     Edge 34, Type (0, 0), BuildingBlock: KIFKEQ_clean_linker_1, # of connection points: 2
#     Edge 35, Type (0, 0), BuildingBlock: KIFKEQ_clean_linker_1, # of connection points: 2
#     Edge 36, Type (0, 0), BuildingBlock: KIFKEQ_clean_linker_1, # of connection points: 2
#     Edge 37, Type (0, 0), BuildingBlock: KIFKEQ_clean_linker_1, # of connection points: 2
#     Edge 38, Type (0, 0), BuildingBlock: KIFKEQ_clean_linker_1, # of connection points: 2
#     Edge 39, Type (0, 0), BuildingBlock: KIFKEQ_clean_linker_1, # of connection points: 2
#     Edge 40, Type (0, 0), BuildingBlock: KIFKEQ_clean_linker_1, # of connection points: 2
#     Edge 41, Type (0, 0), BuildingBlock: KIFKEQ_clean_linker_1, # of connection points: 2
#     Edge 42, Type (0, 0), BuildingBlock: KIFKEQ_clean_linker_1, # of connection points: 2
#     Edge 43, Type (0, 0), BuildingBlock: KIFKEQ_clean_linker_1, # of connection points: 2
#     Edge 44, Type (0, 0), BuildingBlock: KIFKEQ_clean_linker_1, # of connection points: 2
#     Edge 45, Type (0, 0), BuildingBlock: KIFKEQ_clean_linker_1, # of connection points: 2
#     Edge 46, Type (0, 0), BuildingBlock: KIFKEQ_clean_linker_1, # of connection points: 2
#     Edge 47, Type (0, 0), BuildingBlock: KIFKEQ_clean_linker_1, # of connection points: 2
#     Edge 48, Type (0, 0), BuildingBlock: KIFKEQ_clean_linker_1, # of connection points: 2
#     Edge 49, Type (0, 0), BuildingBlock: KIFKEQ_clean_linker_1, # of connection points: 2
#     Edge 50, Type (0, 0), BuildingBlock: KIFKEQ_clean_linker_1, # of connection points: 2
#     Edge 51, Type (0, 0), BuildingBlock: KIFKEQ_clean_linker_1, # of connection points: 2
#     Edge 52, Type (0, 0), BuildingBlock: KIFKEQ_clean_linker_1, # of connection points: 2
#     Edge 53, Type (0, 0), BuildingBlock: KIFKEQ_clean_linker_1, # of connection points: 2
#     Edge 54, Type (0, 0), BuildingBlock: KIFKEQ_clean_linker_1, # of connection points: 2
#     Edge 55, Type (0, 0), BuildingBlock: KIFKEQ_clean_linker_1, # of connection points: 2
#     Edge 56, Type (0, 0), BuildingBlock: KIFKEQ_clean_linker_1, # of connection points: 2
#     Edge 57, Type (0, 0), BuildingBlock: KIFKEQ_clean_linker_1, # of connection points: 2
#     Edge 58, Type (0, 0), BuildingBlock: KIFKEQ_clean_linker_1, # of connection points: 2
#     Edge 59, Type (0, 0), BuildingBlock: KIFKEQ_clean_linker_1, # of connection points: 2
#     Edge 60, Type (0, 0), BuildingBlock: KIFKEQ_clean_linker_1, # of connection points: 2
#     Edge 61, Type (0, 0), BuildingBlock: KIFKEQ_clean_linker_1, # of connection points: 2
#     Edge 62, Type (0, 0), BuildingBlock: KIFKEQ_clean_linker_1, # of connection points: 2
#     Edge 63, Type (0, 0), BuildingBlock: KIFKEQ_clean_linker_1, # of connection points: 2
#     Edge 64, Type (0, 0), BuildingBlock: KIFKEQ_clean_linker_1, # of connection points: 2
#     Edge 65, Type (0, 0), BuildingBlock: KIFKEQ_clean_linker_1, # of connection points: 2
#     Edge 66, Type (0, 0), BuildingBlock: KIFKEQ_clean_linker_1, # of connection points: 2
#     Edge 67, Type (0, 0), BuildingBlock: KIFKEQ_clean_linker_1, # of connection points: 2
#     Edge 68, Type (0, 0), BuildingBlock: KIFKEQ_clean_linker_1, # of connection points: 2
#     Edge 69, Type (0, 0), BuildingBlock: KIFKEQ_clean_linker_1, # of connection points: 2
#     Edge 70, Type (0, 0), BuildingBlock: KIFKEQ_clean_linker_1, # of connection points: 2
#     Edge 71, Type (0, 0), BuildingBlock: KIFKEQ_clean_linker_1, # of connection points: 2
#     Edge 72, Type (0, 0), BuildingBlock: KIFKEQ_clean_linker_1, # of connection points: 2
#     Edge 73, Type (0, 0), BuildingBlock: KIFKEQ_clean_linker_1, # of connection points: 2
#     Edge 74, Type (0, 0), BuildingBlock: KIFKEQ_clean_linker_1, # of connection points: 2
#     Edge 75, Type (0, 0), BuildingBlock: KIFKEQ_clean_linker_1, # of connection points: 2
#     Edge 76, Type (0, 0), BuildingBlock: KIFKEQ_clean_linker_1, # of connection points: 2
#     Edge 77, Type (0, 0), BuildingBlock: KIFKEQ_clean_linker_1, # of connection points: 2
#     Edge 78, Type (0, 0), BuildingBlock: KIFKEQ_clean_linker_1, # of connection points: 2
#     Edge 79, Type (0, 0), BuildingBlock: KIFKEQ_clean_linker_1, # of connection points: 2
#     Edge 80, Type (0, 0), BuildingBlock: KIFKEQ_clean_linker_1, # of connection points: 2
#     Edge 81, Type (0, 0), BuildingBlock: KIFKEQ_clean_linker_1, # of connection points: 2
#     Edge 82, Type (0, 0), BuildingBlock: KIFKEQ_clean_linker_1, # of connection points: 2
#     Edge 83, Type (0, 0), BuildingBlock: KIFKEQ_clean_linker_1, # of connection points: 2
#     Edge 84, Type (0, 0), BuildingBlock: KIFKEQ_clean_linker_1, # of connection points: 2
#     Edge 85, Type (0, 0), BuildingBlock: KIFKEQ_clean_linker_1, # of connection points: 2
#     Edge 86, Type (0, 0), BuildingBlock: KIFKEQ_clean_linker_1, # of connection points: 2
#     Edge 87, Type (0, 0), BuildingBlock: KIFKEQ_clean_linker_1, # of connection points: 2
#     Edge 88, Type (0, 0), BuildingBlock: KIFKEQ_clean_linker_1, # of connection points: 2
#     Edge 89, Type (0, 0), BuildingBlock: KIFKEQ_clean_linker_1, # of connection points: 2
#     Edge 90, Type (0, 0), BuildingBlock: KIFKEQ_clean_linker_1, # of connection points: 2
#     Edge 91, Type (0, 0), BuildingBlock: KIFKEQ_clean_linker_1, # of connection points: 2
#     Edge 92, Type (0, 0), BuildingBlock: KIFKEQ_clean_linker_1, # of connection points: 2
#     Edge 93, Type (0, 0), BuildingBlock: KIFKEQ_clean_linker_1, # of connection points: 2
#     Edge 94, Type (0, 0), BuildingBlock: KIFKEQ_clean_linker_1, # of connection points: 2
#     Edge 95, Type (0, 0), BuildingBlock: KIFKEQ_clean_linker_1, # of connection points: 2
# Relax obj value: 0.221
# Max RMSD: 0.158
# Mean RMSD: 0.155
data_MOF--net-pem--node1-QUQFOY_clean_sbu_3--edge1-KIFKEQ_clean_linker_1
_symmetry_space_group_name_H-M    P1
_symmetry_Int_Tables_number       1
_symmetry_cell_setting            triclinic
loop_
_symmetry_equiv_pos_as_xyz
'x, y, z'
_cell_length_a     49.818661
_cell_length_b     41.781184
_cell_length_c     41.668703
_cell_angle_alpha  90.093012
_cell_angle_beta   89.942544
_cell_angle_gamma 90.08863
loop_
_atom_site_label
_atom_site_type_symbol
_atom_site_fract_x
_atom_site_fract_y
_atom_site_fract_z
_atom_type_partial_charge
C0 C 0.15149 0.05843 0.01535 0.0
O1 O 0.15268 0.02816 0.01701 0.0
Cd2 Cd 0.12281 -0.00621 0.04452 0.0
O3 O 0.13395 0.07383 0.03161 0.0
Cd4 Cd 0.0969 0.0552 0.06891 0.0
C5 C 0.12678 0.00845 0.12452 0.0
O6 O 0.07923 0.01423 0.03306 0.0
O7 O 0.06454 0.01339 0.08173 0.0
O8 O 0.06063 0.09257 0.05533 0.0
C9 C 0.06202 0.00416 0.05298 0.0
O10 O 0.13044 0.98847 0.10191 0.0
C11 C 0.0589 0.10432 0.08335 0.0
O12 O 0.11716 0.03604 0.1188 0.0
O13 O 0.07681 0.09596 0.10326 0.0
C14 C 0.07334 0.75349 0.3473 0.0
O15 O 0.08218 0.75123 0.31886 0.0
Cd16 Cd 0.12106 0.77523 0.29743 0.0
O17 O 0.08523 0.77149 0.36771 0.0
Cd18 Cd 0.12661 0.80718 0.36162 0.0
C19 C 0.10936 0.85551 0.30069 0.0
O20 O 0.15664 0.76992 0.33529 0.0
O21 O 0.16559 0.82001 0.32878 0.0
O22 O 0.15118 0.794 0.41036 0.0
C23 C 0.17365 0.79132 0.32826 0.0
O24 O 0.11295 0.83071 0.28352 0.0
C25 C 0.15471 0.82283 0.41891 0.0
O26 O 0.11089 0.85411 0.33117 0.0
O27 O 0.14123 0.84387 0.40399 0.0
C28 C 0.32468 0.89378 0.53181 0.0
O29 O 0.33131 0.92243 0.52563 0.0
Cd30 Cd 0.36916 0.95109 0.54357 0.0
O31 O 0.33857 0.87711 0.5515 0.0
Cd32 Cd 0.38161 0.89016 0.58225 0.0
C33 C 0.36387 0.95577 0.62517 0.0
O34 O 0.40518 0.91443 0.53766 0.0
O35 O 0.42124 0.92378 0.58477 0.0
O36 O 0.40642 0.84165 0.57042 0.0
C37 C 0.42476 0.92348 0.5547 0.0
O38 O 0.36414 0.97017 0.59833 0.0
C39 C 0.4129 0.83564 0.59919 0.0
O40 O 0.36774 0.92566 0.62685 0.0
O41 O 0.40145 0.85217 0.62084 0.0
C42 C 0.38546 0.24074 0.83835 0.0
O43 O 0.38111 0.24314 0.80848 0.0
Cd44 Cd 0.34934 0.21371 0.7779 0.0
O45 O 0.37261 0.22009 0.85495 0.0
Cd46 Cd 0.33674 0.17987 0.83944 0.0
C47 C 0.36641 0.13496 0.78239 0.0
O48 O 0.30721 0.21173 0.80532 0.0
O49 O 0.30545 0.16034 0.79989 0.0
O50 O 0.30381 0.18797 0.88177 0.0
C51 C 0.29465 0.18729 0.79517 0.0
O52 O 0.36388 0.15963 0.76481 0.0
C53 C 0.30433 0.15933 0.89175 0.0
O54 O 0.36045 0.13597 0.81213 0.0
O55 O 0.32259 0.1414 0.88036 0.0
C56 C 0.13747 0.90381 0.49271 0.0
O57 O 0.13177 0.9334 0.49301 0.0
Cd58 Cd 0.09757 0.96061 0.46482 0.0
O59 O 0.12503 0.88456 0.47394 0.0
Cd60 Cd 0.08737 0.89228 0.43366 0.0
C61 C 0.11157 0.95114 0.38486 0.0
O62 O 0.06 0.9258 0.46809 0.0
O63 O 0.0487 0.92382 0.41828 0.0
O64 O 0.0604 0.84432 0.44474 0.0
C65 C 0.04301 0.93239 0.44657 0.0
O66 O 0.10918 0.9698 0.40884 0.0
C67 C 0.05953 0.83554 0.41559 0.0
O68 O 0.107 0.92122 0.38753 0.0
O69 O 0.07483 0.85027 0.39619 0.0
C70 C 0.39026 0.75973 0.64761 0.0
O71 O 0.39294 0.75695 0.67774 0.0
Cd72 Cd 0.37057 0.78521 0.71913 0.0
O73 O 0.37487 0.78124 0.63602 0.0
Cd74 Cd 0.3436 0.8213 0.66221 0.0
C75 C 0.38177 0.86594 0.7122 0.0
O76 O 0.32505 0.7866 0.70362 0.0
O77 O 0.31698 0.83729 0.70785 0.0
O78 O 0.3046 0.80935 0.62951 0.0
C79 C 0.31215 0.80905 0.71709 0.0
O80 O 0.38407 0.84014 0.72813 0.0
C81 C 0.30178 0.8373 0.61829 0.0
O82 O 0.37034 0.86591 0.68479 0.0
O83 O 0.32012 0.85744 0.62491 0.0
C84 C 0.32893 0.08815 0.98107 0.0
O85 O 0.33882 0.06083 0.98705 0.0
Cd86 Cd 0.37795 0.03662 0.96486 0.0
O87 O 0.33969 0.10614 0.95979 0.0
Cd88 Cd 0.38056 0.09896 0.92382 0.0
C89 C 0.36669 0.03008 0.88392 0.0
O90 O 0.41227 0.07602 0.96259 0.0
O91 O 0.42187 0.07192 0.91234 0.0
O92 O 0.40175 0.15093 0.9302 0.0
C93 C 0.42942 0.06916 0.94114 0.0
O94 O 0.37094 0.01651 0.91076 0.0
C95 C 0.40355 0.15653 0.90035 0.0
O96 O 0.36613 0.06056 0.88185 0.0
O97 O 0.39065 0.13794 0.88175 0.0
C98 C 0.06095 0.20489 0.14934 0.0
O99 O 0.06622 0.20879 0.17884 0.0
Cd100 Cd 0.10367 0.18921 0.20686 0.0
O101 O 0.07591 0.18688 0.132 0.0
Cd102 Cd 0.11873 0.15572 0.14637 0.0
C103 C 0.10021 0.10797 0.20795 0.0
O104 O 0.14137 0.19947 0.17309 0.0
O105 O 0.15645 0.15234 0.18374 0.0
O106 O 0.14648 0.16914 0.09989 0.0
C107 C 0.16055 0.1822 0.18265 0.0
O108 O 0.09935 0.13386 0.22394 0.0
C109 C 0.15336 0.14061 0.09366 0.0
O110 O 0.10486 0.10832 0.17789 0.0
O111 O 0.14075 0.11871 0.10849 0.0
C112 C 0.65873 0.36391 0.98319 0.0
O113 O 0.65926 0.39388 0.98797 0.0
Cd114 Cd 0.62673 0.43156 0.97193 0.0
O115 O 0.64025 0.3516 0.96573 0.0
Cd116 Cd 0.60027 0.37875 0.9383 0.0
C117 C 0.62527 0.4381 0.89139 0.0
O118 O 0.58436 0.40793 0.98531 0.0
O119 O 0.5695 0.42367 0.93951 0.0
O120 O 0.56502 0.33794 0.94671 0.0
C121 C 0.56653 0.42258 0.96961 0.0
O122 O 0.63083 0.45242 0.91749 0.0
C123 C 0.55824 0.33694 0.91738 0.0
O124 O 0.61592 0.40976 0.89187 0.0
O125 O 0.57347 0.35139 0.89775 0.0
C126 C 0.90321 0.23316 0.1672 0.0
O127 O 0.90619 0.24051 0.19651 0.0
Cd128 Cd 0.87911 0.27706 0.22554 0.0
O129 O 0.88511 0.24671 0.15038 0.0
Cd130 Cd 0.8488 0.28718 0.1616 0.0
C131 C 0.88049 0.352 0.19288 0.0
O132 O 0.83366 0.26549 0.21289 0.0
O133 O 0.81943 0.3127 0.20001 0.0
O134 O 0.80841 0.2635 0.13823 0.0
C135 C 0.81753 0.28845 0.21808 0.0
O136 O 0.88704 0.33335 0.21565 0.0
C137 C 0.80841 0.27978 0.11265 0.0
O138 O 0.86782 0.34139 0.16849 0.0
O139 O 0.82805 0.29879 0.10853 0.0
C140 C 0.80431 0.57341 0.44378 0.0
O141 O 0.80622 0.5432 0.44191 0.0
Cd142 Cd 0.84524 0.51558 0.42657 0.0
O143 O 0.82271 0.59139 0.43203 0.0
Cd144 Cd 0.866 0.57773 0.40202 0.0
C145 C 0.85068 0.52056 0.34644 0.0
O146 O 0.88097 0.54757 0.44794 0.0
O147 O 0.90557 0.54309 0.40566 0.0
O148 O 0.89243 0.62542 0.41807 0.0
C149 C 0.90348 0.54088 0.43583 0.0
O150 O 0.84669 0.50224 0.37023 0.0
C151 C 0.90088 0.63115 0.38994 0.0
O152 O 0.85595 0.55007 0.35074 0.0
O153 O 0.89004 0.61528 0.36745 0.0
C154 C 0.89743 0.7164 0.33092 0.0
O155 O 0.89346 0.72082 0.30122 0.0
Cd156 Cd 0.85478 0.70686 0.27233 0.0
O157 O 0.88047 0.7007 0.34782 0.0
Cd158 Cd 0.83656 0.67357 0.33257 0.0
C159 C 0.856 0.62571 0.2711 0.0
O160 O 0.81892 0.72124 0.30761 0.0
O161 O 0.79713 0.67777 0.29782 0.0
O162 O 0.81428 0.68581 0.38415 0.0
C163 C 0.79721 0.70801 0.29937 0.0
O164 O 0.85776 0.65159 0.25528 0.0
C165 C 0.80269 0.65884 0.3862 0.0
O166 O 0.85033 0.62617 0.3009 0.0
O167 O 0.81002 0.63763 0.36624 0.0
C168 C 0.55844 0.28855 0.81567 0.0
O169 O 0.5612 0.28703 0.78545 0.0
Cd170 Cd 0.60087 0.29981 0.75737 0.0
O171 O 0.57669 0.30125 0.83317 0.0
Cd172 Cd 0.62109 0.32778 0.81933 0.0
C173 C 0.60577 0.38008 0.75967 0.0
O174 O 0.63622 0.28064 0.79131 0.0
O175 O 0.66088 0.32272 0.78566 0.0
O176 O 0.64656 0.31317 0.86811 0.0
C177 C 0.65888 0.29253 0.78476 0.0
O178 O 0.60183 0.35565 0.74216 0.0
C179 C 0.65359 0.34162 0.87463 0.0
O180 O 0.61132 0.37713 0.7893 0.0
O181 O 0.64325 0.36347 0.8576 0.0
C182 C 0.80229 0.85136 0.98138 0.0
O183 O 0.81951 0.84399 0.00247 0.0
Cd184 Cd 0.8665 0.85321 0.0013 0.0
O185 O 0.80929 0.86377 0.95468 0.0
Cd186 Cd 0.85378 0.87675 0.92901 0.0
C187 C 0.88714 0.80653 0.93833 0.0
O188 O 0.8745 0.90315 0.9757 0.0
O189 O 0.90006 0.88891 0.93643 0.0
O190 O 0.83785 0.92496 0.90058 0.0
C191 C 0.89765 0.90309 0.96304 0.0
O192 O 0.88808 0.81352 0.96803 0.0
C193 C 0.84896 0.91785 0.87408 0.0
O194 O 0.87317 0.8232 0.91882 0.0
O195 O 0.86 0.89056 0.8723 0.0
C196 C 0.88946 0.22003 0.65682 0.0
O197 O 0.86821 0.23588 0.66207 0.0
Cd198 Cd 0.82663 0.22009 0.68307 0.0
O199 O 0.89046 0.18983 0.66216 0.0
Cd200 Cd 0.85434 0.15054 0.68125 0.0
C201 C 0.80825 0.1681 0.62303 0.0
O202 O 0.83828 0.18415 0.72455 0.0
O203 O 0.81287 0.14499 0.7114 0.0
O204 O 0.88307 0.11557 0.71459 0.0
C205 C 0.81784 0.16741 0.73089 0.0
O206 O 0.80444 0.19402 0.63843 0.0
C207 C 0.8703 0.09039 0.70674 0.0
O208 O 0.82622 0.1482 0.63182 0.0
O209 O 0.85382 0.0929 0.68371 0.0
C210 C 0.64241 0.13634 0.49265 0.0
O211 O 0.62378 0.13891 0.51322 0.0
Cd212 Cd 0.57954 0.11931 0.50589 0.0
O213 O 0.63758 0.1264 0.46417 0.0
Cd214 Cd 0.59486 0.11158 0.43454 0.0
C215 C 0.55121 0.17149 0.45372 0.0
O216 O 0.5836 0.07143 0.47475 0.0
O217 O 0.55317 0.08269 0.43992 0.0
O218 O 0.6183 0.07452 0.39789 0.0
C219 C 0.56175 0.06393 0.46132 0.0
O220 O 0.55074 0.15877 0.4814 0.0
C221 C 0.6041 0.08117 0.37352 0.0
O222 O 0.5678 0.16165 0.43252 0.0
O223 O 0.58819 0.10466 0.37644 0.0
C224 C 0.56583 0.77734 0.15968 0.0
O225 O 0.58599 0.76031 0.16692 0.0
Cd226 Cd 0.62703 0.77352 0.19164 0.0
O227 O 0.56572 0.8076 0.1647 0.0
Cd228 Cd 0.60241 0.84473 0.1854 0.0
C229 C 0.6498 0.82114 0.13049 0.0
O230 O 0.61551 0.81188 0.23082 0.0
O231 O 0.64289 0.84899 0.21737 0.0
O232 O 0.57366 0.88352 0.21467 0.0
C233 C 0.63655 0.82749 0.23729 0.0
O234 O 0.65292 0.79671 0.14829 0.0
C235 C 0.58812 0.90732 0.20669 0.0
O236 O 0.63131 0.8415 0.1365 0.0
O237 O 0.6059 0.90231 0.18546 0.0
C238 C 0.80702 0.14485 0.49146 0.0
O239 O 0.82381 0.15595 0.47153 0.0
Cd240 Cd 0.87037 0.14531 0.47369 0.0
O241 O 0.81494 0.13067 0.51694 0.0
Cd242 Cd 0.86119 0.12021 0.54089 0.0
C243 C 0.89712 0.18915 0.53405 0.0
O244 O 0.87778 0.09195 0.49285 0.0
O245 O 0.90683 0.1074 0.52788 0.0
O246 O 0.84579 0.07099 0.56878 0.0
C247 C 0.90145 0.09036 0.50368 0.0
O248 O 0.89613 0.18353 0.50411 0.0
C249 C 0.85851 0.07628 0.59459 0.0
O250 O 0.88341 0.17228 0.5537 0.0
O251 O 0.87031 0.10311 0.59667 0.0
C252 C 0.5584 0.182 0.29713 0.0
O253 O 0.57299 0.20549 0.30568 0.0
Cd254 Cd 0.62041 0.2126 0.3062 0.0
O255 O 0.56853 0.1554 0.28804 0.0
Cd256 Cd 0.61515 0.13306 0.28132 0.0
C257 C 0.64358 0.15185 0.35545 0.0
O258 O 0.6299 0.18307 0.25993 0.0
O259 O 0.65756 0.14442 0.25435 0.0
O260 O 0.59349 0.10144 0.23912 0.0
C261 C 0.65324 0.17414 0.25243 0.0
O262 O 0.63988 0.18126 0.34885 0.0
C263 C 0.60939 0.07785 0.24144 0.0
O264 O 0.63572 0.12971 0.33631 0.0
O265 O 0.62655 0.07882 0.26394 0.0
C266 C 0.65429 0.83287 0.9682 0.0
O267 O 0.63626 0.8237 0.94886 0.0
Cd268 Cd 0.59084 0.84108 0.95474 0.0
O269 O 0.64798 0.84846 -0.00658 0.0
Cd270 Cd 0.60302 0.86458 0.01649 0.0
C271 C 0.5606 0.80169 0.01449 0.0
O272 O 0.58719 0.89676 0.97053 0.0
O273 O 0.55827 0.88269 0.00634 0.0
O274 O 0.62285 0.91161 0.04339 0.0
C275 C 0.56459 0.90136 0.98374 0.0
O276 O 0.56043 0.80677 0.98446 0.0
C277 C 0.61131 0.90681 0.07008 0.0
O278 O 0.57741 0.81627 0.03238 0.0
O279 O 0.59798 0.88109 0.07271 0.0
C280 C 0.90486 0.76544 0.79846 0.0
O281 O 0.88507 0.74757 0.79155 0.0
Cd282 Cd 0.84252 0.7594 0.76924 0.0
O283 O 0.90373 0.79589 0.79489 0.0
Cd284 Cd 0.86613 0.83338 0.77628 0.0
C285 C 0.81816 0.80776 0.83023 0.0
O286 O 0.85085 0.80024 0.73193 0.0
O287 O 0.82537 0.83918 0.74534 0.0
O288 O 0.89394 0.87103 0.7445 0.0
C289 C 0.8297 0.81602 0.72653 0.0
O290 O 0.81693 0.78274 0.81278 0.0
C291 C 0.88097 0.89554 0.75377 0.0
O292 O 0.83576 0.82945 0.82465 0.0
O293 O 0.86459 0.89145 0.77678 0.0
C294 C 0.33865 0.61239 0.01374 0.0
O295 O 0.35858 0.60514 -0.00372 0.0
Cd296 Cd 0.39939 0.58226 0.0139 0.0
O297 O 0.33842 0.60616 0.04383 0.0
Cd298 Cd 0.37097 0.57816 0.08115 0.0
C299 C 0.41903 0.63379 0.07471 0.0
O300 O 0.38738 0.53682 0.04458 0.0
O301 O 0.41265 0.54976 0.08432 0.0
O302 O 0.33897 0.54346 0.1115 0.0
C303 C 0.40747 0.5303 0.06192 0.0
O304 O 0.42325 0.62074 0.04751 0.0
C305 C 0.35198 0.54686 0.13752 0.0
O306 O 0.39897 0.62542 0.09178 0.0
O307 O 0.37051 0.56763 0.13762 0.0
C308 C 0.07128 0.72819 0.89336 0.0
O309 O 0.08802 0.75107 0.89542 0.0
Cd310 Cd 0.13338 0.75529 0.87736 0.0
O311 O 0.07798 0.70136 0.88098 0.0
Cd312 Cd 0.11972 0.67987 0.85444 0.0
C313 C 0.1675 0.69241 0.91186 0.0
O314 O 0.13199 0.72942 0.82735 0.0
O315 O 0.16058 0.69095 0.82674 0.0
O316 O 0.09892 0.65173 0.8091 0.0
C317 C 0.15493 0.71939 0.81917 0.0
O318 O 0.16473 0.72232 0.90709 0.0
C319 C 0.11058 0.6253 0.81461 0.0
O320 O 0.15158 0.6721 0.89899 0.0
O321 O 0.12439 0.62345 0.84013 0.0
C322 C 0.1222 0.38551 0.52431 0.0
O323 O 0.10073 0.38804 0.50817 0.0
Cd324 Cd 0.0608 0.41508 0.52192 0.0
O325 O 0.12374 0.39596 0.55317 0.0
Cd326 Cd 0.08943 0.42066 0.59069 0.0
C327 C 0.03883 0.36656 0.58303 0.0
O328 O 0.07554 0.46003 0.55157 0.0
O329 O 0.05012 0.45489 0.59275 0.0
O330 O 0.1208 0.45558 0.62015 0.0
C331 C 0.0559 0.4704 0.56766 0.0
O332 O 0.03517 0.37941 0.55572 0.0
C333 C 0.10917 0.45111 0.64692 0.0
O334 O 0.05903 0.37432 0.6002 0.0
O335 O 0.09165 0.42908 0.64801 0.0
C336 C 0.08198 0.27696 0.56476 0.0
O337 O 0.09699 0.25575 0.55254 0.0
Cd338 Cd 0.13986 0.24528 0.57545 0.0
O339 O 0.09132 0.29664 0.58542 0.0
Cd340 Cd 0.13704 0.30772 0.60907 0.0
C341 C 0.18401 0.30154 0.55092 0.0
O342 O 0.13889 0.25378 0.63246 0.0
O343 O 0.17581 0.28083 0.63091 0.0
O344 O 0.11781 0.33109 0.65816 0.0
C345 C 0.16287 0.25712 0.64168 0.0
O346 O 0.17764 0.27209 0.55136 0.0
C347 C 0.13188 0.35639 0.65815 0.0
O348 O 0.16995 0.32192 0.56635 0.0
O349 O 0.14731 0.36028 0.63425 0.0
C350 C 0.37869 0.72236 0.08813 0.0
O351 O 0.35984 0.74263 0.08685 0.0
Cd352 Cd 0.31915 0.73679 0.11695 0.0
O353 O 0.37596 0.6967 0.1044 0.0
Cd354 Cd 0.33798 0.67369 0.13701 0.0
C355 C 0.28478 0.67254 0.0882 0.0
O356 O 0.32972 0.72163 0.17074 0.0
O357 O 0.29975 0.68439 0.16979 0.0
O358 O 0.36978 0.64863 0.17509 0.0
C359 C 0.30946 0.70867 0.1837 0.0
O360 O 0.28466 0.70234 0.09443 0.0
C361 C 0.35572 0.62354 0.1786 0.0
O362 O 0.30485 0.65545 0.0963 0.0
O363 O 0.33558 0.62051 0.16029 0.0
C364 C 0.63529 0.62798 0.51983 0.0
O365 O 0.61502 0.64589 0.52236 0.0
Cd366 Cd 0.59025 0.60177 0.55157 0.0
O367 O 0.63406 0.60158 0.53433 0.0
Cd368 Cd 0.58539 0.59528 0.55542 0.0
C369 C 0.60671 0.56875 0.61401 0.0
O370 O 0.57819 0.56534 0.50788 0.0
O371 O 0.57731 0.53693 0.55099 0.0
O372 O 0.55743 0.64534 0.54378 0.0
C373 C 0.57523 0.53811 0.52063 0.0
O374 O 0.6191 0.56542 0.58769 0.0
C375 C 0.53593 0.63164 0.55326 0.0
O376 O 0.58758 0.58838 0.61386 0.0
O377 O 0.53805 0.60295 0.56255 0.0
C378 C 0.81321 0.40037 0.0136 0.0
O379 O 0.82253 0.42825 0.009 0.0
Cd380 Cd 0.86387 0.44855 0.02728 0.0
O381 O 0.82568 0.38056 0.03168 0.0
Cd382 Cd 0.86933 0.38547 0.06319 0.0
C383 C 0.85701 0.45119 0.10841 0.0
O384 O 0.8946 0.40585 0.01854 0.0
O385 O 0.91264 0.41357 0.0649 0.0
O386 O 0.88905 0.33269 0.05189 0.0
C387 C 0.91547 0.41143 0.03477 0.0
O388 O 0.8606 0.46656 0.08249 0.0
C389 C 0.89482 0.32663 0.08087 0.0
O390 O 0.85691 0.4207 0.10871 0.0
O391 O 0.88498 0.34535 0.10181 0.0
C392 C 0.56355 0.68722 0.65872 0.0
O393 O 0.56617 0.69096 0.68874 0.0
Cd394 Cd 0.60653 0.6834 0.71728 0.0
O395 O 0.58256 0.67503 0.64204 0.0
Cd396 Cd 0.62784 0.65204 0.65863 0.0
C397 C 0.61296 0.60389 0.72219 0.0
O398 O 0.6425 0.70175 0.68317 0.0
O399 O 0.66689 0.66031 0.69274 0.0
O400 O 0.65189 0.66357 0.60782 0.0
C401 C 0.665 0.69046 0.69131 0.0
O402 O 0.60866 0.62945 0.73783 0.0
C403 C 0.66099 0.63543 0.60438 0.0
O404 O 0.61859 0.60485 0.69243 0.0
O405 O 0.6526 0.61471 0.62417 0.0
C406 C 0.35704 0.35477 0.43522 0.0
O407 O 0.37791 0.34121 0.44595 0.0
Cd408 Cd 0.42304 0.35044 0.4303 0.0
O409 O 0.35858 0.37444 0.41178 0.0
Cd410 Cd 0.39805 0.39288 0.37757 0.0
C411 C 0.42381 0.32363 0.35271 0.0
O412 O 0.42612 0.4061 0.42341 0.0
O413 O 0.44668 0.40214 0.37827 0.0
O414 O 0.37505 0.44449 0.3663 0.0
C415 C 0.44746 0.41003 0.40754 0.0
O416 O 0.43446 0.3235 0.38039 0.0
C417 C 0.38566 0.4475 0.33874 0.0
O418 O 0.40597 0.34408 0.34536 0.0
O419 O 0.40009 0.42453 0.32904 0.0
C420 C 0.12909 0.59874 0.94997 0.0
O421 O 0.10656 0.60324 0.96342 0.0
Cd422 Cd 0.06677 0.5755 0.94909 0.0
O423 O 0.13087 0.58289 0.92373 0.0
Cd424 Cd 0.09532 0.55893 0.88719 0.0
C425 C 0.04618 0.61469 0.88267 0.0
O426 O 0.08163 0.5244 0.93126 0.0
O427 O 0.05556 0.52486 0.89042 0.0
O428 O 0.12919 0.52398 0.85977 0.0
C429 C 0.0625 0.51147 0.91629 0.0
O430 O 0.03984 0.60402 0.9102 0.0
C431 C 0.11506 0.52135 0.83453 0.0
O432 O 0.0684 0.60663 0.86974 0.0
O433 O 0.09439 0.53884 0.83289 0.0
C434 C 0.37525 0.26669 0.38995 0.0
O435 O 0.35763 0.24522 0.38533 0.0
Cd436 Cd 0.31618 0.25081 0.35739 0.0
O437 O 0.37174 0.29517 0.37944 0.0
Cd438 Cd 0.33501 0.32187 0.34635 0.0
C439 C 0.28083 0.31102 0.39394 0.0
O440 O 0.3271 0.27743 0.30879 0.0
O441 O 0.29714 0.31438 0.31197 0.0
O442 O 0.36064 0.35186 0.30606 0.0
C443 C 0.30635 0.29039 0.29712 0.0
O444 O 0.28235 0.28164 0.38604 0.0
C445 C 0.34908 0.37841 0.31131 0.0
O446 O 0.29912 0.33071 0.38568 0.0
O447 O 0.33381 0.37972 0.33569 0.0
H448 H 0.02106 0.98127 0.09001 0.0
H449 H 0.05165 0.98261 -0.00715 0.0
H450 H 0.98118 0.9525 0.07159 0.0
H451 H 0.01177 0.95477 0.97448 0.0
H452 H 0.94868 0.88426 0.95204 0.0
H453 H -0.01079 0.90375 0.97768 0.0
H454 H 0.94162 0.96559 0.03846 0.0
H455 H 0.90063 0.94504 0.01333 0.0
C456 C 0.01936 0.97515 0.06482 0.0
C457 C 0.03935 0.98418 0.04279 0.0
C458 C -0.00349 0.95892 0.0543 0.0
C459 C -0.00659 0.95148 0.02166 0.0
C460 C 0.01381 0.95975 -0.00012 0.0
C461 C 0.03659 0.97586 0.01036 0.0
C462 C 0.94682 0.90188 0.97102 0.0
C463 C 0.92163 0.91366 0.98041 0.0
C464 C 0.97003 0.91301 0.98567 0.0
C465 C 0.96856 0.93649 0.00968 0.0
C466 C 0.94328 0.9473 0.02011 0.0
C467 C 0.9199 0.93579 0.00564 0.0
H468 H 0.31753 0.76714 0.21232 0.0
H469 H 0.27207 0.67924 0.2198 0.0
H470 H 0.29148 0.78977 0.25687 0.0
H471 H 0.24599 0.70168 0.263 0.0
H472 H 0.20261 0.73859 0.34257 0.0
H473 H 0.24392 0.72087 0.31671 0.0
H474 H 0.24493 0.80726 0.25963 0.0
H475 H 0.20451 0.82565 0.28689 0.0
C476 C 0.30226 0.7526 0.22375 0.0
C477 C 0.29637 0.72176 0.21234 0.0
C478 C 0.2874 0.76548 0.24913 0.0
C479 C 0.2667 0.74752 0.26341 0.0
C480 C 0.26208 0.71602 0.25301 0.0
C481 C 0.27677 0.70329 0.22782 0.0
C482 C 0.21205 0.75397 0.32493 0.0
C483 C 0.20017 0.78293 0.31589 0.0
C484 C 0.23568 0.74395 0.31025 0.0
C485 C 0.24727 0.76233 0.28563 0.0
C486 C 0.23657 0.79262 0.27861 0.0
C487 C 0.21324 0.80298 0.29388 0.0
H488 H 0.43958 0.91984 0.49207 0.0
H489 H 0.46522 0.95535 0.58464 0.0
H490 H 0.47803 0.9458 0.46687 0.0
H491 H 0.50309 0.98208 0.55939 0.0
H492 H 0.57387 0.02135 0.50869 0.0
H493 H 0.54506 0.97866 0.5292 0.0
H494 H 0.485 0.00264 0.45838 0.0
H495 H 0.51385 0.04446 0.43751 0.0
C496 C 0.45355 0.93303 0.507 0.0
C497 C 0.4492 0.93633 0.54011 0.0
C498 C 0.47553 0.94775 0.49263 0.0
C499 C 0.49329 0.9662 0.51115 0.0
C500 C 0.48986 0.96774 0.54457 0.0
C501 C 0.468 0.95278 0.55897 0.0
C502 C 0.55465 0.01712 0.49731 0.0
C503 C 0.54578 0.0365 0.47198 0.0
C504 C 0.53825 -0.00727 0.50898 0.0
C505 C 0.51281 0.98751 0.49546 0.0
C506 C 0.50466 0.00582 0.469 0.0
C507 C 0.52103 0.03006 0.45732 0.0
H508 H 0.27515 0.14372 0.75269 0.0
H509 H 0.25947 0.23683 0.794 0.0
H510 H 0.23689 0.15042 0.71654 0.0
H511 H 0.22083 0.24299 0.7584 0.0
H512 H 0.21001 0.22754 0.6317 0.0
H513 H 0.23711 0.2006 0.67229 0.0
H514 H 0.17287 0.2115 0.74107 0.0
H515 H 0.14521 0.23741 0.6998 0.0
C516 C 0.26318 0.16528 0.75447 0.0
C517 C 0.27036 0.19006 0.77564 0.0
C518 C 0.24129 0.16891 0.73404 0.0
C519 C 0.22599 0.19697 0.73519 0.0
C520 C 0.23221 0.22092 0.75763 0.0
C521 C 0.25444 0.21761 0.77757 0.0
C522 C 0.20136 0.22292 0.65513 0.0
C523 C 0.1758 0.23437 0.66301 0.0
C524 C 0.21671 0.20746 0.67819 0.0
C525 C 0.20689 0.20419 0.70955 0.0
C526 C 0.18058 0.21368 0.71685 0.0
C527 C 0.16488 0.22835 0.6934 0.0
H528 H 0.02812 0.95682 0.50424 0.0
H529 H 0.00688 0.95604 0.40359 0.0
H530 H -0.00713 -0.00433 0.51462 0.0
H531 H 0.97172 -0.00457 0.41408 0.0
H532 H 0.89418 0.0413 0.46106 0.0
H533 H 0.92784 0.00169 0.44493 0.0
H534 H -0.01188 0.05307 0.49897 0.0
H535 H 0.95474 0.09208 0.51537 0.0
C536 C 0.01586 0.96488 0.48438 0.0
C537 C 0.02038 0.95379 0.45308 0.0
C538 C -0.00418 0.98719 0.49028 0.0
C539 C 0.98 -0.0012 0.465 0.0
C540 C -0.01626 0.98678 0.43389 0.0
C541 C 0.00386 0.9644 0.42795 0.0
C542 C 0.91473 0.04428 0.469 0.0
C543 C 0.92187 0.06934 0.48979 0.0
C544 C 0.9339 0.02172 0.4598 0.0
C545 C 0.9603 0.02414 0.47133 0.0
C546 C 0.96769 0.05032 0.49047 0.0
C547 C 0.94863 0.07269 0.49969 0.0
H548 H 0.30405 0.75345 0.74888 0.0
H549 H 0.27353 0.84975 0.73889 0.0
H550 H 0.2658 0.73963 0.78213 0.0
H551 H 0.23499 0.83582 0.77255 0.0
H552 H 0.15618 0.7685 0.77628 0.0
H553 H 0.19633 0.79829 0.75977 0.0
H554 H 0.24235 0.75052 0.83337 0.0
H555 H 0.2027 0.72023 0.84892 0.0
C556 C 0.2894 0.77181 0.75437 0.0
C557 C 0.29145 0.80246 0.74108 0.0
C558 C 0.26764 0.76404 0.77365 0.0
C559 C 0.2475 0.78675 0.77982 0.0
C560 C 0.25026 0.81796 0.76796 0.0
C561 C 0.27227 0.82586 0.74885 0.0
C562 C 0.17482 0.76505 0.78919 0.0
C563 C 0.17689 0.74156 0.81293 0.0
C564 C 0.19764 0.78221 0.78006 0.0
C565 C 0.22242 0.77614 0.79503 0.0
C566 C 0.22357 0.75508 0.82111 0.0
C567 C 0.201 0.73769 0.82982 0.0
H568 H 0.44828 0.05205 0.00016 0.0
H569 H 0.46708 0.0482 0.89889 0.0
H570 H 0.48543 0.01568 0.0111 0.0
H571 H 0.5036 0.01128 0.90976 0.0
H572 H 0.57549 0.9523 0.94435 0.0
H573 H 0.54717 -0.00046 0.93603 0.0
H574 H 0.48653 0.95838 -0.00225 0.0
H575 H 0.51454 0.91194 0.00627 0.0
C576 C 0.46059 0.04385 0.98035 0.0
C577 C 0.45443 0.05222 0.94864 0.0
C578 C 0.48176 0.02302 0.98657 0.0
C579 C 0.49695 0.01021 0.96116 0.0
C580 C 0.49223 0.0208 0.92978 0.0
C581 C 0.47115 0.04171 0.92357 0.0
C582 C 0.55602 0.95342 0.9559 0.0
C583 C 0.54716 0.92853 0.97589 0.0
C584 C 0.53996 0.98043 0.95132 0.0
C585 C 0.51494 0.98283 0.96679 0.0
C586 C 0.50605 0.95763 0.98629 0.0
C587 C 0.52197 0.93081 -0.0092 0.0
H588 H 0.314 0.23158 0.26945 0.0
H589 H 0.26303 0.31521 0.26743 0.0
H590 H 0.28305 0.20402 0.23312 0.0
H591 H 0.23199 0.28769 0.2325 0.0
H592 H 0.18095 0.23912 0.16382 0.0
H593 H 0.2223 0.26435 0.18203 0.0
H594 H 0.23867 0.18232 0.24211 0.0
H595 H 0.19797 0.15646 0.22248 0.0
C596 C 0.29643 0.24418 0.26085 0.0
C597 C 0.29054 0.27522 0.27165 0.0
C598 C 0.27872 0.22841 0.24023 0.0
C599 C 0.25499 0.24357 0.23022 0.0
C600 C 0.25022 0.27541 0.23939 0.0
C601 C 0.26787 0.2911 0.25978 0.0
C602 C 0.19358 0.22645 0.18071 0.0
C603 C 0.18612 0.19631 0.19248 0.0
C604 C 0.21725 0.24078 0.19101 0.0
C605 C 0.23351 0.22553 0.21384 0.0
C606 C 0.22672 0.19456 0.22425 0.0
C607 C 0.20326 0.17993 0.21341 0.0
H608 H 0.45355 0.51536 0.09293 0.0
H609 H 0.40682 0.49235 0.00854 0.0
H610 H 0.49089 0.48464 0.07188 0.0
H611 H 0.44411 0.46057 0.98786 0.0
H612 H 0.52822 0.4594 0.94205 0.0
H613 H 0.48711 0.47888 0.96656 0.0
H614 H 0.5088 0.43314 0.05586 0.0
H615 H 0.55046 0.41434 0.03149 0.0
C616 C 0.45107 0.50313 0.07018 0.0
C617 C 0.42762 0.50683 0.05192 0.0
C618 C 0.47239 0.4853 0.05827 0.0
C619 C 0.47049 0.47071 0.02803 0.0
C620 C 0.44621 0.47223 0.01097 0.0
C621 C 0.42488 0.49022 0.02284 0.0
C622 C 0.52425 0.45362 0.96694 0.0
C623 C 0.54254 0.43567 0.98502 0.0
C624 C 0.50055 0.46436 0.98083 0.0
C625 C 0.49466 0.45715 0.01297 0.0
C626 C 0.51295 0.43911 0.03105 0.0
C627 C 0.53678 0.42851 0.01719 0.0
H628 H 0.76918 0.31793 0.21197 0.0
H629 H 0.81161 0.24722 0.26785 0.0
H630 H 0.72659 0.29507 0.22896 0.0
H631 H 0.7689 0.22516 0.28596 0.0
H632 H 0.70512 0.15956 0.24067 0.0
H633 H 0.74368 0.19449 0.24484 0.0
H634 H 0.69183 0.2743 0.26738 0.0
H635 H 0.65266 0.23898 0.26284 0.0
C636 C 0.76938 0.29852 0.22918 0.0
C637 C 0.79351 0.28344 0.23773 0.0
C638 C 0.74495 0.28553 0.23901 0.0
C639 C 0.74463 0.25768 0.25777 0.0
C640 C 0.76878 0.2461 0.27066 0.0
C641 C 0.79317 0.25871 0.26039 0.0
C642 C 0.70184 0.18454 0.24648 0.0
C643 C 0.67593 0.19654 0.25152 0.0
C644 C 0.72398 0.20445 0.24944 0.0
C645 C 0.72075 0.23687 0.25746 0.0
C646 C 0.6948 0.24926 0.26167 0.0
C647 C 0.67248 0.22915 0.25879 0.0
H648 H 0.06184 0.5058 0.51332 0.0
H649 H 0.00507 0.48211 0.58818 0.0
H650 H 0.02592 0.53044 0.48234 0.0
H651 H 0.96916 0.50528 0.55684 0.0
H652 H 0.95125 0.51438 0.41857 0.0
H653 H -0.0098 0.5059 0.45283 0.0
H654 H 0.94788 0.54936 0.53245 0.0
H655 H 0.90861 0.55625 0.49862 0.0
C656 C 0.04178 0.50637 0.52336 0.0
C657 C 0.03603 0.49144 0.55272 0.0
C658 C 0.02123 0.52023 0.50556 0.0
C659 C -0.00535 0.51906 0.51679 0.0
C660 C -0.01058 0.50669 0.54751 0.0
C661 C 0.01 0.4932 0.56544 0.0
C662 C 0.95036 0.52195 0.44343 0.0
C663 C 0.92689 0.53532 0.4562 0.0
C664 C 0.97274 0.5176 0.46293 0.0
C665 C 0.97211 0.52706 0.49535 0.0
C666 C 0.94883 0.54138 0.50773 0.0
C667 C 0.92634 0.54519 0.4884 0.0
H668 H 0.78865 0.76912 0.31876 0.0
H669 H 0.74995 0.68834 0.27319 0.0
H670 H 0.74721 0.7996 0.31508 0.0
H671 H 0.70879 0.71926 0.26818 0.0
H672 H 0.68569 0.8525 0.24997 0.0
H673 H 0.72363 0.824 0.27211 0.0
H674 H 0.67187 0.7443 0.29601 0.0
H675 H 0.63386 0.77254 0.27257 0.0
C676 C 0.77132 0.75802 0.30765 0.0
C677 C 0.77251 0.72661 0.29576 0.0
C678 C 0.74758 0.7754 0.30572 0.0
C679 C 0.72475 0.76183 0.29141 0.0
C680 C 0.72588 0.73018 0.27996 0.0
C681 C 0.74954 0.71263 0.28231 0.0
C682 C 0.68226 0.82921 0.26063 0.0
C683 C 0.65708 0.81428 0.25869 0.0
C684 C 0.704 0.81292 0.27355 0.0
C685 C 0.70081 0.78158 0.28509 0.0
C686 C 0.67498 0.76811 0.28644 0.0
C687 C 0.65322 0.78436 0.27328 0.0
H688 H 0.82015 0.21952 0.77021 0.0
H689 H 0.76741 0.14367 0.73816 0.0
H690 H 0.78171 0.24821 0.79215 0.0
H691 H 0.7291 0.17275 0.75878 0.0
H692 H 0.70846 0.30978 0.76365 0.0
H693 H 0.74837 0.27638 0.76131 0.0
H694 H 0.70315 0.19688 0.8002 0.0
H695 H 0.663 0.22995 0.80121 0.0
C696 C 0.80044 0.20867 0.76851 0.0
C697 C 0.79654 0.17997 0.75161 0.0
C698 C 0.77847 0.22515 0.78087 0.0
C699 C 0.75239 0.21318 0.77624 0.0
C700 C 0.74893 0.18268 0.76265 0.0
C701 C 0.7709 0.16608 0.75061 0.0
C702 C 0.7071 0.28514 0.77154 0.0
C703 C 0.68267 0.27223 0.78204 0.0
C704 C 0.73001 0.26615 0.77077 0.0
C705 C 0.72891 0.23408 0.78088 0.0
C706 C 0.70452 0.22143 0.79202 0.0
C707 C 0.68155 0.24029 0.79238 0.0
H708 H 0.82842 0.7587 0.69493 0.0
H709 H 0.77968 0.84074 0.71941 0.0
H710 H 0.7881 0.72924 0.67975 0.0
H711 H 0.73953 0.81102 0.70571 0.0
H712 H 0.71389 0.67432 0.71505 0.0
H713 H 0.75457 0.70655 0.71446 0.0
H714 H 0.71122 0.78372 0.66889 0.0
H715 H 0.67026 0.75187 0.67073 0.0
C716 C 0.80918 0.77066 0.69637 0.0
C717 C 0.80705 0.80164 0.70915 0.0
C718 C 0.7861 0.75372 0.68801 0.0
C719 C 0.76063 0.7675 0.69251 0.0
C720 C 0.75882 0.79966 0.70203 0.0
C721 C 0.78187 0.81667 0.71007 0.0
C722 C 0.71306 0.69827 0.70515 0.0
C723 C 0.68896 0.71078 0.69328 0.0
C724 C 0.73643 0.71654 0.70429 0.0
C725 C 0.73618 0.74753 0.69118 0.0
C726 C 0.712 0.76001 0.6793 0.0
C727 C 0.68854 0.74185 0.68052 0.0
H728 H 0.49647 0.41953 0.37971 0.0
H729 H 0.45536 0.42002 0.47113 0.0
H730 H 0.53701 0.43986 0.40576 0.0
H731 H 0.49535 0.44071 0.49685 0.0
H732 H 0.56541 0.47756 0.54207 0.0
H733 H 0.54227 0.43527 0.51255 0.0
H734 H 0.54388 0.49375 0.42706 0.0
H735 H 0.56748 0.53541 0.45618 0.0
C736 C 0.49623 0.42356 0.40539 0.0
C737 C 0.47268 0.41894 0.42335 0.0
C738 C 0.51942 0.43502 0.42027 0.0
C739 C 0.51931 0.44196 0.45327 0.0
C740 C 0.49624 0.43516 0.47147 0.0
C741 C 0.47315 0.42379 0.45664 0.0
C742 C 0.5615 0.4809 0.51673 0.0
C743 C 0.56737 0.51007 0.50159 0.0
C744 C 0.54833 0.45672 0.49986 0.0
C745 C 0.54075 0.46157 0.46777 0.0
C746 C 0.54947 0.48926 0.45176 0.0
C747 C 0.56272 0.51333 0.46856 0.0
H748 H 0.01529 0.48766 0.89419 0.0
H749 H 0.07152 0.48059 0.97281 0.0
H750 H -0.01653 0.45507 0.92359 0.0
H751 H 0.03986 0.44682 0.00202 0.0
H752 H 0.9582 0.44488 0.05808 0.0
H753 H -0.00163 0.46037 0.02848 0.0
H754 H 0.97119 0.40514 0.94679 0.0
H755 H 0.93051 0.391 0.97593 0.0
C756 C 0.02108 0.47845 0.91746 0.0
C757 C 0.04553 0.4872 0.93159 0.0
C758 C 0.00295 0.45948 0.93423 0.0
C759 C 0.00908 0.44866 0.96529 0.0
C760 C 0.03445 0.45535 0.97836 0.0
C761 C 0.05254 0.47457 0.96164 0.0
C762 C 0.96106 0.43583 0.03394 0.0
C763 C 0.94111 0.41758 0.01885 0.0
C764 C -0.01584 0.44434 0.0171 0.0
C765 C -0.01226 0.43425 0.98515 0.0
C766 C 0.96866 0.41384 0.97111 0.0
C767 C 0.94541 0.40583 0.98772 0.0
H768 H 0.08809 0.01599 0.16933 0.0
H769 H 0.16515 0.97175 0.1532 0.0
H770 H 0.0822 0.98416 0.21806 0.0
H771 H 0.15991 0.94119 0.20303 0.0
H772 H 0.14619 0.90286 0.30456 0.0
H773 H 0.15205 0.94701 0.26634 0.0
H774 H 0.07748 0.92101 0.22047 0.0
H775 H 0.07228 0.87619 0.25782 0.0
C776 C 0.10426 0.00045 0.17696 0.0
C777 C 0.1272 -0.00356 0.15773 0.0
C778 C 0.10075 0.98206 0.20464 0.0
C779 C 0.12061 0.96032 0.21426 0.0
C780 C 0.14445 0.9581 0.19632 0.0
C781 C 0.14751 0.9756 0.16794 0.0
C782 C 0.13069 0.9073 0.28689 0.0
C783 C 0.10859 0.88656 0.28424 0.0
C784 C 0.13421 0.93223 0.26488 0.0
C785 C 0.11527 0.93726 0.24046 0.0
C786 C 0.09223 0.91781 0.23927 0.0
C787 C 0.08915 0.89233 0.26066 0.0
H788 H 0.29509 0.92305 0.48584 0.0
H789 H 0.30062 0.83421 0.53818 0.0
H790 H 0.25553 0.90438 0.45914 0.0
H791 H 0.25862 0.81645 0.5139 0.0
H792 H 0.19076 0.7832 0.44834 0.0
H793 H 0.23277 0.79812 0.47373 0.0
H794 H 0.21179 0.89813 0.46299 0.0
H795 H 0.17145 0.88292 0.43481 0.0
C796 C 0.28753 0.8996 0.49222 0.0
C797 C 0.30073 0.88056 0.51507 0.0
C798 C 0.26429 0.88895 0.4771 0.0
C799 C 0.25273 0.85924 0.48495 0.0
C800 C 0.26658 0.83948 0.5069 0.0
C801 C 0.2906 0.84981 0.52129 0.0
C802 C 0.19512 0.80838 0.45168 0.0
C803 C 0.17754 0.83186 0.43984 0.0
C804 C 0.21935 0.81705 0.46639 0.0
C805 C 0.22644 0.8495 0.47024 0.0
C806 C 0.2081 0.87287 0.45943 0.0
C807 C 0.18435 0.86418 0.44393 0.0
H808 H 0.33531 0.0824 0.78919 0.0
H809 H 0.40393 0.1187 0.73749 0.0
H810 H 0.33414 0.03539 0.754 0.0
H811 H 0.40354 0.07092 0.70315 0.0
H812 H 0.4055 0.96719 0.66492 0.0
H813 H 0.40814 0.0082 0.70706 0.0
H814 H 0.32457 0.0308 0.69209 0.0
H815 H 0.32226 -0.00959 0.6493 0.0
C816 C 0.35071 0.07973 0.77099 0.0
C817 C 0.37002 0.10382 0.76632 0.0
C818 C 0.34979 0.05311 0.75061 0.0
C819 C 0.36872 0.04959 0.72587 0.0
C820 C 0.38888 0.07291 0.72226 0.0
C821 C 0.38922 0.1001 0.74195 0.0
C822 C 0.3876 0.98051 0.67122 0.0
C823 C 0.36356 0.97546 0.65442 0.0
C824 C 0.38918 0.00413 0.695 0.0
C825 C 0.36659 0.02269 0.70271 0.0
C826 C 0.34221 0.01662 0.68679 0.0
C827 C 0.34083 -0.00649 0.66247 0.0
H828 H 0.25913 0.19025 0.91212 0.0
H829 H 0.29853 0.09835 0.91391 0.0
H830 H 0.21987 0.16707 0.9374 0.0
H831 H 0.26065 0.07562 0.94194 0.0
H832 H 0.1853 0.0312 0.97209 0.0
H833 H 0.21954 0.05631 0.94021 0.0
H834 H 0.19757 0.14855 0.97986 0.0
H835 H 0.16094 0.12328 0.00898 0.0
C836 C 0.25966 0.16519 0.9187 0.0
C837 C 0.28214 0.14624 0.91137 0.0
C838 C 0.23703 0.15177 0.93337 0.0
C839 C 0.23646 0.11912 0.94179 0.0
C840 C 0.25939 0.10046 0.93492 0.0
C841 C 0.28166 0.11371 0.91948 0.0
C842 C 0.18758 0.05694 0.97387 0.0
C843 C 0.17096 0.07509 -0.00585 0.0
C844 C 0.20769 0.07145 0.95579 0.0
C845 C 0.21256 0.10455 0.95816 0.0
C846 C 0.19482 0.12303 0.97708 0.0
C847 C 0.1739 0.1085 -0.00569 0.0
H848 H 0.06071 0.08275 0.24535 0.0
H849 H 0.14183 0.0669 0.21299 0.0
H850 H 0.06534 0.03879 0.28392 0.0
H851 H 0.14695 0.02384 0.25253 0.0
H852 H 0.14879 -0.00549 0.36458 0.0
H853 H 0.14634 0.02753 0.31605 0.0
H854 H 0.07503 0.97665 0.28658 0.0
H855 H 0.0783 0.94265 0.33431 0.0
C856 C 0.07925 0.06925 0.24599 0.0
C857 C 0.10073 0.07767 0.22593 0.0
C858 C 0.08197 0.04425 0.26808 0.0
C859 C 0.10655 0.02804 0.27126 0.0
C860 C 0.12786 0.03607 0.25066 0.0
C861 C 0.12482 0.06036 0.22784 0.0
C862 C 0.13324 -0.01034 0.34707 0.0
C863 C 0.11401 0.96578 0.35282 0.0
C864 C 0.13174 0.00858 0.31942 0.0
C865 C 0.11041 0.0047 0.29768 0.0
C866 C 0.09161 0.98019 0.30303 0.0
C867 C 0.09366 0.96054 0.33009 0.0
H868 H 0.25797 0.80002 0.60599 0.0
H869 H 0.28927 0.89541 0.59233 0.0
H870 H 0.21636 0.81536 0.58025 0.0
H871 H 0.2489 0.91015 0.56372 0.0
H872 H 0.16888 0.94025 0.53174 0.0
H873 H 0.2058 0.92382 0.56494 0.0
H874 H 0.19348 0.82556 0.53509 0.0
H875 H 0.15446 0.84202 0.50426 0.0
C876 C 0.25611 0.8242 0.59695 0.0
C877 C 0.2771 0.8464 0.60083 0.0
C878 C 0.23218 0.83302 0.58188 0.0
C879 C 0.22878 0.86413 0.5696 0.0
C880 C 0.24999 0.88626 0.57357 0.0
C881 C 0.27357 0.87768 0.58951 0.0
C882 C 0.17381 0.91502 0.53243 0.0
C883 C 0.15912 0.89256 0.5144 0.0
C884 C 0.19545 0.90556 0.55128 0.0
C885 C 0.20367 0.87338 0.55215 0.0
C886 C 0.18804 0.8506 0.5354 0.0
C887 C 0.16576 0.86004 0.51719 0.0
H888 H 0.38076 0.04723 0.82265 0.0
H889 H 0.3544 0.96672 0.87951 0.0
H890 H 0.38876 0.01105 0.77702 0.0
H891 H 0.36196 0.93114 0.83383 0.0
H892 H 0.41521 0.8764 0.76282 0.0
H893 H 0.41142 0.9196 0.80213 0.0
H894 H 0.35287 0.96656 0.74257 0.0
H895 H 0.35642 0.92324 0.70308 0.0
C896 C 0.37578 0.02211 0.82507 0.0
C897 C 0.36661 0.00991 0.85459 0.0
C898 C 0.38045 0.00152 0.79902 0.0
C899 C 0.37578 0.96855 0.80197 0.0
C900 C 0.36582 0.95652 0.83107 0.0
C901 C 0.3613 0.97694 0.85708 0.0
C902 C 0.40226 0.8965 0.75747 0.0
C903 C 0.38619 0.8964 0.72972 0.0
C904 C 0.39997 0.92106 0.78009 0.0
C905 C 0.38176 0.94618 0.77533 0.0
C906 C 0.36728 0.94758 0.74651 0.0
C907 C 0.3695 0.92289 0.72382 0.0
H908 H 0.30157 0.14561 0.97864 0.0
H909 H 0.30138 0.0537 0.02573 0.0
H910 H 0.25905 0.15855 0.00409 0.0
H911 H 0.26092 0.0676 0.05383 0.0
H912 H 0.17493 0.08222 0.07917 0.0
H913 H 0.21699 0.07099 0.05255 0.0
H914 H 0.232 0.17282 0.04382 0.0
H915 H 0.18855 0.18352 0.06751 0.0
C916 C 0.2926 0.1283 -0.0053 0.0
C917 C 0.30449 0.09817 -0.00092 0.0
C918 C 0.26822 0.13585 0.00987 0.0
C919 C 0.25557 0.11392 0.03083 0.0
C920 C 0.26876 0.08474 0.03682 0.0
C921 C 0.29251 0.07686 0.02092 0.0
C922 C 0.18698 0.10215 0.07089 0.0
C923 C 0.17798 0.13371 0.0748 0.0
C924 C 0.21171 0.09581 0.05623 0.0
C925 C 0.22876 0.1209 0.04605 0.0
C926 C 0.21966 0.15257 0.05038 0.0
C927 C 0.19455 0.15882 0.06417 0.0
H928 H 0.93264 0.18863 0.19872 0.0
H929 H 0.91513 0.22311 0.10347 0.0
H930 H 0.96692 0.15386 0.17733 0.0
H931 H 0.95131 0.19042 0.08197 0.0
H932 H 0.01451 0.12038 0.04805 0.0
H933 H 0.97353 0.1457 0.06714 0.0
H934 H 0.00941 0.15626 0.16124 0.0
H935 H 0.04909 0.12898 0.14262 0.0
C936 C 0.93633 0.18897 0.1731 0.0
C937 C 0.92172 0.20938 0.15291 0.0
C938 C 0.95636 0.16923 0.16075 0.0
C939 C 0.96308 0.17007 0.12794 0.0
C940 C 0.94707 0.1889 0.10738 0.0
C941 C 0.92635 0.20797 0.11971 0.0
C942 C 0.01355 0.12831 0.07279 0.0
C943 C 0.03524 0.12311 0.09369 0.0
C944 C -0.01003 0.1429 0.08383 0.0
C945 C -0.01238 0.15304 0.116 0.0
C946 C 0.00962 0.14795 0.13665 0.0
C947 C 0.0329 0.13294 0.12574 0.0
H948 H 0.53008 0.35494 0.86494 0.0
H949 H 0.52513 0.29442 0.94844 0.0
H950 H 0.48475 0.34106 0.85057 0.0
H951 H 0.48013 0.27808 0.93294 0.0
H952 H 0.39769 0.25043 0.90245 0.0
H953 H 0.43589 0.27995 0.92421 0.0
H954 H 0.45919 0.30604 0.82748 0.0
H955 H 0.42111 0.27832 0.80676 0.0
C956 C 0.51946 0.33779 0.87978 0.0
C957 C 0.53153 0.32502 0.90731 0.0
C958 C 0.4932 0.32961 0.87146 0.0
C959 C 0.47835 0.30732 0.88973 0.0
C960 C 0.4904 0.29518 0.91788 0.0
C961 C 0.51655 0.30412 0.92667 0.0
C962 C 0.41095 0.26292 0.88606 0.0
C963 C 0.40671 0.2612 0.85279 0.0
C964 C 0.43308 0.27979 0.89849 0.0
C965 C 0.45177 0.29482 0.87785 0.0
C966 C 0.44588 0.29511 0.84477 0.0
C967 C 0.42385 0.27862 0.83253 0.0
H968 H 0.93149 0.63185 0.33612 0.0
H969 H 0.92702 0.67195 0.43143 0.0
H970 H 0.97491 0.65593 0.32846 0.0
H971 H 0.96989 0.69888 0.42296 0.0
H972 H 0.05517 0.7336 0.40691 0.0
H973 H 0.0152 0.70139 0.41828 0.0
H974 H -0.00299 0.69957 0.31665 0.0
H975 H 0.03659 0.73012 0.30586 0.0
C976 C 0.93948 0.64673 0.35518 0.0
C977 C 0.92547 0.65042 0.38417 0.0
C978 C 0.96462 0.66083 0.35078 0.0
C979 C 0.97631 0.68019 0.37478 0.0
C980 C 0.96214 0.68388 0.40392 0.0
C981 C 0.93716 0.66897 0.40862 0.0
C982 C 0.04247 0.72614 0.38719 0.0
C983 C 0.04896 0.73471 0.35554 0.0
C984 C 0.01944 0.70764 0.39361 0.0
C985 C 0.00227 0.69759 0.36853 0.0
C986 C 0.00954 0.70571 0.3369 0.0
C987 C 0.03233 0.72394 0.33059 0.0
H988 H 0.92878 0.29465 0.04018 0.0
H989 H 0.91084 0.30817 0.14058 0.0
H990 H 0.96986 0.26662 0.05421 0.0
H991 H 0.9506 0.27856 0.15487 0.0
H992 H 0.03347 0.2528 0.17829 0.0
H993 H -0.00538 0.28105 0.16001 0.0
H994 H -0.00517 0.22518 0.07241 0.0
H995 H 0.03589 0.1986 0.09005 0.0
C996 C 0.93321 0.2908 0.06532 0.0
C997 C 0.91641 0.30364 0.08927 0.0
C998 C 0.95695 0.27471 0.07346 0.0
C999 C 0.96439 0.27064 0.10583 0.0
C1000 C 0.94666 0.28219 0.12963 0.0
C1001 C 0.92325 0.29865 0.12148 0.0
C1002 C 0.02537 0.24639 0.15503 0.0
C1003 C 0.03753 0.2226 0.13607 0.0
C1004 C 0.00256 0.26248 0.1446 0.0
C1005 C -0.00962 0.25485 0.11512 0.0
C1006 C 0.00325 0.23197 0.09534 0.0
C1007 C 0.02677 0.21636 0.10553 0.0
H1008 H 0.56108 0.72159 0.60295 0.0
H1009 H 0.51284 0.6879 0.68196 0.0
H1010 H 0.52551 0.75873 0.5879 0.0
H1011 H 0.47686 0.7237 0.66647 0.0
H1012 H 0.42986 0.81465 0.65812 0.0
H1013 H 0.466 0.7772 0.66949 0.0
H1014 H 0.48408 0.77168 0.56814 0.0
H1015 H 0.44738 0.80774 0.5569 0.0
C1016 C 0.54242 0.72127 0.61632 0.0
C1017 C 0.53974 0.70195 0.64366 0.0
C1018 C 0.522 0.74279 0.6079 0.0
C1019 C 0.49832 0.74504 0.62641 0.0
C1020 C 0.49501 0.72367 0.65219 0.0
C1021 C 0.51548 0.70261 0.66079 0.0
C1022 C 0.44127 0.80486 0.63826 0.0
C1023 C 0.43491 0.813 0.60652 0.0
C1024 C 0.462 0.78322 0.64471 0.0
C1025 C 0.47735 0.76977 0.6196 0.0
C1026 C 0.47222 0.7801 0.58809 0.0
C1027 C 0.45106 0.801 0.58159 0.0
H1028 H 0.90563 0.73557 0.39358 0.0
H1029 H 0.94286 0.73335 0.30006 0.0
H1030 H 0.9441 0.76548 0.41454 0.0
H1031 H 0.98076 0.76236 0.3203 0.0
H1032 H 0.04053 0.83237 0.35489 0.0
H1033 H 1e-05 0.80697 0.33639 0.0
H1034 H -0.012 0.76554 0.43054 0.0
H1035 H 0.0278 0.79379 0.4497 0.0
C1036 C 0.9222 0.74109 0.37766 0.0
C1037 C 0.92136 0.73176 0.34529 0.0
C1038 C 0.9443 0.75832 0.38959 0.0
C1039 C 0.96604 0.76644 0.36938 0.0
C1040 C 0.96462 0.75731 0.3369 0.0
C1041 C 0.94283 0.74012 0.32517 0.0
C1042 C 0.02947 0.81748 0.37159 0.0
C1043 C 0.03765 0.81472 0.40366 0.0
C1044 C 0.00602 0.80268 0.36093 0.0
C1045 C -0.0096 0.78362 0.3817 0.0
C1046 C -0.00107 0.78044 0.41381 0.0
C1047 C 0.02214 0.79607 0.42472 0.0
H1048 H 0.43774 0.19422 0.93486 0.0
H1049 H 0.41737 0.16735 0.8378 0.0
H1050 H 0.47586 0.22435 0.91526 0.0
H1051 H 0.45587 0.1969 0.81797 0.0
H1052 H 0.5103 0.27752 0.78757 0.0
H1053 H 0.47368 0.24503 0.80704 0.0
H1054 H 0.51787 0.22674 0.89452 0.0
H1055 H 0.55439 0.26035 0.8749 0.0
C1056 C 0.4412 0.19514 0.90922 0.0
C1057 C 0.42412 0.17891 0.88787 0.0
C1058 C 0.46347 0.21209 0.89789 0.0
C1059 C 0.46919 0.21365 0.86483 0.0
C1060 C 0.45198 0.19728 0.84351 0.0
C1061 C 0.42973 0.18023 0.85487 0.0
C1062 C 0.51206 0.26684 0.81115 0.0
C1063 C 0.53506 0.27194 0.82992 0.0
C1064 C 0.49113 0.24763 0.82223 0.0
C1065 C 0.49238 0.23304 0.85261 0.0
C1066 C 0.51561 0.23808 0.87136 0.0
C1067 C 0.53661 0.25749 0.86022 0.0
H1068 H 0.82771 0.0518 0.71715 0.0
H1069 H 0.91009 0.06632 0.74573 0.0
H1070 H 0.82251 0.01085 0.75806 0.0
H1071 H 0.90521 0.02385 0.78611 0.0
H1072 H 0.89031 0.92363 0.83193 0.0
H1073 H 0.89704 0.96487 0.79113 0.0
H1074 H 0.82122 0.0076 0.81724 0.0
H1075 H 0.81475 0.96655 0.85844 0.0
C1076 C 0.84494 0.04573 0.73176 0.0
C1077 C 0.86942 0.06208 0.72803 0.0
C1078 C 0.84181 0.02256 0.75555 0.0
C1079 C 0.86338 0.01415 0.77545 0.0
C1080 C 0.88825 0.02963 0.77097 0.0
C1081 C 0.89111 0.0538 0.74782 0.0
C1082 C 0.87496 0.94168 0.8287 0.0
C1083 C 0.85176 0.94158 0.84795 0.0
C1084 C 0.87897 0.9655 0.80561 0.0
C1085 C 0.85963 -0.01058 0.8008 0.0
C1086 C 0.83636 -0.01075 0.82004 0.0
C1087 C 0.83262 0.96579 0.84362 0.0
H1088 H 0.66386 0.1908 0.51682 0.0
H1089 H 0.68183 0.09199 0.4969 0.0
H1090 H 0.70662 0.19676 0.54438 0.0
H1091 H 0.72466 0.09732 0.5249 0.0
H1092 H 0.78958 0.20905 0.57798 0.0
H1093 H 0.75245 0.20051 0.54111 0.0
H1094 H 0.74594 0.10248 0.57359 0.0
H1095 H 0.78444 0.1108 0.60882 0.0
C1096 C 0.67745 0.1706 0.51767 0.0
C1097 C 0.67006 0.14126 0.50398 0.0
C1098 C 0.70204 0.17389 0.53346 0.0
C1099 C 0.71966 0.14767 0.53657 0.0
C1100 C 0.71185 0.11813 0.52311 0.0
C1101 C 0.6875 0.11511 0.50658 0.0
C1102 C 0.78056 0.18547 0.57657 0.0
C1103 C 0.78971 0.16065 0.59636 0.0
C1104 C 0.75895 0.18064 0.5558 0.0
C1105 C 0.74536 0.15108 0.55494 0.0
C1106 C 0.75573 0.1256 0.57335 0.0
C1107 C 0.77786 0.13029 0.59362 0.0
H1108 H 0.54701 0.93666 0.23999 0.0
H1109 H 0.63167 0.94365 0.21916 0.0
H1110 H 0.55123 0.98129 0.27819 0.0
H1111 H 0.6361 0.98685 0.25782 0.0
H1112 H 0.63944 0.03381 0.35738 0.0
H1113 H 0.63451 -0.00632 0.31523 0.0
H1114 H 0.5615 0.03931 0.28349 0.0
H1115 H 0.56651 0.07959 0.32571 0.0
C1116 C 0.56636 0.94807 0.24319 0.0
C1117 C 0.58889 0.93698 0.22623 0.0
C1118 C 0.56884 0.97355 0.26506 0.0
C1119 C 0.59406 0.98768 0.27113 0.0
C1120 C 0.61642 0.97652 0.25393 0.0
C1121 C 0.6138 0.95192 0.23146 0.0
C1122 C 0.62258 0.03561 0.34109 0.0
C1123 C 0.60344 0.05996 0.34489 0.0
C1124 C 0.6197 0.01257 0.3169 0.0
C1125 C 0.59746 0.01308 0.29606 0.0
C1126 C 0.5786 0.03787 0.29944 0.0
C1127 C 0.58171 0.06122 0.32336 0.0
H1128 H 0.76794 0.89813 -0.0008 0.0
H1129 H 0.77412 0.7962 0.98595 0.0
H1130 H 0.72733 0.89082 0.03093 0.0
H1131 H 0.73238 0.78851 0.01547 0.0
H1132 H 0.68946 0.78082 0.11075 0.0
H1133 H 0.72161 0.78831 0.06826 0.0
H1134 H 0.68375 0.878 0.04314 0.0
H1135 H 0.6529 0.87144 0.08818 0.0
C1136 C 0.75975 0.87425 0.00185 0.0
C1137 C 0.77393 0.84772 -0.00983 0.0
C1138 C 0.73643 0.86992 0.02013 0.0
C1139 C 0.72671 0.83891 0.02677 0.0
C1140 C 0.73972 0.81267 0.01219 0.0
C1141 C 0.76336 0.81701 -0.00534 0.0
C1142 C 0.68783 0.80213 0.09617 0.0
C1143 C 0.66828 0.82546 0.10278 0.0
C1144 C 0.70617 0.80628 0.07121 0.0
C1145 C 0.70535 0.83364 0.05154 0.0
C1146 C 0.68535 0.8567 0.05772 0.0
C1147 C 0.66728 0.85277 0.08326 0.0
H1148 H 0.90068 0.06811 0.63544 0.0
H1149 H 0.82438 0.02695 0.60893 0.0
H1150 H 0.9075 0.02528 0.67452 0.0
H1151 H 0.83111 0.98408 0.64795 0.0
H1152 H 0.83772 0.9332 0.74411 0.0
H1153 H 0.83236 0.97592 0.70517 0.0
H1154 H 0.91587 0.96732 0.67877 0.0
H1155 H 0.92085 0.92297 0.71695 0.0
C1156 C 0.88527 0.04999 0.63814 0.0
C1157 C 0.86178 0.05117 0.61946 0.0
C1158 C 0.88933 0.02522 0.66027 0.0
C1159 C 0.86984 0.00121 0.66455 0.0
C1160 C 0.84637 0.00242 0.64572 0.0
C1161 C 0.8425 0.02694 0.62328 0.0
C1162 C 0.85509 0.94066 0.73035 0.0
C1163 C 0.87983 0.92495 0.73392 0.0
C1164 C 0.85193 0.96498 0.7077 0.0
C1165 C 0.87366 0.97528 0.68884 0.0
C1166 C 0.89875 0.9603 0.69317 0.0
C1167 C 0.90167 0.93499 0.71509 0.0
H1168 H 0.77615 0.19523 0.47432 0.0
H1169 H 0.77555 0.0925 0.48251 0.0
H1170 H 0.73367 0.19348 0.44565 0.0
H1171 H 0.73291 0.09025 0.45344 0.0
H1172 H 0.65134 0.18841 0.40864 0.0
H1173 H 0.68786 0.18467 0.44685 0.0
H1174 H 0.71374 0.09637 0.40239 0.0
H1175 H 0.67644 0.09982 0.36457 0.0
C1176 C 0.76637 0.17231 0.47079 0.0
C1177 C 0.77868 0.14411 0.48136 0.0
C1178 C 0.74199 0.17117 0.45424 0.0
C1179 C 0.72951 0.14167 0.44716 0.0
C1180 C 0.74191 0.1134 0.45803 0.0
C1181 C 0.76605 0.11466 0.47532 0.0
C1182 C 0.66447 0.16779 0.40745 0.0
C1183 C 0.66115 0.14462 0.38327 0.0
C1184 C 0.68572 0.16583 0.42918 0.0
C1185 C 0.70443 0.14071 0.42733 0.0
C1186 C 0.69983 0.11611 0.40474 0.0
C1187 C 0.67834 0.11798 0.38302 0.0
H1188 H 0.64929 0.95284 0.08105 0.0
H1189 H 0.57423 0.91568 0.11707 0.0
H1190 H 0.64861 -0.00544 0.1223 0.0
H1191 H 0.57321 0.95756 0.15783 0.0
H1192 H 0.56695 0.05513 0.20685 0.0
H1193 H 0.5677 0.01414 0.16492 0.0
H1194 H 0.65292 0.00168 0.17961 0.0
H1195 H 0.65205 0.0428 0.22126 0.0
C1196 C 0.63275 0.95351 0.09794 0.0
C1197 C 0.61198 0.93084 0.09612 0.0
C1198 C 0.63236 0.97733 0.12161 0.0
C1199 C 0.61091 0.97934 0.14355 0.0
C1200 C 0.58997 0.95686 0.14129 0.0
C1201 C 0.59069 0.93263 0.11814 0.0
C1202 C 0.58577 0.04348 0.20111 0.0
C1203 C 0.60937 0.05185 0.21745 0.0
C1204 C 0.58622 0.01994 0.1772 0.0
C1205 C 0.6104 0.00461 0.1688 0.0
C1206 C 0.63404 0.01331 0.18506 0.0
C1207 C 0.6335 0.03657 0.20922 0.0
H1208 H 0.68277 0.77802 0.96023 0.0
H1209 H 0.68841 0.88042 0.9514 0.0
H1210 H 0.72562 0.77209 0.93286 0.0
H1211 H 0.72992 0.875 0.9211 0.0
H1212 H 0.80961 0.85893 0.87146 0.0
H1213 H 0.77323 0.86533 0.91016 0.0
H1214 H 0.74271 0.77192 0.88376 0.0
H1215 H 0.7791 0.76533 0.8467 0.0
C1216 C 0.69346 0.79928 0.95258 0.0
C1217 C 0.68252 0.82962 0.95808 0.0
C1218 C 0.71781 0.79601 0.93613 0.0
C1219 C 0.73126 0.82296 0.92334 0.0
C1220 C 0.72068 0.8535 0.9304 0.0
C1221 C 0.69676 0.85674 0.94787 0.0
C1222 C 0.79538 0.8396 0.8745 0.0
C1223 C 0.79754 0.81159 0.85595 0.0
C1224 C 0.77429 0.84325 0.89669 0.0
C1225 C 0.75487 0.81893 0.90108 0.0
C1226 C 0.75742 0.79091 0.88251 0.0
C1227 C 0.7784 0.78724 0.86064 0.0
H1228 H 0.9134 0.8103 0.88125 0.0
H1229 H 0.90948 0.75517 0.9687 0.0
H1230 H 0.9573 0.78757 0.86959 0.0
H1231 H 0.95331 0.73181 0.95663 0.0
H1232 H 0.03137 0.68696 0.91388 0.0
H1233 H -0.01651 0.69963 0.92093 0.0
H1234 H -0.00017 0.79817 0.89641 0.0
H1235 H 0.04682 0.78557 0.88898 0.0
C1236 C 0.92139 0.79234 0.89734 0.0
C1237 C 0.90804 0.78465 0.92599 0.0
C1238 C 0.94679 0.77973 0.89097 0.0
C1239 C 0.95902 0.75839 0.91256 0.0
C1240 C 0.94444 0.74814 0.93952 0.0
C1241 C 0.91928 0.7614 0.94633 0.0
C1242 C 0.02456 0.71123 0.90997 0.0
C1243 C 0.04279 0.73517 0.90066 0.0
C1244 C -0.00275 0.71853 0.91412 0.0
C1245 C -0.01222 0.74978 0.90858 0.0
C1246 C 0.00626 0.77368 0.90001 0.0
C1247 C 0.03334 0.76652 0.89623 0.0
H1248 H 0.42101 0.66268 0.13424 0.0
H1249 H 0.46273 0.65719 0.04342 0.0
H1250 H 0.45594 0.69841 0.15477 0.0
H1251 H 0.49701 0.69265 0.06348 0.0
H1252 H 0.56865 0.73042 0.11577 0.0
H1253 H 0.53308 0.69574 0.09707 0.0
H1254 H 0.47552 0.75012 0.15258 0.0
H1255 H 0.51185 0.78504 0.17152 0.0
C1256 C 0.43746 0.6693 0.11856 0.0
C1257 C 0.43897 0.65711 0.08712 0.0
C1258 C 0.4575 0.68981 0.13033 0.0
C1259 C 0.4795 0.69849 0.11091 0.0
C1260 C 0.48079 0.68619 0.07951 0.0
C1261 C 0.46085 0.66595 0.06778 0.0
C1262 C 0.54829 0.73534 0.12351 0.0
C1263 C 0.54292 0.76058 0.14483 0.0
C1264 C 0.52778 0.71546 0.1127 0.0
C1265 C 0.50117 0.72016 0.1229 0.0
C1266 C 0.49573 0.74572 0.14412 0.0
C1267 C 0.5164 0.76605 0.15465 0.0
H1268 H -0.00472 0.34463 0.55066 0.0
H1269 H 0.03533 0.33698 0.64228 0.0
H1270 H 0.96017 0.30978 0.5692 0.0
H1271 H -0.00063 0.30164 0.66136 0.0
H1272 H 0.94312 0.21302 0.67153 0.0
H1273 H 0.97961 0.24964 0.65664 0.0
H1274 H 0.92337 0.30611 0.60165 0.0
H1275 H 0.88774 0.26964 0.616 0.0
C1276 C -0.00344 0.33561 0.57496 0.0
C1277 C 0.01824 0.34373 0.59494 0.0
C1278 C 0.97606 0.31577 0.58584 0.0
C1279 C 0.97657 0.30294 0.61702 0.0
C1280 C -0.00165 0.31083 0.63713 0.0
C1281 C 0.01898 0.33107 0.6262 0.0
C1282 C 0.93891 0.2329 0.65567 0.0
C1283 C 0.91272 0.23829 0.64461 0.0
C1284 C 0.95966 0.25422 0.64751 0.0
C1285 C 0.95466 0.28082 0.62754 0.0
C1286 C 0.92837 0.28566 0.61638 0.0
C1287 C 0.90781 0.2647 0.62469 0.0
H1288 H -0.00789 0.61298 0.88719 0.0
H1289 H 0.05614 0.66381 0.84005 0.0
H1290 H 0.95977 0.6496 0.86506 0.0
H1291 H 0.02419 0.70353 0.82071 0.0
H1292 H 0.95572 0.76096 0.77347 0.0
H1293 H -0.00942 0.72343 0.79036 0.0
H1294 H 0.94146 0.69689 0.87201 0.0
H1295 H 0.90629 0.73171 0.85302 0.0
C1296 C -0.00067 0.63248 0.87239 0.0
C1297 C 0.02683 0.63598 0.86608 0.0
C1298 C 0.98073 0.65406 0.85999 0.0
C1299 C -0.01095 0.68091 0.84203 0.0
C1300 C 0.0166 0.68348 0.83439 0.0
C1301 C 0.03515 0.66084 0.84574 0.0
C1302 C 0.95284 0.74734 0.79531 0.0
C1303 C 0.92855 0.74944 0.81223 0.0
C1304 C 0.97279 0.72564 0.80507 0.0
C1305 C 0.96896 0.70598 0.83229 0.0
C1306 C 0.94506 0.70994 0.85004 0.0
C1307 C 0.92496 0.73065 0.83967 0.0
H1308 H 0.40743 0.29422 0.43629 0.0
H1309 H 0.40286 0.21478 0.37052 0.0
H1310 H 0.45305 0.27792 0.4516 0.0
H1311 H 0.44795 0.1983 0.38581 0.0
H1312 H 0.51527 0.20021 0.49415 0.0
H1313 H 0.47392 0.22766 0.47948 0.0
H1314 H 0.49629 0.22241 0.37969 0.0
H1315 H 0.5375 0.19411 0.394 0.0
C1316 C 0.41626 0.27357 0.42495 0.0
C1317 C 0.40189 0.25632 0.40171 0.0
C1318 C 0.44227 0.26412 0.43375 0.0
C1319 C 0.45433 0.23735 0.41918 0.0
C1320 C 0.43954 0.21962 0.39666 0.0
C1321 C 0.41356 0.22878 0.38831 0.0
C1322 C 0.51169 0.20536 0.46905 0.0
C1323 C 0.52956 0.19439 0.4452 0.0
C1324 C 0.488 0.22123 0.46073 0.0
C1325 C 0.48162 0.22642 0.42839 0.0
C1326 C 0.50043 0.21782 0.40471 0.0
C1327 C 0.52417 0.20196 0.41299 0.0
H1328 H 0.93001 0.17894 0.58503 0.0
H1329 H 0.91549 0.24445 0.50718 0.0
H1330 H 0.9743 0.20186 0.59277 0.0
H1331 H 0.95906 0.26937 0.51628 0.0
H1332 H 0.05041 0.27907 0.51097 0.0
H1333 H 0.0039 0.26077 0.5065 0.0
H1334 H 0.00353 0.23994 0.60814 0.0
H1335 H 0.04905 0.25966 0.61239 0.0
C1336 C 0.93585 0.19928 0.57051 0.0
C1337 C 0.91926 0.20989 0.54552 0.0
C1338 C 0.96148 0.21246 0.57477 0.0
C1339 C 0.97092 0.23722 0.55467 0.0
C1340 C 0.95318 0.2496 0.53149 0.0
C1341 C 0.92785 0.23583 0.52671 0.0
C1342 C 0.0398 0.27168 0.53242 0.0
C1343 C 0.05282 0.27191 0.56222 0.0
C1344 C 0.01314 0.26101 0.52998 0.0
C1345 C -0.00075 0.24936 0.55716 0.0
C1346 C 0.01294 0.249 0.5867 0.0
C1347 C 0.03908 0.26075 0.58931 0.0
H1348 H 0.41423 0.75657 0.12173 0.0
H1349 H 0.4025 0.71233 0.02952 0.0
H1350 H 0.45774 0.77546 0.10547 0.0
H1351 H 0.44628 0.73177 0.01197 0.0
H1352 H 0.53358 0.74917 -0.00798 0.0
H1353 H 0.49017 0.72954 0.00976 0.0
H1354 H 0.48918 0.80269 0.0838 0.0
H1355 H 0.53346 0.81921 0.06797 0.0
C1356 C 0.42132 0.75081 0.0978 0.0
C1357 C 0.40549 0.73237 0.07716 0.0
C1358 C 0.44647 0.76188 0.08812 0.0
C1359 C 0.45686 0.75462 0.05742 0.0
C1360 C 0.44013 0.73701 0.03627 0.0
C1361 C 0.4148 0.72588 0.04613 0.0
C1362 C 0.52424 0.76017 0.01277 0.0
C1363 C 0.5371 0.78537 0.02888 0.0
C1364 C 0.49883 0.74951 0.0226 0.0
C1365 C 0.48498 0.76466 0.04805 0.0
C1366 C 0.49855 0.78947 0.06456 0.0
C1367 C 0.52434 0.79918 0.0555 0.0
H1368 H 0.56606 0.40787 0.72533 0.0
H1369 H 0.64719 0.42228 0.75832 0.0
H1370 H 0.56867 0.45752 0.69442 0.0
H1371 H 0.65041 0.47127 0.72604 0.0
H1372 H 0.64843 0.52713 0.62518 0.0
H1373 H 0.64943 0.48415 0.66527 0.0
H1374 H 0.57396 0.51724 0.70381 0.0
H1375 H 0.57309 0.56013 0.66451 0.0
C1376 C 0.58429 0.42202 0.72626 0.0
C1377 C 0.60626 0.41175 0.74444 0.0
C1378 C 0.58584 0.45036 0.70863 0.0
C1379 C 0.60969 0.46841 0.70807 0.0
C1380 C 0.63172 0.45801 0.72629 0.0
C1381 C 0.62986 0.43016 0.7448 0.0
C1382 C 0.63243 0.52564 0.64274 0.0
C1383 C 0.61064 0.54691 0.64154 0.0
C1384 C 0.633 0.5011 0.66567 0.0
C1385 C 0.61155 0.49714 0.68731 0.0
C1386 C 0.59054 0.51943 0.6871 0.0
C1387 C 0.59018 0.54415 0.66468 0.0
H1388 H 0.7866 0.34271 0.01355 0.0
H1389 H 0.78532 0.43668 0.97096 0.0
H1390 H 0.74782 0.32749 0.98083 0.0
H1391 H 0.748 0.42142 0.93779 0.0
H1392 H 0.6675 0.39974 0.89914 0.0
H1393 H 0.70404 0.41286 0.93454 0.0
H1394 H 0.72875 0.31351 0.93391 0.0
H1395 H 0.68981 0.3002 0.90131 0.0
C1396 C 0.77787 0.36009 -0.00251 0.0
C1397 C 0.78882 0.39094 -0.00461 0.0
C1398 C 0.75577 0.35137 0.9785 0.0
C1399 C 0.74401 0.37327 0.95704 0.0
C1400 C 0.75543 0.40401 0.95476 0.0
C1401 C 0.77723 0.41276 0.97379 0.0
C1402 C 0.68016 0.38057 0.90736 0.0
C1403 C 0.67517 0.34888 0.89804 0.0
C1404 C 0.70182 0.38818 0.92712 0.0
C1405 C 0.72005 0.36446 0.93709 0.0
C1406 C 0.71514 0.33258 0.92748 0.0
C1407 C 0.69274 0.32485 0.90862 0.0
H1408 H 0.89242 0.61094 0.22518 0.0
H1409 H 0.82426 0.57262 0.27629 0.0
H1410 H 0.89261 0.56421 0.18999 0.0
H1411 H 0.82382 0.52605 0.24025 0.0
H1412 H 0.81356 0.47863 0.1369 0.0
H1413 H 0.81416 0.51755 0.18112 0.0
H1414 H 0.89991 0.50529 0.18997 0.0
H1415 H 0.89908 0.46636 0.14598 0.0
C1416 C 0.87776 0.59217 0.22916 0.0
C1417 C 0.85848 0.59518 0.25353 0.0
C1418 C 0.87785 0.56542 0.20905 0.0
C1419 C 0.85821 0.54145 0.21232 0.0
C1420 C 0.83911 0.54424 0.23706 0.0
C1421 C 0.83953 0.57064 0.25787 0.0
C1422 C 0.83232 0.48373 0.149 0.0
C1423 C 0.85622 0.46945 0.13852 0.0
C1424 C 0.83272 0.50596 0.17422 0.0
C1425 C 0.85713 0.51466 0.18884 0.0
C1426 C 0.88087 0.49937 0.17891 0.0
C1427 C 0.88039 0.47692 0.15403 0.0
H1428 H 0.76467 0.61274 0.37979 0.0
H1429 H 0.78481 0.69589 0.43646 0.0
H1430 H 0.72182 0.60887 0.40671 0.0
H1431 H 0.74241 0.69071 0.46555 0.0
H1432 H 0.6565 0.68645 0.5017 0.0
H1433 H 0.69564 0.69543 0.46693 0.0
H1434 H 0.70195 0.59319 0.4521 0.0
H1435 H 0.66432 0.58465 0.48726 0.0
C1436 C 0.76021 0.62977 0.39868 0.0
C1437 C 0.77842 0.65429 0.40634 0.0
C1438 C 0.73546 0.62758 0.41426 0.0
C1439 C 0.72835 0.64932 0.43872 0.0
C1440 C 0.74672 0.67386 0.44648 0.0
C1441 C 0.77133 0.67648 0.43027 0.0
C1442 C 0.66651 0.66608 0.49095 0.0
C1443 C 0.65791 0.63483 0.49789 0.0
C1444 C 0.689 0.67112 0.47114 0.0
C1445 C 0.70279 0.645 0.45725 0.0
C1446 C 0.69256 0.61405 0.46254 0.0
C1447 C 0.6709 0.60902 0.48302 0.0
H1448 H 0.66016 0.48598 0.87562 0.0
H1449 H 0.59356 0.43097 0.83856 0.0
H1450 H 0.65794 0.52117 0.82875 0.0
H1451 H 0.59069 0.46708 0.79239 0.0
H1452 H 0.5742 0.57725 0.75944 0.0
H1453 H 0.57894 0.53109 0.79532 0.0
H1454 H 0.6606 0.51843 0.76319 0.0
H1455 H 0.65525 0.56338 0.72582 0.0
C1456 C 0.64538 0.4811 0.85718 0.0
C1457 C 0.62701 0.45581 0.86075 0.0
C1458 C 0.64415 0.50116 0.83038 0.0
C1459 C 0.62409 0.49681 0.80712 0.0
C1460 C 0.60634 0.47085 0.81004 0.0
C1461 C 0.60808 0.45017 0.83635 0.0
C1462 C 0.59284 0.56393 0.75944 0.0
C1463 C 0.61429 0.57351 0.73986 0.0
C1464 C 0.59556 0.5376 0.77985 0.0
C1465 C 0.62013 0.52126 0.78189 0.0
C1466 C 0.64144 0.53056 0.76186 0.0
C1467 C 0.63836 0.5561 0.74051 0.0
H1468 H 0.80669 0.27984 0.04679 0.0
H1469 H 0.7565 0.28112 0.13121 0.0
H1470 H 0.76693 0.28858 0.01313 0.0
H1471 H 0.71737 0.29298 0.09788 0.0
H1472 H 0.69214 0.38362 0.03047 0.0
H1473 H 0.72515 0.3532 0.05996 0.0
H1474 H 0.70586 0.26884 0.00491 0.0
H1475 H 0.67138 0.29941 0.97528 0.0
C1476 C 0.78712 0.28162 0.05802 0.0
C1477 C 0.78462 0.28018 0.09153 0.0
C1478 C 0.76439 0.28661 0.03882 0.0
C1479 C 0.7392 0.29205 0.053 0.0
C1480 C 0.73653 0.28864 0.08635 0.0
C1481 C 0.75895 0.28214 0.10538 0.0
C1482 C 0.69458 0.35856 0.02446 0.0
C1483 C 0.67902 0.34406 0.00025 0.0
C1484 C 0.71346 0.34112 0.04164 0.0
C1485 C 0.71784 0.30873 0.03488 0.0
C1486 C 0.70263 0.29383 0.01063 0.0
C1487 C 0.68303 0.31131 -0.0063 0.0
H1488 H 0.89094 0.52889 0.30309 0.0
H1489 H 0.81686 0.47773 0.31883 0.0
H1490 H 0.90039 0.49507 0.2562 0.0
H1491 H 0.82575 0.44467 0.27165 0.0
H1492 H 0.84085 0.39466 0.18072 0.0
H1493 H 0.83264 0.4433 0.21169 0.0
H1494 H 0.91141 0.43566 0.25396 0.0
H1495 H 0.91918 0.38627 0.22395 0.0
C1496 C 0.87628 0.51114 0.29583 0.0
C1497 C 0.85309 0.50594 0.31435 0.0
C1498 C 0.88178 0.49164 0.26923 0.0
C1499 C 0.86382 0.46723 0.26023 0.0
C1500 C 0.83981 0.46355 0.27765 0.0
C1501 C 0.83469 0.48242 0.30467 0.0
C1502 C 0.8569 0.40414 0.1955 0.0
C1503 C 0.88064 0.38662 0.20004 0.0
C1504 C 0.85203 0.43178 0.21356 0.0
C1505 C 0.87121 0.44303 0.23559 0.0
C1506 C 0.89626 0.42767 0.23712 0.0
C1507 C 0.90081 0.39947 0.21979 0.0
H1508 H 0.80274 0.63017 0.4776 0.0
H1509 H 0.75699 0.54466 0.45756 0.0
H1510 H 0.76963 0.64565 0.51827 0.0
H1511 H 0.72437 0.55966 0.49771 0.0
H1512 H 0.68065 0.57651 0.58911 0.0
H1513 H 0.71658 0.56341 0.552 0.0
H1514 H 0.72554 0.66363 0.52856 0.0
H1515 H 0.6899 0.67674 0.5666 0.0
C1516 C 0.78537 0.61502 0.48142 0.0
C1517 C 0.78241 0.58632 0.46415 0.0
C1518 C 0.76648 0.62371 0.50495 0.0
C1519 C 0.74434 0.60375 0.51179 0.0
C1520 C 0.74141 0.57534 0.494 0.0
C1521 C 0.75995 0.56694 0.47042 0.0
C1522 C 0.69021 0.59576 0.57596 0.0
C1523 C 0.68206 0.62761 0.58043 0.0
C1524 C 0.71083 0.58826 0.55449 0.0
C1525 C 0.72388 0.61236 0.5367 0.0
C1526 C 0.71619 0.64438 0.54188 0.0
C1527 C 0.69546 0.65189 0.5634 0.0
H1528 H 0.48951 0.60649 0.57604 0.0
H1529 H 0.52274 0.69375 0.53696 0.0
H1530 H 0.44884 0.6347 0.59074 0.0
H1531 H 0.48099 0.72163 0.5505 0.0
H1532 H 0.39747 0.76152 0.58155 0.0
H1533 H 0.42863 0.72836 0.54984 0.0
H1534 H 0.44826 0.6747 0.63506 0.0
H1535 H 0.41836 0.70759 0.66635 0.0
C1536 C 0.48799 0.63163 0.56999 0.0
C1537 C 0.50977 0.64816 0.55624 0.0
C1538 C 0.46454 0.64772 0.57833 0.0
C1539 C 0.46213 0.6807 0.57289 0.0
C1540 C 0.48264 0.69651 0.5559 0.0
C1541 C 0.50651 0.6805 0.54806 0.0
C1542 C 0.40829 0.74239 0.59331 0.0
C1543 C 0.40589 0.73778 0.62666 0.0
C1544 C 0.42607 0.72346 0.57517 0.0
C1545 C 0.44092 0.69898 0.58998 0.0
C1546 C 0.43699 0.69315 0.6228 0.0
C1547 C 0.4199 0.71231 0.64086 0.0
H1548 H 0.3199 0.58323 0.20637 0.0
H1549 H 0.40323 0.61149 0.20949 0.0
H1550 H 0.32778 0.54437 0.24878 0.0
H1551 H 0.41122 0.57248 0.25228 0.0
H1552 H 0.41846 0.4683 0.29125 0.0
H1553 H 0.41263 0.51443 0.25649 0.0
H1554 H 0.33887 0.53797 0.30567 0.0
H1555 H 0.34527 0.49205 0.3414 0.0
C1556 C 0.33993 0.58116 0.21623 0.0
C1557 C 0.36106 0.60004 0.20432 0.0
C1558 C 0.34436 0.55919 0.24087 0.0
C1559 C 0.3701 0.55536 0.25403 0.0
C1560 C 0.39119 0.57466 0.24246 0.0
C1561 C 0.38666 0.59698 0.218 0.0
C1562 C 0.4011 0.48348 0.29485 0.0
C1563 C 0.38215 0.4764 0.3188 0.0
C1564 C 0.39786 0.51009 0.27506 0.0
C1565 C 0.37513 0.52969 0.278 0.0
C1566 C 0.35645 0.52307 0.30252 0.0
C1567 C 0.36011 0.49688 0.32302 0.0
H1568 H 0.2799 0.61337 0.05909 0.0
H1569 H 0.2355 0.69912 0.08105 0.0
H1570 H 0.24378 0.59518 0.02493 0.0
H1571 H 0.19798 0.67961 0.05123 0.0
H1572 H 0.139 0.65725 0.97491 0.0
H1573 H 0.17569 0.67342 0.00859 0.0
H1574 H 0.2076 0.57675 0.00397 0.0
H1575 H 0.17222 0.56261 0.96677 0.0
C1576 C 0.2621 0.62807 0.05707 0.0
C1577 C 0.26121 0.65842 0.07149 0.0
C1578 C 0.2409 0.61749 0.03753 0.0
C1579 C 0.21744 0.63618 0.03342 0.0
C1580 C 0.2158 0.665 0.05109 0.0
C1581 C 0.23744 0.6762 0.06908 0.0
C1582 C 0.15431 0.63982 0.98075 0.0
C1583 C 0.1532 0.60902 0.96767 0.0
C1584 C 0.17533 0.64873 0.00106 0.0
C1585 C 0.19519 0.62649 0.01062 0.0
C1586 C 0.19358 0.59528 -0.00253 0.0
C1587 C 0.17316 0.5869 0.97585 0.0
H1588 H 0.07732 0.49075 0.80003 0.0
H1589 H 0.163 0.49458 0.81453 0.0
H1590 H 0.08291 0.44877 0.76058 0.0
H1591 H 0.16891 0.45261 0.77362 0.0
H1592 H 0.16638 0.40606 0.67102 0.0
H1593 H 0.16465 0.4436 0.71607 0.0
H1594 H 0.09447 0.39484 0.7526 0.0
H1595 H 0.09601 0.35785 0.70755 0.0
C1596 C 0.09747 0.48265 0.7946 0.0
C1597 C 0.11975 0.49622 0.8101 0.0
C1598 C 0.10069 0.45819 0.77218 0.0
C1599 C 0.12638 0.44723 0.76366 0.0
C1600 C 0.14883 0.46075 0.77926 0.0
C1601 C 0.1455 0.48469 0.8027 0.0
C1602 C 0.15059 0.40342 0.68871 0.0
C1603 C 0.13107 0.37928 0.68541 0.0
C1604 C 0.1498 0.4247 0.71477 0.0
C1605 C 0.12926 0.42256 0.73789 0.0
C1606 C 0.11024 0.39776 0.73494 0.0
C1607 C 0.11115 0.37644 0.7091 0.0
H1608 H 0.21185 0.35852 0.55532 0.0
H1609 H 0.21472 0.2649 0.51142 0.0
H1610 H 0.25451 0.37225 0.52944 0.0
H1611 H 0.257 0.27811 0.48641 0.0
H1612 H 0.34219 0.29883 0.46236 0.0
H1613 H 0.30231 0.28739 0.49376 0.0
H1614 H 0.27432 0.38404 0.47834 0.0
H1615 H 0.31472 0.39541 0.44666 0.0
C1616 C 0.22144 0.34097 0.54 0.0
C1617 C 0.20943 0.31093 0.53476 0.0
C1618 C 0.24595 0.34879 0.52523 0.0
C1619 C 0.25926 0.32644 0.50552 0.0
C1620 C 0.24767 0.29597 0.50158 0.0
C1621 C 0.22309 0.28845 0.51572 0.0
C1622 C 0.32739 0.31757 0.46542 0.0
C1623 C 0.33134 0.34785 0.45161 0.0
C1624 C 0.30442 0.31101 0.48343 0.0
C1625 C 0.28472 0.3346 0.48834 0.0
C1626 C 0.28905 0.36527 0.47521 0.0
C1627 C 0.31194 0.37168 0.45658 0.0
H1628 H 0.38438 0.38551 0.26164 0.0
H1629 H 0.31603 0.43049 0.3067 0.0
H1630 H 0.38373 0.42594 0.2195 0.0
H1631 H 0.31545 0.47112 0.26448 0.0
H1632 H 0.30708 0.51658 0.16217 0.0
H1633 H 0.30621 0.47625 0.20526 0.0
H1634 H 0.39248 0.4826 0.21292 0.0
H1635 H 0.39311 0.52365 0.17186 0.0
C1636 C 0.36937 0.40421 0.26271 0.0
C1637 C 0.3504 0.40488 0.28766 0.0
C1638 C 0.36897 0.4274 0.23855 0.0
C1639 C 0.34941 0.45167 0.2385 0.0
C1640 C 0.33049 0.45245 0.26353 0.0
C1641 C 0.33106 0.42941 0.28793 0.0
C1642 C 0.3257 0.50956 0.17354 0.0
C1643 C 0.35008 0.52356 0.16409 0.0
C1644 C 0.32525 0.48658 0.19816 0.0
C1645 C 0.3493 0.47644 0.21279 0.0
C1646 C 0.3736 0.49001 0.20252 0.0
C1647 C 0.37393 0.51366 0.179 0.0
H1648 H 0.31315 0.58912 0.96166 0.0
H1649 H 0.31247 0.66768 0.02853 0.0
H1650 H 0.27359 0.61024 0.93536 0.0
H1651 H 0.27137 0.68795 0.00436 0.0
H1652 H 0.20381 0.72826 0.94555 0.0
H1653 H 0.24665 0.71146 0.9669 0.0
H1654 H 0.22923 0.61396 0.93799 0.0
H1655 H 0.18773 0.63165 0.91398 0.0
C1656 C 0.30409 0.6108 0.97099 0.0
C1657 C 0.31496 0.62612 -0.00206 0.0
C1658 C 0.28111 0.62281 0.9562 0.0
C1659 C 0.26819 0.65034 0.96821 0.0
C1660 C 0.28033 0.66672 -0.0059 0.0
C1661 C 0.30363 0.65483 0.00858 0.0
C1662 C 0.20917 0.70319 0.94382 0.0
C1663 C 0.19207 0.68122 0.92844 0.0
C1664 C 0.23383 0.6934 0.95635 0.0
C1665 C 0.24196 0.66117 0.95439 0.0
C1666 C 0.2245 0.63918 0.93933 0.0
C1667 C 0.20017 0.64916 0.9261 0.0
H1668 H 0.07126 0.46548 0.69103 0.0
H1669 H 0.15155 0.49082 0.66132 0.0
H1670 H 0.07152 0.50875 0.73001 0.0
H1671 H 0.15228 0.53373 0.7016 0.0
H1672 H 0.15104 0.58396 0.80125 0.0
H1673 H 0.15216 0.54239 0.75998 0.0
H1674 H 0.07119 0.56681 0.73235 0.0
H1675 H 0.07034 0.60878 0.77338 0.0
C1676 C 0.08921 0.47997 0.69325 0.0
C1677 C 0.11153 0.47452 0.67338 0.0
C1678 C 0.08919 0.50513 0.71529 0.0
C1679 C 0.11188 0.52476 0.71893 0.0
C1680 C 0.13456 0.51881 0.69962 0.0
C1681 C 0.13421 0.49425 0.67665 0.0
C1682 C 0.13345 0.58028 0.78642 0.0
C1683 C 0.11042 0.59916 0.79077 0.0
C1684 C 0.13421 0.55674 0.76255 0.0
C1685 C 0.11171 0.55108 0.74303 0.0
C1686 C 0.08871 0.57019 0.74735 0.0
C1687 C 0.08819 0.59422 0.77076 0.0
H1688 H 0.17322 0.40921 0.52443 0.0
H1689 H 0.12352 0.33477 0.48414 0.0
H1690 H 0.21005 0.39324 0.4891 0.0
H1691 H 0.16005 0.3185 0.449 0.0
H1692 H 0.24023 0.27499 0.41904 0.0
H1693 H 0.20119 0.29307 0.44847 0.0
H1694 H 0.22658 0.39129 0.43614 0.0
H1695 H 0.26576 0.37299 0.40623 0.0
C1696 C 0.17045 0.38898 0.50848 0.0
C1697 C 0.14583 0.37276 0.50741 0.0
C1698 C 0.1913 0.3802 0.4877 0.0
C1699 C 0.1882 0.35437 0.4662 0.0
C1700 C 0.16351 0.33801 0.46563 0.0
C1701 C 0.14256 0.34723 0.48583 0.0
C1702 C 0.23749 0.30048 0.42243 0.0
C1703 C 0.25664 0.32247 0.41118 0.0
C1704 C 0.21483 0.31096 0.4391 0.0
C1705 C 0.21088 0.3437 0.44542 0.0
C1706 C 0.22936 0.36583 0.4327 0.0
C1707 C 0.25185 0.35533 0.41552 0.0
H1708 H 0.40219 0.26726 0.33082 0.0
H1709 H 0.47075 0.32963 0.32219 0.0
H1710 H 0.42823 0.22323 0.30694 0.0
H1711 H 0.49601 0.28689 0.29642 0.0
H1712 H 0.51529 0.16797 0.3355 0.0
H1713 H 0.47302 0.19811 0.33542 0.0
H1714 H 0.49709 0.24558 0.2482 0.0
H1715 H 0.53851 0.21449 0.24745 0.0
C1716 C 0.42245 0.27181 0.32274 0.0
C1717 C 0.43474 0.30149 0.32868 0.0
C1718 C 0.43725 0.24674 0.30899 0.0
C1719 C 0.46408 0.25169 0.29986 0.0
C1720 C 0.47526 0.28246 0.30287 0.0
C1721 C 0.46083 0.30699 0.31752 0.0
C1722 C 0.51072 0.18341 0.31538 0.0
C1723 C 0.52997 0.18909 0.29151 0.0
C1724 C 0.48666 0.20079 0.31538 0.0
C1725 C 0.48225 0.22471 0.29226 0.0
C1726 C 0.50011 0.22742 0.26637 0.0
C1727 C 0.52376 0.20964 0.26597 0.0
loop_
_geom_bond_atom_site_label_1
_geom_bond_atom_site_label_2
_geom_bond_distance
_geom_bond_site_symmetry_2
_ccdc_geom_bond_type
C0 O1 1.306 . S
C0 O3 1.160 . S
O1 C0 1.306 . S
O1 Cd2 2.228 . S
Cd2 O1 2.228 . S
Cd2 O6 2.273 . S
Cd2 O10 2.277 . S
O3 C0 1.160 . S
O3 Cd4 2.203 . S
Cd4 O3 2.203 . S
Cd4 O6 2.411 . S
Cd4 O7 2.333 . S
Cd4 O8 2.352 . S
Cd4 O12 2.277 . S
Cd4 O13 2.356 . S
C5 O10 1.209 . S
C5 O12 1.226 . S
O6 Cd2 2.273 . S
O6 Cd4 2.411 . S
O6 C9 1.320 . S
O7 Cd4 2.333 . S
O7 C9 1.214 . S
O8 Cd4 2.352 . S
O8 C11 1.258 . S
C9 O6 1.320 . S
C9 O7 1.214 . S
O10 Cd2 2.277 . S
O10 C5 1.209 . S
C11 O8 1.258 . S
C11 O13 1.282 . S
O12 Cd4 2.277 . S
O12 C5 1.226 . S
O13 Cd4 2.356 . S
O13 C11 1.282 . S
C14 O15 1.306 . S
C14 O17 1.160 . S
O15 C14 1.306 . S
O15 Cd16 2.228 . S
Cd16 O15 2.228 . S
Cd16 O20 2.273 . S
Cd16 O24 2.277 . S
O17 C14 1.160 . S
O17 Cd18 2.203 . S
Cd18 O17 2.203 . S
Cd18 O20 2.411 . S
Cd18 O21 2.333 . S
Cd18 O22 2.352 . S
Cd18 O26 2.277 . S
Cd18 O27 2.356 . S
C19 O24 1.209 . S
C19 O26 1.226 . S
O20 Cd16 2.273 . S
O20 Cd18 2.411 . S
O20 C23 1.320 . S
O21 Cd18 2.333 . S
O21 C23 1.214 . S
O22 Cd18 2.352 . S
O22 C25 1.258 . S
C23 O20 1.320 . S
C23 O21 1.214 . S
O24 Cd16 2.277 . S
O24 C19 1.209 . S
C25 O22 1.258 . S
C25 O27 1.282 . S
O26 Cd18 2.277 . S
O26 C19 1.226 . S
O27 Cd18 2.356 . S
O27 C25 1.282 . S
C28 O29 1.306 . S
C28 O31 1.160 . S
O29 C28 1.306 . S
O29 Cd30 2.228 . S
Cd30 O29 2.228 . S
Cd30 O34 2.273 . S
Cd30 O38 2.277 . S
O31 C28 1.160 . S
O31 Cd32 2.203 . S
Cd32 O31 2.203 . S
Cd32 O34 2.411 . S
Cd32 O35 2.333 . S
Cd32 O36 2.352 . S
Cd32 O40 2.277 . S
Cd32 O41 2.356 . S
C33 O38 1.209 . S
C33 O40 1.226 . S
O34 Cd30 2.273 . S
O34 Cd32 2.411 . S
O34 C37 1.320 . S
O35 Cd32 2.333 . S
O35 C37 1.214 . S
O36 Cd32 2.352 . S
O36 C39 1.258 . S
C37 O34 1.320 . S
C37 O35 1.214 . S
O38 Cd30 2.277 . S
O38 C33 1.209 . S
C39 O36 1.258 . S
C39 O41 1.282 . S
O40 Cd32 2.277 . S
O40 C33 1.226 . S
O41 Cd32 2.356 . S
O41 C39 1.282 . S
C42 O43 1.306 . S
C42 O45 1.160 . S
O43 C42 1.306 . S
O43 Cd44 2.228 . S
Cd44 O43 2.228 . S
Cd44 O48 2.273 . S
Cd44 O52 2.277 . S
O45 C42 1.160 . S
O45 Cd46 2.203 . S
Cd46 O45 2.203 . S
Cd46 O48 2.411 . S
Cd46 O49 2.333 . S
Cd46 O50 2.352 . S
Cd46 O54 2.277 . S
Cd46 O55 2.356 . S
C47 O52 1.209 . S
C47 O54 1.226 . S
O48 Cd44 2.273 . S
O48 Cd46 2.411 . S
O48 C51 1.320 . S
O49 Cd46 2.333 . S
O49 C51 1.214 . S
O50 Cd46 2.352 . S
O50 C53 1.258 . S
C51 O48 1.320 . S
C51 O49 1.214 . S
O52 Cd44 2.277 . S
O52 C47 1.209 . S
C53 O50 1.258 . S
C53 O55 1.282 . S
O54 Cd46 2.277 . S
O54 C47 1.226 . S
O55 Cd46 2.356 . S
O55 C53 1.282 . S
C56 O57 1.306 . S
C56 O59 1.160 . S
O57 C56 1.306 . S
O57 Cd58 2.228 . S
Cd58 O57 2.228 . S
Cd58 O62 2.273 . S
Cd58 O66 2.277 . S
O59 C56 1.160 . S
O59 Cd60 2.203 . S
Cd60 O59 2.203 . S
Cd60 O62 2.411 . S
Cd60 O63 2.333 . S
Cd60 O64 2.352 . S
Cd60 O68 2.277 . S
Cd60 O69 2.356 . S
C61 O66 1.209 . S
C61 O68 1.226 . S
O62 Cd58 2.273 . S
O62 Cd60 2.411 . S
O62 C65 1.320 . S
O63 Cd60 2.333 . S
O63 C65 1.214 . S
O64 Cd60 2.352 . S
O64 C67 1.258 . S
C65 O62 1.320 . S
C65 O63 1.214 . S
O66 Cd58 2.277 . S
O66 C61 1.209 . S
C67 O64 1.258 . S
C67 O69 1.282 . S
O68 Cd60 2.277 . S
O68 C61 1.226 . S
O69 Cd60 2.356 . S
O69 C67 1.282 . S
C70 O71 1.306 . S
C70 O73 1.160 . S
O71 C70 1.306 . S
O71 Cd72 2.228 . S
Cd72 O71 2.228 . S
Cd72 O76 2.273 . S
Cd72 O80 2.277 . S
O73 C70 1.160 . S
O73 Cd74 2.203 . S
Cd74 O73 2.203 . S
Cd74 O76 2.411 . S
Cd74 O77 2.333 . S
Cd74 O78 2.352 . S
Cd74 O82 2.277 . S
Cd74 O83 2.356 . S
C75 O80 1.209 . S
C75 O82 1.226 . S
O76 Cd72 2.273 . S
O76 Cd74 2.411 . S
O76 C79 1.320 . S
O77 Cd74 2.333 . S
O77 C79 1.214 . S
O78 Cd74 2.352 . S
O78 C81 1.258 . S
C79 O76 1.320 . S
C79 O77 1.214 . S
O80 Cd72 2.277 . S
O80 C75 1.209 . S
C81 O78 1.258 . S
C81 O83 1.282 . S
O82 Cd74 2.277 . S
O82 C75 1.226 . S
O83 Cd74 2.356 . S
O83 C81 1.282 . S
C84 O85 1.306 . S
C84 O87 1.160 . S
O85 C84 1.306 . S
O85 Cd86 2.228 . S
Cd86 O85 2.228 . S
Cd86 O90 2.273 . S
Cd86 O94 2.277 . S
O87 C84 1.160 . S
O87 Cd88 2.203 . S
Cd88 O87 2.203 . S
Cd88 O90 2.411 . S
Cd88 O91 2.333 . S
Cd88 O92 2.352 . S
Cd88 O96 2.277 . S
Cd88 O97 2.356 . S
C89 O94 1.209 . S
C89 O96 1.226 . S
O90 Cd86 2.273 . S
O90 Cd88 2.411 . S
O90 C93 1.320 . S
O91 Cd88 2.333 . S
O91 C93 1.214 . S
O92 Cd88 2.352 . S
O92 C95 1.258 . S
C93 O90 1.320 . S
C93 O91 1.214 . S
O94 Cd86 2.277 . S
O94 C89 1.209 . S
C95 O92 1.258 . S
C95 O97 1.282 . S
O96 Cd88 2.277 . S
O96 C89 1.226 . S
O97 Cd88 2.356 . S
O97 C95 1.282 . S
C98 O99 1.306 . S
C98 O101 1.160 . S
O99 C98 1.306 . S
O99 Cd100 2.228 . S
Cd100 O99 2.228 . S
Cd100 O104 2.273 . S
Cd100 O108 2.277 . S
O101 C98 1.160 . S
O101 Cd102 2.203 . S
Cd102 O101 2.203 . S
Cd102 O104 2.411 . S
Cd102 O105 2.333 . S
Cd102 O106 2.352 . S
Cd102 O110 2.277 . S
Cd102 O111 2.356 . S
C103 O108 1.209 . S
C103 O110 1.226 . S
O104 Cd100 2.273 . S
O104 Cd102 2.411 . S
O104 C107 1.320 . S
O105 Cd102 2.333 . S
O105 C107 1.214 . S
O106 Cd102 2.352 . S
O106 C109 1.258 . S
C107 O104 1.320 . S
C107 O105 1.214 . S
O108 Cd100 2.277 . S
O108 C103 1.209 . S
C109 O106 1.258 . S
C109 O111 1.282 . S
O110 Cd102 2.277 . S
O110 C103 1.226 . S
O111 Cd102 2.356 . S
O111 C109 1.282 . S
C112 O113 1.306 . S
C112 O115 1.160 . S
O113 C112 1.306 . S
O113 Cd114 2.228 . S
Cd114 O113 2.228 . S
Cd114 O118 2.273 . S
Cd114 O122 2.277 . S
O115 C112 1.160 . S
O115 Cd116 2.203 . S
Cd116 O115 2.203 . S
Cd116 O118 2.411 . S
Cd116 O119 2.333 . S
Cd116 O120 2.352 . S
Cd116 O124 2.277 . S
Cd116 O125 2.356 . S
C117 O122 1.209 . S
C117 O124 1.226 . S
O118 Cd114 2.273 . S
O118 Cd116 2.411 . S
O118 C121 1.320 . S
O119 Cd116 2.333 . S
O119 C121 1.214 . S
O120 Cd116 2.352 . S
O120 C123 1.258 . S
C121 O118 1.320 . S
C121 O119 1.214 . S
O122 Cd114 2.277 . S
O122 C117 1.209 . S
C123 O120 1.258 . S
C123 O125 1.282 . S
O124 Cd116 2.277 . S
O124 C117 1.226 . S
O125 Cd116 2.356 . S
O125 C123 1.282 . S
C126 O127 1.306 . S
C126 O129 1.160 . S
O127 C126 1.306 . S
O127 Cd128 2.228 . S
Cd128 O127 2.228 . S
Cd128 O132 2.273 . S
Cd128 O136 2.277 . S
O129 C126 1.160 . S
O129 Cd130 2.203 . S
Cd130 O129 2.203 . S
Cd130 O132 2.411 . S
Cd130 O133 2.333 . S
Cd130 O134 2.352 . S
Cd130 O138 2.277 . S
Cd130 O139 2.356 . S
C131 O136 1.209 . S
C131 O138 1.226 . S
O132 Cd128 2.273 . S
O132 Cd130 2.411 . S
O132 C135 1.320 . S
O133 Cd130 2.333 . S
O133 C135 1.214 . S
O134 Cd130 2.352 . S
O134 C137 1.258 . S
C135 O132 1.320 . S
C135 O133 1.214 . S
O136 Cd128 2.277 . S
O136 C131 1.209 . S
C137 O134 1.258 . S
C137 O139 1.282 . S
O138 Cd130 2.277 . S
O138 C131 1.226 . S
O139 Cd130 2.356 . S
O139 C137 1.282 . S
C140 O141 1.306 . S
C140 O143 1.160 . S
O141 C140 1.306 . S
O141 Cd142 2.228 . S
Cd142 O141 2.228 . S
Cd142 O146 2.273 . S
Cd142 O150 2.277 . S
O143 C140 1.160 . S
O143 Cd144 2.203 . S
Cd144 O143 2.203 . S
Cd144 O146 2.411 . S
Cd144 O147 2.333 . S
Cd144 O148 2.352 . S
Cd144 O152 2.277 . S
Cd144 O153 2.356 . S
C145 O150 1.209 . S
C145 O152 1.226 . S
O146 Cd142 2.273 . S
O146 Cd144 2.411 . S
O146 C149 1.320 . S
O147 Cd144 2.333 . S
O147 C149 1.214 . S
O148 Cd144 2.352 . S
O148 C151 1.258 . S
C149 O146 1.320 . S
C149 O147 1.214 . S
O150 Cd142 2.277 . S
O150 C145 1.209 . S
C151 O148 1.258 . S
C151 O153 1.282 . S
O152 Cd144 2.277 . S
O152 C145 1.226 . S
O153 Cd144 2.356 . S
O153 C151 1.282 . S
C154 O155 1.306 . S
C154 O157 1.160 . S
O155 C154 1.306 . S
O155 Cd156 2.228 . S
Cd156 O155 2.228 . S
Cd156 O160 2.273 . S
Cd156 O164 2.277 . S
O157 C154 1.160 . S
O157 Cd158 2.203 . S
Cd158 O157 2.203 . S
Cd158 O160 2.411 . S
Cd158 O161 2.333 . S
Cd158 O162 2.352 . S
Cd158 O166 2.277 . S
Cd158 O167 2.356 . S
C159 O164 1.209 . S
C159 O166 1.226 . S
O160 Cd156 2.273 . S
O160 Cd158 2.411 . S
O160 C163 1.320 . S
O161 Cd158 2.333 . S
O161 C163 1.214 . S
O162 Cd158 2.352 . S
O162 C165 1.258 . S
C163 O160 1.320 . S
C163 O161 1.214 . S
O164 Cd156 2.277 . S
O164 C159 1.209 . S
C165 O162 1.258 . S
C165 O167 1.282 . S
O166 Cd158 2.277 . S
O166 C159 1.226 . S
O167 Cd158 2.356 . S
O167 C165 1.282 . S
C168 O169 1.306 . S
C168 O171 1.160 . S
O169 C168 1.306 . S
O169 Cd170 2.228 . S
Cd170 O169 2.228 . S
Cd170 O174 2.273 . S
Cd170 O178 2.277 . S
O171 C168 1.160 . S
O171 Cd172 2.203 . S
Cd172 O171 2.203 . S
Cd172 O174 2.411 . S
Cd172 O175 2.333 . S
Cd172 O176 2.352 . S
Cd172 O180 2.277 . S
Cd172 O181 2.356 . S
C173 O178 1.209 . S
C173 O180 1.226 . S
O174 Cd170 2.273 . S
O174 Cd172 2.411 . S
O174 C177 1.320 . S
O175 Cd172 2.333 . S
O175 C177 1.214 . S
O176 Cd172 2.352 . S
O176 C179 1.258 . S
C177 O174 1.320 . S
C177 O175 1.214 . S
O178 Cd170 2.277 . S
O178 C173 1.209 . S
C179 O176 1.258 . S
C179 O181 1.282 . S
O180 Cd172 2.277 . S
O180 C173 1.226 . S
O181 Cd172 2.356 . S
O181 C179 1.282 . S
C182 O183 1.306 . S
C182 O185 1.160 . S
O183 C182 1.306 . S
O183 Cd184 2.228 . S
Cd184 O183 2.228 . S
Cd184 O188 2.273 . S
Cd184 O192 2.277 . S
O185 C182 1.160 . S
O185 Cd186 2.203 . S
Cd186 O185 2.203 . S
Cd186 O188 2.411 . S
Cd186 O189 2.333 . S
Cd186 O190 2.352 . S
Cd186 O194 2.277 . S
Cd186 O195 2.356 . S
C187 O192 1.209 . S
C187 O194 1.226 . S
O188 Cd184 2.273 . S
O188 Cd186 2.411 . S
O188 C191 1.320 . S
O189 Cd186 2.333 . S
O189 C191 1.214 . S
O190 Cd186 2.352 . S
O190 C193 1.258 . S
C191 O188 1.320 . S
C191 O189 1.214 . S
O192 Cd184 2.277 . S
O192 C187 1.209 . S
C193 O190 1.258 . S
C193 O195 1.282 . S
O194 Cd186 2.277 . S
O194 C187 1.226 . S
O195 Cd186 2.356 . S
O195 C193 1.282 . S
C196 O197 1.306 . S
C196 O199 1.160 . S
O197 C196 1.306 . S
O197 Cd198 2.228 . S
Cd198 O197 2.228 . S
Cd198 O202 2.273 . S
Cd198 O206 2.277 . S
O199 C196 1.160 . S
O199 Cd200 2.203 . S
Cd200 O199 2.203 . S
Cd200 O202 2.411 . S
Cd200 O203 2.333 . S
Cd200 O204 2.352 . S
Cd200 O208 2.277 . S
Cd200 O209 2.356 . S
C201 O206 1.209 . S
C201 O208 1.226 . S
O202 Cd198 2.273 . S
O202 Cd200 2.411 . S
O202 C205 1.320 . S
O203 Cd200 2.333 . S
O203 C205 1.214 . S
O204 Cd200 2.352 . S
O204 C207 1.258 . S
C205 O202 1.320 . S
C205 O203 1.214 . S
O206 Cd198 2.277 . S
O206 C201 1.209 . S
C207 O204 1.258 . S
C207 O209 1.282 . S
O208 Cd200 2.277 . S
O208 C201 1.226 . S
O209 Cd200 2.356 . S
O209 C207 1.282 . S
C210 O211 1.306 . S
C210 O213 1.160 . S
O211 C210 1.306 . S
O211 Cd212 2.228 . S
Cd212 O211 2.228 . S
Cd212 O216 2.273 . S
Cd212 O220 2.277 . S
O213 C210 1.160 . S
O213 Cd214 2.203 . S
Cd214 O213 2.203 . S
Cd214 O216 2.411 . S
Cd214 O217 2.333 . S
Cd214 O218 2.352 . S
Cd214 O222 2.277 . S
Cd214 O223 2.356 . S
C215 O220 1.209 . S
C215 O222 1.226 . S
O216 Cd212 2.273 . S
O216 Cd214 2.411 . S
O216 C219 1.320 . S
O217 Cd214 2.333 . S
O217 C219 1.214 . S
O218 Cd214 2.352 . S
O218 C221 1.258 . S
C219 O216 1.320 . S
C219 O217 1.214 . S
O220 Cd212 2.277 . S
O220 C215 1.209 . S
C221 O218 1.258 . S
C221 O223 1.282 . S
O222 Cd214 2.277 . S
O222 C215 1.226 . S
O223 Cd214 2.356 . S
O223 C221 1.282 . S
C224 O225 1.306 . S
C224 O227 1.160 . S
O225 C224 1.306 . S
O225 Cd226 2.228 . S
Cd226 O225 2.228 . S
Cd226 O230 2.273 . S
Cd226 O234 2.277 . S
O227 C224 1.160 . S
O227 Cd228 2.203 . S
Cd228 O227 2.203 . S
Cd228 O230 2.411 . S
Cd228 O231 2.333 . S
Cd228 O232 2.352 . S
Cd228 O236 2.277 . S
Cd228 O237 2.356 . S
C229 O234 1.209 . S
C229 O236 1.226 . S
O230 Cd226 2.273 . S
O230 Cd228 2.411 . S
O230 C233 1.320 . S
O231 Cd228 2.333 . S
O231 C233 1.214 . S
O232 Cd228 2.352 . S
O232 C235 1.258 . S
C233 O230 1.320 . S
C233 O231 1.214 . S
O234 Cd226 2.277 . S
O234 C229 1.209 . S
C235 O232 1.258 . S
C235 O237 1.282 . S
O236 Cd228 2.277 . S
O236 C229 1.226 . S
O237 Cd228 2.356 . S
O237 C235 1.282 . S
C238 O239 1.306 . S
C238 O241 1.160 . S
O239 C238 1.306 . S
O239 Cd240 2.228 . S
Cd240 O239 2.228 . S
Cd240 O244 2.273 . S
Cd240 O248 2.277 . S
O241 C238 1.160 . S
O241 Cd242 2.203 . S
Cd242 O241 2.203 . S
Cd242 O244 2.411 . S
Cd242 O245 2.333 . S
Cd242 O246 2.352 . S
Cd242 O250 2.277 . S
Cd242 O251 2.356 . S
C243 O248 1.209 . S
C243 O250 1.226 . S
O244 Cd240 2.273 . S
O244 Cd242 2.411 . S
O244 C247 1.320 . S
O245 Cd242 2.333 . S
O245 C247 1.214 . S
O246 Cd242 2.352 . S
O246 C249 1.258 . S
C247 O244 1.320 . S
C247 O245 1.214 . S
O248 Cd240 2.277 . S
O248 C243 1.209 . S
C249 O246 1.258 . S
C249 O251 1.282 . S
O250 Cd242 2.277 . S
O250 C243 1.226 . S
O251 Cd242 2.356 . S
O251 C249 1.282 . S
C252 O253 1.306 . S
C252 O255 1.160 . S
O253 C252 1.306 . S
O253 Cd254 2.228 . S
Cd254 O253 2.228 . S
Cd254 O258 2.273 . S
Cd254 O262 2.277 . S
O255 C252 1.160 . S
O255 Cd256 2.203 . S
Cd256 O255 2.203 . S
Cd256 O258 2.411 . S
Cd256 O259 2.333 . S
Cd256 O260 2.352 . S
Cd256 O264 2.277 . S
Cd256 O265 2.356 . S
C257 O262 1.209 . S
C257 O264 1.226 . S
O258 Cd254 2.273 . S
O258 Cd256 2.411 . S
O258 C261 1.320 . S
O259 Cd256 2.333 . S
O259 C261 1.214 . S
O260 Cd256 2.352 . S
O260 C263 1.258 . S
C261 O258 1.320 . S
C261 O259 1.214 . S
O262 Cd254 2.277 . S
O262 C257 1.209 . S
C263 O260 1.258 . S
C263 O265 1.282 . S
O264 Cd256 2.277 . S
O264 C257 1.226 . S
O265 Cd256 2.356 . S
O265 C263 1.282 . S
C266 O267 1.306 . S
C266 O269 1.160 . S
O267 C266 1.306 . S
O267 Cd268 2.228 . S
Cd268 O267 2.228 . S
Cd268 O272 2.273 . S
Cd268 O276 2.277 . S
O269 C266 1.160 . S
O269 Cd270 2.203 . S
Cd270 O269 2.203 . S
Cd270 O272 2.411 . S
Cd270 O273 2.333 . S
Cd270 O274 2.352 . S
Cd270 O278 2.277 . S
Cd270 O279 2.356 . S
C271 O276 1.209 . S
C271 O278 1.226 . S
O272 Cd268 2.273 . S
O272 Cd270 2.411 . S
O272 C275 1.320 . S
O273 Cd270 2.333 . S
O273 C275 1.214 . S
O274 Cd270 2.352 . S
O274 C277 1.258 . S
C275 O272 1.320 . S
C275 O273 1.214 . S
O276 Cd268 2.277 . S
O276 C271 1.209 . S
C277 O274 1.258 . S
C277 O279 1.282 . S
O278 Cd270 2.277 . S
O278 C271 1.226 . S
O279 Cd270 2.356 . S
O279 C277 1.282 . S
C280 O281 1.306 . S
C280 O283 1.160 . S
O281 C280 1.306 . S
O281 Cd282 2.228 . S
Cd282 O281 2.228 . S
Cd282 O286 2.273 . S
Cd282 O290 2.277 . S
O283 C280 1.160 . S
O283 Cd284 2.203 . S
Cd284 O283 2.203 . S
Cd284 O286 2.411 . S
Cd284 O287 2.333 . S
Cd284 O288 2.352 . S
Cd284 O292 2.277 . S
Cd284 O293 2.356 . S
C285 O290 1.209 . S
C285 O292 1.226 . S
O286 Cd282 2.273 . S
O286 Cd284 2.411 . S
O286 C289 1.320 . S
O287 Cd284 2.333 . S
O287 C289 1.214 . S
O288 Cd284 2.352 . S
O288 C291 1.258 . S
C289 O286 1.320 . S
C289 O287 1.214 . S
O290 Cd282 2.277 . S
O290 C285 1.209 . S
C291 O288 1.258 . S
C291 O293 1.282 . S
O292 Cd284 2.277 . S
O292 C285 1.226 . S
O293 Cd284 2.356 . S
O293 C291 1.282 . S
C294 O295 1.306 . S
C294 O297 1.160 . S
O295 C294 1.306 . S
O295 Cd296 2.228 . S
Cd296 O295 2.228 . S
Cd296 O300 2.273 . S
Cd296 O304 2.277 . S
O297 C294 1.160 . S
O297 Cd298 2.203 . S
Cd298 O297 2.203 . S
Cd298 O300 2.411 . S
Cd298 O301 2.333 . S
Cd298 O302 2.352 . S
Cd298 O306 2.277 . S
Cd298 O307 2.356 . S
C299 O304 1.209 . S
C299 O306 1.226 . S
O300 Cd296 2.273 . S
O300 Cd298 2.411 . S
O300 C303 1.320 . S
O301 Cd298 2.333 . S
O301 C303 1.214 . S
O302 Cd298 2.352 . S
O302 C305 1.258 . S
C303 O300 1.320 . S
C303 O301 1.214 . S
O304 Cd296 2.277 . S
O304 C299 1.209 . S
C305 O302 1.258 . S
C305 O307 1.282 . S
O306 Cd298 2.277 . S
O306 C299 1.226 . S
O307 Cd298 2.356 . S
O307 C305 1.282 . S
C308 O309 1.306 . S
C308 O311 1.160 . S
O309 C308 1.306 . S
O309 Cd310 2.228 . S
Cd310 O309 2.228 . S
Cd310 O314 2.273 . S
Cd310 O318 2.277 . S
O311 C308 1.160 . S
O311 Cd312 2.203 . S
Cd312 O311 2.203 . S
Cd312 O314 2.411 . S
Cd312 O315 2.333 . S
Cd312 O316 2.352 . S
Cd312 O320 2.277 . S
Cd312 O321 2.356 . S
C313 O318 1.209 . S
C313 O320 1.226 . S
O314 Cd310 2.273 . S
O314 Cd312 2.411 . S
O314 C317 1.320 . S
O315 Cd312 2.333 . S
O315 C317 1.214 . S
O316 Cd312 2.352 . S
O316 C319 1.258 . S
C317 O314 1.320 . S
C317 O315 1.214 . S
O318 Cd310 2.277 . S
O318 C313 1.209 . S
C319 O316 1.258 . S
C319 O321 1.282 . S
O320 Cd312 2.277 . S
O320 C313 1.226 . S
O321 Cd312 2.356 . S
O321 C319 1.282 . S
C322 O323 1.306 . S
C322 O325 1.160 . S
O323 C322 1.306 . S
O323 Cd324 2.228 . S
Cd324 O323 2.228 . S
Cd324 O328 2.273 . S
Cd324 O332 2.277 . S
O325 C322 1.160 . S
O325 Cd326 2.203 . S
Cd326 O325 2.203 . S
Cd326 O328 2.411 . S
Cd326 O329 2.333 . S
Cd326 O330 2.352 . S
Cd326 O334 2.277 . S
Cd326 O335 2.356 . S
C327 O332 1.209 . S
C327 O334 1.226 . S
O328 Cd324 2.273 . S
O328 Cd326 2.411 . S
O328 C331 1.320 . S
O329 Cd326 2.333 . S
O329 C331 1.214 . S
O330 Cd326 2.352 . S
O330 C333 1.258 . S
C331 O328 1.320 . S
C331 O329 1.214 . S
O332 Cd324 2.277 . S
O332 C327 1.209 . S
C333 O330 1.258 . S
C333 O335 1.282 . S
O334 Cd326 2.277 . S
O334 C327 1.226 . S
O335 Cd326 2.356 . S
O335 C333 1.282 . S
C336 O337 1.306 . S
C336 O339 1.160 . S
O337 C336 1.306 . S
O337 Cd338 2.228 . S
Cd338 O337 2.228 . S
Cd338 O342 2.273 . S
Cd338 O346 2.277 . S
O339 C336 1.160 . S
O339 Cd340 2.203 . S
Cd340 O339 2.203 . S
Cd340 O342 2.411 . S
Cd340 O343 2.333 . S
Cd340 O344 2.352 . S
Cd340 O348 2.277 . S
Cd340 O349 2.356 . S
C341 O346 1.209 . S
C341 O348 1.226 . S
O342 Cd338 2.273 . S
O342 Cd340 2.411 . S
O342 C345 1.320 . S
O343 Cd340 2.333 . S
O343 C345 1.214 . S
O344 Cd340 2.352 . S
O344 C347 1.258 . S
C345 O342 1.320 . S
C345 O343 1.214 . S
O346 Cd338 2.277 . S
O346 C341 1.209 . S
C347 O344 1.258 . S
C347 O349 1.282 . S
O348 Cd340 2.277 . S
O348 C341 1.226 . S
O349 Cd340 2.356 . S
O349 C347 1.282 . S
C350 O351 1.306 . S
C350 O353 1.160 . S
O351 C350 1.306 . S
O351 Cd352 2.228 . S
Cd352 O351 2.228 . S
Cd352 O356 2.273 . S
Cd352 O360 2.277 . S
O353 C350 1.160 . S
O353 Cd354 2.203 . S
Cd354 O353 2.203 . S
Cd354 O356 2.411 . S
Cd354 O357 2.333 . S
Cd354 O358 2.352 . S
Cd354 O362 2.277 . S
Cd354 O363 2.356 . S
C355 O360 1.209 . S
C355 O362 1.226 . S
O356 Cd352 2.273 . S
O356 Cd354 2.411 . S
O356 C359 1.320 . S
O357 Cd354 2.333 . S
O357 C359 1.214 . S
O358 Cd354 2.352 . S
O358 C361 1.258 . S
C359 O356 1.320 . S
C359 O357 1.214 . S
O360 Cd352 2.277 . S
O360 C355 1.209 . S
C361 O358 1.258 . S
C361 O363 1.282 . S
O362 Cd354 2.277 . S
O362 C355 1.226 . S
O363 Cd354 2.356 . S
O363 C361 1.282 . S
C364 O365 1.306 . S
C364 O367 1.160 . S
O365 C364 1.306 . S
O365 Cd366 2.228 . S
Cd366 O365 2.228 . S
Cd366 O370 2.273 . S
Cd366 O374 2.277 . S
O367 C364 1.160 . S
O367 Cd368 2.203 . S
Cd368 O367 2.203 . S
Cd368 O370 2.411 . S
Cd368 O371 2.333 . S
Cd368 O372 2.352 . S
Cd368 O376 2.277 . S
Cd368 O377 2.356 . S
C369 O374 1.209 . S
C369 O376 1.226 . S
O370 Cd366 2.273 . S
O370 Cd368 2.411 . S
O370 C373 1.320 . S
O371 Cd368 2.333 . S
O371 C373 1.214 . S
O372 Cd368 2.352 . S
O372 C375 1.258 . S
C373 O370 1.320 . S
C373 O371 1.214 . S
O374 Cd366 2.277 . S
O374 C369 1.209 . S
C375 O372 1.258 . S
C375 O377 1.282 . S
O376 Cd368 2.277 . S
O376 C369 1.226 . S
O377 Cd368 2.356 . S
O377 C375 1.282 . S
C378 O379 1.306 . S
C378 O381 1.160 . S
O379 C378 1.306 . S
O379 Cd380 2.228 . S
Cd380 O379 2.228 . S
Cd380 O384 2.273 . S
Cd380 O388 2.277 . S
O381 C378 1.160 . S
O381 Cd382 2.203 . S
Cd382 O381 2.203 . S
Cd382 O384 2.411 . S
Cd382 O385 2.333 . S
Cd382 O386 2.352 . S
Cd382 O390 2.277 . S
Cd382 O391 2.356 . S
C383 O388 1.209 . S
C383 O390 1.226 . S
O384 Cd380 2.273 . S
O384 Cd382 2.411 . S
O384 C387 1.320 . S
O385 Cd382 2.333 . S
O385 C387 1.214 . S
O386 Cd382 2.352 . S
O386 C389 1.258 . S
C387 O384 1.320 . S
C387 O385 1.214 . S
O388 Cd380 2.277 . S
O388 C383 1.209 . S
C389 O386 1.258 . S
C389 O391 1.282 . S
O390 Cd382 2.277 . S
O390 C383 1.226 . S
O391 Cd382 2.356 . S
O391 C389 1.282 . S
C392 O393 1.306 . S
C392 O395 1.160 . S
O393 C392 1.306 . S
O393 Cd394 2.228 . S
Cd394 O393 2.228 . S
Cd394 O398 2.273 . S
Cd394 O402 2.277 . S
O395 C392 1.160 . S
O395 Cd396 2.203 . S
Cd396 O395 2.203 . S
Cd396 O398 2.411 . S
Cd396 O399 2.333 . S
Cd396 O400 2.352 . S
Cd396 O404 2.277 . S
Cd396 O405 2.356 . S
C397 O402 1.209 . S
C397 O404 1.226 . S
O398 Cd394 2.273 . S
O398 Cd396 2.411 . S
O398 C401 1.320 . S
O399 Cd396 2.333 . S
O399 C401 1.214 . S
O400 Cd396 2.352 . S
O400 C403 1.258 . S
C401 O398 1.320 . S
C401 O399 1.214 . S
O402 Cd394 2.277 . S
O402 C397 1.209 . S
C403 O400 1.258 . S
C403 O405 1.282 . S
O404 Cd396 2.277 . S
O404 C397 1.226 . S
O405 Cd396 2.356 . S
O405 C403 1.282 . S
C406 O407 1.306 . S
C406 O409 1.160 . S
O407 C406 1.306 . S
O407 Cd408 2.228 . S
Cd408 O407 2.228 . S
Cd408 O412 2.273 . S
Cd408 O416 2.277 . S
O409 C406 1.160 . S
O409 Cd410 2.203 . S
Cd410 O409 2.203 . S
Cd410 O412 2.411 . S
Cd410 O413 2.333 . S
Cd410 O414 2.352 . S
Cd410 O418 2.277 . S
Cd410 O419 2.356 . S
C411 O416 1.209 . S
C411 O418 1.226 . S
O412 Cd408 2.273 . S
O412 Cd410 2.411 . S
O412 C415 1.320 . S
O413 Cd410 2.333 . S
O413 C415 1.214 . S
O414 Cd410 2.352 . S
O414 C417 1.258 . S
C415 O412 1.320 . S
C415 O413 1.214 . S
O416 Cd408 2.277 . S
O416 C411 1.209 . S
C417 O414 1.258 . S
C417 O419 1.282 . S
O418 Cd410 2.277 . S
O418 C411 1.226 . S
O419 Cd410 2.356 . S
O419 C417 1.282 . S
C420 O421 1.306 . S
C420 O423 1.160 . S
O421 C420 1.306 . S
O421 Cd422 2.228 . S
Cd422 O421 2.228 . S
Cd422 O426 2.273 . S
Cd422 O430 2.277 . S
O423 C420 1.160 . S
O423 Cd424 2.203 . S
Cd424 O423 2.203 . S
Cd424 O426 2.411 . S
Cd424 O427 2.333 . S
Cd424 O428 2.352 . S
Cd424 O432 2.277 . S
Cd424 O433 2.356 . S
C425 O430 1.209 . S
C425 O432 1.226 . S
O426 Cd422 2.273 . S
O426 Cd424 2.411 . S
O426 C429 1.320 . S
O427 Cd424 2.333 . S
O427 C429 1.214 . S
O428 Cd424 2.352 . S
O428 C431 1.258 . S
C429 O426 1.320 . S
C429 O427 1.214 . S
O430 Cd422 2.277 . S
O430 C425 1.209 . S
C431 O428 1.258 . S
C431 O433 1.282 . S
O432 Cd424 2.277 . S
O432 C425 1.226 . S
O433 Cd424 2.356 . S
O433 C431 1.282 . S
C434 O435 1.306 . S
C434 O437 1.160 . S
O435 C434 1.306 . S
O435 Cd436 2.228 . S
Cd436 O435 2.228 . S
Cd436 O440 2.273 . S
Cd436 O444 2.277 . S
O437 C434 1.160 . S
O437 Cd438 2.203 . S
Cd438 O437 2.203 . S
Cd438 O440 2.411 . S
Cd438 O441 2.333 . S
Cd438 O442 2.352 . S
Cd438 O446 2.277 . S
Cd438 O447 2.356 . S
C439 O444 1.209 . S
C439 O446 1.226 . S
O440 Cd436 2.273 . S
O440 Cd438 2.411 . S
O440 C443 1.320 . S
O441 Cd438 2.333 . S
O441 C443 1.214 . S
O442 Cd438 2.352 . S
O442 C445 1.258 . S
C443 O440 1.320 . S
C443 O441 1.214 . S
O444 Cd436 2.277 . S
O444 C439 1.209 . S
C445 O442 1.258 . S
C445 O447 1.282 . S
O446 Cd438 2.277 . S
O446 C439 1.226 . S
O447 Cd438 2.356 . S
O447 C445 1.282 . S
H448 C456 0.949 1_655 S
H449 C461 0.950 . S
H450 C458 0.950 . S
H451 C460 0.950 1_556 S
H452 C462 0.950 . S
H453 C464 0.950 . S
H454 C466 0.970 . S
H455 C467 0.950 . S
C456 H448 0.949 1_455 S
C456 C457 1.386 . S
C456 C458 1.391 1_455 S
C457 C456 1.386 . S
C457 C461 1.393 . S
C458 H450 0.950 . S
C458 C456 1.391 1_655 S
C458 C459 1.400 1_655 S
C459 C458 1.400 1_455 S
C459 C460 1.398 . S
C459 C465 1.491 1_444 S
C460 H451 0.950 1_554 S
C460 C459 1.398 . S
C460 C461 1.391 . S
C461 H449 0.950 . S
C461 C457 1.393 . S
C461 C460 1.391 . S
C462 H452 0.950 . S
C462 C463 1.386 . S
C462 C464 1.391 1_655 S
C463 C462 1.386 . S
C463 C467 1.393 . S
C464 H453 0.950 . S
C464 C462 1.391 1_455 S
C464 C465 1.400 1_455 S
C465 C459 1.491 1_666 S
C465 C464 1.400 1_655 S
C465 C466 1.394 1_556 S
C466 H454 0.970 . S
C466 C465 1.394 1_554 S
C466 C467 1.377 1_554 S
C467 H455 0.950 . S
C467 C463 1.393 . S
C467 C466 1.377 1_556 S
H468 C476 0.950 . S
H469 C481 0.950 . S
H470 C478 0.950 . S
H471 C480 0.950 . S
H472 C482 0.950 . S
H473 C484 0.950 . S
H474 C486 0.950 . S
H475 C487 0.950 . S
C476 H468 0.950 . S
C476 C477 1.386 . S
C476 C478 1.391 . S
C477 C476 1.386 . S
C477 C481 1.393 . S
C478 H470 0.950 . S
C478 C476 1.391 . S
C478 C479 1.400 . S
C479 C478 1.400 . S
C479 C480 1.398 . S
C479 C485 1.491 . S
C480 H471 0.950 . S
C480 C479 1.398 . S
C480 C481 1.391 . S
C481 H469 0.950 . S
C481 C477 1.393 . S
C481 C480 1.391 . S
C482 H472 0.950 . S
C482 C483 1.386 . S
C482 C484 1.391 . S
C483 C482 1.386 . S
C483 C487 1.393 . S
C484 H473 0.950 . S
C484 C482 1.391 . S
C484 C485 1.400 . S
C485 C479 1.491 . S
C485 C484 1.400 . S
C485 C486 1.398 . S
C486 H474 0.950 . S
C486 C485 1.398 . S
C486 C487 1.391 . S
C487 H475 0.950 . S
C487 C483 1.393 . S
C487 C486 1.391 . S
H488 C496 0.950 . S
H489 C501 0.950 . S
H490 C498 0.950 . S
H491 C500 0.950 . S
H492 C502 0.950 . S
H493 C504 0.950 1_565 S
H494 C506 0.950 . S
H495 C507 0.950 . S
C496 H488 0.950 . S
C496 C497 1.386 . S
C496 C498 1.391 1_565 S
C497 C496 1.386 . S
C497 C501 1.393 . S
C498 H490 0.950 . S
C498 C496 1.391 1_545 S
C498 C499 1.400 1_545 S
C499 C498 1.400 1_565 S
C499 C500 1.398 . S
C499 C505 1.491 1_565 S
C500 H491 0.950 . S
C500 C499 1.398 . S
C500 C501 1.391 . S
C501 H489 0.950 . S
C501 C497 1.393 . S
C501 C500 1.391 . S
C502 H492 0.950 . S
C502 C503 1.386 . S
C502 C504 1.391 . S
C503 C502 1.386 . S
C503 C507 1.393 . S
C504 H493 0.950 1_545 S
C504 C502 1.391 . S
C504 C505 1.400 . S
C505 C499 1.491 1_545 S
C505 C504 1.400 . S
C505 C506 1.398 . S
C506 H494 0.950 . S
C506 C505 1.398 . S
C506 C507 1.391 . S
C507 H495 0.950 . S
C507 C503 1.393 . S
C507 C506 1.391 . S
H508 C516 0.950 . S
H509 C521 0.950 . S
H510 C518 0.950 . S
H511 C520 0.950 . S
H512 C522 0.950 . S
H513 C524 0.950 . S
H514 C526 0.950 . S
H515 C527 0.950 . S
C516 H508 0.950 . S
C516 C517 1.386 . S
C516 C518 1.391 . S
C517 C516 1.386 . S
C517 C521 1.393 . S
C518 H510 0.950 . S
C518 C516 1.391 . S
C518 C519 1.400 . S
C519 C518 1.400 . S
C519 C520 1.398 . S
C519 C525 1.491 . S
C520 H511 0.950 . S
C520 C519 1.398 . S
C520 C521 1.391 . S
C521 H509 0.950 . S
C521 C517 1.393 . S
C521 C520 1.391 . S
C522 H512 0.950 . S
C522 C523 1.386 . S
C522 C524 1.391 . S
C523 C522 1.386 . S
C523 C527 1.393 . S
C524 H513 0.950 . S
C524 C522 1.391 . S
C524 C525 1.400 . S
C525 C519 1.491 . S
C525 C524 1.400 . S
C525 C526 1.398 . S
C526 H514 0.950 . S
C526 C525 1.398 . S
C526 C527 1.391 . S
C527 H515 0.950 . S
C527 C523 1.393 . S
C527 C526 1.391 . S
H528 C536 0.950 . S
H529 C541 0.932 1_655 S
H530 C538 0.950 1_545 S
H531 C540 0.950 . S
H532 C542 0.950 . S
H533 C544 0.950 1_565 S
H534 C546 0.950 . S
H535 C547 0.950 . S
C536 H528 0.950 . S
C536 C537 1.386 . S
C536 C538 1.391 . S
C537 C536 1.386 . S
C537 C541 1.393 . S
C538 H530 0.950 1_565 S
C538 C536 1.391 . S
C538 C539 1.400 . S
C539 C538 1.400 . S
C539 C540 1.398 1_455 S
C539 C545 1.491 1_465 S
C540 H531 0.950 . S
C540 C539 1.398 1_655 S
C540 C541 1.391 1_655 S
C541 H529 0.932 1_455 S
C541 C537 1.393 . S
C541 C540 1.391 1_455 S
C542 H532 0.950 . S
C542 C543 1.386 . S
C542 C544 1.391 . S
C543 C542 1.386 . S
C543 C547 1.393 . S
C544 H533 0.950 1_545 S
C544 C542 1.391 . S
C544 C545 1.400 . S
C545 C539 1.491 1_645 S
C545 C544 1.400 . S
C545 C546 1.398 1_655 S
C546 H534 0.950 . S
C546 C545 1.398 1_455 S
C546 C547 1.391 1_455 S
C547 H535 0.950 . S
C547 C543 1.393 . S
C547 C546 1.391 1_655 S
H548 C556 0.950 . S
H549 C561 0.950 . S
H550 C558 0.950 . S
H551 C560 0.950 . S
H552 C562 0.950 . S
H553 C564 0.950 . S
H554 C566 0.950 . S
H555 C567 0.950 . S
C556 H548 0.950 . S
C556 C557 1.386 . S
C556 C558 1.391 . S
C557 C556 1.386 . S
C557 C561 1.393 . S
C558 H550 0.950 . S
C558 C556 1.391 . S
C558 C559 1.400 . S
C559 C558 1.400 . S
C559 C560 1.398 . S
C559 C565 1.491 . S
C560 H551 0.950 . S
C560 C559 1.398 . S
C560 C561 1.391 . S
C561 H549 0.950 . S
C561 C557 1.393 . S
C561 C560 1.391 . S
C562 H552 0.950 . S
C562 C563 1.386 . S
C562 C564 1.391 . S
C563 C562 1.386 . S
C563 C567 1.393 . S
C564 H553 0.950 . S
C564 C562 1.391 . S
C564 C565 1.400 . S
C565 C559 1.491 . S
C565 C564 1.400 . S
C565 C566 1.398 . S
C566 H554 0.950 . S
C566 C565 1.398 . S
C566 C567 1.391 . S
C567 H555 0.950 . S
C567 C563 1.393 . S
C567 C566 1.391 . S
H568 C576 0.950 . S
H569 C581 0.950 . S
H570 C578 0.946 1_554 S
H571 C580 0.950 1_565 S
H572 C582 0.950 . S
H573 C584 0.950 . S
H574 C586 0.950 1_545 S
H575 C587 0.950 . S
C576 H568 0.950 . S
C576 C577 1.386 . S
C576 C578 1.393 . S
C577 C576 1.386 . S
C577 C581 1.393 . S
C578 H570 0.946 1_556 S
C578 C576 1.393 . S
C578 C579 1.402 . S
C579 C578 1.402 . S
C579 C580 1.398 . S
C579 C585 1.491 1_546 S
C580 H571 0.950 1_545 S
C580 C579 1.398 . S
C580 C581 1.391 . S
C581 H569 0.950 . S
C581 C577 1.393 . S
C581 C580 1.391 . S
C582 H572 0.950 . S
C582 C583 1.386 . S
C582 C584 1.391 1_554 S
C583 C582 1.386 . S
C583 C587 1.393 . S
C584 H573 0.950 . S
C584 C582 1.391 1_556 S
C584 C585 1.400 1_556 S
C585 C579 1.491 1_564 S
C585 C584 1.400 1_554 S
C585 C586 1.398 . S
C586 H574 0.950 1_565 S
C586 C585 1.398 . S
C586 C587 1.391 . S
C587 H575 0.950 . S
C587 C583 1.393 . S
C587 C586 1.391 . S
H588 C596 0.950 . S
H589 C601 0.950 . S
H590 C598 0.950 . S
H591 C600 0.950 . S
H592 C602 0.950 . S
H593 C604 0.950 . S
H594 C606 0.950 . S
H595 C607 0.950 . S
C596 H588 0.950 . S
C596 C597 1.386 . S
C596 C598 1.391 . S
C597 C596 1.386 . S
C597 C601 1.393 . S
C598 H590 0.950 . S
C598 C596 1.391 . S
C598 C599 1.400 . S
C599 C598 1.400 . S
C599 C600 1.398 . S
C599 C605 1.491 . S
C600 H591 0.950 . S
C600 C599 1.398 . S
C600 C601 1.391 . S
C601 H589 0.950 . S
C601 C597 1.393 . S
C601 C600 1.391 . S
C602 H592 0.950 . S
C602 C603 1.386 . S
C602 C604 1.391 . S
C603 C602 1.386 . S
C603 C607 1.393 . S
C604 H593 0.950 . S
C604 C602 1.391 . S
C604 C605 1.400 . S
C605 C599 1.491 . S
C605 C604 1.400 . S
C605 C606 1.398 . S
C606 H594 0.950 . S
C606 C605 1.398 . S
C606 C607 1.391 . S
C607 H595 0.950 . S
C607 C603 1.393 . S
C607 C606 1.391 . S
H608 C616 0.950 . S
H609 C621 0.950 . S
H610 C618 0.950 . S
H611 C620 0.950 . S
H612 C622 0.950 . S
H613 C624 0.950 . S
H614 C626 0.951 1_554 S
H615 C627 0.950 . S
C616 H608 0.950 . S
C616 C617 1.386 . S
C616 C618 1.391 . S
C617 C616 1.386 . S
C617 C621 1.393 . S
C618 H610 0.950 . S
C618 C616 1.391 . S
C618 C619 1.400 . S
C619 C618 1.400 . S
C619 C620 1.398 1_554 S
C619 C625 1.491 1_554 S
C620 H611 0.950 . S
C620 C619 1.398 1_556 S
C620 C621 1.391 1_556 S
C621 H609 0.950 . S
C621 C617 1.393 . S
C621 C620 1.391 1_554 S
C622 H612 0.950 . S
C622 C623 1.386 . S
C622 C624 1.391 . S
C623 C622 1.386 . S
C623 C627 1.393 . S
C624 H613 0.950 . S
C624 C622 1.391 . S
C624 C625 1.400 . S
C625 C619 1.491 1_556 S
C625 C624 1.400 . S
C625 C626 1.398 . S
C626 H614 0.951 1_556 S
C626 C625 1.398 . S
C626 C627 1.390 . S
C627 H615 0.950 . S
C627 C623 1.393 . S
C627 C626 1.390 . S
H628 C636 0.950 . S
H629 C641 0.950 . S
H630 C638 0.950 . S
H631 C640 0.950 . S
H632 C642 0.950 . S
H633 C644 0.950 . S
H634 C646 0.950 . S
H635 C647 0.950 . S
C636 H628 0.950 . S
C636 C637 1.386 . S
C636 C638 1.391 . S
C637 C636 1.386 . S
C637 C641 1.393 . S
C638 H630 0.950 . S
C638 C636 1.391 . S
C638 C639 1.400 . S
C639 C638 1.400 . S
C639 C640 1.398 . S
C639 C645 1.491 . S
C640 H631 0.950 . S
C640 C639 1.398 . S
C640 C641 1.391 . S
C641 H629 0.950 . S
C641 C637 1.393 . S
C641 C640 1.391 . S
C642 H632 0.950 . S
C642 C643 1.386 . S
C642 C644 1.391 . S
C643 C642 1.386 . S
C643 C647 1.393 . S
C644 H633 0.950 . S
C644 C642 1.391 . S
C644 C645 1.400 . S
C645 C639 1.491 . S
C645 C644 1.400 . S
C645 C646 1.398 . S
C646 H634 0.950 . S
C646 C645 1.398 . S
C646 C647 1.391 . S
C647 H635 0.950 . S
C647 C643 1.393 . S
C647 C646 1.391 . S
H648 C656 0.950 . S
H649 C661 0.950 . S
H650 C658 0.950 . S
H651 C660 0.926 1_655 S
H652 C662 0.950 . S
H653 C664 0.950 . S
H654 C666 0.950 . S
H655 C667 0.950 . S
C656 H648 0.950 . S
C656 C657 1.386 . S
C656 C658 1.391 . S
C657 C656 1.386 . S
C657 C661 1.393 . S
C658 H650 0.950 . S
C658 C656 1.391 . S
C658 C659 1.400 . S
C659 C658 1.400 . S
C659 C660 1.408 . S
C659 C665 1.491 1_455 S
C660 H651 0.926 1_455 S
C660 C659 1.408 . S
C660 C661 1.405 . S
C661 H649 0.950 . S
C661 C657 1.393 . S
C661 C660 1.405 . S
C662 H652 0.950 . S
C662 C663 1.386 . S
C662 C664 1.391 . S
C663 C662 1.386 . S
C663 C667 1.393 . S
C664 H653 0.950 . S
C664 C662 1.391 . S
C664 C665 1.400 . S
C665 C659 1.491 1_655 S
C665 C664 1.400 . S
C665 C666 1.398 1_655 S
C666 H654 0.950 . S
C666 C665 1.398 1_455 S
C666 C667 1.391 1_455 S
C667 H655 0.950 . S
C667 C663 1.393 . S
C667 C666 1.391 1_655 S
H668 C676 0.950 . S
H669 C681 0.950 . S
H670 C678 0.950 . S
H671 C680 0.950 . S
H672 C682 0.950 . S
H673 C684 0.950 . S
H674 C686 0.950 . S
H675 C687 0.950 . S
C676 H668 0.950 . S
C676 C677 1.386 . S
C676 C678 1.391 . S
C677 C676 1.386 . S
C677 C681 1.393 . S
C678 H670 0.950 . S
C678 C676 1.391 . S
C678 C679 1.400 . S
C679 C678 1.400 . S
C679 C680 1.398 . S
C679 C685 1.491 . S
C680 H671 0.950 . S
C680 C679 1.398 . S
C680 C681 1.391 . S
C681 H669 0.950 . S
C681 C677 1.393 . S
C681 C680 1.391 . S
C682 H672 0.950 . S
C682 C683 1.386 . S
C682 C684 1.391 . S
C683 C682 1.386 . S
C683 C687 1.393 . S
C684 H673 0.950 . S
C684 C682 1.391 . S
C684 C685 1.400 . S
C685 C679 1.491 . S
C685 C684 1.400 . S
C685 C686 1.398 . S
C686 H674 0.950 . S
C686 C685 1.398 . S
C686 C687 1.391 . S
C687 H675 0.950 . S
C687 C683 1.393 . S
C687 C686 1.391 . S
H688 C696 0.950 . S
H689 C701 0.950 . S
H690 C698 0.950 . S
H691 C700 0.950 . S
H692 C702 0.950 . S
H693 C704 0.950 . S
H694 C706 0.950 . S
H695 C707 0.950 . S
C696 H688 0.950 . S
C696 C697 1.386 . S
C696 C698 1.391 . S
C697 C696 1.386 . S
C697 C701 1.393 . S
C698 H690 0.950 . S
C698 C696 1.391 . S
C698 C699 1.400 . S
C699 C698 1.400 . S
C699 C700 1.398 . S
C699 C705 1.491 . S
C700 H691 0.950 . S
C700 C699 1.398 . S
C700 C701 1.391 . S
C701 H689 0.950 . S
C701 C697 1.393 . S
C701 C700 1.391 . S
C702 H692 0.950 . S
C702 C703 1.386 . S
C702 C704 1.391 . S
C703 C702 1.386 . S
C703 C707 1.393 . S
C704 H693 0.950 . S
C704 C702 1.391 . S
C704 C705 1.400 . S
C705 C699 1.491 . S
C705 C704 1.400 . S
C705 C706 1.398 . S
C706 H694 0.950 . S
C706 C705 1.398 . S
C706 C707 1.391 . S
C707 H695 0.950 . S
C707 C703 1.393 . S
C707 C706 1.391 . S
H708 C716 0.950 . S
H709 C721 0.950 . S
H710 C718 0.950 . S
H711 C720 0.950 . S
H712 C722 0.950 . S
H713 C724 0.950 . S
H714 C726 0.950 . S
H715 C727 0.950 . S
C716 H708 0.950 . S
C716 C717 1.386 . S
C716 C718 1.391 . S
C717 C716 1.386 . S
C717 C721 1.393 . S
C718 H710 0.950 . S
C718 C716 1.391 . S
C718 C719 1.400 . S
C719 C718 1.400 . S
C719 C720 1.398 . S
C719 C725 1.491 . S
C720 H711 0.950 . S
C720 C719 1.398 . S
C720 C721 1.391 . S
C721 H709 0.950 . S
C721 C717 1.393 . S
C721 C720 1.391 . S
C722 H712 0.950 . S
C722 C723 1.386 . S
C722 C724 1.391 . S
C723 C722 1.386 . S
C723 C727 1.393 . S
C724 H713 0.950 . S
C724 C722 1.391 . S
C724 C725 1.400 . S
C725 C719 1.491 . S
C725 C724 1.400 . S
C725 C726 1.398 . S
C726 H714 0.950 . S
C726 C725 1.398 . S
C726 C727 1.391 . S
C727 H715 0.950 . S
C727 C723 1.393 . S
C727 C726 1.391 . S
H728 C736 0.950 . S
H729 C741 0.950 . S
H730 C738 0.950 . S
H731 C740 0.950 . S
H732 C742 0.950 . S
H733 C744 0.950 . S
H734 C746 0.950 . S
H735 C747 0.950 . S
C736 H728 0.950 . S
C736 C737 1.386 . S
C736 C738 1.391 . S
C737 C736 1.386 . S
C737 C741 1.393 . S
C738 H730 0.950 . S
C738 C736 1.391 . S
C738 C739 1.400 . S
C739 C738 1.400 . S
C739 C740 1.398 . S
C739 C745 1.491 . S
C740 H731 0.950 . S
C740 C739 1.398 . S
C740 C741 1.391 . S
C741 H729 0.950 . S
C741 C737 1.393 . S
C741 C740 1.391 . S
C742 H732 0.950 . S
C742 C743 1.386 . S
C742 C744 1.391 . S
C743 C742 1.386 . S
C743 C747 1.393 . S
C744 H733 0.950 . S
C744 C742 1.391 . S
C744 C745 1.400 . S
C745 C739 1.491 . S
C745 C744 1.400 . S
C745 C746 1.398 . S
C746 H734 0.950 . S
C746 C745 1.398 . S
C746 C747 1.391 . S
C747 H735 0.950 . S
C747 C743 1.393 . S
C747 C746 1.391 . S
H748 C756 0.950 . S
H749 C761 0.950 . S
H750 C758 0.950 1_655 S
H751 C760 0.950 . S
H752 C762 0.950 . S
H753 C764 0.950 . S
H754 C766 0.950 1_556 S
H755 C767 0.950 . S
C756 H748 0.950 . S
C756 C757 1.386 . S
C756 C758 1.391 . S
C757 C756 1.386 . S
C757 C761 1.393 . S
C758 H750 0.950 1_455 S
C758 C756 1.391 . S
C758 C759 1.400 . S
C759 C758 1.400 . S
C759 C760 1.398 1_556 S
C759 C765 1.491 1_456 S
C760 H751 0.950 . S
C760 C759 1.398 1_554 S
C760 C761 1.391 1_554 S
C761 H749 0.950 . S
C761 C757 1.393 . S
C761 C760 1.391 1_556 S
C762 H752 0.950 . S
C762 C763 1.386 . S
C762 C764 1.391 1_655 S
C763 C762 1.386 . S
C763 C767 1.393 . S
C764 H753 0.950 . S
C764 C762 1.391 1_455 S
C764 C765 1.400 1_455 S
C765 C759 1.491 1_654 S
C765 C764 1.400 1_655 S
C765 C766 1.398 . S
C766 H754 0.950 1_554 S
C766 C765 1.398 . S
C766 C767 1.391 . S
C767 H755 0.950 . S
C767 C763 1.393 . S
C767 C766 1.391 . S
H768 C776 0.950 . S
H769 C781 0.950 . S
H770 C778 0.950 . S
H771 C780 0.950 . S
H772 C782 0.950 . S
H773 C784 0.950 . S
H774 C786 0.950 . S
H775 C787 0.950 . S
C776 H768 0.950 . S
C776 C777 1.386 . S
C776 C778 1.391 1_545 S
C777 C776 1.386 . S
C777 C781 1.393 . S
C778 H770 0.950 . S
C778 C776 1.391 1_565 S
C778 C779 1.400 . S
C779 C778 1.400 . S
C779 C780 1.398 1_565 S
C779 C785 1.491 . S
C780 H771 0.950 . S
C780 C779 1.398 1_545 S
C780 C781 1.391 . S
C781 H769 0.950 . S
C781 C777 1.393 . S
C781 C780 1.391 . S
C782 H772 0.950 . S
C782 C783 1.386 . S
C782 C784 1.391 . S
C783 C782 1.386 . S
C783 C787 1.393 . S
C784 H773 0.950 . S
C784 C782 1.391 . S
C784 C785 1.400 . S
C785 C779 1.491 . S
C785 C784 1.400 . S
C785 C786 1.398 . S
C786 H774 0.950 . S
C786 C785 1.398 . S
C786 C787 1.391 . S
C787 H775 0.950 . S
C787 C783 1.393 . S
C787 C786 1.391 . S
H788 C796 0.950 . S
H789 C801 0.950 . S
H790 C798 0.950 . S
H791 C800 0.950 . S
H792 C802 0.950 . S
H793 C804 0.950 . S
H794 C806 0.950 . S
H795 C807 0.950 . S
C796 H788 0.950 . S
C796 C797 1.386 . S
C796 C798 1.391 . S
C797 C796 1.386 . S
C797 C801 1.393 . S
C798 H790 0.950 . S
C798 C796 1.391 . S
C798 C799 1.400 . S
C799 C798 1.400 . S
C799 C800 1.398 . S
C799 C805 1.491 . S
C800 H791 0.950 . S
C800 C799 1.398 . S
C800 C801 1.391 . S
C801 H789 0.950 . S
C801 C797 1.393 . S
C801 C800 1.391 . S
C802 H792 0.950 . S
C802 C803 1.386 . S
C802 C804 1.391 . S
C803 C802 1.386 . S
C803 C807 1.393 . S
C804 H793 0.950 . S
C804 C802 1.391 . S
C804 C805 1.400 . S
C805 C799 1.491 . S
C805 C804 1.400 . S
C805 C806 1.398 . S
C806 H794 0.950 . S
C806 C805 1.398 . S
C806 C807 1.391 . S
C807 H795 0.950 . S
C807 C803 1.393 . S
C807 C806 1.391 . S
H808 C816 0.950 . S
H809 C821 0.950 . S
H810 C818 0.950 . S
H811 C820 0.950 . S
H812 C822 0.950 . S
H813 C824 0.950 1_545 S
H814 C826 0.950 . S
H815 C827 0.950 . S
C816 H808 0.950 . S
C816 C817 1.386 . S
C816 C818 1.391 . S
C817 C816 1.386 . S
C817 C821 1.393 . S
C818 H810 0.950 . S
C818 C816 1.391 . S
C818 C819 1.400 . S
C819 C818 1.400 . S
C819 C820 1.398 . S
C819 C825 1.491 . S
C820 H811 0.950 . S
C820 C819 1.398 . S
C820 C821 1.391 . S
C821 H809 0.950 . S
C821 C817 1.393 . S
C821 C820 1.391 . S
C822 H812 0.950 . S
C822 C823 1.386 . S
C822 C824 1.391 . S
C823 C822 1.386 . S
C823 C827 1.393 . S
C824 H813 0.950 1_565 S
C824 C822 1.391 . S
C824 C825 1.400 1_565 S
C825 C819 1.491 . S
C825 C824 1.400 1_545 S
C825 C826 1.398 1_545 S
C826 H814 0.950 . S
C826 C825 1.398 1_565 S
C826 C827 1.391 . S
C827 H815 0.950 . S
C827 C823 1.393 . S
C827 C826 1.391 . S
H828 C836 0.950 . S
H829 C841 0.950 . S
H830 C838 0.950 1_554 S
H831 C840 0.950 . S
H832 C842 0.950 . S
H833 C844 0.950 1_556 S
H834 C846 0.950 . S
H835 C847 0.950 . S
C836 H828 0.950 . S
C836 C837 1.386 . S
C836 C838 1.391 . S
C837 C836 1.386 . S
C837 C841 1.393 . S
C838 H830 0.950 1_556 S
C838 C836 1.391 . S
C838 C839 1.400 . S
C839 C838 1.400 . S
C839 C840 1.398 . S
C839 C845 1.491 1_556 S
C840 H831 0.950 . S
C840 C839 1.398 . S
C840 C841 1.391 . S
C841 H829 0.950 . S
C841 C837 1.393 . S
C841 C840 1.391 . S
C842 H832 0.950 . S
C842 C843 1.386 . S
C842 C844 1.391 . S
C843 C842 1.386 . S
C843 C847 1.393 . S
C844 H833 0.950 1_554 S
C844 C842 1.391 . S
C844 C845 1.400 . S
C845 C839 1.491 1_554 S
C845 C844 1.400 . S
C845 C846 1.398 . S
C846 H834 0.950 . S
C846 C845 1.398 . S
C846 C847 1.391 . S
C847 H835 0.950 . S
C847 C843 1.393 . S
C847 C846 1.391 . S
H848 C856 0.950 . S
H849 C861 0.950 . S
H850 C858 0.950 . S
H851 C860 0.950 . S
H852 C862 0.950 . S
H853 C864 0.943 1_545 S
H854 C866 0.950 1_545 S
H855 C867 0.950 . S
C856 H848 0.950 . S
C856 C857 1.386 . S
C856 C858 1.391 . S
C857 C856 1.386 . S
C857 C861 1.393 . S
C858 H850 0.950 . S
C858 C856 1.391 . S
C858 C859 1.400 . S
C859 C858 1.400 . S
C859 C860 1.398 . S
C859 C865 1.491 . S
C860 H851 0.950 . S
C860 C859 1.398 . S
C860 C861 1.391 . S
C861 H849 0.950 . S
C861 C857 1.393 . S
C861 C860 1.391 . S
C862 H852 0.950 . S
C862 C863 1.386 . S
C862 C864 1.391 . S
C863 C862 1.386 . S
C863 C867 1.393 . S
C864 H853 0.943 1_565 S
C864 C862 1.391 . S
C864 C865 1.400 1_565 S
C865 C859 1.491 . S
C865 C864 1.400 1_545 S
C865 C866 1.398 1_545 S
C866 H854 0.950 1_565 S
C866 C865 1.398 1_565 S
C866 C867 1.391 . S
C867 H855 0.950 . S
C867 C863 1.393 . S
C867 C866 1.391 . S
H868 C876 0.950 . S
H869 C881 0.950 . S
H870 C878 0.950 . S
H871 C880 0.950 . S
H872 C882 0.950 . S
H873 C884 0.950 . S
H874 C886 0.950 . S
H875 C887 0.950 . S
C876 H868 0.950 . S
C876 C877 1.386 . S
C876 C878 1.391 . S
C877 C876 1.386 . S
C877 C881 1.393 . S
C878 H870 0.950 . S
C878 C876 1.391 . S
C878 C879 1.400 . S
C879 C878 1.400 . S
C879 C880 1.398 . S
C879 C885 1.491 . S
C880 H871 0.950 . S
C880 C879 1.398 . S
C880 C881 1.391 . S
C881 H869 0.950 . S
C881 C877 1.393 . S
C881 C880 1.391 . S
C882 H872 0.950 . S
C882 C883 1.386 . S
C882 C884 1.391 . S
C883 C882 1.386 . S
C883 C887 1.393 . S
C884 H873 0.950 . S
C884 C882 1.391 . S
C884 C885 1.400 . S
C885 C879 1.491 . S
C885 C884 1.400 . S
C885 C886 1.398 . S
C886 H874 0.950 . S
C886 C885 1.398 . S
C886 C887 1.391 . S
C887 H875 0.950 . S
C887 C883 1.393 . S
C887 C886 1.391 . S
H888 C896 0.950 . S
H889 C901 0.950 . S
H890 C898 0.950 . S
H891 C900 0.950 . S
H892 C902 0.950 . S
H893 C904 0.950 . S
H894 C906 0.950 . S
H895 C907 0.950 . S
C896 H888 0.950 . S
C896 C897 1.386 . S
C896 C898 1.391 . S
C897 C896 1.386 . S
C897 C901 1.393 . S
C898 H890 0.950 . S
C898 C896 1.391 . S
C898 C899 1.400 1_545 S
C899 C898 1.400 1_565 S
C899 C900 1.398 . S
C899 C905 1.491 . S
C900 H891 0.950 . S
C900 C899 1.398 . S
C900 C901 1.391 1_565 S
C901 H889 0.950 . S
C901 C897 1.393 . S
C901 C900 1.391 1_545 S
C902 H892 0.950 . S
C902 C903 1.386 . S
C902 C904 1.391 . S
C903 C902 1.386 . S
C903 C907 1.393 . S
C904 H893 0.950 . S
C904 C902 1.391 . S
C904 C905 1.400 . S
C905 C899 1.491 . S
C905 C904 1.400 . S
C905 C906 1.398 . S
C906 H894 0.950 . S
C906 C905 1.398 . S
C906 C907 1.391 . S
C907 H895 0.950 . S
C907 C903 1.393 . S
C907 C906 1.391 . S
H908 C916 0.950 . S
H909 C921 0.950 . S
H910 C918 0.950 1_554 S
H911 C920 0.950 . S
H912 C922 0.950 . S
H913 C924 0.950 1_556 S
H914 C926 0.950 . S
H915 C927 0.950 . S
C916 H908 0.950 . S
C916 C917 1.386 . S
C916 C918 1.391 . S
C917 C916 1.386 . S
C917 C921 1.393 . S
C918 H910 0.950 1_556 S
C918 C916 1.391 . S
C918 C919 1.400 . S
C919 C918 1.400 . S
C919 C920 1.398 . S
C919 C925 1.491 1_556 S
C920 H911 0.950 . S
C920 C919 1.398 . S
C920 C921 1.391 . S
C921 H909 0.950 . S
C921 C917 1.393 . S
C921 C920 1.391 . S
C922 H912 0.950 . S
C922 C923 1.386 . S
C922 C924 1.391 . S
C923 C922 1.386 . S
C923 C927 1.393 . S
C924 H913 0.950 1_554 S
C924 C922 1.391 . S
C924 C925 1.400 . S
C925 C919 1.491 1_554 S
C925 C924 1.400 . S
C925 C926 1.398 . S
C926 H914 0.950 . S
C926 C925 1.398 . S
C926 C927 1.391 . S
C927 H915 0.950 . S
C927 C923 1.393 . S
C927 C926 1.391 . S
H928 C936 0.950 . S
H929 C941 0.950 . S
H930 C938 0.950 . S
H931 C940 0.950 . S
H932 C942 0.950 . S
H933 C944 0.950 . S
H934 C946 0.950 . S
H935 C947 0.950 . S
C936 H928 0.950 . S
C936 C937 1.386 . S
C936 C938 1.391 . S
C937 C936 1.386 . S
C937 C941 1.393 . S
C938 H930 0.950 . S
C938 C936 1.391 . S
C938 C939 1.400 . S
C939 C938 1.400 . S
C939 C940 1.398 . S
C939 C945 1.491 . S
C940 H931 0.950 . S
C940 C939 1.398 . S
C940 C941 1.391 . S
C941 H929 0.950 . S
C941 C937 1.393 . S
C941 C940 1.391 . S
C942 H932 0.950 . S
C942 C943 1.386 . S
C942 C944 1.391 . S
C943 C942 1.386 . S
C943 C947 1.393 . S
C944 H933 0.950 . S
C944 C942 1.391 . S
C944 C945 1.400 1_455 S
C945 C939 1.491 . S
C945 C944 1.400 1_655 S
C945 C946 1.398 . S
C946 H934 0.950 . S
C946 C945 1.398 . S
C946 C947 1.391 1_655 S
C947 H935 0.950 . S
C947 C943 1.393 . S
C947 C946 1.391 1_455 S
H948 C956 0.950 . S
H949 C961 0.950 . S
H950 C958 0.950 . S
H951 C960 0.950 . S
H952 C962 0.950 . S
H953 C964 0.950 . S
H954 C966 0.950 . S
H955 C967 0.950 . S
C956 H948 0.950 . S
C956 C957 1.386 . S
C956 C958 1.391 . S
C957 C956 1.386 . S
C957 C961 1.393 . S
C958 H950 0.950 . S
C958 C956 1.391 . S
C958 C959 1.400 . S
C959 C958 1.400 . S
C959 C960 1.398 . S
C959 C965 1.491 . S
C960 H951 0.950 . S
C960 C959 1.398 . S
C960 C961 1.391 . S
C961 H949 0.950 . S
C961 C957 1.393 . S
C961 C960 1.391 . S
C962 H952 0.950 . S
C962 C963 1.386 . S
C962 C964 1.391 . S
C963 C962 1.386 . S
C963 C967 1.393 . S
C964 H953 0.950 . S
C964 C962 1.391 . S
C964 C965 1.400 . S
C965 C959 1.491 . S
C965 C964 1.400 . S
C965 C966 1.398 . S
C966 H954 0.950 . S
C966 C965 1.398 . S
C966 C967 1.391 . S
C967 H955 0.950 . S
C967 C963 1.393 . S
C967 C966 1.391 . S
H968 C976 0.950 . S
H969 C981 0.950 . S
H970 C978 0.951 . S
H971 C980 0.950 . S
H972 C982 0.950 . S
H973 C984 0.950 . S
H974 C986 0.950 . S
H975 C987 0.950 . S
C976 H968 0.950 . S
C976 C977 1.386 . S
C976 C978 1.391 . S
C977 C976 1.386 . S
C977 C981 1.393 . S
C978 H970 0.951 . S
C978 C976 1.391 . S
C978 C979 1.400 1_655 S
C979 C978 1.400 1_455 S
C979 C980 1.398 . S
C979 C985 1.491 . S
C980 H971 0.950 . S
C980 C979 1.398 . S
C980 C981 1.391 1_455 S
C981 H969 0.950 . S
C981 C977 1.393 . S
C981 C980 1.391 1_655 S
C982 H972 0.950 . S
C982 C983 1.386 . S
C982 C984 1.391 . S
C983 C982 1.386 . S
C983 C987 1.393 . S
C984 H973 0.950 . S
C984 C982 1.391 . S
C984 C985 1.400 . S
C985 C979 1.491 . S
C985 C984 1.400 . S
C985 C986 1.398 . S
C986 H974 0.950 . S
C986 C985 1.398 . S
C986 C987 1.391 . S
C987 H975 0.950 . S
C987 C983 1.393 . S
C987 C986 1.391 . S
H988 C996 0.950 . S
H989 C1001 0.950 . S
H990 C998 0.950 . S
H991 C1000 0.950 . S
H992 C1002 0.950 . S
H993 C1004 0.950 . S
H994 C1006 0.950 . S
H995 C1007 0.950 . S
C996 H988 0.950 . S
C996 C997 1.386 . S
C996 C998 1.391 . S
C997 C996 1.386 . S
C997 C1001 1.393 . S
C998 H990 0.950 . S
C998 C996 1.391 . S
C998 C999 1.400 1_655 S
C999 C998 1.400 1_455 S
C999 C1000 1.398 . S
C999 C1005 1.491 . S
C1000 H991 0.950 . S
C1000 C999 1.398 . S
C1000 C1001 1.391 1_455 S
C1001 H989 0.950 . S
C1001 C997 1.393 . S
C1001 C1000 1.391 1_655 S
C1002 H992 0.950 . S
C1002 C1003 1.386 . S
C1002 C1004 1.391 . S
C1003 C1002 1.386 . S
C1003 C1007 1.393 . S
C1004 H993 0.950 . S
C1004 C1002 1.391 . S
C1004 C1005 1.400 . S
C1005 C999 1.491 . S
C1005 C1004 1.400 . S
C1005 C1006 1.398 . S
C1006 H994 0.950 . S
C1006 C1005 1.398 . S
C1006 C1007 1.391 . S
C1007 H995 0.950 . S
C1007 C1003 1.393 . S
C1007 C1006 1.391 . S
H1008 C1016 0.950 . S
H1009 C1021 0.950 . S
H1010 C1018 0.950 . S
H1011 C1020 0.950 . S
H1012 C1022 0.950 . S
H1013 C1024 0.950 . S
H1014 C1026 0.950 . S
H1015 C1027 0.950 . S
C1016 H1008 0.950 . S
C1016 C1017 1.386 . S
C1016 C1018 1.391 . S
C1017 C1016 1.386 . S
C1017 C1021 1.393 . S
C1018 H1010 0.950 . S
C1018 C1016 1.391 . S
C1018 C1019 1.400 . S
C1019 C1018 1.400 . S
C1019 C1020 1.398 . S
C1019 C1025 1.491 . S
C1020 H1011 0.950 . S
C1020 C1019 1.398 . S
C1020 C1021 1.391 . S
C1021 H1009 0.950 . S
C1021 C1017 1.393 . S
C1021 C1020 1.391 . S
C1022 H1012 0.950 . S
C1022 C1023 1.386 . S
C1022 C1024 1.391 . S
C1023 C1022 1.386 . S
C1023 C1027 1.393 . S
C1024 H1013 0.950 . S
C1024 C1022 1.391 . S
C1024 C1025 1.400 . S
C1025 C1019 1.491 . S
C1025 C1024 1.400 . S
C1025 C1026 1.398 . S
C1026 H1014 0.950 . S
C1026 C1025 1.398 . S
C1026 C1027 1.391 . S
C1027 H1015 0.950 . S
C1027 C1023 1.393 . S
C1027 C1026 1.391 . S
H1028 C1036 0.950 . S
H1029 C1041 0.950 . S
H1030 C1038 0.950 . S
H1031 C1040 0.950 . S
H1032 C1042 0.950 . S
H1033 C1044 0.950 . S
H1034 C1046 0.950 . S
H1035 C1047 0.950 . S
C1036 H1028 0.950 . S
C1036 C1037 1.386 . S
C1036 C1038 1.391 . S
C1037 C1036 1.386 . S
C1037 C1041 1.393 . S
C1038 H1030 0.950 . S
C1038 C1036 1.391 . S
C1038 C1039 1.400 . S
C1039 C1038 1.400 . S
C1039 C1040 1.398 . S
C1039 C1045 1.491 . S
C1040 H1031 0.950 . S
C1040 C1039 1.398 . S
C1040 C1041 1.391 . S
C1041 H1029 0.950 . S
C1041 C1037 1.393 . S
C1041 C1040 1.391 . S
C1042 H1032 0.950 . S
C1042 C1043 1.386 . S
C1042 C1044 1.391 1_455 S
C1043 C1042 1.386 . S
C1043 C1047 1.393 . S
C1044 H1033 0.950 . S
C1044 C1042 1.391 1_655 S
C1044 C1045 1.400 . S
C1045 C1039 1.491 . S
C1045 C1044 1.400 . S
C1045 C1046 1.398 . S
C1046 H1034 0.950 . S
C1046 C1045 1.398 . S
C1046 C1047 1.391 1_655 S
C1047 H1035 0.950 . S
C1047 C1043 1.393 . S
C1047 C1046 1.391 1_455 S
H1048 C1056 0.950 . S
H1049 C1061 0.950 . S
H1050 C1058 0.950 . S
H1051 C1060 0.950 . S
H1052 C1062 0.950 . S
H1053 C1064 0.950 . S
H1054 C1066 0.950 . S
H1055 C1067 0.950 . S
C1056 H1048 0.950 . S
C1056 C1057 1.386 . S
C1056 C1058 1.391 . S
C1057 C1056 1.386 . S
C1057 C1061 1.393 . S
C1058 H1050 0.950 . S
C1058 C1056 1.391 . S
C1058 C1059 1.400 . S
C1059 C1058 1.400 . S
C1059 C1060 1.398 . S
C1059 C1065 1.491 . S
C1060 H1051 0.950 . S
C1060 C1059 1.398 . S
C1060 C1061 1.391 . S
C1061 H1049 0.950 . S
C1061 C1057 1.393 . S
C1061 C1060 1.391 . S
C1062 H1052 0.950 . S
C1062 C1063 1.386 . S
C1062 C1064 1.391 . S
C1063 C1062 1.386 . S
C1063 C1067 1.393 . S
C1064 H1053 0.950 . S
C1064 C1062 1.391 . S
C1064 C1065 1.400 . S
C1065 C1059 1.491 . S
C1065 C1064 1.400 . S
C1065 C1066 1.398 . S
C1066 H1054 0.950 . S
C1066 C1065 1.398 . S
C1066 C1067 1.391 . S
C1067 H1055 0.950 . S
C1067 C1063 1.393 . S
C1067 C1066 1.391 . S
H1068 C1076 0.950 . S
H1069 C1081 0.950 . S
H1070 C1078 0.950 . S
H1071 C1080 0.950 . S
H1072 C1082 0.950 . S
H1073 C1084 0.950 . S
H1074 C1086 0.950 . S
H1075 C1087 0.950 . S
C1076 H1068 0.950 . S
C1076 C1077 1.386 . S
C1076 C1078 1.391 . S
C1077 C1076 1.386 . S
C1077 C1081 1.393 . S
C1078 H1070 0.950 . S
C1078 C1076 1.391 . S
C1078 C1079 1.400 . S
C1079 C1078 1.400 . S
C1079 C1080 1.398 . S
C1079 C1085 1.491 . S
C1080 H1071 0.950 . S
C1080 C1079 1.398 . S
C1080 C1081 1.391 . S
C1081 H1069 0.950 . S
C1081 C1077 1.393 . S
C1081 C1080 1.391 . S
C1082 H1072 0.950 . S
C1082 C1083 1.386 . S
C1082 C1084 1.391 . S
C1083 C1082 1.386 . S
C1083 C1087 1.393 . S
C1084 H1073 0.950 . S
C1084 C1082 1.391 . S
C1084 C1085 1.400 1_565 S
C1085 C1079 1.491 . S
C1085 C1084 1.400 1_545 S
C1085 C1086 1.398 . S
C1086 H1074 0.950 . S
C1086 C1085 1.398 . S
C1086 C1087 1.391 1_545 S
C1087 H1075 0.950 . S
C1087 C1083 1.393 . S
C1087 C1086 1.391 1_565 S
H1088 C1096 0.950 . S
H1089 C1101 0.950 . S
H1090 C1098 0.950 . S
H1091 C1100 0.950 . S
H1092 C1102 0.950 . S
H1093 C1104 0.950 . S
H1094 C1106 0.950 . S
H1095 C1107 0.950 . S
C1096 H1088 0.950 . S
C1096 C1097 1.386 . S
C1096 C1098 1.391 . S
C1097 C1096 1.386 . S
C1097 C1101 1.393 . S
C1098 H1090 0.950 . S
C1098 C1096 1.391 . S
C1098 C1099 1.400 . S
C1099 C1098 1.400 . S
C1099 C1100 1.398 . S
C1099 C1105 1.491 . S
C1100 H1091 0.950 . S
C1100 C1099 1.398 . S
C1100 C1101 1.391 . S
C1101 H1089 0.950 . S
C1101 C1097 1.393 . S
C1101 C1100 1.391 . S
C1102 H1092 0.950 . S
C1102 C1103 1.386 . S
C1102 C1104 1.391 . S
C1103 C1102 1.386 . S
C1103 C1107 1.393 . S
C1104 H1093 0.950 . S
C1104 C1102 1.391 . S
C1104 C1105 1.400 . S
C1105 C1099 1.491 . S
C1105 C1104 1.400 . S
C1105 C1106 1.398 . S
C1106 H1094 0.950 . S
C1106 C1105 1.398 . S
C1106 C1107 1.391 . S
C1107 H1095 0.950 . S
C1107 C1103 1.393 . S
C1107 C1106 1.391 . S
H1108 C1116 0.950 . S
H1109 C1121 0.950 . S
H1110 C1118 0.950 . S
H1111 C1120 0.950 . S
H1112 C1122 0.950 . S
H1113 C1124 0.950 . S
H1114 C1126 0.950 1_565 S
H1115 C1127 0.950 . S
C1116 H1108 0.950 . S
C1116 C1117 1.386 . S
C1116 C1118 1.391 . S
C1117 C1116 1.386 . S
C1117 C1121 1.393 . S
C1118 H1110 0.950 . S
C1118 C1116 1.391 . S
C1118 C1119 1.400 . S
C1119 C1118 1.400 . S
C1119 C1120 1.398 . S
C1119 C1125 1.491 . S
C1120 H1111 0.950 . S
C1120 C1119 1.398 . S
C1120 C1121 1.391 . S
C1121 H1109 0.950 . S
C1121 C1117 1.393 . S
C1121 C1120 1.391 . S
C1122 H1112 0.950 . S
C1122 C1123 1.386 . S
C1122 C1124 1.391 . S
C1123 C1122 1.386 . S
C1123 C1127 1.393 . S
C1124 H1113 0.950 . S
C1124 C1122 1.391 . S
C1124 C1125 1.400 1_545 S
C1125 C1119 1.491 . S
C1125 C1124 1.400 1_565 S
C1125 C1126 1.398 1_565 S
C1126 H1114 0.950 1_545 S
C1126 C1125 1.398 1_545 S
C1126 C1127 1.391 . S
C1127 H1115 0.950 . S
C1127 C1123 1.393 . S
C1127 C1126 1.391 . S
H1128 C1136 0.950 . S
H1129 C1141 0.950 . S
H1130 C1138 0.950 . S
H1131 C1140 0.950 . S
H1132 C1142 0.950 . S
H1133 C1144 0.950 1_556 S
H1134 C1146 0.950 . S
H1135 C1147 0.950 . S
C1136 H1128 0.950 . S
C1136 C1137 1.386 . S
C1136 C1138 1.391 1_556 S
C1137 C1136 1.386 . S
C1137 C1141 1.393 . S
C1138 H1130 0.950 . S
C1138 C1136 1.391 1_554 S
C1138 C1139 1.400 1_554 S
C1139 C1138 1.400 1_556 S
C1139 C1140 1.398 . S
C1139 C1145 1.491 1_556 S
C1140 H1131 0.950 . S
C1140 C1139 1.398 . S
C1140 C1141 1.391 . S
C1141 H1129 0.950 . S
C1141 C1137 1.393 . S
C1141 C1140 1.391 . S
C1142 H1132 0.950 . S
C1142 C1143 1.386 . S
C1142 C1144 1.391 . S
C1143 C1142 1.386 . S
C1143 C1147 1.393 . S
C1144 H1133 0.950 1_554 S
C1144 C1142 1.391 . S
C1144 C1145 1.400 . S
C1145 C1139 1.491 1_554 S
C1145 C1144 1.400 . S
C1145 C1146 1.398 . S
C1146 H1134 0.950 . S
C1146 C1145 1.398 . S
C1146 C1147 1.391 . S
C1147 H1135 0.950 . S
C1147 C1143 1.393 . S
C1147 C1146 1.391 . S
H1148 C1156 0.950 . S
H1149 C1161 0.950 . S
H1150 C1158 0.950 1_565 S
H1151 C1160 0.950 . S
H1152 C1162 0.950 . S
H1153 C1164 0.950 . S
H1154 C1166 0.950 . S
H1155 C1167 0.950 . S
C1156 H1148 0.950 . S
C1156 C1157 1.386 . S
C1156 C1158 1.391 . S
C1157 C1156 1.386 . S
C1157 C1161 1.393 . S
C1158 H1150 0.950 1_545 S
C1158 C1156 1.391 . S
C1158 C1159 1.400 1_545 S
C1159 C1158 1.400 1_565 S
C1159 C1160 1.398 1_565 S
C1159 C1165 1.491 . S
C1160 H1151 0.950 . S
C1160 C1159 1.398 1_545 S
C1160 C1161 1.391 . S
C1161 H1149 0.950 . S
C1161 C1157 1.393 . S
C1161 C1160 1.391 . S
C1162 H1152 0.950 . S
C1162 C1163 1.386 . S
C1162 C1164 1.391 . S
C1163 C1162 1.386 . S
C1163 C1167 1.393 . S
C1164 H1153 0.950 . S
C1164 C1162 1.391 . S
C1164 C1165 1.400 . S
C1165 C1159 1.491 . S
C1165 C1164 1.400 . S
C1165 C1166 1.398 . S
C1166 H1154 0.950 . S
C1166 C1165 1.398 . S
C1166 C1167 1.391 . S
C1167 H1155 0.950 . S
C1167 C1163 1.393 . S
C1167 C1166 1.391 . S
H1168 C1176 0.950 . S
H1169 C1181 0.950 . S
H1170 C1178 0.950 . S
H1171 C1180 0.950 . S
H1172 C1182 0.950 . S
H1173 C1184 0.950 . S
H1174 C1186 0.950 . S
H1175 C1187 0.950 . S
C1176 H1168 0.950 . S
C1176 C1177 1.386 . S
C1176 C1178 1.391 . S
C1177 C1176 1.386 . S
C1177 C1181 1.393 . S
C1178 H1170 0.950 . S
C1178 C1176 1.391 . S
C1178 C1179 1.400 . S
C1179 C1178 1.400 . S
C1179 C1180 1.398 . S
C1179 C1185 1.491 . S
C1180 H1171 0.950 . S
C1180 C1179 1.398 . S
C1180 C1181 1.391 . S
C1181 H1169 0.950 . S
C1181 C1177 1.393 . S
C1181 C1180 1.391 . S
C1182 H1172 0.950 . S
C1182 C1183 1.386 . S
C1182 C1184 1.391 . S
C1183 C1182 1.386 . S
C1183 C1187 1.393 . S
C1184 H1173 0.950 . S
C1184 C1182 1.391 . S
C1184 C1185 1.400 . S
C1185 C1179 1.491 . S
C1185 C1184 1.400 . S
C1185 C1186 1.398 . S
C1186 H1174 0.950 . S
C1186 C1185 1.398 . S
C1186 C1187 1.391 . S
C1187 H1175 0.950 . S
C1187 C1183 1.393 . S
C1187 C1186 1.391 . S
H1188 C1196 0.950 . S
H1189 C1201 0.950 . S
H1190 C1198 0.950 1_545 S
H1191 C1200 0.950 . S
H1192 C1202 0.950 . S
H1193 C1204 0.950 . S
H1194 C1206 0.950 . S
H1195 C1207 0.950 . S
C1196 H1188 0.950 . S
C1196 C1197 1.386 . S
C1196 C1198 1.391 . S
C1197 C1196 1.386 . S
C1197 C1201 1.393 . S
C1198 H1190 0.950 1_565 S
C1198 C1196 1.391 . S
C1198 C1199 1.400 1_565 S
C1199 C1198 1.400 1_545 S
C1199 C1200 1.398 1_545 S
C1199 C1205 1.491 . S
C1200 H1191 0.950 . S
C1200 C1199 1.398 1_565 S
C1200 C1201 1.391 . S
C1201 H1189 0.950 . S
C1201 C1197 1.393 . S
C1201 C1200 1.391 . S
C1202 H1192 0.950 . S
C1202 C1203 1.386 . S
C1202 C1204 1.391 . S
C1203 C1202 1.386 . S
C1203 C1207 1.393 . S
C1204 H1193 0.950 . S
C1204 C1202 1.391 . S
C1204 C1205 1.400 . S
C1205 C1199 1.491 . S
C1205 C1204 1.400 . S
C1205 C1206 1.398 . S
C1206 H1194 0.950 . S
C1206 C1205 1.398 . S
C1206 C1207 1.391 . S
C1207 H1195 0.950 . S
C1207 C1203 1.393 . S
C1207 C1206 1.391 . S
H1208 C1216 0.950 . S
H1209 C1221 0.950 . S
H1210 C1218 0.950 . S
H1211 C1220 0.950 . S
H1212 C1222 0.950 . S
H1213 C1224 0.950 . S
H1214 C1226 0.939 1_554 S
H1215 C1227 0.950 . S
C1216 H1208 0.950 . S
C1216 C1217 1.386 . S
C1216 C1218 1.391 . S
C1217 C1216 1.386 . S
C1217 C1221 1.393 . S
C1218 H1210 0.950 . S
C1218 C1216 1.391 . S
C1218 C1219 1.400 . S
C1219 C1218 1.400 . S
C1219 C1220 1.398 1_554 S
C1219 C1225 1.491 1_554 S
C1220 H1211 0.950 . S
C1220 C1219 1.398 1_556 S
C1220 C1221 1.391 1_556 S
C1221 H1209 0.950 . S
C1221 C1217 1.393 . S
C1221 C1220 1.391 1_554 S
C1222 H1212 0.950 . S
C1222 C1223 1.386 . S
C1222 C1224 1.391 . S
C1223 C1222 1.386 . S
C1223 C1227 1.393 . S
C1224 H1213 0.950 . S
C1224 C1222 1.391 . S
C1224 C1225 1.400 . S
C1225 C1219 1.491 1_556 S
C1225 C1224 1.400 . S
C1225 C1226 1.403 . S
C1226 H1214 0.939 1_556 S
C1226 C1225 1.403 . S
C1226 C1227 1.397 . S
C1227 H1215 0.950 . S
C1227 C1223 1.393 . S
C1227 C1226 1.397 . S
H1228 C1236 0.950 . S
H1229 C1241 0.950 . S
H1230 C1238 0.950 . S
H1231 C1240 0.950 . S
H1232 C1242 0.950 . S
H1233 C1244 0.950 . S
H1234 C1246 0.950 . S
H1235 C1247 0.950 . S
C1236 H1228 0.950 . S
C1236 C1237 1.386 . S
C1236 C1238 1.391 1_655 S
C1237 C1236 1.386 . S
C1237 C1241 1.393 . S
C1238 H1230 0.950 . S
C1238 C1236 1.391 1_455 S
C1238 C1239 1.400 . S
C1239 C1238 1.400 . S
C1239 C1240 1.398 1_455 S
C1239 C1245 1.491 . S
C1240 H1231 0.950 . S
C1240 C1239 1.398 1_655 S
C1240 C1241 1.391 . S
C1241 H1229 0.950 . S
C1241 C1237 1.393 . S
C1241 C1240 1.391 . S
C1242 H1232 0.950 . S
C1242 C1243 1.386 . S
C1242 C1244 1.391 . S
C1243 C1242 1.386 . S
C1243 C1247 1.393 . S
C1244 H1233 0.950 . S
C1244 C1242 1.391 . S
C1244 C1245 1.400 . S
C1245 C1239 1.491 . S
C1245 C1244 1.400 . S
C1245 C1246 1.398 . S
C1246 H1234 0.950 . S
C1246 C1245 1.398 . S
C1246 C1247 1.391 . S
C1247 H1235 0.950 . S
C1247 C1243 1.393 . S
C1247 C1246 1.391 . S
H1248 C1256 0.950 . S
H1249 C1261 0.950 . S
H1250 C1258 0.950 . S
H1251 C1260 0.950 . S
H1252 C1262 0.950 . S
H1253 C1264 0.950 . S
H1254 C1266 0.950 . S
H1255 C1267 0.950 . S
C1256 H1248 0.950 . S
C1256 C1257 1.386 . S
C1256 C1258 1.391 . S
C1257 C1256 1.386 . S
C1257 C1261 1.393 . S
C1258 H1250 0.950 . S
C1258 C1256 1.391 . S
C1258 C1259 1.400 . S
C1259 C1258 1.400 . S
C1259 C1260 1.398 . S
C1259 C1265 1.491 . S
C1260 H1251 0.950 . S
C1260 C1259 1.398 . S
C1260 C1261 1.391 . S
C1261 H1249 0.950 . S
C1261 C1257 1.393 . S
C1261 C1260 1.391 . S
C1262 H1252 0.950 . S
C1262 C1263 1.386 . S
C1262 C1264 1.391 . S
C1263 C1262 1.386 . S
C1263 C1267 1.393 . S
C1264 H1253 0.950 . S
C1264 C1262 1.391 . S
C1264 C1265 1.400 . S
C1265 C1259 1.491 . S
C1265 C1264 1.400 . S
C1265 C1266 1.398 . S
C1266 H1254 0.950 . S
C1266 C1265 1.398 . S
C1266 C1267 1.391 . S
C1267 H1255 0.950 . S
C1267 C1263 1.393 . S
C1267 C1266 1.391 . S
H1268 C1276 0.950 . S
H1269 C1281 0.950 . S
H1270 C1278 0.950 . S
H1271 C1280 0.950 . S
H1272 C1282 0.950 . S
H1273 C1284 0.950 . S
H1274 C1286 0.950 . S
H1275 C1287 0.950 . S
C1276 H1268 0.950 . S
C1276 C1277 1.386 . S
C1276 C1278 1.391 . S
C1277 C1276 1.386 . S
C1277 C1281 1.393 . S
C1278 H1270 0.950 . S
C1278 C1276 1.391 . S
C1278 C1279 1.400 1_455 S
C1279 C1278 1.400 1_655 S
C1279 C1280 1.398 . S
C1279 C1285 1.491 . S
C1280 H1271 0.950 . S
C1280 C1279 1.398 . S
C1280 C1281 1.391 1_655 S
C1281 H1269 0.950 . S
C1281 C1277 1.393 . S
C1281 C1280 1.391 1_455 S
C1282 H1272 0.950 . S
C1282 C1283 1.386 . S
C1282 C1284 1.391 . S
C1283 C1282 1.386 . S
C1283 C1287 1.393 . S
C1284 H1273 0.950 . S
C1284 C1282 1.391 . S
C1284 C1285 1.400 . S
C1285 C1279 1.491 . S
C1285 C1284 1.400 . S
C1285 C1286 1.398 . S
C1286 H1274 0.950 . S
C1286 C1285 1.398 . S
C1286 C1287 1.391 . S
C1287 H1275 0.950 . S
C1287 C1283 1.393 . S
C1287 C1286 1.391 . S
H1288 C1296 0.950 . S
H1289 C1301 0.950 . S
H1290 C1298 0.950 . S
H1291 C1300 0.950 . S
H1292 C1302 0.950 . S
H1293 C1304 0.950 . S
H1294 C1306 0.950 . S
H1295 C1307 0.950 . S
C1296 H1288 0.950 . S
C1296 C1297 1.386 . S
C1296 C1298 1.391 1_455 S
C1297 C1296 1.386 . S
C1297 C1301 1.393 . S
C1298 H1290 0.950 . S
C1298 C1296 1.391 1_655 S
C1298 C1299 1.400 . S
C1299 C1298 1.400 . S
C1299 C1300 1.398 1_655 S
C1299 C1305 1.491 . S
C1300 H1291 0.950 . S
C1300 C1299 1.398 1_455 S
C1300 C1301 1.391 . S
C1301 H1289 0.950 . S
C1301 C1297 1.393 . S
C1301 C1300 1.391 . S
C1302 H1292 0.950 . S
C1302 C1303 1.386 . S
C1302 C1304 1.391 . S
C1303 C1302 1.386 . S
C1303 C1307 1.393 . S
C1304 H1293 0.950 . S
C1304 C1302 1.391 . S
C1304 C1305 1.400 . S
C1305 C1299 1.491 . S
C1305 C1304 1.400 . S
C1305 C1306 1.398 . S
C1306 H1294 0.950 . S
C1306 C1305 1.398 . S
C1306 C1307 1.391 . S
C1307 H1295 0.950 . S
C1307 C1303 1.393 . S
C1307 C1306 1.391 . S
H1308 C1316 0.950 . S
H1309 C1321 0.950 . S
H1310 C1318 0.950 . S
H1311 C1320 0.950 . S
H1312 C1322 0.950 . S
H1313 C1324 0.950 . S
H1314 C1326 0.950 . S
H1315 C1327 0.950 . S
C1316 H1308 0.950 . S
C1316 C1317 1.386 . S
C1316 C1318 1.391 . S
C1317 C1316 1.386 . S
C1317 C1321 1.393 . S
C1318 H1310 0.950 . S
C1318 C1316 1.391 . S
C1318 C1319 1.400 . S
C1319 C1318 1.400 . S
C1319 C1320 1.398 . S
C1319 C1325 1.491 . S
C1320 H1311 0.950 . S
C1320 C1319 1.398 . S
C1320 C1321 1.391 . S
C1321 H1309 0.950 . S
C1321 C1317 1.393 . S
C1321 C1320 1.391 . S
C1322 H1312 0.950 . S
C1322 C1323 1.386 . S
C1322 C1324 1.391 . S
C1323 C1322 1.386 . S
C1323 C1327 1.393 . S
C1324 H1313 0.950 . S
C1324 C1322 1.391 . S
C1324 C1325 1.400 . S
C1325 C1319 1.491 . S
C1325 C1324 1.400 . S
C1325 C1326 1.398 . S
C1326 H1314 0.950 . S
C1326 C1325 1.398 . S
C1326 C1327 1.391 . S
C1327 H1315 0.950 . S
C1327 C1323 1.393 . S
C1327 C1326 1.391 . S
H1328 C1336 0.950 . S
H1329 C1341 0.950 . S
H1330 C1338 0.950 . S
H1331 C1340 0.950 . S
H1332 C1342 0.950 . S
H1333 C1344 0.950 . S
H1334 C1346 0.950 . S
H1335 C1347 0.950 . S
C1336 H1328 0.950 . S
C1336 C1337 1.386 . S
C1336 C1338 1.391 . S
C1337 C1336 1.386 . S
C1337 C1341 1.393 . S
C1338 H1330 0.950 . S
C1338 C1336 1.391 . S
C1338 C1339 1.400 1_655 S
C1339 C1338 1.400 1_455 S
C1339 C1340 1.398 . S
C1339 C1345 1.491 . S
C1340 H1331 0.950 . S
C1340 C1339 1.398 . S
C1340 C1341 1.391 1_455 S
C1341 H1329 0.950 . S
C1341 C1337 1.393 . S
C1341 C1340 1.391 1_655 S
C1342 H1332 0.950 . S
C1342 C1343 1.386 . S
C1342 C1344 1.391 . S
C1343 C1342 1.386 . S
C1343 C1347 1.393 . S
C1344 H1333 0.950 . S
C1344 C1342 1.391 . S
C1344 C1345 1.400 . S
C1345 C1339 1.491 . S
C1345 C1344 1.400 . S
C1345 C1346 1.398 . S
C1346 H1334 0.950 . S
C1346 C1345 1.398 . S
C1346 C1347 1.391 . S
C1347 H1335 0.950 . S
C1347 C1343 1.393 . S
C1347 C1346 1.391 . S
H1348 C1356 0.950 . S
H1349 C1361 0.950 . S
H1350 C1358 0.950 . S
H1351 C1360 0.950 . S
H1352 C1362 0.950 . S
H1353 C1364 0.950 . S
H1354 C1366 0.950 . S
H1355 C1367 0.950 . S
C1356 H1348 0.950 . S
C1356 C1357 1.386 . S
C1356 C1358 1.391 . S
C1357 C1356 1.386 . S
C1357 C1361 1.393 . S
C1358 H1350 0.950 . S
C1358 C1356 1.391 . S
C1358 C1359 1.400 . S
C1359 C1358 1.400 . S
C1359 C1360 1.398 . S
C1359 C1365 1.491 . S
C1360 H1351 0.950 . S
C1360 C1359 1.398 . S
C1360 C1361 1.391 . S
C1361 H1349 0.950 . S
C1361 C1357 1.393 . S
C1361 C1360 1.391 . S
C1362 H1352 0.950 . S
C1362 C1363 1.386 . S
C1362 C1364 1.391 . S
C1363 C1362 1.386 . S
C1363 C1367 1.393 . S
C1364 H1353 0.950 . S
C1364 C1362 1.391 . S
C1364 C1365 1.400 . S
C1365 C1359 1.491 . S
C1365 C1364 1.400 . S
C1365 C1366 1.398 . S
C1366 H1354 0.950 . S
C1366 C1365 1.398 . S
C1366 C1367 1.391 . S
C1367 H1355 0.950 . S
C1367 C1363 1.393 . S
C1367 C1366 1.391 . S
H1368 C1376 0.950 . S
H1369 C1381 0.950 . S
H1370 C1378 0.950 . S
H1371 C1380 0.950 . S
H1372 C1382 0.950 . S
H1373 C1384 0.950 . S
H1374 C1386 0.950 . S
H1375 C1387 0.950 . S
C1376 H1368 0.950 . S
C1376 C1377 1.386 . S
C1376 C1378 1.391 . S
C1377 C1376 1.386 . S
C1377 C1381 1.393 . S
C1378 H1370 0.950 . S
C1378 C1376 1.391 . S
C1378 C1379 1.400 . S
C1379 C1378 1.400 . S
C1379 C1380 1.398 . S
C1379 C1385 1.491 . S
C1380 H1371 0.950 . S
C1380 C1379 1.398 . S
C1380 C1381 1.391 . S
C1381 H1369 0.950 . S
C1381 C1377 1.393 . S
C1381 C1380 1.391 . S
C1382 H1372 0.950 . S
C1382 C1383 1.386 . S
C1382 C1384 1.391 . S
C1383 C1382 1.386 . S
C1383 C1387 1.393 . S
C1384 H1373 0.950 . S
C1384 C1382 1.391 . S
C1384 C1385 1.400 . S
C1385 C1379 1.491 . S
C1385 C1384 1.400 . S
C1385 C1386 1.398 . S
C1386 H1374 0.950 . S
C1386 C1385 1.398 . S
C1386 C1387 1.391 . S
C1387 H1375 0.950 . S
C1387 C1383 1.393 . S
C1387 C1386 1.391 . S
H1388 C1396 0.950 . S
H1389 C1401 0.950 . S
H1390 C1398 0.950 . S
H1391 C1400 0.950 . S
H1392 C1402 0.950 . S
H1393 C1404 0.971 . S
H1394 C1406 0.950 . S
H1395 C1407 0.950 . S
C1396 H1388 0.950 . S
C1396 C1397 1.386 . S
C1396 C1398 1.391 1_554 S
C1397 C1396 1.386 . S
C1397 C1401 1.393 . S
C1398 H1390 0.950 . S
C1398 C1396 1.391 1_556 S
C1398 C1399 1.400 1_556 S
C1399 C1398 1.400 1_554 S
C1399 C1400 1.398 . S
C1399 C1405 1.491 1_554 S
C1400 H1391 0.950 . S
C1400 C1399 1.398 . S
C1400 C1401 1.391 . S
C1401 H1389 0.950 . S
C1401 C1397 1.393 . S
C1401 C1400 1.391 . S
C1402 H1392 0.950 . S
C1402 C1403 1.386 . S
C1402 C1404 1.379 1_556 S
C1403 C1402 1.386 . S
C1403 C1407 1.393 . S
C1404 H1393 0.971 . S
C1404 C1402 1.379 1_554 S
C1404 C1405 1.392 1_554 S
C1405 C1399 1.491 1_556 S
C1405 C1404 1.392 1_556 S
C1405 C1406 1.398 . S
C1406 H1394 0.950 . S
C1406 C1405 1.398 . S
C1406 C1407 1.391 . S
C1407 H1395 0.950 . S
C1407 C1403 1.393 . S
C1407 C1406 1.391 . S
H1408 C1416 0.950 . S
H1409 C1421 0.950 . S
H1410 C1418 0.950 . S
H1411 C1420 0.950 . S
H1412 C1422 0.950 . S
H1413 C1424 0.950 . S
H1414 C1426 0.950 . S
H1415 C1427 0.950 . S
C1416 H1408 0.950 . S
C1416 C1417 1.386 . S
C1416 C1418 1.391 . S
C1417 C1416 1.386 . S
C1417 C1421 1.393 . S
C1418 H1410 0.950 . S
C1418 C1416 1.391 . S
C1418 C1419 1.400 . S
C1419 C1418 1.400 . S
C1419 C1420 1.398 . S
C1419 C1425 1.491 . S
C1420 H1411 0.950 . S
C1420 C1419 1.398 . S
C1420 C1421 1.391 . S
C1421 H1409 0.950 . S
C1421 C1417 1.393 . S
C1421 C1420 1.391 . S
C1422 H1412 0.950 . S
C1422 C1423 1.386 . S
C1422 C1424 1.391 . S
C1423 C1422 1.386 . S
C1423 C1427 1.393 . S
C1424 H1413 0.950 . S
C1424 C1422 1.391 . S
C1424 C1425 1.400 . S
C1425 C1419 1.491 . S
C1425 C1424 1.400 . S
C1425 C1426 1.398 . S
C1426 H1414 0.950 . S
C1426 C1425 1.398 . S
C1426 C1427 1.391 . S
C1427 H1415 0.950 . S
C1427 C1423 1.393 . S
C1427 C1426 1.391 . S
H1428 C1436 0.950 . S
H1429 C1441 0.950 . S
H1430 C1438 0.950 . S
H1431 C1440 0.950 . S
H1432 C1442 0.950 . S
H1433 C1444 0.950 . S
H1434 C1446 0.950 . S
H1435 C1447 0.950 . S
C1436 H1428 0.950 . S
C1436 C1437 1.386 . S
C1436 C1438 1.391 . S
C1437 C1436 1.386 . S
C1437 C1441 1.393 . S
C1438 H1430 0.950 . S
C1438 C1436 1.391 . S
C1438 C1439 1.400 . S
C1439 C1438 1.400 . S
C1439 C1440 1.398 . S
C1439 C1445 1.491 . S
C1440 H1431 0.950 . S
C1440 C1439 1.398 . S
C1440 C1441 1.391 . S
C1441 H1429 0.950 . S
C1441 C1437 1.393 . S
C1441 C1440 1.391 . S
C1442 H1432 0.950 . S
C1442 C1443 1.386 . S
C1442 C1444 1.391 . S
C1443 C1442 1.386 . S
C1443 C1447 1.393 . S
C1444 H1433 0.950 . S
C1444 C1442 1.391 . S
C1444 C1445 1.400 . S
C1445 C1439 1.491 . S
C1445 C1444 1.400 . S
C1445 C1446 1.398 . S
C1446 H1434 0.950 . S
C1446 C1445 1.398 . S
C1446 C1447 1.391 . S
C1447 H1435 0.950 . S
C1447 C1443 1.393 . S
C1447 C1446 1.391 . S
H1448 C1456 0.950 . S
H1449 C1461 0.950 . S
H1450 C1458 0.950 . S
H1451 C1460 0.950 . S
H1452 C1462 0.950 . S
H1453 C1464 0.950 . S
H1454 C1466 0.950 . S
H1455 C1467 0.950 . S
C1456 H1448 0.950 . S
C1456 C1457 1.386 . S
C1456 C1458 1.391 . S
C1457 C1456 1.386 . S
C1457 C1461 1.393 . S
C1458 H1450 0.950 . S
C1458 C1456 1.391 . S
C1458 C1459 1.400 . S
C1459 C1458 1.400 . S
C1459 C1460 1.398 . S
C1459 C1465 1.491 . S
C1460 H1451 0.950 . S
C1460 C1459 1.398 . S
C1460 C1461 1.391 . S
C1461 H1449 0.950 . S
C1461 C1457 1.393 . S
C1461 C1460 1.391 . S
C1462 H1452 0.950 . S
C1462 C1463 1.386 . S
C1462 C1464 1.391 . S
C1463 C1462 1.386 . S
C1463 C1467 1.393 . S
C1464 H1453 0.950 . S
C1464 C1462 1.391 . S
C1464 C1465 1.400 . S
C1465 C1459 1.491 . S
C1465 C1464 1.400 . S
C1465 C1466 1.398 . S
C1466 H1454 0.950 . S
C1466 C1465 1.398 . S
C1466 C1467 1.391 . S
C1467 H1455 0.950 . S
C1467 C1463 1.393 . S
C1467 C1466 1.391 . S
H1468 C1476 0.950 . S
H1469 C1481 0.950 . S
H1470 C1478 0.950 1_556 S
H1471 C1480 0.950 . S
H1472 C1482 0.950 . S
H1473 C1484 0.950 1_554 S
H1474 C1486 0.950 . S
H1475 C1487 0.950 . S
C1476 H1468 0.950 . S
C1476 C1477 1.386 . S
C1476 C1478 1.391 . S
C1477 C1476 1.386 . S
C1477 C1481 1.393 . S
C1478 H1470 0.950 1_554 S
C1478 C1476 1.391 . S
C1478 C1479 1.400 . S
C1479 C1478 1.400 . S
C1479 C1480 1.398 . S
C1479 C1485 1.491 1_554 S
C1480 H1471 0.950 . S
C1480 C1479 1.398 . S
C1480 C1481 1.391 . S
C1481 H1469 0.950 . S
C1481 C1477 1.393 . S
C1481 C1480 1.391 . S
C1482 H1472 0.950 . S
C1482 C1483 1.386 . S
C1482 C1484 1.391 . S
C1483 C1482 1.386 . S
C1483 C1487 1.393 . S
C1484 H1473 0.950 1_556 S
C1484 C1482 1.391 . S
C1484 C1485 1.400 . S
C1485 C1479 1.491 1_556 S
C1485 C1484 1.400 . S
C1485 C1486 1.398 . S
C1486 H1474 0.950 . S
C1486 C1485 1.398 . S
C1486 C1487 1.391 . S
C1487 H1475 0.950 . S
C1487 C1483 1.393 . S
C1487 C1486 1.391 . S
H1488 C1496 0.950 . S
H1489 C1501 0.950 . S
H1490 C1498 0.950 . S
H1491 C1500 0.950 . S
H1492 C1502 0.950 . S
H1493 C1504 0.950 . S
H1494 C1506 0.950 . S
H1495 C1507 0.950 . S
C1496 H1488 0.950 . S
C1496 C1497 1.386 . S
C1496 C1498 1.391 . S
C1497 C1496 1.386 . S
C1497 C1501 1.393 . S
C1498 H1490 0.950 . S
C1498 C1496 1.391 . S
C1498 C1499 1.400 . S
C1499 C1498 1.400 . S
C1499 C1500 1.398 . S
C1499 C1505 1.491 . S
C1500 H1491 0.950 . S
C1500 C1499 1.398 . S
C1500 C1501 1.391 . S
C1501 H1489 0.950 . S
C1501 C1497 1.393 . S
C1501 C1500 1.391 . S
C1502 H1492 0.950 . S
C1502 C1503 1.386 . S
C1502 C1504 1.391 . S
C1503 C1502 1.386 . S
C1503 C1507 1.393 . S
C1504 H1493 0.950 . S
C1504 C1502 1.391 . S
C1504 C1505 1.400 . S
C1505 C1499 1.491 . S
C1505 C1504 1.400 . S
C1505 C1506 1.398 . S
C1506 H1494 0.950 . S
C1506 C1505 1.398 . S
C1506 C1507 1.391 . S
C1507 H1495 0.950 . S
C1507 C1503 1.393 . S
C1507 C1506 1.391 . S
H1508 C1516 0.950 . S
H1509 C1521 0.950 . S
H1510 C1518 0.950 . S
H1511 C1520 0.950 . S
H1512 C1522 0.950 . S
H1513 C1524 0.950 . S
H1514 C1526 0.950 . S
H1515 C1527 0.950 . S
C1516 H1508 0.950 . S
C1516 C1517 1.386 . S
C1516 C1518 1.391 . S
C1517 C1516 1.386 . S
C1517 C1521 1.393 . S
C1518 H1510 0.950 . S
C1518 C1516 1.391 . S
C1518 C1519 1.400 . S
C1519 C1518 1.400 . S
C1519 C1520 1.398 . S
C1519 C1525 1.491 . S
C1520 H1511 0.950 . S
C1520 C1519 1.398 . S
C1520 C1521 1.391 . S
C1521 H1509 0.950 . S
C1521 C1517 1.393 . S
C1521 C1520 1.391 . S
C1522 H1512 0.950 . S
C1522 C1523 1.386 . S
C1522 C1524 1.391 . S
C1523 C1522 1.386 . S
C1523 C1527 1.393 . S
C1524 H1513 0.950 . S
C1524 C1522 1.391 . S
C1524 C1525 1.400 . S
C1525 C1519 1.491 . S
C1525 C1524 1.400 . S
C1525 C1526 1.398 . S
C1526 H1514 0.950 . S
C1526 C1525 1.398 . S
C1526 C1527 1.391 . S
C1527 H1515 0.950 . S
C1527 C1523 1.393 . S
C1527 C1526 1.391 . S
H1528 C1536 0.950 . S
H1529 C1541 0.950 . S
H1530 C1538 0.950 . S
H1531 C1540 0.950 . S
H1532 C1542 0.950 . S
H1533 C1544 0.950 . S
H1534 C1546 0.950 . S
H1535 C1547 0.950 . S
C1536 H1528 0.950 . S
C1536 C1537 1.386 . S
C1536 C1538 1.391 . S
C1537 C1536 1.386 . S
C1537 C1541 1.393 . S
C1538 H1530 0.950 . S
C1538 C1536 1.391 . S
C1538 C1539 1.400 . S
C1539 C1538 1.400 . S
C1539 C1540 1.398 . S
C1539 C1545 1.491 . S
C1540 H1531 0.950 . S
C1540 C1539 1.398 . S
C1540 C1541 1.391 . S
C1541 H1529 0.950 . S
C1541 C1537 1.393 . S
C1541 C1540 1.391 . S
C1542 H1532 0.950 . S
C1542 C1543 1.386 . S
C1542 C1544 1.391 . S
C1543 C1542 1.386 . S
C1543 C1547 1.393 . S
C1544 H1533 0.950 . S
C1544 C1542 1.391 . S
C1544 C1545 1.400 . S
C1545 C1539 1.491 . S
C1545 C1544 1.400 . S
C1545 C1546 1.398 . S
C1546 H1534 0.950 . S
C1546 C1545 1.398 . S
C1546 C1547 1.391 . S
C1547 H1535 0.950 . S
C1547 C1543 1.393 . S
C1547 C1546 1.391 . S
H1548 C1556 0.950 . S
H1549 C1561 0.950 . S
H1550 C1558 0.950 . S
H1551 C1560 0.950 . S
H1552 C1562 0.950 . S
H1553 C1564 0.950 . S
H1554 C1566 0.950 . S
H1555 C1567 0.950 . S
C1556 H1548 0.950 . S
C1556 C1557 1.386 . S
C1556 C1558 1.391 . S
C1557 C1556 1.386 . S
C1557 C1561 1.393 . S
C1558 H1550 0.950 . S
C1558 C1556 1.391 . S
C1558 C1559 1.400 . S
C1559 C1558 1.400 . S
C1559 C1560 1.398 . S
C1559 C1565 1.491 . S
C1560 H1551 0.950 . S
C1560 C1559 1.398 . S
C1560 C1561 1.391 . S
C1561 H1549 0.950 . S
C1561 C1557 1.393 . S
C1561 C1560 1.391 . S
C1562 H1552 0.950 . S
C1562 C1563 1.386 . S
C1562 C1564 1.391 . S
C1563 C1562 1.386 . S
C1563 C1567 1.393 . S
C1564 H1553 0.950 . S
C1564 C1562 1.391 . S
C1564 C1565 1.400 . S
C1565 C1559 1.491 . S
C1565 C1564 1.400 . S
C1565 C1566 1.398 . S
C1566 H1554 0.950 . S
C1566 C1565 1.398 . S
C1566 C1567 1.391 . S
C1567 H1555 0.950 . S
C1567 C1563 1.393 . S
C1567 C1566 1.391 . S
H1568 C1576 0.950 . S
H1569 C1581 0.950 . S
H1570 C1578 0.950 1_556 S
H1571 C1580 0.950 . S
H1572 C1582 0.950 . S
H1573 C1584 0.950 1_554 S
H1574 C1586 0.950 . S
H1575 C1587 0.950 . S
C1576 H1568 0.950 . S
C1576 C1577 1.386 . S
C1576 C1578 1.391 . S
C1577 C1576 1.386 . S
C1577 C1581 1.393 . S
C1578 H1570 0.950 1_554 S
C1578 C1576 1.391 . S
C1578 C1579 1.400 . S
C1579 C1578 1.400 . S
C1579 C1580 1.398 . S
C1579 C1585 1.491 1_554 S
C1580 H1571 0.950 . S
C1580 C1579 1.398 . S
C1580 C1581 1.391 . S
C1581 H1569 0.950 . S
C1581 C1577 1.393 . S
C1581 C1580 1.391 . S
C1582 H1572 0.950 . S
C1582 C1583 1.386 . S
C1582 C1584 1.391 . S
C1583 C1582 1.386 . S
C1583 C1587 1.393 . S
C1584 H1573 0.950 1_556 S
C1584 C1582 1.391 . S
C1584 C1585 1.400 . S
C1585 C1579 1.491 1_556 S
C1585 C1584 1.400 . S
C1585 C1586 1.398 . S
C1586 H1574 0.950 . S
C1586 C1585 1.398 . S
C1586 C1587 1.391 . S
C1587 H1575 0.950 . S
C1587 C1583 1.393 . S
C1587 C1586 1.391 . S
H1588 C1596 0.950 . S
H1589 C1601 0.950 . S
H1590 C1598 0.950 . S
H1591 C1600 0.950 . S
H1592 C1602 0.950 . S
H1593 C1604 0.950 . S
H1594 C1606 0.950 . S
H1595 C1607 0.950 . S
C1596 H1588 0.950 . S
C1596 C1597 1.386 . S
C1596 C1598 1.391 . S
C1597 C1596 1.386 . S
C1597 C1601 1.393 . S
C1598 H1590 0.950 . S
C1598 C1596 1.391 . S
C1598 C1599 1.400 . S
C1599 C1598 1.400 . S
C1599 C1600 1.398 . S
C1599 C1605 1.491 . S
C1600 H1591 0.950 . S
C1600 C1599 1.398 . S
C1600 C1601 1.391 . S
C1601 H1589 0.950 . S
C1601 C1597 1.393 . S
C1601 C1600 1.391 . S
C1602 H1592 0.950 . S
C1602 C1603 1.386 . S
C1602 C1604 1.391 . S
C1603 C1602 1.386 . S
C1603 C1607 1.393 . S
C1604 H1593 0.950 . S
C1604 C1602 1.391 . S
C1604 C1605 1.400 . S
C1605 C1599 1.491 . S
C1605 C1604 1.400 . S
C1605 C1606 1.398 . S
C1606 H1594 0.950 . S
C1606 C1605 1.398 . S
C1606 C1607 1.391 . S
C1607 H1595 0.950 . S
C1607 C1603 1.393 . S
C1607 C1606 1.391 . S
H1608 C1616 0.950 . S
H1609 C1621 0.950 . S
H1610 C1618 0.950 . S
H1611 C1620 0.950 . S
H1612 C1622 0.950 . S
H1613 C1624 0.950 . S
H1614 C1626 0.950 . S
H1615 C1627 0.950 . S
C1616 H1608 0.950 . S
C1616 C1617 1.386 . S
C1616 C1618 1.391 . S
C1617 C1616 1.386 . S
C1617 C1621 1.393 . S
C1618 H1610 0.950 . S
C1618 C1616 1.391 . S
C1618 C1619 1.400 . S
C1619 C1618 1.400 . S
C1619 C1620 1.398 . S
C1619 C1625 1.491 . S
C1620 H1611 0.950 . S
C1620 C1619 1.398 . S
C1620 C1621 1.391 . S
C1621 H1609 0.950 . S
C1621 C1617 1.393 . S
C1621 C1620 1.391 . S
C1622 H1612 0.950 . S
C1622 C1623 1.386 . S
C1622 C1624 1.391 . S
C1623 C1622 1.386 . S
C1623 C1627 1.393 . S
C1624 H1613 0.950 . S
C1624 C1622 1.391 . S
C1624 C1625 1.400 . S
C1625 C1619 1.491 . S
C1625 C1624 1.400 . S
C1625 C1626 1.398 . S
C1626 H1614 0.950 . S
C1626 C1625 1.398 . S
C1626 C1627 1.391 . S
C1627 H1615 0.950 . S
C1627 C1623 1.393 . S
C1627 C1626 1.391 . S
H1628 C1636 0.950 . S
H1629 C1641 0.950 . S
H1630 C1638 0.950 . S
H1631 C1640 0.950 . S
H1632 C1642 0.950 . S
H1633 C1644 0.950 . S
H1634 C1646 0.950 . S
H1635 C1647 0.950 . S
C1636 H1628 0.950 . S
C1636 C1637 1.386 . S
C1636 C1638 1.391 . S
C1637 C1636 1.386 . S
C1637 C1641 1.393 . S
C1638 H1630 0.950 . S
C1638 C1636 1.391 . S
C1638 C1639 1.400 . S
C1639 C1638 1.400 . S
C1639 C1640 1.398 . S
C1639 C1645 1.491 . S
C1640 H1631 0.950 . S
C1640 C1639 1.398 . S
C1640 C1641 1.391 . S
C1641 H1629 0.950 . S
C1641 C1637 1.393 . S
C1641 C1640 1.391 . S
C1642 H1632 0.950 . S
C1642 C1643 1.386 . S
C1642 C1644 1.391 . S
C1643 C1642 1.386 . S
C1643 C1647 1.393 . S
C1644 H1633 0.950 . S
C1644 C1642 1.391 . S
C1644 C1645 1.400 . S
C1645 C1639 1.491 . S
C1645 C1644 1.400 . S
C1645 C1646 1.398 . S
C1646 H1634 0.950 . S
C1646 C1645 1.398 . S
C1646 C1647 1.391 . S
C1647 H1635 0.950 . S
C1647 C1643 1.393 . S
C1647 C1646 1.391 . S
H1648 C1656 0.950 . S
H1649 C1661 0.950 . S
H1650 C1658 0.950 . S
H1651 C1660 0.950 . S
H1652 C1662 0.950 . S
H1653 C1664 0.917 1_554 S
H1654 C1666 0.950 . S
H1655 C1667 0.950 . S
C1656 H1648 0.950 . S
C1656 C1657 1.386 . S
C1656 C1658 1.391 1_554 S
C1657 C1656 1.386 . S
C1657 C1661 1.393 . S
C1658 H1650 0.950 . S
C1658 C1656 1.391 1_556 S
C1658 C1659 1.400 1_556 S
C1659 C1658 1.400 1_554 S
C1659 C1660 1.398 . S
C1659 C1665 1.491 1_554 S
C1660 H1651 0.950 . S
C1660 C1659 1.398 . S
C1660 C1661 1.391 . S
C1661 H1649 0.950 . S
C1661 C1657 1.393 . S
C1661 C1660 1.391 . S
C1662 H1652 0.950 . S
C1662 C1663 1.386 . S
C1662 C1664 1.410 . S
C1663 C1662 1.386 . S
C1663 C1667 1.393 . S
C1664 H1653 0.917 1_556 S
C1664 C1662 1.410 . S
C1664 C1665 1.414 . S
C1665 C1659 1.491 1_556 S
C1665 C1664 1.414 . S
C1665 C1666 1.398 . S
C1666 H1654 0.950 . S
C1666 C1665 1.398 . S
C1666 C1667 1.391 . S
C1667 H1655 0.950 . S
C1667 C1663 1.393 . S
C1667 C1666 1.391 . S
H1668 C1676 0.950 . S
H1669 C1681 0.950 . S
H1670 C1678 0.950 . S
H1671 C1680 0.950 . S
H1672 C1682 0.950 . S
H1673 C1684 0.950 . S
H1674 C1686 0.950 . S
H1675 C1687 0.950 . S
C1676 H1668 0.950 . S
C1676 C1677 1.386 . S
C1676 C1678 1.391 . S
C1677 C1676 1.386 . S
C1677 C1681 1.393 . S
C1678 H1670 0.950 . S
C1678 C1676 1.391 . S
C1678 C1679 1.400 . S
C1679 C1678 1.400 . S
C1679 C1680 1.398 . S
C1679 C1685 1.491 . S
C1680 H1671 0.950 . S
C1680 C1679 1.398 . S
C1680 C1681 1.391 . S
C1681 H1669 0.950 . S
C1681 C1677 1.393 . S
C1681 C1680 1.391 . S
C1682 H1672 0.950 . S
C1682 C1683 1.386 . S
C1682 C1684 1.391 . S
C1683 C1682 1.386 . S
C1683 C1687 1.393 . S
C1684 H1673 0.950 . S
C1684 C1682 1.391 . S
C1684 C1685 1.400 . S
C1685 C1679 1.491 . S
C1685 C1684 1.400 . S
C1685 C1686 1.398 . S
C1686 H1674 0.950 . S
C1686 C1685 1.398 . S
C1686 C1687 1.391 . S
C1687 H1675 0.950 . S
C1687 C1683 1.393 . S
C1687 C1686 1.391 . S
H1688 C1696 0.950 . S
H1689 C1701 0.950 . S
H1690 C1698 0.950 . S
H1691 C1700 0.950 . S
H1692 C1702 0.950 . S
H1693 C1704 0.950 . S
H1694 C1706 0.950 . S
H1695 C1707 0.950 . S
C1696 H1688 0.950 . S
C1696 C1697 1.386 . S
C1696 C1698 1.391 . S
C1697 C1696 1.386 . S
C1697 C1701 1.393 . S
C1698 H1690 0.950 . S
C1698 C1696 1.391 . S
C1698 C1699 1.400 . S
C1699 C1698 1.400 . S
C1699 C1700 1.398 . S
C1699 C1705 1.491 . S
C1700 H1691 0.950 . S
C1700 C1699 1.398 . S
C1700 C1701 1.391 . S
C1701 H1689 0.950 . S
C1701 C1697 1.393 . S
C1701 C1700 1.391 . S
C1702 H1692 0.950 . S
C1702 C1703 1.386 . S
C1702 C1704 1.391 . S
C1703 C1702 1.386 . S
C1703 C1707 1.393 . S
C1704 H1693 0.950 . S
C1704 C1702 1.391 . S
C1704 C1705 1.400 . S
C1705 C1699 1.491 . S
C1705 C1704 1.400 . S
C1705 C1706 1.398 . S
C1706 H1694 0.950 . S
C1706 C1705 1.398 . S
C1706 C1707 1.391 . S
C1707 H1695 0.950 . S
C1707 C1703 1.393 . S
C1707 C1706 1.391 . S
H1708 C1716 0.950 . S
H1709 C1721 0.950 . S
H1710 C1718 0.950 . S
H1711 C1720 0.950 . S
H1712 C1722 0.950 . S
H1713 C1724 0.950 . S
H1714 C1726 0.950 . S
H1715 C1727 0.950 . S
C1716 H1708 0.950 . S
C1716 C1717 1.386 . S
C1716 C1718 1.391 . S
C1717 C1716 1.386 . S
C1717 C1721 1.393 . S
C1718 H1710 0.950 . S
C1718 C1716 1.391 . S
C1718 C1719 1.400 . S
C1719 C1718 1.400 . S
C1719 C1720 1.398 . S
C1719 C1725 1.491 . S
C1720 H1711 0.950 . S
C1720 C1719 1.398 . S
C1720 C1721 1.391 . S
C1721 H1709 0.950 . S
C1721 C1717 1.393 . S
C1721 C1720 1.391 . S
C1722 H1712 0.950 . S
C1722 C1723 1.386 . S
C1722 C1724 1.391 . S
C1723 C1722 1.386 . S
C1723 C1727 1.393 . S
C1724 H1713 0.950 . S
C1724 C1722 1.391 . S
C1724 C1725 1.400 . S
C1725 C1719 1.491 . S
C1725 C1724 1.400 . S
C1725 C1726 1.398 . S
C1726 H1714 0.950 . S
C1726 C1725 1.398 . S
C1726 C1727 1.391 . S
C1727 H1715 0.950 . S
C1727 C1723 1.393 . S
C1727 C1726 1.391 . S
C457 C9 1.178 . S
C463 C191 1.182 . S
C477 C359 1.184 . S
C483 C23 1.179 . S
C497 C37 1.183 . S
C503 C219 1.181 . S
C517 C51 1.178 . S
C523 C345 1.183 . S
C537 C65 1.184 . S
C543 C247 1.178 . S
C557 C79 1.182 . S
C563 C317 1.182 . S
C577 C93 1.182 . S
C583 C275 1.175 . S
C597 C443 1.184 . S
C603 C107 1.180 . S
C617 C303 1.175 . S
C623 C121 1.182 . S
C637 C135 1.178 . S
C643 C261 1.180 . S
C657 C331 1.180 . S
C663 C149 1.178 . S
C677 C163 1.179 . S
C683 C233 1.177 . S
C697 C205 1.179 . S
C703 C177 1.178 . S
C717 C289 1.180 . S
C723 C401 1.178 . S
C737 C415 1.177 . S
C743 C373 1.180 . S
C757 C429 1.175 . S
C763 C387 1.183 . S
C777 C5 1.752 . S
C783 C19 1.755 . S
C797 C28 1.447 . S
C803 C25 1.492 . S
C817 C47 1.748 . S
C823 C33 1.752 . S
C837 C53 1.476 . S
C843 C0 1.450 . S
C857 C103 1.751 . S
C863 C61 1.747 . S
C877 C81 1.478 . S
C883 C56 1.445 . S
C897 C89 1.743 . S
C903 C75 1.744 . S
C917 C84 1.465 . S
C923 C109 1.476 . S
C937 C126 1.459 . S
C943 C11 1.489 . S
C957 C123 1.486 . S
C963 C42 1.439 . S
C977 C151 1.491 . S
C983 C14 1.441 . S
C997 C389 1.479 . S
C1003 C98 1.444 . S
C1017 C392 1.465 . S
C1023 C39 1.477 . S
C1037 C154 1.451 . S
C1043 C67 1.475 . S
C1057 C95 1.474 . S
C1063 C168 1.454 . S
C1077 C207 1.711 . S
C1083 C193 1.710 . S
C1097 C210 1.515 . S
C1103 C201 1.524 . S
C1117 C235 1.714 . S
C1123 C221 1.715 . S
C1137 C182 1.516 . S
C1143 C229 1.523 . S
C1157 C249 1.717 . S
C1163 C291 1.717 . S
C1177 C238 1.514 . S
C1183 C257 1.525 . S
C1197 C277 1.712 . S
C1203 C263 1.713 . S
C1217 C266 1.523 . S
C1223 C285 1.535 . S
C1237 C187 1.527 . S
C1243 C308 1.512 . S
C1257 C299 1.521 . S
C1263 C224 1.528 . S
C1277 C327 1.535 . S
C1283 C196 1.522 . S
C1297 C425 1.537 . S
C1303 C280 1.510 . S
C1317 C434 1.519 . S
C1323 C215 1.537 . S
C1337 C243 1.524 . S
C1343 C336 1.530 . S
C1357 C350 1.520 . S
C1363 C271 1.521 . S
C1377 C173 1.747 . S
C1383 C369 1.744 . S
C1397 C378 1.466 . S
C1403 C179 1.481 . S
C1417 C159 1.753 . S
C1423 C383 1.749 . S
C1437 C165 1.492 . S
C1443 C364 1.448 . S
C1457 C117 1.749 . S
C1463 C397 1.745 . S
C1477 C137 1.477 . S
C1483 C112 1.448 . S
C1497 C145 1.743 . S
C1503 C131 1.745 . S
C1517 C140 1.465 . S
C1523 C403 1.477 . S
C1537 C375 1.492 . S
C1543 C70 1.451 . S
C1557 C361 1.724 . S
C1563 C417 1.724 . S
C1577 C355 1.522 . S
C1583 C420 1.529 . S
C1597 C431 1.715 . S
C1603 C347 1.714 . S
C1617 C341 1.526 . S
C1623 C406 1.529 . S
C1637 C445 1.718 . S
C1643 C305 1.719 . S
C1657 C294 1.515 . S
C1663 C313 1.524 . S
C1677 C333 1.714 . S
C1683 C319 1.713 . S
C1697 C322 1.519 . S
C1703 C439 1.522 . S
C1717 C411 1.524 . S
C1723 C252 1.530 . S
