# Generated by pormake.
# Topology sml, (6)-cn, num edge types: 1
# Building blocks:
#     Node 0, Type 0, BuildingBlock: KUMBOL_clean_sbu_0, # of connection points: 6
#     Node 1, Type 0, BuildingBlock: KUMBOL_clean_sbu_0, # of connection points: 6
#     Node 2, Type 0, BuildingBlock: KUMBOL_clean_sbu_0, # of connection points: 6
#     Node 3, Type 0, BuildingBlock: KUMBOL_clean_sbu_0, # of connection points: 6
#     Node 4, Type 0, BuildingBlock: KUMBOL_clean_sbu_0, # of connection points: 6
#     Node 5, Type 0, BuildingBlock: KUMBOL_clean_sbu_0, # of connection points: 6
#     Edge 6, Type (0, 0), BuildingBlock: ZUJKAS_clean_linker_0, # of connection points: 2
#     Edge 7, Type (0, 0), BuildingBlock: ZUJKAS_clean_linker_0, # of connection points: 2
#     Edge 8, Type (0, 0), BuildingBlock: ZUJKAS_clean_linker_0, # of connection points: 2
#     Edge 9, Type (0, 0), BuildingBlock: ZUJKAS_clean_linker_0, # of connection points: 2
#     Edge 10, Type (0, 0), BuildingBlock: ZUJKAS_clean_linker_0, # of connection points: 2
#     Edge 11, Type (0, 0), BuildingBlock: ZUJKAS_clean_linker_0, # of connection points: 2
#     Edge 12, Type (0, 0), BuildingBlock: ZUJKAS_clean_linker_0, # of connection points: 2
#     Edge 13, Type (0, 0), BuildingBlock: ZUJKAS_clean_linker_0, # of connection points: 2
#     Edge 14, Type (0, 0), BuildingBlock: ZUJKAS_clean_linker_0, # of connection points: 2
#     Edge 15, Type (0, 0), BuildingBlock: ZUJKAS_clean_linker_0, # of connection points: 2
#     Edge 16, Type (0, 0), BuildingBlock: ZUJKAS_clean_linker_0, # of connection points: 2
#     Edge 17, Type (0, 0), BuildingBlock: ZUJKAS_clean_linker_0, # of connection points: 2
#     Edge 18, Type (0, 0), BuildingBlock: ZUJKAS_clean_linker_0, # of connection points: 2
#     Edge 19, Type (0, 0), BuildingBlock: ZUJKAS_clean_linker_0, # of connection points: 2
#     Edge 20, Type (0, 0), BuildingBlock: ZUJKAS_clean_linker_0, # of connection points: 2
#     Edge 21, Type (0, 0), BuildingBlock: ZUJKAS_clean_linker_0, # of connection points: 2
#     Edge 22, Type (0, 0), BuildingBlock: ZUJKAS_clean_linker_0, # of connection points: 2
#     Edge 23, Type (0, 0), BuildingBlock: ZUJKAS_clean_linker_0, # of connection points: 2
# Relax obj value: 0.025
# Max RMSD: 0.145
# Mean RMSD: 0.145
data_MOF--net-sml--node1-KUMBOL_clean_sbu_0--edge1-ZUJKAS_clean_linker_0
_symmetry_space_group_name_H-M    P1
_symmetry_Int_Tables_number       1
_symmetry_cell_setting            triclinic
loop_
_symmetry_equiv_pos_as_xyz
'x, y, z'
_cell_length_a     44.615603
_cell_length_b     44.584802
_cell_length_c     28.721661
_cell_angle_alpha  89.953799
_cell_angle_beta   89.904192
_cell_angle_gamma 119.9994
loop_
_atom_site_label
_atom_site_type_symbol
_atom_site_fract_x
_atom_site_fract_y
_atom_site_fract_z
_atom_type_partial_charge
Gd0 Gd 0.23836 0.42161 0.06513 0.0
Gd1 Gd 0.1856 0.42675 0.9691 0.0
C2 C 0.12975 0.48878 0.9803 0.0
C3 C 0.06933 0.44334 0.98015 0.0
C4 C 0.1149 0.42877 0.97377 0.0
C5 C 0.1397 0.46341 0.97664 0.0
C6 C 0.07942 0.41834 0.97454 0.0
C7 C 0.09446 0.47851 0.98308 0.0
C8 C 0.15552 0.52371 0.97966 0.0
C9 C 0.19003 0.53256 0.97359 0.0
N10 N 0.17351 0.47239 0.97323 0.0
C11 C 0.19855 0.50643 0.96964 0.0
H12 H 0.22534 0.5137 0.96515 0.0
C13 C 0.10215 0.37126 0.96025 0.0
N14 N 0.12557 0.40537 0.96815 0.0
C15 C 0.06664 0.35961 0.96089 0.0
C16 C 0.0552 0.38319 0.96857 0.0
H17 H 0.11086 0.35289 0.95461 0.0
H18 H 0.08632 0.4976 0.98633 0.0
H19 H 0.19131 0.33454 0.06741 0.0
H20 H 0.14899 0.544 0.9826 0.0
H21 H 0.21012 0.55951 0.97209 0.0
H22 H 0.04218 0.43583 0.98125 0.0
H23 H 0.31649 0.49113 0.07769 0.0
H24 H 0.26028 0.29436 0.06172 0.0
H25 H 0.20085 0.28489 0.0662 0.0
H26 H 0.37247 0.3963 0.05999 0.0
H27 H 0.04814 0.33247 0.95556 0.0
H28 H 0.02768 0.37412 0.96896 0.0
H29 H 0.32429 0.33613 0.05819 0.0
H30 H 0.37784 0.50594 0.07784 0.0
N31 N 0.24484 0.37234 0.06175 0.0
C32 C 0.25628 0.31641 0.06153 0.0
C33 C 0.2227 0.31096 0.06429 0.0
C34 C 0.28432 0.35025 0.05966 0.0
C35 C 0.27767 0.37802 0.06013 0.0
C36 C 0.21744 0.33934 0.06496 0.0
N37 N 0.29718 0.43754 0.06538 0.0
C38 C 0.30473 0.41176 0.06152 0.0
C39 C 0.35755 0.47936 0.073 0.0
C40 C 0.36584 0.45326 0.06708 0.0
C41 C 0.32285 0.47091 0.07293 0.0
C42 C 0.33928 0.41886 0.06219 0.0
H43 H 0.39272 0.45979 0.06766 0.0
O44 O 0.25541 0.44864 0.13123 0.0
O45 O 0.20731 0.44444 0.03979 0.0
O46 O 0.24191 0.46926 0.96436 0.0
O47 O 0.27451 0.44998 1.00485 0.0
O48 O 0.25193 0.47718 0.0756 0.0
O49 O 0.21681 0.39414 0.13008 0.0
O50 O 0.17185 0.40166 0.90143 0.0
O51 O 0.21766 0.405 0.99425 0.0
O52 O 0.1806 0.38176 0.07276 0.0
O53 O 0.1502 0.4026 0.03043 0.0
O54 O 0.17456 0.37171 0.95736 0.0
O55 O 0.20671 0.45706 0.90605 0.0
C56 C 0.22504 0.47478 0.05543 0.0
C57 C 0.34611 0.39138 0.05976 0.0
C58 C 0.31867 0.35712 0.05876 0.0
C59 C 0.23625 0.42096 0.15593 0.0
C60 C 0.25306 0.41486 0.19597 0.0
C61 C 0.27893 0.40621 0.18928 0.0
C62 C 0.24298 0.41758 0.24148 0.0
C63 C 0.25865 0.41167 0.28035 0.0
C64 C 0.29467 0.40045 0.22748 0.0
C65 C 0.2847 0.40317 0.27268 0.0
C66 C 0.27144 0.46995 0.97311 0.0
C67 C 0.20172 0.37491 0.97769 0.0
C68 C 0.18957 0.43062 0.87853 0.0
C69 C 0.17216 0.43604 0.83866 0.0
C70 C 0.14552 0.44356 0.84556 0.0
C71 C 0.18252 0.43389 0.79309 0.0
C72 C 0.16639 0.4393 0.75435 0.0
C73 C 0.12934 0.44885 0.80747 0.0
C74 C 0.13963 0.44676 0.76219 0.0
C75 C 0.152 0.38295 0.06358 0.0
H76 H 0.28694 0.40389 0.15464 0.0
H77 H 0.22262 0.42381 0.24648 0.0
H78 H 0.31475 0.39393 0.22204 0.0
H79 H 0.29773 0.39903 0.30165 0.0
H80 H 0.13725 0.44537 0.8803 0.0
H81 H 0.20344 0.4285 0.78793 0.0
H82 H 0.10869 0.45453 0.81304 0.0
H83 H 0.12628 0.45052 0.73329 0.0
Gd84 Gd 0.82479 0.24481 0.40648 0.0
Gd85 Gd 0.76482 0.19368 0.31084 0.0
C86 C 0.64728 0.14049 0.32778 0.0
C87 C 0.63033 0.07962 0.32267 0.0
C88 C 0.6908 0.12415 0.31506 0.0
C89 C 0.6822 0.14952 0.32185 0.0
C90 C 0.66491 0.08892 0.31404 0.0
C91 C 0.62152 0.10539 0.32955 0.0
C92 C 0.63919 0.16698 0.32981 0.0
C93 C 0.66542 0.20131 0.32399 0.0
N94 N 0.70771 0.1831 0.31908 0.0
C95 C 0.69963 0.20889 0.31781 0.0
H96 H 0.71955 0.23555 0.31349 0.0
C97 C 0.73341 0.11051 0.29188 0.0
N98 N 0.72433 0.13414 0.30607 0.0
C99 C 0.70873 0.07521 0.29066 0.0
C100 C 0.67441 0.06429 0.30258 0.0
H101 H 0.75996 0.11882 0.28292 0.0
H102 H 0.5946 0.09794 0.33463 0.0
H103 H 0.85932 0.19253 0.40756 0.0
H104 H 0.61269 0.16114 0.33431 0.0
H105 H 0.65936 0.22197 0.32434 0.0
H106 H 0.61008 0.05267 0.32256 0.0
H107 H 0.84059 0.32555 0.42127 0.0
H108 H 0.96836 0.25463 0.38561 0.0
H109 H 0.91629 0.19731 0.39817 0.0
H110 H 0.98765 0.37047 0.38491 0.0
H111 H 0.71621 0.05647 0.28063 0.0
H112 H 0.65531 0.03696 0.30142 0.0
H113 H 0.99471 0.31922 0.37996 0.0
H114 H 0.89022 0.38544 0.41715 0.0
N115 N 0.87844 0.24669 0.39999 0.0
C116 C 0.94335 0.25274 0.39001 0.0
C117 C 0.91403 0.22037 0.39717 0.0
C118 C 0.94015 0.28239 0.38971 0.0
C119 C 0.90696 0.27846 0.39532 0.0
C120 C 0.88167 0.21782 0.40261 0.0
N121 N 0.87086 0.30231 0.40492 0.0
C122 C 0.903 0.3072 0.3976 0.0
C123 C 0.89416 0.36368 0.41132 0.0
C124 C 0.9272 0.36922 0.40123 0.0
C125 C 0.86619 0.32983 0.41378 0.0
C126 C 0.93206 0.3408 0.39499 0.0
H127 H 0.94886 0.39545 0.39948 0.0
O128 O 0.81771 0.26458 0.47228 0.0
O129 O 0.77011 0.21432 0.3831 0.0
O130 O 0.77961 0.25032 0.30848 0.0
O131 O 0.83227 0.28181 0.34735 0.0
O132 O 0.78455 0.26026 0.41806 0.0
O133 O 0.83078 0.22387 0.47185 0.0
O134 O 0.777 0.18278 0.2417 0.0
O135 O 0.81887 0.22443 0.33512 0.0
O136 O 0.80341 0.18669 0.41674 0.0
O137 O 0.75622 0.15493 0.36688 0.0
O138 O 0.80782 0.18179 0.29596 0.0
O139 O 0.75473 0.21582 0.24956 0.0
C140 C 0.75896 0.23321 0.39966 0.0
C141 C 0.96503 0.34488 0.38755 0.0
C142 C 0.96906 0.31571 0.38483 0.0
C143 C 0.82505 0.24471 0.49731 0.0
C144 C 0.84838 0.26104 0.53706 0.0
C145 C 0.88322 0.28593 0.53001 0.0
C146 C 0.83559 0.25139 0.58271 0.0
C147 C 0.85749 0.26649 0.62143 0.0
C148 C 0.90504 0.30113 0.56807 0.0
C149 C 0.89237 0.29157 0.61342 0.0
C150 C 0.80894 0.27947 0.31674 0.0
C151 C 0.83226 0.20828 0.31685 0.0
C152 C 0.76495 0.20033 0.22045 0.0
C153 C 0.74248 0.18351 0.18008 0.0
C154 C 0.70799 0.15739 0.18635 0.0
C155 C 0.75564 0.19386 0.13471 0.0
C156 C 0.7344 0.17831 0.09554 0.0
C157 C 0.68685 0.14173 0.14783 0.0
C158 C 0.69986 0.15205 0.10277 0.0
C159 C 0.77621 0.15735 0.40238 0.0
H160 H 0.89352 0.29357 0.49519 0.0
H161 H 0.80873 0.23176 0.58794 0.0
H162 H 0.93191 0.32046 0.56242 0.0
H163 H 0.90984 0.30416 0.64223 0.0
H164 H 0.69741 0.14916 0.22094 0.0
H165 H 0.78222 0.21435 0.13002 0.0
H166 H 0.66027 0.12148 0.1529 0.0
H167 H 0.68295 0.13914 0.07357 0.0
Gd168 Gd 0.58286 0.8203 0.73498 0.0
Gd169 Gd 0.57761 0.7626 0.63839 0.0
C170 C 0.51836 0.64461 0.64894 0.0
C171 C 0.56488 0.63118 0.64713 0.0
C172 C 0.57781 0.6909 0.64173 0.0
C173 C 0.543 0.68017 0.64539 0.0
C174 C 0.58914 0.66652 0.64166 0.0
C175 C 0.52954 0.62024 0.65082 0.0
C176 C 0.4832 0.63455 0.6491 0.0
C177 C 0.47341 0.6596 0.6439 0.0
N178 N 0.5331 0.70438 0.64282 0.0
C179 C 0.49884 0.69453 0.63999 0.0
H180 H 0.49087 0.71359 0.63611 0.0
C181 C 0.63474 0.7368 0.62789 0.0
N182 N 0.60051 0.72521 0.6363 0.0
C183 C 0.64726 0.71363 0.62768 0.0
C184 C 0.62442 0.67836 0.63507 0.0
H185 H 0.65254 0.76405 0.62245 0.0
H186 H 0.51102 0.59283 0.65396 0.0
H187 H 0.66996 0.86096 0.73513 0.0
H188 H 0.46346 0.60751 0.65199 0.0
H189 H 0.44629 0.65206 0.64301 0.0
H190 H 0.57309 0.61205 0.64756 0.0
H191 H 0.51345 0.82879 0.75064 0.0
H192 H 0.70914 0.96976 0.7217 0.0
H193 H 0.71926 0.92026 0.72911 0.0
H194 H 0.60675 0.97915 0.72321 0.0
H195 H 0.67451 0.72298 0.62192 0.0
H196 H 0.63418 0.66046 0.63481 0.0
H197 H 0.66695 0.99144 0.71818 0.0
H198 H 0.49821 0.87508 0.74974 0.0
N199 N 0.63182 0.87622 0.72993 0.0
C200 C 0.68729 0.94367 0.72404 0.0
C201 C 0.6931 0.91582 0.72842 0.0
C202 C 0.65337 0.93761 0.72391 0.0
C203 C 0.62585 0.90317 0.72739 0.0
C204 C 0.66494 0.88212 0.73189 0.0
N205 N 0.56662 0.86301 0.73559 0.0
C206 C 0.59211 0.89631 0.72992 0.0
C207 C 0.5247 0.8814 0.74387 0.0
C208 C 0.55042 0.91567 0.73571 0.0
C209 C 0.5334 0.85531 0.74445 0.0
C210 C 0.58474 0.92359 0.72943 0.0
H211 H 0.54368 0.93588 0.73553 0.0
O212 O 0.55627 0.81004 0.80157 0.0
O213 O 0.56033 0.76639 0.70966 0.0
O214 O 0.53425 0.77521 0.6352 0.0
O215 O 0.55295 0.82696 0.67586 0.0
O216 O 0.52768 0.77787 0.74685 0.0
O217 O 0.61107 0.82742 0.7994 0.0
O218 O 0.60188 0.77442 0.57006 0.0
O219 O 0.59876 0.81632 0.66349 0.0
O220 O 0.62294 0.80254 0.74184 0.0
O221 O 0.60221 0.75147 0.69911 0.0
O222 O 0.63199 0.80742 0.62482 0.0
O223 O 0.54635 0.75246 0.57626 0.0
C224 C 0.53014 0.75355 0.72616 0.0
C225 C 0.6119 0.95785 0.72411 0.0
C226 C 0.64617 0.96485 0.72134 0.0
C227 C 0.58428 0.8195 0.82574 0.0
C228 C 0.58995 0.8425 0.86551 0.0
C229 C 0.59796 0.87682 0.85843 0.0
C230 C 0.58728 0.82995 0.91115 0.0
C231 C 0.59259 0.85156 0.94979 0.0
C232 C 0.60309 0.89835 0.89641 0.0
C233 C 0.60041 0.88589 0.94176 0.0
C234 C 0.53305 0.80377 0.64431 0.0
C235 C 0.62848 0.83108 0.64561 0.0
C236 C 0.57258 0.76244 0.54799 0.0
C237 C 0.5674 0.73985 0.50791 0.0
C238 C 0.56076 0.70592 0.51445 0.0
C239 C 0.56903 0.75239 0.4625 0.0
C240 C 0.56399 0.73114 0.42354 0.0
C241 C 0.55582 0.68473 0.47614 0.0
C242 C 0.55741 0.69716 0.43101 0.0
C243 C 0.62189 0.77282 0.73224 0.0
H244 H 0.60023 0.88697 0.82366 0.0
H245 H 0.58154 0.80352 0.91644 0.0
H246 H 0.60909 0.92478 0.89069 0.0
H247 H 0.60407 0.90306 0.97054 0.0
H248 H 0.55939 0.69582 0.54906 0.0
H249 H 0.57378 0.77853 0.45762 0.0
H250 H 0.55083 0.65858 0.48143 0.0
H251 H 0.55396 0.68028 0.40193 0.0
Gd252 Gd 0.76628 0.5812 0.06161 0.0
Gd253 Gd 0.82075 0.57865 0.96543 0.0
C254 C 0.8807 0.52066 0.97907 0.0
C255 C 0.94039 0.56756 0.97528 0.0
C256 C 0.8931 0.57964 0.96902 0.0
C257 C 0.86939 0.54494 0.97456 0.0
C258 C 0.92887 0.59131 0.96801 0.0
C259 C 0.91632 0.53226 0.98081 0.0
C260 C 0.85593 0.4854 0.97965 0.0
C261 C 0.82105 0.47514 0.97393 0.0
N262 N 0.83525 0.53467 0.97174 0.0
C263 C 0.81118 0.50025 0.96912 0.0
H264 H 0.78413 0.49187 0.96473 0.0
C265 C 0.90309 0.63521 0.94842 0.0
N266 N 0.881 0.60166 0.9612 0.0
C267 C 0.93883 0.64811 0.94727 0.0
C268 C 0.95184 0.6262 0.95787 0.0
H269 H 0.89317 0.6523 0.94044 0.0
H270 H 0.9255 0.51403 0.98481 0.0
H271 H 0.81307 0.66837 0.06665 0.0
H272 H 0.86357 0.46594 0.98286 0.0
H273 H 0.80172 0.44791 0.97322 0.0
H274 H 0.96778 0.57605 0.97513 0.0
H275 H 0.6878 0.51188 0.07397 0.0
H276 H 0.74468 0.70843 0.04742 0.0
H277 H 0.80368 0.71803 0.05991 0.0
H278 H 0.6326 0.60637 0.04288 0.0
H279 H 0.9563 0.67494 0.93829 0.0
H280 H 0.97951 0.6362 0.95673 0.0
H281 H 0.68089 0.66654 0.04033 0.0
H282 H 0.62646 0.49707 0.06994 0.0
N283 N 0.75991 0.63055 0.05755 0.0
C284 C 0.7486 0.68642 0.05062 0.0
C285 C 0.78191 0.69193 0.05776 0.0
C286 C 0.72063 0.65255 0.04887 0.0
C287 C 0.72719 0.62481 0.05295 0.0
C288 C 0.7871 0.66357 0.06167 0.0
N289 N 0.70749 0.56533 0.05991 0.0
C290 C 0.70011 0.59108 0.05389 0.0
C291 C 0.64692 0.5236 0.06511 0.0
C292 C 0.63888 0.5496 0.05635 0.0
C293 C 0.68158 0.53205 0.06752 0.0
C294 C 0.6656 0.58394 0.0514 0.0
H295 H 0.61201 0.54303 0.05465 0.0
O296 O 0.74743 0.55262 0.1265 0.0
O297 O 0.7998 0.56068 0.03702 0.0
O298 O 0.76519 0.53442 0.96149 0.0
O299 O 0.73101 0.55213 1.00117 0.0
O300 O 0.75444 0.52623 0.07099 0.0
O301 O 0.78512 0.60745 0.12778 0.0
O302 O 0.83117 0.60295 0.89707 0.0
O303 O 0.78713 0.59851 0.99083 0.0
O304 O 0.82349 0.62069 0.07294 0.0
O305 O 0.85783 0.60857 0.02299 0.0
O306 O 0.82948 0.63276 0.95294 0.0
O307 O 0.80072 0.54721 0.9032 0.0
C308 C 0.78246 0.53005 0.05235 0.0
C309 C 0.65893 0.61134 0.04541 0.0
C310 C 0.68641 0.64559 0.04406 0.0
C311 C 0.76543 0.57984 0.15238 0.0
C312 C 0.74735 0.58441 0.19222 0.0
C313 C 0.72053 0.59167 0.18536 0.0
C314 C 0.7571 0.58144 0.23778 0.0
C315 C 0.74006 0.58552 0.27659 0.0
C316 C 0.70352 0.59576 0.22354 0.0
C317 C 0.71312 0.59271 0.26882 0.0
C318 C 0.73506 0.53256 0.96989 0.0
C319 C 0.80211 0.62858 0.97391 0.0
C320 C 0.81534 0.57359 0.87493 0.0
C321 C 0.83359 0.56996 0.83453 0.0
C322 C 0.86128 0.56392 0.84071 0.0
C323 C 0.82315 0.57255 0.78923 0.0
C324 C 0.84034 0.56921 0.75 0.0
C325 C 0.87842 0.56057 0.80213 0.0
C326 C 0.8681 0.56317 0.75712 0.0
C327 C 0.85372 0.62467 0.05904 0.0
H328 H 0.71279 0.59421 0.15062 0.0
H329 H 0.77766 0.57552 0.2429 0.0
H330 H 0.68287 0.60145 0.21803 0.0
H331 H 0.69978 0.5965 0.29776 0.0
H332 H 0.86955 0.56169 0.87525 0.0
H333 H 0.80194 0.57756 0.78464 0.0
H334 H 0.89972 0.55578 0.80713 0.0
H335 H 0.88156 0.55993 0.72787 0.0
Gd336 Gd 0.18437 0.76367 0.40022 0.0
Gd337 Gd 0.24313 0.8157 0.30389 0.0
C338 C 0.36089 0.87322 0.3165 0.0
C339 C 0.37503 0.93341 0.31413 0.0
C340 C 0.31522 0.88711 0.3078 0.0
C341 C 0.3255 0.86272 0.31214 0.0
C342 C 0.33989 0.92274 0.30777 0.0
C343 C 0.38551 0.90869 0.31853 0.0
C344 C 0.37053 0.8478 0.31726 0.0
C345 C 0.34528 0.81307 0.31183 0.0
N346 N 0.30106 0.82872 0.30942 0.0
C347 C 0.31054 0.80399 0.30715 0.0
H348 H 0.29133 0.77703 0.30315 0.0
C349 C 0.27006 0.89882 0.292 0.0
N350 N 0.28112 0.87587 0.30145 0.0
C351 C 0.29353 0.93445 0.2918 0.0
C352 C 0.32856 0.9465 0.30024 0.0
H353 H 0.24297 0.88964 0.28578 0.0
H354 H 0.41279 0.91726 0.32231 0.0
H355 H 0.14146 0.80794 0.39819 0.0
H356 H 0.39743 0.85477 0.32077 0.0
H357 H 0.35252 0.79324 0.3114 0.0
H358 H 0.39437 0.96068 0.31463 0.0
H359 H 0.17807 0.6869 0.41891 0.0
H360 H 0.03372 0.73592 0.38004 0.0
H361 H 0.08177 0.79616 0.38881 0.0
H362 H 0.02779 0.62561 0.38693 0.0
H363 H 0.28458 0.95259 0.28527 0.0
H364 H 0.3467 0.97411 0.29998 0.0
H365 H 0.01383 0.67227 0.37892 0.0
H366 H 0.13316 0.62489 0.41847 0.0
N367 N 0.12786 0.75492 0.39377 0.0
C368 C 0.05996 0.74091 0.38425 0.0
C369 C 0.08699 0.77493 0.38927 0.0
C370 C 0.06701 0.71369 0.3859 0.0
C371 C 0.10165 0.72164 0.39111 0.0
C372 C 0.12091 0.78148 0.39465 0.0
N373 N 0.14291 0.70433 0.40205 0.0
C374 C 0.10946 0.69548 0.39522 0.0
C375 C 0.12614 0.64447 0.41166 0.0
C376 C 0.09176 0.63486 0.4024 0.0
C377 C 0.15147 0.67956 0.41201 0.0
C378 C 0.08294 0.6605 0.39474 0.0
H379 H 0.07216 0.60767 0.4023 0.0
O380 O 0.19518 0.74946 0.46796 0.0
O381 O 0.23857 0.79507 0.37559 0.0
O382 O 0.23004 0.75951 0.30173 0.0
O383 O 0.17774 0.7269 0.34157 0.0
O384 O 0.22673 0.75108 0.41339 0.0
O385 O 0.17592 0.7853 0.46329 0.0
O386 O 0.23179 0.82802 0.23523 0.0
O387 O 0.18919 0.78342 0.32845 0.0
O388 O 0.20063 0.82118 0.40433 0.0
O389 O 0.25283 0.85171 0.36388 0.0
O390 O 0.19878 0.82567 0.28936 0.0
O391 O 0.25344 0.79423 0.24214 0.0
C392 C 0.25124 0.77778 0.39274 0.0
C393 C 0.04851 0.65233 0.38786 0.0
C394 C 0.04056 0.6789 0.38336 0.0
C395 C 0.18472 0.76776 0.49087 0.0
C396 C 0.16192 0.75073 0.53103 0.0
C397 C 0.12745 0.72472 0.52449 0.0
C398 C 0.17482 0.76062 0.57648 0.0
C399 C 0.15337 0.74468 0.61549 0.0
C400 C 0.10609 0.7087 0.56284 0.0
C401 C 0.11886 0.71852 0.608 0.0
C402 C 0.20114 0.72994 0.31046 0.0
C403 C 0.17484 0.79862 0.3101 0.0
C404 C 0.24369 0.81045 0.21352 0.0
C405 C 0.26644 0.82758 0.17335 0.0
C406 C 0.30068 0.85414 0.17983 0.0
C407 C 0.25374 0.81716 0.12792 0.0
C408 C 0.27516 0.8331 0.0889 0.0
C409 C 0.32203 0.87013 0.14145 0.0
C410 C 0.30946 0.85976 0.09632 0.0
C411 C 0.23039 0.84996 0.39547 0.0
H412 H 0.11708 0.71683 0.48984 0.0
H413 H 0.20138 0.78105 0.58134 0.0
H414 H 0.07952 0.68851 0.55757 0.0
H415 H 0.10179 0.70529 0.63706 0.0
H416 H 0.31089 0.86247 0.21445 0.0
H417 H 0.22734 0.79634 0.12309 0.0
H418 H 0.34842 0.89072 0.14669 0.0
H419 H 0.32649 0.87298 0.06722 0.0
Gd420 Gd 0.41937 0.18495 0.73959 0.0
Gd421 Gd 0.42024 0.23158 0.63446 0.0
C422 C 0.49867 0.34693 0.6436 0.0
C423 C 0.46169 0.37251 0.64191 0.0
C424 C 0.43651 0.31002 0.63737 0.0
C425 C 0.46909 0.3137 0.64059 0.0
C426 C 0.43256 0.33947 0.63606 0.0
C427 C 0.4947 0.37623 0.64581 0.0
C428 C 0.53135 0.34975 0.64266 0.0
C429 C 0.53392 0.31999 0.63716 0.0
N430 N 0.47203 0.28491 0.63786 0.0
C431 C 0.5038 0.28759 0.63449 0.0
H432 H 0.506 0.26476 0.63034 0.0
C433 C 0.3776 0.27346 0.61816 0.0
N434 N 0.40902 0.27779 0.63116 0.0
C435 C 0.37234 0.30186 0.61657 0.0
C436 C 0.39977 0.33494 0.6266 0.0
H437 H 0.35635 0.24782 0.61063 0.0
H438 H 0.51708 0.40194 0.64883 0.0
H439 H 0.33131 0.14921 0.75721 0.0
H440 H 0.55471 0.3748 0.64481 0.0
H441 H 0.55907 0.32195 0.63535 0.0
H442 H 0.45913 0.39543 0.64174 0.0
H443 H 0.48495 0.16612 0.73766 0.0
H444 H 0.2837 0.04031 0.74287 0.0
H445 H 0.27977 0.09276 0.75695 0.0
H446 H 0.37768 0.0201 0.71793 0.0
H447 H 0.34716 0.29821 0.60775 0.0
H448 H 0.39568 0.35692 0.62516 0.0
H449 H 0.32038 0.01363 0.73022 0.0
H450 H 0.49253 0.11635 0.72404 0.0
N451 N 0.36642 0.13103 0.74042 0.0
C452 C 0.30699 0.0655 0.74225 0.0
C453 C 0.30469 0.09501 0.75017 0.0
C454 C 0.33937 0.06874 0.7346 0.0
C455 C 0.36905 0.1022 0.73371 0.0
C456 C 0.33464 0.12751 0.74988 0.0
N457 N 0.42982 0.13803 0.7289 0.0
C458 C 0.4015 0.10584 0.72717 0.0
C459 C 0.46677 0.11303 0.72396 0.0
C460 C 0.43802 0.08023 0.71876 0.0
C461 C 0.46218 0.14148 0.73054 0.0
C462 C 0.40493 0.07612 0.72182 0.0
H463 H 0.44162 0.05808 0.71456 0.0
O464 O 0.45649 0.19074 0.79297 0.0
O465 O 0.44826 0.23542 0.70074 0.0
O466 O 0.44848 0.20217 0.62257 0.0
O467 O 0.46771 0.19982 0.69632 0.0
O468 O 0.43647 0.23726 0.77004 0.0
O469 O 0.40411 0.17705 0.8122 0.0
O470 O 0.3925 0.22025 0.5687 0.0
O471 O 0.40018 0.17975 0.66697 0.0
O472 O 0.37899 0.20143 0.74739 0.0
O473 O 0.38918 0.24161 0.68827 0.0
O474 O 0.36458 0.18853 0.63265 0.0
O475 O 0.44746 0.2392 0.56882 0.0
C476 C 0.45171 0.25563 0.73396 0.0
C477 C 0.37544 0.04308 0.72187 0.0
C478 C 0.34282 0.0394 0.72877 0.0
C479 C 0.4342 0.1829 0.82677 0.0
C480 C 0.4338 0.16017 0.86422 0.0
C481 C 0.43135 0.12819 0.85479 0.0
C482 C 0.43462 0.17046 0.91065 0.0
C483 C 0.433 0.14903 0.94778 0.0
C484 C 0.42997 0.10686 0.89135 0.0
C485 C 0.43074 0.1171 0.93754 0.0
C486 C 0.4689 0.19717 0.65057 0.0
C487 C 0.36907 0.16544 0.65368 0.0
C488 C 0.42014 0.23015 0.54346 0.0
C489 C 0.42458 0.25219 0.50289 0.0
C490 C 0.42944 0.28556 0.50846 0.0
C491 C 0.42454 0.23979 0.45789 0.0
C492 C 0.42919 0.26052 0.41839 0.0
C493 C 0.43378 0.30615 0.4696 0.0
C494 C 0.43361 0.29379 0.42489 0.0
C495 C 0.37384 0.22531 0.72735 0.0
H496 H 0.43028 0.11956 0.81943 0.0
H497 H 0.43575 0.19488 0.91777 0.0
H498 H 0.42817 0.08222 0.88387 0.0
H499 H 0.42986 0.10016 0.96521 0.0
H500 H 0.43001 0.29577 0.54266 0.0
H501 H 0.42149 0.21425 0.45382 0.0
H502 H 0.4373 0.33182 0.47416 0.0
H503 H 0.43663 0.31022 0.39537 0.0
H504 H 0.33098 0.19422 0.80247 0.0
H505 H 0.29826 0.21509 0.8468 0.0
H506 H 0.33606 0.30388 0.75625 0.0
H507 H 0.36922 0.28359 0.71228 0.0
H508 H 0.32663 0.27982 0.89337 0.0
H509 H 0.23014 0.26559 0.76052 0.0
H510 H 0.25456 0.24335 0.75645 0.0
H511 H 0.27436 0.28834 0.74096 0.0
C512 C 0.33197 0.21789 0.79136 0.0
C513 C 0.35211 0.23666 0.7527 0.0
C514 C 0.31327 0.22983 0.81692 0.0
C515 C 0.31417 0.26069 0.8043 0.0
C516 C 0.33421 0.27951 0.76587 0.0
H517 H 0.27077 0.39945 0.9612 0.0
H518 H 0.29711 0.36935 0.9234 0.0
C519 C 0.35303 0.26769 0.74047 0.0
C520 C 0.29586 0.27432 0.83292 0.0
H521 H 0.23376 0.29772 0.82846 0.0
C522 C 0.30616 0.28354 0.8793 0.0
C523 C 0.26899 0.27887 0.81461 0.0
C524 C 0.25606 0.26827 0.76552 0.0
C525 C 0.29092 0.29803 0.90751 0.0
C526 C 0.26478 0.30361 0.88884 0.0
C527 C 0.25386 0.29355 0.84277 0.0
C528 C 0.24912 0.32079 0.91594 0.0
C529 C 0.30264 0.30689 0.95724 0.0
C530 C 0.2133 0.30367 0.92437 0.0
C531 C 0.19816 0.3209 0.94639 0.0
C532 C 0.21855 0.35556 0.96041 0.0
C533 C 0.25443 0.37252 0.95226 0.0
C534 C 0.26956 0.35528 0.93048 0.0
H535 H 0.3171 0.29404 0.96927 0.0
H536 H 0.31993 0.33529 0.96038 0.0
H537 H 0.28003 0.29903 0.98042 0.0
H538 H 0.19696 0.27715 0.91313 0.0
H539 H 0.17039 0.30737 0.95155 0.0
H540 H 0.09098 0.38347 0.0612 0.0
H541 H 0.03966 0.35044 0.1091 0.0
H542 H 0.09012 0.30326 0.18158 0.0
H543 H 0.14186 0.33593 0.1329 0.0
H544 H 0.99944 0.27522 0.11943 0.0
H545 H 0.05491 0.34511 0.28578 0.0
H546 H 0.07388 0.36333 0.22983 0.0
H547 H 0.07927 0.32936 0.25447 0.0
C548 C 0.09124 0.36579 0.08678 0.0
C549 C 0.12059 0.36214 0.09262 0.0
C550 C 0.06182 0.34705 0.11442 0.0
C551 C 0.06112 0.32457 0.14909 0.0
C552 C 0.09027 0.32075 0.15528 0.0
H553 H 0.86819 0.17641 0.29171 0.0
H554 H 0.92539 0.20264 0.25418 0.0
C555 C 0.11976 0.33936 0.12727 0.0
C556 C 0.02951 0.30499 0.17805 0.0
H557 H 0.99655 0.30049 0.28709 0.0
C558 C 0.99886 0.28043 0.1562 0.0
C559 C 0.02881 0.31218 0.22589 0.0
C560 C 0.06084 0.33906 0.2506 0.0
C561 C 0.96742 0.26313 0.18076 0.0
C562 C 0.96664 0.27042 0.22853 0.0
C563 C 0.99734 0.29474 0.25057 0.0
C564 C 0.93364 0.25475 0.25507 0.0
C565 C 0.93496 0.23808 0.15504 0.0
C566 C 0.91968 0.27544 0.26874 0.0
C567 C 0.8871 0.26052 0.2899 0.0
C568 C 0.86819 0.22473 0.29888 0.0
C569 C 0.88245 0.20413 0.2858 0.0
C570 C 0.91502 0.21904 0.26435 0.0
H571 H 0.93892 0.23964 0.11672 0.0
H572 H 0.92679 0.21126 0.16638 0.0
H573 H 0.91356 0.24317 0.16319 0.0
H574 H 0.9335 0.303 0.26163 0.0
H575 H 0.87649 0.27697 0.29816 0.0
H576 H 0.75576 0.0925 0.36981 0.0
H577 H 0.73356 0.03894 0.41469 0.0
H578 H 0.75123 0.09665 0.54202 0.0
H579 H 0.7743 0.15052 0.49686 0.0
H580 H 0.76794 0.04784 0.55354 0.0
H581 H 0.63903 0.98797 0.47056 0.0
H582 H 0.6728 0.99947 0.42853 0.0
H583 H 0.67111 0.03284 0.4618 0.0
C584 C 0.75465 0.0937 0.40728 0.0
C585 C 0.76605 0.12553 0.42974 0.0
C586 C 0.74193 0.06306 0.433 0.0
C587 C 0.73961 0.06346 0.48179 0.0
C588 C 0.7524 0.09552 0.50443 0.0
H589 H 0.60216 0.87446 0.63269 0.0
H590 H 0.63081 0.93219 0.59882 0.0
C591 C 0.76564 0.1263 0.47864 0.0
C592 C 0.72355 0.03047 0.50897 0.0
H593 H 0.65107 0.95056 0.51596 0.0
C594 C 0.74227 0.02664 0.54554 0.0
C595 C 0.68976 0.00294 0.49931 0.0
C596 C 0.66687 0.0061 0.46327 0.0
C597 C 0.7285 0.99593 0.57198 0.0
C598 C 0.69541 0.96772 0.56069 0.0
C599 C 0.67653 0.97186 0.52459 0.0
C600 C 0.67944 0.93379 0.58583 0.0
C601 C 0.74939 0.9945 0.61227 0.0
C602 C 0.69704 0.91512 0.59055 0.0
C603 C 0.68086 0.88231 0.61161 0.0
C604 C 0.64662 0.86725 0.62787 0.0
C605 C 0.62888 0.88564 0.62226 0.0
C606 C 0.64522 0.91866 0.60223 0.0
H607 H 0.7671 0.02078 0.62626 0.0
H608 H 0.73251 0.97804 0.64095 0.0
H609 H 0.76555 0.98355 0.60008 0.0
H610 H 0.72296 0.92543 0.57682 0.0
H611 H 0.69489 0.86836 0.61431 0.0
H612 H 0.62181 0.71152 0.7281 0.0
H613 H 0.65509 0.69288 0.77451 0.0
H614 H 0.70145 0.78938 0.84956 0.0
H615 H 0.66857 0.80889 0.80219 0.0
H616 H 0.73132 0.72989 0.78424 0.0
H617 H 0.65965 0.70885 0.95116 0.0
H618 H 0.64111 0.70969 0.89562 0.0
H619 H 0.67405 0.74924 0.92096 0.0
C620 C 0.63937 0.72918 0.7539 0.0
C621 C 0.64277 0.76203 0.76072 0.0
C622 C 0.65824 0.71827 0.78072 0.0
C623 C 0.68061 0.73962 0.81564 0.0
C624 C 0.68409 0.77238 0.82299 0.0
H625 H 0.8314 0.69694 0.95293 0.0
H626 H 0.80344 0.72699 0.91784 0.0
C627 C 0.66537 0.78352 0.79574 0.0
C628 C 0.70054 0.72741 0.84341 0.0
H629 H 0.70472 0.69574 0.95028 0.0
C630 C 0.72582 0.72281 0.82069 0.0
C631 C 0.69295 0.71778 0.89078 0.0
C632 C 0.66536 0.72136 0.91631 0.0
C633 C 0.7435 0.70853 0.8439 0.0
C634 C 0.73584 0.69874 0.89121 0.0
C635 C 0.71073 0.70356 0.91412 0.0
C636 C 0.75234 0.68164 0.91636 0.0
C637 C 0.76946 0.70291 0.81725 0.0
C638 C 0.73279 0.64638 0.92788 0.0
C639 C 0.74872 0.62922 0.94766 0.0
C640 C 0.78437 0.64718 0.95739 0.0
C641 C 0.8038 0.68261 0.94643 0.0
C642 C 0.78789 0.69975 0.92637 0.0
H643 H 0.76822 0.7065 0.77916 0.0
H644 H 0.79594 0.72171 0.82936 0.0
H645 H 0.76506 0.67644 0.82369 0.0
H646 H 0.70537 0.63185 0.92016 0.0
H647 H 0.73321 0.60175 0.95432 0.0
H648 H 0.13121 0.72901 0.29651 0.0
H649 H 0.07424 0.70077 0.26064 0.0
H650 H 0.08162 0.80016 0.24085 0.0
H651 H 0.13809 0.82842 0.27985 0.0
H652 H 0.01681 0.75233 0.2641 0.0
H653 H 0.06233 0.70022 0.12295 0.0
H654 H 0.06668 0.68559 0.17933 0.0
H655 H 0.09146 0.73096 0.16492 0.0
C656 C 0.12045 0.74484 0.28574 0.0
C657 C 0.13893 0.78093 0.29197 0.0
C658 C 0.08798 0.72866 0.26441 0.0
C659 C 0.07386 0.74834 0.24693 0.0
C660 C 0.09195 0.78437 0.25388 0.0
H661 H 0.91842 0.67224 0.02926 0.0
H662 H 0.97072 0.70392 0.0761 0.0
C663 C 0.12424 0.80051 0.27603 0.0
C664 C 0.04099 0.73155 0.21985 0.0
H665 H 1.00198 0.67963 0.12588 0.0
C666 C 0.01359 0.73655 0.23373 0.0
C667 C 0.03692 0.71142 0.1797 0.0
C668 C 0.06603 0.707 0.16053 0.0
C669 C 0.98221 0.72175 0.20892 0.0
C670 C 0.97767 0.70046 0.16987 0.0
C671 C 0.0052 0.69569 0.15593 0.0
C672 C 0.94504 0.68328 0.14216 0.0
C673 C 0.95469 0.72991 0.22416 0.0
C674 C 0.9129 0.66132 0.1634 0.0
C675 C 0.88286 0.64349 0.13646 0.0
C676 C 0.88455 0.64658 0.08771 0.0
C677 C 0.9165 0.66885 0.06658 0.0
C678 C 0.94638 0.6871 0.09347 0.0
H679 H 0.96597 0.75451 0.2441 0.0
H680 H 0.94039 0.73199 0.19388 0.0
H681 H 0.93597 0.7089 0.24729 0.0
H682 H 0.91114 0.65707 0.20066 0.0
H683 H 0.85858 0.6261 0.15359 0.0
H684 H 0.30032 0.12721 0.63447 0.0
H685 H 0.26998 0.07065 0.59537 0.0
H686 H 0.36432 0.06627 0.59409 0.0
H687 H 0.39493 0.12314 0.63151 0.0
H688 H 0.29617 0.0587 0.50296 0.0
H689 H 0.28294 0.96832 0.64532 0.0
H690 H 0.28799 0.01055 0.65608 0.0
H691 H 0.32468 0.00665 0.63881 0.0
C692 C 0.31435 0.11381 0.62657 0.0
C693 C 0.34974 0.12917 0.63706 0.0
C694 C 0.29705 0.08162 0.60422 0.0
C695 C 0.31484 0.06417 0.59222 0.0
C696 C 0.35 0.07908 0.60363 0.0
H697 H 0.29084 0.91214 0.39245 0.0
H698 H 0.30713 0.96367 0.4389 0.0
C699 C 0.36739 0.11146 0.62533 0.0
C700 C 0.29758 0.0318 0.56444 0.0
H701 H 0.2711 0.94547 0.56867 0.0
C702 C 0.29032 0.03385 0.5174 0.0
C703 C 0.28983 0.99944 0.58338 0.0
C704 C 0.29647 0.99581 0.63381 0.0
C705 C 0.27663 0.00455 0.48844 0.0
C706 C 0.2701 0.97244 0.50704 0.0
C707 C 0.27617 0.97013 0.55447 0.0
C708 C 0.25897 0.94148 0.47726 0.0
C709 C 0.26959 0.00815 0.438 0.0
C710 C 0.22652 0.91167 0.48367 0.0
C711 C 0.21681 0.88207 0.45656 0.0
C712 C 0.23962 0.88165 0.42296 0.0
C713 C 0.27221 0.91161 0.41707 0.0
C714 C 0.28169 0.94119 0.44375 0.0
H715 H 0.26825 0.03205 0.43173 0.0
H716 H 0.29079 0.00947 0.41622 0.0
H717 H 0.24494 0.9854 0.4265 0.0
H718 H 0.20873 0.9113 0.5097 0.0
H719 H 0.19163 0.85946 0.46235 0.0
H720 H 0.1744 0.48139 0.68011 0.0
H721 H 0.18949 0.47616 0.59979 0.0
H722 H 0.19906 0.38788 0.63852 0.0
H723 H 0.18295 0.39226 0.71871 0.0
H724 H 0.24912 0.47863 0.56433 0.0
H725 H 0.13237 0.3516 0.52789 0.0
H726 H 0.13537 0.37765 0.57767 0.0
H727 H 0.15625 0.35207 0.57844 0.0
C728 C 0.17937 0.46062 0.67151 0.0
C729 C 0.17713 0.43704 0.70587 0.0
C730 C 0.18822 0.45783 0.62561 0.0
C731 C 0.19484 0.4313 0.61295 0.0
C732 C 0.19341 0.40817 0.64729 0.0
H733 H 0.24981 0.36956 0.35487 0.0
H734 H 0.23503 0.37541 0.43506 0.0
C735 C 0.18459 0.41096 0.69326 0.0
C736 C 0.20351 0.42809 0.56387 0.0
H737 H 0.17631 0.37367 0.47017 0.0
C738 C 0.23314 0.45575 0.54365 0.0
C739 C 0.18262 0.39822 0.53694 0.0
C740 C 0.1497 0.36829 0.55608 0.0
C741 C 0.24284 0.45408 0.49754 0.0
C742 C 0.22195 0.42419 0.47061 0.0
C743 C 0.19229 0.39656 0.49083 0.0
C744 C 0.23069 0.42083 0.42161 0.0
C745 C 0.27582 0.48398 0.47847 0.0
C746 C 0.23263 0.44409 0.38712 0.0
C747 C 0.24134 0.44098 0.3412 0.0
C748 C 0.24812 0.4144 0.32878 0.0
C749 C 0.24539 0.39071 0.36331 0.0
C750 C 0.23671 0.39386 0.40914 0.0
H751 H 0.29317 0.50056 0.50671 0.0
H752 H 0.29008 0.4746 0.45679 0.0
H753 H 0.26935 0.50032 0.45625 0.0
H754 H 0.22742 0.46469 0.39571 0.0
H755 H 0.24336 0.45977 0.31564 0.0
H756 H 0.79769 0.19311 0.06038 0.0
H757 H 0.81896 0.20926 0.98035 0.0
H758 H 0.72282 0.20307 0.94102 0.0
H759 H 0.70174 0.18785 0.02099 0.0
H760 H 0.78966 0.17076 0.89874 0.0
H761 H 0.79533 0.29784 0.89013 0.0
H762 H 0.79192 0.27597 0.94449 0.0
H763 H 0.75428 0.26266 0.90881 0.0
C764 C 0.78127 0.19571 0.03488 0.0
C765 C 0.74799 0.18921 0.04724 0.0
C766 C 0.79339 0.20472 0.98906 0.0
C767 C 0.77266 0.20778 0.95476 0.0
C768 C 0.73952 0.20144 0.967 0.0
H769 H 0.79506 0.25377 0.65748 0.0
H770 H 0.77407 0.23811 0.73764 0.0
C771 C 0.72736 0.19235 1.0127 0.0
C772 C 0.78516 0.2164 0.90582 0.0
H773 H 0.80293 0.27544 0.81888 0.0
C774 C 0.79277 0.19375 0.88135 0.0
C775 C 0.78902 0.24631 0.88305 0.0
C776 C 0.78252 0.2723 0.90801 0.0
C777 C 0.80352 0.19985 0.83453 0.0
C778 C 0.80745 0.2298 0.81177 0.0
C779 C 0.79983 0.25245 0.83626 0.0
C780 C 0.81988 0.23838 0.76278 0.0
C781 C 0.80978 0.17371 0.80956 0.0
C782 C 0.8527 0.24394 0.7502 0.0
C783 C 0.86467 0.25265 0.70437 0.0
C784 C 0.84421 0.25628 0.67002 0.0
C785 C 0.81133 0.25074 0.68277 0.0
C786 C 0.79938 0.24203 0.7287 0.0
H787 H 0.79657 0.14809 0.82723 0.0
H788 H 0.80067 0.1703 0.77296 0.0
H789 H 0.83795 0.18299 0.80917 0.0
H790 H 0.86927 0.2419 0.776 0.0
H791 H 0.88997 0.2564 0.69582 0.0
H792 H 0.61001 0.79516 0.38789 0.0
H793 H 0.61367 0.81581 0.30788 0.0
H794 H 0.52667 0.71713 0.26947 0.0
H795 H 0.52215 0.69664 0.34953 0.0
H796 H 0.62472 0.78781 0.22681 0.0
H797 H 0.49945 0.78575 0.21825 0.0
H798 H 0.51856 0.78358 0.2726 0.0
H799 H 0.49587 0.74563 0.23691 0.0
C800 C 0.59128 0.77803 0.36262 0.0
C801 C 0.56574 0.74424 0.37524 0.0
C802 C 0.59357 0.78981 0.31682 0.0
C803 C 0.57019 0.76817 0.2828 0.0
C804 C 0.54462 0.7345 0.29528 0.0
H805 H 0.54523 0.78799 0.98557 0.0
H806 H 0.54075 0.76734 0.06574 0.0
C807 C 0.54233 0.72269 0.341 0.0
C808 C 0.57338 0.78033 0.23387 0.0
H809 H 0.5299 0.79485 0.14696 0.0
C810 C 0.60407 0.78954 0.20941 0.0
C811 C 0.54634 0.7824 0.21113 0.0
C812 C 0.5133 0.77413 0.23612 0.0
C813 C 0.60826 0.80021 0.16263 0.0
C814 C 0.58126 0.80236 0.13991 0.0
C815 C 0.55054 0.79311 0.16435 0.0
C816 C 0.58457 0.81464 0.09101 0.0
C817 C 0.64127 0.80834 0.13766 0.0
C818 C 0.61054 0.84816 0.07859 0.0
C819 C 0.61334 0.85993 0.03278 0.0
C820 C 0.59002 0.83855 0.99834 0.0
C821 C 0.56393 0.80498 1.01096 0.0
C822 C 0.56116 0.79321 0.05687 0.0
H823 H 0.65487 0.79637 0.15534 0.0
H824 H 0.63604 0.79914 0.10106 0.0
H825 H 0.65894 0.8368 0.13726 0.0
H826 H 0.62851 0.86539 0.10448 0.0
H827 H 0.63394 0.88579 0.0243 0.0
H828 H 0.88162 0.60184 0.67445 0.0
H829 H 0.86375 0.6042 0.59473 0.0
H830 H 0.75665 0.54481 0.63618 0.0
H831 H 0.77428 0.5421 0.71604 0.0
H832 H 0.82393 0.54925 0.53496 0.0
H833 H 0.76049 0.62721 0.56795 0.0
H834 H 0.78872 0.62368 0.60981 0.0
H835 H 0.74477 0.58913 0.60358 0.0
C836 C 0.85423 0.58918 0.66666 0.0
C837 C 0.82939 0.57178 0.70178 0.0
C838 C 0.84408 0.59069 0.62106 0.0
C839 C 0.80888 0.57506 0.60953 0.0
C840 C 0.78397 0.55771 0.64443 0.0
H841 H 0.69781 0.55354 0.35159 0.0
H842 H 0.7147 0.55028 0.43159 0.0
C843 C 0.7941 0.5562 0.69012 0.0
C844 C 0.79837 0.57605 0.56067 0.0
H845 H 0.75414 0.60355 0.49232 0.0
C846 C 0.80878 0.56124 0.52559 0.0
C847 C 0.77851 0.5916 0.54849 0.0
C848 C 0.76768 0.6091 0.5843 0.0
C849 C 0.79946 0.5611 0.47881 0.0
C850 C 0.77974 0.5768 0.46658 0.0
C851 C 0.76924 0.59151 0.50169 0.0
C852 C 0.76973 0.57829 0.41758 0.0
C853 C 0.81018 0.54344 0.44309 0.0
C854 C 0.79503 0.59534 0.38304 0.0
C855 C 0.78545 0.59731 0.33721 0.0
C856 C 0.75034 0.58254 0.32503 0.0
C857 C 0.72508 0.56554 0.3598 0.0
C858 C 0.73468 0.56352 0.40555 0.0
H859 H 0.8166 0.52478 0.45951 0.0
H860 H 0.78941 0.52942 0.41704 0.0
H861 H 0.83358 0.56324 0.42447 0.0
H862 H 0.82226 0.60765 0.39167 0.0
H863 H 0.80559 0.6111 0.31156 0.0
H864 H 0.12014 0.75298 0.69052 0.0
H865 H 0.14097 0.76772 0.77047 0.0
H866 H 0.23777 0.7755 0.73034 0.0
H867 H 0.2167 0.75967 0.65036 0.0
H868 H 0.20958 0.73705 0.81178 0.0
H869 H 0.21195 0.86248 0.82127 0.0
H870 H 0.1711 0.82687 0.80319 0.0
H871 H 0.20863 0.84083 0.76682 0.0
C872 C 0.14583 0.75768 0.69863 0.0
C873 C 0.16673 0.75511 0.66387 0.0
C874 C 0.15786 0.76651 0.74433 0.0
C875 C 0.19114 0.77323 0.75632 0.0
C876 C 0.21209 0.77067 0.72182 0.0
H877 H 0.30886 0.82485 1.01438 0.0
H878 H 0.28831 0.80974 0.93433 0.0
C879 C 0.20009 0.76186 0.67602 0.0
C880 C 0.2036 0.78186 0.80516 0.0
H881 H 0.21975 0.84007 0.89246 0.0
C882 C 0.21201 0.75968 0.82934 0.0
C883 C 0.20664 0.81134 0.82814 0.0
C884 C 0.19942 0.83696 0.80346 0.0
C885 C 0.22274 0.7658 0.87609 0.0
C886 C 0.2257 0.79523 0.89909 0.0
C887 C 0.21733 0.81744 0.87488 0.0
C888 C 0.2379 0.80377 0.94803 0.0
C889 C 0.23005 0.74026 0.90077 0.0
C890 C 0.21668 0.8061 0.98232 0.0
C891 C 0.2285 0.81508 0.02815 0.0
C892 C 0.26195 0.82225 0.04056 0.0
C893 C 0.28309 0.81982 1.00604 0.0
C894 C 0.27124 0.81079 0.9603 0.0
H895 H 0.21782 0.71481 0.88277 0.0
H896 H 0.25841 0.75056 0.9014 0.0
H897 H 0.22059 0.73617 0.9373 0.0
H898 H 0.19095 0.80103 0.97357 0.0
H899 H 0.21169 0.81714 0.05362 0.0
H900 H 0.47149 0.29687 0.34533 0.0
H901 H 0.47109 0.27654 0.26625 0.0
H902 H 0.38898 0.17464 0.30427 0.0
H903 H 0.38821 0.1951 0.38305 0.0
H904 H 0.48297 0.22501 0.23554 0.0
H905 H 0.35026 0.19497 0.18798 0.0
H906 H 0.37237 0.22006 0.23878 0.0
H907 H 0.35231 0.17363 0.23991 0.0
C908 C 0.45298 0.27024 0.33679 0.0
C909 C 0.42964 0.24773 0.37057 0.0
C910 C 0.45299 0.25859 0.2916 0.0
C911 C 0.42964 0.22423 0.27907 0.0
C912 C 0.40676 0.20146 0.31285 0.0
H913 H 0.39341 0.10903 0.02067 0.0
H914 H 0.39358 0.1268 0.10135 0.0
C915 C 0.40666 0.21311 0.35808 0.0
C916 C 0.42972 0.21223 0.23081 0.0
H917 H 0.37936 0.17806 0.13414 0.0
C918 C 0.46034 0.21482 0.21333 0.0
C919 C 0.40017 0.19895 0.20183 0.0
C920 C 0.36699 0.19698 0.21782 0.0
C921 C 0.46212 0.20412 0.1679 0.0
C922 C 0.43262 0.19093 0.13893 0.0
C923 C 0.40193 0.18813 0.15646 0.0
C924 C 0.43314 0.18017 0.09014 0.0
C925 C 0.49541 0.20651 0.15156 0.0
C926 C 0.45511 0.20435 0.05695 0.0
C927 C 0.45519 0.19426 1.01086 0.0
C928 C 0.43319 0.15976 0.99696 0.0
C929 C 0.41106 0.13566 0.03032 0.0
C930 C 0.41095 0.14581 0.07637 0.0
H931 H 0.51233 0.20867 0.18121 0.0
H932 H 0.49016 0.18354 0.13043 0.0
H933 H 0.50978 0.22991 0.12945 0.0
H934 H 0.47203 0.23114 0.06661 0.0
H935 H 0.47271 0.21343 0.98618 0.0
H936 H 0.26213 0.54384 0.06641 0.0
H937 H 0.24349 0.58132 0.10313 0.0
H938 H 0.13973 0.49462 0.11586 0.0
H939 H 0.15847 0.45685 0.07945 0.0
H940 H 0.18826 0.5962 0.0822 0.0
H941 H 0.17173 0.52868 0.25193 0.0
H942 H 0.19516 0.52374 0.20405 0.0
H943 H 0.14885 0.50302 0.2021 0.0
C944 C 0.23519 0.53297 0.07622 0.0
C945 C 0.21167 0.49763 0.06971 0.0
C946 C 0.22457 0.55435 0.09712 0.0
C947 C 0.19035 0.54066 0.11263 0.0
C948 C 0.16633 0.5056 0.10447 0.0
H949 H 0.1422 0.66562 0.30637 0.0
H950 H 0.13229 0.61658 0.25685 0.0
C951 C 0.17697 0.48414 0.0833 0.0
C952 C 0.18124 0.56294 0.1405 0.0
H953 H 0.17014 0.58041 0.25302 0.0
C954 C 0.1836 0.59243 0.1194 0.0
C955 C 0.17499 0.55783 0.18901 0.0
C956 C 0.17264 0.52675 0.21345 0.0
C957 C 0.18163 0.61783 0.14588 0.0
C958 C 0.17787 0.61393 0.19482 0.0
C959 C 0.17317 0.58337 0.21554 0.0
C960 C 0.18318 0.64304 0.22529 0.0
C961 C 0.18468 0.64919 0.1214 0.0
C962 C 0.21533 0.67367 0.22493 0.0
C963 C 0.22118 0.70143 0.25328 0.0
C964 C 0.19503 0.69922 0.28298 0.0
C965 C 0.16297 0.66816 0.28415 0.0
C966 C 0.15718 0.64019 0.25568 0.0
H967 H 0.17609 0.6433 0.08459 0.0
H968 H 0.16914 0.65893 0.13929 0.0
H969 H 0.21219 0.67013 0.12134 0.0
H970 H 0.23606 0.67612 0.20266 0.0
H971 H 0.2463 0.72472 0.25156 0.0
H972 H 0.70823 0.16719 0.42347 0.0
H973 H 0.65277 0.15076 0.46206 0.0
H974 H 0.67667 0.25718 0.45642 0.0
H975 H 0.73114 0.27329 0.417 0.0
H976 H 0.64372 0.1737 0.54646 0.0
H977 H 0.57834 0.2078 0.41079 0.0
H978 H 0.61578 0.20369 0.39846 0.0
H979 H 0.62086 0.24336 0.42211 0.0
C980 C 0.70102 0.18675 0.42932 0.0
C981 C 0.72352 0.22138 0.41645 0.0
C982 C 0.66956 0.17745 0.4517 0.0
C983 C 0.66028 0.20266 0.46156 0.0
C984 C 0.68272 0.2371 0.44816 0.0
H985 H 0.53556 0.21953 0.67853 0.0
H986 H 0.58056 0.21569 0.63401 0.0
C987 C 0.71393 0.24633 0.42583 0.0
C988 C 0.62856 0.19404 0.48874 0.0
H989 H 0.5589 0.20616 0.48957 0.0
C990 C 0.62479 0.18021 0.53378 0.0
C991 C 0.6036 0.20211 0.4721 0.0
C992 C 0.60464 0.21471 0.42302 0.0
C993 C 0.59764 0.17576 0.5633 0.0
C994 C 0.57411 0.18617 0.54775 0.0
C995 C 0.57709 0.19855 0.50196 0.0
C996 C 0.5464 0.18507 0.57802 0.0
C997 C 0.59447 0.15988 0.61073 0.0
C998 C 0.51225 0.16933 0.56158 0.0
C999 C 0.48691 0.17223 0.58638 0.0
C1000 C 0.49498 0.19059 0.62852 0.0
C1001 C 0.52864 0.20492 0.64638 0.0
C1002 C 0.55428 0.20255 0.62102 0.0
H1003 H 0.6063 0.14308 0.61121 0.0
H1004 H 0.60843 0.18083 0.63655 0.0
H1005 H 0.567 0.14424 0.62179 0.0
H1006 H 0.50541 0.15564 0.52868 0.0
H1007 H 0.46105 0.16072 0.572 0.0
H1008 H 0.27664 0.51998 0.91349 0.0
H1009 H 0.32574 0.55925 0.86577 0.0
H1010 H 0.38556 0.51579 0.92112 0.0
H1011 H 0.33601 0.47578 0.96949 0.0
H1012 H 0.42109 0.58921 0.91894 0.0
H1013 H 0.36163 0.53558 0.74816 0.0
H1014 H 0.334 0.54423 0.78431 0.0
H1015 H 0.34476 0.512 0.80199 0.0
C1016 C 0.30008 0.51847 0.91566 0.0
C1017 C 0.30223 0.49457 0.94551 0.0
C1018 C 0.32814 0.5409 0.88796 0.0
C1019 C 0.35906 0.53996 0.88904 0.0
C1020 C 0.36176 0.51668 0.91939 0.0
H1021 H 0.54765 0.70438 0.74916 0.0
H1022 H 0.50931 0.6473 0.78413 0.0
C1023 C 0.33349 0.49399 0.94721 0.0
C1024 C 0.38865 0.56456 0.8596 0.0
H1025 H 0.40844 0.59507 0.74806 0.0
C1026 C 0.4188 0.59004 0.88144 0.0
C1027 C 0.38568 0.56546 0.81062 0.0
C1028 C 0.3549 0.53761 0.78484 0.0
C1029 C 0.4448 0.61796 0.85603 0.0
C1030 C 0.44061 0.62012 0.80751 0.0
C1031 C 0.41153 0.59343 0.78527 0.0
C1032 C 0.46341 0.65209 0.78079 0.0
C1033 C 0.47541 0.64618 0.88167 0.0
C1034 C 0.45005 0.673 0.76576 0.0
C1035 C 0.47174 0.70532 0.74574 0.0
C1036 C 0.50711 0.71712 0.73957 0.0
C1037 C 0.52034 0.69561 0.75275 0.0
C1038 C 0.49856 0.66319 0.7731 0.0
H1039 H 0.47285 0.64248 0.92003 0.0
H1040 H 0.49934 0.64644 0.87046 0.0
H1041 H 0.47848 0.67188 0.87318 0.0
H1042 H 0.42304 0.66495 0.77141 0.0
H1043 H 0.46107 0.72161 0.73628 0.0
H1044 H 0.86926 0.34258 0.30867 0.0
H1045 H 0.87908 0.39191 0.25955 0.0
H1046 H 0.77285 0.33549 0.21426 0.0
H1047 H 0.7628 0.28663 0.26263 0.0
H1048 H 0.82262 0.36494 0.14068 0.0
H1049 H 0.8425 0.46076 0.27906 0.0
H1050 H 0.86781 0.43956 0.28144 0.0
H1051 H 0.822 0.41494 0.29117 0.0
C1052 C 0.84789 0.34091 0.28876 0.0
C1053 C 0.8152 0.31059 0.28985 0.0
C1054 C 0.85357 0.36911 0.26065 0.0
C1055 C 0.82664 0.3674 0.23334 0.0
C1056 C 0.79403 0.33736 0.2349 0.0
H1057 H 0.74679 0.46104 0.06389 0.0
H1058 H 0.76585 0.42464 0.10237 0.0
C1059 C 0.78835 0.30938 0.26278 0.0
C1060 C 0.83176 0.39613 0.20197 0.0
H1061 H 0.83798 0.47569 0.20206 0.0
C1062 C 0.82663 0.38944 0.15401 0.0
C1063 C 0.83729 0.4282 0.21929 0.0
C1064 C 0.84259 0.43651 0.27054 0.0
C1065 C 0.82497 0.41309 0.12331 0.0
C1066 C 0.82807 0.44409 0.14107 0.0
C1067 C 0.83558 0.4519 0.1885 0.0
C1068 C 0.81857 0.46598 0.1127 0.0
C1069 C 0.81871 0.4041 0.07232 0.0
C1070 C 0.84188 0.50145 0.10554 0.0
C1071 C 0.83097 0.52236 0.0832 0.0
C1072 C 0.79652 0.50806 0.06816 0.0
C1073 C 0.77358 0.47253 0.07458 0.0
C1074 C 0.78451 0.45171 0.0964 0.0
H1075 H 0.82846 0.38652 0.06191 0.0
H1076 H 0.79047 0.39056 0.06544 0.0
H1077 H 0.83136 0.42772 0.05032 0.0
H1078 H 0.86819 0.51306 0.11824 0.0
H1079 H 0.84896 0.54985 0.0795 0.0
H1080 H 0.28297 0.7406 0.40459 0.0
H1081 H 0.33916 0.75928 0.4408 0.0
H1082 H 0.35679 0.86337 0.45161 0.0
H1083 H 0.30017 0.84457 0.41548 0.0
H1084 H 0.40927 0.81444 0.41791 0.0
H1085 H 0.36012 0.83219 0.58837 0.0
H1086 H 0.33122 0.80819 0.54136 0.0
H1087 H 0.35667 0.8545 0.53821 0.0
C1088 C 0.29917 0.76761 0.41387 0.0
C1089 C 0.28749 0.79121 0.40682 0.0
C1090 C 0.33122 0.77827 0.4345 0.0
C1091 C 0.35197 0.81261 0.44931 0.0
C1092 C 0.34101 0.83667 0.44077 0.0
H1093 H 0.52686 0.86233 0.64012 0.0
H1094 H 0.48695 0.87152 0.59128 0.0
C1095 C 0.30886 0.82601 0.41977 0.0
C1096 C 0.38363 0.82183 0.47661 0.0
H1097 H 0.41332 0.83354 0.58854 0.0
C1098 C 0.41052 0.8193 0.45506 0.0
C1099 C 0.38527 0.82833 0.52505 0.0
C1100 C 0.35681 0.83086 0.54996 0.0
C1101 C 0.43817 0.82144 0.48102 0.0
C1102 C 0.43856 0.82549 0.52995 0.0
C1103 C 0.41287 0.83028 0.55108 0.0
C1104 C 0.46285 0.8206 0.56003 0.0
C1105 C 0.46624 0.81834 0.45597 0.0
C1106 C 0.46184 0.78867 0.55965 0.0
C1107 C 0.48421 0.78323 0.58762 0.0
C1108 C 0.50813 0.80956 0.61701 0.0
C1109 C 0.50865 0.8414 0.61818 0.0
C1110 C 0.48602 0.84679 0.59009 0.0
H1111 H 0.46861 0.82686 0.41912 0.0
H1112 H 0.49167 0.83393 0.47333 0.0
H1113 H 0.45965 0.79082 0.45602 0.0
H1114 H 0.44357 0.76776 0.5377 0.0
H1115 H 0.48272 0.75826 0.58589 0.0
H1116 H 0.67038 0.52592 0.96296 0.0
H1117 H 0.62071 0.48249 0.91814 0.0
H1118 H 0.68165 0.43799 0.87066 0.0
H1119 H 0.73091 0.48055 0.91532 0.0
H1120 H 0.61699 0.46634 0.81671 0.0
H1121 H 0.59354 0.35637 0.93142 0.0
H1122 H 0.61842 0.40097 0.94982 0.0
H1123 H 0.63767 0.38274 0.91272 0.0
C1124 C 0.67309 0.50668 0.94334 0.0
C1125 C 0.70457 0.50652 0.94333 0.0
C1126 C 0.64478 0.48209 0.91745 0.0
C1127 C 0.64745 0.45685 0.89145 0.0
C1128 C 0.67892 0.45698 0.89091 0.0
H1129 H 0.51912 0.27326 0.73311 0.0
H1130 H 0.56742 0.32585 0.76622 0.0
C1131 C 0.70712 0.48147 0.91651 0.0
C1132 C 0.61744 0.42977 0.8653 0.0
H1133 H 0.56479 0.34215 0.85855 0.0
C1134 C 0.60527 0.43918 0.826 0.0
C1135 C 0.60228 0.39441 0.87753 0.0
C1136 C 0.61337 0.38291 0.9204 0.0
C1137 C 0.57907 0.41392 0.79765 0.0
C1138 C 0.56452 0.37851 0.80937 0.0
C1139 C 0.57624 0.36929 0.84927 0.0
C1140 C 0.53698 0.35022 0.78127 0.0
C1141 C 0.56791 0.42517 0.75465 0.0
C1142 C 0.50403 0.34684 0.77755 0.0
C1143 C 0.47653 0.31691 0.7582 0.0
C1144 C 0.48171 0.29022 0.74171 0.0
C1145 C 0.51487 0.29412 0.74397 0.0
C1146 C 0.54233 0.32397 0.76326 0.0
H1147 H 0.58696 0.45222 0.74458 0.0
H1148 H 0.56434 0.40781 0.72491 0.0
H1149 H 0.54275 0.42374 0.76152 0.0
H1150 H 0.49905 0.3663 0.79219 0.0
H1151 H 0.45084 0.31381 0.75823 0.0
loop_
_geom_bond_atom_site_label_1
_geom_bond_atom_site_label_2
_geom_bond_distance
_geom_bond_site_symmetry_2
_ccdc_geom_bond_type
Gd0 N31 2.661 . S
Gd0 N37 2.601 . S
Gd0 O44 2.545 . S
Gd0 O45 2.606 . S
Gd0 O47 2.429 . S
Gd0 O48 2.545 . S
Gd0 O49 2.412 . S
Gd0 O51 2.362 1_554 S
Gd0 O52 2.324 . S
Gd0 C59 2.828 . S
Gd1 N10 2.661 . S
Gd1 N14 2.601 . S
Gd1 O45 2.362 1_556 S
Gd1 O46 2.324 . S
Gd1 O50 2.545 . S
Gd1 O51 2.606 . S
Gd1 O53 2.429 1_556 S
Gd1 O54 2.545 . S
Gd1 O55 2.412 . S
Gd1 C68 2.828 . S
C2 C5 1.417 . S
C2 C7 1.431 . S
C2 C8 1.412 . S
C3 C6 1.437 . S
C3 C7 1.317 . S
C3 H22 0.929 . S
C4 C5 1.426 . S
C4 C6 1.413 . S
C4 N14 1.359 . S
C5 C2 1.417 . S
C5 C4 1.426 . S
C5 N10 1.350 . S
C6 C3 1.437 . S
C6 C4 1.413 . S
C6 C16 1.391 . S
C7 C2 1.431 . S
C7 C3 1.317 . S
C7 H18 0.930 . S
C8 C2 1.412 . S
C8 C9 1.355 . S
C8 H20 0.930 . S
C9 C8 1.355 . S
C9 C11 1.402 . S
C9 H21 0.930 . S
N10 Gd1 2.661 . S
N10 C5 1.350 . S
N10 C11 1.307 . S
C11 C9 1.402 . S
C11 N10 1.307 . S
C11 H12 0.930 . S
H12 C11 0.930 . S
C13 N14 1.334 . S
C13 C15 1.394 . S
C13 H17 0.930 . S
N14 Gd1 2.601 . S
N14 C4 1.359 . S
N14 C13 1.334 . S
C15 C13 1.394 . S
C15 C16 1.359 . S
C15 H27 0.930 . S
C16 C6 1.391 . S
C16 C15 1.359 . S
C16 H28 0.929 . S
H17 C13 0.930 . S
H18 C7 0.930 . S
H19 C36 0.930 . S
H20 C8 0.930 . S
H21 C9 0.930 . S
H22 C3 0.929 . S
H23 C41 0.930 . S
H24 C32 0.930 . S
H25 C33 0.930 . S
H26 C57 0.929 . S
H27 C15 0.930 . S
H28 C16 0.929 . S
H29 C58 0.930 . S
H30 C39 0.930 . S
N31 Gd0 2.661 . S
N31 C35 1.350 . S
N31 C36 1.307 . S
C32 H24 0.930 . S
C32 C33 1.355 . S
C32 C34 1.412 . S
C33 H25 0.930 . S
C33 C32 1.355 . S
C33 C36 1.402 . S
C34 C32 1.412 . S
C34 C35 1.417 . S
C34 C58 1.431 . S
C35 N31 1.350 . S
C35 C34 1.417 . S
C35 C38 1.426 . S
C36 H19 0.930 . S
C36 N31 1.307 . S
C36 C33 1.402 . S
N37 Gd0 2.601 . S
N37 C38 1.359 . S
N37 C41 1.334 . S
C38 C35 1.426 . S
C38 N37 1.359 . S
C38 C42 1.413 . S
C39 H30 0.930 . S
C39 C40 1.359 . S
C39 C41 1.394 . S
C40 C39 1.359 . S
C40 C42 1.391 . S
C40 H43 0.929 . S
C41 H23 0.930 . S
C41 N37 1.334 . S
C41 C39 1.394 . S
C42 C38 1.413 . S
C42 C40 1.391 . S
C42 C57 1.437 . S
H43 C40 0.929 . S
O44 Gd0 2.545 . S
O44 C59 1.258 . S
O45 Gd0 2.606 . S
O45 Gd1 2.362 1_554 S
O45 C56 1.284 . S
O46 Gd1 2.324 . S
O46 C66 1.254 . S
O47 Gd0 2.429 . S
O47 C66 1.268 1_554 S
O48 Gd0 2.545 . S
O48 C56 1.250 . S
O49 Gd0 2.412 . S
O49 C59 1.252 . S
O50 Gd1 2.545 . S
O50 C68 1.258 . S
O51 Gd0 2.362 1_556 S
O51 Gd1 2.606 . S
O51 C67 1.284 . S
O52 Gd0 2.324 . S
O52 C75 1.254 . S
O53 Gd1 2.429 1_554 S
O53 C75 1.268 . S
O54 Gd1 2.545 . S
O54 C67 1.250 . S
O55 Gd1 2.412 . S
O55 C68 1.252 . S
C56 O45 1.284 . S
C56 O48 1.250 . S
C57 H26 0.929 . S
C57 C42 1.437 . S
C57 C58 1.317 . S
C58 H29 0.930 . S
C58 C34 1.431 . S
C58 C57 1.317 . S
C59 Gd0 2.828 . S
C59 O44 1.258 . S
C59 O49 1.252 . S
C59 C60 1.497 . S
C60 C59 1.497 . S
C60 C61 1.395 . S
C60 C62 1.380 . S
C61 C60 1.395 . S
C61 C64 1.398 . S
C61 H76 0.930 . S
C62 C60 1.380 . S
C62 C63 1.391 . S
C62 H77 0.930 . S
C63 C62 1.391 . S
C63 C65 1.387 . S
C64 C61 1.398 . S
C64 C65 1.380 . S
C64 H78 0.930 . S
C65 C63 1.387 . S
C65 C64 1.380 . S
C65 H79 0.930 . S
C66 O46 1.254 . S
C66 O47 1.268 1_556 S
C67 O51 1.284 . S
C67 O54 1.250 . S
C68 Gd1 2.828 . S
C68 O50 1.258 . S
C68 O55 1.252 . S
C68 C69 1.497 . S
C69 C68 1.497 . S
C69 C70 1.395 . S
C69 C71 1.380 . S
C70 C69 1.395 . S
C70 C73 1.398 . S
C70 H80 0.930 . S
C71 C69 1.380 . S
C71 C72 1.391 . S
C71 H81 0.930 . S
C72 C71 1.391 . S
C72 C74 1.387 . S
C73 C70 1.398 . S
C73 C74 1.380 . S
C73 H82 0.930 . S
C74 C72 1.387 . S
C74 C73 1.380 . S
C74 H83 0.930 . S
C75 O52 1.254 . S
C75 O53 1.268 . S
H76 C61 0.930 . S
H77 C62 0.930 . S
H78 C64 0.930 . S
H79 C65 0.930 . S
H80 C70 0.930 . S
H81 C71 0.930 . S
H82 C73 0.930 . S
H83 C74 0.930 . S
Gd84 N115 2.661 . S
Gd84 N121 2.601 . S
Gd84 O128 2.545 . S
Gd84 O129 2.606 . S
Gd84 O131 2.429 . S
Gd84 O132 2.545 . S
Gd84 O133 2.412 . S
Gd84 O135 2.362 . S
Gd84 O136 2.324 . S
Gd84 C143 2.828 . S
Gd85 N94 2.661 . S
Gd85 N98 2.601 . S
Gd85 O129 2.362 . S
Gd85 O130 2.324 . S
Gd85 O134 2.545 . S
Gd85 O135 2.606 . S
Gd85 O137 2.429 . S
Gd85 O138 2.545 . S
Gd85 O139 2.412 . S
Gd85 C152 2.828 . S
C86 C89 1.417 . S
C86 C91 1.431 . S
C86 C92 1.412 . S
C87 C90 1.437 . S
C87 C91 1.317 . S
C87 H106 0.929 . S
C88 C89 1.426 . S
C88 C90 1.413 . S
C88 N98 1.359 . S
C89 C86 1.417 . S
C89 C88 1.426 . S
C89 N94 1.350 . S
C90 C87 1.437 . S
C90 C88 1.413 . S
C90 C100 1.391 . S
C91 C86 1.431 . S
C91 C87 1.317 . S
C91 H102 0.930 . S
C92 C86 1.412 . S
C92 C93 1.355 . S
C92 H104 0.930 . S
C93 C92 1.355 . S
C93 C95 1.402 . S
C93 H105 0.930 . S
N94 Gd85 2.661 . S
N94 C89 1.350 . S
N94 C95 1.307 . S
C95 C93 1.402 . S
C95 N94 1.307 . S
C95 H96 0.930 . S
H96 C95 0.930 . S
C97 N98 1.334 . S
C97 C99 1.394 . S
C97 H101 0.930 . S
N98 Gd85 2.601 . S
N98 C88 1.359 . S
N98 C97 1.334 . S
C99 C97 1.394 . S
C99 C100 1.359 . S
C99 H111 0.930 . S
C100 C90 1.391 . S
C100 C99 1.359 . S
C100 H112 0.929 . S
H101 C97 0.930 . S
H102 C91 0.930 . S
H103 C120 0.930 . S
H104 C92 0.930 . S
H105 C93 0.930 . S
H106 C87 0.929 . S
H107 C125 0.930 . S
H108 C116 0.930 . S
H109 C117 0.930 . S
H110 C141 0.929 . S
H111 C99 0.930 . S
H112 C100 0.929 . S
H113 C142 0.930 . S
H114 C123 0.930 . S
N115 Gd84 2.661 . S
N115 C119 1.350 . S
N115 C120 1.307 . S
C116 H108 0.930 . S
C116 C117 1.355 . S
C116 C118 1.412 . S
C117 H109 0.930 . S
C117 C116 1.355 . S
C117 C120 1.402 . S
C118 C116 1.412 . S
C118 C119 1.417 . S
C118 C142 1.431 . S
C119 N115 1.350 . S
C119 C118 1.417 . S
C119 C122 1.426 . S
C120 H103 0.930 . S
C120 N115 1.307 . S
C120 C117 1.402 . S
N121 Gd84 2.601 . S
N121 C122 1.359 . S
N121 C125 1.334 . S
C122 C119 1.426 . S
C122 N121 1.359 . S
C122 C126 1.413 . S
C123 H114 0.930 . S
C123 C124 1.359 . S
C123 C125 1.394 . S
C124 C123 1.359 . S
C124 C126 1.391 . S
C124 H127 0.929 . S
C125 H107 0.930 . S
C125 N121 1.334 . S
C125 C123 1.394 . S
C126 C122 1.413 . S
C126 C124 1.391 . S
C126 C141 1.437 . S
H127 C124 0.929 . S
O128 Gd84 2.545 . S
O128 C143 1.258 . S
O129 Gd84 2.606 . S
O129 Gd85 2.362 . S
O129 C140 1.284 . S
O130 Gd85 2.324 . S
O130 C150 1.254 . S
O131 Gd84 2.429 . S
O131 C150 1.268 . S
O132 Gd84 2.545 . S
O132 C140 1.250 . S
O133 Gd84 2.412 . S
O133 C143 1.252 . S
O134 Gd85 2.545 . S
O134 C152 1.258 . S
O135 Gd84 2.362 . S
O135 Gd85 2.606 . S
O135 C151 1.284 . S
O136 Gd84 2.324 . S
O136 C159 1.254 . S
O137 Gd85 2.429 . S
O137 C159 1.268 . S
O138 Gd85 2.545 . S
O138 C151 1.250 . S
O139 Gd85 2.412 . S
O139 C152 1.252 . S
C140 O129 1.284 . S
C140 O132 1.250 . S
C141 H110 0.929 . S
C141 C126 1.437 . S
C141 C142 1.317 . S
C142 H113 0.930 . S
C142 C118 1.431 . S
C142 C141 1.317 . S
C143 Gd84 2.828 . S
C143 O128 1.258 . S
C143 O133 1.252 . S
C143 C144 1.497 . S
C144 C143 1.497 . S
C144 C145 1.395 . S
C144 C146 1.380 . S
C145 C144 1.395 . S
C145 C148 1.398 . S
C145 H160 0.930 . S
C146 C144 1.380 . S
C146 C147 1.391 . S
C146 H161 0.930 . S
C147 C146 1.391 . S
C147 C149 1.387 . S
C148 C145 1.398 . S
C148 C149 1.380 . S
C148 H162 0.930 . S
C149 C147 1.387 . S
C149 C148 1.380 . S
C149 H163 0.930 . S
C150 O130 1.254 . S
C150 O131 1.268 . S
C151 O135 1.284 . S
C151 O138 1.250 . S
C152 Gd85 2.828 . S
C152 O134 1.258 . S
C152 O139 1.252 . S
C152 C153 1.497 . S
C153 C152 1.497 . S
C153 C154 1.395 . S
C153 C155 1.380 . S
C154 C153 1.395 . S
C154 C157 1.398 . S
C154 H164 0.930 . S
C155 C153 1.380 . S
C155 C156 1.391 . S
C155 H165 0.930 . S
C156 C155 1.391 . S
C156 C158 1.387 . S
C157 C154 1.398 . S
C157 C158 1.380 . S
C157 H166 0.930 . S
C158 C156 1.387 . S
C158 C157 1.380 . S
C158 H167 0.930 . S
C159 O136 1.254 . S
C159 O137 1.268 . S
H160 C145 0.930 . S
H161 C146 0.930 . S
H162 C148 0.930 . S
H163 C149 0.930 . S
H164 C154 0.930 . S
H165 C155 0.930 . S
H166 C157 0.930 . S
H167 C158 0.930 . S
Gd168 N199 2.661 . S
Gd168 N205 2.601 . S
Gd168 O212 2.545 . S
Gd168 O213 2.606 . S
Gd168 O215 2.429 . S
Gd168 O216 2.545 . S
Gd168 O217 2.412 . S
Gd168 O219 2.362 . S
Gd168 O220 2.324 . S
Gd168 C227 2.828 . S
Gd169 N178 2.661 . S
Gd169 N182 2.601 . S
Gd169 O213 2.362 . S
Gd169 O214 2.324 . S
Gd169 O218 2.545 . S
Gd169 O219 2.606 . S
Gd169 O221 2.429 . S
Gd169 O222 2.545 . S
Gd169 O223 2.412 . S
Gd169 C236 2.828 . S
C170 C173 1.417 . S
C170 C175 1.431 . S
C170 C176 1.412 . S
C171 C174 1.437 . S
C171 C175 1.317 . S
C171 H190 0.929 . S
C172 C173 1.426 . S
C172 C174 1.413 . S
C172 N182 1.359 . S
C173 C170 1.417 . S
C173 C172 1.426 . S
C173 N178 1.350 . S
C174 C171 1.437 . S
C174 C172 1.413 . S
C174 C184 1.391 . S
C175 C170 1.431 . S
C175 C171 1.317 . S
C175 H186 0.930 . S
C176 C170 1.412 . S
C176 C177 1.355 . S
C176 H188 0.930 . S
C177 C176 1.355 . S
C177 C179 1.402 . S
C177 H189 0.930 . S
N178 Gd169 2.661 . S
N178 C173 1.350 . S
N178 C179 1.307 . S
C179 C177 1.402 . S
C179 N178 1.307 . S
C179 H180 0.930 . S
H180 C179 0.930 . S
C181 N182 1.334 . S
C181 C183 1.394 . S
C181 H185 0.930 . S
N182 Gd169 2.601 . S
N182 C172 1.359 . S
N182 C181 1.334 . S
C183 C181 1.394 . S
C183 C184 1.359 . S
C183 H195 0.930 . S
C184 C174 1.391 . S
C184 C183 1.359 . S
C184 H196 0.929 . S
H185 C181 0.930 . S
H186 C175 0.930 . S
H187 C204 0.930 . S
H188 C176 0.930 . S
H189 C177 0.930 . S
H190 C171 0.929 . S
H191 C209 0.930 . S
H192 C200 0.930 . S
H193 C201 0.930 . S
H194 C225 0.929 . S
H195 C183 0.930 . S
H196 C184 0.929 . S
H197 C226 0.930 . S
H198 C207 0.930 . S
N199 Gd168 2.661 . S
N199 C203 1.350 . S
N199 C204 1.307 . S
C200 H192 0.930 . S
C200 C201 1.355 . S
C200 C202 1.412 . S
C201 H193 0.930 . S
C201 C200 1.355 . S
C201 C204 1.402 . S
C202 C200 1.412 . S
C202 C203 1.417 . S
C202 C226 1.431 . S
C203 N199 1.350 . S
C203 C202 1.417 . S
C203 C206 1.426 . S
C204 H187 0.930 . S
C204 N199 1.307 . S
C204 C201 1.402 . S
N205 Gd168 2.601 . S
N205 C206 1.359 . S
N205 C209 1.334 . S
C206 C203 1.426 . S
C206 N205 1.359 . S
C206 C210 1.413 . S
C207 H198 0.930 . S
C207 C208 1.359 . S
C207 C209 1.394 . S
C208 C207 1.359 . S
C208 C210 1.391 . S
C208 H211 0.929 . S
C209 H191 0.930 . S
C209 N205 1.334 . S
C209 C207 1.394 . S
C210 C206 1.413 . S
C210 C208 1.391 . S
C210 C225 1.437 . S
H211 C208 0.929 . S
O212 Gd168 2.545 . S
O212 C227 1.258 . S
O213 Gd168 2.606 . S
O213 Gd169 2.362 . S
O213 C224 1.284 . S
O214 Gd169 2.324 . S
O214 C234 1.254 . S
O215 Gd168 2.429 . S
O215 C234 1.268 . S
O216 Gd168 2.545 . S
O216 C224 1.250 . S
O217 Gd168 2.412 . S
O217 C227 1.252 . S
O218 Gd169 2.545 . S
O218 C236 1.258 . S
O219 Gd168 2.362 . S
O219 Gd169 2.606 . S
O219 C235 1.284 . S
O220 Gd168 2.324 . S
O220 C243 1.254 . S
O221 Gd169 2.429 . S
O221 C243 1.268 . S
O222 Gd169 2.545 . S
O222 C235 1.250 . S
O223 Gd169 2.412 . S
O223 C236 1.252 . S
C224 O213 1.284 . S
C224 O216 1.250 . S
C225 H194 0.929 . S
C225 C210 1.437 . S
C225 C226 1.317 . S
C226 H197 0.930 . S
C226 C202 1.431 . S
C226 C225 1.317 . S
C227 Gd168 2.828 . S
C227 O212 1.258 . S
C227 O217 1.252 . S
C227 C228 1.497 . S
C228 C227 1.497 . S
C228 C229 1.395 . S
C228 C230 1.380 . S
C229 C228 1.395 . S
C229 C232 1.398 . S
C229 H244 0.930 . S
C230 C228 1.380 . S
C230 C231 1.391 . S
C230 H245 0.930 . S
C231 C230 1.391 . S
C231 C233 1.387 . S
C232 C229 1.398 . S
C232 C233 1.380 . S
C232 H246 0.930 . S
C233 C231 1.387 . S
C233 C232 1.380 . S
C233 H247 0.930 . S
C234 O214 1.254 . S
C234 O215 1.268 . S
C235 O219 1.284 . S
C235 O222 1.250 . S
C236 Gd169 2.828 . S
C236 O218 1.258 . S
C236 O223 1.252 . S
C236 C237 1.497 . S
C237 C236 1.497 . S
C237 C238 1.395 . S
C237 C239 1.380 . S
C238 C237 1.395 . S
C238 C241 1.398 . S
C238 H248 0.930 . S
C239 C237 1.380 . S
C239 C240 1.391 . S
C239 H249 0.930 . S
C240 C239 1.391 . S
C240 C242 1.387 . S
C241 C238 1.398 . S
C241 C242 1.380 . S
C241 H250 0.930 . S
C242 C240 1.387 . S
C242 C241 1.380 . S
C242 H251 0.930 . S
C243 O220 1.254 . S
C243 O221 1.268 . S
H244 C229 0.930 . S
H245 C230 0.930 . S
H246 C232 0.930 . S
H247 C233 0.930 . S
H248 C238 0.930 . S
H249 C239 0.930 . S
H250 C241 0.930 . S
H251 C242 0.930 . S
Gd252 N283 2.661 . S
Gd252 N289 2.601 . S
Gd252 O296 2.545 . S
Gd252 O297 2.606 . S
Gd252 O299 2.429 . S
Gd252 O300 2.545 . S
Gd252 O301 2.412 . S
Gd252 O303 2.362 1_554 S
Gd252 O304 2.324 . S
Gd252 C311 2.828 . S
Gd253 N262 2.661 . S
Gd253 N266 2.601 . S
Gd253 O297 2.362 1_556 S
Gd253 O298 2.324 . S
Gd253 O302 2.545 . S
Gd253 O303 2.606 . S
Gd253 O305 2.429 1_556 S
Gd253 O306 2.545 . S
Gd253 O307 2.412 . S
Gd253 C320 2.828 . S
C254 C257 1.417 . S
C254 C259 1.431 . S
C254 C260 1.412 . S
C255 C258 1.437 . S
C255 C259 1.317 . S
C255 H274 0.929 . S
C256 C257 1.426 . S
C256 C258 1.413 . S
C256 N266 1.359 . S
C257 C254 1.417 . S
C257 C256 1.426 . S
C257 N262 1.350 . S
C258 C255 1.437 . S
C258 C256 1.413 . S
C258 C268 1.391 . S
C259 C254 1.431 . S
C259 C255 1.317 . S
C259 H270 0.930 . S
C260 C254 1.412 . S
C260 C261 1.355 . S
C260 H272 0.930 . S
C261 C260 1.355 . S
C261 C263 1.402 . S
C261 H273 0.930 . S
N262 Gd253 2.661 . S
N262 C257 1.350 . S
N262 C263 1.307 . S
C263 C261 1.402 . S
C263 N262 1.307 . S
C263 H264 0.930 . S
H264 C263 0.930 . S
C265 N266 1.334 . S
C265 C267 1.394 . S
C265 H269 0.930 . S
N266 Gd253 2.601 . S
N266 C256 1.359 . S
N266 C265 1.334 . S
C267 C265 1.394 . S
C267 C268 1.359 . S
C267 H279 0.930 . S
C268 C258 1.391 . S
C268 C267 1.359 . S
C268 H280 0.929 . S
H269 C265 0.930 . S
H270 C259 0.930 . S
H271 C288 0.930 . S
H272 C260 0.930 . S
H273 C261 0.930 . S
H274 C255 0.929 . S
H275 C293 0.930 . S
H276 C284 0.930 . S
H277 C285 0.930 . S
H278 C309 0.929 . S
H279 C267 0.930 . S
H280 C268 0.929 . S
H281 C310 0.930 . S
H282 C291 0.930 . S
N283 Gd252 2.661 . S
N283 C287 1.350 . S
N283 C288 1.307 . S
C284 H276 0.930 . S
C284 C285 1.355 . S
C284 C286 1.412 . S
C285 H277 0.930 . S
C285 C284 1.355 . S
C285 C288 1.402 . S
C286 C284 1.412 . S
C286 C287 1.417 . S
C286 C310 1.431 . S
C287 N283 1.350 . S
C287 C286 1.417 . S
C287 C290 1.426 . S
C288 H271 0.930 . S
C288 N283 1.307 . S
C288 C285 1.402 . S
N289 Gd252 2.601 . S
N289 C290 1.359 . S
N289 C293 1.334 . S
C290 C287 1.426 . S
C290 N289 1.359 . S
C290 C294 1.413 . S
C291 H282 0.930 . S
C291 C292 1.359 . S
C291 C293 1.394 . S
C292 C291 1.359 . S
C292 C294 1.391 . S
C292 H295 0.929 . S
C293 H275 0.930 . S
C293 N289 1.334 . S
C293 C291 1.394 . S
C294 C290 1.413 . S
C294 C292 1.391 . S
C294 C309 1.437 . S
H295 C292 0.929 . S
O296 Gd252 2.545 . S
O296 C311 1.258 . S
O297 Gd252 2.606 . S
O297 Gd253 2.362 1_554 S
O297 C308 1.284 . S
O298 Gd253 2.324 . S
O298 C318 1.254 . S
O299 Gd252 2.429 . S
O299 C318 1.268 1_554 S
O300 Gd252 2.545 . S
O300 C308 1.250 . S
O301 Gd252 2.412 . S
O301 C311 1.252 . S
O302 Gd253 2.545 . S
O302 C320 1.258 . S
O303 Gd252 2.362 1_556 S
O303 Gd253 2.606 . S
O303 C319 1.284 . S
O304 Gd252 2.324 . S
O304 C327 1.254 . S
O305 Gd253 2.429 1_554 S
O305 C327 1.268 . S
O306 Gd253 2.545 . S
O306 C319 1.250 . S
O307 Gd253 2.412 . S
O307 C320 1.252 . S
C308 O297 1.284 . S
C308 O300 1.250 . S
C309 H278 0.929 . S
C309 C294 1.437 . S
C309 C310 1.317 . S
C310 H281 0.930 . S
C310 C286 1.431 . S
C310 C309 1.317 . S
C311 Gd252 2.828 . S
C311 O296 1.258 . S
C311 O301 1.252 . S
C311 C312 1.497 . S
C312 C311 1.497 . S
C312 C313 1.395 . S
C312 C314 1.380 . S
C313 C312 1.395 . S
C313 C316 1.398 . S
C313 H328 0.930 . S
C314 C312 1.380 . S
C314 C315 1.391 . S
C314 H329 0.930 . S
C315 C314 1.391 . S
C315 C317 1.387 . S
C316 C313 1.398 . S
C316 C317 1.380 . S
C316 H330 0.930 . S
C317 C315 1.387 . S
C317 C316 1.380 . S
C317 H331 0.930 . S
C318 O298 1.254 . S
C318 O299 1.268 1_556 S
C319 O303 1.284 . S
C319 O306 1.250 . S
C320 Gd253 2.828 . S
C320 O302 1.258 . S
C320 O307 1.252 . S
C320 C321 1.497 . S
C321 C320 1.497 . S
C321 C322 1.395 . S
C321 C323 1.380 . S
C322 C321 1.395 . S
C322 C325 1.398 . S
C322 H332 0.930 . S
C323 C321 1.380 . S
C323 C324 1.391 . S
C323 H333 0.930 . S
C324 C323 1.391 . S
C324 C326 1.387 . S
C325 C322 1.398 . S
C325 C326 1.380 . S
C325 H334 0.930 . S
C326 C324 1.387 . S
C326 C325 1.380 . S
C326 H335 0.930 . S
C327 O304 1.254 . S
C327 O305 1.268 . S
H328 C313 0.930 . S
H329 C314 0.930 . S
H330 C316 0.930 . S
H331 C317 0.930 . S
H332 C322 0.930 . S
H333 C323 0.930 . S
H334 C325 0.930 . S
H335 C326 0.930 . S
Gd336 N367 2.661 . S
Gd336 N373 2.601 . S
Gd336 O380 2.545 . S
Gd336 O381 2.606 . S
Gd336 O383 2.429 . S
Gd336 O384 2.545 . S
Gd336 O385 2.412 . S
Gd336 O387 2.362 . S
Gd336 O388 2.324 . S
Gd336 C395 2.828 . S
Gd337 N346 2.661 . S
Gd337 N350 2.601 . S
Gd337 O381 2.362 . S
Gd337 O382 2.324 . S
Gd337 O386 2.545 . S
Gd337 O387 2.606 . S
Gd337 O389 2.429 . S
Gd337 O390 2.545 . S
Gd337 O391 2.412 . S
Gd337 C404 2.828 . S
C338 C341 1.417 . S
C338 C343 1.431 . S
C338 C344 1.412 . S
C339 C342 1.437 . S
C339 C343 1.317 . S
C339 H358 0.929 . S
C340 C341 1.426 . S
C340 C342 1.413 . S
C340 N350 1.359 . S
C341 C338 1.417 . S
C341 C340 1.426 . S
C341 N346 1.350 . S
C342 C339 1.437 . S
C342 C340 1.413 . S
C342 C352 1.391 . S
C343 C338 1.431 . S
C343 C339 1.317 . S
C343 H354 0.930 . S
C344 C338 1.412 . S
C344 C345 1.355 . S
C344 H356 0.930 . S
C345 C344 1.355 . S
C345 C347 1.402 . S
C345 H357 0.930 . S
N346 Gd337 2.661 . S
N346 C341 1.350 . S
N346 C347 1.307 . S
C347 C345 1.402 . S
C347 N346 1.307 . S
C347 H348 0.930 . S
H348 C347 0.930 . S
C349 N350 1.334 . S
C349 C351 1.394 . S
C349 H353 0.930 . S
N350 Gd337 2.601 . S
N350 C340 1.359 . S
N350 C349 1.334 . S
C351 C349 1.394 . S
C351 C352 1.359 . S
C351 H363 0.930 . S
C352 C342 1.391 . S
C352 C351 1.359 . S
C352 H364 0.929 . S
H353 C349 0.930 . S
H354 C343 0.930 . S
H355 C372 0.930 . S
H356 C344 0.930 . S
H357 C345 0.930 . S
H358 C339 0.929 . S
H359 C377 0.930 . S
H360 C368 0.930 . S
H361 C369 0.930 . S
H362 C393 0.929 . S
H363 C351 0.930 . S
H364 C352 0.929 . S
H365 C394 0.930 . S
H366 C375 0.930 . S
N367 Gd336 2.661 . S
N367 C371 1.350 . S
N367 C372 1.307 . S
C368 H360 0.930 . S
C368 C369 1.355 . S
C368 C370 1.412 . S
C369 H361 0.930 . S
C369 C368 1.355 . S
C369 C372 1.402 . S
C370 C368 1.412 . S
C370 C371 1.417 . S
C370 C394 1.431 . S
C371 N367 1.350 . S
C371 C370 1.417 . S
C371 C374 1.426 . S
C372 H355 0.930 . S
C372 N367 1.307 . S
C372 C369 1.402 . S
N373 Gd336 2.601 . S
N373 C374 1.359 . S
N373 C377 1.334 . S
C374 C371 1.426 . S
C374 N373 1.359 . S
C374 C378 1.413 . S
C375 H366 0.930 . S
C375 C376 1.359 . S
C375 C377 1.394 . S
C376 C375 1.359 . S
C376 C378 1.391 . S
C376 H379 0.929 . S
C377 H359 0.930 . S
C377 N373 1.334 . S
C377 C375 1.394 . S
C378 C374 1.413 . S
C378 C376 1.391 . S
C378 C393 1.437 . S
H379 C376 0.929 . S
O380 Gd336 2.545 . S
O380 C395 1.258 . S
O381 Gd336 2.606 . S
O381 Gd337 2.362 . S
O381 C392 1.284 . S
O382 Gd337 2.324 . S
O382 C402 1.254 . S
O383 Gd336 2.429 . S
O383 C402 1.268 . S
O384 Gd336 2.545 . S
O384 C392 1.250 . S
O385 Gd336 2.412 . S
O385 C395 1.252 . S
O386 Gd337 2.545 . S
O386 C404 1.258 . S
O387 Gd336 2.362 . S
O387 Gd337 2.606 . S
O387 C403 1.284 . S
O388 Gd336 2.324 . S
O388 C411 1.254 . S
O389 Gd337 2.429 . S
O389 C411 1.268 . S
O390 Gd337 2.545 . S
O390 C403 1.250 . S
O391 Gd337 2.412 . S
O391 C404 1.252 . S
C392 O381 1.284 . S
C392 O384 1.250 . S
C393 H362 0.929 . S
C393 C378 1.437 . S
C393 C394 1.317 . S
C394 H365 0.930 . S
C394 C370 1.431 . S
C394 C393 1.317 . S
C395 Gd336 2.828 . S
C395 O380 1.258 . S
C395 O385 1.252 . S
C395 C396 1.497 . S
C396 C395 1.497 . S
C396 C397 1.395 . S
C396 C398 1.380 . S
C397 C396 1.395 . S
C397 C400 1.398 . S
C397 H412 0.930 . S
C398 C396 1.380 . S
C398 C399 1.391 . S
C398 H413 0.930 . S
C399 C398 1.391 . S
C399 C401 1.387 . S
C400 C397 1.398 . S
C400 C401 1.380 . S
C400 H414 0.930 . S
C401 C399 1.387 . S
C401 C400 1.380 . S
C401 H415 0.930 . S
C402 O382 1.254 . S
C402 O383 1.268 . S
C403 O387 1.284 . S
C403 O390 1.250 . S
C404 Gd337 2.828 . S
C404 O386 1.258 . S
C404 O391 1.252 . S
C404 C405 1.497 . S
C405 C404 1.497 . S
C405 C406 1.395 . S
C405 C407 1.380 . S
C406 C405 1.395 . S
C406 C409 1.398 . S
C406 H416 0.930 . S
C407 C405 1.380 . S
C407 C408 1.391 . S
C407 H417 0.930 . S
C408 C407 1.391 . S
C408 C410 1.387 . S
C409 C406 1.398 . S
C409 C410 1.380 . S
C409 H418 0.930 . S
C410 C408 1.387 . S
C410 C409 1.380 . S
C410 H419 0.930 . S
C411 O388 1.254 . S
C411 O389 1.268 . S
H412 C397 0.930 . S
H413 C398 0.930 . S
H414 C400 0.930 . S
H415 C401 0.930 . S
H416 C406 0.930 . S
H417 C407 0.930 . S
H418 C409 0.930 . S
H419 C410 0.930 . S
Gd420 N451 2.661 . S
Gd420 N457 2.601 . S
Gd420 O464 2.545 . S
Gd420 O465 2.606 . S
Gd420 O467 2.429 . S
Gd420 O468 2.545 . S
Gd420 O469 2.412 . S
Gd420 O471 2.362 . S
Gd420 O472 2.324 . S
Gd420 C479 2.828 . S
Gd421 N430 2.661 . S
Gd421 N434 2.601 . S
Gd421 O465 2.362 . S
Gd421 O466 2.324 . S
Gd421 O470 2.545 . S
Gd421 O471 2.606 . S
Gd421 O473 2.429 . S
Gd421 O474 2.545 . S
Gd421 O475 2.412 . S
Gd421 C488 2.828 . S
C422 C425 1.417 . S
C422 C427 1.431 . S
C422 C428 1.412 . S
C423 C426 1.437 . S
C423 C427 1.317 . S
C423 H442 0.929 . S
C424 C425 1.426 . S
C424 C426 1.413 . S
C424 N434 1.359 . S
C425 C422 1.417 . S
C425 C424 1.426 . S
C425 N430 1.350 . S
C426 C423 1.437 . S
C426 C424 1.413 . S
C426 C436 1.391 . S
C427 C422 1.431 . S
C427 C423 1.317 . S
C427 H438 0.930 . S
C428 C422 1.412 . S
C428 C429 1.355 . S
C428 H440 0.930 . S
C429 C428 1.355 . S
C429 C431 1.402 . S
C429 H441 0.930 . S
N430 Gd421 2.661 . S
N430 C425 1.350 . S
N430 C431 1.307 . S
C431 C429 1.402 . S
C431 N430 1.307 . S
C431 H432 0.930 . S
H432 C431 0.930 . S
C433 N434 1.334 . S
C433 C435 1.394 . S
C433 H437 0.930 . S
N434 Gd421 2.601 . S
N434 C424 1.359 . S
N434 C433 1.334 . S
C435 C433 1.394 . S
C435 C436 1.359 . S
C435 H447 0.930 . S
C436 C426 1.391 . S
C436 C435 1.359 . S
C436 H448 0.929 . S
H437 C433 0.930 . S
H438 C427 0.930 . S
H439 C456 0.930 . S
H440 C428 0.930 . S
H441 C429 0.930 . S
H442 C423 0.929 . S
H443 C461 0.930 . S
H444 C452 0.930 . S
H445 C453 0.930 . S
H446 C477 0.929 . S
H447 C435 0.930 . S
H448 C436 0.929 . S
H449 C478 0.930 . S
H450 C459 0.930 . S
N451 Gd420 2.661 . S
N451 C455 1.350 . S
N451 C456 1.307 . S
C452 H444 0.930 . S
C452 C453 1.355 . S
C452 C454 1.412 . S
C453 H445 0.930 . S
C453 C452 1.355 . S
C453 C456 1.402 . S
C454 C452 1.412 . S
C454 C455 1.417 . S
C454 C478 1.431 . S
C455 N451 1.350 . S
C455 C454 1.417 . S
C455 C458 1.426 . S
C456 H439 0.930 . S
C456 N451 1.307 . S
C456 C453 1.402 . S
N457 Gd420 2.601 . S
N457 C458 1.359 . S
N457 C461 1.334 . S
C458 C455 1.426 . S
C458 N457 1.359 . S
C458 C462 1.413 . S
C459 H450 0.930 . S
C459 C460 1.359 . S
C459 C461 1.394 . S
C460 C459 1.359 . S
C460 C462 1.391 . S
C460 H463 0.929 . S
C461 H443 0.930 . S
C461 N457 1.334 . S
C461 C459 1.394 . S
C462 C458 1.413 . S
C462 C460 1.391 . S
C462 C477 1.437 . S
H463 C460 0.929 . S
O464 Gd420 2.545 . S
O464 C479 1.258 . S
O465 Gd420 2.606 . S
O465 Gd421 2.362 . S
O465 C476 1.284 . S
O466 Gd421 2.324 . S
O466 C486 1.254 . S
O467 Gd420 2.429 . S
O467 C486 1.268 . S
O468 Gd420 2.545 . S
O468 C476 1.250 . S
O469 Gd420 2.412 . S
O469 C479 1.252 . S
O470 Gd421 2.545 . S
O470 C488 1.258 . S
O471 Gd420 2.362 . S
O471 Gd421 2.606 . S
O471 C487 1.284 . S
O472 Gd420 2.324 . S
O472 C495 1.254 . S
O473 Gd421 2.429 . S
O473 C495 1.268 . S
O474 Gd421 2.545 . S
O474 C487 1.250 . S
O475 Gd421 2.412 . S
O475 C488 1.252 . S
C476 O465 1.284 . S
C476 O468 1.250 . S
C477 H446 0.929 . S
C477 C462 1.437 . S
C477 C478 1.317 . S
C478 H449 0.930 . S
C478 C454 1.431 . S
C478 C477 1.317 . S
C479 Gd420 2.828 . S
C479 O464 1.258 . S
C479 O469 1.252 . S
C479 C480 1.497 . S
C480 C479 1.497 . S
C480 C481 1.395 . S
C480 C482 1.380 . S
C481 C480 1.395 . S
C481 C484 1.398 . S
C481 H496 0.930 . S
C482 C480 1.380 . S
C482 C483 1.391 . S
C482 H497 0.930 . S
C483 C482 1.391 . S
C483 C485 1.387 . S
C484 C481 1.398 . S
C484 C485 1.380 . S
C484 H498 0.930 . S
C485 C483 1.387 . S
C485 C484 1.380 . S
C485 H499 0.930 . S
C486 O466 1.254 . S
C486 O467 1.268 . S
C487 O471 1.284 . S
C487 O474 1.250 . S
C488 Gd421 2.828 . S
C488 O470 1.258 . S
C488 O475 1.252 . S
C488 C489 1.497 . S
C489 C488 1.497 . S
C489 C490 1.395 . S
C489 C491 1.380 . S
C490 C489 1.395 . S
C490 C493 1.398 . S
C490 H500 0.930 . S
C491 C489 1.380 . S
C491 C492 1.391 . S
C491 H501 0.930 . S
C492 C491 1.391 . S
C492 C494 1.387 . S
C493 C490 1.398 . S
C493 C494 1.380 . S
C493 H502 0.930 . S
C494 C492 1.387 . S
C494 C493 1.380 . S
C494 H503 0.930 . S
C495 O472 1.254 . S
C495 O473 1.268 . S
H496 C481 0.930 . S
H497 C482 0.930 . S
H498 C484 0.930 . S
H499 C485 0.930 . S
H500 C490 0.930 . S
H501 C491 0.930 . S
H502 C493 0.930 . S
H503 C494 0.930 . S
H504 C512 0.929 . S
H505 C514 0.930 . S
H506 C516 0.930 . S
H507 C519 0.929 . S
H508 C522 0.930 . S
H509 C524 0.960 . S
H510 C524 0.960 . S
H511 C524 0.960 . S
C512 H504 0.929 . S
C512 C513 1.377 . S
C512 C514 1.384 . S
C513 C512 1.377 . S
C513 C519 1.390 . S
C514 H505 0.930 . S
C514 C512 1.384 . S
C514 C515 1.372 . S
C515 C514 1.372 . S
C515 C516 1.400 . S
C515 C520 1.490 . S
C516 H506 0.930 . S
C516 C515 1.400 . S
C516 C519 1.386 . S
H517 C533 0.930 . S
H518 C534 0.931 . S
C519 H507 0.929 . S
C519 C513 1.390 . S
C519 C516 1.386 . S
C520 C515 1.490 . S
C520 C522 1.395 . S
C520 C523 1.403 . S
H521 C527 0.930 . S
C522 H508 0.930 . S
C522 C520 1.395 . S
C522 C525 1.403 . S
C523 C520 1.403 . S
C523 C524 1.524 . S
C523 C527 1.400 . S
C524 H509 0.960 . S
C524 H510 0.960 . S
C524 H511 0.960 . S
C524 C523 1.524 . S
C525 C522 1.403 . S
C525 C526 1.392 . S
C525 C529 1.495 . S
C526 C525 1.392 . S
C526 C527 1.385 . S
C526 C528 1.478 . S
C527 H521 0.930 . S
C527 C523 1.400 . S
C527 C526 1.385 . S
C528 C526 1.478 . S
C528 C530 1.381 . S
C528 C534 1.383 . S
C529 C525 1.495 . S
C529 H535 0.959 . S
C529 H536 0.961 . S
C529 H537 0.960 . S
C530 C528 1.381 . S
C530 C531 1.394 . S
C530 H538 0.930 . S
C531 C530 1.394 . S
C531 C532 1.383 . S
C531 H539 0.929 . S
C532 C531 1.383 . S
C532 C533 1.377 . S
C533 H517 0.930 . S
C533 C532 1.377 . S
C533 C534 1.379 . S
C534 H518 0.931 . S
C534 C528 1.383 . S
C534 C533 1.379 . S
H535 C529 0.959 . S
H536 C529 0.961 . S
H537 C529 0.960 . S
H538 C530 0.930 . S
H539 C531 0.929 . S
H540 C548 0.929 . S
H541 C550 0.930 . S
H542 C552 0.930 . S
H543 C555 0.929 . S
H544 C558 0.930 . S
H545 C560 0.960 . S
H546 C560 0.960 . S
H547 C560 0.960 . S
C548 H540 0.929 . S
C548 C549 1.377 . S
C548 C550 1.384 . S
C549 C548 1.377 . S
C549 C555 1.390 . S
C550 H541 0.930 . S
C550 C548 1.384 . S
C550 C551 1.372 . S
C551 C550 1.372 . S
C551 C552 1.400 . S
C551 C556 1.490 . S
C552 H542 0.930 . S
C552 C551 1.400 . S
C552 C555 1.386 . S
H553 C569 0.930 . S
H554 C570 0.931 . S
C555 H543 0.929 . S
C555 C549 1.390 . S
C555 C552 1.386 . S
C556 C551 1.490 . S
C556 C558 1.395 1_455 S
C556 C559 1.403 . S
H557 C563 0.930 . S
C558 H544 0.930 . S
C558 C556 1.395 1_655 S
C558 C561 1.403 . S
C559 C556 1.403 . S
C559 C560 1.524 . S
C559 C563 1.400 1_455 S
C560 H545 0.960 . S
C560 H546 0.960 . S
C560 H547 0.960 . S
C560 C559 1.524 . S
C561 C558 1.403 . S
C561 C562 1.392 . S
C561 C565 1.495 . S
C562 C561 1.392 . S
C562 C563 1.385 . S
C562 C564 1.478 . S
C563 H557 0.930 . S
C563 C559 1.400 1_655 S
C563 C562 1.385 . S
C564 C562 1.478 . S
C564 C566 1.381 . S
C564 C570 1.383 . S
C565 C561 1.495 . S
C565 H571 0.959 . S
C565 H572 0.961 . S
C565 H573 0.960 . S
C566 C564 1.381 . S
C566 C567 1.394 . S
C566 H574 0.930 . S
C567 C566 1.394 . S
C567 C568 1.383 . S
C567 H575 0.929 . S
C568 C567 1.383 . S
C568 C569 1.377 . S
C569 H553 0.930 . S
C569 C568 1.377 . S
C569 C570 1.379 . S
C570 H554 0.931 . S
C570 C564 1.383 . S
C570 C569 1.379 . S
H571 C565 0.959 . S
H572 C565 0.961 . S
H573 C565 0.960 . S
H574 C566 0.930 . S
H575 C567 0.929 . S
H576 C584 0.929 . S
H577 C586 0.930 . S
H578 C588 0.930 . S
H579 C591 0.929 . S
H580 C594 0.930 . S
H581 C596 0.960 1_565 S
H582 C596 0.960 . S
H583 C596 0.960 . S
C584 H576 0.929 . S
C584 C585 1.377 . S
C584 C586 1.384 . S
C585 C584 1.377 . S
C585 C591 1.390 . S
C586 H577 0.930 . S
C586 C584 1.384 . S
C586 C587 1.372 . S
C587 C586 1.372 . S
C587 C588 1.400 . S
C587 C592 1.490 . S
C588 H578 0.930 . S
C588 C587 1.400 . S
C588 C591 1.386 . S
H589 C605 0.930 . S
H590 C606 0.931 . S
C591 H579 0.929 . S
C591 C585 1.390 . S
C591 C588 1.386 . S
C592 C587 1.490 . S
C592 C594 1.395 . S
C592 C595 1.403 . S
H593 C599 0.930 . S
C594 H580 0.930 . S
C594 C592 1.395 . S
C594 C597 1.403 1_545 S
C595 C592 1.403 . S
C595 C596 1.524 . S
C595 C599 1.400 1_545 S
C596 H581 0.960 1_545 S
C596 H582 0.960 . S
C596 H583 0.960 . S
C596 C595 1.524 . S
C597 C594 1.403 1_565 S
C597 C598 1.392 . S
C597 C601 1.495 . S
C598 C597 1.392 . S
C598 C599 1.385 . S
C598 C600 1.478 . S
C599 H593 0.930 . S
C599 C595 1.400 1_565 S
C599 C598 1.385 . S
C600 C598 1.478 . S
C600 C602 1.381 . S
C600 C606 1.383 . S
C601 C597 1.495 . S
C601 H607 0.959 1_565 S
C601 H608 0.961 . S
C601 H609 0.960 . S
C602 C600 1.381 . S
C602 C603 1.394 . S
C602 H610 0.930 . S
C603 C602 1.394 . S
C603 C604 1.383 . S
C603 H611 0.929 . S
C604 C603 1.383 . S
C604 C605 1.377 . S
C605 H589 0.930 . S
C605 C604 1.377 . S
C605 C606 1.379 . S
C606 H590 0.931 . S
C606 C600 1.383 . S
C606 C605 1.379 . S
H607 C601 0.959 1_545 S
H608 C601 0.961 . S
H609 C601 0.960 . S
H610 C602 0.930 . S
H611 C603 0.929 . S
H612 C620 0.929 . S
H613 C622 0.930 . S
H614 C624 0.930 . S
H615 C627 0.929 . S
H616 C630 0.930 . S
H617 C632 0.960 . S
H618 C632 0.960 . S
H619 C632 0.960 . S
C620 H612 0.929 . S
C620 C621 1.377 . S
C620 C622 1.384 . S
C621 C620 1.377 . S
C621 C627 1.390 . S
C622 H613 0.930 . S
C622 C620 1.384 . S
C622 C623 1.372 . S
C623 C622 1.372 . S
C623 C624 1.400 . S
C623 C628 1.490 . S
C624 H614 0.930 . S
C624 C623 1.400 . S
C624 C627 1.386 . S
H625 C641 0.930 . S
H626 C642 0.931 . S
C627 H615 0.929 . S
C627 C621 1.390 . S
C627 C624 1.386 . S
C628 C623 1.490 . S
C628 C630 1.395 . S
C628 C631 1.403 . S
H629 C635 0.930 . S
C630 H616 0.930 . S
C630 C628 1.395 . S
C630 C633 1.403 . S
C631 C628 1.403 . S
C631 C632 1.524 . S
C631 C635 1.400 . S
C632 H617 0.960 . S
C632 H618 0.960 . S
C632 H619 0.960 . S
C632 C631 1.524 . S
C633 C630 1.403 . S
C633 C634 1.392 . S
C633 C637 1.495 . S
C634 C633 1.392 . S
C634 C635 1.385 . S
C634 C636 1.478 . S
C635 H629 0.930 . S
C635 C631 1.400 . S
C635 C634 1.385 . S
C636 C634 1.478 . S
C636 C638 1.381 . S
C636 C642 1.383 . S
C637 C633 1.495 . S
C637 H643 0.959 . S
C637 H644 0.961 . S
C637 H645 0.960 . S
C638 C636 1.381 . S
C638 C639 1.394 . S
C638 H646 0.930 . S
C639 C638 1.394 . S
C639 C640 1.383 . S
C639 H647 0.929 . S
C640 C639 1.383 . S
C640 C641 1.377 . S
C641 H625 0.930 . S
C641 C640 1.377 . S
C641 C642 1.379 . S
C642 H626 0.931 . S
C642 C636 1.383 . S
C642 C641 1.379 . S
H643 C637 0.959 . S
H644 C637 0.961 . S
H645 C637 0.960 . S
H646 C638 0.930 . S
H647 C639 0.929 . S
H648 C656 0.929 . S
H649 C658 0.930 . S
H650 C660 0.930 . S
H651 C663 0.929 . S
H652 C666 0.930 . S
H653 C668 0.960 . S
H654 C668 0.960 . S
H655 C668 0.960 . S
C656 H648 0.929 . S
C656 C657 1.377 . S
C656 C658 1.384 . S
C657 C656 1.377 . S
C657 C663 1.390 . S
C658 H649 0.930 . S
C658 C656 1.384 . S
C658 C659 1.372 . S
C659 C658 1.372 . S
C659 C660 1.400 . S
C659 C664 1.490 . S
C660 H650 0.930 . S
C660 C659 1.400 . S
C660 C663 1.386 . S
H661 C677 0.930 . S
H662 C678 0.931 . S
C663 H651 0.929 . S
C663 C657 1.390 . S
C663 C660 1.386 . S
C664 C659 1.490 . S
C664 C666 1.395 . S
C664 C667 1.403 . S
H665 C671 0.930 . S
C666 H652 0.930 . S
C666 C664 1.395 . S
C666 C669 1.403 1_455 S
C667 C664 1.403 . S
C667 C668 1.524 . S
C667 C671 1.400 1_455 S
C668 H653 0.960 . S
C668 H654 0.960 . S
C668 H655 0.960 . S
C668 C667 1.524 . S
C669 C666 1.403 1_655 S
C669 C670 1.392 . S
C669 C673 1.495 . S
C670 C669 1.392 . S
C670 C671 1.385 . S
C670 C672 1.478 . S
C671 H665 0.930 . S
C671 C667 1.400 1_655 S
C671 C670 1.385 . S
C672 C670 1.478 . S
C672 C674 1.381 . S
C672 C678 1.383 . S
C673 C669 1.495 . S
C673 H679 0.959 . S
C673 H680 0.961 . S
C673 H681 0.960 . S
C674 C672 1.381 . S
C674 C675 1.394 . S
C674 H682 0.930 . S
C675 C674 1.394 . S
C675 C676 1.383 . S
C675 H683 0.929 . S
C676 C675 1.383 . S
C676 C677 1.377 . S
C677 H661 0.930 . S
C677 C676 1.377 . S
C677 C678 1.379 . S
C678 H662 0.931 . S
C678 C672 1.383 . S
C678 C677 1.379 . S
H679 C673 0.959 . S
H680 C673 0.961 . S
H681 C673 0.960 . S
H682 C674 0.930 . S
H683 C675 0.929 . S
H684 C692 0.929 . S
H685 C694 0.930 . S
H686 C696 0.930 . S
H687 C699 0.929 . S
H688 C702 0.930 . S
H689 C704 0.960 1_565 S
H690 C704 0.960 . S
H691 C704 0.960 . S
C692 H684 0.929 . S
C692 C693 1.377 . S
C692 C694 1.384 . S
C693 C692 1.377 . S
C693 C699 1.390 . S
C694 H685 0.930 . S
C694 C692 1.384 . S
C694 C695 1.372 . S
C695 C694 1.372 . S
C695 C696 1.400 . S
C695 C700 1.490 . S
C696 H686 0.930 . S
C696 C695 1.400 . S
C696 C699 1.386 . S
H697 C713 0.930 . S
H698 C714 0.931 . S
C699 H687 0.929 . S
C699 C693 1.390 . S
C699 C696 1.386 . S
C700 C695 1.490 . S
C700 C702 1.395 . S
C700 C703 1.403 . S
H701 C707 0.930 . S
C702 H688 0.930 . S
C702 C700 1.395 . S
C702 C705 1.403 . S
C703 C700 1.403 . S
C703 C704 1.524 . S
C703 C707 1.400 1_545 S
C704 H689 0.960 1_545 S
C704 H690 0.960 . S
C704 H691 0.960 . S
C704 C703 1.524 . S
C705 C702 1.403 . S
C705 C706 1.392 1_545 S
C705 C709 1.495 . S
C706 C705 1.392 1_565 S
C706 C707 1.385 . S
C706 C708 1.478 . S
C707 H701 0.930 . S
C707 C703 1.400 1_565 S
C707 C706 1.385 . S
C708 C706 1.478 . S
C708 C710 1.381 . S
C708 C714 1.383 . S
C709 C705 1.495 . S
C709 H715 0.959 . S
C709 H716 0.973 . S
C709 H717 0.960 1_545 S
C710 C708 1.381 . S
C710 C711 1.394 . S
C710 H718 0.930 . S
C711 C710 1.394 . S
C711 C712 1.383 . S
C711 H719 0.929 . S
C712 C711 1.383 . S
C712 C713 1.377 . S
C713 H697 0.930 . S
C713 C712 1.377 . S
C713 C714 1.379 . S
C714 H698 0.931 . S
C714 C708 1.383 . S
C714 C713 1.379 . S
H715 C709 0.959 . S
H716 C709 0.973 . S
H717 C709 0.960 1_565 S
H718 C710 0.930 . S
H719 C711 0.929 . S
H720 C728 0.929 . S
H721 C730 0.930 . S
H722 C732 0.930 . S
H723 C735 0.929 . S
H724 C738 0.930 . S
H725 C740 0.960 . S
H726 C740 0.960 . S
H727 C740 0.960 . S
C728 H720 0.929 . S
C728 C729 1.377 . S
C728 C730 1.384 . S
C729 C728 1.377 . S
C729 C735 1.390 . S
C730 H721 0.930 . S
C730 C728 1.384 . S
C730 C731 1.372 . S
C731 C730 1.372 . S
C731 C732 1.400 . S
C731 C736 1.490 . S
C732 H722 0.930 . S
C732 C731 1.400 . S
C732 C735 1.386 . S
H733 C749 0.930 . S
H734 C750 0.931 . S
C735 H723 0.929 . S
C735 C729 1.390 . S
C735 C732 1.386 . S
C736 C731 1.490 . S
C736 C738 1.395 . S
C736 C739 1.403 . S
H737 C743 0.930 . S
C738 H724 0.930 . S
C738 C736 1.395 . S
C738 C741 1.403 . S
C739 C736 1.403 . S
C739 C740 1.524 . S
C739 C743 1.400 . S
C740 H725 0.960 . S
C740 H726 0.960 . S
C740 H727 0.960 . S
C740 C739 1.524 . S
C741 C738 1.403 . S
C741 C742 1.392 . S
C741 C745 1.495 . S
C742 C741 1.392 . S
C742 C743 1.385 . S
C742 C744 1.478 . S
C743 H737 0.930 . S
C743 C739 1.400 . S
C743 C742 1.385 . S
C744 C742 1.478 . S
C744 C746 1.381 . S
C744 C750 1.383 . S
C745 C741 1.495 . S
C745 H751 0.959 . S
C745 H752 0.961 . S
C745 H753 0.960 . S
C746 C744 1.381 . S
C746 C747 1.394 . S
C746 H754 0.930 . S
C747 C746 1.394 . S
C747 C748 1.383 . S
C747 H755 0.929 . S
C748 C747 1.383 . S
C748 C749 1.377 . S
C749 H733 0.930 . S
C749 C748 1.377 . S
C749 C750 1.379 . S
C750 H734 0.931 . S
C750 C744 1.383 . S
C750 C749 1.379 . S
H751 C745 0.959 . S
H752 C745 0.961 . S
H753 C745 0.960 . S
H754 C746 0.930 . S
H755 C747 0.929 . S
H756 C764 0.929 . S
H757 C766 0.930 . S
H758 C768 0.930 . S
H759 C771 0.929 . S
H760 C774 0.930 . S
H761 C776 0.960 . S
H762 C776 0.960 . S
H763 C776 0.960 . S
C764 H756 0.929 . S
C764 C765 1.377 . S
C764 C766 1.384 1_554 S
C765 C764 1.377 . S
C765 C771 1.390 . S
C766 H757 0.930 . S
C766 C764 1.384 1_556 S
C766 C767 1.372 . S
C767 C766 1.372 . S
C767 C768 1.400 . S
C767 C772 1.490 . S
C768 H758 0.930 . S
C768 C767 1.400 . S
C768 C771 1.386 1_556 S
H769 C785 0.930 . S
H770 C786 0.931 . S
C771 H759 0.929 . S
C771 C765 1.390 . S
C771 C768 1.386 1_554 S
C772 C767 1.490 . S
C772 C774 1.395 . S
C772 C775 1.403 . S
H773 C779 0.930 . S
C774 H760 0.930 . S
C774 C772 1.395 . S
C774 C777 1.403 . S
C775 C772 1.403 . S
C775 C776 1.524 . S
C775 C779 1.400 . S
C776 H761 0.960 . S
C776 H762 0.960 . S
C776 H763 0.960 . S
C776 C775 1.524 . S
C777 C774 1.403 . S
C777 C778 1.392 . S
C777 C781 1.495 . S
C778 C777 1.392 . S
C778 C779 1.385 . S
C778 C780 1.478 . S
C779 H773 0.930 . S
C779 C775 1.400 . S
C779 C778 1.385 . S
C780 C778 1.478 . S
C780 C782 1.381 . S
C780 C786 1.383 . S
C781 C777 1.495 . S
C781 H787 0.959 . S
C781 H788 0.961 . S
C781 H789 0.960 . S
C782 C780 1.381 . S
C782 C783 1.394 . S
C782 H790 0.930 . S
C783 C782 1.394 . S
C783 C784 1.383 . S
C783 H791 0.929 . S
C784 C783 1.383 . S
C784 C785 1.377 . S
C785 H769 0.930 . S
C785 C784 1.377 . S
C785 C786 1.379 . S
C786 H770 0.931 . S
C786 C780 1.383 . S
C786 C785 1.379 . S
H787 C781 0.959 . S
H788 C781 0.961 . S
H789 C781 0.960 . S
H790 C782 0.930 . S
H791 C783 0.929 . S
H792 C800 0.929 . S
H793 C802 0.930 . S
H794 C804 0.930 . S
H795 C807 0.929 . S
H796 C810 0.930 . S
H797 C812 0.960 . S
H798 C812 0.960 . S
H799 C812 0.960 . S
C800 H792 0.929 . S
C800 C801 1.377 . S
C800 C802 1.384 . S
C801 C800 1.377 . S
C801 C807 1.390 . S
C802 H793 0.930 . S
C802 C800 1.384 . S
C802 C803 1.372 . S
C803 C802 1.372 . S
C803 C804 1.400 . S
C803 C808 1.490 . S
C804 H794 0.930 . S
C804 C803 1.400 . S
C804 C807 1.386 . S
H805 C821 0.927 1_556 S
H806 C822 0.931 . S
C807 H795 0.929 . S
C807 C801 1.390 . S
C807 C804 1.386 . S
C808 C803 1.490 . S
C808 C810 1.395 . S
C808 C811 1.403 . S
H809 C815 0.930 . S
C810 H796 0.930 . S
C810 C808 1.395 . S
C810 C813 1.403 . S
C811 C808 1.403 . S
C811 C812 1.524 . S
C811 C815 1.400 . S
C812 H797 0.960 . S
C812 H798 0.960 . S
C812 H799 0.960 . S
C812 C811 1.524 . S
C813 C810 1.403 . S
C813 C814 1.392 . S
C813 C817 1.495 . S
C814 C813 1.392 . S
C814 C815 1.385 . S
C814 C816 1.478 . S
C815 H809 0.930 . S
C815 C811 1.400 . S
C815 C814 1.385 . S
C816 C814 1.478 . S
C816 C818 1.381 . S
C816 C822 1.383 . S
C817 C813 1.495 . S
C817 H823 0.959 . S
C817 H824 0.961 . S
C817 H825 0.960 . S
C818 C816 1.381 . S
C818 C819 1.394 . S
C818 H826 0.930 . S
C819 C818 1.394 . S
C819 C820 1.383 1_554 S
C819 H827 0.929 1_554 S
C820 C819 1.383 1_556 S
C820 C821 1.374 1_556 S
C821 H805 0.927 1_554 S
C821 C820 1.374 1_554 S
C821 C822 1.385 . S
C822 H806 0.931 . S
C822 C816 1.383 . S
C822 C821 1.385 . S
H823 C817 0.959 . S
H824 C817 0.961 . S
H825 C817 0.960 . S
H826 C818 0.930 . S
H827 C819 0.929 1_556 S
H828 C836 0.929 . S
H829 C838 0.930 . S
H830 C840 0.930 . S
H831 C843 0.929 . S
H832 C846 0.930 . S
H833 C848 0.960 . S
H834 C848 0.960 . S
H835 C848 0.960 . S
C836 H828 0.929 . S
C836 C837 1.377 . S
C836 C838 1.384 . S
C837 C836 1.377 . S
C837 C843 1.390 . S
C838 H829 0.930 . S
C838 C836 1.384 . S
C838 C839 1.372 . S
C839 C838 1.372 . S
C839 C840 1.400 . S
C839 C844 1.490 . S
C840 H830 0.930 . S
C840 C839 1.400 . S
C840 C843 1.386 . S
H841 C857 0.930 . S
H842 C858 0.931 . S
C843 H831 0.929 . S
C843 C837 1.390 . S
C843 C840 1.386 . S
C844 C839 1.490 . S
C844 C846 1.395 . S
C844 C847 1.403 . S
H845 C851 0.930 . S
C846 H832 0.930 . S
C846 C844 1.395 . S
C846 C849 1.403 . S
C847 C844 1.403 . S
C847 C848 1.524 . S
C847 C851 1.400 . S
C848 H833 0.960 . S
C848 H834 0.960 . S
C848 H835 0.960 . S
C848 C847 1.524 . S
C849 C846 1.403 . S
C849 C850 1.392 . S
C849 C853 1.495 . S
C850 C849 1.392 . S
C850 C851 1.385 . S
C850 C852 1.478 . S
C851 H845 0.930 . S
C851 C847 1.400 . S
C851 C850 1.385 . S
C852 C850 1.478 . S
C852 C854 1.381 . S
C852 C858 1.383 . S
C853 C849 1.495 . S
C853 H859 0.959 . S
C853 H860 0.961 . S
C853 H861 0.960 . S
C854 C852 1.381 . S
C854 C855 1.394 . S
C854 H862 0.930 . S
C855 C854 1.394 . S
C855 C856 1.383 . S
C855 H863 0.929 . S
C856 C855 1.383 . S
C856 C857 1.377 . S
C857 H841 0.930 . S
C857 C856 1.377 . S
C857 C858 1.379 . S
C858 H842 0.931 . S
C858 C852 1.383 . S
C858 C857 1.379 . S
H859 C853 0.959 . S
H860 C853 0.961 . S
H861 C853 0.960 . S
H862 C854 0.930 . S
H863 C855 0.929 . S
H864 C872 0.929 . S
H865 C874 0.930 . S
H866 C876 0.930 . S
H867 C879 0.929 . S
H868 C882 0.930 . S
H869 C884 0.960 . S
H870 C884 0.960 . S
H871 C884 0.960 . S
C872 H864 0.929 . S
C872 C873 1.377 . S
C872 C874 1.384 . S
C873 C872 1.377 . S
C873 C879 1.390 . S
C874 H865 0.930 . S
C874 C872 1.384 . S
C874 C875 1.372 . S
C875 C874 1.372 . S
C875 C876 1.400 . S
C875 C880 1.490 . S
C876 H866 0.930 . S
C876 C875 1.400 . S
C876 C879 1.386 . S
H877 C893 0.925 1_554 S
H878 C894 0.931 . S
C879 H867 0.929 . S
C879 C873 1.390 . S
C879 C876 1.386 . S
C880 C875 1.490 . S
C880 C882 1.395 . S
C880 C883 1.403 . S
H881 C887 0.930 . S
C882 H868 0.930 . S
C882 C880 1.395 . S
C882 C885 1.403 . S
C883 C880 1.403 . S
C883 C884 1.524 . S
C883 C887 1.400 . S
C884 H869 0.960 . S
C884 H870 0.960 . S
C884 H871 0.960 . S
C884 C883 1.524 . S
C885 C882 1.403 . S
C885 C886 1.392 . S
C885 C889 1.495 . S
C886 C885 1.392 . S
C886 C887 1.385 . S
C886 C888 1.478 . S
C887 H881 0.930 . S
C887 C883 1.400 . S
C887 C886 1.385 . S
C888 C886 1.478 . S
C888 C890 1.381 . S
C888 C894 1.383 . S
C889 C885 1.495 . S
C889 H895 0.959 . S
C889 H896 0.961 . S
C889 H897 0.960 . S
C890 C888 1.381 . S
C890 C891 1.394 1_556 S
C890 H898 0.930 . S
C891 C890 1.394 1_554 S
C891 C892 1.383 . S
C891 H899 0.929 . S
C892 C891 1.383 . S
C892 C893 1.369 1_554 S
C893 H877 0.925 1_556 S
C893 C892 1.369 1_556 S
C893 C894 1.392 . S
C894 H878 0.931 . S
C894 C888 1.383 . S
C894 C893 1.392 . S
H895 C889 0.959 . S
H896 C889 0.961 . S
H897 C889 0.960 . S
H898 C890 0.930 . S
H899 C891 0.929 . S
H900 C908 0.929 . S
H901 C910 0.930 . S
H902 C912 0.930 . S
H903 C915 0.929 . S
H904 C918 0.930 . S
H905 C920 0.960 . S
H906 C920 0.960 . S
H907 C920 0.960 . S
C908 H900 0.929 . S
C908 C909 1.377 . S
C908 C910 1.384 . S
C909 C908 1.377 . S
C909 C915 1.390 . S
C910 H901 0.930 . S
C910 C908 1.384 . S
C910 C911 1.372 . S
C911 C910 1.372 . S
C911 C912 1.400 . S
C911 C916 1.490 . S
C912 H902 0.930 . S
C912 C911 1.400 . S
C912 C915 1.386 . S
H913 C929 0.930 1_556 S
H914 C930 0.931 . S
C915 H903 0.929 . S
C915 C909 1.390 . S
C915 C912 1.386 . S
C916 C911 1.490 . S
C916 C918 1.395 . S
C916 C919 1.403 . S
H917 C923 0.930 . S
C918 H904 0.930 . S
C918 C916 1.395 . S
C918 C921 1.403 . S
C919 C916 1.403 . S
C919 C920 1.524 . S
C919 C923 1.400 . S
C920 H905 0.960 . S
C920 H906 0.960 . S
C920 H907 0.960 . S
C920 C919 1.524 . S
C921 C918 1.403 . S
C921 C922 1.392 . S
C921 C925 1.495 . S
C922 C921 1.392 . S
C922 C923 1.385 . S
C922 C924 1.478 . S
C923 H917 0.930 . S
C923 C919 1.400 . S
C923 C922 1.385 . S
C924 C922 1.478 . S
C924 C926 1.381 . S
C924 C930 1.383 . S
C925 C921 1.495 . S
C925 H931 0.959 . S
C925 H932 0.961 . S
C925 H933 0.960 . S
C926 C924 1.381 . S
C926 C927 1.394 1_554 S
C926 H934 0.930 . S
C927 C926 1.394 1_556 S
C927 C928 1.383 . S
C927 H935 0.929 . S
C928 C927 1.383 . S
C928 C929 1.377 1_556 S
C929 H913 0.930 1_554 S
C929 C928 1.377 1_554 S
C929 C930 1.379 . S
C930 H914 0.931 . S
C930 C924 1.383 . S
C930 C929 1.379 . S
H931 C925 0.959 . S
H932 C925 0.961 . S
H933 C925 0.960 . S
H934 C926 0.930 . S
H935 C927 0.929 . S
H936 C944 0.929 . S
H937 C946 0.930 . S
H938 C948 0.930 . S
H939 C951 0.929 . S
H940 C954 0.930 . S
H941 C956 0.960 . S
H942 C956 0.960 . S
H943 C956 0.960 . S
C944 H936 0.929 . S
C944 C945 1.377 . S
C944 C946 1.384 . S
C945 C944 1.377 . S
C945 C951 1.390 . S
C946 H937 0.930 . S
C946 C944 1.384 . S
C946 C947 1.372 . S
C947 C946 1.372 . S
C947 C948 1.400 . S
C947 C952 1.490 . S
C948 H938 0.930 . S
C948 C947 1.400 . S
C948 C951 1.386 . S
H949 C965 0.930 . S
H950 C966 0.931 . S
C951 H939 0.929 . S
C951 C945 1.390 . S
C951 C948 1.386 . S
C952 C947 1.490 . S
C952 C954 1.395 . S
C952 C955 1.403 . S
H953 C959 0.930 . S
C954 H940 0.930 . S
C954 C952 1.395 . S
C954 C957 1.403 . S
C955 C952 1.403 . S
C955 C956 1.524 . S
C955 C959 1.400 . S
C956 H941 0.960 . S
C956 H942 0.960 . S
C956 H943 0.960 . S
C956 C955 1.524 . S
C957 C954 1.403 . S
C957 C958 1.392 . S
C957 C961 1.495 . S
C958 C957 1.392 . S
C958 C959 1.385 . S
C958 C960 1.478 . S
C959 H953 0.930 . S
C959 C955 1.400 . S
C959 C958 1.385 . S
C960 C958 1.478 . S
C960 C962 1.381 . S
C960 C966 1.383 . S
C961 C957 1.495 . S
C961 H967 0.959 . S
C961 H968 0.961 . S
C961 H969 0.960 . S
C962 C960 1.381 . S
C962 C963 1.394 . S
C962 H970 0.930 . S
C963 C962 1.394 . S
C963 C964 1.383 . S
C963 H971 0.929 . S
C964 C963 1.383 . S
C964 C965 1.377 . S
C965 H949 0.930 . S
C965 C964 1.377 . S
C965 C966 1.379 . S
C966 H950 0.931 . S
C966 C960 1.383 . S
C966 C965 1.379 . S
H967 C961 0.959 . S
H968 C961 0.961 . S
H969 C961 0.960 . S
H970 C962 0.930 . S
H971 C963 0.929 . S
H972 C980 0.929 . S
H973 C982 0.930 . S
H974 C984 0.930 . S
H975 C987 0.929 . S
H976 C990 0.930 . S
H977 C992 0.960 . S
H978 C992 0.960 . S
H979 C992 0.960 . S
C980 H972 0.929 . S
C980 C981 1.377 . S
C980 C982 1.384 . S
C981 C980 1.377 . S
C981 C987 1.390 . S
C982 H973 0.930 . S
C982 C980 1.384 . S
C982 C983 1.372 . S
C983 C982 1.372 . S
C983 C984 1.400 . S
C983 C988 1.490 . S
C984 H974 0.930 . S
C984 C983 1.400 . S
C984 C987 1.386 . S
H985 C1001 0.930 . S
H986 C1002 0.931 . S
C987 H975 0.929 . S
C987 C981 1.390 . S
C987 C984 1.386 . S
C988 C983 1.490 . S
C988 C990 1.395 . S
C988 C991 1.403 . S
H989 C995 0.930 . S
C990 H976 0.930 . S
C990 C988 1.395 . S
C990 C993 1.403 . S
C991 C988 1.403 . S
C991 C992 1.524 . S
C991 C995 1.400 . S
C992 H977 0.960 . S
C992 H978 0.960 . S
C992 H979 0.960 . S
C992 C991 1.524 . S
C993 C990 1.403 . S
C993 C994 1.392 . S
C993 C997 1.495 . S
C994 C993 1.392 . S
C994 C995 1.385 . S
C994 C996 1.478 . S
C995 H989 0.930 . S
C995 C991 1.400 . S
C995 C994 1.385 . S
C996 C994 1.478 . S
C996 C998 1.381 . S
C996 C1002 1.383 . S
C997 C993 1.495 . S
C997 H1003 0.959 . S
C997 H1004 0.961 . S
C997 H1005 0.960 . S
C998 C996 1.381 . S
C998 C999 1.394 . S
C998 H1006 0.930 . S
C999 C998 1.394 . S
C999 C1000 1.383 . S
C999 H1007 0.929 . S
C1000 C999 1.383 . S
C1000 C1001 1.377 . S
C1001 H985 0.930 . S
C1001 C1000 1.377 . S
C1001 C1002 1.379 . S
C1002 H986 0.931 . S
C1002 C996 1.383 . S
C1002 C1001 1.379 . S
H1003 C997 0.959 . S
H1004 C997 0.961 . S
H1005 C997 0.960 . S
H1006 C998 0.930 . S
H1007 C999 0.929 . S
H1008 C1016 0.929 . S
H1009 C1018 0.930 . S
H1010 C1020 0.930 . S
H1011 C1023 0.929 . S
H1012 C1026 0.930 . S
H1013 C1028 0.960 . S
H1014 C1028 0.960 . S
H1015 C1028 0.960 . S
C1016 H1008 0.929 . S
C1016 C1017 1.377 . S
C1016 C1018 1.384 . S
C1017 C1016 1.377 . S
C1017 C1023 1.390 . S
C1018 H1009 0.930 . S
C1018 C1016 1.384 . S
C1018 C1019 1.372 . S
C1019 C1018 1.372 . S
C1019 C1020 1.400 . S
C1019 C1024 1.490 . S
C1020 H1010 0.930 . S
C1020 C1019 1.400 . S
C1020 C1023 1.386 . S
H1021 C1037 0.930 . S
H1022 C1038 0.931 . S
C1023 H1011 0.929 . S
C1023 C1017 1.390 . S
C1023 C1020 1.386 . S
C1024 C1019 1.490 . S
C1024 C1026 1.395 . S
C1024 C1027 1.403 . S
H1025 C1031 0.930 . S
C1026 H1012 0.930 . S
C1026 C1024 1.395 . S
C1026 C1029 1.403 . S
C1027 C1024 1.403 . S
C1027 C1028 1.524 . S
C1027 C1031 1.400 . S
C1028 H1013 0.960 . S
C1028 H1014 0.960 . S
C1028 H1015 0.960 . S
C1028 C1027 1.524 . S
C1029 C1026 1.403 . S
C1029 C1030 1.392 . S
C1029 C1033 1.495 . S
C1030 C1029 1.392 . S
C1030 C1031 1.385 . S
C1030 C1032 1.478 . S
C1031 H1025 0.930 . S
C1031 C1027 1.400 . S
C1031 C1030 1.385 . S
C1032 C1030 1.478 . S
C1032 C1034 1.381 . S
C1032 C1038 1.383 . S
C1033 C1029 1.495 . S
C1033 H1039 0.959 . S
C1033 H1040 0.961 . S
C1033 H1041 0.960 . S
C1034 C1032 1.381 . S
C1034 C1035 1.394 . S
C1034 H1042 0.930 . S
C1035 C1034 1.394 . S
C1035 C1036 1.383 . S
C1035 H1043 0.929 . S
C1036 C1035 1.383 . S
C1036 C1037 1.377 . S
C1037 H1021 0.930 . S
C1037 C1036 1.377 . S
C1037 C1038 1.379 . S
C1038 H1022 0.931 . S
C1038 C1032 1.383 . S
C1038 C1037 1.379 . S
H1039 C1033 0.959 . S
H1040 C1033 0.961 . S
H1041 C1033 0.960 . S
H1042 C1034 0.930 . S
H1043 C1035 0.929 . S
H1044 C1052 0.929 . S
H1045 C1054 0.930 . S
H1046 C1056 0.930 . S
H1047 C1059 0.929 . S
H1048 C1062 0.930 . S
H1049 C1064 0.960 . S
H1050 C1064 0.960 . S
H1051 C1064 0.960 . S
C1052 H1044 0.929 . S
C1052 C1053 1.377 . S
C1052 C1054 1.384 . S
C1053 C1052 1.377 . S
C1053 C1059 1.390 . S
C1054 H1045 0.930 . S
C1054 C1052 1.384 . S
C1054 C1055 1.372 . S
C1055 C1054 1.372 . S
C1055 C1056 1.400 . S
C1055 C1060 1.490 . S
C1056 H1046 0.930 . S
C1056 C1055 1.400 . S
C1056 C1059 1.386 . S
H1057 C1073 0.930 . S
H1058 C1074 0.931 . S
C1059 H1047 0.929 . S
C1059 C1053 1.390 . S
C1059 C1056 1.386 . S
C1060 C1055 1.490 . S
C1060 C1062 1.395 . S
C1060 C1063 1.403 . S
H1061 C1067 0.930 . S
C1062 H1048 0.930 . S
C1062 C1060 1.395 . S
C1062 C1065 1.403 . S
C1063 C1060 1.403 . S
C1063 C1064 1.524 . S
C1063 C1067 1.400 . S
C1064 H1049 0.960 . S
C1064 H1050 0.960 . S
C1064 H1051 0.960 . S
C1064 C1063 1.524 . S
C1065 C1062 1.403 . S
C1065 C1066 1.392 . S
C1065 C1069 1.495 . S
C1066 C1065 1.392 . S
C1066 C1067 1.385 . S
C1066 C1068 1.478 . S
C1067 H1061 0.930 . S
C1067 C1063 1.400 . S
C1067 C1066 1.385 . S
C1068 C1066 1.478 . S
C1068 C1070 1.381 . S
C1068 C1074 1.383 . S
C1069 C1065 1.495 . S
C1069 H1075 0.959 . S
C1069 H1076 0.961 . S
C1069 H1077 0.960 . S
C1070 C1068 1.381 . S
C1070 C1071 1.394 . S
C1070 H1078 0.930 . S
C1071 C1070 1.394 . S
C1071 C1072 1.383 . S
C1071 H1079 0.929 . S
C1072 C1071 1.383 . S
C1072 C1073 1.377 . S
C1073 H1057 0.930 . S
C1073 C1072 1.377 . S
C1073 C1074 1.379 . S
C1074 H1058 0.931 . S
C1074 C1068 1.383 . S
C1074 C1073 1.379 . S
H1075 C1069 0.959 . S
H1076 C1069 0.961 . S
H1077 C1069 0.960 . S
H1078 C1070 0.930 . S
H1079 C1071 0.929 . S
H1080 C1088 0.929 . S
H1081 C1090 0.930 . S
H1082 C1092 0.930 . S
H1083 C1095 0.929 . S
H1084 C1098 0.930 . S
H1085 C1100 0.960 . S
H1086 C1100 0.960 . S
H1087 C1100 0.960 . S
C1088 H1080 0.929 . S
C1088 C1089 1.377 . S
C1088 C1090 1.384 . S
C1089 C1088 1.377 . S
C1089 C1095 1.390 . S
C1090 H1081 0.930 . S
C1090 C1088 1.384 . S
C1090 C1091 1.372 . S
C1091 C1090 1.372 . S
C1091 C1092 1.400 . S
C1091 C1096 1.490 . S
C1092 H1082 0.930 . S
C1092 C1091 1.400 . S
C1092 C1095 1.386 . S
H1093 C1109 0.930 . S
H1094 C1110 0.931 . S
C1095 H1083 0.929 . S
C1095 C1089 1.390 . S
C1095 C1092 1.386 . S
C1096 C1091 1.490 . S
C1096 C1098 1.395 . S
C1096 C1099 1.403 . S
H1097 C1103 0.930 . S
C1098 H1084 0.930 . S
C1098 C1096 1.395 . S
C1098 C1101 1.403 . S
C1099 C1096 1.403 . S
C1099 C1100 1.524 . S
C1099 C1103 1.400 . S
C1100 H1085 0.960 . S
C1100 H1086 0.960 . S
C1100 H1087 0.960 . S
C1100 C1099 1.524 . S
C1101 C1098 1.403 . S
C1101 C1102 1.392 . S
C1101 C1105 1.495 . S
C1102 C1101 1.392 . S
C1102 C1103 1.385 . S
C1102 C1104 1.478 . S
C1103 H1097 0.930 . S
C1103 C1099 1.400 . S
C1103 C1102 1.385 . S
C1104 C1102 1.478 . S
C1104 C1106 1.381 . S
C1104 C1110 1.383 . S
C1105 C1101 1.495 . S
C1105 H1111 0.959 . S
C1105 H1112 0.961 . S
C1105 H1113 0.960 . S
C1106 C1104 1.381 . S
C1106 C1107 1.394 . S
C1106 H1114 0.930 . S
C1107 C1106 1.394 . S
C1107 C1108 1.383 . S
C1107 H1115 0.929 . S
C1108 C1107 1.383 . S
C1108 C1109 1.377 . S
C1109 H1093 0.930 . S
C1109 C1108 1.377 . S
C1109 C1110 1.379 . S
C1110 H1094 0.931 . S
C1110 C1104 1.383 . S
C1110 C1109 1.379 . S
H1111 C1105 0.959 . S
H1112 C1105 0.961 . S
H1113 C1105 0.960 . S
H1114 C1106 0.930 . S
H1115 C1107 0.929 . S
H1116 C1124 0.929 . S
H1117 C1126 0.930 . S
H1118 C1128 0.930 . S
H1119 C1131 0.929 . S
H1120 C1134 0.930 . S
H1121 C1136 0.960 . S
H1122 C1136 0.960 . S
H1123 C1136 0.960 . S
C1124 H1116 0.929 . S
C1124 C1125 1.377 . S
C1124 C1126 1.384 . S
C1125 C1124 1.377 . S
C1125 C1131 1.390 . S
C1126 H1117 0.930 . S
C1126 C1124 1.384 . S
C1126 C1127 1.372 . S
C1127 C1126 1.372 . S
C1127 C1128 1.400 . S
C1127 C1132 1.490 . S
C1128 H1118 0.930 . S
C1128 C1127 1.400 . S
C1128 C1131 1.386 . S
H1129 C1145 0.930 . S
H1130 C1146 0.931 . S
C1131 H1119 0.929 . S
C1131 C1125 1.390 . S
C1131 C1128 1.386 . S
C1132 C1127 1.490 . S
C1132 C1134 1.395 . S
C1132 C1135 1.403 . S
H1133 C1139 0.930 . S
C1134 H1120 0.930 . S
C1134 C1132 1.395 . S
C1134 C1137 1.403 . S
C1135 C1132 1.403 . S
C1135 C1136 1.524 . S
C1135 C1139 1.400 . S
C1136 H1121 0.960 . S
C1136 H1122 0.960 . S
C1136 H1123 0.960 . S
C1136 C1135 1.524 . S
C1137 C1134 1.403 . S
C1137 C1138 1.392 . S
C1137 C1141 1.495 . S
C1138 C1137 1.392 . S
C1138 C1139 1.385 . S
C1138 C1140 1.478 . S
C1139 H1133 0.930 . S
C1139 C1135 1.400 . S
C1139 C1138 1.385 . S
C1140 C1138 1.478 . S
C1140 C1142 1.381 . S
C1140 C1146 1.383 . S
C1141 C1137 1.495 . S
C1141 H1147 0.959 . S
C1141 H1148 0.961 . S
C1141 H1149 0.960 . S
C1142 C1140 1.381 . S
C1142 C1143 1.394 . S
C1142 H1150 0.930 . S
C1143 C1142 1.394 . S
C1143 C1144 1.383 . S
C1143 H1151 0.929 . S
C1144 C1143 1.383 . S
C1144 C1145 1.377 . S
C1145 H1129 0.930 . S
C1145 C1144 1.377 . S
C1145 C1146 1.379 . S
C1146 H1130 0.931 . S
C1146 C1140 1.383 . S
C1146 C1145 1.379 . S
H1147 C1141 0.959 . S
H1148 C1141 0.961 . S
H1149 C1141 0.960 . S
H1150 C1142 0.930 . S
H1151 C1143 0.929 . S
C513 C495 1.431 . S
C532 C67 1.406 . S
C549 C75 1.433 . S
C568 C151 1.365 . S
C585 C159 1.429 . S
C604 C235 1.399 . S
C621 C243 1.433 . S
C640 C319 1.364 . S
C657 C403 1.396 . S
C676 C327 1.430 . S
C693 C487 1.398 . S
C712 C411 1.416 . S
C729 C72 1.308 . S
C748 C63 1.282 . S
C765 C156 1.323 . S
C784 C147 1.350 . S
C801 C240 1.322 . S
C820 C231 1.298 . S
C837 C324 1.311 . S
C856 C315 1.335 . S
C873 C399 1.312 . S
C892 C408 1.340 . S
C909 C492 1.309 . S
C928 C483 1.324 . S
C945 C56 1.297 . S
C964 C402 1.352 . S
C981 C140 1.308 . S
C1000 C486 1.368 . S
C1017 C66 1.340 . S
C1036 C224 1.295 . S
C1053 C150 1.347 . S
C1072 C308 1.336 . S
C1089 C392 1.297 . S
C1108 C234 1.361 . S
C1125 C318 1.348 . S
C1144 C476 1.333 . S
