# Generated by pormake.
# Topology wjq, (5)-cn, num edge types: 1
# Building blocks:
#     Node 0, Type 0, BuildingBlock: XOMCOT_clean_sbu_1, # of connection points: 5
#     Node 1, Type 0, BuildingBlock: XOMCOT_clean_sbu_1, # of connection points: 5
#     Node 2, Type 0, BuildingBlock: XOMCOT_clean_sbu_1, # of connection points: 5
#     Node 3, Type 0, BuildingBlock: XOMCOT_clean_sbu_1, # of connection points: 5
#     Node 4, Type 0, BuildingBlock: XOMCOT_clean_sbu_1, # of connection points: 5
#     Node 5, Type 0, BuildingBlock: XOMCOT_clean_sbu_1, # of connection points: 5
#     Node 6, Type 0, BuildingBlock: XOMCOT_clean_sbu_1, # of connection points: 5
#     Node 7, Type 0, BuildingBlock: XOMCOT_clean_sbu_1, # of connection points: 5
#     Node 8, Type 0, BuildingBlock: XOMCOT_clean_sbu_1, # of connection points: 5
#     Node 9, Type 0, BuildingBlock: XOMCOT_clean_sbu_1, # of connection points: 5
#     Node 10, Type 0, BuildingBlock: XOMCOT_clean_sbu_1, # of connection points: 5
#     Node 11, Type 0, BuildingBlock: XOMCOT_clean_sbu_1, # of connection points: 5
#     Edge 12, Type (0, 0), BuildingBlock: XUDNAN_clean_linker_2, # of connection points: 2
#     Edge 13, Type (0, 0), BuildingBlock: XUDNAN_clean_linker_2, # of connection points: 2
#     Edge 14, Type (0, 0), BuildingBlock: XUDNAN_clean_linker_2, # of connection points: 2
#     Edge 15, Type (0, 0), BuildingBlock: XUDNAN_clean_linker_2, # of connection points: 2
#     Edge 16, Type (0, 0), BuildingBlock: XUDNAN_clean_linker_2, # of connection points: 2
#     Edge 17, Type (0, 0), BuildingBlock: XUDNAN_clean_linker_2, # of connection points: 2
#     Edge 18, Type (0, 0), BuildingBlock: XUDNAN_clean_linker_2, # of connection points: 2
#     Edge 19, Type (0, 0), BuildingBlock: XUDNAN_clean_linker_2, # of connection points: 2
#     Edge 20, Type (0, 0), BuildingBlock: XUDNAN_clean_linker_2, # of connection points: 2
#     Edge 21, Type (0, 0), BuildingBlock: XUDNAN_clean_linker_2, # of connection points: 2
#     Edge 22, Type (0, 0), BuildingBlock: XUDNAN_clean_linker_2, # of connection points: 2
#     Edge 23, Type (0, 0), BuildingBlock: XUDNAN_clean_linker_2, # of connection points: 2
#     Edge 24, Type (0, 0), BuildingBlock: XUDNAN_clean_linker_2, # of connection points: 2
#     Edge 25, Type (0, 0), BuildingBlock: XUDNAN_clean_linker_2, # of connection points: 2
#     Edge 26, Type (0, 0), BuildingBlock: XUDNAN_clean_linker_2, # of connection points: 2
#     Edge 27, Type (0, 0), BuildingBlock: XUDNAN_clean_linker_2, # of connection points: 2
#     Edge 28, Type (0, 0), BuildingBlock: XUDNAN_clean_linker_2, # of connection points: 2
#     Edge 29, Type (0, 0), BuildingBlock: XUDNAN_clean_linker_2, # of connection points: 2
#     Edge 30, Type (0, 0), BuildingBlock: XUDNAN_clean_linker_2, # of connection points: 2
#     Edge 31, Type (0, 0), BuildingBlock: XUDNAN_clean_linker_2, # of connection points: 2
#     Edge 32, Type (0, 0), BuildingBlock: XUDNAN_clean_linker_2, # of connection points: 2
#     Edge 33, Type (0, 0), BuildingBlock: XUDNAN_clean_linker_2, # of connection points: 2
#     Edge 34, Type (0, 0), BuildingBlock: XUDNAN_clean_linker_2, # of connection points: 2
#     Edge 35, Type (0, 0), BuildingBlock: XUDNAN_clean_linker_2, # of connection points: 2
#     Edge 36, Type (0, 0), BuildingBlock: XUDNAN_clean_linker_2, # of connection points: 2
#     Edge 37, Type (0, 0), BuildingBlock: XUDNAN_clean_linker_2, # of connection points: 2
#     Edge 38, Type (0, 0), BuildingBlock: XUDNAN_clean_linker_2, # of connection points: 2
#     Edge 39, Type (0, 0), BuildingBlock: XUDNAN_clean_linker_2, # of connection points: 2
#     Edge 40, Type (0, 0), BuildingBlock: XUDNAN_clean_linker_2, # of connection points: 2
#     Edge 41, Type (0, 0), BuildingBlock: XUDNAN_clean_linker_2, # of connection points: 2
# Relax obj value: 0.554
# Max RMSD: 0.290
# Mean RMSD: 0.290
data_MOF--net-wjq--node1-XOMCOT_clean_sbu_1--edge1-XUDNAN_clean_linker_2
_symmetry_space_group_name_H-M    P1
_symmetry_Int_Tables_number       1
_symmetry_cell_setting            triclinic
loop_
_symmetry_equiv_pos_as_xyz
'x, y, z'
_cell_length_a     27.606592
_cell_length_b     27.683685
_cell_length_c     89.688153
_cell_angle_alpha  89.924269
_cell_angle_beta   89.968684
_cell_angle_gamma 120.06903
loop_
_atom_site_label
_atom_site_type_symbol
_atom_site_fract_x
_atom_site_fract_y
_atom_site_fract_z
_atom_type_partial_charge
C0 C 0.31702 0.32679 0.05067 0.0
C1 C 0.28571 0.32482 0.03853 0.0
N2 N 0.24539 0.27149 0.03639 0.0
N3 N 0.29642 0.27499 0.05638 0.0
C4 C 0.25266 0.24209 0.04736 0.0
H5 H 0.3533 0.36389 0.05478 0.0
Co6 Co 0.32675 0.25543 0.0726 0.0
C7 C 0.22849 0.16106 0.0881 0.0
O8 O 0.26118 0.14161 0.09219 0.0
N9 N 0.35833 0.23732 0.08885 0.0
C10 C 0.40968 0.21603 0.10367 0.0
C11 C 0.39876 0.22333 0.08911 0.0
C12 C 0.34694 0.24009 0.10338 0.0
N13 N 0.3765 0.22604 0.11257 0.0
O14 O 0.33856 0.32078 0.08361 0.0
H15 H 0.41928 0.21853 0.07946 0.0
H16 H 0.3162 0.25078 0.10713 0.0
O17 O 0.24914 0.20652 0.08048 0.0
C18 C 0.39115 0.35331 0.08143 0.0
O19 O 0.41678 0.33587 0.07245 0.0
N20 N 0.32464 0.19814 0.06117 0.0
C21 C 0.3458 0.12937 0.04323 0.0
C22 C 0.29385 0.10848 0.0503 0.0
C23 C 0.28356 0.14401 0.05904 0.0
C24 C 0.37427 0.21923 0.05376 0.0
C25 C 0.38605 0.18551 0.04486 0.0
H26 H 0.2421 0.12794 0.06343 0.0
H27 H 0.40553 0.26265 0.05493 0.0
H28 H 0.22662 0.19744 0.04875 0.0
H29 H 0.29323 0.35973 0.0315 0.0
H30 H 0.43839 0.20263 0.10738 0.0
H31 H 0.26072 0.06583 0.04854 0.0
H32 H 0.42598 0.20329 0.03915 0.0
C33 C 0.04371 0.36642 0.37474 0.0
C34 C 0.01249 0.33807 0.36253 0.0
N35 N 1.00636 0.28667 0.36251 0.0
N36 N 0.05754 0.3333 0.38246 0.0
C37 C 0.03384 0.28458 0.37477 0.0
H38 H 0.05747 0.4094 0.37747 0.0
Co39 Co 0.10693 0.35964 0.39859 0.0
C40 C 0.09926 0.26019 0.41374 0.0
O41 O 0.15294 0.29055 0.41672 0.0
N42 N 0.15682 0.38806 0.41495 0.0
C43 C 0.22942 0.43446 0.43019 0.0
C44 C 0.21225 0.42552 0.41554 0.0
C45 C 0.14123 0.37633 0.4294 0.0
N46 N 0.18463 0.40298 0.43884 0.0
O47 O 0.05507 0.37353 0.40954 0.0
H48 H 0.23906 0.44559 0.40608 0.0
H49 H 0.09866 0.34782 0.4329 0.0
O50 O 0.07465 0.28191 0.40648 0.0
C51 C 0.07661 0.42662 0.4092 0.0
O52 O 0.12366 0.45668 0.40188 0.0
N53 N 0.15984 0.35383 0.38703 0.0
C54 C 0.24699 0.36572 0.36918 0.0
C55 C 0.20867 0.31348 0.37511 0.0
C56 C 0.16412 0.30798 0.3837 0.0
C57 C 0.19455 0.40386 0.3804 0.0
C58 C 0.23891 0.41098 0.37149 0.0
H59 H 0.13299 0.26677 0.38723 0.0
H60 H 0.18825 0.43887 0.38232 0.0
H61 H 0.03934 0.24959 0.37755 0.0
H62 H 0.99698 0.35462 0.35402 0.0
H63 H 0.27178 0.46093 0.43413 0.0
H64 H 0.21221 0.27701 0.37272 0.0
H65 H 0.26668 0.45132 0.36652 0.0
C66 C 0.67921 0.95204 0.72534 0.0
C67 C 0.67119 0.91205 0.71495 0.0
N68 N 0.71945 0.92959 0.70737 0.0
N69 N 0.73232 0.99455 0.72439 0.0
C70 C 0.75564 0.97982 0.71334 0.0
H71 H 0.64822 0.95029 0.73304 0.0
Co72 Co 0.76626 0.06047 0.73539 0.0
C73 C 0.85667 0.03525 0.74358 0.0
O74 O 0.8273 0.00397 0.75486 0.0
N75 N 0.80086 0.12623 0.74639 0.0
C76 C 0.82482 0.20869 0.75633 0.0
C77 C 0.79593 0.17211 0.74494 0.0
C78 C 0.83309 0.13596 0.75855 0.0
N79 N 0.84832 0.18575 0.7648 0.0
O80 O 0.74209 0.01827 0.75353 0.0
H81 H 0.77122 0.17766 0.73648 0.0
H82 H 0.84234 0.10561 0.76331 0.0
O83 O 0.83679 0.05878 0.73529 0.0
C84 C 0.70068 0.00547 0.76225 0.0
O85 O 0.69567 0.97529 0.77409 0.0
N86 N 0.78577 0.10153 0.71774 0.0
C87 C 0.80387 0.15665 0.69054 0.0
C88 C 0.84914 0.16261 0.69916 0.0
C89 C 0.83922 0.13516 0.71284 0.0
C90 C 0.74148 0.09674 0.70982 0.0
C91 C 0.74956 0.12414 0.69624 0.0
H92 H 0.87445 0.14054 0.71937 0.0
H93 H 0.69935 0.07055 0.71393 0.0
H94 H 0.79821 0.00637 0.70957 0.0
H95 H 0.63279 0.87293 0.71326 0.0
H96 H 0.82695 0.24817 0.75849 0.0
H97 H 0.89183 0.18672 0.69519 0.0
H98 H 0.71344 0.11908 0.69016 0.0
C99 C 0.67981 0.72129 0.04886 0.0
C100 C 0.69779 0.70376 0.03679 0.0
N101 N 0.75186 0.74167 0.03417 0.0
N102 N 0.72215 0.77035 0.05375 0.0
C103 C 0.76585 0.78141 0.04468 0.0
H104 H 0.63754 0.7015 0.05317 0.0
Co105 Co 0.71213 0.81596 0.06725 0.0
C106 C 0.82419 0.91432 0.07194 0.0
O107 O 0.80152 0.94576 0.06999 0.0
N108 N 0.70195 0.86221 0.08098 0.0
C109 C 0.67732 0.9163 0.09345 0.0
C110 C 0.67784 0.89427 0.07971 0.0
C111 C 0.7163 0.86632 0.0955 0.0
N112 N 0.70099 0.89792 0.10332 0.0
O113 O 0.70104 0.7637 0.08298 0.0
H114 H 0.66033 0.9006 0.06965 0.0
H115 H 0.73656 0.84527 0.10039 0.0
O116 O 0.7939 0.861 0.07085 0.0
C117 C 0.64908 0.73895 0.08651 0.0
O118 O 0.61698 0.75558 0.08021 0.0
N119 N 0.71245 0.85834 0.0513 0.0
C120 C 0.68346 0.88536 0.02437 0.0
C121 C 0.73998 0.90696 0.02802 0.0
C122 C 0.7538 0.8918 0.04154 0.0
C123 C 0.65752 0.83745 0.04775 0.0
C124 C 0.642 0.85078 0.03438 0.0
H125 H 0.7969 0.90387 0.04358 0.0
H126 H 0.62535 0.80806 0.05517 0.0
H127 H 0.80565 0.81992 0.04496 0.0
H128 H 0.67233 0.66742 0.02998 0.0
H129 H 0.6585 0.9414 0.09611 0.0
H130 H 0.7727 0.93245 0.02013 0.0
H131 H 0.59805 0.83263 0.03164 0.0
C132 C 0.87963 0.6957 0.37498 0.0
C133 C 0.90544 0.71205 0.36134 0.0
N134 N 0.95001 0.76382 0.36265 0.0
N135 N 0.90737 0.73698 0.38494 0.0
C136 C 0.95057 0.77789 0.37714 0.0
H137 H 0.84204 0.65661 0.37742 0.0
Co138 Co 0.88344 0.73326 0.40478 0.0
C139 C 0.91165 0.8521 0.40861 0.0
O140 O 0.85855 0.83642 0.41003 0.0
N141 N 0.85948 0.72915 0.42498 0.0
C142 C 0.81458 0.72976 0.44564 0.0
C143 C 0.82108 0.741 0.43064 0.0
C144 C 0.87539 0.71063 0.43697 0.0
N145 N 0.84862 0.71037 0.44956 0.0
O146 O 0.94522 0.72502 0.41118 0.0
H147 H 0.7966 0.75421 0.42429 0.0
H148 H 0.90575 0.69698 0.43663 0.0
O149 O 0.92712 0.81596 0.40649 0.0
C150 C 0.9242 0.67217 0.40974 0.0
O151 O 0.87167 0.64254 0.40551 0.0
N152 N 0.81865 0.73058 0.39768 0.0
C153 C 0.72461 0.6888 0.3797 0.0
C154 C 0.7699 0.74285 0.37733 0.0
C155 C 0.81734 0.76257 0.38626 0.0
C156 C 0.77287 0.67994 0.40083 0.0
C157 C 0.72509 0.65842 0.39205 0.0
H158 H 0.85493 0.80025 0.38293 0.0
H159 H 0.77561 0.65315 0.40916 0.0
H160 H 0.98073 0.81779 0.38183 0.0
H161 H 0.89224 0.68765 0.35119 0.0
H162 H 0.78506 0.73299 0.45293 0.0
H163 H 0.77165 0.76657 0.36752 0.0
H164 H 0.69147 0.61603 0.39391 0.0
C165 C 0.31352 0.97844 0.70759 0.0
C166 C 0.32772 0.01088 0.69488 0.0
N167 N 0.32468 0.05686 0.69799 0.0
N168 N 0.30043 1.00345 0.7185 0.0
C169 C 0.30896 0.05172 0.7124 0.0
H170 H 0.30842 0.93716 0.70844 0.0
Co171 Co 0.26245 0.97041 0.73618 0.0
C172 C 0.21461 0.04069 0.74536 0.0
O173 O 0.23437 0.04494 0.75891 0.0
N174 N 0.22239 0.93659 0.75385 0.0
C175 C 0.14835 0.88955 0.76862 0.0
C176 C 0.16645 0.91534 0.75511 0.0
C177 C 0.23739 0.92353 0.76696 0.0
N178 N 0.1929 0.89461 0.77603 0.0
O179 O 0.32554 0.02531 0.74715 0.0
H180 H 0.14002 0.91765 0.74657 0.0
H181 H 0.27947 0.93332 0.76971 0.0
O182 O 0.22542 0.01463 0.7354 0.0
C183 C 0.35544 1.00234 0.74881 0.0
O184 O 0.33506 0.95054 0.74433 0.0
N185 N 0.2056 0.91417 0.72519 0.0
C186 C 0.13362 0.82496 0.70759 0.0
C187 C 0.13964 0.8778 0.70526 0.0
C188 C 0.17598 0.92222 0.71428 0.0
C189 C 0.20003 0.863 0.72759 0.0
C190 C 0.16334 0.81734 0.71905 0.0
H191 H 0.18214 0.96333 0.71208 0.0
H192 H 0.22527 0.85803 0.736 0.0
H193 H 0.29903 0.08035 0.71796 0.0
H194 H 0.33645 1.00007 0.684 0.0
H195 H 0.10572 0.8687 0.77273 0.0
H196 H 0.11727 0.88477 0.69636 0.0
H197 H 0.16 0.77712 0.72094 0.0
C198 C 0.68123 0.60884 0.61523 0.0
C199 C 0.6733 0.63696 0.62678 0.0
N200 N 0.71688 0.68964 0.62699 0.0
N201 N 0.72937 0.64367 0.60812 0.0
C202 C 0.74993 0.69262 0.6155 0.0
H203 H 0.6544 0.5653 0.61247 0.0
Co204 Co 0.76114 0.62406 0.59258 0.0
C205 C 0.84749 0.73204 0.57862 0.0
O206 O 0.87767 0.70883 0.57544 0.0
N207 N 0.79214 0.60309 0.57682 0.0
C208 C 0.83587 0.5715 0.56239 0.0
C209 C 0.82139 0.57587 0.57679 0.0
C210 C 0.78811 0.61317 0.56227 0.0
N211 N 0.81526 0.5955 0.55328 0.0
O212 O 0.6952 0.6027 0.58071 0.0
H213 H 0.8326 0.56063 0.58649 0.0
H214 H 0.76668 0.63456 0.55842 0.0
O215 O 0.79984 0.70292 0.58515 0.0
C216 C 0.66756 0.54931 0.58045 0.0
O217 O 0.6885 0.52187 0.5873 0.0
N218 N 0.8204 0.63749 0.60516 0.0
C219 C 0.89306 0.64003 0.62704 0.0
C220 C 0.9014 0.68953 0.62037 0.0
C221 C 0.8643 0.68747 0.60958 0.0
C222 C 0.81053 0.58925 0.61191 0.0
C223 C 0.8469 0.58933 0.62268 0.0
H224 H 0.86975 0.72649 0.60559 0.0
H225 H 0.77381 0.55029 0.60889 0.0
H226 H 0.78888 0.72964 0.61266 0.0
H227 H 0.63935 0.61928 0.63478 0.0
H228 H 0.8612 0.55369 0.55899 0.0
H229 H 0.93468 0.72998 0.62398 0.0
H230 H 0.83835 0.55023 0.6277 0.0
C231 C 0.081 0.73925 0.95104 0.0
C232 C 0.04355 0.72962 0.96239 0.0
N233 N 0.01183 0.75189 0.95844 0.0
N234 N 0.07339 0.76792 0.94002 0.0
C235 C 0.0305 0.77455 0.94479 0.0
H236 H 0.1131 0.72773 0.95102 0.0
Co237 Co 0.12111 0.79761 0.92354 0.0
C238 C 0.10686 0.8911 0.91309 0.0
O239 O 0.16157 0.92228 0.91224 0.0
N240 N 0.16953 0.82759 0.90672 0.0
C241 C 0.24065 0.86685 0.89059 0.0
C242 C 0.22599 0.85831 0.90542 0.0
C243 C 0.15129 0.81878 0.89246 0.0
N244 N 0.1935 0.84143 0.88248 0.0
O245 O 0.07064 0.73368 0.91199 0.0
H246 H 0.2556 0.87366 0.91446 0.0
H247 H 0.10751 0.79596 0.88941 0.0
O248 O 0.08447 0.84025 0.91749 0.0
C249 C 0.09462 0.70447 0.91112 0.0
O250 O 0.14351 0.72306 0.91755 0.0
N251 N 0.17237 0.85323 0.93582 0.0
C252 C 0.24873 0.91262 0.95804 0.0
C253 C 0.20713 0.9254 0.95416 0.0
C254 C 0.16802 0.89389 0.94323 0.0
C255 C 0.21138 0.83937 0.93992 0.0
C256 C 0.25069 0.86915 0.9508 0.0
H257 H 0.13299 0.90025 0.94138 0.0
H258 H 0.2113 0.80402 0.93481 0.0
H259 H 0.0147 0.79755 0.93871 0.0
H260 H 0.0401 0.70817 0.97278 0.0
H261 H 0.28278 0.88866 0.88614 0.0
H262 H 0.20289 0.95705 0.96015 0.0
H263 H 0.28127 0.85725 0.95384 0.0
C264 C 0.34485 0.04074 0.28717 0.0
C265 C 0.30788 0.00613 0.29789 0.0
N266 N 0.25552 0.99135 0.29354 0.0
N267 N 0.31612 0.04788 0.27608 0.0
C268 C 0.26181 0.01715 0.28026 0.0
H269 H 0.38996 0.0605 0.2876 0.0
Co270 Co 0.3486 0.09615 0.25981 0.0
C271 C 0.25582 0.10694 0.24668 0.0
O272 O 0.29138 0.16057 0.24503 0.0
N273 N 0.38208 0.14421 0.24321 0.0
C274 C 0.43692 0.21105 0.22714 0.0
C275 C 0.42979 0.19407 0.24181 0.0
C276 C 0.36248 0.13114 0.22911 0.0
N277 N 0.39404 0.17153 0.21925 0.0
O278 O 0.35137 0.03843 0.24883 0.0
H279 H 0.45838 0.21714 0.25068 0.0
H280 H 0.3251 0.09263 0.22612 0.0
O281 O 0.27304 0.07531 0.25213 0.0
C282 C 0.4021 0.05051 0.25069 0.0
O283 O 0.43476 0.09289 0.25927 0.0
N284 N 0.35284 0.15383 0.27148 0.0
C285 C 0.37393 0.23836 0.2916 0.0
C286 C 0.31907 0.20103 0.28695 0.0
C287 C 0.3092 0.15795 0.27718 0.0
C288 C 0.40573 0.18759 0.27666 0.0
C289 C 0.41754 0.23098 0.28646 0.0
H290 H 0.26642 0.12685 0.27484 0.0
H291 H 0.43886 0.17963 0.27353 0.0
H292 H 0.22749 0.01532 0.27401 0.0
H293 H 0.31884 0.99301 0.3081 0.0
H294 H 0.47015 0.25005 0.2227 0.0
H295 H 0.2838 0.20326 0.29144 0.0
H296 H 0.4601 0.25752 0.29027 0.0
C297 C 0.18745 0.29883 0.61461 0.0
C298 C 0.21118 0.29398 0.62756 0.0
N299 N 0.22312 0.25265 0.62585 0.0
N300 N 0.18387 0.26047 0.60477 0.0
C301 C 0.20592 0.23288 0.61191 0.0
H302 H 0.17426 0.32893 0.61239 0.0
Co303 Co 0.15917 0.25474 0.58517 0.0
C304 C 0.1233 0.13491 0.57788 0.0
O305 O 0.15778 0.14826 0.56652 0.0
N306 N 0.13487 0.24977 0.56553 0.0
C307 C 0.08294 0.2253 0.54501 0.0
C308 C 0.08519 0.21177 0.55966 0.0
C309 C 0.16179 0.28608 0.55433 0.0
N310 N 0.13125 0.27221 0.54168 0.0
O311 O 0.23041 0.26674 0.57832 0.0
H312 H 0.05208 0.17724 0.56575 0.0
H313 H 0.20296 0.32227 0.55547 0.0
O314 O 0.12421 0.17339 0.58591 0.0
C315 C 0.2637 0.31948 0.57909 0.0
O316 O 0.24307 0.35086 0.58347 0.0
N317 N 0.09264 0.24892 0.59202 0.0
C318 C 0.99953 0.24943 0.60337 0.0
C319 C 0.01254 0.209 0.608 0.0
C320 C 0.05995 0.21006 0.60237 0.0
C321 C 0.08083 0.28899 0.58748 0.0
C322 C 0.03412 0.29007 0.59307 0.0
H323 H 0.0719 0.18139 0.60689 0.0
H324 H 0.10858 0.32105 0.57976 0.0
H325 H 0.21096 0.2003 0.60677 0.0
H326 H 0.21899 0.31908 0.63747 0.0
H327 H 0.04773 0.20313 0.53758 0.0
H328 H 0.98761 0.17843 0.61642 0.0
H329 H 0.02581 0.32278 0.58967 0.0
C330 C 0.92371 0.2282 0.94509 0.0
C331 C 0.95324 0.23153 0.95771 0.0
N332 N 0.99142 0.21674 0.95419 0.0
N333 N 0.94313 0.21172 0.93353 0.0
C334 C 0.98434 0.20454 0.93944 0.0
H335 H 0.89019 0.23758 0.94436 0.0
Co336 Co 0.9142 0.20592 0.91432 0.0
C337 C 0.934 0.12453 0.89813 0.0
O338 O 0.88551 0.1082 0.89167 0.0
N339 N 0.88495 0.20291 0.89499 0.0
C340 C 0.8335 0.20162 0.87573 0.0
C341 C 0.83393 0.19368 0.89079 0.0
C342 C 0.91507 0.21785 0.88218 0.0
N343 N 0.88456 0.21684 0.8703 0.0
O344 O 0.97531 0.2783 0.90936 0.0
H345 H 0.79882 0.18313 0.89798 0.0
H346 H 0.95884 0.2298 0.88162 0.0
O347 O 0.95334 0.16588 0.90725 0.0
C348 C 0.95461 0.30954 0.91224 0.0
O349 O 0.90397 0.28607 0.91795 0.0
N350 N 0.85106 0.13908 0.9201 0.0
C351 C 0.75436 0.05247 0.9327 0.0
C352 C 0.80051 0.0458 0.92968 0.0
C353 C 0.84918 0.09028 0.92378 0.0
C354 C 0.80723 0.14661 0.92353 0.0
C355 C 0.75783 0.10342 0.92938 0.0
H356 H 0.88605 0.08634 0.92326 0.0
H357 H 0.81159 0.18745 0.92239 0.0
H358 H 0.0095 0.19205 0.93305 0.0
H359 H 0.94698 0.24371 0.96869 0.0
H360 H 0.79795 0.19595 0.86925 0.0
H361 H 0.80083 0.00839 0.93308 0.0
H362 H 0.72413 0.11106 0.93225 0.0
C363 C 0.71718 0.89501 0.28759 0.0
C364 C 0.74241 0.93246 0.2991 0.0
N365 N 0.78686 0.97897 0.29358 0.0
N366 N 0.7457 0.91751 0.27486 0.0
C367 C 0.7876 0.96854 0.27886 0.0
H368 H 0.68032 0.85405 0.28844 0.0
Co369 Co 0.73087 0.88649 0.25559 0.0
C370 C 0.84405 0.91316 0.24569 0.0
O371 O 0.82424 0.86067 0.24207 0.0
N372 N 0.71711 0.85671 0.23576 0.0
C373 C 0.70737 0.8076 0.21515 0.0
C374 C 0.71294 0.8091 0.23035 0.0
C375 C 0.71417 0.88324 0.22338 0.0
N376 N 0.70813 0.8544 0.21071 0.0
O377 O 0.71781 0.94498 0.2491 0.0
H378 H 0.7168 0.77815 0.23674 0.0
H379 H 0.71761 0.92375 0.22355 0.0
O380 O 0.81132 0.92915 0.251 0.0
C381 C 0.66564 0.92286 0.25213 0.0
O382 O 0.64057 0.87354 0.25857 0.0
N383 N 0.73348 0.82527 0.26306 0.0
C384 C 0.70671 0.73438 0.28125 0.0
C385 C 0.76162 0.77981 0.28091 0.0
C386 C 0.77417 0.82569 0.2718 0.0
C387 C 0.68062 0.78027 0.26299 0.0
C388 C 0.6667 0.73377 0.27169 0.0
H389 H 0.81435 0.86328 0.27295 0.0
H390 H 0.64788 0.78204 0.25684 0.0
H391 H 0.81824 0.9974 0.27103 0.0
H392 H 0.72828 0.92608 0.31056 0.0
H393 H 0.70542 0.77532 0.20798 0.0
H394 H 0.79257 0.78243 0.2888 0.0
H395 H 0.62349 0.70034 0.27218 0.0
H396 H 0.66169 0.64859 0.08278 0.0
H397 H 0.56724 0.70887 0.10706 0.0
H398 H 0.49329 0.61199 0.11227 0.0
H399 H 0.55649 0.55307 0.0639 0.0
H400 H 0.57536 0.49946 0.06375 0.0
H401 H 0.62861 0.57112 0.06597 0.0
H402 H 0.66096 0.54827 0.09077 0.0
H403 H 0.60877 0.47577 0.08844 0.0
H404 H 0.61061 0.51176 0.10535 0.0
H405 H 0.41907 0.51023 0.1089 0.0
H406 H 0.35817 0.41318 0.09975 0.0
H407 H 0.50255 0.42119 0.07802 0.0
C408 C 0.6274 0.6412 0.09009 0.0
C409 C 0.62052 0.68586 0.09477 0.0
C410 C 0.57357 0.67491 0.10363 0.0
C411 C 0.53115 0.61996 0.10657 0.0
C412 C 0.53664 0.57639 0.1007 0.0
C413 C 0.58448 0.58644 0.093 0.0
C414 C 0.57691 0.53354 0.08596 0.0
C415 C 0.58478 0.53971 0.0689 0.0
C416 C 0.61667 0.51631 0.09306 0.0
C417 C 0.51665 0.49323 0.09012 0.0
C418 C 0.49396 0.51805 0.09879 0.0
C419 C 0.43691 0.48986 0.10248 0.0
C420 C 0.40247 0.43494 0.09718 0.0
C421 C 0.42533 0.40936 0.08819 0.0
C422 C 0.48335 0.43899 0.08495 0.0
H423 H 0.97397 0.41458 0.40387 0.0
H424 H 0.12707 0.51088 0.42881 0.0
H425 H 0.10149 0.583 0.4338 0.0
H426 H 0.98021 0.52294 0.38533 0.0
H427 H 0.90652 0.50007 0.38529 0.0
H428 H 0.92915 0.44964 0.38665 0.0
H429 H 0.87337 0.41056 0.41121 0.0
H430 H 0.84907 0.45987 0.40972 0.0
H431 H 0.88413 0.45746 0.42641 0.0
H432 H 0.06799 0.65293 0.43186 0.0
H433 H 0.02281 0.70874 0.4256 0.0
H434 H 0.89304 0.56645 0.40172 0.0
C435 C 1.00017 0.44916 0.41114 0.0
C436 C 0.05154 0.45663 0.41635 0.0
C437 C 0.08675 0.50399 0.42509 0.0
C438 C 0.07278 0.54534 0.42788 0.0
C439 C 0.02334 0.53864 0.42184 0.0
C440 C 0.98692 0.49109 0.41393 0.0
C441 C 0.93973 0.49676 0.40724 0.0
C442 C 0.93891 0.49209 0.39012 0.0
C443 C 0.88323 0.45361 0.41406 0.0
C444 C 0.95646 0.55539 0.41214 0.0
C445 C 1.0045 0.57898 0.42063 0.0
C446 C 0.0296 0.63442 0.42548 0.0
C447 C 1.00413 0.66603 0.42177 0.0
C448 C 0.95432 0.64194 0.41328 0.0
C449 C 0.9307 0.58602 0.40842 0.0
H450 H 0.60484 0.97409 0.77817 0.0
H451 H 0.69629 0.07212 0.73976 0.0
H452 H 0.62547 0.09973 0.73582 0.0
H453 H 0.47475 0.9171 0.7611 0.0
H454 H 0.43739 0.91445 0.77786 0.0
H455 H 0.50088 0.91167 0.77908 0.0
H456 H 0.54218 0.99685 0.7969 0.0
H457 H 0.47892 1.00045 0.79542 0.0
H458 H 0.54556 0.06071 0.79096 0.0
H459 H 0.53963 0.11039 0.73486 0.0
H460 H 0.44098 0.08846 0.73401 0.0
H461 H 0.40231 0.97777 0.77178 0.0
C462 C 0.61087 1.00242 0.7691 0.0
C463 C 0.65802 0.02266 0.75957 0.0
C464 C 0.66245 0.05779 0.74755 0.0
C465 C 0.622 0.07369 0.74523 0.0
C466 C 0.57647 0.05342 0.75494 0.0
C467 C 0.57023 0.01762 0.76648 0.0
C468 C 0.51377 0.99491 0.774 0.0
C469 C 0.4797 0.93076 0.77293 0.0
C470 C 0.52054 0.01441 0.79029 0.0
C471 C 0.4884 0.02211 0.76459 0.0
C472 C 0.52585 0.05721 0.75396 0.0
C473 C 0.51034 0.08381 0.74331 0.0
C474 C 0.45443 0.07181 0.74302 0.0
C475 C 0.41475 0.03285 0.75313 0.0
C476 C 0.43251 0.00937 0.76433 0.0
H477 H 0.57905 0.56766 0.58309 0.0
H478 H 0.6282 0.45396 0.56474 0.0
H479 H 0.5292 0.38455 0.55993 0.0
H480 H 0.46797 0.4699 0.60288 0.0
H481 H 0.42201 0.49774 0.60005 0.0
H482 H 0.49657 0.54328 0.59918 0.0
H483 H 0.48823 0.5754 0.57263 0.0
H484 H 0.41332 0.53069 0.57352 0.0
H485 H 0.45227 0.524 0.55831 0.0
H486 H 0.4245 0.32139 0.56112 0.0
H487 H 0.32251 0.27323 0.56639 0.0
H488 H 0.34213 0.42804 0.58397 0.0
C489 C 0.56895 0.52932 0.57736 0.0
C490 C 0.61109 0.51647 0.57399 0.0
C491 C 0.59634 0.46477 0.56717 0.0
C492 C 0.54023 0.42501 0.56444 0.0
C493 C 0.49918 0.43755 0.56858 0.0
C494 C 0.51284 0.48884 0.57467 0.0
C495 C 0.46072 0.48959 0.57956 0.0
C496 C 0.46192 0.50077 0.59641 0.0
C497 C 0.45319 0.53246 0.57046 0.0
C498 C 0.41612 0.4304 0.57574 0.0
C499 C 0.4389 0.40103 0.56932 0.0
C500 C 0.406 0.34433 0.56587 0.0
C501 C 0.34822 0.31717 0.56897 0.0
C502 C 0.32418 0.3468 0.57548 0.0
C503 C 0.35888 0.40418 0.57879 0.0
H504 H 0.92237 0.38248 0.92117 0.0
H505 H 0.04858 0.37228 0.8947 0.0
H506 H 0.08897 0.47217 0.88776 0.0
H507 H 0.90289 0.47701 0.89677 0.0
H508 H 0.89404 0.51345 0.91223 0.0
H509 H 0.87296 0.44065 0.91402 0.0
H510 H 0.93639 0.46234 0.93728 0.0
H511 H 0.95649 0.53472 0.93574 0.0
H512 H 0.00941 0.51475 0.93599 0.0
H513 H 0.11874 0.57456 0.88545 0.0
H514 H 0.1425 0.67183 0.8903 0.0
H515 H 0.9946 0.61292 0.91779 0.0
C516 C 0.95827 0.40084 0.91378 0.0
C517 C 0.98232 0.36955 0.90842 0.0
C518 C 0.02968 0.39558 0.89897 0.0
C519 C 0.05237 0.452 0.89486 0.0
C520 C 0.02682 0.48128 0.90022 0.0
C521 C 0.98104 0.45649 0.90958 0.0
C522 C 0.9636 0.49749 0.91485 0.0
C523 C 0.90489 0.48116 0.90912 0.0
C524 C 0.96671 0.50264 0.93197 0.0
C525 C 0.00792 0.55021 0.90738 0.0
C526 C 0.04339 0.53981 0.89875 0.0
C527 C 0.09063 0.58289 0.89192 0.0
C528 C 0.10354 0.63793 0.89463 0.0
C529 C 0.06938 0.64936 0.90407 0.0
C530 C 0.01984 0.60499 0.91002 0.0
H531 H 0.565 0.89512 0.26382 0.0
H532 H 0.68684 0.00578 0.23136 0.0
H533 H 0.62153 0.03899 0.22394 0.0
H534 H 0.43995 0.85722 0.2422 0.0
H535 H 0.40066 0.85649 0.25834 0.0
H536 H 0.45544 0.83953 0.26024 0.0
H537 H 0.50482 0.91698 0.28018 0.0
H538 H 0.44938 0.93281 0.27864 0.0
H539 H 0.52099 0.98716 0.27591 0.0
H540 H 0.54381 0.06319 0.22145 0.0
H541 H 0.46934 0.08589 0.22655 0.0
H542 H 0.39915 0.95681 0.26022 0.0
C543 C 0.57811 0.92613 0.25505 0.0
C544 C 0.63093 0.94779 0.2481 0.0
C545 C 0.64666 0.98891 0.23687 0.0
C546 C 0.60952 0.00736 0.23248 0.0
C547 C 0.55704 0.98393 0.2394 0.0
C548 C 0.54188 0.94463 0.25058 0.0
C549 C 0.48539 0.92864 0.25718 0.0
C550 C 0.44286 0.86679 0.25431 0.0
C551 C 0.49048 0.94226 0.27396 0.0
C552 C 0.47118 0.9662 0.24828 0.0
C553 C 0.51243 0.99707 0.23786 0.0
C554 C 0.51081 0.03836 0.22932 0.0
C555 C 0.46792 0.05044 0.23212 0.0
C556 C 0.42744 0.02139 0.24333 0.0
C557 C 0.42791 0.97743 0.25107 0.0
H558 H 0.31248 0.02377 0.96299 0.0
H559 H 0.26443 0.86201 0.98198 0.0
H560 H 0.31001 0.90669 0.00563 0.0
H561 H 0.44927 0.10726 0.98645 0.0
H562 H 0.43616 0.16468 0.9878 0.0
H563 H 0.41692 0.12268 0.97113 0.0
H564 H 0.3152 0.10336 0.97376 0.0
H565 H 0.33385 0.14465 0.99035 0.0
H566 H 0.27737 0.07326 0.99084 0.0
H567 H 0.33124 0.96217 0.0283 0.0
H568 H 0.33366 0.02631 0.04783 0.0
H569 H 0.37376 0.15393 0.01443 0.0
C570 C 0.3139 0.99838 0.97198 0.0
C571 C 0.28549 0.93995 0.97081 0.0
C572 C 0.28688 0.90714 0.98271 0.0
C573 C 0.31285 0.93217 -0.00386 0.0
C574 C 0.33812 0.98997 -0.0027 0.0
C575 C 0.34013 0.02292 0.9854 0.0
C576 C 0.36122 0.08247 0.99014 0.0
C577 C 0.41936 0.12158 0.98349 0.0
C578 C 0.31939 0.10197 0.98604 0.0
C579 C 0.36468 0.07639 0.00678 0.0
C580 C 0.35283 0.02316 0.01068 0.0
C581 C 0.34307 0.00468 0.02544 0.0
C582 C 0.34399 0.04097 0.03643 0.0
C583 C 0.35489 0.09489 0.0325 0.0
C584 C 0.36741 0.11343 0.01765 0.0
H585 H 0.25597 0.3861 0.3397 0.0
H586 H 0.33487 0.35251 0.37677 0.0
H587 H 0.39861 0.34235 0.35936 0.0
H588 H 0.24107 0.28289 0.31929 0.0
H589 H 0.2531 0.31511 0.30115 0.0
H590 H 0.22918 0.3405 0.31614 0.0
H591 H 0.31429 0.43991 0.31253 0.0
H592 H 0.33847 0.41475 0.29734 0.0
H593 H 0.38419 0.45033 0.31281 0.0
H594 H 0.43488 0.31256 0.33871 0.0
H595 H 0.43611 0.25946 0.31688 0.0
H596 H 0.33165 0.30834 0.29267 0.0
C597 C 0.28882 0.37955 0.34407 0.0
C598 C 0.29191 0.37113 0.35941 0.0
C599 C 0.33305 0.35992 0.36497 0.0
C600 C 0.36953 0.35457 0.35518 0.0
C601 C 0.36383 0.36031 0.33992 0.0
C602 C 0.32455 0.37285 0.33438 0.0
C603 C 0.31802 0.36458 0.31768 0.0
C604 C 0.25677 0.3233 0.31333 0.0
C605 C 0.34009 0.42075 0.30961 0.0
C606 C 0.35567 0.34046 0.31492 0.0
C607 C 0.3837 0.34077 0.32775 0.0
C608 C 0.4147 0.31367 0.32848 0.0
C609 C 0.41516 0.28357 0.31602 0.0
C610 C 0.38405 0.28019 0.30315 0.0
C611 C 0.35609 0.31092 0.30239 0.0
H612 H 0.00953 0.31431 0.62664 0.0
H613 H 0.88839 0.18433 0.59813 0.0
H614 H 0.81381 0.16444 0.6164 0.0
H615 H 0.97456 0.24343 0.65639 0.0
H616 H 0.98292 0.29523 0.6699 0.0
H617 H 0.02094 0.31668 0.65272 0.0
H618 H 0.97896 0.3796 0.64666 0.0
H619 H 0.94143 0.35941 0.66413 0.0
H620 H 0.90414 0.35058 0.64693 0.0
H621 H 0.76282 0.1379 0.63985 0.0
H622 H 0.73872 0.10864 0.66588 0.0
H623 H 0.89111 0.25588 0.68033 0.0
C624 C 0.96643 0.28453 0.62391 0.0
C625 C 0.95376 0.25184 0.61095 0.0
C626 C 0.89801 0.21072 0.60787 0.0
C627 C 0.85556 0.19925 0.6182 0.0
C628 C 0.86988 0.2293 0.63153 0.0
C629 C 0.92396 0.27207 0.6343 0.0
C630 C 0.93146 0.28946 0.65053 0.0
C631 C 0.98028 0.28589 0.65779 0.0
C632 C 0.93944 0.34825 0.65216 0.0
C633 C 0.87542 0.24582 0.65675 0.0
C634 C 0.83974 0.213 0.64553 0.0
C635 C 0.78937 0.16459 0.64869 0.0
C636 C 0.77599 0.14825 0.66359 0.0
C637 C 0.81299 0.18006 0.67522 0.0
C638 C 0.86202 0.23069 0.6717 0.0
H639 H 0.6887 0.97947 0.01408 0.0
H640 H 0.64409 0.81131 0.00171 0.0
H641 H 0.62858 0.82995 0.97569 0.0
H642 H 0.59242 0.99503 0.98491 0.0
H643 H 0.6448 0.06722 0.98215 0.0
H644 H 0.63542 0.03565 0.00031 0.0
H645 H 0.7406 0.06488 0.00096 0.0
H646 H 0.75011 0.09688 0.98306 0.0
H647 H 0.76948 0.04424 0.98585 0.0
H648 H 0.6452 0.87349 0.95111 0.0
H649 H 0.69367 0.93845 0.93028 0.0
H650 H 0.72063 0.0772 0.95817 0.0
C651 C 0.67363 0.94633 0.00589 0.0
C652 C 0.66738 0.89429 0.00958 0.0
C653 C 0.64862 0.85142 -0.00114 0.0
C654 C 0.63919 0.86149 0.98416 0.0
C655 C 0.64753 0.91417 0.98059 0.0
C656 C 0.66341 0.95567 0.99124 0.0
C657 C 0.67873 0.0111 0.98423 0.0
C658 C 0.63522 0.02823 0.98813 0.0
C659 C 0.73823 0.05685 0.98878 0.0
C660 C 0.6753 0.9958 0.96794 0.0
C661 C 0.65518 0.93926 0.96602 0.0
C662 C 0.65882 0.91735 0.95232 0.0
C663 C 0.68652 0.95442 0.94056 0.0
C664 C 0.70992 0.01245 0.94266 0.0
C665 C 0.70112 0.03277 0.95617 0.0
H666 H 0.65203 0.74692 0.30379 0.0
H667 H 0.72056 0.64547 0.28854 0.0
H668 H 0.69684 0.59612 0.31288 0.0
H669 H 0.71686 0.78017 0.33522 0.0
H670 H 0.66354 0.78177 0.34648 0.0
H671 H 0.66423 0.79179 0.3268 0.0
H672 H 0.562 0.70951 0.3252 0.0
H673 H 0.56152 0.69893 0.34507 0.0
H674 H 0.54459 0.64195 0.33247 0.0
H675 H 0.68748 0.57496 0.33949 0.0
H676 H 0.71332 0.59751 0.36578 0.0
H677 H 0.6584 0.71882 0.36468 0.0
C678 C 0.6595 0.71242 0.30547 0.0
C679 C 0.68679 0.69867 0.29447 0.0
C680 C 0.6987 0.65545 0.29692 0.0
C681 C 0.68469 0.62697 0.3106 0.0
C682 C 0.65934 0.64283 0.32159 0.0
C683 C 0.64722 0.68504 0.31914 0.0
C684 C 0.63396 0.70464 0.33349 0.0
C685 C 0.67197 0.76827 0.33561 0.0
C686 C 0.57181 0.68772 0.33409 0.0
C687 C 0.64667 0.67146 0.34459 0.0
C688 C 0.65732 0.63321 0.33749 0.0
C689 C 0.67779 0.6035 0.3452 0.0
C690 C 0.69213 0.61641 0.36018 0.0
C691 C 0.68731 0.6597 0.3671 0.0
C692 C 0.66098 0.68478 0.35957 0.0
H693 H 0.14492 0.82408 0.67774 0.0
H694 H 0.04473 0.72336 0.71485 0.0
H695 H 0.98035 0.65046 0.69725 0.0
H696 H 0.04073 0.80491 0.65549 0.0
H697 H 0.07136 0.80139 0.63806 0.0
H698 H 0.11571 0.8382 0.65351 0.0
H699 H 0.16213 0.77687 0.65184 0.0
H700 H 0.11757 0.73961 0.6363 0.0
H701 H 0.11914 0.70192 0.65253 0.0
H702 H 0.91732 0.60145 0.67602 0.0
H703 H 0.86109 0.58033 0.65316 0.0
H704 H 1.00581 0.70838 0.62948 0.0
C705 C 0.11019 0.78583 0.68209 0.0
C706 C 0.09907 0.77881 0.69747 0.0
C707 C 0.05353 0.72885 0.703 0.0
C708 C 0.0172 0.68728 0.69311 0.0
C709 C 0.02824 0.69609 0.67787 0.0
C710 C 0.07426 0.74382 0.6724 0.0
C711 C 0.07316 0.74683 0.65561 0.0
C712 C 0.07531 0.80099 0.65038 0.0
C713 C 0.12083 0.74093 0.64866 0.0
C714 C 0.01697 0.6959 0.65255 0.0
C715 C 0.99228 0.6663 0.66546 0.0
C716 C 0.93686 0.62294 0.66574 0.0
C717 C 0.90523 0.61112 0.65266 0.0
C718 C 0.92922 0.6428 0.63955 0.0
C719 C 0.9865 0.68353 0.63936 0.0
H720 H 0.14226 0.1658 0.07335 0.0
H721 H 0.17547 0.0668 0.10491 0.0
H722 H 0.07689 0.99257 0.10372 0.0
H723 H 1.00132 0.12428 0.08799 0.0
H724 H 0.97357 0.12327 0.06973 0.0
H725 H 0.04661 0.17006 0.07356 0.0
H726 H 0.07313 0.12848 0.05126 0.0
H727 H 1.00021 0.08092 0.04752 0.0
H728 H 0.04713 0.05439 0.05064 0.0
H729 H 0.97685 0.92445 0.09733 0.0
H730 H 0.87782 0.87368 0.08914 0.0
H731 H 0.90668 0.01789 0.0631 0.0
C732 C 0.1285 0.12913 0.08028 0.0
C733 C 0.167 0.12228 0.08917 0.0
C734 C 0.14713 0.07317 0.09793 0.0
C735 C 0.09109 0.03048 0.09731 0.0
C736 C 0.05474 0.03747 0.08803 0.0
C737 C 0.07217 0.08602 0.07993 0.0
C738 C 0.02409 0.08261 0.07088 0.0
C739 C 0.0106 0.12773 0.07584 0.0
C740 C 0.03693 0.08685 0.05408 0.0
C741 C 0.97737 0.02454 0.0751 0.0
C742 C 0.99618 0.99893 0.08485 0.0
C743 C 0.96136 0.94432 0.08985 0.0
C744 C 0.90535 0.9156 0.08506 0.0
C745 C 0.88457 0.9419 0.07559 0.0
C746 C 0.92134 0.99691 0.07047 0.0
H747 H 0.0108 0.17472 0.39846 0.0
H748 H 0.12982 0.20783 0.43406 0.0
H749 H 0.09898 0.1076 0.43554 0.0
H750 H 0.89911 0.04225 0.41252 0.0
H751 H 0.87975 0.01129 0.39425 0.0
H752 H 0.91034 0.08557 0.39637 0.0
H753 H 0.98816 0.10153 0.37742 0.0
H754 H 0.95773 0.027 0.37538 0.0
H755 H 0.03002 0.06941 0.3807 0.0
H756 H 0.06022 0.00433 0.43195 0.0
H757 H 1.0043 0.90303 0.42636 0.0
H758 H 0.90798 0.9362 0.39403 0.0
C759 C 0.02935 0.16068 0.4068 0.0
C760 C 0.07269 0.19916 0.41615 0.0
C761 C 0.09665 0.17914 0.42674 0.0
C762 C 0.07964 0.12228 0.42762 0.0
C763 C 0.03846 0.08567 0.41786 0.0
C764 C 0.01287 0.10382 0.40783 0.0
C765 C 0.96999 0.05569 0.39853 0.0
C766 C 0.91131 0.04826 0.40055 0.0
C767 C 0.98748 0.06391 0.38203 0.0
C768 C 0.97408 0.00756 0.40528 0.0
C769 C 0.01501 0.02595 0.41611 0.0
C770 C 0.02776 0.98933 0.42356 0.0
C771 C 0.99635 0.93207 0.42022 0.0
C772 C 0.95226 0.91224 0.40977 0.0
C773 C 0.94169 0.95058 0.40206 0.0
H774 H 0.9257 0.02587 0.76379 0.0
H775 H 0.91698 0.06619 0.71748 0.0
H776 H 0.01115 0.07841 0.71308 0.0
H777 H 0.07443 0.12577 0.76865 0.0
H778 H 0.08518 0.08004 0.78078 0.0
H779 H 0.01801 0.07604 0.78025 0.0
H780 H 0.9702 0.97061 0.774 0.0
H781 H 0.03711 0.97426 0.77457 0.0
H782 H 0.99409 0.9483 0.75814 0.0
H783 H 0.10318 0.07761 0.71342 0.0
H784 H 0.18659 0.06899 0.71879 0.0
H785 H 0.13744 0.03617 0.76526 0.0
C786 C 0.94364 0.03746 0.75272 0.0
C787 C 0.91387 0.04475 0.74094 0.0
C788 C 0.93909 0.06049 0.72667 0.0
C789 C 0.99253 0.06748 0.72407 0.0
C790 C 0.02062 0.05961 0.73594 0.0
C791 C 0.9972 0.04558 0.75002 0.0
C792 C 0.03567 0.03918 0.76088 0.0
C793 C 0.05443 0.08287 0.77338 0.0
C794 C 0.00759 0.97955 0.76727 0.0
C795 C 0.084 0.05059 0.75067 0.0
C796 C 0.07455 0.06211 0.7363 0.0
C797 C 0.11146 0.06975 0.7247 0.0
C798 C 0.15874 0.06486 0.72784 0.0
C799 C 0.16917 0.05324 0.7425 0.0
C800 C 0.13159 0.04688 0.75405 0.0
H801 H 0.9456 0.80392 0.56439 0.0
H802 H 0.81528 0.80095 0.59216 0.0
H803 H 0.8716 0.90356 0.59474 0.0
H804 H 0.06023 0.9056 0.58443 0.0
H805 H 0.10348 0.93948 0.56839 0.0
H806 H 0.05123 0.86659 0.56757 0.0
H807 H 1.00622 0.88467 0.54448 0.0
H808 H 0.05893 0.95753 0.54505 0.0
H809 H 0.98584 0.93712 0.5454 0.0
H810 H 0.94583 0.00523 0.59609 0.0
H811 H 0.02728 0.09938 0.59419 0.0
H812 H 0.11013 0.03755 0.56525 0.0
C813 C 0.92827 0.82484 0.5708 0.0
C814 C 0.87583 0.79408 0.5781 0.0
C815 C 0.85503 0.82333 0.5864 0.0
C816 C 0.88693 0.88167 0.58798 0.0
C817 C 0.93929 0.91031 0.58107 0.0
C818 C 0.95941 0.88299 0.57243 0.0
C819 C 0.01753 0.92334 0.56645 0.0
C820 C 0.06065 0.90781 0.57205 0.0
C821 C 0.01709 0.92581 0.54933 0.0
C822 C 0.02753 0.97766 0.5733 0.0
C823 C 0.98186 0.96904 0.58171 0.0
C824 C 0.9816 0.01239 0.58946 0.0
C825 C 0.02869 0.06599 0.58842 0.0
C826 C 0.0759 0.07648 0.57969 0.0
C827 C 0.07501 0.03127 0.57205 0.0
H828 H 0.13007 0.99681 0.92001 0.0
H829 H 1.00585 0.84341 0.89894 0.0
H830 H 0.95146 0.88893 0.89185 0.0
H831 H 0.02877 0.03165 0.93542 0.0
H832 H 0.07407 0.10575 0.93298 0.0
H833 H 0.10368 0.06153 0.93607 0.0
H834 H 0.16154 0.09903 0.91176 0.0
H835 H 0.13158 0.14285 0.90851 0.0
H836 H 0.12611 0.0939 0.89444 0.0
H837 H 0.91452 0.95243 0.8857 0.0
H838 H 0.88729 0.02396 0.88415 0.0
H839 H 0.03065 0.13544 0.91128 0.0
C840 C 0.09132 0.9729 0.91392 0.0
C841 C 0.07221 0.91676 0.90984 0.0
C842 C 0.02101 0.88636 0.90213 0.0
C843 C 0.99015 0.91201 0.898 0.0
C844 C 0.01053 0.96766 0.90199 0.0
C845 C 0.0592 0.99742 0.91008 0.0
C846 C 0.07013 0.05581 0.91359 0.0
C847 C 0.06909 0.06416 0.93052 0.0
C848 C 0.12564 0.10053 0.90666 0.0
C849 C 0.0204 0.05454 0.90598 0.0
C850 C 0.98718 1.00347 0.8992 0.0
C851 C 0.9398 0.9923 0.89112 0.0
C852 C 0.92489 0.03364 0.89027 0.0
C853 C 0.95655 0.08563 0.89767 0.0
C854 C 1.00549 0.09632 0.9055 0.0
H855 H 0.16703 0.99824 0.24796 0.0
H856 H 0.207 0.16985 0.24138 0.0
H857 H 0.10671 0.13914 0.24033 0.0
H858 H 0.04664 0.93715 0.22273 0.0
H859 H 0.00713 0.8761 0.23419 0.0
H860 H 0.08249 0.91142 0.2342 0.0
H861 H 0.08216 0.92134 0.26279 0.0
H862 H 0.00698 0.88741 0.26303 0.0
H863 H 0.04813 0.95589 0.27106 0.0
H864 H 1.00192 0.09124 0.24182 0.0
H865 H 0.8994 0.02717 0.24316 0.0
H866 H 0.92676 0.8864 0.24708 0.0
C867 C 0.15467 0.02925 0.24614 0.0
C868 C 0.19515 0.08651 0.24478 0.0
C869 C 0.17706 0.12571 0.24243 0.0
C870 C 0.12003 0.10876 0.24186 0.0
C871 C 0.08125 0.05229 0.24346 0.0
C872 C 0.09766 0.01294 0.24532 0.0
C873 C 0.04717 0.95476 0.24659 0.0
C874 C 0.04579 0.91768 0.23365 0.0
C875 C 0.04605 0.92833 0.26177 0.0
C876 C 1.00009 0.96781 0.2453 0.0
C877 C 0.02065 0.02437 0.24365 0.0
C878 C 0.98523 0.04672 0.2429 0.0
C879 C 0.92716 0.01015 0.24371 0.0
C880 C 0.90519 0.95191 0.24501 0.0
C881 C 0.94232 0.9307 0.24582 0.0
H882 H 0.04862 0.29288 0.97551 0.0
H883 H 0.0244 0.13927 0.95608 0.0
H884 H 0.08583 0.13421 0.97558 0.0
H885 H 0.19487 0.34929 0.98511 0.0
H886 H 0.18897 0.38124 0.00199 0.0
H887 H 0.14413 0.37197 0.98638 0.0
H888 H 0.05712 0.31771 0.00336 0.0
H889 H 0.10166 0.32624 0.01898 0.0
H890 H 0.04789 0.25736 0.01349 0.0
H891 H 0.14585 0.14423 -0.00118 0.0
H892 H 0.2075 0.17426 0.0211 0.0
H893 H 0.19389 0.32312 0.02412 0.0
C894 C 0.05647 0.25829 0.97533 0.0
C895 C 0.03155 0.21621 0.96439 0.0
C896 C 0.04338 0.17201 0.96435 0.0
C897 C 0.07784 0.16869 0.97544 0.0
C898 C 0.10072 0.21039 0.98632 0.0
C899 C 0.09118 0.25488 0.98612 0.0
C900 C 0.12125 0.29511 -0.00125 0.0
C901 C 0.1649 0.35281 0.99269 0.0
C902 C 0.07948 0.29932 0.00927 0.0
C903 C 0.14892 0.26625 0.00626 0.0
C904 C 0.13629 0.21713 -0.00091 0.0
C905 C 0.15627 0.18288 0.0044 0.0
C906 C 0.19087 0.19996 0.01712 0.0
C907 C 0.20569 0.25115 0.02427 0.0
C908 C 0.18381 0.28415 0.01878 0.0
H909 H 0.93585 0.17384 0.36465 0.0
H910 H 0.02258 0.30985 0.33323 0.0
H911 H 0.97765 0.24487 0.31228 0.0
H912 H 0.93965 0.06573 0.34262 0.0
H913 H 0.86951 0.01149 0.34715 0.0
H914 H 0.90859 0.06679 0.36023 0.0
H915 H 0.83177 0.09265 0.36132 0.0
H916 H 0.79018 0.03648 0.34865 0.0
H917 H 0.80631 0.10658 0.34427 0.0
H918 H 0.92089 0.16753 0.29481 0.0
H919 H 0.85606 0.08171 0.28159 0.0
H920 H 0.80421 0.99297 0.32387 0.0
C921 C 0.94582 0.18944 0.35333 0.0
C922 C 0.98275 0.24686 0.35051 0.0
C923 C 0.9942 0.26614 0.33559 0.0
C924 C 0.96901 0.22953 0.32363 0.0
C925 C 0.93197 0.17351 0.32672 0.0
C926 C 0.9202 0.1533 0.34117 0.0
C927 C 0.87649 0.0915 0.34124 0.0
C928 C 0.90005 0.05682 0.3482 0.0
C929 C 0.82302 0.08122 0.34935 0.0
C930 C 0.8662 0.08034 0.32461 0.0
C931 C 0.89867 0.12839 0.3165 0.0
C932 C 0.89566 0.1294 0.30103 0.0
C933 C 0.85866 0.07999 0.29358 0.0
C934 C 0.82489 0.02965 0.30154 0.0
C935 C 0.82899 0.0303 0.31734 0.0
H936 H 0.64092 0.70341 0.64308 0.0
H937 H 0.81909 0.77158 0.6362 0.0
H938 H 0.83907 0.84169 0.65576 0.0
H939 H 0.64765 0.83591 0.65002 0.0
H940 H 0.59352 0.8075 0.66403 0.0
H941 H 0.59331 0.76366 0.64917 0.0
H942 H 0.59213 0.69372 0.66861 0.0
H943 H 0.59257 0.73744 0.68352 0.0
H944 H 0.64589 0.71811 0.68268 0.0
H945 H 0.8397 0.90165 0.67692 0.0
H946 H 0.82126 0.94937 0.69735 0.0
H947 H 0.64241 0.84399 0.69007 0.0
C948 C 0.68412 0.73307 0.64569 0.0
C949 C 0.72841 0.73198 0.63804 0.0
C950 C 0.78441 0.77198 0.64171 0.0
C951 C 0.79621 0.81179 0.65289 0.0
C952 C 0.75158 0.8114 0.66027 0.0
C953 C 0.69665 0.77335 0.65675 0.0
C954 C 0.65643 0.78189 0.6664 0.0
C955 C 0.62062 0.79822 0.65683 0.0
C956 C 0.61959 0.72969 0.67586 0.0
C957 C 0.69733 0.83019 0.67602 0.0
C958 C 0.75198 0.84656 0.6723 0.0
C959 C 0.79704 0.88956 0.67982 0.0
C960 C 0.78601 0.91671 0.69141 0.0
C961 C 0.73026 0.90111 0.6954 0.0
C962 C 0.68552 0.85707 0.6875 0.0
H963 H 0.85898 0.762 0.03315 0.0
H964 H 0.71616 0.7272 0.00571 0.0
H965 H 0.769 0.73022 0.98308 0.0
H966 H 0.96802 0.85475 0.00715 0.0
H967 H 0.01371 0.8277 0.01149 0.0
H968 H 0.96605 0.82654 0.02541 0.0
H969 H 0.92404 0.71988 0.0286 0.0
H970 H 0.97153 0.72073 0.0147 0.0
H971 H 0.89718 0.67513 0.01252 0.0
H972 H 0.83775 0.73765 0.96339 0.0
H973 H 0.91449 0.74086 0.94829 0.0
H974 H 0.01072 0.76447 0.98851 0.0
C975 C 0.83931 0.75556 0.02234 0.0
C976 C 0.78365 0.74453 0.0211 0.0
C977 C 0.75868 0.73541 0.00683 0.0
C978 C 0.78847 0.73735 0.99394 0.0
C979 C 0.84311 0.74778 -0.0045 0.0
C980 C 0.86818 0.75618 0.00934 0.0
C981 C 0.92626 0.76337 0.00795 0.0
C982 C 0.97116 0.82155 0.01332 0.0
C983 C 0.92994 0.71701 0.01645 0.0
C984 C 0.92975 0.75746 0.99122 0.0
C985 C 0.8817 0.74939 0.98422 0.0
C986 C 0.8755 0.74375 0.96877 0.0
C987 C 0.9193 0.74583 0.96026 0.0
C988 C 0.96828 0.75251 0.96722 0.0
C989 C 0.97343 0.7586 0.98291 0.0
H990 H 0.24158 0.9726 0.32364 0.0
H991 H 0.15166 0.93045 0.28164 0.0
H992 H 0.06318 0.87131 0.29504 0.0
H993 H 0.16294 0.83699 0.34027 0.0
H994 H 0.16394 0.86304 0.35874 0.0
H995 H 0.22005 0.90391 0.34591 0.0
H996 H 0.20287 0.98707 0.34926 0.0
H997 H 0.14652 0.94635 0.36207 0.0
H998 H 0.13411 0.97711 0.34584 0.0
H999 H 0.98502 0.81404 0.3128 0.0
H1000 H 0.92207 0.76243 0.33369 0.0
H1001 H 0.0617 0.84035 0.36444 0.0
C1002 C 0.2034 0.95079 0.31723 0.0
C1003 C 0.2038 0.95658 0.30151 0.0
C1004 C 0.15253 0.9276 0.29365 0.0
C1005 C 0.10201 0.89359 0.30117 0.0
C1006 C 0.10318 0.88888 0.31663 0.0
C1007 C 0.15247 0.91667 0.32459 0.0
C1008 C 0.14208 0.90368 0.34114 0.0
C1009 C 0.17415 0.87521 0.34685 0.0
C1010 C 0.1573 0.95672 0.3501 0.0
C1011 C 0.07935 0.86365 0.34121 0.0
C1012 C 0.05786 0.8559 0.32693 0.0
C1013 C 1.00137 0.81985 0.32402 0.0
C1014 C 0.96598 0.79046 0.33597 0.0
C1015 C 0.9869 0.79708 0.35071 0.0
C1016 C 0.04436 0.83483 0.35334 0.0
H1017 H 0.27692 0.0353 0.67058 0.0
H1018 H 0.36992 0.16734 0.70244 0.0
H1019 H 0.36061 0.23434 0.68607 0.0
H1020 H 0.32848 0.12153 0.63616 0.0
H1021 H 0.26099 0.08462 0.62726 0.0
H1022 H 0.28146 0.04901 0.64046 0.0
H1023 H 0.19185 0.02107 0.65589 0.0
H1024 H 0.17129 0.05684 0.64282 0.0
H1025 H 0.17796 0.07463 0.66233 0.0
H1026 H 0.33529 0.28472 0.66737 0.0
H1027 H 0.29414 0.31559 0.64786 0.0
H1028 H 0.21336 0.14978 0.62845 0.0
C1029 C 0.29681 0.07873 0.67382 0.0
C1030 C 0.3251 0.0967 0.68761 0.0
C1031 C 0.34868 0.15324 0.69184 0.0
C1032 C 0.34364 0.19142 0.68261 0.0
C1033 C 0.31451 0.17221 0.66923 0.0
C1034 C 0.29146 0.11722 0.66482 0.0
C1035 C 0.25797 0.10634 0.65056 0.0
C1036 C 0.28378 0.08938 0.63786 0.0
C1037 C 0.19611 0.06211 0.65306 0.0
C1038 C 0.26501 0.16358 0.6478 0.0
C1039 C 0.29832 0.201 0.65862 0.0
C1040 C 0.30932 0.25585 0.6588 0.0
C1041 C 0.28528 0.27285 0.64772 0.0
C1042 C 0.25008 0.23509 0.63663 0.0
C1043 C 0.24054 0.17987 0.63662 0.0
H1044 H 0.45664 0.24683 0.13314 0.0
H1045 H 0.27872 0.1828 0.1276 0.0
H1046 H 0.26401 0.16162 0.15453 0.0
H1047 H 0.44628 0.14733 0.16027 0.0
H1048 H 0.50575 0.19684 0.17099 0.0
H1049 H 0.50259 0.20773 0.1513 0.0
H1050 H 0.51541 0.30553 0.15649 0.0
H1051 H 0.51889 0.29506 0.17621 0.0
H1052 H 0.46814 0.31204 0.16911 0.0
H1053 H 0.2679 0.14304 0.18163 0.0
H1054 H 0.29119 0.13547 0.2078 0.0
H1055 H 0.46706 0.21477 0.19613 0.0
C1056 C 0.41471 0.22847 0.13766 0.0
C1057 C 0.36879 0.21653 0.12836 0.0
C1058 C 0.31448 0.19292 0.1346 0.0
C1059 C 0.3057 0.18041 0.14984 0.0
C1060 C 0.35179 0.19233 0.15869 0.0
C1061 C 0.40533 0.21645 0.1529 0.0
C1062 C 0.44766 0.22578 0.16493 0.0
C1063 C 0.4773 0.19242 0.16167 0.0
C1064 C 0.49002 0.28832 0.16679 0.0
C1065 C 0.40942 0.2026 0.17835 0.0
C1066 C 0.35425 0.18312 0.17447 0.0
C1067 C 0.31097 0.15841 0.18484 0.0
C1068 C 0.32451 0.15391 0.19962 0.0
C1069 C 0.38084 0.17449 0.20391 0.0
C1070 C 0.42376 0.19918 0.19312 0.0
H1071 H 0.11869 0.30782 0.45417 0.0
H1072 H 0.2497 0.48029 0.45934 0.0
H1073 H 0.24986 0.46595 0.4866 0.0
H1074 H 0.04255 0.29772 0.48787 0.0
H1075 H 0.02576 0.22707 0.49173 0.0
H1076 H 0.0354 0.2517 0.47276 0.0
H1077 H 0.11129 0.22391 0.46889 0.0
H1078 H 0.10197 0.19925 0.48784 0.0
H1079 H 0.17042 0.25104 0.48133 0.0
H1080 H 0.23506 0.43229 0.51324 0.0
H1081 H 0.20831 0.38199 0.5372 0.0
H1082 H 0.08885 0.23057 0.51422 0.0
C1083 C 0.1468 0.3428 0.46106 0.0
C1084 C 0.18388 0.39534 0.45471 0.0
C1085 C 0.22115 0.43971 0.46403 0.0
C1086 C 0.22134 0.43198 0.47949 0.0
C1087 C 0.18425 0.37953 0.48538 0.0
C1088 C 0.1478 0.33568 0.47644 0.0
C1089 C 0.11324 0.28305 0.48545 0.0
C1090 C 0.05053 0.26378 0.48439 0.0
C1091 C 0.12496 0.23659 0.48059 0.0
C1092 C 0.13577 0.30417 0.5009 0.0
C1093 C 0.17656 0.35992 0.50064 0.0
C1094 C 0.20335 0.38854 0.51358 0.0
C1095 C 0.18807 0.35939 0.52714 0.0
C1096 C 0.14653 0.30202 0.52768 0.0
C1097 C 0.12023 0.2744 0.51431 0.0
H1098 H 0.84419 0.25615 0.84892 0.0
H1099 H 0.96031 0.19652 0.85665 0.0
H1100 H 0.97676 0.19833 0.82952 0.0
H1101 H 0.7778 0.17248 0.8195 0.0
H1102 H 0.76708 0.22209 0.80909 0.0
H1103 H 0.77395 0.22783 0.82901 0.0
H1104 H 0.85608 0.32952 0.8264 0.0
H1105 H 0.84934 0.3241 0.80639 0.0
H1106 H 0.91567 0.34386 0.81501 0.0
H1107 H 0.96643 0.18928 0.8018 0.0
H1108 H 0.93193 0.17235 0.77581 0.0
H1109 H 0.82271 0.23801 0.78617 0.0
C1110 C 0.87405 0.24469 0.84492 0.0
C1111 C 0.90098 0.22618 0.85487 0.0
C1112 C 0.93985 0.2116 0.84924 0.0
C1113 C 0.94936 0.21244 0.83384 0.0
C1114 C 0.92033 0.22882 0.82429 0.0
C1115 C 0.88396 0.24539 0.82964 0.0
C1116 C 0.85307 0.25499 0.81711 0.0
C1117 C 0.78924 0.21707 0.81878 0.0
C1118 C 0.86955 0.3168 0.81617 0.0
C1119 C 0.87535 0.23823 0.80389 0.0
C1120 C 0.91486 0.22421 0.80822 0.0
C1121 C 0.93666 0.20149 0.79822 0.0
C1122 C 0.91667 0.19175 0.78353 0.0
C1123 C 0.87524 0.20453 0.77901 0.0
C1124 C 0.85564 0.22952 0.78923 0.0
H1125 H 0.67943 0.78971 0.18571 0.0
H1126 H 0.73301 0.95837 0.20084 0.0
H1127 H 0.73211 0.98686 0.17497 0.0
H1128 H 0.76601 0.83028 0.15377 0.0
H1129 H 0.71568 0.77356 0.14243 0.0
H1130 H 0.71585 0.76516 0.16233 0.0
H1131 H 0.6114 0.73824 0.16352 0.0
H1132 H 0.61094 0.74653 0.1436 0.0
H1133 H 0.59019 0.78485 0.15574 0.0
H1134 H 0.72766 0.99779 0.14698 0.0
H1135 H 0.72387 0.98988 0.11935 0.0
H1136 H 0.67876 0.81626 0.12311 0.0
C1137 C 0.69118 0.83273 0.18375 0.0
C1138 C 0.7062 0.87139 0.19557 0.0
C1139 C 0.72056 0.92722 0.19221 0.0
C1140 C 0.72041 0.9441 0.17746 0.0
C1141 C 0.70606 0.9049 0.16615 0.0
C1142 C 0.69192 0.85042 0.16915 0.0
C1143 C 0.68072 0.81688 0.15501 0.0
C1144 C 0.72204 0.79523 0.15329 0.0
C1145 C 0.61968 0.76879 0.15444 0.0
C1146 C 0.69151 0.86121 0.14357 0.0
C1147 C 0.70536 0.91159 0.15016 0.0
C1148 C 0.7169 0.95855 0.14171 0.0
C1149 C 0.71459 0.95377 0.1261 0.0
C1150 C 0.70177 0.90277 0.11924 0.0
C1151 C 0.68971 0.85602 0.12812 0.0
H1152 H 0.83435 0.74578 0.47644 0.0
H1153 H 0.86837 0.62535 0.45512 0.0
H1154 H 0.8667 0.58411 0.47969 0.0
H1155 H 0.91742 0.76488 0.50994 0.0
H1156 H 0.86846 0.7713 0.5219 0.0
H1157 H 0.87588 0.79318 0.5027 0.0
H1158 H 0.76932 0.72769 0.49874 0.0
H1159 H 0.76165 0.70532 0.51788 0.0
H1160 H 0.7382 0.65448 0.5031 0.0
H1161 H 0.8548 0.5522 0.50648 0.0
H1162 H 0.83786 0.53485 0.53352 0.0
H1163 H 0.81393 0.67792 0.53709 0.0
C1164 C 0.8417 0.71091 0.47697 0.0
C1165 C 0.85151 0.68876 0.46391 0.0
C1166 C 0.8615 0.64342 0.46502 0.0
C1167 C 0.86031 0.61954 0.47891 0.0
C1168 C 0.8496 0.64188 0.49155 0.0
C1169 C 0.84105 0.68691 0.49072 0.0
C1170 C 0.82939 0.70249 0.5059 0.0
C1171 C 0.87555 0.76145 0.51037 0.0
C1172 C 0.77118 0.69715 0.50643 0.0
C1173 C 0.83143 0.65835 0.51537 0.0
C1174 C 0.84333 0.62389 0.50693 0.0
C1175 C 0.84602 0.57928 0.51324 0.0
C1176 C 0.83648 0.56984 0.52861 0.0
C1177 C 0.82438 0.60484 0.53747 0.0
C1178 C 0.82212 0.64974 0.53067 0.0
H1179 H 0.26548 0.94664 0.79868 0.0
H1180 H 0.11564 0.79362 0.78625 0.0
H1181 H 0.10456 0.7596 0.81218 0.0
H1182 H 0.31562 0.88429 0.82768 0.0
H1183 H 0.33943 0.944 0.83973 0.0
H1184 H 0.3404 0.95266 0.81979 0.0
H1185 H 0.28072 1.00043 0.82268 0.0
H1186 H 0.27903 0.9914 0.84257 0.0
H1187 H 0.2145 0.96417 0.8323 0.0
H1188 H 0.10343 0.74673 0.8395 0.0
H1189 H 0.11355 0.75452 0.86684 0.0
H1190 H 0.26308 0.91683 0.86201 0.0
C1191 C 0.23151 0.90531 0.80141 0.0
C1192 C 0.19154 0.87241 0.79057 0.0
C1193 C 0.14652 0.81921 0.79449 0.0
C1194 C 0.14008 0.79954 0.80914 0.0
C1195 C 0.17909 0.83366 0.81971 0.0
C1196 C 0.22417 0.88527 0.81607 0.0
C1197 C 0.25702 0.9156 0.82985 0.0
C1198 C 0.31665 0.92465 0.82922 0.0
C1199 C 0.25782 0.97117 0.83197 0.0
C1200 C 0.22236 0.87364 0.8418 0.0
C1201 C 0.178 0.82646 0.83567 0.0
C1202 C 0.13833 0.78318 0.84446 0.0
C1203 C 0.14407 0.78824 0.85996 0.0
C1204 C 0.18896 0.83635 0.86653 0.0
C1205 C 0.22884 0.87927 0.85728 0.0
loop_
_geom_bond_atom_site_label_1
_geom_bond_atom_site_label_2
_geom_bond_distance
_geom_bond_site_symmetry_2
_ccdc_geom_bond_type
C0 C1 1.351 . S
C0 N3 1.368 . S
C0 H5 0.931 . S
C1 C0 1.351 . S
C1 N2 1.373 . S
C1 H29 0.930 . S
N2 C1 1.373 . S
N2 C4 1.340 . S
N3 C0 1.368 . S
N3 C4 1.321 . S
N3 Co6 2.135 . S
C4 N2 1.340 . S
C4 N3 1.321 . S
C4 H28 0.930 . S
H5 C0 0.931 . S
Co6 N3 2.135 . S
Co6 N9 2.121 . S
Co6 O14 2.055 . S
Co6 O17 2.039 . S
Co6 N20 2.140 . S
C7 O8 1.227 . S
C7 O17 1.265 . S
O8 C7 1.227 . S
N9 Co6 2.121 . S
N9 C11 1.375 . S
N9 C12 1.313 . S
C10 C11 1.338 . S
C10 N13 1.377 . S
C10 H30 0.930 . S
C11 N9 1.375 . S
C11 C10 1.338 . S
C11 H15 0.931 . S
C12 N9 1.313 . S
C12 N13 1.344 . S
C12 H16 0.930 . S
N13 C10 1.377 . S
N13 C12 1.344 . S
O14 Co6 2.055 . S
O14 C18 1.253 . S
H15 C11 0.931 . S
H16 C12 0.930 . S
O17 Co6 2.039 . S
O17 C7 1.265 . S
C18 O14 1.253 . S
C18 O19 1.227 . S
O19 C18 1.227 . S
N20 Co6 2.140 . S
N20 C23 1.346 . S
N20 C24 1.345 . S
C21 C22 1.387 . S
C21 C25 1.391 . S
C22 C21 1.387 . S
C22 C23 1.369 . S
C22 H31 0.929 . S
C23 N20 1.346 . S
C23 C22 1.369 . S
C23 H26 0.928 . S
C24 N20 1.345 . S
C24 C25 1.371 . S
C24 H27 0.931 . S
C25 C21 1.391 . S
C25 C24 1.371 . S
C25 H32 0.930 . S
H26 C23 0.928 . S
H27 C24 0.931 . S
H28 C4 0.930 . S
H29 C1 0.930 . S
H30 C10 0.930 . S
H31 C22 0.929 . S
H32 C25 0.930 . S
C33 C34 1.351 . S
C33 N36 1.368 . S
C33 H38 0.931 . S
C34 C33 1.351 . S
C34 N35 1.373 . S
C34 H62 0.930 . S
N35 C34 1.373 . S
N35 C37 1.340 . S
N36 C33 1.368 . S
N36 C37 1.321 . S
N36 Co39 2.135 . S
C37 N35 1.340 . S
C37 N36 1.321 . S
C37 H61 0.930 . S
H38 C33 0.931 . S
Co39 N36 2.135 . S
Co39 N42 2.121 . S
Co39 O47 2.055 . S
Co39 O50 2.039 . S
Co39 N53 2.140 . S
C40 O41 1.227 . S
C40 O50 1.265 . S
O41 C40 1.227 . S
N42 Co39 2.121 . S
N42 C44 1.375 . S
N42 C45 1.313 . S
C43 C44 1.338 . S
C43 N46 1.377 . S
C43 H63 0.930 . S
C44 N42 1.375 . S
C44 C43 1.338 . S
C44 H48 0.931 . S
C45 N42 1.313 . S
C45 N46 1.344 . S
C45 H49 0.930 . S
N46 C43 1.377 . S
N46 C45 1.344 . S
O47 Co39 2.055 . S
O47 C51 1.253 . S
H48 C44 0.931 . S
H49 C45 0.930 . S
O50 Co39 2.039 . S
O50 C40 1.265 . S
C51 O47 1.253 . S
C51 O52 1.227 . S
O52 C51 1.227 . S
N53 Co39 2.140 . S
N53 C56 1.346 . S
N53 C57 1.345 . S
C54 C55 1.387 . S
C54 C58 1.391 . S
C55 C54 1.387 . S
C55 C56 1.369 . S
C55 H64 0.929 . S
C56 N53 1.346 . S
C56 C55 1.369 . S
C56 H59 0.928 . S
C57 N53 1.345 . S
C57 C58 1.371 . S
C57 H60 0.931 . S
C58 C54 1.391 . S
C58 C57 1.371 . S
C58 H65 0.930 . S
H59 C56 0.928 . S
H60 C57 0.931 . S
H61 C37 0.930 . S
H62 C34 0.930 . S
H63 C43 0.930 . S
H64 C55 0.929 . S
H65 C58 0.930 . S
C66 C67 1.351 . S
C66 N69 1.368 . S
C66 H71 0.931 . S
C67 C66 1.351 . S
C67 N68 1.373 . S
C67 H95 0.930 . S
N68 C67 1.373 . S
N68 C70 1.340 . S
N69 C66 1.368 . S
N69 C70 1.321 . S
N69 Co72 2.135 . S
C70 N68 1.340 . S
C70 N69 1.321 . S
C70 H94 0.930 . S
H71 C66 0.931 . S
Co72 N69 2.135 . S
Co72 N75 2.121 . S
Co72 O80 2.055 . S
Co72 O83 2.039 . S
Co72 N86 2.140 . S
C73 O74 1.227 . S
C73 O83 1.265 . S
O74 C73 1.227 . S
N75 Co72 2.121 . S
N75 C77 1.375 . S
N75 C78 1.313 . S
C76 C77 1.338 . S
C76 N79 1.377 . S
C76 H96 0.930 . S
C77 N75 1.375 . S
C77 C76 1.338 . S
C77 H81 0.931 . S
C78 N75 1.313 . S
C78 N79 1.344 . S
C78 H82 0.930 . S
N79 C76 1.377 . S
N79 C78 1.344 . S
O80 Co72 2.055 . S
O80 C84 1.253 . S
H81 C77 0.931 . S
H82 C78 0.930 . S
O83 Co72 2.039 . S
O83 C73 1.265 . S
C84 O80 1.253 . S
C84 O85 1.227 . S
O85 C84 1.227 . S
N86 Co72 2.140 . S
N86 C89 1.346 . S
N86 C90 1.345 . S
C87 C88 1.387 . S
C87 C91 1.391 . S
C88 C87 1.387 . S
C88 C89 1.369 . S
C88 H97 0.929 . S
C89 N86 1.346 . S
C89 C88 1.369 . S
C89 H92 0.928 . S
C90 N86 1.345 . S
C90 C91 1.371 . S
C90 H93 0.931 . S
C91 C87 1.391 . S
C91 C90 1.371 . S
C91 H98 0.930 . S
H92 C89 0.928 . S
H93 C90 0.931 . S
H94 C70 0.930 . S
H95 C67 0.930 . S
H96 C76 0.930 . S
H97 C88 0.929 . S
H98 C91 0.930 . S
C99 C100 1.351 . S
C99 N102 1.368 . S
C99 H104 0.931 . S
C100 C99 1.351 . S
C100 N101 1.373 . S
C100 H128 0.930 . S
N101 C100 1.373 . S
N101 C103 1.340 . S
N102 C99 1.368 . S
N102 C103 1.321 . S
N102 Co105 2.135 . S
C103 N101 1.340 . S
C103 N102 1.321 . S
C103 H127 0.930 . S
H104 C99 0.931 . S
Co105 N102 2.135 . S
Co105 N108 2.121 . S
Co105 O113 2.055 . S
Co105 O116 2.039 . S
Co105 N119 2.140 . S
C106 O107 1.227 . S
C106 O116 1.265 . S
O107 C106 1.227 . S
N108 Co105 2.121 . S
N108 C110 1.375 . S
N108 C111 1.313 . S
C109 C110 1.338 . S
C109 N112 1.377 . S
C109 H129 0.930 . S
C110 N108 1.375 . S
C110 C109 1.338 . S
C110 H114 0.931 . S
C111 N108 1.313 . S
C111 N112 1.344 . S
C111 H115 0.930 . S
N112 C109 1.377 . S
N112 C111 1.344 . S
O113 Co105 2.055 . S
O113 C117 1.253 . S
H114 C110 0.931 . S
H115 C111 0.930 . S
O116 Co105 2.039 . S
O116 C106 1.265 . S
C117 O113 1.253 . S
C117 O118 1.227 . S
O118 C117 1.227 . S
N119 Co105 2.140 . S
N119 C122 1.346 . S
N119 C123 1.345 . S
C120 C121 1.387 . S
C120 C124 1.391 . S
C121 C120 1.387 . S
C121 C122 1.369 . S
C121 H130 0.929 . S
C122 N119 1.346 . S
C122 C121 1.369 . S
C122 H125 0.928 . S
C123 N119 1.345 . S
C123 C124 1.371 . S
C123 H126 0.931 . S
C124 C120 1.391 . S
C124 C123 1.371 . S
C124 H131 0.930 . S
H125 C122 0.928 . S
H126 C123 0.931 . S
H127 C103 0.930 . S
H128 C100 0.930 . S
H129 C109 0.930 . S
H130 C121 0.929 . S
H131 C124 0.930 . S
C132 C133 1.351 . S
C132 N135 1.368 . S
C132 H137 0.931 . S
C133 C132 1.351 . S
C133 N134 1.373 . S
C133 H161 0.930 . S
N134 C133 1.373 . S
N134 C136 1.340 . S
N135 C132 1.368 . S
N135 C136 1.321 . S
N135 Co138 2.135 . S
C136 N134 1.340 . S
C136 N135 1.321 . S
C136 H160 0.930 . S
H137 C132 0.931 . S
Co138 N135 2.135 . S
Co138 N141 2.121 . S
Co138 O146 2.055 . S
Co138 O149 2.039 . S
Co138 N152 2.140 . S
C139 O140 1.227 . S
C139 O149 1.265 . S
O140 C139 1.227 . S
N141 Co138 2.121 . S
N141 C143 1.375 . S
N141 C144 1.313 . S
C142 C143 1.338 . S
C142 N145 1.377 . S
C142 H162 0.930 . S
C143 N141 1.375 . S
C143 C142 1.338 . S
C143 H147 0.931 . S
C144 N141 1.313 . S
C144 N145 1.344 . S
C144 H148 0.930 . S
N145 C142 1.377 . S
N145 C144 1.344 . S
O146 Co138 2.055 . S
O146 C150 1.253 . S
H147 C143 0.931 . S
H148 C144 0.930 . S
O149 Co138 2.039 . S
O149 C139 1.265 . S
C150 O146 1.253 . S
C150 O151 1.227 . S
O151 C150 1.227 . S
N152 Co138 2.140 . S
N152 C155 1.346 . S
N152 C156 1.345 . S
C153 C154 1.387 . S
C153 C157 1.391 . S
C154 C153 1.387 . S
C154 C155 1.369 . S
C154 H163 0.929 . S
C155 N152 1.346 . S
C155 C154 1.369 . S
C155 H158 0.928 . S
C156 N152 1.345 . S
C156 C157 1.371 . S
C156 H159 0.931 . S
C157 C153 1.391 . S
C157 C156 1.371 . S
C157 H164 0.930 . S
H158 C155 0.928 . S
H159 C156 0.931 . S
H160 C136 0.930 . S
H161 C133 0.930 . S
H162 C142 0.930 . S
H163 C154 0.929 . S
H164 C157 0.930 . S
C165 C166 1.351 . S
C165 N168 1.368 . S
C165 H170 0.931 . S
C166 C165 1.351 . S
C166 N167 1.373 . S
C166 H194 0.930 . S
N167 C166 1.373 . S
N167 C169 1.340 . S
N168 C165 1.368 . S
N168 C169 1.321 . S
N168 Co171 2.135 . S
C169 N167 1.340 . S
C169 N168 1.321 . S
C169 H193 0.930 . S
H170 C165 0.931 . S
Co171 N168 2.135 . S
Co171 N174 2.121 . S
Co171 O179 2.055 . S
Co171 O182 2.039 . S
Co171 N185 2.140 . S
C172 O173 1.227 . S
C172 O182 1.265 . S
O173 C172 1.227 . S
N174 Co171 2.121 . S
N174 C176 1.375 . S
N174 C177 1.313 . S
C175 C176 1.338 . S
C175 N178 1.377 . S
C175 H195 0.930 . S
C176 N174 1.375 . S
C176 C175 1.338 . S
C176 H180 0.931 . S
C177 N174 1.313 . S
C177 N178 1.344 . S
C177 H181 0.930 . S
N178 C175 1.377 . S
N178 C177 1.344 . S
O179 Co171 2.055 . S
O179 C183 1.253 . S
H180 C176 0.931 . S
H181 C177 0.930 . S
O182 Co171 2.039 . S
O182 C172 1.265 . S
C183 O179 1.253 . S
C183 O184 1.227 . S
O184 C183 1.227 . S
N185 Co171 2.140 . S
N185 C188 1.346 . S
N185 C189 1.345 . S
C186 C187 1.387 . S
C186 C190 1.391 . S
C187 C186 1.387 . S
C187 C188 1.369 . S
C187 H196 0.929 . S
C188 N185 1.346 . S
C188 C187 1.369 . S
C188 H191 0.928 . S
C189 N185 1.345 . S
C189 C190 1.371 . S
C189 H192 0.931 . S
C190 C186 1.391 . S
C190 C189 1.371 . S
C190 H197 0.930 . S
H191 C188 0.928 . S
H192 C189 0.931 . S
H193 C169 0.930 . S
H194 C166 0.930 . S
H195 C175 0.930 . S
H196 C187 0.929 . S
H197 C190 0.930 . S
C198 C199 1.351 . S
C198 N201 1.368 . S
C198 H203 0.931 . S
C199 C198 1.351 . S
C199 N200 1.373 . S
C199 H227 0.930 . S
N200 C199 1.373 . S
N200 C202 1.340 . S
N201 C198 1.368 . S
N201 C202 1.321 . S
N201 Co204 2.135 . S
C202 N200 1.340 . S
C202 N201 1.321 . S
C202 H226 0.930 . S
H203 C198 0.931 . S
Co204 N201 2.135 . S
Co204 N207 2.121 . S
Co204 O212 2.055 . S
Co204 O215 2.039 . S
Co204 N218 2.140 . S
C205 O206 1.227 . S
C205 O215 1.265 . S
O206 C205 1.227 . S
N207 Co204 2.121 . S
N207 C209 1.375 . S
N207 C210 1.313 . S
C208 C209 1.338 . S
C208 N211 1.377 . S
C208 H228 0.930 . S
C209 N207 1.375 . S
C209 C208 1.338 . S
C209 H213 0.931 . S
C210 N207 1.313 . S
C210 N211 1.344 . S
C210 H214 0.930 . S
N211 C208 1.377 . S
N211 C210 1.344 . S
O212 Co204 2.055 . S
O212 C216 1.253 . S
H213 C209 0.931 . S
H214 C210 0.930 . S
O215 Co204 2.039 . S
O215 C205 1.265 . S
C216 O212 1.253 . S
C216 O217 1.227 . S
O217 C216 1.227 . S
N218 Co204 2.140 . S
N218 C221 1.346 . S
N218 C222 1.345 . S
C219 C220 1.387 . S
C219 C223 1.391 . S
C220 C219 1.387 . S
C220 C221 1.369 . S
C220 H229 0.929 . S
C221 N218 1.346 . S
C221 C220 1.369 . S
C221 H224 0.928 . S
C222 N218 1.345 . S
C222 C223 1.371 . S
C222 H225 0.931 . S
C223 C219 1.391 . S
C223 C222 1.371 . S
C223 H230 0.930 . S
H224 C221 0.928 . S
H225 C222 0.931 . S
H226 C202 0.930 . S
H227 C199 0.930 . S
H228 C208 0.930 . S
H229 C220 0.929 . S
H230 C223 0.930 . S
C231 C232 1.351 . S
C231 N234 1.368 . S
C231 H236 0.931 . S
C232 C231 1.351 . S
C232 N233 1.373 . S
C232 H260 0.930 . S
N233 C232 1.373 . S
N233 C235 1.340 . S
N234 C231 1.368 . S
N234 C235 1.321 . S
N234 Co237 2.135 . S
C235 N233 1.340 . S
C235 N234 1.321 . S
C235 H259 0.930 . S
H236 C231 0.931 . S
Co237 N234 2.135 . S
Co237 N240 2.121 . S
Co237 O245 2.055 . S
Co237 O248 2.039 . S
Co237 N251 2.140 . S
C238 O239 1.227 . S
C238 O248 1.265 . S
O239 C238 1.227 . S
N240 Co237 2.121 . S
N240 C242 1.375 . S
N240 C243 1.313 . S
C241 C242 1.338 . S
C241 N244 1.377 . S
C241 H261 0.930 . S
C242 N240 1.375 . S
C242 C241 1.338 . S
C242 H246 0.931 . S
C243 N240 1.313 . S
C243 N244 1.344 . S
C243 H247 0.930 . S
N244 C241 1.377 . S
N244 C243 1.344 . S
O245 Co237 2.055 . S
O245 C249 1.253 . S
H246 C242 0.931 . S
H247 C243 0.930 . S
O248 Co237 2.039 . S
O248 C238 1.265 . S
C249 O245 1.253 . S
C249 O250 1.227 . S
O250 C249 1.227 . S
N251 Co237 2.140 . S
N251 C254 1.346 . S
N251 C255 1.345 . S
C252 C253 1.387 . S
C252 C256 1.391 . S
C253 C252 1.387 . S
C253 C254 1.369 . S
C253 H262 0.929 . S
C254 N251 1.346 . S
C254 C253 1.369 . S
C254 H257 0.928 . S
C255 N251 1.345 . S
C255 C256 1.371 . S
C255 H258 0.931 . S
C256 C252 1.391 . S
C256 C255 1.371 . S
C256 H263 0.930 . S
H257 C254 0.928 . S
H258 C255 0.931 . S
H259 C235 0.930 . S
H260 C232 0.930 . S
H261 C241 0.930 . S
H262 C253 0.929 . S
H263 C256 0.930 . S
C264 C265 1.351 . S
C264 N267 1.368 . S
C264 H269 0.931 . S
C265 C264 1.351 . S
C265 N266 1.373 . S
C265 H293 0.930 . S
N266 C265 1.373 . S
N266 C268 1.340 . S
N267 C264 1.368 . S
N267 C268 1.321 . S
N267 Co270 2.135 . S
C268 N266 1.340 . S
C268 N267 1.321 . S
C268 H292 0.930 . S
H269 C264 0.931 . S
Co270 N267 2.135 . S
Co270 N273 2.121 . S
Co270 O278 2.055 . S
Co270 O281 2.039 . S
Co270 N284 2.140 . S
C271 O272 1.227 . S
C271 O281 1.265 . S
O272 C271 1.227 . S
N273 Co270 2.121 . S
N273 C275 1.375 . S
N273 C276 1.313 . S
C274 C275 1.338 . S
C274 N277 1.377 . S
C274 H294 0.930 . S
C275 N273 1.375 . S
C275 C274 1.338 . S
C275 H279 0.931 . S
C276 N273 1.313 . S
C276 N277 1.344 . S
C276 H280 0.930 . S
N277 C274 1.377 . S
N277 C276 1.344 . S
O278 Co270 2.055 . S
O278 C282 1.253 . S
H279 C275 0.931 . S
H280 C276 0.930 . S
O281 Co270 2.039 . S
O281 C271 1.265 . S
C282 O278 1.253 . S
C282 O283 1.227 . S
O283 C282 1.227 . S
N284 Co270 2.140 . S
N284 C287 1.346 . S
N284 C288 1.345 . S
C285 C286 1.387 . S
C285 C289 1.391 . S
C286 C285 1.387 . S
C286 C287 1.369 . S
C286 H295 0.929 . S
C287 N284 1.346 . S
C287 C286 1.369 . S
C287 H290 0.928 . S
C288 N284 1.345 . S
C288 C289 1.371 . S
C288 H291 0.931 . S
C289 C285 1.391 . S
C289 C288 1.371 . S
C289 H296 0.930 . S
H290 C287 0.928 . S
H291 C288 0.931 . S
H292 C268 0.930 . S
H293 C265 0.930 . S
H294 C274 0.930 . S
H295 C286 0.929 . S
H296 C289 0.930 . S
C297 C298 1.351 . S
C297 N300 1.368 . S
C297 H302 0.931 . S
C298 C297 1.351 . S
C298 N299 1.373 . S
C298 H326 0.930 . S
N299 C298 1.373 . S
N299 C301 1.340 . S
N300 C297 1.368 . S
N300 C301 1.321 . S
N300 Co303 2.135 . S
C301 N299 1.340 . S
C301 N300 1.321 . S
C301 H325 0.930 . S
H302 C297 0.931 . S
Co303 N300 2.135 . S
Co303 N306 2.121 . S
Co303 O311 2.055 . S
Co303 O314 2.039 . S
Co303 N317 2.140 . S
C304 O305 1.227 . S
C304 O314 1.265 . S
O305 C304 1.227 . S
N306 Co303 2.121 . S
N306 C308 1.375 . S
N306 C309 1.313 . S
C307 C308 1.338 . S
C307 N310 1.377 . S
C307 H327 0.930 . S
C308 N306 1.375 . S
C308 C307 1.338 . S
C308 H312 0.931 . S
C309 N306 1.313 . S
C309 N310 1.344 . S
C309 H313 0.930 . S
N310 C307 1.377 . S
N310 C309 1.344 . S
O311 Co303 2.055 . S
O311 C315 1.253 . S
H312 C308 0.931 . S
H313 C309 0.930 . S
O314 Co303 2.039 . S
O314 C304 1.265 . S
C315 O311 1.253 . S
C315 O316 1.227 . S
O316 C315 1.227 . S
N317 Co303 2.140 . S
N317 C320 1.346 . S
N317 C321 1.345 . S
C318 C319 1.387 . S
C318 C322 1.391 . S
C319 C318 1.387 . S
C319 C320 1.369 . S
C319 H328 0.929 . S
C320 N317 1.346 . S
C320 C319 1.369 . S
C320 H323 0.928 . S
C321 N317 1.345 . S
C321 C322 1.371 . S
C321 H324 0.931 . S
C322 C318 1.391 . S
C322 C321 1.371 . S
C322 H329 0.930 . S
H323 C320 0.928 . S
H324 C321 0.931 . S
H325 C301 0.930 . S
H326 C298 0.930 . S
H327 C307 0.930 . S
H328 C319 0.929 . S
H329 C322 0.930 . S
C330 C331 1.351 . S
C330 N333 1.368 . S
C330 H335 0.931 . S
C331 C330 1.351 . S
C331 N332 1.373 . S
C331 H359 0.930 . S
N332 C331 1.373 . S
N332 C334 1.340 . S
N333 C330 1.368 . S
N333 C334 1.321 . S
N333 Co336 2.135 . S
C334 N332 1.340 . S
C334 N333 1.321 . S
C334 H358 0.930 . S
H335 C330 0.931 . S
Co336 N333 2.135 . S
Co336 N339 2.121 . S
Co336 O344 2.055 . S
Co336 O347 2.039 . S
Co336 N350 2.140 . S
C337 O338 1.227 . S
C337 O347 1.265 . S
O338 C337 1.227 . S
N339 Co336 2.121 . S
N339 C341 1.375 . S
N339 C342 1.313 . S
C340 C341 1.338 . S
C340 N343 1.377 . S
C340 H360 0.930 . S
C341 N339 1.375 . S
C341 C340 1.338 . S
C341 H345 0.931 . S
C342 N339 1.313 . S
C342 N343 1.344 . S
C342 H346 0.930 . S
N343 C340 1.377 . S
N343 C342 1.344 . S
O344 Co336 2.055 . S
O344 C348 1.253 . S
H345 C341 0.931 . S
H346 C342 0.930 . S
O347 Co336 2.039 . S
O347 C337 1.265 . S
C348 O344 1.253 . S
C348 O349 1.227 . S
O349 C348 1.227 . S
N350 Co336 2.140 . S
N350 C353 1.346 . S
N350 C354 1.345 . S
C351 C352 1.387 . S
C351 C355 1.391 . S
C352 C351 1.387 . S
C352 C353 1.369 . S
C352 H361 0.929 . S
C353 N350 1.346 . S
C353 C352 1.369 . S
C353 H356 0.928 . S
C354 N350 1.345 . S
C354 C355 1.371 . S
C354 H357 0.931 . S
C355 C351 1.391 . S
C355 C354 1.371 . S
C355 H362 0.930 . S
H356 C353 0.928 . S
H357 C354 0.931 . S
H358 C334 0.930 . S
H359 C331 0.930 . S
H360 C340 0.930 . S
H361 C352 0.929 . S
H362 C355 0.930 . S
C363 C364 1.351 . S
C363 N366 1.368 . S
C363 H368 0.931 . S
C364 C363 1.351 . S
C364 N365 1.373 . S
C364 H392 0.930 . S
N365 C364 1.373 . S
N365 C367 1.340 . S
N366 C363 1.368 . S
N366 C367 1.321 . S
N366 Co369 2.135 . S
C367 N365 1.340 . S
C367 N366 1.321 . S
C367 H391 0.930 . S
H368 C363 0.931 . S
Co369 N366 2.135 . S
Co369 N372 2.121 . S
Co369 O377 2.055 . S
Co369 O380 2.039 . S
Co369 N383 2.140 . S
C370 O371 1.227 . S
C370 O380 1.265 . S
O371 C370 1.227 . S
N372 Co369 2.121 . S
N372 C374 1.375 . S
N372 C375 1.313 . S
C373 C374 1.338 . S
C373 N376 1.377 . S
C373 H393 0.930 . S
C374 N372 1.375 . S
C374 C373 1.338 . S
C374 H378 0.931 . S
C375 N372 1.313 . S
C375 N376 1.344 . S
C375 H379 0.930 . S
N376 C373 1.377 . S
N376 C375 1.344 . S
O377 Co369 2.055 . S
O377 C381 1.253 . S
H378 C374 0.931 . S
H379 C375 0.930 . S
O380 Co369 2.039 . S
O380 C370 1.265 . S
C381 O377 1.253 . S
C381 O382 1.227 . S
O382 C381 1.227 . S
N383 Co369 2.140 . S
N383 C386 1.346 . S
N383 C387 1.345 . S
C384 C385 1.387 . S
C384 C388 1.391 . S
C385 C384 1.387 . S
C385 C386 1.369 . S
C385 H394 0.929 . S
C386 N383 1.346 . S
C386 C385 1.369 . S
C386 H389 0.928 . S
C387 N383 1.345 . S
C387 C388 1.371 . S
C387 H390 0.931 . S
C388 C384 1.391 . S
C388 C387 1.371 . S
C388 H395 0.930 . S
H389 C386 0.928 . S
H390 C387 0.931 . S
H391 C367 0.930 . S
H392 C364 0.930 . S
H393 C373 0.930 . S
H394 C385 0.929 . S
H395 C388 0.930 . S
H396 C408 0.930 . S
H397 C410 0.930 . S
H398 C411 0.930 . S
H399 C415 0.959 . S
H400 C415 0.959 . S
H401 C415 0.961 . S
H402 C416 0.960 . S
H403 C416 0.961 . S
H404 C416 0.959 . S
H405 C419 0.929 . S
H406 C420 0.931 . S
H407 C422 0.930 . S
C408 H396 0.930 . S
C408 C409 1.399 . S
C408 C413 1.399 . S
C409 C408 1.399 . S
C409 C410 1.376 . S
C410 H397 0.930 . S
C410 C409 1.376 . S
C410 C411 1.388 . S
C411 H398 0.930 . S
C411 C410 1.388 . S
C411 C412 1.390 . S
C412 C411 1.390 . S
C412 C413 1.394 . S
C412 C418 1.465 . S
C413 C408 1.399 . S
C413 C412 1.394 . S
C413 C414 1.516 . S
C414 C413 1.516 . S
C414 C415 1.502 . S
C414 C416 1.561 . S
C414 C417 1.526 . S
C415 H399 0.959 . S
C415 H400 0.959 . S
C415 H401 0.961 . S
C415 C414 1.502 . S
C416 H402 0.960 . S
C416 H403 0.961 . S
C416 H404 0.959 . S
C416 C414 1.561 . S
C417 C414 1.526 . S
C417 C418 1.396 . S
C417 C422 1.390 . S
C418 C412 1.465 . S
C418 C417 1.396 . S
C418 C419 1.399 . S
C419 H405 0.929 . S
C419 C418 1.399 . S
C419 C420 1.385 . S
C420 H406 0.931 . S
C420 C419 1.385 . S
C420 C421 1.389 . S
C421 C420 1.389 . S
C421 C422 1.387 . S
C422 H407 0.930 . S
C422 C417 1.390 . S
C422 C421 1.387 . S
H423 C435 0.930 . S
H424 C437 0.930 . S
H425 C438 0.930 . S
H426 C442 0.959 . S
H427 C442 0.959 . S
H428 C442 0.961 . S
H429 C443 0.960 . S
H430 C443 0.961 . S
H431 C443 0.959 1_455 S
H432 C446 0.929 . S
H433 C447 0.931 . S
H434 C449 0.930 . S
C435 H423 0.930 . S
C435 C436 1.399 . S
C435 C440 1.399 . S
C436 C435 1.399 . S
C436 C437 1.376 . S
C437 H424 0.930 . S
C437 C436 1.376 . S
C437 C438 1.388 . S
C438 H425 0.930 . S
C438 C437 1.388 . S
C438 C439 1.390 . S
C439 C438 1.390 . S
C439 C440 1.394 . S
C439 C445 1.465 . S
C440 C435 1.399 . S
C440 C439 1.394 . S
C440 C441 1.516 1_455 S
C441 C440 1.516 1_655 S
C441 C442 1.502 . S
C441 C443 1.561 . S
C441 C444 1.526 . S
C442 H426 0.959 . S
C442 H427 0.959 . S
C442 H428 0.961 . S
C442 C441 1.502 . S
C443 H429 0.960 . S
C443 H430 0.961 . S
C443 H431 0.959 1_655 S
C443 C441 1.561 . S
C444 C441 1.526 . S
C444 C445 1.396 1_655 S
C444 C449 1.390 . S
C445 C439 1.465 . S
C445 C444 1.396 1_455 S
C445 C446 1.399 . S
C446 H432 0.929 . S
C446 C445 1.399 . S
C446 C447 1.385 1_455 S
C447 H433 0.931 . S
C447 C446 1.385 1_655 S
C447 C448 1.389 . S
C448 C447 1.389 . S
C448 C449 1.387 . S
C449 H434 0.930 . S
C449 C444 1.390 . S
C449 C448 1.387 . S
H450 C462 0.930 . S
H451 C464 0.930 . S
H452 C465 0.930 . S
H453 C469 0.959 . S
H454 C469 0.959 . S
H455 C469 0.961 . S
H456 C470 0.960 . S
H457 C470 0.961 . S
H458 C470 0.959 . S
H459 C473 0.929 . S
H460 C474 0.931 . S
H461 C476 0.930 . S
C462 H450 0.930 . S
C462 C463 1.399 . S
C462 C467 1.399 . S
C463 C462 1.399 . S
C463 C464 1.376 . S
C464 H451 0.930 . S
C464 C463 1.376 . S
C464 C465 1.388 . S
C465 H452 0.930 . S
C465 C464 1.388 . S
C465 C466 1.390 . S
C466 C465 1.390 . S
C466 C467 1.394 . S
C466 C472 1.465 1_545 S
C467 C462 1.399 . S
C467 C466 1.394 . S
C467 C468 1.516 1_545 S
C468 C467 1.516 1_565 S
C468 C469 1.502 . S
C468 C470 1.561 1_565 S
C468 C471 1.526 . S
C469 H453 0.959 . S
C469 H454 0.959 . S
C469 H455 0.961 . S
C469 C468 1.502 . S
C470 H456 0.960 . S
C470 H457 0.961 . S
C470 H458 0.959 . S
C470 C468 1.561 1_545 S
C471 C468 1.526 . S
C471 C472 1.396 . S
C471 C476 1.390 . S
C472 C466 1.465 1_565 S
C472 C471 1.396 . S
C472 C473 1.399 . S
C473 H459 0.929 . S
C473 C472 1.399 . S
C473 C474 1.385 . S
C474 H460 0.931 . S
C474 C473 1.385 . S
C474 C475 1.389 . S
C475 C474 1.389 . S
C475 C476 1.387 . S
C476 H461 0.930 . S
C476 C471 1.390 . S
C476 C475 1.387 . S
H477 C489 0.930 . S
H478 C491 0.930 . S
H479 C492 0.930 . S
H480 C496 0.959 . S
H481 C496 0.959 . S
H482 C496 0.961 . S
H483 C497 0.960 . S
H484 C497 0.961 . S
H485 C497 0.959 . S
H486 C500 0.929 . S
H487 C501 0.931 . S
H488 C503 0.930 . S
C489 H477 0.930 . S
C489 C490 1.399 . S
C489 C494 1.399 . S
C490 C489 1.399 . S
C490 C491 1.376 . S
C491 H478 0.930 . S
C491 C490 1.376 . S
C491 C492 1.388 . S
C492 H479 0.930 . S
C492 C491 1.388 . S
C492 C493 1.390 . S
C493 C492 1.390 . S
C493 C494 1.394 . S
C493 C499 1.465 . S
C494 C489 1.399 . S
C494 C493 1.394 . S
C494 C495 1.516 . S
C495 C494 1.516 . S
C495 C496 1.502 . S
C495 C497 1.561 . S
C495 C498 1.526 . S
C496 H480 0.959 . S
C496 H481 0.959 . S
C496 H482 0.961 . S
C496 C495 1.502 . S
C497 H483 0.960 . S
C497 H484 0.961 . S
C497 H485 0.959 . S
C497 C495 1.561 . S
C498 C495 1.526 . S
C498 C499 1.396 . S
C498 C503 1.390 . S
C499 C493 1.465 . S
C499 C498 1.396 . S
C499 C500 1.399 . S
C500 H486 0.929 . S
C500 C499 1.399 . S
C500 C501 1.385 . S
C501 H487 0.931 . S
C501 C500 1.385 . S
C501 C502 1.389 . S
C502 C501 1.389 . S
C502 C503 1.387 . S
C503 H488 0.930 . S
C503 C498 1.390 . S
C503 C502 1.387 . S
H504 C516 0.930 . S
H505 C518 0.930 . S
H506 C519 0.930 . S
H507 C523 0.959 . S
H508 C523 0.959 . S
H509 C523 0.961 . S
H510 C524 0.960 . S
H511 C524 0.961 . S
H512 C524 0.959 . S
H513 C527 0.929 . S
H514 C528 0.931 . S
H515 C530 0.930 . S
C516 H504 0.930 . S
C516 C517 1.399 . S
C516 C521 1.399 . S
C517 C516 1.399 . S
C517 C518 1.376 . S
C518 H505 0.930 . S
C518 C517 1.376 . S
C518 C519 1.388 . S
C519 H506 0.930 . S
C519 C518 1.388 . S
C519 C520 1.390 . S
C520 C519 1.390 . S
C520 C521 1.394 . S
C520 C526 1.465 1_655 S
C521 C516 1.399 . S
C521 C520 1.394 . S
C521 C522 1.516 . S
C522 C521 1.516 . S
C522 C523 1.502 1_655 S
C522 C524 1.561 . S
C522 C525 1.526 1_655 S
C523 H507 0.959 . S
C523 H508 0.959 . S
C523 H509 0.961 . S
C523 C522 1.502 1_455 S
C524 H510 0.960 . S
C524 H511 0.961 . S
C524 H512 0.959 . S
C524 C522 1.561 . S
C525 C522 1.526 1_455 S
C525 C526 1.396 . S
C525 C530 1.390 . S
C526 C520 1.465 1_455 S
C526 C525 1.396 . S
C526 C527 1.399 . S
C527 H513 0.929 . S
C527 C526 1.399 . S
C527 C528 1.385 . S
C528 H514 0.931 . S
C528 C527 1.385 . S
C528 C529 1.389 . S
C529 C528 1.389 . S
C529 C530 1.387 . S
C530 H515 0.930 . S
C530 C525 1.390 . S
C530 C529 1.387 . S
H531 C543 0.930 . S
H532 C545 0.930 . S
H533 C546 0.930 1_545 S
H534 C550 0.959 . S
H535 C550 0.959 . S
H536 C550 0.961 . S
H537 C551 0.960 . S
H538 C551 0.961 . S
H539 C551 0.959 . S
H540 C554 0.929 . S
H541 C555 0.931 . S
H542 C557 0.930 . S
C543 H531 0.930 . S
C543 C544 1.399 . S
C543 C548 1.399 . S
C544 C543 1.399 . S
C544 C545 1.376 . S
C545 H532 0.930 . S
C545 C544 1.376 . S
C545 C546 1.388 . S
C546 H533 0.930 1_565 S
C546 C545 1.388 . S
C546 C547 1.400 . S
C547 C546 1.400 . S
C547 C548 1.404 . S
C547 C553 1.446 1_565 S
C548 C543 1.399 . S
C548 C547 1.404 . S
C548 C549 1.516 . S
C549 C548 1.516 . S
C549 C550 1.502 . S
C549 C551 1.561 1_565 S
C549 C552 1.526 1_565 S
C550 H534 0.959 . S
C550 H535 0.959 . S
C550 H536 0.961 . S
C550 C549 1.502 . S
C551 H537 0.960 . S
C551 H538 0.961 . S
C551 H539 0.959 . S
C551 C549 1.561 1_545 S
C552 C549 1.526 1_545 S
C552 C553 1.396 . S
C552 C557 1.390 . S
C553 C547 1.446 1_545 S
C553 C552 1.396 . S
C553 C554 1.399 . S
C554 H540 0.929 . S
C554 C553 1.399 . S
C554 C555 1.385 . S
C555 H541 0.931 . S
C555 C554 1.385 . S
C555 C556 1.389 . S
C556 C555 1.389 . S
C556 C557 1.387 . S
C557 H542 0.930 . S
C557 C552 1.390 . S
C557 C556 1.387 . S
H558 C570 0.930 1_545 S
H559 C572 0.930 . S
H560 C573 0.930 . S
H561 C577 0.959 . S
H562 C577 0.959 . S
H563 C577 0.961 . S
H564 C578 0.960 . S
H565 C578 0.961 . S
H566 C578 0.959 . S
H567 C581 0.929 . S
H568 C582 0.931 1_565 S
H569 C584 0.930 . S
C570 H558 0.930 1_565 S
C570 C571 1.399 . S
C570 C575 1.399 1_565 S
C571 C570 1.399 . S
C571 C572 1.376 . S
C572 H559 0.930 . S
C572 C571 1.376 . S
C572 C573 1.388 . S
C573 H560 0.930 . S
C573 C572 1.388 . S
C573 C574 1.390 . S
C574 C573 1.390 . S
C574 C575 1.394 1_565 S
C574 C580 1.465 1_556 S
C575 C570 1.399 1_545 S
C575 C574 1.394 1_545 S
C575 C576 1.516 . S
C576 C575 1.516 . S
C576 C577 1.502 . S
C576 C578 1.561 . S
C576 C579 1.526 1_556 S
C577 H561 0.959 . S
C577 H562 0.959 . S
C577 H563 0.961 . S
C577 C576 1.502 . S
C578 H564 0.960 . S
C578 H565 0.961 . S
C578 H566 0.959 . S
C578 C576 1.561 . S
C579 C576 1.526 1_554 S
C579 C580 1.396 1_545 S
C579 C584 1.390 . S
C580 C574 1.465 1_554 S
C580 C579 1.396 1_565 S
C580 C581 1.399 . S
C581 H567 0.929 . S
C581 C580 1.399 . S
C581 C582 1.385 1_565 S
C582 H568 0.931 1_545 S
C582 C581 1.385 1_545 S
C582 C583 1.389 . S
C583 C582 1.389 . S
C583 C584 1.387 . S
C584 H569 0.930 . S
C584 C579 1.390 . S
C584 C583 1.387 . S
H585 C597 0.930 . S
H586 C599 0.930 . S
H587 C600 0.930 . S
H588 C604 0.959 . S
H589 C604 0.959 . S
H590 C604 0.961 . S
H591 C605 0.960 . S
H592 C605 0.961 . S
H593 C605 0.959 . S
H594 C608 0.929 . S
H595 C609 0.931 . S
H596 C611 0.930 . S
C597 H585 0.930 . S
C597 C598 1.399 . S
C597 C602 1.399 . S
C598 C597 1.399 . S
C598 C599 1.376 . S
C599 H586 0.930 . S
C599 C598 1.376 . S
C599 C600 1.388 . S
C600 H587 0.930 . S
C600 C599 1.388 . S
C600 C601 1.390 . S
C601 C600 1.390 . S
C601 C602 1.394 . S
C601 C607 1.465 . S
C602 C597 1.399 . S
C602 C601 1.394 . S
C602 C603 1.516 . S
C603 C602 1.516 . S
C603 C604 1.502 . S
C603 C605 1.561 . S
C603 C606 1.526 . S
C604 H588 0.959 . S
C604 H589 0.959 . S
C604 H590 0.961 . S
C604 C603 1.502 . S
C605 H591 0.960 . S
C605 H592 0.961 . S
C605 H593 0.959 . S
C605 C603 1.561 . S
C606 C603 1.526 . S
C606 C607 1.396 . S
C606 C611 1.390 . S
C607 C601 1.465 . S
C607 C606 1.396 . S
C607 C608 1.399 . S
C608 H594 0.929 . S
C608 C607 1.399 . S
C608 C609 1.385 . S
C609 H595 0.931 . S
C609 C608 1.385 . S
C609 C610 1.389 . S
C610 C609 1.389 . S
C610 C611 1.387 . S
C611 H596 0.930 . S
C611 C606 1.390 . S
C611 C610 1.387 . S
H612 C624 0.930 . S
H613 C626 0.930 1_655 S
H614 C627 0.930 . S
H615 C631 0.959 . S
H616 C631 0.959 . S
H617 C631 0.961 . S
H618 C632 0.960 . S
H619 C632 0.961 . S
H620 C632 0.958 . S
H621 C635 0.929 . S
H622 C636 0.931 . S
H623 C638 0.930 1_455 S
C624 H612 0.930 . S
C624 C625 1.399 . S
C624 C629 1.399 . S
C625 C624 1.399 . S
C625 C626 1.376 . S
C626 H613 0.930 1_455 S
C626 C625 1.376 . S
C626 C627 1.388 1_455 S
C627 H614 0.930 . S
C627 C626 1.388 1_655 S
C627 C628 1.390 . S
C628 C627 1.390 . S
C628 C629 1.394 1_655 S
C628 C634 1.465 . S
C629 C624 1.399 . S
C629 C628 1.394 1_455 S
C629 C630 1.516 . S
C630 C629 1.516 . S
C630 C631 1.502 . S
C630 C632 1.561 . S
C630 C633 1.526 1_455 S
C631 H615 0.959 . S
C631 H616 0.959 . S
C631 H617 0.961 . S
C631 C630 1.502 . S
C632 H618 0.960 . S
C632 H619 0.961 . S
C632 H620 0.958 . S
C632 C630 1.561 . S
C633 C630 1.526 1_655 S
C633 C634 1.396 . S
C633 C638 1.390 . S
C634 C628 1.465 . S
C634 C633 1.396 . S
C634 C635 1.399 . S
C635 H621 0.929 . S
C635 C634 1.399 . S
C635 C636 1.385 . S
C636 H622 0.931 . S
C636 C635 1.385 . S
C636 C637 1.389 . S
C637 C636 1.389 . S
C637 C638 1.387 . S
C638 H623 0.930 1_655 S
C638 C633 1.390 . S
C638 C637 1.387 . S
H639 C651 0.930 1_545 S
H640 C653 0.930 . S
H641 C654 0.930 . S
H642 C658 0.959 . S
H643 C658 0.959 . S
H644 C658 0.961 . S
H645 C659 0.960 . S
H646 C659 0.961 . S
H647 C659 0.959 . S
H648 C662 0.929 . S
H649 C663 0.932 . S
H650 C665 0.930 . S
C651 H639 0.930 1_565 S
C651 C652 1.399 . S
C651 C656 1.399 1_565 S
C652 C651 1.399 . S
C652 C653 1.376 . S
C653 H640 0.930 . S
C653 C652 1.376 . S
C653 C654 1.388 . S
C654 H641 0.930 . S
C654 C653 1.388 . S
C654 C655 1.390 . S
C655 C654 1.390 . S
C655 C656 1.394 1_565 S
C655 C661 1.465 1_554 S
C656 C651 1.399 1_545 S
C656 C655 1.394 1_545 S
C656 C657 1.516 . S
C657 C656 1.516 . S
C657 C658 1.502 . S
C657 C659 1.561 . S
C657 C660 1.526 1_554 S
C658 H642 0.959 . S
C658 H643 0.959 . S
C658 H644 0.961 . S
C658 C657 1.502 . S
C659 H645 0.960 . S
C659 H646 0.961 . S
C659 H647 0.959 . S
C659 C657 1.561 . S
C660 C657 1.526 1_556 S
C660 C661 1.396 1_545 S
C660 C665 1.390 . S
C661 C655 1.465 1_556 S
C661 C660 1.396 1_565 S
C661 C662 1.399 . S
C662 H648 0.929 . S
C662 C661 1.399 . S
C662 C663 1.388 . S
C663 H649 0.932 . S
C663 C662 1.388 . S
C663 C664 1.386 1_565 S
C664 C663 1.386 1_545 S
C664 C665 1.387 . S
C665 H650 0.930 . S
C665 C660 1.390 . S
C665 C664 1.387 . S
H666 C678 0.930 . S
H667 C680 0.930 . S
H668 C681 0.930 . S
H669 C685 0.959 . S
H670 C685 0.959 . S
H671 C685 0.961 . S
H672 C686 0.960 . S
H673 C686 0.961 . S
H674 C686 0.959 . S
H675 C689 0.929 . S
H676 C690 0.931 . S
H677 C692 0.930 . S
C678 H666 0.930 . S
C678 C679 1.399 . S
C678 C683 1.399 . S
C679 C678 1.399 . S
C679 C680 1.376 . S
C680 H667 0.930 . S
C680 C679 1.376 . S
C680 C681 1.388 . S
C681 H668 0.930 . S
C681 C680 1.388 . S
C681 C682 1.390 . S
C682 C681 1.390 . S
C682 C683 1.394 . S
C682 C688 1.465 . S
C683 C678 1.399 . S
C683 C682 1.394 . S
C683 C684 1.516 . S
C684 C683 1.516 . S
C684 C685 1.502 . S
C684 C686 1.561 . S
C684 C687 1.526 . S
C685 H669 0.959 . S
C685 H670 0.959 . S
C685 H671 0.961 . S
C685 C684 1.502 . S
C686 H672 0.960 . S
C686 H673 0.961 . S
C686 H674 0.959 . S
C686 C684 1.561 . S
C687 C684 1.526 . S
C687 C688 1.396 . S
C687 C692 1.390 . S
C688 C682 1.465 . S
C688 C687 1.396 . S
C688 C689 1.399 . S
C689 H675 0.929 . S
C689 C688 1.399 . S
C689 C690 1.385 . S
C690 H676 0.931 . S
C690 C689 1.385 . S
C690 C691 1.389 . S
C691 C690 1.389 . S
C691 C692 1.387 . S
C692 H677 0.930 . S
C692 C687 1.390 . S
C692 C691 1.387 . S
H693 C705 0.930 . S
H694 C707 0.930 . S
H695 C708 0.930 . S
H696 C712 0.959 . S
H697 C712 0.959 . S
H698 C712 0.961 1_455 S
H699 C713 0.960 . S
H700 C713 0.961 . S
H701 C713 0.959 . S
H702 C716 0.929 . S
H703 C717 0.931 . S
H704 C719 0.930 . S
C705 H693 0.930 . S
C705 C706 1.399 . S
C705 C710 1.399 . S
C706 C705 1.399 . S
C706 C707 1.376 . S
C707 H694 0.930 . S
C707 C706 1.376 . S
C707 C708 1.388 . S
C708 H695 0.930 . S
C708 C707 1.388 . S
C708 C709 1.390 . S
C709 C708 1.390 . S
C709 C710 1.394 . S
C709 C715 1.465 1_455 S
C710 C705 1.399 . S
C710 C709 1.394 . S
C710 C711 1.516 . S
C711 C710 1.516 . S
C711 C712 1.502 1_455 S
C711 C713 1.561 . S
C711 C714 1.526 1_455 S
C712 H696 0.959 . S
C712 H697 0.959 . S
C712 H698 0.961 1_655 S
C712 C711 1.502 1_655 S
C713 H699 0.960 . S
C713 H700 0.961 . S
C713 H701 0.959 . S
C713 C711 1.561 . S
C714 C711 1.526 1_655 S
C714 C715 1.396 . S
C714 C719 1.390 . S
C715 C709 1.465 1_655 S
C715 C714 1.396 . S
C715 C716 1.399 . S
C716 H702 0.929 . S
C716 C715 1.399 . S
C716 C717 1.385 . S
C717 H703 0.931 . S
C717 C716 1.385 . S
C717 C718 1.389 . S
C718 C717 1.389 . S
C718 C719 1.387 . S
C719 H704 0.930 . S
C719 C714 1.390 . S
C719 C718 1.387 . S
H720 C732 0.930 . S
H721 C734 0.930 . S
H722 C735 0.930 1_565 S
H723 C739 0.959 . S
H724 C739 0.959 . S
H725 C739 0.961 1_455 S
H726 C740 0.960 1_545 S
H727 C740 0.961 1_655 S
H728 C740 0.959 . S
H729 C743 0.929 . S
H730 C744 0.931 . S
H731 C746 0.930 . S
C732 H720 0.930 . S
C732 C733 1.399 . S
C732 C737 1.399 . S
C733 C732 1.399 . S
C733 C734 1.376 . S
C734 H721 0.930 . S
C734 C733 1.376 . S
C734 C735 1.388 . S
C735 H722 0.930 1_545 S
C735 C734 1.388 . S
C735 C736 1.390 . S
C736 C735 1.390 . S
C736 C737 1.394 . S
C736 C742 1.465 1_445 S
C737 C732 1.399 . S
C737 C736 1.394 . S
C737 C738 1.516 1_455 S
C738 C737 1.516 1_655 S
C738 C739 1.502 . S
C738 C740 1.561 1_645 S
C738 C741 1.526 1_545 S
C739 H723 0.959 . S
C739 H724 0.959 . S
C739 H725 0.961 1_655 S
C739 C738 1.502 . S
C740 H726 0.960 1_565 S
C740 H727 0.961 1_455 S
C740 H728 0.959 . S
C740 C738 1.561 1_465 S
C741 C738 1.526 1_565 S
C741 C742 1.396 . S
C741 C746 1.390 . S
C742 C736 1.465 1_665 S
C742 C741 1.396 . S
C742 C743 1.399 . S
C743 H729 0.929 . S
C743 C742 1.399 . S
C743 C744 1.385 . S
C744 H730 0.931 . S
C744 C743 1.385 . S
C744 C745 1.389 . S
C745 C744 1.389 . S
C745 C746 1.387 . S
C746 H731 0.930 . S
C746 C741 1.390 . S
C746 C745 1.387 . S
H747 C759 0.930 . S
H748 C761 0.930 . S
H749 C762 0.930 . S
H750 C766 0.959 . S
H751 C766 0.959 . S
H752 C766 0.961 1_545 S
H753 C767 0.960 . S
H754 C767 0.961 1_665 S
H755 C767 0.959 . S
H756 C770 0.929 . S
H757 C771 0.931 . S
H758 C773 0.930 . S
C759 H747 0.930 . S
C759 C760 1.399 . S
C759 C764 1.399 . S
C760 C759 1.399 . S
C760 C761 1.376 . S
C761 H748 0.930 . S
C761 C760 1.376 . S
C761 C762 1.388 . S
C762 H749 0.930 . S
C762 C761 1.388 . S
C762 C763 1.390 . S
C763 C762 1.390 . S
C763 C764 1.394 . S
C763 C769 1.465 1_545 S
C764 C759 1.399 . S
C764 C763 1.394 . S
C764 C765 1.516 1_445 S
C765 C764 1.516 1_665 S
C765 C766 1.502 . S
C765 C767 1.561 1_665 S
C765 C768 1.526 . S
C766 H750 0.959 . S
C766 H751 0.959 . S
C766 H752 0.961 1_565 S
C766 C765 1.502 . S
C767 H753 0.960 . S
C767 H754 0.961 1_445 S
C767 H755 0.959 . S
C767 C765 1.561 1_445 S
C768 C765 1.526 . S
C768 C769 1.396 1_655 S
C768 C773 1.390 . S
C769 C763 1.465 1_565 S
C769 C768 1.396 1_455 S
C769 C770 1.399 . S
C770 H756 0.929 . S
C770 C769 1.399 . S
C770 C771 1.385 1_455 S
C771 H757 0.931 . S
C771 C770 1.385 1_655 S
C771 C772 1.389 . S
C772 C771 1.389 . S
C772 C773 1.387 . S
C773 H758 0.930 . S
C773 C768 1.390 . S
C773 C772 1.387 . S
H774 C786 0.930 . S
H775 C788 0.930 . S
H776 C789 0.930 . S
H777 C793 0.959 . S
H778 C793 0.959 . S
H779 C793 0.961 . S
H780 C794 0.960 . S
H781 C794 0.967 . S
H782 C794 0.959 . S
H783 C797 0.929 . S
H784 C798 0.931 . S
H785 C800 0.930 . S
C786 H774 0.930 . S
C786 C787 1.399 . S
C786 C791 1.399 . S
C787 C786 1.399 . S
C787 C788 1.376 . S
C788 H775 0.930 . S
C788 C787 1.376 . S
C788 C789 1.388 1_545 S
C789 H776 0.930 . S
C789 C788 1.388 1_565 S
C789 C790 1.390 . S
C790 C789 1.390 . S
C790 C791 1.394 1_565 S
C790 C796 1.465 1_655 S
C791 C786 1.399 . S
C791 C790 1.394 1_545 S
C791 C792 1.516 1_655 S
C792 C791 1.516 1_455 S
C792 C793 1.502 . S
C792 C794 1.561 1_445 S
C792 C795 1.526 1_545 S
C793 H777 0.959 . S
C793 H778 0.959 . S
C793 H779 0.961 . S
C793 C792 1.502 . S
C794 H780 0.960 . S
C794 H781 0.967 . S
C794 H782 0.959 . S
C794 C792 1.561 1_665 S
C795 C792 1.526 1_565 S
C795 C796 1.396 . S
C795 C800 1.390 . S
C796 C790 1.465 1_455 S
C796 C795 1.396 . S
C796 C797 1.399 . S
C797 H783 0.929 . S
C797 C796 1.399 . S
C797 C798 1.385 . S
C798 H784 0.931 . S
C798 C797 1.385 . S
C798 C799 1.389 . S
C799 C798 1.389 . S
C799 C800 1.387 . S
C800 H785 0.930 . S
C800 C795 1.390 . S
C800 C799 1.387 . S
H801 C813 0.930 . S
H802 C815 0.930 . S
H803 C816 0.930 . S
H804 C820 0.959 1_645 S
H805 C820 0.959 1_545 S
H806 C820 0.961 . S
H807 C821 0.960 . S
H808 C821 0.961 1_545 S
H809 C821 0.959 . S
H810 C824 0.929 1_655 S
H811 C825 0.931 . S
H812 C827 0.930 . S
C813 H801 0.930 . S
C813 C814 1.399 . S
C813 C818 1.399 . S
C814 C813 1.399 . S
C814 C815 1.376 . S
C815 H802 0.930 . S
C815 C814 1.376 . S
C815 C816 1.388 . S
C816 H803 0.930 . S
C816 C815 1.388 . S
C816 C817 1.390 . S
C817 C816 1.390 . S
C817 C818 1.394 . S
C817 C823 1.465 1_665 S
C818 C813 1.399 . S
C818 C817 1.394 . S
C818 C819 1.516 1_655 S
C819 C818 1.516 1_455 S
C819 C820 1.502 . S
C819 C821 1.561 . S
C819 C822 1.526 1_565 S
C820 H804 0.959 1_465 S
C820 H805 0.959 1_565 S
C820 H806 0.961 . S
C820 C819 1.502 . S
C821 H807 0.960 . S
C821 H808 0.961 1_565 S
C821 H809 0.959 . S
C821 C819 1.561 . S
C822 C819 1.526 1_545 S
C822 C823 1.396 . S
C822 C827 1.390 . S
C823 C817 1.465 1_445 S
C823 C822 1.396 . S
C823 C824 1.399 . S
C824 H810 0.929 1_455 S
C824 C823 1.399 . S
C824 C825 1.385 . S
C825 H811 0.931 . S
C825 C824 1.385 . S
C825 C826 1.389 . S
C826 C825 1.389 . S
C826 C827 1.387 . S
C827 H812 0.930 . S
C827 C822 1.390 . S
C827 C826 1.387 . S
H828 C840 0.930 . S
H829 C842 0.930 . S
H830 C843 0.930 . S
H831 C847 0.959 . S
H832 C847 0.959 . S
H833 C847 0.961 . S
H834 C848 0.960 . S
H835 C848 0.961 . S
H836 C848 0.959 . S
H837 C851 0.929 1_455 S
H838 C852 0.931 . S
H839 C854 0.930 . S
C840 H828 0.930 . S
C840 C841 1.399 . S
C840 C845 1.399 . S
C841 C840 1.399 . S
C841 C842 1.376 . S
C842 H829 0.930 . S
C842 C841 1.376 . S
C842 C843 1.388 . S
C843 H830 0.930 . S
C843 C842 1.388 . S
C843 C844 1.390 . S
C844 C843 1.390 . S
C844 C845 1.394 . S
C844 C850 1.447 1_465 S
C845 C840 1.399 . S
C845 C844 1.394 . S
C845 C846 1.516 1_455 S
C846 C845 1.516 1_655 S
C846 C847 1.502 . S
C846 C848 1.561 1_665 S
C846 C849 1.526 1_565 S
C847 H831 0.959 . S
C847 H832 0.959 . S
C847 H833 0.961 . S
C847 C846 1.502 . S
C848 H834 0.960 . S
C848 H835 0.961 . S
C848 H836 0.959 . S
C848 C846 1.561 1_445 S
C849 C846 1.526 1_545 S
C849 C850 1.405 . S
C849 C854 1.390 . S
C850 C844 1.447 1_645 S
C850 C849 1.405 . S
C850 C851 1.409 . S
C851 H837 0.929 1_655 S
C851 C850 1.409 . S
C851 C852 1.385 . S
C852 H838 0.931 . S
C852 C851 1.385 . S
C852 C853 1.389 . S
C853 C852 1.389 . S
C853 C854 1.387 . S
C854 H839 0.930 . S
C854 C849 1.390 . S
C854 C853 1.387 . S
H855 C867 0.930 . S
H856 C869 0.930 . S
H857 C870 0.930 . S
H858 C874 0.959 . S
H859 C874 0.959 . S
H860 C874 0.961 1_455 S
H861 C875 0.960 . S
H862 C875 0.961 1_655 S
H863 C875 0.959 . S
H864 C878 0.929 . S
H865 C879 0.931 . S
H866 C881 0.930 . S
C867 H855 0.930 . S
C867 C868 1.399 . S
C867 C872 1.399 . S
C868 C867 1.399 . S
C868 C869 1.376 . S
C869 H856 0.930 . S
C869 C868 1.376 . S
C869 C870 1.388 . S
C870 H857 0.930 . S
C870 C869 1.388 . S
C870 C871 1.390 . S
C871 C870 1.390 . S
C871 C872 1.394 . S
C871 C877 1.465 1_455 S
C872 C867 1.399 . S
C872 C871 1.394 . S
C872 C873 1.516 1_445 S
C873 C872 1.516 1_665 S
C873 C874 1.502 . S
C873 C875 1.561 1_665 S
C873 C876 1.526 . S
C874 H858 0.959 . S
C874 H859 0.959 . S
C874 H860 0.961 1_655 S
C874 C873 1.502 . S
C875 H861 0.960 . S
C875 H862 0.961 1_455 S
C875 H863 0.959 . S
C875 C873 1.561 1_445 S
C876 C873 1.526 . S
C876 C877 1.396 1_565 S
C876 C881 1.390 . S
C877 C871 1.465 1_655 S
C877 C876 1.396 1_545 S
C877 C878 1.399 . S
C878 H864 0.929 . S
C878 C877 1.399 . S
C878 C879 1.385 1_545 S
C879 H865 0.931 . S
C879 C878 1.385 1_565 S
C879 C880 1.389 . S
C880 C879 1.389 . S
C880 C881 1.387 . S
C881 H866 0.930 . S
C881 C876 1.390 . S
C881 C880 1.387 . S
H882 C894 0.930 . S
H883 C896 0.930 . S
H884 C897 0.930 . S
H885 C901 0.959 . S
H886 C901 0.959 . S
H887 C901 0.961 . S
H888 C902 0.960 . S
H889 C902 0.961 . S
H890 C902 0.959 . S
H891 C905 0.929 . S
H892 C906 0.931 . S
H893 C908 0.930 . S
C894 H882 0.930 . S
C894 C895 1.399 . S
C894 C899 1.399 . S
C895 C894 1.399 . S
C895 C896 1.376 1_455 S
C896 H883 0.930 . S
C896 C895 1.376 1_655 S
C896 C897 1.388 1_655 S
C897 H884 0.930 . S
C897 C896 1.388 1_455 S
C897 C898 1.390 . S
C898 C897 1.390 . S
C898 C899 1.394 . S
C898 C904 1.465 1_556 S
C899 C894 1.399 . S
C899 C898 1.394 . S
C899 C900 1.535 . S
C900 C899 1.535 . S
C900 C901 1.534 . S
C900 C902 1.529 1_556 S
C900 C903 1.504 1_556 S
C901 H885 0.959 . S
C901 H886 0.959 . S
C901 H887 0.961 . S
C901 C900 1.534 . S
C902 H888 0.960 . S
C902 H889 0.961 . S
C902 H890 0.959 . S
C902 C900 1.529 1_554 S
C903 C900 1.504 1_554 S
C903 C904 1.396 . S
C903 C908 1.390 . S
C904 C898 1.465 1_554 S
C904 C903 1.396 . S
C904 C905 1.399 . S
C905 H891 0.929 . S
C905 C904 1.399 . S
C905 C906 1.385 . S
C906 H892 0.931 . S
C906 C905 1.385 . S
C906 C907 1.389 . S
C907 C906 1.389 . S
C907 C908 1.387 . S
C908 H893 0.930 . S
C908 C903 1.390 . S
C908 C907 1.387 . S
H909 C921 0.930 . S
H910 C923 0.930 1_455 S
H911 C924 0.930 . S
H912 C928 0.959 . S
H913 C928 0.959 1_565 S
H914 C928 0.961 . S
H915 C929 0.960 . S
H916 C929 0.961 . S
H917 C929 0.959 . S
H918 C932 0.929 . S
H919 C933 0.931 . S
H920 C935 0.930 1_565 S
C921 H909 0.930 . S
C921 C922 1.399 . S
C921 C926 1.399 . S
C922 C921 1.399 . S
C922 C923 1.376 . S
C923 H910 0.930 1_655 S
C923 C922 1.376 . S
C923 C924 1.388 . S
C924 H911 0.930 . S
C924 C923 1.388 . S
C924 C925 1.390 . S
C925 C924 1.390 . S
C925 C926 1.394 . S
C925 C931 1.465 . S
C926 C921 1.399 . S
C926 C925 1.394 . S
C926 C927 1.516 . S
C927 C926 1.516 . S
C927 C928 1.502 . S
C927 C929 1.561 . S
C927 C930 1.526 . S
C928 H912 0.959 . S
C928 H913 0.959 1_545 S
C928 H914 0.961 . S
C928 C927 1.502 . S
C929 H915 0.960 . S
C929 H916 0.961 . S
C929 H917 0.959 . S
C929 C927 1.561 . S
C930 C927 1.526 . S
C930 C931 1.396 . S
C930 C935 1.390 . S
C931 C925 1.465 . S
C931 C930 1.396 . S
C931 C932 1.399 . S
C932 H918 0.929 . S
C932 C931 1.399 . S
C932 C933 1.385 . S
C933 H919 0.931 . S
C933 C932 1.385 . S
C933 C934 1.389 . S
C934 C933 1.389 . S
C934 C935 1.387 . S
C935 H920 0.930 1_545 S
C935 C930 1.390 . S
C935 C934 1.387 . S
H936 C948 0.930 . S
H937 C950 0.930 . S
H938 C951 0.930 . S
H939 C955 0.959 . S
H940 C955 0.959 . S
H941 C955 0.961 . S
H942 C956 0.960 . S
H943 C956 0.961 . S
H944 C956 0.959 . S
H945 C959 0.929 . S
H946 C960 0.931 . S
H947 C962 0.930 1_545 S
C948 H936 0.930 . S
C948 C949 1.399 . S
C948 C953 1.399 . S
C949 C948 1.399 . S
C949 C950 1.376 . S
C950 H937 0.930 . S
C950 C949 1.376 . S
C950 C951 1.388 . S
C951 H938 0.930 . S
C951 C950 1.388 . S
C951 C952 1.390 . S
C952 C951 1.390 . S
C952 C953 1.394 . S
C952 C958 1.465 . S
C953 C948 1.399 . S
C953 C952 1.394 . S
C953 C954 1.516 . S
C954 C953 1.516 . S
C954 C955 1.502 . S
C954 C956 1.561 . S
C954 C957 1.526 . S
C955 H939 0.959 . S
C955 H940 0.959 . S
C955 H941 0.961 . S
C955 C954 1.502 . S
C956 H942 0.960 . S
C956 H943 0.961 . S
C956 H944 0.959 . S
C956 C954 1.561 . S
C957 C954 1.526 . S
C957 C958 1.396 . S
C957 C962 1.390 . S
C958 C952 1.465 . S
C958 C957 1.396 . S
C958 C959 1.399 . S
C959 H945 0.929 . S
C959 C958 1.399 . S
C959 C960 1.385 . S
C960 H946 0.931 . S
C960 C959 1.385 . S
C960 C961 1.389 . S
C961 C960 1.389 . S
C961 C962 1.387 . S
C962 H947 0.930 1_565 S
C962 C957 1.390 . S
C962 C961 1.387 . S
H963 C975 0.930 . S
H964 C977 0.930 . S
H965 C978 0.930 1_556 S
H966 C982 0.959 . S
H967 C982 0.959 . S
H968 C982 0.961 . S
H969 C983 0.960 1_554 S
H970 C983 0.961 . S
H971 C983 0.959 . S
H972 C986 0.929 . S
H973 C987 0.931 1_455 S
H974 C989 0.930 . S
C975 H963 0.930 . S
C975 C976 1.399 . S
C975 C980 1.399 . S
C976 C975 1.399 . S
C976 C977 1.376 . S
C977 H964 0.930 . S
C977 C976 1.376 . S
C977 C978 1.388 . S
C978 H965 0.930 1_554 S
C978 C977 1.388 . S
C978 C979 1.394 . S
C979 C978 1.394 . S
C979 C980 1.416 . S
C979 C985 1.444 1_554 S
C980 C975 1.399 . S
C980 C979 1.416 . S
C980 C981 1.516 . S
C981 C980 1.516 . S
C981 C982 1.502 . S
C981 C983 1.561 1_554 S
C981 C984 1.526 1_554 S
C982 H966 0.959 . S
C982 H967 0.959 . S
C982 H968 0.961 . S
C982 C981 1.502 . S
C983 H969 0.960 1_556 S
C983 H970 0.961 . S
C983 H971 0.959 . S
C983 C981 1.561 1_556 S
C984 C981 1.526 1_556 S
C984 C985 1.396 . S
C984 C989 1.390 . S
C985 C979 1.444 1_556 S
C985 C984 1.396 . S
C985 C986 1.399 . S
C986 H972 0.929 . S
C986 C985 1.399 . S
C986 C987 1.385 . S
C987 H973 0.931 1_655 S
C987 C986 1.385 . S
C987 C988 1.389 . S
C988 C987 1.389 . S
C988 C989 1.387 . S
C989 H974 0.930 . S
C989 C984 1.390 . S
C989 C988 1.387 . S
H990 C1002 0.930 . S
H991 C1004 0.930 1_545 S
H992 C1005 0.930 . S
H993 C1009 0.959 . S
H994 C1009 0.959 . S
H995 C1009 0.961 . S
H996 C1010 0.960 . S
H997 C1010 0.961 . S
H998 C1010 0.959 . S
H999 C1013 0.929 1_655 S
H1000 C1014 0.931 . S
H1001 C1016 0.930 . S
C1002 H990 0.930 . S
C1002 C1003 1.399 . S
C1002 C1007 1.399 . S
C1003 C1002 1.399 . S
C1003 C1004 1.376 . S
C1004 H991 0.930 1_565 S
C1004 C1003 1.376 . S
C1004 C1005 1.388 . S
C1005 H992 0.930 . S
C1005 C1004 1.388 . S
C1005 C1006 1.390 . S
C1006 C1005 1.390 . S
C1006 C1007 1.394 . S
C1006 C1012 1.465 . S
C1007 C1002 1.399 . S
C1007 C1006 1.394 . S
C1007 C1008 1.516 . S
C1008 C1007 1.516 . S
C1008 C1009 1.502 . S
C1008 C1010 1.561 . S
C1008 C1011 1.526 . S
C1009 H993 0.959 . S
C1009 H994 0.959 . S
C1009 H995 0.961 . S
C1009 C1008 1.502 . S
C1010 H996 0.960 . S
C1010 H997 0.961 . S
C1010 H998 0.959 . S
C1010 C1008 1.561 . S
C1011 C1008 1.526 . S
C1011 C1012 1.396 . S
C1011 C1016 1.390 . S
C1012 C1006 1.465 . S
C1012 C1011 1.396 . S
C1012 C1013 1.399 . S
C1013 H999 0.929 1_455 S
C1013 C1012 1.399 . S
C1013 C1014 1.385 1_455 S
C1014 H1000 0.931 . S
C1014 C1013 1.385 1_655 S
C1014 C1015 1.389 1_655 S
C1015 C1014 1.389 1_455 S
C1015 C1016 1.387 . S
C1016 H1001 0.930 . S
C1016 C1011 1.390 . S
C1016 C1015 1.387 . S
H1017 C1029 0.930 . S
H1018 C1031 0.930 . S
H1019 C1032 0.930 . S
H1020 C1036 0.959 . S
H1021 C1036 0.959 . S
H1022 C1036 0.961 . S
H1023 C1037 0.960 . S
H1024 C1037 0.961 . S
H1025 C1037 0.959 . S
H1026 C1040 0.929 . S
H1027 C1041 0.931 . S
H1028 C1043 0.930 . S
C1029 H1017 0.930 . S
C1029 C1030 1.399 . S
C1029 C1034 1.399 . S
C1030 C1029 1.399 . S
C1030 C1031 1.376 . S
C1031 H1018 0.930 . S
C1031 C1030 1.376 . S
C1031 C1032 1.388 . S
C1032 H1019 0.930 . S
C1032 C1031 1.388 . S
C1032 C1033 1.390 . S
C1033 C1032 1.390 . S
C1033 C1034 1.394 . S
C1033 C1039 1.465 . S
C1034 C1029 1.399 . S
C1034 C1033 1.394 . S
C1034 C1035 1.516 . S
C1035 C1034 1.516 . S
C1035 C1036 1.502 . S
C1035 C1037 1.561 . S
C1035 C1038 1.526 . S
C1036 H1020 0.959 . S
C1036 H1021 0.959 . S
C1036 H1022 0.961 . S
C1036 C1035 1.502 . S
C1037 H1023 0.960 . S
C1037 H1024 0.961 . S
C1037 H1025 0.959 . S
C1037 C1035 1.561 . S
C1038 C1035 1.526 . S
C1038 C1039 1.396 . S
C1038 C1043 1.390 . S
C1039 C1033 1.465 . S
C1039 C1038 1.396 . S
C1039 C1040 1.399 . S
C1040 H1026 0.929 . S
C1040 C1039 1.399 . S
C1040 C1041 1.385 . S
C1041 H1027 0.931 . S
C1041 C1040 1.385 . S
C1041 C1042 1.389 . S
C1042 C1041 1.389 . S
C1042 C1043 1.387 . S
C1043 H1028 0.930 . S
C1043 C1038 1.390 . S
C1043 C1042 1.387 . S
H1044 C1056 0.930 . S
H1045 C1058 0.930 . S
H1046 C1059 0.930 . S
H1047 C1063 0.959 . S
H1048 C1063 0.959 . S
H1049 C1063 0.961 . S
H1050 C1064 0.960 . S
H1051 C1064 0.961 . S
H1052 C1064 0.959 . S
H1053 C1067 0.929 . S
H1054 C1068 0.931 . S
H1055 C1070 0.930 . S
C1056 H1044 0.930 . S
C1056 C1057 1.399 . S
C1056 C1061 1.399 . S
C1057 C1056 1.399 . S
C1057 C1058 1.376 . S
C1058 H1045 0.930 . S
C1058 C1057 1.376 . S
C1058 C1059 1.388 . S
C1059 H1046 0.930 . S
C1059 C1058 1.388 . S
C1059 C1060 1.390 . S
C1060 C1059 1.390 . S
C1060 C1061 1.394 . S
C1060 C1066 1.465 . S
C1061 C1056 1.399 . S
C1061 C1060 1.394 . S
C1061 C1062 1.516 . S
C1062 C1061 1.516 . S
C1062 C1063 1.502 . S
C1062 C1064 1.561 . S
C1062 C1065 1.526 . S
C1063 H1047 0.959 . S
C1063 H1048 0.959 . S
C1063 H1049 0.961 . S
C1063 C1062 1.502 . S
C1064 H1050 0.960 . S
C1064 H1051 0.961 . S
C1064 H1052 0.959 . S
C1064 C1062 1.561 . S
C1065 C1062 1.526 . S
C1065 C1066 1.396 . S
C1065 C1070 1.390 . S
C1066 C1060 1.465 . S
C1066 C1065 1.396 . S
C1066 C1067 1.399 . S
C1067 H1053 0.929 . S
C1067 C1066 1.399 . S
C1067 C1068 1.385 . S
C1068 H1054 0.931 . S
C1068 C1067 1.385 . S
C1068 C1069 1.389 . S
C1069 C1068 1.389 . S
C1069 C1070 1.387 . S
C1070 H1055 0.930 . S
C1070 C1065 1.390 . S
C1070 C1069 1.387 . S
H1071 C1083 0.930 . S
H1072 C1085 0.930 . S
H1073 C1086 0.930 . S
H1074 C1090 0.959 . S
H1075 C1090 0.959 . S
H1076 C1090 0.961 . S
H1077 C1091 0.960 . S
H1078 C1091 0.961 . S
H1079 C1091 0.959 . S
H1080 C1094 0.929 . S
H1081 C1095 0.931 . S
H1082 C1097 0.930 . S
C1083 H1071 0.930 . S
C1083 C1084 1.399 . S
C1083 C1088 1.399 . S
C1084 C1083 1.399 . S
C1084 C1085 1.376 . S
C1085 H1072 0.930 . S
C1085 C1084 1.376 . S
C1085 C1086 1.388 . S
C1086 H1073 0.930 . S
C1086 C1085 1.388 . S
C1086 C1087 1.390 . S
C1087 C1086 1.390 . S
C1087 C1088 1.394 . S
C1087 C1093 1.465 . S
C1088 C1083 1.399 . S
C1088 C1087 1.394 . S
C1088 C1089 1.516 . S
C1089 C1088 1.516 . S
C1089 C1090 1.502 . S
C1089 C1091 1.561 . S
C1089 C1092 1.526 . S
C1090 H1074 0.959 . S
C1090 H1075 0.959 . S
C1090 H1076 0.961 . S
C1090 C1089 1.502 . S
C1091 H1077 0.960 . S
C1091 H1078 0.961 . S
C1091 H1079 0.959 . S
C1091 C1089 1.561 . S
C1092 C1089 1.526 . S
C1092 C1093 1.396 . S
C1092 C1097 1.390 . S
C1093 C1087 1.465 . S
C1093 C1092 1.396 . S
C1093 C1094 1.399 . S
C1094 H1080 0.929 . S
C1094 C1093 1.399 . S
C1094 C1095 1.385 . S
C1095 H1081 0.931 . S
C1095 C1094 1.385 . S
C1095 C1096 1.389 . S
C1096 C1095 1.389 . S
C1096 C1097 1.387 . S
C1097 H1082 0.930 . S
C1097 C1092 1.390 . S
C1097 C1096 1.387 . S
H1098 C1110 0.930 . S
H1099 C1112 0.930 . S
H1100 C1113 0.930 . S
H1101 C1117 0.959 . S
H1102 C1117 0.959 . S
H1103 C1117 0.961 . S
H1104 C1118 0.960 . S
H1105 C1118 0.961 . S
H1106 C1118 0.959 . S
H1107 C1121 0.929 . S
H1108 C1122 0.931 . S
H1109 C1124 0.930 . S
C1110 H1098 0.930 . S
C1110 C1111 1.399 . S
C1110 C1115 1.399 . S
C1111 C1110 1.399 . S
C1111 C1112 1.376 . S
C1112 H1099 0.930 . S
C1112 C1111 1.376 . S
C1112 C1113 1.388 . S
C1113 H1100 0.930 . S
C1113 C1112 1.388 . S
C1113 C1114 1.390 . S
C1114 C1113 1.390 . S
C1114 C1115 1.394 . S
C1114 C1120 1.465 . S
C1115 C1110 1.399 . S
C1115 C1114 1.394 . S
C1115 C1116 1.516 . S
C1116 C1115 1.516 . S
C1116 C1117 1.502 . S
C1116 C1118 1.561 . S
C1116 C1119 1.526 . S
C1117 H1101 0.959 . S
C1117 H1102 0.959 . S
C1117 H1103 0.961 . S
C1117 C1116 1.502 . S
C1118 H1104 0.960 . S
C1118 H1105 0.961 . S
C1118 H1106 0.959 . S
C1118 C1116 1.561 . S
C1119 C1116 1.526 . S
C1119 C1120 1.396 . S
C1119 C1124 1.390 . S
C1120 C1114 1.465 . S
C1120 C1119 1.396 . S
C1120 C1121 1.399 . S
C1121 H1107 0.929 . S
C1121 C1120 1.399 . S
C1121 C1122 1.385 . S
C1122 H1108 0.931 . S
C1122 C1121 1.385 . S
C1122 C1123 1.389 . S
C1123 C1122 1.389 . S
C1123 C1124 1.387 . S
C1124 H1109 0.930 . S
C1124 C1119 1.390 . S
C1124 C1123 1.387 . S
H1125 C1137 0.930 . S
H1126 C1139 0.930 . S
H1127 C1140 0.930 . S
H1128 C1144 0.959 . S
H1129 C1144 0.959 . S
H1130 C1144 0.961 . S
H1131 C1145 0.960 . S
H1132 C1145 0.961 . S
H1133 C1145 0.959 . S
H1134 C1148 0.929 . S
H1135 C1149 0.931 . S
H1136 C1151 0.930 . S
C1137 H1125 0.930 . S
C1137 C1138 1.399 . S
C1137 C1142 1.399 . S
C1138 C1137 1.399 . S
C1138 C1139 1.376 . S
C1139 H1126 0.930 . S
C1139 C1138 1.376 . S
C1139 C1140 1.388 . S
C1140 H1127 0.930 . S
C1140 C1139 1.388 . S
C1140 C1141 1.390 . S
C1141 C1140 1.390 . S
C1141 C1142 1.394 . S
C1141 C1147 1.465 . S
C1142 C1137 1.399 . S
C1142 C1141 1.394 . S
C1142 C1143 1.516 . S
C1143 C1142 1.516 . S
C1143 C1144 1.502 . S
C1143 C1145 1.561 . S
C1143 C1146 1.526 . S
C1144 H1128 0.959 . S
C1144 H1129 0.959 . S
C1144 H1130 0.961 . S
C1144 C1143 1.502 . S
C1145 H1131 0.960 . S
C1145 H1132 0.961 . S
C1145 H1133 0.959 . S
C1145 C1143 1.561 . S
C1146 C1143 1.526 . S
C1146 C1147 1.396 . S
C1146 C1151 1.390 . S
C1147 C1141 1.465 . S
C1147 C1146 1.396 . S
C1147 C1148 1.399 . S
C1148 H1134 0.929 . S
C1148 C1147 1.399 . S
C1148 C1149 1.385 . S
C1149 H1135 0.931 . S
C1149 C1148 1.385 . S
C1149 C1150 1.389 . S
C1150 C1149 1.389 . S
C1150 C1151 1.387 . S
C1151 H1136 0.930 . S
C1151 C1146 1.390 . S
C1151 C1150 1.387 . S
H1152 C1164 0.930 . S
H1153 C1166 0.930 . S
H1154 C1167 0.930 . S
H1155 C1171 0.959 . S
H1156 C1171 0.959 . S
H1157 C1171 0.961 . S
H1158 C1172 0.960 . S
H1159 C1172 0.961 . S
H1160 C1172 0.959 . S
H1161 C1175 0.929 . S
H1162 C1176 0.931 . S
H1163 C1178 0.930 . S
C1164 H1152 0.930 . S
C1164 C1165 1.399 . S
C1164 C1169 1.399 . S
C1165 C1164 1.399 . S
C1165 C1166 1.376 . S
C1166 H1153 0.930 . S
C1166 C1165 1.376 . S
C1166 C1167 1.388 . S
C1167 H1154 0.930 . S
C1167 C1166 1.388 . S
C1167 C1168 1.390 . S
C1168 C1167 1.390 . S
C1168 C1169 1.394 . S
C1168 C1174 1.465 . S
C1169 C1164 1.399 . S
C1169 C1168 1.394 . S
C1169 C1170 1.516 . S
C1170 C1169 1.516 . S
C1170 C1171 1.502 . S
C1170 C1172 1.561 . S
C1170 C1173 1.526 . S
C1171 H1155 0.959 . S
C1171 H1156 0.959 . S
C1171 H1157 0.961 . S
C1171 C1170 1.502 . S
C1172 H1158 0.960 . S
C1172 H1159 0.961 . S
C1172 H1160 0.959 . S
C1172 C1170 1.561 . S
C1173 C1170 1.526 . S
C1173 C1174 1.396 . S
C1173 C1178 1.390 . S
C1174 C1168 1.465 . S
C1174 C1173 1.396 . S
C1174 C1175 1.399 . S
C1175 H1161 0.929 . S
C1175 C1174 1.399 . S
C1175 C1176 1.385 . S
C1176 H1162 0.931 . S
C1176 C1175 1.385 . S
C1176 C1177 1.389 . S
C1177 C1176 1.389 . S
C1177 C1178 1.387 . S
C1178 H1163 0.930 . S
C1178 C1173 1.390 . S
C1178 C1177 1.387 . S
H1179 C1191 0.930 . S
H1180 C1193 0.930 . S
H1181 C1194 0.930 . S
H1182 C1198 0.959 . S
H1183 C1198 0.959 . S
H1184 C1198 0.961 . S
H1185 C1199 0.960 . S
H1186 C1199 0.961 . S
H1187 C1199 0.959 . S
H1188 C1202 0.929 . S
H1189 C1203 0.931 . S
H1190 C1205 0.930 . S
C1191 H1179 0.930 . S
C1191 C1192 1.399 . S
C1191 C1196 1.399 . S
C1192 C1191 1.399 . S
C1192 C1193 1.376 . S
C1193 H1180 0.930 . S
C1193 C1192 1.376 . S
C1193 C1194 1.388 . S
C1194 H1181 0.930 . S
C1194 C1193 1.388 . S
C1194 C1195 1.390 . S
C1195 C1194 1.390 . S
C1195 C1196 1.394 . S
C1195 C1201 1.465 . S
C1196 C1191 1.399 . S
C1196 C1195 1.394 . S
C1196 C1197 1.516 . S
C1197 C1196 1.516 . S
C1197 C1198 1.502 . S
C1197 C1199 1.561 . S
C1197 C1200 1.526 . S
C1198 H1182 0.959 . S
C1198 H1183 0.959 . S
C1198 H1184 0.961 . S
C1198 C1197 1.502 . S
C1199 H1185 0.960 . S
C1199 H1186 0.961 . S
C1199 H1187 0.959 . S
C1199 C1197 1.561 . S
C1200 C1197 1.526 . S
C1200 C1201 1.396 . S
C1200 C1205 1.390 . S
C1201 C1195 1.465 . S
C1201 C1200 1.396 . S
C1201 C1202 1.399 . S
C1202 H1188 0.929 . S
C1202 C1201 1.399 . S
C1202 C1203 1.385 . S
C1203 H1189 0.931 . S
C1203 C1202 1.385 . S
C1203 C1204 1.389 . S
C1204 C1203 1.389 . S
C1204 C1205 1.387 . S
C1205 H1190 0.930 . S
C1205 C1200 1.390 . S
C1205 C1204 1.387 . S
C409 C117 1.517 . S
C421 C18 1.526 . S
C436 C51 1.512 . S
C448 C150 1.497 . S
C463 C84 1.504 . S
C475 C183 1.497 . S
C490 C216 1.513 . S
C502 C315 1.497 . S
C517 C348 1.502 . S
C529 C249 1.497 . S
C544 C381 1.516 . S
C556 C282 1.526 . S
C571 C252 0.665 . S
C583 C21 0.739 . S
C598 C54 0.778 . S
C610 C285 0.682 . S
C625 C318 0.792 . S
C637 C87 0.691 . S
C652 C120 0.711 . S
C664 C351 0.816 . S
C679 C384 0.828 . S
C691 C153 0.862 . S
C706 C186 0.849 . S
C718 C219 0.852 . S
C733 C7 1.128 . S
C745 C106 1.158 . S
C760 C40 1.125 . S
C772 C139 1.157 . S
C787 C73 1.089 . S
C799 C172 1.062 . S
C814 C205 1.158 . S
C826 C304 1.145 . S
C841 C238 1.139 . S
C853 C337 1.158 . S
C868 C271 1.133 . S
C880 C370 1.159 . S
C895 N332 0.873 1_455 S
C907 N2 0.852 . S
C922 N35 0.818 1_655 S
C934 N365 0.781 1_545 S
C949 N200 0.843 . S
C961 N68 0.794 1_565 S
C976 N101 0.873 . S
C988 N233 0.841 1_655 S
C1003 N266 0.856 1_565 S
C1015 N134 0.871 1_455 S
C1030 N167 0.839 1_545 S
C1042 N299 0.871 . S
C1057 N13 1.719 . S
C1069 N277 1.723 . S
C1084 N46 1.800 . S
C1096 N310 1.792 . S
C1111 N343 1.721 . S
C1123 N79 1.720 . S
C1138 N376 1.741 . S
C1150 N112 1.751 . S
C1165 N145 1.808 . S
C1177 N211 1.804 . S
C1192 N178 1.758 . S
C1204 N244 1.748 . S
