# Generated by pormake.
# Topology upa, (4)-cn, num edge types: 1
# Building blocks:
#     Node 0, Type 0, BuildingBlock: KUFVIS_clean_sbu_0, # of connection points: 4
#     Node 1, Type 0, BuildingBlock: KUFVIS_clean_sbu_0, # of connection points: 4
#     Node 2, Type 0, BuildingBlock: KUFVIS_clean_sbu_0, # of connection points: 4
#     Node 3, Type 0, BuildingBlock: KUFVIS_clean_sbu_0, # of connection points: 4
#     Node 4, Type 0, BuildingBlock: KUFVIS_clean_sbu_0, # of connection points: 4
#     Node 5, Type 0, BuildingBlock: KUFVIS_clean_sbu_0, # of connection points: 4
#     Node 6, Type 0, BuildingBlock: KUFVIS_clean_sbu_0, # of connection points: 4
#     Node 7, Type 0, BuildingBlock: KUFVIS_clean_sbu_0, # of connection points: 4
#     Edge 8, Type (0, 0), BuildingBlock: TEMPAE_clean_linker_10, # of connection points: 2
#     Edge 9, Type (0, 0), BuildingBlock: TEMPAE_clean_linker_10, # of connection points: 2
#     Edge 10, Type (0, 0), BuildingBlock: TEMPAE_clean_linker_10, # of connection points: 2
#     Edge 11, Type (0, 0), BuildingBlock: TEMPAE_clean_linker_10, # of connection points: 2
#     Edge 12, Type (0, 0), BuildingBlock: TEMPAE_clean_linker_10, # of connection points: 2
#     Edge 13, Type (0, 0), BuildingBlock: TEMPAE_clean_linker_10, # of connection points: 2
#     Edge 14, Type (0, 0), BuildingBlock: TEMPAE_clean_linker_10, # of connection points: 2
#     Edge 15, Type (0, 0), BuildingBlock: TEMPAE_clean_linker_10, # of connection points: 2
#     Edge 16, Type (0, 0), BuildingBlock: TEMPAE_clean_linker_10, # of connection points: 2
#     Edge 17, Type (0, 0), BuildingBlock: TEMPAE_clean_linker_10, # of connection points: 2
#     Edge 18, Type (0, 0), BuildingBlock: TEMPAE_clean_linker_10, # of connection points: 2
#     Edge 19, Type (0, 0), BuildingBlock: TEMPAE_clean_linker_10, # of connection points: 2
#     Edge 20, Type (0, 0), BuildingBlock: TEMPAE_clean_linker_10, # of connection points: 2
#     Edge 21, Type (0, 0), BuildingBlock: TEMPAE_clean_linker_10, # of connection points: 2
#     Edge 22, Type (0, 0), BuildingBlock: TEMPAE_clean_linker_10, # of connection points: 2
#     Edge 23, Type (0, 0), BuildingBlock: TEMPAE_clean_linker_10, # of connection points: 2
# Relax obj value: 0.188
# Max RMSD: 0.139
# Mean RMSD: 0.139
data_MOF--net-upa--node1-KUFVIS_clean_sbu_0--edge1-TEMPAE_clean_linker_10
_symmetry_space_group_name_H-M    P1
_symmetry_Int_Tables_number       1
_symmetry_cell_setting            triclinic
loop_
_symmetry_equiv_pos_as_xyz
'x, y, z'
_cell_length_a     25.685181
_cell_length_b     25.685135
_cell_length_c     44.795541
_cell_angle_alpha  89.99819
_cell_angle_beta   89.996374
_cell_angle_gamma 90.017763
loop_
_atom_site_label
_atom_site_type_symbol
_atom_site_fract_x
_atom_site_fract_y
_atom_site_fract_z
_atom_type_partial_charge
Mn0 Mn 0.19398 0.21005 0.3425 0.0
Mn1 Mn 0.25818 0.10735 0.37176 0.0
C2 C 0.14835 0.14268 0.36429 0.0
C3 C 0.14693 0.24875 0.30347 0.0
C4 C 0.24606 0.2098 0.40426 0.0
O5 O 0.2668 0.21803 0.32388 0.0
O6 O 0.30508 0.14848 0.34534 0.0
C7 C 0.2744 0.04816 0.3158 0.0
N8 N 0.2554 0.05068 0.34415 0.0
C9 C 0.2247 0.96226 0.34158 0.0
C10 C 0.24419 0.95862 0.31241 0.0
C11 C 0.26906 1.0018 0.29946 0.0
C12 C 0.23138 0.00937 0.35682 0.0
H13 H 0.29344 0.08128 0.30573 0.0
C14 C 0.30644 0.18869 0.32837 0.0
O15 O 0.166 0.27653 0.32515 0.0
O16 O 0.1605 0.20025 0.30279 0.0
N17 N 0.21742 0.06398 0.39749 0.0
C18 C 0.19788 0.07498 0.42507 0.0
C19 C 0.17008 0.03652 0.44064 0.0
C20 C 0.16314 0.98707 0.42786 0.0
C21 C 0.18395 0.97655 0.39956 0.0
C22 C 0.21143 0.01636 0.38512 0.0
H23 H 0.20304 0.11294 0.435 0.0
O24 O 0.12795 0.18845 0.36163 0.0
O25 O 0.19534 0.13705 0.35374 0.0
O26 O 0.22098 0.23375 0.38376 0.0
O27 O 0.2619 0.16291 0.40196 0.0
C28 C 0.17772 0.92844 0.38487 0.0
C29 C 0.19806 0.9213 0.3559 0.0
H30 H 0.2399 0.92303 0.29967 0.0
H31 H 0.284 0.99937 0.27691 0.0
H32 H 0.15401 0.04499 0.46244 0.0
H33 H 0.14156 0.95757 0.43992 0.0
H34 H 0.15674 0.89688 0.39549 0.0
H35 H 0.19231 0.8844 0.34466 0.0
Mn36 Mn 0.30886 0.69284 0.8431 0.0
Mn37 Mn 0.41045 0.758 0.87297 0.0
C38 C 0.37618 0.64789 0.86536 0.0
C39 C 0.27132 0.64536 0.80383 0.0
C40 C 0.30749 0.74499 0.90483 0.0
O41 O 0.30066 0.76556 0.82436 0.0
O42 O 0.36948 0.80447 0.84625 0.0
C43 C 0.47059 0.77459 0.81737 0.0
N44 N 0.46767 0.75564 0.84571 0.0
C45 C 0.55633 0.72554 0.84369 0.0
C46 C 0.56037 0.745 0.81453 0.0
C47 C 0.51728 0.76954 0.80131 0.0
C48 C 0.5089 0.73193 0.85865 0.0
H49 H 0.43754 0.79337 0.80708 0.0
C50 C 0.3296 0.80546 0.82901 0.0
O51 O 0.24296 0.66423 0.82532 0.0
O52 O 0.31972 0.65936 0.80347 0.0
N53 N 0.45364 0.71767 0.899 0.0
C54 C 0.44227 0.69812 0.92653 0.0
C55 C 0.48061 0.67061 0.94235 0.0
C56 C 0.53032 0.66396 0.92986 0.0
C57 C 0.54124 0.6848 0.90161 0.0
C58 C 0.50152 0.71198 0.88692 0.0
H59 H 0.4041 0.70306 0.93623 0.0
O60 O 0.33065 0.62703 0.86241 0.0
O61 O 0.3816 0.69489 0.8548 0.0
O62 O 0.28414 0.71967 0.88419 0.0
O63 O 0.35428 0.76129 0.9028 0.0
C64 C 0.58965 0.67887 0.88721 0.0
C65 C 0.59719 0.69921 0.85827 0.0
H66 H 0.59622 0.74092 0.80201 0.0
H67 H 0.52003 0.78445 0.77876 0.0
H68 H 0.47185 0.65452 0.96411 0.0
H69 H 0.55973 0.64257 0.94209 0.0
H70 H 0.62114 0.65814 0.89802 0.0
H71 H 0.63432 0.69369 0.84726 0.0
Mn72 Mn 0.82371 0.80851 0.34252 0.0
Mn73 Mn 0.75914 0.91091 0.37186 0.0
C74 C 0.86909 0.87608 0.36426 0.0
C75 C 0.87081 0.77 0.30343 0.0
C76 C 0.77193 0.80856 0.40436 0.0
O77 O 0.75087 0.8002 0.32397 0.0
O78 O 0.71232 0.86951 0.34553 0.0
C79 C 0.74237 0.96994 0.31589 0.0
N80 N 0.76151 0.96755 0.34421 0.0
C81 C 0.79187 0.05608 0.34152 0.0
C82 C 0.77222 0.05958 0.31238 0.0
C83 C 0.74745 0.01628 0.2995 0.0
C84 C 0.78544 1.00898 0.35681 0.0
H85 H 0.72341 0.93672 0.30587 0.0
C86 C 0.7111 0.82932 0.32854 0.0
O87 O 0.85192 0.74215 0.32513 0.0
O88 O 0.85703 0.81845 0.30276 0.0
N89 N 0.79978 0.95452 0.3975 0.0
C90 C 0.81945 0.94368 0.42507 0.0
C91 C 0.84715 0.98229 0.44058 0.0
C92 C 0.85386 0.03173 0.42774 0.0
C93 C 0.83291 0.04209 0.39945 0.0
C94 C 0.80553 1.00214 0.38509 0.0
H95 H 0.81446 0.90573 0.43504 0.0
O96 O 0.88971 0.83041 0.36156 0.0
O97 O 0.82205 0.8815 0.35375 0.0
O98 O 0.79698 0.7847 0.38381 0.0
O99 O 0.75584 0.85537 0.40208 0.0
C100 C 0.83891 0.09019 0.38471 0.0
C101 C 0.81842 0.09718 0.35577 0.0
H102 H 0.77632 0.09516 0.29961 0.0
H103 H 0.73239 0.01861 0.27698 0.0
H104 H 0.86333 0.97394 0.46237 0.0
H105 H 0.87538 0.06134 0.43974 0.0
H106 H 0.85983 0.12184 0.39527 0.0
H107 H 0.82398 0.13407 0.34449 0.0
Mn108 Mn 0.71171 0.32598 0.8433 0.0
Mn109 Mn 0.61027 0.26063 0.87321 0.0
C110 C 0.64431 0.37081 0.86556 0.0
C111 C 0.7491 0.37351 0.804 0.0
C112 C 0.71322 0.27385 0.90504 0.0
O113 O 0.72003 0.25326 0.82458 0.0
O114 O 0.65129 0.21422 0.84648 0.0
C115 C 0.55006 0.24391 0.81765 0.0
N116 N 0.55301 0.2629 0.84599 0.0
C117 C 0.46431 0.29291 0.84399 0.0
C118 C 0.46025 0.27341 0.81485 0.0
C119 C 0.50335 0.24889 0.80161 0.0
C120 C 0.51177 0.28657 0.85894 0.0
H121 H 0.58312 0.22515 0.80736 0.0
C122 C 0.69116 0.21332 0.82924 0.0
O123 O 0.77753 0.35472 0.82548 0.0
O124 O 0.70073 0.35941 0.80368 0.0
N125 N 0.56706 0.30091 0.89926 0.0
C126 C 0.57844 0.32051 0.92678 0.0
C127 C 0.54011 0.34802 0.94259 0.0
C128 C 0.49038 0.35463 0.93012 0.0
C129 C 0.47944 0.33373 0.90189 0.0
C130 C 0.51916 0.30655 0.8872 0.0
H131 H 0.61663 0.31562 0.93646 0.0
O132 O 0.6898 0.39175 0.8626 0.0
O133 O 0.63899 0.32378 0.85502 0.0
O134 O 0.73652 0.29923 0.8844 0.0
O135 O 0.66648 0.25744 0.90301 0.0
C136 C 0.43101 0.33961 0.88751 0.0
C137 C 0.42345 0.31923 0.85859 0.0
H138 H 0.42438 0.27744 0.80234 0.0
H139 H 0.50059 0.23395 0.77908 0.0
H140 H 0.54888 0.36415 0.96434 0.0
H141 H 0.46098 0.37604 0.94235 0.0
H142 H 0.39952 0.36033 0.89833 0.0
H143 H 0.3863 0.3247 0.84758 0.0
Mn144 Mn 0.69406 0.30901 0.18458 0.0
Mn145 Mn 0.75831 0.41167 0.15527 0.0
C146 C 0.64848 0.37627 0.16269 0.0
C147 C 0.64694 0.27041 0.22364 0.0
C148 C 0.74625 0.30914 0.12286 0.0
O149 O 0.76685 0.30113 0.20325 0.0
O150 O 0.80516 0.37064 0.18175 0.0
C151 C 0.77439 0.471 0.2112 0.0
N152 N 0.75546 0.4684 0.18284 0.0
C153 C 0.72466 0.55678 0.18535 0.0
C154 C 0.74409 0.5605 0.21452 0.0
C155 C 0.76897 0.51738 0.22751 0.0
C156 C 0.73142 0.50965 0.17013 0.0
H157 H 0.79343 0.43792 0.2213 0.0
C158 C 0.8065 0.33047 0.19875 0.0
O159 O 0.66604 0.24257 0.202 0.0
O160 O 0.66052 0.31892 0.22426 0.0
N161 N 0.71761 0.45496 0.12948 0.0
C162 C 0.69815 0.44389 0.10189 0.0
C163 C 0.67037 0.48229 0.08627 0.0
C164 C 0.66335 0.53174 0.09903 0.0
C165 C 0.68408 0.54234 0.12734 0.0
C166 C 0.71155 0.50259 0.14182 0.0
H167 H 0.70338 0.40592 0.09198 0.0
O168 O 0.62806 0.3305 0.1654 0.0
O169 O 0.69544 0.38196 0.17327 0.0
O170 O 0.72113 0.28521 0.14336 0.0
O171 O 0.76209 0.35604 0.12512 0.0
C172 C 0.67776 0.59046 0.142 0.0
C173 C 0.69802 0.59768 0.17098 0.0
H174 H 0.73973 0.5961 0.22724 0.0
H175 H 0.78386 0.51987 0.25007 0.0
H176 H 0.65437 0.47377 0.06446 0.0
H177 H 0.64177 0.56119 0.08694 0.0
H178 H 0.65678 0.62197 0.13135 0.0
H179 H 0.69221 0.63458 0.1822 0.0
Mn180 Mn 0.21209 0.19279 0.68388 0.0
Mn181 Mn 0.11043 0.25791 0.6541 0.0
C182 C 0.14468 0.1478 0.66171 0.0
C183 C 0.24973 0.14536 0.72312 0.0
C184 C 0.21328 0.2449 0.62213 0.0
O185 O 0.22038 0.26554 0.70258 0.0
O186 O 0.15146 0.3044 0.68078 0.0
C187 C 0.0504 0.27449 0.70973 0.0
N188 N 0.05326 0.25553 0.68139 0.0
C189 C 0.96458 0.22544 0.68346 0.0
C190 C 0.9606 0.24491 0.71261 0.0
C191 C 1.00373 0.26945 0.72581 0.0
C192 C 0.012 0.23182 0.66847 0.0
H193 H 0.08348 0.29327 0.71999 0.0
C194 C 0.19141 0.30541 0.69796 0.0
O195 O 0.27803 0.16421 0.7016 0.0
O196 O 0.20134 0.15936 0.72352 0.0
N197 N 0.06718 0.21755 0.62809 0.0
C198 C 0.0785 0.19798 0.60056 0.0
C199 C 0.04011 0.17047 0.58477 0.0
C200 C 0.99041 0.16383 0.59729 0.0
C201 C 0.97956 0.18469 0.62554 0.0
C202 C 0.01932 0.21187 0.6402 0.0
H203 H 0.11665 0.20291 0.59084 0.0
O204 O 0.1902 0.12696 0.66462 0.0
O205 O 0.13932 0.19482 0.67225 0.0
O206 O 0.23669 0.21957 0.64274 0.0
O207 O 0.16653 0.26122 0.62423 0.0
C208 C 0.93116 0.17877 0.63996 0.0
C209 C 0.92368 0.19912 0.6689 0.0
H210 H 0.92476 0.24084 0.72516 0.0
H211 H 1.00103 0.28437 0.74836 0.0
H212 H 0.04883 0.15438 0.56301 0.0
H213 H 0.96098 0.14244 0.58507 0.0
H214 H 0.89963 0.15805 0.62916 0.0
H215 H 0.88656 0.19361 0.67993 0.0
Mn216 Mn 0.32363 0.70963 0.18441 0.0
Mn217 Mn 0.2591 0.60741 0.1548 0.0
C218 C 0.36903 0.64229 0.16248 0.0
C219 C 0.37075 0.74782 0.2236 0.0
C220 C 0.27182 0.71007 0.12259 0.0
O221 O 0.25079 0.71769 0.20299 0.0
O222 O 0.21228 0.64849 0.18128 0.0
C223 C 0.2424 0.54781 0.21058 0.0
N224 N 0.26155 0.55051 0.18227 0.0
C225 C 0.29206 0.46202 0.18469 0.0
C226 C 0.27241 0.4582 0.21381 0.0
C227 C 0.24756 0.50132 0.22682 0.0
C228 C 0.28554 0.50925 0.16953 0.0
H229 H 0.22338 0.58088 0.2207 0.0
C230 C 0.21104 0.68855 0.19837 0.0
O231 O 0.35183 0.77586 0.20199 0.0
O232 O 0.35696 0.69936 0.22413 0.0
N233 N 0.29978 0.56411 0.12901 0.0
C234 C 0.31946 0.57527 0.10147 0.0
C235 C 0.34727 0.53688 0.08586 0.0
C236 C 0.35409 0.48735 0.09856 0.0
C237 C 0.33311 0.47666 0.1268 0.0
C238 C 0.30563 0.5164 0.14128 0.0
H239 H 0.31441 0.6133 0.09162 0.0
O240 O 0.38963 0.68796 0.1653 0.0
O241 O 0.32199 0.63674 0.17297 0.0
O242 O 0.2969 0.73377 0.14319 0.0
O243 O 0.25574 0.66323 0.12475 0.0
C244 C 0.3392 0.42845 0.1414 0.0
C245 C 0.3187 0.42113 0.17031 0.0
H246 H 0.27657 0.42252 0.22648 0.0
H247 H 0.2325 0.49875 0.24934 0.0
H248 H 0.36346 0.54548 0.06411 0.0
H249 H 0.37571 0.45792 0.08648 0.0
H250 H 0.36019 0.39694 0.13075 0.0
H251 H 0.32434 0.38415 0.18148 0.0
Mn252 Mn 0.8087 0.82603 0.68396 0.0
Mn253 Mn 0.91015 0.76066 0.65411 0.0
C254 C 0.87619 0.87084 0.66175 0.0
C255 C 0.77122 0.87356 0.72322 0.0
C256 C 0.80729 0.77394 0.62221 0.0
O257 O 0.80029 0.75332 0.70269 0.0
O258 O 0.86898 0.71425 0.68078 0.0
C259 C 0.97014 0.74383 0.70973 0.0
N260 N 0.96732 0.76285 0.6814 0.0
C261 C 0.05606 0.79275 0.6835 0.0
C262 C 0.06 0.77322 0.71264 0.0
C263 C 0.01681 0.74875 0.72583 0.0
C264 C 1.00864 0.78649 0.6685 0.0
H265 H 0.93701 0.7251 0.71999 0.0
C266 C 0.8291 0.71335 0.69801 0.0
O267 O 0.74285 0.85476 0.70172 0.0
O268 O 0.81959 0.85947 0.7236 0.0
N269 N 0.95351 0.80093 0.62812 0.0
C270 C 0.94226 0.82055 0.6006 0.0
C271 C 0.98071 0.84801 0.58482 0.0
C272 C 0.03041 0.85454 0.59735 0.0
C273 C 0.04121 0.83362 0.62559 0.0
C274 C 1.00138 0.80649 0.64024 0.0
H275 H 0.9041 0.81572 0.59087 0.0
O276 O 0.83071 0.8918 0.66467 0.0
O277 O 0.88145 0.82382 0.67229 0.0
O278 O 0.78397 0.79927 0.64285 0.0
O279 O 0.85403 0.75755 0.62425 0.0
C280 C 0.0896 0.83942 0.64002 0.0
C281 C 0.09702 0.81902 0.66895 0.0
H282 H 0.09583 0.77719 0.72519 0.0
H283 H 0.01947 0.73378 0.74836 0.0
H284 H 0.97204 0.86416 0.56307 0.0
H285 H 0.0599 0.8759 0.58515 0.0
H286 H 0.12117 0.86011 0.62924 0.0
H287 H 0.13415 0.82444 0.68 0.0
C288 C 0.07499 0.10604 0.39329 0.0
C289 C 0.11346 0.09913 0.37149 0.0
C290 C 0.03381 0.07056 0.39617 0.0
C291 C 0.03167 0.02684 0.37701 0.0
C292 C 0.07193 0.0184 0.35593 0.0
C293 C 0.11151 0.05557 0.35282 0.0
C294 C 0.99081 0.08195 0.41818 0.0
C295 C 0.07194 0.97129 0.33576 0.0
C296 C 0.9422 0.913 0.39333 0.0
C297 C 0.90378 0.91977 0.37148 0.0
C298 C 0.98327 0.94861 0.39623 0.0
C299 C 0.98534 0.99229 0.37704 0.0
C300 C 0.94509 1.00062 0.35594 0.0
C301 C 0.90562 0.96334 0.35282 0.0
C302 C 0.02624 0.93734 0.41827 0.0
C303 C 0.94499 0.04771 0.33576 0.0
H304 H 0.0758 0.14066 0.40715 0.0
H305 H 0.13965 0.0517 0.33494 0.0
H306 H 0.95565 0.09464 0.40578 0.0
H307 H 0.98018 0.04654 0.43097 0.0
H308 H 1.00174 0.11319 0.43415 0.0
H309 H 0.10776 0.96888 0.32194 0.0
H310 H 0.06861 0.93527 0.34931 0.0
H311 H 0.03782 0.97257 0.3206 0.0
H312 H 0.94147 0.87838 0.40718 0.0
H313 H 0.87748 0.96712 0.33493 0.0
H314 H 0.03695 0.97283 0.43095 0.0
H315 H 0.06136 0.92446 0.4059 0.0
H316 H 0.01525 0.90626 0.43433 0.0
H317 H 0.90914 0.05007 0.32196 0.0
H318 H 0.97908 0.04646 0.32058 0.0
H319 H 0.9483 0.08375 0.34929 0.0
C320 C 0.4637 0.6118 0.85432 0.0
C321 C 0.41993 0.61346 0.87282 0.0
C322 C 0.50115 0.57257 0.85763 0.0
C323 C 0.49282 0.53238 0.87877 0.0
C324 C 0.44896 0.53431 0.89783 0.0
C325 C 0.41314 0.57512 0.89472 0.0
C326 C 0.54838 0.57279 0.83754 0.0
C327 C 0.43777 0.49142 0.91994 0.0
C328 C 0.55675 0.40672 0.85446 0.0
C329 C 0.60049 0.40516 0.87299 0.0
C330 C 0.51925 0.44592 0.85771 0.0
C331 C 0.5275 0.48618 0.87882 0.0
C332 C 0.57132 0.48434 0.89791 0.0
C333 C 0.60719 0.44356 0.89486 0.0
C334 C 0.47207 0.4456 0.8376 0.0
C335 C 0.58243 0.5273 0.91999 0.0
H336 H 0.46752 0.63986 0.83639 0.0
H337 H 0.37837 0.57572 0.90846 0.0
H338 H 0.58434 0.56957 0.85115 0.0
H339 H 0.54727 0.5387 0.82237 0.0
H340 H 0.55075 0.60865 0.82375 0.0
H341 H 0.40651 0.50234 0.9359 0.0
H342 H 0.42521 0.45612 0.90764 0.0
H343 H 0.47324 0.48104 0.93274 0.0
H344 H 0.553 0.37861 0.83656 0.0
H345 H 0.64193 0.44304 0.90862 0.0
H346 H 0.47319 0.47963 0.82238 0.0
H347 H 0.43608 0.44885 0.85118 0.0
H348 H 0.46974 0.40968 0.82385 0.0
H349 H 0.59519 0.56251 0.90766 0.0
H350 H 0.61355 0.51638 0.93603 0.0
H351 H 0.5469 0.53783 0.93268 0.0
C352 C 0.57529 0.41278 0.13351 0.0
C353 C 0.61362 0.41976 0.15539 0.0
C354 C 0.5341 0.4482 0.13054 0.0
C355 C 0.53181 0.49192 0.14968 0.0
C356 C 0.57194 0.50045 0.17083 0.0
C357 C 0.61154 0.46335 0.17403 0.0
C358 C 0.49126 0.43674 0.10844 0.0
C359 C 0.57178 0.54757 0.191 0.0
C360 C 0.44221 0.60559 0.13338 0.0
C361 C 0.40375 0.59868 0.1552 0.0
C362 C 0.48332 0.57007 0.13047 0.0
C363 C 0.4854 0.52633 0.14961 0.0
C364 C 0.4451 0.51784 0.17066 0.0
C365 C 0.40558 0.55504 0.1738 0.0
C366 C 0.52634 0.5815 0.10848 0.0
C367 C 0.44502 0.47069 0.1908 0.0
H368 H 0.57621 0.37813 0.11968 0.0
H369 H 0.63958 0.46729 0.19195 0.0
H370 H 0.45602 0.42401 0.12077 0.0
H371 H 0.48068 0.47213 0.09563 0.0
H372 H 0.50232 0.40551 0.0925 0.0
H373 H 0.60755 0.55009 0.20486 0.0
H374 H 0.56841 0.58358 0.17745 0.0
H375 H 0.53762 0.54618 0.20613 0.0
H376 H 0.44148 0.64028 0.11957 0.0
H377 H 0.37741 0.55114 0.19166 0.0
H378 H 0.53719 0.54605 0.0958 0.0
H379 H 0.56138 0.59449 0.12088 0.0
H380 H 0.51531 0.61254 0.09241 0.0
H381 H 0.44848 0.4347 0.17724 0.0
H382 H 0.40911 0.46819 0.20455 0.0
H383 H 0.47903 0.47201 0.20603 0.0
C384 C 0.05716 0.11175 0.67284 0.0
C385 C 0.10089 0.11336 0.6543 0.0
C386 C 0.01966 0.07252 0.66958 0.0
C387 C 0.02791 0.03229 0.64847 0.0
C388 C 0.07175 0.03415 0.62939 0.0
C389 C 0.10761 0.07497 0.63244 0.0
C390 C 0.97246 0.07281 0.68969 0.0
C391 C 0.08287 0.9912 0.6073 0.0
C392 C 0.96379 0.90672 0.67285 0.0
C393 C 0.92004 0.90518 0.65432 0.0
C394 C 1.00134 0.94589 0.66958 0.0
C395 C 0.99315 0.98612 0.64845 0.0
C396 C 0.94933 0.98429 0.62936 0.0
C397 C 0.91341 0.94354 0.63243 0.0
C398 C 0.04853 0.94555 0.68969 0.0
C399 C 0.93828 0.02723 0.60726 0.0
H400 H 0.05339 0.13985 0.69075 0.0
H401 H 0.14235 0.07552 0.61868 0.0
H402 H 0.97353 0.03874 0.70488 0.0
H403 H 0.97016 0.10869 0.70347 0.0
H404 H 0.93648 0.06962 0.67609 0.0
H405 H 0.09543 0.95593 0.61964 0.0
H406 H 0.04738 0.98079 0.59454 0.0
H407 H 0.11411 1.00207 0.59132 0.0
H408 H 0.9675 0.87863 0.69077 0.0
H409 H 0.87866 0.94303 0.61867 0.0
H410 H 0.04748 0.97961 0.70489 0.0
H411 H 0.08453 0.94873 0.6761 0.0
H412 H 0.0508 0.90966 0.70346 0.0
H413 H 0.92561 0.06248 0.61957 0.0
H414 H 0.90714 0.01632 0.59123 0.0
H415 H 0.97383 0.0377 0.59455 0.0
C416 C 0.20334 0.24132 0.45026 0.0
C417 C 0.24939 0.23297 0.43428 0.0
C418 C 0.20431 0.24894 0.4813 0.0
C419 C 0.25272 0.25004 0.49654 0.0
C420 C 0.29957 0.24582 0.48 0.0
C421 C 0.2973 0.23595 0.44913 0.0
C422 C 0.15332 0.25161 0.49805 0.0
C423 C 0.35197 0.24887 0.49511 0.0
C424 C 0.23896 0.29546 0.57694 0.0
C425 C 0.23681 0.24788 0.59218 0.0
C426 C 0.24865 0.29715 0.54604 0.0
C427 C 0.25357 0.24998 0.52988 0.0
C428 C 0.25355 0.20195 0.54551 0.0
C429 C 0.24607 0.20161 0.57657 0.0
C430 C 0.25059 0.34922 0.53049 0.0
C431 C 0.25701 0.15061 0.52917 0.0
H432 H 0.16628 0.2376 0.43884 0.0
H433 H 0.33287 0.22875 0.43676 0.0
H434 H 0.14981 0.21737 0.51305 0.0
H435 H 0.15201 0.28691 0.51226 0.0
H436 H 0.11919 0.25213 0.48282 0.0
H437 H 0.384 0.25457 0.47876 0.0
H438 H 0.35275 0.28129 0.51149 0.0
H439 H 0.35943 0.21227 0.50752 0.0
H440 H 0.23111 0.33121 0.58901 0.0
H441 H 0.24303 0.16476 0.58829 0.0
H442 H 0.21366 0.35575 0.51822 0.0
H443 H 0.28273 0.35015 0.51394 0.0
H444 H 0.25598 0.38173 0.54655 0.0
H445 H 0.22243 0.14588 0.51455 0.0
H446 H 0.25882 0.11692 0.54469 0.0
H447 H 0.29191 0.14978 0.51462 0.0
C448 C 0.28142 0.79566 0.94991 0.0
C449 C 0.28381 0.74802 0.93474 0.0
C450 C 0.27135 0.79744 0.98077 0.0
C451 C 0.26631 0.75033 0.99697 0.0
C452 C 0.26664 0.70223 0.98141 0.0
C453 C 0.27448 0.70179 0.95037 0.0
C454 C 0.26911 0.84956 0.99624 0.0
C455 C 0.26306 0.65095 0.9978 0.0
C456 C 0.31522 0.74193 0.07687 0.0
C457 C 0.26892 0.7334 0.09259 0.0
C458 C 0.31476 0.74957 0.04582 0.0
C459 C 0.2666 0.7505 0.03032 0.0
C460 C 0.21949 0.74616 0.0466 0.0
C461 C 0.22126 0.73627 0.07748 0.0
C462 C 0.36601 0.75236 0.02935 0.0
C463 C 0.16734 0.74907 0.03119 0.0
H464 H 0.28932 0.83137 0.93782 0.0
H465 H 0.27771 0.66491 0.93872 0.0
H466 H 0.23671 0.85049 1.01263 0.0
H467 H 0.30583 0.85622 1.00869 0.0
H468 H 0.26391 0.88201 0.98011 0.0
H469 H 0.26167 0.61718 0.98232 0.0
H470 H 0.29738 0.64642 1.01264 0.0
H471 H 0.22789 0.65003 1.01213 0.0
H472 H 0.3521 0.7383 0.08848 0.0
H473 H 0.1855 0.72895 0.08964 0.0
H474 H 0.36745 0.78759 0.01509 0.0
H475 H 0.3699 0.71806 0.01444 0.0
H476 H 0.39988 0.75309 0.04478 0.0
H477 H 0.16677 0.78144 0.01479 0.0
H478 H 0.13503 0.75473 0.04736 0.0
H479 H 0.16014 0.71241 0.01877 0.0
C480 C 0.78109 0.72335 0.57712 0.0
C481 C 0.78364 0.77099 0.59229 0.0
C482 C 0.77107 0.72159 0.54626 0.0
C483 C 0.76623 0.76872 0.53004 0.0
C484 C 0.76672 0.81682 0.54561 0.0
C485 C 0.77452 0.81725 0.57664 0.0
C486 C 0.76865 0.66947 0.53079 0.0
C487 C 0.76336 0.8681 0.52921 0.0
C488 C 0.81522 0.77682 0.45015 0.0
C489 C 0.76896 0.78542 0.43441 0.0
C490 C 0.81471 0.76928 0.4812 0.0
C491 C 0.76654 0.76852 0.4967 0.0
C492 C 0.71946 0.77296 0.48041 0.0
C493 C 0.72128 0.78274 0.44952 0.0
C494 C 0.86595 0.76637 0.49768 0.0
C495 C 0.66729 0.77026 0.49581 0.0
H496 H 0.78883 0.68761 0.58922 0.0
H497 H 0.77787 0.85412 0.5883 0.0
H498 H 0.73625 0.66863 0.51441 0.0
H499 H 0.80535 0.66271 0.51834 0.0
H500 H 0.76334 0.63705 0.54692 0.0
H501 H 0.76206 0.90188 0.54468 0.0
H502 H 0.79773 0.87252 0.51439 0.0
H503 H 0.72823 0.86912 0.51486 0.0
H504 H 0.85211 0.7803 0.43853 0.0
H505 H 0.68555 0.79012 0.43735 0.0
H506 H 0.86726 0.73115 0.51195 0.0
H507 H 0.86994 0.80067 0.51258 0.0
H508 H 0.89982 0.76553 0.48226 0.0
H509 H 0.66658 0.73788 0.51222 0.0
H510 H 0.63496 0.76472 0.47965 0.0
H511 H 0.66025 0.80694 0.50823 0.0
C512 C 0.73906 0.22334 0.95021 0.0
C513 C 0.73686 0.27091 0.93496 0.0
C514 C 0.74882 0.22168 0.9811 0.0
C515 C 0.75376 0.26885 0.99725 0.0
C516 C 0.75372 0.31688 0.98161 0.0
C517 C 0.74616 0.3172 0.95055 0.0
C518 C 0.75078 0.16962 0.99666 0.0
C519 C 0.75721 0.36823 0.99793 0.0
C520 C 0.70354 0.27753 0.07687 0.0
C521 C 0.74959 0.28592 0.09285 0.0
C522 C 0.70451 0.26989 0.04583 0.0
C523 C 0.75292 0.26882 0.03059 0.0
C524 C 0.79977 0.27308 0.04712 0.0
C525 C 0.7975 0.28296 0.07799 0.0
C526 C 0.65352 0.26719 0.02909 0.0
C527 C 0.85217 0.27005 0.03201 0.0
H528 H 0.73118 0.18758 0.93816 0.0
H529 H 0.74309 0.35403 0.93883 0.0
H530 H 0.78294 0.16872 1.0132 0.0
H531 H 0.71387 0.16306 1.00895 0.0
H532 H 0.75617 0.1371 0.9806 0.0
H533 H 0.75903 0.40191 0.98241 0.0
H534 H 0.72263 0.37297 1.01255 0.0
H535 H 0.79211 0.36907 1.01247 0.0
H536 H 0.66648 0.28123 0.08829 0.0
H537 H 0.83307 0.29019 0.09035 0.0
H538 H 0.6522 0.23187 0.01489 0.0
H539 H 0.65001 0.30141 0.01408 0.0
H540 H 0.61939 0.26666 0.04432 0.0
H541 H 0.85294 0.23764 0.01562 0.0
H542 H 0.88419 0.26435 0.04835 0.0
H543 H 0.85964 0.30666 0.0196 0.0
C544 C 0.57255 0.20928 0.23366 0.0
C545 C 0.60298 0.25195 0.24258 0.0
C546 C 0.52461 0.1982 0.24764 0.0
C547 C 0.50684 0.23008 0.2714 0.0
C548 C 0.53864 0.27165 0.28141 0.0
C549 C 0.586 0.28224 0.2668 0.0
C550 C 0.49199 0.15359 0.23617 0.0
C551 C 0.52192 0.30601 0.30702 0.0
C552 C 0.36115 0.23557 0.28966 0.0
C553 C 0.35738 0.20068 0.31369 0.0
C554 C 0.40936 0.24524 0.27553 0.0
C555 C 0.45512 0.21997 0.28586 0.0
C556 C 0.45159 0.18526 0.31029 0.0
C557 C 0.40303 0.1759 0.32372 0.0
C558 C 0.41129 0.28226 0.24939 0.0
C559 C 0.49926 0.15803 0.32239 0.0
H560 H 0.58485 0.18608 0.21472 0.0
H561 H 0.60905 0.31543 0.27379 0.0
H562 H 0.48266 0.12634 0.25462 0.0
H563 H 0.45449 0.16871 0.22744 0.0
H564 H 0.51183 0.13157 0.21811 0.0
H565 H 0.55224 0.33494 0.31315 0.0
H566 H 0.48583 0.32721 0.30092 0.0
H567 H 0.51289 0.28194 0.32693 0.0
H568 H 0.32632 0.25479 0.2816 0.0
H569 H 0.40104 0.14912 0.34239 0.0
H570 H 0.42707 0.26197 0.22948 0.0
H571 H 0.43791 0.31512 0.25444 0.0
H572 H 0.37233 0.29829 0.24376 0.0
H573 H 0.51737 0.13392 0.30467 0.0
H574 H 0.49011 0.13256 0.34173 0.0
H575 H 0.52863 0.18722 0.32945 0.0
C576 C 0.34174 0.90213 0.8244 0.0
C577 C 0.31761 0.85625 0.81418 0.0
C578 C 0.33252 0.95055 0.81079 0.0
C579 C 0.29861 0.95371 0.78597 0.0
C580 C 0.27395 0.90772 0.77546 0.0
C581 C 0.28347 0.85965 0.78978 0.0
C582 C 0.35906 0.99846 0.82308 0.0
C583 C 0.23777 0.90926 0.74893 0.0
C584 C 0.23653 0.08429 0.7661 0.0
C585 C 0.26758 0.10133 0.7422 0.0
C586 C 0.24673 0.03696 0.78083 0.0
C587 C 0.28871 1.00529 0.7713 0.0
C588 C 0.32131 0.02311 0.74786 0.0
C589 C 0.31057 0.07099 0.73374 0.0
C590 C 0.21157 0.02016 0.80607 0.0
C591 C 0.36641 0.99063 0.73693 0.0
H592 H 0.36792 0.90043 0.84335 0.0
H593 H 0.26475 0.82464 0.78157 0.0
H594 H 0.3837 0.01659 0.8056 0.0
H595 H 0.32949 0.02771 0.82975 0.0
H596 H 0.3839 0.9896 0.84274 0.0
H597 H 0.22208 0.87019 0.74325 0.0
H598 H 0.20466 0.93579 0.75356 0.0
H599 H 0.25866 0.92496 0.7292 0.0
H600 H 0.20308 0.10726 0.77274 0.0
H601 H 0.33438 0.08334 0.71506 0.0
H602 H 0.23498 0.01143 0.82627 0.0
H603 H 0.19082 0.98389 0.7998 0.0
H604 H 0.18222 0.05032 0.8118 0.0
H605 H 0.39315 0.98161 0.75567 0.0
H606 H 0.38889 0.01044 0.71904 0.0
H607 H 0.35174 0.95298 0.72815 0.0
C608 C 0.61437 0.84127 0.32421 0.0
C609 C 0.66018 0.81712 0.31391 0.0
C610 C 0.56584 0.83185 0.31077 0.0
C611 C 0.56249 0.79773 0.28606 0.0
C612 C 0.60841 0.77305 0.27548 0.0
C613 C 0.65659 0.78277 0.28962 0.0
C614 C 0.51801 0.8584 0.32314 0.0
C615 C 0.60667 0.73667 0.24904 0.0
C616 C 0.43191 0.73521 0.26658 0.0
C617 C 0.41472 0.76602 0.24263 0.0
C618 C 0.47927 0.74567 0.28123 0.0
C619 C 0.51081 0.78766 0.27154 0.0
C620 C 0.49281 0.82005 0.24806 0.0
C621 C 0.44491 0.80905 0.23403 0.0
C622 C 0.49626 0.71074 0.30652 0.0
C623 C 0.52514 0.86515 0.23696 0.0
H624 H 0.61624 0.86761 0.34308 0.0
H625 H 0.69155 0.76404 0.28136 0.0
H626 H 0.49971 0.8829 0.30566 0.0
H627 H 0.48883 0.82882 0.32995 0.0
H628 H 0.52701 0.88337 0.34272 0.0
H629 H 0.64571 0.72098 0.24328 0.0
H630 H 0.58021 0.70357 0.25382 0.0
H631 H 0.5908 0.75739 0.2293 0.0
H632 H 0.40906 0.70173 0.27333 0.0
H633 H 0.43243 0.83267 0.2153 0.0
H634 H 0.50517 0.73432 0.32663 0.0
H635 H 0.53248 0.68994 0.30021 0.0
H636 H 0.46614 0.68144 0.31242 0.0
H637 H 0.53429 0.892 0.25563 0.0
H638 H 0.50516 0.88749 0.21908 0.0
H639 H 0.56274 0.8505 0.2281 0.0
C640 C 0.73718 0.15927 0.78989 0.0
C641 C 0.70326 0.16255 0.8144 0.0
C642 C 0.74676 0.11122 0.77557 0.0
C643 C 0.72239 0.06514 0.78617 0.0
C644 C 0.68871 0.06819 0.8111 0.0
C645 C 0.67942 0.11659 0.82472 0.0
C646 C 0.78267 0.10981 0.74891 0.0
C647 C 0.66249 0.02018 0.8235 0.0
C648 C 0.7103 0.9478 0.734 0.0
C649 C 0.75346 0.9176 0.74233 0.0
C650 C 0.69954 0.99565 0.74815 0.0
C651 C 0.73232 0.0136 0.77147 0.0
C652 C 0.77451 0.98208 0.78086 0.0
C653 C 0.7847 0.93477 0.76611 0.0
C654 C 0.65421 0.02797 0.73737 0.0
C655 C 0.80988 0.99902 0.80597 0.0
H656 H 0.75567 0.19435 0.78161 0.0
H657 H 0.65342 0.11821 0.84376 0.0
H658 H 0.81592 0.08339 0.75342 0.0
H659 H 0.76164 0.09405 0.72925 0.0
H660 H 0.79818 0.14894 0.74317 0.0
H661 H 0.63784 0.02896 0.84325 0.0
H662 H 0.63773 1.00196 0.80611 0.0
H663 H 0.69225 0.99104 0.83006 0.0
H664 H 0.68633 0.93535 0.71541 0.0
H665 H 0.81829 0.91191 0.77265 0.0
H666 H 0.66865 0.06568 0.72854 0.0
H667 H 0.62762 0.03687 0.7562 0.0
H668 H 0.63163 1.00808 0.71955 0.0
H669 H 0.83042 0.03538 0.79962 0.0
H670 H 0.8394 0.96898 0.81159 0.0
H671 H 0.78666 1.00766 0.82625 0.0
C672 C 0.07252 0.30984 0.29353 0.0
C673 C 0.10297 0.26726 0.28455 0.0
C674 C 0.02459 0.32094 0.27956 0.0
C675 C 1.00685 0.28914 0.25575 0.0
C676 C 0.03868 0.24766 0.24568 0.0
C677 C 0.08603 0.23705 0.26028 0.0
C678 C 0.99193 0.36545 0.29109 0.0
C679 C 0.02199 0.21341 0.22001 0.0
C680 C 0.86118 0.28356 0.23745 0.0
C681 C 0.85742 0.31854 0.21346 0.0
C682 C 0.90938 0.27389 0.25158 0.0
C683 C 0.95513 0.29927 0.2413 0.0
C684 C 0.9516 0.33409 0.21692 0.0
C685 C 0.90306 0.34344 0.20348 0.0
C686 C 0.91131 0.23675 0.27767 0.0
C687 C 0.99927 0.36143 0.20488 0.0
H688 H 0.08479 0.33297 0.3125 0.0
H689 H 0.1091 0.20392 0.25324 0.0
H690 H 0.98259 0.39278 0.27269 0.0
H691 H 0.95444 0.35025 0.2998 0.0
H692 H 0.01175 0.38742 0.30919 0.0
H693 H 0.05233 0.18453 0.21384 0.0
H694 H 0.98591 0.19214 0.22607 0.0
H695 H 0.01297 0.23756 0.20014 0.0
H696 H 0.82636 0.26424 0.24546 0.0
H697 H 0.90108 0.37029 0.18485 0.0
H698 H 0.92708 0.25697 0.29761 0.0
H699 H 0.93794 0.20395 0.27256 0.0
H700 H 0.87235 0.22067 0.28327 0.0
H701 H 0.01736 0.38547 0.22264 0.0
H702 H 0.99012 0.387 0.18557 0.0
H703 H 0.02866 0.33232 0.19776 0.0
C704 C 0.17932 0.40209 0.70256 0.0
C705 C 0.20345 0.35622 0.71278 0.0
C706 C 0.18857 0.45051 0.71617 0.0
C707 C 0.22251 0.45369 0.74096 0.0
C708 C 0.24718 0.40771 0.75146 0.0
C709 C 0.23763 0.35963 0.73716 0.0
C710 C 0.16201 0.49841 0.70388 0.0
C711 C 0.28338 0.40927 0.77799 0.0
C712 C 0.28455 0.58431 0.76086 0.0
C713 C 0.25349 0.60132 0.78475 0.0
C714 C 0.27437 0.53698 0.74612 0.0
C715 C 0.23239 0.50526 0.75565 0.0
C716 C 0.19979 0.52304 0.77909 0.0
C717 C 0.21051 0.57093 0.79321 0.0
C718 C 0.30952 0.52023 0.72087 0.0
C719 C 0.15471 0.49051 0.79003 0.0
H720 H 0.15311 0.40037 0.68362 0.0
H721 H 0.25635 0.32463 0.74536 0.0
H722 H 0.13737 0.5165 0.72137 0.0
H723 H 0.19158 0.52769 0.69722 0.0
H724 H 0.13718 0.48954 0.68422 0.0
H725 H 0.29909 0.37021 0.78366 0.0
H726 H 0.31647 0.43583 0.77336 0.0
H727 H 0.26251 0.42493 0.79773 0.0
H728 H 0.31799 0.60732 0.75422 0.0
H729 H 0.1867 0.58325 0.81189 0.0
H730 H 0.2861 0.51149 0.70067 0.0
H731 H 0.33029 0.48398 0.72713 0.0
H732 H 0.33885 0.55042 0.71514 0.0
H733 H 0.12796 0.48149 0.77129 0.0
H734 H 0.13225 0.51028 0.80793 0.0
H735 H 0.1694 0.45287 0.79879 0.0
C736 C 0.15649 0.73523 0.23722 0.0
C737 C 0.16014 0.70055 0.21308 0.0
C738 C 0.10832 0.74489 0.25139 0.0
C739 C 0.06248 0.7198 0.241 0.0
C740 C 0.06589 0.6853 0.21647 0.0
C741 C 0.11441 0.67595 0.20299 0.0
C742 C 0.10651 0.78169 0.27763 0.0
C743 C 0.01814 0.65827 0.20431 0.0
C744 C 0.94511 0.70888 0.29324 0.0
C745 C 0.91475 0.75165 0.28444 0.0
C746 C 0.993 0.69783 0.2792 0.0
C747 C 0.0108 0.72988 0.25551 0.0
C748 C 0.97907 0.77158 0.24563 0.0
C749 C 0.93175 0.78211 0.26029 0.0
C750 C 0.02554 0.65307 0.29053 0.0
C751 C 0.99584 0.80613 0.22011 0.0
H752 H 0.19137 0.75431 0.24532 0.0
H753 H 0.11631 0.64934 0.18425 0.0
H754 H 0.07994 0.81462 0.27269 0.0
H755 H 0.09074 0.76125 0.29749 0.0
H756 H 0.14551 0.79762 0.28328 0.0
H757 H 0.0272 0.63296 0.18489 0.0
H758 H 1.0 0.63403 0.22197 0.0
H759 H 0.98882 0.68757 0.19735 0.0
H760 H 0.93279 0.68554 0.31212 0.0
H761 H 0.90875 0.81538 0.25338 0.0
H762 H 0.06309 0.66805 0.29928 0.0
H763 H 0.03476 0.62595 0.272 0.0
H764 H 1.00568 0.63093 0.30854 0.0
H765 H 0.032 0.8272 0.22625 0.0
H766 H 0.96559 0.83518 0.21408 0.0
H767 H 1.00476 0.78222 0.20013 0.0
C768 C 0.73536 0.43487 0.76123 0.0
C769 C 0.76681 0.41756 0.78488 0.0
C770 C 0.74552 0.48221 0.74649 0.0
C771 C 0.78791 0.5136 0.75575 0.0
C772 C 0.8209 0.4955 0.77893 0.0
C773 C 0.81016 0.44764 0.79308 0.0
C774 C 0.70989 0.49932 0.72154 0.0
C775 C 0.86647 0.52767 0.78956 0.0
C776 C 0.8405 0.61658 0.70237 0.0
C777 C 0.81694 0.66258 0.71282 0.0
C778 C 0.8312 0.56817 0.71599 0.0
C779 C 0.79783 0.56515 0.74105 0.0
C780 C 0.77373 0.61127 0.75178 0.0
C781 C 0.78329 0.65933 0.73746 0.0
C782 C 0.85711 0.52012 0.70344 0.0
C783 C 0.73814 0.60988 0.77858 0.0
H784 H 0.70163 0.41211 0.75479 0.0
H785 H 0.83429 0.43508 0.81157 0.0
H786 H 0.68956 0.53571 0.728 0.0
H787 H 0.7329 0.50795 0.70117 0.0
H788 H 0.6802 0.46938 0.71601 0.0
H789 H 0.88919 0.50767 0.80727 0.0
H790 H 0.89285 0.53655 0.77063 0.0
H791 H 0.85226 0.56539 0.79847 0.0
H792 H 0.86627 0.61818 0.68323 0.0
H793 H 0.76503 0.69444 0.74584 0.0
H794 H 0.82718 0.49108 0.69698 0.0
H795 H 0.88203 0.50179 0.72072 0.0
H796 H 0.88154 0.52888 0.6836 0.0
H797 H 0.70477 0.58355 0.77419 0.0
H798 H 0.72282 0.64903 0.7844 0.0
H799 H 0.75938 0.59404 0.79815 0.0
loop_
_geom_bond_atom_site_label_1
_geom_bond_atom_site_label_2
_geom_bond_distance
_geom_bond_site_symmetry_2
_ccdc_geom_bond_type
Mn0 O5 2.095 . S
Mn0 O15 2.162 . S
Mn0 O16 2.297 . S
Mn0 O24 2.385 . S
Mn0 O25 2.209 . S
Mn0 O26 2.094 . S
Mn1 O6 2.121 . S
Mn1 N8 2.257 . S
Mn1 N17 2.282 . S
Mn1 O25 2.215 . S
Mn1 O27 2.117 . S
C2 O24 1.234 . S
C2 O25 1.283 . S
C3 O15 1.281 . S
C3 O16 1.236 . S
C4 O26 1.240 . S
C4 O27 1.264 . S
O5 Mn0 2.095 . S
O5 C14 1.250 . S
O6 Mn1 2.121 . S
O6 C14 1.258 . S
C7 N8 1.326 . S
C7 C11 1.460 . S
C7 H13 0.929 . S
N8 Mn1 2.257 . S
N8 C7 1.326 . S
N8 C12 1.362 . S
C9 C10 1.258 . S
C9 C12 1.431 1_565 S
C9 C29 1.449 . S
C10 C9 1.258 . S
C10 C11 1.477 1_565 S
C10 H30 0.931 . S
C11 C7 1.460 . S
C11 C10 1.477 1_545 S
C11 H31 0.930 . S
C12 N8 1.362 . S
C12 C9 1.431 1_545 S
C12 C22 1.476 . S
H13 C7 0.929 . S
C14 O5 1.250 . S
C14 O6 1.258 . S
O15 Mn0 2.162 . S
O15 C3 1.281 . S
O16 Mn0 2.297 . S
O16 C3 1.236 . S
N17 Mn1 2.282 . S
N17 C18 1.328 . S
N17 C22 1.318 . S
C18 N17 1.328 . S
C18 C19 1.457 . S
C18 H23 0.929 . S
C19 C18 1.457 . S
C19 C20 1.291 1_545 S
C19 H32 0.931 . S
C20 C19 1.291 1_565 S
C20 C21 1.373 . S
C20 H33 0.929 . S
C21 C20 1.373 . S
C21 C22 1.396 1_565 S
C21 C28 1.403 . S
C22 C12 1.476 . S
C22 N17 1.318 . S
C22 C21 1.396 1_545 S
H23 C18 0.929 . S
O24 Mn0 2.385 . S
O24 C2 1.234 . S
O25 Mn0 2.209 . S
O25 Mn1 2.215 . S
O25 C2 1.283 . S
O26 Mn0 2.094 . S
O26 C4 1.240 . S
O27 Mn1 2.117 . S
O27 C4 1.264 . S
C28 C21 1.403 . S
C28 C29 1.399 . S
C28 H34 0.929 . S
C29 C9 1.449 . S
C29 C28 1.399 . S
C29 H35 0.930 . S
H30 C10 0.931 . S
H31 C11 0.930 . S
H32 C19 0.931 . S
H33 C20 0.929 . S
H34 C28 0.929 . S
H35 C29 0.930 . S
Mn36 O41 2.095 . S
Mn36 O51 2.162 . S
Mn36 O52 2.297 . S
Mn36 O60 2.385 . S
Mn36 O61 2.209 . S
Mn36 O62 2.094 . S
Mn37 O42 2.121 . S
Mn37 N44 2.257 . S
Mn37 N53 2.282 . S
Mn37 O61 2.215 . S
Mn37 O63 2.117 . S
C38 O60 1.234 . S
C38 O61 1.283 . S
C39 O51 1.281 . S
C39 O52 1.236 . S
C40 O62 1.240 . S
C40 O63 1.264 . S
O41 Mn36 2.095 . S
O41 C50 1.250 . S
O42 Mn37 2.121 . S
O42 C50 1.258 . S
C43 N44 1.326 . S
C43 C47 1.460 . S
C43 H49 0.929 . S
N44 Mn37 2.257 . S
N44 C43 1.326 . S
N44 C48 1.362 . S
C45 C46 1.258 . S
C45 C48 1.431 . S
C45 C65 1.449 . S
C46 C45 1.258 . S
C46 C47 1.477 . S
C46 H66 0.931 . S
C47 C43 1.460 . S
C47 C46 1.477 . S
C47 H67 0.930 . S
C48 N44 1.362 . S
C48 C45 1.431 . S
C48 C58 1.476 . S
H49 C43 0.929 . S
C50 O41 1.250 . S
C50 O42 1.258 . S
O51 Mn36 2.162 . S
O51 C39 1.281 . S
O52 Mn36 2.297 . S
O52 C39 1.236 . S
N53 Mn37 2.282 . S
N53 C54 1.328 . S
N53 C58 1.318 . S
C54 N53 1.328 . S
C54 C55 1.457 . S
C54 H59 0.929 . S
C55 C54 1.457 . S
C55 C56 1.291 . S
C55 H68 0.931 . S
C56 C55 1.291 . S
C56 C57 1.373 . S
C56 H69 0.929 . S
C57 C56 1.373 . S
C57 C58 1.396 . S
C57 C64 1.403 . S
C58 C48 1.476 . S
C58 N53 1.318 . S
C58 C57 1.396 . S
H59 C54 0.929 . S
O60 Mn36 2.385 . S
O60 C38 1.234 . S
O61 Mn36 2.209 . S
O61 Mn37 2.215 . S
O61 C38 1.283 . S
O62 Mn36 2.094 . S
O62 C40 1.240 . S
O63 Mn37 2.117 . S
O63 C40 1.264 . S
C64 C57 1.403 . S
C64 C65 1.399 . S
C64 H70 0.929 . S
C65 C45 1.449 . S
C65 C64 1.399 . S
C65 H71 0.930 . S
H66 C46 0.931 . S
H67 C47 0.930 . S
H68 C55 0.931 . S
H69 C56 0.929 . S
H70 C64 0.929 . S
H71 C65 0.930 . S
Mn72 O77 2.095 . S
Mn72 O87 2.162 . S
Mn72 O88 2.297 . S
Mn72 O96 2.385 . S
Mn72 O97 2.209 . S
Mn72 O98 2.094 . S
Mn73 O78 2.121 . S
Mn73 N80 2.257 . S
Mn73 N89 2.282 . S
Mn73 O97 2.215 . S
Mn73 O99 2.117 . S
C74 O96 1.234 . S
C74 O97 1.283 . S
C75 O87 1.281 . S
C75 O88 1.236 . S
C76 O98 1.240 . S
C76 O99 1.264 . S
O77 Mn72 2.095 . S
O77 C86 1.250 . S
O78 Mn73 2.121 . S
O78 C86 1.258 . S
C79 N80 1.326 . S
C79 C83 1.460 . S
C79 H85 0.929 . S
N80 Mn73 2.257 . S
N80 C79 1.326 . S
N80 C84 1.362 . S
C81 C82 1.258 . S
C81 C84 1.431 1_545 S
C81 C101 1.449 . S
C82 C81 1.258 . S
C82 C83 1.477 1_545 S
C82 H102 0.931 . S
C83 C79 1.460 . S
C83 C82 1.477 1_565 S
C83 H103 0.930 . S
C84 N80 1.362 . S
C84 C81 1.431 1_565 S
C84 C94 1.476 . S
H85 C79 0.929 . S
C86 O77 1.250 . S
C86 O78 1.258 . S
O87 Mn72 2.162 . S
O87 C75 1.281 . S
O88 Mn72 2.297 . S
O88 C75 1.236 . S
N89 Mn73 2.282 . S
N89 C90 1.328 . S
N89 C94 1.318 . S
C90 N89 1.328 . S
C90 C91 1.457 . S
C90 H95 0.929 . S
C91 C90 1.457 . S
C91 C92 1.291 1_565 S
C91 H104 0.931 . S
C92 C91 1.291 1_545 S
C92 C93 1.373 . S
C92 H105 0.929 . S
C93 C92 1.373 . S
C93 C94 1.396 1_545 S
C93 C100 1.403 . S
C94 C84 1.476 . S
C94 N89 1.318 . S
C94 C93 1.396 1_565 S
H95 C90 0.929 . S
O96 Mn72 2.385 . S
O96 C74 1.234 . S
O97 Mn72 2.209 . S
O97 Mn73 2.215 . S
O97 C74 1.283 . S
O98 Mn72 2.094 . S
O98 C76 1.240 . S
O99 Mn73 2.117 . S
O99 C76 1.264 . S
C100 C93 1.403 . S
C100 C101 1.399 . S
C100 H106 0.929 . S
C101 C81 1.449 . S
C101 C100 1.399 . S
C101 H107 0.930 . S
H102 C82 0.931 . S
H103 C83 0.930 . S
H104 C91 0.931 . S
H105 C92 0.929 . S
H106 C100 0.929 . S
H107 C101 0.930 . S
Mn108 O113 2.095 . S
Mn108 O123 2.162 . S
Mn108 O124 2.297 . S
Mn108 O132 2.385 . S
Mn108 O133 2.209 . S
Mn108 O134 2.094 . S
Mn109 O114 2.121 . S
Mn109 N116 2.257 . S
Mn109 N125 2.282 . S
Mn109 O133 2.215 . S
Mn109 O135 2.117 . S
C110 O132 1.234 . S
C110 O133 1.283 . S
C111 O123 1.281 . S
C111 O124 1.236 . S
C112 O134 1.240 . S
C112 O135 1.264 . S
O113 Mn108 2.095 . S
O113 C122 1.250 . S
O114 Mn109 2.121 . S
O114 C122 1.258 . S
C115 N116 1.326 . S
C115 C119 1.460 . S
C115 H121 0.929 . S
N116 Mn109 2.257 . S
N116 C115 1.326 . S
N116 C120 1.362 . S
C117 C118 1.258 . S
C117 C120 1.431 . S
C117 C137 1.449 . S
C118 C117 1.258 . S
C118 C119 1.477 . S
C118 H138 0.931 . S
C119 C115 1.460 . S
C119 C118 1.477 . S
C119 H139 0.930 . S
C120 N116 1.362 . S
C120 C117 1.431 . S
C120 C130 1.476 . S
H121 C115 0.929 . S
C122 O113 1.250 . S
C122 O114 1.258 . S
O123 Mn108 2.162 . S
O123 C111 1.281 . S
O124 Mn108 2.297 . S
O124 C111 1.236 . S
N125 Mn109 2.282 . S
N125 C126 1.328 . S
N125 C130 1.318 . S
C126 N125 1.328 . S
C126 C127 1.457 . S
C126 H131 0.929 . S
C127 C126 1.457 . S
C127 C128 1.291 . S
C127 H140 0.931 . S
C128 C127 1.291 . S
C128 C129 1.373 . S
C128 H141 0.929 . S
C129 C128 1.373 . S
C129 C130 1.396 . S
C129 C136 1.403 . S
C130 C120 1.476 . S
C130 N125 1.318 . S
C130 C129 1.396 . S
H131 C126 0.929 . S
O132 Mn108 2.385 . S
O132 C110 1.234 . S
O133 Mn108 2.209 . S
O133 Mn109 2.215 . S
O133 C110 1.283 . S
O134 Mn108 2.094 . S
O134 C112 1.240 . S
O135 Mn109 2.117 . S
O135 C112 1.264 . S
C136 C129 1.403 . S
C136 C137 1.399 . S
C136 H142 0.929 . S
C137 C117 1.449 . S
C137 C136 1.399 . S
C137 H143 0.930 . S
H138 C118 0.931 . S
H139 C119 0.930 . S
H140 C127 0.931 . S
H141 C128 0.929 . S
H142 C136 0.929 . S
H143 C137 0.930 . S
Mn144 O149 2.095 . S
Mn144 O159 2.162 . S
Mn144 O160 2.297 . S
Mn144 O168 2.385 . S
Mn144 O169 2.209 . S
Mn144 O170 2.094 . S
Mn145 O150 2.121 . S
Mn145 N152 2.257 . S
Mn145 N161 2.282 . S
Mn145 O169 2.215 . S
Mn145 O171 2.117 . S
C146 O168 1.234 . S
C146 O169 1.283 . S
C147 O159 1.281 . S
C147 O160 1.236 . S
C148 O170 1.240 . S
C148 O171 1.264 . S
O149 Mn144 2.095 . S
O149 C158 1.250 . S
O150 Mn145 2.121 . S
O150 C158 1.258 . S
C151 N152 1.326 . S
C151 C155 1.460 . S
C151 H157 0.929 . S
N152 Mn145 2.257 . S
N152 C151 1.326 . S
N152 C156 1.362 . S
C153 C154 1.258 . S
C153 C156 1.431 . S
C153 C173 1.449 . S
C154 C153 1.258 . S
C154 C155 1.477 . S
C154 H174 0.931 . S
C155 C151 1.460 . S
C155 C154 1.477 . S
C155 H175 0.930 . S
C156 N152 1.362 . S
C156 C153 1.431 . S
C156 C166 1.476 . S
H157 C151 0.929 . S
C158 O149 1.250 . S
C158 O150 1.258 . S
O159 Mn144 2.162 . S
O159 C147 1.281 . S
O160 Mn144 2.297 . S
O160 C147 1.236 . S
N161 Mn145 2.282 . S
N161 C162 1.328 . S
N161 C166 1.318 . S
C162 N161 1.328 . S
C162 C163 1.457 . S
C162 H167 0.929 . S
C163 C162 1.457 . S
C163 C164 1.291 . S
C163 H176 0.931 . S
C164 C163 1.291 . S
C164 C165 1.373 . S
C164 H177 0.929 . S
C165 C164 1.373 . S
C165 C166 1.396 . S
C165 C172 1.403 . S
C166 C156 1.476 . S
C166 N161 1.318 . S
C166 C165 1.396 . S
H167 C162 0.929 . S
O168 Mn144 2.385 . S
O168 C146 1.234 . S
O169 Mn144 2.209 . S
O169 Mn145 2.215 . S
O169 C146 1.283 . S
O170 Mn144 2.094 . S
O170 C148 1.240 . S
O171 Mn145 2.117 . S
O171 C148 1.264 . S
C172 C165 1.403 . S
C172 C173 1.399 . S
C172 H178 0.929 . S
C173 C153 1.449 . S
C173 C172 1.399 . S
C173 H179 0.930 . S
H174 C154 0.931 . S
H175 C155 0.930 . S
H176 C163 0.931 . S
H177 C164 0.929 . S
H178 C172 0.929 . S
H179 C173 0.930 . S
Mn180 O185 2.095 . S
Mn180 O195 2.162 . S
Mn180 O196 2.297 . S
Mn180 O204 2.385 . S
Mn180 O205 2.209 . S
Mn180 O206 2.094 . S
Mn181 O186 2.121 . S
Mn181 N188 2.257 . S
Mn181 N197 2.282 . S
Mn181 O205 2.215 . S
Mn181 O207 2.117 . S
C182 O204 1.234 . S
C182 O205 1.283 . S
C183 O195 1.281 . S
C183 O196 1.236 . S
C184 O206 1.240 . S
C184 O207 1.264 . S
O185 Mn180 2.095 . S
O185 C194 1.250 . S
O186 Mn181 2.121 . S
O186 C194 1.258 . S
C187 N188 1.326 . S
C187 C191 1.460 . S
C187 H193 0.929 . S
N188 Mn181 2.257 . S
N188 C187 1.326 . S
N188 C192 1.362 . S
C189 C190 1.258 . S
C189 C192 1.431 1_655 S
C189 C209 1.449 . S
C190 C189 1.258 . S
C190 C191 1.477 1_655 S
C190 H210 0.931 . S
C191 C187 1.460 . S
C191 C190 1.477 1_455 S
C191 H211 0.930 . S
C192 N188 1.362 . S
C192 C189 1.431 1_455 S
C192 C202 1.476 . S
H193 C187 0.929 . S
C194 O185 1.250 . S
C194 O186 1.258 . S
O195 Mn180 2.162 . S
O195 C183 1.281 . S
O196 Mn180 2.297 . S
O196 C183 1.236 . S
N197 Mn181 2.282 . S
N197 C198 1.328 . S
N197 C202 1.318 . S
C198 N197 1.328 . S
C198 C199 1.457 . S
C198 H203 0.929 . S
C199 C198 1.457 . S
C199 C200 1.291 1_455 S
C199 H212 0.931 . S
C200 C199 1.291 1_655 S
C200 C201 1.373 . S
C200 H213 0.929 . S
C201 C200 1.373 . S
C201 C202 1.396 1_655 S
C201 C208 1.403 . S
C202 C192 1.476 . S
C202 N197 1.318 . S
C202 C201 1.396 1_455 S
H203 C198 0.929 . S
O204 Mn180 2.385 . S
O204 C182 1.234 . S
O205 Mn180 2.209 . S
O205 Mn181 2.215 . S
O205 C182 1.283 . S
O206 Mn180 2.094 . S
O206 C184 1.240 . S
O207 Mn181 2.117 . S
O207 C184 1.264 . S
C208 C201 1.403 . S
C208 C209 1.399 . S
C208 H214 0.929 . S
C209 C189 1.449 . S
C209 C208 1.399 . S
C209 H215 0.930 . S
H210 C190 0.931 . S
H211 C191 0.930 . S
H212 C199 0.931 . S
H213 C200 0.929 . S
H214 C208 0.929 . S
H215 C209 0.930 . S
Mn216 O221 2.095 . S
Mn216 O231 2.162 . S
Mn216 O232 2.297 . S
Mn216 O240 2.385 . S
Mn216 O241 2.209 . S
Mn216 O242 2.094 . S
Mn217 O222 2.121 . S
Mn217 N224 2.257 . S
Mn217 N233 2.282 . S
Mn217 O241 2.215 . S
Mn217 O243 2.117 . S
C218 O240 1.234 . S
C218 O241 1.283 . S
C219 O231 1.281 . S
C219 O232 1.236 . S
C220 O242 1.240 . S
C220 O243 1.264 . S
O221 Mn216 2.095 . S
O221 C230 1.250 . S
O222 Mn217 2.121 . S
O222 C230 1.258 . S
C223 N224 1.326 . S
C223 C227 1.460 . S
C223 H229 0.929 . S
N224 Mn217 2.257 . S
N224 C223 1.326 . S
N224 C228 1.362 . S
C225 C226 1.258 . S
C225 C228 1.431 . S
C225 C245 1.449 . S
C226 C225 1.258 . S
C226 C227 1.477 . S
C226 H246 0.931 . S
C227 C223 1.460 . S
C227 C226 1.477 . S
C227 H247 0.930 . S
C228 N224 1.362 . S
C228 C225 1.431 . S
C228 C238 1.476 . S
H229 C223 0.929 . S
C230 O221 1.250 . S
C230 O222 1.258 . S
O231 Mn216 2.162 . S
O231 C219 1.281 . S
O232 Mn216 2.297 . S
O232 C219 1.236 . S
N233 Mn217 2.282 . S
N233 C234 1.328 . S
N233 C238 1.318 . S
C234 N233 1.328 . S
C234 C235 1.457 . S
C234 H239 0.929 . S
C235 C234 1.457 . S
C235 C236 1.291 . S
C235 H248 0.931 . S
C236 C235 1.291 . S
C236 C237 1.373 . S
C236 H249 0.929 . S
C237 C236 1.373 . S
C237 C238 1.396 . S
C237 C244 1.403 . S
C238 C228 1.476 . S
C238 N233 1.318 . S
C238 C237 1.396 . S
H239 C234 0.929 . S
O240 Mn216 2.385 . S
O240 C218 1.234 . S
O241 Mn216 2.209 . S
O241 Mn217 2.215 . S
O241 C218 1.283 . S
O242 Mn216 2.094 . S
O242 C220 1.240 . S
O243 Mn217 2.117 . S
O243 C220 1.264 . S
C244 C237 1.403 . S
C244 C245 1.399 . S
C244 H250 0.929 . S
C245 C225 1.449 . S
C245 C244 1.399 . S
C245 H251 0.930 . S
H246 C226 0.931 . S
H247 C227 0.930 . S
H248 C235 0.931 . S
H249 C236 0.929 . S
H250 C244 0.929 . S
H251 C245 0.930 . S
Mn252 O257 2.095 . S
Mn252 O267 2.162 . S
Mn252 O268 2.297 . S
Mn252 O276 2.385 . S
Mn252 O277 2.209 . S
Mn252 O278 2.094 . S
Mn253 O258 2.121 . S
Mn253 N260 2.257 . S
Mn253 N269 2.282 . S
Mn253 O277 2.215 . S
Mn253 O279 2.117 . S
C254 O276 1.234 . S
C254 O277 1.283 . S
C255 O267 1.281 . S
C255 O268 1.236 . S
C256 O278 1.240 . S
C256 O279 1.264 . S
O257 Mn252 2.095 . S
O257 C266 1.250 . S
O258 Mn253 2.121 . S
O258 C266 1.258 . S
C259 N260 1.326 . S
C259 C263 1.460 . S
C259 H265 0.929 . S
N260 Mn253 2.257 . S
N260 C259 1.326 . S
N260 C264 1.362 . S
C261 C262 1.258 . S
C261 C264 1.431 1_455 S
C261 C281 1.449 . S
C262 C261 1.258 . S
C262 C263 1.477 1_455 S
C262 H282 0.931 . S
C263 C259 1.460 . S
C263 C262 1.477 1_655 S
C263 H283 0.930 . S
C264 N260 1.362 . S
C264 C261 1.431 1_655 S
C264 C274 1.476 . S
H265 C259 0.929 . S
C266 O257 1.250 . S
C266 O258 1.258 . S
O267 Mn252 2.162 . S
O267 C255 1.281 . S
O268 Mn252 2.297 . S
O268 C255 1.236 . S
N269 Mn253 2.282 . S
N269 C270 1.328 . S
N269 C274 1.318 . S
C270 N269 1.328 . S
C270 C271 1.457 . S
C270 H275 0.929 . S
C271 C270 1.457 . S
C271 C272 1.291 1_655 S
C271 H284 0.931 . S
C272 C271 1.291 1_455 S
C272 C273 1.373 . S
C272 H285 0.929 . S
C273 C272 1.373 . S
C273 C274 1.396 1_455 S
C273 C280 1.403 . S
C274 C264 1.476 . S
C274 N269 1.318 . S
C274 C273 1.396 1_655 S
H275 C270 0.929 . S
O276 Mn252 2.385 . S
O276 C254 1.234 . S
O277 Mn252 2.209 . S
O277 Mn253 2.215 . S
O277 C254 1.283 . S
O278 Mn252 2.094 . S
O278 C256 1.240 . S
O279 Mn253 2.117 . S
O279 C256 1.264 . S
C280 C273 1.403 . S
C280 C281 1.399 . S
C280 H286 0.929 . S
C281 C261 1.449 . S
C281 C280 1.399 . S
C281 H287 0.930 . S
H282 C262 0.931 . S
H283 C263 0.930 . S
H284 C271 0.931 . S
H285 C272 0.929 . S
H286 C280 0.929 . S
H287 C281 0.930 . S
C288 C289 1.391 . S
C288 C290 1.394 1_455 S
C288 H304 0.931 . S
C289 C288 1.391 . S
C289 C293 1.376 . S
C290 C288 1.394 1_655 S
C290 C291 1.369 1_655 S
C290 C294 1.531 . S
C291 C290 1.369 1_455 S
C291 C292 1.410 . S
C291 C299 1.503 1_445 S
C292 C291 1.410 . S
C292 C293 1.392 . S
C292 C295 1.511 1_545 S
C293 C289 1.376 . S
C293 C292 1.392 . S
C293 H305 0.929 . S
C294 C290 1.531 . S
C294 H306 0.960 . S
C294 H307 0.962 . S
C294 H308 0.960 . S
C295 C292 1.511 1_565 S
C295 H309 0.961 . S
C295 H310 0.961 . S
C295 H311 0.961 . S
C296 C297 1.370 . S
C296 C298 1.363 . S
C296 H312 0.931 . S
C297 C296 1.370 . S
C297 C301 1.408 . S
C298 C296 1.363 . S
C298 C299 1.370 . S
C298 C302 1.524 . S
C299 C291 1.503 1_665 S
C299 C298 1.370 . S
C299 C300 1.403 . S
C300 C299 1.403 . S
C300 C301 1.404 . S
C300 C303 1.539 1_655 S
C301 C297 1.408 . S
C301 C300 1.404 . S
C301 H313 0.930 . S
C302 C298 1.524 . S
C302 H314 0.956 1_565 S
C302 H315 0.962 1_655 S
C302 H316 0.961 . S
C303 C300 1.539 1_455 S
C303 H317 0.958 1_455 S
C303 H318 0.961 . S
C303 H319 0.960 . S
H304 C288 0.931 . S
H305 C293 0.929 . S
H306 C294 0.960 . S
H307 C294 0.962 . S
H308 C294 0.960 . S
H309 C295 0.961 . S
H310 C295 0.961 . S
H311 C295 0.961 . S
H312 C296 0.931 . S
H313 C301 0.930 . S
H314 C302 0.956 1_545 S
H315 C302 0.962 1_455 S
H316 C302 0.961 . S
H317 C303 0.958 1_655 S
H318 C303 0.961 . S
H319 C303 0.960 . S
C320 C321 1.391 . S
C320 C322 1.394 . S
C320 H336 0.931 . S
C321 C320 1.391 . S
C321 C325 1.376 . S
C322 C320 1.394 . S
C322 C323 1.369 . S
C322 C326 1.531 . S
C323 C322 1.369 . S
C323 C324 1.410 . S
C323 C331 1.503 . S
C324 C323 1.410 . S
C324 C325 1.392 . S
C324 C327 1.511 . S
C325 C321 1.376 . S
C325 C324 1.392 . S
C325 H337 0.929 . S
C326 C322 1.531 . S
C326 H338 0.960 . S
C326 H339 0.962 . S
C326 H340 0.960 . S
C327 C324 1.511 . S
C327 H341 0.961 . S
C327 H342 0.961 . S
C327 H343 0.961 . S
C328 C329 1.370 . S
C328 C330 1.363 . S
C328 H344 0.931 . S
C329 C328 1.370 . S
C329 C333 1.408 . S
C330 C328 1.363 . S
C330 C331 1.370 . S
C330 C334 1.524 . S
C331 C323 1.503 . S
C331 C330 1.370 . S
C331 C332 1.403 . S
C332 C331 1.403 . S
C332 C333 1.404 . S
C332 C335 1.539 . S
C333 C329 1.408 . S
C333 C332 1.404 . S
C333 H345 0.930 . S
C334 C330 1.524 . S
C334 H346 0.956 . S
C334 H347 0.961 . S
C334 H348 0.961 . S
C335 C332 1.539 . S
C335 H349 0.958 . S
C335 H350 0.961 . S
C335 H351 0.960 . S
H336 C320 0.931 . S
H337 C325 0.929 . S
H338 C326 0.960 . S
H339 C326 0.962 . S
H340 C326 0.960 . S
H341 C327 0.961 . S
H342 C327 0.961 . S
H343 C327 0.961 . S
H344 C328 0.931 . S
H345 C333 0.930 . S
H346 C334 0.956 . S
H347 C334 0.961 . S
H348 C334 0.961 . S
H349 C335 0.958 . S
H350 C335 0.961 . S
H351 C335 0.960 . S
C352 C353 1.391 . S
C352 C354 1.394 . S
C352 H368 0.931 . S
C353 C352 1.391 . S
C353 C357 1.376 . S
C354 C352 1.394 . S
C354 C355 1.369 . S
C354 C358 1.531 . S
C355 C354 1.369 . S
C355 C356 1.410 . S
C355 C363 1.503 . S
C356 C355 1.410 . S
C356 C357 1.392 . S
C356 C359 1.511 . S
C357 C353 1.376 . S
C357 C356 1.392 . S
C357 H369 0.929 . S
C358 C354 1.531 . S
C358 H370 0.960 . S
C358 H371 0.962 . S
C358 H372 0.960 . S
C359 C356 1.511 . S
C359 H373 0.961 . S
C359 H374 0.961 . S
C359 H375 0.961 . S
C360 C361 1.370 . S
C360 C362 1.363 . S
C360 H376 0.931 . S
C361 C360 1.370 . S
C361 C365 1.408 . S
C362 C360 1.363 . S
C362 C363 1.370 . S
C362 C366 1.524 . S
C363 C355 1.503 . S
C363 C362 1.370 . S
C363 C364 1.403 . S
C364 C363 1.403 . S
C364 C365 1.404 . S
C364 C367 1.539 . S
C365 C361 1.408 . S
C365 C364 1.404 . S
C365 H377 0.930 . S
C366 C362 1.524 . S
C366 H378 0.956 . S
C366 H379 0.961 . S
C366 H380 0.961 . S
C367 C364 1.539 . S
C367 H381 0.958 . S
C367 H382 0.961 . S
C367 H383 0.960 . S
H368 C352 0.931 . S
H369 C357 0.929 . S
H370 C358 0.960 . S
H371 C358 0.962 . S
H372 C358 0.960 . S
H373 C359 0.961 . S
H374 C359 0.961 . S
H375 C359 0.961 . S
H376 C360 0.931 . S
H377 C365 0.930 . S
H378 C366 0.956 . S
H379 C366 0.961 . S
H380 C366 0.961 . S
H381 C367 0.958 . S
H382 C367 0.961 . S
H383 C367 0.960 . S
C384 C385 1.391 . S
C384 C386 1.394 . S
C384 H400 0.931 . S
C385 C384 1.391 . S
C385 C389 1.376 . S
C386 C384 1.394 . S
C386 C387 1.369 . S
C386 C390 1.531 1_455 S
C387 C386 1.369 . S
C387 C388 1.410 1_545 S
C387 C395 1.503 1_445 S
C388 C387 1.410 1_565 S
C388 C389 1.392 1_565 S
C388 C391 1.511 . S
C389 C385 1.376 . S
C389 C388 1.392 1_545 S
C389 H401 0.929 . S
C390 C386 1.531 1_655 S
C390 H402 0.960 . S
C390 H403 0.962 . S
C390 H404 0.960 . S
C391 C388 1.511 . S
C391 H405 0.961 . S
C391 H406 0.961 . S
C391 H407 0.961 . S
C392 C393 1.370 . S
C392 C394 1.363 . S
C392 H408 0.931 . S
C393 C392 1.370 . S
C393 C397 1.408 . S
C394 C392 1.363 . S
C394 C395 1.370 . S
C394 C398 1.524 1_565 S
C395 C387 1.503 1_665 S
C395 C394 1.370 . S
C395 C396 1.403 . S
C396 C395 1.403 . S
C396 C397 1.404 . S
C396 C399 1.539 . S
C397 C393 1.408 . S
C397 C396 1.404 . S
C397 H409 0.930 . S
C398 C394 1.524 1_545 S
C398 H410 0.956 . S
C398 H411 0.961 1_655 S
C398 H412 0.961 . S
C399 C396 1.539 . S
C399 H413 0.958 . S
C399 H414 0.961 . S
C399 H415 0.960 1_655 S
H400 C384 0.931 . S
H401 C389 0.929 . S
H402 C390 0.960 . S
H403 C390 0.962 . S
H404 C390 0.960 . S
H405 C391 0.961 . S
H406 C391 0.961 . S
H407 C391 0.961 . S
H408 C392 0.931 . S
H409 C397 0.930 . S
H410 C398 0.956 . S
H411 C398 0.961 1_455 S
H412 C398 0.961 . S
H413 C399 0.958 . S
H414 C399 0.961 . S
H415 C399 0.960 1_455 S
C416 C417 1.391 . S
C416 C418 1.394 . S
C416 H432 0.931 . S
C417 C416 1.391 . S
C417 C421 1.376 . S
C418 C416 1.394 . S
C418 C419 1.369 . S
C418 C422 1.531 . S
C419 C418 1.369 . S
C419 C420 1.410 . S
C419 C427 1.503 . S
C420 C419 1.410 . S
C420 C421 1.392 . S
C420 C423 1.511 . S
C421 C417 1.376 . S
C421 C420 1.392 . S
C421 H433 0.929 . S
C422 C418 1.531 . S
C422 H434 0.960 . S
C422 H435 0.962 . S
C422 H436 0.960 . S
C423 C420 1.511 . S
C423 H437 0.961 . S
C423 H438 0.961 . S
C423 H439 0.961 . S
C424 C425 1.370 . S
C424 C426 1.363 . S
C424 H440 0.931 . S
C425 C424 1.370 . S
C425 C429 1.408 . S
C426 C424 1.363 . S
C426 C427 1.370 . S
C426 C430 1.524 . S
C427 C419 1.503 . S
C427 C426 1.370 . S
C427 C428 1.403 . S
C428 C427 1.403 . S
C428 C429 1.404 . S
C428 C431 1.539 . S
C429 C425 1.408 . S
C429 C428 1.404 . S
C429 H441 0.930 . S
C430 C426 1.524 . S
C430 H442 0.956 . S
C430 H443 0.961 . S
C430 H444 0.961 . S
C431 C428 1.539 . S
C431 H445 0.958 . S
C431 H446 0.961 . S
C431 H447 0.960 . S
H432 C416 0.931 . S
H433 C421 0.929 . S
H434 C422 0.960 . S
H435 C422 0.962 . S
H436 C422 0.960 . S
H437 C423 0.961 . S
H438 C423 0.961 . S
H439 C423 0.961 . S
H440 C424 0.931 . S
H441 C429 0.930 . S
H442 C430 0.956 . S
H443 C430 0.961 . S
H444 C430 0.961 . S
H445 C431 0.958 . S
H446 C431 0.961 . S
H447 C431 0.960 . S
C448 C449 1.391 . S
C448 C450 1.394 . S
C448 H464 0.931 . S
C449 C448 1.391 . S
C449 C453 1.376 . S
C450 C448 1.394 . S
C450 C451 1.369 . S
C450 C454 1.531 . S
C451 C450 1.369 . S
C451 C452 1.410 . S
C451 C459 1.503 1_556 S
C452 C451 1.410 . S
C452 C453 1.392 . S
C452 C455 1.511 1_556 S
C453 C449 1.376 . S
C453 C452 1.392 . S
C453 H465 0.929 . S
C454 C450 1.531 . S
C454 H466 0.960 . S
C454 H467 0.962 . S
C454 H468 0.960 . S
C455 C452 1.511 1_554 S
C455 H469 0.972 . S
C455 H470 0.961 . S
C455 H471 0.961 . S
C456 C457 1.370 . S
C456 C458 1.363 . S
C456 H472 0.931 . S
C457 C456 1.370 . S
C457 C461 1.408 . S
C458 C456 1.363 . S
C458 C459 1.370 . S
C458 C462 1.524 . S
C459 C451 1.503 1_554 S
C459 C458 1.370 . S
C459 C460 1.403 . S
C460 C459 1.403 . S
C460 C461 1.404 . S
C460 C463 1.539 . S
C461 C457 1.408 . S
C461 C460 1.404 . S
C461 H473 0.930 . S
C462 C458 1.524 . S
C462 H474 0.956 1_554 S
C462 H475 0.961 . S
C462 H476 0.961 . S
C463 C460 1.539 . S
C463 H477 0.958 . S
C463 H478 0.961 . S
C463 H479 0.960 . S
H464 C448 0.931 . S
H465 C453 0.929 . S
H466 C454 0.960 . S
H467 C454 0.962 . S
H468 C454 0.960 . S
H469 C455 0.972 . S
H470 C455 0.961 . S
H471 C455 0.961 . S
H472 C456 0.931 . S
H473 C461 0.930 . S
H474 C462 0.956 1_556 S
H475 C462 0.961 . S
H476 C462 0.961 . S
H477 C463 0.958 . S
H478 C463 0.961 . S
H479 C463 0.960 . S
C480 C481 1.391 . S
C480 C482 1.394 . S
C480 H496 0.931 . S
C481 C480 1.391 . S
C481 C485 1.376 . S
C482 C480 1.394 . S
C482 C483 1.369 . S
C482 C486 1.531 . S
C483 C482 1.369 . S
C483 C484 1.410 . S
C483 C491 1.503 . S
C484 C483 1.410 . S
C484 C485 1.392 . S
C484 C487 1.511 . S
C485 C481 1.376 . S
C485 C484 1.392 . S
C485 H497 0.929 . S
C486 C482 1.531 . S
C486 H498 0.960 . S
C486 H499 0.962 . S
C486 H500 0.960 . S
C487 C484 1.511 . S
C487 H501 0.961 . S
C487 H502 0.961 . S
C487 H503 0.961 . S
C488 C489 1.370 . S
C488 C490 1.363 . S
C488 H504 0.931 . S
C489 C488 1.370 . S
C489 C493 1.408 . S
C490 C488 1.363 . S
C490 C491 1.370 . S
C490 C494 1.524 . S
C491 C483 1.503 . S
C491 C490 1.370 . S
C491 C492 1.403 . S
C492 C491 1.403 . S
C492 C493 1.404 . S
C492 C495 1.539 . S
C493 C489 1.408 . S
C493 C492 1.404 . S
C493 H505 0.930 . S
C494 C490 1.524 . S
C494 H506 0.956 . S
C494 H507 0.961 . S
C494 H508 0.961 . S
C495 C492 1.539 . S
C495 H509 0.958 . S
C495 H510 0.961 . S
C495 H511 0.960 . S
H496 C480 0.931 . S
H497 C485 0.929 . S
H498 C486 0.960 . S
H499 C486 0.962 . S
H500 C486 0.960 . S
H501 C487 0.961 . S
H502 C487 0.961 . S
H503 C487 0.961 . S
H504 C488 0.931 . S
H505 C493 0.930 . S
H506 C494 0.956 . S
H507 C494 0.961 . S
H508 C494 0.961 . S
H509 C495 0.958 . S
H510 C495 0.961 . S
H511 C495 0.960 . S
C512 C513 1.391 . S
C512 C514 1.394 . S
C512 H528 0.931 . S
C513 C512 1.391 . S
C513 C517 1.376 . S
C514 C512 1.394 . S
C514 C515 1.369 . S
C514 C518 1.531 . S
C515 C514 1.369 . S
C515 C516 1.410 . S
C515 C523 1.503 1_556 S
C516 C515 1.410 . S
C516 C517 1.392 . S
C516 C519 1.511 1_556 S
C517 C513 1.376 . S
C517 C516 1.392 . S
C517 H529 0.929 . S
C518 C514 1.531 . S
C518 H530 0.960 . S
C518 H531 0.962 . S
C518 H532 0.960 . S
C519 C516 1.511 1_554 S
C519 H533 0.963 . S
C519 H534 0.961 . S
C519 H535 0.961 . S
C520 C521 1.370 . S
C520 C522 1.363 . S
C520 H536 0.931 . S
C521 C520 1.370 . S
C521 C525 1.408 . S
C522 C520 1.363 . S
C522 C523 1.370 . S
C522 C526 1.524 . S
C523 C515 1.503 1_554 S
C523 C522 1.370 . S
C523 C524 1.403 . S
C524 C523 1.403 . S
C524 C525 1.404 . S
C524 C527 1.539 . S
C525 C521 1.408 . S
C525 C524 1.404 . S
C525 H537 0.930 . S
C526 C522 1.524 . S
C526 H538 0.959 1_554 S
C526 H539 0.961 . S
C526 H540 0.961 . S
C527 C524 1.539 . S
C527 H541 0.958 . S
C527 H542 0.961 . S
C527 H543 0.960 1_554 S
H528 C512 0.931 . S
H529 C517 0.929 . S
H530 C518 0.960 . S
H531 C518 0.962 . S
H532 C518 0.960 . S
H533 C519 0.963 . S
H534 C519 0.961 . S
H535 C519 0.961 . S
H536 C520 0.931 . S
H537 C525 0.930 . S
H538 C526 0.959 1_556 S
H539 C526 0.961 . S
H540 C526 0.961 . S
H541 C527 0.958 . S
H542 C527 0.961 . S
H543 C527 0.960 1_556 S
C544 C545 1.391 . S
C544 C546 1.394 . S
C544 H560 0.931 . S
C545 C544 1.391 . S
C545 C549 1.376 . S
C546 C544 1.394 . S
C546 C547 1.369 . S
C546 C550 1.531 . S
C547 C546 1.369 . S
C547 C548 1.410 . S
C547 C555 1.503 . S
C548 C547 1.410 . S
C548 C549 1.392 . S
C548 C551 1.511 . S
C549 C545 1.376 . S
C549 C548 1.392 . S
C549 H561 0.929 . S
C550 C546 1.531 . S
C550 H562 0.960 . S
C550 H563 0.962 . S
C550 H564 0.960 . S
C551 C548 1.511 . S
C551 H565 0.961 . S
C551 H566 0.961 . S
C551 H567 0.961 . S
C552 C553 1.370 . S
C552 C554 1.363 . S
C552 H568 0.931 . S
C553 C552 1.370 . S
C553 C557 1.408 . S
C554 C552 1.363 . S
C554 C555 1.370 . S
C554 C558 1.524 . S
C555 C547 1.503 . S
C555 C554 1.370 . S
C555 C556 1.403 . S
C556 C555 1.403 . S
C556 C557 1.404 . S
C556 C559 1.539 . S
C557 C553 1.408 . S
C557 C556 1.404 . S
C557 H569 0.930 . S
C558 C554 1.524 . S
C558 H570 0.956 . S
C558 H571 0.961 . S
C558 H572 0.961 . S
C559 C556 1.539 . S
C559 H573 0.958 . S
C559 H574 0.961 . S
C559 H575 0.960 . S
H560 C544 0.931 . S
H561 C549 0.929 . S
H562 C550 0.960 . S
H563 C550 0.962 . S
H564 C550 0.960 . S
H565 C551 0.961 . S
H566 C551 0.961 . S
H567 C551 0.961 . S
H568 C552 0.931 . S
H569 C557 0.930 . S
H570 C558 0.956 . S
H571 C558 0.961 . S
H572 C558 0.961 . S
H573 C559 0.958 . S
H574 C559 0.961 . S
H575 C559 0.960 . S
C576 C577 1.391 . S
C576 C578 1.394 . S
C576 H592 0.931 . S
C577 C576 1.391 . S
C577 C581 1.376 . S
C578 C576 1.394 . S
C578 C579 1.369 . S
C578 C582 1.531 . S
C579 C578 1.369 . S
C579 C580 1.410 . S
C579 C587 1.503 . S
C580 C579 1.410 . S
C580 C581 1.392 . S
C580 C583 1.511 . S
C581 C577 1.376 . S
C581 C580 1.392 . S
C581 H593 0.929 . S
C582 C578 1.531 . S
C582 H594 0.960 . S
C582 H595 0.962 . S
C582 H596 0.960 . S
C583 C580 1.511 . S
C583 H597 0.961 . S
C583 H598 0.961 . S
C583 H599 0.961 . S
C584 C585 1.370 . S
C584 C586 1.363 . S
C584 H600 0.931 . S
C585 C584 1.370 . S
C585 C589 1.408 . S
C586 C584 1.363 . S
C586 C587 1.370 . S
C586 C590 1.524 . S
C587 C579 1.503 . S
C587 C586 1.370 . S
C587 C588 1.403 . S
C588 C587 1.403 . S
C588 C589 1.404 . S
C588 C591 1.539 . S
C589 C585 1.408 . S
C589 C588 1.404 . S
C589 H601 0.930 . S
C590 C586 1.524 . S
C590 H602 0.956 . S
C590 H603 0.961 . S
C590 H604 0.961 . S
C591 C588 1.539 . S
C591 H605 0.958 . S
C591 H606 0.961 . S
C591 H607 0.960 . S
H592 C576 0.931 . S
H593 C581 0.929 . S
H594 C582 0.960 . S
H595 C582 0.962 . S
H596 C582 0.960 . S
H597 C583 0.961 . S
H598 C583 0.961 . S
H599 C583 0.961 . S
H600 C584 0.931 . S
H601 C589 0.930 . S
H602 C590 0.956 . S
H603 C590 0.961 . S
H604 C590 0.961 . S
H605 C591 0.958 . S
H606 C591 0.961 . S
H607 C591 0.960 . S
C608 C609 1.391 . S
C608 C610 1.394 . S
C608 H624 0.931 . S
C609 C608 1.391 . S
C609 C613 1.376 . S
C610 C608 1.394 . S
C610 C611 1.369 . S
C610 C614 1.531 . S
C611 C610 1.369 . S
C611 C612 1.410 . S
C611 C619 1.503 . S
C612 C611 1.410 . S
C612 C613 1.392 . S
C612 C615 1.511 . S
C613 C609 1.376 . S
C613 C612 1.392 . S
C613 H625 0.929 . S
C614 C610 1.531 . S
C614 H626 0.960 . S
C614 H627 0.962 . S
C614 H628 0.960 . S
C615 C612 1.511 . S
C615 H629 0.961 . S
C615 H630 0.961 . S
C615 H631 0.961 . S
C616 C617 1.370 . S
C616 C618 1.363 . S
C616 H632 0.931 . S
C617 C616 1.370 . S
C617 C621 1.408 . S
C618 C616 1.363 . S
C618 C619 1.370 . S
C618 C622 1.524 . S
C619 C611 1.503 . S
C619 C618 1.370 . S
C619 C620 1.403 . S
C620 C619 1.403 . S
C620 C621 1.404 . S
C620 C623 1.539 . S
C621 C617 1.408 . S
C621 C620 1.404 . S
C621 H633 0.930 . S
C622 C618 1.524 . S
C622 H634 0.956 . S
C622 H635 0.961 . S
C622 H636 0.961 . S
C623 C620 1.539 . S
C623 H637 0.958 . S
C623 H638 0.961 . S
C623 H639 0.960 . S
H624 C608 0.931 . S
H625 C613 0.929 . S
H626 C614 0.960 . S
H627 C614 0.962 . S
H628 C614 0.960 . S
H629 C615 0.961 . S
H630 C615 0.961 . S
H631 C615 0.961 . S
H632 C616 0.931 . S
H633 C621 0.930 . S
H634 C622 0.956 . S
H635 C622 0.961 . S
H636 C622 0.961 . S
H637 C623 0.958 . S
H638 C623 0.961 . S
H639 C623 0.960 . S
C640 C641 1.391 . S
C640 C642 1.394 . S
C640 H656 0.931 . S
C641 C640 1.391 . S
C641 C645 1.376 . S
C642 C640 1.394 . S
C642 C643 1.369 . S
C642 C646 1.531 . S
C643 C642 1.369 . S
C643 C644 1.410 . S
C643 C651 1.503 . S
C644 C643 1.410 . S
C644 C645 1.392 . S
C644 C647 1.511 . S
C645 C641 1.376 . S
C645 C644 1.392 . S
C645 H657 0.929 . S
C646 C642 1.531 . S
C646 H658 0.960 . S
C646 H659 0.962 . S
C646 H660 0.960 . S
C647 C644 1.511 . S
C647 H661 0.961 . S
C647 H662 0.961 . S
C647 H663 0.961 . S
C648 C649 1.370 . S
C648 C650 1.363 . S
C648 H664 0.931 . S
C649 C648 1.370 . S
C649 C653 1.408 . S
C650 C648 1.363 . S
C650 C651 1.370 . S
C650 C654 1.524 . S
C651 C643 1.503 . S
C651 C650 1.370 . S
C651 C652 1.403 . S
C652 C651 1.403 . S
C652 C653 1.404 . S
C652 C655 1.539 . S
C653 C649 1.408 . S
C653 C652 1.404 . S
C653 H665 0.930 . S
C654 C650 1.524 . S
C654 H666 0.956 . S
C654 H667 0.961 . S
C654 H668 0.961 . S
C655 C652 1.539 . S
C655 H669 0.958 . S
C655 H670 0.961 . S
C655 H671 0.960 . S
H656 C640 0.931 . S
H657 C645 0.929 . S
H658 C646 0.960 . S
H659 C646 0.962 . S
H660 C646 0.960 . S
H661 C647 0.961 . S
H662 C647 0.961 . S
H663 C647 0.961 . S
H664 C648 0.931 . S
H665 C653 0.930 . S
H666 C654 0.956 . S
H667 C654 0.961 . S
H668 C654 0.961 . S
H669 C655 0.958 . S
H670 C655 0.961 . S
H671 C655 0.960 . S
C672 C673 1.391 . S
C672 C674 1.394 . S
C672 H688 0.931 . S
C673 C672 1.391 . S
C673 C677 1.376 . S
C674 C672 1.394 . S
C674 C675 1.369 . S
C674 C678 1.531 . S
C675 C674 1.369 . S
C675 C676 1.410 . S
C675 C683 1.503 . S
C676 C675 1.410 . S
C676 C677 1.392 . S
C676 C679 1.511 . S
C677 C673 1.376 . S
C677 C676 1.392 . S
C677 H689 0.929 1_655 S
C678 C674 1.531 . S
C678 H690 0.960 . S
C678 H691 0.962 . S
C678 H692 0.960 . S
C679 C676 1.511 . S
C679 H693 0.961 . S
C679 H694 0.961 . S
C679 H695 0.961 . S
C680 C681 1.370 . S
C680 C682 1.363 . S
C680 H696 0.931 . S
C681 C680 1.370 . S
C681 C685 1.408 . S
C682 C680 1.363 . S
C682 C683 1.370 . S
C682 C686 1.524 . S
C683 C675 1.503 . S
C683 C682 1.370 . S
C683 C684 1.403 . S
C684 C683 1.403 . S
C684 C685 1.404 . S
C684 C687 1.539 . S
C685 C681 1.408 . S
C685 C684 1.404 . S
C685 H697 0.930 . S
C686 C682 1.524 . S
C686 H698 0.956 . S
C686 H699 0.961 . S
C686 H700 0.961 . S
C687 C684 1.539 . S
C687 H701 0.958 . S
C687 H702 0.961 . S
C687 H703 0.960 . S
H688 C672 0.931 . S
H689 C677 0.929 1_455 S
H690 C678 0.960 . S
H691 C678 0.962 . S
H692 C678 0.960 . S
H693 C679 0.961 . S
H694 C679 0.961 . S
H695 C679 0.961 . S
H696 C680 0.931 . S
H697 C685 0.930 . S
H698 C686 0.956 . S
H699 C686 0.961 . S
H700 C686 0.961 . S
H701 C687 0.958 . S
H702 C687 0.961 . S
H703 C687 0.960 . S
C704 C705 1.391 . S
C704 C706 1.394 . S
C704 H720 0.931 . S
C705 C704 1.391 . S
C705 C709 1.376 . S
C706 C704 1.394 . S
C706 C707 1.369 . S
C706 C710 1.531 . S
C707 C706 1.369 . S
C707 C708 1.410 . S
C707 C715 1.503 . S
C708 C707 1.410 . S
C708 C709 1.392 . S
C708 C711 1.511 . S
C709 C705 1.376 . S
C709 C708 1.392 . S
C709 H721 0.929 . S
C710 C706 1.531 . S
C710 H722 0.960 . S
C710 H723 0.962 . S
C710 H724 0.960 . S
C711 C708 1.511 . S
C711 H725 0.961 . S
C711 H726 0.961 . S
C711 H727 0.961 . S
C712 C713 1.370 . S
C712 C714 1.363 . S
C712 H728 0.931 . S
C713 C712 1.370 . S
C713 C717 1.408 . S
C714 C712 1.363 . S
C714 C715 1.370 . S
C714 C718 1.524 . S
C715 C707 1.503 . S
C715 C714 1.370 . S
C715 C716 1.403 . S
C716 C715 1.403 . S
C716 C717 1.404 . S
C716 C719 1.539 . S
C717 C713 1.408 . S
C717 C716 1.404 . S
C717 H729 0.930 . S
C718 C714 1.524 . S
C718 H730 0.956 . S
C718 H731 0.961 . S
C718 H732 0.961 . S
C719 C716 1.539 . S
C719 H733 0.958 . S
C719 H734 0.961 . S
C719 H735 0.960 . S
H720 C704 0.931 . S
H721 C709 0.929 . S
H722 C710 0.960 . S
H723 C710 0.962 . S
H724 C710 0.960 . S
H725 C711 0.961 . S
H726 C711 0.961 . S
H727 C711 0.961 . S
H728 C712 0.931 . S
H729 C717 0.930 . S
H730 C718 0.956 . S
H731 C718 0.961 . S
H732 C718 0.961 . S
H733 C719 0.958 . S
H734 C719 0.961 . S
H735 C719 0.960 . S
C736 C737 1.391 . S
C736 C738 1.394 . S
C736 H752 0.931 . S
C737 C736 1.391 . S
C737 C741 1.376 . S
C738 C736 1.394 . S
C738 C739 1.369 . S
C738 C742 1.531 . S
C739 C738 1.369 . S
C739 C740 1.410 . S
C739 C747 1.503 . S
C740 C739 1.410 . S
C740 C741 1.392 . S
C740 C743 1.511 . S
C741 C737 1.376 . S
C741 C740 1.392 . S
C741 H753 0.929 . S
C742 C738 1.531 . S
C742 H754 0.960 . S
C742 H755 0.962 . S
C742 H756 0.960 . S
C743 C740 1.511 . S
C743 H757 0.961 . S
C743 H758 0.961 . S
C743 H759 0.961 . S
C744 C745 1.370 . S
C744 C746 1.363 . S
C744 H760 0.931 . S
C745 C744 1.370 . S
C745 C749 1.408 . S
C746 C744 1.363 . S
C746 C747 1.370 . S
C746 C750 1.524 . S
C747 C739 1.503 . S
C747 C746 1.370 . S
C747 C748 1.403 . S
C748 C747 1.403 . S
C748 C749 1.404 . S
C748 C751 1.539 . S
C749 C745 1.408 . S
C749 C748 1.404 . S
C749 H761 0.930 . S
C750 C746 1.524 . S
C750 H762 0.956 . S
C750 H763 0.961 . S
C750 H764 0.961 . S
C751 C748 1.539 . S
C751 H765 0.958 . S
C751 H766 0.961 . S
C751 H767 0.960 . S
H752 C736 0.931 . S
H753 C741 0.929 . S
H754 C742 0.960 . S
H755 C742 0.962 . S
H756 C742 0.960 . S
H757 C743 0.961 . S
H758 C743 0.961 . S
H759 C743 0.961 . S
H760 C744 0.931 . S
H761 C749 0.930 . S
H762 C750 0.956 . S
H763 C750 0.961 . S
H764 C750 0.961 . S
H765 C751 0.958 . S
H766 C751 0.961 . S
H767 C751 0.960 . S
C768 C769 1.391 . S
C768 C770 1.394 . S
C768 H784 0.931 . S
C769 C768 1.391 . S
C769 C773 1.376 . S
C770 C768 1.394 . S
C770 C771 1.369 . S
C770 C774 1.531 . S
C771 C770 1.369 . S
C771 C772 1.410 . S
C771 C779 1.503 . S
C772 C771 1.410 . S
C772 C773 1.392 . S
C772 C775 1.511 . S
C773 C769 1.376 . S
C773 C772 1.392 . S
C773 H785 0.929 . S
C774 C770 1.531 . S
C774 H786 0.960 . S
C774 H787 0.962 . S
C774 H788 0.960 . S
C775 C772 1.511 . S
C775 H789 0.961 . S
C775 H790 0.961 . S
C775 H791 0.961 . S
C776 C777 1.370 . S
C776 C778 1.363 . S
C776 H792 0.931 . S
C777 C776 1.370 . S
C777 C781 1.408 . S
C778 C776 1.363 . S
C778 C779 1.370 . S
C778 C782 1.524 . S
C779 C771 1.503 . S
C779 C778 1.370 . S
C779 C780 1.403 . S
C780 C779 1.403 . S
C780 C781 1.404 . S
C780 C783 1.539 . S
C781 C777 1.408 . S
C781 C780 1.404 . S
C781 H793 0.930 . S
C782 C778 1.524 . S
C782 H794 0.956 . S
C782 H795 0.961 . S
C782 H796 0.961 . S
C783 C780 1.539 . S
C783 H797 0.958 . S
C783 H798 0.961 . S
C783 H799 0.960 . S
H784 C768 0.931 . S
H785 C773 0.929 . S
H786 C774 0.960 . S
H787 C774 0.962 . S
H788 C774 0.960 . S
H789 C775 0.961 . S
H790 C775 0.961 . S
H791 C775 0.961 . S
H792 C776 0.931 . S
H793 C781 0.930 . S
H794 C782 0.956 . S
H795 C782 0.961 . S
H796 C782 0.961 . S
H797 C783 0.958 . S
H798 C783 0.961 . S
H799 C783 0.960 . S
C289 C2 0.536 . S
C297 C74 0.490 . S
C321 C38 0.505 . S
C329 C110 0.472 . S
C353 C146 0.506 . S
C361 C218 0.504 . S
C385 C182 0.450 . S
C393 C254 0.495 . S
C417 C4 1.406 . S
C425 C184 1.449 . S
C449 C40 1.458 . S
C457 C220 1.444 . S
C481 C256 1.460 . S
C489 C76 1.443 . S
C513 C112 1.448 . S
C521 C148 1.448 . S
C545 C147 1.709 . S
C553 C14 1.613 . S
C577 C50 1.585 . S
C585 C183 1.706 1_565 S
C609 C86 1.591 . S
C617 C219 1.702 . S
C641 C122 1.659 . S
C649 C255 1.686 1_545 S
C673 C3 1.716 1_655 S
C681 C158 1.611 . S
C705 C194 1.587 . S
C713 C39 1.706 . S
C737 C230 1.653 . S
C745 C75 1.685 1_455 S
C769 C111 1.713 . S
C777 C266 1.616 . S
