# Generated by pormake.
# Topology gsi, (4)-cn, num edge types: 1
# Building blocks:
#     Node 0, Type 0, BuildingBlock: GALJAG_clean_sbu_0, # of connection points: 4
#     Node 1, Type 0, BuildingBlock: GALJAG_clean_sbu_0, # of connection points: 4
#     Node 2, Type 0, BuildingBlock: GALJAG_clean_sbu_0, # of connection points: 4
#     Node 3, Type 0, BuildingBlock: GALJAG_clean_sbu_0, # of connection points: 4
#     Node 4, Type 0, BuildingBlock: GALJAG_clean_sbu_0, # of connection points: 4
#     Node 5, Type 0, BuildingBlock: GALJAG_clean_sbu_0, # of connection points: 4
#     Node 6, Type 0, BuildingBlock: GALJAG_clean_sbu_0, # of connection points: 4
#     Node 7, Type 0, BuildingBlock: GALJAG_clean_sbu_0, # of connection points: 4
#     Node 8, Type 0, BuildingBlock: GALJAG_clean_sbu_0, # of connection points: 4
#     Node 9, Type 0, BuildingBlock: GALJAG_clean_sbu_0, # of connection points: 4
#     Node 10, Type 0, BuildingBlock: GALJAG_clean_sbu_0, # of connection points: 4
#     Node 11, Type 0, BuildingBlock: GALJAG_clean_sbu_0, # of connection points: 4
#     Node 12, Type 0, BuildingBlock: GALJAG_clean_sbu_0, # of connection points: 4
#     Node 13, Type 0, BuildingBlock: GALJAG_clean_sbu_0, # of connection points: 4
#     Node 14, Type 0, BuildingBlock: GALJAG_clean_sbu_0, # of connection points: 4
#     Node 15, Type 0, BuildingBlock: GALJAG_clean_sbu_0, # of connection points: 4
#     Edge 16, Type (0, 0), BuildingBlock: MIFKUJ_clean_linker_0, # of connection points: 2
#     Edge 17, Type (0, 0), BuildingBlock: MIFKUJ_clean_linker_0, # of connection points: 2
#     Edge 18, Type (0, 0), BuildingBlock: MIFKUJ_clean_linker_0, # of connection points: 2
#     Edge 19, Type (0, 0), BuildingBlock: MIFKUJ_clean_linker_0, # of connection points: 2
#     Edge 20, Type (0, 0), BuildingBlock: MIFKUJ_clean_linker_0, # of connection points: 2
#     Edge 21, Type (0, 0), BuildingBlock: MIFKUJ_clean_linker_0, # of connection points: 2
#     Edge 22, Type (0, 0), BuildingBlock: MIFKUJ_clean_linker_0, # of connection points: 2
#     Edge 23, Type (0, 0), BuildingBlock: MIFKUJ_clean_linker_0, # of connection points: 2
#     Edge 24, Type (0, 0), BuildingBlock: MIFKUJ_clean_linker_0, # of connection points: 2
#     Edge 25, Type (0, 0), BuildingBlock: MIFKUJ_clean_linker_0, # of connection points: 2
#     Edge 26, Type (0, 0), BuildingBlock: MIFKUJ_clean_linker_0, # of connection points: 2
#     Edge 27, Type (0, 0), BuildingBlock: MIFKUJ_clean_linker_0, # of connection points: 2
#     Edge 28, Type (0, 0), BuildingBlock: MIFKUJ_clean_linker_0, # of connection points: 2
#     Edge 29, Type (0, 0), BuildingBlock: MIFKUJ_clean_linker_0, # of connection points: 2
#     Edge 30, Type (0, 0), BuildingBlock: MIFKUJ_clean_linker_0, # of connection points: 2
#     Edge 31, Type (0, 0), BuildingBlock: MIFKUJ_clean_linker_0, # of connection points: 2
#     Edge 32, Type (0, 0), BuildingBlock: MIFKUJ_clean_linker_0, # of connection points: 2
#     Edge 33, Type (0, 0), BuildingBlock: MIFKUJ_clean_linker_0, # of connection points: 2
#     Edge 34, Type (0, 0), BuildingBlock: MIFKUJ_clean_linker_0, # of connection points: 2
#     Edge 35, Type (0, 0), BuildingBlock: MIFKUJ_clean_linker_0, # of connection points: 2
#     Edge 36, Type (0, 0), BuildingBlock: MIFKUJ_clean_linker_0, # of connection points: 2
#     Edge 37, Type (0, 0), BuildingBlock: MIFKUJ_clean_linker_0, # of connection points: 2
#     Edge 38, Type (0, 0), BuildingBlock: MIFKUJ_clean_linker_0, # of connection points: 2
#     Edge 39, Type (0, 0), BuildingBlock: MIFKUJ_clean_linker_0, # of connection points: 2
#     Edge 40, Type (0, 0), BuildingBlock: MIFKUJ_clean_linker_0, # of connection points: 2
#     Edge 41, Type (0, 0), BuildingBlock: MIFKUJ_clean_linker_0, # of connection points: 2
#     Edge 42, Type (0, 0), BuildingBlock: MIFKUJ_clean_linker_0, # of connection points: 2
#     Edge 43, Type (0, 0), BuildingBlock: MIFKUJ_clean_linker_0, # of connection points: 2
#     Edge 44, Type (0, 0), BuildingBlock: MIFKUJ_clean_linker_0, # of connection points: 2
#     Edge 45, Type (0, 0), BuildingBlock: MIFKUJ_clean_linker_0, # of connection points: 2
#     Edge 46, Type (0, 0), BuildingBlock: MIFKUJ_clean_linker_0, # of connection points: 2
#     Edge 47, Type (0, 0), BuildingBlock: MIFKUJ_clean_linker_0, # of connection points: 2
# Relax obj value: 0.227
# Max RMSD: 0.210
# Mean RMSD: 0.172
data_MOF--net-gsi--node1-GALJAG_clean_sbu_0--edge1-MIFKUJ_clean_linker_0
_symmetry_space_group_name_H-M    P1
_symmetry_Int_Tables_number       1
_symmetry_cell_setting            triclinic
loop_
_symmetry_equiv_pos_as_xyz
'x, y, z'
_cell_length_a     52.872372
_cell_length_b     51.435939
_cell_length_c     58.346001
_cell_angle_alpha  89.987636
_cell_angle_beta   90.013567
_cell_angle_gamma 105.63085
loop_
_atom_site_label
_atom_site_type_symbol
_atom_site_fract_x
_atom_site_fract_y
_atom_site_fract_z
_atom_type_partial_charge
In0 In 0.13533 0.14871 0.12664 0.0
O1 O 0.15511 0.16112 0.09201 0.0
O2 O 0.13972 0.11931 0.09803 0.0
C3 C 0.17046 0.18267 0.15362 0.0
C4 C 0.09608 0.17307 0.12084 0.0
C5 C 0.13032 0.10658 0.15576 0.0
O6 O 0.17715 0.17198 0.13592 0.0
O7 O 0.14601 0.17675 0.15726 0.0
O8 O 0.11112 0.10904 0.14378 0.0
O9 O 0.1514 0.12457 0.15246 0.0
C10 C 0.15188 0.13752 0.08453 0.0
O11 O 0.09136 0.14805 0.12485 0.0
O12 O 0.12012 0.18514 0.11939 0.0
In13 In 0.86679 0.3517 0.12918 0.0
O14 O 0.91027 0.35136 0.12651 0.0
O15 O 0.88068 0.31564 0.11809 0.0
C16 C 0.8675 0.3973 0.1525 0.0
C17 C 0.84825 0.35915 0.08714 0.0
C18 C 0.8403 0.31988 0.16269 0.0
O19 O 0.88859 0.39175 0.14682 0.0
O20 O 0.84685 0.38056 0.14566 0.0
O21 O 0.82925 0.32467 0.14457 0.0
O22 O 0.86474 0.33054 0.16357 0.0
C23 C 0.90486 0.32686 0.12039 0.0
O24 O 0.83859 0.33855 0.09925 0.0
O25 O 0.86772 0.37595 0.09601 0.0
In26 In 0.17411 0.86681 0.34214 0.0
O27 O 0.14554 0.82856 0.3553 0.0
O28 O 0.13163 0.86361 0.35226 0.0
C29 C 0.19495 0.8337 0.31682 0.0
C30 C 0.16534 0.90524 0.31361 0.0
C31 C 0.20459 0.87979 0.38024 0.0
O32 O 0.17221 0.82649 0.32525 0.0
O33 O 0.20732 0.85785 0.32096 0.0
O34 O 0.21397 0.8828 0.36026 0.0
O35 O 0.17994 0.87153 0.38093 0.0
C36 C 0.12651 0.83884 0.35738 0.0
O37 O 0.17606 0.91097 0.33298 0.0
O38 O 0.15945 0.8805 0.30874 0.0
In39 In 0.82079 0.63025 0.34478 0.0
O40 O 0.84952 0.67146 0.34893 0.0
O41 O 0.86214 0.63756 0.35996 0.0
C42 C 0.79745 0.66175 0.32005 0.0
C43 C 0.83133 0.59244 0.31663 0.0
C44 C 0.79114 0.61355 0.38283 0.0
O45 O 0.80761 0.66834 0.33945 0.0
O46 O 0.79877 0.63896 0.313 0.0
O47 O 0.78132 0.61467 0.36332 0.0
O48 O 0.81586 0.61941 0.38296 0.0
C49 C 0.86761 0.6629 0.35756 0.0
O50 O 0.81158 0.5873 0.32972 0.0
O51 O 0.84564 0.61631 0.31793 0.0
In52 In 0.36778 0.85347 0.62698 0.0
O53 O 0.41045 0.85173 0.62159 0.0
O54 O 0.38033 0.81483 0.62212 0.0
C55 C 0.37124 0.9024 0.64562 0.0
C56 C 0.34771 0.85644 0.58475 0.0
C57 C 0.34052 0.82815 0.66325 0.0
O58 O 0.39095 0.89292 0.64447 0.0
O59 O 0.35086 0.88807 0.63609 0.0
O60 O 0.33074 0.8266 0.64337 0.0
O61 O 0.36433 0.84137 0.66453 0.0
C62 C 0.40455 0.82625 0.6204 0.0
O63 O 0.33558 0.84085 0.60022 0.0
O64 O 0.37049 0.87021 0.59031 0.0
In65 In 0.85862 0.84268 0.87367 0.0
O66 O 0.88144 0.88116 0.85432 0.0
O67 O 0.84035 0.86599 0.84876 0.0
C68 C 0.90088 0.82288 0.88004 0.0
C69 C 0.84109 0.85519 0.91501 0.0
C70 C 0.82535 0.80549 0.84763 0.0
O71 O 0.90312 0.84798 0.8795 0.0
O72 O 0.87771 0.80839 0.87782 0.0
O73 O 0.81854 0.81292 0.8668 0.0
O74 O 0.8489 0.81638 0.84208 0.0
C75 C 0.86124 0.88357 0.84378 0.0
O76 O 0.84179 0.83162 0.90984 0.0
O77 O 0.84969 0.87246 0.89964 0.0
In78 In 0.14888 0.66849 0.87635 0.0
O79 O 0.18241 0.67007 0.90136 0.0
O80 O 0.14462 0.64643 0.9111 0.0
C81 C 0.17704 0.70874 0.8498 0.0
C82 C 0.14715 0.62543 0.84879 0.0
C83 C 0.10826 0.69003 0.88485 0.0
O84 O 0.18482 0.70368 0.86937 0.0
O85 O 0.15478 0.69397 0.84399 0.0
O86 O 0.10562 0.66857 0.8735 0.0
O87 O 0.1311 0.70006 0.89255 0.0
C88 C 0.16866 0.65474 0.91614 0.0
O89 O 0.12839 0.62601 0.862 0.0
O90 O 0.1664 0.64599 0.84991 0.0
In91 In 0.83208 0.12938 0.65614 0.0
O92 O 0.85773 0.16909 0.64237 0.0
O93 O 0.87386 0.13555 0.64218 0.0
C94 C 0.81169 0.15614 0.6878 0.0
C95 C 0.80103 0.12051 0.6184 0.0
C96 C 0.83897 0.08824 0.68234 0.0
O97 O 0.83552 0.16331 0.68194 0.0
O98 O 0.79822 0.13493 0.67819 0.0
O99 O 0.8211 0.08473 0.66736 0.0
O100 O 0.85317 0.11213 0.68382 0.0
C101 C 0.87723 0.16031 0.63795 0.0
O102 O 0.81809 0.10779 0.6218 0.0
O103 O 0.79943 0.13672 0.63413 0.0
In104 In 0.17574 0.37763 0.66308 0.0
O105 O 0.21428 0.38886 0.64269 0.0
O106 O 0.17894 0.38476 0.62429 0.0
C107 C 0.16804 0.41745 0.69074 0.0
C108 C 0.12953 0.34592 0.64803 0.0
C109 C 0.19879 0.34708 0.68918 0.0
O110 O 0.181 0.42244 0.67236 0.0
O111 O 0.15912 0.3927 0.695 0.0
O112 O 0.17489 0.33989 0.68365 0.0
O113 O 0.2112 0.37009 0.68192 0.0
C114 C 0.20352 0.38903 0.62345 0.0
O115 O 0.14916 0.33714 0.65222 0.0
O116 O 0.13327 0.37102 0.6511 0.0
In117 In 0.64115 0.15837 0.3723 0.0
O118 O 0.62329 0.11384 0.36201 0.0
O119 O 0.63984 0.14211 0.33601 0.0
C120 C 0.59981 0.1787 0.38156 0.0
C121 C 0.66227 0.14662 0.41218 0.0
C122 C 0.67961 0.19353 0.34894 0.0
O123 O 0.59675 0.15388 0.37765 0.0
O124 O 0.62334 0.1926 0.38133 0.0
O125 O 0.68452 0.17742 0.36353 0.0
O126 O 0.65558 0.19215 0.34663 0.0
C127 C 0.62928 0.11783 0.34108 0.0
O128 O 0.65593 0.16828 0.40907 0.0
O129 O 0.65764 0.13071 0.39535 0.0
In130 In 0.63218 0.6454 0.63089 0.0
O131 O 0.58905 0.64627 0.62687 0.0
O132 O 0.61904 0.68257 0.62126 0.0
C133 C 0.63031 0.59786 0.65175 0.0
C134 C 0.6528 0.63929 0.58944 0.0
C135 C 0.65781 0.67602 0.66551 0.0
O136 O 0.60972 0.60535 0.6482 0.0
O137 O 0.65098 0.61361 0.64389 0.0
O138 O 0.66759 0.67642 0.64572 0.0
O139 O 0.63481 0.66085 0.6676 0.0
C140 C 0.59474 0.67118 0.62212 0.0
O141 O 0.66546 0.6543 0.60499 0.0
O142 O 0.62922 0.62761 0.59447 0.0
In143 In 0.674 0.3623 0.84304 0.0
O144 O 0.64277 0.32265 0.84688 0.0
O145 O 0.63618 0.35696 0.86378 0.0
C146 C 0.69681 0.33581 0.81283 0.0
C147 C 0.66559 0.4031 0.81706 0.0
C148 C 0.70237 0.36983 0.8824 0.0
O149 O 0.67228 0.33186 0.81426 0.0
O150 O 0.70991 0.35372 0.82615 0.0
O151 O 0.69743 0.38936 0.87184 0.0
O152 O 0.69286 0.34717 0.87324 0.0
C153 C 0.62782 0.33203 0.85935 0.0
O154 O 0.68828 0.40219 0.82299 0.0
O155 O 0.64735 0.38404 0.82475 0.0
In156 In 0.32632 0.13156 0.84168 0.0
O157 O 0.35239 0.17076 0.85596 0.0
O158 O 0.36613 0.13571 0.85897 0.0
C159 C 0.30982 0.1609 0.80941 0.0
C160 C 0.33448 0.09152 0.81482 0.0
C161 C 0.29344 0.12107 0.87828 0.0
O162 O 0.33301 0.16708 0.81696 0.0
O163 O 0.29513 0.13939 0.81757 0.0
O164 O 0.30865 0.10658 0.8737 0.0
O165 O 0.29466 0.13998 0.86432 0.0
C166 C 0.3705 0.16077 0.86243 0.0
O167 O 0.31257 0.08999 0.82415 0.0
O168 O 0.35206 0.11281 0.81938 0.0
In169 In 0.35534 0.33783 0.37601 0.0
O170 O 0.32089 0.33111 0.40091 0.0
O171 O 0.35743 0.35663 0.41187 0.0
C172 C 0.33152 0.30538 0.34188 0.0
C173 C 0.3563 0.38381 0.35329 0.0
C174 C 0.39479 0.31456 0.3841 0.0
O175 O 0.32454 0.30059 0.36252 0.0
O176 O 0.35076 0.3257 0.33874 0.0
O177 O 0.39915 0.33897 0.37804 0.0
O178 O 0.37084 0.30243 0.3866 0.0
C179 C 0.33354 0.3461 0.41647 0.0
O180 O 0.37712 0.37954 0.36125 0.0
O181 O 0.33555 0.36574 0.35783 0.0
In182 In 0.32959 0.62486 0.16028 0.0
O183 O 0.35444 0.66543 0.148 0.0
O184 O 0.37228 0.63291 0.14832 0.0
C185 C 0.30774 0.65458 0.18836 0.0
C186 C 0.30003 0.61239 0.12166 0.0
C187 C 0.33888 0.58552 0.18754 0.0
O188 O 0.33042 0.66315 0.18001 0.0
O189 O 0.2959 0.63072 0.18273 0.0
O190 O 0.32438 0.58024 0.17004 0.0
O191 O 0.34881 0.61032 0.19095 0.0
C192 C 0.3748 0.65768 0.14442 0.0
O193 O 0.3245 0.61552 0.12182 0.0
O194 O 0.2903 0.61436 0.14106 0.0
In195 In 0.67379 0.87466 0.15811 0.0
O196 O 0.68585 0.89308 0.12237 0.0
O197 O 0.71311 0.87768 0.14083 0.0
C198 C 0.66609 0.914 0.18597 0.0
C199 C 0.62679 0.84616 0.14124 0.0
C200 C 0.69176 0.84224 0.18641 0.0
O201 O 0.67861 0.91933 0.16732 0.0
O202 O 0.65779 0.88918 0.19038 0.0
O203 O 0.67316 0.83351 0.1725 0.0
O204 O 0.7013 0.86756 0.1863 0.0
C205 C 0.70791 0.88802 0.12249 0.0
O206 O 0.64706 0.83778 0.14063 0.0
O207 O 0.63032 0.8694 0.14975 0.0
H208 H 0.22319 0.18793 0.15471 0.0
H209 H 0.25349 0.20609 0.1861 0.0
H210 H 0.19135 0.22864 0.22218 0.0
H211 H 0.16084 0.20986 0.19119 0.0
H212 H 0.27243 0.25264 0.20565 0.0
H213 H 0.19449 0.2173 0.27838 0.0
H214 H 0.15455 0.18013 0.28498 0.0
H215 H 0.18131 0.1307 0.23644 0.0
H216 H 0.2216 0.16737 0.22982 0.0
H217 H 0.31839 0.32711 0.30332 0.0
H218 H 0.29302 0.30385 0.27097 0.0
H219 H 0.28719 0.22708 0.30372 0.0
H220 H 0.31079 0.25084 0.33721 0.0
H221 H 0.24444 0.22312 0.28484 0.0
H222 H 0.33102 0.25369 0.25588 0.0
H223 H 0.37405 0.28573 0.248 0.0
H224 H 0.33662 0.33448 0.20758 0.0
H225 H 0.29333 0.30293 0.21545 0.0
C226 C 0.21611 0.1971 0.16921 0.0
C227 C 0.18964 0.19733 0.17063 0.0
C228 C 0.23342 0.20741 0.18714 0.0
C229 C 0.22452 0.21815 0.2067 0.0
C230 C 0.19846 0.2198 0.2075 0.0
C231 C 0.1811 0.20928 0.18971 0.0
C232 C 0.24221 0.22714 0.22654 0.0
C233 C 0.26641 0.24615 0.22297 0.0
C234 C 0.23484 0.21771 0.24901 0.0
C235 C 0.21098 0.19523 0.25346 0.0
C236 C 0.19195 0.19845 0.26924 0.0
C237 C 0.16923 0.17747 0.27296 0.0
C238 C 0.16536 0.15313 0.26107 0.0
C239 C 0.18429 0.14961 0.24557 0.0
C240 C 0.20706 0.17049 0.24182 0.0
C241 C 0.3117 0.30525 0.30354 0.0
C242 C 0.31667 0.29063 0.32249 0.0
C243 C 0.29741 0.29192 0.28496 0.0
C244 C 0.28888 0.26358 0.28443 0.0
C245 C 0.29369 0.24893 0.30358 0.0
C246 C 0.3072 0.26242 0.32264 0.0
C247 C 0.27436 0.24958 0.26412 0.0
C248 C 0.25072 0.22948 0.26756 0.0
C249 C 0.28286 0.25709 0.2414 0.0
C250 C 0.30891 0.27598 0.23636 0.0
C251 C 0.33195 0.2713 0.24539 0.0
C252 C 0.35639 0.28938 0.24092 0.0
C253 C 0.35806 0.31214 0.22732 0.0
C254 C 0.3353 0.31684 0.21811 0.0
C255 C 0.31081 0.29883 0.22253 0.0
H256 H 0.37699 0.32613 0.2239 0.0
H257 H 0.14769 0.13701 0.26386 0.0
H258 H 0.85996 0.29994 0.19995 0.0
H259 H 0.8358 0.27914 0.2341 0.0
H260 H 0.76357 0.28675 0.20413 0.0
H261 H 0.78748 0.30714 0.16979 0.0
H262 H 0.77457 0.30793 0.25013 0.0
H263 H 0.77168 0.22777 0.20552 0.0
H264 H 0.79131 0.197 0.18377 0.0
H265 H 0.83558 0.18634 0.24307 0.0
H266 H 0.81647 0.21738 0.2651 0.0
H267 H 0.67207 0.22704 0.31524 0.0
H268 H 0.70369 0.25055 0.28684 0.0
H269 H 0.76435 0.222 0.31961 0.0
H270 H 0.73236 0.19767 0.34795 0.0
H271 H 0.76455 0.21352 0.27522 0.0
H272 H 0.7651 0.28948 0.32135 0.0
H273 H 0.74699 0.32086 0.34383 0.0
H274 H 0.70979 0.34098 0.28347 0.0
H275 H 0.72736 0.30942 0.26067 0.0
C276 C 0.83888 0.29686 0.20055 0.0
C277 C 0.82555 0.30509 0.18226 0.0
C278 C 0.82516 0.28502 0.22003 0.0
C279 C 0.79798 0.28154 0.22157 0.0
C280 C 0.78458 0.28938 0.2032 0.0
C281 C 0.79821 0.30084 0.18359 0.0
C282 C 0.78356 0.27045 0.24261 0.0
C283 C 0.77212 0.28723 0.25559 0.0
C284 C 0.78144 0.24383 0.25009 0.0
C285 C 0.7929 0.22515 0.23687 0.0
C286 C 0.7858 0.21908 0.21386 0.0
C287 C 0.79679 0.20154 0.20149 0.0
C288 C 0.81475 0.18979 0.21201 0.0
C289 C 0.8217 0.1955 0.23494 0.0
C290 C 0.81079 0.21305 0.24737 0.0
C291 C 0.69222 0.22608 0.31666 0.0
C292 C 0.69975 0.21049 0.3338 0.0
C293 C 0.71035 0.23967 0.30045 0.0
C294 C 0.73649 0.2383 0.30122 0.0
C295 C 0.74428 0.22338 0.31874 0.0
C296 C 0.72605 0.2096 0.33495 0.0
C297 C 0.7549 0.2508 0.28264 0.0
C298 C 0.7672 0.23435 0.27008 0.0
C299 C 0.75808 0.27788 0.27569 0.0
C300 C 0.74742 0.29691 0.28933 0.0
C301 C 0.75289 0.30043 0.31289 0.0
C302 C 0.74275 0.31828 0.32569 0.0
C303 C 0.72721 0.33287 0.31509 0.0
C304 C 0.72182 0.32966 0.29166 0.0
C305 C 0.7319 0.31182 0.27878 0.0
H306 H 0.71938 0.34668 0.32503 0.0
H307 H 0.82322 0.17621 0.20241 0.0
H308 H 0.259 0.64129 0.20812 0.0
H309 H 0.23924 0.67059 0.23109 0.0
H310 H 0.30997 0.73569 0.22394 0.0
H311 H 0.32992 0.70648 0.20138 0.0
H312 H 0.29196 0.73266 0.26699 0.0
H313 H 0.25584 0.73314 0.19118 0.0
H314 H 0.23254 0.7125 0.1563 0.0
H315 H 0.16347 0.67724 0.19605 0.0
H316 H 0.18649 0.69738 0.23124 0.0
H317 H 0.24377 0.84398 0.29754 0.0
H318 H 0.26245 0.81236 0.27647 0.0
H319 H 0.19033 0.74959 0.28565 0.0
H320 H 0.17144 0.78114 0.30643 0.0
H321 H 0.20812 0.75007 0.24252 0.0
H322 H 0.24372 0.75075 0.31817 0.0
H323 H 0.26696 0.77138 0.35307 0.0
H324 H 0.33692 0.80434 0.31377 0.0
H325 H 0.31397 0.78421 0.27855 0.0
C326 C 0.27033 0.6618 0.21156 0.0
C327 C 0.29593 0.67164 0.2029 0.0
C328 C 0.25902 0.67855 0.22458 0.0
C329 C 0.27305 0.70542 0.22899 0.0
C330 C 0.2988 0.71505 0.22074 0.0
C331 C 0.31012 0.69833 0.2078 0.0
C332 C 0.26091 0.72377 0.2419 0.0
C333 C 0.27377 0.73669 0.26151 0.0
C334 C 0.23688 0.72854 0.23502 0.0
C335 C 0.22298 0.71653 0.21387 0.0
C336 C 0.23575 0.72081 0.19251 0.0
C337 C 0.22258 0.70923 0.17268 0.0
C338 C 0.19657 0.6935 0.17397 0.0
C339 C 0.18364 0.68939 0.19508 0.0
C340 C 0.19672 0.7009 0.21497 0.0
C341 C 0.23192 0.82347 0.29501 0.0
C342 C 0.20621 0.815 0.30366 0.0
C343 C 0.24262 0.80539 0.28308 0.0
C344 C 0.22786 0.77854 0.27974 0.0
C345 C 0.20205 0.7702 0.28806 0.0
C346 C 0.19134 0.78824 0.29997 0.0
C347 C 0.23927 0.75911 0.26751 0.0
C348 C 0.22627 0.74597 0.24805 0.0
C349 C 0.26316 0.75414 0.27452 0.0
C350 C 0.27704 0.76619 0.29568 0.0
C351 C 0.264 0.76258 0.31693 0.0
C352 C 0.27713 0.77415 0.33678 0.0
C353 C 0.30338 0.78922 0.33562 0.0
C354 C 0.31658 0.79269 0.31463 0.0
C355 C 0.30352 0.78119 0.29472 0.0
H356 H 0.31352 0.79816 0.35101 0.0
H357 H 0.18641 0.68456 0.15859 0.0
H358 H 0.79977 0.71414 0.3292 0.0
H359 H 0.78126 0.7446 0.30678 0.0
H360 H 0.74965 0.68067 0.25834 0.0
H361 H 0.76896 0.65025 0.28042 0.0
H362 H 0.77077 0.72567 0.23638 0.0
H363 H 0.71039 0.70116 0.29874 0.0
H364 H 0.69656 0.6946 0.33916 0.0
H365 H 0.72811 0.77943 0.35177 0.0
H366 H 0.74246 0.78644 0.31147 0.0
H367 H 0.68086 0.78762 0.18319 0.0
H368 H 0.69885 0.75726 0.20643 0.0
H369 H 0.74351 0.82501 0.24593 0.0
H370 H 0.72583 0.85569 0.22247 0.0
H371 H 0.71532 0.77838 0.27234 0.0
H372 H 0.77547 0.80185 0.20899 0.0
H373 H 0.78752 0.80734 0.16811 0.0
H374 H 0.75381 0.72252 0.15706 0.0
H375 H 0.74119 0.71659 0.19784 0.0
C376 C 0.78879 0.70653 0.31382 0.0
C377 C 0.78567 0.67979 0.3066 0.0
C378 C 0.77811 0.72393 0.30107 0.0
C379 C 0.76367 0.71481 0.28108 0.0
C380 C 0.76065 0.68812 0.27376 0.0
C381 C 0.77161 0.67075 0.28639 0.0
C382 C 0.75222 0.73334 0.26761 0.0
C383 C 0.75833 0.73687 0.2442 0.0
C384 C 0.73641 0.74841 0.27789 0.0
C385 C 0.72772 0.74428 0.30213 0.0
C386 C 0.71455 0.71839 0.31017 0.0
C387 C 0.70659 0.71459 0.33305 0.0
C388 C 0.71151 0.73657 0.34804 0.0
C389 C 0.72434 0.76241 0.34015 0.0
C390 C 0.73237 0.76631 0.31728 0.0
C391 C 0.69445 0.79606 0.19687 0.0
C392 C 0.70202 0.82401 0.20102 0.0
C393 C 0.70473 0.77871 0.21006 0.0
C394 C 0.72257 0.78897 0.22775 0.0
C395 C 0.72976 0.81679 0.2323 0.0
C396 C 0.71973 0.83424 0.21888 0.0
C397 C 0.73391 0.77056 0.24127 0.0
C398 C 0.72776 0.7671 0.26463 0.0
C399 C 0.74944 0.75535 0.23091 0.0
C400 C 0.75714 0.75883 0.20642 0.0
C401 C 0.77041 0.78441 0.1978 0.0
C402 C 0.77739 0.78759 0.17466 0.0
C403 C 0.77137 0.76531 0.15998 0.0
C404 C 0.75843 0.73977 0.16844 0.0
C405 C 0.75137 0.73648 0.19157 0.0
H406 H 0.77679 0.76781 0.14207 0.0
H407 H 0.70533 0.73359 0.36575 0.0
H408 H 0.35759 0.82932 0.70744 0.0
H409 H 0.33111 0.81397 0.74172 0.0
H410 H 0.26163 0.78822 0.69981 0.0
H411 H 0.28797 0.80354 0.66542 0.0
H412 H 0.25455 0.8176 0.7386 0.0
H413 H 0.28915 0.74245 0.71929 0.0
H414 H 0.3243 0.72069 0.71067 0.0
H415 H 0.35913 0.74457 0.77652 0.0
H416 H 0.32435 0.76682 0.78539 0.0
H417 H 0.16421 0.72282 0.80723 0.0
H418 H 0.19379 0.74935 0.77856 0.0
H419 H 0.25759 0.76455 0.82721 0.0
H420 H 0.22806 0.73774 0.85599 0.0
H421 H 0.27072 0.74505 0.78783 0.0
H422 H 0.23341 0.81585 0.80906 0.0
H423 H 0.19835 0.83765 0.81786 0.0
H424 H 0.1688 0.82265 0.7492 0.0
H425 H 0.20345 0.8004 0.74006 0.0
C426 C 0.3367 0.82017 0.70551 0.0
C427 C 0.32485 0.81738 0.68374 0.0
C428 C 0.32163 0.81149 0.7251 0.0
C429 C 0.29447 0.7999 0.72324 0.0
C430 C 0.28257 0.79719 0.70156 0.0
C431 C 0.29766 0.80574 0.68194 0.0
C432 C 0.27844 0.7902 0.74387 0.0
C433 C 0.25787 0.80157 0.74929 0.0
C434 C 0.28346 0.76998 0.75818 0.0
C435 C 0.30434 0.75657 0.75289 0.0
C436 C 0.30444 0.74327 0.73184 0.0
C437 C 0.32426 0.73081 0.72693 0.0
C438 C 0.34398 0.73132 0.74301 0.0
C439 C 0.34387 0.74424 0.76406 0.0
C440 C 0.3241 0.75677 0.76905 0.0
C441 C 0.18441 0.73224 0.81197 0.0
C442 C 0.19387 0.72812 0.8338 0.0
C443 C 0.20128 0.74751 0.7956 0.0
C444 C 0.22788 0.75903 0.80078 0.0
C445 C 0.23712 0.75585 0.82288 0.0
C446 C 0.22022 0.74061 0.8393 0.0
C447 C 0.24638 0.77206 0.78244 0.0
C448 C 0.26749 0.76132 0.77739 0.0
C449 C 0.24185 0.7929 0.76852 0.0
C450 C 0.22093 0.80625 0.77393 0.0
C451 C 0.2193 0.81699 0.79588 0.0
C452 C 0.19953 0.82947 0.80092 0.0
C453 C 0.18133 0.83148 0.78411 0.0
C454 C 0.1829 0.82106 0.76221 0.0
C455 C 0.20263 0.80854 0.75708 0.0
H456 H 0.16603 0.84116 0.78805 0.0
H457 H 0.35931 0.72165 0.73918 0.0
H458 H 0.64042 0.67938 0.70917 0.0
H459 H 0.66659 0.6994 0.74254 0.0
H460 H 0.73545 0.72418 0.69977 0.0
H461 H 0.70944 0.70426 0.66635 0.0
H462 H 0.74335 0.69687 0.73913 0.0
H463 H 0.70638 0.76996 0.71815 0.0
H464 H 0.67024 0.79036 0.70959 0.0
H465 H 0.6381 0.76901 0.77674 0.0
H466 H 0.67388 0.74815 0.78559 0.0
H467 H 0.83564 0.79059 0.80475 0.0
H468 H 0.80451 0.76537 0.77671 0.0
H469 H 0.74189 0.75474 0.82621 0.0
H470 H 0.77309 0.78078 0.85437 0.0
H471 H 0.72725 0.7708 0.78662 0.0
H472 H 0.76547 0.70118 0.80934 0.0
H473 H 0.80084 0.67993 0.81851 0.0
H474 H 0.82934 0.6927 0.74939 0.0
H475 H 0.79437 0.71438 0.73987 0.0
C476 C 0.66106 0.68938 0.70685 0.0
C477 C 0.67291 0.69029 0.68518 0.0
C478 C 0.67597 0.7008 0.7259 0.0
C479 C 0.70293 0.71324 0.72358 0.0
C480 C 0.71468 0.71458 0.70189 0.0
C481 C 0.69977 0.70333 0.68282 0.0
C482 C 0.71919 0.7241 0.74383 0.0
C483 C 0.74003 0.71321 0.74942 0.0
C484 C 0.7141 0.74463 0.75773 0.0
C485 C 0.69263 0.75722 0.75243 0.0
C486 C 0.69147 0.7694 0.73102 0.0
C487 C 0.67109 0.78109 0.72613 0.0
C488 C 0.65184 0.78091 0.74258 0.0
C489 C 0.653 0.7691 0.76399 0.0
C490 C 0.67333 0.75736 0.76896 0.0
C491 C 0.81533 0.7826 0.80981 0.0
C492 C 0.8068 0.78763 0.83176 0.0
C493 C 0.79753 0.76804 0.79378 0.0
C494 C 0.77089 0.75785 0.79942 0.0
C495 C 0.76237 0.76236 0.82151 0.0
C496 C 0.78021 0.77711 0.83758 0.0
C497 C 0.7519 0.744 0.78168 0.0
C498 C 0.73047 0.75424 0.77656 0.0
C499 C 0.7563 0.72267 0.76831 0.0
C500 C 0.77737 0.70959 0.77394 0.0
C501 C 0.77939 0.69964 0.79613 0.0
C502 C 0.79935 0.68749 0.80139 0.0
C503 C 0.81735 0.68501 0.78456 0.0
C504 C 0.81539 0.69464 0.76241 0.0
C505 C 0.79547 0.70683 0.75707 0.0
H506 H 0.83279 0.67559 0.78866 0.0
H507 H 0.63607 0.78997 0.73877 0.0
H508 H 0.749 0.33927 0.80829 0.0
H509 H 0.76879 0.30882 0.78693 0.0
H510 H 0.69208 0.26408 0.7633 0.0
H511 H 0.67213 0.2943 0.7848 0.0
H512 H 0.71985 0.23109 0.78026 0.0
H513 H 0.73491 0.30531 0.72723 0.0
H514 H 0.75078 0.35292 0.71528 0.0
H515 H 0.8296 0.35331 0.73339 0.0
H516 H 0.81414 0.30579 0.74575 0.0
H517 H 0.75974 0.15089 0.69583 0.0
H518 H 0.74061 0.18142 0.71768 0.0
H519 H 0.81829 0.22926 0.73612 0.0
H520 H 0.83752 0.19926 0.71365 0.0
H521 H 0.79031 0.26088 0.72228 0.0
H522 H 0.77607 0.18721 0.77528 0.0
H523 H 0.76078 0.1398 0.78792 0.0
H524 H 0.68141 0.1385 0.77101 0.0
H525 H 0.69626 0.1858 0.75797 0.0
C526 C 0.73639 0.32314 0.79832 0.0
C527 C 0.70903 0.31915 0.7982 0.0
C528 C 0.74772 0.30579 0.7861 0.0
C529 C 0.7319 0.28425 0.77347 0.0
C530 C 0.70462 0.28055 0.77298 0.0
C531 C 0.69329 0.2979 0.78518 0.0
C532 C 0.74366 0.26495 0.76147 0.0
C533 C 0.73501 0.23752 0.76734 0.0
C534 C 0.76398 0.27351 0.74515 0.0
C535 C 0.77332 0.30206 0.73762 0.0
C536 C 0.7556 0.31561 0.72884 0.0
C537 C 0.76452 0.34257 0.72196 0.0
C538 C 0.79117 0.35616 0.72363 0.0
C539 C 0.80896 0.34278 0.73213 0.0
C540 C 0.80013 0.31582 0.73906 0.0
C541 C 0.77272 0.16771 0.7048 0.0
C542 C 0.80011 0.1727 0.70308 0.0
C543 C 0.76177 0.18512 0.71734 0.0
C544 C 0.778 0.20754 0.72873 0.0
C545 C 0.80538 0.21213 0.72746 0.0
C546 C 0.81633 0.19491 0.71471 0.0
C547 C 0.7665 0.22691 0.74103 0.0
C548 C 0.77519 0.25439 0.73522 0.0
C549 C 0.74633 0.21841 0.75753 0.0
C550 C 0.73732 0.18998 0.76545 0.0
C551 C 0.75538 0.17676 0.77409 0.0
C552 C 0.74679 0.14991 0.78136 0.0
C553 C 0.72015 0.13613 0.78022 0.0
C554 C 0.70204 0.14919 0.77186 0.0
C555 C 0.71053 0.17603 0.76455 0.0
H556 H 0.71354 0.11534 0.78585 0.0
H557 H 0.79805 0.37703 0.7183 0.0
H558 H 0.17554 0.29663 0.70511 0.0
H559 H 0.19622 0.26607 0.72509 0.0
H560 H 0.27085 0.32639 0.72269 0.0
H561 H 0.25025 0.35706 0.70226 0.0
H562 H 0.27577 0.27725 0.71076 0.0
H563 H 0.23665 0.3136 0.77243 0.0
H564 H 0.20126 0.32646 0.79321 0.0
H565 H 0.15602 0.24351 0.79504 0.0
H566 H 0.191 0.23018 0.77397 0.0
H567 H 0.33716 0.2097 0.79221 0.0
H568 H 0.31966 0.24175 0.77065 0.0
H569 H 0.24288 0.18498 0.77068 0.0
H570 H 0.26019 0.15297 0.79254 0.0
H571 H 0.24074 0.23416 0.78445 0.0
H572 H 0.28012 0.19822 0.7219 0.0
H573 H 0.31601 0.18587 0.70144 0.0
H574 H 0.3615 0.26876 0.70189 0.0
H575 H 0.32601 0.28156 0.72265 0.0
C576 C 0.19633 0.30349 0.70895 0.0
C577 C 0.21128 0.32928 0.70222 0.0
C578 C 0.2081 0.28602 0.72043 0.0
C579 C 0.23501 0.29406 0.72561 0.0
C580 C 0.25003 0.31982 0.7189 0.0
C581 C 0.23824 0.33734 0.70734 0.0
C582 C 0.24739 0.27526 0.73765 0.0
C583 C 0.26841 0.26813 0.72706 0.0
C584 C 0.23742 0.263 0.75868 0.0
C585 C 0.21636 0.27093 0.77144 0.0
C586 C 0.21907 0.29812 0.7771 0.0
C587 C 0.1991 0.30549 0.78896 0.0
C588 C 0.17638 0.28582 0.79539 0.0
C589 C 0.17362 0.25873 0.79002 0.0
C590 C 0.19353 0.25125 0.77814 0.0
C591 C 0.31663 0.20389 0.78733 0.0
C592 C 0.30002 0.17884 0.79407 0.0
C593 C 0.30668 0.22221 0.77497 0.0
C594 C 0.27999 0.21571 0.76898 0.0
C595 C 0.26353 0.19041 0.77516 0.0
C596 C 0.27346 0.1721 0.78755 0.0
C597 C 0.26888 0.23583 0.75742 0.0
C598 C 0.24815 0.24329 0.76817 0.0
C599 C 0.2792 0.24845 0.7366 0.0
C600 C 0.30051 0.2408 0.72403 0.0
C601 C 0.29786 0.21378 0.7178 0.0
C602 C 0.31812 0.20671 0.70612 0.0
C603 C 0.34105 0.22651 0.70042 0.0
C604 C 0.34374 0.25344 0.70634 0.0
C605 C 0.32355 0.26062 0.71804 0.0
H606 H 0.35671 0.22099 0.69138 0.0
H607 H 0.16094 0.29157 0.80458 0.0
H608 H 0.13547 0.89576 0.27495 0.0
H609 H 0.12555 0.92874 0.24884 0.0
H610 H 0.17258 0.99352 0.29013 0.0
H611 H 0.18182 0.96042 0.31685 0.0
H612 H 0.13016 0.00595 0.27743 0.0
H613 H 0.19479 0.97347 0.23809 0.0
H614 H 0.21486 0.93965 0.22156 0.0
H615 H 0.14889 0.9123 0.17641 0.0
H616 H 0.12824 0.94575 0.1929 0.0
H617 H 0.16101 0.10956 0.19318 0.0
H618 H 0.1617 0.07397 0.22063 0.0
H619 H 0.09809 0.01917 0.18447 0.0
H620 H 0.09687 0.05526 0.15698 0.0
H621 H 0.14509 1.00016 0.19385 0.0
H622 H 0.08346 0.03826 0.23257 0.0
H623 H 0.06735 0.07499 0.24894 0.0
H624 H 0.13284 0.09508 0.29526 0.0
H625 H 0.14967 0.05882 0.27886 0.0
C626 C 0.14373 0.91703 0.27848 0.0
C627 C 0.15958 0.92551 0.29789 0.0
C628 C 0.13813 0.9359 0.26346 0.0
C629 C 0.14866 0.96369 0.26722 0.0
C630 C 0.16425 0.97221 0.28679 0.0
C631 C 0.1696 0.9533 0.30201 0.0
C632 C 0.14343 0.98379 0.25077 0.0
C633 C 0.13368 0.00479 0.25919 0.0
C634 C 0.14751 0.98208 0.22685 0.0
C635 C 0.15983 0.96191 0.21692 0.0
C636 C 0.18446 0.96009 0.22478 0.0
C637 C 0.19596 0.94102 0.21539 0.0
C638 C 0.18312 0.92378 0.198 0.0
C639 C 0.15878 0.92563 0.18992 0.0
C640 C 0.14718 0.94465 0.19926 0.0
C641 C 0.14698 0.09 0.19115 0.0
C642 C 0.12892 0.0851 0.17291 0.0
C643 C 0.14736 0.06973 0.2069 0.0
C644 C 0.12994 0.04398 0.2046 0.0
C645 C 0.11166 0.03898 0.18652 0.0
C646 C 0.1109 0.05955 0.17093 0.0
C647 C 0.13198 0.02221 0.22058 0.0
C648 C 0.14127 0.00102 0.21207 0.0
C649 C 0.12802 0.02408 0.24443 0.0
C650 C 0.11794 0.04593 0.25434 0.0
C651 C 0.09458 0.05067 0.24609 0.0
C652 C 0.08529 0.07139 0.2554 0.0
C653 C 0.09908 0.08739 0.2731 0.0
C654 C 0.12217 0.08266 0.28156 0.0
C655 C 0.1316 0.06204 0.27225 0.0
H656 H 0.09187 0.10343 0.28028 0.0
H657 H 0.19206 0.90903 0.19075 0.0
H658 H 0.82388 0.40705 0.17083 0.0
H659 H 0.82097 0.44238 0.19745 0.0
H660 H 0.90513 0.4752 0.19489 0.0
H661 H 0.90827 0.43883 0.16858 0.0
H662 H 0.88939 0.47483 0.23734 0.0
H663 H 0.86205 0.50705 0.16805 0.0
H664 H 0.83747 0.5054 0.13193 0.0
H665 H 0.76487 0.4874 0.16931 0.0
H666 H 0.78898 0.48856 0.20565 0.0
H667 H 0.87706 0.59579 0.2938 0.0
H668 H 0.88587 0.56424 0.26541 0.0
H669 H 0.807 0.51335 0.27367 0.0
H670 H 0.79818 0.54461 0.30243 0.0
H671 H 0.82361 0.52679 0.2268 0.0
H672 H 0.85342 0.49275 0.29623 0.0
H673 H 0.87988 0.49675 0.3315 0.0
H674 H 0.95073 0.52211 0.29192 0.0
H675 H 0.92466 0.51863 0.25641 0.0
C676 C 0.84183 0.42189 0.1757 0.0
C677 C 0.86633 0.42023 0.16744 0.0
C678 C 0.8401 0.44225 0.1909 0.0
C679 C 0.86275 0.46188 0.19791 0.0
C680 C 0.88733 0.46038 0.18965 0.0
C681 C 0.88912 0.43969 0.17455 0.0
C682 C 0.86047 0.48317 0.21451 0.0
C683 C 0.87537 0.48655 0.23478 0.0
C684 C 0.84197 0.49836 0.21141 0.0
C685 C 0.82734 0.49771 0.18958 0.0
C686 C 0.84083 0.50255 0.16856 0.0
C687 C 0.82698 0.50173 0.14805 0.0
C688 C 0.79962 0.49624 0.14832 0.0
C689 C 0.78606 0.49163 0.16912 0.0
C690 C 0.79982 0.4924 0.18969 0.0
C691 C 0.86165 0.57777 0.2897 0.0
C692 C 0.83693 0.57263 0.30035 0.0
C693 C 0.86674 0.55977 0.27351 0.0
C694 C 0.8471 0.53647 0.26747 0.0
C695 C 0.82241 0.53124 0.27811 0.0
C696 C 0.81744 0.54903 0.29459 0.0
C697 C 0.8521 0.51789 0.24964 0.0
C698 C 0.83776 0.51516 0.22916 0.0
C699 C 0.87141 0.50371 0.25237 0.0
C700 C 0.88708 0.50572 0.2737 0.0
C701 C 0.87463 0.49942 0.29506 0.0
C702 C 0.88956 0.50154 0.3151 0.0
C703 C 0.91697 0.50975 0.31396 0.0
C704 C 0.9295 0.51579 0.29278 0.0
C705 C 0.91466 0.51373 0.27269 0.0
H706 H 0.92849 0.51137 0.32949 0.0
H707 H 0.78894 0.49562 0.13241 0.0
H708 H 0.26359 0.15353 0.89208 0.0
H709 H 0.23847 0.15091 0.9274 0.0
H710 H 0.25968 0.07867 0.94678 0.0
H711 H 0.28538 0.0813 0.91123 0.0
H712 H 0.20329 0.07923 0.95423 0.0
H713 H 0.29205 0.1296 0.97165 0.0
H714 H 0.33332 0.16481 0.96463 0.0
H715 H 0.29203 0.22601 0.96868 0.0
H716 H 0.25042 0.19111 0.97537 0.0
H717 H 0.16049 0.09003 0.07004 0.0
H718 H 0.18329 0.08249 0.03515 0.0
H719 H 0.19076 0.16473 0.01421 0.0
H720 H 0.16906 0.17259 0.04944 0.0
H721 H 0.23511 0.15484 0.00894 0.0
H722 H 0.14663 0.10685 0.9886 0.0
H723 H 0.10389 0.0731 0.99332 0.0
H724 H 0.1422 0.00935 0.99282 0.0
H725 H 0.18523 0.04276 0.98837 0.0
C726 C 0.2628 0.1369 0.9037 0.0
C727 C 0.27662 0.11769 0.89893 0.0
C728 C 0.2484 0.13546 0.92389 0.0
C729 C 0.24738 0.11472 0.93972 0.0
C730 C 0.26027 0.09483 0.93471 0.0
C731 C 0.27497 0.0964 0.91449 0.0
C732 C 0.23397 0.1151 0.96197 0.0
C733 C 0.21041 0.09543 0.96648 0.0
C734 C 0.24302 0.13664 0.97755 0.0
C735 C 0.26808 0.15771 0.97384 0.0
C736 C 0.29174 0.15054 0.97087 0.0
C737 C 0.3152 0.17045 0.96698 0.0
C738 C 0.31529 0.19763 0.96617 0.0
C739 C 0.29193 0.20495 0.96931 0.0
C740 C 0.2684 0.18512 0.97317 0.0
C741 C 0.16676 0.10637 0.05783 0.0
C742 C 0.16306 0.13191 0.06245 0.0
C743 C 0.17972 0.10202 0.03784 0.0
C744 C 0.18867 0.12298 0.02188 0.0
C745 C 0.18422 0.14826 0.02626 0.0
C746 C 0.17171 0.15272 0.04637 0.0
C747 C 0.20384 0.11929 1.00118 0.0
C748 C 0.22792 0.1384 0.99693 0.0
C749 C 0.19501 0.09742 0.98574 0.0
C750 C 0.16917 0.07732 0.98842 0.0
C751 C 0.14596 0.08565 0.98968 0.0
C752 C 0.12168 0.06658 0.99227 0.0
C753 C 0.12034 0.03911 0.99345 0.0
C754 C 0.14328 0.03064 0.99196 0.0
C755 C 0.16761 0.04963 0.98939 0.0
H756 H 0.10152 0.02437 0.99545 0.0
H757 H 0.33347 0.21301 0.96314 0.0
H758 H 0.81387 0.32194 0.06111 0.0
H759 H 0.79338 0.32927 0.02497 0.0
H760 H 0.83551 0.41363 0.0268 0.0
H761 H 0.85652 0.40632 0.06294 0.0
H762 H 0.77957 0.40233 0.01742 0.0
H763 H 0.8557 0.37894 0.99005 0.0
H764 H 0.8877 0.35193 0.98782 0.0
H765 H 0.8267 0.28285 0.96626 0.0
H766 H 0.79423 0.30934 0.96869 0.0
H767 H 0.73085 0.41644 0.90351 0.0
H768 H 0.75937 0.41993 0.9373 0.0
H769 H 0.73855 0.33304 0.94237 0.0
H770 H 0.71071 0.32948 0.90867 0.0
H771 H 0.78956 0.35249 0.94671 0.0
H772 H 0.71282 0.37309 0.9786 0.0
H773 H 0.67957 0.39853 0.98199 0.0
H774 H 0.7402 0.47117 0.99589 0.0
H775 H 0.77386 0.4462 0.99228 0.0
C776 C 0.81892 0.34202 0.05376 0.0
C777 C 0.83685 0.36354 0.06479 0.0
C778 C 0.80722 0.34617 0.03311 0.0
C779 C 0.813 0.37197 0.02321 0.0
C780 C 0.83083 0.39357 0.03419 0.0
C781 C 0.84289 0.38934 0.05473 0.0
C782 C 0.79997 0.37609 0.00151 0.0
C783 C 0.78211 0.39191 0.00178 0.0
C784 C 0.80301 0.36211 0.98129 0.0
C785 C 0.82249 0.34609 0.97972 0.0
C786 C 0.84906 0.35793 0.98502 0.0
C787 C 0.8673 0.34272 0.98368 0.0
C788 C 0.85923 0.31567 0.97695 0.0
C789 C 0.83292 0.3038 0.97148 0.0
C790 C 0.81459 0.31891 0.97281 0.0
C791 C 0.73231 0.39815 0.91196 0.0
C792 C 0.71857 0.3727 0.90342 0.0
C793 C 0.74856 0.40015 0.93127 0.0
C794 C 0.75109 0.37673 0.94243 0.0
C795 C 0.73709 0.3514 0.934 0.0
C796 C 0.72107 0.3494 0.91475 0.0
C797 C 0.76846 0.37811 0.96272 0.0
C798 C 0.78724 0.3633 0.96219 0.0
C799 C 0.76606 0.39284 0.98274 0.0
C800 C 0.74587 0.40786 0.98488 0.0
C801 C 0.71907 0.39454 0.98217 0.0
C802 C 0.70015 0.40886 0.98418 0.0
C803 C 0.70777 0.43647 0.98907 0.0
C804 C 0.73433 0.4498 0.99204 0.0
C805 C 0.75334 0.43557 0.99003 0.0
H806 H 0.6931 0.44752 0.99062 0.0
H807 H 0.87338 0.30393 0.97592 0.0
H808 H 0.29648 0.8362 0.57281 0.0
H809 H 0.27533 0.84236 0.5369 0.0
H810 H 0.34981 0.8889 0.50997 0.0
H811 H 0.37099 0.88363 0.54648 0.0
H812 H 0.31376 0.91231 0.49852 0.0
H813 H 0.32044 0.82234 0.49245 0.0
H814 H 0.3164 0.77543 0.50442 0.0
H815 H 0.23262 0.76042 0.50863 0.0
H816 H 0.23617 0.80737 0.49699 0.0
H817 H 0.25815 0.89874 0.38355 0.0
H818 H 0.28538 0.89751 0.41742 0.0
H819 H 0.21556 0.86446 0.45744 0.0
H820 H 0.1883 0.86591 0.42389 0.0
H821 H 0.25318 0.83437 0.45946 0.0
H822 H 0.24882 0.92692 0.46656 0.0
H823 H 0.25478 0.97357 0.45295 0.0
H824 H 0.33734 0.98271 0.44407 0.0
H825 H 0.33179 0.93595 0.45734 0.0
C826 C 0.30843 0.84761 0.55921 0.0
C827 C 0.33544 0.85927 0.56241 0.0
C828 C 0.29631 0.85103 0.5386 0.0
C829 C 0.31101 0.86567 0.52047 0.0
C830 C 0.33804 0.87743 0.52364 0.0
C831 C 0.35015 0.87431 0.54445 0.0
C832 C 0.29785 0.86904 0.49851 0.0
C833 C 0.30089 0.89518 0.48977 0.0
C834 C 0.28088 0.84678 0.48707 0.0
C835 C 0.27861 0.81846 0.49401 0.0
C836 C 0.30117 0.8091 0.49608 0.0
C837 C 0.29896 0.78249 0.50279 0.0
C838 C 0.27427 0.76497 0.50733 0.0
C839 C 0.25173 0.77402 0.50512 0.0
C840 C 0.25383 0.80062 0.49844 0.0
C841 C 0.24862 0.89165 0.39968 0.0
C842 C 0.22109 0.8824 0.40106 0.0
C843 C 0.26419 0.89095 0.41898 0.0
C844 C 0.25246 0.88081 0.4399 0.0
C845 C 0.22498 0.87229 0.44144 0.0
C846 C 0.20944 0.87326 0.42227 0.0
C847 C 0.26865 0.87757 0.45992 0.0
C848 C 0.26624 0.85141 0.46817 0.0
C849 C 0.2865 0.89972 0.47062 0.0
C850 C 0.28984 0.92783 0.46269 0.0
C851 C 0.2682 0.93878 0.4615 0.0
C852 C 0.27152 0.96527 0.45389 0.0
C853 C 0.29641 0.98107 0.44758 0.0
C854 C 0.31806 0.97044 0.44893 0.0
C855 C 0.31485 0.94395 0.4565 0.0
H856 H 0.29894 0.00157 0.4417 0.0
H857 H 0.2726 0.74437 0.51252 0.0
H858 H 0.70496 0.65131 0.58012 0.0
H859 H 0.72613 0.64369 0.54464 0.0
H860 H 0.65022 0.61064 0.51346 0.0
H861 H 0.62885 0.6171 0.54958 0.0
H862 H 0.68106 0.58188 0.50079 0.0
H863 H 0.68984 0.67642 0.50135 0.0
H864 H 0.7008 0.72271 0.51686 0.0
H865 H 0.7817 0.72265 0.52311 0.0
H866 H 0.77117 0.67621 0.50792 0.0
H867 H 0.73761 0.60001 0.38678 0.0
H868 H 0.712 0.60062 0.42169 0.0
H869 H 0.78325 0.61995 0.46165 0.0
H870 H 0.80894 0.61921 0.42691 0.0
H871 H 0.75241 0.65577 0.468 0.0
H872 H 0.74126 0.55936 0.46673 0.0
H873 H 0.7285 0.51405 0.44924 0.0
H874 H 0.64934 0.51953 0.44142 0.0
H875 H 0.66173 0.56506 0.45859 0.0
C876 C 0.69274 0.64249 0.56569 0.0
C877 C 0.66523 0.63503 0.56755 0.0
C878 C 0.70488 0.63826 0.54533 0.0
C879 C 0.68983 0.62715 0.52609 0.0
C880 C 0.66229 0.61936 0.52799 0.0
C881 C 0.65009 0.62315 0.54858 0.0
C882 C 0.70303 0.6236 0.50419 0.0
C883 C 0.69637 0.59819 0.49345 0.0
C884 C 0.72321 0.64475 0.49458 0.0
C885 C 0.72966 0.67274 0.50367 0.0
C886 C 0.70994 0.68621 0.50618 0.0
C887 C 0.71608 0.71248 0.51489 0.0
C888 C 0.74192 0.72559 0.52101 0.0
C889 C 0.76169 0.71246 0.51838 0.0
C890 C 0.75565 0.68617 0.50969 0.0
C891 C 0.74776 0.60383 0.40307 0.0
C892 C 0.7753 0.60962 0.4041 0.0
C893 C 0.73309 0.60417 0.423 0.0
C894 C 0.74574 0.61039 0.44425 0.0
C895 C 0.77312 0.61516 0.44541 0.0
C896 C 0.78776 0.61459 0.42555 0.0
C897 C 0.73077 0.61401 0.46498 0.0
C898 C 0.73704 0.63952 0.47538 0.0
C899 C 0.70996 0.59314 0.47395 0.0
C900 C 0.70249 0.56573 0.46373 0.0
C901 C 0.72119 0.55101 0.4611 0.0
C902 C 0.71401 0.52526 0.45128 0.0
C903 C 0.68814 0.51395 0.44417 0.0
C904 C 0.66938 0.52833 0.44691 0.0
C905 C 0.67646 0.55409 0.4567 0.0
H906 H 0.68262 0.49402 0.43657 0.0
H907 H 0.74663 0.74593 0.52776 0.0
H908 H 0.95865 0.34569 0.12305 0.0
H909 H 0.99076 0.319 0.12102 0.0
H910 H 0.92793 0.24671 0.11024 0.0
H911 H 0.89593 0.27311 0.11213 0.0
H912 H 0.96237 0.24023 0.14375 0.0
H913 H 0.96636 0.27376 0.0665 0.0
H914 H 0.97203 0.30885 0.03669 0.0
H915 H 0.05028 0.34563 0.06069 0.0
H916 H 0.04495 0.31095 0.09086 0.0
H917 H 0.04241 0.15224 0.11886 0.0
H918 H 0.0092 0.17755 0.1166 0.0
H919 H 0.07056 0.25243 0.11728 0.0
H920 H 0.10358 0.22736 0.11868 0.0
H921 H 0.03573 0.25689 0.08795 0.0
H922 H 0.03216 0.22588 0.16591 0.0
H923 H 0.0272 0.19228 0.19692 0.0
H924 H 0.9494 0.1527 0.17339 0.0
H925 H 0.95403 0.18587 0.14204 0.0
C926 C 0.95175 0.32416 0.12003 0.0
C927 C 0.92476 0.31154 0.11771 0.0
C928 C 0.97009 0.30893 0.11885 0.0
C929 C 0.96173 0.28084 0.11544 0.0
C930 C 0.93483 0.26831 0.11294 0.0
C931 C 0.91657 0.2835 0.11392 0.0
C932 C 0.98086 0.26427 0.11507 0.0
C933 C 0.97823 0.24362 0.13137 0.0
C934 C 0.00188 0.2691 0.09926 0.0
C935 C 0.00515 0.28991 0.08108 0.0
C936 C 0.9847 0.28946 0.06554 0.0
C937 C 0.98786 0.30925 0.04856 0.0
C938 C 0.01147 0.3295 0.04683 0.0
C939 C 0.03199 0.32995 0.06206 0.0
C940 C 0.02891 0.31022 0.0791 0.0
C941 C 0.04874 0.17409 0.11842 0.0
C942 C 0.0756 0.18778 0.11899 0.0
C943 C 0.02976 0.18857 0.11726 0.0
C944 C 0.03729 0.21701 0.11708 0.0
C945 C 0.06415 0.23057 0.11735 0.0
C946 C 0.08305 0.21616 0.11823 0.0
C947 C 0.01743 0.23285 0.11678 0.0
C948 C 0.01988 0.25339 0.10035 0.0
C949 C 0.99639 0.22813 0.13266 0.0
C950 C 0.99356 0.20817 0.15149 0.0
C951 C 0.01407 0.20988 0.16725 0.0
C952 C 0.01131 0.19094 0.1849 0.0
C953 C 0.98803 0.17032 0.18708 0.0
C954 C 0.96744 0.16865 0.17165 0.0
C955 C 0.97011 0.18752 0.15395 0.0
H956 H 0.98593 0.15568 0.20076 0.0
H957 H 0.01389 0.3448 0.03367 0.0
H958 H 0.88062 0.71766 0.35921 0.0
H959 H 0.92415 0.74855 0.36469 0.0
H960 H 0.95684 0.68084 0.37337 0.0
H961 H 0.913 0.64968 0.36842 0.0
H962 H 0.97965 0.72197 0.40238 0.0
H963 H 0.96014 0.71171 0.32196 0.0
H964 H 0.93375 0.71168 0.2871 0.0
H965 H 0.93873 0.79561 0.29716 0.0
H966 H 0.96486 0.79604 0.33228 0.0
H967 H 0.11144 0.7855 0.3687 0.0
H968 H 0.06676 0.75713 0.37438 0.0
H969 H 0.0367 0.82659 0.36548 0.0
H970 H 0.08144 0.8551 0.35949 0.0
H971 H 0.01206 0.78561 0.33825 0.0
H972 H 0.03478 0.79613 0.41778 0.0
H973 H 0.06188 0.79537 0.45204 0.0
H974 H 0.05206 0.71038 0.44305 0.0
H975 H 0.0252 0.71068 0.40853 0.0
C976 C 0.89702 0.70933 0.36253 0.0
C977 C 0.89351 0.68127 0.36314 0.0
C978 C 0.92189 0.72701 0.36563 0.0
C979 C 0.9438 0.71699 0.369 0.0
C980 C 0.94019 0.68898 0.37071 0.0
C981 C 0.91519 0.67122 0.36781 0.0
C982 C 0.97057 0.73572 0.36931 0.0
C983 C 0.98688 0.73572 0.38829 0.0
C984 C 0.97978 0.75399 0.35107 0.0
C985 C 0.96423 0.75383 0.32987 0.0
C986 C 0.95545 0.73011 0.31683 0.0
C987 C 0.94056 0.73003 0.29701 0.0
C988 C 0.9345 0.75361 0.28995 0.0
C989 C 0.9434 0.77735 0.30267 0.0
C990 C 0.95826 0.77753 0.32252 0.0
C991 C 0.09535 0.79482 0.3683 0.0
C992 C 0.09989 0.82249 0.36355 0.0
C993 C 0.06983 0.7786 0.37168 0.0
C994 C 0.04841 0.78977 0.37049 0.0
C995 C 0.05298 0.81758 0.36649 0.0
C996 C 0.07853 0.83384 0.36313 0.0
C997 C 0.02119 0.77204 0.3714 0.0
C998 C 0.00481 0.77209 0.3525 0.0
C999 C 0.01207 0.75376 0.38963 0.0
C1000 C 0.02815 0.75348 0.41044 0.0
C1001 C 0.03857 0.77731 0.42299 0.0
C1002 C 0.05386 0.77696 0.44249 0.0
C1003 C 0.05874 0.75286 0.44969 0.0
C1004 C 0.04828 0.72904 0.43744 0.0
C1005 C 0.03299 0.72928 0.41792 0.0
H1006 H 0.07058 0.75262 0.46478 0.0
H1007 H 0.92297 0.75351 0.27461 0.0
H1008 H 0.541 0.65212 0.62401 0.0
H1009 H 0.50871 0.67846 0.62147 0.0
H1010 H 0.5713 0.75109 0.61118 0.0
H1011 H 0.60355 0.725 0.61383 0.0
H1012 H 0.53727 0.75852 0.64316 0.0
H1013 H 0.53164 0.7219 0.567 0.0
H1014 H 0.5255 0.68585 0.53802 0.0
H1015 H 0.44784 0.64957 0.56358 0.0
H1016 H 0.45365 0.68522 0.59293 0.0
H1017 H 0.45791 0.8456 0.61512 0.0
H1018 H 0.49032 0.81941 0.61313 0.0
H1019 H 0.42822 0.74557 0.6194 0.0
H1020 H 0.39582 0.77156 0.62082 0.0
H1021 H 0.46238 0.73898 0.58879 0.0
H1022 H 0.46789 0.77394 0.66546 0.0
H1023 H 0.47355 0.80915 0.69516 0.0
H1024 H 0.55081 0.84741 0.66968 0.0
H1025 H 0.54547 0.8126 0.63962 0.0
C1026 C 0.54784 0.67366 0.621 0.0
C1027 C 0.57483 0.68645 0.61911 0.0
C1028 C 0.52937 0.6887 0.6195 0.0
C1029 C 0.53755 0.71679 0.61602 0.0
C1030 C 0.56449 0.72948 0.6139 0.0
C1031 C 0.58291 0.71449 0.61533 0.0
C1032 C 0.51823 0.73317 0.61536 0.0
C1033 C 0.52111 0.75448 0.63104 0.0
C1034 C 0.49674 0.72752 0.59996 0.0
C1035 C 0.49319 0.70609 0.58231 0.0
C1036 C 0.51333 0.70611 0.56656 0.0
C1037 C 0.5099 0.68577 0.55005 0.0
C1038 C 0.48632 0.66539 0.549 0.0
C1039 C 0.46611 0.66535 0.56443 0.0
C1040 C 0.46945 0.68563 0.581 0.0
C1041 C 0.45119 0.82378 0.61595 0.0
C1042 C 0.42431 0.81067 0.61822 0.0
C1043 C 0.46974 0.80881 0.61492 0.0
C1044 C 0.4618 0.78046 0.61645 0.0
C1045 C 0.4349 0.76738 0.6182 0.0
C1046 C 0.41637 0.78229 0.61908 0.0
C1047 C 0.48143 0.76437 0.6166 0.0
C1048 C 0.47859 0.74308 0.60086 0.0
C1049 C 0.50289 0.76992 0.63206 0.0
C1050 C 0.50617 0.79083 0.65014 0.0
C1051 C 0.48601 0.78998 0.66608 0.0
C1052 C 0.48917 0.80984 0.683 0.0
C1053 C 0.5125 0.83055 0.68427 0.0
C1054 C 0.53274 0.83138 0.66865 0.0
C1055 C 0.52966 0.81159 0.65168 0.0
H1056 H 0.51491 0.8459 0.69738 0.0
H1057 H 0.4837 0.64966 0.53619 0.0
H1058 H 0.80981 0.03537 0.68431 0.0
H1059 H 0.81544 1.00038 0.71086 0.0
H1060 H 0.88207 0.0573 0.74144 0.0
H1061 H 0.87676 0.09215 0.71485 0.0
H1062 H 0.89153 0.00852 0.73564 0.0
H1063 H 0.8223 0.04236 0.76728 0.0
H1064 H 0.77995 0.05389 0.76652 0.0
H1065 H 0.73964 0.97112 0.75257 0.0
H1066 H 0.78181 0.95916 0.75296 0.0
H1067 H 0.8979 0.9324 0.83748 0.0
H1068 H 0.89594 0.9676 0.80959 0.0
H1069 H 0.82351 0.91642 0.78259 0.0
H1070 H 0.8248 0.88208 0.81093 0.0
H1071 H 0.81786 0.96352 0.78683 0.0
H1072 H 0.88617 0.92903 0.75446 0.0
H1073 H 0.92819 0.91681 0.75439 0.0
H1074 H 0.96977 0.99917 0.76851 0.0
H1075 H 0.92794 0.01181 0.76894 0.0
C1076 C 0.82573 0.04035 0.69661 0.0
C1077 C 0.84275 0.06654 0.69756 0.0
C1078 C 0.82888 0.02038 0.71182 0.0
C1079 C 0.84902 0.0263 0.72833 0.0
C1080 C 0.86641 0.05226 0.72888 0.0
C1081 C 0.86327 0.07218 0.71371 0.0
C1082 C 0.85162 0.00574 0.74543 0.0
C1083 C 0.87552 0.99883 0.747 0.0
C1084 C 0.83061 0.99278 0.76 0.0
C1085 C 0.80523 0.99992 0.75994 0.0
C1086 C 0.80442 0.02666 0.76389 0.0
C1087 C 0.78045 0.03326 0.76355 0.0
C1088 C 0.75713 0.01326 0.75944 0.0
C1089 C 0.75773 0.9866 0.75572 0.0
C1090 C 0.78165 0.97989 0.75602 0.0
C1091 C 0.88167 0.92874 0.8255 0.0
C1092 C 0.86146 0.90459 0.82643 0.0
C1093 C 0.8806 0.94878 0.80947 0.0
C1094 C 0.85966 0.94466 0.79375 0.0
C1095 C 0.83979 0.92026 0.79454 0.0
C1096 C 0.84058 0.90058 0.81075 0.0
C1097 C 0.8577 0.96583 0.77689 0.0
C1098 C 0.83391 0.97303 0.77544 0.0
C1099 C 0.87875 0.97885 0.76232 0.0
C1100 C 0.90391 0.9713 0.76196 0.0
C1101 C 0.90426 0.94449 0.7577 0.0
C1102 C 0.92804 0.9375 0.75757 0.0
C1103 C 0.95163 0.95719 0.7615 0.0
C1104 C 0.95148 0.98393 0.7655 0.0
C1105 C 0.92775 0.99103 0.76567 0.0
H1106 H 0.97002 0.95173 0.7614 0.0
H1107 H 0.73859 0.01842 0.75918 0.0
H1108 H 0.1132 0.57444 0.8477 0.0
H1109 H 0.11383 0.53789 0.82067 0.0
H1110 H 0.18062 0.59006 0.78626 0.0
H1111 H 0.18035 0.62628 0.81321 0.0
H1112 H 0.14077 0.56169 0.75614 0.0
H1113 H 0.19113 0.54514 0.82119 0.0
H1114 H 0.19798 0.53681 0.86205 0.0
H1115 H 0.13337 0.4653 0.86026 0.0
H1116 H 0.1259 0.47344 0.81944 0.0
H1117 H 0.19076 0.47198 0.68894 0.0
H1118 H 0.18438 0.50642 0.71561 0.0
H1119 H 0.12865 0.4451 0.75397 0.0
H1120 H 0.13563 0.41059 0.72783 0.0
H1121 H 0.15931 0.47698 0.78248 0.0
H1122 H 0.10957 0.49096 0.71766 0.0
H1123 H 0.10093 0.49877 0.67706 0.0
H1124 H 0.16102 0.57396 0.67834 0.0
H1125 H 0.17028 0.56643 0.71888 0.0
C1126 C 0.12797 0.57804 0.83435 0.0
C1127 C 0.14679 0.60315 0.83263 0.0
C1128 C 0.12833 0.55719 0.81897 0.0
C1129 C 0.14732 0.5613 0.80149 0.0
C1130 C 0.16579 0.58649 0.79957 0.0
C1131 C 0.16567 0.60712 0.81507 0.0
C1132 C 0.14842 0.53936 0.78531 0.0
C1133 C 0.145 0.54322 0.76183 0.0
C1134 C 0.15324 0.51501 0.79284 0.0
C1135 C 0.15776 0.51008 0.81735 0.0
C1136 C 0.17823 0.52778 0.82957 0.0
C1137 C 0.18226 0.52307 0.85271 0.0
C1138 C 0.16607 0.50059 0.86376 0.0
C1139 C 0.14586 0.48273 0.85168 0.0
C1140 C 0.14173 0.48738 0.82855 0.0
C1141 C 0.17708 0.4659 0.70301 0.0
C1142 C 0.16369 0.4386 0.70627 0.0
C1143 C 0.17332 0.48561 0.7182 0.0
C1144 C 0.15574 0.47847 0.7367 0.0
C1145 C 0.14231 0.45118 0.73988 0.0
C1146 C 0.14628 0.43147 0.72487 0.0
C1147 C 0.15186 0.49928 0.75309 0.0
C1148 C 0.1548 0.49527 0.77668 0.0
C1149 C 0.14628 0.52338 0.74565 0.0
C1150 C 0.14078 0.528 0.72126 0.0
C1151 C 0.12109 0.50906 0.70924 0.0
C1152 C 0.11605 0.51345 0.68624 0.0
C1153 C 0.13046 0.53681 0.67511 0.0
C1154 C 0.1499 0.55586 0.68698 0.0
C1155 C 0.15503 0.55155 0.70997 0.0
H1156 H 0.12653 0.54018 0.65731 0.0
H1157 H 0.16923 0.49696 0.88168 0.0
H1158 H 0.70619 0.91647 0.08299 0.0
H1159 H 0.73159 0.91633 0.04786 0.0
H1160 H 0.77169 0.86322 0.08027 0.0
H1161 H 0.74759 0.86466 0.11558 0.0
H1162 H 0.80474 0.89469 0.05525 0.0
H1163 H 0.71644 0.84122 0.04203 0.0
H1164 H 0.66821 0.83166 0.03998 0.0
H1165 H 0.67543 0.89373 0.98925 0.0
H1166 H 0.72374 0.90389 0.99122 0.0
H1167 H 0.83248 0.82569 0.95458 0.0
H1168 H 0.81242 0.83625 0.99011 0.0
H1169 H 0.80332 0.90955 0.95964 0.0
H1170 H 0.82403 0.89955 0.92432 0.0
H1171 H 0.75578 0.87138 0.98224 0.0
H1172 H 0.84666 0.9203 0.99502 0.0
H1173 H 0.89415 0.92436 0.99712 0.0
H1174 H 0.88037 0.86324 0.04928 0.0
H1175 H 0.83273 0.85852 0.04723 0.0
C1176 C 0.72074 0.90515 0.08265 0.0
C1177 C 0.72484 0.89052 0.10198 0.0
C1178 C 0.7351 0.90485 0.06252 0.0
C1179 C 0.75319 0.88922 0.06112 0.0
C1180 C 0.7579 0.87543 0.08076 0.0
C1181 C 0.74403 0.87623 0.10099 0.0
C1182 C 0.76663 0.8863 0.03916 0.0
C1183 C 0.79389 0.8894 0.03938 0.0
C1184 C 0.75272 0.87962 0.01823 0.0
C1185 C 0.72369 0.87353 0.01697 0.0
C1186 C 0.70774 0.85296 0.03056 0.0
C1187 C 0.68039 0.84741 0.02939 0.0
C1188 C 0.66876 0.86213 0.01455 0.0
C1189 C 0.68446 0.88238 1.00078 0.0
C1190 C 0.71183 0.88804 0.00191 0.0
C1191 C 0.82637 0.84414 0.95553 0.0
C1192 C 0.82987 0.86184 0.93674 0.0
C1193 C 0.81495 0.85014 0.9758 0.0
C1194 C 0.80643 0.87366 0.97742 0.0
C1195 C 0.8098 0.89131 0.95867 0.0
C1196 C 0.82171 0.88562 0.93858 0.0
C1197 C 0.79355 0.87954 0.9986 0.0
C1198 C 0.76647 0.87692 0.99817 0.0
C1199 C 0.80746 0.88591 0.01943 0.0
C1200 C 0.83611 0.88888 0.0208 0.0
C1201 C 0.85373 0.90755 0.00678 0.0
C1202 C 0.88068 0.91001 0.008 0.0
C1203 C 0.89027 0.89402 0.02328 0.0
C1204 C 0.87292 0.87559 0.03743 0.0
C1205 C 0.84594 0.87304 0.03626 0.0
H1206 H 0.91114 0.89595 0.0242 0.0
H1207 H 0.64759 0.85781 0.01367 0.0
H1208 H 0.1428 0.62719 0.95325 0.0
H1209 H 0.16234 0.6148 0.98839 0.0
H1210 H 0.23978 0.65204 0.96189 0.0
H1211 H 0.22047 0.66459 0.92692 0.0
H1212 H 0.23517 0.6012 0.98134 0.0
H1213 H 0.21412 0.68482 1.00014 0.0
H1214 H 0.18439 0.71414 0.00426 0.0
H1215 H 0.13664 0.65773 0.05149 0.0
H1216 H 0.16592 0.62789 0.0474 0.0
H1217 H 0.31852 0.62144 0.07797 0.0
H1218 H 0.29334 0.62321 0.04325 0.0
H1219 H 0.22128 0.59899 0.08206 0.0
H1220 H 0.24662 0.59844 0.1171 0.0
H1221 H 0.21909 0.6385 0.05666 0.0
H1222 H 0.24106 0.55638 0.0412 0.0
H1223 H 0.26954 0.52576 0.03724 0.0
H1224 H 0.31333 0.57611 0.98414 0.0
H1225 H 0.28534 0.60725 0.98799 0.0
C1226 C 0.16398 0.63271 0.95494 0.0
C1227 C 0.1801 0.64696 0.93738 0.0
C1228 C 0.1751 0.62564 0.97501 0.0
C1229 C 0.20251 0.63258 0.97776 0.0
C1230 C 0.2186 0.64644 0.96009 0.0
C1231 C 0.20752 0.65371 0.94017 0.0
C1232 C 0.21462 0.62594 0.99918 0.0
C1233 C 0.23183 0.60945 0.99783 0.0
C1234 C 0.20956 0.636 0.02075 0.0
C1235 C 0.19202 0.65398 0.02326 0.0
C1236 C 0.19715 0.67856 0.01125 0.0
C1237 C 0.18041 0.6953 0.01361 0.0
C1238 C 0.15859 0.68777 0.02807 0.0
C1239 C 0.15351 0.66352 0.04026 0.0
C1240 C 0.17018 0.64669 0.03794 0.0
C1241 C 0.29729 0.61605 0.07904 0.0
C1242 C 0.28454 0.60975 0.10025 0.0
C1243 C 0.28285 0.61695 0.05912 0.0
C1244 C 0.25528 0.6109 0.05985 0.0
C1245 C 0.24249 0.60376 0.08097 0.0
C1246 C 0.25698 0.60331 0.10098 0.0
C1247 C 0.24006 0.6139 0.03895 0.0
C1248 C 0.22225 0.6298 0.04033 0.0
C1249 C 0.24435 0.60299 0.01744 0.0
C1250 C 0.2612 0.58426 0.01501 0.0
C1251 C 0.25687 0.56103 0.02879 0.0
C1252 C 0.27291 0.54356 0.02654 0.0
C1253 C 0.29326 0.54901 0.01048 0.0
C1254 C 0.29757 0.57192 0.99659 0.0
C1255 C 0.2816 0.58946 0.99877 0.0
H1256 H 0.30566 0.53546 0.00878 0.0
H1257 H 0.14565 0.70075 0.02988 0.0
H1258 H 0.67969 0.10234 0.4218 0.0
H1259 H 0.70297 0.09409 0.45617 0.0
H1260 H 0.69713 0.16957 0.48484 0.0
H1261 H 0.67425 0.17812 0.4504 0.0
H1262 H 0.74547 0.16477 0.48963 0.0
H1263 H 0.65857 0.10831 0.504 0.0
H1264 H 0.61807 0.0726 0.4956 0.0
H1265 H 0.66229 0.01388 0.49214 0.0
H1266 H 0.70315 0.04934 0.50021 0.0
H1267 H 0.7689 0.15142 0.60653 0.0
H1268 H 0.7456 0.1514 0.57049 0.0
H1269 H 0.7739 0.08533 0.54592 0.0
H1270 H 0.79785 0.08545 0.58216 0.0
H1271 H 0.71687 0.08218 0.53741 0.0
H1272 H 0.80378 0.13984 0.52563 0.0
H1273 H 0.84304 0.17625 0.53586 0.0
H1274 H 0.79713 0.23355 0.5358 0.0
H1275 H 0.75747 0.19737 0.52594 0.0
C1276 C 0.68323 0.11709 0.4355 0.0
C1277 C 0.67513 0.14088 0.43342 0.0
C1278 C 0.69646 0.1123 0.45517 0.0
C1279 C 0.70167 0.13112 0.47319 0.0
C1280 C 0.69339 0.15478 0.47116 0.0
C1281 C 0.68022 0.1596 0.4515 0.0
C1282 C 0.71638 0.12666 0.49389 0.0
C1283 C 0.73904 0.14678 0.50013 0.0
C1284 C 0.70847 0.10287 0.50732 0.0
C1285 C 0.68395 0.08153 0.50243 0.0
C1286 C 0.6597 0.08783 0.50124 0.0
C1287 C 0.63667 0.06762 0.49658 0.0
C1288 C 0.63762 0.041 0.49327 0.0
C1289 C 0.6616 0.03452 0.49466 0.0
C1290 C 0.68469 0.05466 0.49929 0.0
C1291 C 0.77005 0.13668 0.59359 0.0
C1292 C 0.78533 0.1185 0.59715 0.0
C1293 C 0.75672 0.13674 0.57299 0.0
C1294 C 0.75818 0.1185 0.55553 0.0
C1295 C 0.77257 0.09956 0.55924 0.0
C1296 C 0.78626 0.0997 0.57988 0.0
C1297 C 0.74556 0.12045 0.53316 0.0
C1298 C 0.72337 0.09994 0.52665 0.0
C1299 C 0.75375 0.14396 0.51953 0.0
C1300 C 0.7776 0.16584 0.52523 0.0
C1301 C 0.802 0.16016 0.52799 0.0
C1302 C 0.82434 0.18076 0.53369 0.0
C1303 C 0.82257 0.20719 0.53653 0.0
C1304 C 0.79846 0.21307 0.53361 0.0
C1305 C 0.77605 0.19252 0.52794 0.0
H1306 H 0.83989 0.22311 0.54095 0.0
H1307 H 0.61977 0.02539 0.48967 0.0
H1308 H 0.18304 0.37988 0.58039 0.0
H1309 H 0.20642 0.37564 0.545 0.0
H1310 H 0.28 0.39682 0.58159 0.0
H1311 H 0.25669 0.40085 0.61719 0.0
H1312 H 0.28149 0.42091 0.53636 0.0
H1313 H 0.2539 0.33405 0.57393 0.0
H1314 H 0.22135 0.29619 0.59218 0.0
H1315 H 0.17604 0.28252 0.53011 0.0
H1316 H 0.20815 0.32059 0.5116 0.0
H1317 H 0.35748 0.37194 0.4549 0.0
H1318 H 0.33642 0.38161 0.49006 0.0
H1319 H 0.2603 0.34332 0.46124 0.0
H1320 H 0.2813 0.33276 0.4265 0.0
H1321 H 0.26059 0.32868 0.50327 0.0
H1322 H 0.28611 0.4141 0.46506 0.0
H1323 H 0.31632 0.45305 0.44598 0.0
H1324 H 0.36274 0.47085 0.50727 0.0
H1325 H 0.33298 0.43176 0.52664 0.0
C1326 C 0.20424 0.38411 0.58084 0.0
C1327 C 0.21803 0.39056 0.60159 0.0
C1328 C 0.21755 0.38159 0.56063 0.0
C1329 C 0.24489 0.38565 0.56076 0.0
C1330 C 0.25889 0.39359 0.58116 0.0
C1331 C 0.24555 0.39584 0.60147 0.0
C1332 C 0.25852 0.3797 0.54 0.0
C1333 C 0.27722 0.40072 0.52923 0.0
C1334 C 0.25241 0.35347 0.53046 0.0
C1335 C 0.2333 0.33032 0.54146 0.0
C1336 C 0.2369 0.32309 0.56423 0.0
C1337 C 0.21855 0.30158 0.57462 0.0
C1338 C 0.19661 0.287 0.56233 0.0
C1339 C 0.19303 0.29385 0.53961 0.0
C1340 C 0.21131 0.31538 0.52916 0.0
C1341 C 0.33626 0.36554 0.45612 0.0
C1342 C 0.32103 0.35162 0.43795 0.0
C1343 C 0.32421 0.37124 0.47616 0.0
C1344 C 0.29669 0.36361 0.47823 0.0
C1345 C 0.28153 0.34946 0.46012 0.0
C1346 C 0.29357 0.34346 0.44023 0.0
C1347 C 0.28361 0.36996 0.49931 0.0
C1348 C 0.26498 0.34895 0.51027 0.0
C1349 C 0.28955 0.39631 0.50879 0.0
C1350 C 0.30747 0.41984 0.49722 0.0
C1351 C 0.30287 0.4262 0.47441 0.0
C1352 C 0.3199 0.44832 0.46356 0.0
C1353 C 0.34148 0.46437 0.47538 0.0
C1354 C 0.34604 0.45837 0.49812 0.0
C1355 C 0.32909 0.43625 0.50905 0.0
H1356 H 0.35464 0.48149 0.46695 0.0
H1357 H 0.18241 0.27036 0.57041 0.0
H1358 H 0.05708 0.67148 0.8712 0.0
H1359 H 0.02303 0.69557 0.87225 0.0
H1360 H 0.07743 0.76374 0.90423 0.0
H1361 H 0.11137 0.73942 0.90376 0.0
H1362 H 0.03046 0.75648 0.92278 0.0
H1363 H 0.06383 0.76344 0.84649 0.0
H1364 H 0.07688 0.7472 0.80976 0.0
H1365 H 0.99741 0.70052 0.79818 0.0
H1366 H 0.98395 0.71618 0.83503 0.0
H1367 H 0.952 0.84769 0.89235 0.0
H1368 H 0.98865 0.82676 0.89508 0.0
H1369 H 0.93689 0.75029 0.87456 0.0
H1370 H 0.90038 0.77078 0.87219 0.0
H1371 H 0.98488 0.76525 0.85001 0.0
H1372 H 0.95281 0.75837 0.92802 0.0
H1373 H 0.94098 0.77642 0.96443 0.0
H1374 H 0.02007 0.82607 0.97182 0.0
H1375 H 0.03228 0.80859 0.93525 0.0
C1376 C 0.06171 0.69149 0.87867 0.0
C1377 C 0.08696 0.7036 0.88728 0.0
C1378 C 0.04228 0.70533 0.87913 0.0
C1379 C 0.04778 0.73174 0.8879 0.0
C1380 C 0.07271 0.74346 0.89729 0.0
C1381 C 0.09211 0.72954 0.89698 0.0
C1382 C 0.02776 0.7473 0.88667 0.0
C1383 C 0.02079 0.75872 0.90679 0.0
C1384 C 0.01496 0.75019 0.86585 0.0
C1385 C 0.02294 0.74079 0.84363 0.0
C1386 C 0.04918 0.74955 0.83619 0.0
C1387 C 0.05664 0.74048 0.81534 0.0
C1388 C 0.038 0.72279 0.80167 0.0
C1389 C 0.01184 0.71419 0.8088 0.0
C1390 C 0.00427 0.72318 0.82966 0.0
C1391 C 0.94849 0.82642 0.88851 0.0
C1392 C 0.92331 0.81088 0.8821 0.0
C1393 C 0.96939 0.81448 0.89011 0.0
C1394 C 0.96545 0.78695 0.88503 0.0
C1395 C 0.94037 0.77155 0.87852 0.0
C1396 C 0.9195 0.7833 0.87726 0.0
C1397 C 0.98736 0.77397 0.88613 0.0
C1398 C 0.99471 0.76312 0.86595 0.0
C1399 C 1.00069 0.77192 0.9068 0.0
C1400 C 0.99337 0.78243 0.92876 0.0
C1401 C 0.96762 0.77334 0.93729 0.0
C1402 C 0.96085 0.78342 0.95798 0.0
C1403 C 0.97974 0.80245 0.97039 0.0
C1404 C 0.00545 0.81138 0.96216 0.0
C1405 C 0.0123 0.80138 0.94146 0.0
H1406 H 0.97447 0.81022 0.98641 0.0
H1407 H 0.04381 0.71579 0.78553 0.0
H1408 H 0.11632 0.29113 0.64501 0.0
H1409 H 0.07327 0.26076 0.63664 0.0
H1410 H 0.04184 0.32919 0.62685 0.0
H1411 H 0.0849 0.35978 0.63588 0.0
H1412 H 0.01113 0.29354 0.65382 0.0
H1413 H 0.05153 0.28889 0.58121 0.0
H1414 H 0.08605 0.28287 0.55496 0.0
H1415 H 0.07468 0.20162 0.57899 0.0
H1416 H 0.04035 0.20727 0.60563 0.0
H1417 H 0.88698 0.21229 0.62329 0.0
H1418 H 0.92985 0.24456 0.61773 0.0
H1419 H 0.96797 0.18201 0.6321 0.0
H1420 H 0.92503 0.1494 0.63715 0.0
H1421 H 0.99437 0.21671 0.59933 0.0
H1422 H 0.9582 0.22306 0.67447 0.0
H1423 H 0.92417 0.22862 0.70149 0.0
H1424 H 0.92848 0.30671 0.67307 0.0
H1425 H 0.96228 0.30143 0.64563 0.0
C1426 C 0.10032 0.29975 0.64083 0.0
C1427 C 0.10394 0.32783 0.64113 0.0
C1428 C 0.07573 0.28234 0.63589 0.0
C1429 C 0.05436 0.29267 0.6308 0.0
C1430 C 0.05807 0.32077 0.63065 0.0
C1431 C 0.08266 0.33822 0.63578 0.0
C1432 C 0.0278 0.27407 0.62734 0.0
C1433 C 0.00737 0.27712 0.64153 0.0
C1434 C 0.02302 0.25216 0.61174 0.0
C1435 C 0.04347 0.24859 0.59554 0.0
C1436 C 0.0565 0.26979 0.581 0.0
C1437 C 0.07602 0.26644 0.56604 0.0
C1438 C 0.08259 0.24189 0.56534 0.0
C1439 C 0.06959 0.22062 0.57955 0.0
C1440 C 0.05006 0.22388 0.59457 0.0
C1441 C 0.90449 0.20528 0.62483 0.0
C1442 C 0.90273 0.17843 0.63094 0.0
C1443 C 0.92895 0.22376 0.62169 0.0
C1444 C 0.95209 0.21581 0.62499 0.0
C1445 C 0.95035 0.18858 0.62957 0.0
C1446 C 0.92583 0.16999 0.63249 0.0
C1447 C 0.9779 0.23627 0.62582 0.0
C1448 C 0.99814 0.23344 0.6113 0.0
C1449 C 0.98262 0.25838 0.64117 0.0
C1450 C 0.96255 0.26173 0.65785 0.0
C1451 C 0.95176 0.24134 0.67389 0.0
C1452 C 0.93253 0.24444 0.68928 0.0
C1453 C 0.92411 0.26797 0.68895 0.0
C1454 C 0.93498 0.28848 0.67327 0.0
C1455 C 0.95418 0.28545 0.65781 0.0
H1456 H 0.90921 0.27033 0.70088 0.0
H1457 H 0.09773 0.23935 0.55375 0.0
H1458 H 0.54707 0.15367 0.38606 0.0
H1459 H 0.51121 0.17537 0.38957 0.0
H1460 H 0.56737 0.2537 0.38679 0.0
H1461 H 0.60308 0.23222 0.38415 0.0
H1462 H 0.53229 0.25546 0.41692 0.0
H1463 H 0.52924 0.22333 0.33922 0.0
H1464 H 0.52619 0.18938 0.30877 0.0
H1465 H 0.45089 0.1445 0.33426 0.0
H1466 H 0.45365 0.17804 0.36506 0.0
H1467 H 0.44815 0.33605 0.38113 0.0
H1468 H 0.48218 0.31181 0.38354 0.0
H1469 H 0.42261 0.23718 0.39519 0.0
H1470 H 0.38861 0.26119 0.39282 0.0
H1471 H 0.45778 0.23201 0.36221 0.0
H1472 H 0.46066 0.26729 0.43872 0.0
H1473 H 0.46439 0.30284 0.46786 0.0
H1474 H 0.54115 0.3438 0.44282 0.0
H1475 H 0.53773 0.30867 0.41331 0.0
C1476 C 0.55171 0.1755 0.38638 0.0
C1477 C 0.57788 0.19122 0.38476 0.0
C1478 C 0.53121 0.18791 0.38825 0.0
C1479 C 0.53649 0.21625 0.38809 0.0
C1480 C 0.5627 0.23185 0.38697 0.0
C1481 C 0.58313 0.2195 0.38539 0.0
C1482 C 0.51491 0.22988 0.38863 0.0
C1483 C 0.51615 0.25046 0.40479 0.0
C1484 C 0.49351 0.22316 0.37311 0.0
C1485 C 0.49178 0.20303 0.35458 0.0
C1486 C 0.51212 0.20612 0.33843 0.0
C1487 C 0.51043 0.18697 0.32109 0.0
C1488 C 0.4884 0.16475 0.31962 0.0
C1489 C 0.46797 0.16169 0.33545 0.0
C1490 C 0.46957 0.18077 0.35284 0.0
C1491 C 0.44235 0.31452 0.38439 0.0
C1492 C 0.41571 0.30055 0.38682 0.0
C1493 C 0.4618 0.3007 0.38581 0.0
C1494 C 0.45494 0.27268 0.38965 0.0
C1495 C 0.42836 0.25877 0.39221 0.0
C1496 C 0.40896 0.27257 0.39093 0.0
C1497 C 0.47536 0.25767 0.39033 0.0
C1498 C 0.47387 0.23686 0.3744 0.0
C1499 C 0.49668 0.2644 0.40587 0.0
C1500 C 0.49883 0.28547 0.42367 0.0
C1501 C 0.47825 0.28399 0.43931 0.0
C1502 C 0.48033 0.30404 0.45592 0.0
C1503 C 0.50297 0.3256 0.45716 0.0
C1504 C 0.52361 0.3271 0.44182 0.0
C1505 C 0.52162 0.30711 0.42517 0.0
H1506 H 0.50454 0.3411 0.47003 0.0
H1507 H 0.48713 0.14995 0.30619 0.0
H1508 H 0.58927 0.56022 0.672 0.0
H1509 H 0.59234 0.52444 0.69887 0.0
H1510 H 0.67671 0.54801 0.69168 0.0
H1511 H 0.67367 0.58278 0.6644 0.0
H1512 H 0.66118 0.49626 0.69368 0.0
H1513 H 0.64307 0.56842 0.73807 0.0
H1514 H 0.61769 0.60024 0.74917 0.0
H1515 H 0.55089 0.53383 0.76453 0.0
H1516 H 0.5758 0.50162 0.75323 0.0
H1517 H 0.70175 0.44372 0.79518 0.0
H1518 H 0.6933 0.47513 0.76647 0.0
H1519 H 0.60991 0.43976 0.77372 0.0
H1520 H 0.61821 0.40851 0.80256 0.0
H1521 H 0.6218 0.49461 0.77101 0.0
H1522 H 0.6426 0.42261 0.72893 0.0
H1523 H 0.6696 0.392 0.71875 0.0
H1524 H 0.73339 0.45992 0.69992 0.0
H1525 H 0.70688 0.49097 0.7103 0.0
C1526 C 0.60839 0.55744 0.67593 0.0
C1527 C 0.63121 0.57438 0.66613 0.0
C1528 C 0.61017 0.53715 0.69143 0.0
C1529 C 0.63483 0.53379 0.69769 0.0
C1530 C 0.65746 0.55012 0.68722 0.0
C1531 C 0.65568 0.57009 0.67161 0.0
C1532 C 0.63751 0.51399 0.71558 0.0
C1533 C 0.65272 0.4961 0.71063 0.0
C1534 C 0.62612 0.5133 0.73764 0.0
C1535 C 0.6112 0.53263 0.74457 0.0
C1536 C 0.62291 0.56062 0.74367 0.0
C1537 C 0.60862 0.57872 0.75001 0.0
C1538 C 0.58267 0.56907 0.75748 0.0
C1539 C 0.57098 0.54128 0.75869 0.0
C1540 C 0.58518 0.52309 0.75234 0.0
C1541 C 0.68162 0.44281 0.79081 0.0
C1542 C 0.66065 0.42357 0.80107 0.0
C1543 C 0.67681 0.46066 0.77431 0.0
C1544 C 0.65096 0.45953 0.76769 0.0
C1545 C 0.63 0.44095 0.77849 0.0
C1546 C 0.63479 0.42308 0.79495 0.0
C1547 C 0.6458 0.47732 0.74917 0.0
C1548 C 0.6301 0.49473 0.754 0.0
C1549 C 0.65697 0.47779 0.72708 0.0
C1550 C 0.67282 0.45912 0.72057 0.0
C1551 C 0.66244 0.43103 0.72276 0.0
C1552 C 0.67765 0.4136 0.71694 0.0
C1553 C 0.70322 0.42401 0.70875 0.0
C1554 C 0.7136 0.45188 0.70629 0.0
C1555 C 0.69848 0.4694 0.71212 0.0
H1556 H 0.71497 0.41049 0.70426 0.0
H1557 H 0.57163 0.58311 0.76238 0.0
H1558 H 0.38142 0.08753 0.79828 0.0
H1559 H 0.38924 0.05569 0.76991 0.0
H1560 H 0.30594 0.0177 0.76615 0.0
H1561 H 0.2981 0.04909 0.7952 0.0
H1562 H 0.33126 0.98049 0.76406 0.0
H1563 H 0.33844 0.06368 0.72518 0.0
H1564 H 0.35428 0.11264 0.71804 0.0
H1565 H 0.43311 0.10599 0.71082 0.0
H1566 H 0.41778 0.05701 0.71824 0.0
H1567 H 0.32852 0.92027 0.65505 0.0
H1568 H 0.32461 0.95325 0.68391 0.0
H1569 H 0.4074 0.97018 0.6984 0.0
H1570 H 0.41148 0.93655 0.66966 0.0
H1571 H 0.38364 0.01752 0.69509 0.0
H1572 H 0.37272 0.93123 0.73243 0.0
H1573 H 0.35311 0.88215 0.73614 0.0
H1574 H 0.27655 0.89496 0.74319 0.0
H1575 H 0.29563 0.9441 0.739 0.0
C1576 C 0.36477 0.07226 0.79155 0.0
C1577 C 0.33912 0.07092 0.79885 0.0
C1578 C 0.36925 0.05415 0.77522 0.0
C1579 C 0.34815 0.03461 0.76548 0.0
C1580 C 0.32256 0.03265 0.77332 0.0
C1581 C 0.31808 0.05061 0.7899 0.0
C1582 C 0.35279 0.01674 0.74676 0.0
C1583 C 0.34252 0.98866 0.74893 0.0
C1584 C 0.36768 0.02728 0.72699 0.0
C1585 C 0.377 0.05672 0.72252 0.0
C1586 C 0.35918 0.07269 0.72225 0.0
C1587 C 0.36806 0.10044 0.71813 0.0
C1588 C 0.3947 0.11243 0.71404 0.0
C1589 C 0.41249 0.09668 0.71402 0.0
C1590 C 0.40372 0.06892 0.71818 0.0
C1591 C 0.34606 0.9313 0.66405 0.0
C1592 C 0.37033 0.92572 0.66013 0.0
C1593 C 0.34372 0.95006 0.68061 0.0
C1594 C 0.36563 0.96386 0.69342 0.0
C1595 C 0.39025 0.95961 0.68868 0.0
C1596 C 0.39256 0.94048 0.67226 0.0
C1597 C 0.36226 0.98151 0.71258 0.0
C1598 C 0.37263 0.00948 0.71039 0.0
C1599 C 0.34703 0.9709 0.73208 0.0
C1600 C 0.3356 0.94137 0.73517 0.0
C1601 C 0.35168 0.92358 0.73457 0.0
C1602 C 0.34066 0.89575 0.73678 0.0
C1603 C 0.31359 0.88544 0.73984 0.0
C1604 C 0.29751 0.90297 0.74078 0.0
C1605 C 0.30842 0.93082 0.7385 0.0
H1606 H 0.30509 0.86389 0.74154 0.0
H1607 H 0.40153 0.13391 0.71084 0.0
H1608 H 0.4169 0.14742 0.8662 0.0
H1609 H 0.46011 0.17794 0.87415 0.0
H1610 H 0.4245 0.24304 0.88607 0.0
H1611 H 0.38137 0.21278 0.87729 0.0
H1612 H 0.46237 0.25886 0.85755 0.0
H1613 H 0.455 0.21503 0.92996 0.0
H1614 H 0.44654 0.17691 0.95709 0.0
H1615 H 0.50989 0.15054 0.92776 0.0
H1616 H 0.5185 0.18829 0.90022 0.0
H1617 H 0.58799 0.34858 0.87938 0.0
H1618 H 0.54364 0.32065 0.88833 0.0
H1619 H 0.56514 0.24976 0.86549 0.0
H1620 H 0.60933 0.27744 0.85649 0.0
H1621 H 0.53355 0.24045 0.90489 0.0
H1622 H 0.53558 0.28067 0.82932 0.0
H1623 H 0.54394 0.31894 0.80231 0.0
H1624 H 0.4897 0.35237 0.83906 0.0
H1625 H 0.48131 0.31446 0.8665 0.0
C1626 C 0.41825 0.16809 0.87099 0.0
C1627 C 0.39583 0.17778 0.871 0.0
C1628 C 0.44296 0.18553 0.87565 0.0
C1629 C 0.44562 0.21283 0.88086 0.0
C1630 C 0.423 0.22212 0.88204 0.0
C1631 C 0.39835 0.20479 0.87707 0.0
C1632 C 0.47209 0.23221 0.88259 0.0
C1633 C 0.47769 0.2551 0.86838 0.0
C1634 C 0.49234 0.22715 0.89634 0.0
C1635 C 0.48728 0.20442 0.91291 0.0
C1636 C 0.46701 0.201 0.92917 0.0
C1637 C 0.46221 0.17947 0.94465 0.0
C1638 C 0.47764 0.16129 0.94412 0.0
C1639 C 0.49794 0.16464 0.92815 0.0
C1640 C 0.50282 0.18612 0.91262 0.0
C1641 C 0.58333 0.32699 0.87658 0.0
C1642 C 0.60199 0.3152 0.86704 0.0
C1643 C 0.55804 0.31109 0.88169 0.0
C1644 C 0.55111 0.28319 0.87741 0.0
C1645 C 0.57012 0.27123 0.86896 0.0
C1646 C 0.5953 0.28711 0.8637 0.0
C1647 C 0.52358 0.26668 0.87976 0.0
C1648 C 0.51791 0.24435 0.89456 0.0
C1649 C 0.50316 0.27226 0.86667 0.0
C1650 C 0.50807 0.29494 0.8501 0.0
C1651 C 0.5256 0.29631 0.83174 0.0
C1652 C 0.53032 0.31791 0.81634 0.0
C1653 C 0.51743 0.33812 0.81901 0.0
C1654 C 0.49972 0.33673 0.83705 0.0
C1655 C 0.49497 0.31519 0.85252 0.0
H1656 H 0.5211 0.35483 0.80707 0.0
H1657 H 0.47389 0.14463 0.95612 0.0
H1658 H 0.37378 0.59249 0.22288 0.0
H1659 H 0.37881 0.55895 0.251 0.0
H1660 H 0.31818 0.49818 0.21693 0.0
H1661 H 0.31313 0.53168 0.18859 0.0
H1662 H 0.31099 0.50067 0.26443 0.0
H1663 H 0.38036 0.49683 0.2117 0.0
H1664 H 0.42034 0.51625 0.18902 0.0
H1665 H 0.46306 0.54544 0.25061 0.0
H1666 H 0.42321 0.5265 0.27364 0.0
H1667 H 0.31985 0.38388 0.32093 0.0
H1668 H 0.31917 0.41889 0.29317 0.0
H1669 H 0.39078 0.4696 0.322 0.0
H1670 H 0.39236 0.43343 0.34914 0.0
H1671 H 0.39352 0.47479 0.2785 0.0
H1672 H 0.32662 0.47957 0.33181 0.0
H1673 H 0.28732 0.46253 0.35591 0.0
H1674 H 0.24069 0.43541 0.29587 0.0
H1675 H 0.27978 0.45197 0.27143 0.0
C1676 C 0.36168 0.57192 0.22123 0.0
C1677 C 0.34304 0.5647 0.20352 0.0
C1678 C 0.36464 0.55277 0.23729 0.0
C1679 C 0.34895 0.52605 0.236 0.0
C1680 C 0.3305 0.5187 0.2182 0.0
C1681 C 0.3277 0.53781 0.20199 0.0
C1682 C 0.35101 0.50608 0.25379 0.0
C1683 C 0.32891 0.4947 0.26734 0.0
C1684 C 0.37474 0.49923 0.2582 0.0
C1685 C 0.39873 0.51048 0.24437 0.0
C1686 C 0.39822 0.50758 0.22039 0.0
C1687 C 0.42087 0.51846 0.20747 0.0
C1688 C 0.44421 0.53213 0.21836 0.0
C1689 C 0.44496 0.53488 0.24219 0.0
C1690 C 0.42236 0.52405 0.25519 0.0
C1691 C 0.33538 0.40257 0.32152 0.0
C1692 C 0.35598 0.40612 0.33742 0.0
C1693 C 0.33489 0.4227 0.30567 0.0
C1694 C 0.35448 0.44735 0.30582 0.0
C1695 C 0.37529 0.45088 0.32161 0.0
C1696 C 0.37615 0.43032 0.33718 0.0
C1697 C 0.3533 0.46894 0.2891 0.0
C1698 C 0.37557 0.48075 0.27576 0.0
C1699 C 0.32982 0.47662 0.28516 0.0
C1700 C 0.30619 0.46685 0.2998 0.0
C1701 C 0.30801 0.46984 0.32376 0.0
C1702 C 0.28577 0.46027 0.33748 0.0
C1703 C 0.26153 0.44785 0.32743 0.0
C1704 C 0.25948 0.44503 0.30363 0.0
C1705 C 0.28166 0.45453 0.28983 0.0
H1706 H 0.24434 0.44045 0.33808 0.0
H1707 H 0.46172 0.54054 0.20833 0.0
H1708 H 0.61091 0.0631 0.34778 0.0
H1709 H 0.61354 0.02731 0.32083 0.0
H1710 H 0.64721 0.08742 0.26981 0.0
H1711 H 0.64395 0.123 0.29629 0.0
H1712 H 0.6152 0.04589 0.24976 0.0
H1713 H 0.68562 0.05819 0.3043 0.0
H1714 H 0.70523 0.06062 0.34287 0.0
H1715 H 0.66225 0.97837 0.35568 0.0
H1716 H 0.64211 0.97557 0.31727 0.0
H1717 H 0.67931 0.96893 0.17974 0.0
H1718 H 0.67023 0.0029 0.20565 0.0
H1719 H 0.63233 0.94002 0.25298 0.0
H1720 H 0.64149 0.90614 0.22736 0.0
H1721 H 0.66504 0.98191 0.27499 0.0
H1722 H 0.59633 0.96986 0.21861 0.0
H1723 H 0.57829 0.96848 0.1795 0.0
H1724 H 0.62023 0.05162 0.16948 0.0
H1725 H 0.63881 0.0534 0.20843 0.0
C1726 C 0.61843 0.0686 0.33067 0.0
C1727 C 0.62735 0.09586 0.32421 0.0
C1728 C 0.62011 0.04817 0.31534 0.0
C1729 C 0.63107 0.05467 0.2934 0.0
C1730 C 0.63877 0.08184 0.28662 0.0
C1731 C 0.63693 0.1022 0.30183 0.0
C1732 C 0.63575 0.0335 0.27784 0.0
C1733 C 0.62629 0.03206 0.25524 0.0
C1734 C 0.64996 0.01518 0.28499 0.0
C1735 C 0.66215 0.01677 0.30802 0.0
C1736 C 0.68022 0.04068 0.31541 0.0
C1737 C 0.69144 0.04212 0.33723 0.0
C1738 C 0.68493 0.01969 0.35174 0.0
C1739 C 0.66724 0.99574 0.34444 0.0
C1740 C 0.65592 0.99421 0.32264 0.0
C1741 C 0.66907 0.96239 0.19568 0.0
C1742 C 0.66108 0.93486 0.20148 0.0
C1743 C 0.66378 0.98179 0.21042 0.0
C1744 C 0.65036 0.97398 0.23117 0.0
C1745 C 0.64267 0.94653 0.23707 0.0
C1746 C 0.64788 0.92718 0.22236 0.0
C1747 C 0.64451 0.99433 0.24694 0.0
C1748 C 0.65382 0.99564 0.26956 0.0
C1749 C 0.63039 0.01268 0.23974 0.0
C1750 C 0.61915 0.01168 0.21636 0.0
C1751 C 0.60186 0.98779 0.208 0.0
C1752 C 0.59152 0.98695 0.18588 0.0
C1753 C 0.59817 0.00993 0.172 0.0
C1754 C 0.61512 0.03383 0.18024 0.0
C1755 C 0.62555 0.03477 0.20235 0.0
H1756 H 0.59013 0.00923 0.15487 0.0
H1757 H 0.69364 0.02084 0.36863 0.0
H1758 H 0.61476 0.79473 0.12475 0.0
H1759 H 0.5711 0.76388 0.11964 0.0
H1760 H 0.53595 0.82739 0.13858 0.0
H1761 H 0.57967 0.85828 0.1441 0.0
H1762 H 0.51595 0.78318 0.16303 0.0
H1763 H 0.53199 0.80288 0.08354 0.0
H1764 H 0.55666 0.80803 0.04722 0.0
H1765 H 0.55395 0.72386 0.04838 0.0
H1766 H 0.52958 0.71827 0.0849 0.0
H1767 H 0.38521 0.71218 0.14053 0.0
H1768 H 0.42784 0.74462 0.13464 0.0
H1769 H 0.46423 0.67936 0.12821 0.0
H1770 H 0.42145 0.64654 0.13434 0.0
H1771 H 0.48292 0.7245 0.09596 0.0
H1772 H 0.46919 0.70598 0.17659 0.0
H1773 H 0.44421 0.701 0.21275 0.0
H1774 H 0.4427 0.78393 0.20891 0.0
H1775 H 0.46732 0.78929 0.1725 0.0
C1776 C 0.59774 0.80227 0.12743 0.0
C1777 C 0.60061 0.82888 0.13492 0.0
C1778 C 0.57278 0.78463 0.12441 0.0
C1779 C 0.55024 0.79335 0.12864 0.0
C1780 C 0.55309 0.82024 0.13524 0.0
C1781 C 0.57806 0.83789 0.13831 0.0
C1782 C 0.52386 0.7738 0.1282 0.0
C1783 C 0.50858 0.77074 0.14818 0.0
C1784 C 0.51454 0.75696 0.10908 0.0
C1785 C 0.52916 0.76022 0.08708 0.0
C1786 C 0.53684 0.78551 0.07616 0.0
C1787 C 0.55074 0.7885 0.05551 0.0
C1788 C 0.55693 0.7663 0.04552 0.0
C1789 C 0.54917 0.74105 0.05614 0.0
C1790 C 0.53529 0.73795 0.07681 0.0
C1791 C 0.40219 0.70465 0.13754 0.0
C1792 C 0.40005 0.67682 0.13808 0.0
C1793 C 0.42651 0.72323 0.13418 0.0
C1794 C 0.44913 0.71434 0.13116 0.0
C1795 C 0.44693 0.68654 0.13048 0.0
C1796 C 0.42255 0.66787 0.13406 0.0
C1797 C 0.47521 0.7342 0.13068 0.0
C1798 C 0.49037 0.73717 0.11065 0.0
C1799 C 0.4845 0.75105 0.14973 0.0
C1800 C 0.46983 0.74795 0.17169 0.0
C1801 C 0.46331 0.72309 0.18335 0.0
C1802 C 0.44926 0.72021 0.20391 0.0
C1803 C 0.4418 0.74211 0.21309 0.0
C1804 C 0.44845 0.76697 0.20176 0.0
C1805 C 0.46246 0.76994 0.18116 0.0
H1806 H 0.43093 0.73985 0.22901 0.0
H1807 H 0.56768 0.76866 0.02954 0.0
loop_
_geom_bond_atom_site_label_1
_geom_bond_atom_site_label_2
_geom_bond_distance
_geom_bond_site_symmetry_2
_ccdc_geom_bond_type
In0 O1 2.294 . S
In0 O2 2.326 . S
In0 O6 2.266 . S
In0 O7 2.326 . S
In0 O8 2.266 . S
In0 O9 2.326 . S
In0 O11 2.294 . S
In0 O12 2.326 . S
O1 In0 2.294 . S
O1 C10 1.240 . S
O2 In0 2.326 . S
O2 C10 1.252 . S
C3 O6 1.252 . S
C3 O7 1.260 . S
C4 O11 1.240 . S
C4 O12 1.252 . S
C5 O8 1.252 . S
C5 O9 1.260 . S
O6 In0 2.266 . S
O6 C3 1.252 . S
O7 In0 2.326 . S
O7 C3 1.260 . S
O8 In0 2.266 . S
O8 C5 1.252 . S
O9 In0 2.326 . S
O9 C5 1.260 . S
C10 O1 1.240 . S
C10 O2 1.252 . S
O11 In0 2.294 . S
O11 C4 1.240 . S
O12 In0 2.326 . S
O12 C4 1.252 . S
In13 O14 2.294 . S
In13 O15 2.326 . S
In13 O19 2.266 . S
In13 O20 2.326 . S
In13 O21 2.266 . S
In13 O22 2.326 . S
In13 O24 2.294 . S
In13 O25 2.326 . S
O14 In13 2.294 . S
O14 C23 1.240 . S
O15 In13 2.326 . S
O15 C23 1.252 . S
C16 O19 1.252 . S
C16 O20 1.260 . S
C17 O24 1.240 . S
C17 O25 1.252 . S
C18 O21 1.252 . S
C18 O22 1.260 . S
O19 In13 2.266 . S
O19 C16 1.252 . S
O20 In13 2.326 . S
O20 C16 1.260 . S
O21 In13 2.266 . S
O21 C18 1.252 . S
O22 In13 2.326 . S
O22 C18 1.260 . S
C23 O14 1.240 . S
C23 O15 1.252 . S
O24 In13 2.294 . S
O24 C17 1.240 . S
O25 In13 2.326 . S
O25 C17 1.252 . S
In26 O27 2.294 . S
In26 O28 2.326 . S
In26 O32 2.266 . S
In26 O33 2.326 . S
In26 O34 2.266 . S
In26 O35 2.326 . S
In26 O37 2.294 . S
In26 O38 2.326 . S
O27 In26 2.294 . S
O27 C36 1.240 . S
O28 In26 2.326 . S
O28 C36 1.252 . S
C29 O32 1.252 . S
C29 O33 1.260 . S
C30 O37 1.240 . S
C30 O38 1.252 . S
C31 O34 1.252 . S
C31 O35 1.260 . S
O32 In26 2.266 . S
O32 C29 1.252 . S
O33 In26 2.326 . S
O33 C29 1.260 . S
O34 In26 2.266 . S
O34 C31 1.252 . S
O35 In26 2.326 . S
O35 C31 1.260 . S
C36 O27 1.240 . S
C36 O28 1.252 . S
O37 In26 2.294 . S
O37 C30 1.240 . S
O38 In26 2.326 . S
O38 C30 1.252 . S
In39 O40 2.294 . S
In39 O41 2.326 . S
In39 O45 2.266 . S
In39 O46 2.326 . S
In39 O47 2.266 . S
In39 O48 2.326 . S
In39 O50 2.294 . S
In39 O51 2.326 . S
O40 In39 2.294 . S
O40 C49 1.240 . S
O41 In39 2.326 . S
O41 C49 1.252 . S
C42 O45 1.252 . S
C42 O46 1.260 . S
C43 O50 1.240 . S
C43 O51 1.252 . S
C44 O47 1.252 . S
C44 O48 1.260 . S
O45 In39 2.266 . S
O45 C42 1.252 . S
O46 In39 2.326 . S
O46 C42 1.260 . S
O47 In39 2.266 . S
O47 C44 1.252 . S
O48 In39 2.326 . S
O48 C44 1.260 . S
C49 O40 1.240 . S
C49 O41 1.252 . S
O50 In39 2.294 . S
O50 C43 1.240 . S
O51 In39 2.326 . S
O51 C43 1.252 . S
In52 O53 2.294 . S
In52 O54 2.326 . S
In52 O58 2.266 . S
In52 O59 2.326 . S
In52 O60 2.266 . S
In52 O61 2.326 . S
In52 O63 2.294 . S
In52 O64 2.326 . S
O53 In52 2.294 . S
O53 C62 1.240 . S
O54 In52 2.326 . S
O54 C62 1.252 . S
C55 O58 1.252 . S
C55 O59 1.260 . S
C56 O63 1.240 . S
C56 O64 1.252 . S
C57 O60 1.252 . S
C57 O61 1.260 . S
O58 In52 2.266 . S
O58 C55 1.252 . S
O59 In52 2.326 . S
O59 C55 1.260 . S
O60 In52 2.266 . S
O60 C57 1.252 . S
O61 In52 2.326 . S
O61 C57 1.260 . S
C62 O53 1.240 . S
C62 O54 1.252 . S
O63 In52 2.294 . S
O63 C56 1.240 . S
O64 In52 2.326 . S
O64 C56 1.252 . S
In65 O66 2.294 . S
In65 O67 2.326 . S
In65 O71 2.266 . S
In65 O72 2.326 . S
In65 O73 2.266 . S
In65 O74 2.326 . S
In65 O76 2.294 . S
In65 O77 2.326 . S
O66 In65 2.294 . S
O66 C75 1.240 . S
O67 In65 2.326 . S
O67 C75 1.252 . S
C68 O71 1.252 . S
C68 O72 1.260 . S
C69 O76 1.240 . S
C69 O77 1.252 . S
C70 O73 1.252 . S
C70 O74 1.260 . S
O71 In65 2.266 . S
O71 C68 1.252 . S
O72 In65 2.326 . S
O72 C68 1.260 . S
O73 In65 2.266 . S
O73 C70 1.252 . S
O74 In65 2.326 . S
O74 C70 1.260 . S
C75 O66 1.240 . S
C75 O67 1.252 . S
O76 In65 2.294 . S
O76 C69 1.240 . S
O77 In65 2.326 . S
O77 C69 1.252 . S
In78 O79 2.294 . S
In78 O80 2.326 . S
In78 O84 2.266 . S
In78 O85 2.326 . S
In78 O86 2.266 . S
In78 O87 2.326 . S
In78 O89 2.294 . S
In78 O90 2.326 . S
O79 In78 2.294 . S
O79 C88 1.240 . S
O80 In78 2.326 . S
O80 C88 1.252 . S
C81 O84 1.252 . S
C81 O85 1.260 . S
C82 O89 1.240 . S
C82 O90 1.252 . S
C83 O86 1.252 . S
C83 O87 1.260 . S
O84 In78 2.266 . S
O84 C81 1.252 . S
O85 In78 2.326 . S
O85 C81 1.260 . S
O86 In78 2.266 . S
O86 C83 1.252 . S
O87 In78 2.326 . S
O87 C83 1.260 . S
C88 O79 1.240 . S
C88 O80 1.252 . S
O89 In78 2.294 . S
O89 C82 1.240 . S
O90 In78 2.326 . S
O90 C82 1.252 . S
In91 O92 2.294 . S
In91 O93 2.326 . S
In91 O97 2.266 . S
In91 O98 2.326 . S
In91 O99 2.266 . S
In91 O100 2.326 . S
In91 O102 2.294 . S
In91 O103 2.326 . S
O92 In91 2.294 . S
O92 C101 1.240 . S
O93 In91 2.326 . S
O93 C101 1.252 . S
C94 O97 1.252 . S
C94 O98 1.260 . S
C95 O102 1.240 . S
C95 O103 1.252 . S
C96 O99 1.252 . S
C96 O100 1.260 . S
O97 In91 2.266 . S
O97 C94 1.252 . S
O98 In91 2.326 . S
O98 C94 1.260 . S
O99 In91 2.266 . S
O99 C96 1.252 . S
O100 In91 2.326 . S
O100 C96 1.260 . S
C101 O92 1.240 . S
C101 O93 1.252 . S
O102 In91 2.294 . S
O102 C95 1.240 . S
O103 In91 2.326 . S
O103 C95 1.252 . S
In104 O105 2.294 . S
In104 O106 2.326 . S
In104 O110 2.266 . S
In104 O111 2.326 . S
In104 O112 2.266 . S
In104 O113 2.326 . S
In104 O115 2.294 . S
In104 O116 2.326 . S
O105 In104 2.294 . S
O105 C114 1.240 . S
O106 In104 2.326 . S
O106 C114 1.252 . S
C107 O110 1.252 . S
C107 O111 1.260 . S
C108 O115 1.240 . S
C108 O116 1.252 . S
C109 O112 1.252 . S
C109 O113 1.260 . S
O110 In104 2.266 . S
O110 C107 1.252 . S
O111 In104 2.326 . S
O111 C107 1.260 . S
O112 In104 2.266 . S
O112 C109 1.252 . S
O113 In104 2.326 . S
O113 C109 1.260 . S
C114 O105 1.240 . S
C114 O106 1.252 . S
O115 In104 2.294 . S
O115 C108 1.240 . S
O116 In104 2.326 . S
O116 C108 1.252 . S
In117 O118 2.294 . S
In117 O119 2.326 . S
In117 O123 2.266 . S
In117 O124 2.326 . S
In117 O125 2.266 . S
In117 O126 2.326 . S
In117 O128 2.294 . S
In117 O129 2.326 . S
O118 In117 2.294 . S
O118 C127 1.240 . S
O119 In117 2.326 . S
O119 C127 1.252 . S
C120 O123 1.252 . S
C120 O124 1.260 . S
C121 O128 1.240 . S
C121 O129 1.252 . S
C122 O125 1.252 . S
C122 O126 1.260 . S
O123 In117 2.266 . S
O123 C120 1.252 . S
O124 In117 2.326 . S
O124 C120 1.260 . S
O125 In117 2.266 . S
O125 C122 1.252 . S
O126 In117 2.326 . S
O126 C122 1.260 . S
C127 O118 1.240 . S
C127 O119 1.252 . S
O128 In117 2.294 . S
O128 C121 1.240 . S
O129 In117 2.326 . S
O129 C121 1.252 . S
In130 O131 2.294 . S
In130 O132 2.326 . S
In130 O136 2.266 . S
In130 O137 2.326 . S
In130 O138 2.266 . S
In130 O139 2.326 . S
In130 O141 2.294 . S
In130 O142 2.326 . S
O131 In130 2.294 . S
O131 C140 1.240 . S
O132 In130 2.326 . S
O132 C140 1.252 . S
C133 O136 1.252 . S
C133 O137 1.260 . S
C134 O141 1.240 . S
C134 O142 1.252 . S
C135 O138 1.252 . S
C135 O139 1.260 . S
O136 In130 2.266 . S
O136 C133 1.252 . S
O137 In130 2.326 . S
O137 C133 1.260 . S
O138 In130 2.266 . S
O138 C135 1.252 . S
O139 In130 2.326 . S
O139 C135 1.260 . S
C140 O131 1.240 . S
C140 O132 1.252 . S
O141 In130 2.294 . S
O141 C134 1.240 . S
O142 In130 2.326 . S
O142 C134 1.252 . S
In143 O144 2.294 . S
In143 O145 2.326 . S
In143 O149 2.266 . S
In143 O150 2.326 . S
In143 O151 2.266 . S
In143 O152 2.326 . S
In143 O154 2.294 . S
In143 O155 2.326 . S
O144 In143 2.294 . S
O144 C153 1.240 . S
O145 In143 2.326 . S
O145 C153 1.252 . S
C146 O149 1.252 . S
C146 O150 1.260 . S
C147 O154 1.240 . S
C147 O155 1.252 . S
C148 O151 1.252 . S
C148 O152 1.260 . S
O149 In143 2.266 . S
O149 C146 1.252 . S
O150 In143 2.326 . S
O150 C146 1.260 . S
O151 In143 2.266 . S
O151 C148 1.252 . S
O152 In143 2.326 . S
O152 C148 1.260 . S
C153 O144 1.240 . S
C153 O145 1.252 . S
O154 In143 2.294 . S
O154 C147 1.240 . S
O155 In143 2.326 . S
O155 C147 1.252 . S
In156 O157 2.294 . S
In156 O158 2.326 . S
In156 O162 2.266 . S
In156 O163 2.326 . S
In156 O164 2.266 . S
In156 O165 2.326 . S
In156 O167 2.294 . S
In156 O168 2.326 . S
O157 In156 2.294 . S
O157 C166 1.240 . S
O158 In156 2.326 . S
O158 C166 1.252 . S
C159 O162 1.252 . S
C159 O163 1.260 . S
C160 O167 1.240 . S
C160 O168 1.252 . S
C161 O164 1.252 . S
C161 O165 1.260 . S
O162 In156 2.266 . S
O162 C159 1.252 . S
O163 In156 2.326 . S
O163 C159 1.260 . S
O164 In156 2.266 . S
O164 C161 1.252 . S
O165 In156 2.326 . S
O165 C161 1.260 . S
C166 O157 1.240 . S
C166 O158 1.252 . S
O167 In156 2.294 . S
O167 C160 1.240 . S
O168 In156 2.326 . S
O168 C160 1.252 . S
In169 O170 2.294 . S
In169 O171 2.326 . S
In169 O175 2.266 . S
In169 O176 2.326 . S
In169 O177 2.266 . S
In169 O178 2.326 . S
In169 O180 2.294 . S
In169 O181 2.326 . S
O170 In169 2.294 . S
O170 C179 1.240 . S
O171 In169 2.326 . S
O171 C179 1.252 . S
C172 O175 1.252 . S
C172 O176 1.260 . S
C173 O180 1.240 . S
C173 O181 1.252 . S
C174 O177 1.252 . S
C174 O178 1.260 . S
O175 In169 2.266 . S
O175 C172 1.252 . S
O176 In169 2.326 . S
O176 C172 1.260 . S
O177 In169 2.266 . S
O177 C174 1.252 . S
O178 In169 2.326 . S
O178 C174 1.260 . S
C179 O170 1.240 . S
C179 O171 1.252 . S
O180 In169 2.294 . S
O180 C173 1.240 . S
O181 In169 2.326 . S
O181 C173 1.252 . S
In182 O183 2.294 . S
In182 O184 2.326 . S
In182 O188 2.266 . S
In182 O189 2.326 . S
In182 O190 2.266 . S
In182 O191 2.326 . S
In182 O193 2.294 . S
In182 O194 2.326 . S
O183 In182 2.294 . S
O183 C192 1.240 . S
O184 In182 2.326 . S
O184 C192 1.252 . S
C185 O188 1.252 . S
C185 O189 1.260 . S
C186 O193 1.240 . S
C186 O194 1.252 . S
C187 O190 1.252 . S
C187 O191 1.260 . S
O188 In182 2.266 . S
O188 C185 1.252 . S
O189 In182 2.326 . S
O189 C185 1.260 . S
O190 In182 2.266 . S
O190 C187 1.252 . S
O191 In182 2.326 . S
O191 C187 1.260 . S
C192 O183 1.240 . S
C192 O184 1.252 . S
O193 In182 2.294 . S
O193 C186 1.240 . S
O194 In182 2.326 . S
O194 C186 1.252 . S
In195 O196 2.294 . S
In195 O197 2.326 . S
In195 O201 2.266 . S
In195 O202 2.326 . S
In195 O203 2.266 . S
In195 O204 2.326 . S
In195 O206 2.294 . S
In195 O207 2.326 . S
O196 In195 2.294 . S
O196 C205 1.240 . S
O197 In195 2.326 . S
O197 C205 1.252 . S
C198 O201 1.252 . S
C198 O202 1.260 . S
C199 O206 1.240 . S
C199 O207 1.252 . S
C200 O203 1.252 . S
C200 O204 1.260 . S
O201 In195 2.266 . S
O201 C198 1.252 . S
O202 In195 2.326 . S
O202 C198 1.260 . S
O203 In195 2.266 . S
O203 C200 1.252 . S
O204 In195 2.326 . S
O204 C200 1.260 . S
C205 O196 1.240 . S
C205 O197 1.252 . S
O206 In195 2.294 . S
O206 C199 1.240 . S
O207 In195 2.326 . S
O207 C199 1.252 . S
H208 C226 0.951 . S
H209 C228 0.951 . S
H210 C230 0.950 . S
H211 C231 0.950 . S
H212 C233 0.950 . S
H213 C236 0.950 . S
H214 C237 0.950 . S
H215 C239 0.950 . S
H216 C240 0.950 . S
H217 C241 0.951 . S
H218 C243 0.951 . S
H219 C245 0.950 . S
H220 C246 0.950 . S
H221 C248 0.950 . S
H222 C251 0.950 . S
H223 C252 0.950 . S
H224 C254 0.950 . S
H225 C255 0.950 . S
C226 H208 0.951 . S
C226 C227 1.366 . S
C226 C228 1.388 . S
C227 C226 1.366 . S
C227 C231 1.385 . S
C228 H209 0.951 . S
C228 C226 1.388 . S
C228 C229 1.366 . S
C229 C228 1.366 . S
C229 C230 1.414 . S
C229 C232 1.499 . S
C230 H210 0.950 . S
C230 C229 1.414 . S
C230 C231 1.374 . S
C231 H211 0.950 . S
C231 C227 1.385 . S
C231 C230 1.374 . S
C232 C229 1.499 . S
C232 C233 1.373 . S
C232 C234 1.389 . S
C233 H212 0.950 . S
C233 C232 1.373 . S
C233 C249 1.377 . S
C234 C232 1.389 . S
C234 C235 1.524 . S
C234 C248 1.377 . S
C235 C234 1.524 . S
C235 C236 1.397 . S
C235 C240 1.363 . S
C236 H213 0.950 . S
C236 C235 1.397 . S
C236 C237 1.334 . S
C237 H214 0.950 . S
C237 C236 1.334 . S
C237 C238 1.287 . S
C238 C237 1.287 . S
C238 C239 1.524 . S
C238 H257 0.913 . S
C239 H215 0.950 . S
C239 C238 1.524 . S
C239 C240 1.415 . S
C240 H216 0.950 . S
C240 C235 1.363 . S
C240 C239 1.415 . S
C241 H217 0.951 . S
C241 C242 1.366 . S
C241 C243 1.388 . S
C242 C241 1.366 . S
C242 C246 1.385 . S
C243 H218 0.951 . S
C243 C241 1.388 . S
C243 C244 1.366 . S
C244 C243 1.366 . S
C244 C245 1.414 . S
C244 C247 1.499 . S
C245 H219 0.950 . S
C245 C244 1.414 . S
C245 C246 1.374 . S
C246 H220 0.950 . S
C246 C242 1.385 . S
C246 C245 1.374 . S
C247 C244 1.499 . S
C247 C248 1.373 . S
C247 C249 1.389 . S
C248 H221 0.950 . S
C248 C234 1.377 . S
C248 C247 1.373 . S
C249 C233 1.377 . S
C249 C247 1.389 . S
C249 C250 1.524 . S
C250 C249 1.524 . S
C250 C251 1.397 . S
C250 C255 1.363 . S
C251 H222 0.950 . S
C251 C250 1.397 . S
C251 C252 1.334 . S
C252 H223 0.950 . S
C252 C251 1.334 . S
C252 C253 1.287 . S
C253 C252 1.287 . S
C253 C254 1.524 . S
C253 H256 0.999 . S
C254 H224 0.950 . S
C254 C253 1.524 . S
C254 C255 1.415 . S
C255 H225 0.950 . S
C255 C250 1.363 . S
C255 C254 1.415 . S
H256 C253 0.999 . S
H257 C238 0.913 . S
H258 C276 0.951 . S
H259 C278 0.951 . S
H260 C280 0.950 . S
H261 C281 0.950 . S
H262 C283 0.950 . S
H263 C286 0.950 . S
H264 C287 0.950 . S
H265 C289 0.950 . S
H266 C290 0.950 . S
H267 C291 0.951 . S
H268 C293 0.951 . S
H269 C295 0.950 . S
H270 C296 0.950 . S
H271 C298 0.950 . S
H272 C301 0.950 . S
H273 C302 0.950 . S
H274 C304 0.950 . S
H275 C305 0.950 . S
C276 H258 0.951 . S
C276 C277 1.366 . S
C276 C278 1.388 . S
C277 C276 1.366 . S
C277 C281 1.385 . S
C278 H259 0.951 . S
C278 C276 1.388 . S
C278 C279 1.366 . S
C279 C278 1.366 . S
C279 C280 1.414 . S
C279 C282 1.499 . S
C280 H260 0.950 . S
C280 C279 1.414 . S
C280 C281 1.374 . S
C281 H261 0.950 . S
C281 C277 1.385 . S
C281 C280 1.374 . S
C282 C279 1.499 . S
C282 C283 1.373 . S
C282 C284 1.389 . S
C283 H262 0.950 . S
C283 C282 1.373 . S
C283 C299 1.377 . S
C284 C282 1.389 . S
C284 C285 1.524 . S
C284 C298 1.377 . S
C285 C284 1.524 . S
C285 C286 1.397 . S
C285 C290 1.363 . S
C286 H263 0.950 . S
C286 C285 1.397 . S
C286 C287 1.334 . S
C287 H264 0.950 . S
C287 C286 1.334 . S
C287 C288 1.287 . S
C288 C287 1.287 . S
C288 C289 1.524 . S
C288 H307 0.913 . S
C289 H265 0.950 . S
C289 C288 1.524 . S
C289 C290 1.415 . S
C290 H266 0.950 . S
C290 C285 1.363 . S
C290 C289 1.415 . S
C291 H267 0.951 . S
C291 C292 1.366 . S
C291 C293 1.388 . S
C292 C291 1.366 . S
C292 C296 1.385 . S
C293 H268 0.951 . S
C293 C291 1.388 . S
C293 C294 1.366 . S
C294 C293 1.366 . S
C294 C295 1.414 . S
C294 C297 1.499 . S
C295 H269 0.950 . S
C295 C294 1.414 . S
C295 C296 1.374 . S
C296 H270 0.950 . S
C296 C292 1.385 . S
C296 C295 1.374 . S
C297 C294 1.499 . S
C297 C298 1.373 . S
C297 C299 1.389 . S
C298 H271 0.950 . S
C298 C284 1.377 . S
C298 C297 1.373 . S
C299 C283 1.377 . S
C299 C297 1.389 . S
C299 C300 1.524 . S
C300 C299 1.524 . S
C300 C301 1.397 . S
C300 C305 1.363 . S
C301 H272 0.950 . S
C301 C300 1.397 . S
C301 C302 1.334 . S
C302 H273 0.950 . S
C302 C301 1.334 . S
C302 C303 1.287 . S
C303 C302 1.287 . S
C303 C304 1.524 . S
C303 H306 0.999 . S
C304 H274 0.950 . S
C304 C303 1.524 . S
C304 C305 1.415 . S
C305 H275 0.950 . S
C305 C300 1.363 . S
C305 C304 1.415 . S
H306 C303 0.999 . S
H307 C288 0.913 . S
H308 C326 0.951 . S
H309 C328 0.951 . S
H310 C330 0.950 . S
H311 C331 0.950 . S
H312 C333 0.950 . S
H313 C336 0.950 . S
H314 C337 0.950 . S
H315 C339 0.950 . S
H316 C340 0.950 . S
H317 C341 0.951 . S
H318 C343 0.951 . S
H319 C345 0.950 . S
H320 C346 0.950 . S
H321 C348 0.950 . S
H322 C351 0.950 . S
H323 C352 0.950 . S
H324 C354 0.950 . S
H325 C355 0.950 . S
C326 H308 0.951 . S
C326 C327 1.366 . S
C326 C328 1.388 . S
C327 C326 1.366 . S
C327 C331 1.385 . S
C328 H309 0.951 . S
C328 C326 1.388 . S
C328 C329 1.366 . S
C329 C328 1.366 . S
C329 C330 1.414 . S
C329 C332 1.499 . S
C330 H310 0.950 . S
C330 C329 1.414 . S
C330 C331 1.374 . S
C331 H311 0.950 . S
C331 C327 1.385 . S
C331 C330 1.374 . S
C332 C329 1.499 . S
C332 C333 1.373 . S
C332 C334 1.389 . S
C333 H312 0.950 . S
C333 C332 1.373 . S
C333 C349 1.377 . S
C334 C332 1.389 . S
C334 C335 1.524 . S
C334 C348 1.377 . S
C335 C334 1.524 . S
C335 C336 1.397 . S
C335 C340 1.363 . S
C336 H313 0.950 . S
C336 C335 1.397 . S
C336 C337 1.334 . S
C337 H314 0.950 . S
C337 C336 1.334 . S
C337 C338 1.287 . S
C338 C337 1.287 . S
C338 C339 1.524 . S
C338 H357 0.913 . S
C339 H315 0.950 . S
C339 C338 1.524 . S
C339 C340 1.415 . S
C340 H316 0.950 . S
C340 C335 1.363 . S
C340 C339 1.415 . S
C341 H317 0.951 . S
C341 C342 1.366 . S
C341 C343 1.388 . S
C342 C341 1.366 . S
C342 C346 1.385 . S
C343 H318 0.951 . S
C343 C341 1.388 . S
C343 C344 1.366 . S
C344 C343 1.366 . S
C344 C345 1.414 . S
C344 C347 1.499 . S
C345 H319 0.950 . S
C345 C344 1.414 . S
C345 C346 1.374 . S
C346 H320 0.950 . S
C346 C342 1.385 . S
C346 C345 1.374 . S
C347 C344 1.499 . S
C347 C348 1.373 . S
C347 C349 1.389 . S
C348 H321 0.950 . S
C348 C334 1.377 . S
C348 C347 1.373 . S
C349 C333 1.377 . S
C349 C347 1.389 . S
C349 C350 1.524 . S
C350 C349 1.524 . S
C350 C351 1.397 . S
C350 C355 1.363 . S
C351 H322 0.950 . S
C351 C350 1.397 . S
C351 C352 1.334 . S
C352 H323 0.950 . S
C352 C351 1.334 . S
C352 C353 1.287 . S
C353 C352 1.287 . S
C353 C354 1.524 . S
C353 H356 0.999 . S
C354 H324 0.950 . S
C354 C353 1.524 . S
C354 C355 1.415 . S
C355 H325 0.950 . S
C355 C350 1.363 . S
C355 C354 1.415 . S
H356 C353 0.999 . S
H357 C338 0.913 . S
H358 C376 0.951 . S
H359 C378 0.951 . S
H360 C380 0.950 . S
H361 C381 0.950 . S
H362 C383 0.950 . S
H363 C386 0.950 . S
H364 C387 0.950 . S
H365 C389 0.950 . S
H366 C390 0.950 . S
H367 C391 0.951 . S
H368 C393 0.951 . S
H369 C395 0.950 . S
H370 C396 0.950 . S
H371 C398 0.950 . S
H372 C401 0.950 . S
H373 C402 0.950 . S
H374 C404 0.950 . S
H375 C405 0.950 . S
C376 H358 0.951 . S
C376 C377 1.366 . S
C376 C378 1.388 . S
C377 C376 1.366 . S
C377 C381 1.385 . S
C378 H359 0.951 . S
C378 C376 1.388 . S
C378 C379 1.366 . S
C379 C378 1.366 . S
C379 C380 1.414 . S
C379 C382 1.499 . S
C380 H360 0.950 . S
C380 C379 1.414 . S
C380 C381 1.374 . S
C381 H361 0.950 . S
C381 C377 1.385 . S
C381 C380 1.374 . S
C382 C379 1.499 . S
C382 C383 1.373 . S
C382 C384 1.389 . S
C383 H362 0.950 . S
C383 C382 1.373 . S
C383 C399 1.377 . S
C384 C382 1.389 . S
C384 C385 1.524 . S
C384 C398 1.377 . S
C385 C384 1.524 . S
C385 C386 1.397 . S
C385 C390 1.363 . S
C386 H363 0.950 . S
C386 C385 1.397 . S
C386 C387 1.334 . S
C387 H364 0.950 . S
C387 C386 1.334 . S
C387 C388 1.287 . S
C388 C387 1.287 . S
C388 C389 1.524 . S
C388 H407 0.913 . S
C389 H365 0.950 . S
C389 C388 1.524 . S
C389 C390 1.415 . S
C390 H366 0.950 . S
C390 C385 1.363 . S
C390 C389 1.415 . S
C391 H367 0.951 . S
C391 C392 1.366 . S
C391 C393 1.388 . S
C392 C391 1.366 . S
C392 C396 1.385 . S
C393 H368 0.951 . S
C393 C391 1.388 . S
C393 C394 1.366 . S
C394 C393 1.366 . S
C394 C395 1.414 . S
C394 C397 1.499 . S
C395 H369 0.950 . S
C395 C394 1.414 . S
C395 C396 1.374 . S
C396 H370 0.950 . S
C396 C392 1.385 . S
C396 C395 1.374 . S
C397 C394 1.499 . S
C397 C398 1.373 . S
C397 C399 1.389 . S
C398 H371 0.950 . S
C398 C384 1.377 . S
C398 C397 1.373 . S
C399 C383 1.377 . S
C399 C397 1.389 . S
C399 C400 1.524 . S
C400 C399 1.524 . S
C400 C401 1.397 . S
C400 C405 1.363 . S
C401 H372 0.950 . S
C401 C400 1.397 . S
C401 C402 1.334 . S
C402 H373 0.950 . S
C402 C401 1.334 . S
C402 C403 1.287 . S
C403 C402 1.287 . S
C403 C404 1.524 . S
C403 H406 0.999 . S
C404 H374 0.950 . S
C404 C403 1.524 . S
C404 C405 1.415 . S
C405 H375 0.950 . S
C405 C400 1.363 . S
C405 C404 1.415 . S
H406 C403 0.999 . S
H407 C388 0.913 . S
H408 C426 0.951 . S
H409 C428 0.951 . S
H410 C430 0.950 . S
H411 C431 0.950 . S
H412 C433 0.950 . S
H413 C436 0.950 . S
H414 C437 0.950 . S
H415 C439 0.950 . S
H416 C440 0.950 . S
H417 C441 0.951 . S
H418 C443 0.951 . S
H419 C445 0.950 . S
H420 C446 0.950 . S
H421 C448 0.950 . S
H422 C451 0.950 . S
H423 C452 0.950 . S
H424 C454 0.950 . S
H425 C455 0.950 . S
C426 H408 0.951 . S
C426 C427 1.366 . S
C426 C428 1.388 . S
C427 C426 1.366 . S
C427 C431 1.385 . S
C428 H409 0.951 . S
C428 C426 1.388 . S
C428 C429 1.366 . S
C429 C428 1.366 . S
C429 C430 1.414 . S
C429 C432 1.499 . S
C430 H410 0.950 . S
C430 C429 1.414 . S
C430 C431 1.374 . S
C431 H411 0.950 . S
C431 C427 1.385 . S
C431 C430 1.374 . S
C432 C429 1.499 . S
C432 C433 1.373 . S
C432 C434 1.389 . S
C433 H412 0.950 . S
C433 C432 1.373 . S
C433 C449 1.377 . S
C434 C432 1.389 . S
C434 C435 1.524 . S
C434 C448 1.377 . S
C435 C434 1.524 . S
C435 C436 1.397 . S
C435 C440 1.363 . S
C436 H413 0.950 . S
C436 C435 1.397 . S
C436 C437 1.334 . S
C437 H414 0.950 . S
C437 C436 1.334 . S
C437 C438 1.287 . S
C438 C437 1.287 . S
C438 C439 1.524 . S
C438 H457 0.913 . S
C439 H415 0.950 . S
C439 C438 1.524 . S
C439 C440 1.415 . S
C440 H416 0.950 . S
C440 C435 1.363 . S
C440 C439 1.415 . S
C441 H417 0.951 . S
C441 C442 1.366 . S
C441 C443 1.388 . S
C442 C441 1.366 . S
C442 C446 1.385 . S
C443 H418 0.951 . S
C443 C441 1.388 . S
C443 C444 1.366 . S
C444 C443 1.366 . S
C444 C445 1.414 . S
C444 C447 1.499 . S
C445 H419 0.950 . S
C445 C444 1.414 . S
C445 C446 1.374 . S
C446 H420 0.950 . S
C446 C442 1.385 . S
C446 C445 1.374 . S
C447 C444 1.499 . S
C447 C448 1.373 . S
C447 C449 1.389 . S
C448 H421 0.950 . S
C448 C434 1.377 . S
C448 C447 1.373 . S
C449 C433 1.377 . S
C449 C447 1.389 . S
C449 C450 1.524 . S
C450 C449 1.524 . S
C450 C451 1.397 . S
C450 C455 1.363 . S
C451 H422 0.950 . S
C451 C450 1.397 . S
C451 C452 1.334 . S
C452 H423 0.950 . S
C452 C451 1.334 . S
C452 C453 1.287 . S
C453 C452 1.287 . S
C453 C454 1.524 . S
C453 H456 0.999 . S
C454 H424 0.950 . S
C454 C453 1.524 . S
C454 C455 1.415 . S
C455 H425 0.950 . S
C455 C450 1.363 . S
C455 C454 1.415 . S
H456 C453 0.999 . S
H457 C438 0.913 . S
H458 C476 0.951 . S
H459 C478 0.951 . S
H460 C480 0.950 . S
H461 C481 0.950 . S
H462 C483 0.950 . S
H463 C486 0.950 . S
H464 C487 0.950 . S
H465 C489 0.950 . S
H466 C490 0.950 . S
H467 C491 0.951 . S
H468 C493 0.951 . S
H469 C495 0.950 . S
H470 C496 0.950 . S
H471 C498 0.950 . S
H472 C501 0.950 . S
H473 C502 0.950 . S
H474 C504 0.950 . S
H475 C505 0.950 . S
C476 H458 0.951 . S
C476 C477 1.366 . S
C476 C478 1.388 . S
C477 C476 1.366 . S
C477 C481 1.385 . S
C478 H459 0.951 . S
C478 C476 1.388 . S
C478 C479 1.366 . S
C479 C478 1.366 . S
C479 C480 1.414 . S
C479 C482 1.499 . S
C480 H460 0.950 . S
C480 C479 1.414 . S
C480 C481 1.374 . S
C481 H461 0.950 . S
C481 C477 1.385 . S
C481 C480 1.374 . S
C482 C479 1.499 . S
C482 C483 1.373 . S
C482 C484 1.389 . S
C483 H462 0.950 . S
C483 C482 1.373 . S
C483 C499 1.377 . S
C484 C482 1.389 . S
C484 C485 1.524 . S
C484 C498 1.377 . S
C485 C484 1.524 . S
C485 C486 1.397 . S
C485 C490 1.363 . S
C486 H463 0.950 . S
C486 C485 1.397 . S
C486 C487 1.334 . S
C487 H464 0.950 . S
C487 C486 1.334 . S
C487 C488 1.287 . S
C488 C487 1.287 . S
C488 C489 1.524 . S
C488 H507 0.913 . S
C489 H465 0.950 . S
C489 C488 1.524 . S
C489 C490 1.415 . S
C490 H466 0.950 . S
C490 C485 1.363 . S
C490 C489 1.415 . S
C491 H467 0.951 . S
C491 C492 1.366 . S
C491 C493 1.388 . S
C492 C491 1.366 . S
C492 C496 1.385 . S
C493 H468 0.951 . S
C493 C491 1.388 . S
C493 C494 1.366 . S
C494 C493 1.366 . S
C494 C495 1.414 . S
C494 C497 1.499 . S
C495 H469 0.950 . S
C495 C494 1.414 . S
C495 C496 1.374 . S
C496 H470 0.950 . S
C496 C492 1.385 . S
C496 C495 1.374 . S
C497 C494 1.499 . S
C497 C498 1.373 . S
C497 C499 1.389 . S
C498 H471 0.950 . S
C498 C484 1.377 . S
C498 C497 1.373 . S
C499 C483 1.377 . S
C499 C497 1.389 . S
C499 C500 1.524 . S
C500 C499 1.524 . S
C500 C501 1.397 . S
C500 C505 1.363 . S
C501 H472 0.950 . S
C501 C500 1.397 . S
C501 C502 1.334 . S
C502 H473 0.950 . S
C502 C501 1.334 . S
C502 C503 1.287 . S
C503 C502 1.287 . S
C503 C504 1.524 . S
C503 H506 0.999 . S
C504 H474 0.950 . S
C504 C503 1.524 . S
C504 C505 1.415 . S
C505 H475 0.950 . S
C505 C500 1.363 . S
C505 C504 1.415 . S
H506 C503 0.999 . S
H507 C488 0.913 . S
H508 C526 0.951 . S
H509 C528 0.951 . S
H510 C530 0.950 . S
H511 C531 0.950 . S
H512 C533 0.950 . S
H513 C536 0.950 . S
H514 C537 0.950 . S
H515 C539 0.950 . S
H516 C540 0.950 . S
H517 C541 0.951 . S
H518 C543 0.951 . S
H519 C545 0.950 . S
H520 C546 0.950 . S
H521 C548 0.950 . S
H522 C551 0.950 . S
H523 C552 0.950 . S
H524 C554 0.950 . S
H525 C555 0.950 . S
C526 H508 0.951 . S
C526 C527 1.366 . S
C526 C528 1.388 . S
C527 C526 1.366 . S
C527 C531 1.385 . S
C528 H509 0.951 . S
C528 C526 1.388 . S
C528 C529 1.366 . S
C529 C528 1.366 . S
C529 C530 1.414 . S
C529 C532 1.499 . S
C530 H510 0.950 . S
C530 C529 1.414 . S
C530 C531 1.374 . S
C531 H511 0.950 . S
C531 C527 1.385 . S
C531 C530 1.374 . S
C532 C529 1.499 . S
C532 C533 1.373 . S
C532 C534 1.389 . S
C533 H512 0.950 . S
C533 C532 1.373 . S
C533 C549 1.377 . S
C534 C532 1.389 . S
C534 C535 1.524 . S
C534 C548 1.377 . S
C535 C534 1.524 . S
C535 C536 1.397 . S
C535 C540 1.363 . S
C536 H513 0.950 . S
C536 C535 1.397 . S
C536 C537 1.334 . S
C537 H514 0.950 . S
C537 C536 1.334 . S
C537 C538 1.287 . S
C538 C537 1.287 . S
C538 C539 1.524 . S
C538 H557 0.913 . S
C539 H515 0.950 . S
C539 C538 1.524 . S
C539 C540 1.415 . S
C540 H516 0.950 . S
C540 C535 1.363 . S
C540 C539 1.415 . S
C541 H517 0.951 . S
C541 C542 1.366 . S
C541 C543 1.388 . S
C542 C541 1.366 . S
C542 C546 1.385 . S
C543 H518 0.951 . S
C543 C541 1.388 . S
C543 C544 1.366 . S
C544 C543 1.366 . S
C544 C545 1.414 . S
C544 C547 1.499 . S
C545 H519 0.950 . S
C545 C544 1.414 . S
C545 C546 1.374 . S
C546 H520 0.950 . S
C546 C542 1.385 . S
C546 C545 1.374 . S
C547 C544 1.499 . S
C547 C548 1.373 . S
C547 C549 1.389 . S
C548 H521 0.950 . S
C548 C534 1.377 . S
C548 C547 1.373 . S
C549 C533 1.377 . S
C549 C547 1.389 . S
C549 C550 1.524 . S
C550 C549 1.524 . S
C550 C551 1.397 . S
C550 C555 1.363 . S
C551 H522 0.950 . S
C551 C550 1.397 . S
C551 C552 1.334 . S
C552 H523 0.950 . S
C552 C551 1.334 . S
C552 C553 1.287 . S
C553 C552 1.287 . S
C553 C554 1.524 . S
C553 H556 0.999 . S
C554 H524 0.950 . S
C554 C553 1.524 . S
C554 C555 1.415 . S
C555 H525 0.950 . S
C555 C550 1.363 . S
C555 C554 1.415 . S
H556 C553 0.999 . S
H557 C538 0.913 . S
H558 C576 0.951 . S
H559 C578 0.951 . S
H560 C580 0.950 . S
H561 C581 0.950 . S
H562 C583 0.950 . S
H563 C586 0.950 . S
H564 C587 0.950 . S
H565 C589 0.950 . S
H566 C590 0.950 . S
H567 C591 0.951 . S
H568 C593 0.951 . S
H569 C595 0.950 . S
H570 C596 0.950 . S
H571 C598 0.950 . S
H572 C601 0.950 . S
H573 C602 0.950 . S
H574 C604 0.950 . S
H575 C605 0.950 . S
C576 H558 0.951 . S
C576 C577 1.366 . S
C576 C578 1.388 . S
C577 C576 1.366 . S
C577 C581 1.385 . S
C578 H559 0.951 . S
C578 C576 1.388 . S
C578 C579 1.366 . S
C579 C578 1.366 . S
C579 C580 1.414 . S
C579 C582 1.499 . S
C580 H560 0.950 . S
C580 C579 1.414 . S
C580 C581 1.374 . S
C581 H561 0.950 . S
C581 C577 1.385 . S
C581 C580 1.374 . S
C582 C579 1.499 . S
C582 C583 1.373 . S
C582 C584 1.389 . S
C583 H562 0.950 . S
C583 C582 1.373 . S
C583 C599 1.377 . S
C584 C582 1.389 . S
C584 C585 1.524 . S
C584 C598 1.377 . S
C585 C584 1.524 . S
C585 C586 1.397 . S
C585 C590 1.363 . S
C586 H563 0.950 . S
C586 C585 1.397 . S
C586 C587 1.334 . S
C587 H564 0.950 . S
C587 C586 1.334 . S
C587 C588 1.287 . S
C588 C587 1.287 . S
C588 C589 1.524 . S
C588 H607 0.913 . S
C589 H565 0.950 . S
C589 C588 1.524 . S
C589 C590 1.415 . S
C590 H566 0.950 . S
C590 C585 1.363 . S
C590 C589 1.415 . S
C591 H567 0.951 . S
C591 C592 1.366 . S
C591 C593 1.388 . S
C592 C591 1.366 . S
C592 C596 1.385 . S
C593 H568 0.951 . S
C593 C591 1.388 . S
C593 C594 1.366 . S
C594 C593 1.366 . S
C594 C595 1.414 . S
C594 C597 1.499 . S
C595 H569 0.950 . S
C595 C594 1.414 . S
C595 C596 1.374 . S
C596 H570 0.950 . S
C596 C592 1.385 . S
C596 C595 1.374 . S
C597 C594 1.499 . S
C597 C598 1.373 . S
C597 C599 1.389 . S
C598 H571 0.950 . S
C598 C584 1.377 . S
C598 C597 1.373 . S
C599 C583 1.377 . S
C599 C597 1.389 . S
C599 C600 1.524 . S
C600 C599 1.524 . S
C600 C601 1.397 . S
C600 C605 1.363 . S
C601 H572 0.950 . S
C601 C600 1.397 . S
C601 C602 1.334 . S
C602 H573 0.950 . S
C602 C601 1.334 . S
C602 C603 1.287 . S
C603 C602 1.287 . S
C603 C604 1.524 . S
C603 H606 0.999 . S
C604 H574 0.950 . S
C604 C603 1.524 . S
C604 C605 1.415 . S
C605 H575 0.950 . S
C605 C600 1.363 . S
C605 C604 1.415 . S
H606 C603 0.999 . S
H607 C588 0.913 . S
H608 C626 0.951 . S
H609 C628 0.951 . S
H610 C630 0.950 . S
H611 C631 0.950 . S
H612 C633 0.950 . S
H613 C636 0.950 . S
H614 C637 0.950 . S
H615 C639 0.950 . S
H616 C640 0.950 . S
H617 C641 0.951 . S
H618 C643 0.951 . S
H619 C645 0.950 1_565 S
H620 C646 0.950 . S
H621 C648 0.950 . S
H622 C651 0.947 1_565 S
H623 C652 0.950 . S
H624 C654 0.950 . S
H625 C655 0.950 . S
C626 H608 0.951 . S
C626 C627 1.366 . S
C626 C628 1.388 . S
C627 C626 1.366 . S
C627 C631 1.385 . S
C628 H609 0.951 . S
C628 C626 1.388 . S
C628 C629 1.366 . S
C629 C628 1.366 . S
C629 C630 1.414 . S
C629 C632 1.499 . S
C630 H610 0.950 . S
C630 C629 1.414 . S
C630 C631 1.374 . S
C631 H611 0.950 . S
C631 C627 1.385 . S
C631 C630 1.374 . S
C632 C629 1.499 . S
C632 C633 1.373 . S
C632 C634 1.389 . S
C633 H612 0.950 . S
C633 C632 1.373 . S
C633 C649 1.377 . S
C634 C632 1.389 . S
C634 C635 1.524 . S
C634 C648 1.377 . S
C635 C634 1.524 . S
C635 C636 1.397 . S
C635 C640 1.363 . S
C636 H613 0.950 . S
C636 C635 1.397 . S
C636 C637 1.334 . S
C637 H614 0.950 . S
C637 C636 1.334 . S
C637 C638 1.287 . S
C638 C637 1.287 . S
C638 C639 1.524 . S
C638 H657 0.913 . S
C639 H615 0.950 . S
C639 C638 1.524 . S
C639 C640 1.415 . S
C640 H616 0.950 . S
C640 C635 1.363 . S
C640 C639 1.415 . S
C641 H617 0.951 . S
C641 C642 1.366 . S
C641 C643 1.388 . S
C642 C641 1.366 . S
C642 C646 1.385 . S
C643 H618 0.951 . S
C643 C641 1.388 . S
C643 C644 1.366 . S
C644 C643 1.366 . S
C644 C645 1.414 . S
C644 C647 1.499 1_545 S
C645 H619 0.950 1_545 S
C645 C644 1.414 . S
C645 C646 1.374 . S
C646 H620 0.950 . S
C646 C642 1.385 . S
C646 C645 1.374 . S
C647 C644 1.499 1_565 S
C647 C648 1.373 . S
C647 C649 1.389 . S
C648 H621 0.950 . S
C648 C634 1.377 . S
C648 C647 1.373 . S
C649 C633 1.377 . S
C649 C647 1.389 . S
C649 C650 1.524 1_565 S
C650 C649 1.524 1_545 S
C650 C651 1.397 . S
C650 C655 1.363 . S
C651 H622 0.947 1_545 S
C651 C650 1.397 . S
C651 C652 1.334 . S
C652 H623 0.950 . S
C652 C651 1.334 . S
C652 C653 1.287 . S
C653 C652 1.287 . S
C653 C654 1.524 . S
C653 H656 0.999 . S
C654 H624 0.950 . S
C654 C653 1.524 . S
C654 C655 1.415 . S
C655 H625 0.950 . S
C655 C650 1.363 . S
C655 C654 1.415 . S
H656 C653 0.999 . S
H657 C638 0.913 . S
H658 C676 0.951 . S
H659 C678 0.951 . S
H660 C680 0.950 . S
H661 C681 0.950 . S
H662 C683 0.950 . S
H663 C686 0.950 . S
H664 C687 0.950 . S
H665 C689 0.950 . S
H666 C690 0.950 . S
H667 C691 0.951 . S
H668 C693 0.951 . S
H669 C695 0.950 . S
H670 C696 0.950 . S
H671 C698 0.950 . S
H672 C701 0.950 . S
H673 C702 0.950 . S
H674 C704 0.950 . S
H675 C705 0.950 . S
C676 H658 0.951 . S
C676 C677 1.366 . S
C676 C678 1.388 . S
C677 C676 1.366 . S
C677 C681 1.385 . S
C678 H659 0.951 . S
C678 C676 1.388 . S
C678 C679 1.366 . S
C679 C678 1.366 . S
C679 C680 1.414 . S
C679 C682 1.499 . S
C680 H660 0.950 . S
C680 C679 1.414 . S
C680 C681 1.374 . S
C681 H661 0.950 . S
C681 C677 1.385 . S
C681 C680 1.374 . S
C682 C679 1.499 . S
C682 C683 1.373 . S
C682 C684 1.389 . S
C683 H662 0.950 . S
C683 C682 1.373 . S
C683 C699 1.377 . S
C684 C682 1.389 . S
C684 C685 1.524 . S
C684 C698 1.377 . S
C685 C684 1.524 . S
C685 C686 1.397 . S
C685 C690 1.363 . S
C686 H663 0.950 . S
C686 C685 1.397 . S
C686 C687 1.334 . S
C687 H664 0.950 . S
C687 C686 1.334 . S
C687 C688 1.287 . S
C688 C687 1.287 . S
C688 C689 1.524 . S
C688 H707 0.913 . S
C689 H665 0.950 . S
C689 C688 1.524 . S
C689 C690 1.415 . S
C690 H666 0.950 . S
C690 C685 1.363 . S
C690 C689 1.415 . S
C691 H667 0.951 . S
C691 C692 1.366 . S
C691 C693 1.388 . S
C692 C691 1.366 . S
C692 C696 1.385 . S
C693 H668 0.951 . S
C693 C691 1.388 . S
C693 C694 1.366 . S
C694 C693 1.366 . S
C694 C695 1.414 . S
C694 C697 1.499 . S
C695 H669 0.950 . S
C695 C694 1.414 . S
C695 C696 1.374 . S
C696 H670 0.950 . S
C696 C692 1.385 . S
C696 C695 1.374 . S
C697 C694 1.499 . S
C697 C698 1.373 . S
C697 C699 1.389 . S
C698 H671 0.950 . S
C698 C684 1.377 . S
C698 C697 1.373 . S
C699 C683 1.377 . S
C699 C697 1.389 . S
C699 C700 1.524 . S
C700 C699 1.524 . S
C700 C701 1.397 . S
C700 C705 1.363 . S
C701 H672 0.950 . S
C701 C700 1.397 . S
C701 C702 1.334 . S
C702 H673 0.950 . S
C702 C701 1.334 . S
C702 C703 1.287 . S
C703 C702 1.287 . S
C703 C704 1.524 . S
C703 H706 0.999 . S
C704 H674 0.950 . S
C704 C703 1.524 . S
C704 C705 1.415 . S
C705 H675 0.950 . S
C705 C700 1.363 . S
C705 C704 1.415 . S
H706 C703 0.999 . S
H707 C688 0.913 . S
H708 C726 0.951 . S
H709 C728 0.951 . S
H710 C730 0.950 . S
H711 C731 0.950 . S
H712 C733 0.950 . S
H713 C736 0.950 . S
H714 C737 0.950 . S
H715 C739 0.950 . S
H716 C740 0.950 . S
H717 C741 0.951 . S
H718 C743 0.951 . S
H719 C745 0.950 . S
H720 C746 0.950 . S
H721 C748 0.950 1_554 S
H722 C751 0.950 . S
H723 C752 0.950 . S
H724 C754 0.950 . S
H725 C755 0.950 . S
C726 H708 0.951 . S
C726 C727 1.366 . S
C726 C728 1.388 . S
C727 C726 1.366 . S
C727 C731 1.385 . S
C728 H709 0.951 . S
C728 C726 1.388 . S
C728 C729 1.366 . S
C729 C728 1.366 . S
C729 C730 1.414 . S
C729 C732 1.499 . S
C730 H710 0.950 . S
C730 C729 1.414 . S
C730 C731 1.374 . S
C731 H711 0.950 . S
C731 C727 1.385 . S
C731 C730 1.374 . S
C732 C729 1.499 . S
C732 C733 1.373 . S
C732 C734 1.389 . S
C733 H712 0.950 . S
C733 C732 1.373 . S
C733 C749 1.377 . S
C734 C732 1.389 . S
C734 C735 1.524 . S
C734 C748 1.377 . S
C735 C734 1.524 . S
C735 C736 1.397 . S
C735 C740 1.363 . S
C736 H713 0.950 . S
C736 C735 1.397 . S
C736 C737 1.334 . S
C737 H714 0.950 . S
C737 C736 1.334 . S
C737 C738 1.287 . S
C738 C737 1.287 . S
C738 C739 1.524 . S
C738 H757 0.913 . S
C739 H715 0.950 . S
C739 C738 1.524 . S
C739 C740 1.415 . S
C740 H716 0.950 . S
C740 C735 1.363 . S
C740 C739 1.415 . S
C741 H717 0.951 . S
C741 C742 1.366 . S
C741 C743 1.388 . S
C742 C741 1.366 . S
C742 C746 1.385 . S
C743 H718 0.951 . S
C743 C741 1.388 . S
C743 C744 1.366 . S
C744 C743 1.366 . S
C744 C745 1.414 . S
C744 C747 1.462 1_554 S
C745 H719 0.950 . S
C745 C744 1.414 . S
C745 C746 1.374 . S
C746 H720 0.950 . S
C746 C742 1.385 . S
C746 C745 1.374 . S
C747 C744 1.462 1_556 S
C747 C748 1.382 . S
C747 C749 1.418 . S
C748 H721 0.950 1_556 S
C748 C734 1.377 . S
C748 C747 1.382 . S
C749 C733 1.377 . S
C749 C747 1.418 . S
C749 C750 1.524 . S
C750 C749 1.524 . S
C750 C751 1.397 . S
C750 C755 1.363 . S
C751 H722 0.950 . S
C751 C750 1.397 . S
C751 C752 1.334 . S
C752 H723 0.950 . S
C752 C751 1.334 . S
C752 C753 1.287 . S
C753 C752 1.287 . S
C753 C754 1.524 . S
C753 H756 0.999 . S
C754 H724 0.950 . S
C754 C753 1.524 . S
C754 C755 1.415 . S
C755 H725 0.950 . S
C755 C750 1.363 . S
C755 C754 1.415 . S
H756 C753 0.999 . S
H757 C738 0.913 . S
H758 C776 0.951 . S
H759 C778 0.951 . S
H760 C780 0.950 . S
H761 C781 0.950 . S
H762 C783 0.950 1_554 S
H763 C786 0.950 . S
H764 C787 0.950 . S
H765 C789 0.950 . S
H766 C790 0.950 . S
H767 C791 0.951 . S
H768 C793 0.951 . S
H769 C795 0.950 . S
H770 C796 0.950 . S
H771 C798 0.950 . S
H772 C801 0.950 . S
H773 C802 0.950 . S
H774 C804 0.950 . S
H775 C805 0.950 . S
C776 H758 0.951 . S
C776 C777 1.366 . S
C776 C778 1.388 . S
C777 C776 1.366 . S
C777 C781 1.385 . S
C778 H759 0.951 . S
C778 C776 1.388 . S
C778 C779 1.366 . S
C779 C778 1.366 . S
C779 C780 1.414 . S
C779 C782 1.465 1_554 S
C780 H760 0.950 . S
C780 C779 1.414 . S
C780 C781 1.374 . S
C781 H761 0.950 . S
C781 C777 1.385 . S
C781 C780 1.374 . S
C782 C779 1.465 1_556 S
C782 C783 1.376 . S
C782 C784 1.420 . S
C783 H762 0.950 1_556 S
C783 C782 1.376 . S
C783 C799 1.377 . S
C784 C782 1.420 . S
C784 C785 1.524 . S
C784 C798 1.377 . S
C785 C784 1.524 . S
C785 C786 1.397 . S
C785 C790 1.363 . S
C786 H763 0.950 . S
C786 C785 1.397 . S
C786 C787 1.334 . S
C787 H764 0.950 . S
C787 C786 1.334 . S
C787 C788 1.287 . S
C788 C787 1.287 . S
C788 C789 1.524 . S
C788 H807 0.913 . S
C789 H765 0.950 . S
C789 C788 1.524 . S
C789 C790 1.415 . S
C790 H766 0.950 . S
C790 C785 1.363 . S
C790 C789 1.415 . S
C791 H767 0.951 . S
C791 C792 1.366 . S
C791 C793 1.388 . S
C792 C791 1.366 . S
C792 C796 1.385 . S
C793 H768 0.951 . S
C793 C791 1.388 . S
C793 C794 1.366 . S
C794 C793 1.366 . S
C794 C795 1.414 . S
C794 C797 1.499 . S
C795 H769 0.950 . S
C795 C794 1.414 . S
C795 C796 1.374 . S
C796 H770 0.950 . S
C796 C792 1.385 . S
C796 C795 1.374 . S
C797 C794 1.499 . S
C797 C798 1.373 . S
C797 C799 1.389 . S
C798 H771 0.950 . S
C798 C784 1.377 . S
C798 C797 1.373 . S
C799 C783 1.377 . S
C799 C797 1.389 . S
C799 C800 1.524 . S
C800 C799 1.524 . S
C800 C801 1.397 . S
C800 C805 1.363 . S
C801 H772 0.950 . S
C801 C800 1.397 . S
C801 C802 1.334 . S
C802 H773 0.950 . S
C802 C801 1.334 . S
C802 C803 1.287 . S
C803 C802 1.287 . S
C803 C804 1.524 . S
C803 H806 0.999 . S
C804 H774 0.950 . S
C804 C803 1.524 . S
C804 C805 1.415 . S
C805 H775 0.950 . S
C805 C800 1.363 . S
C805 C804 1.415 . S
H806 C803 0.999 . S
H807 C788 0.913 . S
H808 C826 0.951 . S
H809 C828 0.951 . S
H810 C830 0.950 . S
H811 C831 0.950 . S
H812 C833 0.950 . S
H813 C836 0.950 . S
H814 C837 0.950 . S
H815 C839 0.950 . S
H816 C840 0.950 . S
H817 C841 0.951 . S
H818 C843 0.951 . S
H819 C845 0.950 . S
H820 C846 0.950 . S
H821 C848 0.950 . S
H822 C851 0.950 . S
H823 C852 0.950 . S
H824 C854 0.950 . S
H825 C855 0.950 . S
C826 H808 0.951 . S
C826 C827 1.366 . S
C826 C828 1.388 . S
C827 C826 1.366 . S
C827 C831 1.385 . S
C828 H809 0.951 . S
C828 C826 1.388 . S
C828 C829 1.366 . S
C829 C828 1.366 . S
C829 C830 1.414 . S
C829 C832 1.499 . S
C830 H810 0.950 . S
C830 C829 1.414 . S
C830 C831 1.374 . S
C831 H811 0.950 . S
C831 C827 1.385 . S
C831 C830 1.374 . S
C832 C829 1.499 . S
C832 C833 1.373 . S
C832 C834 1.389 . S
C833 H812 0.950 . S
C833 C832 1.373 . S
C833 C849 1.377 . S
C834 C832 1.389 . S
C834 C835 1.524 . S
C834 C848 1.377 . S
C835 C834 1.524 . S
C835 C836 1.397 . S
C835 C840 1.363 . S
C836 H813 0.950 . S
C836 C835 1.397 . S
C836 C837 1.334 . S
C837 H814 0.950 . S
C837 C836 1.334 . S
C837 C838 1.287 . S
C838 C837 1.287 . S
C838 C839 1.524 . S
C838 H857 0.913 . S
C839 H815 0.950 . S
C839 C838 1.524 . S
C839 C840 1.415 . S
C840 H816 0.950 . S
C840 C835 1.363 . S
C840 C839 1.415 . S
C841 H817 0.951 . S
C841 C842 1.366 . S
C841 C843 1.388 . S
C842 C841 1.366 . S
C842 C846 1.385 . S
C843 H818 0.951 . S
C843 C841 1.388 . S
C843 C844 1.366 . S
C844 C843 1.366 . S
C844 C845 1.414 . S
C844 C847 1.499 . S
C845 H819 0.950 . S
C845 C844 1.414 . S
C845 C846 1.374 . S
C846 H820 0.950 . S
C846 C842 1.385 . S
C846 C845 1.374 . S
C847 C844 1.499 . S
C847 C848 1.373 . S
C847 C849 1.389 . S
C848 H821 0.950 . S
C848 C834 1.377 . S
C848 C847 1.373 . S
C849 C833 1.377 . S
C849 C847 1.389 . S
C849 C850 1.524 . S
C850 C849 1.524 . S
C850 C851 1.397 . S
C850 C855 1.363 . S
C851 H822 0.950 . S
C851 C850 1.397 . S
C851 C852 1.334 . S
C852 H823 0.950 . S
C852 C851 1.334 . S
C852 C853 1.287 . S
C853 C852 1.287 . S
C853 C854 1.524 . S
C853 H856 0.999 . S
C854 H824 0.950 . S
C854 C853 1.524 . S
C854 C855 1.415 . S
C855 H825 0.950 . S
C855 C850 1.363 . S
C855 C854 1.415 . S
H856 C853 0.999 . S
H857 C838 0.913 . S
H858 C876 0.951 . S
H859 C878 0.951 . S
H860 C880 0.950 . S
H861 C881 0.950 . S
H862 C883 0.950 . S
H863 C886 0.950 . S
H864 C887 0.950 . S
H865 C889 0.950 . S
H866 C890 0.950 . S
H867 C891 0.951 . S
H868 C893 0.951 . S
H869 C895 0.950 . S
H870 C896 0.950 . S
H871 C898 0.950 . S
H872 C901 0.950 . S
H873 C902 0.950 . S
H874 C904 0.950 . S
H875 C905 0.950 . S
C876 H858 0.951 . S
C876 C877 1.366 . S
C876 C878 1.388 . S
C877 C876 1.366 . S
C877 C881 1.385 . S
C878 H859 0.951 . S
C878 C876 1.388 . S
C878 C879 1.366 . S
C879 C878 1.366 . S
C879 C880 1.414 . S
C879 C882 1.499 . S
C880 H860 0.950 . S
C880 C879 1.414 . S
C880 C881 1.374 . S
C881 H861 0.950 . S
C881 C877 1.385 . S
C881 C880 1.374 . S
C882 C879 1.499 . S
C882 C883 1.373 . S
C882 C884 1.389 . S
C883 H862 0.950 . S
C883 C882 1.373 . S
C883 C899 1.377 . S
C884 C882 1.389 . S
C884 C885 1.524 . S
C884 C898 1.377 . S
C885 C884 1.524 . S
C885 C886 1.397 . S
C885 C890 1.363 . S
C886 H863 0.950 . S
C886 C885 1.397 . S
C886 C887 1.334 . S
C887 H864 0.950 . S
C887 C886 1.334 . S
C887 C888 1.287 . S
C888 C887 1.287 . S
C888 C889 1.524 . S
C888 H907 0.913 . S
C889 H865 0.950 . S
C889 C888 1.524 . S
C889 C890 1.415 . S
C890 H866 0.950 . S
C890 C885 1.363 . S
C890 C889 1.415 . S
C891 H867 0.951 . S
C891 C892 1.366 . S
C891 C893 1.388 . S
C892 C891 1.366 . S
C892 C896 1.385 . S
C893 H868 0.951 . S
C893 C891 1.388 . S
C893 C894 1.366 . S
C894 C893 1.366 . S
C894 C895 1.414 . S
C894 C897 1.499 . S
C895 H869 0.950 . S
C895 C894 1.414 . S
C895 C896 1.374 . S
C896 H870 0.950 . S
C896 C892 1.385 . S
C896 C895 1.374 . S
C897 C894 1.499 . S
C897 C898 1.373 . S
C897 C899 1.389 . S
C898 H871 0.950 . S
C898 C884 1.377 . S
C898 C897 1.373 . S
C899 C883 1.377 . S
C899 C897 1.389 . S
C899 C900 1.524 . S
C900 C899 1.524 . S
C900 C901 1.397 . S
C900 C905 1.363 . S
C901 H872 0.950 . S
C901 C900 1.397 . S
C901 C902 1.334 . S
C902 H873 0.950 . S
C902 C901 1.334 . S
C902 C903 1.287 . S
C903 C902 1.287 . S
C903 C904 1.524 . S
C903 H906 0.999 . S
C904 H874 0.950 . S
C904 C903 1.524 . S
C904 C905 1.415 . S
C905 H875 0.950 . S
C905 C900 1.363 . S
C905 C904 1.415 . S
H906 C903 0.999 . S
H907 C888 0.913 . S
H908 C926 0.951 . S
H909 C928 0.951 . S
H910 C930 0.950 . S
H911 C931 0.950 . S
H912 C933 0.950 . S
H913 C936 0.950 . S
H914 C937 0.950 . S
H915 C939 0.950 . S
H916 C940 0.950 . S
H917 C941 0.951 . S
H918 C943 0.951 . S
H919 C945 0.950 . S
H920 C946 0.950 . S
H921 C948 0.950 . S
H922 C951 0.950 . S
H923 C952 0.950 . S
H924 C954 0.950 . S
H925 C955 0.950 . S
C926 H908 0.951 . S
C926 C927 1.366 . S
C926 C928 1.388 . S
C927 C926 1.366 . S
C927 C931 1.385 . S
C928 H909 0.951 . S
C928 C926 1.388 . S
C928 C929 1.366 . S
C929 C928 1.366 . S
C929 C930 1.414 . S
C929 C932 1.499 . S
C930 H910 0.950 . S
C930 C929 1.414 . S
C930 C931 1.374 . S
C931 H911 0.950 . S
C931 C927 1.385 . S
C931 C930 1.374 . S
C932 C929 1.499 . S
C932 C933 1.373 . S
C932 C934 1.389 1_655 S
C933 H912 0.950 . S
C933 C932 1.373 . S
C933 C949 1.377 . S
C934 C932 1.389 1_455 S
C934 C935 1.524 . S
C934 C948 1.377 . S
C935 C934 1.524 . S
C935 C936 1.397 1_455 S
C935 C940 1.363 . S
C936 H913 0.950 . S
C936 C935 1.397 1_655 S
C936 C937 1.334 . S
C937 H914 0.950 . S
C937 C936 1.334 . S
C937 C938 1.287 1_655 S
C938 C937 1.287 1_455 S
C938 C939 1.524 . S
C938 H957 0.913 . S
C939 H915 0.950 . S
C939 C938 1.524 . S
C939 C940 1.415 . S
C940 H916 0.950 . S
C940 C935 1.363 . S
C940 C939 1.415 . S
C941 H917 0.951 . S
C941 C942 1.366 . S
C941 C943 1.388 . S
C942 C941 1.366 . S
C942 C946 1.385 . S
C943 H918 0.951 . S
C943 C941 1.388 . S
C943 C944 1.366 . S
C944 C943 1.366 . S
C944 C945 1.414 . S
C944 C947 1.499 . S
C945 H919 0.950 . S
C945 C944 1.414 . S
C945 C946 1.374 . S
C946 H920 0.950 . S
C946 C942 1.385 . S
C946 C945 1.374 . S
C947 C944 1.499 . S
C947 C948 1.373 . S
C947 C949 1.389 1_455 S
C948 H921 0.950 . S
C948 C934 1.377 . S
C948 C947 1.373 . S
C949 C933 1.377 . S
C949 C947 1.389 1_655 S
C949 C950 1.524 . S
C950 C949 1.524 . S
C950 C951 1.397 1_655 S
C950 C955 1.363 . S
C951 H922 0.950 . S
C951 C950 1.397 1_455 S
C951 C952 1.334 . S
C952 H923 0.950 . S
C952 C951 1.334 . S
C952 C953 1.287 1_455 S
C953 C952 1.287 1_655 S
C953 C954 1.524 . S
C953 H956 0.999 . S
C954 H924 0.950 . S
C954 C953 1.524 . S
C954 C955 1.415 . S
C955 H925 0.950 . S
C955 C950 1.363 . S
C955 C954 1.415 . S
H956 C953 0.999 . S
H957 C938 0.913 . S
H958 C976 0.951 . S
H959 C978 0.951 . S
H960 C980 0.950 . S
H961 C981 0.950 . S
H962 C983 0.950 . S
H963 C986 0.950 . S
H964 C987 0.950 . S
H965 C989 0.950 . S
H966 C990 0.950 . S
H967 C991 0.951 . S
H968 C993 0.951 . S
H969 C995 0.950 . S
H970 C996 0.950 . S
H971 C998 0.950 . S
H972 C1001 0.950 . S
H973 C1002 0.950 . S
H974 C1004 0.950 . S
H975 C1005 0.950 . S
C976 H958 0.951 . S
C976 C977 1.366 . S
C976 C978 1.388 . S
C977 C976 1.366 . S
C977 C981 1.385 . S
C978 H959 0.951 . S
C978 C976 1.388 . S
C978 C979 1.366 . S
C979 C978 1.366 . S
C979 C980 1.414 . S
C979 C982 1.499 . S
C980 H960 0.950 . S
C980 C979 1.414 . S
C980 C981 1.374 . S
C981 H961 0.950 . S
C981 C977 1.385 . S
C981 C980 1.374 . S
C982 C979 1.499 . S
C982 C983 1.373 . S
C982 C984 1.389 . S
C983 H962 0.950 . S
C983 C982 1.373 . S
C983 C999 1.377 1_655 S
C984 C982 1.389 . S
C984 C985 1.524 . S
C984 C998 1.377 1_655 S
C985 C984 1.524 . S
C985 C986 1.397 . S
C985 C990 1.363 . S
C986 H963 0.950 . S
C986 C985 1.397 . S
C986 C987 1.334 . S
C987 H964 0.950 . S
C987 C986 1.334 . S
C987 C988 1.287 . S
C988 C987 1.287 . S
C988 C989 1.524 . S
C988 H1007 0.913 . S
C989 H965 0.950 . S
C989 C988 1.524 . S
C989 C990 1.415 . S
C990 H966 0.950 . S
C990 C985 1.363 . S
C990 C989 1.415 . S
C991 H967 0.951 . S
C991 C992 1.366 . S
C991 C993 1.388 . S
C992 C991 1.366 . S
C992 C996 1.385 . S
C993 H968 0.951 . S
C993 C991 1.388 . S
C993 C994 1.366 . S
C994 C993 1.366 . S
C994 C995 1.414 . S
C994 C997 1.499 . S
C995 H969 0.950 . S
C995 C994 1.414 . S
C995 C996 1.374 . S
C996 H970 0.950 . S
C996 C992 1.385 . S
C996 C995 1.374 . S
C997 C994 1.499 . S
C997 C998 1.373 . S
C997 C999 1.389 . S
C998 H971 0.950 . S
C998 C984 1.377 1_455 S
C998 C997 1.373 . S
C999 C983 1.377 1_455 S
C999 C997 1.389 . S
C999 C1000 1.524 . S
C1000 C999 1.524 . S
C1000 C1001 1.397 . S
C1000 C1005 1.363 . S
C1001 H972 0.950 . S
C1001 C1000 1.397 . S
C1001 C1002 1.334 . S
C1002 H973 0.950 . S
C1002 C1001 1.334 . S
C1002 C1003 1.287 . S
C1003 C1002 1.287 . S
C1003 C1004 1.524 . S
C1003 H1006 0.999 . S
C1004 H974 0.950 . S
C1004 C1003 1.524 . S
C1004 C1005 1.415 . S
C1005 H975 0.950 . S
C1005 C1000 1.363 . S
C1005 C1004 1.415 . S
H1006 C1003 0.999 . S
H1007 C988 0.913 . S
H1008 C1026 0.951 . S
H1009 C1028 0.951 . S
H1010 C1030 0.950 . S
H1011 C1031 0.950 . S
H1012 C1033 0.950 . S
H1013 C1036 0.950 . S
H1014 C1037 0.950 . S
H1015 C1039 0.950 . S
H1016 C1040 0.950 . S
H1017 C1041 0.951 . S
H1018 C1043 0.951 . S
H1019 C1045 0.950 . S
H1020 C1046 0.950 . S
H1021 C1048 0.950 . S
H1022 C1051 0.950 . S
H1023 C1052 0.950 . S
H1024 C1054 0.950 . S
H1025 C1055 0.950 . S
C1026 H1008 0.951 . S
C1026 C1027 1.366 . S
C1026 C1028 1.388 . S
C1027 C1026 1.366 . S
C1027 C1031 1.385 . S
C1028 H1009 0.951 . S
C1028 C1026 1.388 . S
C1028 C1029 1.366 . S
C1029 C1028 1.366 . S
C1029 C1030 1.414 . S
C1029 C1032 1.499 . S
C1030 H1010 0.950 . S
C1030 C1029 1.414 . S
C1030 C1031 1.374 . S
C1031 H1011 0.950 . S
C1031 C1027 1.385 . S
C1031 C1030 1.374 . S
C1032 C1029 1.499 . S
C1032 C1033 1.373 . S
C1032 C1034 1.389 . S
C1033 H1012 0.950 . S
C1033 C1032 1.373 . S
C1033 C1049 1.377 . S
C1034 C1032 1.389 . S
C1034 C1035 1.524 . S
C1034 C1048 1.377 . S
C1035 C1034 1.524 . S
C1035 C1036 1.397 . S
C1035 C1040 1.363 . S
C1036 H1013 0.950 . S
C1036 C1035 1.397 . S
C1036 C1037 1.334 . S
C1037 H1014 0.950 . S
C1037 C1036 1.334 . S
C1037 C1038 1.287 . S
C1038 C1037 1.287 . S
C1038 C1039 1.524 . S
C1038 H1057 0.913 . S
C1039 H1015 0.950 . S
C1039 C1038 1.524 . S
C1039 C1040 1.415 . S
C1040 H1016 0.950 . S
C1040 C1035 1.363 . S
C1040 C1039 1.415 . S
C1041 H1017 0.951 . S
C1041 C1042 1.366 . S
C1041 C1043 1.388 . S
C1042 C1041 1.366 . S
C1042 C1046 1.385 . S
C1043 H1018 0.951 . S
C1043 C1041 1.388 . S
C1043 C1044 1.366 . S
C1044 C1043 1.366 . S
C1044 C1045 1.414 . S
C1044 C1047 1.499 . S
C1045 H1019 0.950 . S
C1045 C1044 1.414 . S
C1045 C1046 1.374 . S
C1046 H1020 0.950 . S
C1046 C1042 1.385 . S
C1046 C1045 1.374 . S
C1047 C1044 1.499 . S
C1047 C1048 1.373 . S
C1047 C1049 1.389 . S
C1048 H1021 0.950 . S
C1048 C1034 1.377 . S
C1048 C1047 1.373 . S
C1049 C1033 1.377 . S
C1049 C1047 1.389 . S
C1049 C1050 1.524 . S
C1050 C1049 1.524 . S
C1050 C1051 1.397 . S
C1050 C1055 1.363 . S
C1051 H1022 0.950 . S
C1051 C1050 1.397 . S
C1051 C1052 1.334 . S
C1052 H1023 0.950 . S
C1052 C1051 1.334 . S
C1052 C1053 1.287 . S
C1053 C1052 1.287 . S
C1053 C1054 1.524 . S
C1053 H1056 0.999 . S
C1054 H1024 0.950 . S
C1054 C1053 1.524 . S
C1054 C1055 1.415 . S
C1055 H1025 0.950 . S
C1055 C1050 1.363 . S
C1055 C1054 1.415 . S
H1056 C1053 0.999 . S
H1057 C1038 0.913 . S
H1058 C1076 0.951 . S
H1059 C1078 0.951 . S
H1060 C1080 0.950 . S
H1061 C1081 0.950 . S
H1062 C1083 0.950 . S
H1063 C1086 0.950 . S
H1064 C1087 0.950 . S
H1065 C1089 0.950 . S
H1066 C1090 0.950 . S
H1067 C1091 0.951 . S
H1068 C1093 0.951 . S
H1069 C1095 0.950 . S
H1070 C1096 0.950 . S
H1071 C1098 0.950 . S
H1072 C1101 0.950 . S
H1073 C1102 0.950 . S
H1074 C1104 0.950 . S
H1075 C1105 0.950 . S
C1076 H1058 0.951 . S
C1076 C1077 1.366 . S
C1076 C1078 1.388 . S
C1077 C1076 1.366 . S
C1077 C1081 1.385 . S
C1078 H1059 0.951 . S
C1078 C1076 1.388 . S
C1078 C1079 1.366 . S
C1079 C1078 1.366 . S
C1079 C1080 1.414 . S
C1079 C1082 1.499 . S
C1080 H1060 0.950 . S
C1080 C1079 1.414 . S
C1080 C1081 1.374 . S
C1081 H1061 0.950 . S
C1081 C1077 1.385 . S
C1081 C1080 1.374 . S
C1082 C1079 1.499 . S
C1082 C1083 1.373 . S
C1082 C1084 1.389 1_545 S
C1083 H1062 0.950 . S
C1083 C1082 1.373 . S
C1083 C1099 1.377 1_545 S
C1084 C1082 1.389 1_565 S
C1084 C1085 1.524 . S
C1084 C1098 1.377 . S
C1085 C1084 1.524 . S
C1085 C1086 1.397 1_565 S
C1085 C1090 1.363 . S
C1086 H1063 0.950 . S
C1086 C1085 1.397 1_545 S
C1086 C1087 1.334 . S
C1087 H1064 0.950 . S
C1087 C1086 1.334 . S
C1087 C1088 1.287 1_545 S
C1088 C1087 1.287 1_565 S
C1088 C1089 1.524 . S
C1088 H1107 0.913 . S
C1089 H1065 0.950 . S
C1089 C1088 1.524 . S
C1089 C1090 1.415 . S
C1090 H1066 0.950 . S
C1090 C1085 1.363 . S
C1090 C1089 1.415 . S
C1091 H1067 0.951 . S
C1091 C1092 1.366 . S
C1091 C1093 1.388 . S
C1092 C1091 1.366 . S
C1092 C1096 1.385 . S
C1093 H1068 0.951 . S
C1093 C1091 1.388 . S
C1093 C1094 1.366 . S
C1094 C1093 1.366 . S
C1094 C1095 1.414 . S
C1094 C1097 1.499 . S
C1095 H1069 0.950 . S
C1095 C1094 1.414 . S
C1095 C1096 1.374 . S
C1096 H1070 0.950 . S
C1096 C1092 1.385 . S
C1096 C1095 1.374 . S
C1097 C1094 1.499 . S
C1097 C1098 1.373 . S
C1097 C1099 1.389 . S
C1098 H1071 0.950 . S
C1098 C1084 1.377 . S
C1098 C1097 1.373 . S
C1099 C1083 1.377 1_565 S
C1099 C1097 1.389 . S
C1099 C1100 1.524 . S
C1100 C1099 1.524 . S
C1100 C1101 1.397 . S
C1100 C1105 1.363 1_565 S
C1101 H1072 0.950 . S
C1101 C1100 1.397 . S
C1101 C1102 1.334 . S
C1102 H1073 0.950 . S
C1102 C1101 1.334 . S
C1102 C1103 1.287 . S
C1103 C1102 1.287 . S
C1103 C1104 1.524 1_565 S
C1103 H1106 0.999 . S
C1104 H1074 0.950 . S
C1104 C1103 1.524 1_545 S
C1104 C1105 1.415 . S
C1105 H1075 0.950 . S
C1105 C1100 1.363 1_545 S
C1105 C1104 1.415 . S
H1106 C1103 0.999 . S
H1107 C1088 0.913 . S
H1108 C1126 0.951 . S
H1109 C1128 0.951 . S
H1110 C1130 0.950 . S
H1111 C1131 0.950 . S
H1112 C1133 0.950 . S
H1113 C1136 0.950 . S
H1114 C1137 0.950 . S
H1115 C1139 0.950 . S
H1116 C1140 0.950 . S
H1117 C1141 0.951 . S
H1118 C1143 0.951 . S
H1119 C1145 0.950 . S
H1120 C1146 0.950 . S
H1121 C1148 0.950 . S
H1122 C1151 0.950 . S
H1123 C1152 0.950 . S
H1124 C1154 0.950 . S
H1125 C1155 0.950 . S
C1126 H1108 0.951 . S
C1126 C1127 1.366 . S
C1126 C1128 1.388 . S
C1127 C1126 1.366 . S
C1127 C1131 1.385 . S
C1128 H1109 0.951 . S
C1128 C1126 1.388 . S
C1128 C1129 1.366 . S
C1129 C1128 1.366 . S
C1129 C1130 1.414 . S
C1129 C1132 1.499 . S
C1130 H1110 0.950 . S
C1130 C1129 1.414 . S
C1130 C1131 1.374 . S
C1131 H1111 0.950 . S
C1131 C1127 1.385 . S
C1131 C1130 1.374 . S
C1132 C1129 1.499 . S
C1132 C1133 1.373 . S
C1132 C1134 1.389 . S
C1133 H1112 0.950 . S
C1133 C1132 1.373 . S
C1133 C1149 1.377 . S
C1134 C1132 1.389 . S
C1134 C1135 1.524 . S
C1134 C1148 1.377 . S
C1135 C1134 1.524 . S
C1135 C1136 1.397 . S
C1135 C1140 1.363 . S
C1136 H1113 0.950 . S
C1136 C1135 1.397 . S
C1136 C1137 1.334 . S
C1137 H1114 0.950 . S
C1137 C1136 1.334 . S
C1137 C1138 1.287 . S
C1138 C1137 1.287 . S
C1138 C1139 1.524 . S
C1138 H1157 0.913 . S
C1139 H1115 0.950 . S
C1139 C1138 1.524 . S
C1139 C1140 1.415 . S
C1140 H1116 0.950 . S
C1140 C1135 1.363 . S
C1140 C1139 1.415 . S
C1141 H1117 0.951 . S
C1141 C1142 1.366 . S
C1141 C1143 1.388 . S
C1142 C1141 1.366 . S
C1142 C1146 1.385 . S
C1143 H1118 0.951 . S
C1143 C1141 1.388 . S
C1143 C1144 1.366 . S
C1144 C1143 1.366 . S
C1144 C1145 1.414 . S
C1144 C1147 1.499 . S
C1145 H1119 0.950 . S
C1145 C1144 1.414 . S
C1145 C1146 1.374 . S
C1146 H1120 0.950 . S
C1146 C1142 1.385 . S
C1146 C1145 1.374 . S
C1147 C1144 1.499 . S
C1147 C1148 1.373 . S
C1147 C1149 1.389 . S
C1148 H1121 0.950 . S
C1148 C1134 1.377 . S
C1148 C1147 1.373 . S
C1149 C1133 1.377 . S
C1149 C1147 1.389 . S
C1149 C1150 1.524 . S
C1150 C1149 1.524 . S
C1150 C1151 1.397 . S
C1150 C1155 1.363 . S
C1151 H1122 0.950 . S
C1151 C1150 1.397 . S
C1151 C1152 1.334 . S
C1152 H1123 0.950 . S
C1152 C1151 1.334 . S
C1152 C1153 1.287 . S
C1153 C1152 1.287 . S
C1153 C1154 1.524 . S
C1153 H1156 0.999 . S
C1154 H1124 0.950 . S
C1154 C1153 1.524 . S
C1154 C1155 1.415 . S
C1155 H1125 0.950 . S
C1155 C1150 1.363 . S
C1155 C1154 1.415 . S
H1156 C1153 0.999 . S
H1157 C1138 0.913 . S
H1158 C1176 0.951 . S
H1159 C1178 0.951 . S
H1160 C1180 0.950 . S
H1161 C1181 0.950 . S
H1162 C1183 0.950 . S
H1163 C1186 0.950 . S
H1164 C1187 0.950 . S
H1165 C1189 0.950 . S
H1166 C1190 0.950 . S
H1167 C1191 0.951 . S
H1168 C1193 0.951 . S
H1169 C1195 0.950 . S
H1170 C1196 0.950 . S
H1171 C1198 0.950 . S
H1172 C1201 0.950 . S
H1173 C1202 0.950 . S
H1174 C1204 0.950 . S
H1175 C1205 0.950 . S
C1176 H1158 0.951 . S
C1176 C1177 1.366 . S
C1176 C1178 1.388 . S
C1177 C1176 1.366 . S
C1177 C1181 1.385 . S
C1178 H1159 0.951 . S
C1178 C1176 1.388 . S
C1178 C1179 1.366 . S
C1179 C1178 1.366 . S
C1179 C1180 1.414 . S
C1179 C1182 1.499 . S
C1180 H1160 0.950 . S
C1180 C1179 1.414 . S
C1180 C1181 1.374 . S
C1181 H1161 0.950 . S
C1181 C1177 1.385 . S
C1181 C1180 1.374 . S
C1182 C1179 1.499 . S
C1182 C1183 1.373 . S
C1182 C1184 1.389 . S
C1183 H1162 0.950 . S
C1183 C1182 1.373 . S
C1183 C1199 1.377 . S
C1184 C1182 1.389 . S
C1184 C1185 1.524 . S
C1184 C1198 1.377 1_554 S
C1185 C1184 1.524 . S
C1185 C1186 1.397 . S
C1185 C1190 1.363 1_554 S
C1186 H1163 0.950 . S
C1186 C1185 1.397 . S
C1186 C1187 1.334 . S
C1187 H1164 0.950 . S
C1187 C1186 1.334 . S
C1187 C1188 1.287 . S
C1188 C1187 1.287 . S
C1188 C1189 1.524 1_554 S
C1188 H1207 0.913 . S
C1189 H1165 0.950 . S
C1189 C1188 1.524 1_556 S
C1189 C1190 1.415 . S
C1190 H1166 0.950 . S
C1190 C1185 1.363 1_556 S
C1190 C1189 1.415 . S
C1191 H1167 0.951 . S
C1191 C1192 1.366 . S
C1191 C1193 1.388 . S
C1192 C1191 1.366 . S
C1192 C1196 1.385 . S
C1193 H1168 0.951 . S
C1193 C1191 1.388 . S
C1193 C1194 1.366 . S
C1194 C1193 1.366 . S
C1194 C1195 1.414 . S
C1194 C1197 1.499 . S
C1195 H1169 0.950 . S
C1195 C1194 1.414 . S
C1195 C1196 1.374 . S
C1196 H1170 0.950 . S
C1196 C1192 1.385 . S
C1196 C1195 1.374 . S
C1197 C1194 1.499 . S
C1197 C1198 1.373 . S
C1197 C1199 1.389 1_556 S
C1198 H1171 0.950 . S
C1198 C1184 1.377 1_556 S
C1198 C1197 1.373 . S
C1199 C1183 1.377 . S
C1199 C1197 1.389 1_554 S
C1199 C1200 1.524 . S
C1200 C1199 1.524 . S
C1200 C1201 1.397 . S
C1200 C1205 1.363 . S
C1201 H1172 0.950 . S
C1201 C1200 1.397 . S
C1201 C1202 1.334 . S
C1202 H1173 0.950 . S
C1202 C1201 1.334 . S
C1202 C1203 1.287 . S
C1203 C1202 1.287 . S
C1203 C1204 1.524 . S
C1203 H1206 0.999 . S
C1204 H1174 0.950 . S
C1204 C1203 1.524 . S
C1204 C1205 1.415 . S
C1205 H1175 0.950 . S
C1205 C1200 1.363 . S
C1205 C1204 1.415 . S
H1206 C1203 0.999 . S
H1207 C1188 0.913 . S
H1208 C1226 0.951 . S
H1209 C1228 0.951 . S
H1210 C1230 0.950 . S
H1211 C1231 0.950 . S
H1212 C1233 0.950 . S
H1213 C1236 0.950 1_556 S
H1214 C1237 0.950 1_556 S
H1215 C1239 0.950 . S
H1216 C1240 0.950 . S
H1217 C1241 0.951 . S
H1218 C1243 0.951 . S
H1219 C1245 0.950 . S
H1220 C1246 0.950 . S
H1221 C1248 0.950 . S
H1222 C1251 0.950 . S
H1223 C1252 0.950 . S
H1224 C1254 0.950 . S
H1225 C1255 0.950 . S
C1226 H1208 0.951 . S
C1226 C1227 1.366 . S
C1226 C1228 1.388 . S
C1227 C1226 1.366 . S
C1227 C1231 1.385 . S
C1228 H1209 0.951 . S
C1228 C1226 1.388 . S
C1228 C1229 1.366 . S
C1229 C1228 1.366 . S
C1229 C1230 1.414 . S
C1229 C1232 1.499 . S
C1230 H1210 0.950 . S
C1230 C1229 1.414 . S
C1230 C1231 1.374 . S
C1231 H1211 0.950 . S
C1231 C1227 1.385 . S
C1231 C1230 1.374 . S
C1232 C1229 1.499 . S
C1232 C1233 1.373 . S
C1232 C1234 1.389 1_556 S
C1233 H1212 0.950 . S
C1233 C1232 1.373 . S
C1233 C1249 1.377 1_556 S
C1234 C1232 1.389 1_554 S
C1234 C1235 1.524 . S
C1234 C1248 1.377 . S
C1235 C1234 1.524 . S
C1235 C1236 1.397 . S
C1235 C1240 1.363 . S
C1236 H1213 0.950 1_554 S
C1236 C1235 1.397 . S
C1236 C1237 1.334 . S
C1237 H1214 0.950 1_554 S
C1237 C1236 1.334 . S
C1237 C1238 1.287 . S
C1238 C1237 1.287 . S
C1238 C1239 1.524 . S
C1238 H1257 0.913 . S
C1239 H1215 0.950 . S
C1239 C1238 1.524 . S
C1239 C1240 1.415 . S
C1240 H1216 0.950 . S
C1240 C1235 1.363 . S
C1240 C1239 1.415 . S
C1241 H1217 0.951 . S
C1241 C1242 1.366 . S
C1241 C1243 1.388 . S
C1242 C1241 1.366 . S
C1242 C1246 1.385 . S
C1243 H1218 0.951 . S
C1243 C1241 1.388 . S
C1243 C1244 1.366 . S
C1244 C1243 1.366 . S
C1244 C1245 1.414 . S
C1244 C1247 1.499 . S
C1245 H1219 0.950 . S
C1245 C1244 1.414 . S
C1245 C1246 1.374 . S
C1246 H1220 0.950 . S
C1246 C1242 1.385 . S
C1246 C1245 1.374 . S
C1247 C1244 1.499 . S
C1247 C1248 1.373 . S
C1247 C1249 1.389 . S
C1248 H1221 0.950 . S
C1248 C1234 1.377 . S
C1248 C1247 1.373 . S
C1249 C1233 1.377 1_554 S
C1249 C1247 1.389 . S
C1249 C1250 1.524 . S
C1250 C1249 1.524 . S
C1250 C1251 1.397 . S
C1250 C1255 1.363 1_554 S
C1251 H1222 0.950 . S
C1251 C1250 1.397 . S
C1251 C1252 1.334 . S
C1252 H1223 0.950 . S
C1252 C1251 1.334 . S
C1252 C1253 1.287 . S
C1253 C1252 1.287 . S
C1253 C1254 1.524 1_554 S
C1253 H1256 0.999 . S
C1254 H1224 0.950 . S
C1254 C1253 1.524 1_556 S
C1254 C1255 1.415 . S
C1255 H1225 0.950 . S
C1255 C1250 1.363 1_556 S
C1255 C1254 1.415 . S
H1256 C1253 0.999 . S
H1257 C1238 0.913 . S
H1258 C1276 0.951 . S
H1259 C1278 0.951 . S
H1260 C1280 0.950 . S
H1261 C1281 0.950 . S
H1262 C1283 0.950 . S
H1263 C1286 0.950 . S
H1264 C1287 0.950 . S
H1265 C1289 0.950 . S
H1266 C1290 0.950 . S
H1267 C1291 0.951 . S
H1268 C1293 0.951 . S
H1269 C1295 0.950 . S
H1270 C1296 0.950 . S
H1271 C1298 0.950 . S
H1272 C1301 0.950 . S
H1273 C1302 0.950 . S
H1274 C1304 0.950 . S
H1275 C1305 0.950 . S
C1276 H1258 0.951 . S
C1276 C1277 1.366 . S
C1276 C1278 1.388 . S
C1277 C1276 1.366 . S
C1277 C1281 1.385 . S
C1278 H1259 0.951 . S
C1278 C1276 1.388 . S
C1278 C1279 1.366 . S
C1279 C1278 1.366 . S
C1279 C1280 1.414 . S
C1279 C1282 1.499 . S
C1280 H1260 0.950 . S
C1280 C1279 1.414 . S
C1280 C1281 1.374 . S
C1281 H1261 0.950 . S
C1281 C1277 1.385 . S
C1281 C1280 1.374 . S
C1282 C1279 1.499 . S
C1282 C1283 1.373 . S
C1282 C1284 1.389 . S
C1283 H1262 0.950 . S
C1283 C1282 1.373 . S
C1283 C1299 1.377 . S
C1284 C1282 1.389 . S
C1284 C1285 1.524 . S
C1284 C1298 1.377 . S
C1285 C1284 1.524 . S
C1285 C1286 1.397 . S
C1285 C1290 1.363 . S
C1286 H1263 0.950 . S
C1286 C1285 1.397 . S
C1286 C1287 1.334 . S
C1287 H1264 0.950 . S
C1287 C1286 1.334 . S
C1287 C1288 1.287 . S
C1288 C1287 1.287 . S
C1288 C1289 1.524 . S
C1288 H1307 0.913 . S
C1289 H1265 0.950 . S
C1289 C1288 1.524 . S
C1289 C1290 1.415 . S
C1290 H1266 0.950 . S
C1290 C1285 1.363 . S
C1290 C1289 1.415 . S
C1291 H1267 0.951 . S
C1291 C1292 1.366 . S
C1291 C1293 1.388 . S
C1292 C1291 1.366 . S
C1292 C1296 1.385 . S
C1293 H1268 0.951 . S
C1293 C1291 1.388 . S
C1293 C1294 1.366 . S
C1294 C1293 1.366 . S
C1294 C1295 1.414 . S
C1294 C1297 1.499 . S
C1295 H1269 0.950 . S
C1295 C1294 1.414 . S
C1295 C1296 1.374 . S
C1296 H1270 0.950 . S
C1296 C1292 1.385 . S
C1296 C1295 1.374 . S
C1297 C1294 1.499 . S
C1297 C1298 1.373 . S
C1297 C1299 1.389 . S
C1298 H1271 0.950 . S
C1298 C1284 1.377 . S
C1298 C1297 1.373 . S
C1299 C1283 1.377 . S
C1299 C1297 1.389 . S
C1299 C1300 1.524 . S
C1300 C1299 1.524 . S
C1300 C1301 1.397 . S
C1300 C1305 1.363 . S
C1301 H1272 0.950 . S
C1301 C1300 1.397 . S
C1301 C1302 1.334 . S
C1302 H1273 0.950 . S
C1302 C1301 1.334 . S
C1302 C1303 1.287 . S
C1303 C1302 1.287 . S
C1303 C1304 1.524 . S
C1303 H1306 0.999 . S
C1304 H1274 0.950 . S
C1304 C1303 1.524 . S
C1304 C1305 1.415 . S
C1305 H1275 0.950 . S
C1305 C1300 1.363 . S
C1305 C1304 1.415 . S
H1306 C1303 0.999 . S
H1307 C1288 0.913 . S
H1308 C1326 0.951 . S
H1309 C1328 0.951 . S
H1310 C1330 0.950 . S
H1311 C1331 0.950 . S
H1312 C1333 0.950 . S
H1313 C1336 0.950 . S
H1314 C1337 0.950 . S
H1315 C1339 0.950 . S
H1316 C1340 0.950 . S
H1317 C1341 0.951 . S
H1318 C1343 0.951 . S
H1319 C1345 0.950 . S
H1320 C1346 0.950 . S
H1321 C1348 0.950 . S
H1322 C1351 0.950 . S
H1323 C1352 0.950 . S
H1324 C1354 0.950 . S
H1325 C1355 0.950 . S
C1326 H1308 0.951 . S
C1326 C1327 1.366 . S
C1326 C1328 1.388 . S
C1327 C1326 1.366 . S
C1327 C1331 1.385 . S
C1328 H1309 0.951 . S
C1328 C1326 1.388 . S
C1328 C1329 1.366 . S
C1329 C1328 1.366 . S
C1329 C1330 1.414 . S
C1329 C1332 1.499 . S
C1330 H1310 0.950 . S
C1330 C1329 1.414 . S
C1330 C1331 1.374 . S
C1331 H1311 0.950 . S
C1331 C1327 1.385 . S
C1331 C1330 1.374 . S
C1332 C1329 1.499 . S
C1332 C1333 1.373 . S
C1332 C1334 1.389 . S
C1333 H1312 0.950 . S
C1333 C1332 1.373 . S
C1333 C1349 1.377 . S
C1334 C1332 1.389 . S
C1334 C1335 1.524 . S
C1334 C1348 1.377 . S
C1335 C1334 1.524 . S
C1335 C1336 1.397 . S
C1335 C1340 1.363 . S
C1336 H1313 0.950 . S
C1336 C1335 1.397 . S
C1336 C1337 1.334 . S
C1337 H1314 0.950 . S
C1337 C1336 1.334 . S
C1337 C1338 1.287 . S
C1338 C1337 1.287 . S
C1338 C1339 1.524 . S
C1338 H1357 0.913 . S
C1339 H1315 0.950 . S
C1339 C1338 1.524 . S
C1339 C1340 1.415 . S
C1340 H1316 0.950 . S
C1340 C1335 1.363 . S
C1340 C1339 1.415 . S
C1341 H1317 0.951 . S
C1341 C1342 1.366 . S
C1341 C1343 1.388 . S
C1342 C1341 1.366 . S
C1342 C1346 1.385 . S
C1343 H1318 0.951 . S
C1343 C1341 1.388 . S
C1343 C1344 1.366 . S
C1344 C1343 1.366 . S
C1344 C1345 1.414 . S
C1344 C1347 1.499 . S
C1345 H1319 0.950 . S
C1345 C1344 1.414 . S
C1345 C1346 1.374 . S
C1346 H1320 0.950 . S
C1346 C1342 1.385 . S
C1346 C1345 1.374 . S
C1347 C1344 1.499 . S
C1347 C1348 1.373 . S
C1347 C1349 1.389 . S
C1348 H1321 0.950 . S
C1348 C1334 1.377 . S
C1348 C1347 1.373 . S
C1349 C1333 1.377 . S
C1349 C1347 1.389 . S
C1349 C1350 1.524 . S
C1350 C1349 1.524 . S
C1350 C1351 1.397 . S
C1350 C1355 1.363 . S
C1351 H1322 0.950 . S
C1351 C1350 1.397 . S
C1351 C1352 1.334 . S
C1352 H1323 0.950 . S
C1352 C1351 1.334 . S
C1352 C1353 1.287 . S
C1353 C1352 1.287 . S
C1353 C1354 1.524 . S
C1353 H1356 0.999 . S
C1354 H1324 0.950 . S
C1354 C1353 1.524 . S
C1354 C1355 1.415 . S
C1355 H1325 0.950 . S
C1355 C1350 1.363 . S
C1355 C1354 1.415 . S
H1356 C1353 0.999 . S
H1357 C1338 0.913 . S
H1358 C1376 0.951 . S
H1359 C1378 0.951 . S
H1360 C1380 0.950 . S
H1361 C1381 0.950 . S
H1362 C1383 0.950 . S
H1363 C1386 0.950 . S
H1364 C1387 0.950 . S
H1365 C1389 0.950 . S
H1366 C1390 0.950 1_655 S
H1367 C1391 0.951 . S
H1368 C1393 0.951 . S
H1369 C1395 0.950 . S
H1370 C1396 0.950 . S
H1371 C1398 0.950 . S
H1372 C1401 0.950 . S
H1373 C1402 0.950 . S
H1374 C1404 0.950 . S
H1375 C1405 0.950 1_455 S
C1376 H1358 0.951 . S
C1376 C1377 1.366 . S
C1376 C1378 1.388 . S
C1377 C1376 1.366 . S
C1377 C1381 1.385 . S
C1378 H1359 0.951 . S
C1378 C1376 1.388 . S
C1378 C1379 1.366 . S
C1379 C1378 1.366 . S
C1379 C1380 1.414 . S
C1379 C1382 1.499 . S
C1380 H1360 0.950 . S
C1380 C1379 1.414 . S
C1380 C1381 1.374 . S
C1381 H1361 0.950 . S
C1381 C1377 1.385 . S
C1381 C1380 1.374 . S
C1382 C1379 1.499 . S
C1382 C1383 1.373 . S
C1382 C1384 1.389 . S
C1383 H1362 0.950 . S
C1383 C1382 1.373 . S
C1383 C1399 1.377 1_455 S
C1384 C1382 1.389 . S
C1384 C1385 1.524 . S
C1384 C1398 1.377 1_455 S
C1385 C1384 1.524 . S
C1385 C1386 1.397 . S
C1385 C1390 1.363 . S
C1386 H1363 0.950 . S
C1386 C1385 1.397 . S
C1386 C1387 1.334 . S
C1387 H1364 0.950 . S
C1387 C1386 1.334 . S
C1387 C1388 1.287 . S
C1388 C1387 1.287 . S
C1388 C1389 1.524 . S
C1388 H1407 0.913 . S
C1389 H1365 0.950 . S
C1389 C1388 1.524 . S
C1389 C1390 1.415 . S
C1390 H1366 0.950 1_455 S
C1390 C1385 1.363 . S
C1390 C1389 1.415 . S
C1391 H1367 0.951 . S
C1391 C1392 1.366 . S
C1391 C1393 1.388 . S
C1392 C1391 1.366 . S
C1392 C1396 1.385 . S
C1393 H1368 0.951 . S
C1393 C1391 1.388 . S
C1393 C1394 1.366 . S
C1394 C1393 1.366 . S
C1394 C1395 1.414 . S
C1394 C1397 1.499 . S
C1395 H1369 0.950 . S
C1395 C1394 1.414 . S
C1395 C1396 1.374 . S
C1396 H1370 0.950 . S
C1396 C1392 1.385 . S
C1396 C1395 1.374 . S
C1397 C1394 1.499 . S
C1397 C1398 1.373 . S
C1397 C1399 1.389 . S
C1398 H1371 0.950 . S
C1398 C1384 1.377 1_655 S
C1398 C1397 1.373 . S
C1399 C1383 1.377 1_655 S
C1399 C1397 1.389 . S
C1399 C1400 1.524 . S
C1400 C1399 1.524 . S
C1400 C1401 1.397 . S
C1400 C1405 1.363 . S
C1401 H1372 0.950 . S
C1401 C1400 1.397 . S
C1401 C1402 1.334 . S
C1402 H1373 0.950 . S
C1402 C1401 1.334 . S
C1402 C1403 1.287 . S
C1403 C1402 1.287 . S
C1403 C1404 1.524 . S
C1403 H1406 0.999 . S
C1404 H1374 0.950 . S
C1404 C1403 1.524 . S
C1404 C1405 1.415 . S
C1405 H1375 0.950 1_655 S
C1405 C1400 1.363 . S
C1405 C1404 1.415 . S
H1406 C1403 0.999 . S
H1407 C1388 0.913 . S
H1408 C1426 0.951 . S
H1409 C1428 0.951 . S
H1410 C1430 0.950 . S
H1411 C1431 0.950 . S
H1412 C1433 0.950 . S
H1413 C1436 0.950 . S
H1414 C1437 0.950 . S
H1415 C1439 0.950 . S
H1416 C1440 0.950 . S
H1417 C1441 0.951 . S
H1418 C1443 0.951 . S
H1419 C1445 0.950 . S
H1420 C1446 0.950 . S
H1421 C1448 0.950 . S
H1422 C1451 0.950 . S
H1423 C1452 0.950 . S
H1424 C1454 0.950 . S
H1425 C1455 0.950 . S
C1426 H1408 0.951 . S
C1426 C1427 1.366 . S
C1426 C1428 1.388 . S
C1427 C1426 1.366 . S
C1427 C1431 1.385 . S
C1428 H1409 0.951 . S
C1428 C1426 1.388 . S
C1428 C1429 1.366 . S
C1429 C1428 1.366 . S
C1429 C1430 1.414 . S
C1429 C1432 1.499 . S
C1430 H1410 0.950 . S
C1430 C1429 1.414 . S
C1430 C1431 1.374 . S
C1431 H1411 0.950 . S
C1431 C1427 1.385 . S
C1431 C1430 1.374 . S
C1432 C1429 1.499 . S
C1432 C1433 1.373 . S
C1432 C1434 1.389 . S
C1433 H1412 0.950 . S
C1433 C1432 1.373 . S
C1433 C1449 1.377 1_455 S
C1434 C1432 1.389 . S
C1434 C1435 1.524 . S
C1434 C1448 1.377 1_455 S
C1435 C1434 1.524 . S
C1435 C1436 1.397 . S
C1435 C1440 1.363 . S
C1436 H1413 0.950 . S
C1436 C1435 1.397 . S
C1436 C1437 1.334 . S
C1437 H1414 0.950 . S
C1437 C1436 1.334 . S
C1437 C1438 1.287 . S
C1438 C1437 1.287 . S
C1438 C1439 1.524 . S
C1438 H1457 0.913 . S
C1439 H1415 0.950 . S
C1439 C1438 1.524 . S
C1439 C1440 1.415 . S
C1440 H1416 0.950 . S
C1440 C1435 1.363 . S
C1440 C1439 1.415 . S
C1441 H1417 0.951 . S
C1441 C1442 1.366 . S
C1441 C1443 1.388 . S
C1442 C1441 1.366 . S
C1442 C1446 1.385 . S
C1443 H1418 0.951 . S
C1443 C1441 1.388 . S
C1443 C1444 1.366 . S
C1444 C1443 1.366 . S
C1444 C1445 1.414 . S
C1444 C1447 1.499 . S
C1445 H1419 0.950 . S
C1445 C1444 1.414 . S
C1445 C1446 1.374 . S
C1446 H1420 0.950 . S
C1446 C1442 1.385 . S
C1446 C1445 1.374 . S
C1447 C1444 1.499 . S
C1447 C1448 1.373 . S
C1447 C1449 1.389 . S
C1448 H1421 0.950 . S
C1448 C1434 1.377 1_655 S
C1448 C1447 1.373 . S
C1449 C1433 1.377 1_655 S
C1449 C1447 1.389 . S
C1449 C1450 1.524 . S
C1450 C1449 1.524 . S
C1450 C1451 1.397 . S
C1450 C1455 1.363 . S
C1451 H1422 0.950 . S
C1451 C1450 1.397 . S
C1451 C1452 1.334 . S
C1452 H1423 0.950 . S
C1452 C1451 1.334 . S
C1452 C1453 1.287 . S
C1453 C1452 1.287 . S
C1453 C1454 1.524 . S
C1453 H1456 0.999 . S
C1454 H1424 0.950 . S
C1454 C1453 1.524 . S
C1454 C1455 1.415 . S
C1455 H1425 0.950 . S
C1455 C1450 1.363 . S
C1455 C1454 1.415 . S
H1456 C1453 0.999 . S
H1457 C1438 0.913 . S
H1458 C1476 0.951 . S
H1459 C1478 0.951 . S
H1460 C1480 0.950 . S
H1461 C1481 0.950 . S
H1462 C1483 0.950 . S
H1463 C1486 0.950 . S
H1464 C1487 0.950 . S
H1465 C1489 0.950 . S
H1466 C1490 0.950 . S
H1467 C1491 0.951 . S
H1468 C1493 0.951 . S
H1469 C1495 0.950 . S
H1470 C1496 0.950 . S
H1471 C1498 0.950 . S
H1472 C1501 0.950 . S
H1473 C1502 0.950 . S
H1474 C1504 0.950 . S
H1475 C1505 0.950 . S
C1476 H1458 0.951 . S
C1476 C1477 1.366 . S
C1476 C1478 1.388 . S
C1477 C1476 1.366 . S
C1477 C1481 1.385 . S
C1478 H1459 0.951 . S
C1478 C1476 1.388 . S
C1478 C1479 1.366 . S
C1479 C1478 1.366 . S
C1479 C1480 1.414 . S
C1479 C1482 1.499 . S
C1480 H1460 0.950 . S
C1480 C1479 1.414 . S
C1480 C1481 1.374 . S
C1481 H1461 0.950 . S
C1481 C1477 1.385 . S
C1481 C1480 1.374 . S
C1482 C1479 1.499 . S
C1482 C1483 1.373 . S
C1482 C1484 1.389 . S
C1483 H1462 0.950 . S
C1483 C1482 1.373 . S
C1483 C1499 1.377 . S
C1484 C1482 1.389 . S
C1484 C1485 1.524 . S
C1484 C1498 1.377 . S
C1485 C1484 1.524 . S
C1485 C1486 1.397 . S
C1485 C1490 1.363 . S
C1486 H1463 0.950 . S
C1486 C1485 1.397 . S
C1486 C1487 1.334 . S
C1487 H1464 0.950 . S
C1487 C1486 1.334 . S
C1487 C1488 1.287 . S
C1488 C1487 1.287 . S
C1488 C1489 1.524 . S
C1488 H1507 0.913 . S
C1489 H1465 0.950 . S
C1489 C1488 1.524 . S
C1489 C1490 1.415 . S
C1490 H1466 0.950 . S
C1490 C1485 1.363 . S
C1490 C1489 1.415 . S
C1491 H1467 0.951 . S
C1491 C1492 1.366 . S
C1491 C1493 1.388 . S
C1492 C1491 1.366 . S
C1492 C1496 1.385 . S
C1493 H1468 0.951 . S
C1493 C1491 1.388 . S
C1493 C1494 1.366 . S
C1494 C1493 1.366 . S
C1494 C1495 1.414 . S
C1494 C1497 1.499 . S
C1495 H1469 0.950 . S
C1495 C1494 1.414 . S
C1495 C1496 1.374 . S
C1496 H1470 0.950 . S
C1496 C1492 1.385 . S
C1496 C1495 1.374 . S
C1497 C1494 1.499 . S
C1497 C1498 1.373 . S
C1497 C1499 1.389 . S
C1498 H1471 0.950 . S
C1498 C1484 1.377 . S
C1498 C1497 1.373 . S
C1499 C1483 1.377 . S
C1499 C1497 1.389 . S
C1499 C1500 1.524 . S
C1500 C1499 1.524 . S
C1500 C1501 1.397 . S
C1500 C1505 1.363 . S
C1501 H1472 0.950 . S
C1501 C1500 1.397 . S
C1501 C1502 1.334 . S
C1502 H1473 0.950 . S
C1502 C1501 1.334 . S
C1502 C1503 1.287 . S
C1503 C1502 1.287 . S
C1503 C1504 1.524 . S
C1503 H1506 0.999 . S
C1504 H1474 0.950 . S
C1504 C1503 1.524 . S
C1504 C1505 1.415 . S
C1505 H1475 0.950 . S
C1505 C1500 1.363 . S
C1505 C1504 1.415 . S
H1506 C1503 0.999 . S
H1507 C1488 0.913 . S
H1508 C1526 0.951 . S
H1509 C1528 0.951 . S
H1510 C1530 0.950 . S
H1511 C1531 0.950 . S
H1512 C1533 0.950 . S
H1513 C1536 0.950 . S
H1514 C1537 0.950 . S
H1515 C1539 0.950 . S
H1516 C1540 0.950 . S
H1517 C1541 0.951 . S
H1518 C1543 0.951 . S
H1519 C1545 0.950 . S
H1520 C1546 0.950 . S
H1521 C1548 0.950 . S
H1522 C1551 0.950 . S
H1523 C1552 0.950 . S
H1524 C1554 0.950 . S
H1525 C1555 0.950 . S
C1526 H1508 0.951 . S
C1526 C1527 1.366 . S
C1526 C1528 1.388 . S
C1527 C1526 1.366 . S
C1527 C1531 1.385 . S
C1528 H1509 0.951 . S
C1528 C1526 1.388 . S
C1528 C1529 1.366 . S
C1529 C1528 1.366 . S
C1529 C1530 1.414 . S
C1529 C1532 1.499 . S
C1530 H1510 0.950 . S
C1530 C1529 1.414 . S
C1530 C1531 1.374 . S
C1531 H1511 0.950 . S
C1531 C1527 1.385 . S
C1531 C1530 1.374 . S
C1532 C1529 1.499 . S
C1532 C1533 1.373 . S
C1532 C1534 1.389 . S
C1533 H1512 0.950 . S
C1533 C1532 1.373 . S
C1533 C1549 1.377 . S
C1534 C1532 1.389 . S
C1534 C1535 1.524 . S
C1534 C1548 1.377 . S
C1535 C1534 1.524 . S
C1535 C1536 1.397 . S
C1535 C1540 1.363 . S
C1536 H1513 0.950 . S
C1536 C1535 1.397 . S
C1536 C1537 1.334 . S
C1537 H1514 0.950 . S
C1537 C1536 1.334 . S
C1537 C1538 1.287 . S
C1538 C1537 1.287 . S
C1538 C1539 1.524 . S
C1538 H1557 0.913 . S
C1539 H1515 0.950 . S
C1539 C1538 1.524 . S
C1539 C1540 1.415 . S
C1540 H1516 0.950 . S
C1540 C1535 1.363 . S
C1540 C1539 1.415 . S
C1541 H1517 0.951 . S
C1541 C1542 1.366 . S
C1541 C1543 1.388 . S
C1542 C1541 1.366 . S
C1542 C1546 1.385 . S
C1543 H1518 0.951 . S
C1543 C1541 1.388 . S
C1543 C1544 1.366 . S
C1544 C1543 1.366 . S
C1544 C1545 1.414 . S
C1544 C1547 1.499 . S
C1545 H1519 0.950 . S
C1545 C1544 1.414 . S
C1545 C1546 1.374 . S
C1546 H1520 0.950 . S
C1546 C1542 1.385 . S
C1546 C1545 1.374 . S
C1547 C1544 1.499 . S
C1547 C1548 1.373 . S
C1547 C1549 1.389 . S
C1548 H1521 0.950 . S
C1548 C1534 1.377 . S
C1548 C1547 1.373 . S
C1549 C1533 1.377 . S
C1549 C1547 1.389 . S
C1549 C1550 1.524 . S
C1550 C1549 1.524 . S
C1550 C1551 1.397 . S
C1550 C1555 1.363 . S
C1551 H1522 0.950 . S
C1551 C1550 1.397 . S
C1551 C1552 1.334 . S
C1552 H1523 0.950 . S
C1552 C1551 1.334 . S
C1552 C1553 1.287 . S
C1553 C1552 1.287 . S
C1553 C1554 1.524 . S
C1553 H1556 0.999 . S
C1554 H1524 0.950 . S
C1554 C1553 1.524 . S
C1554 C1555 1.415 . S
C1555 H1525 0.950 . S
C1555 C1550 1.363 . S
C1555 C1554 1.415 . S
H1556 C1553 0.999 . S
H1557 C1538 0.913 . S
H1558 C1576 0.951 . S
H1559 C1578 0.951 . S
H1560 C1580 0.950 . S
H1561 C1581 0.950 . S
H1562 C1583 0.950 . S
H1563 C1586 0.950 . S
H1564 C1587 0.950 . S
H1565 C1589 0.950 . S
H1566 C1590 0.950 . S
H1567 C1591 0.951 . S
H1568 C1593 0.951 . S
H1569 C1595 0.959 . S
H1570 C1596 0.950 . S
H1571 C1598 0.950 . S
H1572 C1601 0.950 . S
H1573 C1602 0.950 . S
H1574 C1604 0.950 . S
H1575 C1605 0.950 . S
C1576 H1558 0.951 . S
C1576 C1577 1.366 . S
C1576 C1578 1.388 . S
C1577 C1576 1.366 . S
C1577 C1581 1.385 . S
C1578 H1559 0.951 . S
C1578 C1576 1.388 . S
C1578 C1579 1.366 . S
C1579 C1578 1.366 . S
C1579 C1580 1.414 . S
C1579 C1582 1.499 . S
C1580 H1560 0.950 . S
C1580 C1579 1.414 . S
C1580 C1581 1.374 . S
C1581 H1561 0.950 . S
C1581 C1577 1.385 . S
C1581 C1580 1.374 . S
C1582 C1579 1.499 . S
C1582 C1583 1.373 . S
C1582 C1584 1.389 . S
C1583 H1562 0.950 . S
C1583 C1582 1.373 . S
C1583 C1599 1.377 1_545 S
C1584 C1582 1.389 . S
C1584 C1585 1.524 . S
C1584 C1598 1.377 . S
C1585 C1584 1.524 . S
C1585 C1586 1.397 . S
C1585 C1590 1.363 . S
C1586 H1563 0.950 . S
C1586 C1585 1.397 . S
C1586 C1587 1.334 . S
C1587 H1564 0.950 . S
C1587 C1586 1.334 . S
C1587 C1588 1.287 . S
C1588 C1587 1.287 . S
C1588 C1589 1.524 . S
C1588 H1607 0.913 . S
C1589 H1565 0.950 . S
C1589 C1588 1.524 . S
C1589 C1590 1.415 . S
C1590 H1566 0.950 . S
C1590 C1585 1.363 . S
C1590 C1589 1.415 . S
C1591 H1567 0.951 . S
C1591 C1592 1.366 . S
C1591 C1593 1.388 . S
C1592 C1591 1.366 . S
C1592 C1596 1.385 . S
C1593 H1568 0.951 . S
C1593 C1591 1.388 . S
C1593 C1594 1.366 . S
C1594 C1593 1.366 . S
C1594 C1595 1.414 . S
C1594 C1597 1.499 1_565 S
C1595 H1569 0.959 . S
C1595 C1594 1.414 . S
C1595 C1596 1.374 . S
C1596 H1570 0.950 . S
C1596 C1592 1.385 . S
C1596 C1595 1.374 . S
C1597 C1594 1.499 1_545 S
C1597 C1598 1.373 . S
C1597 C1599 1.389 1_545 S
C1598 H1571 0.950 . S
C1598 C1584 1.377 . S
C1598 C1597 1.373 . S
C1599 C1583 1.377 1_565 S
C1599 C1597 1.389 1_565 S
C1599 C1600 1.524 . S
C1600 C1599 1.524 . S
C1600 C1601 1.397 . S
C1600 C1605 1.363 . S
C1601 H1572 0.950 . S
C1601 C1600 1.397 . S
C1601 C1602 1.334 . S
C1602 H1573 0.950 . S
C1602 C1601 1.334 . S
C1602 C1603 1.287 . S
C1603 C1602 1.287 . S
C1603 C1604 1.524 . S
C1603 H1606 0.999 . S
C1604 H1574 0.950 . S
C1604 C1603 1.524 . S
C1604 C1605 1.415 . S
C1605 H1575 0.950 . S
C1605 C1600 1.363 . S
C1605 C1604 1.415 . S
H1606 C1603 0.999 . S
H1607 C1588 0.913 . S
H1608 C1626 0.951 . S
H1609 C1628 0.951 . S
H1610 C1630 0.950 . S
H1611 C1631 0.950 . S
H1612 C1633 0.950 . S
H1613 C1636 0.950 . S
H1614 C1637 0.950 . S
H1615 C1639 0.950 . S
H1616 C1640 0.950 . S
H1617 C1641 0.951 . S
H1618 C1643 0.951 . S
H1619 C1645 0.950 . S
H1620 C1646 0.950 . S
H1621 C1648 0.950 . S
H1622 C1651 0.950 . S
H1623 C1652 0.950 . S
H1624 C1654 0.950 . S
H1625 C1655 0.950 . S
C1626 H1608 0.951 . S
C1626 C1627 1.366 . S
C1626 C1628 1.388 . S
C1627 C1626 1.366 . S
C1627 C1631 1.385 . S
C1628 H1609 0.951 . S
C1628 C1626 1.388 . S
C1628 C1629 1.366 . S
C1629 C1628 1.366 . S
C1629 C1630 1.414 . S
C1629 C1632 1.499 . S
C1630 H1610 0.950 . S
C1630 C1629 1.414 . S
C1630 C1631 1.374 . S
C1631 H1611 0.950 . S
C1631 C1627 1.385 . S
C1631 C1630 1.374 . S
C1632 C1629 1.499 . S
C1632 C1633 1.373 . S
C1632 C1634 1.389 . S
C1633 H1612 0.950 . S
C1633 C1632 1.373 . S
C1633 C1649 1.377 . S
C1634 C1632 1.389 . S
C1634 C1635 1.524 . S
C1634 C1648 1.377 . S
C1635 C1634 1.524 . S
C1635 C1636 1.397 . S
C1635 C1640 1.363 . S
C1636 H1613 0.950 . S
C1636 C1635 1.397 . S
C1636 C1637 1.334 . S
C1637 H1614 0.950 . S
C1637 C1636 1.334 . S
C1637 C1638 1.287 . S
C1638 C1637 1.287 . S
C1638 C1639 1.524 . S
C1638 H1657 0.913 . S
C1639 H1615 0.950 . S
C1639 C1638 1.524 . S
C1639 C1640 1.415 . S
C1640 H1616 0.950 . S
C1640 C1635 1.363 . S
C1640 C1639 1.415 . S
C1641 H1617 0.951 . S
C1641 C1642 1.366 . S
C1641 C1643 1.388 . S
C1642 C1641 1.366 . S
C1642 C1646 1.385 . S
C1643 H1618 0.951 . S
C1643 C1641 1.388 . S
C1643 C1644 1.366 . S
C1644 C1643 1.366 . S
C1644 C1645 1.414 . S
C1644 C1647 1.499 . S
C1645 H1619 0.950 . S
C1645 C1644 1.414 . S
C1645 C1646 1.374 . S
C1646 H1620 0.950 . S
C1646 C1642 1.385 . S
C1646 C1645 1.374 . S
C1647 C1644 1.499 . S
C1647 C1648 1.373 . S
C1647 C1649 1.389 . S
C1648 H1621 0.950 . S
C1648 C1634 1.377 . S
C1648 C1647 1.373 . S
C1649 C1633 1.377 . S
C1649 C1647 1.389 . S
C1649 C1650 1.524 . S
C1650 C1649 1.524 . S
C1650 C1651 1.397 . S
C1650 C1655 1.363 . S
C1651 H1622 0.950 . S
C1651 C1650 1.397 . S
C1651 C1652 1.334 . S
C1652 H1623 0.950 . S
C1652 C1651 1.334 . S
C1652 C1653 1.287 . S
C1653 C1652 1.287 . S
C1653 C1654 1.524 . S
C1653 H1656 0.999 . S
C1654 H1624 0.950 . S
C1654 C1653 1.524 . S
C1654 C1655 1.415 . S
C1655 H1625 0.950 . S
C1655 C1650 1.363 . S
C1655 C1654 1.415 . S
H1656 C1653 0.999 . S
H1657 C1638 0.913 . S
H1658 C1676 0.951 . S
H1659 C1678 0.951 . S
H1660 C1680 0.950 . S
H1661 C1681 0.950 . S
H1662 C1683 0.950 . S
H1663 C1686 0.950 . S
H1664 C1687 0.950 . S
H1665 C1689 0.950 . S
H1666 C1690 0.950 . S
H1667 C1691 0.951 . S
H1668 C1693 0.951 . S
H1669 C1695 0.950 . S
H1670 C1696 0.950 . S
H1671 C1698 0.950 . S
H1672 C1701 0.950 . S
H1673 C1702 0.950 . S
H1674 C1704 0.950 . S
H1675 C1705 0.950 . S
C1676 H1658 0.951 . S
C1676 C1677 1.366 . S
C1676 C1678 1.388 . S
C1677 C1676 1.366 . S
C1677 C1681 1.385 . S
C1678 H1659 0.951 . S
C1678 C1676 1.388 . S
C1678 C1679 1.366 . S
C1679 C1678 1.366 . S
C1679 C1680 1.414 . S
C1679 C1682 1.499 . S
C1680 H1660 0.950 . S
C1680 C1679 1.414 . S
C1680 C1681 1.374 . S
C1681 H1661 0.950 . S
C1681 C1677 1.385 . S
C1681 C1680 1.374 . S
C1682 C1679 1.499 . S
C1682 C1683 1.373 . S
C1682 C1684 1.389 . S
C1683 H1662 0.950 . S
C1683 C1682 1.373 . S
C1683 C1699 1.377 . S
C1684 C1682 1.389 . S
C1684 C1685 1.524 . S
C1684 C1698 1.377 . S
C1685 C1684 1.524 . S
C1685 C1686 1.397 . S
C1685 C1690 1.363 . S
C1686 H1663 0.950 . S
C1686 C1685 1.397 . S
C1686 C1687 1.334 . S
C1687 H1664 0.950 . S
C1687 C1686 1.334 . S
C1687 C1688 1.287 . S
C1688 C1687 1.287 . S
C1688 C1689 1.524 . S
C1688 H1707 0.913 . S
C1689 H1665 0.950 . S
C1689 C1688 1.524 . S
C1689 C1690 1.415 . S
C1690 H1666 0.950 . S
C1690 C1685 1.363 . S
C1690 C1689 1.415 . S
C1691 H1667 0.951 . S
C1691 C1692 1.366 . S
C1691 C1693 1.388 . S
C1692 C1691 1.366 . S
C1692 C1696 1.385 . S
C1693 H1668 0.951 . S
C1693 C1691 1.388 . S
C1693 C1694 1.366 . S
C1694 C1693 1.366 . S
C1694 C1695 1.414 . S
C1694 C1697 1.499 . S
C1695 H1669 0.950 . S
C1695 C1694 1.414 . S
C1695 C1696 1.374 . S
C1696 H1670 0.950 . S
C1696 C1692 1.385 . S
C1696 C1695 1.374 . S
C1697 C1694 1.499 . S
C1697 C1698 1.373 . S
C1697 C1699 1.389 . S
C1698 H1671 0.950 . S
C1698 C1684 1.377 . S
C1698 C1697 1.373 . S
C1699 C1683 1.377 . S
C1699 C1697 1.389 . S
C1699 C1700 1.524 . S
C1700 C1699 1.524 . S
C1700 C1701 1.397 . S
C1700 C1705 1.363 . S
C1701 H1672 0.950 . S
C1701 C1700 1.397 . S
C1701 C1702 1.334 . S
C1702 H1673 0.950 . S
C1702 C1701 1.334 . S
C1702 C1703 1.287 . S
C1703 C1702 1.287 . S
C1703 C1704 1.524 . S
C1703 H1706 0.999 . S
C1704 H1674 0.950 . S
C1704 C1703 1.524 . S
C1704 C1705 1.415 . S
C1705 H1675 0.950 . S
C1705 C1700 1.363 . S
C1705 C1704 1.415 . S
H1706 C1703 0.999 . S
H1707 C1688 0.913 . S
H1708 C1726 0.951 . S
H1709 C1728 0.951 . S
H1710 C1730 0.950 . S
H1711 C1731 0.950 . S
H1712 C1733 0.950 . S
H1713 C1736 0.950 . S
H1714 C1737 0.950 . S
H1715 C1739 0.950 . S
H1716 C1740 0.950 . S
H1717 C1741 0.951 . S
H1718 C1743 0.951 . S
H1719 C1745 0.950 . S
H1720 C1746 0.950 . S
H1721 C1748 0.950 . S
H1722 C1751 0.950 . S
H1723 C1752 0.950 . S
H1724 C1754 0.950 . S
H1725 C1755 0.950 . S
C1726 H1708 0.951 . S
C1726 C1727 1.366 . S
C1726 C1728 1.388 . S
C1727 C1726 1.366 . S
C1727 C1731 1.385 . S
C1728 H1709 0.951 . S
C1728 C1726 1.388 . S
C1728 C1729 1.366 . S
C1729 C1728 1.366 . S
C1729 C1730 1.414 . S
C1729 C1732 1.499 . S
C1730 H1710 0.950 . S
C1730 C1729 1.414 . S
C1730 C1731 1.374 . S
C1731 H1711 0.950 . S
C1731 C1727 1.385 . S
C1731 C1730 1.374 . S
C1732 C1729 1.499 . S
C1732 C1733 1.373 . S
C1732 C1734 1.389 . S
C1733 H1712 0.950 . S
C1733 C1732 1.373 . S
C1733 C1749 1.377 . S
C1734 C1732 1.389 . S
C1734 C1735 1.524 . S
C1734 C1748 1.377 1_545 S
C1735 C1734 1.524 . S
C1735 C1736 1.397 . S
C1735 C1740 1.363 1_545 S
C1736 H1713 0.950 . S
C1736 C1735 1.397 . S
C1736 C1737 1.334 . S
C1737 H1714 0.950 . S
C1737 C1736 1.334 . S
C1737 C1738 1.287 . S
C1738 C1737 1.287 . S
C1738 C1739 1.524 1_545 S
C1738 H1757 0.913 . S
C1739 H1715 0.950 . S
C1739 C1738 1.524 1_565 S
C1739 C1740 1.415 . S
C1740 H1716 0.950 . S
C1740 C1735 1.363 1_565 S
C1740 C1739 1.415 . S
C1741 H1717 0.951 . S
C1741 C1742 1.366 . S
C1741 C1743 1.388 . S
C1742 C1741 1.366 . S
C1742 C1746 1.385 . S
C1743 H1718 0.951 . S
C1743 C1741 1.388 . S
C1743 C1744 1.366 . S
C1744 C1743 1.366 . S
C1744 C1745 1.414 . S
C1744 C1747 1.499 . S
C1745 H1719 0.950 . S
C1745 C1744 1.414 . S
C1745 C1746 1.374 . S
C1746 H1720 0.950 . S
C1746 C1742 1.385 . S
C1746 C1745 1.374 . S
C1747 C1744 1.499 . S
C1747 C1748 1.373 . S
C1747 C1749 1.389 1_565 S
C1748 H1721 0.950 . S
C1748 C1734 1.377 1_565 S
C1748 C1747 1.373 . S
C1749 C1733 1.377 . S
C1749 C1747 1.389 1_545 S
C1749 C1750 1.524 . S
C1750 C1749 1.524 . S
C1750 C1751 1.397 1_545 S
C1750 C1755 1.363 . S
C1751 H1722 0.950 . S
C1751 C1750 1.397 1_565 S
C1751 C1752 1.334 . S
C1752 H1723 0.950 . S
C1752 C1751 1.334 . S
C1752 C1753 1.287 1_565 S
C1753 C1752 1.287 1_545 S
C1753 C1754 1.524 . S
C1753 H1756 0.999 . S
C1754 H1724 0.950 . S
C1754 C1753 1.524 . S
C1754 C1755 1.415 . S
C1755 H1725 0.950 . S
C1755 C1750 1.363 . S
C1755 C1754 1.415 . S
H1756 C1753 0.999 . S
H1757 C1738 0.913 . S
H1758 C1776 0.951 . S
H1759 C1778 0.951 . S
H1760 C1780 0.950 . S
H1761 C1781 0.950 . S
H1762 C1783 0.950 . S
H1763 C1786 0.950 . S
H1764 C1787 0.950 . S
H1765 C1789 0.950 . S
H1766 C1790 0.950 . S
H1767 C1791 0.951 . S
H1768 C1793 0.951 . S
H1769 C1795 0.950 . S
H1770 C1796 0.950 . S
H1771 C1798 0.950 . S
H1772 C1801 0.950 . S
H1773 C1802 0.950 . S
H1774 C1804 0.950 . S
H1775 C1805 0.950 . S
C1776 H1758 0.951 . S
C1776 C1777 1.366 . S
C1776 C1778 1.388 . S
C1777 C1776 1.366 . S
C1777 C1781 1.385 . S
C1778 H1759 0.951 . S
C1778 C1776 1.388 . S
C1778 C1779 1.366 . S
C1779 C1778 1.366 . S
C1779 C1780 1.414 . S
C1779 C1782 1.499 . S
C1780 H1760 0.950 . S
C1780 C1779 1.414 . S
C1780 C1781 1.374 . S
C1781 H1761 0.950 . S
C1781 C1777 1.385 . S
C1781 C1780 1.374 . S
C1782 C1779 1.499 . S
C1782 C1783 1.373 . S
C1782 C1784 1.389 . S
C1783 H1762 0.950 . S
C1783 C1782 1.373 . S
C1783 C1799 1.377 . S
C1784 C1782 1.389 . S
C1784 C1785 1.524 . S
C1784 C1798 1.377 . S
C1785 C1784 1.524 . S
C1785 C1786 1.397 . S
C1785 C1790 1.363 . S
C1786 H1763 0.950 . S
C1786 C1785 1.397 . S
C1786 C1787 1.334 . S
C1787 H1764 0.950 . S
C1787 C1786 1.334 . S
C1787 C1788 1.287 . S
C1788 C1787 1.287 . S
C1788 C1789 1.524 . S
C1788 H1807 0.913 . S
C1789 H1765 0.950 . S
C1789 C1788 1.524 . S
C1789 C1790 1.415 . S
C1790 H1766 0.950 . S
C1790 C1785 1.363 . S
C1790 C1789 1.415 . S
C1791 H1767 0.951 . S
C1791 C1792 1.366 . S
C1791 C1793 1.388 . S
C1792 C1791 1.366 . S
C1792 C1796 1.385 . S
C1793 H1768 0.951 . S
C1793 C1791 1.388 . S
C1793 C1794 1.366 . S
C1794 C1793 1.366 . S
C1794 C1795 1.414 . S
C1794 C1797 1.499 . S
C1795 H1769 0.950 . S
C1795 C1794 1.414 . S
C1795 C1796 1.374 . S
C1796 H1770 0.950 . S
C1796 C1792 1.385 . S
C1796 C1795 1.374 . S
C1797 C1794 1.499 . S
C1797 C1798 1.373 . S
C1797 C1799 1.389 . S
C1798 H1771 0.950 . S
C1798 C1784 1.377 . S
C1798 C1797 1.373 . S
C1799 C1783 1.377 . S
C1799 C1797 1.389 . S
C1799 C1800 1.524 . S
C1800 C1799 1.524 . S
C1800 C1801 1.397 . S
C1800 C1805 1.363 . S
C1801 H1772 0.950 . S
C1801 C1800 1.397 . S
C1801 C1802 1.334 . S
C1802 H1773 0.950 . S
C1802 C1801 1.334 . S
C1802 C1803 1.287 . S
C1803 C1802 1.287 . S
C1803 C1804 1.524 . S
C1803 H1806 0.999 . S
C1804 H1774 0.950 . S
C1804 C1803 1.524 . S
C1804 C1805 1.415 . S
C1805 H1775 0.950 . S
C1805 C1800 1.363 . S
C1805 C1804 1.415 . S
H1806 C1803 0.999 . S
H1807 C1788 0.913 . S
C227 C3 1.111 . S
C242 C172 1.104 . S
C277 C18 1.111 . S
C292 C122 1.104 . S
C327 C185 0.573 . S
C342 C29 0.568 . S
C377 C42 0.568 . S
C392 C200 0.572 . S
C427 C57 1.111 . S
C442 C81 1.104 . S
C477 C135 1.111 . S
C492 C70 1.104 . S
C527 C146 0.568 . S
C542 C94 0.572 . S
C577 C109 0.573 . S
C592 C159 0.569 . S
C627 C30 1.964 . S
C642 C5 1.948 . S
C677 C16 1.948 . S
C692 C43 1.964 . S
C727 C161 1.637 . S
C742 C10 1.613 . S
C777 C17 1.614 . S
C792 C148 1.637 . S
C827 C56 1.614 . S
C842 C31 1.637 . S
C877 C134 1.614 . S
C892 C44 1.637 . S
C927 C23 2.245 . S
C942 C4 2.245 . S
C977 C49 0.871 . S
C992 C36 0.870 . S
C1027 C140 2.245 . S
C1042 C62 2.245 . S
C1077 C96 1.621 . S
C1092 C75 1.600 . S
C1127 C82 1.600 . S
C1142 C107 1.621 . S
C1177 C205 1.755 . S
C1192 C69 1.743 . S
C1227 C88 1.744 . S
C1242 C186 1.755 . S
C1277 C121 1.743 . S
C1292 C95 1.755 . S
C1327 C114 1.755 . S
C1342 C179 1.744 . S
C1377 C83 2.283 . S
C1392 C68 2.283 . S
C1427 C108 0.955 . S
C1442 C101 0.956 . S
C1477 C120 2.283 . S
C1492 C174 2.283 . S
C1527 C133 1.948 . S
C1542 C147 1.964 . S
C1577 C160 1.964 . S
C1592 C55 1.948 . S
C1627 C166 0.870 . S
C1642 C153 0.871 . S
C1677 C187 1.621 . S
C1692 C173 1.600 . S
C1727 C127 1.600 . S
C1742 C198 1.621 . S
C1777 C199 0.955 . S
C1792 C192 0.955 . S
