# Generated by pormake.
# Topology acs-a, (4)-cn, num edge types: 1
# Building blocks:
#     Node 0, Type 0, BuildingBlock: GALJAG_clean_sbu_0, # of connection points: 4
#     Node 1, Type 0, BuildingBlock: GALJAG_clean_sbu_0, # of connection points: 4
#     Node 2, Type 0, BuildingBlock: GALJAG_clean_sbu_0, # of connection points: 4
#     Node 3, Type 0, BuildingBlock: GALJAG_clean_sbu_0, # of connection points: 4
#     Node 4, Type 0, BuildingBlock: GALJAG_clean_sbu_0, # of connection points: 4
#     Node 5, Type 0, BuildingBlock: GALJAG_clean_sbu_0, # of connection points: 4
#     Node 6, Type 0, BuildingBlock: GALJAG_clean_sbu_0, # of connection points: 4
#     Node 7, Type 0, BuildingBlock: GALJAG_clean_sbu_0, # of connection points: 4
#     Node 8, Type 0, BuildingBlock: GALJAG_clean_sbu_0, # of connection points: 4
#     Node 9, Type 0, BuildingBlock: GALJAG_clean_sbu_0, # of connection points: 4
#     Node 10, Type 0, BuildingBlock: GALJAG_clean_sbu_0, # of connection points: 4
#     Node 11, Type 0, BuildingBlock: GALJAG_clean_sbu_0, # of connection points: 4
#     Edge 12, Type (0, 0), BuildingBlock: EZIPEK_clean_linker_0, # of connection points: 2
#     Edge 13, Type (0, 0), BuildingBlock: EZIPEK_clean_linker_0, # of connection points: 2
#     Edge 14, Type (0, 0), BuildingBlock: EZIPEK_clean_linker_0, # of connection points: 2
#     Edge 15, Type (0, 0), BuildingBlock: EZIPEK_clean_linker_0, # of connection points: 2
#     Edge 16, Type (0, 0), BuildingBlock: EZIPEK_clean_linker_0, # of connection points: 2
#     Edge 17, Type (0, 0), BuildingBlock: EZIPEK_clean_linker_0, # of connection points: 2
#     Edge 18, Type (0, 0), BuildingBlock: EZIPEK_clean_linker_0, # of connection points: 2
#     Edge 19, Type (0, 0), BuildingBlock: EZIPEK_clean_linker_0, # of connection points: 2
#     Edge 20, Type (0, 0), BuildingBlock: EZIPEK_clean_linker_0, # of connection points: 2
#     Edge 21, Type (0, 0), BuildingBlock: EZIPEK_clean_linker_0, # of connection points: 2
#     Edge 22, Type (0, 0), BuildingBlock: EZIPEK_clean_linker_0, # of connection points: 2
#     Edge 23, Type (0, 0), BuildingBlock: EZIPEK_clean_linker_0, # of connection points: 2
#     Edge 24, Type (0, 0), BuildingBlock: EZIPEK_clean_linker_0, # of connection points: 2
#     Edge 25, Type (0, 0), BuildingBlock: EZIPEK_clean_linker_0, # of connection points: 2
#     Edge 26, Type (0, 0), BuildingBlock: EZIPEK_clean_linker_0, # of connection points: 2
#     Edge 27, Type (0, 0), BuildingBlock: EZIPEK_clean_linker_0, # of connection points: 2
#     Edge 28, Type (0, 0), BuildingBlock: EZIPEK_clean_linker_0, # of connection points: 2
#     Edge 29, Type (0, 0), BuildingBlock: EZIPEK_clean_linker_0, # of connection points: 2
#     Edge 30, Type (0, 0), BuildingBlock: EZIPEK_clean_linker_0, # of connection points: 2
#     Edge 31, Type (0, 0), BuildingBlock: EZIPEK_clean_linker_0, # of connection points: 2
#     Edge 32, Type (0, 0), BuildingBlock: EZIPEK_clean_linker_0, # of connection points: 2
#     Edge 33, Type (0, 0), BuildingBlock: EZIPEK_clean_linker_0, # of connection points: 2
#     Edge 34, Type (0, 0), BuildingBlock: EZIPEK_clean_linker_0, # of connection points: 2
#     Edge 35, Type (0, 0), BuildingBlock: EZIPEK_clean_linker_0, # of connection points: 2
# Relax obj value: 0.468
# Max RMSD: 0.202
# Mean RMSD: 0.201
data_MOF--net-acs-a--node1-GALJAG_clean_sbu_0--edge1-EZIPEK_clean_linker_0
_symmetry_space_group_name_H-M    P1
_symmetry_Int_Tables_number       1
_symmetry_cell_setting            triclinic
loop_
_symmetry_equiv_pos_as_xyz
'x, y, z'
_cell_length_a     37.940456
_cell_length_b     38.041208
_cell_length_c     21.681192
_cell_angle_alpha  89.981863
_cell_angle_beta   89.998147
_cell_angle_gamma 119.96468
loop_
_atom_site_label
_atom_site_type_symbol
_atom_site_fract_x
_atom_site_fract_y
_atom_site_fract_z
_atom_type_partial_charge
In0 In 0.6078 0.15993 0.01956 0.0
O1 O 0.63937 0.18741 0.11163 0.0
O2 O 0.575 0.14931 0.11142 0.0
C3 C 0.68304 0.20533 0.97251 0.0
C4 C 0.57633 0.07922 0.01151 0.0
C5 C 0.56197 0.18562 0.96168 0.0
O6 O 0.66238 0.22008 0.99379 0.0
O7 O 0.66571 0.16713 0.97356 0.0
O8 O 0.5773 0.16757 0.93316 0.0
O9 O 0.56883 0.18954 0.01886 0.0
C10 C 0.60678 0.17089 0.14238 0.0
O11 O 0.5653 0.0983 0.97629 0.0
O12 O 0.60405 0.10076 0.04921 0.0
In13 In 0.44423 0.61374 0.46746 0.0
O14 O 0.44551 0.63529 0.56595 0.0
O15 O 0.43062 0.57394 0.55236 0.0
C16 C 0.47627 0.68735 0.4126 0.0
C17 C 0.49575 0.58668 0.43836 0.0
C18 C 0.36478 0.57762 0.43989 0.0
O19 O 0.48432 0.68228 0.46718 0.0
O20 O 0.45228 0.65477 0.38526 0.0
O21 O 0.38814 0.56799 0.41251 0.0
O22 O 0.3814 0.60518 0.47978 0.0
C23 C 0.4358 0.60141 0.58995 0.0
O24 O 0.45934 0.56968 0.41991 0.0
O25 O 0.50569 0.61741 0.47154 0.0
In26 In 0.82937 0.41821 0.03088 0.0
O27 O 0.89674 0.44568 0.00817 0.0
O28 O 0.87724 0.48432 0.04741 0.0
C29 C 0.8157 0.34827 0.97773 0.0
C30 C 0.81644 0.41004 0.15339 0.0
C31 C 0.77108 0.42677 0.97482 0.0
O32 O 0.82173 0.37882 0.94664 0.0
O33 O 0.8179 0.35386 0.03524 0.0
O34 O 0.76381 0.40046 0.01572 0.0
O35 O 0.80821 0.44948 0.96147 0.0
C36 C 0.90647 0.48027 0.02902 0.0
O37 O 0.80037 0.42506 0.11937 0.0
O38 O 0.83849 0.39895 0.12582 0.0
In39 In 0.39846 0.83436 0.48618 0.0
O40 O 0.44662 0.89801 0.45899 0.0
O41 O 0.39146 0.89045 0.49405 0.0
C42 C 0.44157 0.80548 0.42885 0.0
C43 C 0.40629 0.83333 0.60922 0.0
C44 C 0.32384 0.78163 0.44264 0.0
O45 O 0.43186 0.82876 0.40163 0.0
O46 O 0.42992 0.79744 0.48407 0.0
O47 O 0.33943 0.77434 0.48856 0.0
O48 O 0.34553 0.81591 0.41797 0.0
C49 C 0.42623 0.91477 0.47293 0.0
O50 O 0.37323 0.82561 0.58397 0.0
O51 O 0.43534 0.84167 0.57285 0.0
In52 In 0.53857 0.36628 0.99011 0.0
O53 O 0.52907 0.34355 0.08978 0.0
O54 O 0.56622 0.40695 0.07366 0.0
C55 C 0.51097 0.29284 0.93783 0.0
C56 C 0.48684 0.39455 0.97251 0.0
C57 C 0.61541 0.39857 0.95038 0.0
O58 O 0.50666 0.2978 0.99435 0.0
O59 O 0.52763 0.3253 0.90689 0.0
O60 O 0.59062 0.40674 0.92396 0.0
O61 O 0.60146 0.37468 0.99561 0.0
C62 C 0.55096 0.37847 0.11237 0.0
O63 O 0.52471 0.41625 0.96513 0.0
O64 O 0.47455 0.35781 0.98434 0.0
In65 In 0.14943 0.56433 0.49963 0.0
O66 O 0.08614 0.54578 0.46382 0.0
O67 O 0.09456 0.50042 0.50511 0.0
C68 C 0.18228 0.63748 0.44336 0.0
C69 C 0.14837 0.57197 0.6224 0.0
C70 C 0.20637 0.54669 0.46242 0.0
O71 O 0.16927 0.60481 0.41375 0.0
O72 O 0.1769 0.63273 0.50079 0.0
O73 O 0.21034 0.56779 0.50945 0.0
O74 O 0.17265 0.53254 0.43489 0.0
C75 C 0.07005 0.50902 0.47947 0.0
O76 O 0.16163 0.55094 0.59716 0.0
O77 O 0.13557 0.58897 0.58595 0.0
In78 In 0.81895 0.39595 0.5414 0.0
O79 O 0.88468 0.44352 0.56474 0.0
O80 O 0.87439 0.39101 0.51533 0.0
C81 C 0.78142 0.43532 0.58278 0.0
C82 C 0.81037 0.39991 0.41882 0.0
C83 C 0.77999 0.32574 0.6049 0.0
O84 O 0.81635 0.44422 0.60182 0.0
O85 O 0.76569 0.40678 0.54428 0.0
O86 O 0.77668 0.32846 0.54764 0.0
O87 O 0.80471 0.35852 0.63126 0.0
C88 C 0.89987 0.42538 0.53612 0.0
O89 O 0.79711 0.36659 0.44683 0.0
O90 O 0.82702 0.43105 0.45257 0.0
In91 In 0.43005 0.82574 0.99636 0.0
O92 O 0.44571 0.89018 0.01829 0.0
O93 O 0.49485 0.87971 1.00053 0.0
C94 C 0.35603 0.79461 0.04768 0.0
C95 C 0.42339 0.82863 0.87312 0.0
C96 C 0.45085 0.77215 0.03927 0.0
O97 O 0.38747 0.82125 0.07502 0.0
O98 O 0.3621 0.78385 0.99564 0.0
O99 O 0.43762 0.77079 0.98558 0.0
O100 O 0.45449 0.80115 0.07216 0.0
C101 C 0.48348 0.90501 0.01184 0.0
O102 O 0.44964 0.82217 0.89814 0.0
O103 O 0.40054 0.83358 0.90997 0.0
In104 In 0.59052 0.4326 0.49201 0.0
O105 O 0.54463 0.45374 0.50961 0.0
O106 O 0.6004 0.49425 0.46467 0.0
C107 C 0.55648 0.35948 0.54524 0.0
C108 C 0.57957 0.41033 0.37304 0.0
C109 C 0.66141 0.46792 0.55455 0.0
O110 O 0.54598 0.38502 0.56058 0.0
O111 O 0.58305 0.37067 0.50354 0.0
O112 O 0.65927 0.46546 0.49646 0.0
O113 O 0.62743 0.45377 0.58113 0.0
C114 C 0.566 0.48737 0.48275 0.0
O115 O 0.61435 0.42731 0.39778 0.0
O116 O 0.55053 0.40388 0.40831 0.0
In117 In 0.15351 0.60932 0.00727 0.0
O118 O 0.09809 0.57303 0.06827 0.0
O119 O 0.09447 0.61056 0.99985 0.0
C120 C 0.1969 0.57291 0.03227 0.0
C121 C 0.14942 0.59656 0.88497 0.0
C122 C 0.19776 0.68304 0.06033 0.0
O123 O 0.15962 0.55641 0.04604 0.0
O124 O 0.21192 0.60733 0.00743 0.0
O125 O 0.18457 0.67799 0.00572 0.0
O126 O 0.18723 0.65035 0.08887 0.0
C127 C 0.07672 0.58606 0.04341 0.0
O128 O 0.17127 0.63118 0.90841 0.0
O129 O 0.12922 0.56842 0.92285 0.0
In130 In 0.57513 0.16448 0.52883 0.0
O131 O 0.57218 0.1887 0.43337 0.0
O132 O 0.60491 0.15704 0.44238 0.0
C133 C 0.55002 0.21534 0.56673 0.0
C134 C 0.52065 0.08456 0.52625 0.0
C135 C 0.64181 0.19028 0.60073 0.0
O136 O 0.58092 0.22617 0.53325 0.0
O137 O 0.53114 0.17834 0.58209 0.0
O138 O 0.60698 0.17867 0.62294 0.0
O139 O 0.64232 0.18737 0.54284 0.0
C140 C 0.59253 0.17503 0.40722 0.0
O141 O 0.5537 0.09856 0.55547 0.0
O142 O 0.51388 0.11081 0.50262 0.0
In143 In 0.39835 0.55562 0.97323 0.0
O144 O 0.43689 0.52806 0.00247 0.0
O145 O 0.37987 0.48902 0.95993 0.0
C146 C 0.44409 0.62725 0.03246 0.0
C147 C 0.41074 0.57 0.85174 0.0
C148 C 0.3244 0.5402 0.01039 0.0
O149 O 0.42236 0.59451 0.06094 0.0
O150 O 0.44354 0.62317 0.97484 0.0
O151 O 0.3398 0.55651 0.95939 0.0
O152 O 0.34538 0.52962 0.04237 0.0
C153 C 0.41258 0.49327 0.98162 0.0
O154 O 0.37682 0.55922 0.87692 0.0
O155 O 0.4384 0.57338 0.88777 0.0
C156 C 0.61731 0.21212 0.30606 0.0
C157 C 0.59686 0.17509 0.3394 0.0
C158 C 0.58982 0.13699 0.24509 0.0
C159 C 0.60586 0.17333 0.21043 0.0
N160 N 0.6304 0.24529 0.20621 0.0
N161 N 0.55457 0.10213 0.33785 0.0
C162 C 0.61857 0.21099 0.2404 0.0
C163 C 0.58061 0.13744 0.30817 0.0
N164 N 0.63644 0.24818 0.33711 0.0
N165 N 0.58482 0.10226 0.21837 0.0
H166 H 0.54495 0.10141 0.38309 0.0
H167 H 0.53893 0.07421 0.31549 0.0
H168 H 0.59339 0.10133 0.173 0.0
H169 H 0.57667 0.0758 0.24314 0.0
H170 H 0.65536 0.2759 0.31579 0.0
H171 H 0.63603 0.25005 0.38509 0.0
H172 H 0.63574 0.2727 0.22507 0.0
H173 H 0.63186 0.24559 0.15816 0.0
C174 C 0.45995 0.61989 0.69925 0.0
C175 C 0.42947 0.59388 0.65704 0.0
C176 C 0.3895 0.54964 0.7421 0.0
C177 C 0.4175 0.57815 0.78481 0.0
N178 N 0.4748 0.6451 0.80386 0.0
N179 N 0.36063 0.53956 0.63996 0.0
C180 C 0.45154 0.61463 0.76344 0.0
C181 C 0.39289 0.56027 0.67887 0.0
N182 N 0.49747 0.64856 0.67845 0.0
N183 N 0.3607 0.51176 0.76123 0.0
H184 H 0.36111 0.54774 0.59396 0.0
H185 H 0.33198 0.51729 0.65507 0.0
H186 H 0.35824 0.50193 0.80674 0.0
H187 H 0.34219 0.48869 0.73071 0.0
H188 H 0.522 0.66543 0.70778 0.0
H189 H 0.50537 0.65267 0.63187 0.0
H190 H 0.4974 0.67379 0.78968 0.0
H191 H 0.4688 0.64336 0.851 0.0
C192 C 0.77558 0.38454 0.25118 0.0
C193 C 0.8134 0.40921 0.22128 0.0
C194 C 0.84882 0.42421 0.32008 0.0
C195 C 0.81087 0.40265 0.35083 0.0
N196 N 0.73754 0.36735 0.34715 0.0
N197 N 0.88419 0.46072 0.22822 0.0
C198 C 0.77397 0.38417 0.31682 0.0
C199 C 0.8495 0.43153 0.25605 0.0
N200 N 0.74163 0.36042 0.21705 0.0
N201 N 0.88425 0.43576 0.35129 0.0
H202 H 0.88534 0.46818 0.18168 0.0
H203 H 0.91038 0.48049 0.25259 0.0
H204 H 0.88493 0.4287 0.39754 0.0
H205 H 0.91253 0.4482 0.32973 0.0
H206 H 0.71422 0.33849 0.23629 0.0
H207 H 0.74168 0.3602 0.16894 0.0
H208 H 0.70977 0.35715 0.32491 0.0
H209 H 0.73531 0.36661 0.39514 0.0
C210 C 0.41147 0.79568 0.76927 0.0
C211 C 0.41934 0.82995 0.80545 0.0
C212 C 0.41519 0.86504 0.71319 0.0
C213 C 0.41062 0.83213 0.67664 0.0
N214 N 0.40971 0.76849 0.66745 0.0
N215 N 0.43563 0.89984 0.81154 0.0
C216 C 0.41053 0.79821 0.70396 0.0
C217 C 0.42291 0.86533 0.77741 0.0
N218 N 0.40274 0.76003 0.79741 0.0
N219 N 0.41199 0.89593 0.68654 0.0
H220 H 0.4422 0.90152 0.8585 0.0
H221 H 0.44316 0.92786 0.79249 0.0
H222 H 0.40819 0.8977 0.63919 0.0
H223 H 0.41031 0.91836 0.71167 0.0
H224 H 0.39243 0.73279 0.77382 0.0
H225 H 0.4022 0.75658 0.84517 0.0
H226 H 0.41449 0.74554 0.68414 0.0
H227 H 0.40703 0.76825 0.61954 0.0
C228 C 0.56015 0.42484 0.27049 0.0
C229 C 0.57352 0.40251 0.30621 0.0
C230 C 0.57558 0.36667 0.21368 0.0
C231 C 0.55802 0.38591 0.17934 0.0
N232 N 0.52696 0.42799 0.17722 0.0
N233 N 0.58918 0.3486 0.31472 0.0
C234 C 0.54849 0.41357 0.20832 0.0
C235 C 0.57998 0.37241 0.27865 0.0
N236 N 0.5602 0.45793 0.29525 0.0
N237 N 0.58974 0.34448 0.18396 0.0
H238 H 0.59307 0.35231 0.36238 0.0
H239 H 0.58987 0.32324 0.29824 0.0
H240 H 0.5878 0.34016 0.13632 0.0
H241 H 0.60667 0.33335 0.20567 0.0
H242 H 0.55474 0.47786 0.26953 0.0
H243 H 0.56969 0.46792 0.3402 0.0
H244 H 0.51512 0.44447 0.19829 0.0
H245 H 0.51757 0.42039 0.13161 0.0
C246 C 0.11119 0.56468 0.72113 0.0
C247 C 0.14843 0.57703 0.68988 0.0
C248 C 0.18527 0.59733 0.7879 0.0
C249 C 0.1488 0.58924 0.81806 0.0
N250 N 0.0781 0.57082 0.81278 0.0
N251 N 0.22186 0.61135 0.6913 0.0
C252 C 0.11195 0.57431 0.78459 0.0
C253 C 0.18578 0.59496 0.72262 0.0
N254 N 0.07506 0.54248 0.69074 0.0
N255 N 0.21903 0.60577 0.82174 0.0
H256 H 0.22366 0.61079 0.64334 0.0
H257 H 0.25005 0.62877 0.71239 0.0
H258 H 0.21972 0.60714 0.86981 0.0
H259 H 0.24508 0.60759 0.80263 0.0
H260 H 0.04689 0.52898 0.71271 0.0
H261 H 0.07324 0.53431 0.64442 0.0
H262 H 0.05166 0.56436 0.78907 0.0
H263 H 0.07749 0.57781 0.85915 0.0
C264 C 0.53066 0.01363 0.06455 0.0
C265 C 0.55529 0.03456 0.01299 0.0
C266 C 0.5341 0.97008 0.96064 0.0
C267 C 0.51162 0.94918 0.01401 0.0
N268 N 0.49581 0.95047 0.12134 0.0
N269 N 0.58669 0.03349 0.91699 0.0
C270 C 0.51224 0.97083 0.06747 0.0
C271 C 0.55897 0.01299 0.96253 0.0
N272 N 0.52292 0.03438 0.10899 0.0
N273 N 0.52997 0.94932 0.90714 0.0
H274 H 0.60513 0.065 0.91679 0.0
H275 H 0.59385 0.01911 0.88237 0.0
H276 H 0.51205 0.9179 0.9034 0.0
H277 H 0.54173 0.96352 0.865 0.0
H278 H 0.50189 0.02022 0.14435 0.0
H279 H 0.53446 0.06562 0.10722 0.0
H280 H 0.49896 0.96498 0.16339 0.0
H281 H 0.48252 0.91902 0.12521 0.0
C282 C 0.55804 0.58259 0.46703 0.0
C283 C 0.5214 0.56721 0.43296 0.0
C284 C 0.51794 0.50156 0.42308 0.0
C285 C 0.55045 0.51477 0.46608 0.0
N286 N 0.60119 0.56732 0.53071 0.0
N287 N 0.48137 0.52131 0.35235 0.0
C288 C 0.57091 0.55538 0.48782 0.0
C289 C 0.50557 0.52927 0.40307 0.0
N290 N 0.58189 0.62347 0.47542 0.0
N291 N 0.49838 0.46245 0.40206 0.0
H292 H 0.47614 0.54332 0.33259 0.0
H293 H 0.47133 0.49558 0.32499 0.0
H294 H 0.50759 0.44157 0.41259 0.0
H295 H 0.4714 0.44984 0.37694 0.0
H296 H 0.61049 0.63699 0.496 0.0
H297 H 0.57564 0.64423 0.45371 0.0
H298 H 0.61407 0.59511 0.55346 0.0
H299 H 0.61119 0.54811 0.54754 0.0
C300 C 0.00818 0.57811 0.0177 0.0
C301 C 0.03221 0.56785 0.05554 0.0
C302 C 0.97171 0.50492 0.08648 0.0
C303 C 0.94915 0.51162 0.04021 0.0
N304 N 0.94468 0.55451 0.96236 0.0
N305 N 0.03265 0.53454 0.14945 0.0
C306 C 0.96679 0.54859 0.00675 0.0
C307 C 0.01274 0.53508 0.09727 0.0
N308 N 0.02426 0.61682 0.99598 0.0
N309 N 0.95435 0.46935 0.11898 0.0
H310 H 0.06093 0.55895 0.16168 0.0
H311 H 0.01914 0.51315 0.18445 0.0
H312 H 0.92387 0.44707 0.11465 0.0
H313 H 0.97077 0.46078 0.14768 0.0
H314 H 0.00766 0.62722 0.97154 0.0
H315 H 0.0528 0.64003 0.00989 0.0
H316 H 0.95719 0.57867 0.93143 0.0
H317 H 0.91418 0.53366 0.95354 0.0
C318 C 0.51022 0.02317 0.46891 0.0
C319 C 0.49507 0.04114 0.51085 0.0
C320 C 0.42808 0.97928 0.50932 0.0
C321 C 0.44492 0.95993 0.4736 0.0
N322 N 0.49334 0.96977 0.39439 0.0
N323 N 0.44076 0.03657 0.57408 0.0
C324 C 0.48358 0.98373 0.44601 0.0
C325 C 0.45413 0.01941 0.53141 0.0
N326 N 0.55024 0.0433 0.45164 0.0
N327 N 0.38695 0.96083 0.51758 0.0
H328 H 0.45912 0.06586 0.59116 0.0
H329 H 0.41281 0.02082 0.59641 0.0
H330 H 0.36665 0.93459 0.49396 0.0
H331 H 0.37246 0.97434 0.53989 0.0
H332 H 0.56383 0.02953 0.42743 0.0
H333 H 0.57083 0.07293 0.46487 0.0
H334 H 0.51957 0.98714 0.36851 0.0
H335 H 0.47239 0.94292 0.37251 0.0
C336 C 0.4361 0.45362 0.91927 0.0
C337 C 0.42392 0.46145 0.97721 0.0
C338 C 0.44212 0.41521 0.02809 0.0
C339 C 0.45981 0.41217 0.97195 0.0
N340 N 0.47313 0.42675 0.86368 0.0
N341 N 0.41507 0.45083 0.08683 0.0
C342 C 0.45624 0.43056 0.91721 0.0
C343 C 0.42644 0.44218 0.03157 0.0
N344 N 0.42871 0.46853 0.86639 0.0
N345 N 0.44049 0.39252 0.07811 0.0
H346 H 0.40127 0.46857 0.09045 0.0
H347 H 0.42099 0.44222 0.1294 0.0
H348 H 0.45272 0.37337 0.07841 0.0
H349 H 0.4244 0.3902 0.1182 0.0
H350 H 0.43301 0.46066 0.82223 0.0
H351 H 0.41556 0.4869 0.86612 0.0
H352 H 0.4764 0.44335 0.82384 0.0
H353 H 0.48543 0.40769 0.85965 0.0
C354 C 0.96686 0.42718 0.53507 0.0
C355 C 0.94331 0.44522 0.51832 0.0
C356 C -0.00046 0.4949 0.45438 0.0
C357 C 0.02494 0.48102 0.47896 0.0
N358 N 0.02715 0.42228 0.5151 0.0
N359 N 0.93755 0.49764 0.46329 0.0
C360 C 0.00707 0.44363 0.51145 0.0
C361 C 0.95968 0.47943 0.47823 0.0
N362 N 0.95149 0.39556 0.57592 0.0
N363 N 0.01231 0.52012 0.40432 0.0
H364 H 0.9073 0.48626 0.47588 0.0
H365 H 0.95004 0.52565 0.4412 0.0
H366 H 0.03931 0.52769 0.38119 0.0
H367 H 0.9939 0.52858 0.38042 0.0
H368 H 0.96872 0.38405 0.59544 0.0
H369 H 0.92231 0.38298 0.59456 0.0
H370 H 0.01466 0.39342 0.53433 0.0
H371 H 0.05386 0.43072 0.49063 0.0
C372 C 0.49962 0.19142 0.95869 0.0
C373 C 0.53767 0.20156 0.93202 0.0
C374 C 0.53633 0.25574 0.87347 0.0
C375 C 0.50709 0.25406 0.91552 0.0
N376 N 0.45056 0.21327 0.98151 0.0
N377 N 0.59047 0.24064 0.85734 0.0
C378 C 0.48472 0.21886 0.95185 0.0
C379 C 0.55495 0.23209 0.88583 0.0
N380 N 0.4787 0.15612 0.99127 0.0
N381 N 0.5461 0.27984 0.8225 0.0
H382 H 0.60478 0.22366 0.86408 0.0
H383 H 0.60674 0.26583 0.82903 0.0
H384 H 0.53045 0.29503 0.81123 0.0
H385 H 0.56565 0.28061 0.78814 0.0
H386 H 0.45014 0.14588 0.01068 0.0
H387 H 0.48912 0.13546 0.9951 0.0
H388 H 0.43422 0.19035 0.01337 0.0
H389 H 0.43859 0.2323 0.97317 0.0
C390 C 0.30588 0.57629 0.38673 0.0
C391 C 0.32073 0.55802 0.42828 0.0
C392 C 0.25425 0.52057 0.478 0.0
C393 C 0.24047 0.54174 0.44043 0.0
N394 N 0.2475 0.57921 0.34725 0.0
N395 N 0.30739 0.50418 0.49893 0.0
C396 C 0.26434 0.5658 0.3903 0.0
C397 C 0.2941 0.52695 0.46886 0.0
N398 N 0.33213 0.60532 0.34661 0.0
N399 N 0.22977 0.49589 0.52399 0.0
H400 H 0.33651 0.50845 0.49202 0.0
H401 H 0.28888 0.47918 0.52632 0.0
H402 H 0.19965 0.48911 0.52922 0.0
H403 H 0.23943 0.48317 0.55781 0.0
H404 H 0.32469 0.62355 0.32021 0.0
H405 H 0.36228 0.61219 0.34149 0.0
H406 H 0.26227 0.59416 0.30692 0.0
H407 H 0.21719 0.57206 0.34914 0.0
C408 C 0.77061 0.29628 0.90102 0.0
C409 C 0.79712 0.30658 0.95192 0.0
C410 C 0.75758 0.23762 0.99201 0.0
C411 C 0.72541 0.23207 0.95242 0.0
N412 N 0.70248 0.25175 0.8623 0.0
N413 N 0.82717 0.28322 0.02641 0.0
C414 C 0.73273 0.25962 0.90352 0.0
C415 C 0.79451 0.27547 0.99054 0.0
N416 N 0.78191 0.32136 0.85105 0.0
N417 N 0.7514 0.20831 0.034 0.0
H418 H 0.85431 0.31097 0.02364 0.0
H419 H 0.82866 0.26195 0.05477 0.0
H420 H 0.72499 0.18 0.03458 0.0
H421 H 0.77208 0.21175 0.06823 0.0
H422 H 0.76477 0.31452 0.8108 0.0
H423 H 0.81094 0.34676 0.84757 0.0
H424 H 0.70398 0.27296 0.83051 0.0
H425 H 0.67522 0.22407 0.86176 0.0
C426 C 0.44835 0.76023 0.35128 0.0
C427 C 0.46522 0.78849 0.4004 0.0
C428 C 0.51057 0.7624 0.42632 0.0
C429 C 0.4857 0.72806 0.38981 0.0
N430 N 0.45037 0.70653 0.29331 0.0
N431 N 0.51976 0.82477 0.47243 0.0
C432 C 0.46094 0.73103 0.34384 0.0
C433 C 0.49957 0.79282 0.43299 0.0
N434 N 0.4185 0.75941 0.31513 0.0
N435 N 0.54403 0.7651 0.45436 0.0
H436 H 0.51289 0.84811 0.47524 0.0
H437 H 0.54298 0.82839 0.50186 0.0
H438 H 0.55281 0.74346 0.4464 0.0
H439 H 0.56451 0.78961 0.48093 0.0
H440 H 0.40122 0.73616 0.28414 0.0
H441 H 0.41056 0.78192 0.31701 0.0
H442 H 0.43458 0.70908 0.25598 0.0
H443 H 0.46203 0.68717 0.28585 0.0
C444 C 0.66993 0.39168 0.89919 0.0
C445 C 0.65843 0.41623 0.93266 0.0
C446 C 0.7286 0.45958 0.96713 0.0
C447 C 0.73754 0.42975 0.94567 0.0
N448 N 0.72034 0.37082 0.88393 0.0
N449 N 0.67602 0.47619 0.99167 0.0
C450 C 0.7095 0.39725 0.90813 0.0
C451 C 0.68788 0.45173 0.96318 0.0
N452 N 0.64248 0.36271 0.86027 0.0
N453 N 0.75874 0.49446 0.99291 0.0
H454 H 0.64665 0.47167 0.98707 0.0
H455 H 0.69457 0.50013 0.02073 0.0
H456 H 0.78865 0.50043 0.99654 0.0
H457 H 0.75513 0.51875 0.0062 0.0
H458 H 0.6492 0.34503 0.83132 0.0
H459 H 0.61351 0.35885 0.85346 0.0
H460 H 0.70033 0.34399 0.86141 0.0
H461 H 0.74989 0.3757 0.88762 0.0
C462 C 0.24 0.68468 0.37469 0.0
C463 C 0.20889 0.67858 0.41681 0.0
C464 C 0.24856 0.74919 0.45077 0.0
C465 C 0.28285 0.75158 0.42077 0.0
N466 N 0.31156 0.7255 0.34743 0.0
N467 N 0.17635 0.70782 0.47502 0.0
C468 C 0.27845 0.72077 0.37947 0.0
C469 C 0.2108 0.71218 0.4479 0.0
N470 N 0.23257 0.65627 0.33051 0.0
N471 N 0.25306 0.78155 0.48446 0.0
H472 H 0.14845 0.68099 0.47064 0.0
H473 H 0.17445 0.7308 0.49796 0.0
H474 H 0.28032 0.80922 0.4852 0.0
H475 H 0.23033 0.78143 0.51137 0.0
H476 H 0.2539 0.65848 0.29833 0.0
H477 H 0.20335 0.63243 0.32153 0.0
H478 H 0.31205 0.70269 0.32163 0.0
H479 H 0.33934 0.75259 0.34819 0.0
C480 C 0.76787 0.49133 0.5595 0.0
C481 C 0.76126 0.45866 0.59842 0.0
C482 C 0.69891 0.45434 0.63774 0.0
C483 C 0.69992 0.47815 0.58689 0.0
N484 N 0.74089 0.53288 0.51844 0.0
N485 N 0.72522 0.41334 0.68205 0.0
C486 C 0.73678 0.50165 0.55457 0.0
C487 C 0.72866 0.44216 0.64109 0.0
N488 N 0.8024 0.51008 0.52449 0.0
N489 N 0.67003 0.44398 0.68238 0.0
H490 H 0.74805 0.40585 0.68696 0.0
H491 H 0.69975 0.39641 0.70963 0.0
H492 H 0.65049 0.45584 0.683 0.0
H493 H 0.66866 0.42802 0.72216 0.0
H494 H 0.80811 0.53202 0.4913 0.0
H495 H 0.82582 0.5034 0.52905 0.0
H496 H 0.76707 0.55238 0.494 0.0
H497 H 0.71816 0.54073 0.51666 0.0
C498 C 0.30038 0.75077 0.12153 0.0
C499 C 0.31433 0.77847 0.07149 0.0
C500 C 0.24417 0.75708 0.04274 0.0
C501 C 0.23148 0.72304 0.08155 0.0
N502 N 0.24195 0.70135 0.18034 0.0
N503 N 0.30091 0.81531 0.99354 0.0
C504 C 0.25783 0.72444 0.12874 0.0
C505 C 0.28648 0.78459 0.03585 0.0
N506 N 0.32764 0.74762 0.1589 0.0
N507 N 0.21548 0.7625 0.01316 0.0
H508 H 0.33179 0.8369 0.99029 0.0
H509 H 0.28278 0.81933 0.96158 0.0
H510 H 0.18447 0.74318 0.02125 0.0
H511 H 0.222 0.78741 0.98561 0.0
H512 H 0.31944 0.72453 0.19119 0.0
H513 H 0.35887 0.76765 0.1561 0.0
H514 H 0.25941 0.70343 0.21861 0.0
H515 H 0.21059 0.68413 0.18745 0.0
C516 C 0.50723 0.24688 0.5497 0.0
C517 C 0.53761 0.24491 0.58483 0.0
C518 C 0.56386 0.31462 0.61998 0.0
C519 C 0.54026 0.31921 0.57366 0.0
N520 N 0.48506 0.29036 0.50139 0.0
N521 N 0.58984 0.27267 0.6621 0.0
C522 C 0.50965 0.28513 0.5419 0.0
C523 C 0.56375 0.2773 0.62403 0.0
N524 N 0.47746 0.21256 0.52214 0.0
N525 N 0.58725 0.34658 0.65794 0.0
H526 H 0.58844 0.24472 0.66737 0.0
H527 H 0.61274 0.29597 0.68781 0.0
H528 H 0.58712 0.37391 0.65494 0.0
H529 H 0.60423 0.34532 0.69467 0.0
H530 H 0.45306 0.21111 0.49803 0.0
H531 H 0.47562 0.18444 0.52758 0.0
H532 H 0.46465 0.26799 0.47166 0.0
H533 H 0.48576 0.31805 0.49716 0.0
C534 C 0.25369 0.57068 0.08518 0.0
C535 C 0.22176 0.55349 0.04152 0.0
C536 C 0.25046 0.51421 0.99685 0.0
C537 C 0.2862 0.53754 0.03191 0.0
N538 N 0.32222 0.58685 0.11174 0.0
N539 N 0.18761 0.50763 0.95726 0.0
C540 C 0.28757 0.56471 0.07801 0.0
C541 C 0.21894 0.52405 0.99869 0.0
N542 N 0.25155 0.59305 0.13287 0.0
N543 N 0.24715 0.48293 0.96159 0.0
H544 H 0.16342 0.5133 0.95868 0.0
H545 H 0.18635 0.48983 0.91995 0.0
H546 H 0.27001 0.47527 0.96019 0.0
H547 H 0.22071 0.46248 0.93848 0.0
H548 H 0.27208 0.60387 0.1694 0.0
H549 H 0.22684 0.59769 0.13861 0.0
H550 H 0.32719 0.6109 0.14025 0.0
H551 H 0.34703 0.58224 0.10933 0.0
C552 C 0.71564 0.2148 0.61175 0.0
C553 C 0.68043 0.21365 0.63573 0.0
C554 C 0.72093 0.28291 0.67377 0.0
C555 C 0.75362 0.28692 0.63688 0.0
N556 N 0.78831 0.2556 0.59046 0.0
N557 N 0.65388 0.23717 0.71636 0.0
C558 C 0.75318 0.252 0.61354 0.0
C559 C 0.68461 0.24454 0.67645 0.0
N560 N 0.71201 0.1808 0.58451 0.0
N561 N 0.72362 0.31618 0.70216 0.0
H562 H 0.62884 0.20817 0.722 0.0
H563 H 0.65509 0.25819 0.7482 0.0
H564 H 0.75077 0.34379 0.704 0.0
H565 H 0.69918 0.31658 0.72326 0.0
H566 H 0.73555 0.17939 0.56227 0.0
H567 H 0.68453 0.1533 0.58555 0.0
H568 H 0.79094 0.23165 0.5726 0.0
H569 H 0.81578 0.28307 0.59256 0.0
C570 C 0.49234 0.70161 0.02764 0.0
C571 C 0.4615 0.66829 0.06056 0.0
C572 C 0.43591 0.71084 0.10209 0.0
C573 C 0.46156 0.74173 0.06016 0.0
N574 N 0.52228 0.77275 0.99853 0.0
N575 N 0.42046 0.64759 0.15233 0.0
C576 C 0.49294 0.73928 0.02856 0.0
C577 C 0.43885 0.6751 0.10604 0.0
N578 N 0.51959 0.69611 0.99386 0.0
N579 N 0.40713 0.71449 0.13476 0.0
H580 H 0.42567 0.6234 0.15879 0.0
H581 H 0.40421 0.6512 0.18803 0.0
H582 H 0.40523 0.74088 0.13433 0.0
H583 H 0.38425 0.6909 0.16021 0.0
H584 H 0.54118 0.71765 0.96436 0.0
H585 H 0.52049 0.66914 0.99646 0.0
H586 H 0.54682 0.77389 0.97536 0.0
H587 H 0.52319 0.80063 1.00008 0.0
loop_
_geom_bond_atom_site_label_1
_geom_bond_atom_site_label_2
_geom_bond_distance
_geom_bond_site_symmetry_2
_ccdc_geom_bond_type
In0 O1 2.296 . S
In0 O2 2.328 . S
In0 O6 2.266 1_554 S
In0 O7 2.324 1_554 S
In0 O8 2.265 1_554 S
In0 O9 2.326 . S
In0 O11 2.293 1_554 S
In0 O12 2.326 . S
O1 In0 2.296 . S
O1 C10 1.240 . S
O2 In0 2.328 . S
O2 C10 1.252 . S
C3 O6 1.252 . S
C3 O7 1.260 . S
C4 O11 1.240 . S
C4 O12 1.252 1_556 S
C5 O8 1.252 . S
C5 O9 1.260 1_556 S
O6 In0 2.266 1_556 S
O6 C3 1.252 . S
O7 In0 2.324 1_556 S
O7 C3 1.260 . S
O8 In0 2.265 1_556 S
O8 C5 1.252 . S
O9 In0 2.326 . S
O9 C5 1.260 1_554 S
C10 O1 1.240 . S
C10 O2 1.252 . S
O11 In0 2.293 1_556 S
O11 C4 1.240 . S
O12 In0 2.326 . S
O12 C4 1.252 1_554 S
In13 O14 2.294 . S
In13 O15 2.326 . S
In13 O19 2.266 . S
In13 O20 2.326 . S
In13 O21 2.266 . S
In13 O22 2.326 . S
In13 O24 2.294 . S
In13 O25 2.326 . S
O14 In13 2.294 . S
O14 C23 1.240 . S
O15 In13 2.326 . S
O15 C23 1.252 . S
C16 O19 1.252 . S
C16 O20 1.260 . S
C17 O24 1.240 . S
C17 O25 1.252 . S
C18 O21 1.252 . S
C18 O22 1.260 . S
O19 In13 2.266 . S
O19 C16 1.252 . S
O20 In13 2.326 . S
O20 C16 1.260 . S
O21 In13 2.266 . S
O21 C18 1.252 . S
O22 In13 2.326 . S
O22 C18 1.260 . S
C23 O14 1.240 . S
C23 O15 1.252 . S
O24 In13 2.294 . S
O24 C17 1.240 . S
O25 In13 2.326 . S
O25 C17 1.252 . S
In26 O27 2.293 1_554 S
In26 O28 2.326 . S
In26 O32 2.265 1_554 S
In26 O33 2.326 . S
In26 O34 2.266 1_554 S
In26 O35 2.324 1_554 S
In26 O37 2.296 . S
In26 O38 2.328 . S
O27 In26 2.293 1_556 S
O27 C36 1.240 . S
O28 In26 2.326 . S
O28 C36 1.252 1_554 S
C29 O32 1.252 . S
C29 O33 1.260 1_556 S
C30 O37 1.240 . S
C30 O38 1.252 . S
C31 O34 1.252 . S
C31 O35 1.260 . S
O32 In26 2.265 1_556 S
O32 C29 1.252 . S
O33 In26 2.326 . S
O33 C29 1.260 1_554 S
O34 In26 2.266 1_556 S
O34 C31 1.252 . S
O35 In26 2.324 1_556 S
O35 C31 1.260 . S
C36 O27 1.240 . S
C36 O28 1.252 1_556 S
O37 In26 2.296 . S
O37 C30 1.240 . S
O38 In26 2.328 . S
O38 C30 1.252 . S
In39 O40 2.294 . S
In39 O41 2.326 . S
In39 O45 2.266 . S
In39 O46 2.326 . S
In39 O47 2.266 . S
In39 O48 2.326 . S
In39 O50 2.294 . S
In39 O51 2.326 . S
O40 In39 2.294 . S
O40 C49 1.240 . S
O41 In39 2.326 . S
O41 C49 1.252 . S
C42 O45 1.252 . S
C42 O46 1.260 . S
C43 O50 1.240 . S
C43 O51 1.252 . S
C44 O47 1.252 . S
C44 O48 1.260 . S
O45 In39 2.266 . S
O45 C42 1.252 . S
O46 In39 2.326 . S
O46 C42 1.260 . S
O47 In39 2.266 . S
O47 C44 1.252 . S
O48 In39 2.326 . S
O48 C44 1.260 . S
C49 O40 1.240 . S
C49 O41 1.252 . S
O50 In39 2.294 . S
O50 C43 1.240 . S
O51 In39 2.326 . S
O51 C43 1.252 . S
In52 O53 2.296 . S
In52 O54 2.328 . S
In52 O58 2.266 1_554 S
In52 O59 2.324 1_554 S
In52 O60 2.265 1_554 S
In52 O61 2.326 . S
In52 O63 2.293 1_554 S
In52 O64 2.326 . S
O53 In52 2.296 . S
O53 C62 1.240 . S
O54 In52 2.328 . S
O54 C62 1.252 . S
C55 O58 1.252 . S
C55 O59 1.260 . S
C56 O63 1.240 . S
C56 O64 1.252 1_556 S
C57 O60 1.252 . S
C57 O61 1.260 1_556 S
O58 In52 2.266 1_556 S
O58 C55 1.252 . S
O59 In52 2.324 1_556 S
O59 C55 1.260 . S
O60 In52 2.265 1_556 S
O60 C57 1.252 . S
O61 In52 2.326 . S
O61 C57 1.260 1_554 S
C62 O53 1.240 . S
C62 O54 1.252 . S
O63 In52 2.293 1_556 S
O63 C56 1.240 . S
O64 In52 2.326 . S
O64 C56 1.252 1_554 S
In65 O66 2.294 . S
In65 O67 2.326 . S
In65 O71 2.266 . S
In65 O72 2.326 . S
In65 O73 2.266 . S
In65 O74 2.326 . S
In65 O76 2.294 . S
In65 O77 2.326 . S
O66 In65 2.294 . S
O66 C75 1.240 . S
O67 In65 2.326 . S
O67 C75 1.252 . S
C68 O71 1.252 . S
C68 O72 1.260 . S
C69 O76 1.240 . S
C69 O77 1.252 . S
C70 O73 1.252 . S
C70 O74 1.260 . S
O71 In65 2.266 . S
O71 C68 1.252 . S
O72 In65 2.326 . S
O72 C68 1.260 . S
O73 In65 2.266 . S
O73 C70 1.252 . S
O74 In65 2.326 . S
O74 C70 1.260 . S
C75 O66 1.240 . S
C75 O67 1.252 . S
O76 In65 2.294 . S
O76 C69 1.240 . S
O77 In65 2.326 . S
O77 C69 1.252 . S
In78 O79 2.294 . S
In78 O80 2.326 . S
In78 O84 2.266 . S
In78 O85 2.326 . S
In78 O86 2.266 . S
In78 O87 2.326 . S
In78 O89 2.294 . S
In78 O90 2.326 . S
O79 In78 2.294 . S
O79 C88 1.240 . S
O80 In78 2.326 . S
O80 C88 1.252 . S
C81 O84 1.252 . S
C81 O85 1.260 . S
C82 O89 1.240 . S
C82 O90 1.252 . S
C83 O86 1.252 . S
C83 O87 1.260 . S
O84 In78 2.266 . S
O84 C81 1.252 . S
O85 In78 2.326 . S
O85 C81 1.260 . S
O86 In78 2.266 . S
O86 C83 1.252 . S
O87 In78 2.326 . S
O87 C83 1.260 . S
C88 O79 1.240 . S
C88 O80 1.252 . S
O89 In78 2.294 . S
O89 C82 1.240 . S
O90 In78 2.326 . S
O90 C82 1.252 . S
In91 O92 2.293 1_556 S
In91 O93 2.326 . S
In91 O97 2.265 1_556 S
In91 O98 2.326 . S
In91 O99 2.266 1_556 S
In91 O100 2.324 1_556 S
In91 O102 2.296 . S
In91 O103 2.328 . S
O92 In91 2.293 1_554 S
O92 C101 1.240 . S
O93 In91 2.326 . S
O93 C101 1.252 1_556 S
C94 O97 1.252 . S
C94 O98 1.260 1_554 S
C95 O102 1.240 . S
C95 O103 1.252 . S
C96 O99 1.252 . S
C96 O100 1.260 . S
O97 In91 2.265 1_554 S
O97 C94 1.252 . S
O98 In91 2.326 . S
O98 C94 1.260 1_556 S
O99 In91 2.266 1_554 S
O99 C96 1.252 . S
O100 In91 2.324 1_554 S
O100 C96 1.260 . S
C101 O92 1.240 . S
C101 O93 1.252 1_554 S
O102 In91 2.296 . S
O102 C95 1.240 . S
O103 In91 2.328 . S
O103 C95 1.252 . S
In104 O105 2.294 . S
In104 O106 2.326 . S
In104 O110 2.266 . S
In104 O111 2.326 . S
In104 O112 2.266 . S
In104 O113 2.326 . S
In104 O115 2.294 . S
In104 O116 2.326 . S
O105 In104 2.294 . S
O105 C114 1.240 . S
O106 In104 2.326 . S
O106 C114 1.252 . S
C107 O110 1.252 . S
C107 O111 1.260 . S
C108 O115 1.240 . S
C108 O116 1.252 . S
C109 O112 1.252 . S
C109 O113 1.260 . S
O110 In104 2.266 . S
O110 C107 1.252 . S
O111 In104 2.326 . S
O111 C107 1.260 . S
O112 In104 2.266 . S
O112 C109 1.252 . S
O113 In104 2.326 . S
O113 C109 1.260 . S
C114 O105 1.240 . S
C114 O106 1.252 . S
O115 In104 2.294 . S
O115 C108 1.240 . S
O116 In104 2.326 . S
O116 C108 1.252 . S
In117 O118 2.293 1_556 S
In117 O119 2.326 . S
In117 O123 2.265 1_556 S
In117 O124 2.326 . S
In117 O125 2.266 1_556 S
In117 O126 2.324 1_556 S
In117 O128 2.296 . S
In117 O129 2.328 . S
O118 In117 2.293 1_554 S
O118 C127 1.240 . S
O119 In117 2.326 . S
O119 C127 1.252 1_556 S
C120 O123 1.252 . S
C120 O124 1.260 1_554 S
C121 O128 1.240 . S
C121 O129 1.252 . S
C122 O125 1.252 . S
C122 O126 1.260 . S
O123 In117 2.265 1_554 S
O123 C120 1.252 . S
O124 In117 2.326 . S
O124 C120 1.260 1_556 S
O125 In117 2.266 1_554 S
O125 C122 1.252 . S
O126 In117 2.324 1_554 S
O126 C122 1.260 . S
C127 O118 1.240 . S
C127 O119 1.252 1_554 S
O128 In117 2.296 . S
O128 C121 1.240 . S
O129 In117 2.328 . S
O129 C121 1.252 . S
In130 O131 2.294 . S
In130 O132 2.326 . S
In130 O136 2.266 . S
In130 O137 2.326 . S
In130 O138 2.266 . S
In130 O139 2.326 . S
In130 O141 2.294 . S
In130 O142 2.326 . S
O131 In130 2.294 . S
O131 C140 1.240 . S
O132 In130 2.326 . S
O132 C140 1.252 . S
C133 O136 1.252 . S
C133 O137 1.260 . S
C134 O141 1.240 . S
C134 O142 1.252 . S
C135 O138 1.252 . S
C135 O139 1.260 . S
O136 In130 2.266 . S
O136 C133 1.252 . S
O137 In130 2.326 . S
O137 C133 1.260 . S
O138 In130 2.266 . S
O138 C135 1.252 . S
O139 In130 2.326 . S
O139 C135 1.260 . S
C140 O131 1.240 . S
C140 O132 1.252 . S
O141 In130 2.294 . S
O141 C134 1.240 . S
O142 In130 2.326 . S
O142 C134 1.252 . S
In143 O144 2.293 1_556 S
In143 O145 2.326 . S
In143 O149 2.265 1_556 S
In143 O150 2.326 . S
In143 O151 2.266 1_556 S
In143 O152 2.324 1_556 S
In143 O154 2.296 . S
In143 O155 2.328 . S
O144 In143 2.293 1_554 S
O144 C153 1.240 . S
O145 In143 2.326 . S
O145 C153 1.252 1_556 S
C146 O149 1.252 . S
C146 O150 1.260 1_554 S
C147 O154 1.240 . S
C147 O155 1.252 . S
C148 O151 1.252 . S
C148 O152 1.260 . S
O149 In143 2.265 1_554 S
O149 C146 1.252 . S
O150 In143 2.326 . S
O150 C146 1.260 1_556 S
O151 In143 2.266 1_554 S
O151 C148 1.252 . S
O152 In143 2.324 1_554 S
O152 C148 1.260 . S
C153 O144 1.240 . S
C153 O145 1.252 1_554 S
O154 In143 2.296 . S
O154 C147 1.240 . S
O155 In143 2.328 . S
O155 C147 1.252 . S
C156 C157 1.363 . S
C156 C162 1.379 . S
C156 N164 1.356 . S
C157 C156 1.363 . S
C157 C163 1.363 . S
C158 C159 1.363 . S
C158 C163 1.379 . S
C158 N165 1.356 . S
C159 C158 1.363 . S
C159 C162 1.363 . S
N160 C162 1.356 . S
N160 H172 0.984 . S
N160 H173 0.985 . S
N161 C163 1.356 . S
N161 H166 0.984 . S
N161 H167 0.985 . S
C162 C156 1.379 . S
C162 C159 1.363 . S
C162 N160 1.356 . S
C163 C157 1.363 . S
C163 C158 1.379 . S
C163 N161 1.356 . S
N164 C156 1.356 . S
N164 H170 0.984 . S
N164 H171 0.984 . S
N165 C158 1.356 . S
N165 H168 0.984 . S
N165 H169 0.985 . S
H166 N161 0.984 . S
H167 N161 0.985 . S
H168 N165 0.984 . S
H169 N165 0.985 . S
H170 N164 0.984 . S
H171 N164 0.984 . S
H172 N160 0.984 . S
H173 N160 0.985 . S
C174 C175 1.363 . S
C174 C180 1.379 . S
C174 N182 1.356 . S
C175 C174 1.363 . S
C175 C181 1.363 . S
C176 C177 1.363 . S
C176 C181 1.379 . S
C176 N183 1.356 . S
C177 C176 1.363 . S
C177 C180 1.363 . S
N178 C180 1.356 . S
N178 H190 0.984 . S
N178 H191 0.985 . S
N179 C181 1.356 . S
N179 H184 0.984 . S
N179 H185 0.985 . S
C180 C174 1.379 . S
C180 C177 1.363 . S
C180 N178 1.356 . S
C181 C175 1.363 . S
C181 C176 1.379 . S
C181 N179 1.356 . S
N182 C174 1.356 . S
N182 H188 0.984 . S
N182 H189 0.984 . S
N183 C176 1.356 . S
N183 H186 0.984 . S
N183 H187 0.985 . S
H184 N179 0.984 . S
H185 N179 0.985 . S
H186 N183 0.984 . S
H187 N183 0.985 . S
H188 N182 0.984 . S
H189 N182 0.984 . S
H190 N178 0.984 . S
H191 N178 0.985 . S
C192 C193 1.363 . S
C192 C198 1.379 . S
C192 N200 1.356 . S
C193 C192 1.363 . S
C193 C199 1.363 . S
C194 C195 1.363 . S
C194 C199 1.379 . S
C194 N201 1.356 . S
C195 C194 1.363 . S
C195 C198 1.363 . S
N196 C198 1.356 . S
N196 H208 0.984 . S
N196 H209 0.985 . S
N197 C199 1.356 . S
N197 H202 0.984 . S
N197 H203 0.985 . S
C198 C192 1.379 . S
C198 C195 1.363 . S
C198 N196 1.356 . S
C199 C193 1.363 . S
C199 C194 1.379 . S
C199 N197 1.356 . S
N200 C192 1.356 . S
N200 H206 0.984 . S
N200 H207 0.984 . S
N201 C194 1.356 . S
N201 H204 0.984 . S
N201 H205 0.985 . S
H202 N197 0.984 . S
H203 N197 0.985 . S
H204 N201 0.984 . S
H205 N201 0.985 . S
H206 N200 0.984 . S
H207 N200 0.984 . S
H208 N196 0.984 . S
H209 N196 0.985 . S
C210 C211 1.363 . S
C210 C216 1.379 . S
C210 N218 1.356 . S
C211 C210 1.363 . S
C211 C217 1.363 . S
C212 C213 1.363 . S
C212 C217 1.379 . S
C212 N219 1.356 . S
C213 C212 1.363 . S
C213 C216 1.363 . S
N214 C216 1.356 . S
N214 H226 0.984 . S
N214 H227 0.985 . S
N215 C217 1.356 . S
N215 H220 0.984 . S
N215 H221 0.985 . S
C216 C210 1.379 . S
C216 C213 1.363 . S
C216 N214 1.356 . S
C217 C211 1.363 . S
C217 C212 1.379 . S
C217 N215 1.356 . S
N218 C210 1.356 . S
N218 H224 0.984 . S
N218 H225 0.984 . S
N219 C212 1.356 . S
N219 H222 0.984 . S
N219 H223 0.985 . S
H220 N215 0.984 . S
H221 N215 0.985 . S
H222 N219 0.984 . S
H223 N219 0.985 . S
H224 N218 0.984 . S
H225 N218 0.984 . S
H226 N214 0.984 . S
H227 N214 0.985 . S
C228 C229 1.363 . S
C228 C234 1.379 . S
C228 N236 1.356 . S
C229 C228 1.363 . S
C229 C235 1.363 . S
C230 C231 1.363 . S
C230 C235 1.379 . S
C230 N237 1.356 . S
C231 C230 1.363 . S
C231 C234 1.363 . S
N232 C234 1.356 . S
N232 H244 0.984 . S
N232 H245 0.985 . S
N233 C235 1.356 . S
N233 H238 0.984 . S
N233 H239 0.985 . S
C234 C228 1.379 . S
C234 C231 1.363 . S
C234 N232 1.356 . S
C235 C229 1.363 . S
C235 C230 1.379 . S
C235 N233 1.356 . S
N236 C228 1.356 . S
N236 H242 0.984 . S
N236 H243 0.984 . S
N237 C230 1.356 . S
N237 H240 0.984 . S
N237 H241 0.985 . S
H238 N233 0.984 . S
H239 N233 0.985 . S
H240 N237 0.984 . S
H241 N237 0.985 . S
H242 N236 0.984 . S
H243 N236 0.984 . S
H244 N232 0.984 . S
H245 N232 0.985 . S
C246 C247 1.363 . S
C246 C252 1.379 . S
C246 N254 1.356 . S
C247 C246 1.363 . S
C247 C253 1.363 . S
C248 C249 1.363 . S
C248 C253 1.379 . S
C248 N255 1.356 . S
C249 C248 1.363 . S
C249 C252 1.363 . S
N250 C252 1.356 . S
N250 H262 0.984 . S
N250 H263 0.985 . S
N251 C253 1.356 . S
N251 H256 0.984 . S
N251 H257 0.985 . S
C252 C246 1.379 . S
C252 C249 1.363 . S
C252 N250 1.356 . S
C253 C247 1.363 . S
C253 C248 1.379 . S
C253 N251 1.356 . S
N254 C246 1.356 . S
N254 H260 0.984 . S
N254 H261 0.984 . S
N255 C248 1.356 . S
N255 H258 0.984 . S
N255 H259 0.985 . S
H256 N251 0.984 . S
H257 N251 0.985 . S
H258 N255 0.984 . S
H259 N255 0.985 . S
H260 N254 0.984 . S
H261 N254 0.984 . S
H262 N250 0.984 . S
H263 N250 0.985 . S
C264 C265 1.363 1_554 S
C264 C270 1.379 1_545 S
C264 N272 1.356 . S
C265 C264 1.363 1_556 S
C265 C271 1.363 . S
C266 C267 1.363 1_556 S
C266 C271 1.379 1_565 S
C266 N273 1.356 . S
C267 C266 1.363 1_554 S
C267 C270 1.363 . S
N268 C270 1.356 . S
N268 H280 0.984 . S
N268 H281 0.985 . S
N269 C271 1.356 . S
N269 H274 0.984 . S
N269 H275 0.985 . S
C270 C264 1.379 1_565 S
C270 C267 1.363 . S
C270 N268 1.356 . S
C271 C265 1.363 . S
C271 C266 1.379 1_545 S
C271 N269 1.356 . S
N272 C264 1.356 . S
N272 H278 0.984 . S
N272 H279 0.984 . S
N273 C266 1.356 . S
N273 H276 0.984 . S
N273 H277 0.985 . S
H274 N269 0.984 . S
H275 N269 0.985 . S
H276 N273 0.984 . S
H277 N273 0.985 . S
H278 N272 0.984 . S
H279 N272 0.984 . S
H280 N268 0.984 . S
H281 N268 0.985 . S
C282 C283 1.363 . S
C282 C288 1.379 . S
C282 N290 1.356 . S
C283 C282 1.363 . S
C283 C289 1.363 . S
C284 C285 1.363 . S
C284 C289 1.379 . S
C284 N291 1.356 . S
C285 C284 1.363 . S
C285 C288 1.363 . S
N286 C288 1.356 . S
N286 H298 0.984 . S
N286 H299 0.985 . S
N287 C289 1.356 . S
N287 H292 0.984 . S
N287 H293 0.985 . S
C288 C282 1.379 . S
C288 C285 1.363 . S
C288 N286 1.356 . S
C289 C283 1.363 . S
C289 C284 1.379 . S
C289 N287 1.356 . S
N290 C282 1.356 . S
N290 H296 0.984 . S
N290 H297 0.984 . S
N291 C284 1.356 . S
N291 H294 0.984 . S
N291 H295 0.985 . S
H292 N287 0.984 . S
H293 N287 0.985 . S
H294 N291 0.984 . S
H295 N291 0.985 . S
H296 N290 0.984 . S
H297 N290 0.984 . S
H298 N286 0.984 . S
H299 N286 0.985 . S
C300 C301 1.363 1_556 S
C300 C306 1.379 1_455 S
C300 N308 1.356 . S
C301 C300 1.363 1_554 S
C301 C307 1.363 . S
C302 C303 1.363 1_554 S
C302 C307 1.379 1_655 S
C302 N309 1.356 . S
C303 C302 1.363 1_556 S
C303 C306 1.363 . S
N304 C306 1.356 . S
N304 H316 0.984 . S
N304 H317 0.985 . S
N305 C307 1.356 . S
N305 H310 0.984 . S
N305 H311 0.985 . S
C306 C300 1.379 1_655 S
C306 C303 1.363 . S
C306 N304 1.356 . S
C307 C301 1.363 . S
C307 C302 1.379 1_455 S
C307 N305 1.356 . S
N308 C300 1.356 . S
N308 H314 0.984 . S
N308 H315 0.984 . S
N309 C302 1.356 . S
N309 H312 0.984 . S
N309 H313 0.985 . S
H310 N305 0.984 . S
H311 N305 0.985 . S
H312 N309 0.984 . S
H313 N309 0.985 . S
H314 N308 0.984 . S
H315 N308 0.984 . S
H316 N304 0.984 . S
H317 N304 0.985 . S
C318 C319 1.363 . S
C318 C324 1.379 1_545 S
C318 N326 1.356 . S
C319 C318 1.363 . S
C319 C325 1.363 . S
C320 C321 1.363 . S
C320 C325 1.379 1_565 S
C320 N327 1.356 . S
C321 C320 1.363 . S
C321 C324 1.363 . S
N322 C324 1.356 . S
N322 H334 0.984 . S
N322 H335 0.985 . S
N323 C325 1.356 . S
N323 H328 0.984 . S
N323 H329 0.985 . S
C324 C318 1.379 1_565 S
C324 C321 1.363 . S
C324 N322 1.356 . S
C325 C319 1.363 . S
C325 C320 1.379 1_545 S
C325 N323 1.356 . S
N326 C318 1.356 . S
N326 H332 0.984 . S
N326 H333 0.984 . S
N327 C320 1.356 . S
N327 H330 0.984 . S
N327 H331 0.985 . S
H328 N323 0.984 . S
H329 N323 0.985 . S
H330 N327 0.984 . S
H331 N327 0.985 . S
H332 N326 0.984 . S
H333 N326 0.984 . S
H334 N322 0.984 . S
H335 N322 0.985 . S
C336 C337 1.363 1_556 S
C336 C342 1.379 . S
C336 N344 1.356 . S
C337 C336 1.363 1_554 S
C337 C343 1.363 . S
C338 C339 1.363 1_554 S
C338 C343 1.379 . S
C338 N345 1.356 . S
C339 C338 1.363 1_556 S
C339 C342 1.363 . S
N340 C342 1.356 . S
N340 H352 0.984 . S
N340 H353 0.985 . S
N341 C343 1.356 . S
N341 H346 0.984 . S
N341 H347 0.985 . S
C342 C336 1.379 . S
C342 C339 1.363 . S
C342 N340 1.356 . S
C343 C337 1.363 . S
C343 C338 1.379 . S
C343 N341 1.356 . S
N344 C336 1.356 . S
N344 H350 0.984 . S
N344 H351 0.984 . S
N345 C338 1.356 . S
N345 H348 0.984 . S
N345 H349 0.985 . S
H346 N341 0.984 . S
H347 N341 0.985 . S
H348 N345 0.984 . S
H349 N345 0.985 . S
H350 N344 0.984 . S
H351 N344 0.984 . S
H352 N340 0.984 . S
H353 N340 0.985 . S
C354 C355 1.363 . S
C354 C360 1.379 1_655 S
C354 N362 1.356 . S
C355 C354 1.363 . S
C355 C361 1.363 . S
C356 C357 1.363 . S
C356 C361 1.379 1_455 S
C356 N363 1.356 . S
C357 C356 1.363 . S
C357 C360 1.363 . S
N358 C360 1.356 . S
N358 H370 0.984 . S
N358 H371 0.985 . S
N359 C361 1.356 . S
N359 H364 0.984 . S
N359 H365 0.985 . S
C360 C354 1.379 1_455 S
C360 C357 1.363 . S
C360 N358 1.356 . S
C361 C355 1.363 . S
C361 C356 1.379 1_655 S
C361 N359 1.356 . S
N362 C354 1.356 . S
N362 H368 0.984 . S
N362 H369 0.984 . S
N363 C356 1.356 . S
N363 H366 0.984 . S
N363 H367 0.985 . S
H364 N359 0.984 . S
H365 N359 0.985 . S
H366 N363 0.984 . S
H367 N363 0.985 . S
H368 N362 0.984 . S
H369 N362 0.984 . S
H370 N358 0.984 . S
H371 N358 0.985 . S
C372 C373 1.363 . S
C372 C378 1.379 . S
C372 N380 1.356 1_556 S
C373 C372 1.363 . S
C373 C379 1.363 . S
C374 C375 1.363 . S
C374 C379 1.379 . S
C374 N381 1.356 . S
C375 C374 1.363 . S
C375 C378 1.363 . S
N376 C378 1.356 1_554 S
N376 H388 0.984 . S
N376 H389 0.985 1_554 S
N377 C379 1.356 . S
N377 H382 0.984 . S
N377 H383 0.985 . S
C378 C372 1.379 . S
C378 C375 1.363 . S
C378 N376 1.356 1_556 S
C379 C373 1.363 . S
C379 C374 1.379 . S
C379 N377 1.356 . S
N380 C372 1.356 1_554 S
N380 H386 0.984 . S
N380 H387 0.984 . S
N381 C374 1.356 . S
N381 H384 0.984 . S
N381 H385 0.985 . S
H382 N377 0.984 . S
H383 N377 0.985 . S
H384 N381 0.984 . S
H385 N381 0.985 . S
H386 N380 0.984 . S
H387 N380 0.984 . S
H388 N376 0.984 . S
H389 N376 0.985 1_556 S
C390 C391 1.363 . S
C390 C396 1.379 . S
C390 N398 1.356 . S
C391 C390 1.363 . S
C391 C397 1.363 . S
C392 C393 1.363 . S
C392 C397 1.379 . S
C392 N399 1.356 . S
C393 C392 1.363 . S
C393 C396 1.363 . S
N394 C396 1.356 . S
N394 H406 0.984 . S
N394 H407 0.985 . S
N395 C397 1.356 . S
N395 H400 0.984 . S
N395 H401 0.985 . S
C396 C390 1.379 . S
C396 C393 1.363 . S
C396 N394 1.356 . S
C397 C391 1.363 . S
C397 C392 1.379 . S
C397 N395 1.356 . S
N398 C390 1.356 . S
N398 H404 0.984 . S
N398 H405 0.984 . S
N399 C392 1.356 . S
N399 H402 0.984 . S
N399 H403 0.985 . S
H400 N395 0.984 . S
H401 N395 0.985 . S
H402 N399 0.984 . S
H403 N399 0.985 . S
H404 N398 0.984 . S
H405 N398 0.984 . S
H406 N394 0.984 . S
H407 N394 0.985 . S
C408 C409 1.363 . S
C408 C414 1.379 . S
C408 N416 1.356 . S
C409 C408 1.363 . S
C409 C415 1.363 . S
C410 C411 1.363 . S
C410 C415 1.379 . S
C410 N417 1.361 . S
C411 C410 1.363 . S
C411 C414 1.363 . S
N412 C414 1.356 . S
N412 H424 0.984 . S
N412 H425 0.985 . S
N413 C415 1.356 1_554 S
N413 H418 0.984 . S
N413 H419 0.985 . S
C414 C408 1.379 . S
C414 C411 1.363 . S
C414 N412 1.356 . S
C415 C409 1.363 . S
C415 C410 1.379 . S
C415 N413 1.356 1_556 S
N416 C408 1.356 . S
N416 H422 0.984 . S
N416 H423 0.984 . S
N417 C410 1.361 . S
N417 H420 0.990 . S
N417 H421 0.974 1_556 S
H418 N413 0.984 . S
H419 N413 0.985 . S
H420 N417 0.990 . S
H421 N417 0.974 1_554 S
H422 N416 0.984 . S
H423 N416 0.984 . S
H424 N412 0.984 . S
H425 N412 0.985 . S
C426 C427 1.363 . S
C426 C432 1.379 . S
C426 N434 1.356 . S
C427 C426 1.363 . S
C427 C433 1.363 . S
C428 C429 1.363 . S
C428 C433 1.379 . S
C428 N435 1.356 . S
C429 C428 1.363 . S
C429 C432 1.363 . S
N430 C432 1.356 . S
N430 H442 0.984 . S
N430 H443 0.985 . S
N431 C433 1.356 . S
N431 H436 0.984 . S
N431 H437 0.985 . S
C432 C426 1.379 . S
C432 C429 1.363 . S
C432 N430 1.356 . S
C433 C427 1.363 . S
C433 C428 1.379 . S
C433 N431 1.356 . S
N434 C426 1.356 . S
N434 H440 0.984 . S
N434 H441 0.984 . S
N435 C428 1.356 . S
N435 H438 0.984 . S
N435 H439 0.985 . S
H436 N431 0.984 . S
H437 N431 0.985 . S
H438 N435 0.984 . S
H439 N435 0.985 . S
H440 N434 0.984 . S
H441 N434 0.984 . S
H442 N430 0.984 . S
H443 N430 0.985 . S
C444 C445 1.363 . S
C444 C450 1.379 . S
C444 N452 1.356 1_556 S
C445 C444 1.363 . S
C445 C451 1.363 . S
C446 C447 1.363 . S
C446 C451 1.379 . S
C446 N453 1.356 . S
C447 C446 1.363 . S
C447 C450 1.363 . S
N448 C450 1.356 . S
N448 H460 0.984 1_556 S
N448 H461 0.985 . S
N449 C451 1.356 . S
N449 H454 0.984 . S
N449 H455 0.985 . S
C450 C444 1.379 . S
C450 C447 1.363 . S
C450 N448 1.356 . S
C451 C445 1.363 . S
C451 C446 1.379 . S
C451 N449 1.356 . S
N452 C444 1.356 1_554 S
N452 H458 0.984 . S
N452 H459 0.984 . S
N453 C446 1.356 . S
N453 H456 0.984 . S
N453 H457 0.985 . S
H454 N449 0.984 . S
H455 N449 0.985 . S
H456 N453 0.984 . S
H457 N453 0.985 . S
H458 N452 0.984 . S
H459 N452 0.984 . S
H460 N448 0.984 1_554 S
H461 N448 0.985 . S
C462 C463 1.363 . S
C462 C468 1.379 . S
C462 N470 1.356 . S
C463 C462 1.363 . S
C463 C469 1.363 . S
C464 C465 1.363 . S
C464 C469 1.379 . S
C464 N471 1.356 . S
C465 C464 1.363 . S
C465 C468 1.363 . S
N466 C468 1.356 . S
N466 H478 0.984 . S
N466 H479 0.985 . S
N467 C469 1.356 . S
N467 H472 0.984 . S
N467 H473 0.985 . S
C468 C462 1.379 . S
C468 C465 1.363 . S
C468 N466 1.356 . S
C469 C463 1.363 . S
C469 C464 1.379 . S
C469 N467 1.356 . S
N470 C462 1.356 . S
N470 H476 0.984 . S
N470 H477 0.984 . S
N471 C464 1.356 . S
N471 H474 0.984 . S
N471 H475 0.985 . S
H472 N467 0.984 . S
H473 N467 0.985 . S
H474 N471 0.984 . S
H475 N471 0.985 . S
H476 N470 0.984 . S
H477 N470 0.984 . S
H478 N466 0.984 . S
H479 N466 0.985 . S
C480 C481 1.363 . S
C480 C486 1.379 . S
C480 N488 1.356 . S
C481 C480 1.363 . S
C481 C487 1.363 . S
C482 C483 1.363 . S
C482 C487 1.379 . S
C482 N489 1.356 . S
C483 C482 1.363 . S
C483 C486 1.363 . S
N484 C486 1.356 . S
N484 H496 0.984 . S
N484 H497 0.985 . S
N485 C487 1.356 . S
N485 H490 0.984 . S
N485 H491 0.985 . S
C486 C480 1.379 . S
C486 C483 1.363 . S
C486 N484 1.356 . S
C487 C481 1.363 . S
C487 C482 1.379 . S
C487 N485 1.356 . S
N488 C480 1.356 . S
N488 H494 0.984 . S
N488 H495 0.984 . S
N489 C482 1.356 . S
N489 H492 0.984 . S
N489 H493 0.985 . S
H490 N485 0.984 . S
H491 N485 0.985 . S
H492 N489 0.984 . S
H493 N489 0.985 . S
H494 N488 0.984 . S
H495 N488 0.984 . S
H496 N484 0.984 . S
H497 N484 0.985 . S
C498 C499 1.363 . S
C498 C504 1.379 . S
C498 N506 1.356 . S
C499 C498 1.363 . S
C499 C505 1.363 1_554 S
C500 C501 1.363 . S
C500 C505 1.379 1_554 S
C500 N507 1.356 1_554 S
C501 C500 1.363 . S
C501 C504 1.363 . S
N502 C504 1.356 . S
N502 H514 0.984 . S
N502 H515 0.985 . S
N503 C505 1.356 . S
N503 H508 0.984 . S
N503 H509 0.985 . S
C504 C498 1.379 . S
C504 C501 1.363 . S
C504 N502 1.356 . S
C505 C499 1.363 1_556 S
C505 C500 1.379 1_556 S
C505 N503 1.356 . S
N506 C498 1.356 . S
N506 H512 0.984 . S
N506 H513 0.984 . S
N507 C500 1.356 1_556 S
N507 H510 0.984 1_556 S
N507 H511 0.985 . S
H508 N503 0.984 . S
H509 N503 0.985 . S
H510 N507 0.984 1_554 S
H511 N507 0.985 . S
H512 N506 0.984 . S
H513 N506 0.984 . S
H514 N502 0.984 . S
H515 N502 0.985 . S
C516 C517 1.363 . S
C516 C522 1.379 . S
C516 N524 1.356 . S
C517 C516 1.363 . S
C517 C523 1.363 . S
C518 C519 1.363 . S
C518 C523 1.379 . S
C518 N525 1.356 . S
C519 C518 1.363 . S
C519 C522 1.363 . S
N520 C522 1.356 . S
N520 H532 0.984 . S
N520 H533 0.985 . S
N521 C523 1.356 . S
N521 H526 0.984 . S
N521 H527 0.985 . S
C522 C516 1.379 . S
C522 C519 1.363 . S
C522 N520 1.356 . S
C523 C517 1.363 . S
C523 C518 1.379 . S
C523 N521 1.356 . S
N524 C516 1.356 . S
N524 H530 0.984 . S
N524 H531 0.984 . S
N525 C518 1.356 . S
N525 H528 0.984 . S
N525 H529 0.985 . S
H526 N521 0.984 . S
H527 N521 0.985 . S
H528 N525 0.984 . S
H529 N525 0.985 . S
H530 N524 0.984 . S
H531 N524 0.984 . S
H532 N520 0.984 . S
H533 N520 0.985 . S
C534 C535 1.363 . S
C534 C540 1.379 . S
C534 N542 1.356 1_554 S
C535 C534 1.363 . S
C535 C541 1.363 . S
C536 C537 1.363 . S
C536 C541 1.379 . S
C536 N543 1.356 . S
C537 C536 1.363 . S
C537 C540 1.363 . S
N538 C540 1.356 . S
N538 H550 0.984 . S
N538 H551 0.985 . S
N539 C541 1.356 . S
N539 H544 0.984 . S
N539 H545 0.985 . S
C540 C534 1.379 . S
C540 C537 1.363 . S
C540 N538 1.356 . S
C541 C535 1.363 . S
C541 C536 1.379 . S
C541 N539 1.356 . S
N542 C534 1.356 1_556 S
N542 H548 0.984 . S
N542 H549 0.984 . S
N543 C536 1.356 . S
N543 H546 0.984 . S
N543 H547 0.985 . S
H544 N539 0.984 . S
H545 N539 0.985 . S
H546 N543 0.984 . S
H547 N543 0.985 . S
H548 N542 0.984 . S
H549 N542 0.984 . S
H550 N538 0.984 . S
H551 N538 0.985 . S
C552 C553 1.363 . S
C552 C558 1.379 . S
C552 N560 1.356 . S
C553 C552 1.363 . S
C553 C559 1.363 . S
C554 C555 1.363 . S
C554 C559 1.379 . S
C554 N561 1.356 . S
C555 C554 1.363 . S
C555 C558 1.363 . S
N556 C558 1.356 . S
N556 H568 0.984 . S
N556 H569 0.985 . S
N557 C559 1.356 . S
N557 H562 0.984 . S
N557 H563 0.985 . S
C558 C552 1.379 . S
C558 C555 1.363 . S
C558 N556 1.356 . S
C559 C553 1.363 . S
C559 C554 1.379 . S
C559 N557 1.356 . S
N560 C552 1.356 . S
N560 H566 0.984 . S
N560 H567 0.984 . S
N561 C554 1.356 . S
N561 H564 0.984 . S
N561 H565 0.985 . S
H562 N557 0.984 . S
H563 N557 0.985 . S
H564 N561 0.984 . S
H565 N561 0.985 . S
H566 N560 0.984 . S
H567 N560 0.984 . S
H568 N556 0.984 . S
H569 N556 0.985 . S
C570 C571 1.363 . S
C570 C576 1.379 . S
C570 N578 1.356 . S
C571 C570 1.363 . S
C571 C577 1.363 . S
C572 C573 1.363 . S
C572 C577 1.379 . S
C572 N579 1.356 . S
C573 C572 1.363 . S
C573 C576 1.363 . S
N574 C576 1.356 . S
N574 H586 0.984 . S
N574 H587 0.985 . S
N575 C577 1.356 . S
N575 H580 0.984 . S
N575 H581 0.985 . S
C576 C570 1.379 . S
C576 C573 1.363 . S
C576 N574 1.356 . S
C577 C571 1.363 . S
C577 C572 1.379 . S
C577 N575 1.356 . S
N578 C570 1.356 . S
N578 H584 0.984 . S
N578 H585 0.984 . S
N579 C572 1.356 . S
N579 H582 0.984 . S
N579 H583 0.985 . S
H580 N575 0.984 . S
H581 N575 0.985 . S
H582 N579 0.984 . S
H583 N579 0.985 . S
H584 N578 0.984 . S
H585 N578 0.984 . S
H586 N574 0.984 . S
H587 N574 0.985 . S
C157 C140 1.691 . S
C159 C10 1.686 . S
C175 C23 1.691 . S
C177 C147 1.687 . S
C193 C30 1.689 . S
C195 C82 1.689 . S
C211 C95 1.689 . S
C213 C43 1.689 . S
C229 C108 1.691 . S
C231 C62 1.686 . S
C247 C69 1.691 . S
C249 C121 1.687 . S
C265 C4 1.265 . S
C267 C101 1.265 . S
C283 C17 1.307 . S
C285 C114 1.307 . S
C301 C127 1.265 . S
C303 C36 1.264 . S
C319 C134 1.306 . S
C321 C49 1.306 . S
C337 C153 1.265 . S
C339 C56 1.264 . S
C355 C88 1.306 . S
C357 C75 1.306 . S
C373 C5 1.419 . S
C375 C55 1.299 . S
C391 C18 1.451 . S
C393 C70 1.328 . S
C409 C29 1.419 . S
C411 C3 1.299 . S
C427 C42 1.451 . S
C429 C16 1.328 . S
C445 C57 1.419 . S
C447 C31 1.299 . S
C463 C68 1.451 . S
C465 C44 1.328 . S
C481 C81 1.451 . S
C483 C109 1.328 . S
C499 C94 1.419 . S
C501 C122 1.299 . S
C517 C133 1.328 . S
C519 C107 1.451 . S
C535 C120 1.419 . S
C537 C148 1.299 . S
C553 C135 1.451 . S
C555 C83 1.328 . S
C571 C146 1.419 . S
C573 C96 1.299 . S
