# Generated by pormake.
# Topology smu, (6)-cn, num edge types: 1
# Building blocks:
#     Node 0, Type 0, BuildingBlock: JUFBIX_clean_sbu_0, # of connection points: 6
#     Node 1, Type 0, BuildingBlock: JUFBIX_clean_sbu_0, # of connection points: 6
#     Node 2, Type 0, BuildingBlock: JUFBIX_clean_sbu_0, # of connection points: 6
#     Node 3, Type 0, BuildingBlock: JUFBIX_clean_sbu_0, # of connection points: 6
#     Node 4, Type 0, BuildingBlock: JUFBIX_clean_sbu_0, # of connection points: 6
#     Node 5, Type 0, BuildingBlock: JUFBIX_clean_sbu_0, # of connection points: 6
#     Edge 6, Type (0, 0), BuildingBlock: TEMPAE_clean_linker_10, # of connection points: 2
#     Edge 7, Type (0, 0), BuildingBlock: TEMPAE_clean_linker_10, # of connection points: 2
#     Edge 8, Type (0, 0), BuildingBlock: TEMPAE_clean_linker_10, # of connection points: 2
#     Edge 9, Type (0, 0), BuildingBlock: TEMPAE_clean_linker_10, # of connection points: 2
#     Edge 10, Type (0, 0), BuildingBlock: TEMPAE_clean_linker_10, # of connection points: 2
#     Edge 11, Type (0, 0), BuildingBlock: TEMPAE_clean_linker_10, # of connection points: 2
#     Edge 12, Type (0, 0), BuildingBlock: TEMPAE_clean_linker_10, # of connection points: 2
#     Edge 13, Type (0, 0), BuildingBlock: TEMPAE_clean_linker_10, # of connection points: 2
#     Edge 14, Type (0, 0), BuildingBlock: TEMPAE_clean_linker_10, # of connection points: 2
#     Edge 15, Type (0, 0), BuildingBlock: TEMPAE_clean_linker_10, # of connection points: 2
#     Edge 16, Type (0, 0), BuildingBlock: TEMPAE_clean_linker_10, # of connection points: 2
#     Edge 17, Type (0, 0), BuildingBlock: TEMPAE_clean_linker_10, # of connection points: 2
#     Edge 18, Type (0, 0), BuildingBlock: TEMPAE_clean_linker_10, # of connection points: 2
#     Edge 19, Type (0, 0), BuildingBlock: TEMPAE_clean_linker_10, # of connection points: 2
#     Edge 20, Type (0, 0), BuildingBlock: TEMPAE_clean_linker_10, # of connection points: 2
#     Edge 21, Type (0, 0), BuildingBlock: TEMPAE_clean_linker_10, # of connection points: 2
#     Edge 22, Type (0, 0), BuildingBlock: TEMPAE_clean_linker_10, # of connection points: 2
#     Edge 23, Type (0, 0), BuildingBlock: TEMPAE_clean_linker_10, # of connection points: 2
# Relax obj value: 0.418
# Max RMSD: 0.302
# Mean RMSD: 0.301
data_MOF--net-smu--node1-JUFBIX_clean_sbu_0--edge1-TEMPAE_clean_linker_10
_symmetry_space_group_name_H-M    P1
_symmetry_Int_Tables_number       1
_symmetry_cell_setting            triclinic
loop_
_symmetry_equiv_pos_as_xyz
'x, y, z'
_cell_length_a     31.964193
_cell_length_b     31.988471
_cell_length_c     28.900409
_cell_angle_alpha  91.405408
_cell_angle_beta   89.926672
_cell_angle_gamma 120.07091
loop_
_atom_site_label
_atom_site_type_symbol
_atom_site_fract_x
_atom_site_fract_y
_atom_site_fract_z
_atom_type_partial_charge
Co0 Co 0.32467 0.04079 0.26169 0.0
C1 C 0.36039 0.09126 0.18267 0.0
Co2 Co 0.38403 0.11538 0.27763 0.0
C3 C 0.22809 0.96098 0.26663 0.0
C4 C 0.26886 0.94622 0.21676 0.0
N5 N 0.27313 0.97879 0.24965 0.0
N6 N 0.19552 0.91937 0.24493 0.0
C7 C 0.22117 0.90974 0.21367 0.0
H8 H 0.21866 0.98006 0.29221 0.0
H9 H 0.29784 0.95029 0.1945 0.0
C10 C 0.34579 0.05736 0.35569 0.0
N11 N 0.43363 0.17915 0.2898 0.0
C12 C 0.4369 0.22082 0.27562 0.0
C13 C 0.47353 0.19358 0.31618 0.0
N14 N 0.47723 0.26062 0.2921 0.0
C15 C 0.50031 0.24333 0.31754 0.0
C16 C 0.29489 0.10908 0.27589 0.0
O17 O 0.31935 0.028 0.32402 0.0
O18 O 0.37721 0.10057 0.34473 0.0
O19 O 0.33973 0.1366 0.2824 0.0
O20 O 0.27911 0.06448 0.26668 0.0
O21 O 0.38938 0.12609 0.20995 0.0
H22 H 0.48235 0.16945 0.33375 0.0
H23 H 0.41021 0.22186 0.25342 0.0
O24 O 0.32915 0.05185 0.19942 0.0
O25 O 0.37318 0.01983 0.25624 0.0
O26 O 0.42876 0.09522 0.27292 0.0
C27 C 0.41767 0.05215 0.26301 0.0
H28 H 0.20629 0.87948 0.18914 0.0
H29 H 0.53376 0.26505 0.33672 0.0
Co30 Co 0.75068 0.64002 0.25875 0.0
C31 C 0.74132 0.68081 0.17645 0.0
Co32 Co 0.73371 0.69882 0.26893 0.0
C33 C 0.80326 0.58632 0.26307 0.0
C34 C 0.73743 0.54897 0.22359 0.0
N35 N 0.76444 0.58967 0.24933 0.0
N36 N 0.80121 0.54514 0.24702 0.0
C37 C 0.75962 0.52164 0.22235 0.0
H38 H 0.83256 0.61359 0.28429 0.0
H39 H 0.7041 0.54008 0.20581 0.0
C40 C 0.73854 0.66086 0.35161 0.0
N41 N 0.72267 0.75019 0.27768 0.0
C42 C 0.75095 0.79484 0.26117 0.0
C43 C 0.69363 0.75524 0.30832 0.0
N44 N 0.7422 0.82826 0.28129 0.0
C45 C 0.70554 0.80309 0.31066 0.0
C46 C 0.65236 0.60645 0.25959 0.0
O47 O 0.74697 0.63199 0.32696 0.0
O48 O 0.73412 0.69324 0.33202 0.0
O49 O 0.66377 0.65058 0.26734 0.0
O50 O 0.68533 0.59602 0.25439 0.0
O51 O 0.73253 0.70525 0.20579 0.0
H52 H 0.66807 0.72683 0.33006 0.0
H53 H 0.77922 0.8028 0.23647 0.0
O54 O 0.75165 0.64943 0.19096 0.0
O55 O 0.81675 0.68399 0.26323 0.0
O56 O 0.80335 0.74437 0.2707 0.0
C57 C 0.83312 0.72894 0.26809 0.0
H58 H 0.74678 0.48768 0.20343 0.0
H59 H 0.69043 0.81836 0.3346 0.0
Co60 Co 0.98752 0.28957 0.26169 0.0
C61 C 0.93631 0.2727 0.18099 0.0
Co62 Co 0.91136 0.26907 0.27521 0.0
C63 C 0.06948 0.27725 0.26896 0.0
C64 C 0.08242 0.33131 0.2199 0.0
N65 N 0.05031 0.30281 0.25144 0.0
N66 N 0.11148 0.28733 0.24883 0.0
C67 C 0.12003 0.32178 0.21812 0.0
H68 H 0.05099 0.24899 0.29364 0.0
H69 H 0.07729 0.35509 0.19759 0.0
C70 C 0.9701 0.2908 0.35535 0.0
N71 N 0.84709 0.25317 0.28607 0.0
C72 C 0.80501 0.21581 0.26889 0.0
C73 C 0.8333 0.27778 0.31474 0.0
N74 N 0.76563 0.21646 0.2856 0.0
C75 C 0.78366 0.25557 0.31445 0.0
C76 C 0.92256 0.18986 0.27003 0.0
O77 O 1.00056 0.29788 0.32423 0.0
O78 O 0.92599 0.27529 0.34313 0.0
O79 O 0.89182 0.20336 0.27501 0.0
O80 O 0.96683 0.22128 0.26484 0.0
O81 O 0.90097 0.26547 0.20718 0.0
H82 H 0.85784 0.30976 0.33495 0.0
H83 H 0.80335 0.18888 0.24437 0.0
O84 O 0.9761 0.28208 0.19898 0.0
O85 O 1.00575 0.35788 0.25828 0.0
O86 O 0.93 0.33411 0.27508 0.0
C87 C 0.97223 0.36778 0.26649 0.0
H88 H 0.15021 0.33758 0.19469 0.0
H89 H 0.76248 0.26694 0.33478 0.0
Co90 Co 0.11997 0.37525 0.77792 0.0
C91 C 0.06004 0.33864 0.8556 0.0
Co92 Co 0.04379 0.31996 0.76103 0.0
C93 C 0.22638 0.42667 0.77608 0.0
C94 C 0.19854 0.46308 0.81798 0.0
N95 N 0.18442 0.42327 0.79082 0.0
N96 N 0.26596 0.46721 0.79276 0.0
C97 C 0.24824 0.49004 0.81909 0.0
H98 H 0.22782 0.40022 0.75307 0.0
H99 H 0.17418 0.47197 0.83595 0.0
C100 C 0.09644 0.35384 0.68258 0.0
N101 N 0.98097 0.27055 0.74814 0.0
C102 C 0.96147 0.22491 0.76316 0.0
C103 C 0.94979 0.26824 0.71544 0.0
N104 N 0.92025 0.19379 0.74028 0.0
C105 C 0.9125 0.22106 0.71042 0.0
C106 C 0.06016 0.41393 0.76535 0.0
O107 O 0.13201 0.38017 0.71018 0.0
O108 O 0.05563 0.32521 0.69892 0.0
O109 O 0.02593 0.37034 0.75823 0.0
O110 O 0.10248 0.42234 0.77419 0.0
O111 O 0.03028 0.31391 0.82356 0.0
H112 H 0.95555 0.29811 0.69435 0.0
H113 H 0.97929 0.21395 0.78787 0.0
O114 O 0.10388 0.36868 0.84483 0.0
O115 O 0.13811 0.32841 0.78193 0.0
O116 O 0.06435 0.27223 0.76323 0.0
C117 C 0.10775 0.28441 0.77354 0.0
H118 H 0.26971 0.52365 0.83844 0.0
H119 H 0.88321 0.20759 0.68531 0.0
Co120 Co 0.27986 0.90841 0.77187 0.0
C121 C 0.30189 0.96797 0.85238 0.0
Co122 Co 0.29638 0.98316 0.75923 0.0
C123 C 0.22816 0.80248 0.76704 0.0
C124 C 0.2934 0.83257 0.80747 0.0
N125 N 0.26638 0.84514 0.78195 0.0
N126 N 0.23046 0.76387 0.78215 0.0
C127 C 0.27165 0.78299 0.80755 0.0
H128 H 0.19932 0.79985 0.74533 0.0
H129 H 0.32665 0.85787 0.82535 0.0
C130 C 0.27918 0.93088 0.67811 0.0
N131 N 0.30705 0.04479 0.74912 0.0
C132 C 0.28049 0.06294 0.7676 0.0
C133 C 0.33258 0.07527 0.71538 0.0
N134 N 0.28668 0.10247 0.74574 0.0
C135 C 0.32013 0.11072 0.71319 0.0
C136 C 0.37716 0.97146 0.75876 0.0
O137 O 0.27353 0.89632 0.7038 0.0
O138 O 0.28789 0.97051 0.69667 0.0
O139 O 0.3654 1.00387 0.75315 0.0
O140 O 0.34494 0.92876 0.7675 0.0
O141 O 0.30575 0.9975 0.82205 0.0
H142 H 0.3556 0.06982 0.69148 0.0
H143 H 0.25491 0.04553 0.79498 0.0
O144 O 0.28874 0.92439 0.83943 0.0
O145 O 0.21404 0.88713 0.77632 0.0
O146 O 0.22729 0.95995 0.76482 0.0
C147 C 0.19771 0.91559 0.77215 0.0
H148 H 0.28475 0.76263 0.8259 0.0
H149 H 0.33218 0.1381 0.68727 0.0
Co150 Co 0.6446 0.74712 0.76028 0.0
C151 C 0.68515 0.74283 0.84593 0.0
Co152 Co 0.70502 0.73198 0.75542 0.0
C153 C 0.59054 0.79857 0.75028 0.0
C154 C 0.55326 0.73499 0.7903 0.0
N155 N 0.59381 0.76054 0.76571 0.0
N156 N 0.54958 0.79763 0.76431 0.0
C157 C 0.52613 0.75741 0.78938 0.0
H158 H 0.61798 0.82673 0.72961 0.0
H159 H 0.54456 0.70281 0.80902 0.0
C160 C 0.66696 0.7313 0.66976 0.0
N161 N 0.75714 0.72159 0.75048 0.0
C162 C 0.80259 0.75224 0.76612 0.0
C163 C 0.76091 0.6882 0.7243 0.0
N164 N 0.83486 0.74019 0.74989 0.0
C165 C 0.80866 0.69962 0.72375 0.0
C166 C 0.61282 0.64971 0.76142 0.0
O167 O 0.63898 0.7427 0.6917 0.0
O168 O 0.69811 0.72645 0.69203 0.0
O169 O 0.65765 0.662 0.75954 0.0
O170 O 0.60097 0.68188 0.76169 0.0
O171 O 0.71271 0.73659 0.81884 0.0
H172 H 0.73142 0.65917 0.70469 0.0
H173 H 0.8124 0.78476 0.78652 0.0
O174 O 0.65157 0.74875 0.82871 0.0
O175 O 0.68801 0.8131 0.75884 0.0
O176 O 0.74945 0.80159 0.7512 0.0
C177 C 0.73298 0.8305 0.75433 0.0
H178 H 0.49254 0.7458 0.80741 0.0
H179 H 0.82315 0.68048 0.70432 0.0
C180 C 0.33985 0.038 0.90868 0.0
C181 C 0.3155 0.98746 0.90108 0.0
C182 C 0.3521 0.05925 0.95325 0.0
C183 C 0.33981 0.02962 0.99213 0.0
C184 C 0.31635 0.97857 0.98506 0.0
C185 C 0.30462 0.95804 0.93959 0.0
C186 C 0.37713 0.11365 0.9587 0.0
C187 C 0.30262 0.94565 0.02564 0.0
C188 C 0.39948 0.08685 0.10964 0.0
C189 C 0.36297 0.09175 0.1316 0.0
C190 C 0.39292 0.06737 0.06406 0.0
C191 C 0.34872 0.0523 0.03993 0.0
C192 C 0.31299 0.05987 0.0612 0.0
C193 C 0.32047 0.07919 0.10666 0.0
C194 C 0.43217 0.06039 0.04276 0.0
C195 C 0.26562 0.04515 0.03688 0.0
H196 H 0.34929 0.06156 0.87946 0.0
H197 H 0.28611 0.91915 0.93431 0.0
H198 H 0.3532 0.12416 0.97717 0.0
H199 H 0.41058 0.12736 0.97993 0.0
H200 H 0.38678 0.1318 0.9249 0.0
H201 H 0.28713 0.90715 0.01457 0.0
H202 H 0.33476 0.95637 0.04808 0.0
H203 H 0.27562 0.94919 0.04697 0.0
H204 H 0.43156 0.09467 0.12935 0.0
H205 H 0.2915 0.08138 0.12406 0.0
H206 H 0.44148 0.07663 1.00812 0.0
H207 H 0.41897 0.0212 0.03782 0.0
H208 H 0.46548 0.07668 0.06465 0.0
H209 H 0.2723 0.06248 1.0028 0.0
H210 H 0.24236 0.05514 0.05741 0.0
H211 H 0.24557 1.00547 0.03031 0.0
C212 C 0.67867 0.7478 0.5848 0.0
C213 C 0.66043 0.71479 0.62061 0.0
C214 C 0.68838 0.7341 0.54094 0.0
C215 C 0.68097 0.68673 0.53322 0.0
C216 C 0.66052 0.65287 0.56881 0.0
C217 C 0.65027 0.66721 0.61169 0.0
C218 C 0.70882 0.77102 0.50358 0.0
C219 C 0.65235 0.60228 0.56273 0.0
C220 C 0.67497 0.64168 0.40868 0.0
C221 C 0.7228 0.65309 0.40043 0.0
C222 C 0.66064 0.6512 0.45177 0.0
C223 C 0.69496 0.67262 0.48827 0.0
C224 C 0.74278 0.68154 0.48118 0.0
C225 C 0.75636 0.67234 0.43711 0.0
C226 C 0.60956 0.64159 0.45698 0.0
C227 C 0.7803 0.70321 0.51945 0.0
H228 H 0.68814 0.78498 0.5919 0.0
H229 H 0.63758 0.64197 0.63975 0.0
H230 H 0.74668 0.78052 0.49668 0.0
H231 H 0.68792 0.75578 0.47084 0.0
H232 H 0.70838 0.80459 0.51337 0.0
H233 H 0.63381 0.57951 0.59281 0.0
H234 H 0.6304 0.58444 0.53107 0.0
H235 H 0.68764 0.60393 0.55832 0.0
H236 H 0.64955 0.62917 0.37993 0.0
H237 H 0.79378 0.68306 0.4306 0.0
H238 H 0.61013 0.67647 0.46097 0.0
H239 H 0.59295 0.62082 0.48852 0.0
H240 H 0.58626 0.62128 0.42663 0.0
H241 H 0.78912 0.74093 0.52709 0.0
H242 H 0.81415 0.70345 0.51013 0.0
H243 H 0.76595 0.68274 0.55163 0.0
C244 C 0.9485 0.24473 0.10467 0.0
C245 C 0.93578 0.27461 0.12997 0.0
C246 C 0.96802 0.2566 0.06008 0.0
C247 C 0.97552 0.2998 0.04007 0.0
C248 C 0.96028 0.32884 0.06446 0.0
C249 C 0.94073 0.31597 0.10919 0.0
C250 C 0.98304 0.2241 0.03545 0.0
C251 C 0.96709 0.37493 0.04443 0.0
C252 C 0.06989 0.35072 0.9435 0.0
C253 C 0.04051 0.33206 0.90371 0.0
C254 C 0.04931 0.34161 0.98821 0.0
C255 C 0.99826 0.31355 0.99322 0.0
C256 C 0.96867 0.29592 0.95311 0.0
C257 C 0.98996 0.30524 0.90932 0.0
C258 C 0.0822 0.36109 0.03017 0.0
C259 C 0.91426 0.26603 0.95636 0.0
H260 H 0.94633 0.21366 0.12125 0.0
H261 H 0.93287 0.34024 0.12929 0.0
H262 H 0.9658 0.21322 1.00061 0.0
H263 H 0.02275 0.244 0.03049 0.0
H264 H 0.97317 0.19096 0.05493 0.0
H265 H 0.95077 0.39192 0.06631 0.0
H266 H 1.00627 0.40107 0.04106 0.0
H267 H 0.95075 0.36771 1.00922 0.0
H268 H 0.10878 0.37157 0.93978 0.0
H269 H 0.96639 0.29091 0.87913 0.0
H270 H 0.07866 0.33064 0.05072 0.0
H271 H 0.07142 0.38253 0.05278 0.0
H272 H 0.12073 0.38419 0.02072 0.0
H273 H 0.904 0.23174 0.9738 0.0
H274 H 0.89612 0.25714 0.92185 0.0
H275 H 0.90028 0.28562 0.97759 0.0
C276 C 0.31379 0.987 0.40776 0.0
C277 C 0.33988 0.03762 0.40328 0.0
C278 C 0.30451 0.96529 0.45098 0.0
C279 C 0.32147 0.9945 0.49171 0.0
C280 C 0.34901 0.04564 0.48781 0.0
C281 C 0.35812 0.06666 0.44361 0.0
C282 C 0.27523 0.91083 0.45299 0.0
C283 C 0.36783 0.07813 0.53046 0.0
C284 C 0.25137 0.94286 0.60275 0.0
C285 C 0.28123 0.93022 0.62701 0.0
C286 C 0.26366 0.96296 0.55864 0.0
C287 C 0.30733 0.97122 0.53805 0.0
C288 C 0.33636 0.956 0.56127 0.0
C289 C 0.32298 0.93574 0.60549 0.0
C290 C 0.23109 0.97779 0.53519 0.0
C291 C 0.38296 0.96363 0.54061 0.0
H292 H 0.29996 0.9637 0.37709 0.0
H293 H 0.37844 0.10559 0.44075 0.0
H294 H 0.29494 0.89707 0.47341 0.0
H295 H 0.24057 0.89991 0.47071 0.0
H296 H 0.26703 0.89306 0.41806 0.0
H297 H 0.39082 0.11676 0.52182 0.0
H298 H 0.33702 0.07413 0.55148 0.0
H299 H 0.3892 0.06735 0.55228 0.0
H300 H 0.21997 0.94026 0.61991 0.0
H301 H 0.3472 0.92789 0.62476 0.0
H302 H 0.22078 0.96094 0.49998 0.0
H303 H 0.25071 0.01754 0.53123 0.0
H304 H 0.19759 0.96734 0.55498 0.0
H305 H 0.37645 0.94792 0.50491 0.0
H306 H 0.39991 0.94722 0.56151 0.0
H307 H 0.40889 1.00292 0.5383 0.0
C308 C 0.73859 0.75053 0.91187 0.0
C309 C 0.69237 0.73944 0.89633 0.0
C310 C 0.74651 0.73943 0.95651 0.0
C311 C 0.70732 0.71674 0.98719 0.0
C312 C 0.66067 0.70675 0.97242 0.0
C313 C 0.6537 0.71821 0.9271 0.0
C314 C 0.79693 0.75141 0.97055 0.0
C315 C 0.618 0.68306 1.00421 0.0
C316 C 0.72433 0.65418 0.09161 0.0
C317 C 0.73712 0.68974 0.12667 0.0
C318 C 0.71387 0.66204 0.04608 0.0
C319 C 0.71629 0.70641 0.03546 0.0
C320 C 0.73022 0.74258 0.07063 0.0
C321 C 0.74055 0.73391 0.11534 0.0
C322 C 0.69965 0.62272 1.00944 0.0
C323 C 0.73396 0.7906 0.06119 0.0
H324 H 0.76879 0.76692 0.88837 0.0
H325 H 0.61779 0.70871 0.91518 0.0
H326 H 0.80952 0.77661 1.00107 0.0
H327 H 0.79676 0.71812 0.98077 0.0
H328 H 0.82336 0.76826 0.94229 0.0
H329 H 0.58421 0.67777 0.98781 0.0
H330 H 0.61233 0.6474 0.01444 0.0
H331 H 0.62531 0.70543 0.03637 0.0
H332 H 0.72101 0.61983 0.10004 0.0
H333 H 0.75069 0.76192 0.14198 0.0
H334 H 0.72534 0.63643 0.9803 0.0
H335 H 0.66328 0.61191 0.99523 0.0
H336 H 0.69908 0.59026 0.02306 0.0
H337 H 0.76142 0.80962 0.03431 0.0
H338 H 0.74408 0.8145 0.09264 0.0
H339 H 0.69892 0.78477 0.04762 0.0
C340 C 0.0401 0.33062 0.41056 0.0
C341 C 0.98946 0.30387 0.40401 0.0
C342 C 0.0617 0.34284 0.4547 0.0
C343 C 0.0324 0.32822 0.4943 0.0
C344 C 0.98118 0.30211 0.48844 0.0
C345 C 0.96024 0.29034 0.44333 0.0
C346 C 0.11624 0.3707 0.45881 0.0
C347 C 0.94861 0.2859 0.52987 0.0
C348 C 0.08774 0.31456 0.60605 0.0
C349 C 0.09789 0.3565 0.63164 0.0
C350 C 0.06724 0.30537 0.56125 0.0
C351 C 0.05592 0.33867 0.54144 0.0
C352 C 0.06857 0.38241 0.56614 0.0
C353 C 0.08932 0.39074 0.61092 0.0
C354 C 0.05527 0.25865 0.53617 0.0
C355 C 0.05762 0.41918 0.54643 0.0
H356 H 0.06357 0.34213 0.38081 0.0
H357 H 0.92129 0.26994 0.43892 0.0
H358 H 0.12831 0.40404 0.48039 0.0
H359 H 0.12899 0.34855 0.4763 0.0
H360 H 0.13398 0.38102 0.42462 0.0
H361 H 0.90975 0.2678 0.51985 0.0
H362 H 0.95496 0.26041 0.54993 0.0
H363 H 0.95723 0.31736 0.55316 0.0
H364 H 0.09245 0.28709 0.62261 0.0
H365 H 0.09512 0.42219 0.63122 0.0
H366 H 0.07179 0.26611 0.50138 0.0
H367 H 0.01555 0.23614 0.53106 0.0
H368 H 0.06815 0.23751 0.55542 0.0
H369 H 0.07329 0.42938 0.51144 0.0
H370 H 0.07196 0.4524 0.56875 0.0
H371 H 0.01792 0.40318 0.54261 0.0
C372 C 0.48281 0.0444 0.29955 0.0
C373 C 0.45881 0.0436 0.25869 0.0
C374 C 0.53321 0.06328 0.30066 0.0
C375 C 0.56041 0.08223 0.25994 0.0
C376 C 0.53542 0.07599 0.2175 0.0
C377 C 0.48493 0.05678 0.21743 0.0
C378 C 0.55781 0.06844 0.34668 0.0
C379 C 0.56242 0.09502 0.17305 0.0
C380 C 0.68098 0.19855 0.27925 0.0
C381 C 0.71479 0.18282 0.276 0.0
C382 C 0.63114 0.16635 0.27325 0.0
C383 C 0.61399 0.11663 0.26361 0.0
C384 C 0.64791 0.10053 0.25907 0.0
C385 C 0.69785 0.13377 0.26521 0.0
C386 C 0.59669 0.1856 0.27806 0.0
C387 C 0.63137 0.04801 0.24887 0.0
H388 H 0.4631 0.03552 0.33177 0.0
H389 H 0.46686 0.05747 0.18596 0.0
H390 H 0.58753 0.06025 0.34298 0.0
H391 H 0.57389 0.10632 0.35988 0.0
H392 H 0.53201 0.04429 0.37278 0.0
H393 H 0.53822 0.07903 0.14226 0.0
H394 H 0.57816 0.13481 0.17288 0.0
H395 H 0.59263 0.08747 0.17007 0.0
H396 H 0.69356 0.2364 0.28662 0.0
H397 H 0.7235 0.12109 0.26289 0.0
H398 H 0.5718 0.16804 0.30721 0.0
H399 H 0.5742 0.1769 0.2462 0.0
H400 H 0.61581 0.22535 0.28445 0.0
H401 H 0.61034 0.02607 0.27846 0.0
H402 H 0.66218 0.0418 0.24273 0.0
H403 H 0.60705 0.03475 0.21805 0.0
C404 C 0.58741 0.53408 0.22001 0.0
C405 C 0.60259 0.56466 0.25956 0.0
C406 C 0.55699 0.4838 0.22333 0.0
C407 C 0.54151 0.46342 0.2674 0.0
C408 C 0.55162 0.49479 0.30659 0.0
C409 C 0.58189 0.54507 0.30212 0.0
C410 C 0.54675 0.45229 0.18033 0.0
C411 C 0.53563 0.4751 0.35427 0.0
C412 C 0.45895 0.32622 0.2769 0.0
C413 C 0.49266 0.31107 0.28492 0.0
C414 C 0.47393 0.37552 0.27133 0.0
C415 C 0.52384 0.41065 0.27358 0.0
C416 C 0.55793 0.3954 0.28122 0.0
C417 C 0.54198 0.34611 0.2868 0.0
C418 C 0.43637 0.39003 0.26326 0.0
C419 C 0.61159 0.43123 0.2834 0.0
H420 H 0.60396 0.54879 0.1871 0.0
H421 H 0.59385 0.56814 0.33292 0.0
H422 H 0.57157 0.43746 0.17961 0.0
H423 H 0.5092 0.42133 0.18015 0.0
H424 H 0.5523 0.47297 0.14836 0.0
H425 H 0.53787 0.50322 0.37914 0.0
H426 H 0.49803 0.44421 0.35334 0.0
H427 H 0.55936 0.46175 0.36726 0.0
H428 H 0.42076 0.29965 0.27582 0.0
H429 H 0.5684 0.33492 0.29217 0.0
H430 H 0.44326 0.409 0.23007 0.0
H431 H 0.43883 0.4157 0.29109 0.0
H432 H 0.39905 0.35848 0.26229 0.0
H433 H 0.62345 0.45048 0.25031 0.0
H434 H 0.63337 0.41367 0.29001 0.0
H435 H 0.6196 0.4588 0.31126 0.0
C436 C 0.97007 0.43598 0.30516 0.0
C437 C 0.97839 0.41658 0.26449 0.0
C438 C 0.95067 0.46687 0.30364 0.0
C439 C 0.93896 0.47842 0.26029 0.0
C440 C 0.9527 0.46349 0.21914 0.0
C441 C 0.97216 0.4326 0.22175 0.0
C442 C 0.93713 0.48193 0.34849 0.0
C443 C 0.94157 0.47527 0.17214 0.0
C444 C 0.82068 0.47991 0.25356 0.0
C445 C 0.8362 0.52941 0.25281 0.0
C446 C 0.85375 0.46326 0.25628 0.0
C447 C 0.9041 0.49686 0.25802 0.0
C448 C 0.92017 0.54703 0.25799 0.0
C449 C 0.88604 0.56272 0.2556 0.0
C450 C 0.83461 0.40943 0.25707 0.0
C451 C 0.97337 0.58405 0.25963 0.0
H452 H 0.97371 0.42273 0.33825 0.0
H453 H 0.9773 0.41672 0.1902 0.0
H454 H 0.94475 0.51974 0.34736 0.0
H455 H 0.89777 0.45839 0.35407 0.0
H456 H 0.95683 0.4786 0.37853 0.0
H457 H 0.96226 0.46925 0.14443 0.0
H458 H 0.90243 0.45176 0.16427 0.0
H459 H 0.94984 0.51333 0.17157 0.0
H460 H 0.78231 0.45396 0.25218 0.0
H461 H 0.8984 0.60101 0.25462 0.0
H462 H 0.84742 0.40031 0.28887 0.0
H463 H 0.84852 0.39803 0.22702 0.0
H464 H 0.79447 0.38813 0.25596 0.0
H465 H 0.99098 0.57814 0.28984 0.0
H466 H 0.98 0.62163 0.26181 0.0
H467 H 0.99099 0.57993 0.22813 0.0
C468 C 0.05873 0.48254 0.80409 0.0
C469 C 0.05443 0.45679 0.76275 0.0
C470 C 0.07839 0.53298 0.80473 0.0
C471 C 0.09464 0.55844 0.76298 0.0
C472 C 0.08521 0.5318 0.72054 0.0
C473 C 0.06531 0.48127 0.72098 0.0
C474 C 0.08713 0.55943 0.85082 0.0
C475 C 0.10133 0.557 0.67509 0.0
C476 C 0.14666 0.69577 0.76751 0.0
C477 C 0.19625 0.71283 0.77427 0.0
C478 C 0.11304 0.64578 0.76285 0.0
C479 C 0.12931 0.61195 0.76484 0.0
C480 C 0.17947 0.62915 0.77046 0.0
C481 C 0.21207 0.67907 0.77503 0.0
C482 C 0.06004 0.62915 0.75695 0.0
C483 C 0.19882 0.59471 0.7725 0.0
H484 H 0.05163 0.46399 0.83658 0.0
H485 H 0.06328 0.46176 0.68906 0.0
H486 H 0.12584 0.57574 0.86077 0.0
H487 H 0.07892 0.58915 0.84868 0.0
H488 H 0.06497 0.53482 0.87855 0.0
H489 H 0.08321 0.53171 0.64517 0.0
H490 H 0.09386 0.58726 0.67347 0.0
H491 H 0.14094 0.57241 0.6718 0.0
H492 H 0.13392 0.7214 0.7672 0.0
H493 H 0.25027 0.69173 0.77929 0.0
H494 H 0.04005 0.60878 0.78766 0.0
H495 H 0.04484 0.60421 0.72638 0.0
H496 H 0.0535 0.65984 0.75268 0.0
H497 H 0.18326 0.57087 0.8025 0.0
H498 H 0.23886 0.61386 0.77579 0.0
H499 H 0.18789 0.57116 0.74082 0.0
C500 C 0.44922 0.97649 0.7944 0.0
C501 C 0.42655 0.97945 0.75415 0.0
C502 C 0.47958 0.95638 0.79308 0.0
C503 C 0.48731 0.93862 0.75041 0.0
C504 C 0.46959 0.94746 0.70898 0.0
C505 C 0.43933 0.96773 0.71138 0.0
C506 C 0.49791 0.94838 0.83818 0.0
C507 C 0.47739 0.93001 0.66257 0.0
C508 C 0.56854 0.88202 0.75091 0.0
C509 C 0.53457 0.83299 0.75715 0.0
C510 C 0.55397 0.91689 0.74746 0.0
C511 C 0.50426 0.90252 0.75042 0.0
C512 C 0.46984 0.85289 0.75544 0.0
C513 C 0.48536 0.81899 0.75855 0.0
C514 C 0.59186 0.96923 0.74199 0.0
C515 C 0.41639 0.83553 0.75863 0.0
H516 H 0.43856 0.98441 0.82765 0.0
H517 H 0.42107 0.9689 0.68025 0.0
H518 H 0.47479 0.91013 0.84791 0.0
H519 H 0.53542 0.95538 0.83475 0.0
H520 H 0.49698 0.97186 0.86667 0.0
H521 H 0.47055 0.94815 0.63363 0.0
H522 H 0.51475 0.93635 0.65995 0.0
H523 H 0.45216 0.89053 0.65852 0.0
H524 H 0.60666 0.89344 0.75014 0.0
H525 H 0.4587 0.78124 0.76239 0.0
H526 H 0.59427 0.99006 0.77411 0.0
H527 H 0.5817 0.98503 0.71337 0.0
H528 H 0.62813 0.97389 0.73499 0.0
H529 H 0.40948 0.85256 0.78939 0.0
H530 H 0.3942 0.79566 0.7614 0.0
H531 H 0.404 0.84638 0.72769 0.0
C532 C 0.33354 0.45101 0.77834 0.0
C533 C 0.31669 0.48375 0.78466 0.0
C534 C 0.38338 0.46735 0.77322 0.0
C535 C 0.41727 0.51766 0.77392 0.0
C536 C 0.40016 0.55073 0.77926 0.0
C537 C 0.35045 0.53344 0.7847 0.0
C538 C 0.39988 0.43082 0.76804 0.0
C539 C 0.4345 0.6047 0.77962 0.0
C540 C 0.55099 0.5821 0.80576 0.0
C541 C 0.57211 0.59954 0.76276 0.0
C542 C 0.50072 0.55067 0.80956 0.0
C543 C 0.47071 0.53677 0.7694 0.0
C544 C 0.49275 0.54971 0.72547 0.0
C545 C 0.54312 0.58081 0.72272 0.0
C546 C 0.47931 0.53722 0.85712 0.0
C547 C 0.46274 0.53594 0.68157 0.0
H548 H 0.30788 0.41259 0.77865 0.0
H549 H 0.33786 0.55905 0.78876 0.0
H550 H 0.42236 0.438 0.73674 0.0
H551 H 0.42283 0.43412 0.79825 0.0
H552 H 0.36903 0.39315 0.76552 0.0
H553 H 0.41539 0.6256 0.78266 0.0
H554 H 0.46039 0.61541 0.80909 0.0
H555 H 0.45591 0.61505 0.7474 0.0
H556 H 0.57282 0.59742 0.83695 0.0
H557 H 0.5589 0.59517 0.68948 0.0
H558 H 0.44942 0.49913 0.85717 0.0
H559 H 0.46411 0.56049 0.86752 0.0
H560 H 0.50692 0.54222 0.88339 0.0
H561 H 0.43261 0.49802 0.68228 0.0
H562 H 0.48486 0.54036 0.65042 0.0
H563 H 0.44667 0.55951 0.67838 0.0
C564 C 0.21498 0.10502 0.26149 0.0
C565 C 0.2634 0.13093 0.27637 0.0
C566 C 0.18739 0.1281 0.25796 0.0
C567 C 0.20887 0.17812 0.26945 0.0
C568 C 0.25728 0.20394 0.28565 0.0
C569 C 0.28374 0.18008 0.28905 0.0
C570 C 0.13572 0.09933 0.24084 0.0
C571 C 0.28174 0.25725 0.29824 0.0
C572 C 0.16232 0.25538 0.21723 0.0
C573 C 0.13672 0.26076 0.25419 0.0
C574 C 0.18481 0.22749 0.22132 0.0
C575 C 0.18172 0.20434 0.2634 0.0
C576 C 0.15582 0.20944 0.30077 0.0
C577 C 0.13381 0.23766 0.29576 0.0
C578 C 0.21234 0.22318 0.18072 0.0
C579 C 0.15197 0.1857 0.34632 0.0
H580 H 0.19904 0.06713 0.25157 0.0
H581 H 0.32107 0.20056 0.30083 0.0
H582 H 0.11136 0.10338 0.26562 0.0
H583 H 0.13207 0.11346 0.20731 0.0
H584 H 0.12345 0.06029 0.23596 0.0
H585 H 0.31927 0.27175 0.31144 0.0
H586 H 0.283 0.27785 0.26743 0.0
H587 H 0.26075 0.26392 0.32506 0.0
H588 H 0.16411 0.27229 0.18473 0.0
H589 H 0.11461 0.24199 0.32467 0.0
H590 H 0.19845 0.18456 0.17136 0.0
H591 H 0.25108 0.23918 0.19034 0.0
H592 H 0.20963 0.24167 0.14979 0.0
H593 H 0.13775 0.14641 0.34055 0.0
H594 H 0.12806 0.19071 0.37099 0.0
H595 H 0.18838 0.2011 0.36248 0.0
C596 C 0.91624 0.74181 0.27733 0.0
C597 C 0.88638 0.76159 0.26962 0.0
C598 C 0.96667 0.77002 0.27524 0.0
C599 C 0.98829 0.81953 0.26494 0.0
C600 C 0.95857 0.84028 0.25843 0.0
C601 C 0.90785 0.81106 0.26102 0.0
C602 C 0.99674 0.74634 0.28291 0.0
C603 C 0.98023 0.89291 0.24723 0.0
C604 C 0.12302 0.89548 0.29264 0.0
C605 C 0.1436 0.89485 0.24987 0.0
C606 C 0.07258 0.87248 0.29779 0.0
C607 C 0.04182 0.84847 0.25916 0.0
C608 C 0.06241 0.84853 0.21569 0.0
C609 C 0.11293 0.87149 0.21163 0.0
C610 C 0.05219 0.87279 0.34486 0.0
C611 C 0.03099 0.82362 0.17355 0.0
H612 H 0.90011 0.70374 0.2845 0.0
H613 H 0.88504 0.82657 0.25493 0.0
H614 H 0.01646 0.74768 0.25085 0.0
H615 H 0.02419 0.76622 0.31057 0.0
H616 H 0.97446 0.70797 0.29274 0.0
H617 H 0.95274 0.90446 0.24693 0.0
H618 H 1.00904 0.91594 0.27277 0.0
H619 H 0.99728 0.89938 0.21271 0.0
H620 H 0.14645 0.91323 0.32237 0.0
H621 H 0.12846 0.87166 0.17827 0.0
H622 H 0.03195 0.83539 0.35763 0.0
H623 H 0.02626 0.88615 0.34248 0.0
H624 H 0.08084 0.89571 0.37065 0.0
H625 H 1.00934 0.78415 0.17896 0.0
H626 H 0.05253 0.82969 0.14166 0.0
H627 H 1.00519 0.83674 0.16815 0.0
C628 C 0.87382 0.10977 0.2314 0.0
C629 C 0.90532 0.13778 0.26749 0.0
C630 C 0.85021 0.05914 0.23157 0.0
C631 C 0.85716 0.03605 0.26956 0.0
C632 C 0.8901 0.06441 0.30558 0.0
C633 C 0.91421 0.11516 0.30389 0.0
C634 C 0.81644 0.03043 0.19191 0.0
C635 C 0.89786 0.04123 0.34706 0.0
C636 C 0.75318 0.9102 0.29432 0.0
C637 C 0.77064 0.88035 0.27732 0.0
C638 C 0.78127 0.96081 0.29269 0.0
C639 C 0.82776 0.98243 0.27274 0.0
C640 C 0.84546 0.95277 0.25489 0.0
C641 C 0.81702 0.90232 0.25779 0.0
C642 C 0.76115 0.99119 0.31242 0.0
C643 C 0.89452 0.97433 0.23266 0.0
H644 H 0.86679 0.1276 0.20351 0.0
H645 H 0.93798 0.1371 0.33215 0.0
H646 H 0.8248 1.00266 0.17848 0.0
H647 H 0.77863 0.0112 0.20423 0.0
H648 H 0.81878 0.05373 0.16298 0.0
H649 H 0.92677 0.0681 0.37064 0.0
H650 H 0.86376 0.02224 0.36672 0.0
H651 H 0.90752 0.01377 0.33582 0.0
H652 H 0.71742 0.89414 0.30893 0.0
H653 H 0.83182 0.8804 0.24517 0.0
H654 H 0.75718 0.01232 0.28463 0.0
H655 H 0.78656 0.01744 0.33877 0.0
H656 H 0.72537 0.96899 0.32868 0.0
H657 H 0.89696 0.99811 0.20422 0.0
H658 H 0.9021 0.94626 0.21842 0.0
H659 H 0.92314 0.99708 0.25845 0.0
C660 C 0.15855 0.25418 0.80718 0.0
C661 C 0.1247 0.24924 0.77359 0.0
C662 C 0.18158 0.22674 0.80415 0.0
C663 C 0.17168 0.19471 0.76573 0.0
C664 C 0.13629 0.18843 0.7324 0.0
C665 C 0.11265 0.21541 0.7371 0.0
C666 C 0.2179 0.23347 0.84119 0.0
C667 C 0.12547 0.15542 0.69044 0.0
C668 C 0.27405 0.17183 0.73349 0.0
C669 C 0.25794 0.12573 0.75102 0.0
C670 C 0.24577 0.19408 0.73699 0.0
C671 C 0.20051 0.17011 0.75931 0.0
C672 C 0.18396 0.12373 0.77719 0.0
C673 C 0.21256 0.10197 0.77248 0.0
C674 C 0.26451 0.24345 0.71702 0.0
C675 C 0.13626 0.09727 0.80184 0.0
H676 H 0.16781 0.28045 0.8354 0.0
H677 H 0.08701 0.21223 0.71076 0.0
H678 H 0.21024 0.1979 0.85394 0.0
H679 H 0.25474 0.25126 0.82647 0.0
H680 H 0.21776 0.25592 0.87106 0.0
H681 H 0.09471 0.15197 0.66951 0.0
H682 H 0.15789 0.16982 0.66826 0.0
H683 H 0.11702 0.11892 0.70096 0.0
H684 H 0.30901 0.19082 0.71721 0.0
H685 H 0.19878 0.066 0.7853 0.0
H686 H 0.27088 0.27025 0.74519 0.0
H687 H 0.23721 0.24295 0.69298 0.0
H688 H 0.29883 0.25582 0.69805 0.0
H689 H 0.13684 0.11879 0.83279 0.0
H690 H 0.1281 0.06099 0.81303 0.0
H691 H 0.10643 0.09286 0.77892 0.0
C692 C 0.115 0.84801 0.7887 0.0
C693 C 0.14457 0.89548 0.77392 0.0
C694 C 0.06449 0.82558 0.78673 0.0
C695 C 0.04252 0.85102 0.76938 0.0
C696 C 0.07199 0.89961 0.75591 0.0
C697 C 0.12278 0.92136 0.75844 0.0
C698 C 0.03466 0.77396 0.8019 0.0
C699 C 0.04995 0.92796 0.73722 0.0
C700 C 0.91662 0.76961 0.7184 0.0
C701 C 0.88687 0.76861 0.75459 0.0
C702 C 0.96722 0.7978 0.7221 0.0
C703 C 0.98884 0.82539 0.76322 0.0
C704 C 0.959 0.82503 0.79968 0.0
C705 C 0.90843 0.79682 0.79485 0.0
C706 C 0.99763 0.79741 0.68223 0.0
C707 C 0.98052 0.8534 0.8443 0.0
H708 H 0.13138 0.82773 0.80112 0.0
H709 H 0.14532 0.958 0.74695 0.0
H710 H 1.0078 0.77098 0.82789 0.0
H711 H 1.01428 0.7502 0.77181 0.0
H712 H 0.05724 0.76022 0.81709 0.0
H713 H 0.07737 0.96658 0.73257 0.0
H714 H 0.0323 0.91199 0.70325 0.0
H715 H 0.02158 0.92591 0.76076 0.0
H716 H 0.90028 0.74875 0.68683 0.0
H717 H 0.88568 0.79605 0.82301 0.0
H718 H 0.01942 0.78106 0.6931 0.0
H719 H 0.02327 0.83492 0.67196 0.0
H720 H 0.97532 0.77667 0.65154 0.0
H721 H 1.00103 0.83886 0.86218 0.0
H722 H 0.95249 0.85184 0.8681 0.0
H723 H 1.00643 0.89177 0.83701 0.0
C724 C 0.89442 0.11928 0.78376 0.0
C725 C 0.89509 0.14169 0.7424 0.0
C726 C 0.87155 0.0687 0.78605 0.0
C727 C 0.84889 0.03965 0.74595 0.0
C728 C 0.84999 0.06206 0.70392 0.0
C729 C 0.87289 0.11272 0.7027 0.0
C730 C 0.87065 0.04631 0.8317 0.0
C731 C 0.82638 0.03247 0.66035 0.0
C732 C 0.81367 0.90628 0.74302 0.0
C733 C 0.76426 0.88392 0.75302 0.0
C734 C 0.84197 0.95705 0.74074 0.0
C735 C 0.82031 0.98591 0.7489 0.0
C736 C 0.77064 0.96341 0.75956 0.0
C737 C 0.74339 0.91299 0.7614 0.0
C738 C 0.89483 0.97979 0.72911 0.0
C739 C 0.74598 0.99257 0.76877 0.0
H740 H 0.91122 0.14137 0.81461 0.0
H741 H 0.87404 0.12968 0.67039 0.0
H742 H 0.83283 0.025 0.84372 0.0
H743 H 0.88469 0.02101 0.82744 0.0
H744 H 0.89243 0.07387 0.85895 0.0
H745 H 0.83303 0.05537 0.62984 0.0
H746 H 0.84009 1.0073 0.65289 0.0
H747 H 0.78678 1.01017 0.66523 0.0
H748 H 0.83007 0.88417 0.73651 0.0
H749 H 0.70531 0.89633 0.76943 0.0
H750 H 0.91724 1.00609 0.75692 0.0
H751 H 0.90212 1.00013 0.69672 0.0
H752 H 0.90647 0.95254 0.72458 0.0
H753 H 0.76446 0.01889 0.79782 0.0
H754 H 0.70721 0.96952 0.77746 0.0
H755 H 0.74842 0.01355 0.73787 0.0
loop_
_geom_bond_atom_site_label_1
_geom_bond_atom_site_label_2
_geom_bond_distance
_geom_bond_site_symmetry_2
_ccdc_geom_bond_type
Co0 N5 2.057 1_545 S
Co0 O17 2.021 . S
Co0 O20 2.062 . S
Co0 O24 2.117 . S
Co0 O25 2.020 . S
C1 O21 1.259 . S
C1 O24 1.258 . S
Co2 N11 2.057 . S
Co2 O18 2.117 . S
Co2 O19 2.020 . S
Co2 O21 2.021 . S
Co2 O26 2.062 . S
C3 N5 1.316 . S
C3 N6 1.347 . S
C3 H8 0.931 . S
C4 N5 1.375 . S
C4 C7 1.350 . S
C4 H9 0.930 . S
N5 Co0 2.057 1_565 S
N5 C3 1.316 . S
N5 C4 1.375 . S
N6 C3 1.347 . S
N6 C7 1.373 . S
C7 C4 1.350 . S
C7 N6 1.373 . S
C7 H28 0.931 . S
H8 C3 0.931 . S
H9 C4 0.930 . S
C10 O17 1.259 . S
C10 O18 1.258 . S
N11 Co2 2.057 . S
N11 C12 1.316 . S
N11 C13 1.375 . S
C12 N11 1.316 . S
C12 N14 1.347 . S
C12 H23 0.931 . S
C13 N11 1.375 . S
C13 C15 1.350 . S
C13 H22 0.930 . S
N14 C12 1.347 . S
N14 C15 1.373 . S
C15 C13 1.350 . S
C15 N14 1.373 . S
C15 H29 0.931 . S
C16 O19 1.256 . S
C16 O20 1.255 . S
O17 Co0 2.021 . S
O17 C10 1.259 . S
O18 Co2 2.117 . S
O18 C10 1.258 . S
O19 Co2 2.020 . S
O19 C16 1.256 . S
O20 Co0 2.062 . S
O20 C16 1.255 . S
O21 C1 1.259 . S
O21 Co2 2.021 . S
H22 C13 0.930 . S
H23 C12 0.931 . S
O24 Co0 2.117 . S
O24 C1 1.258 . S
O25 Co0 2.020 . S
O25 C27 1.256 . S
O26 Co2 2.062 . S
O26 C27 1.255 . S
C27 O25 1.256 . S
C27 O26 1.255 . S
H28 C7 0.931 . S
H29 C15 0.931 . S
Co30 N35 2.057 . S
Co30 O47 2.021 . S
Co30 O50 2.062 . S
Co30 O54 2.117 . S
Co30 O55 2.020 . S
C31 O51 1.259 . S
C31 O54 1.258 . S
Co32 N41 2.057 . S
Co32 O48 2.117 . S
Co32 O49 2.020 . S
Co32 O51 2.021 . S
Co32 O56 2.062 . S
C33 N35 1.316 . S
C33 N36 1.347 . S
C33 H38 0.931 . S
C34 N35 1.375 . S
C34 C37 1.350 . S
C34 H39 0.930 . S
N35 Co30 2.057 . S
N35 C33 1.316 . S
N35 C34 1.375 . S
N36 C33 1.347 . S
N36 C37 1.373 . S
C37 C34 1.350 . S
C37 N36 1.373 . S
C37 H58 0.931 . S
H38 C33 0.931 . S
H39 C34 0.930 . S
C40 O47 1.259 . S
C40 O48 1.258 . S
N41 Co32 2.057 . S
N41 C42 1.316 . S
N41 C43 1.375 . S
C42 N41 1.316 . S
C42 N44 1.347 . S
C42 H53 0.931 . S
C43 N41 1.375 . S
C43 C45 1.350 . S
C43 H52 0.930 . S
N44 C42 1.347 . S
N44 C45 1.373 . S
C45 C43 1.350 . S
C45 N44 1.373 . S
C45 H59 0.931 . S
C46 O49 1.256 . S
C46 O50 1.255 . S
O47 Co30 2.021 . S
O47 C40 1.259 . S
O48 Co32 2.117 . S
O48 C40 1.258 . S
O49 Co32 2.020 . S
O49 C46 1.256 . S
O50 Co30 2.062 . S
O50 C46 1.255 . S
O51 C31 1.259 . S
O51 Co32 2.021 . S
H52 C43 0.930 . S
H53 C42 0.931 . S
O54 Co30 2.117 . S
O54 C31 1.258 . S
O55 Co30 2.020 . S
O55 C57 1.256 . S
O56 Co32 2.062 . S
O56 C57 1.255 . S
C57 O55 1.256 . S
C57 O56 1.255 . S
H58 C37 0.931 . S
H59 C45 0.931 . S
Co60 N65 2.057 1_655 S
Co60 O77 2.021 . S
Co60 O80 2.062 . S
Co60 O84 2.117 . S
Co60 O85 2.020 . S
C61 O81 1.259 . S
C61 O84 1.258 . S
Co62 N71 2.057 . S
Co62 O78 2.117 . S
Co62 O79 2.020 . S
Co62 O81 2.021 . S
Co62 O86 2.062 . S
C63 N65 1.316 . S
C63 N66 1.347 . S
C63 H68 0.931 . S
C64 N65 1.375 . S
C64 C67 1.350 . S
C64 H69 0.930 . S
N65 Co60 2.057 1_455 S
N65 C63 1.316 . S
N65 C64 1.375 . S
N66 C63 1.347 . S
N66 C67 1.373 . S
C67 C64 1.350 . S
C67 N66 1.373 . S
C67 H88 0.931 . S
H68 C63 0.931 . S
H69 C64 0.930 . S
C70 O77 1.259 . S
C70 O78 1.258 . S
N71 Co62 2.057 . S
N71 C72 1.316 . S
N71 C73 1.375 . S
C72 N71 1.316 . S
C72 N74 1.347 . S
C72 H83 0.931 . S
C73 N71 1.375 . S
C73 C75 1.350 . S
C73 H82 0.930 . S
N74 C72 1.347 . S
N74 C75 1.373 . S
C75 C73 1.350 . S
C75 N74 1.373 . S
C75 H89 0.931 . S
C76 O79 1.256 . S
C76 O80 1.255 . S
O77 Co60 2.021 . S
O77 C70 1.259 . S
O78 Co62 2.117 . S
O78 C70 1.258 . S
O79 Co62 2.020 . S
O79 C76 1.256 . S
O80 Co60 2.062 . S
O80 C76 1.255 . S
O81 C61 1.259 . S
O81 Co62 2.021 . S
H82 C73 0.930 . S
H83 C72 0.931 . S
O84 Co60 2.117 . S
O84 C61 1.258 . S
O85 Co60 2.020 . S
O85 C87 1.256 . S
O86 Co62 2.062 . S
O86 C87 1.255 . S
C87 O85 1.256 . S
C87 O86 1.255 . S
H88 C67 0.931 . S
H89 C75 0.931 . S
Co90 N95 2.057 . S
Co90 O107 2.021 . S
Co90 O110 2.062 . S
Co90 O114 2.117 . S
Co90 O115 2.020 . S
C91 O111 1.259 . S
C91 O114 1.258 . S
Co92 N101 2.057 1_455 S
Co92 O108 2.117 . S
Co92 O109 2.020 . S
Co92 O111 2.021 . S
Co92 O116 2.062 . S
C93 N95 1.316 . S
C93 N96 1.347 . S
C93 H98 0.931 . S
C94 N95 1.375 . S
C94 C97 1.350 . S
C94 H99 0.930 . S
N95 Co90 2.057 . S
N95 C93 1.316 . S
N95 C94 1.375 . S
N96 C93 1.347 . S
N96 C97 1.373 . S
C97 C94 1.350 . S
C97 N96 1.373 . S
C97 H118 0.931 . S
H98 C93 0.931 . S
H99 C94 0.930 . S
C100 O107 1.259 . S
C100 O108 1.258 . S
N101 Co92 2.057 1_655 S
N101 C102 1.316 . S
N101 C103 1.375 . S
C102 N101 1.316 . S
C102 N104 1.347 . S
C102 H113 0.931 . S
C103 N101 1.375 . S
C103 C105 1.350 . S
C103 H112 0.930 . S
N104 C102 1.347 . S
N104 C105 1.373 . S
C105 C103 1.350 . S
C105 N104 1.373 . S
C105 H119 0.931 . S
C106 O109 1.256 . S
C106 O110 1.255 . S
O107 Co90 2.021 . S
O107 C100 1.259 . S
O108 Co92 2.117 . S
O108 C100 1.258 . S
O109 Co92 2.020 . S
O109 C106 1.256 . S
O110 Co90 2.062 . S
O110 C106 1.255 . S
O111 C91 1.259 . S
O111 Co92 2.021 . S
H112 C103 0.930 . S
H113 C102 0.931 . S
O114 Co90 2.117 . S
O114 C91 1.258 . S
O115 Co90 2.020 . S
O115 C117 1.256 . S
O116 Co92 2.062 . S
O116 C117 1.255 . S
C117 O115 1.256 . S
C117 O116 1.255 . S
H118 C97 0.931 . S
H119 C105 0.931 . S
Co120 N125 2.057 . S
Co120 O137 2.021 . S
Co120 O140 2.062 . S
Co120 O144 2.117 . S
Co120 O145 2.020 . S
C121 O141 1.259 . S
C121 O144 1.258 . S
Co122 N131 2.057 1_565 S
Co122 O138 2.117 . S
Co122 O139 2.020 . S
Co122 O141 2.021 . S
Co122 O146 2.062 . S
C123 N125 1.316 . S
C123 N126 1.347 . S
C123 H128 0.931 . S
C124 N125 1.375 . S
C124 C127 1.350 . S
C124 H129 0.930 . S
N125 Co120 2.057 . S
N125 C123 1.316 . S
N125 C124 1.375 . S
N126 C123 1.347 . S
N126 C127 1.373 . S
C127 C124 1.350 . S
C127 N126 1.373 . S
C127 H148 0.931 . S
H128 C123 0.931 . S
H129 C124 0.930 . S
C130 O137 1.259 . S
C130 O138 1.258 . S
N131 Co122 2.057 1_545 S
N131 C132 1.316 . S
N131 C133 1.375 . S
C132 N131 1.316 . S
C132 N134 1.347 . S
C132 H143 0.931 . S
C133 N131 1.375 . S
C133 C135 1.350 . S
C133 H142 0.930 . S
N134 C132 1.347 . S
N134 C135 1.373 . S
C135 C133 1.350 . S
C135 N134 1.373 . S
C135 H149 0.931 . S
C136 O139 1.256 . S
C136 O140 1.255 . S
O137 Co120 2.021 . S
O137 C130 1.259 . S
O138 Co122 2.117 . S
O138 C130 1.258 . S
O139 Co122 2.020 . S
O139 C136 1.256 . S
O140 Co120 2.062 . S
O140 C136 1.255 . S
O141 C121 1.259 . S
O141 Co122 2.021 . S
H142 C133 0.930 . S
H143 C132 0.931 . S
O144 Co120 2.117 . S
O144 C121 1.258 . S
O145 Co120 2.020 . S
O145 C147 1.256 . S
O146 Co122 2.062 . S
O146 C147 1.255 . S
C147 O145 1.256 . S
C147 O146 1.255 . S
H148 C127 0.931 . S
H149 C135 0.931 . S
Co150 N155 2.057 . S
Co150 O167 2.021 . S
Co150 O170 2.062 . S
Co150 O174 2.117 . S
Co150 O175 2.020 . S
C151 O171 1.259 . S
C151 O174 1.258 . S
Co152 N161 2.057 . S
Co152 O168 2.117 . S
Co152 O169 2.020 . S
Co152 O171 2.021 . S
Co152 O176 2.062 . S
C153 N155 1.316 . S
C153 N156 1.347 . S
C153 H158 0.931 . S
C154 N155 1.375 . S
C154 C157 1.350 . S
C154 H159 0.930 . S
N155 Co150 2.057 . S
N155 C153 1.316 . S
N155 C154 1.375 . S
N156 C153 1.347 . S
N156 C157 1.373 . S
C157 C154 1.350 . S
C157 N156 1.373 . S
C157 H178 0.931 . S
H158 C153 0.931 . S
H159 C154 0.930 . S
C160 O167 1.259 . S
C160 O168 1.258 . S
N161 Co152 2.057 . S
N161 C162 1.316 . S
N161 C163 1.375 . S
C162 N161 1.316 . S
C162 N164 1.347 . S
C162 H173 0.931 . S
C163 N161 1.375 . S
C163 C165 1.350 . S
C163 H172 0.930 . S
N164 C162 1.347 . S
N164 C165 1.373 . S
C165 C163 1.350 . S
C165 N164 1.373 . S
C165 H179 0.931 . S
C166 O169 1.256 . S
C166 O170 1.255 . S
O167 Co150 2.021 . S
O167 C160 1.259 . S
O168 Co152 2.117 . S
O168 C160 1.258 . S
O169 Co152 2.020 . S
O169 C166 1.256 . S
O170 Co150 2.062 . S
O170 C166 1.255 . S
O171 C151 1.259 . S
O171 Co152 2.021 . S
H172 C163 0.930 . S
H173 C162 0.931 . S
O174 Co150 2.117 . S
O174 C151 1.258 . S
O175 Co150 2.020 . S
O175 C177 1.256 . S
O176 Co152 2.062 . S
O176 C177 1.255 . S
C177 O175 1.256 . S
C177 O176 1.255 . S
H178 C157 0.931 . S
H179 C165 0.931 . S
C180 C181 1.391 . S
C180 C182 1.394 . S
C180 H196 0.931 . S
C181 C180 1.391 . S
C181 C185 1.376 . S
C182 C180 1.394 . S
C182 C183 1.369 . S
C182 C186 1.531 1_565 S
C183 C182 1.369 . S
C183 C184 1.410 . S
C183 C191 1.503 1_566 S
C184 C183 1.410 . S
C184 C185 1.392 . S
C184 C187 1.511 1_556 S
C185 C181 1.376 . S
C185 C184 1.392 . S
C185 H197 0.929 . S
C186 C182 1.531 1_545 S
C186 H198 0.960 . S
C186 H199 0.962 . S
C186 H200 0.960 . S
C187 C184 1.511 1_554 S
C187 H201 0.961 . S
C187 H202 0.961 . S
C187 H203 0.961 . S
C188 C189 1.370 . S
C188 C190 1.363 . S
C188 H204 0.931 . S
C189 C188 1.370 . S
C189 C193 1.408 . S
C190 C188 1.363 . S
C190 C191 1.370 . S
C190 C194 1.524 1_554 S
C191 C183 1.503 1_544 S
C191 C190 1.370 . S
C191 C192 1.403 . S
C192 C191 1.403 . S
C192 C193 1.404 . S
C192 C195 1.539 1_545 S
C193 C189 1.408 . S
C193 C192 1.404 . S
C193 H205 0.930 . S
C194 C190 1.524 1_556 S
C194 H206 0.956 . S
C194 H207 0.961 . S
C194 H208 0.961 . S
C195 C192 1.539 1_565 S
C195 H209 0.958 . S
C195 H210 0.961 . S
C195 H211 0.960 . S
H196 C180 0.931 . S
H197 C185 0.929 . S
H198 C186 0.960 . S
H199 C186 0.962 . S
H200 C186 0.960 . S
H201 C187 0.961 . S
H202 C187 0.961 . S
H203 C187 0.961 . S
H204 C188 0.931 . S
H205 C193 0.930 . S
H206 C194 0.956 . S
H207 C194 0.961 . S
H208 C194 0.961 . S
H209 C195 0.958 . S
H210 C195 0.961 . S
H211 C195 0.960 . S
C212 C213 1.391 . S
C212 C214 1.394 . S
C212 H228 0.931 . S
C213 C212 1.391 . S
C213 C217 1.376 . S
C214 C212 1.394 . S
C214 C215 1.369 . S
C214 C218 1.531 . S
C215 C214 1.369 . S
C215 C216 1.410 . S
C215 C223 1.503 . S
C216 C215 1.410 . S
C216 C217 1.392 . S
C216 C219 1.511 . S
C217 C213 1.376 . S
C217 C216 1.392 . S
C217 H229 0.929 . S
C218 C214 1.531 . S
C218 H230 0.960 . S
C218 H231 0.962 . S
C218 H232 0.960 . S
C219 C216 1.511 . S
C219 H233 0.961 . S
C219 H234 0.961 . S
C219 H235 0.961 . S
C220 C221 1.370 . S
C220 C222 1.363 . S
C220 H236 0.931 . S
C221 C220 1.370 . S
C221 C225 1.408 . S
C222 C220 1.363 . S
C222 C223 1.370 . S
C222 C226 1.524 . S
C223 C215 1.503 . S
C223 C222 1.370 . S
C223 C224 1.403 . S
C224 C223 1.403 . S
C224 C225 1.404 . S
C224 C227 1.539 . S
C225 C221 1.408 . S
C225 C224 1.404 . S
C225 H237 0.930 . S
C226 C222 1.524 . S
C226 H238 0.956 . S
C226 H239 0.961 . S
C226 H240 0.961 . S
C227 C224 1.539 . S
C227 H241 0.958 . S
C227 H242 0.961 . S
C227 H243 0.960 . S
H228 C212 0.931 . S
H229 C217 0.929 . S
H230 C218 0.960 . S
H231 C218 0.962 . S
H232 C218 0.960 . S
H233 C219 0.961 . S
H234 C219 0.961 . S
H235 C219 0.961 . S
H236 C220 0.931 . S
H237 C225 0.930 . S
H238 C226 0.956 . S
H239 C226 0.961 . S
H240 C226 0.961 . S
H241 C227 0.958 . S
H242 C227 0.961 . S
H243 C227 0.960 . S
C244 C245 1.391 . S
C244 C246 1.394 . S
C244 H260 0.931 . S
C245 C244 1.391 . S
C245 C249 1.376 . S
C246 C244 1.394 . S
C246 C247 1.369 . S
C246 C250 1.531 1_655 S
C247 C246 1.369 . S
C247 C248 1.410 . S
C247 C255 1.503 1_654 S
C248 C247 1.410 . S
C248 C249 1.392 . S
C248 C251 1.511 1_554 S
C249 C245 1.376 . S
C249 C248 1.392 . S
C249 H261 0.929 . S
C250 C246 1.531 1_455 S
C250 H262 0.960 . S
C250 H263 0.962 . S
C250 H264 0.960 1_455 S
C251 C248 1.511 1_556 S
C251 H265 0.961 1_556 S
C251 H266 0.961 . S
C251 H267 0.961 . S
C252 C253 1.370 . S
C252 C254 1.363 . S
C252 H268 0.931 . S
C253 C252 1.370 . S
C253 C257 1.408 . S
C254 C252 1.363 . S
C254 C255 1.370 . S
C254 C258 1.524 1_556 S
C255 C247 1.503 1_456 S
C255 C254 1.370 . S
C255 C256 1.403 1_455 S
C256 C255 1.403 1_655 S
C256 C257 1.404 1_655 S
C256 C259 1.539 . S
C257 C253 1.408 . S
C257 C256 1.404 1_455 S
C257 H269 0.930 . S
C258 C254 1.524 1_554 S
C258 H270 0.956 . S
C258 H271 0.961 . S
C258 H272 0.961 . S
C259 C256 1.539 . S
C259 H273 0.958 . S
C259 H274 0.961 . S
C259 H275 0.960 . S
H260 C244 0.931 . S
H261 C249 0.929 . S
H262 C250 0.960 . S
H263 C250 0.962 . S
H264 C250 0.960 1_655 S
H265 C251 0.961 1_554 S
H266 C251 0.961 . S
H267 C251 0.961 . S
H268 C252 0.931 . S
H269 C257 0.930 . S
H270 C258 0.956 . S
H271 C258 0.961 . S
H272 C258 0.961 . S
H273 C259 0.958 . S
H274 C259 0.961 . S
H275 C259 0.960 . S
C276 C277 1.391 . S
C276 C278 1.394 1_545 S
C276 H292 0.931 . S
C277 C276 1.391 . S
C277 C281 1.376 . S
C278 C276 1.394 1_565 S
C278 C279 1.369 1_565 S
C278 C282 1.531 . S
C279 C278 1.369 1_545 S
C279 C280 1.410 . S
C279 C287 1.503 1_545 S
C280 C279 1.410 . S
C280 C281 1.392 . S
C280 C283 1.511 . S
C281 C277 1.376 . S
C281 C280 1.392 . S
C281 H293 0.929 . S
C282 C278 1.531 . S
C282 H294 0.960 . S
C282 H295 0.962 . S
C282 H296 0.960 . S
C283 C280 1.511 . S
C283 H297 0.961 . S
C283 H298 0.961 . S
C283 H299 0.961 . S
C284 C285 1.370 . S
C284 C286 1.363 . S
C284 H300 0.931 . S
C285 C284 1.370 . S
C285 C289 1.408 . S
C286 C284 1.363 . S
C286 C287 1.370 . S
C286 C290 1.524 1_565 S
C287 C279 1.503 1_565 S
C287 C286 1.370 . S
C287 C288 1.403 . S
C288 C287 1.403 . S
C288 C289 1.404 . S
C288 C291 1.539 . S
C289 C285 1.408 . S
C289 C288 1.404 . S
C289 H301 0.930 . S
C290 C286 1.524 1_545 S
C290 H302 0.956 . S
C290 H303 0.961 . S
C290 H304 0.961 . S
C291 C288 1.539 . S
C291 H305 0.958 . S
C291 H306 0.961 . S
C291 H307 0.960 . S
H292 C276 0.931 . S
H293 C281 0.929 . S
H294 C282 0.960 . S
H295 C282 0.962 . S
H296 C282 0.960 . S
H297 C283 0.961 . S
H298 C283 0.961 . S
H299 C283 0.961 . S
H300 C284 0.931 . S
H301 C289 0.930 . S
H302 C290 0.956 . S
H303 C290 0.961 . S
H304 C290 0.961 . S
H305 C291 0.958 . S
H306 C291 0.961 . S
H307 C291 0.960 . S
C308 C309 1.391 . S
C308 C310 1.394 . S
C308 H324 0.931 . S
C309 C308 1.391 . S
C309 C313 1.376 . S
C310 C308 1.394 . S
C310 C311 1.369 . S
C310 C314 1.531 . S
C311 C310 1.369 . S
C311 C312 1.410 . S
C311 C319 1.503 1_556 S
C312 C311 1.410 . S
C312 C313 1.392 . S
C312 C315 1.511 1_556 S
C313 C309 1.376 . S
C313 C312 1.392 . S
C313 H325 0.929 . S
C314 C310 1.531 . S
C314 H326 0.960 1_556 S
C314 H327 0.962 . S
C314 H328 0.960 . S
C315 C312 1.511 1_554 S
C315 H329 0.961 1_554 S
C315 H330 0.961 . S
C315 H331 0.961 . S
C316 C317 1.370 . S
C316 C318 1.363 . S
C316 H332 0.931 . S
C317 C316 1.370 . S
C317 C321 1.408 . S
C318 C316 1.363 . S
C318 C319 1.370 . S
C318 C322 1.524 1_554 S
C319 C311 1.503 1_554 S
C319 C318 1.370 . S
C319 C320 1.403 . S
C320 C319 1.403 . S
C320 C321 1.404 . S
C320 C323 1.539 . S
C321 C317 1.408 . S
C321 C320 1.404 . S
C321 H333 0.930 . S
C322 C318 1.524 1_556 S
C322 H334 0.956 . S
C322 H335 0.961 . S
C322 H336 0.961 . S
C323 C320 1.539 . S
C323 H337 0.958 . S
C323 H338 0.961 . S
C323 H339 0.960 . S
H324 C308 0.931 . S
H325 C313 0.929 . S
H326 C314 0.960 1_554 S
H327 C314 0.962 . S
H328 C314 0.960 . S
H329 C315 0.961 1_556 S
H330 C315 0.961 . S
H331 C315 0.961 . S
H332 C316 0.931 . S
H333 C321 0.930 . S
H334 C322 0.956 . S
H335 C322 0.961 . S
H336 C322 0.961 . S
H337 C323 0.958 . S
H338 C323 0.961 . S
H339 C323 0.960 . S
C340 C341 1.391 . S
C340 C342 1.394 1_655 S
C340 H356 0.931 . S
C341 C340 1.391 . S
C341 C345 1.376 . S
C342 C340 1.394 1_455 S
C342 C343 1.369 1_455 S
C342 C346 1.531 . S
C343 C342 1.369 1_655 S
C343 C344 1.410 . S
C343 C351 1.503 1_655 S
C344 C343 1.410 . S
C344 C345 1.392 . S
C344 C347 1.511 . S
C345 C341 1.376 . S
C345 C344 1.392 . S
C345 H357 0.929 . S
C346 C342 1.531 . S
C346 H358 0.960 . S
C346 H359 0.962 . S
C346 H360 0.960 . S
C347 C344 1.511 . S
C347 H361 0.961 . S
C347 H362 0.961 . S
C347 H363 0.961 . S
C348 C349 1.370 . S
C348 C350 1.363 . S
C348 H364 0.931 . S
C349 C348 1.370 . S
C349 C353 1.408 . S
C350 C348 1.363 . S
C350 C351 1.370 . S
C350 C354 1.524 . S
C351 C343 1.503 1_455 S
C351 C350 1.370 . S
C351 C352 1.403 . S
C352 C351 1.403 . S
C352 C353 1.404 . S
C352 C355 1.539 1_455 S
C353 C349 1.408 . S
C353 C352 1.404 . S
C353 H365 0.930 . S
C354 C350 1.524 . S
C354 H366 0.956 . S
C354 H367 0.961 . S
C354 H368 0.961 . S
C355 C352 1.539 1_655 S
C355 H369 0.958 1_655 S
C355 H370 0.961 . S
C355 H371 0.960 . S
H356 C340 0.931 . S
H357 C345 0.929 . S
H358 C346 0.960 . S
H359 C346 0.962 . S
H360 C346 0.960 . S
H361 C347 0.961 . S
H362 C347 0.961 . S
H363 C347 0.961 . S
H364 C348 0.931 . S
H365 C353 0.930 . S
H366 C354 0.956 . S
H367 C354 0.961 . S
H368 C354 0.961 . S
H369 C355 0.958 1_455 S
H370 C355 0.961 . S
H371 C355 0.960 . S
C372 C373 1.391 . S
C372 C374 1.394 . S
C372 H388 0.931 . S
C373 C372 1.391 . S
C373 C377 1.376 . S
C374 C372 1.394 . S
C374 C375 1.369 . S
C374 C378 1.531 . S
C375 C374 1.369 . S
C375 C376 1.410 . S
C375 C383 1.503 . S
C376 C375 1.410 . S
C376 C377 1.392 . S
C376 C379 1.511 . S
C377 C373 1.376 . S
C377 C376 1.392 . S
C377 H389 0.929 . S
C378 C374 1.531 . S
C378 H390 0.960 . S
C378 H391 0.962 . S
C378 H392 0.960 . S
C379 C376 1.511 . S
C379 H393 0.961 . S
C379 H394 0.961 . S
C379 H395 0.961 . S
C380 C381 1.370 . S
C380 C382 1.363 . S
C380 H396 0.931 . S
C381 C380 1.370 . S
C381 C385 1.408 . S
C382 C380 1.363 . S
C382 C383 1.370 . S
C382 C386 1.524 . S
C383 C375 1.503 . S
C383 C382 1.370 . S
C383 C384 1.403 . S
C384 C383 1.403 . S
C384 C385 1.404 . S
C384 C387 1.539 . S
C385 C381 1.408 . S
C385 C384 1.404 . S
C385 H397 0.930 . S
C386 C382 1.524 . S
C386 H398 0.956 . S
C386 H399 0.961 . S
C386 H400 0.961 . S
C387 C384 1.539 . S
C387 H401 0.958 . S
C387 H402 0.961 . S
C387 H403 0.960 . S
H388 C372 0.931 . S
H389 C377 0.929 . S
H390 C378 0.960 . S
H391 C378 0.962 . S
H392 C378 0.960 . S
H393 C379 0.961 . S
H394 C379 0.961 . S
H395 C379 0.961 . S
H396 C380 0.931 . S
H397 C385 0.930 . S
H398 C386 0.956 . S
H399 C386 0.961 . S
H400 C386 0.961 . S
H401 C387 0.958 . S
H402 C387 0.961 . S
H403 C387 0.960 . S
C404 C405 1.391 . S
C404 C406 1.394 . S
C404 H420 0.931 . S
C405 C404 1.391 . S
C405 C409 1.376 . S
C406 C404 1.394 . S
C406 C407 1.369 . S
C406 C410 1.531 . S
C407 C406 1.369 . S
C407 C408 1.410 . S
C407 C415 1.503 . S
C408 C407 1.410 . S
C408 C409 1.392 . S
C408 C411 1.511 . S
C409 C405 1.376 . S
C409 C408 1.392 . S
C409 H421 0.929 . S
C410 C406 1.531 . S
C410 H422 0.960 . S
C410 H423 0.962 . S
C410 H424 0.960 . S
C411 C408 1.511 . S
C411 H425 0.961 . S
C411 H426 0.961 . S
C411 H427 0.961 . S
C412 C413 1.370 . S
C412 C414 1.363 . S
C412 H428 0.931 . S
C413 C412 1.370 . S
C413 C417 1.408 . S
C414 C412 1.363 . S
C414 C415 1.370 . S
C414 C418 1.524 . S
C415 C407 1.503 . S
C415 C414 1.370 . S
C415 C416 1.403 . S
C416 C415 1.403 . S
C416 C417 1.404 . S
C416 C419 1.539 . S
C417 C413 1.408 . S
C417 C416 1.404 . S
C417 H429 0.930 . S
C418 C414 1.524 . S
C418 H430 0.956 . S
C418 H431 0.961 . S
C418 H432 0.961 . S
C419 C416 1.539 . S
C419 H433 0.958 . S
C419 H434 0.961 . S
C419 H435 0.960 . S
H420 C404 0.931 . S
H421 C409 0.929 . S
H422 C410 0.960 . S
H423 C410 0.962 . S
H424 C410 0.960 . S
H425 C411 0.961 . S
H426 C411 0.961 . S
H427 C411 0.961 . S
H428 C412 0.931 . S
H429 C417 0.930 . S
H430 C418 0.956 . S
H431 C418 0.961 . S
H432 C418 0.961 . S
H433 C419 0.958 . S
H434 C419 0.961 . S
H435 C419 0.960 . S
C436 C437 1.391 . S
C436 C438 1.394 . S
C436 H452 0.931 . S
C437 C436 1.391 . S
C437 C441 1.376 . S
C438 C436 1.394 . S
C438 C439 1.369 . S
C438 C442 1.531 . S
C439 C438 1.369 . S
C439 C440 1.410 . S
C439 C447 1.503 . S
C440 C439 1.410 . S
C440 C441 1.392 . S
C440 C443 1.511 . S
C441 C437 1.376 . S
C441 C440 1.392 . S
C441 H453 0.929 . S
C442 C438 1.531 . S
C442 H454 0.960 . S
C442 H455 0.962 . S
C442 H456 0.960 . S
C443 C440 1.511 . S
C443 H457 0.961 . S
C443 H458 0.961 . S
C443 H459 0.961 . S
C444 C445 1.370 . S
C444 C446 1.363 . S
C444 H460 0.931 . S
C445 C444 1.370 . S
C445 C449 1.408 . S
C446 C444 1.363 . S
C446 C447 1.370 . S
C446 C450 1.524 . S
C447 C439 1.503 . S
C447 C446 1.370 . S
C447 C448 1.403 . S
C448 C447 1.403 . S
C448 C449 1.404 . S
C448 C451 1.539 . S
C449 C445 1.408 . S
C449 C448 1.404 . S
C449 H461 0.930 . S
C450 C446 1.524 . S
C450 H462 0.956 . S
C450 H463 0.961 . S
C450 H464 0.961 . S
C451 C448 1.539 . S
C451 H465 0.958 . S
C451 H466 0.961 . S
C451 H467 0.960 . S
H452 C436 0.931 . S
H453 C441 0.929 . S
H454 C442 0.960 . S
H455 C442 0.962 . S
H456 C442 0.960 . S
H457 C443 0.961 . S
H458 C443 0.961 . S
H459 C443 0.961 . S
H460 C444 0.931 . S
H461 C449 0.930 . S
H462 C450 0.956 . S
H463 C450 0.961 . S
H464 C450 0.961 . S
H465 C451 0.958 . S
H466 C451 0.961 . S
H467 C451 0.960 . S
C468 C469 1.391 . S
C468 C470 1.394 . S
C468 H484 0.931 . S
C469 C468 1.391 . S
C469 C473 1.376 . S
C470 C468 1.394 . S
C470 C471 1.369 . S
C470 C474 1.531 . S
C471 C470 1.369 . S
C471 C472 1.410 . S
C471 C479 1.503 . S
C472 C471 1.410 . S
C472 C473 1.392 . S
C472 C475 1.511 . S
C473 C469 1.376 . S
C473 C472 1.392 . S
C473 H485 0.929 . S
C474 C470 1.531 . S
C474 H486 0.960 . S
C474 H487 0.962 . S
C474 H488 0.960 . S
C475 C472 1.511 . S
C475 H489 0.961 . S
C475 H490 0.961 . S
C475 H491 0.961 . S
C476 C477 1.370 . S
C476 C478 1.363 . S
C476 H492 0.931 . S
C477 C476 1.370 . S
C477 C481 1.408 . S
C478 C476 1.363 . S
C478 C479 1.370 . S
C478 C482 1.524 . S
C479 C471 1.503 . S
C479 C478 1.370 . S
C479 C480 1.403 . S
C480 C479 1.403 . S
C480 C481 1.404 . S
C480 C483 1.539 . S
C481 C477 1.408 . S
C481 C480 1.404 . S
C481 H493 0.930 . S
C482 C478 1.524 . S
C482 H494 0.956 . S
C482 H495 0.961 . S
C482 H496 0.961 . S
C483 C480 1.539 . S
C483 H497 0.958 . S
C483 H498 0.961 . S
C483 H499 0.960 . S
H484 C468 0.931 . S
H485 C473 0.929 . S
H486 C474 0.960 . S
H487 C474 0.962 . S
H488 C474 0.960 . S
H489 C475 0.961 . S
H490 C475 0.961 . S
H491 C475 0.961 . S
H492 C476 0.931 . S
H493 C481 0.930 . S
H494 C482 0.956 . S
H495 C482 0.961 . S
H496 C482 0.961 . S
H497 C483 0.958 . S
H498 C483 0.961 . S
H499 C483 0.960 . S
C500 C501 1.391 . S
C500 C502 1.394 . S
C500 H516 0.931 . S
C501 C500 1.391 . S
C501 C505 1.376 . S
C502 C500 1.394 . S
C502 C503 1.369 . S
C502 C506 1.531 . S
C503 C502 1.369 . S
C503 C504 1.410 . S
C503 C511 1.503 . S
C504 C503 1.410 . S
C504 C505 1.392 . S
C504 C507 1.511 . S
C505 C501 1.376 . S
C505 C504 1.392 . S
C505 H517 0.929 . S
C506 C502 1.531 . S
C506 H518 0.960 . S
C506 H519 0.962 . S
C506 H520 0.960 . S
C507 C504 1.511 . S
C507 H521 0.961 . S
C507 H522 0.961 . S
C507 H523 0.961 . S
C508 C509 1.370 . S
C508 C510 1.363 . S
C508 H524 0.931 . S
C509 C508 1.370 . S
C509 C513 1.408 . S
C510 C508 1.363 . S
C510 C511 1.370 . S
C510 C514 1.524 . S
C511 C503 1.503 . S
C511 C510 1.370 . S
C511 C512 1.403 . S
C512 C511 1.403 . S
C512 C513 1.404 . S
C512 C515 1.539 . S
C513 C509 1.408 . S
C513 C512 1.404 . S
C513 H525 0.930 . S
C514 C510 1.524 . S
C514 H526 0.956 . S
C514 H527 0.961 . S
C514 H528 0.961 . S
C515 C512 1.539 . S
C515 H529 0.958 . S
C515 H530 0.961 . S
C515 H531 0.960 . S
H516 C500 0.931 . S
H517 C505 0.929 . S
H518 C506 0.960 . S
H519 C506 0.962 . S
H520 C506 0.960 . S
H521 C507 0.961 . S
H522 C507 0.961 . S
H523 C507 0.961 . S
H524 C508 0.931 . S
H525 C513 0.930 . S
H526 C514 0.956 . S
H527 C514 0.961 . S
H528 C514 0.961 . S
H529 C515 0.958 . S
H530 C515 0.961 . S
H531 C515 0.960 . S
C532 C533 1.391 . S
C532 C534 1.394 . S
C532 H548 0.931 . S
C533 C532 1.391 . S
C533 C537 1.376 . S
C534 C532 1.394 . S
C534 C535 1.369 . S
C534 C538 1.531 . S
C535 C534 1.369 . S
C535 C536 1.410 . S
C535 C543 1.503 . S
C536 C535 1.410 . S
C536 C537 1.392 . S
C536 C539 1.511 . S
C537 C533 1.376 . S
C537 C536 1.392 . S
C537 H549 0.929 . S
C538 C534 1.531 . S
C538 H550 0.960 . S
C538 H551 0.962 . S
C538 H552 0.960 . S
C539 C536 1.511 . S
C539 H553 0.961 . S
C539 H554 0.961 . S
C539 H555 0.961 . S
C540 C541 1.370 . S
C540 C542 1.363 . S
C540 H556 0.931 . S
C541 C540 1.370 . S
C541 C545 1.408 . S
C542 C540 1.363 . S
C542 C543 1.370 . S
C542 C546 1.524 . S
C543 C535 1.503 . S
C543 C542 1.370 . S
C543 C544 1.403 . S
C544 C543 1.403 . S
C544 C545 1.404 . S
C544 C547 1.539 . S
C545 C541 1.408 . S
C545 C544 1.404 . S
C545 H557 0.930 . S
C546 C542 1.524 . S
C546 H558 0.956 . S
C546 H559 0.961 . S
C546 H560 0.961 . S
C547 C544 1.539 . S
C547 H561 0.958 . S
C547 H562 0.961 . S
C547 H563 0.960 . S
H548 C532 0.931 . S
H549 C537 0.929 . S
H550 C538 0.960 . S
H551 C538 0.962 . S
H552 C538 0.960 . S
H553 C539 0.961 . S
H554 C539 0.961 . S
H555 C539 0.961 . S
H556 C540 0.931 . S
H557 C545 0.930 . S
H558 C546 0.956 . S
H559 C546 0.961 . S
H560 C546 0.961 . S
H561 C547 0.958 . S
H562 C547 0.961 . S
H563 C547 0.960 . S
C564 C565 1.391 . S
C564 C566 1.394 . S
C564 H580 0.931 . S
C565 C564 1.391 . S
C565 C569 1.376 . S
C566 C564 1.394 . S
C566 C567 1.369 . S
C566 C570 1.531 . S
C567 C566 1.369 . S
C567 C568 1.410 . S
C567 C575 1.503 . S
C568 C567 1.410 . S
C568 C569 1.392 . S
C568 C571 1.511 . S
C569 C565 1.376 . S
C569 C568 1.392 . S
C569 H581 0.929 . S
C570 C566 1.531 . S
C570 H582 0.960 . S
C570 H583 0.962 . S
C570 H584 0.960 . S
C571 C568 1.511 . S
C571 H585 0.961 . S
C571 H586 0.961 . S
C571 H587 0.961 . S
C572 C573 1.370 . S
C572 C574 1.363 . S
C572 H588 0.931 . S
C573 C572 1.370 . S
C573 C577 1.408 . S
C574 C572 1.363 . S
C574 C575 1.370 . S
C574 C578 1.524 . S
C575 C567 1.503 . S
C575 C574 1.370 . S
C575 C576 1.403 . S
C576 C575 1.403 . S
C576 C577 1.404 . S
C576 C579 1.539 . S
C577 C573 1.408 . S
C577 C576 1.404 . S
C577 H589 0.930 . S
C578 C574 1.524 . S
C578 H590 0.956 . S
C578 H591 0.961 . S
C578 H592 0.961 . S
C579 C576 1.539 . S
C579 H593 0.958 . S
C579 H594 0.961 . S
C579 H595 0.960 . S
H580 C564 0.931 . S
H581 C569 0.929 . S
H582 C570 0.960 . S
H583 C570 0.962 . S
H584 C570 0.960 . S
H585 C571 0.961 . S
H586 C571 0.961 . S
H587 C571 0.961 . S
H588 C572 0.931 . S
H589 C577 0.930 . S
H590 C578 0.956 . S
H591 C578 0.961 . S
H592 C578 0.961 . S
H593 C579 0.958 . S
H594 C579 0.961 . S
H595 C579 0.960 . S
C596 C597 1.391 . S
C596 C598 1.394 . S
C596 H612 0.931 . S
C597 C596 1.391 . S
C597 C601 1.376 . S
C598 C596 1.394 . S
C598 C599 1.369 . S
C598 C602 1.531 . S
C599 C598 1.369 . S
C599 C600 1.410 . S
C599 C607 1.503 1_655 S
C600 C599 1.410 . S
C600 C601 1.392 . S
C600 C603 1.511 . S
C601 C597 1.376 . S
C601 C600 1.392 . S
C601 H613 0.929 . S
C602 C598 1.531 . S
C602 H614 0.960 1_655 S
C602 H615 0.964 . S
C602 H616 0.960 . S
C603 C600 1.511 . S
C603 H617 0.961 . S
C603 H618 0.961 1_655 S
C603 H619 0.961 1_655 S
C604 C605 1.370 . S
C604 C606 1.363 . S
C604 H620 0.931 . S
C605 C604 1.370 . S
C605 C609 1.408 . S
C606 C604 1.363 . S
C606 C607 1.370 . S
C606 C610 1.524 . S
C607 C599 1.503 1_455 S
C607 C606 1.370 . S
C607 C608 1.403 . S
C608 C607 1.403 . S
C608 C609 1.404 . S
C608 C611 1.539 . S
C609 C605 1.408 . S
C609 C608 1.404 . S
C609 H621 0.930 . S
C610 C606 1.524 . S
C610 H622 0.956 . S
C610 H623 0.961 . S
C610 H624 0.961 . S
C611 C608 1.539 . S
C611 H625 0.958 . S
C611 H626 0.961 . S
C611 H627 0.960 . S
H612 C596 0.931 . S
H613 C601 0.929 . S
H614 C602 0.960 1_455 S
H615 C602 0.964 . S
H616 C602 0.960 . S
H617 C603 0.961 . S
H618 C603 0.961 1_455 S
H619 C603 0.961 1_455 S
H620 C604 0.931 . S
H621 C609 0.930 . S
H622 C610 0.956 . S
H623 C610 0.961 . S
H624 C610 0.961 . S
H625 C611 0.958 . S
H626 C611 0.961 . S
H627 C611 0.960 . S
C628 C629 1.391 . S
C628 C630 1.394 . S
C628 H644 0.931 . S
C629 C628 1.391 . S
C629 C633 1.376 . S
C630 C628 1.394 . S
C630 C631 1.369 . S
C630 C634 1.531 . S
C631 C630 1.369 . S
C631 C632 1.410 . S
C631 C639 1.503 1_545 S
C632 C631 1.410 . S
C632 C633 1.392 . S
C632 C635 1.511 . S
C633 C629 1.376 . S
C633 C632 1.392 . S
C633 H645 0.929 . S
C634 C630 1.531 . S
C634 H646 0.960 1_545 S
C634 H647 0.962 1_545 S
C634 H648 0.960 . S
C635 C632 1.511 . S
C635 H649 0.961 . S
C635 H650 0.961 1_545 S
C635 H651 0.973 . S
C636 C637 1.370 . S
C636 C638 1.363 . S
C636 H652 0.931 . S
C637 C636 1.370 . S
C637 C641 1.408 . S
C638 C636 1.363 . S
C638 C639 1.370 . S
C638 C642 1.524 . S
C639 C631 1.503 1_565 S
C639 C638 1.370 . S
C639 C640 1.403 . S
C640 C639 1.403 . S
C640 C641 1.404 . S
C640 C643 1.539 . S
C641 C637 1.408 . S
C641 C640 1.404 . S
C641 H653 0.930 . S
C642 C638 1.524 . S
C642 H654 0.956 . S
C642 H655 0.961 . S
C642 H656 0.961 . S
C643 C640 1.539 . S
C643 H657 0.958 . S
C643 H658 0.961 . S
C643 H659 0.960 . S
H644 C628 0.931 . S
H645 C633 0.929 . S
H646 C634 0.960 1_565 S
H647 C634 0.962 1_565 S
H648 C634 0.960 . S
H649 C635 0.961 . S
H650 C635 0.961 1_565 S
H651 C635 0.973 . S
H652 C636 0.931 . S
H653 C641 0.930 . S
H654 C642 0.956 . S
H655 C642 0.961 . S
H656 C642 0.961 . S
H657 C643 0.958 . S
H658 C643 0.961 . S
H659 C643 0.960 . S
C660 C661 1.391 . S
C660 C662 1.394 . S
C660 H676 0.931 . S
C661 C660 1.391 . S
C661 C665 1.376 . S
C662 C660 1.394 . S
C662 C663 1.369 . S
C662 C666 1.531 . S
C663 C662 1.369 . S
C663 C664 1.410 . S
C663 C671 1.503 . S
C664 C663 1.410 . S
C664 C665 1.392 . S
C664 C667 1.511 . S
C665 C661 1.376 . S
C665 C664 1.392 . S
C665 H677 0.929 . S
C666 C662 1.531 . S
C666 H678 0.960 . S
C666 H679 0.962 . S
C666 H680 0.960 . S
C667 C664 1.511 . S
C667 H681 0.961 . S
C667 H682 0.961 . S
C667 H683 0.961 . S
C668 C669 1.370 . S
C668 C670 1.363 . S
C668 H684 0.931 . S
C669 C668 1.370 . S
C669 C673 1.408 . S
C670 C668 1.363 . S
C670 C671 1.370 . S
C670 C674 1.524 . S
C671 C663 1.503 . S
C671 C670 1.370 . S
C671 C672 1.403 . S
C672 C671 1.403 . S
C672 C673 1.404 . S
C672 C675 1.539 . S
C673 C669 1.408 . S
C673 C672 1.404 . S
C673 H685 0.930 . S
C674 C670 1.524 . S
C674 H686 0.956 . S
C674 H687 0.961 . S
C674 H688 0.961 . S
C675 C672 1.539 . S
C675 H689 0.958 . S
C675 H690 0.961 . S
C675 H691 0.960 . S
H676 C660 0.931 . S
H677 C665 0.929 . S
H678 C666 0.960 . S
H679 C666 0.962 . S
H680 C666 0.960 . S
H681 C667 0.961 . S
H682 C667 0.961 . S
H683 C667 0.961 . S
H684 C668 0.931 . S
H685 C673 0.930 . S
H686 C674 0.956 . S
H687 C674 0.961 . S
H688 C674 0.961 . S
H689 C675 0.958 . S
H690 C675 0.961 . S
H691 C675 0.960 . S
C692 C693 1.391 . S
C692 C694 1.394 . S
C692 H708 0.931 . S
C693 C692 1.391 . S
C693 C697 1.376 . S
C694 C692 1.394 . S
C694 C695 1.369 . S
C694 C698 1.531 . S
C695 C694 1.369 . S
C695 C696 1.410 . S
C695 C703 1.503 1_455 S
C696 C695 1.410 . S
C696 C697 1.392 . S
C696 C699 1.511 . S
C697 C693 1.376 . S
C697 C696 1.392 . S
C697 H709 0.929 . S
C698 C694 1.531 . S
C698 H710 0.960 1_455 S
C698 H711 0.956 . S
C698 H712 0.960 . S
C699 C696 1.511 . S
C699 H713 0.961 . S
C699 H714 0.961 1_455 S
C699 H715 0.961 1_455 S
C700 C701 1.370 . S
C700 C702 1.363 . S
C700 H716 0.931 . S
C701 C700 1.370 . S
C701 C705 1.408 . S
C702 C700 1.363 . S
C702 C703 1.370 . S
C702 C706 1.524 . S
C703 C695 1.503 1_655 S
C703 C702 1.370 . S
C703 C704 1.403 . S
C704 C703 1.403 . S
C704 C705 1.404 . S
C704 C707 1.539 . S
C705 C701 1.408 . S
C705 C704 1.404 . S
C705 H717 0.930 . S
C706 C702 1.524 . S
C706 H718 0.956 . S
C706 H719 0.961 . S
C706 H720 0.961 . S
C707 C704 1.539 . S
C707 H721 0.958 . S
C707 H722 0.961 . S
C707 H723 0.960 . S
H708 C692 0.931 . S
H709 C697 0.929 . S
H710 C698 0.960 1_655 S
H711 C698 0.956 . S
H712 C698 0.960 . S
H713 C699 0.961 . S
H714 C699 0.961 1_655 S
H715 C699 0.961 1_655 S
H716 C700 0.931 . S
H717 C705 0.930 . S
H718 C706 0.956 . S
H719 C706 0.961 . S
H720 C706 0.961 . S
H721 C707 0.958 . S
H722 C707 0.961 . S
H723 C707 0.960 . S
C724 C725 1.391 . S
C724 C726 1.394 . S
C724 H740 0.931 . S
C725 C724 1.391 . S
C725 C729 1.376 . S
C726 C724 1.394 . S
C726 C727 1.369 . S
C726 C730 1.531 . S
C727 C726 1.369 . S
C727 C728 1.410 . S
C727 C735 1.503 1_545 S
C728 C727 1.410 . S
C728 C729 1.392 . S
C728 C731 1.511 . S
C729 C725 1.376 . S
C729 C728 1.392 . S
C729 H741 0.929 . S
C730 C726 1.531 . S
C730 H742 0.960 . S
C730 H743 0.962 . S
C730 H744 0.960 . S
C731 C728 1.511 . S
C731 H745 0.961 . S
C731 H746 0.961 . S
C731 H747 0.961 . S
C732 C733 1.370 . S
C732 C734 1.363 . S
C732 H748 0.931 . S
C733 C732 1.370 . S
C733 C737 1.408 . S
C734 C732 1.363 . S
C734 C735 1.370 . S
C734 C738 1.533 . S
C735 C727 1.503 1_565 S
C735 C734 1.370 . S
C735 C736 1.403 . S
C736 C735 1.403 . S
C736 C737 1.404 . S
C736 C739 1.539 . S
C737 C733 1.408 . S
C737 C736 1.404 . S
C737 H749 0.930 . S
C738 C734 1.533 . S
C738 H750 0.955 1_565 S
C738 H751 0.941 1_565 S
C738 H752 0.973 . S
C739 C736 1.539 . S
C739 H753 0.958 . S
C739 H754 0.961 . S
C739 H755 0.960 1_565 S
H740 C724 0.931 . S
H741 C729 0.929 . S
H742 C730 0.960 . S
H743 C730 0.962 . S
H744 C730 0.960 . S
H745 C731 0.961 . S
H746 C731 0.961 . S
H747 C731 0.961 . S
H748 C732 0.931 . S
H749 C737 0.930 . S
H750 C738 0.955 1_545 S
H751 C738 0.941 1_545 S
H752 C738 0.973 . S
H753 C739 0.958 . S
H754 C739 0.961 . S
H755 C739 0.960 1_545 S
C181 C121 2.014 . S
C189 C1 2.061 . S
C213 C160 2.112 . S
C221 C40 2.144 . S
C245 C61 2.185 . S
C253 C91 2.085 . S
C277 C10 2.102 . S
C285 C130 2.215 . S
C309 C151 2.090 . S
C317 C31 2.055 . S
C341 C70 2.032 . S
C349 C100 2.099 . S
C373 C27 1.242 . S
C381 N74 1.240 . S
C405 C46 1.215 . S
C413 N14 1.248 . S
C437 C87 1.247 . S
C445 N36 1.234 . S
C469 C106 1.195 . S
C477 N126 1.240 . S
C501 C136 1.212 . S
C509 N156 1.246 . S
C533 N96 1.254 . S
C541 C166 1.233 . S
C565 C16 0.873 . S
C573 N66 0.885 . S
C597 C57 0.892 . S
C605 N6 0.840 . S
C629 C76 0.912 . S
C637 N44 0.840 . S
C661 C117 0.907 . S
C669 N134 0.838 . S
C693 C147 0.896 . S
C701 N164 0.864 . S
C725 N104 0.911 . S
C733 C177 0.873 . S
