# Generated by pormake.
# Topology wjh, (4)-cn, num edge types: 1
# Building blocks:
#     Node 0, Type 0, BuildingBlock: NAHDIM_clean_sbu_0, # of connection points: 4
#     Node 1, Type 0, BuildingBlock: NAHDIM_clean_sbu_0, # of connection points: 4
#     Node 2, Type 0, BuildingBlock: NAHDIM_clean_sbu_0, # of connection points: 4
#     Node 3, Type 0, BuildingBlock: NAHDIM_clean_sbu_0, # of connection points: 4
#     Node 4, Type 0, BuildingBlock: NAHDIM_clean_sbu_0, # of connection points: 4
#     Node 5, Type 0, BuildingBlock: NAHDIM_clean_sbu_0, # of connection points: 4
#     Node 6, Type 0, BuildingBlock: NAHDIM_clean_sbu_0, # of connection points: 4
#     Node 7, Type 0, BuildingBlock: NAHDIM_clean_sbu_0, # of connection points: 4
#     Node 8, Type 0, BuildingBlock: NAHDIM_clean_sbu_0, # of connection points: 4
#     Node 9, Type 0, BuildingBlock: NAHDIM_clean_sbu_0, # of connection points: 4
#     Node 10, Type 0, BuildingBlock: NAHDIM_clean_sbu_0, # of connection points: 4
#     Node 11, Type 0, BuildingBlock: NAHDIM_clean_sbu_0, # of connection points: 4
#     Edge 12, Type (0, 0), BuildingBlock: AJUNOK_clean_linker_0, # of connection points: 2
#     Edge 13, Type (0, 0), BuildingBlock: AJUNOK_clean_linker_0, # of connection points: 2
#     Edge 14, Type (0, 0), BuildingBlock: AJUNOK_clean_linker_0, # of connection points: 2
#     Edge 15, Type (0, 0), BuildingBlock: AJUNOK_clean_linker_0, # of connection points: 2
#     Edge 16, Type (0, 0), BuildingBlock: AJUNOK_clean_linker_0, # of connection points: 2
#     Edge 17, Type (0, 0), BuildingBlock: AJUNOK_clean_linker_0, # of connection points: 2
#     Edge 18, Type (0, 0), BuildingBlock: AJUNOK_clean_linker_0, # of connection points: 2
#     Edge 19, Type (0, 0), BuildingBlock: AJUNOK_clean_linker_0, # of connection points: 2
#     Edge 20, Type (0, 0), BuildingBlock: AJUNOK_clean_linker_0, # of connection points: 2
#     Edge 21, Type (0, 0), BuildingBlock: AJUNOK_clean_linker_0, # of connection points: 2
#     Edge 22, Type (0, 0), BuildingBlock: AJUNOK_clean_linker_0, # of connection points: 2
#     Edge 23, Type (0, 0), BuildingBlock: AJUNOK_clean_linker_0, # of connection points: 2
#     Edge 24, Type (0, 0), BuildingBlock: AJUNOK_clean_linker_0, # of connection points: 2
#     Edge 25, Type (0, 0), BuildingBlock: AJUNOK_clean_linker_0, # of connection points: 2
#     Edge 26, Type (0, 0), BuildingBlock: AJUNOK_clean_linker_0, # of connection points: 2
#     Edge 27, Type (0, 0), BuildingBlock: AJUNOK_clean_linker_0, # of connection points: 2
#     Edge 28, Type (0, 0), BuildingBlock: AJUNOK_clean_linker_0, # of connection points: 2
#     Edge 29, Type (0, 0), BuildingBlock: AJUNOK_clean_linker_0, # of connection points: 2
#     Edge 30, Type (0, 0), BuildingBlock: AJUNOK_clean_linker_0, # of connection points: 2
#     Edge 31, Type (0, 0), BuildingBlock: AJUNOK_clean_linker_0, # of connection points: 2
#     Edge 32, Type (0, 0), BuildingBlock: AJUNOK_clean_linker_0, # of connection points: 2
#     Edge 33, Type (0, 0), BuildingBlock: AJUNOK_clean_linker_0, # of connection points: 2
#     Edge 34, Type (0, 0), BuildingBlock: AJUNOK_clean_linker_0, # of connection points: 2
#     Edge 35, Type (0, 0), BuildingBlock: AJUNOK_clean_linker_0, # of connection points: 2
# Relax obj value: 0.144
# Max RMSD: 0.136
# Mean RMSD: 0.135
data_MOF--net-wjh--node1-NAHDIM_clean_sbu_0--edge1-AJUNOK_clean_linker_0
_symmetry_space_group_name_H-M    P1
_symmetry_Int_Tables_number       1
_symmetry_cell_setting            triclinic
loop_
_symmetry_equiv_pos_as_xyz
'x, y, z'
_cell_length_a     47.085657
_cell_length_b     47.105713
_cell_length_c     17.629789
_cell_angle_alpha  89.914468
_cell_angle_beta   89.983404
_cell_angle_gamma 119.9775
loop_
_atom_site_label
_atom_site_type_symbol
_atom_site_fract_x
_atom_site_fract_y
_atom_site_fract_z
_atom_type_partial_charge
C0 C 0.50816 0.19469 0.11431 0.0
O1 O 0.53659 0.19585 0.11044 0.0
O2 O 0.51221 0.13645 0.97538 0.0
Zn3 Zn 0.48907 0.12997 0.07582 0.0
O4 O 0.51661 0.12782 0.1599 0.0
C5 C 0.43445 0.0663 0.02809 0.0
O6 O 0.448 0.07399 0.96048 0.0
O7 O 0.48236 0.16789 0.09873 0.0
C8 C 0.50238 0.11655 0.22314 0.0
O9 O 0.47134 0.10795 0.23025 0.0
C10 C 0.53008 0.12377 0.96261 0.0
O11 O 0.53287 0.10569 0.01564 0.0
O12 O 0.44678 0.08715 0.0811 0.0
C13 C 0.31455 0.51249 0.31243 0.0
O14 O 0.34191 0.54089 0.3128 0.0
O15 O 0.37904 0.51642 0.17544 0.0
Zn16 Zn 0.36044 0.49289 0.27528 0.0
O17 O 0.38937 0.51976 0.36184 0.0
C18 C 0.36445 0.43594 0.22384 0.0
O19 O 0.36776 0.4487 0.15589 0.0
O20 O 0.31579 0.487 0.2947 0.0
C21 C 0.41038 0.51349 0.39078 0.0
O22 O 0.41427 0.49011 0.36111 0.0
C23 C 0.40988 0.53219 0.16435 0.0
O24 O 0.42927 0.53245 0.21818 0.0
O25 O 0.35901 0.44956 0.27965 0.0
C26 C 0.8009 0.3116 0.44153 0.0
O27 O 0.80301 0.34047 0.4417 0.0
O28 O 0.86774 0.37543 0.31164 0.0
Zn29 Zn 0.86726 0.35402 0.4121 0.0
O30 O 0.86716 0.38192 0.49775 0.0
C31 C 0.92926 0.35816 0.37348 0.0
O32 O 0.92182 0.36248 0.30423 0.0
O33 O 0.82644 0.31007 0.42564 0.0
C34 C 0.8932 0.406 0.52361 0.0
O35 O 0.9214 0.41387 0.49157 0.0
C36 C 0.85887 0.39685 0.30684 0.0
O37 O 0.84848 0.40464 0.36819 0.0
O38 O 0.90845 0.3517 0.42606 0.0
C39 C 0.48625 0.80132 0.63278 0.0
O40 O 0.45905 0.80259 0.62866 0.0
O41 O 0.48438 0.85997 0.49106 0.0
Zn42 Zn 0.5082 0.8658 0.59029 0.0
O43 O 0.48067 0.86797 0.67427 0.0
C44 C 0.56357 0.92782 0.53801 0.0
O45 O 0.55037 0.91821 0.47056 0.0
O46 O 0.51305 0.82667 0.61424 0.0
C47 C 0.4938 0.8809 0.73726 0.0
O48 O 0.52562 0.89385 0.74555 0.0
C49 C 0.46812 0.87462 0.48134 0.0
O50 O 0.46806 0.89364 0.53564 0.0
O51 O 0.55087 0.9085 0.59394 0.0
C52 C 0.6817 0.48603 0.77936 0.0
O53 O 0.65367 0.45834 0.78284 0.0
O54 O 0.61518 0.48712 0.65223 0.0
Zn55 Zn 0.63692 0.50793 0.75201 0.0
O56 O 0.60956 0.47981 0.83837 0.0
C57 C 0.63416 0.56637 0.71192 0.0
O58 O 0.63146 0.55529 0.64244 0.0
O59 O 0.68137 0.51214 0.76287 0.0
C60 C 0.58531 0.48169 0.86363 0.0
O61 O 0.57736 0.50178 0.83064 0.0
C62 C 0.59447 0.45667 0.64712 0.0
O63 O 0.58782 0.43817 0.70774 0.0
O64 O 0.63894 0.55126 0.76563 0.0
C65 C 0.19226 0.6823 0.97154 0.0
O66 O 0.19253 0.65453 0.97173 0.0
O67 O 0.13207 0.61786 0.83824 0.0
Zn68 Zn 0.12719 0.63683 0.9372 0.0
O69 O 0.1269 0.60899 0.02422 0.0
C70 C 0.06561 0.63114 0.88622 0.0
O71 O 0.07572 0.62869 0.81838 0.0
O72 O 0.16576 0.68175 0.95459 0.0
C73 C 0.10075 0.5885 0.05808 0.0
O74 O 0.07246 0.58396 0.03342 0.0
C75 C 0.11776 0.58697 0.82895 0.0
O76 O 0.09936 0.5678 0.88402 0.0
O77 O 0.08456 0.63686 0.94241 0.0
C78 C 0.79973 0.48386 0.86902 0.0
O79 O 0.7982 0.45528 0.87382 0.0
O80 O 0.86039 0.48137 0.00505 0.0
Zn81 Zn 0.86519 0.50308 0.9029 0.0
O82 O 0.86547 0.47404 0.81964 0.0
C83 C 0.92685 0.56104 0.94807 0.0
O84 O 0.91748 0.55082 0.01788 0.0
O85 O 0.82692 0.5096 0.88233 0.0
C86 C 0.89196 0.47896 0.78878 0.0
O87 O 0.92004 0.50255 0.81467 0.0
C88 C 0.87359 0.46399 0.01814 0.0
O89 O 0.89107 0.46071 0.96441 0.0
O90 O 0.90763 0.54558 0.89381 0.0
C91 C 0.31205 0.80057 0.06054 0.0
O92 O 0.33899 0.79881 0.06471 0.0
O93 O 0.37929 0.86846 0.18441 0.0
Zn94 Zn 0.35963 0.86664 0.08111 0.0
O95 O 0.38709 0.86229 0.00066 0.0
C96 C 0.36332 0.92924 0.10872 0.0
O97 O 0.36069 0.92051 0.18032 0.0
O98 O 0.31405 0.82826 0.06973 0.0
C99 C 0.41625 0.88513 0.98879 0.0
O100 O 0.42879 0.91113 0.03266 0.0
C101 C 0.39791 0.85654 0.19627 0.0
O102 O 0.40331 0.84128 0.14071 0.0
O103 O 0.36148 0.90924 0.05815 0.0
C104 C 0.50697 0.31209 0.21316 0.0
O105 O 0.53525 0.33941 0.2189 0.0
O106 O 0.50882 0.37455 0.34665 0.0
Zn107 Zn 0.48718 0.35775 0.2447 0.0
O108 O 0.5165 0.38689 0.16133 0.0
C109 C 0.43032 0.3634 0.28894 0.0
O110 O 0.44112 0.36521 0.35849 0.0
O111 O 0.48084 0.31303 0.22489 0.0
C112 C 0.51196 0.40866 0.13023 0.0
O113 O 0.48863 0.41361 0.15608 0.0
C114 C 0.52596 0.40508 0.3601 0.0
O115 O 0.52893 0.42594 0.30688 0.0
O116 O 0.44485 0.35805 0.23501 0.0
C117 C 0.19391 0.50935 0.40263 0.0
O118 O 0.19378 0.53718 0.40243 0.0
O119 O 0.1246 0.50475 0.53204 0.0
Zn120 Zn 0.1269 0.48684 0.42927 0.0
O121 O 0.12818 0.51696 0.34725 0.0
C122 C 0.06536 0.42644 0.45953 0.0
O123 O 0.07243 0.43461 0.53114 0.0
O124 O 0.16731 0.48303 0.41681 0.0
C125 C 0.10203 0.51553 0.3237 0.0
O126 O 0.07405 0.49496 0.3563 0.0
C127 C 0.13443 0.53501 0.54202 0.0
O128 O 0.14755 0.55531 0.48464 0.0
O129 O 0.08598 0.44392 0.40907 0.0
C130 C 0.68069 0.19405 0.53413 0.0
O131 O 0.65261 0.19363 0.53424 0.0
O132 O 0.61603 0.12794 0.66535 0.0
Zn133 Zn 0.63571 0.12794 0.56271 0.0
O134 O 0.60719 0.12946 0.48047 0.0
C135 C 0.63343 0.06659 0.59989 0.0
O136 O 0.63549 0.0766 0.67022 0.0
O137 O 0.68062 0.1675 0.54794 0.0
C138 C 0.57722 0.10755 0.47485 0.0
O139 O 0.5646 0.08365 0.52485 0.0
C140 C 0.59778 0.1405 0.67404 0.0
O141 O 0.59254 0.15462 0.6157 0.0
O142 O 0.63517 0.08546 0.54636 0.0
C143 C 0.4859 0.68393 0.73894 0.0
O144 O 0.45827 0.65597 0.74479 0.0
O145 O 0.49097 0.62007 0.86444 0.0
Zn146 Zn 0.50924 0.64001 0.7614 0.0
O147 O 0.47988 0.61063 0.67904 0.0
C148 C 0.56875 0.63762 0.79369 0.0
O149 O 0.55955 0.63543 0.86484 0.0
O150 O 0.51274 0.68398 0.74709 0.0
C151 C 0.4824 0.58615 0.65839 0.0
O152 O 0.50264 0.57948 0.69509 0.0
C153 C 0.46092 0.59882 0.87446 0.0
O154 O 0.44071 0.5904 0.81668 0.0
O155 O 0.55246 0.64236 0.74293 0.0
C156 C 0.55506 0.13173 0.28846 0.0
C157 C 0.52063 0.11352 0.28794 0.0
C158 C 0.57301 0.12971 0.34936 0.0
C159 C 0.55727 0.10905 0.41177 0.0
H160 H 0.56834 0.148 0.2418 0.0
H161 H 0.5995 0.14435 0.34704 0.0
S162 S 0.46745 0.0556 0.43726 0.0
N163 N 0.47134 0.07381 0.35474 0.0
N164 N 0.50513 0.06979 0.46904 0.0
C165 C 0.52282 0.09046 0.41176 0.0
C166 C 0.50449 0.09277 0.34995 0.0
C167 C 0.42325 0.55512 0.4925 0.0
C168 C 0.42934 0.53164 0.45866 0.0
C169 C 0.44027 0.57229 0.55734 0.0
C170 C 0.4641 0.5667 0.59124 0.0
H171 H 0.40509 0.56034 0.46895 0.0
H172 H 0.43463 0.59013 0.58096 0.0
S173 S 0.48984 0.50819 0.5243 0.0
N174 N 0.46126 0.50391 0.46369 0.0
N175 N 0.49324 0.5362 0.58547 0.0
C176 C 0.4705 0.54329 0.55808 0.0
C177 C 0.45317 0.5258 0.49184 0.0
C178 C 0.92089 0.46669 0.68626 0.0
C179 C 0.89131 0.45945 0.7222 0.0
C180 C 0.92119 0.44944 0.62198 0.0
C181 C 0.89193 0.42417 0.59091 0.0
H182 H 0.94414 0.486 0.70758 0.0
H183 H 0.94465 0.45601 0.59668 0.0
S184 S 0.80771 0.3954 0.66356 0.0
N185 N 0.83184 0.42509 0.72193 0.0
N186 N 0.83237 0.39269 0.60118 0.0
C187 C 0.8621 0.41658 0.6263 0.0
C188 C 0.8618 0.43418 0.69188 0.0
C189 C 0.488 0.90446 0.85903 0.0
C190 C 0.47352 0.88116 0.80089 0.0
C191 C 0.46929 0.90549 0.91961 0.0
C192 C 0.43549 0.88296 0.9249 0.0
H193 H 0.51392 0.92238 0.8573 0.0
H194 H 0.48151 0.9241 0.96264 0.0
S195 S 0.38613 0.81606 0.78856 0.0
N196 N 0.42359 0.83445 0.75309 0.0
N197 N 0.38843 0.83609 0.86715 0.0
C198 C 0.4208 0.85915 0.86758 0.0
C199 C 0.43981 0.85836 0.80549 0.0
C200 C 0.52515 0.45021 0.02792 0.0
C201 C 0.53159 0.42721 0.0633 0.0
C202 C 0.54248 0.46747 0.96328 0.0
C203 C 0.56703 0.4625 0.93128 0.0
H204 H 0.50644 0.45494 0.04999 0.0
H205 H 0.53656 0.48493 0.93848 0.0
S206 S 0.59338 0.40487 0.00182 0.0
N207 N 0.56432 0.40032 0.06128 0.0
N208 N 0.59686 0.43271 0.93983 0.0
C209 C 0.57379 0.43958 0.96604 0.0
C210 C 0.55611 0.42197 0.03198 0.0
C211 C 0.07307 0.53004 0.22566 0.0
C212 C 0.1027 0.53521 0.25731 0.0
C213 C 0.07276 0.54729 0.16125 0.0
C214 C 0.10207 0.57046 0.12575 0.0
H215 H 0.04977 0.51229 0.25029 0.0
H216 H 0.04923 0.54226 0.13915 0.0
S217 S 0.18647 0.59388 0.18732 0.0
N218 N 0.16231 0.56574 0.24903 0.0
N219 N 0.16174 0.59813 0.12801 0.0
C220 C 0.13197 0.57611 0.15711 0.0
C221 C 0.13228 0.55852 0.22283 0.0
C222 C 0.53561 0.28178 0.17536 0.0
C223 C 0.50601 0.2814 0.18943 0.0
C224 C 0.53589 0.25371 0.1508 0.0
C225 C 0.50658 0.22397 0.13904 0.0
H226 H 0.55895 0.30401 0.18304 0.0
H227 H 0.55943 0.25549 0.14085 0.0
S228 S 0.42227 0.20958 0.16861 0.0
N229 N 0.44642 0.24853 0.19044 0.0
N230 N 0.44695 0.19569 0.14417 0.0
C231 C 0.4767 0.2231 0.15306 0.0
C232 C 0.47642 0.25179 0.17832 0.0
C233 C 0.28241 0.53951 0.3481 0.0
C234 C 0.28323 0.51047 0.33515 0.0
C235 C 0.25355 0.53875 0.37071 0.0
C236 C 0.22422 0.5089 0.38175 0.0
H237 H 0.30423 0.56321 0.34048 0.0
H238 H 0.25435 0.5619 0.37936 0.0
S239 S 0.21316 0.42569 0.35642 0.0
N240 N 0.25208 0.45081 0.33567 0.0
N241 N 0.19781 0.44938 0.3784 0.0
C242 C 0.22465 0.47958 0.36954 0.0
C243 C 0.25411 0.48036 0.3461 0.0
C244 C 0.73978 0.22321 0.49419 0.0
C245 C 0.71133 0.22441 0.51291 0.0
C246 C 0.76848 0.25137 0.47034 0.0
C247 C 0.76994 0.2819 0.46458 0.0
H248 H 0.73982 0.20026 0.49703 0.0
H249 H 0.78969 0.24913 0.45651 0.0
S250 S 0.70244 0.29847 0.50968 0.0
N251 N 0.6867 0.25893 0.52588 0.0
N252 N 0.74038 0.31164 0.48114 0.0
C253 C 0.74172 0.28347 0.48384 0.0
C254 C 0.71253 0.25482 0.508 0.0
C255 C 0.5145 0.76934 0.66123 0.0
C256 C 0.48568 0.77139 0.66149 0.0
C257 C 0.51455 0.74132 0.68805 0.0
C258 C 0.48575 0.71417 0.71603 0.0
H259 H 0.53723 0.78943 0.63958 0.0
H260 H 0.53725 0.74076 0.68542 0.0
S261 S 0.40421 0.70786 0.73417 0.0
N262 N 0.42782 0.74424 0.69583 0.0
N263 N 0.42798 0.69174 0.74591 0.0
C264 C 0.45691 0.71613 0.71813 0.0
C265 C 0.45685 0.74466 0.69094 0.0
C266 C 0.71169 0.45708 0.81763 0.0
C267 C 0.7126 0.48665 0.79968 0.0
C268 C 0.73993 0.45659 0.84012 0.0
C269 C 0.77036 0.48565 0.84599 0.0
H270 H 0.6889 0.43394 0.81475 0.0
H271 H 0.73771 0.4331 0.85337 0.0
S272 S 0.78638 0.5697 0.80395 0.0
N273 N 0.74677 0.54589 0.78822 0.0
N274 N 0.7999 0.54497 0.83071 0.0
C275 C 0.77178 0.51547 0.82784 0.0
C276 C 0.74294 0.51596 0.80456 0.0
C277 C 0.2505 0.71216 0.01445 0.0
C278 C 0.2221 0.71311 0.99411 0.0
C279 C 0.2791 0.74045 0.03691 0.0
C280 C 0.28061 0.771 0.04024 0.0
H281 H 0.25084 0.68934 0.01302 0.0
H282 H 0.30025 0.73822 0.05148 0.0
S283 S 0.21297 0.78701 0.9933 0.0
N284 N 0.19717 0.7473 0.97918 0.0
N285 N 0.25103 0.80058 0.02154 0.0
C286 C 0.25233 0.7724 0.02068 0.0
C287 C 0.2231 0.74347 0.99752 0.0
C288 C 0.58276 0.11809 0.80624 0.0
C289 C 0.58118 0.13764 0.7478 0.0
C290 C 0.56628 0.11389 0.87526 0.0
C291 C 0.54753 0.1291 0.88899 0.0
H292 H 0.59655 0.10553 0.79851 0.0
H293 H 0.56818 0.09837 0.91798 0.0
S294 S 0.53642 0.18396 0.7557 0.0
N295 N 0.55998 0.17319 0.70923 0.0
N296 N 0.52909 0.1653 0.83864 0.0
C297 C 0.54607 0.1491 0.83142 0.0
C298 C 0.56285 0.15336 0.76103 0.0
C299 C 0.41489 0.56252 0.96184 0.0
C300 C 0.44879 0.58285 0.9496 0.0
C301 C 0.40261 0.54647 0.03134 0.0
C302 C 0.42369 0.54986 0.09159 0.0
H303 H 0.39753 0.55887 0.91736 0.0
H304 H 0.37631 0.53108 0.03749 0.0
S305 S 0.51465 0.60032 0.08909 0.0
N306 N 0.50334 0.60556 0.00406 0.0
N307 N 0.48036 0.57539 0.13434 0.0
C308 C 0.4577 0.5702 0.08027 0.0
C309 C 0.4702 0.58669 0.00951 0.0
C310 C 0.88237 0.42644 0.1034 0.0
C311 C 0.86912 0.44714 0.09235 0.0
C312 C 0.87861 0.41007 0.1724 0.0
C313 C 0.86157 0.41379 0.23365 0.0
H314 H 0.89584 0.42274 0.05837 0.0
H315 H 0.88949 0.39463 0.17782 0.0
S316 S 0.82154 0.46468 0.23415 0.0
N317 N 0.83779 0.47007 0.1487 0.0
N318 N 0.83079 0.43943 0.27824 0.0
C319 C 0.84802 0.43429 0.22341 0.0
C320 C 0.85177 0.4509 0.15293 0.0
C321 C 0.45115 0.85092 0.351 0.0
C322 C 0.44953 0.8702 0.40993 0.0
C323 C 0.43413 0.84645 0.2828 0.0
C324 C 0.41465 0.86097 0.27045 0.0
H325 H 0.46583 0.83924 0.3572 0.0
H326 H 0.43647 0.83153 0.2393 0.0
S327 S 0.40171 0.91351 0.40691 0.0
N328 N 0.42647 0.90376 0.45154 0.0
N329 N 0.39454 0.89532 0.32355 0.0
C330 C 0.41256 0.88012 0.3291 0.0
C331 C 0.42998 0.88475 0.39864 0.0
C332 C 0.57991 0.46358 0.51431 0.0
C333 C 0.57706 0.44262 0.57444 0.0
C334 C 0.5632 0.45118 0.44573 0.0
C335 C 0.54301 0.41725 0.43401 0.0
H336 H 0.59497 0.48991 0.52025 0.0
H337 H 0.56626 0.46849 0.40155 0.0
S338 S 0.52759 0.35167 0.57296 0.0
N339 N 0.55265 0.38605 0.61737 0.0
N340 N 0.52136 0.36279 0.4886 0.0
C341 C 0.54003 0.39594 0.49353 0.0
C342 C 0.557 0.4086 0.56359 0.0
C343 C 0.14336 0.58124 0.62738 0.0
C344 C 0.13029 0.54735 0.61648 0.0
C345 C 0.13929 0.59373 0.6961 0.0
C346 C 0.12183 0.57289 0.75699 0.0
H347 H 0.15688 0.59844 0.58239 0.0
H348 H 0.14981 0.62001 0.70117 0.0
S349 S 0.08279 0.48208 0.75825 0.0
N350 N 0.09925 0.49307 0.67302 0.0
N351 N 0.09154 0.51646 0.80193 0.0
C352 C 0.1087 0.5389 0.74709 0.0
C353 C 0.11295 0.52617 0.67705 0.0
C354 C 0.40166 0.00722 0.99186 0.0
C355 C 0.41007 0.03174 0.04682 0.0
C356 C 0.38445 0.97397 0.01159 0.0
C357 C 0.37501 0.96385 0.08718 0.0
H358 H 0.40994 0.01364 0.93377 0.0
H359 H 0.38017 0.95621 0.96768 0.0
S360 S 0.38549 0.01815 0.24997 0.0
N361 N 0.40334 0.04344 0.17814 0.0
N362 N 0.37127 0.98097 0.21517 0.0
C363 C 0.38069 0.98799 0.14142 0.0
C364 C 0.39813 0.02191 0.12126 0.0
C365 C 0.39589 0.3873 0.33006 0.0
C366 C 0.4069 0.37495 0.27145 0.0
C367 C 0.37988 0.40491 0.31412 0.0
C368 C 0.37437 0.41108 0.23885 0.0
H369 H 0.40126 0.38501 0.38875 0.0
H370 H 0.3736 0.4154 0.36138 0.0
S371 S 0.39224 0.37829 0.06525 0.0
N372 N 0.40642 0.36565 0.13536 0.0
N373 N 0.37667 0.39909 0.1056 0.0
C374 C 0.38248 0.39628 0.17998 0.0
C375 C 0.39864 0.37813 0.19621 0.0
C376 C 0.00624 0.38965 0.49175 0.0
C377 C 0.03126 0.40235 0.4368 0.0
C378 C 0.97313 0.37303 0.47074 0.0
C379 C 0.96369 0.36848 0.39387 0.0
H380 H 0.01209 0.39426 0.55149 0.0
H381 H 0.95493 0.36555 0.51531 0.0
S382 S 0.01963 0.39065 0.22836 0.0
N383 N 0.04429 0.40446 0.30242 0.0
N384 N 0.98206 0.37336 0.26306 0.0
C385 C 0.9884 0.37818 0.3386 0.0
C386 C 0.02218 0.39508 0.36001 0.0
C387 C 0.59518 0.98599 0.49374 0.0
C388 C 0.5878 0.96288 0.55197 0.0
C389 C 0.61207 0.01967 0.50889 0.0
C390 C 0.62224 0.03166 0.58297 0.0
H391 H 0.58625 0.97811 0.43664 0.0
H392 H 0.61546 0.03626 0.46268 0.0
S393 S 0.615 0.98165 0.75259 0.0
N394 N 0.59652 0.95457 0.68443 0.0
N395 N 0.62808 0.01786 0.7129 0.0
C396 C 0.6177 0.00897 0.64035 0.0
C397 C 0.60055 0.9746 0.62486 0.0
C398 C 0.62097 0.59753 0.80682 0.0
C399 C 0.62444 0.59112 0.73035 0.0
C400 C 0.60513 0.61492 0.82679 0.0
C401 C 0.59217 0.62667 0.77115 0.0
H402 H 0.62878 0.58743 0.8521 0.0
H403 H 0.60139 0.61741 0.88648 0.0
S404 S 0.60069 0.62225 0.5625 0.0
N405 N 0.61798 0.60222 0.59855 0.0
N406 N 0.58836 0.63501 0.6359 0.0
C407 C 0.59832 0.62323 0.69437 0.0
C408 C 0.6144 0.60542 0.67403 0.0
C409 C 0.01846 0.61407 0.97537 0.0
C410 C 0.03049 0.62001 0.90037 0.0
C411 C 0.98475 0.59699 0.99052 0.0
C412 C 0.96166 0.5853 0.93135 0.0
H413 H 0.0351 0.62089 0.02303 0.0
H414 H 0.97688 0.59138 0.04906 0.0
S415 S 0.98033 0.60056 0.72547 0.0
N416 N 0.0166 0.61728 0.7667 0.0
N417 N 0.95325 0.5855 0.79498 0.0
C418 C 0.97333 0.5939 0.85634 0.0
C419 C 0.00772 0.61117 0.84091 0.0
loop_
_geom_bond_atom_site_label_1
_geom_bond_atom_site_label_2
_geom_bond_distance
_geom_bond_site_symmetry_2
_ccdc_geom_bond_type
C0 O1 1.160 . S
C0 O7 1.185 . S
O1 C0 1.160 . S
O2 Zn3 1.899 1_556 S
O2 C10 1.284 . S
Zn3 O2 1.899 1_554 S
Zn3 O4 2.032 . S
Zn3 O7 2.086 . S
Zn3 O12 1.977 . S
O4 Zn3 2.032 . S
O4 C8 1.278 . S
C5 O6 1.203 . S
C5 O12 1.267 . S
O6 C5 1.203 . S
O7 C0 1.185 . S
O7 Zn3 2.086 . S
C8 O4 1.278 . S
C8 O9 1.211 . S
O9 C8 1.211 . S
C10 O2 1.284 . S
C10 O11 1.273 1_556 S
O11 C10 1.273 1_554 S
O12 Zn3 1.977 . S
O12 C5 1.267 . S
C13 O14 1.160 . S
C13 O20 1.185 . S
O14 C13 1.160 . S
O15 Zn16 1.899 . S
O15 C23 1.284 . S
Zn16 O15 1.899 . S
Zn16 O17 2.032 . S
Zn16 O20 2.086 . S
Zn16 O25 1.977 . S
O17 Zn16 2.032 . S
O17 C21 1.278 . S
C18 O19 1.203 . S
C18 O25 1.267 . S
O19 C18 1.203 . S
O20 C13 1.185 . S
O20 Zn16 2.086 . S
C21 O17 1.278 . S
C21 O22 1.211 . S
O22 C21 1.211 . S
C23 O15 1.284 . S
C23 O24 1.273 . S
O24 C23 1.273 . S
O25 Zn16 1.977 . S
O25 C18 1.267 . S
C26 O27 1.160 . S
C26 O33 1.185 . S
O27 C26 1.160 . S
O28 Zn29 1.899 . S
O28 C36 1.284 . S
Zn29 O28 1.899 . S
Zn29 O30 2.032 . S
Zn29 O33 2.086 . S
Zn29 O38 1.977 . S
O30 Zn29 2.032 . S
O30 C34 1.278 . S
C31 O32 1.203 . S
C31 O38 1.267 . S
O32 C31 1.203 . S
O33 C26 1.185 . S
O33 Zn29 2.086 . S
C34 O30 1.278 . S
C34 O35 1.211 . S
O35 C34 1.211 . S
C36 O28 1.284 . S
C36 O37 1.273 . S
O37 C36 1.273 . S
O38 Zn29 1.977 . S
O38 C31 1.267 . S
C39 O40 1.160 . S
C39 O46 1.185 . S
O40 C39 1.160 . S
O41 Zn42 1.899 . S
O41 C49 1.284 . S
Zn42 O41 1.899 . S
Zn42 O43 2.032 . S
Zn42 O46 2.086 . S
Zn42 O51 1.977 . S
O43 Zn42 2.032 . S
O43 C47 1.278 . S
C44 O45 1.203 . S
C44 O51 1.267 . S
O45 C44 1.203 . S
O46 C39 1.185 . S
O46 Zn42 2.086 . S
C47 O43 1.278 . S
C47 O48 1.211 . S
O48 C47 1.211 . S
C49 O41 1.284 . S
C49 O50 1.273 . S
O50 C49 1.273 . S
O51 Zn42 1.977 . S
O51 C44 1.267 . S
C52 O53 1.160 . S
C52 O59 1.185 . S
O53 C52 1.160 . S
O54 Zn55 1.899 . S
O54 C62 1.284 . S
Zn55 O54 1.899 . S
Zn55 O56 2.032 . S
Zn55 O59 2.086 . S
Zn55 O64 1.977 . S
O56 Zn55 2.032 . S
O56 C60 1.278 . S
C57 O58 1.203 . S
C57 O64 1.267 . S
O58 C57 1.203 . S
O59 C52 1.185 . S
O59 Zn55 2.086 . S
C60 O56 1.278 . S
C60 O61 1.211 . S
O61 C60 1.211 . S
C62 O54 1.284 . S
C62 O63 1.273 . S
O63 C62 1.273 . S
O64 Zn55 1.977 . S
O64 C57 1.267 . S
C65 O66 1.160 . S
C65 O72 1.185 . S
O66 C65 1.160 . S
O67 Zn68 1.899 . S
O67 C75 1.284 . S
Zn68 O67 1.899 . S
Zn68 O69 2.032 1_556 S
Zn68 O72 2.086 . S
Zn68 O77 1.977 . S
O69 Zn68 2.032 1_554 S
O69 C73 1.278 . S
C70 O71 1.203 . S
C70 O77 1.267 . S
O71 C70 1.203 . S
O72 C65 1.185 . S
O72 Zn68 2.086 . S
C73 O69 1.278 . S
C73 O74 1.211 . S
O74 C73 1.211 . S
C75 O67 1.284 . S
C75 O76 1.273 . S
O76 C75 1.273 . S
O77 Zn68 1.977 . S
O77 C70 1.267 . S
C78 O79 1.160 . S
C78 O85 1.185 . S
O79 C78 1.160 . S
O80 Zn81 1.899 1_554 S
O80 C88 1.284 . S
Zn81 O80 1.899 1_556 S
Zn81 O82 2.032 . S
Zn81 O85 2.086 . S
Zn81 O90 1.977 . S
O82 Zn81 2.032 . S
O82 C86 1.278 . S
C83 O84 1.203 . S
C83 O90 1.267 . S
O84 C83 1.203 . S
O85 C78 1.185 . S
O85 Zn81 2.086 . S
C86 O82 1.278 . S
C86 O87 1.211 . S
O87 C86 1.211 . S
C88 O80 1.284 . S
C88 O89 1.273 1_554 S
O89 C88 1.273 1_556 S
O90 Zn81 1.977 . S
O90 C83 1.267 . S
C91 O92 1.160 . S
C91 O98 1.185 . S
O92 C91 1.160 . S
O93 Zn94 1.899 . S
O93 C101 1.284 . S
Zn94 O93 1.899 . S
Zn94 O95 2.032 1_554 S
Zn94 O98 2.086 . S
Zn94 O103 1.977 . S
O95 Zn94 2.032 1_556 S
O95 C99 1.278 . S
C96 O97 1.203 . S
C96 O103 1.267 . S
O97 C96 1.203 . S
O98 C91 1.185 . S
O98 Zn94 2.086 . S
C99 O95 1.278 . S
C99 O100 1.211 . S
O100 C99 1.211 . S
C101 O93 1.284 . S
C101 O102 1.273 . S
O102 C101 1.273 . S
O103 Zn94 1.977 . S
O103 C96 1.267 . S
C104 O105 1.160 . S
C104 O111 1.185 . S
O105 C104 1.160 . S
O106 Zn107 1.899 . S
O106 C114 1.284 . S
Zn107 O106 1.899 . S
Zn107 O108 2.032 . S
Zn107 O111 2.086 . S
Zn107 O116 1.977 . S
O108 Zn107 2.032 . S
O108 C112 1.278 . S
C109 O110 1.203 . S
C109 O116 1.267 . S
O110 C109 1.203 . S
O111 C104 1.185 . S
O111 Zn107 2.086 . S
C112 O108 1.278 . S
C112 O113 1.211 . S
O113 C112 1.211 . S
C114 O106 1.284 . S
C114 O115 1.273 . S
O115 C114 1.273 . S
O116 Zn107 1.977 . S
O116 C109 1.267 . S
C117 O118 1.160 . S
C117 O124 1.185 . S
O118 C117 1.160 . S
O119 Zn120 1.899 . S
O119 C127 1.284 . S
Zn120 O119 1.899 . S
Zn120 O121 2.032 . S
Zn120 O124 2.086 . S
Zn120 O129 1.977 . S
O121 Zn120 2.032 . S
O121 C125 1.278 . S
C122 O123 1.203 . S
C122 O129 1.267 . S
O123 C122 1.203 . S
O124 C117 1.185 . S
O124 Zn120 2.086 . S
C125 O121 1.278 . S
C125 O126 1.211 . S
O126 C125 1.211 . S
C127 O119 1.284 . S
C127 O128 1.273 . S
O128 C127 1.273 . S
O129 Zn120 1.977 . S
O129 C122 1.267 . S
C130 O131 1.160 . S
C130 O137 1.185 . S
O131 C130 1.160 . S
O132 Zn133 1.899 . S
O132 C140 1.284 . S
Zn133 O132 1.899 . S
Zn133 O134 2.032 . S
Zn133 O137 2.086 . S
Zn133 O142 1.977 . S
O134 Zn133 2.032 . S
O134 C138 1.278 . S
C135 O136 1.203 . S
C135 O142 1.267 . S
O136 C135 1.203 . S
O137 C130 1.185 . S
O137 Zn133 2.086 . S
C138 O134 1.278 . S
C138 O139 1.211 . S
O139 C138 1.211 . S
C140 O132 1.284 . S
C140 O141 1.273 . S
O141 C140 1.273 . S
O142 Zn133 1.977 . S
O142 C135 1.267 . S
C143 O144 1.160 . S
C143 O150 1.185 . S
O144 C143 1.160 . S
O145 Zn146 1.899 . S
O145 C153 1.284 . S
Zn146 O145 1.899 . S
Zn146 O147 2.032 . S
Zn146 O150 2.086 . S
Zn146 O155 1.977 . S
O147 Zn146 2.032 . S
O147 C151 1.278 . S
C148 O149 1.203 . S
C148 O155 1.267 . S
O149 C148 1.203 . S
O150 C143 1.185 . S
O150 Zn146 2.086 . S
C151 O147 1.278 . S
C151 O152 1.211 . S
O152 C151 1.211 . S
C153 O145 1.284 . S
C153 O154 1.273 . S
O154 C153 1.273 . S
O155 Zn146 1.977 . S
O155 C148 1.267 . S
C156 C157 1.369 . S
C156 C158 1.419 . S
C156 H160 0.930 . S
C157 C156 1.369 . S
C157 C166 1.429 . S
C158 C156 1.419 . S
C158 C159 1.363 . S
C158 H161 0.929 . S
C159 C158 1.363 . S
C159 C165 1.428 . S
H160 C156 0.930 . S
H161 C158 0.929 . S
S162 N163 1.613 . S
S162 N164 1.610 . S
N163 S162 1.613 . S
N163 C166 1.350 . S
N164 S162 1.610 . S
N164 C165 1.351 . S
C165 C159 1.428 . S
C165 N164 1.351 . S
C165 C166 1.434 . S
C166 C157 1.429 . S
C166 N163 1.350 . S
C166 C165 1.434 . S
C167 C168 1.369 . S
C167 C169 1.419 . S
C167 H171 0.930 . S
C168 C167 1.369 . S
C168 C177 1.429 . S
C169 C167 1.419 . S
C169 C170 1.363 . S
C169 H172 0.929 . S
C170 C169 1.363 . S
C170 C176 1.428 . S
H171 C167 0.930 . S
H172 C169 0.929 . S
S173 N174 1.613 . S
S173 N175 1.610 . S
N174 S173 1.613 . S
N174 C177 1.350 . S
N175 S173 1.610 . S
N175 C176 1.351 . S
C176 C170 1.428 . S
C176 N175 1.351 . S
C176 C177 1.434 . S
C177 C168 1.429 . S
C177 N174 1.350 . S
C177 C176 1.434 . S
C178 C179 1.369 . S
C178 C180 1.419 . S
C178 H182 0.930 . S
C179 C178 1.369 . S
C179 C188 1.429 . S
C180 C178 1.419 . S
C180 C181 1.363 . S
C180 H183 0.929 . S
C181 C180 1.363 . S
C181 C187 1.428 . S
H182 C178 0.930 . S
H183 C180 0.929 . S
S184 N185 1.613 . S
S184 N186 1.610 . S
N185 S184 1.613 . S
N185 C188 1.350 . S
N186 S184 1.610 . S
N186 C187 1.351 . S
C187 C181 1.428 . S
C187 N186 1.351 . S
C187 C188 1.434 . S
C188 C179 1.429 . S
C188 N185 1.350 . S
C188 C187 1.434 . S
C189 C190 1.369 . S
C189 C191 1.419 . S
C189 H193 0.930 . S
C190 C189 1.369 . S
C190 C199 1.429 . S
C191 C189 1.419 . S
C191 C192 1.363 . S
C191 H194 0.929 . S
C192 C191 1.363 . S
C192 C198 1.428 . S
H193 C189 0.930 . S
H194 C191 0.929 . S
S195 N196 1.613 . S
S195 N197 1.610 . S
N196 S195 1.613 . S
N196 C199 1.350 . S
N197 S195 1.610 . S
N197 C198 1.351 . S
C198 C192 1.428 . S
C198 N197 1.351 . S
C198 C199 1.434 . S
C199 C190 1.429 . S
C199 N196 1.350 . S
C199 C198 1.434 . S
C200 C201 1.369 . S
C200 C202 1.419 1_554 S
C200 H204 0.930 . S
C201 C200 1.369 . S
C201 C210 1.429 . S
C202 C200 1.419 1_556 S
C202 C203 1.363 . S
C202 H205 0.929 . S
C203 C202 1.363 . S
C203 C209 1.428 . S
H204 C200 0.930 . S
H205 C202 0.929 . S
S206 N207 1.613 1_556 S
S206 N208 1.610 . S
N207 S206 1.613 1_554 S
N207 C210 1.350 . S
N208 S206 1.610 . S
N208 C209 1.351 . S
C209 C203 1.428 . S
C209 N208 1.351 . S
C209 C210 1.434 1_556 S
C210 C201 1.429 . S
C210 N207 1.350 . S
C210 C209 1.434 1_554 S
C211 C212 1.369 . S
C211 C213 1.419 . S
C211 H215 0.930 . S
C212 C211 1.369 . S
C212 C221 1.429 . S
C213 C211 1.419 . S
C213 C214 1.363 . S
C213 H216 0.929 . S
C214 C213 1.363 . S
C214 C220 1.428 . S
H215 C211 0.930 . S
H216 C213 0.929 . S
S217 N218 1.613 . S
S217 N219 1.610 . S
N218 S217 1.613 . S
N218 C221 1.350 . S
N219 S217 1.610 . S
N219 C220 1.351 . S
C220 C214 1.428 . S
C220 N219 1.351 . S
C220 C221 1.434 . S
C221 C212 1.429 . S
C221 N218 1.350 . S
C221 C220 1.434 . S
C222 C223 1.369 . S
C222 C224 1.419 . S
C222 H226 0.930 . S
C223 C222 1.369 . S
C223 C232 1.429 . S
C224 C222 1.419 . S
C224 C225 1.363 . S
C224 H227 0.929 . S
C225 C224 1.363 . S
C225 C231 1.428 . S
H226 C222 0.930 . S
H227 C224 0.929 . S
S228 N229 1.613 . S
S228 N230 1.610 . S
N229 S228 1.613 . S
N229 C232 1.350 . S
N230 S228 1.610 . S
N230 C231 1.351 . S
C231 C225 1.428 . S
C231 N230 1.351 . S
C231 C232 1.434 . S
C232 C223 1.429 . S
C232 N229 1.350 . S
C232 C231 1.434 . S
C233 C234 1.369 . S
C233 C235 1.419 . S
C233 H237 0.930 . S
C234 C233 1.369 . S
C234 C243 1.429 . S
C235 C233 1.419 . S
C235 C236 1.363 . S
C235 H238 0.929 . S
C236 C235 1.363 . S
C236 C242 1.428 . S
H237 C233 0.930 . S
H238 C235 0.929 . S
S239 N240 1.613 . S
S239 N241 1.610 . S
N240 S239 1.613 . S
N240 C243 1.350 . S
N241 S239 1.610 . S
N241 C242 1.351 . S
C242 C236 1.428 . S
C242 N241 1.351 . S
C242 C243 1.434 . S
C243 C234 1.429 . S
C243 N240 1.350 . S
C243 C242 1.434 . S
C244 C245 1.369 . S
C244 C246 1.419 . S
C244 H248 0.930 . S
C245 C244 1.369 . S
C245 C254 1.429 . S
C246 C244 1.419 . S
C246 C247 1.363 . S
C246 H249 0.929 . S
C247 C246 1.363 . S
C247 C253 1.428 . S
H248 C244 0.930 . S
H249 C246 0.929 . S
S250 N251 1.613 . S
S250 N252 1.610 . S
N251 S250 1.613 . S
N251 C254 1.350 . S
N252 S250 1.610 . S
N252 C253 1.351 . S
C253 C247 1.428 . S
C253 N252 1.351 . S
C253 C254 1.434 . S
C254 C245 1.429 . S
C254 N251 1.350 . S
C254 C253 1.434 . S
C255 C256 1.369 . S
C255 C257 1.419 . S
C255 H259 0.930 . S
C256 C255 1.369 . S
C256 C265 1.429 . S
C257 C255 1.419 . S
C257 C258 1.363 . S
C257 H260 0.929 . S
C258 C257 1.363 . S
C258 C264 1.428 . S
H259 C255 0.930 . S
H260 C257 0.929 . S
S261 N262 1.613 . S
S261 N263 1.610 . S
N262 S261 1.613 . S
N262 C265 1.350 . S
N263 S261 1.610 . S
N263 C264 1.351 . S
C264 C258 1.428 . S
C264 N263 1.351 . S
C264 C265 1.434 . S
C265 C256 1.429 . S
C265 N262 1.350 . S
C265 C264 1.434 . S
C266 C267 1.369 . S
C266 C268 1.419 . S
C266 H270 0.930 . S
C267 C266 1.369 . S
C267 C276 1.429 . S
C268 C266 1.419 . S
C268 C269 1.363 . S
C268 H271 0.929 . S
C269 C268 1.363 . S
C269 C275 1.428 . S
H270 C266 0.930 . S
H271 C268 0.929 . S
S272 N273 1.613 . S
S272 N274 1.610 . S
N273 S272 1.613 . S
N273 C276 1.350 . S
N274 S272 1.610 . S
N274 C275 1.351 . S
C275 C269 1.428 . S
C275 N274 1.351 . S
C275 C276 1.434 . S
C276 C267 1.429 . S
C276 N273 1.350 . S
C276 C275 1.434 . S
C277 C278 1.369 1_554 S
C277 C279 1.419 . S
C277 H281 0.930 . S
C278 C277 1.369 1_556 S
C278 C287 1.429 . S
C279 C277 1.419 . S
C279 C280 1.363 . S
C279 H282 0.929 . S
C280 C279 1.363 . S
C280 C286 1.428 1_554 S
H281 C277 0.930 . S
H282 C279 0.929 . S
S283 N284 1.613 . S
S283 N285 1.610 . S
N284 S283 1.613 . S
N284 C287 1.350 . S
N285 S283 1.610 . S
N285 C286 1.351 . S
C286 C280 1.428 1_556 S
C286 N285 1.351 . S
C286 C287 1.434 . S
C287 C278 1.429 . S
C287 N284 1.350 . S
C287 C286 1.434 . S
C288 C289 1.369 . S
C288 C290 1.419 . S
C288 H292 0.930 . S
C289 C288 1.369 . S
C289 C298 1.429 . S
C290 C288 1.419 . S
C290 C291 1.363 . S
C290 H293 0.929 . S
C291 C290 1.363 . S
C291 C297 1.428 . S
H292 C288 0.930 . S
H293 C290 0.929 . S
S294 N295 1.613 . S
S294 N296 1.610 . S
N295 S294 1.613 . S
N295 C298 1.350 . S
N296 S294 1.610 . S
N296 C297 1.351 . S
C297 C291 1.428 . S
C297 N296 1.351 . S
C297 C298 1.434 . S
C298 C289 1.429 . S
C298 N295 1.350 . S
C298 C297 1.434 . S
C299 C300 1.369 . S
C299 C301 1.419 1_556 S
C299 H303 0.930 . S
C300 C299 1.369 . S
C300 C309 1.429 1_556 S
C301 C299 1.419 1_554 S
C301 C302 1.363 . S
C301 H304 0.929 . S
C302 C301 1.363 . S
C302 C308 1.428 . S
H303 C299 0.930 . S
H304 C301 0.929 . S
S305 N306 1.613 . S
S305 N307 1.610 . S
N306 S305 1.613 . S
N306 C309 1.350 . S
N307 S305 1.610 . S
N307 C308 1.351 . S
C308 C302 1.428 . S
C308 N307 1.351 . S
C308 C309 1.434 . S
C309 C300 1.429 1_554 S
C309 N306 1.350 . S
C309 C308 1.434 . S
C310 C311 1.369 . S
C310 C312 1.419 . S
C310 H314 0.930 . S
C311 C310 1.369 . S
C311 C320 1.429 . S
C312 C310 1.419 . S
C312 C313 1.363 . S
C312 H315 0.929 . S
C313 C312 1.363 . S
C313 C319 1.428 . S
H314 C310 0.930 . S
H315 C312 0.929 . S
S316 N317 1.613 . S
S316 N318 1.610 . S
N317 S316 1.613 . S
N317 C320 1.350 . S
N318 S316 1.610 . S
N318 C319 1.351 . S
C319 C313 1.428 . S
C319 N318 1.351 . S
C319 C320 1.434 . S
C320 C311 1.429 . S
C320 N317 1.350 . S
C320 C319 1.434 . S
C321 C322 1.369 . S
C321 C323 1.419 . S
C321 H325 0.930 . S
C322 C321 1.369 . S
C322 C331 1.429 . S
C323 C321 1.419 . S
C323 C324 1.363 . S
C323 H326 0.929 . S
C324 C323 1.363 . S
C324 C330 1.428 . S
H325 C321 0.930 . S
H326 C323 0.929 . S
S327 N328 1.613 . S
S327 N329 1.610 . S
N328 S327 1.613 . S
N328 C331 1.350 . S
N329 S327 1.610 . S
N329 C330 1.351 . S
C330 C324 1.428 . S
C330 N329 1.351 . S
C330 C331 1.434 . S
C331 C322 1.429 . S
C331 N328 1.350 . S
C331 C330 1.434 . S
C332 C333 1.369 . S
C332 C334 1.419 . S
C332 H336 0.930 . S
C333 C332 1.369 . S
C333 C342 1.429 . S
C334 C332 1.419 . S
C334 C335 1.363 . S
C334 H337 0.929 . S
C335 C334 1.363 . S
C335 C341 1.428 . S
H336 C332 0.930 . S
H337 C334 0.929 . S
S338 N339 1.613 . S
S338 N340 1.610 . S
N339 S338 1.613 . S
N339 C342 1.350 . S
N340 S338 1.610 . S
N340 C341 1.351 . S
C341 C335 1.428 . S
C341 N340 1.351 . S
C341 C342 1.434 . S
C342 C333 1.429 . S
C342 N339 1.350 . S
C342 C341 1.434 . S
C343 C344 1.369 . S
C343 C345 1.419 . S
C343 H347 0.930 . S
C344 C343 1.369 . S
C344 C353 1.429 . S
C345 C343 1.419 . S
C345 C346 1.363 . S
C345 H348 0.929 . S
C346 C345 1.363 . S
C346 C352 1.428 . S
H347 C343 0.930 . S
H348 C345 0.929 . S
S349 N350 1.613 . S
S349 N351 1.610 . S
N350 S349 1.613 . S
N350 C353 1.350 . S
N351 S349 1.610 . S
N351 C352 1.351 . S
C352 C346 1.428 . S
C352 N351 1.351 . S
C352 C353 1.434 . S
C353 C344 1.429 . S
C353 N350 1.350 . S
C353 C352 1.434 . S
C354 C355 1.369 . S
C354 C356 1.419 1_545 S
C354 H358 0.930 . S
C355 C354 1.369 . S
C355 C364 1.429 . S
C356 C354 1.419 1_565 S
C356 C357 1.363 . S
C356 H359 0.929 . S
C357 C356 1.363 . S
C357 C363 1.428 . S
H358 C354 0.930 . S
H359 C356 0.929 . S
S360 N361 1.626 . S
S360 N362 1.580 1_545 S
N361 S360 1.626 . S
N361 C364 1.350 . S
N362 S360 1.580 1_565 S
N362 C363 1.351 . S
C363 C357 1.428 . S
C363 N362 1.351 . S
C363 C364 1.434 1_565 S
C364 C355 1.429 . S
C364 N361 1.350 . S
C364 C363 1.434 1_545 S
C365 C366 1.369 . S
C365 C367 1.419 . S
C365 H369 0.930 . S
C366 C365 1.369 . S
C366 C375 1.429 . S
C367 C365 1.419 . S
C367 C368 1.363 . S
C367 H370 0.929 . S
C368 C367 1.363 . S
C368 C374 1.428 . S
H369 C365 0.930 . S
H370 C367 0.929 . S
S371 N372 1.613 . S
S371 N373 1.610 . S
N372 S371 1.613 . S
N372 C375 1.350 . S
N373 S371 1.610 . S
N373 C374 1.351 . S
C374 C368 1.428 . S
C374 N373 1.351 . S
C374 C375 1.434 . S
C375 C366 1.429 . S
C375 N372 1.350 . S
C375 C374 1.434 . S
C376 C377 1.369 . S
C376 C378 1.419 1_455 S
C376 H380 0.930 . S
C377 C376 1.369 . S
C377 C386 1.429 . S
C378 C376 1.419 1_655 S
C378 C379 1.363 . S
C378 H381 0.929 . S
C379 C378 1.363 . S
C379 C385 1.428 . S
H380 C376 0.930 . S
H381 C378 0.929 . S
S382 N383 1.613 . S
S382 N384 1.610 1_455 S
N383 S382 1.613 . S
N383 C386 1.350 . S
N384 S382 1.610 1_655 S
N384 C385 1.351 . S
C385 C379 1.428 . S
C385 N384 1.351 . S
C385 C386 1.434 1_655 S
C386 C377 1.429 . S
C386 N383 1.350 . S
C386 C385 1.434 1_455 S
C387 C388 1.369 . S
C387 C389 1.419 1_565 S
C387 H391 0.930 . S
C388 C387 1.369 . S
C388 C397 1.429 . S
C389 C387 1.419 1_545 S
C389 C390 1.363 . S
C389 H392 0.929 . S
C390 C389 1.363 . S
C390 C396 1.428 . S
H391 C387 0.930 . S
H392 C389 0.929 . S
S393 N394 1.613 . S
S393 N395 1.610 1_565 S
N394 S393 1.613 . S
N394 C397 1.350 . S
N395 S393 1.610 1_545 S
N395 C396 1.351 . S
C396 C390 1.428 . S
C396 N395 1.351 . S
C396 C397 1.434 1_545 S
C397 C388 1.429 . S
C397 N394 1.350 . S
C397 C396 1.434 1_565 S
C398 C399 1.369 . S
C398 C400 1.419 . S
C398 H402 0.930 . S
C399 C398 1.369 . S
C399 C408 1.429 . S
C400 C398 1.419 . S
C400 C401 1.363 . S
C400 H403 0.929 . S
C401 C400 1.363 . S
C401 C407 1.428 . S
H402 C398 0.930 . S
H403 C400 0.929 . S
S404 N405 1.613 . S
S404 N406 1.610 . S
N405 S404 1.613 . S
N405 C408 1.350 . S
N406 S404 1.610 . S
N406 C407 1.351 . S
C407 C401 1.428 . S
C407 N406 1.351 . S
C407 C408 1.434 . S
C408 C399 1.429 . S
C408 N405 1.350 . S
C408 C407 1.434 . S
C409 C410 1.369 . S
C409 C411 1.419 1_455 S
C409 H413 0.930 1_556 S
C410 C409 1.369 . S
C410 C419 1.429 . S
C411 C409 1.419 1_655 S
C411 C412 1.363 . S
C411 H414 0.929 1_556 S
C412 C411 1.363 . S
C412 C418 1.428 . S
H413 C409 0.930 1_554 S
H414 C411 0.929 1_554 S
S415 N416 1.613 1_655 S
S415 N417 1.610 . S
N416 S415 1.613 1_455 S
N416 C419 1.350 . S
N417 S415 1.610 . S
N417 C418 1.351 . S
C418 C412 1.428 . S
C418 N417 1.351 . S
C418 C419 1.434 1_655 S
C419 C410 1.429 . S
C419 N416 1.350 . S
C419 C418 1.434 1_455 S
C157 C8 1.344 . S
C159 C138 1.344 . S
C168 C21 1.339 . S
C170 C151 1.340 . S
C179 C86 1.345 . S
C181 C34 1.344 . S
C190 C47 1.345 . S
C192 C99 1.345 . S
C201 C112 1.347 . S
C203 C60 1.346 . S
C212 C125 1.347 . S
C214 C73 1.346 . S
C223 C104 1.323 . S
C225 C0 1.323 . S
C234 C13 1.323 . S
C236 C117 1.323 . S
C245 C130 1.317 . S
C247 C26 1.317 . S
C256 C39 1.319 . S
C258 C143 1.318 . S
C267 C52 1.320 . S
C269 C78 1.321 . S
C278 C65 1.320 . S
C280 C91 1.321 . S
C289 C140 1.567 . S
C291 C10 1.569 . S
C300 C153 1.568 . S
C302 C23 1.566 . S
C311 C88 1.570 . S
C313 C36 1.567 . S
C322 C49 1.564 . S
C324 C101 1.570 . S
C333 C62 1.569 . S
C335 C114 1.569 . S
C344 C127 1.568 . S
C346 C75 1.566 . S
C355 C5 1.261 . S
C357 C96 1.259 . S
C366 C109 1.254 . S
C368 C18 1.253 . S
C377 C122 1.255 . S
C379 C31 1.254 . S
C388 C44 1.259 . S
C390 C135 1.257 . S
C399 C57 1.255 . S
C401 C148 1.257 . S
C410 C70 1.253 . S
C412 C83 1.255 . S
