# Generated by pormake.
# Topology wns, (7)-cn, num edge types: 1
# Building blocks:
#     Node 0, Type 0, BuildingBlock: NUHQUE_clean_sbu_2, # of connection points: 7
#     Node 1, Type 0, BuildingBlock: NUHQUE_clean_sbu_2, # of connection points: 7
#     Node 2, Type 0, BuildingBlock: NUHQUE_clean_sbu_2, # of connection points: 7
#     Node 3, Type 0, BuildingBlock: NUHQUE_clean_sbu_2, # of connection points: 7
#     Node 4, Type 0, BuildingBlock: NUHQUE_clean_sbu_2, # of connection points: 7
#     Node 5, Type 0, BuildingBlock: NUHQUE_clean_sbu_2, # of connection points: 7
#     Node 6, Type 0, BuildingBlock: NUHQUE_clean_sbu_2, # of connection points: 7
#     Node 7, Type 0, BuildingBlock: NUHQUE_clean_sbu_2, # of connection points: 7
#     Node 8, Type 0, BuildingBlock: NUHQUE_clean_sbu_2, # of connection points: 7
#     Node 9, Type 0, BuildingBlock: NUHQUE_clean_sbu_2, # of connection points: 7
#     Node 10, Type 0, BuildingBlock: NUHQUE_clean_sbu_2, # of connection points: 7
#     Node 11, Type 0, BuildingBlock: NUHQUE_clean_sbu_2, # of connection points: 7
#     Edge 12, Type (0, 0), BuildingBlock: TEMPAE_clean_linker_10, # of connection points: 2
#     Edge 13, Type (0, 0), BuildingBlock: TEMPAE_clean_linker_10, # of connection points: 2
#     Edge 14, Type (0, 0), BuildingBlock: TEMPAE_clean_linker_10, # of connection points: 2
#     Edge 15, Type (0, 0), BuildingBlock: TEMPAE_clean_linker_10, # of connection points: 2
#     Edge 16, Type (0, 0), BuildingBlock: TEMPAE_clean_linker_10, # of connection points: 2
#     Edge 17, Type (0, 0), BuildingBlock: TEMPAE_clean_linker_10, # of connection points: 2
#     Edge 18, Type (0, 0), BuildingBlock: TEMPAE_clean_linker_10, # of connection points: 2
#     Edge 19, Type (0, 0), BuildingBlock: TEMPAE_clean_linker_10, # of connection points: 2
#     Edge 20, Type (0, 0), BuildingBlock: TEMPAE_clean_linker_10, # of connection points: 2
#     Edge 21, Type (0, 0), BuildingBlock: TEMPAE_clean_linker_10, # of connection points: 2
#     Edge 22, Type (0, 0), BuildingBlock: TEMPAE_clean_linker_10, # of connection points: 2
#     Edge 23, Type (0, 0), BuildingBlock: TEMPAE_clean_linker_10, # of connection points: 2
#     Edge 24, Type (0, 0), BuildingBlock: TEMPAE_clean_linker_10, # of connection points: 2
#     Edge 25, Type (0, 0), BuildingBlock: TEMPAE_clean_linker_10, # of connection points: 2
#     Edge 26, Type (0, 0), BuildingBlock: TEMPAE_clean_linker_10, # of connection points: 2
#     Edge 27, Type (0, 0), BuildingBlock: TEMPAE_clean_linker_10, # of connection points: 2
#     Edge 28, Type (0, 0), BuildingBlock: TEMPAE_clean_linker_10, # of connection points: 2
#     Edge 29, Type (0, 0), BuildingBlock: TEMPAE_clean_linker_10, # of connection points: 2
#     Edge 30, Type (0, 0), BuildingBlock: TEMPAE_clean_linker_10, # of connection points: 2
#     Edge 31, Type (0, 0), BuildingBlock: TEMPAE_clean_linker_10, # of connection points: 2
#     Edge 32, Type (0, 0), BuildingBlock: TEMPAE_clean_linker_10, # of connection points: 2
#     Edge 33, Type (0, 0), BuildingBlock: TEMPAE_clean_linker_10, # of connection points: 2
#     Edge 34, Type (0, 0), BuildingBlock: TEMPAE_clean_linker_10, # of connection points: 2
#     Edge 35, Type (0, 0), BuildingBlock: TEMPAE_clean_linker_10, # of connection points: 2
#     Edge 36, Type (0, 0), BuildingBlock: TEMPAE_clean_linker_10, # of connection points: 2
#     Edge 37, Type (0, 0), BuildingBlock: TEMPAE_clean_linker_10, # of connection points: 2
#     Edge 38, Type (0, 0), BuildingBlock: TEMPAE_clean_linker_10, # of connection points: 2
#     Edge 39, Type (0, 0), BuildingBlock: TEMPAE_clean_linker_10, # of connection points: 2
#     Edge 40, Type (0, 0), BuildingBlock: TEMPAE_clean_linker_10, # of connection points: 2
#     Edge 41, Type (0, 0), BuildingBlock: TEMPAE_clean_linker_10, # of connection points: 2
#     Edge 42, Type (0, 0), BuildingBlock: TEMPAE_clean_linker_10, # of connection points: 2
#     Edge 43, Type (0, 0), BuildingBlock: TEMPAE_clean_linker_10, # of connection points: 2
#     Edge 44, Type (0, 0), BuildingBlock: TEMPAE_clean_linker_10, # of connection points: 2
#     Edge 45, Type (0, 0), BuildingBlock: TEMPAE_clean_linker_10, # of connection points: 2
#     Edge 46, Type (0, 0), BuildingBlock: TEMPAE_clean_linker_10, # of connection points: 2
#     Edge 47, Type (0, 0), BuildingBlock: TEMPAE_clean_linker_10, # of connection points: 2
#     Edge 48, Type (0, 0), BuildingBlock: TEMPAE_clean_linker_10, # of connection points: 2
#     Edge 49, Type (0, 0), BuildingBlock: TEMPAE_clean_linker_10, # of connection points: 2
#     Edge 50, Type (0, 0), BuildingBlock: TEMPAE_clean_linker_10, # of connection points: 2
#     Edge 51, Type (0, 0), BuildingBlock: TEMPAE_clean_linker_10, # of connection points: 2
#     Edge 52, Type (0, 0), BuildingBlock: TEMPAE_clean_linker_10, # of connection points: 2
#     Edge 53, Type (0, 0), BuildingBlock: TEMPAE_clean_linker_10, # of connection points: 2
# Relax obj value: 0.185
# Max RMSD: 0.260
# Mean RMSD: 0.260
data_MOF--net-wns--node1-NUHQUE_clean_sbu_2--edge1-TEMPAE_clean_linker_10
_symmetry_space_group_name_H-M    P1
_symmetry_Int_Tables_number       1
_symmetry_cell_setting            triclinic
loop_
_symmetry_equiv_pos_as_xyz
'x, y, z'
_cell_length_a     48.775396
_cell_length_b     48.80742
_cell_length_c     36.534832
_cell_angle_alpha  89.996489
_cell_angle_beta   89.999196
_cell_angle_gamma 119.97137
loop_
_atom_site_label
_atom_site_type_symbol
_atom_site_fract_x
_atom_site_fract_y
_atom_site_fract_z
_atom_type_partial_charge
O0 O 0.49371 0.26285 0.9478 0.0
Tb1 Tb 0.48859 0.26025 0.00658 0.0
Eu2 Eu 0.4416 0.25702 0.0813 0.0
C3 C 0.47216 0.2634 0.92683 0.0
O4 O 0.44787 0.26365 0.94206 0.0
C5 C 0.42788 0.19747 0.02897 0.0
O6 O 0.44207 0.25116 0.14208 0.0
C7 C 0.40034 0.27385 0.0633 0.0
C8 C 0.4574 0.23744 0.15481 0.0
O9 O 0.47189 0.22844 0.13152 0.0
C10 C 0.50534 0.31571 0.05546 0.0
C11 C 0.3914 0.29831 0.07114 0.0
C12 C 0.3798 0.30949 0.04275 0.0
C13 C 0.36856 0.33044 0.05061 0.0
C14 C 0.36831 0.33947 0.0869 0.0
C15 C 0.37838 0.32763 0.11559 0.0
C16 C 0.3908 0.3078 0.10752 0.0
O17 O 0.44322 0.21683 0.00179 0.0
O18 O 0.42941 0.20786 0.06262 0.0
O19 O 0.53675 0.2684 0.00415 0.0
O20 O 0.50687 0.24047 0.04766 0.0
C21 C 0.53502 0.25227 0.03323 0.0
O22 O 0.49195 0.29778 0.08417 0.0
O23 O 0.49309 0.30484 0.02317 0.0
O24 O 0.39642 0.2543 0.09018 0.0
O25 O 0.4261 0.282 0.04397 0.0
H26 H 0.37898 0.30151 0.01488 0.0
H27 H 0.35881 0.35488 0.09305 0.0
H28 H 0.39831 0.29838 0.12977 0.0
O29 O 0.75969 0.23997 0.95021 0.0
Tb30 Tb 0.76264 0.23836 0.00903 0.0
Eu31 Eu 0.76522 0.19131 0.08237 0.0
C32 C 0.76008 0.218 0.92992 0.0
O33 O 0.76088 0.19429 0.94591 0.0
C34 C 0.82537 0.23853 0.03025 0.0
O35 O 0.77217 0.19831 0.14298 0.0
C36 C 0.74659 0.13272 0.06482 0.0
C37 C 0.78733 0.22752 0.15518 0.0
O38 O 0.79721 0.25083 0.13149 0.0
C39 C 0.70761 0.19843 0.05776 0.0
C40 C 0.72108 0.09984 0.07287 0.0
C41 C 0.71137 0.07602 0.04584 0.0
C42 C 0.68913 0.04429 0.05431 0.0
C43 C 0.67737 0.0366 0.0901 0.0
C44 C 0.6872 0.05966 0.11759 0.0
C45 C 0.70866 0.09138 0.10857 0.0
O46 O 0.8066 0.23749 0.00371 0.0
O47 O 0.81475 0.22707 0.0632 0.0
O48 O 0.75381 0.27792 0.00595 0.0
O49 O 0.78173 0.27659 0.04987 0.0
C50 C 0.76974 0.29261 0.03503 0.0
O51 O 0.72515 0.20187 0.08648 0.0
O52 O 0.71866 0.19746 0.02547 0.0
O53 O 0.76609 0.14794 0.09191 0.0
O54 O 0.73948 0.15094 0.04515 0.0
H55 H 0.72138 0.08204 0.01856 0.0
H56 H 0.66172 0.01195 0.09703 0.0
H57 H 0.71641 0.10938 0.12963 0.0
O58 O 0.78616 0.53219 0.94928 0.0
Tb59 Tb 0.78672 0.53671 0.00805 0.0
Eu60 Eu 0.83035 0.58395 0.08314 0.0
C61 C 0.80922 0.55364 0.92925 0.0
O62 O 0.83343 0.5775 0.94544 0.0
C63 C 0.78506 0.5979 0.0297 0.0
O64 O 0.8237 0.58411 0.1439 0.0
C65 C 0.88882 0.62387 0.06478 0.0
C66 C 0.79452 0.56959 0.15636 0.0
O67 O 0.77114 0.55575 0.13281 0.0
C68 C 0.82398 0.51939 0.05856 0.0
C69 C 0.92188 0.63147 0.07244 0.0
C70 C 0.9454 0.64514 0.04497 0.0
C71 C 0.97722 0.65467 0.05304 0.0
C72 C 0.98537 0.65113 0.08879 0.0
C73 C 0.96263 0.63833 0.11668 0.0
C74 C 0.93079 0.62802 0.10812 0.0
O75 O 0.78904 0.58223 0.00285 0.0
O76 O 0.79401 0.59684 0.06348 0.0
O77 O 0.74652 0.48881 0.00404 0.0
O78 O 0.74759 0.51809 0.04776 0.0
C79 C 0.73143 0.49023 0.03264 0.0
O80 O 0.81954 0.53321 0.08692 0.0
O81 O 0.82623 0.53179 0.02618 0.0
O82 O 0.87378 0.62835 0.09193 0.0
O83 O 0.87047 0.59831 0.04554 0.0
H84 H 0.93906 0.64872 0.01767 0.0
H85 H 1.01011 0.6601 0.09526 0.0
H86 H 0.91302 0.61804 0.12947 0.0
O87 O 0.2169 0.47194 0.53438 0.0
Tb88 Tb 0.23272 0.48299 0.47794 0.0
Eu89 Eu 0.25386 0.41432 0.41745 0.0
C90 C 0.21837 0.44952 0.55269 0.0
O91 O 0.2279 0.43201 0.53577 0.0
C92 C 0.19374 0.41686 0.44817 0.0
O93 O 0.2476 0.41594 0.35647 0.0
C94 C 0.27634 0.37718 0.43297 0.0
C95 C 0.24017 0.43632 0.34277 0.0
O96 O 0.2366 0.45537 0.36516 0.0
C97 C 0.29155 0.48598 0.44463 0.0
C98 C 0.30136 0.36977 0.42283 0.0
C99 C 0.31341 0.35781 0.44971 0.0
C100 C 0.33515 0.34804 0.44011 0.0
C101 C 0.34424 0.34974 0.40347 0.0
C102 C 0.33165 0.36037 0.37616 0.0
C103 C 0.31081 0.37119 0.38604 0.0
O104 O 0.20964 0.44629 0.43724 0.0
O105 O 0.20645 0.39864 0.44518 0.0
O106 O 0.20947 0.50829 0.45838 0.0
O107 O 0.25946 0.534 0.46731 0.0
C108 C 0.23484 0.53614 0.45739 0.0
O109 O 0.29122 0.46647 0.41948 0.0
O110 O 0.27196 0.4744 0.47233 0.0
O111 O 0.25411 0.37054 0.4085 0.0
O112 O 0.28474 0.40365 0.45082 0.0
H113 H 0.30547 0.35557 0.47783 0.0
H114 H 0.36028 0.34134 0.39588 0.0
H115 H 0.30073 0.3791 0.36493 0.0
O116 O 0.54348 0.74644 0.53739 0.0
Tb117 Tb 0.5351 0.75327 0.48055 0.0
Eu118 Eu 0.60373 0.84314 0.41496 0.0
C119 C 0.57053 0.76336 0.55457 0.0
O120 O 0.59481 0.78599 0.53706 0.0
C121 C 0.60212 0.78213 0.44929 0.0
O122 O 0.5995 0.83377 0.3543 0.0
C123 C 0.64115 0.90304 0.42853 0.0
C124 C 0.57955 0.80529 0.34202 0.0
O125 O 0.56235 0.78291 0.36562 0.0
C126 C 0.53296 0.80928 0.44613 0.0
C127 C 0.64701 0.93502 0.41888 0.0
C128 C 0.6613 0.95965 0.44478 0.0
C129 C 0.66933 0.99075 0.43537 0.0
C130 C 0.6633 0.99699 0.39973 0.0
C131 C 0.64958 0.973 0.37329 0.0
C132 C 0.64113 0.94187 0.38322 0.0
O133 O 0.57222 0.7687 0.44001 0.0
O134 O 0.62097 0.81216 0.44108 0.0
O135 O 0.48424 0.72935 0.46886 0.0
O136 O 0.51034 0.70574 0.45799 0.0
C137 C 0.48241 0.70313 0.45725 0.0
O138 O 0.55169 0.82827 0.42029 0.0
O139 O 0.54528 0.80153 0.47335 0.0
O140 O 0.64632 0.88743 0.40267 0.0
O141 O 0.61619 0.88488 0.4487 0.0
H142 H 0.6666 0.95472 0.47199 0.0
H143 H 0.67113 0.02125 0.39195 0.0
H144 H 0.63068 0.92314 0.36302 0.0
O145 O 0.27008 0.80194 0.53698 0.0
Tb146 Tb 0.26527 0.78611 0.48051 0.0
Eu147 Eu 0.17661 0.76618 0.41815 0.0
C148 C 0.24642 0.80103 0.55526 0.0
O149 O 0.21946 0.792 0.53835 0.0
C150 C 0.23871 0.82554 0.45018 0.0
O151 O 0.18573 0.77287 0.35747 0.0
C152 C 0.11669 0.74379 0.43143 0.0
C153 C 0.21336 0.77923 0.34423 0.0
O154 O 0.23534 0.78163 0.36692 0.0
C155 C 0.20956 0.72776 0.44637 0.0
C156 C 0.08493 0.71817 0.42038 0.0
C157 C 0.05975 0.70724 0.44556 0.0
C158 C 0.02893 0.68441 0.43503 0.0
C159 C 0.02343 0.67294 0.39907 0.0
C160 C 0.04799 0.68392 0.37327 0.0
C161 C 0.0789 0.70641 0.38426 0.0
O162 O 0.25206 0.80937 0.43956 0.0
O163 O 0.20794 0.81339 0.44623 0.0
O164 O 0.28928 0.75904 0.47024 0.0
O165 O 0.31373 0.80893 0.46075 0.0
C166 C 0.31606 0.78347 0.46005 0.0
O167 O 0.1909 0.72849 0.4208 0.0
O168 O 0.21737 0.74719 0.47421 0.0
O169 O 0.13271 0.76562 0.40674 0.0
O170 O 0.13449 0.736 0.45088 0.0
H171 H 0.06402 0.71677 0.4731 0.0
H172 H 0.99932 0.65659 0.39065 0.0
H173 H 0.09809 0.71522 0.3646 0.0
O174 O 0.54108 0.76266 0.05068 0.0
Tb175 Tb 0.54499 0.76845 0.99171 0.0
Eu176 Eu 0.58057 0.76283 0.91048 0.0
C177 C 0.56445 0.76392 0.06992 0.0
O178 O 0.58899 0.76582 0.05267 0.0
C179 C 0.60352 0.82462 0.95912 0.0
O180 O 0.57894 0.76422 0.84887 0.0
C181 C 0.62119 0.74525 0.92968 0.0
C182 C 0.57212 0.73936 0.82857 0.0
O183 O 0.56424 0.7123 0.84451 0.0
C184 C 0.51625 0.70764 0.94607 0.0
C185 C 0.62873 0.71952 0.92366 0.0
C186 C 0.64464 0.71234 0.95109 0.0
C187 C 0.654 0.68973 0.94447 0.0
C188 C 0.6476 0.67461 0.91048 0.0
C189 C 0.6324 0.68166 0.88256 0.0
C190 C 0.62297 0.70417 0.8894 0.0
O191 O 0.59421 0.8049 0.98673 0.0
O192 O 0.595 0.81349 0.92575 0.0
O193 O 0.51595 0.79012 0.00271 0.0
O194 O 0.51544 0.77297 0.94923 0.0
C195 C 0.50401 0.78653 0.9701 0.0
O196 O 0.52925 0.72373 0.91578 0.0
O197 O 0.52858 0.71929 0.97834 0.0
O198 O 0.62475 0.76327 0.90133 0.0
O199 O 0.59621 0.73907 0.94952 0.0
H200 H 0.65025 0.72467 0.97708 0.0
H201 H 0.65621 0.65834 0.90522 0.0
H202 H 0.61188 0.71028 0.86779 0.0
O203 O 0.25451 0.78053 0.05312 0.0
Tb204 Tb 0.25721 0.78182 0.99382 0.0
Eu205 Eu 0.26043 0.82762 0.91334 0.0
C206 C 0.25566 0.80404 0.07194 0.0
O207 O 0.26012 0.8295 0.05453 0.0
C208 C 0.19886 0.78296 0.96247 0.0
O209 O 0.26237 0.83048 0.85167 0.0
C210 C 0.27682 0.88417 0.9374 0.0
C211 C 0.25071 0.8047 0.83162 0.0
O212 O 0.23815 0.77712 0.84813 0.0
C213 C 0.31546 0.81755 0.94587 0.0
C214 C 0.30123 0.91755 0.9298 0.0
C215 C 0.30889 0.94109 0.95672 0.0
C216 C 0.33028 0.97307 0.94863 0.0
C217 C 0.3437 0.98133 0.91375 0.0
C218 C 0.33616 0.95855 0.88641 0.0
C219 C 0.31498 0.92654 0.89466 0.0
O220 O 0.21769 0.79043 0.99095 0.0
O221 O 0.21044 0.7891 0.92889 0.0
O222 O 0.26206 0.74013 0.00124 0.0
O223 O 0.23621 0.74181 0.95526 0.0
C224 C 0.24615 0.72492 0.9724 0.0
O225 O 0.30027 0.81626 0.91552 0.0
O226 O 0.3038 0.81887 0.97777 0.0
O227 O 0.25605 0.8697 0.91123 0.0
O228 O 0.28598 0.86583 0.95318 0.0
H229 H 0.29785 0.93469 0.98347 0.0
H230 H 0.35912 1.00618 0.90744 0.0
H231 H 0.30875 0.90874 0.87361 0.0
O232 O 0.23708 0.47679 0.05185 0.0
Tb233 Tb 0.23644 0.47879 0.99247 0.0
Eu234 Eu 0.19434 0.43757 0.91074 0.0
C235 C 0.21469 0.45294 0.07025 0.0
O236 O 0.19035 0.43065 0.05244 0.0
C237 C 0.23899 0.42149 0.96016 0.0
O238 O 0.191 0.43648 0.84915 0.0
C239 C 0.13815 0.39695 0.93543 0.0
C240 C 0.21657 0.45153 0.8289 0.0
O241 O 0.24419 0.46757 0.84515 0.0
C242 C 0.20153 0.50114 0.94327 0.0
C243 C 0.10452 0.38708 0.92799 0.0
C244 C 0.08129 0.37106 0.9552 0.0
C245 C 0.04909 0.3594 0.94728 0.0
C246 C 0.04027 0.36389 0.91241 0.0
C247 C 0.06278 0.37955 0.88489 0.0
C248 C 0.09501 0.39121 0.89285 0.0
O249 O 0.22991 0.43145 0.98861 0.0
O250 O 0.23354 0.42746 0.92656 0.0
O251 O 0.27733 0.52589 0.00034 0.0
O252 O 0.27715 0.49872 0.95482 0.0
C253 C 0.29328 0.52561 0.97199 0.0
O254 O 0.20609 0.48872 0.91353 0.0
O255 O 0.19906 0.48766 0.97515 0.0
O256 O 0.15284 0.39066 0.90951 0.0
O257 O 0.15607 0.4248 0.95056 0.0
H258 H 0.08814 0.36702 0.982 0.0
H259 H 0.01529 0.35385 0.90632 0.0
H260 H 0.11261 0.40302 0.87164 0.0
O261 O 0.74763 0.53369 0.44593 0.0
Tb262 Tb 0.7485 0.5341 0.5052 0.0
Eu263 Eu 0.7509 0.57261 0.58753 0.0
C264 C 0.7493 0.55744 0.42716 0.0
O265 O 0.74902 0.58081 0.44467 0.0
C266 C 0.80879 0.59372 0.53161 0.0
O267 O 0.75706 0.56863 0.64757 0.0
C268 C 0.7324 0.61372 0.57719 0.0
C269 C 0.77291 0.55495 0.65864 0.0
O270 O 0.78397 0.54324 0.63414 0.0
C271 C 0.69311 0.50938 0.55709 0.0
C272 C 0.70744 0.62092 0.58853 0.0
C273 C 0.69941 0.63881 0.56502 0.0
C274 C 0.67846 0.64905 0.57676 0.0
C275 C 0.66454 0.63985 0.61142 0.0
C276 C 0.67288 0.62306 0.63568 0.0
C277 C 0.69438 0.61352 0.62412 0.0
O278 O 0.78802 0.58227 0.50493 0.0
O279 O 0.79979 0.58707 0.56593 0.0
O280 O 0.74552 0.4883 0.49814 0.0
O281 O 0.77291 0.51767 0.54221 0.0
C282 C 0.76339 0.49067 0.52575 0.0
O283 O 0.7116 0.52163 0.58572 0.0
O284 O 0.70239 0.52341 0.5252 0.0
O285 O 0.75247 0.61625 0.60277 0.0
O286 O 0.72454 0.58963 0.555 0.0
H287 H 0.71066 0.64604 0.53845 0.0
H288 H 0.64824 0.64747 0.62051 0.0
H289 H 0.7015 0.60113 0.64306 0.0
O290 O 0.48851 0.22427 0.44499 0.0
Tb291 Tb 0.48811 0.22222 0.50412 0.0
Eu292 Eu 0.45145 0.18342 0.58572 0.0
C293 C 0.46558 0.20203 0.42549 0.0
O294 O 0.44286 0.17717 0.44213 0.0
C295 C 0.42867 0.22111 0.5332 0.0
O296 O 0.45768 0.19352 0.6458 0.0
C297 C 0.40886 0.12422 0.57618 0.0
C298 C 0.47225 0.22304 0.65688 0.0
O299 O 0.4837 0.24577 0.63233 0.0
C300 C 0.51374 0.18891 0.55088 0.0
C301 C 0.40092 0.09174 0.58716 0.0
C302 C 0.38726 0.06693 0.56133 0.0
C303 C 0.3763 0.03537 0.57209 0.0
C304 C 0.37893 0.02907 0.60895 0.0
C305 C 0.39275 0.05321 0.63501 0.0
C306 C 0.40376 0.08464 0.62401 0.0
O307 O 0.43963 0.21245 0.50542 0.0
O308 O 0.43656 0.21843 0.5669 0.0
O309 O 0.53314 0.26598 0.49798 0.0
O310 O 0.50447 0.26084 0.54423 0.0
C311 C 0.53095 0.27966 0.52746 0.0
O312 O 0.50182 0.19295 0.58133 0.0
O313 O 0.49952 0.18638 0.51957 0.0
O314 O 0.40763 0.1422 0.60216 0.0
O315 O 0.43233 0.13989 0.55301 0.0
H316 H 0.38466 0.07215 0.53314 0.0
H317 H 0.36863 1.00474 0.61797 0.0
H318 H 0.41388 0.10337 0.64423 0.0
O319 O 0.80101 0.2692 0.44584 0.0
Tb320 Tb 0.79933 0.26275 0.5045 0.0
Eu321 Eu 0.83542 0.26887 0.58679 0.0
C322 C 0.82245 0.26712 0.42621 0.0
O323 O 0.84445 0.26379 0.44296 0.0
C324 C 0.80352 0.20838 0.53669 0.0
O325 O 0.82663 0.26708 0.64703 0.0
C326 C 0.89505 0.28753 0.5759 0.0
C327 C 0.79729 0.25196 0.6588 0.0
O328 O 0.77418 0.23935 0.63477 0.0
C329 C 0.82564 0.32337 0.54996 0.0
C330 C 0.92755 0.31226 0.58665 0.0
C331 C 0.95227 0.32352 0.56063 0.0
C332 C 0.98391 0.34411 0.57123 0.0
C333 C 0.99036 0.35292 0.60811 0.0
C334 C 0.96633 0.34242 0.63436 0.0
C335 C 0.93484 0.32204 0.62352 0.0
O336 O 0.8157 0.22915 0.5103 0.0
O337 O 0.80188 0.21833 0.5695 0.0
O338 O 0.74847 0.23606 0.49375 0.0
O339 O 0.76417 0.25534 0.54678 0.0
C340 C 0.73942 0.23904 0.52621 0.0
O341 O 0.82234 0.30716 0.58014 0.0
O342 O 0.82813 0.31255 0.51788 0.0
O343 O 0.87771 0.26765 0.60171 0.0
O344 O 0.87862 0.29522 0.55378 0.0
H345 H 0.94692 0.31574 0.53244 0.0
H346 H 0.01475 0.36695 0.61699 0.0
H347 H 0.9162 0.31326 0.64389 0.0
C348 C 0.31921 0.01362 0.97474 0.0
C349 C 0.33801 0.99936 0.97446 0.0
C350 C 0.33108 0.04455 0.98821 0.0
C351 C 0.36256 0.06163 0.00158 0.0
C352 C 0.38067 0.04628 0.00396 0.0
C353 C 0.36825 0.01542 0.99012 0.0
C354 C 0.31088 0.05986 0.98515 0.0
C355 C 0.41419 0.06335 0.01824 0.0
C356 C 0.4094 0.15086 0.98667 0.0
C357 C 0.40961 0.16271 0.02176 0.0
C358 C 0.39384 0.11814 0.97979 0.0
C359 C 0.37789 0.09646 0.00861 0.0
C360 C 0.37746 0.1082 0.04394 0.0
C361 C 0.39332 0.14111 0.0501 0.0
C362 C 0.39495 0.10675 0.94166 0.0
C363 C 0.36067 0.08598 0.07536 0.0
H364 H 0.29615 1.00153 0.96175 0.0
H365 H 0.38307 1.00469 0.9891 0.0
H366 H 0.31212 0.07273 0.01068 0.0
H367 H 0.31992 0.0774 0.96256 0.0
H368 H 0.28572 0.04227 0.97941 0.0
H369 H 0.42345 0.04697 0.02303 0.0
H370 H 0.42976 0.08149 0.99807 0.0
H371 H 0.41562 0.07578 0.0442 0.0
H372 H 0.42184 0.16716 0.96451 0.0
H373 H 0.39323 0.14986 0.07733 0.0
H374 H 0.37057 0.09117 0.93133 0.0
H375 H 0.40696 0.09254 0.94226 0.0
H376 H 0.40767 0.12658 0.92206 0.0
H377 H 0.3356 0.06951 0.06806 0.0
H378 H 0.36136 0.09877 0.10081 0.0
H379 H 0.37182 0.07139 0.08095 0.0
C380 C 0.87228 0.26864 0.98889 0.0
C381 C 0.8601 0.25428 0.02291 0.0
C382 C 0.90499 0.28488 0.98188 0.0
C383 C 0.92636 0.28687 0.00947 0.0
C384 C 0.9143 0.27213 0.04372 0.0
C385 C 0.88138 0.25608 0.05006 0.0
C386 C 0.91672 0.30023 0.94492 0.0
C387 C 0.93621 0.27355 0.07376 0.0
C388 C 1.00673 0.30761 0.97051 0.0
C389 C 0.02319 0.34064 0.97347 0.0
C390 C 0.97594 0.28941 0.98468 0.0
C391 C 0.96122 0.3047 0.00205 0.0
C392 C 0.97885 0.33787 0.00771 0.0
C393 C 1.00957 0.35547 0.99311 0.0
C394 C 0.95819 0.25419 0.97805 0.0
C395 C 0.9643 0.35518 0.02627 0.0
H396 H 0.85626 0.26756 0.96765 0.0
H397 H 0.87238 0.24514 0.07647 0.0
H398 H 0.93262 0.32608 0.94833 0.0
H399 H 0.9307 0.29073 0.93167 0.0
H400 H 0.89707 0.2963 0.9263 0.0
H401 H 0.92315 0.26031 0.09858 0.0
H402 H 0.95098 0.26365 0.06388 0.0
H403 H 0.95255 0.29854 0.08148 0.0
H404 H 0.01696 0.29623 0.95451 0.0
H405 H 0.022 0.38109 0.99461 0.0
H406 H 0.94036 0.24854 0.95616 0.0
H407 H 0.94529 0.24129 0.00304 0.0
H408 H 0.97422 0.24534 0.96941 0.0
H409 H 0.94671 0.35595 0.00766 0.0
H410 H 0.98234 0.37985 0.03347 0.0
H411 H 0.95161 0.34264 0.05152 0.0
C412 C 0.75843 0.6172 0.98612 0.0
C413 C 0.76842 0.61598 0.02185 0.0
C414 C 0.7408 0.63217 0.97851 0.0
C415 C 0.73279 0.64642 0.00725 0.0
C416 C 0.74343 0.646 0.04323 0.0
C417 C 0.76107 0.63082 0.0501 0.0
C418 C 0.73008 0.63206 0.93968 0.0
C419 C 0.7355 0.66092 0.07462 0.0
C420 C 0.70551 0.70282 0.97329 0.0
C421 C 0.67273 0.68252 0.97079 0.0
C422 C 0.72535 0.6921 0.98753 0.0
C423 C 0.71204 0.6603 -0.00052 0.0
C424 C 0.67868 0.64058 -0.00031 0.0
C425 C 0.65948 0.65186 0.98513 0.0
C426 C 0.76071 0.714 0.98684 0.0
C427 C 0.66332 0.60666 0.0124 0.0
H428 H 0.76393 0.60595 0.96398 0.0
H429 H 0.76858 0.63009 0.07782 0.0
H430 H 0.70384 0.6188 0.9384 0.0
H431 H 0.73808 0.6566 0.93056 0.0
H432 H 0.73927 0.62108 0.9202 0.0
H433 H 0.74719 0.66043 0.10051 0.0
H434 H 0.74276 0.68583 0.06804 0.0
H435 H 0.70952 0.64818 0.07904 0.0
H436 H 0.71586 0.72627 0.96142 0.0
H437 H 0.6342 0.63595 0.98253 0.0
H438 H 0.77115 0.70681 0.96443 0.0
H439 H 0.77159 0.71246 0.01286 0.0
H440 H 0.76706 0.739 0.98225 0.0
H441 H 0.66809 0.59258 0.99219 0.0
H442 H 0.63728 0.59584 0.01545 0.0
H443 H 0.67343 0.60506 0.03897 0.0
C444 C 0.14058 0.41195 0.44561 0.0
C445 C 0.16156 0.40446 0.46312 0.0
C446 C 0.10974 0.40055 0.45889 0.0
C447 C 0.10011 0.38237 0.49142 0.0
C448 C 0.12136 0.37483 0.50929 0.0
C449 C 0.15164 0.38539 0.49441 0.0
C450 C 0.0876 0.40827 0.43831 0.0
C451 C 0.11253 0.35659 0.5448 0.0
C452 C 0.0374 0.38586 0.54948 0.0
C453 C 1.0113 0.3552 0.54554 0.0
C454 C 0.06625 0.39494 0.53193 0.0
C455 C 0.06885 0.37341 0.50829 0.0
C456 C 0.0419 0.34333 0.50173 0.0
C457 C 0.01352 0.3344 0.52079 0.0
C458 C 0.09441 0.42707 0.54024 0.0
C459 C 0.04338 0.32016 0.47562 0.0
H460 H 0.14818 0.4264 0.42109 0.0
H461 H 0.16795 0.37972 0.50796 0.0
H462 H 0.06459 0.38642 0.43351 0.0
H463 H 0.08276 0.42445 0.45484 0.0
H464 H 0.09753 0.41972 0.41152 0.0
H465 H 0.13159 0.35245 0.55508 0.0
H466 H 0.1075 0.36982 0.56595 0.0
H467 H 0.09066 0.33341 0.54116 0.0
H468 H 0.03571 0.40244 0.56778 0.0
H469 H 0.99361 0.31067 0.51754 0.0
H470 H 0.10383 0.44086 0.51466 0.0
H471 H 0.11365 0.4242 0.55249 0.0
H472 H 0.08846 0.44097 0.55946 0.0
H473 H 0.05404 0.33193 0.44922 0.0
H474 H 0.01962 0.29943 0.47022 0.0
H475 H 0.05872 0.31155 0.48723 0.0
C476 C 0.67069 0.69592 0.57268 0.0
C477 C 0.67214 0.67113 0.55486 0.0
C478 C 0.66038 0.71439 0.55447 0.0
C479 C 0.65234 0.70884 0.51698 0.0
C480 C 0.6556 0.6852 0.49811 0.0
C481 C 0.6653 0.66645 0.51735 0.0
C482 C 0.65685 0.73899 0.57584 0.0
C483 C 0.64787 0.67906 0.45792 0.0
C484 C 0.59452 0.73355 0.48172 0.0
C485 C 0.61493 0.76346 0.46685 0.0
C486 C 0.60636 0.71544 0.49787 0.0
C487 C 0.63941 0.72708 0.49818 0.0
C488 C 0.66012 0.75698 0.48252 0.0
C489 C 0.64767 0.77496 0.46744 0.0
C490 C 0.5835 0.68412 0.51526 0.0
C491 C 0.69546 0.77005 0.48185 0.0
H492 H 0.67687 0.7004 0.60142 0.0
H493 H 0.66641 0.64745 0.50337 0.0
H494 H 0.67079 0.76254 0.56279 0.0
H495 H 0.6317 0.73299 0.57571 0.0
H496 H 0.66467 0.74078 0.60474 0.0
H497 H 0.65422 0.66185 0.44655 0.0
H498 H 0.62216 0.66963 0.45372 0.0
H499 H 0.66059 0.70148 0.44224 0.0
H500 H 0.56924 0.72444 0.48132 0.0
H501 H 0.66361 0.79788 0.45557 0.0
H502 H 0.58871 0.68485 0.54493 0.0
H503 H 0.58638 0.66493 0.503 0.0
H504 H 0.55845 0.67812 0.51199 0.0
H505 H 0.70476 0.77408 0.51023 0.0
H506 H 0.70815 0.79271 0.46657 0.0
H507 H 0.70091 0.7527 0.46905 0.0
C508 C 0.28703 0.87849 0.4473 0.0
C509 C 0.2586 0.85769 0.46495 0.0
C510 C 0.30655 0.90934 0.46039 0.0
C511 C 0.2981 0.91914 0.49287 0.0
C512 C 0.26936 0.89807 0.51089 0.0
C513 C 0.24955 0.86778 0.49619 0.0
C514 C 0.33637 0.93131 0.43966 0.0
C515 C 0.26009 0.9071 0.54637 0.0
C516 C 0.36448 0.98184 0.55054 0.0
C517 C 0.35991 1.00793 0.54656 0.0
C518 C 0.34466 0.95298 0.53313 0.0
C519 C 0.32048 0.95039 0.50955 0.0
C520 C 0.31736 0.97734 0.5029 0.0
C521 C 0.33685 1.00572 0.52186 0.0
C522 C 0.3486 0.92481 0.54153 0.0
C523 C 0.29267 0.97584 0.47681 0.0
H524 H 0.29378 0.87073 0.42282 0.0
H525 H 0.22757 0.8516 0.50982 0.0
H526 H 0.33757 0.95433 0.43475 0.0
H527 H 0.35741 0.93613 0.45612 0.0
H528 H 0.33778 0.92126 0.41291 0.0
H529 H 0.23692 0.88812 0.55681 0.0
H530 H 0.27842 0.9122 0.56746 0.0
H531 H 0.25877 0.92895 0.54261 0.0
H532 H 0.3828 0.98354 0.56879 0.0
H533 H 0.33303 0.02563 0.51856 0.0
H534 H 0.3529 0.91529 0.51598 0.0
H535 H 0.3265 0.90565 0.55388 0.0
H536 H 0.36848 0.93076 0.56071 0.0
H537 H 0.29369 0.96506 0.45046 0.0
H538 H 0.29576 0.99961 0.47127 0.0
H539 H 0.26875 0.96064 0.48852 0.0
C540 C 0.6259 0.88146 0.93902 0.0
C541 C 0.62068 0.85934 0.96665 0.0
C542 C 0.63933 0.91396 0.9471 0.0
C543 C 0.64776 0.92466 0.98366 0.0
C544 C 0.64357 0.90255 0.01135 0.0
C545 C 0.63016 0.87035 0.00254 0.0
C546 C 0.64343 0.93666 0.91675 0.0
C547 C 0.65222 0.91273 0.0507 0.0
C548 C 0.70133 0.01044 0.01322 0.0
C549 C 0.67918 0.01781 0.02773 0.0
C550 C 0.69147 0.98092 0.99638 0.0
C551 C 0.65872 0.95833 0.99399 0.0
C552 C 0.63633 0.96681 0.00604 0.0
C553 C 0.64683 0.99632 0.0228 0.0
C554 C 0.71616 0.97304 0.98374 0.0
C555 C 0.60122 0.94376 0.00391 0.0
H556 H 0.61868 0.8733 0.91122 0.0
H557 H 0.62645 0.85363 0.02416 0.0
H558 H 0.62682 0.94569 0.92099 0.0
H559 H 0.66775 0.95737 0.91716 0.0
H560 H 0.63885 0.92534 0.88935 0.0
H561 H 0.64918 0.893 0.0686 0.0
H562 H 0.67716 0.93214 0.05254 0.0
H563 H 0.63713 0.92198 0.06143 0.0
H564 H 0.72635 0.02678 0.01735 0.0
H565 H 0.62964 1.00192 0.03407 0.0
H566 H 0.70985 0.96134 0.95657 0.0
H567 H 0.71728 0.95625 0.00332 0.0
H568 H 0.74003 0.99443 0.982 0.0
H569 H 0.59465 0.93302 0.97626 0.0
H570 H 0.58697 0.95519 0.01023 0.0
H571 H 0.59483 0.92429 0.02379 0.0
C572 C 0.1524 0.76275 0.00503 0.0
C573 C 0.16394 0.76606 0.9691 0.0
C574 C 0.1199 0.74486 0.01283 0.0
C575 C 0.09795 0.72962 0.98407 0.0
C576 C 0.10923 0.73359 0.94755 0.0
C577 C 0.14205 0.75177 0.94048 0.0
C578 C 0.10915 0.74151 0.05219 0.0
C579 C 0.08671 0.71781 0.91609 0.0
C580 C 0.02325 0.65794 0.01933 0.0
C581 C 1.00344 0.67056 0.02602 0.0
C582 C 0.05309 0.67614 0.00287 0.0
C583 C 0.06367 0.708 0.99311 0.0
C584 C 0.04271 0.72007 0.9972 0.0
C585 C 0.0128 0.70118 0.01361 0.0
C586 C 0.07432 0.66205 0.99887 0.0
C587 C 0.05283 0.75377 0.9871 0.0
H588 H 0.1689 0.77377 0.02744 0.0
H589 H 0.15059 0.75407 0.91263 0.0
H590 H 0.09088 0.74857 0.05504 0.0
H591 H 0.09821 0.7164 0.06076 0.0
H592 H 0.12896 0.7561 0.07117 0.0
H593 H 0.0987 0.72552 0.88912 0.0
H594 H 0.07606 0.69178 0.91829 0.0
H595 H 0.06705 0.72304 0.91719 0.0
H596 H 0.01617 0.63435 0.02918 0.0
H597 H 0.99779 0.7112 0.01923 0.0
H598 H 0.09356 0.67272 0.0195 0.0
H599 H 0.08556 0.66737 0.97144 0.0
H600 H 0.06122 0.636 0.00289 0.0
H601 H 0.06991 0.76996 0.00778 0.0
H602 H 0.03243 0.75793 0.98606 0.0
H603 H 0.06498 0.75999 0.96019 0.0
C604 C 0.36621 0.37382 0.01748 0.0
C605 C 0.35389 0.34129 0.02273 0.0
C606 C 0.34806 0.38551 0.00102 0.0
C607 C 0.31659 0.36415 0.98989 0.0
C608 C 0.30501 0.33114 0.99239 0.0
C609 C 0.32383 0.32009 0.00879 0.0
C610 C 0.36162 0.42084 0.99865 0.0
C611 C 0.27171 0.30749 0.98082 0.0
C612 C 0.25972 0.39552 0.00236 0.0
C613 C 0.25684 0.40447 0.96667 0.0
C614 C 0.27828 0.38158 0.0099 0.0
C615 C 0.29466 0.37643 0.98111 0.0
C616 C 0.29125 0.3846 0.94483 0.0
C617 C 0.27235 0.39847 0.93802 0.0
C618 C 0.28101 0.37314 0.04901 0.0
C619 C 0.30831 0.37958 0.91339 0.0
H620 H 0.38931 0.39025 0.02866 0.0
H621 H 0.31403 0.29496 0.0134 0.0
H622 H 0.35664 0.42755 0.97149 0.0
H623 H 0.35026 0.42835 0.01962 0.0
H624 H 0.3876 0.43401 0.00334 0.0
H625 H 0.26811 0.2832 0.97863 0.0
H626 H 0.25479 0.30721 0.00132 0.0
H627 H 0.26596 0.31421 0.95411 0.0
H628 H 0.24777 0.39982 0.02475 0.0
H629 H 0.27039 0.40532 0.91035 0.0
H630 H 0.30588 0.38747 0.0584 0.0
H631 H 0.27447 0.3479 0.05085 0.0
H632 H 0.26565 0.37729 0.06798 0.0
H633 H 0.33422 0.39522 0.91675 0.0
H634 H 0.30122 0.3847 0.8865 0.0
H635 H 0.30356 0.35485 0.91329 0.0
C636 C 0.85284 0.62032 0.48608 0.0
C637 C 0.84307 0.61177 0.52246 0.0
C638 C 0.88492 0.63459 0.47628 0.0
C639 C 0.90793 0.64038 0.50345 0.0
C640 C 0.8984 0.63285 0.54043 0.0
C641 C 0.86611 0.61871 0.54951 0.0
C642 C 0.89403 0.64243 0.43654 0.0
C643 C 0.92214 0.63855 0.57017 0.0
C644 C 0.98048 0.64129 0.46463 0.0
C645 C 1.00133 0.67374 0.4598 0.0
C646 C 0.95075 0.6302 0.48098 0.0
C647 C 0.94145 0.6521 0.49241 0.0
C648 C 0.96323 0.68499 0.48967 0.0
C649 C 0.99304 0.69544 0.47347 0.0
C650 C 0.92852 0.59497 0.48381 0.0
C651 C 0.95427 0.7091 0.50146 0.0
H652 H 0.83532 0.61525 0.46497 0.0
H653 H 0.85886 0.61218 0.5777 0.0
H654 H 0.91295 0.6675 0.43374 0.0
H655 H 0.9036 0.62758 0.42594 0.0
H656 H 0.87365 0.63841 0.41917 0.0
H657 H 0.91144 0.63418 0.59792 0.0
H658 H 0.93203 0.62266 0.56601 0.0
H659 H 0.94219 0.6632 0.56888 0.0
H660 H 0.98693 0.62452 0.45401 0.0
H661 H 1.009 0.72053 0.46935 0.0
H662 H 0.90862 0.58776 0.46433 0.0
H663 H 0.91825 0.58857 0.5117 0.0
H664 H 0.94051 0.58126 0.4775 0.0
H665 H 0.93661 0.70877 0.48205 0.0
H666 H 0.97504 0.73342 0.50213 0.0
H667 H 0.94314 0.70324 0.52895 0.0
C668 C 0.40509 0.25419 0.55364 0.0
C669 C 0.41049 0.23756 0.52584 0.0
C670 C 0.39084 0.27253 0.54591 0.0
C671 C 0.38164 0.27417 0.50957 0.0
C672 C 0.38591 0.25642 0.48173 0.0
C673 C 0.4003 0.23846 0.49017 0.0
C674 C 0.38679 0.29111 0.57634 0.0
C675 C 0.37627 0.25727 0.44262 0.0
C676 C 0.32553 0.30362 0.48204 0.0
C677 C 0.34669 0.33302 0.46658 0.0
C678 C 0.33661 0.28489 0.49853 0.0
C679 C 0.36959 0.29598 0.49966 0.0
C680 C 0.39103 0.32682 0.48678 0.0
C681 C 0.37931 0.34486 0.47021 0.0
C682 C 0.31293 0.25223 0.51197 0.0
C683 C 0.42635 0.33984 0.48781 0.0
H684 H 0.41291 0.25374 0.58129 0.0
H685 H 0.40415 0.22558 0.46849 0.0
H686 H 0.40282 0.31677 0.57162 0.0
H687 H 0.36224 0.28692 0.57661 0.0
H688 H 0.39218 0.28491 0.60363 0.0
H689 H 0.37942 0.24067 0.42467 0.0
H690 H 0.35111 0.25116 0.4415 0.0
H691 H 0.39068 0.28153 0.43145 0.0
H692 H 0.3003 0.29426 0.4788 0.0
H693 H 0.39566 0.36754 0.45807 0.0
H694 H 0.32021 0.24744 0.53888 0.0
H695 H 0.3119 0.23437 0.49237 0.0
H696 H 0.28881 0.24905 0.51454 0.0
H697 H 0.4338 0.33616 0.51519 0.0
H698 H 0.43979 0.36548 0.48122 0.0
H699 H 0.43284 0.32706 0.46761 0.0
C700 C 0.71504 0.02413 0.47704 0.0
C701 C 0.68639 0.01787 0.46094 0.0
C702 C 0.73476 0.05327 0.49446 0.0
C703 C 0.7255 0.07656 0.49584 0.0
C704 C 0.69551 0.06934 0.48194 0.0
C705 C 0.67639 0.04015 0.46466 0.0
C706 C 0.7664 0.0599 0.50914 0.0
C707 C 0.68447 0.09325 0.48306 0.0
C708 C 0.76775 0.15134 0.554 0.0
C709 C 0.78641 0.17406 0.52769 0.0
C710 C 0.74871 0.11923 0.54449 0.0
C711 C 0.74829 0.1096 0.50781 0.0
C712 C 0.76808 0.13223 0.48154 0.0
C713 C 0.78686 0.16408 0.49178 0.0
C714 C 0.72809 0.09587 0.57334 0.0
C715 C 0.76848 0.12307 0.44213 0.0
H716 H 0.72299 1.0071 0.47399 0.0
H717 H 0.65414 0.03528 0.45244 0.0
H718 H 0.78548 0.07694 0.49085 0.0
H719 H 0.7707 0.07086 0.53669 0.0
H720 H 0.76814 0.03809 0.51089 0.0
H721 H 0.65934 0.08286 0.47462 0.0
H722 H 0.68723 0.10317 0.51101 0.0
H723 H 0.69928 0.11319 0.46439 0.0
H724 H 0.76724 0.15875 0.58183 0.0
H725 H 0.80127 0.18134 0.47125 0.0
H726 H 0.73092 0.07469 0.57297 0.0
H727 H 0.70287 0.08777 0.56737 0.0
H728 H 0.73365 0.1063 0.60125 0.0
H729 H 0.77326 0.10313 0.44064 0.0
H730 H 0.78659 0.14304 0.4256 0.0
H731 H 0.74493 0.11492 0.42957 0.0
C732 C 0.39649 0.3439 0.18053 0.0
C733 C 0.37271 0.33373 0.15392 0.0
C734 C 0.39097 0.35021 0.21654 0.0
C735 C 0.36084 0.3458 0.22613 0.0
C736 C 0.33676 0.33539 0.19933 0.0
C737 C 0.343 0.32955 0.16363 0.0
C738 C 0.41726 0.36141 0.24438 0.0
C739 C 0.30415 0.32979 0.20852 0.0
C740 C 0.33447 0.32803 0.32513 0.0
C741 C 0.33829 0.357 0.33729 0.0
C742 C 0.34193 0.32421 0.28917 0.0
C743 C 0.35369 0.35007 0.26465 0.0
C744 C 0.35739 0.37938 0.27663 0.0
C745 C 0.3494 0.38245 0.31284 0.0
C746 C 0.33702 0.29239 0.27738 0.0
C747 C 0.36998 0.4075 0.25126 0.0
H748 H 0.41949 0.34729 0.17304 0.0
H749 H 0.32436 0.32118 0.14327 0.0
H750 H 0.42141 0.38383 0.25706 0.0
H751 H 0.41033 0.3437 0.26664 0.0
H752 H 0.43978 0.3653 0.23213 0.0
H753 H 0.28836 0.3226 0.18423 0.0
H754 H 0.29305 0.31098 0.22958 0.0
H755 H 0.30582 0.35154 0.22023 0.0
H756 H 0.32545 0.30817 0.34389 0.0
H757 H 0.35249 0.40487 0.32228 0.0
H758 H 0.35968 0.29484 0.26764 0.0
H759 H 0.3201 0.28313 0.25418 0.0
H760 H 0.32776 0.27473 0.29989 0.0
H761 H 0.39352 0.41308 0.2406 0.0
H762 H 0.37226 0.42884 0.26503 0.0
H763 H 0.35401 0.40183 0.22736 0.0
C764 C 0.69963 0.06157 0.18455 0.0
C765 C 0.6773 0.04951 0.15615 0.0
C766 C 0.69194 0.04867 0.21995 0.0
C767 C 0.66127 0.0229 0.22712 0.0
C768 C 0.6382 0.01158 0.19906 0.0
C769 C 0.64643 0.02514 0.16402 0.0
C770 C 0.71711 0.06176 0.24929 0.0
C771 C 0.60523 0.98423 0.20559 0.0
C772 C 0.65741 0.97008 0.30577 0.0
C773 C 0.64734 0.98175 0.33477 0.0
C774 C 0.66068 0.98231 0.2702 0.0
C775 C 0.65397 1.00697 0.26351 0.0
C776 C 0.64216 0.01763 0.2922 0.0
C777 C 0.63879 1.00475 0.32738 0.0
C778 C 0.67286 0.96992 0.24019 0.0
C779 C 0.63462 0.04377 0.28623 0.0
H780 H 0.72361 0.08011 0.17875 0.0
H781 H 0.62886 0.01601 0.1424 0.0
H782 H 0.70806 0.06767 0.27416 0.0
H783 H 0.72333 0.04358 0.25719 0.0
H784 H 0.73898 0.08329 0.24011 0.0
H785 H 0.5894 0.97976 0.18175 0.0
H786 H 0.60637 0.96247 0.21113 0.0
H787 H 0.59459 0.98876 0.23002 0.0
H788 H 0.66433 0.95254 0.3112 0.0
H789 H 0.63046 0.01351 0.34952 0.0
H790 H 0.69686 0.98867 0.2318 0.0
H791 H 0.65738 0.96356 0.21574 0.0
H792 H 0.6742 0.94883 0.24898 0.0
H793 H 0.65678 0.06622 0.28037 0.0
H794 H 0.62307 0.04744 0.31046 0.0
H795 H 0.61888 0.03847 0.26217 0.0
C796 C 0.99771 0.63241 0.16267 0.0
C797 C 0.97322 0.63885 0.15512 0.0
C798 C 1.01141 0.63762 0.19762 0.0
C799 C 1.00007 0.6491 0.22595 0.0
C800 C 0.9743 0.65409 0.21906 0.0
C801 C 0.96129 0.64905 0.18372 0.0
C802 C 0.0388 0.63198 0.20384 0.0
C803 C 0.96119 0.66588 0.2487 0.0
C804 C 0.01713 0.64247 0.32599 0.0
C805 C 0.04 0.67383 0.33438 0.0
C806 C 1.00466 0.6338 0.29054 0.0
C807 C 0.01568 0.65691 0.26254 0.0
C808 C 0.04033 0.68807 0.27019 0.0
C809 C 0.0521 0.6962 0.30605 0.0
C810 C 0.9785 0.60032 0.28356 0.0
C811 C 0.05315 0.71327 0.24092 0.0
H812 H 1.00674 0.62401 0.1409 0.0
H813 H 0.94269 0.65447 0.17817 0.0
H814 H 0.06045 0.65473 0.21025 0.0
H815 H 0.034 0.61613 0.22767 0.0
H816 H 0.04365 0.62135 0.17956 0.0
H817 H 0.93984 0.66662 0.23958 0.0
H818 H 0.95493 0.65046 0.2732 0.0
H819 H 0.97949 0.69003 0.25718 0.0
H820 H 1.00806 0.62489 0.34759 0.0
H821 H 0.06957 0.7205 0.31224 0.0
H822 H 0.98404 0.59037 0.25923 0.0
H823 H 0.95615 0.60026 0.27766 0.0
H824 H 0.97449 0.58456 0.30734 0.0
H825 H 0.0595 0.70458 0.21608 0.0
H826 H 0.07435 0.73535 0.25029 0.0
H827 H 0.03463 0.719 0.23292 0.0
C828 C 0.63043 0.61106 0.68176 0.0
C829 C 0.66212 0.62026 0.67426 0.0
C830 C 0.62138 0.61705 0.71597 0.0
C831 C 0.64456 0.63246 0.74344 0.0
C832 C 0.67608 0.6394 0.73702 0.0
C833 C 0.68449 0.6332 0.70246 0.0
C834 C 0.58751 0.60899 0.72168 0.0
C835 C 0.70142 0.65534 0.76581 0.0
C836 C 0.63744 0.68596 0.81394 0.0
C837 C 0.62955 0.66731 0.84565 0.0
C838 C 0.64079 0.67429 0.78004 0.0
C839 C 0.63656 0.64338 0.77787 0.0
C840 C 0.62657 0.62377 0.80922 0.0
C841 C 0.62287 0.63585 0.84256 0.0
C842 C 0.65071 0.69577 0.74704 0.0
C843 C 0.62146 0.59061 0.80806 0.0
H844 H 0.61305 0.60096 0.66 0.0
H845 H 0.70905 0.64066 0.69672 0.0
H846 H 0.57852 0.5972 0.74848 0.0
H847 H 0.58632 0.63109 0.72193 0.0
H848 H 0.57165 0.59339 0.69971 0.0
H849 H 0.7239 0.65636 0.75789 0.0
H850 H 0.7062 0.67985 0.77018 0.0
H851 H 0.69331 0.64267 0.7923 0.0
H852 H 0.64275 0.71029 0.81591 0.0
H853 H 0.61596 0.62096 0.86671 0.0
H854 H 0.63641 0.68295 0.72274 0.0
H855 H 0.67583 0.70382 0.74054 0.0
H856 H 0.64825 0.71694 0.75177 0.0
H857 H 0.60593 0.57724 0.78477 0.0
H858 H 0.61075 0.57737 0.83375 0.0
H859 H 0.64449 0.59167 0.80378 0.0
C860 C 0.38062 0.05515 0.70146 0.0
C861 C 0.39266 0.0441 0.67393 0.0
C862 C 0.37415 0.04153 0.73661 0.0
C863 C 0.37964 0.01617 0.74421 0.0
C864 C 0.39353 1.00624 0.71715 0.0
C865 C 0.40012 0.02052 0.68251 0.0
C866 C 0.35989 0.05319 0.765 0.0
C867 C 0.39984 0.97938 0.72407 0.0
C868 C 0.37998 0.99395 0.84383 0.0
C869 C 0.34861 0.96947 0.84879 0.0
C870 C 0.39059 0.00898 0.80984 0.0
C871 C 0.36947 0.99905 0.77983 0.0
C872 C 0.33831 0.97316 0.78406 0.0
C873 C 0.32823 0.95868 0.81852 0.0
C874 C 0.42399 0.03639 0.8065 0.0
C875 C 0.31523 0.96153 0.75251 0.0
H876 H 0.37459 0.07317 0.69499 0.0
H877 H 0.40983 0.01217 0.66143 0.0
H878 H 0.33522 0.03441 0.77084 0.0
H879 H 0.37333 0.05848 0.79103 0.0
H880 H 0.35961 0.07476 0.7559 0.0
H881 H 0.41303 0.97621 0.70123 0.0
H882 H 0.41355 0.9835 0.7497 0.0
H883 H 0.37703 0.95703 0.72763 0.0
H884 H 0.396 1.00211 0.86701 0.0
H885 H 0.30393 0.93999 0.82215 0.0
H886 H 0.42341 0.05839 0.80054 0.0
H887 H 0.43635 0.03248 0.78335 0.0
H888 H 0.43798 0.04007 0.83186 0.0
H889 H 0.31131 0.98082 0.7427 0.0
H890 H 0.292 0.94095 0.76018 0.0
H891 H 0.32517 0.95462 0.7293 0.0
C892 C 0.99918 0.38213 0.68207 0.0
C893 C 0.97565 0.35113 0.67329 0.0
C894 C 0.01366 0.38957 0.71661 0.0
C895 C 1.00404 0.36555 0.74335 0.0
C896 C 0.97876 0.33471 0.73556 0.0
C897 C 0.96491 0.32782 0.70053 0.0
C898 C 0.0404 0.42274 0.72376 0.0
C899 C 0.96744 0.30857 0.7636 0.0
C900 C 0.06222 0.37174 0.81689 0.0
C901 C 0.0514 0.38093 0.84748 0.0
C902 C 0.04747 0.36736 0.7826 0.0
C903 C 0.02132 0.37231 0.77885 0.0
C904 C 1.01131 0.38305 0.80922 0.0
C905 C 0.02658 0.38742 0.84304 0.0
C906 C 0.05915 0.35634 0.75068 0.0
C907 C 0.98364 0.3887 0.80639 0.0
H908 H 1.00731 0.40034 0.66121 0.0
H909 H 0.94694 0.3038 0.69388 0.0
H910 H 0.03627 0.43203 0.74962 0.0
H911 H 0.06287 0.42244 0.727 0.0
H912 H 0.04336 0.43924 0.70118 0.0
H913 H 0.94595 0.28668 0.75439 0.0
H914 H 0.98643 0.30288 0.76905 0.0
H915 H 0.9621 0.31634 0.78986 0.0
H916 H 0.08119 0.36645 0.82014 0.0
H917 H 0.01838 0.39494 0.86648 0.0
H918 H 0.06609 0.37349 0.7278 0.0
H919 H 0.03987 0.33329 0.74052 0.0
H920 H 0.07974 0.35359 0.75808 0.0
H921 H 0.98735 0.4052 0.78357 0.0
H922 H 0.97986 0.39861 0.83203 0.0
H923 H 0.96175 0.36609 0.80023 0.0
C924 C 0.55319 0.21872 0.06512 0.0
C925 C 0.56033 0.24595 0.04505 0.0
C926 C 0.57647 0.21028 0.07165 0.0
C927 C 0.60769 0.22992 0.05844 0.0
C928 C 0.61537 0.25853 0.04027 0.0
C929 C 0.59151 0.26597 0.0334 0.0
C930 C 0.56723 0.1795 0.09088 0.0
C931 C 0.64849 0.28063 0.02655 0.0
C932 C 0.67622 0.2191 0.09032 0.0
C933 C 0.68005 0.20345 0.06022 0.0
C934 C 0.65234 0.22732 0.09062 0.0
C935 C 0.63154 0.21927 0.06035 0.0
C936 C 0.63457 0.20235 0.0306 0.0
C937 C 0.65888 0.19487 0.03079 0.0
C938 C 0.65025 0.24578 0.12258 0.0
C939 C 0.61272 0.19295 0.99795 0.0
H940 H 0.52906 0.20319 0.07407 0.0
H941 H 0.59713 0.28723 0.01818 0.0
H942 H 0.56821 0.1627 0.07119 0.0
H943 H 0.58414 0.18328 0.11325 0.0
H944 H 0.54296 0.16845 0.10251 0.0
H945 H 0.65146 0.30359 0.01706 0.0
H946 H 0.66612 0.28531 0.04839 0.0
H947 H 0.65393 0.26942 0.00339 0.0
H948 H 0.69266 0.22607 0.11303 0.0
H949 H 0.66163 0.18268 0.00751 0.0
H950 H 0.62569 0.23434 0.13323 0.0
H951 H 0.65653 0.26989 0.11337 0.0
H952 H 0.66639 0.24795 0.14526 0.0
H953 H 0.58768 0.17983 0.00705 0.0
H954 H 0.61677 0.17796 0.9783 0.0
H955 H 0.61635 0.21446 0.98339 0.0
C956 C 0.7564 0.33569 0.03322 0.0
C957 C 0.77585 0.32431 0.04635 0.0
C958 C 0.76378 0.36702 0.03976 0.0
C959 C 0.79173 0.38774 0.05921 0.0
C960 C 0.81073 0.37593 0.07387 0.0
C961 C 0.80239 0.34422 0.06754 0.0
C962 C 0.74234 0.37827 0.02442 0.0
C963 C 0.84076 0.3972 0.09459 0.0
C964 C 0.82833 0.47437 0.03247 0.0
C965 C 0.8187 0.48672 0.06117 0.0
C966 C 0.82063 0.44253 0.03225 0.0
C967 C 0.8024 0.42225 0.06119 0.0
C968 C 0.79323 0.43475 0.09073 0.0
C969 C 0.8017 0.4669 0.09051 0.0
C970 C 0.83125 0.43037 0.00041 0.0
C971 C 0.77337 0.41388 0.12179 0.0
H972 H 0.73566 0.32023 0.01711 0.0
H973 H 0.81748 0.33548 0.07768 0.0
H974 H 0.7368 0.39101 0.04569 0.0
H975 H 0.75456 0.39515 0.00172 0.0
H976 H 0.71976 0.35844 0.01381 0.0
H977 H 0.85134 0.38385 0.10705 0.0
H978 H 0.85833 0.41521 0.07567 0.0
H979 H 0.83611 0.41006 0.11653 0.0
H980 H 0.84154 0.48955 0.00976 0.0
H981 H 0.79387 0.47616 0.11262 0.0
H982 H 0.81029 0.41268 0.98486 0.0
H983 H 0.84395 0.4183 0.0105 0.0
H984 H 0.84704 0.44957 0.98138 0.0
H985 H 0.74963 0.39625 0.11133 0.0
H986 H 0.77031 0.42762 0.14406 0.0
H987 H 0.78425 0.40055 0.13339 0.0
C988 C 0.67911 0.47169 0.06335 0.0
C989 C 0.69952 0.46483 0.04349 0.0
C990 C 0.64734 0.4483 0.06934 0.0
C991 C 0.63601 0.41724 0.05577 0.0
C992 C 0.65719 0.40986 0.03761 0.0
C993 C 0.68855 0.43383 0.0313 0.0
C994 C 0.62554 0.45722 0.08857 0.0
C995 C 0.64645 0.37692 0.02352 0.0
C996 C 0.55734 0.34793 0.08781 0.0
C997 C 0.53761 0.34377 0.05784 0.0
C998 C 0.58925 0.37219 0.08803 0.0
C999 C 0.60161 0.39308 0.05781 0.0
C1000 C 0.58138 0.38977 0.02822 0.0
C1001 C 0.54977 0.36507 0.02849 0.0
C1002 C 0.61008 0.37456 0.11983 0.0
C1003 C 0.59341 0.41172 0.99564 0.0
H1004 H 0.68756 0.49568 0.0727 0.0
H1005 H 0.70441 0.42841 0.01623 0.0
H1006 H 0.60756 0.45591 0.06893 0.0
H1007 H 0.61265 0.44032 0.11101 0.0
H1008 H 0.63849 0.48151 0.10011 0.0
H1009 H 0.66654 0.37425 0.01364 0.0
H1010 H 0.63381 0.35915 0.04529 0.0
H1011 H 0.6296 0.37145 0.00056 0.0
H1012 H 0.54823 0.33141 0.11048 0.0
H1013 H 0.53466 0.3621 0.00529 0.0
H1014 H 0.62286 0.39909 0.13057 0.0
H1015 H 0.62819 0.36872 0.11044 0.0
H1016 H 0.59638 0.35827 0.14251 0.0
H1017 H 0.60509 0.43672 0.00484 0.0
H1018 H 0.57417 0.40749 0.9762 0.0
H1019 H 0.6114 0.40841 0.98082 0.0
C1020 C 0.22755 0.69383 0.47746 0.0
C1021 C 0.21932 0.70349 0.44514 0.0
C1022 C 0.23349 0.66848 0.47741 0.0
C1023 C 0.23139 0.65256 0.44422 0.0
C1024 C 0.22505 0.66352 0.41117 0.0
C1025 C 0.2187 0.68861 0.41206 0.0
C1026 C 0.24077 0.6579 0.51312 0.0
C1027 C 0.22427 0.64821 0.375 0.0
C1028 C 0.2626 0.59475 0.44656 0.0
C1029 C 0.23448 0.56585 0.45093 0.0
C1030 C 0.26205 0.62319 0.44281 0.0
C1031 C 0.23276 0.62271 0.44473 0.0
C1032 C 0.20433 0.59343 0.44874 0.0
C1033 C 0.20553 0.56539 0.4513 0.0
C1034 C 0.29303 0.65353 0.43786 0.0
C1035 C 0.17264 0.59179 0.45162 0.0
H1036 H 0.22821 0.70533 0.50309 0.0
H1037 H 0.21286 0.69632 0.3869 0.0
H1038 H 0.22205 0.63326 0.51923 0.0
H1039 H 0.26352 0.65802 0.51086 0.0
H1040 H 0.24238 0.67328 0.5364 0.0
H1041 H 0.22211 0.6614 0.35144 0.0
H1042 H 0.24614 0.64677 0.37163 0.0
H1043 H 0.20393 0.62369 0.37445 0.0
H1044 H 0.28506 0.59521 0.44627 0.0
H1045 H 0.18373 0.5431 0.45488 0.0
H1046 H 0.30456 0.66179 0.46495 0.0
H1047 H 0.29008 0.6726 0.42534 0.0
H1048 H 0.30923 0.64944 0.42033 0.0
H1049 H 0.17261 0.60575 0.47559 0.0
H1050 H 0.15275 0.56714 0.45464 0.0
H1051 H 0.16835 0.60232 0.42692 0.0
C1052 C 0.45344 0.64474 0.4498 0.0
C1053 C 0.45282 0.67312 0.44997 0.0
C1054 C 0.42547 0.61547 0.44689 0.0
C1055 C 0.3961 0.61449 0.44295 0.0
C1056 C 0.39548 0.64322 0.44145 0.0
C1057 C 0.42384 0.67223 0.44563 0.0
C1058 C 0.42728 0.58551 0.44949 0.0
C1059 C 0.36507 0.64378 0.4365 0.0
C1060 C 0.33054 0.53434 0.41025 0.0
C1061 C 0.31565 0.52005 0.44331 0.0
C1062 C 0.35546 0.56587 0.40934 0.0
C1063 C 0.3663 0.58319 0.44239 0.0
C1064 C 0.35037 0.56932 0.47556 0.0
C1065 C 0.32514 0.53798 0.4756 0.0
C1066 C 0.37069 0.58047 0.37317 0.0
C1067 C 0.36081 0.58718 0.51126 0.0
H1068 H 0.47578 0.6453 0.45339 0.0
H1069 H 0.42325 0.69415 0.44576 0.0
H1070 H 0.41331 0.57136 0.47337 0.0
H1071 H 0.41684 0.57082 0.42469 0.0
H1072 H 0.45198 0.59036 0.45251 0.0
H1073 H 0.36906 0.66378 0.41852 0.0
H1074 H 0.34586 0.62161 0.42445 0.0
H1075 H 0.35705 0.64756 0.4635 0.0
H1076 H 0.32295 0.52075 0.38511 0.0
H1077 H 0.31363 0.52713 0.50122 0.0
H1078 H 0.39526 0.58474 0.37252 0.0
H1079 H 0.37202 0.60373 0.36989 0.0
H1080 H 0.35749 0.56513 0.34961 0.0
H1081 H 0.38556 0.5934 0.51733 0.0
H1082 H 0.34554 0.57331 0.53457 0.0
H1083 H 0.36035 0.60962 0.50903 0.0
C1084 C 0.48137 0.7908 0.47822 0.0
C1085 C 0.49874 0.79874 0.44554 0.0
C1086 C 0.44996 0.78457 0.47873 0.0
C1087 C 0.43555 0.78612 0.44575 0.0
C1088 C 0.45229 0.79202 0.41234 0.0
C1089 C 0.48384 0.79866 0.41268 0.0
C1090 C 0.43265 0.77767 0.51478 0.0
C1091 C 0.43711 0.79216 0.37641 0.0
C1092 C 0.34661 0.75531 0.44947 0.0
C1093 C 0.346 0.78355 0.45349 0.0
C1094 C 0.3755 0.75566 0.44549 0.0
C1095 C 0.40438 0.78487 0.44678 0.0
C1096 C 0.40369 0.81341 0.45047 0.0
C1097 C 0.37453 0.8124 0.45329 0.0
C1098 C 0.37467 0.72456 0.44084 0.0
C1099 C 0.43382 0.84505 0.45259 0.0
H1100 H 0.49272 0.79069 0.50369 0.0
H1101 H 0.49701 0.80428 0.38724 0.0
H1102 H 0.42693 0.79652 0.52095 0.0
H1103 H 0.40994 0.75498 0.51299 0.0
H1104 H 0.44673 0.77617 0.5378 0.0
H1105 H 0.45205 0.79389 0.35258 0.0
H1106 H 0.41375 0.77026 0.37375 0.0
H1107 H 0.43291 0.81249 0.37561 0.0
H1108 H 0.32456 0.73292 0.4496 0.0
H1109 H 0.37417 0.83429 0.45658 0.0
H1110 H 0.37096 0.71296 0.46795 0.0
H1111 H 0.39673 0.72727 0.42871 0.0
H1112 H 0.35455 0.70854 0.42304 0.0
H1113 H 0.44818 0.8453 0.47631 0.0
H1114 H 0.42919 0.86503 0.45555 0.0
H1115 H 0.44824 0.84898 0.4276 0.0
C1116 C 0.3469 0.7947 0.97181 0.0
C1117 C 0.34357 0.81339 0.94501 0.0
C1118 C 0.37316 0.79017 0.97212 0.0
C1119 C 0.39745 0.8057 0.94577 0.0
C1120 C 0.39419 0.8246 0.91851 0.0
C1121 C 0.36696 0.82774 0.91804 0.0
C1122 C 0.37497 0.76893 0.00093 0.0
C1123 C 0.41988 0.84223 0.89056 0.0
C1124 C 0.47687 0.81789 0.97852 0.0
C1125 C 0.47887 0.79376 0.96016 0.0
C1126 C 0.45147 0.82323 0.97233 0.0
C1127 C 0.42677 0.80316 0.94819 0.0
C1128 C 0.42903 0.77909 0.929 0.0
C1129 C 0.45536 0.77502 0.93477 0.0
C1130 C 0.45056 0.84971 0.99264 0.0
C1131 C 0.40283 0.75649 0.90397 0.0
H1132 H 0.32864 0.78318 0.99241 0.0
H1133 H 0.36443 0.84223 0.89732 0.0
H1134 H 0.37965 0.75111 0.98795 0.0
H1135 H 0.39487 0.78316 0.01988 0.0
H1136 H 0.35283 0.75634 0.01723 0.0
H1137 H 0.41346 0.85531 0.87065 0.0
H1138 H 0.44208 0.85935 0.90467 0.0
H1139 H 0.4249 0.82557 0.87533 0.0
H1140 H 0.49511 0.83247 0.99808 0.0
H1141 H 0.4567 0.75609 0.92087 0.0
H1142 H 0.43136 0.83967 0.01333 0.0
H1143 H 0.44534 0.86414 0.97346 0.0
H1144 H 0.47324 0.86544 0.00687 0.0
H1145 H 0.38112 0.74182 0.9203 0.0
H1146 H 0.40912 0.74052 0.88915 0.0
H1147 H 0.39701 0.7697 0.88366 0.0
C1148 C 0.25883 0.68153 0.97642 0.0
C1149 C 0.23962 0.69284 0.9623 0.0
C1150 C 0.25205 0.65044 0.96964 0.0
C1151 C 0.2249 0.62979 0.94895 0.0
C1152 C 0.20575 0.64132 0.93396 0.0
C1153 C 0.21356 0.67287 0.94048 0.0
C1154 C 0.27358 0.63948 0.98543 0.0
C1155 C 0.17638 0.61999 0.91222 0.0
C1156 C 0.22091 0.55423 0.9139 0.0
C1157 C 0.20427 0.53285 0.9422 0.0
C1158 C 0.22706 0.58565 0.91511 0.0
C1159 C 0.2158 0.59578 0.94498 0.0
C1160 C 0.19768 0.57382 0.97269 0.0
C1161 C 0.19243 0.54278 0.97115 0.0
C1162 C 0.24694 0.60838 0.88535 0.0
C1163 C 0.18476 0.58341 0.00472 0.0
H1164 H 0.27916 0.69703 0.99307 0.0
H1165 H 0.19862 0.68155 0.92967 0.0
H1166 H 0.26064 0.62104 0.00645 0.0
H1167 H 0.28106 0.62869 0.96372 0.0
H1168 H 0.29508 0.65912 0.99828 0.0
H1169 H 0.16499 0.63294 0.90074 0.0
H1170 H 0.18219 0.60875 0.88943 0.0
H1171 H 0.15904 0.6007 0.93008 0.0
H1172 H 0.23037 0.54683 0.89157 0.0
H1173 H 0.1794 0.52637 0.99302 0.0
H1174 H 0.26992 0.62658 0.89699 0.0
H1175 H 0.23506 0.6209 0.87418 0.0
H1176 H 0.25169 0.59629 0.86252 0.0
H1177 H 0.20459 0.60076 0.02194 0.0
H1178 H 0.16872 0.5629 0.02209 0.0
H1179 H 0.17161 0.59509 0.99488 0.0
C1180 C 0.34615 0.54578 0.9417 0.0
C1181 C 0.3254 0.55152 0.96251 0.0
C1182 C 0.37769 0.56986 0.93577 0.0
C1183 C 0.38843 0.60053 0.95028 0.0
C1184 C 0.367 0.60665 0.96993 0.0
C1185 C 0.33594 0.582 0.9762 0.0
C1186 C 0.39983 0.56218 0.91517 0.0
C1187 C 0.37707 0.63911 0.98514 0.0
C1188 C 0.47491 0.65667 0.97397 0.0
C1189 C 0.48496 0.6781 0.94466 0.0
C1190 C 0.44406 0.6305 0.97518 0.0
C1191 C 0.42237 0.6259 0.94679 0.0
C1192 C 0.43266 0.64694 0.91658 0.0
C1193 C 0.46391 0.67259 0.9157 0.0
C1194 C 0.43435 0.60838 0.00758 0.0
C1195 C 0.41021 0.64333 0.88608 0.0
H1196 H 0.33808 0.52217 0.93124 0.0
H1197 H 0.31986 0.58657 0.99207 0.0
H1198 H 0.41117 0.57902 0.89222 0.0
H1199 H 0.41903 0.5648 0.93369 0.0
H1200 H 0.3875 0.53773 0.90406 0.0
H1201 H 0.3569 0.64063 0.99701 0.0
H1202 H 0.39512 0.64506 0.00681 0.0
H1203 H 0.38809 0.65723 0.96333 0.0
H1204 H 0.49107 0.66066 0.99636 0.0
H1205 H 0.47135 0.68919 0.89311 0.0
H1206 H 0.42321 0.58348 0.99814 0.0
H1207 H 0.41649 0.61065 0.02408 0.0
H1208 H 0.45472 0.61343 0.02555 0.0
H1209 H 0.39821 0.61881 0.87529 0.0
H1210 H 0.42245 0.65997 0.86314 0.0
H1211 H 0.39155 0.64783 0.89688 0.0
C1212 C 0.75495 0.43606 0.52148 0.0
C1213 C 0.77287 0.46701 0.53479 0.0
C1214 C 0.76458 0.41365 0.52716 0.0
C1215 C 0.7933 0.42261 0.54585 0.0
C1216 C 0.81122 0.45374 0.55996 0.0
C1217 C 0.80059 0.47551 0.5546 0.0
C1218 C 0.74428 0.38055 0.51243 0.0
C1219 C 0.84215 0.46437 0.5796 0.0
C1220 C 0.80484 0.35536 0.58049 0.0
C1221 C 0.82115 0.35133 0.55121 0.0
C1222 C 0.79641 0.37904 0.57968 0.0
C1223 C 0.80498 0.39961 0.54915 0.0
C1224 C 0.82282 0.39665 0.52038 0.0
C1225 C 0.83041 0.37239 0.52158 0.0
C1226 C 0.77692 0.38096 0.61062 0.0
C1227 C 0.83292 0.41839 0.48761 0.0
H1228 H 0.73337 0.42937 0.50636 0.0
H1229 H 0.81456 0.4995 0.56475 0.0
H1230 H 0.75724 0.37599 0.4905 0.0
H1231 H 0.73911 0.36292 0.53439 0.0
H1232 H 0.72151 0.37672 0.50105 0.0
H1233 H 0.85257 0.48887 0.59031 0.0
H1234 H 0.83867 0.44823 0.60273 0.0
H1235 H 0.85935 0.46335 0.56057 0.0
H1236 H 0.79729 0.33903 0.60335 0.0
H1237 H 0.84311 0.36954 0.49891 0.0
H1238 H 0.75295 0.37427 0.60039 0.0
H1239 H 0.78776 0.40553 0.62105 0.0
H1240 H 0.7744 0.36505 0.6337 0.0
H1241 H 0.81177 0.41396 0.47161 0.0
H1242 H 0.84915 0.41496 0.46931 0.0
H1243 H 0.84493 0.44344 0.49663 0.0
C1244 C 0.54537 0.32996 0.56074 0.0
C1245 C 0.5541 0.31248 0.53801 0.0
C1246 C 0.56643 0.36227 0.56745 0.0
C1247 C 0.59708 0.37712 0.55164 0.0
C1248 C 0.60639 0.35904 0.53004 0.0
C1249 C 0.58466 0.32706 0.52315 0.0
C1250 C 0.55548 0.38078 0.59024 0.0
C1251 C 0.63906 0.37366 0.51338 0.0
C1252 C 0.64343 0.46507 0.53036 0.0
C1253 C 0.66589 0.47661 0.5586 0.0
C1254 C 0.61986 0.43303 0.52888 0.0
C1255 C 0.61904 0.41182 0.55593 0.0
C1256 C 0.64094 0.42355 0.58525 0.0
C1257 C 0.66393 0.45585 0.58641 0.0
C1258 C 0.59663 0.42162 0.49747 0.0
C1259 C 0.64124 0.40171 0.61432 0.0
H1260 H 0.52167 0.31871 0.5721 0.0
H1261 H 0.59151 0.31349 0.50576 0.0
H1262 H 0.57255 0.39339 0.61264 0.0
H1263 H 0.55451 0.39898 0.57295 0.0
H1264 H 0.5317 0.36543 0.60235 0.0
H1265 H 0.64337 0.35585 0.49964 0.0
H1266 H 0.64211 0.39178 0.49293 0.0
H1267 H 0.65738 0.38578 0.53478 0.0
H1268 H 0.64469 0.481 0.50889 0.0
H1269 H 0.68133 0.46449 0.60821 0.0
H1270 H 0.57207 0.40741 0.50788 0.0
H1271 H 0.60118 0.40607 0.47937 0.0
H1272 H 0.59838 0.44149 0.48082 0.0
H1273 H 0.61717 0.3867 0.62574 0.0
H1274 H 0.65772 0.41486 0.63708 0.0
H1275 H 0.64863 0.38565 0.60192 0.0
C1276 C 0.69909 0.24643 0.56009 0.0
C1277 C 0.70628 0.22842 0.53627 0.0
C1278 C 0.66754 0.23902 0.56558 0.0
C1279 C 0.64265 0.21231 0.54783 0.0
C1280 C 0.64987 0.19296 0.52558 0.0
C1281 C 0.68164 0.20163 0.51949 0.0
C1282 C 0.66106 0.2609 0.58849 0.0
C1283 C 0.62412 0.16375 0.50705 0.0
C1284 C 0.55743 0.18257 0.57853 0.0
C1285 C 0.54632 0.19405 0.55045 0.0
C1286 C 0.58865 0.18796 0.57796 0.0
C1287 C 0.60949 0.20633 0.54943 0.0
C1288 C 0.59846 0.21862 0.52159 0.0
C1289 C 0.56691 0.21184 0.5221 0.0
C1290 C 0.59919 0.17363 0.60749 0.0
C1291 C 0.62004 0.23919 0.49132 0.0
H1292 H 0.71822 0.26734 0.57277 0.0
H1293 H 0.68725 0.18761 0.5012 0.0
H1294 H 0.65172 0.27282 0.57073 0.0
H1295 H 0.64274 0.24733 0.6094 0.0
H1296 H 0.68268 0.27931 0.60251 0.0
H1297 H 0.6333 0.14904 0.49487 0.0
H1298 H 0.60513 0.14912 0.52687 0.0
H1299 H 0.61327 0.17075 0.48494 0.0
H1300 H 0.54152 0.16885 0.6005 0.0
H1301 H 0.55856 0.22125 0.50068 0.0
H1302 H 0.61977 0.19249 0.62243 0.0
H1303 H 0.60701 0.15797 0.59493 0.0
H1304 H 0.58006 0.15965 0.62749 0.0
H1305 H 0.64164 0.25942 0.50314 0.0
H1306 H 0.60837 0.24861 0.47321 0.0
H1307 H 0.62773 0.2254 0.47436 0.0
C1308 C 0.46056 0.20608 0.72217 0.0
C1309 C 0.47413 0.23053 0.6963 0.0
C1310 C 0.46102 0.21272 0.75955 0.0
C1311 C 0.47543 0.24457 0.77129 0.0
C1312 C 0.48949 0.26937 0.74539 0.0
C1313 C 0.48867 0.26205 0.70814 0.0
C1314 C 0.44586 0.18563 0.78644 0.0
C1315 C 0.50516 0.30361 0.75701 0.0
C1316 C 0.44973 0.25862 0.86405 0.0
C1317 C 0.47407 0.26107 0.88668 0.0
C1318 C 0.45025 0.25398 0.82621 0.0
C1319 C 0.4757 0.25179 0.81077 0.0
C1320 C 0.50076 0.25514 0.83332 0.0
C1321 C 0.49965 0.25976 0.87102 0.0
C1322 C 0.42314 0.25058 0.80291 0.0
C1323 C 0.52833 0.25298 0.81778 0.0
H1324 H 0.4493 0.18166 0.71322 0.0
H1325 H 0.49922 0.28106 0.68829 0.0
H1326 H 0.46356 0.18768 0.80695 0.0
H1327 H 0.42663 0.1866 0.80153 0.0
H1328 H 0.43581 0.1622 0.77283 0.0
H1329 H 0.51532 0.3201 0.73347 0.0
H1330 H 0.48771 0.30825 0.77103 0.0
H1331 H 0.52436 0.30886 0.77689 0.0
H1332 H 0.42992 0.25966 0.87595 0.0
H1333 H 0.51862 0.26174 0.8883 0.0
H1334 H 0.41044 0.22653 0.79078 0.0
H1335 H 0.43225 0.26772 0.77993 0.0
H1336 H 0.40595 0.25443 0.81883 0.0
H1337 H 0.51979 0.22901 0.80631 0.0
H1338 H 0.54669 0.25771 0.83872 0.0
H1339 H 0.53943 0.27011 0.79503 0.0
C1340 C 0.81533 0.26057 0.72384 0.0
C1341 C 0.79048 0.24764 0.69842 0.0
C1342 C 0.80936 0.25553 0.76147 0.0
C1343 C 0.77778 0.23712 0.77389 0.0
C1344 C 0.75255 0.22435 0.74844 0.0
C1345 C 0.75921 0.22979 0.71094 0.0
C1346 C 0.83687 0.26964 0.78788 0.0
C1347 C 0.71859 0.20466 0.76079 0.0
C1348 C 0.7663 0.2001 0.86794 0.0
C1349 C 0.76237 0.22154 0.8897 0.0
C1350 C 0.77077 0.20458 0.83002 0.0
C1351 C 0.77125 0.23108 0.8136 0.0
C1352 C 0.76652 0.25237 0.83527 0.0
C1353 C 0.76213 0.24734 0.87309 0.0
C1354 C 0.77573 0.18138 0.80767 0.0
C1355 C 0.76683 0.28086 0.81864 0.0
H1356 H 0.83955 0.27443 0.71436 0.0
H1357 H 0.73989 0.21974 0.69144 0.0
H1358 H 0.83395 0.28516 0.80778 0.0
H1359 H 0.83742 0.25054 0.80376 0.0
H1360 H 0.85997 0.2837 0.77376 0.0
H1361 H 0.70168 0.19688 0.73752 0.0
H1362 H 0.71535 0.1834 0.77561 0.0
H1363 H 0.7126 0.21838 0.78016 0.0
H1364 H 0.7665 0.18011 0.88058 0.0
H1365 H 0.75902 0.26398 0.88972 0.0
H1366 H 0.79963 0.19364 0.7951 0.0
H1367 H 0.75828 0.17177 0.78501 0.0
H1368 H 0.77345 0.16133 0.82439 0.0
H1369 H 0.79042 0.29686 0.80654 0.0
H1370 H 0.76149 0.2944 0.83907 0.0
H1371 H 0.74924 0.27339 0.79617 0.0
C1372 C 0.8289 0.57677 0.86716 0.0
C1373 C 0.80636 0.55217 0.88895 0.0
C1374 C 0.82487 0.57676 0.82913 0.0
C1375 C 0.7977 0.55154 0.81267 0.0
C1376 C 0.77543 0.52613 0.83436 0.0
C1377 C 0.78004 0.52675 0.87225 0.0
C1378 C 0.84914 0.60421 0.80675 0.0
C1379 C 0.74621 0.49878 0.81771 0.0
C1380 C 0.76806 0.56727 0.72376 0.0
C1381 C 0.77906 0.55372 0.69801 0.0
C1382 C 0.77414 0.56685 0.76116 0.0
C1383 C 0.79162 0.5525 0.77306 0.0
C1384 C 0.80276 0.53872 0.74725 0.0
C1385 C 0.79634 0.5395 0.70996 0.0
C1386 C 0.76182 0.58174 0.78795 0.0
C1387 C 0.82139 0.52314 0.75905 0.0
H1388 H 0.84933 0.59645 0.87987 0.0
H1389 H 0.76258 0.50755 0.88888 0.0
H1390 H 0.85756 0.59548 0.78376 0.0
H1391 H 0.83815 0.61728 0.79464 0.0
H1392 H 0.86988 0.62097 0.82336 0.0
H1393 H 0.73218 0.48 0.83806 0.0
H1394 H 0.73091 0.5074 0.80599 0.0
H1395 H 0.75288 0.4882 0.79498 0.0
H1396 H 0.75471 0.57833 0.71473 0.0
H1397 H 0.80493 0.529 0.69018 0.0
H1398 H 0.78174 0.60057 0.80377 0.0
H1399 H 0.74562 0.56373 0.80785 0.0
H1400 H 0.74889 0.59221 0.77417 0.0
H1401 H 0.84296 0.54035 0.77406 0.0
H1402 H 0.82858 0.51375 0.73549 0.0
H1403 H 0.80704 0.50337 0.77811 0.0
C1404 C 0.20734 0.46846 0.61165 0.0
C1405 C 0.21276 0.44653 0.59283 0.0
C1406 C 0.20545 0.46815 0.65004 0.0
C1407 C 0.20886 0.44524 0.67017 0.0
C1408 C 0.21283 0.42212 0.65126 0.0
C1409 C 0.21481 0.42308 0.61284 0.0
C1410 C 0.20108 0.49316 0.66911 0.0
C1411 C 0.21618 0.39706 0.67168 0.0
C1412 C 0.24174 0.46635 0.76687 0.0
C1413 C 0.21437 0.45008 0.78831 0.0
C1414 C 0.24019 0.46498 0.72849 0.0
C1415 C 0.21053 0.44686 0.71096 0.0
C1416 C 0.18274 0.43052 0.7324 0.0
C1417 C 0.185 0.43228 0.77081 0.0
C1418 C 0.27036 0.48297 0.70666 0.0
C1419 C 0.15068 0.41093 0.71481 0.0
H1420 H 0.20557 0.4866 0.59649 0.0
H1421 H 0.21874 0.40588 0.59856 0.0
H1422 H 0.18102 0.48202 0.68864 0.0
H1423 H 0.22262 0.50887 0.68516 0.0
H1424 H 0.19658 0.50789 0.64953 0.0
H1425 H 0.21667 0.37936 0.65298 0.0
H1426 H 0.2384 0.40833 0.68785 0.0
H1427 H 0.19633 0.38456 0.69126 0.0
H1428 H 0.26453 0.4802 0.78008 0.0
H1429 H 0.16369 0.41959 0.78711 0.0
H1430 H 0.26861 0.50003 0.6881 0.0
H1431 H 0.27393 0.46636 0.68929 0.0
H1432 H 0.29149 0.49616 0.72441 0.0
H1433 H 0.14653 0.4251 0.69411 0.0
H1434 H 0.13119 0.40184 0.73518 0.0
H1435 H 0.14979 0.39052 0.70032 0.0
C1436 C 0.54496 0.73954 0.61441 0.0
C1437 C 0.57269 0.7577 0.59408 0.0
C1438 C 0.54609 0.73538 0.65225 0.0
C1439 C 0.57573 0.74935 0.67029 0.0
C1440 C 0.60392 0.76663 0.6497 0.0
C1441 C 0.60206 0.77085 0.61186 0.0
C1442 C 0.51546 0.71687 0.67314 0.0
C1443 C 0.63599 0.78132 0.66779 0.0
C1444 C 0.57454 0.76816 0.77099 0.0
C1445 C 0.57391 0.74215 0.78813 0.0
C1446 C 0.57579 0.77106 0.73272 0.0
C1447 C 0.57682 0.74756 0.71097 0.0
C1448 C 0.57698 0.72161 0.72814 0.0
C1449 C 0.57536 0.71913 0.76653 0.0
C1450 C 0.57527 0.79894 0.71552 0.0
C1451 C 0.5786 0.69637 0.70596 0.0
H1452 H 0.52214 0.72922 0.60093 0.0
H1453 H 0.62361 0.78458 0.59625 0.0
H1454 H 0.51568 0.69761 0.68902 0.0
H1455 H 0.51288 0.73263 0.69301 0.0
H1456 H 0.49446 0.70632 0.65483 0.0
H1457 H 0.65559 0.79116 0.64751 0.0
H1458 H 0.63898 0.80068 0.68624 0.0
H1459 H 0.63794 0.76356 0.68485 0.0
H1460 H 0.57349 0.78607 0.78749 0.0
H1461 H 0.5754 0.69922 0.77963 0.0
H1462 H 0.55378 0.79046 0.69832 0.0
H1463 H 0.59607 0.81198 0.69734 0.0
H1464 H 0.5754 0.81564 0.73627 0.0
H1465 H 0.55825 0.68512 0.68683 0.0
H1466 H 0.57843 0.67771 0.72352 0.0
H1467 H 0.60047 0.70715 0.68916 0.0
C1468 C 0.23921 0.77901 0.76984 0.0
C1469 C 0.25136 0.80663 0.791 0.0
C1470 C 0.23934 0.78028 0.73143 0.0
C1471 C 0.25188 0.80991 0.71356 0.0
C1472 C 0.26435 0.83793 0.73472 0.0
C1473 C 0.2639 0.83596 0.77317 0.0
C1474 C 0.22604 0.74985 0.70993 0.0
C1475 C 0.2779 0.86998 0.71679 0.0
C1476 C 0.27616 0.81128 0.61432 0.0
C1477 C 0.24918 0.80682 0.59539 0.0
C1478 C 0.27781 0.81342 0.6527 0.0
C1479 C 0.25195 0.81129 0.67273 0.0
C1480 C 0.22527 0.80827 0.65369 0.0
C1481 C 0.22416 0.80598 0.61528 0.0
C1482 C 0.30673 0.81673 0.67189 0.0
C1483 C 0.19739 0.80632 0.67398 0.0
H1484 H 0.22952 0.75624 0.78329 0.0
H1485 H 0.27331 0.85745 0.78924 0.0
H1486 H 0.20615 0.747 0.6925 0.0
H1487 H 0.24446 0.75061 0.69145 0.0
H1488 H 0.21736 0.72877 0.72792 0.0
H1489 H 0.28921 0.88957 0.73693 0.0
H1490 H 0.29572 0.87314 0.69586 0.0
H1491 H 0.25876 0.87175 0.70254 0.0
H1492 H 0.2957 0.81211 0.59926 0.0
H1493 H 0.20333 0.80281 0.60092 0.0
H1494 H 0.3001 0.79516 0.68828 0.0
H1495 H 0.31638 0.83701 0.69114 0.0
H1496 H 0.32568 0.82023 0.65237 0.0
H1497 H 0.18574 0.78426 0.69042 0.0
H1498 H 0.17957 0.80646 0.65517 0.0
H1499 H 0.20548 0.82644 0.69329 0.0
C1500 C 0.58892 0.76672 0.13109 0.0
C1501 C 0.56475 0.76678 0.11034 0.0
C1502 C 0.59092 0.77193 0.16905 0.0
C1503 C 0.56836 0.77761 0.18664 0.0
C1504 C 0.54355 0.77709 0.16598 0.0
C1505 C 0.54196 0.77154 0.12811 0.0
C1506 C 0.61751 0.77194 0.19022 0.0
C1507 C 0.51912 0.78317 0.18372 0.0
C1508 C 0.55836 0.76707 0.28978 0.0
C1509 C 0.5766 0.79831 0.30227 0.0
C1510 C 0.55553 0.75997 0.25226 0.0
C1511 C 0.57111 0.78474 0.22654 0.0
C1512 C 0.58938 0.81636 0.23895 0.0
C1513 C 0.59202 0.82275 0.27667 0.0
C1514 C 0.536 0.72595 0.24013 0.0
C1515 C 0.60613 0.84346 0.21235 0.0
H1516 H 0.60658 0.76298 0.11761 0.0
H1517 H 0.52326 0.77174 0.11231 0.0
H1518 H 0.63287 0.79564 0.20239 0.0
H1519 H 0.60779 0.75476 0.21312 0.0
H1520 H 0.63234 0.76584 0.17276 0.0
H1521 H 0.50086 0.78113 0.16399 0.0
H1522 H 0.50719 0.76617 0.20639 0.0
H1523 H 0.53088 0.80725 0.19576 0.0
H1524 H 0.54642 0.74802 0.30937 0.0
H1525 H 0.60606 0.84696 0.28607 0.0
H1526 H 0.55093 0.71901 0.22417 0.0
H1527 H 0.51661 0.72318 0.22186 0.0
H1528 H 0.52548 0.70944 0.26359 0.0
H1529 H 0.62326 0.84011 0.19574 0.0
H1530 H 0.61904 0.86673 0.22639 0.0
H1531 H 0.58875 0.84395 0.19315 0.0
C1532 C 0.25312 0.82655 0.13272 0.0
C1533 C 0.25032 0.80104 0.11206 0.0
C1534 C 0.24725 0.82364 0.17058 0.0
C1535 C 0.23819 0.79447 0.18817 0.0
C1536 C 0.23538 0.76867 0.16749 0.0
C1537 C 0.24158 0.77229 0.12974 0.0
C1538 C 0.25071 0.85176 0.19177 0.0
C1539 C 0.22565 0.73715 0.18521 0.0
C1540 C 0.25019 0.7935 0.29086 0.0
C1541 C 0.21967 0.78343 0.30434 0.0
C1542 C 0.25658 0.79745 0.25317 0.0
C1543 C 0.23182 0.79096 0.22827 0.0
C1544 C 0.20095 0.78078 0.24168 0.0
C1545 C 0.19527 0.77725 0.27956 0.0
C1546 C 0.28984 0.80848 0.23998 0.0
C1547 C 0.17386 0.77339 0.21598 0.0
H1548 H 0.25988 0.84885 0.11932 0.0
H1549 H 0.23923 0.7524 0.11402 0.0
H1550 H 0.2279 0.84574 0.20498 0.0
H1551 H 0.26843 0.85798 0.21391 0.0
H1552 H 0.25819 0.87285 0.1741 0.0
H1553 H 0.2244 0.71938 0.16525 0.0
H1554 H 0.24273 0.74012 0.20704 0.0
H1555 H 0.20213 0.72775 0.19835 0.0
H1556 H 0.26921 0.79842 0.3098 0.0
H1557 H 0.1716 0.76937 0.28972 0.0
H1558 H 0.29862 0.83052 0.22377 0.0
H1559 H 0.28997 0.7904 0.22167 0.0
H1560 H 0.30655 0.81302 0.26291 0.0
H1561 H 0.1794 0.79456 0.19935 0.0
H1562 H 0.15126 0.7657 0.23076 0.0
H1563 H 0.17052 0.7544 0.1967 0.0
C1564 C 0.24599 0.47173 0.12833 0.0
C1565 C 0.21785 0.45046 0.11035 0.0
C1566 C 0.24981 0.46911 0.16604 0.0
C1567 C 0.22479 0.44479 0.18641 0.0
C1568 C 0.19625 0.42335 0.1685 0.0
C1569 C 0.19316 0.42637 0.13067 0.0
C1570 C 0.28068 0.49234 0.18408 0.0
C1571 C 0.16893 0.39727 0.18933 0.0
C1572 C 0.24399 0.42116 0.27811 0.0
C1573 C 0.23594 0.43803 0.30279 0.0
C1574 C 0.24048 0.4231 0.24016 0.0
C1575 C 0.22835 0.44213 0.22658 0.0
C1576 C 0.21993 0.45899 0.25139 0.0
C1577 C 0.22395 0.45684 0.28913 0.0
C1578 C 0.24998 0.40499 0.21457 0.0
C1579 C 0.20674 0.47938 0.23806 0.0
H1580 H 0.26528 0.49032 0.11287 0.0
H1581 H 0.17133 0.40983 0.11705 0.0
H1582 H 0.27633 0.50556 0.20585 0.0
H1583 H 0.2914 0.47948 0.19737 0.0
H1584 H 0.29799 0.50961 0.1643 0.0
H1585 H 0.14832 0.38256 0.1714 0.0
H1586 H 0.17654 0.38171 0.20259 0.0
H1587 H 0.16125 0.40755 0.21141 0.0
H1588 H 0.25336 0.40665 0.28842 0.0
H1589 H 0.21756 0.46988 0.30797 0.0
H1590 H 0.26862 0.42159 0.19552 0.0
H1591 H 0.22942 0.38841 0.19768 0.0
H1592 H 0.25905 0.39128 0.22945 0.0
H1593 H 0.22419 0.49836 0.21999 0.0
H1594 H 0.2008 0.4905 0.26093 0.0
H1595 H 0.18508 0.46497 0.22159 0.0
C1596 C 0.75747 0.53532 0.36913 0.0
C1597 C 0.7543 0.55902 0.38705 0.0
C1598 C 0.76407 0.5373 0.33156 0.0
C1599 C 0.76747 0.56356 0.31135 0.0
C1600 C 0.76391 0.58737 0.32912 0.0
C1601 C 0.7574 0.58484 0.3668 0.0
C1602 C 0.76769 0.51143 0.31355 0.0
C1603 C 0.76722 0.61563 0.30838 0.0
C1604 C 0.81258 0.58244 0.22147 0.0
C1605 C 0.78782 0.56862 0.19599 0.0
C1606 C 0.80632 0.58125 0.25914 0.0
C1607 C 0.77455 0.56591 0.27152 0.0
C1608 C 0.74949 0.55217 0.2459 0.0
C1609 C 0.75643 0.55366 0.20846 0.0
C1610 C 0.83367 0.59612 0.2857 0.0
C1611 C 0.71532 0.53564 0.25805 0.0
H1612 H 0.7552 0.51532 0.38455 0.0
H1613 H 0.75503 0.60327 0.38043 0.0
H1614 H 0.75029 0.50057 0.29099 0.0
H1615 H 0.79163 0.52155 0.30129 0.0
H1616 H 0.76423 0.49254 0.33312 0.0
H1617 H 0.76344 0.63192 0.32615 0.0
H1618 H 0.79118 0.62897 0.29608 0.0
H1619 H 0.7499 0.60767 0.28558 0.0
H1620 H 0.8369 0.59406 0.21204 0.0
H1621 H 0.73714 0.54297 0.18896 0.0
H1622 H 0.83267 0.57782 0.30455 0.0
H1623 H 0.83195 0.61403 0.30271 0.0
H1624 H 0.85697 0.60769 0.2716 0.0
H1625 H 0.71038 0.51532 0.27596 0.0
H1626 H 0.6986 0.5268 0.23459 0.0
H1627 H 0.71064 0.55203 0.27438 0.0
C1628 C 0.48782 0.23381 0.36851 0.0
C1629 C 0.46446 0.20616 0.3855 0.0
C1630 C 0.48651 0.23885 0.33094 0.0
C1631 C 0.46127 0.21564 0.30982 0.0
C1632 C 0.43775 0.18754 0.32668 0.0
C1633 C 0.43961 0.18314 0.36438 0.0
C1634 C 0.51204 0.26911 0.31389 0.0
C1635 C 0.41056 0.16223 0.30493 0.0
C1636 C 0.44294 0.24154 0.2195 0.0
C1637 C 0.45813 0.23177 0.19446 0.0
C1638 C 0.44355 0.23622 0.25716 0.0
C1639 C 0.45969 0.22074 0.26999 0.0
C1640 C 0.47494 0.2107 0.24483 0.0
C1641 C 0.47399 0.21636 0.20737 0.0
C1642 C 0.42709 0.24733 0.28325 0.0
C1643 C 0.49241 0.19414 0.25751 0.0
H1644 H 0.50709 0.25177 0.38462 0.0
H1645 H 0.42145 0.16174 0.37732 0.0
H1646 H 0.52411 0.26361 0.29176 0.0
H1647 H 0.50133 0.28224 0.30125 0.0
H1648 H 0.53007 0.28479 0.33415 0.0
H1649 H 0.3943 0.14168 0.32212 0.0
H1650 H 0.39681 0.17218 0.29209 0.0
H1651 H 0.41974 0.15374 0.28248 0.0
H1652 H 0.43063 0.25344 0.2097 0.0
H1653 H 0.48575 0.20869 0.18819 0.0
H1654 H 0.44449 0.26464 0.30286 0.0
H1655 H 0.40914 0.22707 0.29948 0.0
H1656 H 0.41521 0.2586 0.26882 0.0
H1657 H 0.51193 0.2098 0.27622 0.0
H1658 H 0.50254 0.18734 0.23436 0.0
H1659 H 0.4762 0.17253 0.27314 0.0
C1660 C 0.84153 0.26114 0.36479 0.0
C1661 C 0.81951 0.26473 0.38589 0.0
C1662 C 0.83743 0.25607 0.32689 0.0
C1663 C 0.81062 0.25444 0.30979 0.0
C1664 C 0.78872 0.25881 0.33078 0.0
C1665 C 0.79347 0.26399 0.36857 0.0
C1666 C 0.8614 0.25175 0.30528 0.0
C1667 C 0.75984 0.25724 0.31347 0.0
C1668 C 0.81105 0.26563 0.20703 0.0
C1669 C 0.79343 0.23428 0.19471 0.0
C1670 C 0.81706 0.27254 0.2444 0.0
C1671 C 0.80505 0.24749 0.27006 0.0
C1672 C 0.78732 0.21578 0.25783 0.0
C1673 C 0.78175 0.20955 0.22025 0.0
C1674 C 0.83614 0.30663 0.25645 0.0
C1675 C 0.77405 0.18845 0.28445 0.0
H1676 H 0.86174 0.26174 0.37795 0.0
H1677 H 0.77632 0.26671 0.38467 0.0
H1678 H 0.84989 0.22768 0.29321 0.0
H1679 H 0.87069 0.26887 0.28229 0.0
H1680 H 0.88163 0.25499 0.32242 0.0
H1681 H 0.74561 0.26209 0.33343 0.0
H1682 H 0.767 0.2746 0.29079 0.0
H1683 H 0.7446 0.23342 0.30152 0.0
H1684 H 0.82022 0.28488 0.18745 0.0
H1685 H 0.76812 0.18527 0.21092 0.0
H1686 H 0.85718 0.31035 0.27218 0.0
H1687 H 0.82174 0.3125 0.2749 0.0
H1688 H 0.84423 0.32332 0.23296 0.0
H1689 H 0.79347 0.18903 0.30086 0.0
H1690 H 0.76103 0.16517 0.27046 0.0
H1691 H 0.75771 0.19057 0.30385 0.0
loop_
_geom_bond_atom_site_label_1
_geom_bond_atom_site_label_2
_geom_bond_distance
_geom_bond_site_symmetry_2
_ccdc_geom_bond_type
O0 Tb1 2.292 1_556 S
O0 C3 1.255 . S
Tb1 O0 2.292 1_554 S
Tb1 O17 2.326 . S
Tb1 O19 2.500 . S
Tb1 O20 2.473 . S
Tb1 O23 2.324 . S
Eu2 O6 2.292 . S
Eu2 C7 2.852 . S
Eu2 O18 2.324 . S
Eu2 O22 2.326 . S
Eu2 O24 2.500 . S
Eu2 O25 2.473 . S
C3 O0 1.255 . S
C3 O4 1.247 . S
O4 C3 1.247 . S
C5 O17 1.242 . S
C5 O18 1.258 . S
O6 Eu2 2.292 . S
O6 C8 1.255 . S
C7 Eu2 2.852 . S
C7 C11 1.503 . S
C7 O24 1.273 . S
C7 O25 1.257 . S
C8 O6 1.255 . S
C8 O9 1.247 . S
O9 C8 1.247 . S
C10 O22 1.242 . S
C10 O23 1.258 . S
C11 C7 1.503 . S
C11 C12 1.379 . S
C11 C16 1.392 . S
C12 C11 1.379 . S
C12 C13 1.404 . S
C12 H26 0.929 . S
C13 C12 1.404 . S
C13 C14 1.389 . S
C14 C13 1.389 . S
C14 C15 1.399 . S
C14 H27 0.931 . S
C15 C14 1.399 . S
C15 C16 1.390 . S
C16 C11 1.392 . S
C16 C15 1.390 . S
C16 H28 0.929 . S
O17 Tb1 2.326 . S
O17 C5 1.242 . S
O18 Eu2 2.324 . S
O18 C5 1.258 . S
O19 Tb1 2.500 . S
O19 C21 1.273 . S
O20 Tb1 2.473 . S
O20 C21 1.257 . S
C21 O19 1.273 . S
C21 O20 1.257 . S
O22 Eu2 2.326 . S
O22 C10 1.242 . S
O23 Tb1 2.324 . S
O23 C10 1.258 . S
O24 Eu2 2.500 . S
O24 C7 1.273 . S
O25 Eu2 2.473 . S
O25 C7 1.257 . S
H26 C12 0.929 . S
H27 C14 0.931 . S
H28 C16 0.929 . S
O29 Tb30 2.292 1_556 S
O29 C32 1.255 . S
Tb30 O29 2.292 1_554 S
Tb30 O46 2.326 . S
Tb30 O48 2.500 . S
Tb30 O49 2.473 . S
Tb30 O52 2.324 . S
Eu31 O35 2.292 . S
Eu31 C36 2.852 . S
Eu31 O47 2.324 . S
Eu31 O51 2.326 . S
Eu31 O53 2.500 . S
Eu31 O54 2.473 . S
C32 O29 1.255 . S
C32 O33 1.247 . S
O33 C32 1.247 . S
C34 O46 1.242 . S
C34 O47 1.258 . S
O35 Eu31 2.292 . S
O35 C37 1.255 . S
C36 Eu31 2.852 . S
C36 C40 1.503 . S
C36 O53 1.273 . S
C36 O54 1.257 . S
C37 O35 1.255 . S
C37 O38 1.247 . S
O38 C37 1.247 . S
C39 O51 1.242 . S
C39 O52 1.258 . S
C40 C36 1.503 . S
C40 C41 1.379 . S
C40 C45 1.392 . S
C41 C40 1.379 . S
C41 C42 1.404 . S
C41 H55 0.929 . S
C42 C41 1.404 . S
C42 C43 1.389 . S
C43 C42 1.389 . S
C43 C44 1.399 . S
C43 H56 0.931 . S
C44 C43 1.399 . S
C44 C45 1.390 . S
C45 C40 1.392 . S
C45 C44 1.390 . S
C45 H57 0.929 . S
O46 Tb30 2.326 . S
O46 C34 1.242 . S
O47 Eu31 2.324 . S
O47 C34 1.258 . S
O48 Tb30 2.500 . S
O48 C50 1.273 . S
O49 Tb30 2.473 . S
O49 C50 1.257 . S
C50 O48 1.273 . S
C50 O49 1.257 . S
O51 Eu31 2.326 . S
O51 C39 1.242 . S
O52 Tb30 2.324 . S
O52 C39 1.258 . S
O53 Eu31 2.500 . S
O53 C36 1.273 . S
O54 Eu31 2.473 . S
O54 C36 1.257 . S
H55 C41 0.929 . S
H56 C43 0.931 . S
H57 C45 0.929 . S
O58 Tb59 2.292 1_556 S
O58 C61 1.255 . S
Tb59 O58 2.292 1_554 S
Tb59 O75 2.326 . S
Tb59 O77 2.500 . S
Tb59 O78 2.473 . S
Tb59 O81 2.324 . S
Eu60 O64 2.292 . S
Eu60 C65 2.852 . S
Eu60 O76 2.324 . S
Eu60 O80 2.326 . S
Eu60 O82 2.500 . S
Eu60 O83 2.473 . S
C61 O58 1.255 . S
C61 O62 1.247 . S
O62 C61 1.247 . S
C63 O75 1.242 . S
C63 O76 1.258 . S
O64 Eu60 2.292 . S
O64 C66 1.255 . S
C65 Eu60 2.852 . S
C65 C69 1.503 . S
C65 O82 1.273 . S
C65 O83 1.257 . S
C66 O64 1.255 . S
C66 O67 1.247 . S
O67 C66 1.247 . S
C68 O80 1.242 . S
C68 O81 1.258 . S
C69 C65 1.503 . S
C69 C70 1.379 . S
C69 C74 1.392 . S
C70 C69 1.379 . S
C70 C71 1.404 . S
C70 H84 0.929 . S
C71 C70 1.404 . S
C71 C72 1.389 . S
C72 C71 1.389 . S
C72 C73 1.399 . S
C72 H85 0.931 . S
C73 C72 1.399 . S
C73 C74 1.390 . S
C74 C69 1.392 . S
C74 C73 1.390 . S
C74 H86 0.929 . S
O75 Tb59 2.326 . S
O75 C63 1.242 . S
O76 Eu60 2.324 . S
O76 C63 1.258 . S
O77 Tb59 2.500 . S
O77 C79 1.273 . S
O78 Tb59 2.473 . S
O78 C79 1.257 . S
C79 O77 1.273 . S
C79 O78 1.257 . S
O80 Eu60 2.326 . S
O80 C68 1.242 . S
O81 Tb59 2.324 . S
O81 C68 1.258 . S
O82 Eu60 2.500 . S
O82 C65 1.273 . S
O83 Eu60 2.473 . S
O83 C65 1.257 . S
H84 C70 0.929 . S
H85 C72 0.931 . S
H86 C74 0.929 . S
O87 Tb88 2.292 . S
O87 C90 1.255 . S
Tb88 O87 2.292 . S
Tb88 O104 2.326 . S
Tb88 O106 2.500 . S
Tb88 O107 2.473 . S
Tb88 O110 2.324 . S
Eu89 O93 2.292 . S
Eu89 C94 2.852 . S
Eu89 O105 2.324 . S
Eu89 O109 2.326 . S
Eu89 O111 2.500 . S
Eu89 O112 2.473 . S
C90 O87 1.255 . S
C90 O91 1.247 . S
O91 C90 1.247 . S
C92 O104 1.242 . S
C92 O105 1.258 . S
O93 Eu89 2.292 . S
O93 C95 1.255 . S
C94 Eu89 2.852 . S
C94 C98 1.503 . S
C94 O111 1.273 . S
C94 O112 1.257 . S
C95 O93 1.255 . S
C95 O96 1.247 . S
O96 C95 1.247 . S
C97 O109 1.242 . S
C97 O110 1.258 . S
C98 C94 1.503 . S
C98 C99 1.379 . S
C98 C103 1.392 . S
C99 C98 1.379 . S
C99 C100 1.404 . S
C99 H113 0.929 . S
C100 C99 1.404 . S
C100 C101 1.389 . S
C101 C100 1.389 . S
C101 C102 1.399 . S
C101 H114 0.931 . S
C102 C101 1.399 . S
C102 C103 1.390 . S
C103 C98 1.392 . S
C103 C102 1.390 . S
C103 H115 0.929 . S
O104 Tb88 2.326 . S
O104 C92 1.242 . S
O105 Eu89 2.324 . S
O105 C92 1.258 . S
O106 Tb88 2.500 . S
O106 C108 1.273 . S
O107 Tb88 2.473 . S
O107 C108 1.257 . S
C108 O106 1.273 . S
C108 O107 1.257 . S
O109 Eu89 2.326 . S
O109 C97 1.242 . S
O110 Tb88 2.324 . S
O110 C97 1.258 . S
O111 Eu89 2.500 . S
O111 C94 1.273 . S
O112 Eu89 2.473 . S
O112 C94 1.257 . S
H113 C99 0.929 . S
H114 C101 0.931 . S
H115 C103 0.929 . S
O116 Tb117 2.292 . S
O116 C119 1.255 . S
Tb117 O116 2.292 . S
Tb117 O133 2.326 . S
Tb117 O135 2.500 . S
Tb117 O136 2.473 . S
Tb117 O139 2.324 . S
Eu118 O122 2.292 . S
Eu118 C123 2.852 . S
Eu118 O134 2.324 . S
Eu118 O138 2.326 . S
Eu118 O140 2.500 . S
Eu118 O141 2.473 . S
C119 O116 1.255 . S
C119 O120 1.247 . S
O120 C119 1.247 . S
C121 O133 1.242 . S
C121 O134 1.258 . S
O122 Eu118 2.292 . S
O122 C124 1.255 . S
C123 Eu118 2.852 . S
C123 C127 1.503 . S
C123 O140 1.273 . S
C123 O141 1.257 . S
C124 O122 1.255 . S
C124 O125 1.247 . S
O125 C124 1.247 . S
C126 O138 1.242 . S
C126 O139 1.258 . S
C127 C123 1.503 . S
C127 C128 1.379 . S
C127 C132 1.392 . S
C128 C127 1.379 . S
C128 C129 1.404 . S
C128 H142 0.929 . S
C129 C128 1.404 . S
C129 C130 1.389 . S
C130 C129 1.389 . S
C130 C131 1.399 . S
C130 H143 0.931 . S
C131 C130 1.399 . S
C131 C132 1.390 . S
C132 C127 1.392 . S
C132 C131 1.390 . S
C132 H144 0.929 . S
O133 Tb117 2.326 . S
O133 C121 1.242 . S
O134 Eu118 2.324 . S
O134 C121 1.258 . S
O135 Tb117 2.500 . S
O135 C137 1.273 . S
O136 Tb117 2.473 . S
O136 C137 1.257 . S
C137 O135 1.273 . S
C137 O136 1.257 . S
O138 Eu118 2.326 . S
O138 C126 1.242 . S
O139 Tb117 2.324 . S
O139 C126 1.258 . S
O140 Eu118 2.500 . S
O140 C123 1.273 . S
O141 Eu118 2.473 . S
O141 C123 1.257 . S
H142 C128 0.929 . S
H143 C130 0.931 . S
H144 C132 0.929 . S
O145 Tb146 2.292 . S
O145 C148 1.255 . S
Tb146 O145 2.292 . S
Tb146 O162 2.326 . S
Tb146 O164 2.500 . S
Tb146 O165 2.473 . S
Tb146 O168 2.324 . S
Eu147 O151 2.292 . S
Eu147 C152 2.852 . S
Eu147 O163 2.324 . S
Eu147 O167 2.326 . S
Eu147 O169 2.500 . S
Eu147 O170 2.473 . S
C148 O145 1.255 . S
C148 O149 1.247 . S
O149 C148 1.247 . S
C150 O162 1.242 . S
C150 O163 1.258 . S
O151 Eu147 2.292 . S
O151 C153 1.255 . S
C152 Eu147 2.852 . S
C152 C156 1.503 . S
C152 O169 1.273 . S
C152 O170 1.257 . S
C153 O151 1.255 . S
C153 O154 1.247 . S
O154 C153 1.247 . S
C155 O167 1.242 . S
C155 O168 1.258 . S
C156 C152 1.503 . S
C156 C157 1.379 . S
C156 C161 1.392 . S
C157 C156 1.379 . S
C157 C158 1.404 . S
C157 H171 0.929 . S
C158 C157 1.404 . S
C158 C159 1.389 . S
C159 C158 1.389 . S
C159 C160 1.399 . S
C159 H172 0.931 . S
C160 C159 1.399 . S
C160 C161 1.390 . S
C161 C156 1.392 . S
C161 C160 1.390 . S
C161 H173 0.929 . S
O162 Tb146 2.326 . S
O162 C150 1.242 . S
O163 Eu147 2.324 . S
O163 C150 1.258 . S
O164 Tb146 2.500 . S
O164 C166 1.273 . S
O165 Tb146 2.473 . S
O165 C166 1.257 . S
C166 O164 1.273 . S
C166 O165 1.257 . S
O167 Eu147 2.326 . S
O167 C155 1.242 . S
O168 Tb146 2.324 . S
O168 C155 1.258 . S
O169 Eu147 2.500 . S
O169 C152 1.273 . S
O170 Eu147 2.473 . S
O170 C152 1.257 . S
H171 C157 0.929 . S
H172 C159 0.931 . S
H173 C161 0.929 . S
O174 Tb175 2.292 1_554 S
O174 C177 1.255 . S
Tb175 O174 2.292 1_556 S
Tb175 O191 2.326 . S
Tb175 O193 2.500 . S
Tb175 O194 2.473 . S
Tb175 O197 2.324 . S
Eu176 O180 2.292 . S
Eu176 C181 2.852 . S
Eu176 O192 2.324 . S
Eu176 O196 2.326 . S
Eu176 O198 2.500 . S
Eu176 O199 2.473 . S
C177 O174 1.255 . S
C177 O178 1.247 . S
O178 C177 1.247 . S
C179 O191 1.242 . S
C179 O192 1.258 . S
O180 Eu176 2.292 . S
O180 C182 1.255 . S
C181 Eu176 2.852 . S
C181 C185 1.503 . S
C181 O198 1.273 . S
C181 O199 1.257 . S
C182 O180 1.255 . S
C182 O183 1.247 . S
O183 C182 1.247 . S
C184 O196 1.242 . S
C184 O197 1.258 . S
C185 C181 1.503 . S
C185 C186 1.379 . S
C185 C190 1.392 . S
C186 C185 1.379 . S
C186 C187 1.404 . S
C186 H200 0.929 . S
C187 C186 1.404 . S
C187 C188 1.389 . S
C188 C187 1.389 . S
C188 C189 1.399 . S
C188 H201 0.931 . S
C189 C188 1.399 . S
C189 C190 1.390 . S
C190 C185 1.392 . S
C190 C189 1.390 . S
C190 H202 0.929 . S
O191 Tb175 2.326 . S
O191 C179 1.242 . S
O192 Eu176 2.324 . S
O192 C179 1.258 . S
O193 Tb175 2.500 . S
O193 C195 1.273 . S
O194 Tb175 2.473 . S
O194 C195 1.257 . S
C195 O193 1.273 . S
C195 O194 1.257 . S
O196 Eu176 2.326 . S
O196 C184 1.242 . S
O197 Tb175 2.324 . S
O197 C184 1.258 . S
O198 Eu176 2.500 . S
O198 C181 1.273 . S
O199 Eu176 2.473 . S
O199 C181 1.257 . S
H200 C186 0.929 . S
H201 C188 0.931 . S
H202 C190 0.929 . S
O203 Tb204 2.292 1_554 S
O203 C206 1.255 . S
Tb204 O203 2.292 1_556 S
Tb204 O220 2.326 . S
Tb204 O222 2.500 . S
Tb204 O223 2.473 . S
Tb204 O226 2.324 . S
Eu205 O209 2.292 . S
Eu205 C210 2.852 . S
Eu205 O221 2.324 . S
Eu205 O225 2.326 . S
Eu205 O227 2.500 . S
Eu205 O228 2.473 . S
C206 O203 1.255 . S
C206 O207 1.247 . S
O207 C206 1.247 . S
C208 O220 1.242 . S
C208 O221 1.258 . S
O209 Eu205 2.292 . S
O209 C211 1.255 . S
C210 Eu205 2.852 . S
C210 C214 1.503 . S
C210 O227 1.273 . S
C210 O228 1.257 . S
C211 O209 1.255 . S
C211 O212 1.247 . S
O212 C211 1.247 . S
C213 O225 1.242 . S
C213 O226 1.258 . S
C214 C210 1.503 . S
C214 C215 1.379 . S
C214 C219 1.392 . S
C215 C214 1.379 . S
C215 C216 1.404 . S
C215 H229 0.929 . S
C216 C215 1.404 . S
C216 C217 1.389 . S
C217 C216 1.389 . S
C217 C218 1.399 . S
C217 H230 0.931 . S
C218 C217 1.399 . S
C218 C219 1.390 . S
C219 C214 1.392 . S
C219 C218 1.390 . S
C219 H231 0.929 . S
O220 Tb204 2.326 . S
O220 C208 1.242 . S
O221 Eu205 2.324 . S
O221 C208 1.258 . S
O222 Tb204 2.500 . S
O222 C224 1.273 . S
O223 Tb204 2.473 . S
O223 C224 1.257 . S
C224 O222 1.273 . S
C224 O223 1.257 . S
O225 Eu205 2.326 . S
O225 C213 1.242 . S
O226 Tb204 2.324 . S
O226 C213 1.258 . S
O227 Eu205 2.500 . S
O227 C210 1.273 . S
O228 Eu205 2.473 . S
O228 C210 1.257 . S
H229 C215 0.929 . S
H230 C217 0.931 . S
H231 C219 0.929 . S
O232 Tb233 2.292 1_554 S
O232 C235 1.255 . S
Tb233 O232 2.292 1_556 S
Tb233 O249 2.326 . S
Tb233 O251 2.500 . S
Tb233 O252 2.473 . S
Tb233 O255 2.324 . S
Eu234 O238 2.292 . S
Eu234 C239 2.852 . S
Eu234 O250 2.324 . S
Eu234 O254 2.326 . S
Eu234 O256 2.500 . S
Eu234 O257 2.473 . S
C235 O232 1.255 . S
C235 O236 1.247 . S
O236 C235 1.247 . S
C237 O249 1.242 . S
C237 O250 1.258 . S
O238 Eu234 2.292 . S
O238 C240 1.255 . S
C239 Eu234 2.852 . S
C239 C243 1.503 . S
C239 O256 1.273 . S
C239 O257 1.257 . S
C240 O238 1.255 . S
C240 O241 1.247 . S
O241 C240 1.247 . S
C242 O254 1.242 . S
C242 O255 1.258 . S
C243 C239 1.503 . S
C243 C244 1.379 . S
C243 C248 1.392 . S
C244 C243 1.379 . S
C244 C245 1.404 . S
C244 H258 0.929 . S
C245 C244 1.404 . S
C245 C246 1.389 . S
C246 C245 1.389 . S
C246 C247 1.399 . S
C246 H259 0.931 . S
C247 C246 1.399 . S
C247 C248 1.390 . S
C248 C243 1.392 . S
C248 C247 1.390 . S
C248 H260 0.929 . S
O249 Tb233 2.326 . S
O249 C237 1.242 . S
O250 Eu234 2.324 . S
O250 C237 1.258 . S
O251 Tb233 2.500 . S
O251 C253 1.273 . S
O252 Tb233 2.473 . S
O252 C253 1.257 . S
C253 O251 1.273 . S
C253 O252 1.257 . S
O254 Eu234 2.326 . S
O254 C242 1.242 . S
O255 Tb233 2.324 . S
O255 C242 1.258 . S
O256 Eu234 2.500 . S
O256 C239 1.273 . S
O257 Eu234 2.473 . S
O257 C239 1.257 . S
H258 C244 0.929 . S
H259 C246 0.931 . S
H260 C248 0.929 . S
O261 Tb262 2.292 . S
O261 C264 1.255 . S
Tb262 O261 2.292 . S
Tb262 O278 2.326 . S
Tb262 O280 2.500 . S
Tb262 O281 2.473 . S
Tb262 O284 2.324 . S
Eu263 O267 2.292 . S
Eu263 C268 2.852 . S
Eu263 O279 2.324 . S
Eu263 O283 2.326 . S
Eu263 O285 2.500 . S
Eu263 O286 2.473 . S
C264 O261 1.255 . S
C264 O265 1.247 . S
O265 C264 1.247 . S
C266 O278 1.242 . S
C266 O279 1.258 . S
O267 Eu263 2.292 . S
O267 C269 1.255 . S
C268 Eu263 2.852 . S
C268 C272 1.503 . S
C268 O285 1.273 . S
C268 O286 1.257 . S
C269 O267 1.255 . S
C269 O270 1.247 . S
O270 C269 1.247 . S
C271 O283 1.242 . S
C271 O284 1.258 . S
C272 C268 1.503 . S
C272 C273 1.379 . S
C272 C277 1.392 . S
C273 C272 1.379 . S
C273 C274 1.404 . S
C273 H287 0.929 . S
C274 C273 1.404 . S
C274 C275 1.389 . S
C275 C274 1.389 . S
C275 C276 1.399 . S
C275 H288 0.931 . S
C276 C275 1.399 . S
C276 C277 1.390 . S
C277 C272 1.392 . S
C277 C276 1.390 . S
C277 H289 0.929 . S
O278 Tb262 2.326 . S
O278 C266 1.242 . S
O279 Eu263 2.324 . S
O279 C266 1.258 . S
O280 Tb262 2.500 . S
O280 C282 1.273 . S
O281 Tb262 2.473 . S
O281 C282 1.257 . S
C282 O280 1.273 . S
C282 O281 1.257 . S
O283 Eu263 2.326 . S
O283 C271 1.242 . S
O284 Tb262 2.324 . S
O284 C271 1.258 . S
O285 Eu263 2.500 . S
O285 C268 1.273 . S
O286 Eu263 2.473 . S
O286 C268 1.257 . S
H287 C273 0.929 . S
H288 C275 0.931 . S
H289 C277 0.929 . S
O290 Tb291 2.292 . S
O290 C293 1.255 . S
Tb291 O290 2.292 . S
Tb291 O307 2.326 . S
Tb291 O309 2.500 . S
Tb291 O310 2.473 . S
Tb291 O313 2.324 . S
Eu292 O296 2.292 . S
Eu292 C297 2.852 . S
Eu292 O308 2.324 . S
Eu292 O312 2.326 . S
Eu292 O314 2.500 . S
Eu292 O315 2.473 . S
C293 O290 1.255 . S
C293 O294 1.247 . S
O294 C293 1.247 . S
C295 O307 1.242 . S
C295 O308 1.258 . S
O296 Eu292 2.292 . S
O296 C298 1.255 . S
C297 Eu292 2.852 . S
C297 C301 1.503 . S
C297 O314 1.273 . S
C297 O315 1.257 . S
C298 O296 1.255 . S
C298 O299 1.247 . S
O299 C298 1.247 . S
C300 O312 1.242 . S
C300 O313 1.258 . S
C301 C297 1.503 . S
C301 C302 1.379 . S
C301 C306 1.392 . S
C302 C301 1.379 . S
C302 C303 1.404 . S
C302 H316 0.929 . S
C303 C302 1.404 . S
C303 C304 1.389 . S
C304 C303 1.389 . S
C304 C305 1.399 . S
C304 H317 0.931 . S
C305 C304 1.399 . S
C305 C306 1.390 . S
C306 C301 1.392 . S
C306 C305 1.390 . S
C306 H318 0.929 . S
O307 Tb291 2.326 . S
O307 C295 1.242 . S
O308 Eu292 2.324 . S
O308 C295 1.258 . S
O309 Tb291 2.500 . S
O309 C311 1.273 . S
O310 Tb291 2.473 . S
O310 C311 1.257 . S
C311 O309 1.273 . S
C311 O310 1.257 . S
O312 Eu292 2.326 . S
O312 C300 1.242 . S
O313 Tb291 2.324 . S
O313 C300 1.258 . S
O314 Eu292 2.500 . S
O314 C297 1.273 . S
O315 Eu292 2.473 . S
O315 C297 1.257 . S
H316 C302 0.929 . S
H317 C304 0.931 . S
H318 C306 0.929 . S
O319 Tb320 2.292 . S
O319 C322 1.255 . S
Tb320 O319 2.292 . S
Tb320 O336 2.326 . S
Tb320 O338 2.500 . S
Tb320 O339 2.473 . S
Tb320 O342 2.324 . S
Eu321 O325 2.292 . S
Eu321 C326 2.852 . S
Eu321 O337 2.324 . S
Eu321 O341 2.326 . S
Eu321 O343 2.500 . S
Eu321 O344 2.473 . S
C322 O319 1.255 . S
C322 O323 1.247 . S
O323 C322 1.247 . S
C324 O336 1.242 . S
C324 O337 1.258 . S
O325 Eu321 2.292 . S
O325 C327 1.255 . S
C326 Eu321 2.852 . S
C326 C330 1.503 . S
C326 O343 1.273 . S
C326 O344 1.257 . S
C327 O325 1.255 . S
C327 O328 1.247 . S
O328 C327 1.247 . S
C329 O341 1.242 . S
C329 O342 1.258 . S
C330 C326 1.503 . S
C330 C331 1.379 . S
C330 C335 1.392 . S
C331 C330 1.379 . S
C331 C332 1.404 . S
C331 H345 0.929 . S
C332 C331 1.404 . S
C332 C333 1.389 . S
C333 C332 1.389 . S
C333 C334 1.399 . S
C333 H346 0.931 . S
C334 C333 1.399 . S
C334 C335 1.390 . S
C335 C330 1.392 . S
C335 C334 1.390 . S
C335 H347 0.929 . S
O336 Tb320 2.326 . S
O336 C324 1.242 . S
O337 Eu321 2.324 . S
O337 C324 1.258 . S
O338 Tb320 2.500 . S
O338 C340 1.273 . S
O339 Tb320 2.473 . S
O339 C340 1.257 . S
C340 O338 1.273 . S
C340 O339 1.257 . S
O341 Eu321 2.326 . S
O341 C329 1.242 . S
O342 Tb320 2.324 . S
O342 C329 1.258 . S
O343 Eu321 2.500 . S
O343 C326 1.273 . S
O344 Eu321 2.473 . S
O344 C326 1.257 . S
H345 C331 0.929 . S
H346 C333 0.931 . S
H347 C335 0.929 . S
C348 C349 1.391 1_545 S
C348 C350 1.394 . S
C348 H364 0.930 1_545 S
C349 C348 1.391 1_565 S
C349 C353 1.376 1_556 S
C350 C348 1.394 . S
C350 C351 1.369 . S
C350 C354 1.531 . S
C351 C350 1.369 . S
C351 C352 1.410 1_556 S
C351 C359 1.503 1_556 S
C352 C351 1.410 1_554 S
C352 C353 1.392 1_545 S
C352 C355 1.511 . S
C353 C349 1.376 1_554 S
C353 C352 1.392 1_565 S
C353 H365 0.929 . S
C354 C350 1.531 . S
C354 H366 0.960 . S
C354 H367 0.962 . S
C354 H368 0.960 . S
C355 C352 1.511 . S
C355 H369 0.961 . S
C355 H370 0.961 . S
C355 H371 0.961 . S
C356 C357 1.370 . S
C356 C358 1.363 . S
C356 H372 0.931 . S
C357 C356 1.370 . S
C357 C361 1.408 . S
C358 C356 1.363 . S
C358 C359 1.370 . S
C358 C362 1.524 1_554 S
C359 C351 1.503 1_554 S
C359 C358 1.370 . S
C359 C360 1.403 . S
C360 C359 1.403 . S
C360 C361 1.404 . S
C360 C363 1.539 . S
C361 C357 1.408 . S
C361 C360 1.404 . S
C361 H373 0.930 . S
C362 C358 1.524 1_556 S
C362 H374 0.956 . S
C362 H375 0.961 . S
C362 H376 0.961 . S
C363 C360 1.539 . S
C363 H377 0.958 . S
C363 H378 0.961 . S
C363 H379 0.960 . S
H364 C348 0.930 1_565 S
H365 C353 0.929 . S
H366 C354 0.960 . S
H367 C354 0.962 . S
H368 C354 0.960 . S
H369 C355 0.961 . S
H370 C355 0.961 . S
H371 C355 0.961 . S
H372 C356 0.931 . S
H373 C361 0.930 . S
H374 C362 0.956 . S
H375 C362 0.961 . S
H376 C362 0.961 . S
H377 C363 0.958 . S
H378 C363 0.961 . S
H379 C363 0.960 . S
C380 C381 1.391 . S
C380 C382 1.394 . S
C380 H396 0.931 . S
C381 C380 1.391 . S
C381 C385 1.376 . S
C382 C380 1.394 . S
C382 C383 1.369 . S
C382 C386 1.531 1_554 S
C383 C382 1.369 . S
C383 C384 1.410 . S
C383 C391 1.503 1_554 S
C384 C383 1.410 . S
C384 C385 1.392 . S
C384 C387 1.511 . S
C385 C381 1.376 . S
C385 C384 1.392 . S
C385 H397 0.929 . S
C386 C382 1.531 1_556 S
C386 H398 0.960 . S
C386 H399 0.962 . S
C386 H400 0.957 1_556 S
C387 C384 1.511 . S
C387 H401 0.961 . S
C387 H402 0.961 . S
C387 H403 0.961 . S
C388 C389 1.370 1_655 S
C388 C390 1.363 . S
C388 H404 0.931 . S
C389 C388 1.370 1_455 S
C389 C393 1.408 1_556 S
C390 C388 1.363 . S
C390 C391 1.370 . S
C390 C394 1.524 . S
C391 C383 1.503 1_556 S
C391 C390 1.370 . S
C391 C392 1.403 1_556 S
C392 C391 1.403 1_554 S
C392 C393 1.404 1_655 S
C392 C395 1.539 . S
C393 C389 1.408 1_554 S
C393 C392 1.404 1_455 S
C393 H405 0.930 . S
C394 C390 1.524 . S
C394 H406 0.956 . S
C394 H407 0.961 . S
C394 H408 0.961 . S
C395 C392 1.539 . S
C395 H409 0.958 . S
C395 H410 0.961 . S
C395 H411 0.960 . S
H396 C380 0.931 . S
H397 C385 0.929 . S
H398 C386 0.960 . S
H399 C386 0.962 . S
H400 C386 0.957 1_554 S
H401 C387 0.961 . S
H402 C387 0.961 . S
H403 C387 0.961 . S
H404 C388 0.931 . S
H405 C393 0.930 . S
H406 C394 0.956 . S
H407 C394 0.961 . S
H408 C394 0.961 . S
H409 C395 0.958 . S
H410 C395 0.961 . S
H411 C395 0.960 . S
C412 C413 1.391 . S
C412 C414 1.394 . S
C412 H428 0.931 . S
C413 C412 1.391 . S
C413 C417 1.376 . S
C414 C412 1.394 . S
C414 C415 1.369 . S
C414 C418 1.531 . S
C415 C414 1.369 . S
C415 C416 1.410 . S
C415 C423 1.503 1_554 S
C416 C415 1.410 . S
C416 C417 1.392 . S
C416 C419 1.511 . S
C417 C413 1.376 . S
C417 C416 1.392 . S
C417 H429 0.929 . S
C418 C414 1.531 . S
C418 H430 0.960 . S
C418 H431 0.962 1_554 S
C418 H432 0.960 . S
C419 C416 1.511 . S
C419 H433 0.961 . S
C419 H434 0.961 . S
C419 H435 0.961 . S
C420 C421 1.370 . S
C420 C422 1.363 . S
C420 H436 0.931 . S
C421 C420 1.370 . S
C421 C425 1.408 1_556 S
C422 C420 1.363 . S
C422 C423 1.370 . S
C422 C426 1.524 . S
C423 C415 1.503 1_556 S
C423 C422 1.370 . S
C423 C424 1.403 1_556 S
C424 C423 1.403 1_554 S
C424 C425 1.404 . S
C424 C427 1.539 . S
C425 C421 1.408 1_554 S
C425 C424 1.404 . S
C425 H437 0.930 . S
C426 C422 1.524 . S
C426 H438 0.956 . S
C426 H439 0.961 . S
C426 H440 0.961 . S
C427 C424 1.539 . S
C427 H441 0.958 . S
C427 H442 0.961 . S
C427 H443 0.960 . S
H428 C412 0.931 . S
H429 C417 0.929 . S
H430 C418 0.960 . S
H431 C418 0.962 1_556 S
H432 C418 0.960 . S
H433 C419 0.961 . S
H434 C419 0.961 . S
H435 C419 0.961 . S
H436 C420 0.931 . S
H437 C425 0.930 . S
H438 C426 0.956 . S
H439 C426 0.961 . S
H440 C426 0.961 . S
H441 C427 0.958 . S
H442 C427 0.961 . S
H443 C427 0.960 . S
C444 C445 1.391 . S
C444 C446 1.394 . S
C444 H460 0.931 . S
C445 C444 1.391 . S
C445 C449 1.376 . S
C446 C444 1.394 . S
C446 C447 1.369 . S
C446 C450 1.531 . S
C447 C446 1.369 . S
C447 C448 1.410 . S
C447 C455 1.503 . S
C448 C447 1.410 . S
C448 C449 1.392 . S
C448 C451 1.511 . S
C449 C445 1.376 . S
C449 C448 1.392 . S
C449 H461 0.929 . S
C450 C446 1.531 . S
C450 H462 0.960 . S
C450 H463 0.962 . S
C450 H464 0.960 . S
C451 C448 1.511 . S
C451 H465 0.961 . S
C451 H466 0.961 . S
C451 H467 0.961 . S
C452 C453 1.370 1_455 S
C452 C454 1.363 . S
C452 H468 0.931 . S
C453 C452 1.370 1_655 S
C453 C457 1.408 . S
C454 C452 1.363 . S
C454 C455 1.370 . S
C454 C458 1.524 . S
C455 C447 1.503 . S
C455 C454 1.370 . S
C455 C456 1.403 . S
C456 C455 1.403 . S
C456 C457 1.404 1_455 S
C456 C459 1.539 . S
C457 C453 1.408 . S
C457 C456 1.404 1_655 S
C457 H469 0.930 . S
C458 C454 1.524 . S
C458 H470 0.956 . S
C458 H471 0.961 . S
C458 H472 0.961 . S
C459 C456 1.539 . S
C459 H473 0.958 . S
C459 H474 0.961 . S
C459 H475 0.960 . S
H460 C444 0.931 . S
H461 C449 0.929 . S
H462 C450 0.960 . S
H463 C450 0.962 . S
H464 C450 0.960 . S
H465 C451 0.961 . S
H466 C451 0.961 . S
H467 C451 0.961 . S
H468 C452 0.931 . S
H469 C457 0.930 . S
H470 C458 0.956 . S
H471 C458 0.961 . S
H472 C458 0.961 . S
H473 C459 0.958 . S
H474 C459 0.961 . S
H475 C459 0.960 . S
C476 C477 1.391 . S
C476 C478 1.394 . S
C476 H492 0.931 . S
C477 C476 1.391 . S
C477 C481 1.376 . S
C478 C476 1.394 . S
C478 C479 1.369 . S
C478 C482 1.531 . S
C479 C478 1.369 . S
C479 C480 1.410 . S
C479 C487 1.503 . S
C480 C479 1.410 . S
C480 C481 1.392 . S
C480 C483 1.511 . S
C481 C477 1.376 . S
C481 C480 1.392 . S
C481 H493 0.929 . S
C482 C478 1.531 . S
C482 H494 0.960 . S
C482 H495 0.962 . S
C482 H496 0.960 . S
C483 C480 1.511 . S
C483 H497 0.961 . S
C483 H498 0.961 . S
C483 H499 0.961 . S
C484 C485 1.370 . S
C484 C486 1.363 . S
C484 H500 0.931 . S
C485 C484 1.370 . S
C485 C489 1.408 . S
C486 C484 1.363 . S
C486 C487 1.370 . S
C486 C490 1.524 . S
C487 C479 1.503 . S
C487 C486 1.370 . S
C487 C488 1.403 . S
C488 C487 1.403 . S
C488 C489 1.404 . S
C488 C491 1.539 . S
C489 C485 1.408 . S
C489 C488 1.404 . S
C489 H501 0.930 . S
C490 C486 1.524 . S
C490 H502 0.956 . S
C490 H503 0.961 . S
C490 H504 0.961 . S
C491 C488 1.539 . S
C491 H505 0.958 . S
C491 H506 0.961 . S
C491 H507 0.960 . S
H492 C476 0.931 . S
H493 C481 0.929 . S
H494 C482 0.960 . S
H495 C482 0.962 . S
H496 C482 0.960 . S
H497 C483 0.961 . S
H498 C483 0.961 . S
H499 C483 0.961 . S
H500 C484 0.931 . S
H501 C489 0.930 . S
H502 C490 0.956 . S
H503 C490 0.961 . S
H504 C490 0.961 . S
H505 C491 0.958 . S
H506 C491 0.961 . S
H507 C491 0.960 . S
C508 C509 1.391 . S
C508 C510 1.394 . S
C508 H524 0.931 . S
C509 C508 1.391 . S
C509 C513 1.376 . S
C510 C508 1.394 . S
C510 C511 1.369 . S
C510 C514 1.531 . S
C511 C510 1.369 . S
C511 C512 1.410 . S
C511 C519 1.503 . S
C512 C511 1.410 . S
C512 C513 1.392 . S
C512 C515 1.511 . S
C513 C509 1.376 . S
C513 C512 1.392 . S
C513 H525 0.929 . S
C514 C510 1.531 . S
C514 H526 0.960 . S
C514 H527 0.962 . S
C514 H528 0.960 . S
C515 C512 1.511 . S
C515 H529 0.961 . S
C515 H530 0.961 . S
C515 H531 0.961 . S
C516 C517 1.370 1_565 S
C516 C518 1.363 . S
C516 H532 0.931 . S
C517 C516 1.370 1_545 S
C517 C521 1.408 . S
C518 C516 1.363 . S
C518 C519 1.370 . S
C518 C522 1.524 . S
C519 C511 1.503 . S
C519 C518 1.370 . S
C519 C520 1.403 . S
C520 C519 1.403 . S
C520 C521 1.404 1_565 S
C520 C523 1.539 . S
C521 C517 1.408 . S
C521 C520 1.404 1_545 S
C521 H533 0.930 . S
C522 C518 1.524 . S
C522 H534 0.956 . S
C522 H535 0.961 . S
C522 H536 0.961 . S
C523 C520 1.539 . S
C523 H537 0.958 . S
C523 H538 0.961 . S
C523 H539 0.960 . S
H524 C508 0.931 . S
H525 C513 0.929 . S
H526 C514 0.960 . S
H527 C514 0.962 . S
H528 C514 0.960 . S
H529 C515 0.961 . S
H530 C515 0.961 . S
H531 C515 0.961 . S
H532 C516 0.931 . S
H533 C521 0.930 . S
H534 C522 0.956 . S
H535 C522 0.961 . S
H536 C522 0.961 . S
H537 C523 0.958 . S
H538 C523 0.961 . S
H539 C523 0.960 . S
C540 C541 1.391 . S
C540 C542 1.394 . S
C540 H556 0.931 . S
C541 C540 1.391 . S
C541 C545 1.376 . S
C542 C540 1.394 . S
C542 C543 1.369 . S
C542 C546 1.531 . S
C543 C542 1.369 . S
C543 C544 1.410 . S
C543 C551 1.503 1_556 S
C544 C543 1.410 . S
C544 C545 1.392 . S
C544 C547 1.511 1_556 S
C545 C541 1.376 . S
C545 C544 1.392 . S
C545 H557 0.929 . S
C546 C542 1.531 . S
C546 H558 0.960 . S
C546 H559 0.962 . S
C546 H560 0.960 . S
C547 C544 1.511 1_554 S
C547 H561 0.961 . S
C547 H562 0.961 . S
C547 H563 0.980 . S
C548 C549 1.370 1_565 S
C548 C550 1.363 . S
C548 H564 0.931 . S
C549 C548 1.370 1_545 S
C549 C553 1.408 1_554 S
C550 C548 1.363 . S
C550 C551 1.370 . S
C550 C554 1.524 . S
C551 C543 1.503 1_554 S
C551 C550 1.370 . S
C551 C552 1.403 1_554 S
C552 C551 1.403 1_556 S
C552 C553 1.404 1_565 S
C552 C555 1.539 . S
C553 C549 1.408 1_556 S
C553 C552 1.404 1_545 S
C553 H565 0.930 . S
C554 C550 1.524 . S
C554 H566 0.956 . S
C554 H567 0.961 . S
C554 H568 0.961 . S
C555 C552 1.539 . S
C555 H569 0.958 . S
C555 H570 0.961 . S
C555 H571 0.960 . S
H556 C540 0.931 . S
H557 C545 0.929 . S
H558 C546 0.960 . S
H559 C546 0.962 . S
H560 C546 0.960 . S
H561 C547 0.961 . S
H562 C547 0.961 . S
H563 C547 0.980 . S
H564 C548 0.931 . S
H565 C553 0.930 . S
H566 C554 0.956 . S
H567 C554 0.961 . S
H568 C554 0.961 . S
H569 C555 0.958 . S
H570 C555 0.961 . S
H571 C555 0.960 . S
C572 C573 1.391 . S
C572 C574 1.394 1_556 S
C572 H588 0.931 1_556 S
C573 C572 1.391 . S
C573 C577 1.376 . S
C574 C572 1.394 1_554 S
C574 C575 1.369 . S
C574 C578 1.531 . S
C575 C574 1.369 . S
C575 C576 1.410 1_554 S
C575 C583 1.503 . S
C576 C575 1.410 1_556 S
C576 C577 1.392 . S
C576 C579 1.511 . S
C577 C573 1.376 . S
C577 C576 1.392 . S
C577 H589 0.929 . S
C578 C574 1.531 . S
C578 H590 0.960 . S
C578 H591 0.962 . S
C578 H592 0.960 . S
C579 C576 1.511 . S
C579 H593 0.961 . S
C579 H594 0.961 . S
C579 H595 0.961 . S
C580 C581 1.370 . S
C580 C582 1.363 1_654 S
C580 H596 0.931 1_554 S
C581 C580 1.370 . S
C581 C585 1.408 1_655 S
C582 C580 1.363 1_456 S
C582 C583 1.370 1_556 S
C582 C586 1.524 . S
C583 C575 1.503 . S
C583 C582 1.370 1_554 S
C583 C584 1.403 . S
C584 C583 1.403 . S
C584 C585 1.404 . S
C584 C587 1.539 . S
C585 C581 1.408 1_455 S
C585 C584 1.404 . S
C585 H597 0.930 1_455 S
C586 C582 1.524 . S
C586 H598 0.956 . S
C586 H599 0.961 . S
C586 H600 0.961 . S
C587 C584 1.539 . S
C587 H601 0.958 . S
C587 H602 0.961 . S
C587 H603 0.960 . S
H588 C572 0.931 1_554 S
H589 C577 0.929 . S
H590 C578 0.960 . S
H591 C578 0.962 . S
H592 C578 0.960 . S
H593 C579 0.961 . S
H594 C579 0.961 . S
H595 C579 0.961 . S
H596 C580 0.931 1_556 S
H597 C585 0.930 1_655 S
H598 C586 0.956 . S
H599 C586 0.961 . S
H600 C586 0.961 . S
H601 C587 0.958 . S
H602 C587 0.961 . S
H603 C587 0.960 . S
C604 C605 1.391 . S
C604 C606 1.394 . S
C604 H620 0.931 . S
C605 C604 1.391 . S
C605 C609 1.376 . S
C606 C604 1.394 . S
C606 C607 1.361 1_554 S
C606 C610 1.531 . S
C607 C606 1.361 1_556 S
C607 C608 1.409 1_556 S
C607 C615 1.510 . S
C608 C607 1.409 1_554 S
C608 C609 1.400 . S
C608 C611 1.505 1_554 S
C609 C605 1.376 . S
C609 C608 1.400 . S
C609 H621 0.929 . S
C610 C606 1.531 . S
C610 H622 0.960 1_554 S
C610 H623 0.962 . S
C610 H624 0.960 . S
C611 C608 1.505 1_556 S
C611 H625 0.959 . S
C611 H626 0.961 . S
C611 H627 0.961 . S
C612 C613 1.370 1_554 S
C612 C614 1.363 . S
C612 H628 0.931 . S
C613 C612 1.370 1_556 S
C613 C617 1.408 . S
C614 C612 1.363 . S
C614 C615 1.370 1_554 S
C614 C618 1.524 . S
C615 C607 1.510 . S
C615 C614 1.370 1_556 S
C615 C616 1.403 . S
C616 C615 1.403 . S
C616 C617 1.404 . S
C616 C619 1.539 . S
C617 C613 1.408 . S
C617 C616 1.404 . S
C617 H629 0.930 . S
C618 C614 1.524 . S
C618 H630 0.956 . S
C618 H631 0.961 . S
C618 H632 0.961 . S
C619 C616 1.539 . S
C619 H633 0.958 . S
C619 H634 0.961 . S
C619 H635 0.960 . S
H620 C604 0.931 . S
H621 C609 0.929 . S
H622 C610 0.960 1_556 S
H623 C610 0.962 . S
H624 C610 0.960 . S
H625 C611 0.959 . S
H626 C611 0.961 . S
H627 C611 0.961 . S
H628 C612 0.931 . S
H629 C617 0.930 . S
H630 C618 0.956 . S
H631 C618 0.961 . S
H632 C618 0.961 . S
H633 C619 0.958 . S
H634 C619 0.961 . S
H635 C619 0.960 . S
C636 C637 1.391 . S
C636 C638 1.394 . S
C636 H652 0.931 . S
C637 C636 1.391 . S
C637 C641 1.376 . S
C638 C636 1.394 . S
C638 C639 1.369 . S
C638 C642 1.531 . S
C639 C638 1.369 . S
C639 C640 1.410 . S
C639 C647 1.503 . S
C640 C639 1.410 . S
C640 C641 1.392 . S
C640 C643 1.511 . S
C641 C637 1.376 . S
C641 C640 1.392 . S
C641 H653 0.929 . S
C642 C638 1.531 . S
C642 H654 0.960 . S
C642 H655 0.962 . S
C642 H656 0.960 . S
C643 C640 1.511 . S
C643 H657 0.961 . S
C643 H658 0.961 . S
C643 H659 0.961 . S
C644 C645 1.370 . S
C644 C646 1.363 1_455 S
C644 H660 0.931 . S
C645 C644 1.370 . S
C645 C649 1.408 1_455 S
C646 C644 1.363 1_655 S
C646 C647 1.370 . S
C646 C650 1.524 . S
C647 C639 1.503 . S
C647 C646 1.370 . S
C647 C648 1.403 . S
C648 C647 1.403 . S
C648 C649 1.404 . S
C648 C651 1.539 . S
C649 C645 1.408 1_655 S
C649 C648 1.404 . S
C649 H661 0.930 1_655 S
C650 C646 1.524 . S
C650 H662 0.956 . S
C650 H663 0.961 . S
C650 H664 0.961 . S
C651 C648 1.539 . S
C651 H665 0.958 . S
C651 H666 0.961 . S
C651 H667 0.960 . S
H652 C636 0.931 . S
H653 C641 0.929 . S
H654 C642 0.960 . S
H655 C642 0.962 . S
H656 C642 0.960 . S
H657 C643 0.961 . S
H658 C643 0.961 . S
H659 C643 0.961 . S
H660 C644 0.931 . S
H661 C649 0.930 1_455 S
H662 C650 0.956 . S
H663 C650 0.961 . S
H664 C650 0.961 . S
H665 C651 0.958 . S
H666 C651 0.961 . S
H667 C651 0.960 . S
C668 C669 1.391 . S
C668 C670 1.394 . S
C668 H684 0.931 . S
C669 C668 1.391 . S
C669 C673 1.376 . S
C670 C668 1.394 . S
C670 C671 1.369 . S
C670 C674 1.531 . S
C671 C670 1.369 . S
C671 C672 1.410 . S
C671 C679 1.503 . S
C672 C671 1.410 . S
C672 C673 1.392 . S
C672 C675 1.511 . S
C673 C669 1.376 . S
C673 C672 1.392 . S
C673 H685 0.929 . S
C674 C670 1.531 . S
C674 H686 0.960 . S
C674 H687 0.962 . S
C674 H688 0.960 . S
C675 C672 1.511 . S
C675 H689 0.961 . S
C675 H690 0.961 . S
C675 H691 0.961 . S
C676 C677 1.370 . S
C676 C678 1.363 . S
C676 H692 0.931 . S
C677 C676 1.370 . S
C677 C681 1.408 . S
C678 C676 1.363 . S
C678 C679 1.370 . S
C678 C682 1.524 . S
C679 C671 1.503 . S
C679 C678 1.370 . S
C679 C680 1.403 . S
C680 C679 1.403 . S
C680 C681 1.404 . S
C680 C683 1.539 . S
C681 C677 1.408 . S
C681 C680 1.404 . S
C681 H693 0.930 . S
C682 C678 1.524 . S
C682 H694 0.956 . S
C682 H695 0.961 . S
C682 H696 0.961 . S
C683 C680 1.539 . S
C683 H697 0.958 . S
C683 H698 0.961 . S
C683 H699 0.960 . S
H684 C668 0.931 . S
H685 C673 0.929 . S
H686 C674 0.960 . S
H687 C674 0.962 . S
H688 C674 0.960 . S
H689 C675 0.961 . S
H690 C675 0.961 . S
H691 C675 0.961 . S
H692 C676 0.931 . S
H693 C681 0.930 . S
H694 C682 0.956 . S
H695 C682 0.961 . S
H696 C682 0.961 . S
H697 C683 0.958 . S
H698 C683 0.961 . S
H699 C683 0.960 . S
C700 C701 1.391 1_545 S
C700 C702 1.394 . S
C700 H716 0.931 1_545 S
C701 C700 1.391 1_565 S
C701 C705 1.376 . S
C702 C700 1.394 . S
C702 C703 1.369 . S
C702 C706 1.531 . S
C703 C702 1.369 . S
C703 C704 1.410 . S
C703 C711 1.503 . S
C704 C703 1.410 . S
C704 C705 1.392 1_545 S
C704 C707 1.511 . S
C705 C701 1.376 . S
C705 C704 1.392 1_565 S
C705 H717 0.929 . S
C706 C702 1.531 . S
C706 H718 0.960 . S
C706 H719 0.962 . S
C706 H720 0.960 . S
C707 C704 1.511 . S
C707 H721 0.961 . S
C707 H722 0.961 . S
C707 H723 0.961 . S
C708 C709 1.370 . S
C708 C710 1.363 . S
C708 H724 0.931 . S
C709 C708 1.370 . S
C709 C713 1.408 . S
C710 C708 1.363 . S
C710 C711 1.370 . S
C710 C714 1.524 . S
C711 C703 1.503 . S
C711 C710 1.370 . S
C711 C712 1.403 . S
C712 C711 1.403 . S
C712 C713 1.404 . S
C712 C715 1.539 . S
C713 C709 1.408 . S
C713 C712 1.404 . S
C713 H725 0.930 . S
C714 C710 1.524 . S
C714 H726 0.956 . S
C714 H727 0.961 . S
C714 H728 0.961 . S
C715 C712 1.539 . S
C715 H729 0.958 . S
C715 H730 0.961 . S
C715 H731 0.960 . S
H716 C700 0.931 1_565 S
H717 C705 0.929 . S
H718 C706 0.960 . S
H719 C706 0.962 . S
H720 C706 0.960 . S
H721 C707 0.961 . S
H722 C707 0.961 . S
H723 C707 0.961 . S
H724 C708 0.931 . S
H725 C713 0.930 . S
H726 C714 0.956 . S
H727 C714 0.961 . S
H728 C714 0.961 . S
H729 C715 0.958 . S
H730 C715 0.961 . S
H731 C715 0.960 . S
C732 C733 1.391 . S
C732 C734 1.394 . S
C732 H748 0.931 . S
C733 C732 1.391 . S
C733 C737 1.376 . S
C734 C732 1.394 . S
C734 C735 1.369 . S
C734 C738 1.531 . S
C735 C734 1.369 . S
C735 C736 1.410 . S
C735 C743 1.503 . S
C736 C735 1.410 . S
C736 C737 1.392 . S
C736 C739 1.511 . S
C737 C733 1.376 . S
C737 C736 1.392 . S
C737 H749 0.929 . S
C738 C734 1.531 . S
C738 H750 0.960 . S
C738 H751 0.962 . S
C738 H752 0.960 . S
C739 C736 1.511 . S
C739 H753 0.961 . S
C739 H754 0.961 . S
C739 H755 0.961 . S
C740 C741 1.370 . S
C740 C742 1.363 . S
C740 H756 0.931 . S
C741 C740 1.370 . S
C741 C745 1.408 . S
C742 C740 1.363 . S
C742 C743 1.370 . S
C742 C746 1.524 . S
C743 C735 1.503 . S
C743 C742 1.370 . S
C743 C744 1.403 . S
C744 C743 1.403 . S
C744 C745 1.404 . S
C744 C747 1.539 . S
C745 C741 1.408 . S
C745 C744 1.404 . S
C745 H757 0.930 . S
C746 C742 1.524 . S
C746 H758 0.956 . S
C746 H759 0.961 . S
C746 H760 0.961 . S
C747 C744 1.539 . S
C747 H761 0.958 . S
C747 H762 0.961 . S
C747 H763 0.960 . S
H748 C732 0.931 . S
H749 C737 0.929 . S
H750 C738 0.960 . S
H751 C738 0.962 . S
H752 C738 0.960 . S
H753 C739 0.961 . S
H754 C739 0.961 . S
H755 C739 0.961 . S
H756 C740 0.931 . S
H757 C745 0.930 . S
H758 C746 0.956 . S
H759 C746 0.961 . S
H760 C746 0.961 . S
H761 C747 0.958 . S
H762 C747 0.961 . S
H763 C747 0.960 . S
C764 C765 1.391 . S
C764 C766 1.394 . S
C764 H780 0.931 . S
C765 C764 1.391 . S
C765 C769 1.376 . S
C766 C764 1.394 . S
C766 C767 1.369 . S
C766 C770 1.531 . S
C767 C766 1.369 . S
C767 C768 1.410 1_545 S
C767 C775 1.503 1_545 S
C768 C767 1.410 1_565 S
C768 C769 1.392 1_565 S
C768 C771 1.511 . S
C769 C765 1.376 . S
C769 C768 1.392 1_545 S
C769 H781 0.928 1_545 S
C770 C766 1.531 . S
C770 H782 0.960 . S
C770 H783 0.962 . S
C770 H784 0.960 . S
C771 C768 1.511 . S
C771 H785 0.961 . S
C771 H786 0.961 . S
C771 H787 0.961 . S
C772 C773 1.370 . S
C772 C774 1.363 . S
C772 H788 0.931 . S
C773 C772 1.370 . S
C773 C777 1.408 . S
C774 C772 1.363 . S
C774 C775 1.370 . S
C774 C778 1.524 . S
C775 C767 1.503 1_565 S
C775 C774 1.370 . S
C775 C776 1.411 . S
C776 C775 1.411 . S
C776 C777 1.412 . S
C776 C779 1.524 1_565 S
C777 C773 1.408 . S
C777 C776 1.412 . S
C777 H789 0.930 . S
C778 C774 1.524 . S
C778 H790 0.956 . S
C778 H791 0.961 . S
C778 H792 0.961 . S
C779 C776 1.524 1_545 S
C779 H793 0.958 . S
C779 H794 0.961 . S
C779 H795 0.960 . S
H780 C764 0.931 . S
H781 C769 0.928 1_565 S
H782 C770 0.960 . S
H783 C770 0.962 . S
H784 C770 0.960 . S
H785 C771 0.961 . S
H786 C771 0.961 . S
H787 C771 0.961 . S
H788 C772 0.931 . S
H789 C777 0.930 . S
H790 C778 0.956 . S
H791 C778 0.961 . S
H792 C778 0.961 . S
H793 C779 0.958 . S
H794 C779 0.961 . S
H795 C779 0.960 . S
C796 C797 1.391 . S
C796 C798 1.394 1_655 S
C796 H812 0.931 1_655 S
C797 C796 1.391 . S
C797 C801 1.376 . S
C798 C796 1.394 1_455 S
C798 C799 1.369 1_455 S
C798 C802 1.531 . S
C799 C798 1.369 1_655 S
C799 C800 1.410 . S
C799 C807 1.503 1_655 S
C800 C799 1.410 . S
C800 C801 1.392 . S
C800 C803 1.511 . S
C801 C797 1.376 . S
C801 C800 1.392 . S
C801 H813 0.929 . S
C802 C798 1.531 . S
C802 H814 0.960 . S
C802 H815 0.962 . S
C802 H816 0.960 . S
C803 C800 1.511 . S
C803 H817 0.961 . S
C803 H818 0.961 . S
C803 H819 0.961 . S
C804 C805 1.370 . S
C804 C806 1.363 . S
C804 H820 0.931 . S
C805 C804 1.370 . S
C805 C809 1.408 . S
C806 C804 1.363 . S
C806 C807 1.370 . S
C806 C810 1.524 1_455 S
C807 C799 1.503 1_455 S
C807 C806 1.370 . S
C807 C808 1.403 . S
C808 C807 1.403 . S
C808 C809 1.404 . S
C808 C811 1.539 . S
C809 C805 1.408 . S
C809 C808 1.404 . S
C809 H821 0.930 . S
C810 C806 1.524 1_655 S
C810 H822 0.956 1_655 S
C810 H823 0.961 . S
C810 H824 0.961 . S
C811 C808 1.539 . S
C811 H825 0.958 . S
C811 H826 0.961 . S
C811 H827 0.960 . S
H812 C796 0.931 1_455 S
H813 C801 0.929 . S
H814 C802 0.960 . S
H815 C802 0.962 . S
H816 C802 0.960 . S
H817 C803 0.961 . S
H818 C803 0.961 . S
H819 C803 0.961 . S
H820 C804 0.931 . S
H821 C809 0.930 . S
H822 C810 0.956 1_455 S
H823 C810 0.961 . S
H824 C810 0.961 . S
H825 C811 0.958 . S
H826 C811 0.961 . S
H827 C811 0.960 . S
C828 C829 1.391 . S
C828 C830 1.394 . S
C828 H844 0.931 . S
C829 C828 1.391 . S
C829 C833 1.376 . S
C830 C828 1.394 . S
C830 C831 1.369 . S
C830 C834 1.531 . S
C831 C830 1.369 . S
C831 C832 1.410 . S
C831 C839 1.503 . S
C832 C831 1.410 . S
C832 C833 1.392 . S
C832 C835 1.511 . S
C833 C829 1.376 . S
C833 C832 1.392 . S
C833 H845 0.929 . S
C834 C830 1.531 . S
C834 H846 0.960 . S
C834 H847 0.962 . S
C834 H848 0.960 . S
C835 C832 1.511 . S
C835 H849 0.961 . S
C835 H850 0.961 . S
C835 H851 0.961 . S
C836 C837 1.370 . S
C836 C838 1.363 . S
C836 H852 0.931 . S
C837 C836 1.370 . S
C837 C841 1.408 . S
C838 C836 1.363 . S
C838 C839 1.370 . S
C838 C842 1.524 . S
C839 C831 1.503 . S
C839 C838 1.370 . S
C839 C840 1.403 . S
C840 C839 1.403 . S
C840 C841 1.404 . S
C840 C843 1.539 . S
C841 C837 1.408 . S
C841 C840 1.404 . S
C841 H853 0.930 . S
C842 C838 1.524 . S
C842 H854 0.956 . S
C842 H855 0.961 . S
C842 H856 0.961 . S
C843 C840 1.539 . S
C843 H857 0.958 . S
C843 H858 0.961 . S
C843 H859 0.960 . S
H844 C828 0.931 . S
H845 C833 0.929 . S
H846 C834 0.960 . S
H847 C834 0.962 . S
H848 C834 0.960 . S
H849 C835 0.961 . S
H850 C835 0.961 . S
H851 C835 0.961 . S
H852 C836 0.931 . S
H853 C841 0.930 . S
H854 C842 0.956 . S
H855 C842 0.961 . S
H856 C842 0.961 . S
H857 C843 0.958 . S
H858 C843 0.961 . S
H859 C843 0.960 . S
C860 C861 1.391 . S
C860 C862 1.394 . S
C860 H876 0.931 . S
C861 C860 1.391 . S
C861 C865 1.376 . S
C862 C860 1.394 . S
C862 C863 1.369 . S
C862 C866 1.531 . S
C863 C862 1.369 . S
C863 C864 1.410 . S
C863 C871 1.503 1_545 S
C864 C863 1.410 . S
C864 C865 1.392 . S
C864 C867 1.511 1_545 S
C865 C861 1.376 . S
C865 C864 1.392 . S
C865 H877 0.929 . S
C866 C862 1.531 . S
C866 H878 0.960 1_545 S
C866 H879 0.962 . S
C866 H880 0.960 . S
C867 C864 1.511 1_565 S
C867 H881 0.959 1_565 S
C867 H882 0.961 . S
C867 H883 0.961 . S
C868 C869 1.370 . S
C868 C870 1.363 1_565 S
C868 H884 0.931 1_565 S
C869 C868 1.370 . S
C869 C873 1.408 . S
C870 C868 1.363 1_545 S
C870 C871 1.370 1_545 S
C870 C874 1.524 . S
C871 C863 1.503 1_565 S
C871 C870 1.370 1_565 S
C871 C872 1.403 . S
C872 C871 1.403 . S
C872 C873 1.404 . S
C872 C875 1.539 . S
C873 C869 1.408 . S
C873 C872 1.404 . S
C873 H885 0.930 . S
C874 C870 1.524 . S
C874 H886 0.956 . S
C874 H887 0.961 . S
C874 H888 0.961 . S
C875 C872 1.539 . S
C875 H889 0.958 . S
C875 H890 0.961 . S
C875 H891 0.960 . S
H876 C860 0.931 . S
H877 C865 0.929 . S
H878 C866 0.960 1_565 S
H879 C866 0.962 . S
H880 C866 0.960 . S
H881 C867 0.959 1_545 S
H882 C867 0.961 . S
H883 C867 0.961 . S
H884 C868 0.931 1_545 S
H885 C873 0.930 . S
H886 C874 0.956 . S
H887 C874 0.961 . S
H888 C874 0.961 . S
H889 C875 0.958 . S
H890 C875 0.961 . S
H891 C875 0.960 . S
C892 C893 1.391 . S
C892 C894 1.394 1_655 S
C892 H908 0.931 1_655 S
C893 C892 1.391 . S
C893 C897 1.376 . S
C894 C892 1.394 1_455 S
C894 C895 1.369 1_455 S
C894 C898 1.531 . S
C895 C894 1.369 1_655 S
C895 C896 1.410 . S
C895 C903 1.503 1_655 S
C896 C895 1.410 . S
C896 C897 1.392 . S
C896 C899 1.511 . S
C897 C893 1.376 . S
C897 C896 1.392 . S
C897 H909 0.929 . S
C898 C894 1.531 . S
C898 H910 0.960 . S
C898 H911 0.962 . S
C898 H912 0.960 . S
C899 C896 1.511 . S
C899 H913 0.961 . S
C899 H914 0.961 . S
C899 H915 0.961 . S
C900 C901 1.370 . S
C900 C902 1.363 . S
C900 H916 0.931 . S
C901 C900 1.370 . S
C901 C905 1.408 . S
C902 C900 1.363 . S
C902 C903 1.370 . S
C902 C906 1.524 . S
C903 C895 1.503 1_455 S
C903 C902 1.370 . S
C903 C904 1.403 . S
C904 C903 1.403 . S
C904 C905 1.404 . S
C904 C907 1.539 1_455 S
C905 C901 1.408 . S
C905 C904 1.404 . S
C905 H917 0.930 . S
C906 C902 1.524 . S
C906 H918 0.956 . S
C906 H919 0.961 1_455 S
C906 H920 0.961 . S
C907 C904 1.539 1_655 S
C907 H921 0.958 1_655 S
C907 H922 0.961 . S
C907 H923 0.960 . S
H908 C892 0.931 1_455 S
H909 C897 0.929 . S
H910 C898 0.960 . S
H911 C898 0.962 . S
H912 C898 0.960 . S
H913 C899 0.961 . S
H914 C899 0.961 . S
H915 C899 0.961 . S
H916 C900 0.931 . S
H917 C905 0.930 . S
H918 C906 0.956 . S
H919 C906 0.961 1_655 S
H920 C906 0.961 . S
H921 C907 0.958 1_455 S
H922 C907 0.961 . S
H923 C907 0.960 . S
C924 C925 1.391 . S
C924 C926 1.394 . S
C924 H940 0.931 . S
C925 C924 1.391 . S
C925 C929 1.376 . S
C926 C924 1.394 . S
C926 C927 1.369 . S
C926 C930 1.531 . S
C927 C926 1.369 . S
C927 C928 1.410 . S
C927 C935 1.503 . S
C928 C927 1.410 . S
C928 C929 1.392 . S
C928 C931 1.511 . S
C929 C925 1.376 . S
C929 C928 1.392 . S
C929 H941 0.929 . S
C930 C926 1.531 . S
C930 H942 0.960 . S
C930 H943 0.962 . S
C930 H944 0.960 . S
C931 C928 1.511 . S
C931 H945 0.961 . S
C931 H946 0.961 . S
C931 H947 0.961 . S
C932 C933 1.370 . S
C932 C934 1.363 . S
C932 H948 0.931 . S
C933 C932 1.370 . S
C933 C937 1.408 . S
C934 C932 1.363 . S
C934 C935 1.370 . S
C934 C938 1.524 . S
C935 C927 1.503 . S
C935 C934 1.370 . S
C935 C936 1.403 . S
C936 C935 1.403 . S
C936 C937 1.404 . S
C936 C939 1.539 . S
C937 C933 1.408 . S
C937 C936 1.404 . S
C937 H949 0.930 . S
C938 C934 1.524 . S
C938 H950 0.956 . S
C938 H951 0.961 . S
C938 H952 0.961 . S
C939 C936 1.539 . S
C939 H953 0.958 . S
C939 H954 0.961 . S
C939 H955 0.960 . S
H940 C924 0.931 . S
H941 C929 0.929 . S
H942 C930 0.960 . S
H943 C930 0.962 . S
H944 C930 0.960 . S
H945 C931 0.961 . S
H946 C931 0.961 . S
H947 C931 0.961 . S
H948 C932 0.931 . S
H949 C937 0.930 . S
H950 C938 0.956 . S
H951 C938 0.961 . S
H952 C938 0.961 . S
H953 C939 0.958 . S
H954 C939 0.961 . S
H955 C939 0.960 . S
C956 C957 1.391 . S
C956 C958 1.394 . S
C956 H972 0.931 . S
C957 C956 1.391 . S
C957 C961 1.376 . S
C958 C956 1.394 . S
C958 C959 1.369 . S
C958 C962 1.531 . S
C959 C958 1.369 . S
C959 C960 1.410 . S
C959 C967 1.503 . S
C960 C959 1.410 . S
C960 C961 1.392 . S
C960 C963 1.511 . S
C961 C957 1.376 . S
C961 C960 1.392 . S
C961 H973 0.929 . S
C962 C958 1.531 . S
C962 H974 0.960 . S
C962 H975 0.962 . S
C962 H976 0.960 . S
C963 C960 1.511 . S
C963 H977 0.961 . S
C963 H978 0.961 . S
C963 H979 0.961 . S
C964 C965 1.370 . S
C964 C966 1.363 . S
C964 H980 0.931 . S
C965 C964 1.370 . S
C965 C969 1.408 . S
C966 C964 1.363 . S
C966 C967 1.370 . S
C966 C970 1.524 . S
C967 C959 1.503 . S
C967 C966 1.370 . S
C967 C968 1.403 . S
C968 C967 1.403 . S
C968 C969 1.404 . S
C968 C971 1.539 . S
C969 C965 1.408 . S
C969 C968 1.404 . S
C969 H981 0.930 . S
C970 C966 1.524 . S
C970 H982 0.956 . S
C970 H983 0.961 . S
C970 H984 0.961 . S
C971 C968 1.539 . S
C971 H985 0.958 . S
C971 H986 0.961 . S
C971 H987 0.960 . S
H972 C956 0.931 . S
H973 C961 0.929 . S
H974 C962 0.960 . S
H975 C962 0.962 . S
H976 C962 0.960 . S
H977 C963 0.961 . S
H978 C963 0.961 . S
H979 C963 0.961 . S
H980 C964 0.931 . S
H981 C969 0.930 . S
H982 C970 0.956 . S
H983 C970 0.961 . S
H984 C970 0.961 . S
H985 C971 0.958 . S
H986 C971 0.961 . S
H987 C971 0.960 . S
C988 C989 1.391 . S
C988 C990 1.394 . S
C988 H1004 0.931 . S
C989 C988 1.391 . S
C989 C993 1.376 . S
C990 C988 1.394 . S
C990 C991 1.369 . S
C990 C994 1.531 . S
C991 C990 1.369 . S
C991 C992 1.410 . S
C991 C999 1.503 . S
C992 C991 1.410 . S
C992 C993 1.392 . S
C992 C995 1.511 . S
C993 C989 1.376 . S
C993 C992 1.392 . S
C993 H1005 0.929 . S
C994 C990 1.531 . S
C994 H1006 0.960 . S
C994 H1007 0.962 . S
C994 H1008 0.960 . S
C995 C992 1.511 . S
C995 H1009 0.961 . S
C995 H1010 0.961 . S
C995 H1011 0.961 . S
C996 C997 1.370 . S
C996 C998 1.363 . S
C996 H1012 0.931 . S
C997 C996 1.370 . S
C997 C1001 1.408 . S
C998 C996 1.363 . S
C998 C999 1.370 . S
C998 C1002 1.524 . S
C999 C991 1.503 . S
C999 C998 1.370 . S
C999 C1000 1.403 . S
C1000 C999 1.403 . S
C1000 C1001 1.404 . S
C1000 C1003 1.539 . S
C1001 C997 1.408 . S
C1001 C1000 1.404 . S
C1001 H1013 0.930 . S
C1002 C998 1.524 . S
C1002 H1014 0.956 . S
C1002 H1015 0.961 . S
C1002 H1016 0.961 . S
C1003 C1000 1.539 . S
C1003 H1017 0.946 1_554 S
C1003 H1018 0.961 . S
C1003 H1019 0.960 . S
H1004 C988 0.931 . S
H1005 C993 0.929 . S
H1006 C994 0.960 . S
H1007 C994 0.962 . S
H1008 C994 0.960 . S
H1009 C995 0.961 . S
H1010 C995 0.961 . S
H1011 C995 0.961 . S
H1012 C996 0.931 . S
H1013 C1001 0.930 . S
H1014 C1002 0.956 . S
H1015 C1002 0.961 . S
H1016 C1002 0.961 . S
H1017 C1003 0.946 1_556 S
H1018 C1003 0.961 . S
H1019 C1003 0.960 . S
C1020 C1021 1.391 . S
C1020 C1022 1.394 . S
C1020 H1036 0.931 . S
C1021 C1020 1.391 . S
C1021 C1025 1.376 . S
C1022 C1020 1.394 . S
C1022 C1023 1.369 . S
C1022 C1026 1.531 . S
C1023 C1022 1.369 . S
C1023 C1024 1.410 . S
C1023 C1031 1.503 . S
C1024 C1023 1.410 . S
C1024 C1025 1.392 . S
C1024 C1027 1.511 . S
C1025 C1021 1.376 . S
C1025 C1024 1.392 . S
C1025 H1037 0.929 . S
C1026 C1022 1.531 . S
C1026 H1038 0.960 . S
C1026 H1039 0.962 . S
C1026 H1040 0.960 . S
C1027 C1024 1.511 . S
C1027 H1041 0.961 . S
C1027 H1042 0.961 . S
C1027 H1043 0.961 . S
C1028 C1029 1.370 . S
C1028 C1030 1.363 . S
C1028 H1044 0.931 . S
C1029 C1028 1.370 . S
C1029 C1033 1.408 . S
C1030 C1028 1.363 . S
C1030 C1031 1.370 . S
C1030 C1034 1.524 . S
C1031 C1023 1.503 . S
C1031 C1030 1.370 . S
C1031 C1032 1.403 . S
C1032 C1031 1.403 . S
C1032 C1033 1.404 . S
C1032 C1035 1.539 . S
C1033 C1029 1.408 . S
C1033 C1032 1.404 . S
C1033 H1045 0.930 . S
C1034 C1030 1.524 . S
C1034 H1046 0.956 . S
C1034 H1047 0.961 . S
C1034 H1048 0.961 . S
C1035 C1032 1.539 . S
C1035 H1049 0.958 . S
C1035 H1050 0.961 . S
C1035 H1051 0.960 . S
H1036 C1020 0.931 . S
H1037 C1025 0.929 . S
H1038 C1026 0.960 . S
H1039 C1026 0.962 . S
H1040 C1026 0.960 . S
H1041 C1027 0.961 . S
H1042 C1027 0.961 . S
H1043 C1027 0.961 . S
H1044 C1028 0.931 . S
H1045 C1033 0.930 . S
H1046 C1034 0.956 . S
H1047 C1034 0.961 . S
H1048 C1034 0.961 . S
H1049 C1035 0.958 . S
H1050 C1035 0.961 . S
H1051 C1035 0.960 . S
C1052 C1053 1.391 . S
C1052 C1054 1.394 . S
C1052 H1068 0.931 . S
C1053 C1052 1.391 . S
C1053 C1057 1.376 . S
C1054 C1052 1.394 . S
C1054 C1055 1.369 . S
C1054 C1058 1.531 . S
C1055 C1054 1.369 . S
C1055 C1056 1.410 . S
C1055 C1063 1.503 . S
C1056 C1055 1.410 . S
C1056 C1057 1.392 . S
C1056 C1059 1.511 . S
C1057 C1053 1.376 . S
C1057 C1056 1.392 . S
C1057 H1069 0.929 . S
C1058 C1054 1.531 . S
C1058 H1070 0.960 . S
C1058 H1071 0.962 . S
C1058 H1072 0.960 . S
C1059 C1056 1.511 . S
C1059 H1073 0.961 . S
C1059 H1074 0.961 . S
C1059 H1075 0.961 . S
C1060 C1061 1.370 . S
C1060 C1062 1.363 . S
C1060 H1076 0.931 . S
C1061 C1060 1.370 . S
C1061 C1065 1.408 . S
C1062 C1060 1.363 . S
C1062 C1063 1.370 . S
C1062 C1066 1.524 . S
C1063 C1055 1.503 . S
C1063 C1062 1.370 . S
C1063 C1064 1.403 . S
C1064 C1063 1.403 . S
C1064 C1065 1.404 . S
C1064 C1067 1.539 . S
C1065 C1061 1.408 . S
C1065 C1064 1.404 . S
C1065 H1077 0.930 . S
C1066 C1062 1.524 . S
C1066 H1078 0.956 . S
C1066 H1079 0.961 . S
C1066 H1080 0.961 . S
C1067 C1064 1.539 . S
C1067 H1081 0.958 . S
C1067 H1082 0.961 . S
C1067 H1083 0.960 . S
H1068 C1052 0.931 . S
H1069 C1057 0.929 . S
H1070 C1058 0.960 . S
H1071 C1058 0.962 . S
H1072 C1058 0.960 . S
H1073 C1059 0.961 . S
H1074 C1059 0.961 . S
H1075 C1059 0.961 . S
H1076 C1060 0.931 . S
H1077 C1065 0.930 . S
H1078 C1066 0.956 . S
H1079 C1066 0.961 . S
H1080 C1066 0.961 . S
H1081 C1067 0.958 . S
H1082 C1067 0.961 . S
H1083 C1067 0.960 . S
C1084 C1085 1.391 . S
C1084 C1086 1.394 . S
C1084 H1100 0.931 . S
C1085 C1084 1.391 . S
C1085 C1089 1.376 . S
C1086 C1084 1.394 . S
C1086 C1087 1.369 . S
C1086 C1090 1.531 . S
C1087 C1086 1.369 . S
C1087 C1088 1.410 . S
C1087 C1095 1.503 . S
C1088 C1087 1.410 . S
C1088 C1089 1.392 . S
C1088 C1091 1.511 . S
C1089 C1085 1.376 . S
C1089 C1088 1.392 . S
C1089 H1101 0.929 . S
C1090 C1086 1.531 . S
C1090 H1102 0.960 . S
C1090 H1103 0.962 . S
C1090 H1104 0.960 . S
C1091 C1088 1.511 . S
C1091 H1105 0.961 . S
C1091 H1106 0.961 . S
C1091 H1107 0.961 . S
C1092 C1093 1.370 . S
C1092 C1094 1.363 . S
C1092 H1108 0.931 . S
C1093 C1092 1.370 . S
C1093 C1097 1.408 . S
C1094 C1092 1.363 . S
C1094 C1095 1.370 . S
C1094 C1098 1.524 . S
C1095 C1087 1.503 . S
C1095 C1094 1.370 . S
C1095 C1096 1.403 . S
C1096 C1095 1.403 . S
C1096 C1097 1.404 . S
C1096 C1099 1.539 . S
C1097 C1093 1.408 . S
C1097 C1096 1.404 . S
C1097 H1109 0.930 . S
C1098 C1094 1.524 . S
C1098 H1110 0.956 . S
C1098 H1111 0.961 . S
C1098 H1112 0.961 . S
C1099 C1096 1.539 . S
C1099 H1113 0.958 . S
C1099 H1114 0.961 . S
C1099 H1115 0.960 . S
H1100 C1084 0.931 . S
H1101 C1089 0.929 . S
H1102 C1090 0.960 . S
H1103 C1090 0.962 . S
H1104 C1090 0.960 . S
H1105 C1091 0.961 . S
H1106 C1091 0.961 . S
H1107 C1091 0.961 . S
H1108 C1092 0.931 . S
H1109 C1097 0.930 . S
H1110 C1098 0.956 . S
H1111 C1098 0.961 . S
H1112 C1098 0.961 . S
H1113 C1099 0.958 . S
H1114 C1099 0.961 . S
H1115 C1099 0.960 . S
C1116 C1117 1.391 . S
C1116 C1118 1.394 . S
C1116 H1132 0.931 . S
C1117 C1116 1.391 . S
C1117 C1121 1.376 . S
C1118 C1116 1.394 . S
C1118 C1119 1.369 . S
C1118 C1122 1.531 . S
C1119 C1118 1.369 . S
C1119 C1120 1.410 . S
C1119 C1127 1.503 . S
C1120 C1119 1.410 . S
C1120 C1121 1.392 . S
C1120 C1123 1.511 . S
C1121 C1117 1.376 . S
C1121 C1120 1.392 . S
C1121 H1133 0.929 . S
C1122 C1118 1.531 . S
C1122 H1134 0.960 . S
C1122 H1135 0.962 . S
C1122 H1136 0.960 . S
C1123 C1120 1.511 . S
C1123 H1137 0.961 . S
C1123 H1138 0.961 . S
C1123 H1139 0.961 . S
C1124 C1125 1.370 . S
C1124 C1126 1.363 . S
C1124 H1140 0.931 . S
C1125 C1124 1.370 . S
C1125 C1129 1.408 . S
C1126 C1124 1.363 . S
C1126 C1127 1.370 . S
C1126 C1130 1.524 . S
C1127 C1119 1.503 . S
C1127 C1126 1.370 . S
C1127 C1128 1.403 . S
C1128 C1127 1.403 . S
C1128 C1129 1.404 . S
C1128 C1131 1.539 . S
C1129 C1125 1.408 . S
C1129 C1128 1.404 . S
C1129 H1141 0.930 . S
C1130 C1126 1.524 . S
C1130 H1142 0.956 . S
C1130 H1143 0.961 . S
C1130 H1144 0.961 . S
C1131 C1128 1.539 . S
C1131 H1145 0.958 . S
C1131 H1146 0.961 . S
C1131 H1147 0.960 . S
H1132 C1116 0.931 . S
H1133 C1121 0.929 . S
H1134 C1122 0.960 . S
H1135 C1122 0.962 . S
H1136 C1122 0.960 . S
H1137 C1123 0.961 . S
H1138 C1123 0.961 . S
H1139 C1123 0.961 . S
H1140 C1124 0.931 . S
H1141 C1129 0.930 . S
H1142 C1130 0.956 . S
H1143 C1130 0.961 . S
H1144 C1130 0.961 . S
H1145 C1131 0.958 . S
H1146 C1131 0.961 . S
H1147 C1131 0.960 . S
C1148 C1149 1.391 . S
C1148 C1150 1.394 . S
C1148 H1164 0.931 . S
C1149 C1148 1.391 . S
C1149 C1153 1.376 . S
C1150 C1148 1.394 . S
C1150 C1151 1.369 . S
C1150 C1154 1.531 . S
C1151 C1150 1.369 . S
C1151 C1152 1.410 . S
C1151 C1159 1.503 . S
C1152 C1151 1.410 . S
C1152 C1153 1.392 . S
C1152 C1155 1.511 . S
C1153 C1149 1.376 . S
C1153 C1152 1.392 . S
C1153 H1165 0.929 . S
C1154 C1150 1.531 . S
C1154 H1166 0.960 . S
C1154 H1167 0.962 . S
C1154 H1168 0.960 . S
C1155 C1152 1.511 . S
C1155 H1169 0.961 . S
C1155 H1170 0.961 . S
C1155 H1171 0.961 . S
C1156 C1157 1.370 . S
C1156 C1158 1.363 . S
C1156 H1172 0.931 . S
C1157 C1156 1.370 . S
C1157 C1161 1.408 . S
C1158 C1156 1.363 . S
C1158 C1159 1.370 . S
C1158 C1162 1.524 . S
C1159 C1151 1.503 . S
C1159 C1158 1.370 . S
C1159 C1160 1.403 . S
C1160 C1159 1.403 . S
C1160 C1161 1.404 . S
C1160 C1163 1.539 . S
C1161 C1157 1.408 . S
C1161 C1160 1.404 . S
C1161 H1173 0.930 . S
C1162 C1158 1.524 . S
C1162 H1174 0.956 . S
C1162 H1175 0.961 . S
C1162 H1176 0.961 . S
C1163 C1160 1.539 . S
C1163 H1177 0.958 1_556 S
C1163 H1178 0.961 . S
C1163 H1179 0.960 . S
H1164 C1148 0.931 . S
H1165 C1153 0.929 . S
H1166 C1154 0.960 . S
H1167 C1154 0.962 . S
H1168 C1154 0.960 . S
H1169 C1155 0.961 . S
H1170 C1155 0.961 . S
H1171 C1155 0.961 . S
H1172 C1156 0.931 . S
H1173 C1161 0.930 . S
H1174 C1162 0.956 . S
H1175 C1162 0.961 . S
H1176 C1162 0.961 . S
H1177 C1163 0.958 1_554 S
H1178 C1163 0.961 . S
H1179 C1163 0.960 . S
C1180 C1181 1.391 . S
C1180 C1182 1.394 . S
C1180 H1196 0.931 . S
C1181 C1180 1.391 . S
C1181 C1185 1.376 . S
C1182 C1180 1.394 . S
C1182 C1183 1.369 . S
C1182 C1186 1.531 . S
C1183 C1182 1.369 . S
C1183 C1184 1.410 . S
C1183 C1191 1.503 . S
C1184 C1183 1.410 . S
C1184 C1185 1.392 . S
C1184 C1187 1.511 . S
C1185 C1181 1.376 . S
C1185 C1184 1.392 . S
C1185 H1197 0.929 . S
C1186 C1182 1.531 . S
C1186 H1198 0.960 . S
C1186 H1199 0.962 . S
C1186 H1200 0.960 . S
C1187 C1184 1.511 . S
C1187 H1201 0.961 . S
C1187 H1202 0.961 . S
C1187 H1203 0.961 . S
C1188 C1189 1.370 . S
C1188 C1190 1.363 . S
C1188 H1204 0.931 . S
C1189 C1188 1.370 . S
C1189 C1193 1.408 . S
C1190 C1188 1.363 . S
C1190 C1191 1.370 . S
C1190 C1194 1.524 . S
C1191 C1183 1.503 . S
C1191 C1190 1.370 . S
C1191 C1192 1.403 . S
C1192 C1191 1.403 . S
C1192 C1193 1.404 . S
C1192 C1195 1.539 . S
C1193 C1189 1.408 . S
C1193 C1192 1.404 . S
C1193 H1205 0.930 . S
C1194 C1190 1.524 . S
C1194 H1206 0.956 . S
C1194 H1207 0.961 . S
C1194 H1208 0.961 . S
C1195 C1192 1.539 . S
C1195 H1209 0.958 . S
C1195 H1210 0.961 . S
C1195 H1211 0.960 . S
H1196 C1180 0.931 . S
H1197 C1185 0.929 . S
H1198 C1186 0.960 . S
H1199 C1186 0.962 . S
H1200 C1186 0.960 . S
H1201 C1187 0.961 . S
H1202 C1187 0.961 . S
H1203 C1187 0.961 . S
H1204 C1188 0.931 . S
H1205 C1193 0.930 . S
H1206 C1194 0.956 . S
H1207 C1194 0.961 . S
H1208 C1194 0.961 . S
H1209 C1195 0.958 . S
H1210 C1195 0.961 . S
H1211 C1195 0.960 . S
C1212 C1213 1.391 . S
C1212 C1214 1.394 . S
C1212 H1228 0.931 . S
C1213 C1212 1.391 . S
C1213 C1217 1.376 . S
C1214 C1212 1.394 . S
C1214 C1215 1.369 . S
C1214 C1218 1.531 . S
C1215 C1214 1.369 . S
C1215 C1216 1.410 . S
C1215 C1223 1.503 . S
C1216 C1215 1.410 . S
C1216 C1217 1.392 . S
C1216 C1219 1.511 . S
C1217 C1213 1.376 . S
C1217 C1216 1.392 . S
C1217 H1229 0.929 . S
C1218 C1214 1.531 . S
C1218 H1230 0.960 . S
C1218 H1231 0.962 . S
C1218 H1232 0.960 . S
C1219 C1216 1.511 . S
C1219 H1233 0.961 . S
C1219 H1234 0.961 . S
C1219 H1235 0.961 . S
C1220 C1221 1.370 . S
C1220 C1222 1.363 . S
C1220 H1236 0.931 . S
C1221 C1220 1.370 . S
C1221 C1225 1.408 . S
C1222 C1220 1.363 . S
C1222 C1223 1.370 . S
C1222 C1226 1.524 . S
C1223 C1215 1.503 . S
C1223 C1222 1.370 . S
C1223 C1224 1.403 . S
C1224 C1223 1.403 . S
C1224 C1225 1.404 . S
C1224 C1227 1.539 . S
C1225 C1221 1.408 . S
C1225 C1224 1.404 . S
C1225 H1237 0.930 . S
C1226 C1222 1.524 . S
C1226 H1238 0.956 . S
C1226 H1239 0.961 . S
C1226 H1240 0.961 . S
C1227 C1224 1.539 . S
C1227 H1241 0.958 . S
C1227 H1242 0.961 . S
C1227 H1243 0.960 . S
H1228 C1212 0.931 . S
H1229 C1217 0.929 . S
H1230 C1218 0.960 . S
H1231 C1218 0.962 . S
H1232 C1218 0.960 . S
H1233 C1219 0.961 . S
H1234 C1219 0.961 . S
H1235 C1219 0.961 . S
H1236 C1220 0.931 . S
H1237 C1225 0.930 . S
H1238 C1226 0.956 . S
H1239 C1226 0.961 . S
H1240 C1226 0.961 . S
H1241 C1227 0.958 . S
H1242 C1227 0.961 . S
H1243 C1227 0.960 . S
C1244 C1245 1.391 . S
C1244 C1246 1.394 . S
C1244 H1260 0.931 . S
C1245 C1244 1.391 . S
C1245 C1249 1.376 . S
C1246 C1244 1.394 . S
C1246 C1247 1.369 . S
C1246 C1250 1.531 . S
C1247 C1246 1.369 . S
C1247 C1248 1.410 . S
C1247 C1255 1.503 . S
C1248 C1247 1.410 . S
C1248 C1249 1.392 . S
C1248 C1251 1.511 . S
C1249 C1245 1.376 . S
C1249 C1248 1.392 . S
C1249 H1261 0.929 . S
C1250 C1246 1.531 . S
C1250 H1262 0.960 . S
C1250 H1263 0.962 . S
C1250 H1264 0.960 . S
C1251 C1248 1.511 . S
C1251 H1265 0.961 . S
C1251 H1266 0.961 . S
C1251 H1267 0.961 . S
C1252 C1253 1.370 . S
C1252 C1254 1.363 . S
C1252 H1268 0.931 . S
C1253 C1252 1.370 . S
C1253 C1257 1.408 . S
C1254 C1252 1.363 . S
C1254 C1255 1.370 . S
C1254 C1258 1.524 . S
C1255 C1247 1.503 . S
C1255 C1254 1.370 . S
C1255 C1256 1.403 . S
C1256 C1255 1.403 . S
C1256 C1257 1.404 . S
C1256 C1259 1.539 . S
C1257 C1253 1.408 . S
C1257 C1256 1.404 . S
C1257 H1269 0.930 . S
C1258 C1254 1.524 . S
C1258 H1270 0.956 . S
C1258 H1271 0.961 . S
C1258 H1272 0.961 . S
C1259 C1256 1.539 . S
C1259 H1273 0.958 . S
C1259 H1274 0.961 . S
C1259 H1275 0.960 . S
H1260 C1244 0.931 . S
H1261 C1249 0.929 . S
H1262 C1250 0.960 . S
H1263 C1250 0.962 . S
H1264 C1250 0.960 . S
H1265 C1251 0.961 . S
H1266 C1251 0.961 . S
H1267 C1251 0.961 . S
H1268 C1252 0.931 . S
H1269 C1257 0.930 . S
H1270 C1258 0.956 . S
H1271 C1258 0.961 . S
H1272 C1258 0.961 . S
H1273 C1259 0.958 . S
H1274 C1259 0.961 . S
H1275 C1259 0.960 . S
C1276 C1277 1.391 . S
C1276 C1278 1.394 . S
C1276 H1292 0.931 . S
C1277 C1276 1.391 . S
C1277 C1281 1.376 . S
C1278 C1276 1.394 . S
C1278 C1279 1.369 . S
C1278 C1282 1.531 . S
C1279 C1278 1.369 . S
C1279 C1280 1.410 . S
C1279 C1287 1.503 . S
C1280 C1279 1.410 . S
C1280 C1281 1.392 . S
C1280 C1283 1.511 . S
C1281 C1277 1.376 . S
C1281 C1280 1.392 . S
C1281 H1293 0.929 . S
C1282 C1278 1.531 . S
C1282 H1294 0.960 . S
C1282 H1295 0.962 . S
C1282 H1296 0.960 . S
C1283 C1280 1.511 . S
C1283 H1297 0.961 . S
C1283 H1298 0.961 . S
C1283 H1299 0.961 . S
C1284 C1285 1.370 . S
C1284 C1286 1.363 . S
C1284 H1300 0.931 . S
C1285 C1284 1.370 . S
C1285 C1289 1.408 . S
C1286 C1284 1.363 . S
C1286 C1287 1.370 . S
C1286 C1290 1.524 . S
C1287 C1279 1.503 . S
C1287 C1286 1.370 . S
C1287 C1288 1.403 . S
C1288 C1287 1.403 . S
C1288 C1289 1.404 . S
C1288 C1291 1.539 . S
C1289 C1285 1.408 . S
C1289 C1288 1.404 . S
C1289 H1301 0.930 . S
C1290 C1286 1.524 . S
C1290 H1302 0.956 . S
C1290 H1303 0.961 . S
C1290 H1304 0.961 . S
C1291 C1288 1.539 . S
C1291 H1305 0.958 . S
C1291 H1306 0.961 . S
C1291 H1307 0.960 . S
H1292 C1276 0.931 . S
H1293 C1281 0.929 . S
H1294 C1282 0.960 . S
H1295 C1282 0.962 . S
H1296 C1282 0.960 . S
H1297 C1283 0.961 . S
H1298 C1283 0.961 . S
H1299 C1283 0.961 . S
H1300 C1284 0.931 . S
H1301 C1289 0.930 . S
H1302 C1290 0.956 . S
H1303 C1290 0.961 . S
H1304 C1290 0.961 . S
H1305 C1291 0.958 . S
H1306 C1291 0.961 . S
H1307 C1291 0.960 . S
C1308 C1309 1.391 . S
C1308 C1310 1.394 . S
C1308 H1324 0.931 . S
C1309 C1308 1.391 . S
C1309 C1313 1.376 . S
C1310 C1308 1.394 . S
C1310 C1311 1.369 . S
C1310 C1314 1.531 . S
C1311 C1310 1.369 . S
C1311 C1312 1.410 . S
C1311 C1319 1.503 . S
C1312 C1311 1.410 . S
C1312 C1313 1.392 . S
C1312 C1315 1.511 . S
C1313 C1309 1.376 . S
C1313 C1312 1.392 . S
C1313 H1325 0.929 . S
C1314 C1310 1.531 . S
C1314 H1326 0.960 . S
C1314 H1327 0.962 . S
C1314 H1328 0.960 . S
C1315 C1312 1.511 . S
C1315 H1329 0.961 . S
C1315 H1330 0.961 . S
C1315 H1331 0.961 . S
C1316 C1317 1.370 . S
C1316 C1318 1.363 . S
C1316 H1332 0.931 . S
C1317 C1316 1.370 . S
C1317 C1321 1.408 . S
C1318 C1316 1.363 . S
C1318 C1319 1.370 . S
C1318 C1322 1.524 . S
C1319 C1311 1.503 . S
C1319 C1318 1.370 . S
C1319 C1320 1.403 . S
C1320 C1319 1.403 . S
C1320 C1321 1.404 . S
C1320 C1323 1.539 . S
C1321 C1317 1.408 . S
C1321 C1320 1.404 . S
C1321 H1333 0.930 . S
C1322 C1318 1.524 . S
C1322 H1334 0.956 . S
C1322 H1335 0.961 . S
C1322 H1336 0.961 . S
C1323 C1320 1.539 . S
C1323 H1337 0.958 . S
C1323 H1338 0.961 . S
C1323 H1339 0.960 . S
H1324 C1308 0.931 . S
H1325 C1313 0.929 . S
H1326 C1314 0.960 . S
H1327 C1314 0.962 . S
H1328 C1314 0.960 . S
H1329 C1315 0.961 . S
H1330 C1315 0.961 . S
H1331 C1315 0.961 . S
H1332 C1316 0.931 . S
H1333 C1321 0.930 . S
H1334 C1322 0.956 . S
H1335 C1322 0.961 . S
H1336 C1322 0.961 . S
H1337 C1323 0.958 . S
H1338 C1323 0.961 . S
H1339 C1323 0.960 . S
C1340 C1341 1.391 . S
C1340 C1342 1.394 . S
C1340 H1356 0.931 . S
C1341 C1340 1.391 . S
C1341 C1345 1.376 . S
C1342 C1340 1.394 . S
C1342 C1343 1.369 . S
C1342 C1346 1.531 . S
C1343 C1342 1.369 . S
C1343 C1344 1.410 . S
C1343 C1351 1.503 . S
C1344 C1343 1.410 . S
C1344 C1345 1.392 . S
C1344 C1347 1.511 . S
C1345 C1341 1.376 . S
C1345 C1344 1.392 . S
C1345 H1357 0.929 . S
C1346 C1342 1.531 . S
C1346 H1358 0.960 . S
C1346 H1359 0.962 . S
C1346 H1360 0.960 . S
C1347 C1344 1.511 . S
C1347 H1361 0.961 . S
C1347 H1362 0.961 . S
C1347 H1363 0.961 . S
C1348 C1349 1.370 . S
C1348 C1350 1.363 . S
C1348 H1364 0.931 . S
C1349 C1348 1.370 . S
C1349 C1353 1.408 . S
C1350 C1348 1.363 . S
C1350 C1351 1.370 . S
C1350 C1354 1.524 . S
C1351 C1343 1.503 . S
C1351 C1350 1.370 . S
C1351 C1352 1.403 . S
C1352 C1351 1.403 . S
C1352 C1353 1.404 . S
C1352 C1355 1.539 . S
C1353 C1349 1.408 . S
C1353 C1352 1.404 . S
C1353 H1365 0.930 . S
C1354 C1350 1.524 . S
C1354 H1366 0.956 . S
C1354 H1367 0.961 . S
C1354 H1368 0.961 . S
C1355 C1352 1.539 . S
C1355 H1369 0.958 . S
C1355 H1370 0.961 . S
C1355 H1371 0.960 . S
H1356 C1340 0.931 . S
H1357 C1345 0.929 . S
H1358 C1346 0.960 . S
H1359 C1346 0.962 . S
H1360 C1346 0.960 . S
H1361 C1347 0.961 . S
H1362 C1347 0.961 . S
H1363 C1347 0.961 . S
H1364 C1348 0.931 . S
H1365 C1353 0.930 . S
H1366 C1354 0.956 . S
H1367 C1354 0.961 . S
H1368 C1354 0.961 . S
H1369 C1355 0.958 . S
H1370 C1355 0.961 . S
H1371 C1355 0.960 . S
C1372 C1373 1.391 . S
C1372 C1374 1.394 . S
C1372 H1388 0.931 . S
C1373 C1372 1.391 . S
C1373 C1377 1.376 . S
C1374 C1372 1.394 . S
C1374 C1375 1.369 . S
C1374 C1378 1.531 . S
C1375 C1374 1.369 . S
C1375 C1376 1.410 . S
C1375 C1383 1.503 . S
C1376 C1375 1.410 . S
C1376 C1377 1.392 . S
C1376 C1379 1.511 . S
C1377 C1373 1.376 . S
C1377 C1376 1.392 . S
C1377 H1389 0.929 . S
C1378 C1374 1.531 . S
C1378 H1390 0.960 . S
C1378 H1391 0.962 . S
C1378 H1392 0.960 . S
C1379 C1376 1.511 . S
C1379 H1393 0.961 . S
C1379 H1394 0.961 . S
C1379 H1395 0.961 . S
C1380 C1381 1.370 . S
C1380 C1382 1.363 . S
C1380 H1396 0.931 . S
C1381 C1380 1.370 . S
C1381 C1385 1.408 . S
C1382 C1380 1.363 . S
C1382 C1383 1.370 . S
C1382 C1386 1.524 . S
C1383 C1375 1.503 . S
C1383 C1382 1.370 . S
C1383 C1384 1.403 . S
C1384 C1383 1.403 . S
C1384 C1385 1.404 . S
C1384 C1387 1.539 . S
C1385 C1381 1.408 . S
C1385 C1384 1.404 . S
C1385 H1397 0.930 . S
C1386 C1382 1.524 . S
C1386 H1398 0.956 . S
C1386 H1399 0.961 . S
C1386 H1400 0.961 . S
C1387 C1384 1.539 . S
C1387 H1401 0.958 . S
C1387 H1402 0.961 . S
C1387 H1403 0.960 . S
H1388 C1372 0.931 . S
H1389 C1377 0.929 . S
H1390 C1378 0.960 . S
H1391 C1378 0.962 . S
H1392 C1378 0.960 . S
H1393 C1379 0.961 . S
H1394 C1379 0.961 . S
H1395 C1379 0.961 . S
H1396 C1380 0.931 . S
H1397 C1385 0.930 . S
H1398 C1386 0.956 . S
H1399 C1386 0.961 . S
H1400 C1386 0.961 . S
H1401 C1387 0.958 . S
H1402 C1387 0.961 . S
H1403 C1387 0.960 . S
C1404 C1405 1.391 . S
C1404 C1406 1.394 . S
C1404 H1420 0.931 . S
C1405 C1404 1.391 . S
C1405 C1409 1.376 . S
C1406 C1404 1.394 . S
C1406 C1407 1.369 . S
C1406 C1410 1.531 . S
C1407 C1406 1.369 . S
C1407 C1408 1.410 . S
C1407 C1415 1.503 . S
C1408 C1407 1.410 . S
C1408 C1409 1.392 . S
C1408 C1411 1.511 . S
C1409 C1405 1.376 . S
C1409 C1408 1.392 . S
C1409 H1421 0.929 . S
C1410 C1406 1.531 . S
C1410 H1422 0.960 . S
C1410 H1423 0.962 . S
C1410 H1424 0.960 . S
C1411 C1408 1.511 . S
C1411 H1425 0.961 . S
C1411 H1426 0.961 . S
C1411 H1427 0.961 . S
C1412 C1413 1.370 . S
C1412 C1414 1.363 . S
C1412 H1428 0.931 . S
C1413 C1412 1.370 . S
C1413 C1417 1.408 . S
C1414 C1412 1.363 . S
C1414 C1415 1.370 . S
C1414 C1418 1.524 . S
C1415 C1407 1.503 . S
C1415 C1414 1.370 . S
C1415 C1416 1.403 . S
C1416 C1415 1.403 . S
C1416 C1417 1.404 . S
C1416 C1419 1.539 . S
C1417 C1413 1.408 . S
C1417 C1416 1.404 . S
C1417 H1429 0.930 . S
C1418 C1414 1.524 . S
C1418 H1430 0.956 . S
C1418 H1431 0.961 . S
C1418 H1432 0.961 . S
C1419 C1416 1.539 . S
C1419 H1433 0.958 . S
C1419 H1434 0.961 . S
C1419 H1435 0.960 . S
H1420 C1404 0.931 . S
H1421 C1409 0.929 . S
H1422 C1410 0.960 . S
H1423 C1410 0.962 . S
H1424 C1410 0.960 . S
H1425 C1411 0.961 . S
H1426 C1411 0.961 . S
H1427 C1411 0.961 . S
H1428 C1412 0.931 . S
H1429 C1417 0.930 . S
H1430 C1418 0.956 . S
H1431 C1418 0.961 . S
H1432 C1418 0.961 . S
H1433 C1419 0.958 . S
H1434 C1419 0.961 . S
H1435 C1419 0.960 . S
C1436 C1437 1.391 . S
C1436 C1438 1.394 . S
C1436 H1452 0.931 . S
C1437 C1436 1.391 . S
C1437 C1441 1.376 . S
C1438 C1436 1.394 . S
C1438 C1439 1.369 . S
C1438 C1442 1.531 . S
C1439 C1438 1.369 . S
C1439 C1440 1.410 . S
C1439 C1447 1.503 . S
C1440 C1439 1.410 . S
C1440 C1441 1.392 . S
C1440 C1443 1.511 . S
C1441 C1437 1.376 . S
C1441 C1440 1.392 . S
C1441 H1453 0.929 . S
C1442 C1438 1.531 . S
C1442 H1454 0.960 . S
C1442 H1455 0.962 . S
C1442 H1456 0.960 . S
C1443 C1440 1.511 . S
C1443 H1457 0.961 . S
C1443 H1458 0.961 . S
C1443 H1459 0.961 . S
C1444 C1445 1.370 . S
C1444 C1446 1.363 . S
C1444 H1460 0.931 . S
C1445 C1444 1.370 . S
C1445 C1449 1.408 . S
C1446 C1444 1.363 . S
C1446 C1447 1.370 . S
C1446 C1450 1.524 . S
C1447 C1439 1.503 . S
C1447 C1446 1.370 . S
C1447 C1448 1.403 . S
C1448 C1447 1.403 . S
C1448 C1449 1.404 . S
C1448 C1451 1.539 . S
C1449 C1445 1.408 . S
C1449 C1448 1.404 . S
C1449 H1461 0.930 . S
C1450 C1446 1.524 . S
C1450 H1462 0.956 . S
C1450 H1463 0.961 . S
C1450 H1464 0.961 . S
C1451 C1448 1.539 . S
C1451 H1465 0.958 . S
C1451 H1466 0.961 . S
C1451 H1467 0.960 . S
H1452 C1436 0.931 . S
H1453 C1441 0.929 . S
H1454 C1442 0.960 . S
H1455 C1442 0.962 . S
H1456 C1442 0.960 . S
H1457 C1443 0.961 . S
H1458 C1443 0.961 . S
H1459 C1443 0.961 . S
H1460 C1444 0.931 . S
H1461 C1449 0.930 . S
H1462 C1450 0.956 . S
H1463 C1450 0.961 . S
H1464 C1450 0.961 . S
H1465 C1451 0.958 . S
H1466 C1451 0.961 . S
H1467 C1451 0.960 . S
C1468 C1469 1.391 . S
C1468 C1470 1.394 . S
C1468 H1484 0.931 . S
C1469 C1468 1.391 . S
C1469 C1473 1.376 . S
C1470 C1468 1.394 . S
C1470 C1471 1.369 . S
C1470 C1474 1.531 . S
C1471 C1470 1.369 . S
C1471 C1472 1.410 . S
C1471 C1479 1.503 . S
C1472 C1471 1.410 . S
C1472 C1473 1.392 . S
C1472 C1475 1.511 . S
C1473 C1469 1.376 . S
C1473 C1472 1.392 . S
C1473 H1485 0.929 . S
C1474 C1470 1.531 . S
C1474 H1486 0.960 . S
C1474 H1487 0.962 . S
C1474 H1488 0.960 . S
C1475 C1472 1.511 . S
C1475 H1489 0.961 . S
C1475 H1490 0.961 . S
C1475 H1491 0.961 . S
C1476 C1477 1.370 . S
C1476 C1478 1.363 . S
C1476 H1492 0.931 . S
C1477 C1476 1.370 . S
C1477 C1481 1.408 . S
C1478 C1476 1.363 . S
C1478 C1479 1.370 . S
C1478 C1482 1.524 . S
C1479 C1471 1.503 . S
C1479 C1478 1.370 . S
C1479 C1480 1.403 . S
C1480 C1479 1.403 . S
C1480 C1481 1.404 . S
C1480 C1483 1.539 . S
C1481 C1477 1.408 . S
C1481 C1480 1.404 . S
C1481 H1493 0.930 . S
C1482 C1478 1.524 . S
C1482 H1494 0.956 . S
C1482 H1495 0.961 . S
C1482 H1496 0.961 . S
C1483 C1480 1.539 . S
C1483 H1497 0.958 . S
C1483 H1498 0.961 . S
C1483 H1499 0.960 . S
H1484 C1468 0.931 . S
H1485 C1473 0.929 . S
H1486 C1474 0.960 . S
H1487 C1474 0.962 . S
H1488 C1474 0.960 . S
H1489 C1475 0.961 . S
H1490 C1475 0.961 . S
H1491 C1475 0.961 . S
H1492 C1476 0.931 . S
H1493 C1481 0.930 . S
H1494 C1482 0.956 . S
H1495 C1482 0.961 . S
H1496 C1482 0.961 . S
H1497 C1483 0.958 . S
H1498 C1483 0.961 . S
H1499 C1483 0.960 . S
C1500 C1501 1.391 . S
C1500 C1502 1.394 . S
C1500 H1516 0.931 . S
C1501 C1500 1.391 . S
C1501 C1505 1.376 . S
C1502 C1500 1.394 . S
C1502 C1503 1.369 . S
C1502 C1506 1.531 . S
C1503 C1502 1.369 . S
C1503 C1504 1.410 . S
C1503 C1511 1.503 . S
C1504 C1503 1.410 . S
C1504 C1505 1.392 . S
C1504 C1507 1.511 . S
C1505 C1501 1.376 . S
C1505 C1504 1.392 . S
C1505 H1517 0.929 . S
C1506 C1502 1.531 . S
C1506 H1518 0.960 . S
C1506 H1519 0.962 . S
C1506 H1520 0.960 . S
C1507 C1504 1.511 . S
C1507 H1521 0.961 . S
C1507 H1522 0.961 . S
C1507 H1523 0.961 . S
C1508 C1509 1.370 . S
C1508 C1510 1.363 . S
C1508 H1524 0.931 . S
C1509 C1508 1.370 . S
C1509 C1513 1.408 . S
C1510 C1508 1.363 . S
C1510 C1511 1.370 . S
C1510 C1514 1.524 . S
C1511 C1503 1.503 . S
C1511 C1510 1.370 . S
C1511 C1512 1.403 . S
C1512 C1511 1.403 . S
C1512 C1513 1.404 . S
C1512 C1515 1.539 . S
C1513 C1509 1.408 . S
C1513 C1512 1.404 . S
C1513 H1525 0.930 . S
C1514 C1510 1.524 . S
C1514 H1526 0.956 . S
C1514 H1527 0.961 . S
C1514 H1528 0.961 . S
C1515 C1512 1.539 . S
C1515 H1529 0.958 . S
C1515 H1530 0.961 . S
C1515 H1531 0.960 . S
H1516 C1500 0.931 . S
H1517 C1505 0.929 . S
H1518 C1506 0.960 . S
H1519 C1506 0.962 . S
H1520 C1506 0.960 . S
H1521 C1507 0.961 . S
H1522 C1507 0.961 . S
H1523 C1507 0.961 . S
H1524 C1508 0.931 . S
H1525 C1513 0.930 . S
H1526 C1514 0.956 . S
H1527 C1514 0.961 . S
H1528 C1514 0.961 . S
H1529 C1515 0.958 . S
H1530 C1515 0.961 . S
H1531 C1515 0.960 . S
C1532 C1533 1.391 . S
C1532 C1534 1.394 . S
C1532 H1548 0.931 . S
C1533 C1532 1.391 . S
C1533 C1537 1.376 . S
C1534 C1532 1.394 . S
C1534 C1535 1.369 . S
C1534 C1538 1.531 . S
C1535 C1534 1.369 . S
C1535 C1536 1.410 . S
C1535 C1543 1.503 . S
C1536 C1535 1.410 . S
C1536 C1537 1.392 . S
C1536 C1539 1.511 . S
C1537 C1533 1.376 . S
C1537 C1536 1.392 . S
C1537 H1549 0.929 . S
C1538 C1534 1.531 . S
C1538 H1550 0.960 . S
C1538 H1551 0.962 . S
C1538 H1552 0.960 . S
C1539 C1536 1.511 . S
C1539 H1553 0.961 . S
C1539 H1554 0.961 . S
C1539 H1555 0.961 . S
C1540 C1541 1.370 . S
C1540 C1542 1.363 . S
C1540 H1556 0.931 . S
C1541 C1540 1.370 . S
C1541 C1545 1.408 . S
C1542 C1540 1.363 . S
C1542 C1543 1.370 . S
C1542 C1546 1.524 . S
C1543 C1535 1.503 . S
C1543 C1542 1.370 . S
C1543 C1544 1.403 . S
C1544 C1543 1.403 . S
C1544 C1545 1.404 . S
C1544 C1547 1.539 . S
C1545 C1541 1.408 . S
C1545 C1544 1.404 . S
C1545 H1557 0.930 . S
C1546 C1542 1.524 . S
C1546 H1558 0.956 . S
C1546 H1559 0.961 . S
C1546 H1560 0.961 . S
C1547 C1544 1.539 . S
C1547 H1561 0.958 . S
C1547 H1562 0.961 . S
C1547 H1563 0.960 . S
H1548 C1532 0.931 . S
H1549 C1537 0.929 . S
H1550 C1538 0.960 . S
H1551 C1538 0.962 . S
H1552 C1538 0.960 . S
H1553 C1539 0.961 . S
H1554 C1539 0.961 . S
H1555 C1539 0.961 . S
H1556 C1540 0.931 . S
H1557 C1545 0.930 . S
H1558 C1546 0.956 . S
H1559 C1546 0.961 . S
H1560 C1546 0.961 . S
H1561 C1547 0.958 . S
H1562 C1547 0.961 . S
H1563 C1547 0.960 . S
C1564 C1565 1.391 . S
C1564 C1566 1.394 . S
C1564 H1580 0.931 . S
C1565 C1564 1.391 . S
C1565 C1569 1.376 . S
C1566 C1564 1.394 . S
C1566 C1567 1.369 . S
C1566 C1570 1.531 . S
C1567 C1566 1.369 . S
C1567 C1568 1.410 . S
C1567 C1575 1.503 . S
C1568 C1567 1.410 . S
C1568 C1569 1.392 . S
C1568 C1571 1.511 . S
C1569 C1565 1.376 . S
C1569 C1568 1.392 . S
C1569 H1581 0.929 . S
C1570 C1566 1.531 . S
C1570 H1582 0.960 . S
C1570 H1583 0.962 . S
C1570 H1584 0.960 . S
C1571 C1568 1.511 . S
C1571 H1585 0.961 . S
C1571 H1586 0.961 . S
C1571 H1587 0.961 . S
C1572 C1573 1.370 . S
C1572 C1574 1.363 . S
C1572 H1588 0.931 . S
C1573 C1572 1.370 . S
C1573 C1577 1.408 . S
C1574 C1572 1.363 . S
C1574 C1575 1.370 . S
C1574 C1578 1.524 . S
C1575 C1567 1.503 . S
C1575 C1574 1.370 . S
C1575 C1576 1.403 . S
C1576 C1575 1.403 . S
C1576 C1577 1.404 . S
C1576 C1579 1.539 . S
C1577 C1573 1.408 . S
C1577 C1576 1.404 . S
C1577 H1589 0.930 . S
C1578 C1574 1.524 . S
C1578 H1590 0.956 . S
C1578 H1591 0.961 . S
C1578 H1592 0.961 . S
C1579 C1576 1.539 . S
C1579 H1593 0.958 . S
C1579 H1594 0.961 . S
C1579 H1595 0.960 . S
H1580 C1564 0.931 . S
H1581 C1569 0.929 . S
H1582 C1570 0.960 . S
H1583 C1570 0.962 . S
H1584 C1570 0.960 . S
H1585 C1571 0.961 . S
H1586 C1571 0.961 . S
H1587 C1571 0.961 . S
H1588 C1572 0.931 . S
H1589 C1577 0.930 . S
H1590 C1578 0.956 . S
H1591 C1578 0.961 . S
H1592 C1578 0.961 . S
H1593 C1579 0.958 . S
H1594 C1579 0.961 . S
H1595 C1579 0.960 . S
C1596 C1597 1.391 . S
C1596 C1598 1.394 . S
C1596 H1612 0.931 . S
C1597 C1596 1.391 . S
C1597 C1601 1.376 . S
C1598 C1596 1.394 . S
C1598 C1599 1.369 . S
C1598 C1602 1.531 . S
C1599 C1598 1.369 . S
C1599 C1600 1.410 . S
C1599 C1607 1.503 . S
C1600 C1599 1.410 . S
C1600 C1601 1.392 . S
C1600 C1603 1.511 . S
C1601 C1597 1.376 . S
C1601 C1600 1.392 . S
C1601 H1613 0.929 . S
C1602 C1598 1.531 . S
C1602 H1614 0.960 . S
C1602 H1615 0.962 . S
C1602 H1616 0.960 . S
C1603 C1600 1.511 . S
C1603 H1617 0.961 . S
C1603 H1618 0.961 . S
C1603 H1619 0.961 . S
C1604 C1605 1.370 . S
C1604 C1606 1.363 . S
C1604 H1620 0.931 . S
C1605 C1604 1.370 . S
C1605 C1609 1.408 . S
C1606 C1604 1.363 . S
C1606 C1607 1.370 . S
C1606 C1610 1.524 . S
C1607 C1599 1.503 . S
C1607 C1606 1.370 . S
C1607 C1608 1.403 . S
C1608 C1607 1.403 . S
C1608 C1609 1.404 . S
C1608 C1611 1.539 . S
C1609 C1605 1.408 . S
C1609 C1608 1.404 . S
C1609 H1621 0.930 . S
C1610 C1606 1.524 . S
C1610 H1622 0.956 . S
C1610 H1623 0.961 . S
C1610 H1624 0.961 . S
C1611 C1608 1.539 . S
C1611 H1625 0.958 . S
C1611 H1626 0.961 . S
C1611 H1627 0.960 . S
H1612 C1596 0.931 . S
H1613 C1601 0.929 . S
H1614 C1602 0.960 . S
H1615 C1602 0.962 . S
H1616 C1602 0.960 . S
H1617 C1603 0.961 . S
H1618 C1603 0.961 . S
H1619 C1603 0.961 . S
H1620 C1604 0.931 . S
H1621 C1609 0.930 . S
H1622 C1610 0.956 . S
H1623 C1610 0.961 . S
H1624 C1610 0.961 . S
H1625 C1611 0.958 . S
H1626 C1611 0.961 . S
H1627 C1611 0.960 . S
C1628 C1629 1.391 . S
C1628 C1630 1.394 . S
C1628 H1644 0.931 . S
C1629 C1628 1.391 . S
C1629 C1633 1.376 . S
C1630 C1628 1.394 . S
C1630 C1631 1.369 . S
C1630 C1634 1.531 . S
C1631 C1630 1.369 . S
C1631 C1632 1.410 . S
C1631 C1639 1.503 . S
C1632 C1631 1.410 . S
C1632 C1633 1.392 . S
C1632 C1635 1.511 . S
C1633 C1629 1.376 . S
C1633 C1632 1.392 . S
C1633 H1645 0.929 . S
C1634 C1630 1.531 . S
C1634 H1646 0.960 . S
C1634 H1647 0.962 . S
C1634 H1648 0.960 . S
C1635 C1632 1.511 . S
C1635 H1649 0.961 . S
C1635 H1650 0.961 . S
C1635 H1651 0.961 . S
C1636 C1637 1.370 . S
C1636 C1638 1.363 . S
C1636 H1652 0.931 . S
C1637 C1636 1.370 . S
C1637 C1641 1.408 . S
C1638 C1636 1.363 . S
C1638 C1639 1.370 . S
C1638 C1642 1.524 . S
C1639 C1631 1.503 . S
C1639 C1638 1.370 . S
C1639 C1640 1.403 . S
C1640 C1639 1.403 . S
C1640 C1641 1.404 . S
C1640 C1643 1.539 . S
C1641 C1637 1.408 . S
C1641 C1640 1.404 . S
C1641 H1653 0.930 . S
C1642 C1638 1.524 . S
C1642 H1654 0.956 . S
C1642 H1655 0.961 . S
C1642 H1656 0.961 . S
C1643 C1640 1.539 . S
C1643 H1657 0.958 . S
C1643 H1658 0.961 . S
C1643 H1659 0.960 . S
H1644 C1628 0.931 . S
H1645 C1633 0.929 . S
H1646 C1634 0.960 . S
H1647 C1634 0.962 . S
H1648 C1634 0.960 . S
H1649 C1635 0.961 . S
H1650 C1635 0.961 . S
H1651 C1635 0.961 . S
H1652 C1636 0.931 . S
H1653 C1641 0.930 . S
H1654 C1642 0.956 . S
H1655 C1642 0.961 . S
H1656 C1642 0.961 . S
H1657 C1643 0.958 . S
H1658 C1643 0.961 . S
H1659 C1643 0.960 . S
C1660 C1661 1.391 . S
C1660 C1662 1.394 . S
C1660 H1676 0.931 . S
C1661 C1660 1.391 . S
C1661 C1665 1.376 . S
C1662 C1660 1.394 . S
C1662 C1663 1.369 . S
C1662 C1666 1.531 . S
C1663 C1662 1.369 . S
C1663 C1664 1.410 . S
C1663 C1671 1.503 . S
C1664 C1663 1.410 . S
C1664 C1665 1.392 . S
C1664 C1667 1.511 . S
C1665 C1661 1.376 . S
C1665 C1664 1.392 . S
C1665 H1677 0.929 . S
C1666 C1662 1.531 . S
C1666 H1678 0.960 . S
C1666 H1679 0.962 . S
C1666 H1680 0.960 . S
C1667 C1664 1.511 . S
C1667 H1681 0.961 . S
C1667 H1682 0.961 . S
C1667 H1683 0.961 . S
C1668 C1669 1.370 . S
C1668 C1670 1.363 . S
C1668 H1684 0.931 . S
C1669 C1668 1.370 . S
C1669 C1673 1.408 . S
C1670 C1668 1.363 . S
C1670 C1671 1.370 . S
C1670 C1674 1.524 . S
C1671 C1663 1.503 . S
C1671 C1670 1.370 . S
C1671 C1672 1.403 . S
C1672 C1671 1.403 . S
C1672 C1673 1.404 . S
C1672 C1675 1.539 . S
C1673 C1669 1.408 . S
C1673 C1672 1.404 . S
C1673 H1685 0.930 . S
C1674 C1670 1.524 . S
C1674 H1686 0.956 . S
C1674 H1687 0.961 . S
C1674 H1688 0.961 . S
C1675 C1672 1.539 . S
C1675 H1689 0.958 . S
C1675 H1690 0.961 . S
C1675 H1691 0.960 . S
H1676 C1660 0.931 . S
H1677 C1665 0.929 . S
H1678 C1666 0.960 . S
H1679 C1666 0.962 . S
H1680 C1666 0.960 . S
H1681 C1667 0.961 . S
H1682 C1667 0.961 . S
H1683 C1667 0.961 . S
H1684 C1668 0.931 . S
H1685 C1673 0.930 . S
H1686 C1674 0.956 . S
H1687 C1674 0.961 . S
H1688 C1674 0.961 . S
H1689 C1675 0.958 . S
H1690 C1675 0.961 . S
H1691 C1675 0.960 . S
C349 C216 2.450 . S
C357 C5 2.639 . S
C381 C34 2.623 . S
C389 C245 2.456 . S
C413 C63 2.623 . S
C421 C187 2.457 . S
C445 C92 2.627 . S
C453 C332 2.454 . S
C477 C274 2.467 . S
C485 C121 2.636 . S
C509 C150 2.627 . S
C517 C303 2.454 . S
C541 C179 2.623 . S
C549 C42 2.454 . S
C573 C208 2.645 . S
C581 C71 2.436 . S
C605 C13 2.468 . S
C613 C237 2.635 . S
C637 C266 2.645 . S
C645 C158 2.433 . S
C669 C295 2.625 . S
C677 C100 2.450 . S
C701 C129 2.417 . S
C709 C324 2.641 . S
C733 C15 1.455 . S
C741 C102 1.431 . S
C765 C44 1.443 . S
C773 C131 1.446 . S
C797 C73 1.414 . S
C805 C160 1.426 . S
C829 C276 1.443 . S
C837 C189 1.447 . S
C861 C305 1.444 . S
C869 C218 1.429 . S
C893 C334 1.450 . S
C901 C247 1.446 . S
C925 C21 1.729 . S
C933 C39 1.548 . S
C957 C50 1.696 . S
C965 C68 1.572 . S
C989 C79 1.713 . S
C997 C10 1.543 . S
C1021 C155 1.517 . S
C1029 C108 1.723 . S
C1053 C137 1.739 . S
C1061 C97 1.556 . S
C1085 C126 1.606 . S
C1093 C166 1.721 . S
C1117 C213 1.582 . S
C1125 C195 1.715 . S
C1149 C224 1.727 . S
C1157 C242 1.552 . S
C1181 C253 1.714 . S
C1189 C184 1.578 . S
C1213 C282 1.735 . S
C1221 C329 1.559 . S
C1245 C311 1.694 . S
C1253 C271 1.563 . S
C1277 C340 1.703 . S
C1285 C300 1.542 . S
C1309 C298 1.163 . S
C1317 C3 1.166 . S
C1341 C327 1.168 . S
C1349 C32 1.158 . S
C1373 C61 1.128 . S
C1381 C269 1.130 . S
C1405 C90 1.188 . S
C1413 C240 1.123 . S
C1437 C119 1.145 . S
C1445 C182 1.141 . S
C1469 C211 1.084 . S
C1477 C148 1.171 . S
C1501 C177 1.174 . S
C1509 C124 1.141 . S
C1533 C206 1.185 . S
C1541 C153 1.135 . S
C1565 C235 1.131 . S
C1573 C95 1.107 . S
C1597 C264 1.140 . S
C1605 C66 1.102 . S
C1629 C293 1.138 . S
C1637 C8 1.134 . S
C1661 C322 1.174 . S
C1669 C37 1.141 . S
