# Generated by pormake.
# Topology uol, (4)-cn, num edge types: 1
# Building blocks:
#     Node 0, Type 0, BuildingBlock: ICAMEG_clean_sbu_1, # of connection points: 4
#     Node 1, Type 0, BuildingBlock: ICAMEG_clean_sbu_1, # of connection points: 4
#     Node 2, Type 0, BuildingBlock: ICAMEG_clean_sbu_1, # of connection points: 4
#     Node 3, Type 0, BuildingBlock: ICAMEG_clean_sbu_1, # of connection points: 4
#     Node 4, Type 0, BuildingBlock: ICAMEG_clean_sbu_1, # of connection points: 4
#     Node 5, Type 0, BuildingBlock: ICAMEG_clean_sbu_1, # of connection points: 4
#     Node 6, Type 0, BuildingBlock: ICAMEG_clean_sbu_1, # of connection points: 4
#     Node 7, Type 0, BuildingBlock: ICAMEG_clean_sbu_1, # of connection points: 4
#     Node 8, Type 0, BuildingBlock: ICAMEG_clean_sbu_1, # of connection points: 4
#     Node 9, Type 0, BuildingBlock: ICAMEG_clean_sbu_1, # of connection points: 4
#     Node 10, Type 0, BuildingBlock: ICAMEG_clean_sbu_1, # of connection points: 4
#     Node 11, Type 0, BuildingBlock: ICAMEG_clean_sbu_1, # of connection points: 4
#     Edge 12, Type (0, 0), BuildingBlock: TEMPAE_clean_linker_10, # of connection points: 2
#     Edge 13, Type (0, 0), BuildingBlock: TEMPAE_clean_linker_10, # of connection points: 2
#     Edge 14, Type (0, 0), BuildingBlock: TEMPAE_clean_linker_10, # of connection points: 2
#     Edge 15, Type (0, 0), BuildingBlock: TEMPAE_clean_linker_10, # of connection points: 2
#     Edge 16, Type (0, 0), BuildingBlock: TEMPAE_clean_linker_10, # of connection points: 2
#     Edge 17, Type (0, 0), BuildingBlock: TEMPAE_clean_linker_10, # of connection points: 2
#     Edge 18, Type (0, 0), BuildingBlock: TEMPAE_clean_linker_10, # of connection points: 2
#     Edge 19, Type (0, 0), BuildingBlock: TEMPAE_clean_linker_10, # of connection points: 2
#     Edge 20, Type (0, 0), BuildingBlock: TEMPAE_clean_linker_10, # of connection points: 2
#     Edge 21, Type (0, 0), BuildingBlock: TEMPAE_clean_linker_10, # of connection points: 2
#     Edge 22, Type (0, 0), BuildingBlock: TEMPAE_clean_linker_10, # of connection points: 2
#     Edge 23, Type (0, 0), BuildingBlock: TEMPAE_clean_linker_10, # of connection points: 2
#     Edge 24, Type (0, 0), BuildingBlock: TEMPAE_clean_linker_10, # of connection points: 2
#     Edge 25, Type (0, 0), BuildingBlock: TEMPAE_clean_linker_10, # of connection points: 2
#     Edge 26, Type (0, 0), BuildingBlock: TEMPAE_clean_linker_10, # of connection points: 2
#     Edge 27, Type (0, 0), BuildingBlock: TEMPAE_clean_linker_10, # of connection points: 2
#     Edge 28, Type (0, 0), BuildingBlock: TEMPAE_clean_linker_10, # of connection points: 2
#     Edge 29, Type (0, 0), BuildingBlock: TEMPAE_clean_linker_10, # of connection points: 2
#     Edge 30, Type (0, 0), BuildingBlock: TEMPAE_clean_linker_10, # of connection points: 2
#     Edge 31, Type (0, 0), BuildingBlock: TEMPAE_clean_linker_10, # of connection points: 2
#     Edge 32, Type (0, 0), BuildingBlock: TEMPAE_clean_linker_10, # of connection points: 2
#     Edge 33, Type (0, 0), BuildingBlock: TEMPAE_clean_linker_10, # of connection points: 2
#     Edge 34, Type (0, 0), BuildingBlock: TEMPAE_clean_linker_10, # of connection points: 2
#     Edge 35, Type (0, 0), BuildingBlock: TEMPAE_clean_linker_10, # of connection points: 2
# Relax obj value: 0.050
# Max RMSD: 0.108
# Mean RMSD: 0.108
data_MOF--net-uol--node1-ICAMEG_clean_sbu_1--edge1-TEMPAE_clean_linker_10
_symmetry_space_group_name_H-M    P1
_symmetry_Int_Tables_number       1
_symmetry_cell_setting            triclinic
loop_
_symmetry_equiv_pos_as_xyz
'x, y, z'
_cell_length_a     35.465651
_cell_length_b     35.457036
_cell_length_c     72.432208
_cell_angle_alpha  90.011659
_cell_angle_beta   90.000256
_cell_angle_gamma 120.00624
loop_
_atom_site_label
_atom_site_type_symbol
_atom_site_fract_x
_atom_site_fract_y
_atom_site_fract_z
_atom_type_partial_charge
Co0 Co 0.06384 0.28227 0.11329 0.0
Co1 Co 0.15996 0.37842 0.12018 0.0
O2 O 0.09662 0.34296 0.12106 0.0
C3 C 0.03421 0.2808 0.15128 0.0
O4 O 0.07554 0.30414 0.15572 0.0
C5 C 0.12887 0.42823 0.099 0.0
O6 O 0.10375 0.39184 0.09011 0.0
O7 O 0.16124 0.36161 0.09413 0.0
O8 O 0.10392 0.29386 0.09198 0.0
H9 H 0.31161 0.41052 0.10538 0.0
H10 H 0.01743 0.3312 0.11962 0.0
O11 O 0.02325 0.2693 0.13458 0.0
H12 H 0.99034 0.28568 0.05436 0.0
H13 H 0.92654 0.13968 0.10182 0.0
H14 H 0.08703 0.21741 0.09989 0.0
H15 H 0.03384 0.26516 0.07413 0.0
H16 H 0.9692 0.21688 0.11106 0.0
O17 O 0.15433 0.42908 0.11161 0.0
H18 H 0.23164 0.36512 0.10696 0.0
H19 H 0.22312 0.46981 0.13106 0.0
H20 H 0.04566 0.14036 0.09035 0.0
H21 H 0.97347 0.35218 0.10038 0.0
H22 H 0.96482 0.10097 0.09129 0.0
H23 H 0.95983 0.32952 0.06748 0.0
O24 O 0.1008 0.26734 0.12883 0.0
H25 H 0.10596 0.42912 0.1735 0.0
H26 H 0.20834 0.38068 0.15422 0.0
H27 H 0.20585 0.39893 0.18689 0.0
H28 H 0.15441 0.42339 0.19671 0.0
H29 H 0.10921 0.41015 0.141 0.0
H30 H 0.30302 0.5165 0.12963 0.0
H31 H 0.34782 0.48681 0.11677 0.0
O32 O 0.16662 0.32829 0.12858 0.0
C33 C 0.13895 0.32566 0.08558 0.0
C34 C 0.29247 0.42377 0.11108 0.0
C35 C 0.28764 0.48327 0.12467 0.0
N36 N 0.22281 0.41466 0.11928 0.0
C37 C 0.24718 0.39817 0.11208 0.0
C38 C 0.24242 0.45671 0.12543 0.0
C39 C 0.31275 0.46659 0.11746 0.0
C40 C 0.01122 0.32082 0.10537 0.0
N41 N 0.028 0.29682 0.09803 0.0
C42 C 0.98648 0.33296 0.09452 0.0
C43 C 0.97889 0.32029 0.07605 0.0
C44 C 0.99603 0.29573 0.06868 0.0
C45 C 0.02071 0.28427 0.07993 0.0
C46 C 0.96175 0.15651 0.10131 0.0
C47 C 0.05185 0.20057 0.10022 0.0
C48 C 0.98607 0.20019 0.10656 0.0
N49 N 0.03053 0.22171 0.10586 0.0
C50 C 0.02861 0.15691 0.09485 0.0
C51 C 0.98325 0.13482 0.0954 0.0
C52 C 0.14151 0.28807 0.1323 0.0
C53 C 0.12861 0.41863 0.16938 0.0
C54 C 0.18581 0.39122 0.15839 0.0
C55 C 0.18461 0.40159 0.1769 0.0
C56 C 0.15575 0.41534 0.1824 0.0
N57 N 0.15909 0.39456 0.1457 0.0
C58 C 0.13074 0.40804 0.15098 0.0
Co59 Co 0.7846 0.06981 0.28114 0.0
Co60 Co 0.78357 0.16513 0.28926 0.0
O61 O 0.75591 0.10175 0.28901 0.0
C62 C 0.75402 0.03724 0.31859 0.0
O63 O 0.77114 0.07822 0.3235 0.0
C64 C 0.70538 0.13591 0.26641 0.0
O65 O 0.718 0.11189 0.2575 0.0
O66 O 0.80496 0.16939 0.26358 0.0
O67 O 0.81444 0.11163 0.2605 0.0
H68 H 0.90414 0.31853 0.27819 0.0
H69 H 0.68887 0.02262 0.28628 0.0
O70 O 0.75572 0.02752 0.3018 0.0
H71 H 0.71193 0.00098 0.22089 0.0
H72 H 0.79137 0.93382 0.26824 0.0
H73 H 0.87362 0.09442 0.2686 0.0
H74 H 0.77452 0.04295 0.24159 0.0
H75 H 0.75591 0.97547 0.2777 0.0
O76 O 0.72826 0.16012 0.27969 0.0
H77 H 0.86984 0.23848 0.27825 0.0
H78 H 0.75353 0.2267 0.30038 0.0
H79 H 0.91023 0.05409 0.25887 0.0
H80 H 0.62533 0.98017 0.2661 0.0
H81 H 0.86903 0.97319 0.25866 0.0
H82 H 0.63669 0.96928 0.23313 0.0
O83 O 0.83535 0.10567 0.29742 0.0
H84 H 0.67247 0.10506 0.34015 0.0
H85 H 0.82531 0.20983 0.32456 0.0
H86 H 0.80056 0.20372 0.3568 0.0
H87 H 0.72361 0.15106 0.36477 0.0
H88 H 0.6987 0.11193 0.30811 0.0
H89 H 0.78645 0.30665 0.30043 0.0
H90 H 0.86235 0.35312 0.28934 0.0
O91 O 0.83937 0.17109 0.29863 0.0
C92 C 0.81888 0.14766 0.25476 0.0
C93 C 0.87112 0.29865 0.28313 0.0
C94 C 0.80504 0.29197 0.29559 0.0
N95 N 0.80993 0.228 0.28951 0.0
C96 C 0.85158 0.25331 0.28327 0.0
C97 C 0.78655 0.24673 0.29551 0.0
C98 C 0.84763 0.31803 0.28937 0.0
C99 C 0.69405 0.01759 0.272 0.0
N100 N 0.73532 0.03504 0.26514 0.0
C101 C 0.65796 0.9937 0.26062 0.0
C102 C 0.66435 0.98767 0.24211 0.0
C103 C 0.70656 0.00548 0.23523 0.0
C104 C 0.74187 0.02927 0.24701 0.0
C105 C 0.80964 0.96906 0.26824 0.0
C106 C 0.8554 0.05922 0.26843 0.0
C107 C 0.78976 0.99281 0.27361 0.0
N108 N 0.81258 0.03732 0.27354 0.0
C109 C 0.87634 0.03657 0.26296 0.0
C110 C 0.85321 0.99118 0.26286 0.0
C111 C 0.85455 0.14583 0.30189 0.0
C112 C 0.70604 0.12822 0.33684 0.0
C113 C 0.7918 0.18678 0.32792 0.0
C114 C 0.77795 0.18353 0.3462 0.0
C115 C 0.73477 0.15399 0.35065 0.0
N116 N 0.76341 0.16141 0.31445 0.0
C117 C 0.72102 0.1324 0.31871 0.0
Co118 Co 0.71983 0.78506 0.44656 0.0
Co119 Co 0.62312 0.78295 0.45504 0.0
O120 O 0.65931 0.75584 0.4546 0.0
C121 C 0.72255 0.75465 0.48394 0.0
O122 O 0.6984 0.77142 0.48888 0.0
C123 C 0.57422 0.70447 0.43231 0.0
O124 O 0.61067 0.7174 0.42321 0.0
O125 O 0.63961 0.80426 0.42931 0.0
O126 O 0.70712 0.81463 0.42601 0.0
H127 H 0.58864 0.90247 0.44424 0.0
H128 H 0.67217 0.6893 0.45169 0.0
O129 O 0.73393 0.75649 0.46714 0.0
H130 H 0.71583 0.71279 0.38618 0.0
H131 H 0.86307 0.79339 0.43316 0.0
H132 H 0.78343 0.87432 0.43396 0.0
H133 H 0.73618 0.77525 0.40692 0.0
H134 H 0.78608 0.75727 0.44283 0.0
O135 O 0.57297 0.72731 0.44562 0.0
H136 H 0.635 0.86887 0.44411 0.0
H137 H 0.53155 0.75209 0.46647 0.0
H138 H 0.86022 0.91159 0.42401 0.0
H139 H 0.65138 0.62589 0.43146 0.0
H140 H 0.90057 0.87105 0.42357 0.0
H141 H 0.67309 0.63745 0.39843 0.0
O142 O 0.73451 0.83568 0.46289 0.0
H143 H 0.57407 0.67215 0.506 0.0
H144 H 0.62038 0.82461 0.49039 0.0
H145 H 0.60258 0.79996 0.52268 0.0
H146 H 0.57919 0.72321 0.53066 0.0
H147 H 0.59257 0.69828 0.47391 0.0
H148 H 0.48392 0.78431 0.46673 0.0
H149 H 0.5125 0.86009 0.45562 0.0
O150 O 0.67279 0.83906 0.46428 0.0
C151 C 0.67517 0.81858 0.42039 0.0
C152 C 0.57587 0.86949 0.4492 0.0
C153 C 0.51708 0.80315 0.46179 0.0
N154 N 0.58614 0.80876 0.45546 0.0
C155 C 0.60202 0.85035 0.44921 0.0
C156 C 0.54417 0.78506 0.46159 0.0
C157 C 0.53314 0.84568 0.45556 0.0
C158 C 0.68215 0.69458 0.43738 0.0
N159 N 0.70554 0.7359 0.43052 0.0
C160 C 0.67011 0.65856 0.42597 0.0
C161 C 0.68225 0.66507 0.40743 0.0
C162 C 0.7062 0.70733 0.40055 0.0
C163 C 0.71757 0.74257 0.41235 0.0
C164 C 0.84581 0.81137 0.43325 0.0
C165 C 0.80069 0.85639 0.43369 0.0
C166 C 0.80226 0.79112 0.43875 0.0
N167 N 0.78021 0.81358 0.4388 0.0
C168 C 0.8442 0.8777 0.4281 0.0
C169 C 0.86683 0.85495 0.42787 0.0
C170 C 0.71331 0.85455 0.46746 0.0
C171 C 0.58409 0.70563 0.50269 0.0
C172 C 0.6103 0.79118 0.49375 0.0
C173 C 0.60018 0.77739 0.51206 0.0
C174 C 0.58704 0.73431 0.51652 0.0
N175 N 0.6073 0.76284 0.48027 0.0
C176 C 0.59441 0.72056 0.48453 0.0
Co177 Co 0.93488 0.71778 0.61377 0.0
Co178 Co 0.83981 0.6207 0.62102 0.0
O179 O 0.90312 0.65698 0.62144 0.0
C180 C 0.96558 0.71947 0.65157 0.0
O181 O 0.92439 0.69512 0.65605 0.0
C182 C 0.87113 0.57237 0.59891 0.0
O183 O 0.89543 0.60905 0.59007 0.0
O184 O 0.83696 0.63785 0.59519 0.0
O185 O 0.89402 0.70568 0.59269 0.0
H186 H 0.6867 0.58634 0.60795 0.0
H187 H 0.98276 0.67011 0.61952 0.0
O188 O 0.97616 0.7313 0.63487 0.0
H189 H 0.00737 0.71594 0.55428 0.0
H190 H 0.07049 0.86162 0.60203 0.0
H191 H 0.90994 0.78168 0.60085 0.0
H192 H 0.96373 0.73547 0.57447 0.0
H193 H 0.02911 0.78429 0.61119 0.0
O194 O 0.84602 0.57081 0.61184 0.0
H195 H 0.76662 0.63279 0.60893 0.0
H196 H 0.77829 0.52878 0.63177 0.0
H197 H 0.95001 0.85883 0.5914 0.0
H198 H 0.02686 0.65013 0.59985 0.0
H199 H 0.03089 0.89933 0.59196 0.0
H200 H 0.03926 0.67295 0.56695 0.0
O201 O 0.89779 0.73182 0.62964 0.0
H202 H 0.89768 0.57035 0.67303 0.0
H203 H 0.79267 0.6169 0.65568 0.0
H204 H 0.79704 0.5982 0.68811 0.0
H205 H 0.84982 0.57469 0.69696 0.0
H206 H 0.89254 0.58976 0.6408 0.0
H207 H 0.69848 0.48106 0.63092 0.0
H208 H 0.65212 0.50987 0.619 0.0
O209 O 0.8326 0.67007 0.63004 0.0
C210 C 0.85868 0.67378 0.58657 0.0
C211 C 0.70653 0.57346 0.61325 0.0
C212 C 0.71315 0.51436 0.62611 0.0
N213 N 0.77703 0.58365 0.62059 0.0
C214 C 0.75179 0.59966 0.6139 0.0
C215 C 0.75831 0.5415 0.62654 0.0
C216 C 0.68716 0.53055 0.61943 0.0
C217 C 0.98842 0.68056 0.60527 0.0
N218 N 0.97089 0.7041 0.59818 0.0
C219 C 0.01325 0.66899 0.59418 0.0
C220 C 0.02013 0.68174 0.57572 0.0
C221 C 0.00222 0.70584 0.56859 0.0
C222 C 0.97748 0.71673 0.58008 0.0
C223 C 0.03526 0.8443 0.60168 0.0
C224 C 0.94513 0.79901 0.60101 0.0
C225 C 0.01166 0.80055 0.60689 0.0
N226 N 0.96718 0.77843 0.60639 0.0
C227 C 0.96765 0.84273 0.5957 0.0
C228 C 0.01302 0.86544 0.59603 0.0
C229 C 0.85736 0.71045 0.63359 0.0
C230 C 0.87447 0.58043 0.66934 0.0
C231 C 0.81578 0.60678 0.65943 0.0
C232 C 0.81804 0.59615 0.67781 0.0
C233 C 0.84764 0.58293 0.68276 0.0
N234 N 0.84218 0.60421 0.64635 0.0
C235 C 0.87126 0.59125 0.65109 0.0
Co236 Co 0.21495 0.9294 0.78259 0.0
Co237 Co 0.21617 0.83389 0.78944 0.0
O238 O 0.2439 0.89724 0.78972 0.0
C239 C 0.24761 0.96111 0.81995 0.0
O240 O 0.23015 0.91999 0.82468 0.0
C241 C 0.29451 0.86412 0.76657 0.0
O242 O 0.28187 0.88836 0.75787 0.0
O243 O 0.19496 0.83098 0.76383 0.0
O244 O 0.18404 0.88802 0.76186 0.0
H245 H 0.09559 0.68111 0.77719 0.0
H246 H 0.31095 0.97639 0.78687 0.0
O247 O 0.24502 0.97123 0.80331 0.0
H248 H 0.28465 0.99962 0.72211 0.0
H249 H 0.20784 0.06582 0.77142 0.0
H250 H 0.1254 0.90522 0.77105 0.0
H251 H 0.2231 0.95716 0.74322 0.0
H252 H 0.24364 0.02385 0.77984 0.0
O253 O 0.27152 0.83934 0.77969 0.0
H254 H 0.12993 0.76114 0.77802 0.0
H255 H 0.2461 0.77176 0.79972 0.0
H256 H 0.08843 0.94587 0.76236 0.0
H257 H 0.37347 0.01933 0.76626 0.0
H258 H 0.12972 0.02677 0.76251 0.0
H259 H 0.36048 0.03103 0.73361 0.0
O260 O 0.16497 0.89322 0.79918 0.0
H261 H 0.32711 0.89141 0.84044 0.0
H262 H 0.17428 0.78752 0.82443 0.0
H263 H 0.19892 0.79205 0.85661 0.0
H264 H 0.27586 0.84426 0.86479 0.0
H265 H 0.30099 0.88613 0.80847 0.0
H266 H 0.21315 0.69182 0.799 0.0
H267 H 0.1373 0.64593 0.78774 0.0
O268 O 0.1603 0.82748 0.79902 0.0
C269 C 0.18016 0.85262 0.75557 0.0
C270 C 0.1286 0.70073 0.7822 0.0
C271 C 0.1946 0.70675 0.79442 0.0
N272 N 0.18978 0.77103 0.78911 0.0
C273 C 0.14815 0.74605 0.78277 0.0
C274 C 0.2131 0.75198 0.79478 0.0
C275 C 0.15203 0.68102 0.7881 0.0
C276 C 0.30506 0.98176 0.77273 0.0
N277 N 0.26345 0.96447 0.76628 0.0
C278 C 0.34058 0.00593 0.76111 0.0
C279 C 0.33327 0.01241 0.74278 0.0
C280 C 0.29073 0.99477 0.73632 0.0
C281 C 0.25601 0.97069 0.74833 0.0
C282 C 0.18952 0.03058 0.77125 0.0
C283 C 0.14366 0.94042 0.77103 0.0
C284 C 0.20959 0.00666 0.77605 0.0
N285 N 0.18671 0.96215 0.77578 0.0
C286 C 0.12251 0.96326 0.76615 0.0
C287 C 0.14569 0.00865 0.76626 0.0
C288 C 0.14549 0.8527 0.80303 0.0
C289 C 0.29354 0.86844 0.83704 0.0
C290 C 0.20778 0.81039 0.82788 0.0
C291 C 0.22157 0.81274 0.84612 0.0
C292 C 0.26475 0.84202 0.8507 0.0
N293 N 0.23623 0.83639 0.81457 0.0
C294 C 0.27861 0.86516 0.81894 0.0
Co295 Co 0.27882 0.21476 0.94532 0.0
Co296 Co 0.3744 0.21703 0.95723 0.0
O297 O 0.33838 0.24397 0.95464 0.0
C298 C 0.27257 0.24312 0.98268 0.0
O299 O 0.29738 0.22729 0.98782 0.0
C300 C 0.42384 0.29171 0.93239 0.0
O301 O 0.38739 0.27831 0.92323 0.0
O302 O 0.35777 0.19032 0.93216 0.0
O303 O 0.29467 0.18744 0.92505 0.0
H304 H 0.40732 0.0949 0.95361 0.0
H305 H 0.32513 0.31008 0.95193 0.0
O306 O 0.26178 0.24127 0.96578 0.0
H307 H 0.28975 0.29186 0.88552 0.0
H308 H 0.13668 0.20618 0.9292 0.0
H309 H 0.21766 0.12665 0.93071 0.0
H310 H 0.26729 0.22777 0.90551 0.0
H311 H 0.21238 0.242 0.94057 0.0
O312 O 0.42478 0.27038 0.94637 0.0
H313 H 0.36146 0.12877 0.9507 0.0
H314 H 0.46618 0.24989 0.969 0.0
H315 H 0.1422 0.0897 0.9191 0.0
H316 H 0.34799 0.37506 0.93246 0.0
H317 H 0.10116 0.12954 0.91829 0.0
H318 H 0.33044 0.36615 0.89899 0.0
O319 O 0.26225 0.16244 0.96092 0.0
H320 H 0.42263 0.33788 0.00366 0.0
H321 H 0.37908 0.18359 0.99442 0.0
H322 H 0.39686 0.21489 0.02576 0.0
H323 H 0.41885 0.29261 0.03053 0.0
H324 H 0.40411 0.3051 0.97258 0.0
H325 H 0.5133 0.21742 0.97198 0.0
H326 H 0.48383 0.13934 0.96432 0.0
O327 O 0.3246 0.16355 0.96814 0.0
C328 C 0.32526 0.17952 0.9215 0.0
C329 C 0.42049 0.12891 0.95705 0.0
C330 C 0.47999 0.1977 0.96733 0.0
N331 N 0.41104 0.19114 0.95982 0.0
C332 C 0.39464 0.14823 0.95548 0.0
C333 C 0.4532 0.21592 0.96558 0.0
C334 C 0.46343 0.15388 0.96304 0.0
C335 C 0.31696 0.30595 0.93741 0.0
N336 N 0.29468 0.2652 0.92988 0.0
C337 C 0.33015 0.34286 0.92644 0.0
C338 C 0.32035 0.33783 0.90766 0.0
C339 C 0.29754 0.29616 0.90009 0.0
C340 C 0.28495 0.26 0.91147 0.0
C341 C 0.15424 0.18851 0.92945 0.0
C342 C 0.20011 0.14427 0.93031 0.0
C343 C 0.19707 0.20858 0.93591 0.0
N344 N 0.2195 0.18651 0.93618 0.0
C345 C 0.15734 0.12315 0.92376 0.0
C346 C 0.13433 0.14551 0.92333 0.0
C347 C 0.28321 0.14606 0.96857 0.0
C348 C 0.41315 0.304 0.00175 0.0
C349 C 0.38843 0.21735 0.9964 0.0
C350 C 0.3986 0.23495 0.01417 0.0
C351 C 0.41097 0.27856 0.01683 0.0
N352 N 0.39055 0.24247 0.98169 0.0
C353 C 0.40279 0.2853 0.98418 0.0
Co354 Co 0.71718 0.93193 0.71689 0.0
Co355 Co 0.62028 0.83747 0.70852 0.0
O356 O 0.65661 0.90079 0.70889 0.0
C357 C 0.72008 0.96533 0.67953 0.0
O358 O 0.69589 0.92446 0.67452 0.0
C359 C 0.57114 0.86717 0.73105 0.0
O360 O 0.60748 0.89086 0.74021 0.0
O361 O 0.63659 0.83282 0.73431 0.0
O362 O 0.70443 0.88957 0.7374 0.0
H363 H 0.5853 0.68342 0.71968 0.0
H364 H 0.66982 0.98034 0.71187 0.0
O365 O 0.73135 0.97472 0.69635 0.0
H366 H 0.7139 0.00036 0.77733 0.0
H367 H 0.86075 0.06656 0.73025 0.0
H368 H 0.78059 0.90595 0.72938 0.0
H369 H 0.7338 0.95799 0.75653 0.0
H370 H 0.78371 0.02593 0.72063 0.0
O371 O 0.57011 0.84307 0.71778 0.0
H372 H 0.63184 0.76338 0.71971 0.0
H373 H 0.52875 0.77678 0.697 0.0
H374 H 0.85744 0.94525 0.73927 0.0
H375 H 0.64949 0.02323 0.73216 0.0
H376 H 0.89805 0.02615 0.73974 0.0
H377 H 0.67144 0.03331 0.76517 0.0
O378 O 0.73162 0.89591 0.7005 0.0
H379 H 0.57182 0.89903 0.65727 0.0
H380 H 0.61763 0.79272 0.67328 0.0
H381 H 0.60009 0.79938 0.64092 0.0
H382 H 0.57696 0.85282 0.63275 0.0
H383 H 0.59006 0.89159 0.68942 0.0
H384 H 0.48095 0.69694 0.69685 0.0
H385 H 0.50925 0.64969 0.70819 0.0
O386 O 0.66987 0.83078 0.69943 0.0
C387 C 0.67234 0.85387 0.74312 0.0
C388 C 0.57265 0.70364 0.71463 0.0
C389 C 0.51406 0.71124 0.70184 0.0
N390 N 0.58317 0.77467 0.70818 0.0
C391 C 0.5989 0.74893 0.71455 0.0
C392 C 0.54125 0.75642 0.70198 0.0
C393 C 0.52997 0.68475 0.7082 0.0
C394 C 0.67988 0.985 0.72617 0.0
N395 N 0.70313 0.96688 0.73299 0.0
C396 C 0.66811 0.00914 0.73761 0.0
C397 C 0.68038 0.01472 0.75614 0.0
C398 C 0.70418 0.99622 0.76298 0.0
C399 C 0.71528 0.9722 0.75114 0.0
C400 C 0.84338 0.03131 0.73014 0.0
C401 C 0.79797 0.94115 0.72967 0.0
C402 C 0.79979 0.00814 0.72468 0.0
N403 N 0.77761 0.96363 0.72461 0.0
C404 C 0.84151 0.96323 0.73523 0.0
C405 C 0.86428 0.00862 0.73547 0.0
C406 C 0.71033 0.8557 0.69612 0.0
C407 C 0.58173 0.87553 0.66067 0.0
C408 C 0.60766 0.8161 0.66983 0.0
C409 C 0.59769 0.81967 0.65149 0.0
C410 C 0.58469 0.84964 0.64691 0.0
N411 N 0.60466 0.84159 0.68324 0.0
C412 C 0.5919 0.87103 0.67887 0.0
Co413 Co 0.78037 0.71449 0.88364 0.0
Co414 Co 0.77969 0.61801 0.87678 0.0
O415 O 0.75203 0.65371 0.87595 0.0
C416 C 0.75159 0.71613 0.84575 0.0
O417 O 0.76921 0.69254 0.84116 0.0
C418 C 0.69885 0.56834 0.89805 0.0
O419 O 0.71019 0.60473 0.90695 0.0
O420 O 0.79798 0.63483 0.90282 0.0
O421 O 0.80911 0.70285 0.90484 0.0
H422 H 0.89886 0.58526 0.89144 0.0
H423 H 0.6849 0.66593 0.87765 0.0
O424 O 0.75251 0.72759 0.86249 0.0
H425 H 0.7048 0.71198 0.94286 0.0
H426 H 0.78677 0.85758 0.8952 0.0
H427 H 0.8688 0.77909 0.89674 0.0
H428 H 0.76837 0.73201 0.92287 0.0
H429 H 0.75165 0.78028 0.88605 0.0
O430 O 0.72336 0.56749 0.88539 0.0
H431 H 0.86458 0.63093 0.88992 0.0
H432 H 0.75104 0.52654 0.86588 0.0
H433 H 0.90506 0.85623 0.90619 0.0
H434 H 0.62041 0.64545 0.89712 0.0
H435 H 0.86397 0.896 0.90544 0.0
H436 H 0.63017 0.66838 0.93 0.0
O437 O 0.83189 0.72903 0.86792 0.0
H438 H 0.67465 0.56756 0.82359 0.0
H439 H 0.82547 0.61546 0.84268 0.0
H440 H 0.80447 0.59716 0.81003 0.0
H441 H 0.72856 0.57297 0.80031 0.0
H442 H 0.69714 0.58659 0.85606 0.0
H443 H 0.78396 0.47958 0.86726 0.0
H444 H 0.85846 0.50897 0.88005 0.0
O445 O 0.83653 0.66797 0.86833 0.0
C446 C 0.8121 0.67096 0.91128 0.0
C447 C 0.86645 0.57213 0.88576 0.0
C448 C 0.80194 0.5128 0.87222 0.0
N449 N 0.80606 0.58156 0.87764 0.0
C450 C 0.84694 0.59789 0.8848 0.0
C451 C 0.78345 0.53951 0.87149 0.0
C452 C 0.84374 0.52932 0.87939 0.0
C453 C 0.6894 0.67643 0.89189 0.0
N454 N 0.73033 0.7003 0.89909 0.0
C455 C 0.65277 0.66457 0.90287 0.0
C456 C 0.65827 0.67738 0.92133 0.0
C457 C 0.70013 0.70182 0.92856 0.0
C458 C 0.736 0.713 0.91718 0.0
C459 C 0.80499 0.84058 0.89563 0.0
C460 C 0.85063 0.7961 0.8965 0.0
C461 C 0.7853 0.79684 0.89043 0.0
N462 N 0.80806 0.77512 0.89102 0.0
C463 C 0.87137 0.83981 0.90181 0.0
C464 C 0.8483 0.86211 0.90137 0.0
C465 C 0.85174 0.70815 0.8645 0.0
C466 C 0.70779 0.57794 0.82767 0.0
C467 C 0.79239 0.60504 0.83855 0.0
C468 C 0.78068 0.59464 0.82005 0.0
C469 C 0.73807 0.58104 0.81461 0.0
N470 N 0.76249 0.60188 0.85128 0.0
C471 C 0.72066 0.58856 0.84605 0.0
Co472 Co 0.06224 0.78199 0.05184 0.0
Co473 Co 0.15564 0.77967 0.04017 0.0
O474 O 0.09264 0.7528 0.04257 0.0
C475 C 0.02815 0.75409 0.01437 0.0
O476 O 0.06887 0.77001 0.00932 0.0
C477 C 0.12989 0.70462 0.06484 0.0
O478 O 0.10672 0.71792 0.07398 0.0
O479 O 0.16532 0.806 0.0653 0.0
O480 O 0.10511 0.80901 0.07226 0.0
H481 H 0.31074 0.90148 0.0444 0.0
H482 H 0.0132 0.68676 0.04503 0.0
O483 O 0.01899 0.75576 0.03125 0.0
H484 H 0.99491 0.70423 0.1114 0.0
H485 H 0.92863 0.79077 0.06764 0.0
H486 H 0.08917 0.86994 0.06665 0.0
H487 H 0.03703 0.76854 0.09158 0.0
H488 H 0.96855 0.75494 0.05632 0.0
O489 O 0.15237 0.72611 0.05094 0.0
H490 H 0.23097 0.86774 0.04704 0.0
H491 H 0.21461 0.74681 0.02848 0.0
H492 H 0.05061 0.90688 0.07823 0.0
H493 H 0.9706 0.62157 0.06432 0.0
H494 H 0.96973 0.86723 0.07877 0.0
H495 H 0.96139 0.6301 0.09778 0.0
O496 O 0.09831 0.83447 0.03637 0.0
H497 H 0.0836 0.65956 0.99338 0.0
H498 H 0.19446 0.81361 0.00313 0.0
H499 H 0.18143 0.78278 0.9717 0.0
H500 H 0.12564 0.70519 0.96668 0.0
H501 H 0.09738 0.69188 0.02454 0.0
H502 H 0.29422 0.77914 0.02577 0.0
H503 H 0.34284 0.85706 0.0337 0.0
O504 O 0.15965 0.83339 0.02937 0.0
C505 C 0.14351 0.81676 0.07591 0.0
C506 C 0.28989 0.86753 0.04084 0.0
C507 C 0.28062 0.79885 0.03041 0.0
N508 N 0.21819 0.80547 0.03777 0.0
C509 C 0.2447 0.84829 0.04225 0.0
C510 C 0.23558 0.7807 0.03201 0.0
C511 C 0.30788 0.84258 0.03486 0.0
C512 C 0.00893 0.69073 0.05954 0.0
N513 N 0.02734 0.73139 0.06715 0.0
C514 C 0.98494 0.6537 0.07041 0.0
C515 C 0.97983 0.65851 0.08918 0.0
C516 C 0.99866 0.7001 0.09684 0.0
C517 C 0.02251 0.73638 0.08555 0.0
C518 C 0.96387 0.80836 0.0675 0.0
C519 C 0.05398 0.85239 0.06694 0.0
C520 C 0.98664 0.78828 0.06107 0.0
N521 N 0.03113 0.81025 0.06094 0.0
C522 C 0.03232 0.87351 0.07346 0.0
C523 C 0.98695 0.85126 0.07375 0.0
C524 C 0.13583 0.85097 0.02888 0.0
C525 C 0.10803 0.6934 0.9954 0.0
C526 C 0.17001 0.7799 0.00103 0.0
C527 C 0.16287 0.76257 0.98322 0.0
C528 C 0.13159 0.71903 0.98042 0.0
N529 N 0.14672 0.75459 0.01565 0.0
C530 C 0.1161 0.71183 0.01302 0.0
Co531 Co 0.285 0.06813 0.21462 0.0
Co532 Co 0.38112 0.16396 0.20712 0.0
O533 O 0.34583 0.10058 0.20709 0.0
C534 C 0.28459 0.03623 0.17715 0.0
O535 O 0.30778 0.07733 0.17233 0.0
C536 C 0.43024 0.13492 0.22999 0.0
O537 O 0.39356 0.11063 0.23883 0.0
O538 O 0.36337 0.16736 0.23278 0.0
O539 O 0.29596 0.10962 0.23535 0.0
H540 H 0.41254 0.31669 0.21886 0.0
H541 H 0.33441 0.0217 0.20982 0.0
O542 O 0.27273 0.02618 0.19388 0.0
H543 H 0.28745 0.9988 0.27492 0.0
H544 H 0.1425 0.9312 0.22666 0.0
H545 H 0.21961 0.09178 0.22675 0.0
H546 H 0.26709 0.04071 0.25407 0.0
H547 H 0.21987 0.97356 0.21766 0.0
O548 O 0.43151 0.15918 0.21674 0.0
H549 H 0.3673 0.2366 0.2184 0.0
H550 H 0.47278 0.22633 0.19637 0.0
H551 H 0.14239 0.05073 0.23603 0.0
H552 H 0.35524 0.9793 0.23015 0.0
H553 H 0.10332 0.96984 0.23602 0.0
H554 H 0.33185 0.96777 0.26298 0.0
O555 O 0.2702 0.10392 0.19823 0.0
H556 H 0.43386 0.10584 0.1561 0.0
H557 H 0.38437 0.20936 0.172 0.0
H558 H 0.40376 0.20421 0.13976 0.0
H559 H 0.42876 0.15219 0.13164 0.0
H560 H 0.41374 0.11173 0.18813 0.0
H561 H 0.51932 0.30633 0.19671 0.0
H562 H 0.48916 0.35207 0.20795 0.0
O563 O 0.3312 0.16972 0.19769 0.0
C564 C 0.3274 0.14546 0.24136 0.0
C565 C 0.426 0.29713 0.21385 0.0
C566 C 0.48595 0.29131 0.20144 0.0
N567 N 0.41724 0.22687 0.20717 0.0
C568 C 0.40049 0.25177 0.21349 0.0
C569 C 0.45947 0.24604 0.20131 0.0
C570 C 0.469 0.31695 0.20775 0.0
C571 C 0.32372 0.0164 0.22403 0.0
N572 N 0.2994 0.03347 0.23073 0.0
C573 C 0.33577 0.99254 0.2355 0.0
C574 C 0.32269 0.98614 0.25393 0.0
C575 C 0.29781 0.00357 0.26064 0.0
C576 C 0.28644 0.02734 0.24878 0.0
C577 C 0.1592 0.96643 0.22676 0.0
C578 C 0.2029 0.05659 0.22683 0.0
C579 C 0.20297 0.99058 0.22165 0.0
N580 N 0.2243 0.03508 0.22184 0.0
C581 C 0.15915 0.03352 0.23204 0.0
C582 C 0.13723 0.98813 0.23202 0.0
C583 C 0.29098 0.14428 0.19408 0.0
C584 C 0.42314 0.12872 0.15947 0.0
C585 C 0.39514 0.18658 0.16857 0.0
C586 C 0.40616 0.18387 0.1503 0.0
C587 C 0.42021 0.1547 0.14575 0.0
N588 N 0.39814 0.16102 0.18195 0.0
C589 C 0.4119 0.13235 0.1776 0.0
Co590 Co 0.21845 0.28147 0.38322 0.0
Co591 Co 0.21987 0.37824 0.37591 0.0
O592 O 0.24714 0.34218 0.37541 0.0
C593 C 0.2468 0.27932 0.34533 0.0
O594 O 0.22958 0.30334 0.34084 0.0
C595 C 0.29994 0.42739 0.39771 0.0
O596 O 0.28805 0.3909 0.40662 0.0
O597 O 0.20059 0.36146 0.40184 0.0
O598 O 0.18995 0.29368 0.40437 0.0
H599 H 0.10095 0.41208 0.38945 0.0
H600 H 0.31389 0.32939 0.37715 0.0
O601 O 0.24598 0.26784 0.36205 0.0
H602 H 0.29405 0.2844 0.44248 0.0
H603 H 0.21118 0.13813 0.39513 0.0
H604 H 0.12996 0.21746 0.39646 0.0
H605 H 0.23046 0.26441 0.4225 0.0
H606 H 0.24662 0.2153 0.38577 0.0
O607 O 0.27605 0.42848 0.38482 0.0
H608 H 0.13475 0.36593 0.38838 0.0
H609 H 0.24953 0.46987 0.36493 0.0
H610 H 0.09339 0.14046 0.40612 0.0
H611 H 0.37839 0.34982 0.39661 0.0
H612 H 0.13408 0.10027 0.40548 0.0
H613 H 0.36866 0.32743 0.42955 0.0
O614 O 0.16694 0.26699 0.3675 0.0
H615 H 0.32672 0.42809 0.3234 0.0
H616 H 0.17547 0.38115 0.34143 0.0
H617 H 0.19762 0.39929 0.30888 0.0
H618 H 0.27375 0.42299 0.29969 0.0
H619 H 0.30307 0.40923 0.35576 0.0
H620 H 0.2171 0.51729 0.36586 0.0
H621 H 0.14221 0.48836 0.37813 0.0
O622 O 0.16318 0.32857 0.36721 0.0
C623 C 0.18658 0.32561 0.41051 0.0
C624 C 0.13353 0.425 0.384 0.0
C625 C 0.19874 0.48407 0.37078 0.0
N626 N 0.19387 0.41506 0.37642 0.0
C627 C 0.15277 0.39898 0.3833 0.0
C628 C 0.21696 0.4571 0.37031 0.0
C629 C 0.15672 0.46781 0.37767 0.0
C630 C 0.30941 0.31913 0.39141 0.0
N631 N 0.26848 0.29557 0.39865 0.0
C632 C 0.34604 0.33096 0.40239 0.0
C633 C 0.34056 0.31844 0.42088 0.0
C634 C 0.2987 0.29433 0.42815 0.0
C635 C 0.26283 0.28317 0.41677 0.0
C636 C 0.19314 0.15531 0.39551 0.0
C637 C 0.14796 0.20026 0.39627 0.0
C638 C 0.21301 0.19898 0.39019 0.0
N639 N 0.19048 0.22093 0.39073 0.0
C640 C 0.12705 0.15663 0.4017 0.0
C641 C 0.14988 0.13409 0.40132 0.0
C642 C 0.14762 0.28819 0.3637 0.0
C643 C 0.29349 0.41793 0.32724 0.0
C644 C 0.20863 0.39136 0.33753 0.0
C645 C 0.22101 0.40168 0.31909 0.0
C646 C 0.26374 0.415 0.31394 0.0
N647 N 0.23801 0.39434 0.3505 0.0
C648 C 0.27997 0.4074 0.34556 0.0
Co649 Co 0.93819 0.21581 0.55114 0.0
Co650 Co 0.84365 0.21814 0.54291 0.0
O651 O 0.90695 0.24508 0.54306 0.0
C652 C 0.97075 0.24528 0.5136 0.0
O653 O 0.92978 0.2284 0.50876 0.0
C654 C 0.87385 0.29771 0.56501 0.0
O655 O 0.89766 0.2853 0.57422 0.0
O656 O 0.83958 0.19805 0.5688 0.0
O657 O 0.89623 0.18682 0.57186 0.0
H658 H 0.68986 0.09948 0.55488 0.0
H659 H 0.98655 0.31146 0.54564 0.0
O660 O 0.98054 0.24383 0.53041 0.0
H661 H 0.00785 0.28923 0.61117 0.0
H662 H 0.07299 0.20713 0.56434 0.0
H663 H 0.91241 0.12675 0.56406 0.0
H664 H 0.96503 0.22638 0.5907 0.0
H665 H 0.03221 0.24331 0.55462 0.0
O666 O 0.84952 0.27425 0.55188 0.0
H667 H 0.7698 0.13286 0.55462 0.0
H668 H 0.78278 0.24869 0.53132 0.0
H669 H 0.95186 0.08944 0.57407 0.0
H670 H 0.02988 0.37525 0.56559 0.0
H671 H 0.03274 0.1297 0.57424 0.0
H672 H 0.0406 0.36432 0.59862 0.0
O673 O 0.90181 0.16488 0.53502 0.0
H674 H 0.90418 0.32648 0.49101 0.0
H675 H 0.79812 0.17491 0.50795 0.0
H676 H 0.80413 0.19805 0.47546 0.0
H677 H 0.85745 0.27435 0.46681 0.0
H678 H 0.8974 0.30186 0.52331 0.0
H679 H 0.70296 0.21669 0.53144 0.0
H680 H 0.65594 0.14149 0.54323 0.0
O681 O 0.83671 0.16153 0.53411 0.0
C682 C 0.86073 0.18354 0.57766 0.0
C683 C 0.70999 0.1322 0.54964 0.0
C684 C 0.71735 0.19801 0.53651 0.0
N685 N 0.78087 0.19249 0.54278 0.0
C686 C 0.75526 0.15121 0.54939 0.0
C687 C 0.76251 0.21598 0.5365 0.0
C688 C 0.69098 0.15581 0.54312 0.0
C689 C 0.99149 0.30645 0.55995 0.0
N690 N 0.97348 0.26527 0.56697 0.0
C691 C 0.01588 0.34269 0.5712 0.0
C692 C 0.02183 0.33653 0.58974 0.0
C693 C 0.00343 0.29441 0.59679 0.0
C694 C 0.97915 0.25895 0.58514 0.0
C695 C 0.03775 0.18927 0.56436 0.0
C696 C 0.9476 0.14456 0.56422 0.0
C697 C 0.01449 0.20956 0.55884 0.0
N698 N 0.96999 0.18726 0.55893 0.0
C699 C 0.96976 0.12323 0.56985 0.0
C700 C 0.01514 0.14583 0.56992 0.0
C701 C 0.86152 0.14588 0.53081 0.0
C702 C 0.88074 0.29319 0.49461 0.0
C703 C 0.82145 0.20815 0.50429 0.0
C704 C 0.82465 0.22108 0.48588 0.0
C705 C 0.85455 0.2639 0.48104 0.0
N706 N 0.84724 0.23707 0.51752 0.0
C707 C 0.87661 0.27912 0.51289 0.0
C708 C 0.10213 0.63815 0.08471 0.0
C709 C 0.12903 0.66394 0.07027 0.0
C710 C 0.10071 0.59923 0.08978 0.0
C711 C 0.12683 0.58587 0.08018 0.0
C712 C 0.15399 0.61173 0.06559 0.0
C713 C 0.15474 0.65041 0.0608 0.0
C714 C 0.0713 0.57243 0.1054 0.0
C715 C 0.18232 0.59856 0.05503 0.0
C716 C 0.15631 0.50784 0.10314 0.0
C717 C 0.12762 0.4683 0.09446 0.0
C718 C 0.15599 0.54623 0.09879 0.0
C719 C 0.12621 0.54505 0.08548 0.0
C720 C 0.09676 0.50516 0.07685 0.0
C721 C 0.09784 0.46724 0.08143 0.0
C722 C 0.18791 0.58817 0.10828 0.0
C723 C 0.06445 0.50262 0.06262 0.0
H724 H 0.08199 0.64824 0.09204 0.0
H725 H 0.17558 0.67008 0.0496 0.0
H726 H 0.04792 0.53912 0.10045 0.0
H727 H 0.09089 0.5691 0.11654 0.0
H728 H 0.05267 0.58709 0.11132 0.0
H729 H 0.20143 0.62219 0.04398 0.0
H730 H 0.20526 0.59583 0.06461 0.0
H731 H 0.16187 0.56606 0.04865 0.0
H732 H 0.17937 0.50896 0.11326 0.0
H733 H 0.07537 0.43678 0.07475 0.0
H734 H 0.17023 0.60256 0.11528 0.0
H735 H 0.20978 0.61216 0.0979 0.0
H736 H 0.20819 0.58335 0.11866 0.0
H737 H 0.044 0.5152 0.06851 0.0
H738 H 0.04281 0.46884 0.05764 0.0
H739 H 0.08204 0.52346 0.05061 0.0
C740 C 0.63742 0.10592 0.24744 0.0
C741 C 0.66444 0.13467 0.26116 0.0
C742 C 0.59862 0.10461 0.24228 0.0
C743 C 0.58664 0.13276 0.25105 0.0
C744 C 0.61361 0.16163 0.26499 0.0
C745 C 0.65216 0.16221 0.2699 0.0
C746 C 0.5706 0.0733 0.22739 0.0
C747 C 0.60191 0.19215 0.27465 0.0
C748 C 0.50967 0.161 0.22628 0.0
C749 C 0.47007 0.13396 0.23527 0.0
C750 C 0.54776 0.16068 0.23119 0.0
C751 C 0.54624 0.13262 0.24543 0.0
C752 C 0.50634 0.10499 0.25446 0.0
C753 C 0.46872 0.10599 0.24928 0.0
C754 C 0.58971 0.1906 0.22123 0.0
C755 C 0.50347 0.07456 0.26969 0.0
H756 H 0.64653 0.08436 0.24069 0.0
H757 H 0.6728 0.18448 0.28054 0.0
H758 H 0.53728 0.05151 0.23275 0.0
H759 H 0.5676 0.09162 0.21561 0.0
H760 H 0.58406 0.05293 0.22221 0.0
H761 H 0.62609 0.21218 0.28537 0.0
H762 H 0.59973 0.2143 0.26443 0.0
H763 H 0.56947 0.1733 0.28126 0.0
H764 H 0.51102 0.18265 0.21541 0.0
H765 H 0.43823 0.08483 0.25624 0.0
H766 H 0.60307 0.17134 0.21481 0.0
H767 H 0.61434 0.21332 0.23121 0.0
H768 H 0.58525 0.21001 0.2103 0.0
H769 H 0.51483 0.05244 0.26457 0.0
H770 H 0.4698 0.05454 0.27507 0.0
H771 H 0.52514 0.09358 0.28127 0.0
C772 C 0.53613 0.6365 0.41331 0.0
C773 C 0.53465 0.66317 0.42726 0.0
C774 C 0.49875 0.59738 0.40836 0.0
C775 C 0.45897 0.58467 0.41758 0.0
C776 C 0.45734 0.61127 0.43177 0.0
C777 C 0.49519 0.65017 0.43645 0.0
C778 C 0.50174 0.56979 0.39318 0.0
C779 C 0.4155 0.5988 0.44193 0.0
C780 C 0.35267 0.5069 0.39372 0.0
C781 C 0.34103 0.46737 0.40259 0.0
C782 C 0.39117 0.54521 0.39835 0.0
C783 C 0.41876 0.54398 0.41217 0.0
C784 C 0.40748 0.50413 0.42104 0.0
C785 C 0.36871 0.46628 0.41615 0.0
C786 C 0.40212 0.5871 0.38858 0.0
C787 C 0.43617 0.50157 0.43581 0.0
H788 H 0.56653 0.64618 0.4062 0.0
H789 H 0.49374 0.67051 0.44728 0.0
H790 H 0.49093 0.5365 0.39839 0.0
H791 H 0.47969 0.56659 0.38167 0.0
H792 H 0.53534 0.58377 0.38766 0.0
H793 H 0.41988 0.62272 0.45282 0.0
H794 H 0.39045 0.59632 0.43205 0.0
H795 H 0.40274 0.56633 0.44843 0.0
H796 H 0.33154 0.50805 0.3832 0.0
H797 H 0.36009 0.43584 0.42301 0.0
H798 H 0.43447 0.60098 0.38186 0.0
H799 H 0.40411 0.61145 0.39874 0.0
H800 H 0.37761 0.58237 0.37792 0.0
H801 H 0.46945 0.51355 0.43031 0.0
H802 H 0.42331 0.46787 0.44104 0.0
H803 H 0.43908 0.5229 0.44758 0.0
C804 C 0.84534 0.49302 0.60272 0.0
C805 C 0.87304 0.53282 0.59401 0.0
C806 C 0.84646 0.45517 0.59814 0.0
C807 C 0.87607 0.45714 0.58455 0.0
C808 C 0.90443 0.49727 0.57582 0.0
C809 C 0.90256 0.53465 0.58065 0.0
C810 C 0.81569 0.41295 0.60774 0.0
C811 C 0.93651 0.50064 0.5613 0.0
C812 C 0.90272 0.36583 0.58386 0.0
C813 C 0.87516 0.33894 0.56981 0.0
C814 C 0.90375 0.4047 0.58867 0.0
C815 C 0.87659 0.41692 0.5792 0.0
C816 C 0.84907 0.39017 0.56487 0.0
C817 C 0.8487 0.35153 0.56034 0.0
C818 C 0.93359 0.43247 0.60401 0.0
C819 C 0.81967 0.40215 0.55444 0.0
H820 H 0.82247 0.4913 0.61308 0.0
H821 H 0.92425 0.56532 0.57392 0.0
H822 H 0.79401 0.38852 0.59745 0.0
H823 H 0.83436 0.39952 0.61464 0.0
H824 H 0.79518 0.41709 0.61823 0.0
H825 H 0.95706 0.53447 0.55616 0.0
H826 H 0.95807 0.48917 0.56698 0.0
H827 H 0.9188 0.47928 0.54943 0.0
H828 H 0.92343 0.35647 0.59119 0.0
H829 H 0.82739 0.33104 0.54943 0.0
H830 H 0.9141 0.43506 0.6154 0.0
H831 H 0.95573 0.46596 0.59891 0.0
H832 H 0.95356 0.41901 0.60965 0.0
H833 H 0.79637 0.40396 0.56411 0.0
H834 H 0.80091 0.37828 0.5434 0.0
H835 H 0.83921 0.4348 0.54808 0.0
C836 C 0.492 0.84171 0.72677 0.0
C837 C 0.53128 0.86837 0.73606 0.0
C838 C 0.45379 0.84198 0.7315 0.0
C839 C 0.45485 0.86961 0.74584 0.0
C840 C 0.49447 0.89698 0.75513 0.0
C841 C 0.53223 0.89603 0.75013 0.0
C842 C 0.41215 0.81234 0.72127 0.0
C843 C 0.49686 0.92696 0.77047 0.0
C844 C 0.36294 0.89526 0.74784 0.0
C845 C 0.33573 0.86591 0.76135 0.0
C846 C 0.40206 0.89715 0.74277 0.0
C847 C 0.41419 0.86898 0.75141 0.0
C848 C 0.38703 0.8395 0.76514 0.0
C849 C 0.34816 0.83835 0.76996 0.0
C850 C 0.43028 0.9291 0.7281 0.0
C851 C 0.39886 0.80893 0.77465 0.0
H852 H 0.49095 0.82031 0.71585 0.0
H853 H 0.56249 0.91691 0.75731 0.0
H854 H 0.38735 0.7891 0.73106 0.0
H855 H 0.39878 0.83172 0.71498 0.0
H856 H 0.41702 0.7935 0.7102 0.0
H857 H 0.53043 0.9471 0.77594 0.0
H858 H 0.48528 0.94896 0.76543 0.0
H859 H 0.47513 0.90756 0.78197 0.0
H860 H 0.35371 0.91684 0.74119 0.0
H861 H 0.3274 0.81562 0.78044 0.0
H862 H 0.43368 0.91129 0.71621 0.0
H863 H 0.46344 0.95086 0.73362 0.0
H864 H 0.41672 0.94946 0.72304 0.0
H865 H 0.40146 0.78722 0.76433 0.0
H866 H 0.37452 0.78844 0.78524 0.0
H867 H 0.43112 0.82778 0.78141 0.0
C868 C 0.46248 0.35813 0.91249 0.0
C869 C 0.46364 0.33237 0.92694 0.0
C870 C 0.49993 0.39707 0.90742 0.0
C871 C 0.53944 0.41051 0.91701 0.0
C872 C 0.5408 0.38468 0.9316 0.0
C873 C 0.5029 0.34597 0.93639 0.0
C874 C 0.49725 0.42383 0.8918 0.0
C875 C 0.58233 0.39792 0.94215 0.0
C876 C 0.6468 0.48868 0.89397 0.0
C877 C 0.6576 0.52823 0.90263 0.0
C878 C 0.60818 0.45024 0.89836 0.0
C879 C 0.57959 0.45137 0.9117 0.0
C880 C 0.58998 0.49127 0.92031 0.0
C881 C 0.6289 0.52924 0.91569 0.0
C882 C 0.59822 0.4083 0.88889 0.0
C883 C 0.56022 0.49375 0.93456 0.0
H884 H 0.43224 0.34799 0.90517 0.0
H885 H 0.50412 0.32633 0.9476 0.0
H886 H 0.50711 0.45713 0.89674 0.0
H887 H 0.52018 0.42721 0.88065 0.0
H888 H 0.46395 0.40911 0.88588 0.0
H889 H 0.57786 0.3743 0.95319 0.0
H890 H 0.608 0.4007 0.93256 0.0
H891 H 0.59432 0.43041 0.94853 0.0
H892 H 0.66872 0.48759 0.88384 0.0
H893 H 0.63686 0.5597 0.92237 0.0
H894 H 0.56615 0.39386 0.88189 0.0
H895 H 0.59616 0.38435 0.89928 0.0
H896 H 0.62333 0.41315 0.87851 0.0
H897 H 0.52716 0.48113 0.92869 0.0
H898 H 0.57233 0.52753 0.93954 0.0
H899 H 0.55702 0.47292 0.94657 0.0
C900 C 0.27489 0.20445 0.19025 0.0
C901 C 0.26708 0.16315 0.18498 0.0
C902 C 0.25237 0.22305 0.18192 0.0
C903 C 0.22243 0.20039 0.16754 0.0
C904 C 0.21467 0.15873 0.16206 0.0
C905 C 0.23659 0.14022 0.1711 0.0
C906 C 0.26064 0.26696 0.18853 0.0
C907 C 0.18403 0.1342 0.1464 0.0
C908 C 0.13946 0.23431 0.15509 0.0
C909 C 0.16111 0.26431 0.14091 0.0
C910 C 0.15897 0.2131 0.16391 0.0
C911 C 0.20036 0.22107 0.1579 0.0
C912 C 0.2216 0.2503 0.14314 0.0
C913 C 0.20203 0.27215 0.13503 0.0
C914 C 0.13595 0.18322 0.17998 0.0
C915 C 0.26514 0.25872 0.13597 0.0
H916 H 0.29812 0.2219 0.20115 0.0
H917 H 0.23081 0.10835 0.16699 0.0
H918 H 0.27528 0.29122 0.17725 0.0
H919 H 0.22942 0.26504 0.19236 0.0
H920 H 0.28283 0.27895 0.20063 0.0
H921 H 0.18175 0.10225 0.14379 0.0
H922 H 0.15099 0.1286 0.14946 0.0
H923 H 0.1953 0.15393 0.13358 0.0
H924 H 0.1079 0.22854 0.15968 0.0
H925 H 0.2185 0.29501 0.1239 0.0
H926 H 0.1564 0.19575 0.19256 0.0
H927 H 0.13104 0.1503 0.17723 0.0
H928 H 0.10379 0.18024 0.18283 0.0
H929 H 0.29032 0.27474 0.14682 0.0
H930 H 0.27568 0.27981 0.12351 0.0
H931 H 0.26353 0.22745 0.13251 0.0
C932 C 0.93051 0.20638 0.30604 0.0
C933 C 0.89731 0.16466 0.31098 0.0
C934 C 0.97167 0.22487 0.31433 0.0
C935 C 0.97925 0.20162 0.32835 0.0
C936 C 0.94563 0.15954 0.3335 0.0
C937 C 0.90518 0.1412 0.3245 0.0
C938 C 0.00703 0.26926 0.30807 0.0
C939 C 0.95207 0.13437 0.34879 0.0
C940 C 0.0963 0.23563 0.34049 0.0
C941 C 0.10438 0.26475 0.35502 0.0
C942 C 0.05562 0.21473 0.33163 0.0
C943 C 0.02201 0.22207 0.33796 0.0
C944 C 0.02976 0.25041 0.35306 0.0
C945 C 0.07115 0.27202 0.3612 0.0
C946 C 0.04901 0.18586 0.3152 0.0
C947 C 0.99442 0.25808 0.36057 0.0
H948 H 0.9245 0.22425 0.29541 0.0
H949 H 0.87931 0.109 0.32836 0.0
H950 H 0.0165 0.29287 0.3196 0.0
H951 H 0.03647 0.26785 0.304 0.0
H952 H 0.99661 0.28175 0.29621 0.0
H953 H 0.92255 0.10217 0.3512 0.0
H954 H 0.97964 0.12917 0.34544 0.0
H955 H 0.96048 0.15341 0.36181 0.0
H956 H 0.12225 0.23033 0.33569 0.0
H957 H 0.07741 0.29423 0.3726 0.0
H958 H 0.04086 0.19893 0.30286 0.0
H959 H 0.02121 0.15266 0.3177 0.0
H960 H 0.07837 0.18338 0.31209 0.0
H961 H 0.98506 0.27453 0.35001 0.0
H962 H 0.00484 0.27849 0.37324 0.0
H963 H 0.96492 0.22651 0.36382 0.0
C964 C 0.86376 0.0953 0.50749 0.0
C965 C 0.84201 0.10296 0.52184 0.0
C966 C 0.84433 0.05494 0.49837 0.0
C967 C 0.80298 0.02121 0.50425 0.0
C968 C 0.78163 0.02853 0.51916 0.0
C969 C 0.80109 0.06963 0.52757 0.0
C970 C 0.86743 0.04881 0.48213 0.0
C971 C 0.73816 0.99302 0.52621 0.0
C972 C 0.72876 0.93052 0.47163 0.0
C973 C 0.73698 0.89719 0.47666 0.0
C974 C 0.75108 0.9715 0.48011 0.0
C975 C 0.78118 0.97871 0.49441 0.0
C976 C 0.78933 0.94494 0.49965 0.0
C977 C 0.76764 0.90471 0.49045 0.0
C978 C 0.74245 0.00706 0.47375 0.0
C979 C 0.82011 0.95095 0.51524 0.0
H980 H 0.89533 0.12133 0.50303 0.0
H981 H 0.78458 0.07556 0.53883 0.0
H982 H 0.87273 0.02096 0.48466 0.0
H983 H 0.84685 0.04098 0.46959 0.0
H984 H 0.89942 0.07828 0.47933 0.0
H985 H 0.72747 0.00309 0.53877 0.0
H986 H 0.71298 0.984 0.51538 0.0
H987 H 0.73997 0.96339 0.52948 0.0
H988 H 0.70537 0.92474 0.4608 0.0
H989 H 0.7737 0.8787 0.49438 0.0
H990 H 0.77353 0.03663 0.47002 0.0
H991 H 0.72763 0.01619 0.48513 0.0
H992 H 0.72026 0.997 0.46165 0.0
H993 H 0.85305 0.97863 0.51221 0.0
H994 H 0.82266 0.92136 0.51766 0.0
H995 H 0.80877 0.95898 0.52815 0.0
C996 C 0.79647 0.72559 0.637 0.0
C997 C 0.83769 0.73372 0.64255 0.0
C998 C 0.77711 0.74745 0.64529 0.0
C999 C 0.7989 0.77695 0.65991 0.0
C1000 C 0.84049 0.78503 0.66566 0.0
C1001 C 0.85977 0.76383 0.65665 0.0
C1002 C 0.73333 0.73892 0.6384 0.0
C1003 C 0.86407 0.81517 0.68159 0.0
C1004 C 0.76392 0.85876 0.67302 0.0
C1005 C 0.7338 0.83637 0.68707 0.0
C1006 C 0.78529 0.83973 0.66395 0.0
C1007 C 0.77738 0.79812 0.66958 0.0
C1008 C 0.74785 0.77603 0.68416 0.0
C1009 C 0.72582 0.79513 0.69251 0.0
C1010 C 0.81547 0.86363 0.64807 0.0
C1011 C 0.73951 0.73223 0.69094 0.0
H1012 H 0.77968 0.70262 0.62593 0.0
H1013 H 0.89157 0.76982 0.66099 0.0
H1014 H 0.7086 0.72347 0.64945 0.0
H1015 H 0.73497 0.77012 0.63477 0.0
H1016 H 0.72216 0.7173 0.62609 0.0
H1017 H 0.89611 0.81779 0.68438 0.0
H1018 H 0.86937 0.84819 0.67871 0.0
H1019 H 0.84384 0.80317 0.69426 0.0
H1020 H 0.76979 0.89059 0.66878 0.0
H1021 H 0.70285 0.77812 0.70355 0.0
H1022 H 0.8037 0.8435 0.63537 0.0
H1023 H 0.84855 0.86915 0.65098 0.0
H1024 H 0.81786 0.89559 0.64533 0.0
H1025 H 0.72433 0.70763 0.67981 0.0
H1026 H 0.71775 0.72076 0.70319 0.0
H1027 H 0.77075 0.73403 0.69461 0.0
C1028 C 0.92794 0.72337 0.86166 0.0
C1029 C 0.89512 0.7317 0.85588 0.0
C1030 C 0.96942 0.74513 0.85361 0.0
C1031 C 0.97775 0.7748 0.83899 0.0
C1032 C 0.94458 0.78323 0.83306 0.0
C1033 C 0.90378 0.76207 0.84182 0.0
C1034 C 0.00426 0.73619 0.86069 0.0
C1035 C 0.95181 0.81362 0.81715 0.0
C1036 C 0.09505 0.85584 0.82622 0.0
C1037 C 0.10272 0.83339 0.81216 0.0
C1038 C 0.05455 0.83708 0.8352 0.0
C1039 C 0.02065 0.79564 0.82948 0.0
C1040 C 0.02806 0.77342 0.81494 0.0
C1041 C 0.06927 0.79227 0.80668 0.0
C1042 C 0.04831 0.86111 0.85104 0.0
C1043 C 0.99243 0.72979 0.80808 0.0
H1044 H 0.92132 0.70022 0.8727 0.0
H1045 H 0.87821 0.76825 0.83731 0.0
H1046 H 0.01353 0.72054 0.84972 0.0
H1047 H 0.03393 0.76724 0.86438 0.0
H1048 H 0.9934 0.71459 0.873 0.0
H1049 H 0.92272 0.81674 0.81428 0.0
H1050 H 0.97979 0.84643 0.82011 0.0
H1051 H 0.95998 0.80148 0.80452 0.0
H1052 H 0.12111 0.88758 0.8305 0.0
H1053 H 0.07512 0.77519 0.79563 0.0
H1054 H 0.03941 0.84086 0.86371 0.0
H1055 H 0.02111 0.86711 0.84799 0.0
H1056 H 0.07806 0.89284 0.85389 0.0
H1057 H 0.98248 0.70517 0.81922 0.0
H1058 H 0.00279 0.71808 0.79593 0.0
H1059 H 0.9633 0.73198 0.80423 0.0
C1060 C 0.14128 0.92364 0.02519 0.0
C1061 C 0.15328 0.89336 0.01939 0.0
C1062 C 0.16022 0.96528 0.01723 0.0
C1063 C 0.19103 0.97642 0.00285 0.0
C1064 C 0.20209 0.94541 0.99651 0.0
C1065 C 0.18349 0.90445 0.00502 0.0
C1066 C 0.14834 0.9978 0.02464 0.0
C1067 C 0.23406 0.9557 0.98091 0.0
C1068 C 0.21705 0.07252 0.97162 0.0
C1069 C 0.25818 0.10386 0.97815 0.0
C1070 C 0.1945 0.03095 0.97964 0.0
C1071 C 0.21309 0.02101 0.99485 0.0
C1072 C 0.25386 0.05316 0.00194 0.0
C1073 C 0.27619 0.09401 0.99334 0.0
C1074 C 0.1516 0.99721 0.97142 0.0
C1075 C 0.27427 0.04418 0.01842 0.0
H1076 H 0.11819 0.91533 0.03638 0.0
H1077 H 0.19258 0.88106 0.00037 0.0
H1078 H 0.17771 0.02624 0.0305 0.0
H1079 H 0.13635 0.0101 0.01331 0.0
H1080 H 0.12295 0.98363 0.03554 0.0
H1081 H 0.23686 0.927 0.9768 0.0
H1082 H 0.22398 0.96737 0.96869 0.0
H1083 H 0.26673 0.98224 0.98513 0.0
H1084 H 0.20318 0.07993 0.95979 0.0
H1085 H 0.30777 0.11832 -0.00146 0.0
H1086 H 0.12592 0.98403 0.98218 0.0
H1087 H 0.15458 0.96952 0.96603 0.0
H1088 H 0.14091 0.01058 0.95998 0.0
H1089 H 0.25088 0.03174 0.03009 0.0
H1090 H 0.30447 0.07369 0.02308 0.0
H1091 H 0.28239 0.01862 0.01491 0.0
C1092 C 0.19645 0.35144 0.06103 0.0
C1093 C 0.15642 0.31885 0.06809 0.0
C1094 C 0.21602 0.34316 0.04591 0.0
C1095 C 0.19522 0.30125 0.03778 0.0
C1096 C 0.15391 0.2689 0.04427 0.0
C1097 C 0.13492 0.27816 0.05926 0.0
C1098 C 0.25986 0.37862 0.03921 0.0
C1099 C 0.13072 0.22374 0.03599 0.0
C1100 C 0.22976 0.27918 0.9913 0.0
C1101 C 0.25532 0.26101 0.99664 0.0
C1102 C 0.2111 0.29383 0.00453 0.0
C1103 C 0.21793 0.28989 0.02351 0.0
C1104 C 0.24465 0.27267 0.02896 0.0
C1105 C 0.26316 0.25861 0.01545 0.0
C1106 C 0.18319 0.31247 0.99822 0.0
C1107 C 0.25256 0.2678 0.04909 0.0
H1108 H 0.21328 0.38307 0.06766 0.0
H1109 H 0.10388 0.25276 0.06449 0.0
H1110 H 0.28507 0.36991 0.0426 0.0
H1111 H 0.25965 0.3819 0.02398 0.0
H1112 H 0.2694 0.41065 0.04561 0.0
H1113 H 0.09757 0.20323 0.04182 0.0
H1114 H 0.12794 0.22561 0.0208 0.0
H1115 H 0.1499 0.20737 0.03862 0.0
H1116 H 0.2238 0.28142 0.97677 0.0
H1117 H 0.283 0.24479 0.0197 0.0
H1118 H 0.19433 0.34462 0.00478 0.0
H1119 H 0.149 0.2907 0.00259 0.0
H1120 H 0.18385 0.31641 0.98299 0.0
H1121 H 0.26581 0.29956 0.05628 0.0
H1122 H 0.2756 0.25549 0.051 0.0
H1123 H 0.22129 0.24483 0.05587 0.0
C1124 C 0.85432 0.20827 0.23167 0.0
C1125 C 0.84461 0.16673 0.23772 0.0
C1126 C 0.88293 0.22869 0.21685 0.0
C1127 C 0.90238 0.20714 0.20795 0.0
C1128 C 0.89147 0.16462 0.21352 0.0
C1129 C 0.86263 0.14489 0.22827 0.0
C1130 C 0.89352 0.2739 0.21116 0.0
C1131 C 0.91158 0.14057 0.20437 0.0
C1132 C 0.95607 0.24209 0.16098 0.0
C1133 C 0.00034 0.26528 0.16577 0.0
C1134 C 0.92365 0.22432 0.17459 0.0
C1135 C 0.93583 0.22963 0.19342 0.0
C1136 C 0.98037 0.25419 0.19836 0.0
C1137 C 0.0121 0.27187 0.18447 0.0
C1138 C 0.87646 0.1987 0.16881 0.0
C1139 C 0.99461 0.26044 0.21832 0.0
H1140 H 0.84056 0.22545 0.23882 0.0
H1141 H 0.85529 0.11275 0.23273 0.0
H1142 H 0.92821 0.29738 0.2142 0.0
H1143 H 0.88887 0.27509 0.19607 0.0
H1144 H 0.87305 0.28474 0.21847 0.0
H1145 H 0.89824 0.10699 0.20983 0.0
H1146 H 0.90594 0.13868 0.18925 0.0
H1147 H 0.94733 0.15861 0.2066 0.0
H1148 H 0.94668 0.23714 0.14655 0.0
H1149 H 0.04621 0.28986 0.18829 0.0
H1150 H 0.85718 0.21084 0.17616 0.0
H1151 H 0.86277 0.16399 0.17267 0.0
H1152 H 0.87225 0.20059 0.15371 0.0
H1153 H 0.97755 0.27417 0.22628 0.0
H1154 H 0.03029 0.28239 0.21988 0.0
H1155 H 0.98568 0.22845 0.22456 0.0
C1156 C 0.71595 0.95853 0.32747 0.0
C1157 C 0.73578 0.00247 0.33271 0.0
C1158 C 0.70173 0.9254 0.34076 0.0
C1159 C 0.70779 0.93655 0.35971 0.0
C1160 C 0.72643 0.98071 0.3651 0.0
C1161 C 0.74005 0.01314 0.35153 0.0
C1162 C 0.68154 0.87863 0.33452 0.0
C1163 C 0.73352 0.99388 0.38519 0.0
C1164 C 0.64864 0.85293 0.39736 0.0
C1165 C 0.68124 0.84434 0.4034 0.0
C1166 C 0.65622 0.88172 0.38269 0.0
C1167 C 0.69739 0.90253 0.37392 0.0
C1168 C 0.72977 0.89267 0.37944 0.0
C1169 C 0.72125 0.86358 0.39404 0.0
C1170 C 0.62076 0.89112 0.37704 0.0
C1171 C 0.77414 0.91426 0.37043 0.0
H1172 H 0.71223 0.94997 0.31295 0.0
H1173 H 0.7552 0.04699 0.3557 0.0
H1174 H 0.70332 0.8657 0.33819 0.0
H1175 H 0.65011 0.85818 0.3417 0.0
H1176 H 0.67577 0.87511 0.31938 0.0
H1177 H 0.74627 0.02932 0.3871 0.0
H1178 H 0.70258 0.97567 0.39297 0.0
H1179 H 0.75705 0.9855 0.39135 0.0
H1180 H 0.61756 0.83819 0.40444 0.0
H1181 H 0.74665 0.8571 0.39849 0.0
H1182 H 0.61554 0.8873 0.36189 0.0
H1183 H 0.63075 0.92536 0.38046 0.0
H1184 H 0.58939 0.8694 0.38408 0.0
H1185 H 0.77082 0.90937 0.35527 0.0
H1186 H 0.79497 0.90146 0.37574 0.0
H1187 H 0.791 0.94988 0.373 0.0
C1188 C 0.86121 0.72085 0.56034 0.0
C1189 C 0.84015 0.68036 0.56933 0.0
C1190 C 0.84145 0.72979 0.54554 0.0
C1191 C 0.79976 0.69737 0.53944 0.0
C1192 C 0.77923 0.65573 0.54781 0.0
C1193 C 0.79961 0.64773 0.5627 0.0
C1194 C 0.86439 0.77466 0.53698 0.0
C1195 C 0.73496 0.6202 0.54154 0.0
C1196 C 0.73181 0.73975 0.51685 0.0
C1197 C 0.73919 0.7365 0.49805 0.0
C1198 C 0.75038 0.72597 0.53046 0.0
C1199 C 0.7767 0.7082 0.52512 0.0
C1200 C 0.78294 0.70329 0.50618 0.0
C1201 C 0.76422 0.71763 0.49285 0.0
C1202 C 0.74307 0.73184 0.55055 0.0
C1203 C 0.81043 0.68408 0.49999 0.0
H1204 H 0.8926 0.74628 0.56524 0.0
H1205 H 0.78306 0.61628 0.56948 0.0
H1206 H 0.86682 0.77222 0.52181 0.0
H1207 H 0.84523 0.79109 0.53953 0.0
H1208 H 0.89767 0.79542 0.54265 0.0
H1209 H 0.72531 0.58849 0.54827 0.0
H1210 H 0.71016 0.62951 0.54485 0.0
H1211 H 0.7346 0.61597 0.52635 0.0
H1212 H 0.71241 0.75415 0.52099 0.0
H1213 H 0.76985 0.71473 0.47834 0.0
H1214 H 0.77454 0.7552 0.55709 0.0
H1215 H 0.73012 0.70047 0.55802 0.0
H1216 H 0.72004 0.74419 0.55238 0.0
H1217 H 0.8448 0.70595 0.50411 0.0
H1218 H 0.80924 0.67931 0.48479 0.0
H1219 H 0.79937 0.65225 0.50684 0.0
C1220 C 0.13432 0.85515 0.72988 0.0
C1221 C 0.15424 0.83414 0.7385 0.0
C1222 C 0.10563 0.83578 0.71503 0.0
C1223 C 0.09686 0.79454 0.70852 0.0
C1224 C 0.11815 0.77391 0.71663 0.0
C1225 C 0.14652 0.7939 0.73156 0.0
C1226 C 0.08348 0.85879 0.70676 0.0
C1227 C 0.10985 0.73008 0.70993 0.0
C1228 C 0.98788 0.72713 0.68472 0.0
C1229 C -0.00045 0.73574 0.66605 0.0
C1230 C 0.01944 0.74517 0.69867 0.0
C1231 C 0.06374 0.77224 0.69383 0.0
C1232 C 0.07593 0.77982 0.67501 0.0
C1233 C 0.04367 0.76155 0.66133 0.0
C1234 C 0.00518 0.73641 0.71861 0.0
C1235 C 0.1229 0.80821 0.66933 0.0
H1236 H 0.14007 0.88627 0.73505 0.0
H1237 H 0.16177 0.77738 0.73807 0.0
H1238 H 0.08908 0.8625 0.69164 0.0
H1239 H 0.0478 0.83897 0.70897 0.0
H1240 H 0.09525 0.89153 0.7129 0.0
H1241 H 0.13139 0.71992 0.71678 0.0
H1242 H 0.07551 0.70504 0.71271 0.0
H1243 H 0.11487 0.73083 0.69479 0.0
H1244 H 0.9539 0.70711 0.68849 0.0
H1245 H 0.05301 0.76816 0.64693 0.0
H1246 H 0.01256 0.76733 0.72549 0.0
H1247 H 0.02348 0.7233 0.72606 0.0
H1248 H 0.96978 0.71294 0.72004 0.0
H1249 H 0.13486 0.84216 0.67396 0.0
H1250 H 0.12732 0.80835 0.65414 0.0
H1251 H 0.14353 0.79687 0.67608 0.0
C1252 C 0.28201 0.13525 0.89447 0.0
C1253 C 0.32076 0.15351 0.90475 0.0
C1254 C 0.27447 0.10604 0.88004 0.0
C1255 C 0.30677 0.09531 0.87549 0.0
C1256 C 0.34686 0.11522 0.88514 0.0
C1257 C 0.35329 0.14388 0.89977 0.0
C1258 C 0.23111 0.08526 0.87019 0.0
C1259 C 0.38236 0.10516 0.88041 0.0
C1260 C 0.26227 0.98467 0.85294 0.0
C1261 C 0.26728 0.99562 0.83415 0.0
C1262 C 0.27674 0.01702 0.86659 0.0
C1263 C 0.29715 0.06138 0.86131 0.0
C1264 C 0.30441 0.07274 0.84239 0.0
C1265 C 0.28915 0.03969 0.82902 0.0
C1266 C 0.26814 0.00358 0.88663 0.0
C1267 C 0.32664 0.1197 0.83625 0.0
H1268 H 0.25666 0.1425 0.89809 0.0
H1269 H 0.38343 0.15795 0.90754 0.0
H1270 H 0.2361 0.09087 0.8551 0.0
H1271 H 0.21368 0.04951 0.87244 0.0
H1272 H 0.20997 0.0981 0.87505 0.0
H1273 H 0.41312 0.12657 0.88793 0.0
H1274 H 0.37157 0.07082 0.88398 0.0
H1275 H 0.38902 0.10893 0.86535 0.0
H1276 H 0.24558 0.9507 0.85702 0.0
H1277 H 0.29358 0.04844 0.81452 0.0
H1278 H 0.24445 0.01224 0.89238 0.0
H1279 H 0.29854 0.02134 0.8948 0.0
H1280 H 0.25484 0.96804 0.88849 0.0
H1281 H 0.30513 0.13341 0.83906 0.0
H1282 H 0.33446 0.12328 0.82127 0.0
H1283 H 0.35717 0.1394 0.84415 0.0
C1284 C 0.64611 0.79288 0.76609 0.0
C1285 C 0.67853 0.83421 0.76009 0.0
C1286 C 0.65382 0.77178 0.78078 0.0
C1287 C 0.69493 0.79241 0.78961 0.0
C1288 C 0.72715 0.83474 0.7841 0.0
C1289 C 0.71851 0.85517 0.76948 0.0
C1290 C 0.61854 0.72682 0.78642 0.0
C1291 C 0.77144 0.85783 0.79317 0.0
C1292 C 0.71315 0.75605 0.83636 0.0
C1293 C 0.73343 0.7322 0.83139 0.0
C1294 C 0.6989 0.77449 0.82288 0.0
C1295 C 0.70533 0.76916 0.804 0.0
C1296 C 0.72442 0.74389 0.79888 0.0
C1297 C 0.73811 0.72556 0.81264 0.0
C1298 C 0.67829 0.80088 0.82885 0.0
C1299 C 0.73189 0.73756 0.77886 0.0
H1300 H 0.61507 0.77638 0.75899 0.0
H1301 H 0.74378 0.88714 0.76506 0.0
H1302 H 0.62896 0.70279 0.78321 0.0
H1303 H 0.61295 0.72554 0.80153 0.0
H1304 H 0.58728 0.71677 0.7792 0.0
H1305 H 0.79223 0.89138 0.78778 0.0
H1306 H 0.76795 0.85964 0.80831 0.0
H1307 H 0.78843 0.83913 0.79079 0.0
H1308 H 0.7091 0.76105 0.85082 0.0
H1309 H 0.7536 0.70706 0.80869 0.0
H1310 H 0.64692 0.78952 0.82156 0.0
H1311 H 0.6999 0.83555 0.82509 0.0
H1312 H 0.67231 0.79886 0.84397 0.0
H1313 H 0.70106 0.72458 0.77097 0.0
H1314 H 0.7448 0.71496 0.77716 0.0
H1315 H 0.75542 0.76942 0.77266 0.0
C1316 C 0.8443 0.64539 0.93573 0.0
C1317 C 0.83661 0.67786 0.92872 0.0
C1318 C 0.87226 0.65377 0.95082 0.0
C1319 C 0.89317 0.69564 0.959 0.0
C1320 C 0.88401 0.72787 0.95254 0.0
C1321 C 0.8557 0.71853 0.93757 0.0
C1322 C 0.88088 0.61844 0.95749 0.0
C1323 C 0.90577 0.77299 0.96086 0.0
C1324 C 0.94936 0.71771 0.00559 0.0
C1325 C 0.99317 0.73616 0.00033 0.0
C1326 C 0.91617 0.70295 0.99229 0.0
C1327 C 0.92715 0.70707 0.97333 0.0
C1328 C 0.97117 0.72458 0.96797 0.0
C1329 C 0.00362 0.73875 0.98154 0.0
C1330 C 0.86953 0.68401 0.99851 0.0
C1331 C 0.98418 0.72966 0.94786 0.0
H1332 H 0.82962 0.61379 0.92908 0.0
H1333 H 0.84986 0.74383 0.93238 0.0
H1334 H 0.91491 0.62744 0.95417 0.0
H1335 H 0.87718 0.61495 0.9727 0.0
H1336 H 0.85865 0.58644 0.951 0.0
H1337 H 0.89309 0.79345 0.95501 0.0
H1338 H 0.90096 0.77103 0.97604 0.0
H1339 H 0.94136 0.78949 0.95829 0.0
H1340 H 0.94098 0.71532 0.0201 0.0
H1341 H 0.03735 0.75278 0.97735 0.0
H1342 H 0.84874 0.65186 0.99191 0.0
H1343 H 0.85695 0.70564 0.99412 0.0
H1344 H 0.8661 0.67998 0.01374 0.0
H1345 H 0.96586 0.69795 0.94062 0.0
H1346 H 0.01958 0.74213 0.94602 0.0
H1347 H 0.97583 0.75259 0.94108 0.0
C1348 C 0.14348 0.85923 0.10345 0.0
C1349 C 0.16485 0.84261 0.09272 0.0
C1350 C 0.16491 0.88849 0.1179 0.0
C1351 C 0.20867 0.90106 0.12196 0.0
C1352 C 0.22979 0.88273 0.11188 0.0
C1353 C 0.20771 0.85388 0.09729 0.0
C1354 C 0.14127 0.90746 0.12827 0.0
C1355 C 0.27621 0.89484 0.11604 0.0
C1356 C 0.27312 0.01236 0.14418 0.0
C1357 C 0.26926 0.00162 0.16297 0.0
C1358 C 0.2549 0.97981 0.13063 0.0
C1359 C 0.23279 0.93546 0.136 0.0
C1360 C 0.23068 0.92439 0.15489 0.0
C1361 C 0.24871 0.95763 0.16817 0.0
C1362 C 0.25753 0.99293 0.11062 0.0
C1363 C 0.20797 0.87747 0.16111 0.0
H1364 H 0.11032 0.85067 0.10017 0.0
H1365 H 0.22451 0.84111 0.08917 0.0
H1366 H 0.14213 0.90223 0.14332 0.0
H1367 H 0.15783 0.94315 0.12593 0.0
H1368 H 0.10674 0.89295 0.1239 0.0
H1369 H 0.2864 0.87441 0.10826 0.0
H1370 H 0.29838 0.92945 0.11234 0.0
H1371 H 0.28031 0.89145 0.13102 0.0
H1372 H 0.28903 0.04627 0.14005 0.0
H1373 H 0.24598 0.94908 0.18268 0.0
H1374 H 0.22436 0.98258 0.10536 0.0
H1375 H 0.27092 0.97637 0.1021 0.0
H1376 H 0.27816 0.02867 0.10864 0.0
H1377 H 0.17245 0.86237 0.15868 0.0
H1378 H 0.21336 0.87432 0.17601 0.0
H1379 H 0.21955 0.85872 0.15297 0.0
C1380 C 0.35261 0.20488 0.26504 0.0
C1381 C 0.32033 0.1641 0.25846 0.0
C1382 C 0.34439 0.225 0.27997 0.0
C1383 C 0.30289 0.20393 0.28846 0.0
C1384 C 0.27074 0.16213 0.28234 0.0
C1385 C 0.27989 0.14267 0.26748 0.0
C1386 C 0.3796 0.26943 0.28625 0.0
C1387 C 0.22604 0.13862 0.29102 0.0
C1388 C 0.28378 0.23816 0.33559 0.0
C1389 C 0.26443 0.26301 0.33084 0.0
C1390 C 0.29779 0.21985 0.32193 0.0
C1391 C 0.29206 0.22634 0.3031 0.0
C1392 C 0.27373 0.25243 0.29821 0.0
C1393 C 0.26027 0.27058 0.31215 0.0
C1394 C 0.31758 0.19256 0.32765 0.0
C1395 C 0.26701 0.26001 0.27826 0.0
H1396 H 0.384 0.22174 0.25823 0.0
H1397 H 0.25472 0.11111 0.2626 0.0
H1398 H 0.36949 0.29383 0.28337 0.0
H1399 H 0.38456 0.26949 0.30137 0.0
H1400 H 0.41112 0.27987 0.27919 0.0
H1401 H 0.20538 0.10548 0.2852 0.0
H1402 H 0.22881 0.13574 0.30615 0.0
H1403 H 0.20932 0.15764 0.28881 0.0
H1404 H 0.28738 0.23237 0.35 0.0
H1405 H 0.24547 0.28983 0.30835 0.0
H1406 H 0.34933 0.20423 0.32064 0.0
H1407 H 0.29595 0.15828 0.32334 0.0
H1408 H 0.32265 0.19326 0.34281 0.0
H1409 H 0.29814 0.27343 0.27057 0.0
H1410 H 0.25423 0.28278 0.27678 0.0
H1411 H 0.24368 0.22858 0.27168 0.0
C1412 C 0.14264 0.27876 0.43691 0.0
C1413 C 0.16173 0.31912 0.42782 0.0
C1414 C 0.11411 0.26984 0.45177 0.0
C1415 C 0.10467 0.30217 0.45783 0.0
C1416 C 0.12545 0.3437 0.44937 0.0
C1417 C 0.15367 0.35168 0.43443 0.0
C1418 C 0.09255 0.22509 0.46043 0.0
C1419 C 0.11651 0.37912 0.4556 0.0
C1420 C 0.99451 0.25958 0.48063 0.0
C1421 C 0.00538 0.26322 0.49941 0.0
C1422 C 0.02672 0.27326 0.46696 0.0
C1423 C 0.07089 0.29131 0.47221 0.0
C1424 C 0.08227 0.29657 0.49114 0.0
C1425 C 0.04934 0.28232 0.50453 0.0
C1426 C 0.01331 0.26702 0.4469 0.0
C1427 C 0.12906 0.31608 0.49724 0.0
H1428 H 0.14873 0.2534 0.43202 0.0
H1429 H 0.16831 0.38303 0.42757 0.0
H1430 H 0.09757 0.22776 0.4756 0.0
H1431 H 0.05692 0.20841 0.45794 0.0
H1432 H 0.10523 0.20444 0.45479 0.0
H1433 H 0.13835 0.41079 0.44879 0.0
H1434 H 0.08231 0.36957 0.45234 0.0
H1435 H 0.12053 0.38354 0.47078 0.0
H1436 H 0.96065 0.24499 0.47656 0.0
H1437 H 0.05806 0.28552 0.51902 0.0
H1438 H 0.02157 0.24374 0.44039 0.0
H1439 H 0.03145 0.29831 0.43934 0.0
H1440 H 0.97786 0.25441 0.44512 0.0
H1441 H 0.1417 0.29433 0.49312 0.0
H1442 H 0.13279 0.321 0.51242 0.0
H1443 H 0.1496 0.34787 0.49032 0.0
C1444 C 0.76183 0.04413 0.67079 0.0
C1445 C 0.73707 0.00029 0.66548 0.0
C1446 C 0.78104 0.07736 0.65756 0.0
C1447 C 0.77561 0.06641 0.63859 0.0
C1448 C 0.7495 0.02237 0.63313 0.0
C1449 C 0.7304 0.98984 0.64665 0.0
C1450 C 0.80826 0.12401 0.66388 0.0
C1451 C 0.74305 0.0094 0.61301 0.0
C1452 C 0.80049 0.1503 0.60101 0.0
C1453 C 0.84132 0.15822 0.59477 0.0
C1454 C 0.77935 0.12174 0.61577 0.0
C1455 C 0.79939 0.10046 0.6244 0.0
C1456 C 0.84133 0.10972 0.61871 0.0
C1457 C 0.86186 0.13861 0.60404 0.0
C1458 C 0.73482 0.113 0.62161 0.0
C1459 C 0.86378 0.08763 0.62756 0.0
H1460 H 0.76689 0.05252 0.68533 0.0
H1461 H 0.71122 0.95608 0.64242 0.0
H1462 H 0.84283 0.1365 0.6601 0.0
H1463 H 0.79762 0.14488 0.65682 0.0
H1464 H 0.80629 0.12743 0.67904 0.0
H1465 H 0.72002 0.97405 0.61105 0.0
H1466 H 0.73054 0.02798 0.60536 0.0
H1467 H 0.77478 0.01748 0.60674 0.0
H1468 H 0.78434 0.16535 0.59402 0.0
H1469 H 0.89346 0.14459 0.59944 0.0
H1470 H 0.73373 0.11667 0.63678 0.0
H1471 H 0.71012 0.07895 0.61813 0.0
H1472 H 0.72557 0.1352 0.61472 0.0
H1473 H 0.86554 0.09237 0.64274 0.0
H1474 H 0.8973 0.10012 0.62218 0.0
H1475 H 0.84466 0.05205 0.62494 0.0
loop_
_geom_bond_atom_site_label_1
_geom_bond_atom_site_label_2
_geom_bond_distance
_geom_bond_site_symmetry_2
_ccdc_geom_bond_type
Co0 O2 2.143 . S
Co0 O8 2.074 . S
Co0 O11 2.093 . S
Co0 O24 2.097 . S
Co0 N41 2.151 . S
Co0 N49 2.214 . S
Co1 O2 2.160 . S
Co1 O7 2.058 . S
Co1 O17 2.057 . S
Co1 O32 2.037 . S
Co1 N36 2.145 . S
Co1 N57 2.257 . S
O2 Co0 2.143 . S
O2 Co1 2.160 . S
C3 O4 1.278 . S
C3 O11 1.224 . S
O4 C3 1.278 . S
C5 O6 1.245 . S
C5 O17 1.232 . S
O6 C5 1.245 . S
O7 Co1 2.058 . S
O7 C33 1.269 . S
O8 Co0 2.074 . S
O8 C33 1.257 . S
H9 C34 0.930 . S
H10 C40 0.930 . S
O11 Co0 2.093 . S
O11 C3 1.224 . S
H12 C44 0.934 1_655 S
H13 C46 0.930 . S
H14 C47 0.930 . S
H15 C45 0.929 . S
H16 C48 0.928 . S
O17 Co1 2.057 . S
O17 C5 1.232 . S
H18 C37 0.929 . S
H19 C38 0.929 . S
H20 C50 0.931 . S
H21 C42 0.929 . S
H22 C51 0.930 . S
H23 C43 0.931 . S
O24 Co0 2.097 . S
O24 C52 1.214 . S
H25 C53 0.929 . S
H26 C54 0.929 . S
H27 C55 0.930 . S
H28 C56 0.929 . S
H29 C58 0.930 . S
H30 C35 0.930 . S
H31 C39 0.930 . S
O32 Co1 2.037 . S
O32 C52 1.234 . S
C33 O7 1.269 . S
C33 O8 1.257 . S
C34 H9 0.930 . S
C34 C37 1.388 . S
C34 C39 1.418 . S
C35 H30 0.930 . S
C35 C38 1.404 . S
C35 C39 1.353 . S
N36 Co1 2.145 . S
N36 C37 1.397 . S
N36 C38 1.334 . S
C37 H18 0.929 . S
C37 C34 1.388 . S
C37 N36 1.397 . S
C38 H19 0.929 . S
C38 C35 1.404 . S
C38 N36 1.334 . S
C39 H31 0.930 . S
C39 C34 1.418 . S
C39 C35 1.353 . S
C40 H10 0.930 . S
C40 N41 1.330 . S
C40 C42 1.446 1_455 S
N41 Co0 2.151 . S
N41 C40 1.330 . S
N41 C45 1.418 . S
C42 H21 0.929 . S
C42 C40 1.446 1_655 S
C42 C43 1.332 . S
C43 H23 0.931 . S
C43 C42 1.332 . S
C43 C44 1.267 1_655 S
C44 H12 0.934 1_455 S
C44 C43 1.267 1_455 S
C44 C45 1.251 . S
C45 H15 0.929 . S
C45 N41 1.418 . S
C45 C44 1.251 . S
C46 H13 0.930 . S
C46 C48 1.406 . S
C46 C51 1.261 . S
C47 H14 0.930 . S
C47 N49 1.325 . S
C47 C50 1.357 . S
C48 H16 0.928 . S
C48 C46 1.406 . S
C48 N49 1.261 . S
N49 Co0 2.214 . S
N49 C47 1.325 . S
N49 C48 1.261 . S
C50 H20 0.931 . S
C50 C47 1.357 . S
C50 C51 1.312 . S
C51 H22 0.930 . S
C51 C46 1.261 . S
C51 C50 1.312 . S
C52 O24 1.214 . S
C52 O32 1.234 . S
C53 H25 0.929 . S
C53 C56 1.391 . S
C53 C58 1.391 . S
C54 H26 0.929 . S
C54 C55 1.390 . S
C54 N57 1.391 . S
C55 H27 0.930 . S
C55 C54 1.390 . S
C55 C56 1.392 . S
C56 H28 0.929 . S
C56 C53 1.391 . S
C56 C55 1.392 . S
N57 Co1 2.257 . S
N57 C54 1.391 . S
N57 C58 1.388 . S
C58 H29 0.930 . S
C58 C53 1.391 . S
C58 N57 1.388 . S
Co59 O61 2.143 . S
Co59 O67 2.074 . S
Co59 O70 2.093 . S
Co59 O83 2.097 . S
Co59 N100 2.151 . S
Co59 N108 2.214 . S
Co60 O61 2.160 . S
Co60 O66 2.058 . S
Co60 O76 2.057 . S
Co60 O91 2.037 . S
Co60 N95 2.145 . S
Co60 N116 2.257 . S
O61 Co59 2.143 . S
O61 Co60 2.160 . S
C62 O63 1.278 . S
C62 O70 1.224 . S
O63 C62 1.278 . S
C64 O65 1.245 . S
C64 O76 1.232 . S
O65 C64 1.245 . S
O66 Co60 2.058 . S
O66 C92 1.269 . S
O67 Co59 2.074 . S
O67 C92 1.257 . S
H68 C93 0.930 . S
H69 C99 0.930 . S
O70 Co59 2.093 . S
O70 C62 1.224 . S
H71 C103 0.920 1_565 S
H72 C105 0.930 . S
H73 C106 0.930 . S
H74 C104 0.929 . S
H75 C107 0.928 . S
O76 Co60 2.057 . S
O76 C64 1.232 . S
H77 C96 0.929 . S
H78 C97 0.929 . S
H79 C109 0.931 . S
H80 C101 0.929 . S
H81 C110 0.930 . S
H82 C102 0.931 . S
O83 Co59 2.097 . S
O83 C111 1.214 . S
H84 C112 0.929 . S
H85 C113 0.929 . S
H86 C114 0.930 . S
H87 C115 0.929 . S
H88 C117 0.930 . S
H89 C94 0.930 . S
H90 C98 0.930 . S
O91 Co60 2.037 . S
O91 C111 1.234 . S
C92 O66 1.269 . S
C92 O67 1.257 . S
C93 H68 0.930 . S
C93 C96 1.388 . S
C93 C98 1.418 . S
C94 H89 0.930 . S
C94 C97 1.404 . S
C94 C98 1.353 . S
N95 Co60 2.145 . S
N95 C96 1.397 . S
N95 C97 1.334 . S
C96 H77 0.929 . S
C96 C93 1.388 . S
C96 N95 1.397 . S
C97 H78 0.929 . S
C97 C94 1.404 . S
C97 N95 1.334 . S
C98 H90 0.930 . S
C98 C93 1.418 . S
C98 C94 1.353 . S
C99 H69 0.930 . S
C99 N100 1.330 . S
C99 C101 1.446 1_545 S
N100 Co59 2.151 . S
N100 C99 1.330 . S
N100 C104 1.418 . S
C101 H80 0.929 . S
C101 C99 1.446 1_565 S
C101 C102 1.332 . S
C102 H82 0.931 . S
C102 C101 1.332 . S
C102 C103 1.267 1_565 S
C103 H71 0.920 1_545 S
C103 C102 1.267 1_545 S
C103 C104 1.251 . S
C104 H74 0.929 . S
C104 N100 1.418 . S
C104 C103 1.251 . S
C105 H72 0.930 . S
C105 C107 1.406 . S
C105 C110 1.261 . S
C106 H73 0.930 . S
C106 N108 1.325 . S
C106 C109 1.357 . S
C107 H75 0.928 . S
C107 C105 1.406 . S
C107 N108 1.261 . S
N108 Co59 2.214 . S
N108 C106 1.325 . S
N108 C107 1.261 . S
C109 H79 0.931 . S
C109 C106 1.357 . S
C109 C110 1.312 . S
C110 H81 0.930 . S
C110 C105 1.261 . S
C110 C109 1.312 . S
C111 O83 1.214 . S
C111 O91 1.234 . S
C112 H84 0.929 . S
C112 C115 1.391 . S
C112 C117 1.391 . S
C113 H85 0.929 . S
C113 C114 1.390 . S
C113 N116 1.391 . S
C114 H86 0.930 . S
C114 C113 1.390 . S
C114 C115 1.392 . S
C115 H87 0.929 . S
C115 C112 1.391 . S
C115 C114 1.392 . S
N116 Co60 2.257 . S
N116 C113 1.391 . S
N116 C117 1.388 . S
C117 H88 0.930 . S
C117 C112 1.391 . S
C117 N116 1.388 . S
Co118 O120 2.143 . S
Co118 O126 2.074 . S
Co118 O129 2.093 . S
Co118 O142 2.097 . S
Co118 N159 2.151 . S
Co118 N167 2.214 . S
Co119 O120 2.160 . S
Co119 O125 2.058 . S
Co119 O135 2.057 . S
Co119 O150 2.037 . S
Co119 N154 2.145 . S
Co119 N175 2.257 . S
O120 Co118 2.143 . S
O120 Co119 2.160 . S
C121 O122 1.278 . S
C121 O129 1.224 . S
O122 C121 1.278 . S
C123 O124 1.245 . S
C123 O135 1.232 . S
O124 C123 1.245 . S
O125 Co119 2.058 . S
O125 C151 1.269 . S
O126 Co118 2.074 . S
O126 C151 1.257 . S
H127 C152 0.930 . S
H128 C158 0.930 . S
O129 Co118 2.093 . S
O129 C121 1.224 . S
H130 C162 0.929 . S
H131 C164 0.930 . S
H132 C165 0.930 . S
H133 C163 0.929 . S
H134 C166 0.928 . S
O135 Co119 2.057 . S
O135 C123 1.232 . S
H136 C155 0.929 . S
H137 C156 0.929 . S
H138 C168 0.931 . S
H139 C160 0.929 . S
H140 C169 0.930 . S
H141 C161 0.931 . S
O142 Co118 2.097 . S
O142 C170 1.214 . S
H143 C171 0.929 . S
H144 C172 0.929 . S
H145 C173 0.930 . S
H146 C174 0.929 . S
H147 C176 0.930 . S
H148 C153 0.930 . S
H149 C157 0.930 . S
O150 Co119 2.037 . S
O150 C170 1.234 . S
C151 O125 1.269 . S
C151 O126 1.257 . S
C152 H127 0.930 . S
C152 C155 1.388 . S
C152 C157 1.418 . S
C153 H148 0.930 . S
C153 C156 1.404 . S
C153 C157 1.353 . S
N154 Co119 2.145 . S
N154 C155 1.397 . S
N154 C156 1.334 . S
C155 H136 0.929 . S
C155 C152 1.388 . S
C155 N154 1.397 . S
C156 H137 0.929 . S
C156 C153 1.404 . S
C156 N154 1.334 . S
C157 H149 0.930 . S
C157 C152 1.418 . S
C157 C153 1.353 . S
C158 H128 0.930 . S
C158 N159 1.330 . S
C158 C160 1.446 . S
N159 Co118 2.151 . S
N159 C158 1.330 . S
N159 C163 1.418 . S
C160 H139 0.929 . S
C160 C158 1.446 . S
C160 C161 1.332 . S
C161 H141 0.931 . S
C161 C160 1.332 . S
C161 C162 1.267 . S
C162 H130 0.929 . S
C162 C161 1.267 . S
C162 C163 1.251 . S
C163 H133 0.929 . S
C163 N159 1.418 . S
C163 C162 1.251 . S
C164 H131 0.930 . S
C164 C166 1.406 . S
C164 C169 1.261 . S
C165 H132 0.930 . S
C165 N167 1.325 . S
C165 C168 1.357 . S
C166 H134 0.928 . S
C166 C164 1.406 . S
C166 N167 1.261 . S
N167 Co118 2.214 . S
N167 C165 1.325 . S
N167 C166 1.261 . S
C168 H138 0.931 . S
C168 C165 1.357 . S
C168 C169 1.312 . S
C169 H140 0.930 . S
C169 C164 1.261 . S
C169 C168 1.312 . S
C170 O142 1.214 . S
C170 O150 1.234 . S
C171 H143 0.929 . S
C171 C174 1.391 . S
C171 C176 1.391 . S
C172 H144 0.929 . S
C172 C173 1.390 . S
C172 N175 1.391 . S
C173 H145 0.930 . S
C173 C172 1.390 . S
C173 C174 1.392 . S
C174 H146 0.929 . S
C174 C171 1.391 . S
C174 C173 1.392 . S
N175 Co119 2.257 . S
N175 C172 1.391 . S
N175 C176 1.388 . S
C176 H147 0.930 . S
C176 C171 1.391 . S
C176 N175 1.388 . S
Co177 O179 2.143 . S
Co177 O185 2.074 . S
Co177 O188 2.093 . S
Co177 O201 2.097 . S
Co177 N218 2.151 . S
Co177 N226 2.214 . S
Co178 O179 2.160 . S
Co178 O184 2.058 . S
Co178 O194 2.057 . S
Co178 O209 2.037 . S
Co178 N213 2.145 . S
Co178 N234 2.257 . S
O179 Co177 2.143 . S
O179 Co178 2.160 . S
C180 O181 1.278 . S
C180 O188 1.224 . S
O181 C180 1.278 . S
C182 O183 1.245 . S
C182 O194 1.232 . S
O183 C182 1.245 . S
O184 Co178 2.058 . S
O184 C210 1.269 . S
O185 Co177 2.074 . S
O185 C210 1.257 . S
H186 C211 0.930 . S
H187 C217 0.930 . S
O188 Co177 2.093 . S
O188 C180 1.224 . S
H189 C221 0.934 1_455 S
H190 C223 0.930 . S
H191 C224 0.930 . S
H192 C222 0.929 . S
H193 C225 0.928 . S
O194 Co178 2.057 . S
O194 C182 1.232 . S
H195 C214 0.929 . S
H196 C215 0.929 . S
H197 C227 0.931 . S
H198 C219 0.929 . S
H199 C228 0.930 . S
H200 C220 0.931 . S
O201 Co177 2.097 . S
O201 C229 1.214 . S
H202 C230 0.929 . S
H203 C231 0.929 . S
H204 C232 0.930 . S
H205 C233 0.929 . S
H206 C235 0.930 . S
H207 C212 0.930 . S
H208 C216 0.930 . S
O209 Co178 2.037 . S
O209 C229 1.234 . S
C210 O184 1.269 . S
C210 O185 1.257 . S
C211 H186 0.930 . S
C211 C214 1.388 . S
C211 C216 1.418 . S
C212 H207 0.930 . S
C212 C215 1.404 . S
C212 C216 1.353 . S
N213 Co178 2.145 . S
N213 C214 1.397 . S
N213 C215 1.334 . S
C214 H195 0.929 . S
C214 C211 1.388 . S
C214 N213 1.397 . S
C215 H196 0.929 . S
C215 C212 1.404 . S
C215 N213 1.334 . S
C216 H208 0.930 . S
C216 C211 1.418 . S
C216 C212 1.353 . S
C217 H187 0.930 . S
C217 N218 1.330 . S
C217 C219 1.446 1_655 S
N218 Co177 2.151 . S
N218 C217 1.330 . S
N218 C222 1.418 . S
C219 H198 0.929 . S
C219 C217 1.446 1_455 S
C219 C220 1.332 . S
C220 H200 0.931 . S
C220 C219 1.332 . S
C220 C221 1.267 1_455 S
C221 H189 0.934 1_655 S
C221 C220 1.267 1_655 S
C221 C222 1.251 . S
C222 H192 0.929 . S
C222 N218 1.418 . S
C222 C221 1.251 . S
C223 H190 0.930 . S
C223 C225 1.406 . S
C223 C228 1.261 . S
C224 H191 0.930 . S
C224 N226 1.325 . S
C224 C227 1.357 . S
C225 H193 0.928 . S
C225 C223 1.406 . S
C225 N226 1.261 . S
N226 Co177 2.214 . S
N226 C224 1.325 . S
N226 C225 1.261 . S
C227 H197 0.931 . S
C227 C224 1.357 . S
C227 C228 1.312 . S
C228 H199 0.930 . S
C228 C223 1.261 . S
C228 C227 1.312 . S
C229 O201 1.214 . S
C229 O209 1.234 . S
C230 H202 0.929 . S
C230 C233 1.391 . S
C230 C235 1.391 . S
C231 H203 0.929 . S
C231 C232 1.390 . S
C231 N234 1.391 . S
C232 H204 0.930 . S
C232 C231 1.390 . S
C232 C233 1.392 . S
C233 H205 0.929 . S
C233 C230 1.391 . S
C233 C232 1.392 . S
N234 Co178 2.257 . S
N234 C231 1.391 . S
N234 C235 1.388 . S
C235 H206 0.930 . S
C235 C230 1.391 . S
C235 N234 1.388 . S
Co236 O238 2.143 . S
Co236 O244 2.074 . S
Co236 O247 2.093 . S
Co236 O260 2.097 . S
Co236 N277 2.151 . S
Co236 N285 2.214 . S
Co237 O238 2.160 . S
Co237 O243 2.058 . S
Co237 O253 2.057 . S
Co237 O268 2.037 . S
Co237 N272 2.145 . S
Co237 N293 2.257 . S
O238 Co236 2.143 . S
O238 Co237 2.160 . S
C239 O240 1.278 . S
C239 O247 1.224 . S
O240 C239 1.278 . S
C241 O242 1.245 . S
C241 O253 1.232 . S
O242 C241 1.245 . S
O243 Co237 2.058 . S
O243 C269 1.269 . S
O244 Co236 2.074 . S
O244 C269 1.257 . S
H245 C270 0.930 . S
H246 C276 0.930 . S
O247 Co236 2.093 . S
O247 C239 1.224 . S
H248 C280 0.921 1_545 S
H249 C282 0.930 . S
H250 C283 0.930 . S
H251 C281 0.929 . S
H252 C284 0.928 . S
O253 Co237 2.057 . S
O253 C241 1.232 . S
H254 C273 0.929 . S
H255 C274 0.929 . S
H256 C286 0.931 . S
H257 C278 0.929 . S
H258 C287 0.930 . S
H259 C279 0.931 . S
O260 Co236 2.097 . S
O260 C288 1.214 . S
H261 C289 0.929 . S
H262 C290 0.929 . S
H263 C291 0.930 . S
H264 C292 0.929 . S
H265 C294 0.930 . S
H266 C271 0.930 . S
H267 C275 0.930 . S
O268 Co237 2.037 . S
O268 C288 1.234 . S
C269 O243 1.269 . S
C269 O244 1.257 . S
C270 H245 0.930 . S
C270 C273 1.388 . S
C270 C275 1.418 . S
C271 H266 0.930 . S
C271 C274 1.404 . S
C271 C275 1.353 . S
N272 Co237 2.145 . S
N272 C273 1.397 . S
N272 C274 1.334 . S
C273 H254 0.929 . S
C273 C270 1.388 . S
C273 N272 1.397 . S
C274 H255 0.929 . S
C274 C271 1.404 . S
C274 N272 1.334 . S
C275 H267 0.930 . S
C275 C270 1.418 . S
C275 C271 1.353 . S
C276 H246 0.930 . S
C276 N277 1.330 . S
C276 C278 1.446 1_565 S
N277 Co236 2.151 . S
N277 C276 1.330 . S
N277 C281 1.418 . S
C278 H257 0.929 . S
C278 C276 1.446 1_545 S
C278 C279 1.332 . S
C279 H259 0.931 . S
C279 C278 1.332 . S
C279 C280 1.267 1_545 S
C280 H248 0.921 1_565 S
C280 C279 1.267 1_565 S
C280 C281 1.251 . S
C281 H251 0.929 . S
C281 N277 1.418 . S
C281 C280 1.251 . S
C282 H249 0.930 . S
C282 C284 1.406 . S
C282 C287 1.261 . S
C283 H250 0.930 . S
C283 N285 1.325 . S
C283 C286 1.357 . S
C284 H252 0.928 . S
C284 C282 1.406 . S
C284 N285 1.261 . S
N285 Co236 2.214 . S
N285 C283 1.325 . S
N285 C284 1.261 . S
C286 H256 0.931 . S
C286 C283 1.357 . S
C286 C287 1.312 . S
C287 H258 0.930 . S
C287 C282 1.261 . S
C287 C286 1.312 . S
C288 O260 1.214 . S
C288 O268 1.234 . S
C289 H261 0.929 . S
C289 C292 1.391 . S
C289 C294 1.391 . S
C290 H262 0.929 . S
C290 C291 1.390 . S
C290 N293 1.391 . S
C291 H263 0.930 . S
C291 C290 1.390 . S
C291 C292 1.392 . S
C292 H264 0.929 . S
C292 C289 1.391 . S
C292 C291 1.392 . S
N293 Co237 2.257 . S
N293 C290 1.391 . S
N293 C294 1.388 . S
C294 H265 0.930 . S
C294 C289 1.391 . S
C294 N293 1.388 . S
Co295 O297 2.143 . S
Co295 O303 2.074 . S
Co295 O306 2.093 . S
Co295 O319 2.097 . S
Co295 N336 2.151 . S
Co295 N344 2.214 . S
Co296 O297 2.160 . S
Co296 O302 2.058 . S
Co296 O312 2.057 . S
Co296 O327 2.037 . S
Co296 N331 2.145 . S
Co296 N352 2.257 . S
O297 Co295 2.143 . S
O297 Co296 2.160 . S
C298 O299 1.278 . S
C298 O306 1.224 . S
O299 C298 1.278 . S
C300 O301 1.245 . S
C300 O312 1.232 . S
O301 C300 1.245 . S
O302 Co296 2.058 . S
O302 C328 1.269 . S
O303 Co295 2.074 . S
O303 C328 1.257 . S
H304 C329 0.930 . S
H305 C335 0.930 . S
O306 Co295 2.093 . S
O306 C298 1.224 . S
H307 C339 0.929 . S
H308 C341 0.930 . S
H309 C342 0.930 . S
H310 C340 0.929 . S
H311 C343 0.928 . S
O312 Co296 2.057 . S
O312 C300 1.232 . S
H313 C332 0.929 . S
H314 C333 0.929 . S
H315 C345 0.931 . S
H316 C337 0.929 . S
H317 C346 0.930 . S
H318 C338 0.931 . S
O319 Co295 2.097 . S
O319 C347 1.214 . S
H320 C348 0.929 . S
H321 C349 0.929 . S
H322 C350 0.930 . S
H323 C351 0.929 . S
H324 C353 0.930 . S
H325 C330 0.930 . S
H326 C334 0.930 . S
O327 Co296 2.037 . S
O327 C347 1.234 . S
C328 O302 1.269 . S
C328 O303 1.257 . S
C329 H304 0.930 . S
C329 C332 1.388 . S
C329 C334 1.418 . S
C330 H325 0.930 . S
C330 C333 1.404 . S
C330 C334 1.353 . S
N331 Co296 2.145 . S
N331 C332 1.397 . S
N331 C333 1.334 . S
C332 H313 0.929 . S
C332 C329 1.388 . S
C332 N331 1.397 . S
C333 H314 0.929 . S
C333 C330 1.404 . S
C333 N331 1.334 . S
C334 H326 0.930 . S
C334 C329 1.418 . S
C334 C330 1.353 . S
C335 H305 0.930 . S
C335 N336 1.330 . S
C335 C337 1.446 . S
N336 Co295 2.151 . S
N336 C335 1.330 . S
N336 C340 1.418 . S
C337 H316 0.929 . S
C337 C335 1.446 . S
C337 C338 1.332 . S
C338 H318 0.931 . S
C338 C337 1.332 . S
C338 C339 1.267 . S
C339 H307 0.929 . S
C339 C338 1.267 . S
C339 C340 1.251 . S
C340 H310 0.929 . S
C340 N336 1.418 . S
C340 C339 1.251 . S
C341 H308 0.930 . S
C341 C343 1.406 . S
C341 C346 1.261 . S
C342 H309 0.930 . S
C342 N344 1.325 . S
C342 C345 1.357 . S
C343 H311 0.928 . S
C343 C341 1.406 . S
C343 N344 1.261 . S
N344 Co295 2.214 . S
N344 C342 1.325 . S
N344 C343 1.261 . S
C345 H315 0.931 . S
C345 C342 1.357 . S
C345 C346 1.312 . S
C346 H317 0.930 . S
C346 C341 1.261 . S
C346 C345 1.312 . S
C347 O319 1.214 . S
C347 O327 1.234 . S
C348 H320 0.929 . S
C348 C351 1.391 . S
C348 C353 1.391 1_554 S
C349 H321 0.929 . S
C349 C350 1.390 1_556 S
C349 N352 1.391 . S
C350 H322 0.930 . S
C350 C349 1.390 1_554 S
C350 C351 1.392 . S
C351 H323 0.929 . S
C351 C348 1.391 . S
C351 C350 1.392 . S
N352 Co296 2.257 . S
N352 C349 1.391 . S
N352 C353 1.388 . S
C353 H324 0.930 . S
C353 C348 1.391 1_556 S
C353 N352 1.388 . S
Co354 O356 2.143 . S
Co354 O362 2.074 . S
Co354 O365 2.093 . S
Co354 O378 2.097 . S
Co354 N395 2.151 . S
Co354 N403 2.214 . S
Co355 O356 2.160 . S
Co355 O361 2.058 . S
Co355 O371 2.057 . S
Co355 O386 2.037 . S
Co355 N390 2.145 . S
Co355 N411 2.257 . S
O356 Co354 2.143 . S
O356 Co355 2.160 . S
C357 O358 1.278 . S
C357 O365 1.224 . S
O358 C357 1.278 . S
C359 O360 1.245 . S
C359 O371 1.232 . S
O360 C359 1.245 . S
O361 Co355 2.058 . S
O361 C387 1.269 . S
O362 Co354 2.074 . S
O362 C387 1.257 . S
H363 C388 0.930 . S
H364 C394 0.930 . S
O365 Co354 2.093 . S
O365 C357 1.224 . S
H366 C398 0.934 1_545 S
H367 C400 0.930 . S
H368 C401 0.930 . S
H369 C399 0.929 . S
H370 C402 0.928 . S
O371 Co355 2.057 . S
O371 C359 1.232 . S
H372 C391 0.929 . S
H373 C392 0.929 . S
H374 C404 0.931 . S
H375 C396 0.929 . S
H376 C405 0.930 . S
H377 C397 0.931 . S
O378 Co354 2.097 . S
O378 C406 1.214 . S
H379 C407 0.929 . S
H380 C408 0.929 . S
H381 C409 0.930 . S
H382 C410 0.929 . S
H383 C412 0.930 . S
H384 C389 0.930 . S
H385 C393 0.930 . S
O386 Co355 2.037 . S
O386 C406 1.234 . S
C387 O361 1.269 . S
C387 O362 1.257 . S
C388 H363 0.930 . S
C388 C391 1.388 . S
C388 C393 1.418 . S
C389 H384 0.930 . S
C389 C392 1.404 . S
C389 C393 1.353 . S
N390 Co355 2.145 . S
N390 C391 1.397 . S
N390 C392 1.334 . S
C391 H372 0.929 . S
C391 C388 1.388 . S
C391 N390 1.397 . S
C392 H373 0.929 . S
C392 C389 1.404 . S
C392 N390 1.334 . S
C393 H385 0.930 . S
C393 C388 1.418 . S
C393 C389 1.353 . S
C394 H364 0.930 . S
C394 N395 1.330 . S
C394 C396 1.446 1_565 S
N395 Co354 2.151 . S
N395 C394 1.330 . S
N395 C399 1.418 . S
C396 H375 0.929 . S
C396 C394 1.446 1_545 S
C396 C397 1.332 . S
C397 H377 0.931 . S
C397 C396 1.332 . S
C397 C398 1.267 1_545 S
C398 H366 0.934 1_565 S
C398 C397 1.267 1_565 S
C398 C399 1.251 . S
C399 H369 0.929 . S
C399 N395 1.418 . S
C399 C398 1.251 . S
C400 H367 0.930 . S
C400 C402 1.406 . S
C400 C405 1.261 . S
C401 H368 0.930 . S
C401 N403 1.325 . S
C401 C404 1.357 . S
C402 H370 0.928 . S
C402 C400 1.406 . S
C402 N403 1.261 . S
N403 Co354 2.214 . S
N403 C401 1.325 . S
N403 C402 1.261 . S
C404 H374 0.931 . S
C404 C401 1.357 . S
C404 C405 1.312 . S
C405 H376 0.930 . S
C405 C400 1.261 . S
C405 C404 1.312 . S
C406 O378 1.214 . S
C406 O386 1.234 . S
C407 H379 0.929 . S
C407 C410 1.391 . S
C407 C412 1.391 . S
C408 H380 0.929 . S
C408 C409 1.390 . S
C408 N411 1.391 . S
C409 H381 0.930 . S
C409 C408 1.390 . S
C409 C410 1.392 . S
C410 H382 0.929 . S
C410 C407 1.391 . S
C410 C409 1.392 . S
N411 Co355 2.257 . S
N411 C408 1.391 . S
N411 C412 1.388 . S
C412 H383 0.930 . S
C412 C407 1.391 . S
C412 N411 1.388 . S
Co413 O415 2.143 . S
Co413 O421 2.074 . S
Co413 O424 2.093 . S
Co413 O437 2.097 . S
Co413 N454 2.151 . S
Co413 N462 2.214 . S
Co414 O415 2.160 . S
Co414 O420 2.058 . S
Co414 O430 2.057 . S
Co414 O445 2.037 . S
Co414 N449 2.145 . S
Co414 N470 2.257 . S
O415 Co413 2.143 . S
O415 Co414 2.160 . S
C416 O417 1.278 . S
C416 O424 1.224 . S
O417 C416 1.278 . S
C418 O419 1.245 . S
C418 O430 1.232 . S
O419 C418 1.245 . S
O420 Co414 2.058 . S
O420 C446 1.269 . S
O421 Co413 2.074 . S
O421 C446 1.257 . S
H422 C447 0.930 . S
H423 C453 0.930 . S
O424 Co413 2.093 . S
O424 C416 1.224 . S
H425 C457 0.929 . S
H426 C459 0.930 . S
H427 C460 0.930 . S
H428 C458 0.929 . S
H429 C461 0.928 . S
O430 Co414 2.057 . S
O430 C418 1.232 . S
H431 C450 0.929 . S
H432 C451 0.929 . S
H433 C463 0.931 . S
H434 C455 0.929 . S
H435 C464 0.930 . S
H436 C456 0.931 . S
O437 Co413 2.097 . S
O437 C465 1.214 . S
H438 C466 0.929 . S
H439 C467 0.929 . S
H440 C468 0.930 . S
H441 C469 0.929 . S
H442 C471 0.930 . S
H443 C448 0.930 . S
H444 C452 0.930 . S
O445 Co414 2.037 . S
O445 C465 1.234 . S
C446 O420 1.269 . S
C446 O421 1.257 . S
C447 H422 0.930 . S
C447 C450 1.388 . S
C447 C452 1.418 . S
C448 H443 0.930 . S
C448 C451 1.404 . S
C448 C452 1.353 . S
N449 Co414 2.145 . S
N449 C450 1.397 . S
N449 C451 1.334 . S
C450 H431 0.929 . S
C450 C447 1.388 . S
C450 N449 1.397 . S
C451 H432 0.929 . S
C451 C448 1.404 . S
C451 N449 1.334 . S
C452 H444 0.930 . S
C452 C447 1.418 . S
C452 C448 1.353 . S
C453 H423 0.930 . S
C453 N454 1.330 . S
C453 C455 1.446 . S
N454 Co413 2.151 . S
N454 C453 1.330 . S
N454 C458 1.418 . S
C455 H434 0.929 . S
C455 C453 1.446 . S
C455 C456 1.332 . S
C456 H436 0.931 . S
C456 C455 1.332 . S
C456 C457 1.267 . S
C457 H425 0.929 . S
C457 C456 1.267 . S
C457 C458 1.251 . S
C458 H428 0.929 . S
C458 N454 1.418 . S
C458 C457 1.251 . S
C459 H426 0.930 . S
C459 C461 1.406 . S
C459 C464 1.261 . S
C460 H427 0.930 . S
C460 N462 1.325 . S
C460 C463 1.357 . S
C461 H429 0.928 . S
C461 C459 1.406 . S
C461 N462 1.261 . S
N462 Co413 2.214 . S
N462 C460 1.325 . S
N462 C461 1.261 . S
C463 H433 0.931 . S
C463 C460 1.357 . S
C463 C464 1.312 . S
C464 H435 0.930 . S
C464 C459 1.261 . S
C464 C463 1.312 . S
C465 O437 1.214 . S
C465 O445 1.234 . S
C466 H438 0.929 . S
C466 C469 1.391 . S
C466 C471 1.391 . S
C467 H439 0.929 . S
C467 C468 1.390 . S
C467 N470 1.391 . S
C468 H440 0.930 . S
C468 C467 1.390 . S
C468 C469 1.392 . S
C469 H441 0.929 . S
C469 C466 1.391 . S
C469 C468 1.392 . S
N470 Co414 2.257 . S
N470 C467 1.391 . S
N470 C471 1.388 . S
C471 H442 0.930 . S
C471 C466 1.391 . S
C471 N470 1.388 . S
Co472 O474 2.143 . S
Co472 O480 2.074 . S
Co472 O483 2.093 . S
Co472 O496 2.097 . S
Co472 N513 2.151 . S
Co472 N521 2.214 . S
Co473 O474 2.160 . S
Co473 O479 2.058 . S
Co473 O489 2.057 . S
Co473 O504 2.037 . S
Co473 N508 2.145 . S
Co473 N529 2.257 . S
O474 Co472 2.143 . S
O474 Co473 2.160 . S
C475 O476 1.278 . S
C475 O483 1.224 . S
O476 C475 1.278 . S
C477 O478 1.245 . S
C477 O489 1.232 . S
O478 C477 1.245 . S
O479 Co473 2.058 . S
O479 C505 1.269 . S
O480 Co472 2.074 . S
O480 C505 1.257 . S
H481 C506 0.930 . S
H482 C512 0.930 . S
O483 Co472 2.093 . S
O483 C475 1.224 . S
H484 C516 0.920 1_655 S
H485 C518 0.930 . S
H486 C519 0.930 . S
H487 C517 0.929 . S
H488 C520 0.928 . S
O489 Co473 2.057 . S
O489 C477 1.232 . S
H490 C509 0.929 . S
H491 C510 0.929 . S
H492 C522 0.931 . S
H493 C514 0.929 . S
H494 C523 0.930 . S
H495 C515 0.931 . S
O496 Co472 2.097 . S
O496 C524 1.214 . S
H497 C525 0.929 . S
H498 C526 0.929 . S
H499 C527 0.930 . S
H500 C528 0.929 . S
H501 C530 0.930 . S
H502 C507 0.930 . S
H503 C511 0.930 . S
O504 Co473 2.037 . S
O504 C524 1.234 . S
C505 O479 1.269 . S
C505 O480 1.257 . S
C506 H481 0.930 . S
C506 C509 1.388 . S
C506 C511 1.418 . S
C507 H502 0.930 . S
C507 C510 1.404 . S
C507 C511 1.353 . S
N508 Co473 2.145 . S
N508 C509 1.397 . S
N508 C510 1.334 . S
C509 H490 0.929 . S
C509 C506 1.388 . S
C509 N508 1.397 . S
C510 H491 0.929 . S
C510 C507 1.404 . S
C510 N508 1.334 . S
C511 H503 0.930 . S
C511 C506 1.418 . S
C511 C507 1.353 . S
C512 H482 0.930 . S
C512 N513 1.330 . S
C512 C514 1.446 1_455 S
N513 Co472 2.151 . S
N513 C512 1.330 . S
N513 C517 1.418 . S
C514 H493 0.929 . S
C514 C512 1.446 1_655 S
C514 C515 1.332 . S
C515 H495 0.931 . S
C515 C514 1.332 . S
C515 C516 1.267 1_655 S
C516 H484 0.920 1_455 S
C516 C515 1.267 1_455 S
C516 C517 1.251 . S
C517 H487 0.929 . S
C517 N513 1.418 . S
C517 C516 1.251 . S
C518 H485 0.930 . S
C518 C520 1.406 . S
C518 C523 1.261 . S
C519 H486 0.930 . S
C519 N521 1.325 . S
C519 C522 1.357 . S
C520 H488 0.928 . S
C520 C518 1.406 . S
C520 N521 1.261 . S
N521 Co472 2.214 . S
N521 C519 1.325 . S
N521 C520 1.261 . S
C522 H492 0.931 . S
C522 C519 1.357 . S
C522 C523 1.312 . S
C523 H494 0.930 . S
C523 C518 1.261 . S
C523 C522 1.312 . S
C524 O496 1.214 . S
C524 O504 1.234 . S
C525 H497 0.929 . S
C525 C528 1.391 . S
C525 C530 1.391 1_556 S
C526 H498 0.929 . S
C526 C527 1.390 1_554 S
C526 N529 1.391 . S
C527 H499 0.930 . S
C527 C526 1.390 1_556 S
C527 C528 1.392 . S
C528 H500 0.929 . S
C528 C525 1.391 . S
C528 C527 1.392 . S
N529 Co473 2.257 . S
N529 C526 1.391 . S
N529 C530 1.388 . S
C530 H501 0.930 . S
C530 C525 1.391 1_554 S
C530 N529 1.388 . S
Co531 O533 2.143 . S
Co531 O539 2.074 . S
Co531 O542 2.093 . S
Co531 O555 2.097 . S
Co531 N572 2.151 . S
Co531 N580 2.214 . S
Co532 O533 2.160 . S
Co532 O538 2.058 . S
Co532 O548 2.057 . S
Co532 O563 2.037 . S
Co532 N567 2.145 . S
Co532 N588 2.257 . S
O533 Co531 2.143 . S
O533 Co532 2.160 . S
C534 O535 1.278 . S
C534 O542 1.224 . S
O535 C534 1.278 . S
C536 O537 1.245 . S
C536 O548 1.232 . S
O537 C536 1.245 . S
O538 Co532 2.058 . S
O538 C564 1.269 . S
O539 Co531 2.074 . S
O539 C564 1.257 . S
H540 C565 0.930 . S
H541 C571 0.930 . S
O542 Co531 2.093 . S
O542 C534 1.224 . S
H543 C575 0.934 1_565 S
H544 C577 0.930 . S
H545 C578 0.930 . S
H546 C576 0.929 . S
H547 C579 0.928 . S
O548 Co532 2.057 . S
O548 C536 1.232 . S
H549 C568 0.929 . S
H550 C569 0.929 . S
H551 C581 0.931 . S
H552 C573 0.929 . S
H553 C582 0.930 . S
H554 C574 0.931 . S
O555 Co531 2.097 . S
O555 C583 1.214 . S
H556 C584 0.929 . S
H557 C585 0.929 . S
H558 C586 0.930 . S
H559 C587 0.929 . S
H560 C589 0.930 . S
H561 C566 0.930 . S
H562 C570 0.930 . S
O563 Co532 2.037 . S
O563 C583 1.234 . S
C564 O538 1.269 . S
C564 O539 1.257 . S
C565 H540 0.930 . S
C565 C568 1.388 . S
C565 C570 1.418 . S
C566 H561 0.930 . S
C566 C569 1.404 . S
C566 C570 1.353 . S
N567 Co532 2.145 . S
N567 C568 1.397 . S
N567 C569 1.334 . S
C568 H549 0.929 . S
C568 C565 1.388 . S
C568 N567 1.397 . S
C569 H550 0.929 . S
C569 C566 1.404 . S
C569 N567 1.334 . S
C570 H562 0.930 . S
C570 C565 1.418 . S
C570 C566 1.353 . S
C571 H541 0.930 . S
C571 N572 1.330 . S
C571 C573 1.446 1_545 S
N572 Co531 2.151 . S
N572 C571 1.330 . S
N572 C576 1.418 . S
C573 H552 0.929 . S
C573 C571 1.446 1_565 S
C573 C574 1.332 . S
C574 H554 0.931 . S
C574 C573 1.332 . S
C574 C575 1.267 1_565 S
C575 H543 0.934 1_545 S
C575 C574 1.267 1_545 S
C575 C576 1.251 . S
C576 H546 0.929 . S
C576 N572 1.418 . S
C576 C575 1.251 . S
C577 H544 0.930 . S
C577 C579 1.406 . S
C577 C582 1.261 . S
C578 H545 0.930 . S
C578 N580 1.325 . S
C578 C581 1.357 . S
C579 H547 0.928 . S
C579 C577 1.406 . S
C579 N580 1.261 . S
N580 Co531 2.214 . S
N580 C578 1.325 . S
N580 C579 1.261 . S
C581 H551 0.931 . S
C581 C578 1.357 . S
C581 C582 1.312 . S
C582 H553 0.930 . S
C582 C577 1.261 . S
C582 C581 1.312 . S
C583 O555 1.214 . S
C583 O563 1.234 . S
C584 H556 0.929 . S
C584 C587 1.391 . S
C584 C589 1.391 . S
C585 H557 0.929 . S
C585 C586 1.390 . S
C585 N588 1.391 . S
C586 H558 0.930 . S
C586 C585 1.390 . S
C586 C587 1.392 . S
C587 H559 0.929 . S
C587 C584 1.391 . S
C587 C586 1.392 . S
N588 Co532 2.257 . S
N588 C585 1.391 . S
N588 C589 1.388 . S
C589 H560 0.930 . S
C589 C584 1.391 . S
C589 N588 1.388 . S
Co590 O592 2.143 . S
Co590 O598 2.074 . S
Co590 O601 2.093 . S
Co590 O614 2.097 . S
Co590 N631 2.151 . S
Co590 N639 2.214 . S
Co591 O592 2.160 . S
Co591 O597 2.058 . S
Co591 O607 2.057 . S
Co591 O622 2.037 . S
Co591 N626 2.145 . S
Co591 N647 2.257 . S
O592 Co590 2.143 . S
O592 Co591 2.160 . S
C593 O594 1.278 . S
C593 O601 1.224 . S
O594 C593 1.278 . S
C595 O596 1.245 . S
C595 O607 1.232 . S
O596 C595 1.245 . S
O597 Co591 2.058 . S
O597 C623 1.269 . S
O598 Co590 2.074 . S
O598 C623 1.257 . S
H599 C624 0.930 . S
H600 C630 0.930 . S
O601 Co590 2.093 . S
O601 C593 1.224 . S
H602 C634 0.929 . S
H603 C636 0.930 . S
H604 C637 0.930 . S
H605 C635 0.929 . S
H606 C638 0.928 . S
O607 Co591 2.057 . S
O607 C595 1.232 . S
H608 C627 0.929 . S
H609 C628 0.929 . S
H610 C640 0.931 . S
H611 C632 0.929 . S
H612 C641 0.930 . S
H613 C633 0.931 . S
O614 Co590 2.097 . S
O614 C642 1.214 . S
H615 C643 0.929 . S
H616 C644 0.929 . S
H617 C645 0.930 . S
H618 C646 0.929 . S
H619 C648 0.930 . S
H620 C625 0.930 . S
H621 C629 0.930 . S
O622 Co591 2.037 . S
O622 C642 1.234 . S
C623 O597 1.269 . S
C623 O598 1.257 . S
C624 H599 0.930 . S
C624 C627 1.388 . S
C624 C629 1.418 . S
C625 H620 0.930 . S
C625 C628 1.404 . S
C625 C629 1.353 . S
N626 Co591 2.145 . S
N626 C627 1.397 . S
N626 C628 1.334 . S
C627 H608 0.929 . S
C627 C624 1.388 . S
C627 N626 1.397 . S
C628 H609 0.929 . S
C628 C625 1.404 . S
C628 N626 1.334 . S
C629 H621 0.930 . S
C629 C624 1.418 . S
C629 C625 1.353 . S
C630 H600 0.930 . S
C630 N631 1.330 . S
C630 C632 1.446 . S
N631 Co590 2.151 . S
N631 C630 1.330 . S
N631 C635 1.418 . S
C632 H611 0.929 . S
C632 C630 1.446 . S
C632 C633 1.332 . S
C633 H613 0.931 . S
C633 C632 1.332 . S
C633 C634 1.267 . S
C634 H602 0.929 . S
C634 C633 1.267 . S
C634 C635 1.251 . S
C635 H605 0.929 . S
C635 N631 1.418 . S
C635 C634 1.251 . S
C636 H603 0.930 . S
C636 C638 1.406 . S
C636 C641 1.261 . S
C637 H604 0.930 . S
C637 N639 1.325 . S
C637 C640 1.357 . S
C638 H606 0.928 . S
C638 C636 1.406 . S
C638 N639 1.261 . S
N639 Co590 2.214 . S
N639 C637 1.325 . S
N639 C638 1.261 . S
C640 H610 0.931 . S
C640 C637 1.357 . S
C640 C641 1.312 . S
C641 H612 0.930 . S
C641 C636 1.261 . S
C641 C640 1.312 . S
C642 O614 1.214 . S
C642 O622 1.234 . S
C643 H615 0.929 . S
C643 C646 1.391 . S
C643 C648 1.391 . S
C644 H616 0.929 . S
C644 C645 1.390 . S
C644 N647 1.391 . S
C645 H617 0.930 . S
C645 C644 1.390 . S
C645 C646 1.392 . S
C646 H618 0.929 . S
C646 C643 1.391 . S
C646 C645 1.392 . S
N647 Co591 2.257 . S
N647 C644 1.391 . S
N647 C648 1.388 . S
C648 H619 0.930 . S
C648 C643 1.391 . S
C648 N647 1.388 . S
Co649 O651 2.143 . S
Co649 O657 2.074 . S
Co649 O660 2.093 . S
Co649 O673 2.097 . S
Co649 N690 2.151 . S
Co649 N698 2.214 . S
Co650 O651 2.160 . S
Co650 O656 2.058 . S
Co650 O666 2.057 . S
Co650 O681 2.037 . S
Co650 N685 2.145 . S
Co650 N706 2.257 . S
O651 Co649 2.143 . S
O651 Co650 2.160 . S
C652 O653 1.278 . S
C652 O660 1.224 . S
O653 C652 1.278 . S
C654 O655 1.245 . S
C654 O666 1.232 . S
O655 C654 1.245 . S
O656 Co650 2.058 . S
O656 C682 1.269 . S
O657 Co649 2.074 . S
O657 C682 1.257 . S
H658 C683 0.930 . S
H659 C689 0.930 . S
O660 Co649 2.093 . S
O660 C652 1.224 . S
H661 C693 0.921 1_455 S
H662 C695 0.930 . S
H663 C696 0.930 . S
H664 C694 0.929 . S
H665 C697 0.928 . S
O666 Co650 2.057 . S
O666 C654 1.232 . S
H667 C686 0.929 . S
H668 C687 0.929 . S
H669 C699 0.931 . S
H670 C691 0.929 . S
H671 C700 0.930 . S
H672 C692 0.931 . S
O673 Co649 2.097 . S
O673 C701 1.214 . S
H674 C702 0.929 . S
H675 C703 0.929 . S
H676 C704 0.930 . S
H677 C705 0.929 . S
H678 C707 0.930 . S
H679 C684 0.930 . S
H680 C688 0.930 . S
O681 Co650 2.037 . S
O681 C701 1.234 . S
C682 O656 1.269 . S
C682 O657 1.257 . S
C683 H658 0.930 . S
C683 C686 1.388 . S
C683 C688 1.418 . S
C684 H679 0.930 . S
C684 C687 1.404 . S
C684 C688 1.353 . S
N685 Co650 2.145 . S
N685 C686 1.397 . S
N685 C687 1.334 . S
C686 H667 0.929 . S
C686 C683 1.388 . S
C686 N685 1.397 . S
C687 H668 0.929 . S
C687 C684 1.404 . S
C687 N685 1.334 . S
C688 H680 0.930 . S
C688 C683 1.418 . S
C688 C684 1.353 . S
C689 H659 0.930 . S
C689 N690 1.330 . S
C689 C691 1.446 1_655 S
N690 Co649 2.151 . S
N690 C689 1.330 . S
N690 C694 1.418 . S
C691 H670 0.929 . S
C691 C689 1.446 1_455 S
C691 C692 1.332 . S
C692 H672 0.931 . S
C692 C691 1.332 . S
C692 C693 1.267 1_455 S
C693 H661 0.921 1_655 S
C693 C692 1.267 1_655 S
C693 C694 1.251 . S
C694 H664 0.929 . S
C694 N690 1.418 . S
C694 C693 1.251 . S
C695 H662 0.930 . S
C695 C697 1.406 . S
C695 C700 1.261 . S
C696 H663 0.930 . S
C696 N698 1.325 . S
C696 C699 1.357 . S
C697 H665 0.928 . S
C697 C695 1.406 . S
C697 N698 1.261 . S
N698 Co649 2.214 . S
N698 C696 1.325 . S
N698 C697 1.261 . S
C699 H669 0.931 . S
C699 C696 1.357 . S
C699 C700 1.312 . S
C700 H671 0.930 . S
C700 C695 1.261 . S
C700 C699 1.312 . S
C701 O673 1.214 . S
C701 O681 1.234 . S
C702 H674 0.929 . S
C702 C705 1.391 . S
C702 C707 1.391 . S
C703 H675 0.929 . S
C703 C704 1.390 . S
C703 N706 1.391 . S
C704 H676 0.930 . S
C704 C703 1.390 . S
C704 C705 1.392 . S
C705 H677 0.929 . S
C705 C702 1.391 . S
C705 C704 1.392 . S
N706 Co650 2.257 . S
N706 C703 1.391 . S
N706 C707 1.388 . S
C707 H678 0.930 . S
C707 C702 1.391 . S
C707 N706 1.388 . S
C708 C709 1.391 . S
C708 C710 1.394 . S
C708 H724 0.931 . S
C709 C708 1.391 . S
C709 C713 1.376 . S
C710 C708 1.394 . S
C710 C711 1.369 . S
C710 C714 1.531 . S
C711 C710 1.369 . S
C711 C712 1.410 . S
C711 C719 1.503 . S
C712 C711 1.410 . S
C712 C713 1.392 . S
C712 C715 1.511 . S
C713 C709 1.376 . S
C713 C712 1.392 . S
C713 H725 0.929 . S
C714 C710 1.531 . S
C714 H726 0.960 . S
C714 H727 0.962 . S
C714 H728 0.960 . S
C715 C712 1.511 . S
C715 H729 0.961 . S
C715 H730 0.961 . S
C715 H731 0.961 . S
C716 C717 1.370 . S
C716 C718 1.363 . S
C716 H732 0.931 . S
C717 C716 1.370 . S
C717 C721 1.408 . S
C718 C716 1.363 . S
C718 C719 1.370 . S
C718 C722 1.524 . S
C719 C711 1.503 . S
C719 C718 1.370 . S
C719 C720 1.403 . S
C720 C719 1.403 . S
C720 C721 1.404 . S
C720 C723 1.539 . S
C721 C717 1.408 . S
C721 C720 1.404 . S
C721 H733 0.930 . S
C722 C718 1.524 . S
C722 H734 0.956 . S
C722 H735 0.961 . S
C722 H736 0.961 . S
C723 C720 1.539 . S
C723 H737 0.958 . S
C723 H738 0.961 . S
C723 H739 0.960 . S
H724 C708 0.931 . S
H725 C713 0.929 . S
H726 C714 0.960 . S
H727 C714 0.962 . S
H728 C714 0.960 . S
H729 C715 0.961 . S
H730 C715 0.961 . S
H731 C715 0.961 . S
H732 C716 0.931 . S
H733 C721 0.930 . S
H734 C722 0.956 . S
H735 C722 0.961 . S
H736 C722 0.961 . S
H737 C723 0.958 . S
H738 C723 0.961 . S
H739 C723 0.960 . S
C740 C741 1.391 . S
C740 C742 1.394 . S
C740 H756 0.931 . S
C741 C740 1.391 . S
C741 C745 1.376 . S
C742 C740 1.394 . S
C742 C743 1.369 . S
C742 C746 1.531 . S
C743 C742 1.369 . S
C743 C744 1.410 . S
C743 C751 1.503 . S
C744 C743 1.410 . S
C744 C745 1.392 . S
C744 C747 1.511 . S
C745 C741 1.376 . S
C745 C744 1.392 . S
C745 H757 0.929 . S
C746 C742 1.531 . S
C746 H758 0.960 . S
C746 H759 0.962 . S
C746 H760 0.960 . S
C747 C744 1.511 . S
C747 H761 0.961 . S
C747 H762 0.961 . S
C747 H763 0.961 . S
C748 C749 1.370 . S
C748 C750 1.363 . S
C748 H764 0.931 . S
C749 C748 1.370 . S
C749 C753 1.408 . S
C750 C748 1.363 . S
C750 C751 1.370 . S
C750 C754 1.524 . S
C751 C743 1.503 . S
C751 C750 1.370 . S
C751 C752 1.403 . S
C752 C751 1.403 . S
C752 C753 1.404 . S
C752 C755 1.539 . S
C753 C749 1.408 . S
C753 C752 1.404 . S
C753 H765 0.930 . S
C754 C750 1.524 . S
C754 H766 0.956 . S
C754 H767 0.961 . S
C754 H768 0.961 . S
C755 C752 1.539 . S
C755 H769 0.958 . S
C755 H770 0.961 . S
C755 H771 0.960 . S
H756 C740 0.931 . S
H757 C745 0.929 . S
H758 C746 0.960 . S
H759 C746 0.962 . S
H760 C746 0.960 . S
H761 C747 0.961 . S
H762 C747 0.961 . S
H763 C747 0.961 . S
H764 C748 0.931 . S
H765 C753 0.930 . S
H766 C754 0.956 . S
H767 C754 0.961 . S
H768 C754 0.961 . S
H769 C755 0.958 . S
H770 C755 0.961 . S
H771 C755 0.960 . S
C772 C773 1.391 . S
C772 C774 1.394 . S
C772 H788 0.931 . S
C773 C772 1.391 . S
C773 C777 1.376 . S
C774 C772 1.394 . S
C774 C775 1.369 . S
C774 C778 1.531 . S
C775 C774 1.369 . S
C775 C776 1.410 . S
C775 C783 1.503 . S
C776 C775 1.410 . S
C776 C777 1.392 . S
C776 C779 1.511 . S
C777 C773 1.376 . S
C777 C776 1.392 . S
C777 H789 0.929 . S
C778 C774 1.531 . S
C778 H790 0.960 . S
C778 H791 0.962 . S
C778 H792 0.960 . S
C779 C776 1.511 . S
C779 H793 0.961 . S
C779 H794 0.961 . S
C779 H795 0.961 . S
C780 C781 1.370 . S
C780 C782 1.363 . S
C780 H796 0.931 . S
C781 C780 1.370 . S
C781 C785 1.408 . S
C782 C780 1.363 . S
C782 C783 1.370 . S
C782 C786 1.524 . S
C783 C775 1.503 . S
C783 C782 1.370 . S
C783 C784 1.403 . S
C784 C783 1.403 . S
C784 C785 1.404 . S
C784 C787 1.539 . S
C785 C781 1.408 . S
C785 C784 1.404 . S
C785 H797 0.930 . S
C786 C782 1.524 . S
C786 H798 0.956 . S
C786 H799 0.961 . S
C786 H800 0.961 . S
C787 C784 1.539 . S
C787 H801 0.958 . S
C787 H802 0.961 . S
C787 H803 0.960 . S
H788 C772 0.931 . S
H789 C777 0.929 . S
H790 C778 0.960 . S
H791 C778 0.962 . S
H792 C778 0.960 . S
H793 C779 0.961 . S
H794 C779 0.961 . S
H795 C779 0.961 . S
H796 C780 0.931 . S
H797 C785 0.930 . S
H798 C786 0.956 . S
H799 C786 0.961 . S
H800 C786 0.961 . S
H801 C787 0.958 . S
H802 C787 0.961 . S
H803 C787 0.960 . S
C804 C805 1.391 . S
C804 C806 1.394 . S
C804 H820 0.931 . S
C805 C804 1.391 . S
C805 C809 1.376 . S
C806 C804 1.394 . S
C806 C807 1.369 . S
C806 C810 1.531 . S
C807 C806 1.369 . S
C807 C808 1.410 . S
C807 C815 1.503 . S
C808 C807 1.410 . S
C808 C809 1.392 . S
C808 C811 1.511 . S
C809 C805 1.376 . S
C809 C808 1.392 . S
C809 H821 0.929 . S
C810 C806 1.531 . S
C810 H822 0.960 . S
C810 H823 0.962 . S
C810 H824 0.960 . S
C811 C808 1.511 . S
C811 H825 0.961 . S
C811 H826 0.961 . S
C811 H827 0.961 . S
C812 C813 1.370 . S
C812 C814 1.363 . S
C812 H828 0.931 . S
C813 C812 1.370 . S
C813 C817 1.408 . S
C814 C812 1.363 . S
C814 C815 1.370 . S
C814 C818 1.524 . S
C815 C807 1.503 . S
C815 C814 1.370 . S
C815 C816 1.403 . S
C816 C815 1.403 . S
C816 C817 1.404 . S
C816 C819 1.539 . S
C817 C813 1.408 . S
C817 C816 1.404 . S
C817 H829 0.930 . S
C818 C814 1.524 . S
C818 H830 0.956 . S
C818 H831 0.961 . S
C818 H832 0.961 . S
C819 C816 1.539 . S
C819 H833 0.958 . S
C819 H834 0.961 . S
C819 H835 0.960 . S
H820 C804 0.931 . S
H821 C809 0.929 . S
H822 C810 0.960 . S
H823 C810 0.962 . S
H824 C810 0.960 . S
H825 C811 0.961 . S
H826 C811 0.961 . S
H827 C811 0.961 . S
H828 C812 0.931 . S
H829 C817 0.930 . S
H830 C818 0.956 . S
H831 C818 0.961 . S
H832 C818 0.961 . S
H833 C819 0.958 . S
H834 C819 0.961 . S
H835 C819 0.960 . S
C836 C837 1.391 . S
C836 C838 1.394 . S
C836 H852 0.931 . S
C837 C836 1.391 . S
C837 C841 1.376 . S
C838 C836 1.394 . S
C838 C839 1.369 . S
C838 C842 1.531 . S
C839 C838 1.369 . S
C839 C840 1.410 . S
C839 C847 1.503 . S
C840 C839 1.410 . S
C840 C841 1.392 . S
C840 C843 1.511 . S
C841 C837 1.376 . S
C841 C840 1.392 . S
C841 H853 0.929 . S
C842 C838 1.531 . S
C842 H854 0.960 . S
C842 H855 0.962 . S
C842 H856 0.960 . S
C843 C840 1.511 . S
C843 H857 0.961 . S
C843 H858 0.961 . S
C843 H859 0.961 . S
C844 C845 1.370 . S
C844 C846 1.363 . S
C844 H860 0.931 . S
C845 C844 1.370 . S
C845 C849 1.408 . S
C846 C844 1.363 . S
C846 C847 1.370 . S
C846 C850 1.524 . S
C847 C839 1.503 . S
C847 C846 1.370 . S
C847 C848 1.403 . S
C848 C847 1.403 . S
C848 C849 1.404 . S
C848 C851 1.539 . S
C849 C845 1.408 . S
C849 C848 1.404 . S
C849 H861 0.930 . S
C850 C846 1.524 . S
C850 H862 0.956 . S
C850 H863 0.961 . S
C850 H864 0.961 . S
C851 C848 1.539 . S
C851 H865 0.958 . S
C851 H866 0.961 . S
C851 H867 0.960 . S
H852 C836 0.931 . S
H853 C841 0.929 . S
H854 C842 0.960 . S
H855 C842 0.962 . S
H856 C842 0.960 . S
H857 C843 0.961 . S
H858 C843 0.961 . S
H859 C843 0.961 . S
H860 C844 0.931 . S
H861 C849 0.930 . S
H862 C850 0.956 . S
H863 C850 0.961 . S
H864 C850 0.961 . S
H865 C851 0.958 . S
H866 C851 0.961 . S
H867 C851 0.960 . S
C868 C869 1.391 . S
C868 C870 1.394 . S
C868 H884 0.931 . S
C869 C868 1.391 . S
C869 C873 1.376 . S
C870 C868 1.394 . S
C870 C871 1.369 . S
C870 C874 1.531 . S
C871 C870 1.369 . S
C871 C872 1.410 . S
C871 C879 1.503 . S
C872 C871 1.410 . S
C872 C873 1.392 . S
C872 C875 1.511 . S
C873 C869 1.376 . S
C873 C872 1.392 . S
C873 H885 0.929 . S
C874 C870 1.531 . S
C874 H886 0.960 . S
C874 H887 0.962 . S
C874 H888 0.960 . S
C875 C872 1.511 . S
C875 H889 0.961 . S
C875 H890 0.961 . S
C875 H891 0.961 . S
C876 C877 1.370 . S
C876 C878 1.363 . S
C876 H892 0.931 . S
C877 C876 1.370 . S
C877 C881 1.408 . S
C878 C876 1.363 . S
C878 C879 1.370 . S
C878 C882 1.524 . S
C879 C871 1.503 . S
C879 C878 1.370 . S
C879 C880 1.403 . S
C880 C879 1.403 . S
C880 C881 1.404 . S
C880 C883 1.539 . S
C881 C877 1.408 . S
C881 C880 1.404 . S
C881 H893 0.930 . S
C882 C878 1.524 . S
C882 H894 0.956 . S
C882 H895 0.961 . S
C882 H896 0.961 . S
C883 C880 1.539 . S
C883 H897 0.958 . S
C883 H898 0.961 . S
C883 H899 0.960 . S
H884 C868 0.931 . S
H885 C873 0.929 . S
H886 C874 0.960 . S
H887 C874 0.962 . S
H888 C874 0.960 . S
H889 C875 0.961 . S
H890 C875 0.961 . S
H891 C875 0.961 . S
H892 C876 0.931 . S
H893 C881 0.930 . S
H894 C882 0.956 . S
H895 C882 0.961 . S
H896 C882 0.961 . S
H897 C883 0.958 . S
H898 C883 0.961 . S
H899 C883 0.960 . S
C900 C901 1.391 . S
C900 C902 1.394 . S
C900 H916 0.931 . S
C901 C900 1.391 . S
C901 C905 1.376 . S
C902 C900 1.394 . S
C902 C903 1.369 . S
C902 C906 1.531 . S
C903 C902 1.369 . S
C903 C904 1.410 . S
C903 C911 1.503 . S
C904 C903 1.410 . S
C904 C905 1.392 . S
C904 C907 1.511 . S
C905 C901 1.376 . S
C905 C904 1.392 . S
C905 H917 0.929 . S
C906 C902 1.531 . S
C906 H918 0.960 . S
C906 H919 0.962 . S
C906 H920 0.960 . S
C907 C904 1.511 . S
C907 H921 0.961 . S
C907 H922 0.961 . S
C907 H923 0.961 . S
C908 C909 1.370 . S
C908 C910 1.363 . S
C908 H924 0.931 . S
C909 C908 1.370 . S
C909 C913 1.408 . S
C910 C908 1.363 . S
C910 C911 1.370 . S
C910 C914 1.524 . S
C911 C903 1.503 . S
C911 C910 1.370 . S
C911 C912 1.403 . S
C912 C911 1.403 . S
C912 C913 1.404 . S
C912 C915 1.539 . S
C913 C909 1.408 . S
C913 C912 1.404 . S
C913 H925 0.930 . S
C914 C910 1.524 . S
C914 H926 0.956 . S
C914 H927 0.961 . S
C914 H928 0.961 . S
C915 C912 1.539 . S
C915 H929 0.958 . S
C915 H930 0.961 . S
C915 H931 0.960 . S
H916 C900 0.931 . S
H917 C905 0.929 . S
H918 C906 0.960 . S
H919 C906 0.962 . S
H920 C906 0.960 . S
H921 C907 0.961 . S
H922 C907 0.961 . S
H923 C907 0.961 . S
H924 C908 0.931 . S
H925 C913 0.930 . S
H926 C914 0.956 . S
H927 C914 0.961 . S
H928 C914 0.961 . S
H929 C915 0.958 . S
H930 C915 0.961 . S
H931 C915 0.960 . S
C932 C933 1.391 . S
C932 C934 1.394 . S
C932 H948 0.931 . S
C933 C932 1.391 . S
C933 C937 1.376 . S
C934 C932 1.394 . S
C934 C935 1.369 . S
C934 C938 1.531 . S
C935 C934 1.369 . S
C935 C936 1.410 . S
C935 C943 1.503 1_655 S
C936 C935 1.410 . S
C936 C937 1.392 . S
C936 C939 1.511 . S
C937 C933 1.376 . S
C937 C936 1.392 . S
C937 H949 0.929 . S
C938 C934 1.531 . S
C938 H950 0.954 1_655 S
C938 H951 0.962 1_655 S
C938 H952 0.960 . S
C939 C936 1.511 . S
C939 H953 0.961 . S
C939 H954 0.961 . S
C939 H955 0.961 . S
C940 C941 1.370 . S
C940 C942 1.363 . S
C940 H956 0.931 . S
C941 C940 1.370 . S
C941 C945 1.408 . S
C942 C940 1.363 . S
C942 C943 1.370 . S
C942 C946 1.524 . S
C943 C935 1.503 1_455 S
C943 C942 1.370 . S
C943 C944 1.403 . S
C944 C943 1.403 . S
C944 C945 1.404 . S
C944 C947 1.539 1_455 S
C945 C941 1.408 . S
C945 C944 1.404 . S
C945 H957 0.930 . S
C946 C942 1.524 . S
C946 H958 0.956 . S
C946 H959 0.961 . S
C946 H960 0.961 . S
C947 C944 1.539 1_655 S
C947 H961 0.958 . S
C947 H962 0.961 . S
C947 H963 0.960 . S
H948 C932 0.931 . S
H949 C937 0.929 . S
H950 C938 0.954 1_455 S
H951 C938 0.962 1_455 S
H952 C938 0.960 . S
H953 C939 0.961 . S
H954 C939 0.961 . S
H955 C939 0.961 . S
H956 C940 0.931 . S
H957 C945 0.930 . S
H958 C946 0.956 . S
H959 C946 0.961 . S
H960 C946 0.961 . S
H961 C947 0.958 . S
H962 C947 0.961 . S
H963 C947 0.960 . S
C964 C965 1.391 . S
C964 C966 1.394 . S
C964 H980 0.931 . S
C965 C964 1.391 . S
C965 C969 1.376 . S
C966 C964 1.394 . S
C966 C967 1.369 . S
C966 C970 1.531 . S
C967 C966 1.369 . S
C967 C968 1.410 . S
C967 C975 1.503 1_545 S
C968 C967 1.410 . S
C968 C969 1.392 . S
C968 C971 1.511 1_545 S
C969 C965 1.376 . S
C969 C968 1.392 . S
C969 H981 0.929 . S
C970 C966 1.531 . S
C970 H982 0.960 . S
C970 H983 0.962 . S
C970 H984 0.960 . S
C971 C968 1.511 1_565 S
C971 H985 0.961 . S
C971 H986 0.961 . S
C971 H987 0.961 . S
C972 C973 1.370 . S
C972 C974 1.363 . S
C972 H988 0.931 . S
C973 C972 1.370 . S
C973 C977 1.408 . S
C974 C972 1.363 . S
C974 C975 1.370 . S
C974 C978 1.524 . S
C975 C967 1.503 1_565 S
C975 C974 1.370 . S
C975 C976 1.403 . S
C976 C975 1.403 . S
C976 C977 1.404 . S
C976 C979 1.539 . S
C977 C973 1.408 . S
C977 C976 1.404 . S
C977 H989 0.930 . S
C978 C974 1.524 . S
C978 H990 0.956 1_565 S
C978 H991 0.961 1_565 S
C978 H992 0.961 . S
C979 C976 1.539 . S
C979 H993 0.958 . S
C979 H994 0.961 . S
C979 H995 0.960 . S
H980 C964 0.931 . S
H981 C969 0.929 . S
H982 C970 0.960 . S
H983 C970 0.962 . S
H984 C970 0.960 . S
H985 C971 0.961 . S
H986 C971 0.961 . S
H987 C971 0.961 . S
H988 C972 0.931 . S
H989 C977 0.930 . S
H990 C978 0.956 1_545 S
H991 C978 0.961 1_545 S
H992 C978 0.961 . S
H993 C979 0.958 . S
H994 C979 0.961 . S
H995 C979 0.960 . S
C996 C997 1.391 . S
C996 C998 1.394 . S
C996 H1012 0.931 . S
C997 C996 1.391 . S
C997 C1001 1.376 . S
C998 C996 1.394 . S
C998 C999 1.369 . S
C998 C1002 1.531 . S
C999 C998 1.369 . S
C999 C1000 1.410 . S
C999 C1007 1.503 . S
C1000 C999 1.410 . S
C1000 C1001 1.392 . S
C1000 C1003 1.511 . S
C1001 C997 1.376 . S
C1001 C1000 1.392 . S
C1001 H1013 0.929 . S
C1002 C998 1.531 . S
C1002 H1014 0.960 . S
C1002 H1015 0.962 . S
C1002 H1016 0.960 . S
C1003 C1000 1.511 . S
C1003 H1017 0.961 . S
C1003 H1018 0.961 . S
C1003 H1019 0.961 . S
C1004 C1005 1.370 . S
C1004 C1006 1.363 . S
C1004 H1020 0.931 . S
C1005 C1004 1.370 . S
C1005 C1009 1.408 . S
C1006 C1004 1.363 . S
C1006 C1007 1.370 . S
C1006 C1010 1.524 . S
C1007 C999 1.503 . S
C1007 C1006 1.370 . S
C1007 C1008 1.403 . S
C1008 C1007 1.403 . S
C1008 C1009 1.404 . S
C1008 C1011 1.539 . S
C1009 C1005 1.408 . S
C1009 C1008 1.404 . S
C1009 H1021 0.930 . S
C1010 C1006 1.524 . S
C1010 H1022 0.956 . S
C1010 H1023 0.961 . S
C1010 H1024 0.961 . S
C1011 C1008 1.539 . S
C1011 H1025 0.958 . S
C1011 H1026 0.961 . S
C1011 H1027 0.960 . S
H1012 C996 0.931 . S
H1013 C1001 0.929 . S
H1014 C1002 0.960 . S
H1015 C1002 0.962 . S
H1016 C1002 0.960 . S
H1017 C1003 0.961 . S
H1018 C1003 0.961 . S
H1019 C1003 0.961 . S
H1020 C1004 0.931 . S
H1021 C1009 0.930 . S
H1022 C1010 0.956 . S
H1023 C1010 0.961 . S
H1024 C1010 0.961 . S
H1025 C1011 0.958 . S
H1026 C1011 0.961 . S
H1027 C1011 0.960 . S
C1028 C1029 1.391 . S
C1028 C1030 1.394 . S
C1028 H1044 0.931 . S
C1029 C1028 1.391 . S
C1029 C1033 1.376 . S
C1030 C1028 1.394 . S
C1030 C1031 1.369 . S
C1030 C1034 1.531 . S
C1031 C1030 1.369 . S
C1031 C1032 1.410 . S
C1031 C1039 1.503 1_655 S
C1032 C1031 1.410 . S
C1032 C1033 1.392 . S
C1032 C1035 1.511 . S
C1033 C1029 1.376 . S
C1033 C1032 1.392 . S
C1033 H1045 0.929 . S
C1034 C1030 1.531 . S
C1034 H1046 0.960 . S
C1034 H1047 0.962 . S
C1034 H1048 0.960 . S
C1035 C1032 1.511 . S
C1035 H1049 0.961 . S
C1035 H1050 0.961 1_655 S
C1035 H1051 0.961 . S
C1036 C1037 1.370 . S
C1036 C1038 1.363 . S
C1036 H1052 0.931 . S
C1037 C1036 1.370 . S
C1037 C1041 1.408 . S
C1038 C1036 1.363 . S
C1038 C1039 1.370 . S
C1038 C1042 1.524 . S
C1039 C1031 1.503 1_455 S
C1039 C1038 1.370 . S
C1039 C1040 1.403 . S
C1040 C1039 1.403 . S
C1040 C1041 1.404 . S
C1040 C1043 1.539 1_455 S
C1041 C1037 1.408 . S
C1041 C1040 1.404 . S
C1041 H1053 0.930 . S
C1042 C1038 1.524 . S
C1042 H1054 0.956 . S
C1042 H1055 0.961 . S
C1042 H1056 0.961 . S
C1043 C1040 1.539 1_655 S
C1043 H1057 0.958 . S
C1043 H1058 0.961 . S
C1043 H1059 0.960 . S
H1044 C1028 0.931 . S
H1045 C1033 0.929 . S
H1046 C1034 0.960 . S
H1047 C1034 0.962 . S
H1048 C1034 0.960 . S
H1049 C1035 0.961 . S
H1050 C1035 0.961 1_455 S
H1051 C1035 0.961 . S
H1052 C1036 0.931 . S
H1053 C1041 0.930 . S
H1054 C1042 0.956 . S
H1055 C1042 0.961 . S
H1056 C1042 0.961 . S
H1057 C1043 0.958 . S
H1058 C1043 0.961 . S
H1059 C1043 0.960 . S
C1060 C1061 1.391 . S
C1060 C1062 1.394 . S
C1060 H1076 0.931 . S
C1061 C1060 1.391 . S
C1061 C1065 1.376 . S
C1062 C1060 1.394 . S
C1062 C1063 1.369 . S
C1062 C1066 1.531 . S
C1063 C1062 1.369 . S
C1063 C1064 1.410 . S
C1063 C1071 1.503 1_564 S
C1064 C1063 1.410 . S
C1064 C1065 1.392 . S
C1064 C1067 1.511 1_554 S
C1065 C1061 1.376 . S
C1065 C1064 1.392 . S
C1065 H1077 0.929 . S
C1066 C1062 1.531 . S
C1066 H1078 0.960 1_565 S
C1066 H1079 0.962 . S
C1066 H1080 0.960 . S
C1067 C1064 1.511 1_556 S
C1067 H1081 0.961 . S
C1067 H1082 0.961 . S
C1067 H1083 0.961 1_556 S
C1068 C1069 1.370 . S
C1068 C1070 1.363 . S
C1068 H1084 0.931 . S
C1069 C1068 1.370 . S
C1069 C1073 1.408 . S
C1070 C1068 1.363 . S
C1070 C1071 1.370 . S
C1070 C1074 1.524 1_545 S
C1071 C1063 1.503 1_546 S
C1071 C1070 1.370 . S
C1071 C1072 1.403 1_556 S
C1072 C1071 1.403 1_554 S
C1072 C1073 1.404 1_554 S
C1072 C1075 1.539 . S
C1073 C1069 1.408 . S
C1073 C1072 1.404 1_556 S
C1073 H1085 0.930 1_556 S
C1074 C1070 1.524 1_565 S
C1074 H1086 0.956 . S
C1074 H1087 0.961 . S
C1074 H1088 0.961 . S
C1075 C1072 1.539 . S
C1075 H1089 0.958 . S
C1075 H1090 0.961 . S
C1075 H1091 0.960 . S
H1076 C1060 0.931 . S
H1077 C1065 0.929 . S
H1078 C1066 0.960 1_545 S
H1079 C1066 0.962 . S
H1080 C1066 0.960 . S
H1081 C1067 0.961 . S
H1082 C1067 0.961 . S
H1083 C1067 0.961 1_554 S
H1084 C1068 0.931 . S
H1085 C1073 0.930 1_554 S
H1086 C1074 0.956 . S
H1087 C1074 0.961 . S
H1088 C1074 0.961 . S
H1089 C1075 0.958 . S
H1090 C1075 0.961 . S
H1091 C1075 0.960 . S
C1092 C1093 1.391 . S
C1092 C1094 1.394 . S
C1092 H1108 0.931 . S
C1093 C1092 1.391 . S
C1093 C1097 1.376 . S
C1094 C1092 1.394 . S
C1094 C1095 1.369 . S
C1094 C1098 1.531 . S
C1095 C1094 1.369 . S
C1095 C1096 1.410 . S
C1095 C1103 1.503 . S
C1096 C1095 1.410 . S
C1096 C1097 1.392 . S
C1096 C1099 1.511 . S
C1097 C1093 1.376 . S
C1097 C1096 1.392 . S
C1097 H1109 0.929 . S
C1098 C1094 1.531 . S
C1098 H1110 0.960 . S
C1098 H1111 0.962 . S
C1098 H1112 0.960 . S
C1099 C1096 1.511 . S
C1099 H1113 0.961 . S
C1099 H1114 0.961 . S
C1099 H1115 0.961 . S
C1100 C1101 1.382 . S
C1100 C1102 1.363 . S
C1100 H1116 0.932 . S
C1101 C1100 1.382 . S
C1101 C1105 1.426 . S
C1102 C1100 1.363 . S
C1102 C1103 1.370 . S
C1102 C1106 1.524 . S
C1103 C1095 1.503 . S
C1103 C1102 1.370 . S
C1103 C1104 1.403 . S
C1104 C1103 1.403 . S
C1104 C1105 1.404 . S
C1104 C1107 1.539 . S
C1105 C1101 1.426 . S
C1105 C1104 1.404 . S
C1105 H1117 0.930 . S
C1106 C1102 1.524 . S
C1106 H1118 0.956 . S
C1106 H1119 0.961 . S
C1106 H1120 0.961 . S
C1107 C1104 1.539 . S
C1107 H1121 0.958 . S
C1107 H1122 0.961 . S
C1107 H1123 0.960 . S
H1108 C1092 0.931 . S
H1109 C1097 0.929 . S
H1110 C1098 0.960 . S
H1111 C1098 0.962 . S
H1112 C1098 0.960 . S
H1113 C1099 0.961 . S
H1114 C1099 0.961 . S
H1115 C1099 0.961 . S
H1116 C1100 0.932 . S
H1117 C1105 0.930 . S
H1118 C1106 0.956 . S
H1119 C1106 0.961 . S
H1120 C1106 0.961 . S
H1121 C1107 0.958 . S
H1122 C1107 0.961 . S
H1123 C1107 0.960 . S
C1124 C1125 1.391 . S
C1124 C1126 1.394 . S
C1124 H1140 0.931 . S
C1125 C1124 1.391 . S
C1125 C1129 1.376 . S
C1126 C1124 1.394 . S
C1126 C1127 1.369 . S
C1126 C1130 1.531 . S
C1127 C1126 1.369 . S
C1127 C1128 1.410 . S
C1127 C1135 1.503 . S
C1128 C1127 1.410 . S
C1128 C1129 1.392 . S
C1128 C1131 1.511 . S
C1129 C1125 1.376 . S
C1129 C1128 1.392 . S
C1129 H1141 0.929 . S
C1130 C1126 1.531 . S
C1130 H1142 0.960 . S
C1130 H1143 0.962 . S
C1130 H1144 0.960 . S
C1131 C1128 1.511 . S
C1131 H1145 0.961 . S
C1131 H1146 0.961 . S
C1131 H1147 0.961 . S
C1132 C1133 1.370 1_655 S
C1132 C1134 1.363 . S
C1132 H1148 0.931 . S
C1133 C1132 1.370 1_455 S
C1133 C1137 1.408 . S
C1134 C1132 1.363 . S
C1134 C1135 1.370 . S
C1134 C1138 1.524 . S
C1135 C1127 1.503 . S
C1135 C1134 1.370 . S
C1135 C1136 1.403 1_655 S
C1136 C1135 1.403 1_455 S
C1136 C1137 1.404 . S
C1136 C1139 1.539 . S
C1137 C1133 1.408 . S
C1137 C1136 1.404 . S
C1137 H1149 0.930 . S
C1138 C1134 1.524 . S
C1138 H1150 0.956 . S
C1138 H1151 0.961 . S
C1138 H1152 0.961 . S
C1139 C1136 1.539 . S
C1139 H1153 0.958 . S
C1139 H1154 0.961 . S
C1139 H1155 0.960 . S
H1140 C1124 0.931 . S
H1141 C1129 0.929 . S
H1142 C1130 0.960 . S
H1143 C1130 0.962 . S
H1144 C1130 0.960 . S
H1145 C1131 0.961 . S
H1146 C1131 0.961 . S
H1147 C1131 0.961 . S
H1148 C1132 0.931 . S
H1149 C1137 0.930 . S
H1150 C1138 0.956 . S
H1151 C1138 0.961 . S
H1152 C1138 0.961 . S
H1153 C1139 0.958 . S
H1154 C1139 0.961 . S
H1155 C1139 0.960 . S
C1156 C1157 1.391 1_565 S
C1156 C1158 1.394 . S
C1156 H1172 0.931 . S
C1157 C1156 1.391 1_545 S
C1157 C1161 1.376 . S
C1158 C1156 1.394 . S
C1158 C1159 1.369 . S
C1158 C1162 1.531 . S
C1159 C1158 1.369 . S
C1159 C1160 1.410 1_565 S
C1159 C1167 1.503 . S
C1160 C1159 1.410 1_545 S
C1160 C1161 1.392 . S
C1160 C1163 1.511 . S
C1161 C1157 1.376 . S
C1161 C1160 1.392 . S
C1161 H1173 0.929 . S
C1162 C1158 1.531 . S
C1162 H1174 0.960 . S
C1162 H1175 0.962 . S
C1162 H1176 0.960 . S
C1163 C1160 1.511 . S
C1163 H1177 0.961 . S
C1163 H1178 0.961 1_545 S
C1163 H1179 0.961 . S
C1164 C1165 1.370 . S
C1164 C1166 1.363 . S
C1164 H1180 0.931 . S
C1165 C1164 1.370 . S
C1165 C1169 1.408 . S
C1166 C1164 1.363 . S
C1166 C1167 1.370 . S
C1166 C1170 1.524 . S
C1167 C1159 1.503 . S
C1167 C1166 1.370 . S
C1167 C1168 1.403 . S
C1168 C1167 1.403 . S
C1168 C1169 1.404 . S
C1168 C1171 1.539 . S
C1169 C1165 1.408 . S
C1169 C1168 1.404 . S
C1169 H1181 0.930 . S
C1170 C1166 1.524 . S
C1170 H1182 0.956 . S
C1170 H1183 0.961 . S
C1170 H1184 0.961 . S
C1171 C1168 1.539 . S
C1171 H1185 0.958 . S
C1171 H1186 0.961 . S
C1171 H1187 0.960 . S
H1172 C1156 0.931 . S
H1173 C1161 0.929 . S
H1174 C1162 0.960 . S
H1175 C1162 0.962 . S
H1176 C1162 0.960 . S
H1177 C1163 0.961 . S
H1178 C1163 0.961 1_565 S
H1179 C1163 0.961 . S
H1180 C1164 0.931 . S
H1181 C1169 0.930 . S
H1182 C1170 0.956 . S
H1183 C1170 0.961 . S
H1184 C1170 0.961 . S
H1185 C1171 0.958 . S
H1186 C1171 0.961 . S
H1187 C1171 0.960 . S
C1188 C1189 1.391 . S
C1188 C1190 1.394 . S
C1188 H1204 0.931 . S
C1189 C1188 1.391 . S
C1189 C1193 1.376 . S
C1190 C1188 1.394 . S
C1190 C1191 1.369 . S
C1190 C1194 1.531 . S
C1191 C1190 1.369 . S
C1191 C1192 1.410 . S
C1191 C1199 1.503 . S
C1192 C1191 1.410 . S
C1192 C1193 1.392 . S
C1192 C1195 1.511 . S
C1193 C1189 1.376 . S
C1193 C1192 1.392 . S
C1193 H1205 0.929 . S
C1194 C1190 1.531 . S
C1194 H1206 0.960 . S
C1194 H1207 0.962 . S
C1194 H1208 0.960 . S
C1195 C1192 1.511 . S
C1195 H1209 0.961 . S
C1195 H1210 0.961 . S
C1195 H1211 0.961 . S
C1196 C1197 1.370 . S
C1196 C1198 1.363 . S
C1196 H1212 0.931 . S
C1197 C1196 1.370 . S
C1197 C1201 1.408 . S
C1198 C1196 1.363 . S
C1198 C1199 1.370 . S
C1198 C1202 1.524 . S
C1199 C1191 1.503 . S
C1199 C1198 1.370 . S
C1199 C1200 1.403 . S
C1200 C1199 1.403 . S
C1200 C1201 1.404 . S
C1200 C1203 1.539 . S
C1201 C1197 1.408 . S
C1201 C1200 1.404 . S
C1201 H1213 0.930 . S
C1202 C1198 1.524 . S
C1202 H1214 0.956 . S
C1202 H1215 0.961 . S
C1202 H1216 0.961 . S
C1203 C1200 1.539 . S
C1203 H1217 0.958 . S
C1203 H1218 0.961 . S
C1203 H1219 0.960 . S
H1204 C1188 0.931 . S
H1205 C1193 0.929 . S
H1206 C1194 0.960 . S
H1207 C1194 0.962 . S
H1208 C1194 0.960 . S
H1209 C1195 0.961 . S
H1210 C1195 0.961 . S
H1211 C1195 0.961 . S
H1212 C1196 0.931 . S
H1213 C1201 0.930 . S
H1214 C1202 0.956 . S
H1215 C1202 0.961 . S
H1216 C1202 0.961 . S
H1217 C1203 0.958 . S
H1218 C1203 0.961 . S
H1219 C1203 0.960 . S
C1220 C1221 1.391 . S
C1220 C1222 1.394 . S
C1220 H1236 0.931 . S
C1221 C1220 1.391 . S
C1221 C1225 1.376 . S
C1222 C1220 1.394 . S
C1222 C1223 1.369 . S
C1222 C1226 1.531 . S
C1223 C1222 1.369 . S
C1223 C1224 1.410 . S
C1223 C1231 1.503 . S
C1224 C1223 1.410 . S
C1224 C1225 1.392 . S
C1224 C1227 1.511 . S
C1225 C1221 1.376 . S
C1225 C1224 1.392 . S
C1225 H1237 0.929 . S
C1226 C1222 1.531 . S
C1226 H1238 0.960 . S
C1226 H1239 0.962 . S
C1226 H1240 0.960 . S
C1227 C1224 1.511 . S
C1227 H1241 0.961 . S
C1227 H1242 0.961 . S
C1227 H1243 0.961 . S
C1228 C1229 1.370 . S
C1228 C1230 1.363 1_655 S
C1228 H1244 0.931 . S
C1229 C1228 1.370 . S
C1229 C1233 1.408 1_655 S
C1230 C1228 1.363 1_455 S
C1230 C1231 1.370 . S
C1230 C1234 1.524 . S
C1231 C1223 1.503 . S
C1231 C1230 1.370 . S
C1231 C1232 1.403 . S
C1232 C1231 1.403 . S
C1232 C1233 1.404 . S
C1232 C1235 1.539 . S
C1233 C1229 1.408 1_455 S
C1233 C1232 1.404 . S
C1233 H1245 0.930 . S
C1234 C1230 1.524 . S
C1234 H1246 0.956 1_455 S
C1234 H1247 0.961 . S
C1234 H1248 0.961 1_455 S
C1235 C1232 1.539 . S
C1235 H1249 0.958 . S
C1235 H1250 0.961 . S
C1235 H1251 0.960 . S
H1236 C1220 0.931 . S
H1237 C1225 0.929 . S
H1238 C1226 0.960 . S
H1239 C1226 0.962 . S
H1240 C1226 0.960 . S
H1241 C1227 0.961 . S
H1242 C1227 0.961 . S
H1243 C1227 0.961 . S
H1244 C1228 0.931 . S
H1245 C1233 0.930 . S
H1246 C1234 0.956 1_655 S
H1247 C1234 0.961 . S
H1248 C1234 0.961 1_655 S
H1249 C1235 0.958 . S
H1250 C1235 0.961 . S
H1251 C1235 0.960 . S
C1252 C1253 1.391 . S
C1252 C1254 1.394 . S
C1252 H1268 0.931 . S
C1253 C1252 1.391 . S
C1253 C1257 1.376 . S
C1254 C1252 1.394 . S
C1254 C1255 1.369 . S
C1254 C1258 1.531 . S
C1255 C1254 1.369 . S
C1255 C1256 1.410 . S
C1255 C1263 1.503 . S
C1256 C1255 1.410 . S
C1256 C1257 1.392 . S
C1256 C1259 1.511 . S
C1257 C1253 1.376 . S
C1257 C1256 1.392 . S
C1257 H1269 0.929 . S
C1258 C1254 1.531 . S
C1258 H1270 0.961 . S
C1258 H1271 0.962 . S
C1258 H1272 0.960 . S
C1259 C1256 1.511 . S
C1259 H1273 0.961 . S
C1259 H1274 0.961 . S
C1259 H1275 0.961 . S
C1260 C1261 1.370 1_545 S
C1260 C1262 1.363 . S
C1260 H1276 0.931 . S
C1261 C1260 1.370 1_565 S
C1261 C1265 1.408 . S
C1262 C1260 1.363 . S
C1262 C1263 1.370 . S
C1262 C1266 1.524 . S
C1263 C1255 1.503 . S
C1263 C1262 1.370 . S
C1263 C1264 1.403 . S
C1264 C1263 1.403 . S
C1264 C1265 1.404 1_545 S
C1264 C1267 1.539 1_545 S
C1265 C1261 1.408 . S
C1265 C1264 1.404 1_565 S
C1265 H1277 0.930 . S
C1266 C1262 1.524 . S
C1266 H1278 0.956 . S
C1266 H1279 0.961 . S
C1266 H1280 0.961 . S
C1267 C1264 1.539 1_565 S
C1267 H1281 0.958 . S
C1267 H1282 0.961 . S
C1267 H1283 0.960 1_565 S
H1268 C1252 0.931 . S
H1269 C1257 0.929 . S
H1270 C1258 0.961 . S
H1271 C1258 0.962 . S
H1272 C1258 0.960 . S
H1273 C1259 0.961 . S
H1274 C1259 0.961 . S
H1275 C1259 0.961 . S
H1276 C1260 0.931 . S
H1277 C1265 0.930 . S
H1278 C1266 0.956 . S
H1279 C1266 0.961 . S
H1280 C1266 0.961 . S
H1281 C1267 0.958 . S
H1282 C1267 0.961 . S
H1283 C1267 0.960 1_545 S
C1284 C1285 1.391 . S
C1284 C1286 1.394 . S
C1284 H1300 0.931 . S
C1285 C1284 1.391 . S
C1285 C1289 1.376 . S
C1286 C1284 1.394 . S
C1286 C1287 1.369 . S
C1286 C1290 1.531 . S
C1287 C1286 1.369 . S
C1287 C1288 1.410 . S
C1287 C1295 1.503 . S
C1288 C1287 1.410 . S
C1288 C1289 1.392 . S
C1288 C1291 1.511 . S
C1289 C1285 1.376 . S
C1289 C1288 1.392 . S
C1289 H1301 0.929 . S
C1290 C1286 1.531 . S
C1290 H1302 0.960 . S
C1290 H1303 0.962 . S
C1290 H1304 0.960 . S
C1291 C1288 1.511 . S
C1291 H1305 0.961 . S
C1291 H1306 0.961 . S
C1291 H1307 0.961 . S
C1292 C1293 1.370 . S
C1292 C1294 1.363 . S
C1292 H1308 0.931 . S
C1293 C1292 1.370 . S
C1293 C1297 1.408 . S
C1294 C1292 1.363 . S
C1294 C1295 1.370 . S
C1294 C1298 1.524 . S
C1295 C1287 1.503 . S
C1295 C1294 1.370 . S
C1295 C1296 1.403 . S
C1296 C1295 1.403 . S
C1296 C1297 1.404 . S
C1296 C1299 1.539 . S
C1297 C1293 1.408 . S
C1297 C1296 1.404 . S
C1297 H1309 0.930 . S
C1298 C1294 1.524 . S
C1298 H1310 0.956 . S
C1298 H1311 0.961 . S
C1298 H1312 0.961 . S
C1299 C1296 1.539 . S
C1299 H1313 0.958 . S
C1299 H1314 0.961 . S
C1299 H1315 0.960 . S
H1300 C1284 0.931 . S
H1301 C1289 0.929 . S
H1302 C1290 0.960 . S
H1303 C1290 0.962 . S
H1304 C1290 0.960 . S
H1305 C1291 0.961 . S
H1306 C1291 0.961 . S
H1307 C1291 0.961 . S
H1308 C1292 0.931 . S
H1309 C1297 0.930 . S
H1310 C1298 0.956 . S
H1311 C1298 0.961 . S
H1312 C1298 0.961 . S
H1313 C1299 0.958 . S
H1314 C1299 0.961 . S
H1315 C1299 0.960 . S
C1316 C1317 1.391 . S
C1316 C1318 1.394 . S
C1316 H1332 0.931 . S
C1317 C1316 1.391 . S
C1317 C1321 1.376 . S
C1318 C1316 1.394 . S
C1318 C1319 1.369 . S
C1318 C1322 1.531 . S
C1319 C1318 1.369 . S
C1319 C1320 1.410 . S
C1319 C1327 1.503 . S
C1320 C1319 1.410 . S
C1320 C1321 1.392 . S
C1320 C1323 1.511 . S
C1321 C1317 1.376 . S
C1321 C1320 1.392 . S
C1321 H1333 0.929 . S
C1322 C1318 1.531 . S
C1322 H1334 0.960 . S
C1322 H1335 0.962 . S
C1322 H1336 0.960 . S
C1323 C1320 1.511 . S
C1323 H1337 0.961 . S
C1323 H1338 0.961 1_655 S
C1323 H1339 0.961 . S
C1324 C1325 1.383 . S
C1324 C1326 1.363 1_455 S
C1324 H1340 0.931 . S
C1325 C1324 1.383 . S
C1325 C1329 1.420 1_455 S
C1326 C1324 1.363 1_655 S
C1326 C1327 1.370 . S
C1326 C1330 1.524 . S
C1327 C1319 1.503 . S
C1327 C1326 1.370 . S
C1327 C1328 1.403 . S
C1328 C1327 1.403 . S
C1328 C1329 1.404 . S
C1328 C1331 1.539 . S
C1329 C1325 1.420 1_655 S
C1329 C1328 1.404 . S
C1329 H1341 0.923 1_655 S
C1330 C1326 1.524 . S
C1330 H1342 0.956 . S
C1330 H1343 0.961 . S
C1330 H1344 0.961 . S
C1331 C1328 1.539 . S
C1331 H1345 0.958 . S
C1331 H1346 0.961 . S
C1331 H1347 0.960 . S
H1332 C1316 0.931 . S
H1333 C1321 0.929 . S
H1334 C1322 0.960 . S
H1335 C1322 0.962 . S
H1336 C1322 0.960 . S
H1337 C1323 0.961 . S
H1338 C1323 0.961 1_455 S
H1339 C1323 0.961 . S
H1340 C1324 0.931 . S
H1341 C1329 0.923 1_455 S
H1342 C1330 0.956 . S
H1343 C1330 0.961 . S
H1344 C1330 0.961 . S
H1345 C1331 0.958 . S
H1346 C1331 0.961 . S
H1347 C1331 0.960 . S
C1348 C1349 1.391 . S
C1348 C1350 1.394 . S
C1348 H1364 0.931 . S
C1349 C1348 1.391 . S
C1349 C1353 1.376 . S
C1350 C1348 1.394 . S
C1350 C1351 1.369 . S
C1350 C1354 1.531 . S
C1351 C1350 1.369 . S
C1351 C1352 1.410 . S
C1351 C1359 1.503 . S
C1352 C1351 1.410 . S
C1352 C1353 1.392 . S
C1352 C1355 1.511 . S
C1353 C1349 1.376 . S
C1353 C1352 1.392 . S
C1353 H1365 0.929 . S
C1354 C1350 1.531 . S
C1354 H1366 0.960 . S
C1354 H1367 0.962 . S
C1354 H1368 0.960 . S
C1355 C1352 1.511 . S
C1355 H1369 0.961 . S
C1355 H1370 0.961 . S
C1355 H1371 0.961 . S
C1356 C1357 1.370 . S
C1356 C1358 1.363 1_545 S
C1356 H1372 0.931 . S
C1357 C1356 1.370 . S
C1357 C1361 1.408 1_545 S
C1358 C1356 1.363 1_565 S
C1358 C1359 1.370 . S
C1358 C1362 1.524 1_565 S
C1359 C1351 1.503 . S
C1359 C1358 1.370 . S
C1359 C1360 1.403 . S
C1360 C1359 1.403 . S
C1360 C1361 1.404 . S
C1360 C1363 1.539 . S
C1361 C1357 1.408 1_565 S
C1361 C1360 1.404 . S
C1361 H1373 0.930 . S
C1362 C1358 1.524 1_545 S
C1362 H1374 0.956 1_545 S
C1362 H1375 0.961 1_545 S
C1362 H1376 0.961 . S
C1363 C1360 1.539 . S
C1363 H1377 0.958 . S
C1363 H1378 0.961 . S
C1363 H1379 0.960 . S
H1364 C1348 0.931 . S
H1365 C1353 0.929 . S
H1366 C1354 0.960 . S
H1367 C1354 0.962 . S
H1368 C1354 0.960 . S
H1369 C1355 0.961 . S
H1370 C1355 0.961 . S
H1371 C1355 0.961 . S
H1372 C1356 0.931 . S
H1373 C1361 0.930 . S
H1374 C1362 0.956 1_565 S
H1375 C1362 0.961 1_565 S
H1376 C1362 0.961 . S
H1377 C1363 0.958 . S
H1378 C1363 0.961 . S
H1379 C1363 0.960 . S
C1380 C1381 1.391 . S
C1380 C1382 1.394 . S
C1380 H1396 0.931 . S
C1381 C1380 1.391 . S
C1381 C1385 1.376 . S
C1382 C1380 1.394 . S
C1382 C1383 1.369 . S
C1382 C1386 1.531 . S
C1383 C1382 1.369 . S
C1383 C1384 1.410 . S
C1383 C1391 1.503 . S
C1384 C1383 1.410 . S
C1384 C1385 1.392 . S
C1384 C1387 1.511 . S
C1385 C1381 1.376 . S
C1385 C1384 1.392 . S
C1385 H1397 0.929 . S
C1386 C1382 1.531 . S
C1386 H1398 0.960 . S
C1386 H1399 0.962 . S
C1386 H1400 0.960 . S
C1387 C1384 1.511 . S
C1387 H1401 0.961 . S
C1387 H1402 0.961 . S
C1387 H1403 0.961 . S
C1388 C1389 1.370 . S
C1388 C1390 1.363 . S
C1388 H1404 0.931 . S
C1389 C1388 1.370 . S
C1389 C1393 1.408 . S
C1390 C1388 1.363 . S
C1390 C1391 1.370 . S
C1390 C1394 1.524 . S
C1391 C1383 1.503 . S
C1391 C1390 1.370 . S
C1391 C1392 1.403 . S
C1392 C1391 1.403 . S
C1392 C1393 1.404 . S
C1392 C1395 1.539 . S
C1393 C1389 1.408 . S
C1393 C1392 1.404 . S
C1393 H1405 0.930 . S
C1394 C1390 1.524 . S
C1394 H1406 0.956 . S
C1394 H1407 0.961 . S
C1394 H1408 0.961 . S
C1395 C1392 1.539 . S
C1395 H1409 0.958 . S
C1395 H1410 0.961 . S
C1395 H1411 0.960 . S
H1396 C1380 0.931 . S
H1397 C1385 0.929 . S
H1398 C1386 0.960 . S
H1399 C1386 0.962 . S
H1400 C1386 0.960 . S
H1401 C1387 0.961 . S
H1402 C1387 0.961 . S
H1403 C1387 0.961 . S
H1404 C1388 0.931 . S
H1405 C1393 0.930 . S
H1406 C1394 0.956 . S
H1407 C1394 0.961 . S
H1408 C1394 0.961 . S
H1409 C1395 0.958 . S
H1410 C1395 0.961 . S
H1411 C1395 0.960 . S
C1412 C1413 1.391 . S
C1412 C1414 1.394 . S
C1412 H1428 0.931 . S
C1413 C1412 1.391 . S
C1413 C1417 1.376 . S
C1414 C1412 1.394 . S
C1414 C1415 1.369 . S
C1414 C1418 1.531 . S
C1415 C1414 1.369 . S
C1415 C1416 1.410 . S
C1415 C1423 1.503 . S
C1416 C1415 1.410 . S
C1416 C1417 1.392 . S
C1416 C1419 1.511 . S
C1417 C1413 1.376 . S
C1417 C1416 1.392 . S
C1417 H1429 0.929 . S
C1418 C1414 1.531 . S
C1418 H1430 0.960 . S
C1418 H1431 0.962 1_455 S
C1418 H1432 0.960 . S
C1419 C1416 1.511 . S
C1419 H1433 0.961 . S
C1419 H1434 0.961 . S
C1419 H1435 0.961 . S
C1420 C1421 1.370 . S
C1420 C1422 1.363 1_655 S
C1420 H1436 0.931 . S
C1421 C1420 1.370 . S
C1421 C1425 1.408 1_655 S
C1422 C1420 1.363 1_455 S
C1422 C1423 1.370 . S
C1422 C1426 1.524 . S
C1423 C1415 1.503 . S
C1423 C1422 1.370 . S
C1423 C1424 1.403 . S
C1424 C1423 1.403 . S
C1424 C1425 1.404 . S
C1424 C1427 1.539 . S
C1425 C1421 1.408 1_455 S
C1425 C1424 1.404 . S
C1425 H1437 0.933 1_455 S
C1426 C1422 1.524 . S
C1426 H1438 0.956 . S
C1426 H1439 0.961 . S
C1426 H1440 0.961 . S
C1427 C1424 1.539 . S
C1427 H1441 0.958 . S
C1427 H1442 0.961 . S
C1427 H1443 0.960 . S
H1428 C1412 0.931 . S
H1429 C1417 0.929 . S
H1430 C1418 0.960 . S
H1431 C1418 0.962 1_655 S
H1432 C1418 0.960 . S
H1433 C1419 0.961 . S
H1434 C1419 0.961 . S
H1435 C1419 0.961 . S
H1436 C1420 0.931 . S
H1437 C1425 0.933 1_655 S
H1438 C1426 0.956 . S
H1439 C1426 0.961 . S
H1440 C1426 0.961 . S
H1441 C1427 0.958 . S
H1442 C1427 0.961 . S
H1443 C1427 0.960 . S
C1444 C1445 1.391 1_545 S
C1444 C1446 1.394 . S
C1444 H1460 0.931 . S
C1445 C1444 1.391 1_565 S
C1445 C1449 1.376 . S
C1446 C1444 1.394 . S
C1446 C1447 1.369 . S
C1446 C1450 1.531 . S
C1447 C1446 1.369 . S
C1447 C1448 1.411 1_545 S
C1447 C1455 1.503 . S
C1448 C1447 1.411 1_565 S
C1448 C1449 1.391 . S
C1448 C1451 1.511 . S
C1449 C1445 1.376 . S
C1449 C1448 1.391 . S
C1449 H1461 0.929 . S
C1450 C1446 1.531 . S
C1450 H1462 0.960 . S
C1450 H1463 0.962 . S
C1450 H1464 0.960 . S
C1451 C1448 1.511 . S
C1451 H1465 0.961 . S
C1451 H1466 0.961 1_565 S
C1451 H1467 0.961 . S
C1452 C1453 1.370 . S
C1452 C1454 1.363 . S
C1452 H1468 0.931 . S
C1453 C1452 1.370 . S
C1453 C1457 1.408 . S
C1454 C1452 1.363 . S
C1454 C1455 1.370 . S
C1454 C1458 1.524 . S
C1455 C1447 1.503 . S
C1455 C1454 1.370 . S
C1455 C1456 1.403 . S
C1456 C1455 1.403 . S
C1456 C1457 1.404 . S
C1456 C1459 1.539 . S
C1457 C1453 1.408 . S
C1457 C1456 1.404 . S
C1457 H1469 0.930 . S
C1458 C1454 1.524 . S
C1458 H1470 0.956 . S
C1458 H1471 0.961 . S
C1458 H1472 0.961 . S
C1459 C1456 1.539 . S
C1459 H1473 0.958 . S
C1459 H1474 0.961 . S
C1459 H1475 0.960 . S
H1460 C1444 0.931 . S
H1461 C1449 0.929 . S
H1462 C1450 0.960 . S
H1463 C1450 0.962 . S
H1464 C1450 0.960 . S
H1465 C1451 0.961 . S
H1466 C1451 0.961 1_545 S
H1467 C1451 0.961 . S
H1468 C1452 0.931 . S
H1469 C1457 0.930 . S
H1470 C1458 0.956 . S
H1471 C1458 0.961 . S
H1472 C1458 0.961 . S
H1473 C1459 0.958 . S
H1474 C1459 0.961 . S
H1475 C1459 0.960 . S
C709 C477 1.315 . S
C717 C5 1.324 . S
C741 C64 1.329 . S
C749 C536 1.323 . S
C773 C123 1.323 . S
C781 C595 1.322 . S
C805 C182 1.312 . S
C813 C654 1.327 . S
C837 C359 1.324 . S
C845 C241 1.325 . S
C869 C300 1.316 . S
C877 C418 1.324 . S
C901 C583 1.049 . S
C909 C52 1.042 . S
C933 C111 1.039 . S
C941 C642 1.037 . S
C965 C701 1.020 . S
C973 C170 1.032 . S
C997 C229 1.040 . S
C1005 C406 1.037 . S
C1029 C465 1.034 . S
C1037 C288 1.034 . S
C1061 C524 1.039 . S
C1069 C347 1.040 . S
C1093 C33 1.523 . S
C1101 C298 1.489 1_554 S
C1125 C92 1.527 . S
C1133 C3 1.497 . S
C1157 C62 1.489 . S
C1165 C151 1.541 . S
C1189 C210 1.543 . S
C1197 C121 1.501 . S
C1221 C269 1.547 . S
C1229 C180 1.512 . S
C1253 C328 1.534 . S
C1261 C239 1.497 . S
C1285 C387 1.518 . S
C1293 C416 1.507 . S
C1317 C446 1.525 . S
C1325 C475 1.494 1_556 S
C1349 C505 1.539 . S
C1357 C534 1.518 . S
C1381 C564 1.518 . S
C1389 C593 1.507 . S
C1413 C623 1.546 . S
C1421 C652 1.504 . S
C1445 C357 1.478 . S
C1453 C682 1.537 . S
