# Generated by pormake.
# Topology fnw, (5)-cn, num edge types: 1
# Building blocks:
#     Node 0, Type 0, BuildingBlock: BEQFEK_clean_sbu_0, # of connection points: 5
#     Node 1, Type 0, BuildingBlock: BEQFEK_clean_sbu_0, # of connection points: 5
#     Node 2, Type 0, BuildingBlock: BEQFEK_clean_sbu_0, # of connection points: 5
#     Node 3, Type 0, BuildingBlock: BEQFEK_clean_sbu_0, # of connection points: 5
#     Node 4, Type 0, BuildingBlock: BEQFEK_clean_sbu_0, # of connection points: 5
#     Node 5, Type 0, BuildingBlock: BEQFEK_clean_sbu_0, # of connection points: 5
#     Node 6, Type 0, BuildingBlock: BEQFEK_clean_sbu_0, # of connection points: 5
#     Node 7, Type 0, BuildingBlock: BEQFEK_clean_sbu_0, # of connection points: 5
#     Node 8, Type 0, BuildingBlock: BEQFEK_clean_sbu_0, # of connection points: 5
#     Node 9, Type 0, BuildingBlock: BEQFEK_clean_sbu_0, # of connection points: 5
#     Node 10, Type 0, BuildingBlock: BEQFEK_clean_sbu_0, # of connection points: 5
#     Node 11, Type 0, BuildingBlock: BEQFEK_clean_sbu_0, # of connection points: 5
#     Edge 12, Type (0, 0), BuildingBlock: XIVTED_clean_linker_0, # of connection points: 2
#     Edge 13, Type (0, 0), BuildingBlock: XIVTED_clean_linker_0, # of connection points: 2
#     Edge 14, Type (0, 0), BuildingBlock: XIVTED_clean_linker_0, # of connection points: 2
#     Edge 15, Type (0, 0), BuildingBlock: XIVTED_clean_linker_0, # of connection points: 2
#     Edge 16, Type (0, 0), BuildingBlock: XIVTED_clean_linker_0, # of connection points: 2
#     Edge 17, Type (0, 0), BuildingBlock: XIVTED_clean_linker_0, # of connection points: 2
#     Edge 18, Type (0, 0), BuildingBlock: XIVTED_clean_linker_0, # of connection points: 2
#     Edge 19, Type (0, 0), BuildingBlock: XIVTED_clean_linker_0, # of connection points: 2
#     Edge 20, Type (0, 0), BuildingBlock: XIVTED_clean_linker_0, # of connection points: 2
#     Edge 21, Type (0, 0), BuildingBlock: XIVTED_clean_linker_0, # of connection points: 2
#     Edge 22, Type (0, 0), BuildingBlock: XIVTED_clean_linker_0, # of connection points: 2
#     Edge 23, Type (0, 0), BuildingBlock: XIVTED_clean_linker_0, # of connection points: 2
#     Edge 24, Type (0, 0), BuildingBlock: XIVTED_clean_linker_0, # of connection points: 2
#     Edge 25, Type (0, 0), BuildingBlock: XIVTED_clean_linker_0, # of connection points: 2
#     Edge 26, Type (0, 0), BuildingBlock: XIVTED_clean_linker_0, # of connection points: 2
#     Edge 27, Type (0, 0), BuildingBlock: XIVTED_clean_linker_0, # of connection points: 2
#     Edge 28, Type (0, 0), BuildingBlock: XIVTED_clean_linker_0, # of connection points: 2
#     Edge 29, Type (0, 0), BuildingBlock: XIVTED_clean_linker_0, # of connection points: 2
#     Edge 30, Type (0, 0), BuildingBlock: XIVTED_clean_linker_0, # of connection points: 2
#     Edge 31, Type (0, 0), BuildingBlock: XIVTED_clean_linker_0, # of connection points: 2
#     Edge 32, Type (0, 0), BuildingBlock: XIVTED_clean_linker_0, # of connection points: 2
#     Edge 33, Type (0, 0), BuildingBlock: XIVTED_clean_linker_0, # of connection points: 2
#     Edge 34, Type (0, 0), BuildingBlock: XIVTED_clean_linker_0, # of connection points: 2
#     Edge 35, Type (0, 0), BuildingBlock: XIVTED_clean_linker_0, # of connection points: 2
#     Edge 36, Type (0, 0), BuildingBlock: XIVTED_clean_linker_0, # of connection points: 2
#     Edge 37, Type (0, 0), BuildingBlock: XIVTED_clean_linker_0, # of connection points: 2
#     Edge 38, Type (0, 0), BuildingBlock: XIVTED_clean_linker_0, # of connection points: 2
#     Edge 39, Type (0, 0), BuildingBlock: XIVTED_clean_linker_0, # of connection points: 2
#     Edge 40, Type (0, 0), BuildingBlock: XIVTED_clean_linker_0, # of connection points: 2
#     Edge 41, Type (0, 0), BuildingBlock: XIVTED_clean_linker_0, # of connection points: 2
# Relax obj value: 0.201
# Max RMSD: 0.128
# Mean RMSD: 0.128
data_MOF--net-fnw--node1-BEQFEK_clean_sbu_0--edge1-XIVTED_clean_linker_0
_symmetry_space_group_name_H-M    P1
_symmetry_Int_Tables_number       1
_symmetry_cell_setting            triclinic
loop_
_symmetry_equiv_pos_as_xyz
'x, y, z'
_cell_length_a     56.08856
_cell_length_b     56.123217
_cell_length_c     31.036539
_cell_angle_alpha  89.977285
_cell_angle_beta   90.016035
_cell_angle_gamma 119.97144
loop_
_atom_site_label
_atom_site_type_symbol
_atom_site_fract_x
_atom_site_fract_y
_atom_site_fract_z
_atom_type_partial_charge
Co0 Co 0.24173 0.48686 0.22428 0.0
Co1 Co 0.27419 0.45494 0.23117 0.0
C2 C 0.2359 0.44653 0.15694 0.0
O3 O 0.22879 0.46295 0.17307 0.0
O4 O 0.25347 0.44183 0.17551 0.0
C5 C 0.20715 0.51126 0.20497 0.0
O6 O 0.20001 0.4971 0.16893 0.0
C7 C 0.28535 0.40874 0.2382 0.0
C8 C 0.32373 0.42866 0.27647 0.0
C9 C 0.30472 0.4039 0.25804 0.0
N10 N 0.29248 0.43513 0.24523 0.0
N11 N 0.31559 0.44694 0.26768 0.0
C12 C 0.25959 0.38841 0.2156 0.0
H13 H 0.24335 0.39401 0.2199 0.0
H14 H 0.25228 0.36728 0.22784 0.0
H15 H 0.26391 0.38888 0.18063 0.0
C16 C 0.22546 0.46515 0.31233 0.0
N17 N 0.23763 0.46626 0.27447 0.0
N18 N 0.25089 0.45252 0.27764 0.0
C19 C 0.24749 0.44214 0.31786 0.0
C20 C 0.23138 0.44995 0.34124 0.0
C21 C 0.21003 0.47997 0.3213 0.0
H22 H 0.19483 0.47556 0.29525 0.0
H23 H 0.19913 0.4737 0.35269 0.0
H24 H 0.22466 0.50246 0.32154 0.0
O25 O 0.28069 0.51533 0.21591 0.0
O26 O 0.30415 0.49352 0.22412 0.0
H27 H 0.25623 0.42084 0.36854 0.0
H28 H 0.2589 0.41108 0.31425 0.0
C29 C 0.26262 0.42855 0.33528 0.0
H30 H 0.28498 0.44361 0.33552 0.0
H31 H 0.3255 0.46739 0.27782 0.0
O32 O 0.22288 0.50842 0.23135 0.0
C33 C 0.30341 0.51547 0.2174 0.0
Co34 Co 0.75642 0.24622 0.72207 0.0
Co35 Co 0.82064 0.27496 0.72872 0.0
C36 C 0.79146 0.24173 0.65183 0.0
O37 O 0.7684 0.23595 0.66844 0.0
O38 O 0.8141 0.25704 0.6713 0.0
C39 C 0.70555 0.23325 0.69131 0.0
O40 O 0.72234 0.24962 0.66142 0.0
C41 C 0.87807 0.286 0.73424 0.0
C42 C 0.89482 0.31952 0.78241 0.0
C43 C 0.90158 0.30323 0.75769 0.0
N44 N 0.85826 0.29174 0.74516 0.0
N45 N 0.86853 0.31194 0.77363 0.0
C46 C 0.8737 0.26321 0.70451 0.0
H47 H 0.85212 0.24609 0.70681 0.0
H48 H 0.88806 0.25558 0.71215 0.0
H49 H 0.87742 0.271 0.6709 0.0
C50 C 0.76039 0.22715 0.80924 0.0
N51 N 0.77152 0.23908 0.7712 0.0
N52 N 0.79839 0.24975 0.77289 0.0
C53 C 0.80508 0.24389 0.81164 0.0
C54 C 0.78137 0.22988 0.83636 0.0
C55 C 0.73095 0.217 0.82092 0.0
H56 H 0.72366 0.22995 0.80524 0.0
H57 H 0.71816 0.19563 0.809 0.0
H58 H 0.72817 0.21724 0.85626 0.0
O59 O 0.76788 0.28553 0.72131 0.0
O60 O 0.81337 0.30624 0.72468 0.0
H61 H 0.84487 0.27347 0.83525 0.0
H62 H 0.83338 0.23874 0.85247 0.0
C63 C 0.83368 0.25162 0.8251 0.0
H64 H 0.84474 0.24884 0.79776 0.0
H65 H 0.85735 0.32019 0.7877 0.0
O66 O 0.71562 0.22677 0.72286 0.0
C67 C 0.79127 0.30731 0.72237 0.0
Co68 Co 0.50574 0.75384 0.22296 0.0
Co69 Co 0.54059 0.81799 0.22886 0.0
C70 C 0.54526 0.78875 0.15269 0.0
O71 O 0.5281 0.7657 0.1694 0.0
O72 O 0.5522 0.81139 0.17181 0.0
C73 C 0.46829 0.70297 0.19236 0.0
O74 O 0.46885 0.7197 0.16223 0.0
C75 C 0.58689 0.87522 0.23413 0.0
C76 C 0.56976 0.89252 0.28074 0.0
C77 C 0.59305 0.89893 0.25684 0.0
N78 N 0.5612 0.85565 0.24468 0.0
N79 N 0.55104 0.86621 0.27221 0.0
C80 C 0.60559 0.87038 0.20573 0.0
H81 H 0.60067 0.84867 0.20838 0.0
H82 H 0.62747 0.88436 0.21437 0.0
H83 H 0.60234 0.87428 0.17176 0.0
C84 C 0.5293 0.75845 0.31004 0.0
N85 N 0.52799 0.76927 0.27196 0.0
N86 N 0.54397 0.79616 0.27321 0.0
C87 C 0.55686 0.80319 0.31163 0.0
C88 C 0.54763 0.77968 0.33665 0.0
C89 C 0.51051 0.72903 0.32223 0.0
H90 H 0.49021 0.72119 0.30645 0.0
H91 H 0.51956 0.71652 0.31083 0.0
H92 H 0.50753 0.72651 0.3576 0.0
O93 O 0.47758 0.76495 0.22195 0.0
O94 O 0.50193 0.81042 0.22496 0.0
H95 H 0.56708 0.84325 0.3339 0.0
H96 H 0.59038 0.83197 0.35192 0.0
C97 C 0.57773 0.83192 0.32439 0.0
H98 H 0.59154 0.84262 0.29687 0.0
H99 H 0.53147 0.85525 0.28587 0.0
O100 O 0.48466 0.7131 0.2241 0.0
C101 C 0.4789 0.78821 0.22287 0.0
Co102 Co 0.75133 0.50704 0.72353 0.0
Co103 Co 0.72233 0.54233 0.72891 0.0
C104 C 0.75774 0.54666 0.65359 0.0
O105 O 0.7632 0.52909 0.66999 0.0
O106 O 0.74206 0.55375 0.67263 0.0
C107 C 0.78684 0.48295 0.70732 0.0
O108 O 0.79827 0.50029 0.67524 0.0
C109 C 0.7131 0.58988 0.7346 0.0
C110 C 0.67613 0.57189 0.77617 0.0
C111 C 0.69484 0.59589 0.75551 0.0
N112 N 0.70563 0.56357 0.7432 0.0
N113 N 0.68337 0.55291 0.76764 0.0
C114 C 0.73816 0.60907 0.70943 0.0
H115 H 0.75424 0.60319 0.71309 0.0
H116 H 0.74627 0.63065 0.72005 0.0
H117 H 0.73264 0.60751 0.6748 0.0
C118 C 0.77104 0.53116 0.8092 0.0
N119 N 0.75829 0.52975 0.77182 0.0
N120 N 0.74626 0.54468 0.77462 0.0
C121 C 0.75118 0.55625 0.81412 0.0
C122 C 0.76685 0.54786 0.83746 0.0
C123 C 0.78498 0.51492 0.81869 0.0
H124 H 0.79948 0.51783 0.79223 0.0
H125 H 0.79642 0.52131 0.84961 0.0
H126 H 0.7693 0.49274 0.82019 0.0
O127 O 0.71174 0.47966 0.72093 0.0
O128 O 0.69091 0.5043 0.72355 0.0
H129 H 0.71536 0.55737 0.83421 0.0
H130 H 0.74586 0.58073 0.86336 0.0
C131 C 0.73781 0.57165 0.83128 0.0
H132 H 0.74132 0.58837 0.80866 0.0
H133 H 0.67344 0.53278 0.77926 0.0
O134 O 0.76863 0.48403 0.73022 0.0
C135 C 0.68991 0.48123 0.72113 0.0
Co136 Co 0.2386 0.74687 0.2277 0.0
Co137 Co 0.17441 0.71987 0.22921 0.0
C138 C 0.20714 0.75345 0.15403 0.0
O139 O 0.22954 0.75827 0.17219 0.0
O140 O 0.18387 0.73884 0.17235 0.0
C141 C 0.29816 0.78298 0.21342 0.0
O142 O 0.29226 0.79525 0.18261 0.0
C143 C 0.11724 0.71021 0.22992 0.0
C144 C 0.0987 0.67655 0.27777 0.0
C145 C 0.09304 0.69328 0.25211 0.0
N146 N 0.13638 0.7039 0.24252 0.0
N147 N 0.12504 0.6836 0.27075 0.0
C148 C 0.12279 0.73321 0.1998 0.0
H149 H 0.1445 0.74995 0.20292 0.0
H150 H 0.10873 0.74136 0.20629 0.0
H151 H 0.11952 0.72543 0.16621 0.0
C152 C 0.23279 0.76648 0.31309 0.0
N153 N 0.22234 0.75439 0.27489 0.0
N154 N 0.19552 0.7441 0.27498 0.0
C155 C 0.18815 0.7502 0.31297 0.0
C156 C 0.2114 0.76419 0.3387 0.0
C157 C 0.26192 0.77629 0.32636 0.0
H158 H 0.26765 0.76067 0.31738 0.0
H159 H 0.27578 0.7955 0.30863 0.0
H160 H 0.26508 0.78016 0.36146 0.0
O161 O 0.22586 0.70732 0.22662 0.0
O162 O 0.18042 0.68775 0.22615 0.0
H163 H 0.14785 0.72073 0.33479 0.0
H164 H 0.15919 0.75543 0.35198 0.0
C165 C 0.15936 0.74262 0.32487 0.0
H166 H 0.1489 0.74559 0.29683 0.0
H167 H 0.13552 0.67495 0.28594 0.0
O168 O 0.27885 0.76401 0.23526 0.0
C169 C 0.20215 0.68596 0.2259 0.0
Co170 Co 0.48919 0.24312 0.72405 0.0
Co171 Co 0.45704 0.17885 0.73026 0.0
C172 C 0.44847 0.20916 0.65675 0.0
O173 O 0.4651 0.23253 0.6731 0.0
O174 O 0.44369 0.18673 0.67487 0.0
C175 C 0.51388 0.30198 0.70502 0.0
O176 O 0.49898 0.29503 0.66971 0.0
C177 C 0.41038 0.12188 0.73863 0.0
C178 C 0.43079 0.10279 0.77404 0.0
C179 C 0.40565 0.0975 0.75771 0.0
N180 N 0.43709 0.14076 0.74408 0.0
N181 N 0.44917 0.12909 0.76484 0.0
C182 C 0.38974 0.12788 0.71845 0.0
H183 H 0.39623 0.14995 0.7225 0.0
H184 H 0.36906 0.11481 0.7328 0.0
H185 H 0.38856 0.12342 0.68344 0.0
C186 C 0.46708 0.23755 0.8119 0.0
N187 N 0.46861 0.22659 0.77421 0.0
N188 N 0.45487 0.1996 0.77719 0.0
C189 C 0.44415 0.19253 0.8172 0.0
C190 C 0.45162 0.21638 0.84056 0.0
C191 C 0.48134 0.26779 0.82073 0.0
H192 H 0.47729 0.27839 0.79394 0.0
H193 H 0.47429 0.27231 0.85146 0.0
H194 H 0.50388 0.27593 0.82228 0.0
O195 O 0.51748 0.23245 0.7151 0.0
O196 O 0.49556 0.18719 0.72274 0.0
H197 H 0.44479 0.15577 0.83255 0.0
H198 H 0.42372 0.16255 0.86831 0.0
C199 C 0.43032 0.16376 0.83437 0.0
H200 H 0.41206 0.15049 0.81434 0.0
H201 H 0.46989 0.13931 0.77364 0.0
O202 O 0.51121 0.28342 0.73124 0.0
C203 C 0.51756 0.20985 0.71615 0.0
Co204 Co 0.50887 0.75225 0.77002 0.0
Co205 Co 0.54507 0.72411 0.76903 0.0
C206 C 0.54861 0.76037 0.84174 0.0
O207 O 0.53095 0.76515 0.82381 0.0
O208 O 0.55624 0.74468 0.82432 0.0
C209 C 0.48555 0.78821 0.78564 0.0
O210 O 0.50164 0.7978 0.81953 0.0
C211 C 0.59181 0.71336 0.76752 0.0
C212 C 0.57514 0.67838 0.72198 0.0
C213 C 0.59821 0.69558 0.74601 0.0
N214 N 0.56619 0.70709 0.75608 0.0
N215 N 0.5563 0.686 0.72926 0.0
C216 C 0.61021 0.73709 0.79578 0.0
H217 H 0.60563 0.75403 0.79164 0.0
H218 H 0.6322 0.74458 0.78839 0.0
H219 H 0.60625 0.73033 0.82992 0.0
C220 C 0.53223 0.76868 0.68279 0.0
N221 N 0.5313 0.7577 0.72174 0.0
N222 N 0.54758 0.7471 0.7219 0.0
C223 C 0.56017 0.75189 0.68327 0.0
C224 C 0.55058 0.76532 0.65694 0.0
C225 C 0.51292 0.77848 0.66935 0.0
H226 H 0.49175 0.76348 0.68008 0.0
H227 H 0.51906 0.79838 0.68543 0.0
H228 H 0.51274 0.7811 0.634 0.0
O229 O 0.48141 0.7129 0.77469 0.0
O230 O 0.5068 0.69278 0.77491 0.0
H231 H 0.57011 0.72151 0.66293 0.0
H232 H 0.59339 0.75562 0.64328 0.0
C233 C 0.5809 0.74365 0.67138 0.0
H234 H 0.59484 0.74723 0.69894 0.0
H235 H 0.53685 0.67721 0.71512 0.0
O236 O 0.4868 0.77051 0.76168 0.0
C237 C 0.48346 0.69136 0.77635 0.0
Co238 Co 0.75125 0.50557 0.27348 0.0
Co239 Co 0.81551 0.54165 0.2671 0.0
C240 C 0.78461 0.54572 0.34283 0.0
O241 O 0.76158 0.52784 0.3268 0.0
O242 O 0.80734 0.55307 0.32348 0.0
C243 C 0.69173 0.48061 0.29121 0.0
O244 O 0.69775 0.49789 0.3234 0.0
C245 C 0.87234 0.5893 0.26101 0.0
C246 C 0.89094 0.57145 0.21834 0.0
C247 C 0.89649 0.59533 0.23964 0.0
N248 N 0.85334 0.56309 0.25208 0.0
N249 N 0.86472 0.55253 0.22695 0.0
C250 C 0.86675 0.60834 0.28713 0.0
H251 H 0.84483 0.60267 0.28388 0.0
H252 H 0.88031 0.63001 0.27698 0.0
H253 H 0.87079 0.60636 0.32158 0.0
C254 C 0.75482 0.52926 0.18767 0.0
N255 N 0.76648 0.52819 0.22491 0.0
N256 N 0.7934 0.5435 0.22177 0.0
C257 C 0.79968 0.555 0.18218 0.0
C258 C 0.77544 0.54613 0.15913 0.0
C259 C 0.72464 0.51253 0.17856 0.0
H260 H 0.71852 0.49044 0.17721 0.0
H261 H 0.71298 0.51525 0.20513 0.0
H262 H 0.71924 0.51864 0.14766 0.0
O263 O 0.76398 0.4786 0.27584 0.0
O264 O 0.80939 0.50379 0.27254 0.0
H265 H 0.83667 0.55672 0.16079 0.0
H266 H 0.82909 0.58021 0.13299 0.0
C267 C 0.82834 0.57081 0.1647 0.0
H268 H 0.84157 0.58733 0.18756 0.0
H269 H 0.85438 0.53248 0.21502 0.0
O270 O 0.71089 0.48205 0.26757 0.0
C271 C 0.78754 0.48055 0.27526 0.0
Co272 Co 0.2495 0.75558 0.768 0.0
Co273 Co 0.27573 0.81964 0.76779 0.0
C274 C 0.24191 0.786 0.84211 0.0
O275 O 0.23737 0.76391 0.82329 0.0
O276 O 0.2567 0.80955 0.82474 0.0
C277 C 0.21363 0.69578 0.78053 0.0
O278 O 0.2001 0.70107 0.80999 0.0
C279 C 0.28562 0.87694 0.76957 0.0
C280 C 0.31748 0.89534 0.71888 0.0
C281 C 0.3019 0.90113 0.74697 0.0
N282 N 0.29117 0.85767 0.7549 0.0
N283 N 0.31041 0.86894 0.72496 0.0
C284 C 0.26407 0.87164 0.80251 0.0
H285 H 0.24656 0.85034 0.79911 0.0
H286 H 0.25666 0.88656 0.79929 0.0
H287 H 0.27301 0.87369 0.83512 0.0
C288 C 0.2297 0.76158 0.68292 0.0
N289 N 0.24178 0.77187 0.72119 0.0
N290 N 0.25154 0.7986 0.72176 0.0
C291 C 0.24501 0.80602 0.68416 0.0
C292 C 0.23137 0.78295 0.65798 0.0
C293 C 0.22043 0.7327 0.66897 0.0
H294 H 0.236 0.72703 0.67858 0.0
H295 H 0.20089 0.7185 0.68566 0.0
H296 H 0.21728 0.73 0.63368 0.0
O297 O 0.28915 0.76892 0.76923 0.0
O298 O 0.30832 0.81428 0.77009 0.0
H299 H 0.27312 0.84657 0.66166 0.0
H300 H 0.23781 0.83446 0.64734 0.0
C301 C 0.25158 0.83463 0.67319 0.0
H302 H 0.24915 0.84484 0.70205 0.0
H303 H 0.31836 0.85838 0.70809 0.0
O304 O 0.2331 0.71547 0.76 0.0
C305 C 0.31037 0.79271 0.76994 0.0
Co306 Co 0.48642 0.24269 0.2771 0.0
Co307 Co 0.4509 0.27137 0.27032 0.0
C308 C 0.44662 0.23655 0.3467 0.0
O309 O 0.46438 0.23121 0.33069 0.0
O310 O 0.43932 0.25187 0.32698 0.0
C311 C 0.51253 0.20958 0.29694 0.0
O312 O 0.49797 0.20148 0.33258 0.0
C313 C 0.40416 0.28216 0.26644 0.0
C314 C 0.42107 0.3166 0.21986 0.0
C315 C 0.39797 0.29986 0.24416 0.0
N316 N 0.4297 0.28802 0.25518 0.0
N317 N 0.43971 0.30879 0.22771 0.0
C318 C 0.38586 0.25929 0.29613 0.0
H319 H 0.39074 0.26671 0.32988 0.0
H320 H 0.38969 0.24181 0.29243 0.0
H321 H 0.36387 0.25232 0.28976 0.0
C322 C 0.46319 0.22304 0.191 0.0
N323 N 0.46392 0.23549 0.22836 0.0
N324 N 0.44872 0.24721 0.22497 0.0
C325 C 0.43752 0.24219 0.18513 0.0
C326 C 0.44663 0.22701 0.16211 0.0
C327 C 0.48015 0.20981 0.18198 0.0
H328 H 0.47702 0.195 0.20807 0.0
H329 H 0.47457 0.19882 0.15064 0.0
H330 H 0.50226 0.22582 0.18163 0.0
O331 O 0.51379 0.2822 0.27922 0.0
O332 O 0.48909 0.30294 0.27549 0.0
H333 H 0.43595 0.27692 0.16065 0.0
H334 H 0.41099 0.24487 0.13692 0.0
C335 C 0.42161 0.25485 0.16734 0.0
H336 H 0.40605 0.25302 0.1911 0.0
H337 H 0.45923 0.31741 0.21384 0.0
O338 O 0.50927 0.2252 0.27093 0.0
C339 C 0.51221 0.304 0.27834 0.0
Co340 Co 0.24417 0.48953 0.77716 0.0
Co341 Co 0.18002 0.45381 0.77037 0.0
C342 C 0.21071 0.44952 0.8465 0.0
O343 O 0.23381 0.46724 0.83048 0.0
O344 O 0.18803 0.44242 0.82708 0.0
C345 C 0.30378 0.51555 0.79528 0.0
O346 O 0.29807 0.49959 0.82919 0.0
C347 C 0.12286 0.40664 0.76532 0.0
C348 C 0.10506 0.42386 0.71976 0.0
C349 C 0.09899 0.40046 0.74299 0.0
N350 N 0.14225 0.43247 0.75509 0.0
N351 N 0.13134 0.44267 0.72825 0.0
C352 C 0.12777 0.38802 0.79378 0.0
H353 H 0.1494 0.3927 0.79056 0.0
H354 H 0.11344 0.36612 0.78576 0.0
H355 H 0.12437 0.39167 0.82779 0.0
C356 C 0.24076 0.46581 0.69142 0.0
N357 N 0.22902 0.46697 0.72853 0.0
N358 N 0.20212 0.45162 0.7253 0.0
C359 C 0.19593 0.43989 0.68587 0.0
C360 C 0.22022 0.44874 0.66295 0.0
C361 C 0.27094 0.48256 0.68238 0.0
H362 H 0.27706 0.50466 0.68109 0.0
H363 H 0.28258 0.47981 0.70894 0.0
H364 H 0.27637 0.47651 0.65147 0.0
O365 O 0.23163 0.51662 0.77941 0.0
O366 O 0.18626 0.4918 0.77501 0.0
H367 H 0.15913 0.43769 0.66233 0.0
H368 H 0.16669 0.4133 0.63765 0.0
C369 C 0.16732 0.42365 0.66834 0.0
H370 H 0.15394 0.40785 0.69206 0.0
H371 H 0.14205 0.4624 0.71511 0.0
O372 O 0.28444 0.51297 0.7709 0.0
C373 C 0.2082 0.51495 0.77808 0.0
Co374 Co 0.74849 0.24116 0.27009 0.0
Co375 Co 0.72128 0.17709 0.26845 0.0
C376 C 0.75726 0.20976 0.34152 0.0
O377 O 0.76169 0.23217 0.32392 0.0
O378 O 0.74188 0.18649 0.32374 0.0
C379 C 0.78274 0.30045 0.2865 0.0
O380 O 0.79263 0.29432 0.32043 0.0
C381 C 0.71088 0.11978 0.26684 0.0
C382 C 0.67648 0.10165 0.22018 0.0
C383 C 0.69338 0.09571 0.2449 0.0
N384 N 0.70473 0.13914 0.25499 0.0
N385 N 0.68399 0.12805 0.22748 0.0
C386 C 0.7342 0.12499 0.29604 0.0
H387 H 0.75131 0.14646 0.29208 0.0
H388 H 0.74166 0.11039 0.28939 0.0
H389 H 0.72702 0.12233 0.32994 0.0
C390 C 0.76556 0.23503 0.18272 0.0
N391 N 0.75443 0.22473 0.22152 0.0
N392 N 0.74418 0.19793 0.22143 0.0
C393 C 0.74937 0.19043 0.18284 0.0
C394 C 0.76268 0.21356 0.15674 0.0
C395 C 0.77518 0.26413 0.16957 0.0
H396 H 0.75997 0.27005 0.18016 0.0
H397 H 0.79496 0.27794 0.18595 0.0
H398 H 0.77797 0.26708 0.13425 0.0
O399 O 0.70901 0.22866 0.27456 0.0
O400 O 0.68946 0.18326 0.27464 0.0
H401 H 0.71983 0.15002 0.16164 0.0
H402 H 0.75436 0.16155 0.14332 0.0
C403 C 0.74184 0.16168 0.17091 0.0
H404 H 0.74527 0.15136 0.1987 0.0
H405 H 0.67534 0.13874 0.21299 0.0
O406 O 0.76572 0.28134 0.26209 0.0
C407 C 0.68768 0.20496 0.27614 0.0
H408 H 0.37103 0.30735 0.17779 0.0
H409 H 0.31801 0.38289 0.32651 0.0
H410 H 0.37055 0.30123 0.31624 0.0
H411 H 0.29739 0.36872 0.19162 0.0
H412 H 0.33113 0.34745 0.325 0.0
H413 H 0.33806 0.32362 0.18256 0.0
C414 C 0.36339 0.3088 0.20916 0.0
C415 C 0.37353 0.30311 0.24669 0.0
C416 C 0.32311 0.35155 0.29592 0.0
C417 C 0.33647 0.32242 0.25259 0.0
C418 C 0.31568 0.37181 0.29678 0.0
C419 C 0.30679 0.37875 0.25908 0.0
C420 C 0.32237 0.3387 0.25674 0.0
C421 C 0.30403 0.36383 0.22142 0.0
C422 C 0.34456 0.31806 0.21191 0.0
C423 C 0.36307 0.30527 0.28656 0.0
N424 N 0.31237 0.34487 0.22096 0.0
N425 N 0.34552 0.31535 0.28854 0.0
H426 H 0.93549 0.31168 0.82537 0.0
H427 H 0.0652 0.37493 0.67541 0.0
H428 H 0.9306 0.30233 0.68725 0.0
H429 H 0.07018 0.37061 0.81352 0.0
H430 H 0.01621 0.34109 0.67876 0.0
H431 H 0.9843 0.32584 0.82222 0.0
C432 C 0.94463 0.31205 0.79445 0.0
C433 C 0.92912 0.30599 0.75649 0.0
C434 C 0.02806 0.34697 0.70831 0.0
C435 C 0.98503 0.32273 0.75244 0.0
C436 C 0.05602 0.36629 0.70637 0.0
C437 C 0.07158 0.37561 0.74427 0.0
C438 C 0.01544 0.3375 0.7486 0.0
C439 C 0.05887 0.36381 0.78356 0.0
C440 C 0.97247 0.32007 0.79265 0.0
C441 C 0.9418 0.30663 0.71729 0.0
N442 N 0.03134 0.34575 0.78482 0.0
N443 N 0.96919 0.31542 0.71617 0.0
H444 H 0.69482 0.06797 0.31667 0.0
H445 H 0.62481 0.92679 0.18704 0.0
H446 H 0.68502 0.06102 0.17863 0.0
H447 H 0.61714 0.93366 0.32413 0.0
H448 H 0.66006 0.97547 0.18477 0.0
H449 H 0.67989 0.01886 0.32044 0.0
C450 C 0.69041 0.0563 0.28707 0.0
C451 C 0.69089 0.06836 0.24731 0.0
C452 C 0.65112 0.96615 0.21551 0.0
C453 C 0.67338 0.01237 0.25138 0.0
C454 C 0.63117 0.9383 0.21686 0.0
C455 C 0.618 0.92631 0.2558 0.0
C456 C 0.65773 0.98199 0.25332 0.0
C457 C 0.62663 0.94232 0.29336 0.0
C458 C 0.68167 0.02826 0.28923 0.0
C459 C 0.68454 0.05229 0.20996 0.0
N460 N 0.64573 0.96945 0.29113 0.0
N461 N 0.67571 0.02502 0.21293 0.0
H462 H 0.7011 0.62947 0.68714 0.0
H463 H 0.6282 0.69787 0.81723 0.0
H464 H 0.68367 0.6191 0.82333 0.0
H465 H 0.62411 0.68684 0.67941 0.0
H466 H 0.66284 0.68347 0.8206 0.0
H467 H 0.68752 0.66474 0.68544 0.0
C468 C 0.69532 0.63529 0.71692 0.0
C469 C 0.69324 0.6213 0.75537 0.0
C470 C 0.65485 0.68488 0.78952 0.0
C471 C 0.67732 0.66107 0.75358 0.0
C472 C 0.63527 0.6933 0.78757 0.0
C473 C 0.62322 0.69328 0.74802 0.0
C474 C 0.66231 0.67647 0.75164 0.0
C475 C 0.63274 0.68675 0.71059 0.0
C476 C 0.68736 0.65523 0.71589 0.0
C477 C 0.68519 0.62925 0.79294 0.0
N478 N 0.6515 0.67828 0.71334 0.0
N479 N 0.67719 0.64839 0.79104 0.0
H480 H 0.06566 0.69477 0.17981 0.0
H481 H 0.92395 0.62843 0.30845 0.0
H482 H 0.05823 0.68576 0.31793 0.0
H483 H 0.93121 0.61855 0.17217 0.0
H484 H 0.97292 0.66317 0.31062 0.0
H485 H 0.01677 0.68082 0.17555 0.0
C486 C 0.05396 0.69074 0.20932 0.0
C487 C 0.06582 0.69118 0.24925 0.0
C488 C 0.96361 0.65389 0.28004 0.0
C489 C 0.01002 0.67479 0.24463 0.0
C490 C 0.93562 0.63425 0.27875 0.0
C491 C 0.92369 0.62054 0.24013 0.0
C492 C 0.9796 0.65969 0.24247 0.0
C493 C 0.93983 0.62849 0.20269 0.0
C494 C 0.02603 0.68256 0.20687 0.0
C495 C 0.04966 0.68531 0.28646 0.0
N496 N 0.96706 0.6473 0.20486 0.0
N497 N 0.02249 0.67702 0.28324 0.0
H498 H 0.30538 0.92877 0.82161 0.0
H499 H 0.36738 0.07074 0.6942 0.0
H500 H 0.30634 0.93613 0.68326 0.0
H501 H 0.38698 0.06262 0.82579 0.0
H502 H 0.33143 0.02216 0.69465 0.0
H503 H 0.32134 0.97804 0.82767 0.0
C504 C 0.30804 0.94057 0.79259 0.0
C505 C 0.30478 0.92856 0.75187 0.0
C506 C 0.34316 0.03122 0.72375 0.0
C507 C 0.32339 0.98472 0.75846 0.0
C508 C 0.36351 0.05897 0.7236 0.0
C509 C 0.38023 0.07053 0.75992 0.0
C510 C 0.33963 0.0151 0.76048 0.0
C511 C 0.37469 0.05428 0.79696 0.0
C512 C 0.31736 0.9687 0.79603 0.0
C513 C 0.30895 0.94481 0.71524 0.0
N514 N 0.35506 0.02729 0.79616 0.0
N515 N 0.31837 0.97215 0.71935 0.0
H516 H 0.25257 0.44756 0.88824 0.0
H517 H 0.19001 0.4404 0.11599 0.0
H518 H 0.16828 0.42793 0.90474 0.0
H519 H 0.25988 0.4289 0.09765 0.0
H520 H 0.17963 0.43213 0.03922 0.0
H521 H 0.25426 0.43739 0.9643 0.0
C522 C 0.23428 0.44072 0.90776 0.0
C523 C 0.21037 0.43898 0.8903 0.0
C524 C 0.1969 0.43084 0.0521 0.0
C525 C 0.2123 0.42769 0.97756 0.0
C526 C 0.20286 0.43561 0.09594 0.0
C527 C 0.22609 0.43574 0.11312 0.0
C528 C 0.21462 0.42679 0.02506 0.0
C529 C 0.24187 0.42917 0.08572 0.0
C530 C 0.23522 0.43481 0.95116 0.0
C531 C 0.18719 0.42972 0.91696 0.0
N532 N 0.2362 0.42555 0.04283 0.0
N533 N 0.1889 0.42496 0.95951 0.0
H534 H 0.73902 0.16813 0.40083 0.0
H535 H 0.83248 0.26601 0.59165 0.0
H536 H 0.79948 0.2538 0.38274 0.0
H537 H 0.75064 0.19711 0.61026 0.0
H538 H 0.82877 0.25514 0.51447 0.0
H539 H 0.75175 0.1724 0.4771 0.0
C540 C 0.75535 0.18769 0.41265 0.0
C541 C 0.76793 0.21077 0.38551 0.0
C542 C 0.81186 0.24217 0.5357 0.0
C543 C 0.78263 0.21565 0.4725 0.0
C544 C 0.81401 0.24824 0.57969 0.0
C545 C 0.79169 0.23262 0.60724 0.0
C546 C 0.78744 0.22008 0.51943 0.0
C547 C 0.76819 0.20988 0.59002 0.0
C548 C 0.76249 0.1901 0.45618 0.0
C549 C 0.78898 0.23558 0.40265 0.0
N550 N 0.76662 0.20437 0.54717 0.0
N551 N 0.79556 0.23742 0.44514 0.0
H552 H 0.54903 0.74769 0.11188 0.0
H553 H 0.54797 0.80346 0.88184 0.0
H554 H 0.56347 0.83003 0.09273 0.0
H555 H 0.56976 0.74066 0.9025 0.0
H556 H 0.55539 0.8149 0.95847 0.0
H557 H 0.55828 0.74546 0.03552 0.0
C558 C 0.55455 0.76546 0.0917 0.0
C559 C 0.55519 0.78897 0.10853 0.0
C560 C 0.55907 0.79898 0.94608 0.0
C561 C 0.56534 0.78637 0.02101 0.0
C562 C 0.55475 0.79238 0.90237 0.0
C563 C 0.5579 0.77083 0.88587 0.0
C564 C 0.56597 0.78351 0.97364 0.0
C565 C 0.56694 0.75732 0.91388 0.0
C566 C 0.55993 0.76421 0.04815 0.0
C567 C 0.56266 0.81148 0.08101 0.0
N568 N 0.57011 0.7635 0.9566 0.0
N569 N 0.5669 0.80942 0.03836 0.0
H570 H 0.74282 0.54791 0.38433 0.0
H571 H 0.80184 0.54904 0.61216 0.0
H572 H 0.82665 0.56621 0.40159 0.0
H573 H 0.73577 0.56652 0.59445 0.0
H574 H 0.8128 0.5577 0.53555 0.0
H575 H 0.74073 0.55706 0.46077 0.0
C576 C 0.76094 0.55428 0.4041 0.0
C577 C 0.78482 0.55595 0.38675 0.0
C578 C 0.79625 0.56017 0.54857 0.0
C579 C 0.78242 0.56599 0.47433 0.0
C580 C 0.78992 0.55514 0.59226 0.0
C581 C 0.76763 0.5567 0.60954 0.0
C582 C 0.77976 0.56617 0.52178 0.0
C583 C 0.75304 0.56493 0.58239 0.0
C584 C 0.75977 0.5596 0.44769 0.0
C585 C 0.80778 0.56454 0.41372 0.0
N586 N 0.75898 0.5688 0.53961 0.0
N587 N 0.80582 0.56868 0.45643 0.0
H588 H 0.19828 0.74193 0.88017 0.0
H589 H 0.16469 0.73605 0.09607 0.0
H590 H 0.26235 0.82529 0.90547 0.0
H591 H 0.25203 0.79192 0.10914 0.0
H592 H 0.16841 0.74645 0.01894 0.0
H593 H 0.18543 0.73665 0.95614 0.0
C594 C 0.20931 0.7593 0.90161 0.0
C595 C 0.23147 0.78406 0.8865 0.0
C596 C 0.18672 0.75644 0.03877 0.0
C597 C 0.21684 0.77818 0.97363 0.0
C598 C 0.18458 0.75074 0.08288 0.0
C599 C 0.20819 0.76274 0.10901 0.0
C600 C 0.21261 0.77437 0.02075 0.0
C601 C 0.23337 0.78182 0.09011 0.0
C602 C 0.2018 0.75635 0.94495 0.0
C603 C 0.24508 0.80587 0.91574 0.0
N604 N 0.23494 0.78693 0.04709 0.0
N605 N 0.23791 0.80224 0.95814 0.0
H606 H 0.44191 0.24925 0.61829 0.0
H607 H 0.41889 0.25317 0.40079 0.0
H608 H 0.43045 0.1683 0.596 0.0
H609 H 0.45135 0.19787 0.39374 0.0
H610 H 0.40963 0.24249 0.47751 0.0
H611 H 0.43261 0.25221 0.54244 0.0
C612 C 0.43674 0.23179 0.59759 0.0
C613 C 0.43719 0.20859 0.61343 0.0
C614 C 0.41876 0.23269 0.45914 0.0
C615 C 0.4264 0.21176 0.52626 0.0
C616 C 0.4238 0.23857 0.41521 0.0
C617 C 0.43654 0.22691 0.39098 0.0
C618 C 0.42654 0.21505 0.47889 0.0
C619 C 0.44206 0.20781 0.41132 0.0
C620 C 0.43119 0.23339 0.55422 0.0
C621 C 0.43034 0.18658 0.58515 0.0
N622 N 0.43726 0.20268 0.45415 0.0
N623 N 0.42586 0.18898 0.54268 0.0
H624 H 0.75286 0.5025 0.10505 0.0
H625 H 0.79359 0.59304 0.88952 0.0
H626 H 0.79295 0.59099 0.10648 0.0
H627 H 0.74645 0.50449 0.89212 0.0
H628 H 0.79534 0.59338 0.96871 0.0
H629 H 0.75128 0.50322 0.02654 0.0
C630 C 0.76105 0.52208 0.08864 0.0
C631 C 0.77293 0.54672 0.11192 0.0
C632 C 0.78471 0.57388 0.95192 0.0
C633 C 0.77173 0.54786 0.02217 0.0
C634 C 0.78379 0.57372 0.90692 0.0
C635 C 0.76996 0.54872 0.88467 0.0
C636 C 0.77171 0.54881 0.97449 0.0
C637 C 0.75757 0.52418 0.90826 0.0
C638 C 0.76033 0.52254 0.04386 0.0
C639 C 0.78368 0.5716 0.08936 0.0
N640 N 0.7587 0.52484 0.9519 0.0
N641 N 0.78292 0.57158 0.04556 0.0
H642 H 0.18445 0.74735 0.61442 0.0
H643 H 0.24615 0.81134 0.38245 0.0
H644 H 0.26561 0.81712 0.59559 0.0
H645 H 0.17853 0.72893 0.40118 0.0
H646 H 0.2491 0.81813 0.46086 0.0
H647 H 0.17733 0.74457 0.53611 0.0
C648 C 0.20064 0.7622 0.59377 0.0
C649 C 0.22564 0.78243 0.61133 0.0
C650 C 0.23346 0.79866 0.44771 0.0
C651 C 0.21767 0.77961 0.52221 0.0
C652 C 0.23183 0.7948 0.40312 0.0
C653 C 0.21214 0.76956 0.3855 0.0
C654 C 0.21512 0.77716 0.47471 0.0
C655 C 0.19382 0.74883 0.41347 0.0
C656 C 0.19659 0.76064 0.54922 0.0
C657 C 0.2459 0.8014 0.58337 0.0
N658 N 0.1958 0.75305 0.45671 0.0
N659 N 0.24151 0.79947 0.54017 0.0
H660 H 0.40528 0.1943 0.89062 0.0
H661 H 0.4912 0.24996 0.1099 0.0
H662 H 0.49369 0.24327 0.89699 0.0
H663 H 0.40286 0.1993 0.10737 0.0
H664 H 0.49207 0.24784 0.03144 0.0
H665 H 0.40325 0.19633 0.96959 0.0
C666 C 0.4242 0.20557 0.90879 0.0
C667 C 0.44967 0.21868 0.88763 0.0
C668 C 0.47244 0.23709 0.04785 0.0
C669 C 0.44764 0.22109 0.97731 0.0
C670 C 0.47199 0.23818 0.09262 0.0
C671 C 0.44694 0.22465 0.11481 0.0
C672 C 0.44761 0.22239 0.02503 0.0
C673 C 0.42256 0.21001 0.09114 0.0
C674 C 0.42308 0.20672 0.95368 0.0
C675 C 0.47365 0.23311 0.91223 0.0
N676 N 0.42347 0.20925 0.04736 0.0
N677 N 0.47205 0.23388 0.95577 0.0
H678 H 0.24934 0.49368 0.39484 0.0
H679 H 0.20367 0.40366 0.61126 0.0
H680 H 0.20745 0.4051 0.39446 0.0
H681 H 0.24208 0.49201 0.60803 0.0
H682 H 0.20554 0.40321 0.53212 0.0
H683 H 0.24699 0.49313 0.47339 0.0
C684 C 0.23938 0.47409 0.41149 0.0
C685 C 0.22845 0.4494 0.38849 0.0
C686 C 0.21366 0.42269 0.54875 0.0
C687 C 0.22605 0.44849 0.47828 0.0
C688 C 0.21262 0.42292 0.59373 0.0
C689 C 0.2228 0.44789 0.61579 0.0
C690 C 0.22497 0.44766 0.52599 0.0
C691 C 0.23426 0.47236 0.59203 0.0
C692 C 0.23819 0.47375 0.45629 0.0
C693 C 0.21613 0.42455 0.41135 0.0
N694 N 0.23499 0.47163 0.54841 0.0
N695 N 0.21529 0.42469 0.45514 0.0
H696 H 0.74516 0.18373 0.88122 0.0
H697 H 0.80914 0.24845 0.11173 0.0
H698 H 0.81379 0.26576 0.89851 0.0
H699 H 0.72678 0.18024 0.09521 0.0
H700 H 0.81518 0.25089 0.03323 0.0
H701 H 0.74181 0.17787 0.95987 0.0
C702 C 0.75961 0.20038 0.90159 0.0
C703 C 0.77987 0.22516 0.88346 0.0
C704 C 0.79586 0.23527 0.04686 0.0
C705 C 0.77641 0.21861 0.9729 0.0
C706 C 0.79243 0.23393 0.09151 0.0
C707 C 0.76745 0.21419 0.10978 0.0
C708 C 0.77419 0.21658 0.02044 0.0
C709 C 0.7465 0.19558 0.08238 0.0
C710 C 0.75774 0.19704 0.94632 0.0
C711 C 0.79822 0.2461 0.91112 0.0
N712 N 0.7503 0.19725 0.03903 0.0
N713 N 0.79606 0.24236 0.95444 0.0
H714 H 0.56262 0.81146 0.61076 0.0
H715 H 0.5585 0.74404 0.38144 0.0
H716 H 0.54664 0.72833 0.59639 0.0
H717 H 0.54465 0.81243 0.39857 0.0
H718 H 0.56259 0.74177 0.46002 0.0
H719 H 0.56497 0.81634 0.53206 0.0
C720 C 0.55982 0.79435 0.59096 0.0
C721 C 0.55436 0.76948 0.60987 0.0
C722 C 0.5589 0.75741 0.44641 0.0
C723 C 0.55726 0.77489 0.52036 0.0
C724 C 0.55651 0.75865 0.40175 0.0
C725 C 0.55146 0.77857 0.38362 0.0
C726 C 0.5564 0.77637 0.47286 0.0
C727 C 0.54915 0.79713 0.41117 0.0
C728 C 0.56117 0.79711 0.54621 0.0
C729 C 0.55119 0.74797 0.58301 0.0
N730 N 0.55167 0.7956 0.45439 0.0
N731 N 0.55261 0.75113 0.53955 0.0
H732 H 0.17431 0.52469 0.15659 0.0
H733 H 0.23968 0.67316 0.25677 0.0
H734 H 0.22625 0.5493 0.26953 0.0
H735 H 0.16023 0.63687 0.19489 0.0
H736 H 0.23721 0.62855 0.25532 0.0
H737 H 0.16993 0.56593 0.16461 0.0
C738 C 0.18449 0.53852 0.1833 0.0
C739 C 0.20092 0.53367 0.21213 0.0
C740 C 0.22022 0.63028 0.24228 0.0
C741 C 0.19635 0.58082 0.22092 0.0
C742 C 0.22169 0.65576 0.24284 0.0
C743 C 0.20015 0.65871 0.22581 0.0
C744 C 0.19731 0.60759 0.22376 0.0
C745 C 0.17723 0.6354 0.20844 0.0
C746 C 0.18195 0.56197 0.18784 0.0
C747 C 0.21356 0.55224 0.24626 0.0
N748 N 0.17653 0.61079 0.20736 0.0
N749 N 0.21134 0.57515 0.2493 0.0
H750 H 0.68059 0.25129 0.63533 0.0
H751 H 0.53145 0.17159 0.74233 0.0
H752 H 0.66378 0.19845 0.74587 0.0
H753 H 0.56353 0.24907 0.67546 0.0
H754 H 0.5763 0.17422 0.73355 0.0
H755 H 0.63365 0.24299 0.63859 0.0
C756 C 0.66696 0.23768 0.66006 0.0
C757 C 0.67624 0.22574 0.69065 0.0
C758 C 0.57336 0.19052 0.72073 0.0
C759 C 0.62236 0.21617 0.69441 0.0
C760 C 0.54783 0.18901 0.72554 0.0
C761 C 0.54385 0.21023 0.70977 0.0
C762 C 0.59473 0.21311 0.69924 0.0
C763 C 0.56576 0.23237 0.68842 0.0
C764 C 0.64018 0.23307 0.66197 0.0
C765 C 0.65752 0.20822 0.72183 0.0
N766 N 0.59019 0.23318 0.68365 0.0
N767 N 0.63141 0.20399 0.72302 0.0
H768 H 0.42551 0.678 0.13604 0.0
H769 H 0.35543 0.52929 0.24416 0.0
H770 H 0.46105 0.66134 0.24742 0.0
H771 H 0.31029 0.56148 0.17659 0.0
H772 H 0.3977 0.57399 0.23537 0.0
H773 H 0.38675 0.6312 0.13951 0.0
C774 C 0.42535 0.66442 0.161 0.0
C775 C 0.44647 0.67371 0.19177 0.0
C776 C 0.3785 0.57111 0.22242 0.0
C777 C 0.40203 0.62 0.19576 0.0
C778 C 0.35445 0.54567 0.22724 0.0
C779 C 0.32932 0.54176 0.21125 0.0
C780 C 0.37739 0.59247 0.20069 0.0
C781 C 0.32917 0.56366 0.18973 0.0
C782 C 0.40312 0.63773 0.16303 0.0
C783 C 0.44511 0.65507 0.22324 0.0
N784 N 0.35284 0.58802 0.18494 0.0
N785 N 0.42316 0.62904 0.22454 0.0
H786 H 0.75037 0.31779 0.74376 0.0
H787 H 0.82423 0.4726 0.66582 0.0
H788 H 0.83477 0.35804 0.70036 0.0
H789 H 0.76038 0.43979 0.76264 0.0
H790 H 0.82761 0.43067 0.67166 0.0
H791 H 0.75202 0.36198 0.74316 0.0
C792 C 0.76927 0.33594 0.73401 0.0
C793 C 0.79247 0.33422 0.72206 0.0
C794 C 0.81312 0.43293 0.69186 0.0
C795 C 0.79441 0.38495 0.7211 0.0
C796 C 0.81115 0.45678 0.68855 0.0
C797 C 0.79182 0.45963 0.71347 0.0
C798 C 0.79529 0.41173 0.71969 0.0
C799 C 0.77546 0.43851 0.74252 0.0
C800 C 0.77024 0.3612 0.73394 0.0
C801 C 0.81645 0.35851 0.70994 0.0
N802 N 0.77733 0.41536 0.74439 0.0
N803 N 0.81675 0.38293 0.70937 0.0
H804 H 0.34579 0.82137 0.1729 0.0
H805 H 0.42766 0.74675 0.24359 0.0
H806 H 0.3151 0.75549 0.26622 0.0
H807 H 0.47111 0.83163 0.20262 0.0
H808 H 0.38493 0.74808 0.24441 0.0
H809 H 0.39118 0.82479 0.17718 0.0
C810 C 0.34863 0.80785 0.19456 0.0
C811 C 0.32651 0.78794 0.21892 0.0
C812 C 0.40382 0.76647 0.23539 0.0
C813 C 0.378 0.79147 0.22334 0.0
C814 C 0.42821 0.76568 0.23463 0.0
C815 C 0.453 0.78912 0.22298 0.0
C816 C 0.40399 0.79071 0.22371 0.0
C817 C 0.45244 0.81312 0.21192 0.0
C818 C 0.37449 0.80983 0.19697 0.0
C819 C 0.33141 0.77102 0.24656 0.0
N820 N 0.42822 0.81326 0.21219 0.0
N821 N 0.35647 0.77295 0.24758 0.0
H822 H 0.67862 0.43 0.74519 0.0
H823 H 0.52618 0.34854 0.65837 0.0
H824 H 0.63996 0.47414 0.69489 0.0
H825 H 0.55467 0.31998 0.76516 0.0
H826 H 0.56823 0.39373 0.66411 0.0
H827 H 0.63409 0.38769 0.74421 0.0
C828 C 0.66076 0.43077 0.73377 0.0
C829 C 0.66297 0.4556 0.72005 0.0
C830 C 0.56497 0.37756 0.68649 0.0
C831 C 0.61198 0.40719 0.71865 0.0
C832 C 0.54106 0.35182 0.68326 0.0
C833 C 0.53699 0.33036 0.71107 0.0
C834 C 0.58505 0.38153 0.71712 0.0
C835 C 0.55693 0.3358 0.74282 0.0
C836 C 0.63533 0.40666 0.73352 0.0
C837 C 0.63907 0.4554 0.70586 0.0
N838 N 0.58024 0.36068 0.74455 0.0
N839 N 0.61452 0.43145 0.70511 0.0
H840 H 0.32302 0.75532 0.73829 0.0
H841 H 0.47362 0.82286 0.83203 0.0
H842 H 0.3599 0.83501 0.79931 0.0
H843 H 0.44597 0.76737 0.72337 0.0
H844 H 0.43232 0.82723 0.82496 0.0
H845 H 0.3677 0.758 0.73795 0.0
C846 C 0.34057 0.77341 0.75168 0.0
C847 C 0.33774 0.79492 0.76905 0.0
C848 C 0.43561 0.81443 0.80241 0.0
C849 C 0.38904 0.79805 0.76895 0.0
C850 C 0.45911 0.81189 0.80641 0.0
C851 C 0.4631 0.79442 0.77863 0.0
C852 C 0.4159 0.79906 0.77087 0.0
C853 C 0.44368 0.78082 0.74588 0.0
C854 C 0.36612 0.77501 0.7512 0.0
C855 C 0.36126 0.81799 0.78559 0.0
N856 N 0.42078 0.78313 0.74333 0.0
N857 N 0.38597 0.81884 0.78564 0.0
H858 H 0.56373 0.31463 0.25748 0.0
H859 H 0.64414 0.46992 0.33356 0.0
H860 H 0.5193 0.35465 0.30057 0.0
H861 H 0.6751 0.43705 0.23675 0.0
H862 H 0.59905 0.42765 0.32876 0.0
H863 H 0.60618 0.35892 0.25794 0.0
C864 C 0.56291 0.33274 0.2672 0.0
C865 C 0.53793 0.33093 0.27906 0.0
C866 C 0.61573 0.42997 0.30835 0.0
C867 C 0.5866 0.38179 0.2798 0.0
C868 C 0.64143 0.45401 0.31106 0.0
C869 C 0.66353 0.45697 0.28579 0.0
C870 C 0.6124 0.40868 0.28077 0.0
C871 C 0.6588 0.43571 0.25708 0.0
C872 C 0.58714 0.35806 0.26717 0.0
C873 C 0.53813 0.35518 0.29108 0.0
N874 N 0.63391 0.41238 0.25579 0.0
N875 N 0.56219 0.37966 0.29152 0.0
H876 H 0.16347 0.52142 0.79427 0.0
H877 H 0.24382 0.68024 0.73141 0.0
H878 H 0.24975 0.5669 0.76117 0.0
H879 H 0.17421 0.64736 0.81792 0.0
H880 H 0.24065 0.63544 0.72934 0.0
H881 H 0.16225 0.56463 0.79222 0.0
C882 C 0.18211 0.54043 0.7866 0.0
C883 C 0.20679 0.54058 0.77805 0.0
C884 C 0.22597 0.63798 0.74862 0.0
C885 C 0.20533 0.58964 0.77491 0.0
C886 C 0.22764 0.66354 0.74968 0.0
C887 C 0.20942 0.66771 0.77532 0.0
C888 C 0.20576 0.61619 0.77294 0.0
C889 C 0.18881 0.64512 0.79802 0.0
C890 C 0.18137 0.56499 0.7855 0.0
C891 C 0.23031 0.56578 0.76827 0.0
N892 N 0.18756 0.62026 0.79642 0.0
N893 N 0.22894 0.58921 0.76672 0.0
H894 H 0.55092 0.23042 0.23298 0.0
H895 H 0.6391 0.16224 0.30707 0.0
H896 H 0.52696 0.17708 0.34423 0.0
H897 H 0.67414 0.2428 0.24934 0.0
H898 H 0.59415 0.16003 0.30989 0.0
H899 H 0.59219 0.22675 0.22616 0.0
C900 C 0.55413 0.21765 0.25575 0.0
C901 C 0.53557 0.20431 0.28965 0.0
C902 C 0.61176 0.1781 0.29662 0.0
C903 C 0.5829 0.20004 0.2817 0.0
C904 C 0.63731 0.17937 0.29488 0.0
C905 C 0.66037 0.20282 0.27816 0.0
C906 C 0.60928 0.20013 0.2805 0.0
C907 C 0.65698 0.22445 0.26284 0.0
C908 C 0.57779 0.2157 0.25188 0.0
C909 C 0.54085 0.18791 0.31788 0.0
N910 N 0.6319 0.2225 0.26413 0.0
N911 N 0.56416 0.18628 0.31339 0.0
H912 H 0.47759 0.64193 0.80294 0.0
H913 H 0.31954 0.55692 0.7367 0.0
H914 H 0.43152 0.67896 0.75428 0.0
H915 H 0.35182 0.5284 0.83825 0.0
H916 H 0.36413 0.59858 0.73074 0.0
H917 H 0.43471 0.59724 0.80551 0.0
C918 C 0.45852 0.64066 0.79274 0.0
C919 C 0.45808 0.66421 0.77854 0.0
C920 C 0.3615 0.58314 0.75417 0.0
C921 C 0.40941 0.61336 0.78069 0.0
C922 C 0.33607 0.55923 0.75751 0.0
C923 C 0.33179 0.53919 0.78841 0.0
C924 C 0.38306 0.58704 0.7815 0.0
C925 C 0.35416 0.54341 0.81424 0.0
C926 C 0.43415 0.61523 0.79433 0.0
C927 C 0.43282 0.66142 0.76574 0.0
N928 N 0.37891 0.56697 0.81028 0.0
N929 N 0.40957 0.63646 0.76687 0.0
H930 H 0.75826 0.31743 0.22765 0.0
H931 H 0.83121 0.47431 0.29984 0.0
H932 H 0.81799 0.34775 0.33077 0.0
H933 H 0.74793 0.42905 0.25182 0.0
H934 H 0.83307 0.43141 0.29994 0.0
H935 H 0.76161 0.36231 0.22315 0.0
C936 C 0.77235 0.3336 0.24907 0.0
C937 C 0.78763 0.32868 0.28006 0.0
C938 C 0.81447 0.43104 0.28942 0.0
C939 C 0.79152 0.3802 0.27482 0.0
C940 C 0.81339 0.45541 0.28926 0.0
C941 C 0.78931 0.45516 0.27601 0.0
C942 C 0.79157 0.40654 0.27525 0.0
C943 C 0.76681 0.43014 0.26263 0.0
C944 C 0.77411 0.35918 0.24656 0.0
C945 C 0.80566 0.35058 0.30668 0.0
N946 N 0.76855 0.4069 0.26233 0.0
N947 N 0.80707 0.37546 0.30356 0.0
loop_
_geom_bond_atom_site_label_1
_geom_bond_atom_site_label_2
_geom_bond_distance
_geom_bond_site_symmetry_2
_ccdc_geom_bond_type
Co0 O3 1.970 . S
Co0 N17 1.989 . S
Co0 O25 1.967 . S
Co0 O32 1.920 . S
Co1 O4 1.966 . S
Co1 N10 2.022 . S
Co1 N18 1.993 . S
Co1 O26 1.941 . S
C2 O3 1.258 . S
C2 O4 1.263 . S
O3 Co0 1.970 . S
O3 C2 1.258 . S
O4 Co1 1.966 . S
O4 C2 1.263 . S
C5 O6 1.235 . S
C5 O32 1.289 . S
O6 C5 1.235 . S
C7 C9 1.400 . S
C7 N10 1.351 . S
C7 C12 1.501 . S
C8 C9 1.387 . S
C8 N11 1.341 . S
C9 C7 1.400 . S
C9 C8 1.387 . S
N10 Co1 2.022 . S
N10 C7 1.351 . S
N10 N11 1.365 . S
N11 C8 1.341 . S
N11 N10 1.365 . S
N11 H31 0.862 . S
C12 C7 1.501 . S
C12 H13 0.961 . S
C12 H14 0.961 . S
C12 H15 0.960 . S
H13 C12 0.961 . S
H14 C12 0.961 . S
H15 C12 0.960 . S
C16 N17 1.342 . S
C16 C20 1.401 . S
C16 C21 1.499 . S
N17 Co0 1.989 . S
N17 C16 1.342 . S
N17 N18 1.388 . S
N18 Co1 1.993 . S
N18 N17 1.388 . S
N18 C19 1.346 . S
C19 N18 1.346 . S
C19 C20 1.396 . S
C19 C29 1.510 . S
C20 C16 1.401 . S
C20 C19 1.396 . S
C21 C16 1.499 . S
C21 H22 0.959 . S
C21 H23 0.960 . S
C21 H24 0.961 . S
H22 C21 0.959 . S
H23 C21 0.960 . S
H24 C21 0.961 . S
O25 Co0 1.967 . S
O25 C33 1.258 . S
O26 Co1 1.941 . S
O26 C33 1.266 . S
H27 C29 0.959 . S
H28 C29 0.961 . S
C29 C19 1.510 . S
C29 H27 0.959 . S
C29 H28 0.961 . S
C29 H30 0.960 . S
H30 C29 0.960 . S
H31 N11 0.862 . S
O32 Co0 1.920 . S
O32 C5 1.289 . S
C33 O25 1.258 . S
C33 O26 1.266 . S
Co34 O37 1.970 . S
Co34 N51 1.989 . S
Co34 O59 1.967 . S
Co34 O66 1.920 . S
Co35 O38 1.966 . S
Co35 N44 2.022 . S
Co35 N52 1.993 . S
Co35 O60 1.941 . S
C36 O37 1.258 . S
C36 O38 1.263 . S
O37 Co34 1.970 . S
O37 C36 1.258 . S
O38 Co35 1.966 . S
O38 C36 1.263 . S
C39 O40 1.235 . S
C39 O66 1.289 . S
O40 C39 1.235 . S
C41 C43 1.400 . S
C41 N44 1.351 . S
C41 C46 1.501 . S
C42 C43 1.387 . S
C42 N45 1.341 . S
C43 C41 1.400 . S
C43 C42 1.387 . S
N44 Co35 2.022 . S
N44 C41 1.351 . S
N44 N45 1.365 . S
N45 C42 1.341 . S
N45 N44 1.365 . S
N45 H65 0.862 . S
C46 C41 1.501 . S
C46 H47 0.961 . S
C46 H48 0.961 . S
C46 H49 0.960 . S
H47 C46 0.961 . S
H48 C46 0.961 . S
H49 C46 0.960 . S
C50 N51 1.342 . S
C50 C54 1.401 . S
C50 C55 1.499 . S
N51 Co34 1.989 . S
N51 C50 1.342 . S
N51 N52 1.388 . S
N52 Co35 1.993 . S
N52 N51 1.388 . S
N52 C53 1.346 . S
C53 N52 1.346 . S
C53 C54 1.396 . S
C53 C63 1.510 . S
C54 C50 1.401 . S
C54 C53 1.396 . S
C55 C50 1.499 . S
C55 H56 0.959 . S
C55 H57 0.960 . S
C55 H58 0.961 . S
H56 C55 0.959 . S
H57 C55 0.960 . S
H58 C55 0.961 . S
O59 Co34 1.967 . S
O59 C67 1.258 . S
O60 Co35 1.941 . S
O60 C67 1.266 . S
H61 C63 0.959 . S
H62 C63 0.961 . S
C63 C53 1.510 . S
C63 H61 0.959 . S
C63 H62 0.961 . S
C63 H64 0.960 . S
H64 C63 0.960 . S
H65 N45 0.862 . S
O66 Co34 1.920 . S
O66 C39 1.289 . S
C67 O59 1.258 . S
C67 O60 1.266 . S
Co68 O71 1.970 . S
Co68 N85 1.989 . S
Co68 O93 1.967 . S
Co68 O100 1.920 . S
Co69 O72 1.966 . S
Co69 N78 2.022 . S
Co69 N86 1.993 . S
Co69 O94 1.941 . S
C70 O71 1.258 . S
C70 O72 1.263 . S
O71 Co68 1.970 . S
O71 C70 1.258 . S
O72 Co69 1.966 . S
O72 C70 1.263 . S
C73 O74 1.235 . S
C73 O100 1.289 . S
O74 C73 1.235 . S
C75 C77 1.400 . S
C75 N78 1.351 . S
C75 C80 1.501 . S
C76 C77 1.387 . S
C76 N79 1.341 . S
C77 C75 1.400 . S
C77 C76 1.387 . S
N78 Co69 2.022 . S
N78 C75 1.351 . S
N78 N79 1.365 . S
N79 C76 1.341 . S
N79 N78 1.365 . S
N79 H99 0.862 . S
C80 C75 1.501 . S
C80 H81 0.961 . S
C80 H82 0.961 . S
C80 H83 0.960 . S
H81 C80 0.961 . S
H82 C80 0.961 . S
H83 C80 0.960 . S
C84 N85 1.342 . S
C84 C88 1.401 . S
C84 C89 1.499 . S
N85 Co68 1.989 . S
N85 C84 1.342 . S
N85 N86 1.388 . S
N86 Co69 1.993 . S
N86 N85 1.388 . S
N86 C87 1.346 . S
C87 N86 1.346 . S
C87 C88 1.396 . S
C87 C97 1.510 . S
C88 C84 1.401 . S
C88 C87 1.396 . S
C89 C84 1.499 . S
C89 H90 0.959 . S
C89 H91 0.960 . S
C89 H92 0.961 . S
H90 C89 0.959 . S
H91 C89 0.960 . S
H92 C89 0.961 . S
O93 Co68 1.967 . S
O93 C101 1.258 . S
O94 Co69 1.941 . S
O94 C101 1.266 . S
H95 C97 0.959 . S
H96 C97 0.961 . S
C97 C87 1.510 . S
C97 H95 0.959 . S
C97 H96 0.961 . S
C97 H98 0.960 . S
H98 C97 0.960 . S
H99 N79 0.862 . S
O100 Co68 1.920 . S
O100 C73 1.289 . S
C101 O93 1.258 . S
C101 O94 1.266 . S
Co102 O105 1.970 . S
Co102 N119 1.989 . S
Co102 O127 1.967 . S
Co102 O134 1.920 . S
Co103 O106 1.966 . S
Co103 N112 2.022 . S
Co103 N120 1.993 . S
Co103 O128 1.941 . S
C104 O105 1.258 . S
C104 O106 1.263 . S
O105 Co102 1.970 . S
O105 C104 1.258 . S
O106 Co103 1.966 . S
O106 C104 1.263 . S
C107 O108 1.235 . S
C107 O134 1.289 . S
O108 C107 1.235 . S
C109 C111 1.400 . S
C109 N112 1.351 . S
C109 C114 1.501 . S
C110 C111 1.387 . S
C110 N113 1.341 . S
C111 C109 1.400 . S
C111 C110 1.387 . S
N112 Co103 2.022 . S
N112 C109 1.351 . S
N112 N113 1.365 . S
N113 C110 1.341 . S
N113 N112 1.365 . S
N113 H133 0.862 . S
C114 C109 1.501 . S
C114 H115 0.961 . S
C114 H116 0.961 . S
C114 H117 0.960 . S
H115 C114 0.961 . S
H116 C114 0.961 . S
H117 C114 0.960 . S
C118 N119 1.342 . S
C118 C122 1.401 . S
C118 C123 1.499 . S
N119 Co102 1.989 . S
N119 C118 1.342 . S
N119 N120 1.388 . S
N120 Co103 1.993 . S
N120 N119 1.388 . S
N120 C121 1.346 . S
C121 N120 1.346 . S
C121 C122 1.396 . S
C121 C131 1.510 . S
C122 C118 1.401 . S
C122 C121 1.396 . S
C123 C118 1.499 . S
C123 H124 0.959 . S
C123 H125 0.960 . S
C123 H126 0.961 . S
H124 C123 0.959 . S
H125 C123 0.960 . S
H126 C123 0.961 . S
O127 Co102 1.967 . S
O127 C135 1.258 . S
O128 Co103 1.941 . S
O128 C135 1.266 . S
H129 C131 0.959 . S
H130 C131 0.961 . S
C131 C121 1.510 . S
C131 H129 0.959 . S
C131 H130 0.961 . S
C131 H132 0.960 . S
H132 C131 0.960 . S
H133 N113 0.862 . S
O134 Co102 1.920 . S
O134 C107 1.289 . S
C135 O127 1.258 . S
C135 O128 1.266 . S
Co136 O139 1.970 . S
Co136 N153 1.989 . S
Co136 O161 1.967 . S
Co136 O168 1.920 . S
Co137 O140 1.966 . S
Co137 N146 2.022 . S
Co137 N154 1.993 . S
Co137 O162 1.941 . S
C138 O139 1.258 . S
C138 O140 1.263 . S
O139 Co136 1.970 . S
O139 C138 1.258 . S
O140 Co137 1.966 . S
O140 C138 1.263 . S
C141 O142 1.235 . S
C141 O168 1.289 . S
O142 C141 1.235 . S
C143 C145 1.400 . S
C143 N146 1.351 . S
C143 C148 1.501 . S
C144 C145 1.387 . S
C144 N147 1.341 . S
C145 C143 1.400 . S
C145 C144 1.387 . S
N146 Co137 2.022 . S
N146 C143 1.351 . S
N146 N147 1.365 . S
N147 C144 1.341 . S
N147 N146 1.365 . S
N147 H167 0.862 . S
C148 C143 1.501 . S
C148 H149 0.961 . S
C148 H150 0.961 . S
C148 H151 0.960 . S
H149 C148 0.961 . S
H150 C148 0.961 . S
H151 C148 0.960 . S
C152 N153 1.342 . S
C152 C156 1.401 . S
C152 C157 1.499 . S
N153 Co136 1.989 . S
N153 C152 1.342 . S
N153 N154 1.388 . S
N154 Co137 1.993 . S
N154 N153 1.388 . S
N154 C155 1.346 . S
C155 N154 1.346 . S
C155 C156 1.396 . S
C155 C165 1.510 . S
C156 C152 1.401 . S
C156 C155 1.396 . S
C157 C152 1.499 . S
C157 H158 0.959 . S
C157 H159 0.960 . S
C157 H160 0.961 . S
H158 C157 0.959 . S
H159 C157 0.960 . S
H160 C157 0.961 . S
O161 Co136 1.967 . S
O161 C169 1.258 . S
O162 Co137 1.941 . S
O162 C169 1.266 . S
H163 C165 0.959 . S
H164 C165 0.961 . S
C165 C155 1.510 . S
C165 H163 0.959 . S
C165 H164 0.961 . S
C165 H166 0.960 . S
H166 C165 0.960 . S
H167 N147 0.862 . S
O168 Co136 1.920 . S
O168 C141 1.289 . S
C169 O161 1.258 . S
C169 O162 1.266 . S
Co170 O173 1.970 . S
Co170 N187 1.989 . S
Co170 O195 1.967 . S
Co170 O202 1.920 . S
Co171 O174 1.966 . S
Co171 N180 2.022 . S
Co171 N188 1.993 . S
Co171 O196 1.941 . S
C172 O173 1.258 . S
C172 O174 1.263 . S
O173 Co170 1.970 . S
O173 C172 1.258 . S
O174 Co171 1.966 . S
O174 C172 1.263 . S
C175 O176 1.235 . S
C175 O202 1.289 . S
O176 C175 1.235 . S
C177 C179 1.400 . S
C177 N180 1.351 . S
C177 C182 1.501 . S
C178 C179 1.387 . S
C178 N181 1.341 . S
C179 C177 1.400 . S
C179 C178 1.387 . S
N180 Co171 2.022 . S
N180 C177 1.351 . S
N180 N181 1.365 . S
N181 C178 1.341 . S
N181 N180 1.365 . S
N181 H201 0.862 . S
C182 C177 1.501 . S
C182 H183 0.961 . S
C182 H184 0.961 . S
C182 H185 0.960 . S
H183 C182 0.961 . S
H184 C182 0.961 . S
H185 C182 0.960 . S
C186 N187 1.342 . S
C186 C190 1.401 . S
C186 C191 1.499 . S
N187 Co170 1.989 . S
N187 C186 1.342 . S
N187 N188 1.388 . S
N188 Co171 1.993 . S
N188 N187 1.388 . S
N188 C189 1.346 . S
C189 N188 1.346 . S
C189 C190 1.396 . S
C189 C199 1.510 . S
C190 C186 1.401 . S
C190 C189 1.396 . S
C191 C186 1.499 . S
C191 H192 0.959 . S
C191 H193 0.960 . S
C191 H194 0.961 . S
H192 C191 0.959 . S
H193 C191 0.960 . S
H194 C191 0.961 . S
O195 Co170 1.967 . S
O195 C203 1.258 . S
O196 Co171 1.941 . S
O196 C203 1.266 . S
H197 C199 0.959 . S
H198 C199 0.961 . S
C199 C189 1.510 . S
C199 H197 0.959 . S
C199 H198 0.961 . S
C199 H200 0.960 . S
H200 C199 0.960 . S
H201 N181 0.862 . S
O202 Co170 1.920 . S
O202 C175 1.289 . S
C203 O195 1.258 . S
C203 O196 1.266 . S
Co204 O207 1.970 . S
Co204 N221 1.989 . S
Co204 O229 1.967 . S
Co204 O236 1.920 . S
Co205 O208 1.966 . S
Co205 N214 2.022 . S
Co205 N222 1.993 . S
Co205 O230 1.941 . S
C206 O207 1.258 . S
C206 O208 1.263 . S
O207 Co204 1.970 . S
O207 C206 1.258 . S
O208 Co205 1.966 . S
O208 C206 1.263 . S
C209 O210 1.235 . S
C209 O236 1.289 . S
O210 C209 1.235 . S
C211 C213 1.400 . S
C211 N214 1.351 . S
C211 C216 1.501 . S
C212 C213 1.387 . S
C212 N215 1.341 . S
C213 C211 1.400 . S
C213 C212 1.387 . S
N214 Co205 2.022 . S
N214 C211 1.351 . S
N214 N215 1.365 . S
N215 C212 1.341 . S
N215 N214 1.365 . S
N215 H235 0.862 . S
C216 C211 1.501 . S
C216 H217 0.961 . S
C216 H218 0.961 . S
C216 H219 0.960 . S
H217 C216 0.961 . S
H218 C216 0.961 . S
H219 C216 0.960 . S
C220 N221 1.342 . S
C220 C224 1.401 . S
C220 C225 1.499 . S
N221 Co204 1.989 . S
N221 C220 1.342 . S
N221 N222 1.388 . S
N222 Co205 1.993 . S
N222 N221 1.388 . S
N222 C223 1.346 . S
C223 N222 1.346 . S
C223 C224 1.396 . S
C223 C233 1.510 . S
C224 C220 1.401 . S
C224 C223 1.396 . S
C225 C220 1.499 . S
C225 H226 0.959 . S
C225 H227 0.960 . S
C225 H228 0.961 . S
H226 C225 0.959 . S
H227 C225 0.960 . S
H228 C225 0.961 . S
O229 Co204 1.967 . S
O229 C237 1.258 . S
O230 Co205 1.941 . S
O230 C237 1.266 . S
H231 C233 0.959 . S
H232 C233 0.961 . S
C233 C223 1.510 . S
C233 H231 0.959 . S
C233 H232 0.961 . S
C233 H234 0.960 . S
H234 C233 0.960 . S
H235 N215 0.862 . S
O236 Co204 1.920 . S
O236 C209 1.289 . S
C237 O229 1.258 . S
C237 O230 1.266 . S
Co238 O241 1.970 . S
Co238 N255 1.989 . S
Co238 O263 1.967 . S
Co238 O270 1.920 . S
Co239 O242 1.966 . S
Co239 N248 2.022 . S
Co239 N256 1.993 . S
Co239 O264 1.941 . S
C240 O241 1.258 . S
C240 O242 1.263 . S
O241 Co238 1.970 . S
O241 C240 1.258 . S
O242 Co239 1.966 . S
O242 C240 1.263 . S
C243 O244 1.235 . S
C243 O270 1.289 . S
O244 C243 1.235 . S
C245 C247 1.400 . S
C245 N248 1.351 . S
C245 C250 1.501 . S
C246 C247 1.387 . S
C246 N249 1.341 . S
C247 C245 1.400 . S
C247 C246 1.387 . S
N248 Co239 2.022 . S
N248 C245 1.351 . S
N248 N249 1.365 . S
N249 C246 1.341 . S
N249 N248 1.365 . S
N249 H269 0.862 . S
C250 C245 1.501 . S
C250 H251 0.961 . S
C250 H252 0.961 . S
C250 H253 0.960 . S
H251 C250 0.961 . S
H252 C250 0.961 . S
H253 C250 0.960 . S
C254 N255 1.342 . S
C254 C258 1.401 . S
C254 C259 1.499 . S
N255 Co238 1.989 . S
N255 C254 1.342 . S
N255 N256 1.388 . S
N256 Co239 1.993 . S
N256 N255 1.388 . S
N256 C257 1.346 . S
C257 N256 1.346 . S
C257 C258 1.396 . S
C257 C267 1.510 . S
C258 C254 1.401 . S
C258 C257 1.396 . S
C259 C254 1.499 . S
C259 H260 0.959 . S
C259 H261 0.960 . S
C259 H262 0.961 . S
H260 C259 0.959 . S
H261 C259 0.960 . S
H262 C259 0.961 . S
O263 Co238 1.967 . S
O263 C271 1.258 . S
O264 Co239 1.941 . S
O264 C271 1.266 . S
H265 C267 0.959 . S
H266 C267 0.961 . S
C267 C257 1.510 . S
C267 H265 0.959 . S
C267 H266 0.961 . S
C267 H268 0.960 . S
H268 C267 0.960 . S
H269 N249 0.862 . S
O270 Co238 1.920 . S
O270 C243 1.289 . S
C271 O263 1.258 . S
C271 O264 1.266 . S
Co272 O275 1.970 . S
Co272 N289 1.989 . S
Co272 O297 1.967 . S
Co272 O304 1.920 . S
Co273 O276 1.966 . S
Co273 N282 2.022 . S
Co273 N290 1.993 . S
Co273 O298 1.941 . S
C274 O275 1.258 . S
C274 O276 1.263 . S
O275 Co272 1.970 . S
O275 C274 1.258 . S
O276 Co273 1.966 . S
O276 C274 1.263 . S
C277 O278 1.235 . S
C277 O304 1.289 . S
O278 C277 1.235 . S
C279 C281 1.400 . S
C279 N282 1.351 . S
C279 C284 1.501 . S
C280 C281 1.387 . S
C280 N283 1.341 . S
C281 C279 1.400 . S
C281 C280 1.387 . S
N282 Co273 2.022 . S
N282 C279 1.351 . S
N282 N283 1.365 . S
N283 C280 1.341 . S
N283 N282 1.365 . S
N283 H303 0.862 . S
C284 C279 1.501 . S
C284 H285 0.961 . S
C284 H286 0.961 . S
C284 H287 0.960 . S
H285 C284 0.961 . S
H286 C284 0.961 . S
H287 C284 0.960 . S
C288 N289 1.342 . S
C288 C292 1.401 . S
C288 C293 1.499 . S
N289 Co272 1.989 . S
N289 C288 1.342 . S
N289 N290 1.388 . S
N290 Co273 1.993 . S
N290 N289 1.388 . S
N290 C291 1.346 . S
C291 N290 1.346 . S
C291 C292 1.396 . S
C291 C301 1.510 . S
C292 C288 1.401 . S
C292 C291 1.396 . S
C293 C288 1.499 . S
C293 H294 0.959 . S
C293 H295 0.960 . S
C293 H296 0.961 . S
H294 C293 0.959 . S
H295 C293 0.960 . S
H296 C293 0.961 . S
O297 Co272 1.967 . S
O297 C305 1.258 . S
O298 Co273 1.941 . S
O298 C305 1.266 . S
H299 C301 0.959 . S
H300 C301 0.961 . S
C301 C291 1.510 . S
C301 H299 0.959 . S
C301 H300 0.961 . S
C301 H302 0.960 . S
H302 C301 0.960 . S
H303 N283 0.862 . S
O304 Co272 1.920 . S
O304 C277 1.289 . S
C305 O297 1.258 . S
C305 O298 1.266 . S
Co306 O309 1.970 . S
Co306 N323 1.989 . S
Co306 O331 1.967 . S
Co306 O338 1.920 . S
Co307 O310 1.966 . S
Co307 N316 2.022 . S
Co307 N324 1.993 . S
Co307 O332 1.941 . S
C308 O309 1.258 . S
C308 O310 1.263 . S
O309 Co306 1.970 . S
O309 C308 1.258 . S
O310 Co307 1.966 . S
O310 C308 1.263 . S
C311 O312 1.235 . S
C311 O338 1.289 . S
O312 C311 1.235 . S
C313 C315 1.400 . S
C313 N316 1.351 . S
C313 C318 1.501 . S
C314 C315 1.387 . S
C314 N317 1.341 . S
C315 C313 1.400 . S
C315 C314 1.387 . S
N316 Co307 2.022 . S
N316 C313 1.351 . S
N316 N317 1.365 . S
N317 C314 1.341 . S
N317 N316 1.365 . S
N317 H337 0.862 . S
C318 C313 1.501 . S
C318 H319 0.961 . S
C318 H320 0.961 . S
C318 H321 0.960 . S
H319 C318 0.961 . S
H320 C318 0.961 . S
H321 C318 0.960 . S
C322 N323 1.342 . S
C322 C326 1.401 . S
C322 C327 1.499 . S
N323 Co306 1.989 . S
N323 C322 1.342 . S
N323 N324 1.388 . S
N324 Co307 1.993 . S
N324 N323 1.388 . S
N324 C325 1.346 . S
C325 N324 1.346 . S
C325 C326 1.396 . S
C325 C335 1.510 . S
C326 C322 1.401 . S
C326 C325 1.396 . S
C327 C322 1.499 . S
C327 H328 0.959 . S
C327 H329 0.960 . S
C327 H330 0.961 . S
H328 C327 0.959 . S
H329 C327 0.960 . S
H330 C327 0.961 . S
O331 Co306 1.967 . S
O331 C339 1.258 . S
O332 Co307 1.941 . S
O332 C339 1.266 . S
H333 C335 0.959 . S
H334 C335 0.961 . S
C335 C325 1.510 . S
C335 H333 0.959 . S
C335 H334 0.961 . S
C335 H336 0.960 . S
H336 C335 0.960 . S
H337 N317 0.862 . S
O338 Co306 1.920 . S
O338 C311 1.289 . S
C339 O331 1.258 . S
C339 O332 1.266 . S
Co340 O343 1.970 . S
Co340 N357 1.989 . S
Co340 O365 1.967 . S
Co340 O372 1.920 . S
Co341 O344 1.966 . S
Co341 N350 2.022 . S
Co341 N358 1.993 . S
Co341 O366 1.941 . S
C342 O343 1.258 . S
C342 O344 1.263 . S
O343 Co340 1.970 . S
O343 C342 1.258 . S
O344 Co341 1.966 . S
O344 C342 1.263 . S
C345 O346 1.235 . S
C345 O372 1.289 . S
O346 C345 1.235 . S
C347 C349 1.400 . S
C347 N350 1.351 . S
C347 C352 1.501 . S
C348 C349 1.387 . S
C348 N351 1.341 . S
C349 C347 1.400 . S
C349 C348 1.387 . S
N350 Co341 2.022 . S
N350 C347 1.351 . S
N350 N351 1.365 . S
N351 C348 1.341 . S
N351 N350 1.365 . S
N351 H371 0.862 . S
C352 C347 1.501 . S
C352 H353 0.961 . S
C352 H354 0.961 . S
C352 H355 0.960 . S
H353 C352 0.961 . S
H354 C352 0.961 . S
H355 C352 0.960 . S
C356 N357 1.342 . S
C356 C360 1.401 . S
C356 C361 1.499 . S
N357 Co340 1.989 . S
N357 C356 1.342 . S
N357 N358 1.388 . S
N358 Co341 1.993 . S
N358 N357 1.388 . S
N358 C359 1.346 . S
C359 N358 1.346 . S
C359 C360 1.396 . S
C359 C369 1.510 . S
C360 C356 1.401 . S
C360 C359 1.396 . S
C361 C356 1.499 . S
C361 H362 0.959 . S
C361 H363 0.960 . S
C361 H364 0.961 . S
H362 C361 0.959 . S
H363 C361 0.960 . S
H364 C361 0.961 . S
O365 Co340 1.967 . S
O365 C373 1.258 . S
O366 Co341 1.941 . S
O366 C373 1.266 . S
H367 C369 0.959 . S
H368 C369 0.961 . S
C369 C359 1.510 . S
C369 H367 0.959 . S
C369 H368 0.961 . S
C369 H370 0.960 . S
H370 C369 0.960 . S
H371 N351 0.862 . S
O372 Co340 1.920 . S
O372 C345 1.289 . S
C373 O365 1.258 . S
C373 O366 1.266 . S
Co374 O377 1.970 . S
Co374 N391 1.989 . S
Co374 O399 1.967 . S
Co374 O406 1.920 . S
Co375 O378 1.966 . S
Co375 N384 2.022 . S
Co375 N392 1.993 . S
Co375 O400 1.941 . S
C376 O377 1.258 . S
C376 O378 1.263 . S
O377 Co374 1.970 . S
O377 C376 1.258 . S
O378 Co375 1.966 . S
O378 C376 1.263 . S
C379 O380 1.235 . S
C379 O406 1.289 . S
O380 C379 1.235 . S
C381 C383 1.400 . S
C381 N384 1.351 . S
C381 C386 1.501 . S
C382 C383 1.387 . S
C382 N385 1.341 . S
C383 C381 1.400 . S
C383 C382 1.387 . S
N384 Co375 2.022 . S
N384 C381 1.351 . S
N384 N385 1.365 . S
N385 C382 1.341 . S
N385 N384 1.365 . S
N385 H405 0.862 . S
C386 C381 1.501 . S
C386 H387 0.961 . S
C386 H388 0.961 . S
C386 H389 0.960 . S
H387 C386 0.961 . S
H388 C386 0.961 . S
H389 C386 0.960 . S
C390 N391 1.342 . S
C390 C394 1.401 . S
C390 C395 1.499 . S
N391 Co374 1.989 . S
N391 C390 1.342 . S
N391 N392 1.388 . S
N392 Co375 1.993 . S
N392 N391 1.388 . S
N392 C393 1.346 . S
C393 N392 1.346 . S
C393 C394 1.396 . S
C393 C403 1.510 . S
C394 C390 1.401 . S
C394 C393 1.396 . S
C395 C390 1.499 . S
C395 H396 0.959 . S
C395 H397 0.960 . S
C395 H398 0.961 . S
H396 C395 0.959 . S
H397 C395 0.960 . S
H398 C395 0.961 . S
O399 Co374 1.967 . S
O399 C407 1.258 . S
O400 Co375 1.941 . S
O400 C407 1.266 . S
H401 C403 0.959 . S
H402 C403 0.961 . S
C403 C393 1.510 . S
C403 H401 0.959 . S
C403 H402 0.961 . S
C403 H404 0.960 . S
H404 C403 0.960 . S
H405 N385 0.862 . S
O406 Co374 1.920 . S
O406 C379 1.289 . S
C407 O399 1.258 . S
C407 O400 1.266 . S
H408 C414 0.930 . S
H409 C418 0.930 . S
H410 C423 0.929 . S
H411 C421 0.929 . S
H412 C416 0.929 . S
H413 C422 0.929 . S
C414 H408 0.930 . S
C414 C415 1.367 . S
C414 C422 1.378 . S
C415 C414 1.367 . S
C415 C423 1.433 . S
C416 H412 0.929 . S
C416 C418 1.378 . S
C416 C420 1.350 . S
C417 C420 1.463 . S
C417 C422 1.350 . S
C417 N425 1.427 . S
C418 H409 0.930 . S
C418 C416 1.378 . S
C418 C419 1.367 . S
C419 C418 1.367 . S
C419 C421 1.433 . S
C420 C416 1.350 . S
C420 C417 1.463 . S
C420 N424 1.427 . S
C421 H411 0.929 . S
C421 C419 1.433 . S
C421 N424 1.384 . S
C422 H413 0.929 . S
C422 C414 1.378 . S
C422 C417 1.350 . S
C423 H410 0.929 . S
C423 C415 1.433 . S
C423 N425 1.384 . S
N424 C420 1.427 . S
N424 C421 1.384 . S
N425 C417 1.427 . S
N425 C423 1.384 . S
H426 C432 0.930 . S
H427 C436 0.930 . S
H428 C441 0.929 . S
H429 C439 0.929 . S
H430 C434 0.929 . S
H431 C440 0.929 . S
C432 H426 0.930 . S
C432 C433 1.367 . S
C432 C440 1.378 . S
C433 C432 1.367 . S
C433 C441 1.433 . S
C434 H430 0.929 . S
C434 C436 1.378 . S
C434 C438 1.350 . S
C435 C438 1.463 1_655 S
C435 C440 1.350 . S
C435 N443 1.427 . S
C436 H427 0.930 . S
C436 C434 1.378 . S
C436 C437 1.367 . S
C437 C436 1.367 . S
C437 C439 1.433 . S
C438 C434 1.350 . S
C438 C435 1.463 1_455 S
C438 N442 1.427 . S
C439 H429 0.929 . S
C439 C437 1.433 . S
C439 N442 1.384 . S
C440 H431 0.929 . S
C440 C432 1.378 . S
C440 C435 1.350 . S
C441 H428 0.929 . S
C441 C433 1.433 . S
C441 N443 1.384 . S
N442 C438 1.427 . S
N442 C439 1.384 . S
N443 C435 1.427 . S
N443 C441 1.384 . S
H444 C450 0.930 . S
H445 C454 0.930 . S
H446 C459 0.929 . S
H447 C457 0.929 . S
H448 C452 0.929 . S
H449 C458 0.929 . S
C450 H444 0.930 . S
C450 C451 1.367 . S
C450 C458 1.378 . S
C451 C450 1.367 . S
C451 C459 1.433 . S
C452 H448 0.929 . S
C452 C454 1.378 . S
C452 C456 1.350 . S
C453 C456 1.463 1_545 S
C453 C458 1.350 . S
C453 N461 1.427 . S
C454 H445 0.930 . S
C454 C452 1.378 . S
C454 C455 1.367 . S
C455 C454 1.367 . S
C455 C457 1.433 . S
C456 C452 1.350 . S
C456 C453 1.463 1_565 S
C456 N460 1.427 . S
C457 H447 0.929 . S
C457 C455 1.433 . S
C457 N460 1.384 . S
C458 H449 0.929 . S
C458 C450 1.378 . S
C458 C453 1.350 . S
C459 H446 0.929 . S
C459 C451 1.433 . S
C459 N461 1.384 . S
N460 C456 1.427 . S
N460 C457 1.384 . S
N461 C453 1.427 . S
N461 C459 1.384 . S
H462 C468 0.930 . S
H463 C472 0.930 . S
H464 C477 0.929 . S
H465 C475 0.929 . S
H466 C470 0.929 . S
H467 C476 0.929 . S
C468 H462 0.930 . S
C468 C469 1.367 . S
C468 C476 1.378 . S
C469 C468 1.367 . S
C469 C477 1.433 . S
C470 H466 0.929 . S
C470 C472 1.378 . S
C470 C474 1.350 . S
C471 C474 1.463 . S
C471 C476 1.350 . S
C471 N479 1.427 . S
C472 H463 0.930 . S
C472 C470 1.378 . S
C472 C473 1.367 . S
C473 C472 1.367 . S
C473 C475 1.433 . S
C474 C470 1.350 . S
C474 C471 1.463 . S
C474 N478 1.427 . S
C475 H465 0.929 . S
C475 C473 1.433 . S
C475 N478 1.384 . S
C476 H467 0.929 . S
C476 C468 1.378 . S
C476 C471 1.350 . S
C477 H464 0.929 . S
C477 C469 1.433 . S
C477 N479 1.384 . S
N478 C474 1.427 . S
N478 C475 1.384 . S
N479 C471 1.427 . S
N479 C477 1.384 . S
H480 C486 0.930 . S
H481 C490 0.930 . S
H482 C495 0.929 . S
H483 C493 0.929 . S
H484 C488 0.929 . S
H485 C494 0.929 . S
C486 H480 0.930 . S
C486 C487 1.367 . S
C486 C494 1.378 . S
C487 C486 1.367 . S
C487 C495 1.433 . S
C488 H484 0.929 . S
C488 C490 1.378 . S
C488 C492 1.350 . S
C489 C492 1.463 1_455 S
C489 C494 1.350 . S
C489 N497 1.427 . S
C490 H481 0.930 . S
C490 C488 1.378 . S
C490 C491 1.367 . S
C491 C490 1.367 . S
C491 C493 1.433 . S
C492 C488 1.350 . S
C492 C489 1.463 1_655 S
C492 N496 1.427 . S
C493 H483 0.929 . S
C493 C491 1.433 . S
C493 N496 1.384 . S
C494 H485 0.929 . S
C494 C486 1.378 . S
C494 C489 1.350 . S
C495 H482 0.929 . S
C495 C487 1.433 . S
C495 N497 1.384 . S
N496 C492 1.427 . S
N496 C493 1.384 . S
N497 C489 1.427 . S
N497 C495 1.384 . S
H498 C504 0.930 . S
H499 C508 0.930 . S
H500 C513 0.929 . S
H501 C511 0.929 . S
H502 C506 0.929 . S
H503 C512 0.929 . S
C504 H498 0.930 . S
C504 C505 1.367 . S
C504 C512 1.378 . S
C505 C504 1.367 . S
C505 C513 1.433 . S
C506 H502 0.929 . S
C506 C508 1.378 . S
C506 C510 1.350 . S
C507 C510 1.463 1_565 S
C507 C512 1.350 . S
C507 N515 1.427 . S
C508 H499 0.930 . S
C508 C506 1.378 . S
C508 C509 1.367 . S
C509 C508 1.367 . S
C509 C511 1.433 . S
C510 C506 1.350 . S
C510 C507 1.463 1_545 S
C510 N514 1.427 . S
C511 H501 0.929 . S
C511 C509 1.433 . S
C511 N514 1.384 . S
C512 H503 0.929 . S
C512 C504 1.378 . S
C512 C507 1.350 . S
C513 H500 0.929 . S
C513 C505 1.433 . S
C513 N515 1.384 . S
N514 C510 1.427 . S
N514 C511 1.384 . S
N515 C507 1.427 . S
N515 C513 1.384 . S
H516 C522 0.930 . S
H517 C526 0.930 . S
H518 C531 0.929 . S
H519 C529 0.929 . S
H520 C524 0.929 . S
H521 C530 0.929 . S
C522 H516 0.930 . S
C522 C523 1.367 . S
C522 C530 1.378 . S
C523 C522 1.367 . S
C523 C531 1.433 . S
C524 H520 0.929 . S
C524 C526 1.378 . S
C524 C528 1.350 . S
C525 C528 1.463 1_556 S
C525 C530 1.350 . S
C525 N533 1.427 . S
C526 H517 0.930 . S
C526 C524 1.378 . S
C526 C527 1.367 . S
C527 C526 1.367 . S
C527 C529 1.433 . S
C528 C524 1.350 . S
C528 C525 1.463 1_554 S
C528 N532 1.427 . S
C529 H519 0.929 . S
C529 C527 1.433 . S
C529 N532 1.384 . S
C530 H521 0.929 . S
C530 C522 1.378 . S
C530 C525 1.350 . S
C531 H518 0.929 . S
C531 C523 1.433 . S
C531 N533 1.384 . S
N532 C528 1.427 . S
N532 C529 1.384 . S
N533 C525 1.427 . S
N533 C531 1.384 . S
H534 C540 0.930 . S
H535 C544 0.930 . S
H536 C549 0.929 . S
H537 C547 0.929 . S
H538 C542 0.929 . S
H539 C548 0.929 . S
C540 H534 0.930 . S
C540 C541 1.367 . S
C540 C548 1.378 . S
C541 C540 1.367 . S
C541 C549 1.433 . S
C542 H538 0.929 . S
C542 C544 1.378 . S
C542 C546 1.350 . S
C543 C546 1.463 . S
C543 C548 1.350 . S
C543 N551 1.427 . S
C544 H535 0.930 . S
C544 C542 1.378 . S
C544 C545 1.367 . S
C545 C544 1.367 . S
C545 C547 1.433 . S
C546 C542 1.350 . S
C546 C543 1.463 . S
C546 N550 1.427 . S
C547 H537 0.929 . S
C547 C545 1.433 . S
C547 N550 1.384 . S
C548 H539 0.929 . S
C548 C540 1.378 . S
C548 C543 1.350 . S
C549 H536 0.929 . S
C549 C541 1.433 . S
C549 N551 1.384 . S
N550 C546 1.427 . S
N550 C547 1.384 . S
N551 C543 1.427 . S
N551 C549 1.384 . S
H552 C558 0.930 . S
H553 C562 0.930 . S
H554 C567 0.929 . S
H555 C565 0.929 . S
H556 C560 0.929 . S
H557 C566 0.929 . S
C558 H552 0.930 . S
C558 C559 1.367 . S
C558 C566 1.378 . S
C559 C558 1.367 . S
C559 C567 1.433 . S
C560 H556 0.929 . S
C560 C562 1.378 . S
C560 C564 1.350 . S
C561 C564 1.463 1_554 S
C561 C566 1.350 . S
C561 N569 1.427 . S
C562 H553 0.930 . S
C562 C560 1.378 . S
C562 C563 1.367 . S
C563 C562 1.367 . S
C563 C565 1.433 . S
C564 C560 1.350 . S
C564 C561 1.463 1_556 S
C564 N568 1.427 . S
C565 H555 0.929 . S
C565 C563 1.433 . S
C565 N568 1.384 . S
C566 H557 0.929 . S
C566 C558 1.378 . S
C566 C561 1.350 . S
C567 H554 0.929 . S
C567 C559 1.433 . S
C567 N569 1.384 . S
N568 C564 1.427 . S
N568 C565 1.384 . S
N569 C561 1.427 . S
N569 C567 1.384 . S
H570 C576 0.930 . S
H571 C580 0.930 . S
H572 C585 0.929 . S
H573 C583 0.929 . S
H574 C578 0.929 . S
H575 C584 0.929 . S
C576 H570 0.930 . S
C576 C577 1.367 . S
C576 C584 1.378 . S
C577 C576 1.367 . S
C577 C585 1.433 . S
C578 H574 0.929 . S
C578 C580 1.378 . S
C578 C582 1.350 . S
C579 C582 1.463 . S
C579 C584 1.350 . S
C579 N587 1.427 . S
C580 H571 0.930 . S
C580 C578 1.378 . S
C580 C581 1.367 . S
C581 C580 1.367 . S
C581 C583 1.433 . S
C582 C578 1.350 . S
C582 C579 1.463 . S
C582 N586 1.427 . S
C583 H573 0.929 . S
C583 C581 1.433 . S
C583 N586 1.384 . S
C584 H575 0.929 . S
C584 C576 1.378 . S
C584 C579 1.350 . S
C585 H572 0.929 . S
C585 C577 1.433 . S
C585 N587 1.384 . S
N586 C582 1.427 . S
N586 C583 1.384 . S
N587 C579 1.427 . S
N587 C585 1.384 . S
H588 C594 0.930 . S
H589 C598 0.930 . S
H590 C603 0.929 . S
H591 C601 0.929 . S
H592 C596 0.929 . S
H593 C602 0.929 . S
C594 H588 0.930 . S
C594 C595 1.367 . S
C594 C602 1.378 . S
C595 C594 1.367 . S
C595 C603 1.433 . S
C596 H592 0.929 . S
C596 C598 1.378 . S
C596 C600 1.350 . S
C597 C600 1.463 1_556 S
C597 C602 1.350 . S
C597 N605 1.427 . S
C598 H589 0.930 . S
C598 C596 1.378 . S
C598 C599 1.367 . S
C599 C598 1.367 . S
C599 C601 1.433 . S
C600 C596 1.350 . S
C600 C597 1.463 1_554 S
C600 N604 1.427 . S
C601 H591 0.929 . S
C601 C599 1.433 . S
C601 N604 1.384 . S
C602 H593 0.929 . S
C602 C594 1.378 . S
C602 C597 1.350 . S
C603 H590 0.929 . S
C603 C595 1.433 . S
C603 N605 1.384 . S
N604 C600 1.427 . S
N604 C601 1.384 . S
N605 C597 1.427 . S
N605 C603 1.384 . S
H606 C612 0.930 . S
H607 C616 0.930 . S
H608 C621 0.929 . S
H609 C619 0.929 . S
H610 C614 0.929 . S
H611 C620 0.929 . S
C612 H606 0.930 . S
C612 C613 1.367 . S
C612 C620 1.378 . S
C613 C612 1.367 . S
C613 C621 1.433 . S
C614 H610 0.929 . S
C614 C616 1.378 . S
C614 C618 1.350 . S
C615 C618 1.463 . S
C615 C620 1.350 . S
C615 N623 1.427 . S
C616 H607 0.930 . S
C616 C614 1.378 . S
C616 C617 1.367 . S
C617 C616 1.367 . S
C617 C619 1.433 . S
C618 C614 1.350 . S
C618 C615 1.463 . S
C618 N622 1.427 . S
C619 H609 0.929 . S
C619 C617 1.433 . S
C619 N622 1.384 . S
C620 H611 0.929 . S
C620 C612 1.378 . S
C620 C615 1.350 . S
C621 H608 0.929 . S
C621 C613 1.433 . S
C621 N623 1.384 . S
N622 C618 1.427 . S
N622 C619 1.384 . S
N623 C615 1.427 . S
N623 C621 1.384 . S
H624 C630 0.930 . S
H625 C634 0.930 . S
H626 C639 0.929 . S
H627 C637 0.929 . S
H628 C632 0.929 . S
H629 C638 0.929 . S
C630 H624 0.930 . S
C630 C631 1.367 . S
C630 C638 1.378 . S
C631 C630 1.367 . S
C631 C639 1.433 . S
C632 H628 0.929 . S
C632 C634 1.378 . S
C632 C636 1.350 . S
C633 C636 1.463 1_554 S
C633 C638 1.350 . S
C633 N641 1.427 . S
C634 H625 0.930 . S
C634 C632 1.378 . S
C634 C635 1.367 . S
C635 C634 1.367 . S
C635 C637 1.433 . S
C636 C632 1.350 . S
C636 C633 1.463 1_556 S
C636 N640 1.427 . S
C637 H627 0.929 . S
C637 C635 1.433 . S
C637 N640 1.384 . S
C638 H629 0.929 . S
C638 C630 1.378 . S
C638 C633 1.350 . S
C639 H626 0.929 . S
C639 C631 1.433 . S
C639 N641 1.384 . S
N640 C636 1.427 . S
N640 C637 1.384 . S
N641 C633 1.427 . S
N641 C639 1.384 . S
H642 C648 0.930 . S
H643 C652 0.930 . S
H644 C657 0.929 . S
H645 C655 0.929 . S
H646 C650 0.929 . S
H647 C656 0.929 . S
C648 H642 0.930 . S
C648 C649 1.367 . S
C648 C656 1.378 . S
C649 C648 1.367 . S
C649 C657 1.433 . S
C650 H646 0.929 . S
C650 C652 1.378 . S
C650 C654 1.350 . S
C651 C654 1.463 . S
C651 C656 1.350 . S
C651 N659 1.427 . S
C652 H643 0.930 . S
C652 C650 1.378 . S
C652 C653 1.367 . S
C653 C652 1.367 . S
C653 C655 1.433 . S
C654 C650 1.350 . S
C654 C651 1.463 . S
C654 N658 1.427 . S
C655 H645 0.929 . S
C655 C653 1.433 . S
C655 N658 1.384 . S
C656 H647 0.929 . S
C656 C648 1.378 . S
C656 C651 1.350 . S
C657 H644 0.929 . S
C657 C649 1.433 . S
C657 N659 1.384 . S
N658 C654 1.427 . S
N658 C655 1.384 . S
N659 C651 1.427 . S
N659 C657 1.384 . S
H660 C666 0.930 . S
H661 C670 0.930 . S
H662 C675 0.929 . S
H663 C673 0.929 . S
H664 C668 0.929 . S
H665 C674 0.929 . S
C666 H660 0.930 . S
C666 C667 1.367 . S
C666 C674 1.378 . S
C667 C666 1.367 . S
C667 C675 1.433 . S
C668 H664 0.929 . S
C668 C670 1.378 . S
C668 C672 1.350 . S
C669 C672 1.463 1_556 S
C669 C674 1.350 . S
C669 N677 1.427 . S
C670 H661 0.930 . S
C670 C668 1.378 . S
C670 C671 1.367 . S
C671 C670 1.367 . S
C671 C673 1.433 . S
C672 C668 1.350 . S
C672 C669 1.463 1_554 S
C672 N676 1.427 . S
C673 H663 0.929 . S
C673 C671 1.433 . S
C673 N676 1.384 . S
C674 H665 0.929 . S
C674 C666 1.378 . S
C674 C669 1.350 . S
C675 H662 0.929 . S
C675 C667 1.433 . S
C675 N677 1.384 . S
N676 C672 1.427 . S
N676 C673 1.384 . S
N677 C669 1.427 . S
N677 C675 1.384 . S
H678 C684 0.930 . S
H679 C688 0.930 . S
H680 C693 0.929 . S
H681 C691 0.929 . S
H682 C686 0.929 . S
H683 C692 0.929 . S
C684 H678 0.930 . S
C684 C685 1.367 . S
C684 C692 1.378 . S
C685 C684 1.367 . S
C685 C693 1.433 . S
C686 H682 0.929 . S
C686 C688 1.378 . S
C686 C690 1.350 . S
C687 C690 1.463 . S
C687 C692 1.350 . S
C687 N695 1.427 . S
C688 H679 0.930 . S
C688 C686 1.378 . S
C688 C689 1.367 . S
C689 C688 1.367 . S
C689 C691 1.433 . S
C690 C686 1.350 . S
C690 C687 1.463 . S
C690 N694 1.427 . S
C691 H681 0.929 . S
C691 C689 1.433 . S
C691 N694 1.384 . S
C692 H683 0.929 . S
C692 C684 1.378 . S
C692 C687 1.350 . S
C693 H680 0.929 . S
C693 C685 1.433 . S
C693 N695 1.384 . S
N694 C690 1.427 . S
N694 C691 1.384 . S
N695 C687 1.427 . S
N695 C693 1.384 . S
H696 C702 0.930 . S
H697 C706 0.930 . S
H698 C711 0.929 . S
H699 C709 0.929 . S
H700 C704 0.929 . S
H701 C710 0.929 . S
C702 H696 0.930 . S
C702 C703 1.367 . S
C702 C710 1.378 . S
C703 C702 1.367 . S
C703 C711 1.433 . S
C704 H700 0.929 . S
C704 C706 1.378 . S
C704 C708 1.350 . S
C705 C708 1.463 1_556 S
C705 C710 1.350 . S
C705 N713 1.427 . S
C706 H697 0.930 . S
C706 C704 1.378 . S
C706 C707 1.367 . S
C707 C706 1.367 . S
C707 C709 1.433 . S
C708 C704 1.350 . S
C708 C705 1.463 1_554 S
C708 N712 1.427 . S
C709 H699 0.929 . S
C709 C707 1.433 . S
C709 N712 1.384 . S
C710 H701 0.929 . S
C710 C702 1.378 . S
C710 C705 1.350 . S
C711 H698 0.929 . S
C711 C703 1.433 . S
C711 N713 1.384 . S
N712 C708 1.427 . S
N712 C709 1.384 . S
N713 C705 1.427 . S
N713 C711 1.384 . S
H714 C720 0.930 . S
H715 C724 0.930 . S
H716 C729 0.929 . S
H717 C727 0.929 . S
H718 C722 0.929 . S
H719 C728 0.929 . S
C720 H714 0.930 . S
C720 C721 1.367 . S
C720 C728 1.378 . S
C721 C720 1.367 . S
C721 C729 1.433 . S
C722 H718 0.929 . S
C722 C724 1.378 . S
C722 C726 1.350 . S
C723 C726 1.463 . S
C723 C728 1.350 . S
C723 N731 1.427 . S
C724 H715 0.930 . S
C724 C722 1.378 . S
C724 C725 1.367 . S
C725 C724 1.367 . S
C725 C727 1.433 . S
C726 C722 1.350 . S
C726 C723 1.463 . S
C726 N730 1.427 . S
C727 H717 0.929 . S
C727 C725 1.433 . S
C727 N730 1.384 . S
C728 H719 0.929 . S
C728 C720 1.378 . S
C728 C723 1.350 . S
C729 H716 0.929 . S
C729 C721 1.433 . S
C729 N731 1.384 . S
N730 C726 1.427 . S
N730 C727 1.384 . S
N731 C723 1.427 . S
N731 C729 1.384 . S
H732 C738 0.930 . S
H733 C742 0.930 . S
H734 C747 0.929 . S
H735 C745 0.929 . S
H736 C740 0.929 . S
H737 C746 0.929 . S
C738 H732 0.930 . S
C738 C739 1.367 . S
C738 C746 1.378 . S
C739 C738 1.367 . S
C739 C747 1.433 . S
C740 H736 0.929 . S
C740 C742 1.378 . S
C740 C744 1.350 . S
C741 C744 1.463 . S
C741 C746 1.350 . S
C741 N749 1.427 . S
C742 H733 0.930 . S
C742 C740 1.378 . S
C742 C743 1.367 . S
C743 C742 1.367 . S
C743 C745 1.433 . S
C744 C740 1.350 . S
C744 C741 1.463 . S
C744 N748 1.427 . S
C745 H735 0.929 . S
C745 C743 1.433 . S
C745 N748 1.384 . S
C746 H737 0.929 . S
C746 C738 1.378 . S
C746 C741 1.350 . S
C747 H734 0.929 . S
C747 C739 1.433 . S
C747 N749 1.384 . S
N748 C744 1.427 . S
N748 C745 1.384 . S
N749 C741 1.427 . S
N749 C747 1.384 . S
H750 C756 0.930 . S
H751 C760 0.930 . S
H752 C765 0.929 . S
H753 C763 0.929 . S
H754 C758 0.929 . S
H755 C764 0.929 . S
C756 H750 0.930 . S
C756 C757 1.367 . S
C756 C764 1.378 . S
C757 C756 1.367 . S
C757 C765 1.433 . S
C758 H754 0.929 . S
C758 C760 1.378 . S
C758 C762 1.350 . S
C759 C762 1.463 . S
C759 C764 1.350 . S
C759 N767 1.427 . S
C760 H751 0.930 . S
C760 C758 1.378 . S
C760 C761 1.367 . S
C761 C760 1.367 . S
C761 C763 1.433 . S
C762 C758 1.350 . S
C762 C759 1.463 . S
C762 N766 1.427 . S
C763 H753 0.929 . S
C763 C761 1.433 . S
C763 N766 1.384 . S
C764 H755 0.929 . S
C764 C756 1.378 . S
C764 C759 1.350 . S
C765 H752 0.929 . S
C765 C757 1.433 . S
C765 N767 1.384 . S
N766 C762 1.427 . S
N766 C763 1.384 . S
N767 C759 1.427 . S
N767 C765 1.384 . S
H768 C774 0.930 . S
H769 C778 0.930 . S
H770 C783 0.929 . S
H771 C781 0.929 . S
H772 C776 0.929 . S
H773 C782 0.929 . S
C774 H768 0.930 . S
C774 C775 1.367 . S
C774 C782 1.378 . S
C775 C774 1.367 . S
C775 C783 1.433 . S
C776 H772 0.929 . S
C776 C778 1.378 . S
C776 C780 1.350 . S
C777 C780 1.463 . S
C777 C782 1.350 . S
C777 N785 1.427 . S
C778 H769 0.930 . S
C778 C776 1.378 . S
C778 C779 1.367 . S
C779 C778 1.367 . S
C779 C781 1.433 . S
C780 C776 1.350 . S
C780 C777 1.463 . S
C780 N784 1.427 . S
C781 H771 0.929 . S
C781 C779 1.433 . S
C781 N784 1.384 . S
C782 H773 0.929 . S
C782 C774 1.378 . S
C782 C777 1.350 . S
C783 H770 0.929 . S
C783 C775 1.433 . S
C783 N785 1.384 . S
N784 C780 1.427 . S
N784 C781 1.384 . S
N785 C777 1.427 . S
N785 C783 1.384 . S
H786 C792 0.930 . S
H787 C796 0.930 . S
H788 C801 0.929 . S
H789 C799 0.929 . S
H790 C794 0.929 . S
H791 C800 0.929 . S
C792 H786 0.930 . S
C792 C793 1.367 . S
C792 C800 1.378 . S
C793 C792 1.367 . S
C793 C801 1.433 . S
C794 H790 0.929 . S
C794 C796 1.378 . S
C794 C798 1.350 . S
C795 C798 1.463 . S
C795 C800 1.350 . S
C795 N803 1.427 . S
C796 H787 0.930 . S
C796 C794 1.378 . S
C796 C797 1.367 . S
C797 C796 1.367 . S
C797 C799 1.433 . S
C798 C794 1.350 . S
C798 C795 1.463 . S
C798 N802 1.427 . S
C799 H789 0.929 . S
C799 C797 1.433 . S
C799 N802 1.384 . S
C800 H791 0.929 . S
C800 C792 1.378 . S
C800 C795 1.350 . S
C801 H788 0.929 . S
C801 C793 1.433 . S
C801 N803 1.384 . S
N802 C798 1.427 . S
N802 C799 1.384 . S
N803 C795 1.427 . S
N803 C801 1.384 . S
H804 C810 0.930 . S
H805 C814 0.930 . S
H806 C819 0.929 . S
H807 C817 0.929 . S
H808 C812 0.929 . S
H809 C818 0.929 . S
C810 H804 0.930 . S
C810 C811 1.367 . S
C810 C818 1.378 . S
C811 C810 1.367 . S
C811 C819 1.433 . S
C812 H808 0.929 . S
C812 C814 1.378 . S
C812 C816 1.350 . S
C813 C816 1.463 . S
C813 C818 1.350 . S
C813 N821 1.427 . S
C814 H805 0.930 . S
C814 C812 1.378 . S
C814 C815 1.367 . S
C815 C814 1.367 . S
C815 C817 1.433 . S
C816 C812 1.350 . S
C816 C813 1.463 . S
C816 N820 1.427 . S
C817 H807 0.929 . S
C817 C815 1.433 . S
C817 N820 1.384 . S
C818 H809 0.929 . S
C818 C810 1.378 . S
C818 C813 1.350 . S
C819 H806 0.929 . S
C819 C811 1.433 . S
C819 N821 1.384 . S
N820 C816 1.427 . S
N820 C817 1.384 . S
N821 C813 1.427 . S
N821 C819 1.384 . S
H822 C828 0.930 . S
H823 C832 0.930 . S
H824 C837 0.929 . S
H825 C835 0.929 . S
H826 C830 0.929 . S
H827 C836 0.929 . S
C828 H822 0.930 . S
C828 C829 1.367 . S
C828 C836 1.378 . S
C829 C828 1.367 . S
C829 C837 1.433 . S
C830 H826 0.929 . S
C830 C832 1.378 . S
C830 C834 1.350 . S
C831 C834 1.463 . S
C831 C836 1.350 . S
C831 N839 1.427 . S
C832 H823 0.930 . S
C832 C830 1.378 . S
C832 C833 1.367 . S
C833 C832 1.367 . S
C833 C835 1.433 . S
C834 C830 1.350 . S
C834 C831 1.463 . S
C834 N838 1.427 . S
C835 H825 0.929 . S
C835 C833 1.433 . S
C835 N838 1.384 . S
C836 H827 0.929 . S
C836 C828 1.378 . S
C836 C831 1.350 . S
C837 H824 0.929 . S
C837 C829 1.433 . S
C837 N839 1.384 . S
N838 C834 1.427 . S
N838 C835 1.384 . S
N839 C831 1.427 . S
N839 C837 1.384 . S
H840 C846 0.930 . S
H841 C850 0.930 . S
H842 C855 0.929 . S
H843 C853 0.929 . S
H844 C848 0.929 . S
H845 C854 0.929 . S
C846 H840 0.930 . S
C846 C847 1.367 . S
C846 C854 1.378 . S
C847 C846 1.367 . S
C847 C855 1.433 . S
C848 H844 0.929 . S
C848 C850 1.378 . S
C848 C852 1.350 . S
C849 C852 1.463 . S
C849 C854 1.350 . S
C849 N857 1.427 . S
C850 H841 0.930 . S
C850 C848 1.378 . S
C850 C851 1.367 . S
C851 C850 1.367 . S
C851 C853 1.433 . S
C852 C848 1.350 . S
C852 C849 1.463 . S
C852 N856 1.427 . S
C853 H843 0.929 . S
C853 C851 1.433 . S
C853 N856 1.384 . S
C854 H845 0.929 . S
C854 C846 1.378 . S
C854 C849 1.350 . S
C855 H842 0.929 . S
C855 C847 1.433 . S
C855 N857 1.384 . S
N856 C852 1.427 . S
N856 C853 1.384 . S
N857 C849 1.427 . S
N857 C855 1.384 . S
H858 C864 0.930 . S
H859 C868 0.930 . S
H860 C873 0.929 . S
H861 C871 0.929 . S
H862 C866 0.929 . S
H863 C872 0.929 . S
C864 H858 0.930 . S
C864 C865 1.367 . S
C864 C872 1.378 . S
C865 C864 1.367 . S
C865 C873 1.433 . S
C866 H862 0.929 . S
C866 C868 1.378 . S
C866 C870 1.350 . S
C867 C870 1.463 . S
C867 C872 1.350 . S
C867 N875 1.427 . S
C868 H859 0.930 . S
C868 C866 1.378 . S
C868 C869 1.367 . S
C869 C868 1.367 . S
C869 C871 1.433 . S
C870 C866 1.350 . S
C870 C867 1.463 . S
C870 N874 1.427 . S
C871 H861 0.929 . S
C871 C869 1.433 . S
C871 N874 1.384 . S
C872 H863 0.929 . S
C872 C864 1.378 . S
C872 C867 1.350 . S
C873 H860 0.929 . S
C873 C865 1.433 . S
C873 N875 1.384 . S
N874 C870 1.427 . S
N874 C871 1.384 . S
N875 C867 1.427 . S
N875 C873 1.384 . S
H876 C882 0.930 . S
H877 C886 0.930 . S
H878 C891 0.929 . S
H879 C889 0.929 . S
H880 C884 0.929 . S
H881 C890 0.929 . S
C882 H876 0.930 . S
C882 C883 1.367 . S
C882 C890 1.378 . S
C883 C882 1.367 . S
C883 C891 1.433 . S
C884 H880 0.929 . S
C884 C886 1.378 . S
C884 C888 1.350 . S
C885 C888 1.463 . S
C885 C890 1.350 . S
C885 N893 1.427 . S
C886 H877 0.930 . S
C886 C884 1.378 . S
C886 C887 1.367 . S
C887 C886 1.367 . S
C887 C889 1.433 . S
C888 C884 1.350 . S
C888 C885 1.463 . S
C888 N892 1.427 . S
C889 H879 0.929 . S
C889 C887 1.433 . S
C889 N892 1.384 . S
C890 H881 0.929 . S
C890 C882 1.378 . S
C890 C885 1.350 . S
C891 H878 0.929 . S
C891 C883 1.433 . S
C891 N893 1.384 . S
N892 C888 1.427 . S
N892 C889 1.384 . S
N893 C885 1.427 . S
N893 C891 1.384 . S
H894 C900 0.930 . S
H895 C904 0.930 . S
H896 C909 0.929 . S
H897 C907 0.929 . S
H898 C902 0.929 . S
H899 C908 0.929 . S
C900 H894 0.930 . S
C900 C901 1.367 . S
C900 C908 1.378 . S
C901 C900 1.367 . S
C901 C909 1.433 . S
C902 H898 0.929 . S
C902 C904 1.378 . S
C902 C906 1.350 . S
C903 C906 1.463 . S
C903 C908 1.350 . S
C903 N911 1.427 . S
C904 H895 0.930 . S
C904 C902 1.378 . S
C904 C905 1.367 . S
C905 C904 1.367 . S
C905 C907 1.433 . S
C906 C902 1.350 . S
C906 C903 1.463 . S
C906 N910 1.427 . S
C907 H897 0.929 . S
C907 C905 1.433 . S
C907 N910 1.384 . S
C908 H899 0.929 . S
C908 C900 1.378 . S
C908 C903 1.350 . S
C909 H896 0.929 . S
C909 C901 1.433 . S
C909 N911 1.384 . S
N910 C906 1.427 . S
N910 C907 1.384 . S
N911 C903 1.427 . S
N911 C909 1.384 . S
H912 C918 0.930 . S
H913 C922 0.930 . S
H914 C927 0.929 . S
H915 C925 0.929 . S
H916 C920 0.929 . S
H917 C926 0.929 . S
C918 H912 0.930 . S
C918 C919 1.367 . S
C918 C926 1.378 . S
C919 C918 1.367 . S
C919 C927 1.433 . S
C920 H916 0.929 . S
C920 C922 1.378 . S
C920 C924 1.350 . S
C921 C924 1.463 . S
C921 C926 1.350 . S
C921 N929 1.427 . S
C922 H913 0.930 . S
C922 C920 1.378 . S
C922 C923 1.367 . S
C923 C922 1.367 . S
C923 C925 1.433 . S
C924 C920 1.350 . S
C924 C921 1.463 . S
C924 N928 1.427 . S
C925 H915 0.929 . S
C925 C923 1.433 . S
C925 N928 1.384 . S
C926 H917 0.929 . S
C926 C918 1.378 . S
C926 C921 1.350 . S
C927 H914 0.929 . S
C927 C919 1.433 . S
C927 N929 1.384 . S
N928 C924 1.427 . S
N928 C925 1.384 . S
N929 C921 1.427 . S
N929 C927 1.384 . S
H930 C936 0.930 . S
H931 C940 0.930 . S
H932 C945 0.929 . S
H933 C943 0.929 . S
H934 C938 0.929 . S
H935 C944 0.929 . S
C936 H930 0.930 . S
C936 C937 1.367 . S
C936 C944 1.378 . S
C937 C936 1.367 . S
C937 C945 1.433 . S
C938 H934 0.929 . S
C938 C940 1.378 . S
C938 C942 1.350 . S
C939 C942 1.463 . S
C939 C944 1.350 . S
C939 N947 1.427 . S
C940 H931 0.930 . S
C940 C938 1.378 . S
C940 C941 1.367 . S
C941 C940 1.367 . S
C941 C943 1.433 . S
C942 C938 1.350 . S
C942 C939 1.463 . S
C942 N946 1.427 . S
C943 H933 0.929 . S
C943 C941 1.433 . S
C943 N946 1.384 . S
C944 H935 0.929 . S
C944 C936 1.378 . S
C944 C939 1.350 . S
C945 H932 0.929 . S
C945 C937 1.433 . S
C945 N947 1.384 . S
N946 C942 1.427 . S
N946 C943 1.384 . S
N947 C939 1.427 . S
N947 C945 1.384 . S
C415 C315 1.647 . S
C419 C9 1.636 . S
C433 C43 1.641 . S
C437 C349 1.640 . S
C451 C383 1.639 . S
C455 C77 1.653 . S
C469 C111 1.653 . S
C473 C213 1.638 . S
C487 C145 1.650 . S
C491 C247 1.644 . S
C505 C281 1.644 . S
C509 C179 1.650 . S
C523 C342 1.370 . S
C527 C2 1.375 . S
C541 C376 1.377 . S
C545 C36 1.370 . S
C559 C70 1.369 . S
C563 C206 1.375 . S
C577 C240 1.375 . S
C581 C104 1.370 . S
C595 C274 1.369 . S
C599 C138 1.377 . S
C613 C172 1.369 . S
C617 C308 1.377 . S
C631 C258 1.504 . S
C635 C122 1.511 . S
C649 C292 1.506 . S
C653 C156 1.511 . S
C667 C190 1.511 . S
C671 C326 1.504 . S
C685 C20 1.505 . S
C689 C360 1.511 . S
C703 C54 1.510 . S
C707 C394 1.507 . S
C721 C224 1.510 . S
C725 C88 1.507 . S
C739 C5 1.468 . S
C743 C169 1.481 . S
C757 C39 1.461 . S
C761 C203 1.477 . S
C775 C73 1.462 . S
C779 C33 1.477 . S
C793 C67 1.482 . S
C797 C107 1.469 . S
C811 C141 1.465 . S
C815 C101 1.479 . S
C829 C135 1.478 . S
C833 C175 1.464 . S
C847 C305 1.478 . S
C851 C209 1.464 . S
C865 C339 1.480 . S
C869 C243 1.467 . S
C883 C373 1.477 . S
C887 C277 1.459 . S
C901 C311 1.465 . S
C905 C407 1.482 . S
C919 C237 1.477 . S
C923 C345 1.460 . S
C937 C379 1.464 . S
C941 C271 1.482 . S
