# Generated by pormake.
# Topology nfb, (4)-cn, num edge types: 1
# Building blocks:
#     Node 0, Type 0, BuildingBlock: NAHDIM_clean_sbu_0, # of connection points: 4
#     Node 1, Type 0, BuildingBlock: NAHDIM_clean_sbu_0, # of connection points: 4
#     Node 2, Type 0, BuildingBlock: NAHDIM_clean_sbu_0, # of connection points: 4
#     Node 3, Type 0, BuildingBlock: NAHDIM_clean_sbu_0, # of connection points: 4
#     Node 4, Type 0, BuildingBlock: NAHDIM_clean_sbu_0, # of connection points: 4
#     Node 5, Type 0, BuildingBlock: NAHDIM_clean_sbu_0, # of connection points: 4
#     Node 6, Type 0, BuildingBlock: NAHDIM_clean_sbu_0, # of connection points: 4
#     Node 7, Type 0, BuildingBlock: NAHDIM_clean_sbu_0, # of connection points: 4
#     Node 8, Type 0, BuildingBlock: NAHDIM_clean_sbu_0, # of connection points: 4
#     Node 9, Type 0, BuildingBlock: NAHDIM_clean_sbu_0, # of connection points: 4
#     Node 10, Type 0, BuildingBlock: NAHDIM_clean_sbu_0, # of connection points: 4
#     Node 11, Type 0, BuildingBlock: NAHDIM_clean_sbu_0, # of connection points: 4
#     Node 12, Type 0, BuildingBlock: NAHDIM_clean_sbu_0, # of connection points: 4
#     Node 13, Type 0, BuildingBlock: NAHDIM_clean_sbu_0, # of connection points: 4
#     Node 14, Type 0, BuildingBlock: NAHDIM_clean_sbu_0, # of connection points: 4
#     Node 15, Type 0, BuildingBlock: NAHDIM_clean_sbu_0, # of connection points: 4
#     Node 16, Type 0, BuildingBlock: NAHDIM_clean_sbu_0, # of connection points: 4
#     Node 17, Type 0, BuildingBlock: NAHDIM_clean_sbu_0, # of connection points: 4
#     Node 18, Type 0, BuildingBlock: NAHDIM_clean_sbu_0, # of connection points: 4
#     Node 19, Type 0, BuildingBlock: NAHDIM_clean_sbu_0, # of connection points: 4
#     Node 20, Type 0, BuildingBlock: NAHDIM_clean_sbu_0, # of connection points: 4
#     Node 21, Type 0, BuildingBlock: NAHDIM_clean_sbu_0, # of connection points: 4
#     Node 22, Type 0, BuildingBlock: NAHDIM_clean_sbu_0, # of connection points: 4
#     Node 23, Type 0, BuildingBlock: NAHDIM_clean_sbu_0, # of connection points: 4
#     Node 24, Type 0, BuildingBlock: NAHDIM_clean_sbu_0, # of connection points: 4
#     Node 25, Type 0, BuildingBlock: NAHDIM_clean_sbu_0, # of connection points: 4
#     Node 26, Type 0, BuildingBlock: NAHDIM_clean_sbu_0, # of connection points: 4
#     Node 27, Type 0, BuildingBlock: NAHDIM_clean_sbu_0, # of connection points: 4
#     Node 28, Type 0, BuildingBlock: NAHDIM_clean_sbu_0, # of connection points: 4
#     Node 29, Type 0, BuildingBlock: NAHDIM_clean_sbu_0, # of connection points: 4
#     Node 30, Type 0, BuildingBlock: NAHDIM_clean_sbu_0, # of connection points: 4
#     Node 31, Type 0, BuildingBlock: NAHDIM_clean_sbu_0, # of connection points: 4
#     Node 32, Type 0, BuildingBlock: NAHDIM_clean_sbu_0, # of connection points: 4
#     Node 33, Type 0, BuildingBlock: NAHDIM_clean_sbu_0, # of connection points: 4
#     Node 34, Type 0, BuildingBlock: NAHDIM_clean_sbu_0, # of connection points: 4
#     Node 35, Type 0, BuildingBlock: NAHDIM_clean_sbu_0, # of connection points: 4
#     Node 36, Type 0, BuildingBlock: NAHDIM_clean_sbu_0, # of connection points: 4
#     Node 37, Type 0, BuildingBlock: NAHDIM_clean_sbu_0, # of connection points: 4
#     Node 38, Type 0, BuildingBlock: NAHDIM_clean_sbu_0, # of connection points: 4
#     Node 39, Type 0, BuildingBlock: NAHDIM_clean_sbu_0, # of connection points: 4
#     Node 40, Type 0, BuildingBlock: NAHDIM_clean_sbu_0, # of connection points: 4
#     Node 41, Type 0, BuildingBlock: NAHDIM_clean_sbu_0, # of connection points: 4
#     Node 42, Type 0, BuildingBlock: NAHDIM_clean_sbu_0, # of connection points: 4
#     Node 43, Type 0, BuildingBlock: NAHDIM_clean_sbu_0, # of connection points: 4
#     Node 44, Type 0, BuildingBlock: NAHDIM_clean_sbu_0, # of connection points: 4
#     Node 45, Type 0, BuildingBlock: NAHDIM_clean_sbu_0, # of connection points: 4
#     Node 46, Type 0, BuildingBlock: NAHDIM_clean_sbu_0, # of connection points: 4
#     Node 47, Type 0, BuildingBlock: NAHDIM_clean_sbu_0, # of connection points: 4
#     Edge 48, Type (0, 0), BuildingBlock: UVAHIK_clean_linker_0, # of connection points: 2
#     Edge 49, Type (0, 0), BuildingBlock: UVAHIK_clean_linker_0, # of connection points: 2
#     Edge 50, Type (0, 0), BuildingBlock: UVAHIK_clean_linker_0, # of connection points: 2
#     Edge 51, Type (0, 0), BuildingBlock: UVAHIK_clean_linker_0, # of connection points: 2
#     Edge 52, Type (0, 0), BuildingBlock: UVAHIK_clean_linker_0, # of connection points: 2
#     Edge 53, Type (0, 0), BuildingBlock: UVAHIK_clean_linker_0, # of connection points: 2
#     Edge 54, Type (0, 0), BuildingBlock: UVAHIK_clean_linker_0, # of connection points: 2
#     Edge 55, Type (0, 0), BuildingBlock: UVAHIK_clean_linker_0, # of connection points: 2
#     Edge 56, Type (0, 0), BuildingBlock: UVAHIK_clean_linker_0, # of connection points: 2
#     Edge 57, Type (0, 0), BuildingBlock: UVAHIK_clean_linker_0, # of connection points: 2
#     Edge 58, Type (0, 0), BuildingBlock: UVAHIK_clean_linker_0, # of connection points: 2
#     Edge 59, Type (0, 0), BuildingBlock: UVAHIK_clean_linker_0, # of connection points: 2
#     Edge 60, Type (0, 0), BuildingBlock: UVAHIK_clean_linker_0, # of connection points: 2
#     Edge 61, Type (0, 0), BuildingBlock: UVAHIK_clean_linker_0, # of connection points: 2
#     Edge 62, Type (0, 0), BuildingBlock: UVAHIK_clean_linker_0, # of connection points: 2
#     Edge 63, Type (0, 0), BuildingBlock: UVAHIK_clean_linker_0, # of connection points: 2
#     Edge 64, Type (0, 0), BuildingBlock: UVAHIK_clean_linker_0, # of connection points: 2
#     Edge 65, Type (0, 0), BuildingBlock: UVAHIK_clean_linker_0, # of connection points: 2
#     Edge 66, Type (0, 0), BuildingBlock: UVAHIK_clean_linker_0, # of connection points: 2
#     Edge 67, Type (0, 0), BuildingBlock: UVAHIK_clean_linker_0, # of connection points: 2
#     Edge 68, Type (0, 0), BuildingBlock: UVAHIK_clean_linker_0, # of connection points: 2
#     Edge 69, Type (0, 0), BuildingBlock: UVAHIK_clean_linker_0, # of connection points: 2
#     Edge 70, Type (0, 0), BuildingBlock: UVAHIK_clean_linker_0, # of connection points: 2
#     Edge 71, Type (0, 0), BuildingBlock: UVAHIK_clean_linker_0, # of connection points: 2
#     Edge 72, Type (0, 0), BuildingBlock: UVAHIK_clean_linker_0, # of connection points: 2
#     Edge 73, Type (0, 0), BuildingBlock: UVAHIK_clean_linker_0, # of connection points: 2
#     Edge 74, Type (0, 0), BuildingBlock: UVAHIK_clean_linker_0, # of connection points: 2
#     Edge 75, Type (0, 0), BuildingBlock: UVAHIK_clean_linker_0, # of connection points: 2
#     Edge 76, Type (0, 0), BuildingBlock: UVAHIK_clean_linker_0, # of connection points: 2
#     Edge 77, Type (0, 0), BuildingBlock: UVAHIK_clean_linker_0, # of connection points: 2
#     Edge 78, Type (0, 0), BuildingBlock: UVAHIK_clean_linker_0, # of connection points: 2
#     Edge 79, Type (0, 0), BuildingBlock: UVAHIK_clean_linker_0, # of connection points: 2
#     Edge 80, Type (0, 0), BuildingBlock: UVAHIK_clean_linker_0, # of connection points: 2
#     Edge 81, Type (0, 0), BuildingBlock: UVAHIK_clean_linker_0, # of connection points: 2
#     Edge 82, Type (0, 0), BuildingBlock: UVAHIK_clean_linker_0, # of connection points: 2
#     Edge 83, Type (0, 0), BuildingBlock: UVAHIK_clean_linker_0, # of connection points: 2
#     Edge 84, Type (0, 0), BuildingBlock: UVAHIK_clean_linker_0, # of connection points: 2
#     Edge 85, Type (0, 0), BuildingBlock: UVAHIK_clean_linker_0, # of connection points: 2
#     Edge 86, Type (0, 0), BuildingBlock: UVAHIK_clean_linker_0, # of connection points: 2
#     Edge 87, Type (0, 0), BuildingBlock: UVAHIK_clean_linker_0, # of connection points: 2
#     Edge 88, Type (0, 0), BuildingBlock: UVAHIK_clean_linker_0, # of connection points: 2
#     Edge 89, Type (0, 0), BuildingBlock: UVAHIK_clean_linker_0, # of connection points: 2
#     Edge 90, Type (0, 0), BuildingBlock: UVAHIK_clean_linker_0, # of connection points: 2
#     Edge 91, Type (0, 0), BuildingBlock: UVAHIK_clean_linker_0, # of connection points: 2
#     Edge 92, Type (0, 0), BuildingBlock: UVAHIK_clean_linker_0, # of connection points: 2
#     Edge 93, Type (0, 0), BuildingBlock: UVAHIK_clean_linker_0, # of connection points: 2
#     Edge 94, Type (0, 0), BuildingBlock: UVAHIK_clean_linker_0, # of connection points: 2
#     Edge 95, Type (0, 0), BuildingBlock: UVAHIK_clean_linker_0, # of connection points: 2
#     Edge 96, Type (0, 0), BuildingBlock: UVAHIK_clean_linker_0, # of connection points: 2
#     Edge 97, Type (0, 0), BuildingBlock: UVAHIK_clean_linker_0, # of connection points: 2
#     Edge 98, Type (0, 0), BuildingBlock: UVAHIK_clean_linker_0, # of connection points: 2
#     Edge 99, Type (0, 0), BuildingBlock: UVAHIK_clean_linker_0, # of connection points: 2
#     Edge 100, Type (0, 0), BuildingBlock: UVAHIK_clean_linker_0, # of connection points: 2
#     Edge 101, Type (0, 0), BuildingBlock: UVAHIK_clean_linker_0, # of connection points: 2
#     Edge 102, Type (0, 0), BuildingBlock: UVAHIK_clean_linker_0, # of connection points: 2
#     Edge 103, Type (0, 0), BuildingBlock: UVAHIK_clean_linker_0, # of connection points: 2
#     Edge 104, Type (0, 0), BuildingBlock: UVAHIK_clean_linker_0, # of connection points: 2
#     Edge 105, Type (0, 0), BuildingBlock: UVAHIK_clean_linker_0, # of connection points: 2
#     Edge 106, Type (0, 0), BuildingBlock: UVAHIK_clean_linker_0, # of connection points: 2
#     Edge 107, Type (0, 0), BuildingBlock: UVAHIK_clean_linker_0, # of connection points: 2
#     Edge 108, Type (0, 0), BuildingBlock: UVAHIK_clean_linker_0, # of connection points: 2
#     Edge 109, Type (0, 0), BuildingBlock: UVAHIK_clean_linker_0, # of connection points: 2
#     Edge 110, Type (0, 0), BuildingBlock: UVAHIK_clean_linker_0, # of connection points: 2
#     Edge 111, Type (0, 0), BuildingBlock: UVAHIK_clean_linker_0, # of connection points: 2
#     Edge 112, Type (0, 0), BuildingBlock: UVAHIK_clean_linker_0, # of connection points: 2
#     Edge 113, Type (0, 0), BuildingBlock: UVAHIK_clean_linker_0, # of connection points: 2
#     Edge 114, Type (0, 0), BuildingBlock: UVAHIK_clean_linker_0, # of connection points: 2
#     Edge 115, Type (0, 0), BuildingBlock: UVAHIK_clean_linker_0, # of connection points: 2
#     Edge 116, Type (0, 0), BuildingBlock: UVAHIK_clean_linker_0, # of connection points: 2
#     Edge 117, Type (0, 0), BuildingBlock: UVAHIK_clean_linker_0, # of connection points: 2
#     Edge 118, Type (0, 0), BuildingBlock: UVAHIK_clean_linker_0, # of connection points: 2
#     Edge 119, Type (0, 0), BuildingBlock: UVAHIK_clean_linker_0, # of connection points: 2
#     Edge 120, Type (0, 0), BuildingBlock: UVAHIK_clean_linker_0, # of connection points: 2
#     Edge 121, Type (0, 0), BuildingBlock: UVAHIK_clean_linker_0, # of connection points: 2
#     Edge 122, Type (0, 0), BuildingBlock: UVAHIK_clean_linker_0, # of connection points: 2
#     Edge 123, Type (0, 0), BuildingBlock: UVAHIK_clean_linker_0, # of connection points: 2
#     Edge 124, Type (0, 0), BuildingBlock: UVAHIK_clean_linker_0, # of connection points: 2
#     Edge 125, Type (0, 0), BuildingBlock: UVAHIK_clean_linker_0, # of connection points: 2
#     Edge 126, Type (0, 0), BuildingBlock: UVAHIK_clean_linker_0, # of connection points: 2
#     Edge 127, Type (0, 0), BuildingBlock: UVAHIK_clean_linker_0, # of connection points: 2
#     Edge 128, Type (0, 0), BuildingBlock: UVAHIK_clean_linker_0, # of connection points: 2
#     Edge 129, Type (0, 0), BuildingBlock: UVAHIK_clean_linker_0, # of connection points: 2
#     Edge 130, Type (0, 0), BuildingBlock: UVAHIK_clean_linker_0, # of connection points: 2
#     Edge 131, Type (0, 0), BuildingBlock: UVAHIK_clean_linker_0, # of connection points: 2
#     Edge 132, Type (0, 0), BuildingBlock: UVAHIK_clean_linker_0, # of connection points: 2
#     Edge 133, Type (0, 0), BuildingBlock: UVAHIK_clean_linker_0, # of connection points: 2
#     Edge 134, Type (0, 0), BuildingBlock: UVAHIK_clean_linker_0, # of connection points: 2
#     Edge 135, Type (0, 0), BuildingBlock: UVAHIK_clean_linker_0, # of connection points: 2
#     Edge 136, Type (0, 0), BuildingBlock: UVAHIK_clean_linker_0, # of connection points: 2
#     Edge 137, Type (0, 0), BuildingBlock: UVAHIK_clean_linker_0, # of connection points: 2
#     Edge 138, Type (0, 0), BuildingBlock: UVAHIK_clean_linker_0, # of connection points: 2
#     Edge 139, Type (0, 0), BuildingBlock: UVAHIK_clean_linker_0, # of connection points: 2
#     Edge 140, Type (0, 0), BuildingBlock: UVAHIK_clean_linker_0, # of connection points: 2
#     Edge 141, Type (0, 0), BuildingBlock: UVAHIK_clean_linker_0, # of connection points: 2
#     Edge 142, Type (0, 0), BuildingBlock: UVAHIK_clean_linker_0, # of connection points: 2
#     Edge 143, Type (0, 0), BuildingBlock: UVAHIK_clean_linker_0, # of connection points: 2
# Relax obj value: 0.316
# Max RMSD: 0.203
# Mean RMSD: 0.171
data_MOF--net-nfb--node1-NAHDIM_clean_sbu_0--edge1-UVAHIK_clean_linker_0
_symmetry_space_group_name_H-M    P1
_symmetry_Int_Tables_number       1
_symmetry_cell_setting            triclinic
loop_
_symmetry_equiv_pos_as_xyz
'x, y, z'
_cell_length_a     75.997029
_cell_length_b     76.013807
_cell_length_c     76.070032
_cell_angle_alpha  90.208741
_cell_angle_beta   90.087571
_cell_angle_gamma 90.217327
loop_
_atom_site_label
_atom_site_type_symbol
_atom_site_fract_x
_atom_site_fract_y
_atom_site_fract_z
_atom_type_partial_charge
C0 C 0.15407 0.11056 0.37603 0.0
O1 O 0.14613 0.10081 0.38786 0.0
O2 O 0.11785 0.12249 0.40073 0.0
Zn3 Zn 0.12014 0.12772 0.37495 0.0
O4 O 0.11774 0.15388 0.37258 0.0
C5 C 0.09228 0.1026 0.36836 0.0
O6 O 0.09997 0.0944 0.38144 0.0
O7 O 0.14504 0.12164 0.36737 0.0
C8 C 0.10574 0.16191 0.38095 0.0
O9 O 0.09459 0.15279 0.39049 0.0
C10 C 0.12769 0.13067 0.41152 0.0
O11 O 0.13916 0.14213 0.40549 0.0
O12 O 0.09955 0.11635 0.36215 0.0
C13 C 0.40588 0.59047 0.86168 0.0
O14 O 0.41481 0.59514 0.87575 0.0
O15 O 0.3592 0.62165 0.87056 0.0
Zn16 Zn 0.38564 0.62114 0.87116 0.0
O17 O 0.39264 0.61694 0.89636 0.0
C18 C 0.38534 0.65508 0.85363 0.0
O19 O 0.37323 0.64761 0.84375 0.0
O20 O 0.39372 0.60054 0.85617 0.0
C21 C 0.39298 0.62978 0.90709 0.0
O22 O 0.38931 0.64562 0.90138 0.0
C23 C 0.34997 0.61425 0.88235 0.0
O24 O 0.35781 0.60535 0.89486 0.0
O25 O 0.39378 0.64571 0.86459 0.0
C26 C 0.84692 0.88765 0.37286 0.0
O27 O 0.85366 0.89376 0.38758 0.0
O28 O 0.88553 0.87795 0.39451 0.0
Zn29 Zn 0.88205 0.87348 0.36874 0.0
O30 O 0.88352 0.84726 0.36573 0.0
C31 C 0.91128 0.8784 0.34408 0.0
O32 O 0.90545 0.86363 0.33716 0.0
O33 O 0.85705 0.88016 0.36182 0.0
C34 C 0.87651 0.83939 0.35271 0.0
O35 O 0.86889 0.84865 0.34032 0.0
C36 C 0.89965 0.87287 0.40182 0.0
O37 O 0.91166 0.86494 0.39227 0.0
O38 O 0.90254 0.88559 0.35641 0.0
C39 C 0.60705 0.41047 0.87154 0.0
O40 O 0.6148 0.40798 0.88678 0.0
O41 O 0.6391 0.37685 0.87455 0.0
Zn42 Zn 0.61275 0.37487 0.87386 0.0
O43 O 0.60462 0.37492 0.89914 0.0
C44 C 0.61795 0.34255 0.85427 0.0
O45 O 0.6317 0.35109 0.84819 0.0
O46 O 0.60375 0.39707 0.86194 0.0
C47 C 0.60065 0.36089 0.90729 0.0
O48 O 0.60099 0.34579 0.89887 0.0
C49 C 0.64809 0.36624 0.88375 0.0
O50 O 0.63994 0.35403 0.89284 0.0
O51 O 0.60667 0.35092 0.86336 0.0
C52 C 0.09674 0.88272 0.65051 0.0
O53 O 0.10264 0.86676 0.65337 0.0
O54 O 0.12406 0.85731 0.62401 0.0
Zn55 Zn 0.12582 0.88361 0.62592 0.0
O56 O 0.12253 0.89293 0.60151 0.0
C57 C 0.15946 0.87781 0.64225 0.0
O58 O 0.15095 0.86427 0.64882 0.0
O59 O 0.10554 0.89291 0.64058 0.0
C60 C 0.13495 0.89214 0.59039 0.0
O61 O 0.15024 0.88578 0.59527 0.0
C62 C 0.11422 0.84946 0.61296 0.0
O63 O 0.10413 0.85876 0.6025 0.0
O64 O 0.15086 0.88924 0.63361 0.0
C65 C 0.62908 0.66011 0.1406 0.0
O66 O 0.64372 0.65354 0.14695 0.0
O67 O 0.61873 0.62135 0.10131 0.0
Zn68 Zn 0.6253 0.6248 0.1266 0.0
O69 O 0.65171 0.62324 0.12744 0.0
C70 C 0.60064 0.59704 0.13526 0.0
O71 O 0.59139 0.6046 0.12281 0.0
O72 O 0.61817 0.64982 0.13301 0.0
C73 C 0.66024 0.61458 0.13887 0.0
O74 O 0.65163 0.60592 0.15107 0.0
C75 C 0.62338 0.60753 0.09315 0.0
O76 O 0.63228 0.5954 0.10158 0.0
O77 O 0.61483 0.6044 0.14039 0.0
C78 C 0.90676 0.09433 0.64286 0.0
O79 O 0.90238 0.08757 0.62754 0.0
O80 O 0.8768 0.14025 0.63766 0.0
Zn81 Zn 0.87452 0.11391 0.63748 0.0
O82 O 0.87527 0.10657 0.61191 0.0
C83 C 0.8417 0.1191 0.65631 0.0
O84 O 0.85018 0.13272 0.66287 0.0
O85 O 0.89602 0.10465 0.6505 0.0
C86 C 0.86128 0.10265 0.60357 0.0
O87 O 0.84617 0.10269 0.61192 0.0
C88 C 0.8668 0.14962 0.62816 0.0
O89 O 0.85501 0.14187 0.6181 0.0
O90 O 0.85018 0.10798 0.6471 0.0
C91 C 0.38862 0.34695 0.12796 0.0
O92 O 0.39459 0.35369 0.11325 0.0
O93 O 0.37799 0.38503 0.10583 0.0
Zn94 Zn 0.37306 0.38153 0.13159 0.0
O95 O 0.3468 0.38118 0.13426 0.0
C96 C 0.39739 0.40961 0.14046 0.0
O97 O 0.40711 0.40168 0.12858 0.0
O98 O 0.38076 0.35697 0.13885 0.0
C99 C 0.33707 0.39467 0.13548 0.0
O100 O 0.34426 0.41041 0.13542 0.0
C101 C 0.37556 0.39968 0.09823 0.0
O102 O 0.36991 0.41316 0.10745 0.0
O103 O 0.38296 0.40246 0.14508 0.0
C104 C 0.3529 0.16063 0.12789 0.0
O105 O 0.34574 0.15409 0.14216 0.0
O106 O 0.39276 0.12242 0.12162 0.0
Zn107 Zn 0.36671 0.12534 0.12516 0.0
O108 O 0.36291 0.12352 0.15124 0.0
C109 C 0.36118 0.09589 0.10147 0.0
O110 O 0.37577 0.1019 0.09442 0.0
O111 O 0.36093 0.15029 0.11743 0.0
C112 C 0.37016 0.11122 0.15985 0.0
O113 O 0.37907 0.09913 0.15132 0.0
C114 C 0.40299 0.1302 0.13237 0.0
O115 O 0.39625 0.14015 0.1448 0.0
O116 O 0.35393 0.10474 0.11369 0.0
C117 C 0.41381 0.86896 0.61279 0.0
O118 O 0.41133 0.88283 0.62284 0.0
O119 O 0.37878 0.87226 0.64267 0.0
Zn120 Zn 0.37823 0.87281 0.61622 0.0
O121 O 0.38049 0.89824 0.60938 0.0
C122 C 0.34554 0.85304 0.61725 0.0
O123 O 0.35376 0.84432 0.62965 0.0
O124 O 0.40033 0.86053 0.60731 0.0
C125 C 0.36755 0.9085 0.607 0.0
O126 O 0.35145 0.90236 0.6085 0.0
C127 C 0.36594 0.87791 0.65175 0.0
O128 O 0.35195 0.88407 0.64373 0.0
O129 O 0.3542 0.86413 0.60819 0.0
C130 C 0.62547 0.84636 0.10597 0.0
O131 O 0.6102 0.85257 0.10088 0.0
O132 O 0.6037 0.88571 0.11341 0.0
Zn133 Zn 0.62911 0.8816 0.12004 0.0
O134 O 0.62975 0.88113 0.14642 0.0
C135 C 0.63986 0.91151 0.09867 0.0
O136 O 0.62725 0.90582 0.08824 0.0
O137 O 0.63666 0.85689 0.1128 0.0
C138 C 0.62982 0.89473 0.15616 0.0
O139 O 0.63001 0.91041 0.14897 0.0
C140 C 0.59616 0.90045 0.11564 0.0
O141 O 0.60529 0.91382 0.1218 0.0
O142 O 0.64406 0.90231 0.11197 0.0
C143 C 0.59302 0.15055 0.62611 0.0
O144 O 0.60009 0.15633 0.64082 0.0
O145 O 0.61948 0.12643 0.65493 0.0
Zn146 Zn 0.62102 0.12489 0.62864 0.0
O147 O 0.61732 0.09932 0.62339 0.0
C148 C 0.6551 0.14161 0.63137 0.0
O149 O 0.64697 0.15071 0.6436 0.0
O150 O 0.60071 0.1383 0.61769 0.0
C151 C 0.61173 0.09283 0.60902 0.0
O152 O 0.60818 0.10331 0.59579 0.0
C153 C 0.62979 0.1165 0.66348 0.0
O154 O 0.64076 0.10637 0.65479 0.0
O155 O 0.64614 0.13112 0.62178 0.0
C156 C 0.37244 0.91133 0.88558 0.0
O157 O 0.38732 0.9101 0.8769 0.0
O158 O 0.37107 0.87717 0.85026 0.0
Zn159 Zn 0.37501 0.87602 0.87652 0.0
O160 O 0.40105 0.87737 0.88125 0.0
C161 C 0.35772 0.84166 0.87612 0.0
O162 O 0.34803 0.84842 0.86356 0.0
O163 O 0.36337 0.89739 0.88793 0.0
C164 C 0.41116 0.86542 0.87545 0.0
O165 O 0.40435 0.85216 0.86661 0.0
C166 C 0.3828 0.88288 0.8398 0.0
O167 O 0.39778 0.88877 0.84616 0.0
O168 O 0.36817 0.85161 0.8847 0.0
C169 C 0.66036 0.85281 0.37223 0.0
O170 O 0.65346 0.84688 0.3575 0.0
O171 O 0.62363 0.89315 0.38125 0.0
Zn172 Zn 0.62539 0.86712 0.37664 0.0
O173 O 0.62246 0.86436 0.35049 0.0
C174 C 0.59462 0.86228 0.39858 0.0
O175 O 0.5992 0.87796 0.40433 0.0
O176 O 0.65036 0.86024 0.38342 0.0
C177 C 0.61065 0.87314 0.34263 0.0
O178 O 0.59992 0.88299 0.35191 0.0
C179 C 0.63214 0.90321 0.37098 0.0
O180 O 0.64198 0.89622 0.35862 0.0
O181 O 0.6048 0.85429 0.38796 0.0
C182 C 0.63833 0.09261 0.90782 0.0
O183 O 0.62289 0.09614 0.91469 0.0
O184 O 0.63225 0.12193 0.86106 0.0
Zn185 Zn 0.63037 0.12356 0.88726 0.0
O186 O 0.60487 0.11969 0.89301 0.0
C187 C 0.64621 0.15781 0.88359 0.0
O188 O 0.65509 0.14956 0.87128 0.0
O189 O 0.6451 0.10357 0.89713 0.0
C190 C 0.59357 0.12843 0.88442 0.0
O191 O 0.59904 0.13981 0.87264 0.0
C192 C 0.62513 0.10953 0.85235 0.0
O193 O 0.61657 0.09708 0.86073 0.0
O194 O 0.63633 0.14886 0.89372 0.0
C195 C 0.34157 0.12995 0.39778 0.0
O196 O 0.34955 0.11682 0.40559 0.0
O197 O 0.37826 0.10744 0.38394 0.0
Zn198 Zn 0.37552 0.13365 0.38113 0.0
O199 O 0.37733 0.13812 0.35522 0.0
C200 C 0.40532 0.13827 0.40447 0.0
O201 O 0.39935 0.12345 0.41105 0.0
O202 O 0.3506 0.14029 0.3882 0.0
C203 C 0.38993 0.13131 0.34663 0.0
O204 O 0.40213 0.12259 0.35516 0.0
C205 C 0.37098 0.09732 0.37274 0.0
O206 O 0.36147 0.10416 0.36007 0.0
O207 O 0.39628 0.14603 0.39274 0.0
C208 C 0.09762 0.38136 0.15908 0.0
O209 O 0.08763 0.39396 0.15283 0.0
O210 O 0.10809 0.40931 0.12441 0.0
Zn211 Zn 0.11368 0.38349 0.12455 0.0
O212 O 0.13991 0.38291 0.12217 0.0
C213 C 0.09015 0.37831 0.09503 0.0
O214 O 0.08201 0.39169 0.10233 0.0
O215 O 0.10817 0.37354 0.14871 0.0
C216 C 0.14945 0.37027 0.12737 0.0
O217 O 0.14194 0.35612 0.13386 0.0
C218 C 0.11627 0.41859 0.13571 0.0
O219 O 0.12684 0.41075 0.14689 0.0
O220 O 0.10319 0.37155 0.10301 0.0
C221 C 0.11626 0.64118 0.83167 0.0
O222 O 0.10804 0.62734 0.83793 0.0
O223 O 0.12248 0.61741 0.86931 0.0
Zn224 Zn 0.12918 0.64303 0.86744 0.0
O225 O 0.15544 0.64367 0.86998 0.0
C226 C 0.10569 0.65211 0.89663 0.0
O227 O 0.09609 0.63904 0.89052 0.0
O228 O 0.12453 0.65124 0.84231 0.0
C229 C 0.16322 0.64298 0.88475 0.0
O230 O 0.15387 0.6424 0.89924 0.0
C231 C 0.12288 0.60829 0.88327 0.0
O232 O 0.12717 0.61581 0.89824 0.0
O233 O 0.11907 0.65712 0.8879 0.0
C234 C 0.88228 0.60756 0.40348 0.0
O235 O 0.8963 0.61764 0.40233 0.0
O236 O 0.87677 0.64196 0.3673 0.0
Zn237 Zn 0.88344 0.61641 0.36789 0.0
O238 O 0.90976 0.61606 0.37003 0.0
C239 C 0.8652 0.61 0.33449 0.0
O240 O 0.8526 0.61966 0.34128 0.0
O241 O 0.87317 0.60462 0.38969 0.0
C242 C 0.91902 0.60281 0.3659 0.0
O243 O 0.91128 0.58868 0.35952 0.0
C244 C 0.8811 0.65073 0.35377 0.0
O245 O 0.88923 0.64273 0.34079 0.0
O246 O 0.87808 0.60552 0.34416 0.0
C247 C 0.89506 0.34604 0.91202 0.0
O248 O 0.90479 0.35911 0.90624 0.0
O249 O 0.84592 0.35788 0.88644 0.0
Zn250 Zn 0.87211 0.35709 0.88368 0.0
O251 O 0.88065 0.38185 0.88772 0.0
C252 C 0.86569 0.34148 0.84937 0.0
O253 O 0.85281 0.33363 0.8578 0.0
O254 O 0.88145 0.34155 0.90329 0.0
C255 C 0.89173 0.38939 0.87775 0.0
O256 O 0.89841 0.38064 0.86443 0.0
C257 C 0.83719 0.36888 0.87745 0.0
O258 O 0.84561 0.3795 0.86674 0.0
O259 O 0.87683 0.3505 0.85813 0.0
C260 C 0.13573 0.38321 0.34465 0.0
O261 O 0.1427 0.36888 0.35123 0.0
O262 O 0.09568 0.3924 0.38322 0.0
Zn263 Zn 0.12094 0.38576 0.37953 0.0
O264 O 0.12166 0.35936 0.38015 0.0
C265 C 0.13045 0.40918 0.40799 0.0
O266 O 0.11844 0.41912 0.40062 0.0
O267 O 0.12752 0.39363 0.35488 0.0
C268 C 0.11232 0.35086 0.39107 0.0
O269 O 0.1026 0.35955 0.40239 0.0
C270 C 0.08458 0.38847 0.37133 0.0
O271 O 0.09008 0.38066 0.35693 0.0
O272 O 0.13502 0.39505 0.40026 0.0
C273 C 0.90518 0.62833 0.0841 0.0
O274 O 0.9139 0.61429 0.08901 0.0
O275 O 0.8569 0.62078 0.11473 0.0
Zn276 Zn 0.88315 0.61834 0.11334 0.0
O277 O 0.88765 0.59288 0.10762 0.0
C278 C 0.88559 0.6344 0.14799 0.0
O279 O 0.87441 0.64577 0.14142 0.0
O280 O 0.89232 0.63353 0.09345 0.0
C281 C 0.89983 0.58425 0.11508 0.0
O282 O 0.91027 0.59231 0.12632 0.0
C283 C 0.8491 0.61153 0.12625 0.0
O284 O 0.85849 0.60111 0.1363 0.0
O285 O 0.89245 0.62299 0.13786 0.0
C286 C 0.85624 0.37558 0.59599 0.0
O287 O 0.86988 0.36545 0.59904 0.0
O288 O 0.86078 0.34748 0.6303 0.0
Zn289 Zn 0.85987 0.37391 0.63181 0.0
O290 O 0.88502 0.38255 0.63204 0.0
C291 C 0.83982 0.36874 0.66377 0.0
O292 O 0.83402 0.35482 0.65523 0.0
O293 O 0.84829 0.38235 0.60911 0.0
C294 C 0.89294 0.38604 0.64638 0.0
O295 O 0.88437 0.38459 0.66129 0.0
C296 C 0.87029 0.33845 0.64062 0.0
O297 O 0.87972 0.34653 0.6527 0.0
O298 O 0.84891 0.38011 0.65548 0.0
C299 C 0.16623 0.62578 0.58202 0.0
O300 O 0.1716 0.64122 0.58775 0.0
O301 O 0.14332 0.65454 0.60952 0.0
Zn302 Zn 0.14337 0.62828 0.61243 0.0
O303 O 0.11806 0.62074 0.61195 0.0
C304 C 0.15829 0.63462 0.64699 0.0
O305 O 0.16311 0.64953 0.63974 0.0
O306 O 0.15547 0.61699 0.59137 0.0
C307 C 0.10767 0.62895 0.62211 0.0
O308 O 0.11395 0.64168 0.63208 0.0
C309 C 0.13395 0.66205 0.59794 0.0
O310 O 0.12464 0.65238 0.58698 0.0
O311 O 0.15168 0.6226 0.63727 0.0
C312 C 0.84818 0.87784 0.63832 0.0
O313 O 0.85526 0.86686 0.64957 0.0
O314 O 0.8832 0.85093 0.62385 0.0
Zn315 Zn 0.8829 0.87729 0.62219 0.0
O316 O 0.88782 0.88282 0.59695 0.0
C317 C 0.9116 0.87857 0.64721 0.0
O318 O 0.90602 0.86257 0.6506 0.0
O319 O 0.85793 0.88516 0.62688 0.0
C320 C 0.90157 0.87682 0.58963 0.0
O321 O 0.91273 0.8676 0.59901 0.0
C322 C 0.87303 0.84243 0.61359 0.0
O323 O 0.86278 0.8512 0.60283 0.0
O324 O 0.90277 0.88805 0.63664 0.0
C325 C 0.59527 0.40984 0.13472 0.0
O326 O 0.58659 0.40283 0.12146 0.0
O327 O 0.61188 0.3794 0.10389 0.0
Zn328 Zn 0.61768 0.37926 0.12983 0.0
O329 O 0.6441 0.38057 0.13179 0.0
C330 C 0.59739 0.34683 0.1333 0.0
O331 O 0.58654 0.35472 0.12245 0.0
O332 O 0.60806 0.40138 0.14136 0.0
C333 C 0.65348 0.36675 0.13194 0.0
O334 O 0.64578 0.35128 0.13118 0.0
C335 C 0.61521 0.36582 0.09469 0.0
O336 O 0.62242 0.35212 0.10224 0.0
O337 O 0.61007 0.35565 0.13989 0.0
C338 C 0.15663 0.12934 0.65006 0.0
O339 O 0.15009 0.1435 0.65749 0.0
O340 O 0.11988 0.1534 0.63948 0.0
Zn341 Zn 0.12194 0.12755 0.63426 0.0
O342 O 0.12147 0.12557 0.60796 0.0
C343 C 0.09137 0.12098 0.65626 0.0
O344 O 0.09673 0.13549 0.66407 0.0
O345 O 0.14642 0.11934 0.6412 0.0
C346 C 0.1115 0.11557 0.59892 0.0
O347 O 0.10013 0.1053 0.60691 0.0
C348 C 0.1089 0.16278 0.63116 0.0
O349 O 0.09822 0.15519 0.6198 0.0
O350 O 0.10082 0.11436 0.64414 0.0
C351 C 0.40534 0.59656 0.13823 0.0
O352 O 0.41588 0.60342 0.12639 0.0
O353 O 0.391 0.62333 0.1033 0.0
Zn354 Zn 0.38321 0.62597 0.12837 0.0
O355 O 0.3568 0.62583 0.12824 0.0
C356 C 0.40082 0.65966 0.12775 0.0
O357 O 0.41025 0.65177 0.11563 0.0
O358 O 0.39142 0.60484 0.14241 0.0
C359 C 0.3487 0.63347 0.1158 0.0
O360 O 0.35781 0.6408 0.1031 0.0
C361 C 0.38797 0.60987 0.09383 0.0
O362 O 0.37985 0.59626 0.10071 0.0
O363 O 0.38994 0.65056 0.13665 0.0
C364 C 0.90563 0.09582 0.37363 0.0
O365 O 0.89898 0.08667 0.38666 0.0
O366 O 0.87682 0.11121 0.40642 0.0
Zn367 Zn 0.87581 0.11837 0.38102 0.0
O368 O 0.87756 0.14473 0.38139 0.0
C369 C 0.8424 0.09966 0.37816 0.0
O370 O 0.85017 0.08843 0.38869 0.0
O371 O 0.89718 0.10908 0.36799 0.0
C372 C 0.86882 0.15436 0.37096 0.0
O373 O 0.85876 0.14692 0.35897 0.0
C374 C 0.86425 0.11642 0.41609 0.0
O375 O 0.85162 0.12587 0.40908 0.0
O376 O 0.85147 0.11213 0.37162 0.0
C377 C 0.37652 0.34386 0.8613 0.0
O378 O 0.3641 0.35181 0.85234 0.0
O379 O 0.35313 0.38005 0.87474 0.0
Zn380 Zn 0.37937 0.37807 0.87753 0.0
O381 O 0.3846 0.38195 0.90309 0.0
C382 C 0.3834 0.40641 0.85243 0.0
O383 O 0.36786 0.40086 0.84716 0.0
O384 O 0.38609 0.35293 0.8717 0.0
C385 C 0.38056 0.39649 0.91028 0.0
O386 O 0.37349 0.40891 0.90063 0.0
C387 C 0.34324 0.37259 0.88595 0.0
O388 O 0.35044 0.36408 0.89911 0.0
O389 O 0.39153 0.3977 0.86415 0.0
C390 C 0.09773 0.89105 0.34524 0.0
O391 O 0.10578 0.87812 0.33711 0.0
O392 O 0.12575 0.89305 0.39612 0.0
Zn393 Zn 0.12654 0.88725 0.3704 0.0
O394 O 0.12491 0.86092 0.36869 0.0
C395 C 0.16033 0.90475 0.37058 0.0
O396 O 0.15274 0.9142 0.38289 0.0
O397 O 0.10503 0.89802 0.35865 0.0
C398 C 0.13198 0.85269 0.35598 0.0
O399 O 0.13997 0.86161 0.34355 0.0
C400 C 0.11176 0.89566 0.40484 0.0
O401 O 0.09645 0.89464 0.39686 0.0
O402 O 0.15099 0.89392 0.36177 0.0
C403 C 0.63482 0.65663 0.85746 0.0
O404 O 0.64842 0.64826 0.8509 0.0
O405 O 0.65453 0.61963 0.87446 0.0
Zn406 Zn 0.62823 0.62266 0.87305 0.0
O407 O 0.61923 0.61956 0.89759 0.0
C408 C 0.62699 0.59199 0.85041 0.0
O409 O 0.64396 0.59515 0.84948 0.0
O410 O 0.62335 0.64795 0.86603 0.0
C411 C 0.62273 0.60542 0.90571 0.0
O412 O 0.63152 0.593 0.89752 0.0
C413 C 0.66297 0.62641 0.88725 0.0
O414 O 0.65434 0.63533 0.89927 0.0
O415 O 0.61722 0.60302 0.85837 0.0
C416 C 0.65244 0.84475 0.87536 0.0
O417 O 0.66105 0.85288 0.86279 0.0
O418 O 0.63696 0.88019 0.85138 0.0
Zn419 Zn 0.63403 0.87803 0.8776 0.0
O420 O 0.6081 0.87903 0.88232 0.0
C421 C 0.65616 0.90895 0.88223 0.0
O422 O 0.66221 0.90408 0.8668 0.0
O423 O 0.64171 0.8535 0.88475 0.0
C424 C 0.59841 0.88987 0.87417 0.0
O425 O 0.60566 0.90092 0.86307 0.0
C426 C 0.62824 0.86971 0.84161 0.0
O427 O 0.61792 0.85796 0.84898 0.0
O428 O 0.64515 0.89904 0.89004 0.0
C429 C 0.59087 0.14722 0.38834 0.0
O430 O 0.59537 0.15263 0.37259 0.0
O431 O 0.61866 0.0995 0.38513 0.0
Zn432 Zn 0.62215 0.12576 0.38412 0.0
O433 O 0.6227 0.13239 0.35853 0.0
C434 C 0.65544 0.11951 0.4015 0.0
O435 O 0.64714 0.10539 0.407 0.0
O436 O 0.60113 0.13684 0.39651 0.0
C437 C 0.63505 0.12589 0.34935 0.0
O438 O 0.64663 0.11563 0.357 0.0
C439 C 0.61134 0.09083 0.3728 0.0
O440 O 0.60514 0.09919 0.35905 0.0
O441 O 0.64676 0.13125 0.39336 0.0
C442 C 0.35722 0.1564 0.88102 0.0
O443 O 0.35024 0.14791 0.86763 0.0
O444 O 0.37537 0.12111 0.85982 0.0
Zn445 Zn 0.37393 0.12295 0.88623 0.0
O446 O 0.39861 0.11997 0.89509 0.0
C447 C 0.35044 0.09296 0.88562 0.0
O448 O 0.34857 0.09782 0.86917 0.0
O449 O 0.36644 0.14787 0.89204 0.0
C450 C 0.4071 0.10637 0.89045 0.0
O451 O 0.39909 0.09428 0.88095 0.0
C452 C 0.38821 0.12823 0.85181 0.0
O453 O 0.40035 0.13657 0.86093 0.0
O454 O 0.35937 0.10271 0.89597 0.0
C455 C 0.40962 0.85091 0.38175 0.0
O456 O 0.40389 0.84419 0.36686 0.0
O457 O 0.38366 0.90084 0.3793 0.0
Zn458 Zn 0.38014 0.87467 0.37676 0.0
O459 O 0.38067 0.86919 0.35088 0.0
C460 C 0.34659 0.87998 0.39379 0.0
O461 O 0.35491 0.89361 0.40053 0.0
O462 O 0.4007 0.86297 0.38917 0.0
C463 C 0.36845 0.87569 0.34153 0.0
O464 O 0.35619 0.88511 0.34921 0.0
C465 C 0.39127 0.91003 0.36763 0.0
O466 O 0.39767 0.90231 0.35357 0.0
O467 O 0.3553 0.86879 0.38488 0.0
C468 C 0.64914 0.0969 0.1214 0.0
O469 O 0.65517 0.10237 0.13667 0.0
O470 O 0.59951 0.12224 0.12414 0.0
Zn471 Zn 0.62561 0.12658 0.12601 0.0
O472 O 0.63182 0.12667 0.15173 0.0
C473 C 0.61881 0.16009 0.10937 0.0
O474 O 0.60482 0.15166 0.10361 0.0
O475 O 0.63758 0.10609 0.11354 0.0
C476 C 0.62501 0.13852 0.16137 0.0
O477 O 0.61448 0.15012 0.15415 0.0
C478 C 0.59069 0.11463 0.1361 0.0
O479 O 0.59876 0.10884 0.15021 0.0
O480 O 0.63064 0.15148 0.11749 0.0
C481 C 0.34252 0.13005 0.6134 0.0
O482 O 0.34854 0.11699 0.60381 0.0
O483 O 0.38003 0.12838 0.65449 0.0
Zn484 Zn 0.37755 0.12849 0.6282 0.0
O485 O 0.37762 0.10321 0.62054 0.0
C486 C 0.40622 0.15392 0.6247 0.0
O487 O 0.39859 0.16142 0.63828 0.0
O488 O 0.35317 0.1384 0.62336 0.0
C489 C 0.39148 0.09447 0.61745 0.0
O490 O 0.40692 0.10214 0.61911 0.0
C491 C 0.39437 0.12624 0.66279 0.0
O492 O 0.4091 0.12418 0.65401 0.0
O493 O 0.39871 0.1408 0.6174 0.0
C494 C 0.35193 0.91042 0.11406 0.0
O495 O 0.34739 0.90584 0.13006 0.0
O496 O 0.4007 0.88376 0.1129 0.0
Zn497 Zn 0.37494 0.88023 0.1174 0.0
O498 O 0.37181 0.88175 0.14354 0.0
C499 C 0.37905 0.84581 0.10168 0.0
O500 O 0.39252 0.85358 0.09414 0.0
O501 O 0.36222 0.90045 0.1054 0.0
C502 C 0.38134 0.87182 0.15296 0.0
O503 O 0.3927 0.86136 0.14524 0.0
C504 C 0.40811 0.89842 0.11618 0.0
O505 O 0.39864 0.91144 0.12243 0.0
O506 O 0.36842 0.85508 0.11068 0.0
C507 C 0.66157 0.85664 0.61756 0.0
O508 O 0.65437 0.84572 0.62882 0.0
O509 O 0.62571 0.87075 0.6435 0.0
Zn510 Zn 0.62685 0.87287 0.6172 0.0
O511 O 0.62272 0.89822 0.61147 0.0
C512 C 0.59704 0.84915 0.61494 0.0
O513 O 0.60164 0.8458 0.63123 0.0
O514 O 0.65191 0.86784 0.60981 0.0
C515 C 0.60785 0.90538 0.61395 0.0
O516 O 0.59486 0.89591 0.62031 0.0
C517 C 0.63563 0.88053 0.65283 0.0
O518 O 0.64627 0.89167 0.64498 0.0
O519 O 0.60695 0.85899 0.60569 0.0
C520 C 0.87956 0.60735 0.84 0.0
O521 O 0.8703 0.59487 0.84758 0.0
O522 O 0.85966 0.61097 0.87964 0.0
Zn523 Zn 0.88581 0.61027 0.87522 0.0
O524 O 0.89366 0.58515 0.87704 0.0
C525 C 0.89263 0.63849 0.90057 0.0
O526 O 0.87884 0.64588 0.89327 0.0
O527 O 0.88901 0.61734 0.84968 0.0
C528 C 0.89171 0.57621 0.89098 0.0
O529 O 0.88473 0.58368 0.9049 0.0
C530 C 0.85163 0.61245 0.8942 0.0
O531 O 0.86066 0.61382 0.90888 0.0
O532 O 0.89864 0.62435 0.89395 0.0
C533 C 0.88968 0.36733 0.1624 0.0
O534 O 0.89744 0.38134 0.15594 0.0
O535 O 0.85134 0.36407 0.12391 0.0
Zn536 Zn 0.87763 0.36383 0.12642 0.0
O537 O 0.88611 0.38859 0.12275 0.0
C538 C 0.8785 0.3397 0.09677 0.0
O539 O 0.86197 0.33728 0.10118 0.0
O540 O 0.88202 0.35668 0.15189 0.0
C541 C 0.881 0.39748 0.10961 0.0
O542 O 0.87024 0.39019 0.09814 0.0
C543 C 0.84252 0.37614 0.13136 0.0
O544 O 0.85086 0.3885 0.1402 0.0
O545 O 0.88827 0.3491 0.1067 0.0
C546 C 0.11635 0.39318 0.59204 0.0
O547 O 0.10243 0.3832 0.5946 0.0
O548 O 0.08971 0.39226 0.62873 0.0
Zn549 Zn 0.11559 0.38693 0.62772 0.0
O550 O 0.11702 0.36058 0.62586 0.0
C551 C 0.11903 0.40656 0.66023 0.0
O552 O 0.1075 0.41686 0.65258 0.0
O553 O 0.12567 0.3975 0.60531 0.0
C554 C 0.12664 0.35121 0.63576 0.0
O555 O 0.13691 0.35891 0.64738 0.0
C556 C 0.08105 0.38649 0.64178 0.0
O557 O 0.08931 0.37762 0.65406 0.0
O558 O 0.12608 0.39433 0.65123 0.0
C559 C 0.12036 0.66393 0.08313 0.0
O560 O 0.13487 0.67115 0.08925 0.0
O561 O 0.12117 0.61575 0.11355 0.0
Zn562 Zn 0.1248 0.64202 0.11391 0.0
O563 O 0.15106 0.64582 0.11177 0.0
C564 C 0.10649 0.64167 0.14732 0.0
O565 O 0.09702 0.62947 0.13944 0.0
O566 O 0.1127 0.65217 0.09227 0.0
C567 C 0.16061 0.64872 0.12522 0.0
O568 O 0.1532 0.64997 0.14075 0.0
C569 C 0.12856 0.60681 0.12555 0.0
O570 O 0.13821 0.61499 0.13738 0.0
O571 O 0.11726 0.65066 0.13818 0.0
C572 C 0.86716 0.61886 0.65132 0.0
O573 O 0.8599 0.63297 0.64458 0.0
O574 O 0.8798 0.64418 0.61616 0.0
Zn575 Zn 0.88585 0.61854 0.6182 0.0
O576 O 0.91222 0.61736 0.61984 0.0
C577 C 0.88747 0.60421 0.58345 0.0
O578 O 0.90359 0.6102 0.58527 0.0
O579 O 0.87724 0.60956 0.64174 0.0
C580 C 0.92085 0.60309 0.62014 0.0
O581 O 0.91244 0.58801 0.61882 0.0
C582 C 0.88843 0.65422 0.60598 0.0
O583 O 0.90103 0.64753 0.59626 0.0
O584 O 0.87681 0.60571 0.59628 0.0
C585 C 0.0946 0.37934 0.90839 0.0
O586 O 0.08728 0.39311 0.90102 0.0
O587 O 0.11684 0.40991 0.88208 0.0
Zn588 Zn 0.11934 0.38358 0.87977 0.0
O589 O 0.14531 0.37852 0.88125 0.0
C590 C 0.09936 0.38473 0.84706 0.0
O591 O 0.09013 0.39663 0.85552 0.0
O592 O 0.10762 0.3721 0.9008 0.0
C593 C 0.15492 0.3785 0.86758 0.0
O594 O 0.14766 0.3812 0.85215 0.0
C595 C 0.12147 0.41995 0.86957 0.0
O596 O 0.12779 0.41299 0.85509 0.0
O597 O 0.11093 0.37609 0.85547 0.0
C598 C 0.14966 0.6084 0.39667 0.0
O599 O 0.1356 0.5994 0.39207 0.0
O600 O 0.11543 0.62062 0.36902 0.0
Zn601 Zn 0.14043 0.62858 0.36566 0.0
O602 O 0.14003 0.65502 0.36641 0.0
C603 C 0.13841 0.61194 0.33147 0.0
O604 O 0.12581 0.603 0.33921 0.0
O605 O 0.15524 0.62045 0.38647 0.0
C606 C 0.13583 0.66359 0.35273 0.0
O607 O 0.1319 0.655 0.33822 0.0
C608 C 0.1051 0.62861 0.37942 0.0
O609 O 0.11102 0.64212 0.38852 0.0
O610 O 0.14815 0.62198 0.3408 0.0
C611 C 0.84694 0.37489 0.34675 0.0
O612 O 0.84018 0.36059 0.3537 0.0
O613 O 0.86073 0.35168 0.38235 0.0
Zn614 Zn 0.86327 0.37794 0.38103 0.0
O615 O 0.88918 0.38305 0.38155 0.0
C616 C 0.83946 0.38134 0.4106 0.0
O617 O 0.83212 0.36746 0.40326 0.0
O618 O 0.85535 0.38556 0.35664 0.0
C619 C 0.89793 0.38859 0.39471 0.0
O620 O 0.88986 0.39148 0.4097 0.0
C621 C 0.8689 0.34235 0.39348 0.0
O622 O 0.87908 0.35007 0.40518 0.0
O623 O 0.85195 0.38907 0.40257 0.0
C624 C 0.12244 0.32213 0.37855 0.0
C625 C 0.11174 0.33142 0.39041 0.0
C626 C 0.12144 0.30381 0.37746 0.0
C627 C 0.10655 0.26451 0.40185 0.0
H628 H 0.10825 0.2423 0.3559 0.0
C629 C 0.09331 0.19036 0.39194 0.0
C630 C 0.10515 0.18135 0.38098 0.0
C631 C 0.0935 0.20872 0.39276 0.0
C632 C 0.10789 0.24831 0.36883 0.0
H633 H 0.09168 0.32877 0.41049 0.0
H634 H 0.08978 0.29682 0.40843 0.0
H635 H 0.11003 0.27426 0.35825 0.0
H636 H 0.12622 0.18457 0.36202 0.0
H637 H 0.12652 0.21661 0.36348 0.0
H638 H 0.10437 0.23854 0.41241 0.0
C639 C 0.09912 0.30367 0.40014 0.0
C640 C 0.10895 0.26661 0.37019 0.0
C641 C 0.10015 0.322 0.40127 0.0
C642 C 0.11692 0.19111 0.37059 0.0
C643 C 0.11704 0.20947 0.37135 0.0
C644 C 0.10543 0.24622 0.40049 0.0
C645 C 0.10968 0.29437 0.38816 0.0
C646 C 0.10837 0.27492 0.38672 0.0
C647 C 0.10546 0.21846 0.38258 0.0
C648 C 0.10616 0.23792 0.38397 0.0
H649 H 0.13156 0.32899 0.37004 0.0
H650 H 0.12997 0.29703 0.3683 0.0
H651 H 0.10632 0.27048 0.4148 0.0
H652 H 0.08407 0.18324 0.40009 0.0
H653 H 0.08426 0.21531 0.40137 0.0
C654 C 0.32205 0.62453 0.86834 0.0
C655 C 0.3307 0.61664 0.88261 0.0
C656 C 0.30396 0.62756 0.86894 0.0
C657 C 0.2633 0.6146 0.89256 0.0
H658 H 0.2453 0.6579 0.87271 0.0
C659 C 0.19113 0.6366 0.901 0.0
C660 C 0.18259 0.64165 0.88543 0.0
C661 C 0.20935 0.63416 0.90125 0.0
C662 C 0.25015 0.64573 0.87823 0.0
H663 H 0.32714 0.60566 0.90865 0.0
H664 H 0.29565 0.61129 0.90986 0.0
H665 H 0.27681 0.65205 0.87188 0.0
H666 H 0.18648 0.64862 0.85806 0.0
H667 H 0.21828 0.64454 0.85859 0.0
H668 H 0.23658 0.60844 0.89907 0.0
C669 C 0.30277 0.61483 0.89806 0.0
C670 C 0.26818 0.64232 0.87769 0.0
C671 C 0.32084 0.61167 0.8974 0.0
C672 C 0.19267 0.64469 0.87026 0.0
C673 C 0.21088 0.64244 0.87057 0.0
C674 C 0.24529 0.6181 0.89324 0.0
C675 C 0.29412 0.62291 0.88388 0.0
C676 C 0.27496 0.62665 0.88473 0.0
C677 C 0.21936 0.63695 0.886 0.0
C678 C 0.23854 0.63364 0.88598 0.0
H679 H 0.32927 0.62842 0.85671 0.0
H680 H 0.29767 0.63349 0.85765 0.0
H681 H 0.26803 0.6023 0.89787 0.0
H682 H 0.18372 0.63414 0.9129 0.0
H683 H 0.21561 0.63007 0.91336 0.0
C684 C 0.87268 0.81112 0.33611 0.0
C685 C 0.87629 0.81998 0.35196 0.0
C686 C 0.87214 0.79274 0.33558 0.0
C687 C 0.86377 0.75431 0.36269 0.0
H688 H 0.89264 0.72887 0.32929 0.0
C689 C 0.87537 0.67966 0.36837 0.0
C690 C 0.878 0.66985 0.35294 0.0
C691 C 0.87384 0.69796 0.36765 0.0
C692 C 0.8842 0.73571 0.33848 0.0
H693 H 0.88201 0.81659 0.3797 0.0
H694 H 0.88071 0.78449 0.37879 0.0
H695 H 0.89239 0.76092 0.32888 0.0
H696 H 0.88026 0.67132 0.32458 0.0
H697 H 0.87684 0.70311 0.32321 0.0
H698 H 0.85524 0.72925 0.37212 0.0
C699 C 0.87841 0.79179 0.3668 0.0
C700 C 0.88417 0.75408 0.33828 0.0
C701 C 0.87927 0.81013 0.36727 0.0
C702 C 0.87844 0.67859 0.33672 0.0
C703 C 0.87661 0.69684 0.33596 0.0
C704 C 0.86357 0.73594 0.36272 0.0
C705 C 0.87485 0.78295 0.35095 0.0
C706 C 0.87413 0.76352 0.35053 0.0
C707 C 0.8746 0.70681 0.35144 0.0
C708 C 0.87396 0.72638 0.35076 0.0
H709 H 0.87035 0.81838 0.32411 0.0
H710 H 0.86933 0.78618 0.32322 0.0
H711 H 0.85576 0.76134 0.37214 0.0
H712 H 0.87509 0.67328 0.38108 0.0
H713 H 0.8726 0.70516 0.37989 0.0
C714 C 0.80877 0.35749 0.88956 0.0
C715 C 0.8178 0.36934 0.87864 0.0
C716 C 0.79043 0.35771 0.89045 0.0
C717 C 0.75124 0.37177 0.86573 0.0
H718 H 0.72765 0.3658 0.91051 0.0
C719 C 0.67625 0.37987 0.87344 0.0
C720 C 0.66751 0.36724 0.88371 0.0
C721 C 0.69461 0.38057 0.8731 0.0
C722 C 0.73406 0.36732 0.89789 0.0
H723 H 0.81468 0.39083 0.86021 0.0
H724 H 0.78265 0.39132 0.86191 0.0
H725 H 0.75973 0.36632 0.90942 0.0
H726 H 0.67116 0.34552 0.90176 0.0
H727 H 0.70321 0.34669 0.90108 0.0
H728 H 0.72557 0.37273 0.8542 0.0
C729 C 0.78976 0.38171 0.86961 0.0
C730 C 0.75242 0.36761 0.89727 0.0
C731 C 0.80811 0.38149 0.86872 0.0
C732 C 0.6775 0.35543 0.89374 0.0
C733 C 0.69586 0.35615 0.89343 0.0
C734 C 0.73288 0.3715 0.86636 0.0
C735 C 0.78071 0.36978 0.88045 0.0
C736 C 0.76121 0.36979 0.88117 0.0
C737 C 0.70461 0.36868 0.88305 0.0
C738 C 0.7241 0.36922 0.88244 0.0
H739 H 0.81585 0.34793 0.89734 0.0
H740 H 0.78384 0.3482 0.89875 0.0
H741 H 0.75762 0.37319 0.85309 0.0
H742 H 0.66894 0.38919 0.86559 0.0
H743 H 0.70098 0.39051 0.86514 0.0
C744 C 0.14179 0.69157 0.61029 0.0
C745 C 0.13238 0.68143 0.59796 0.0
C746 C 0.13936 0.70972 0.6113 0.0
C747 C 0.12298 0.74811 0.58691 0.0
H748 H 0.11874 0.76846 0.63354 0.0
C749 C 0.10497 0.82119 0.59849 0.0
C750 C 0.11488 0.83009 0.61139 0.0
C751 C 0.10624 0.80293 0.59663 0.0
C752 C 0.12004 0.76301 0.62044 0.0
H753 H 0.11339 0.68246 0.57666 0.0
H754 H 0.1091 0.71424 0.57848 0.0
H755 H 0.12313 0.7369 0.63029 0.0
H756 H 0.13375 0.82678 0.63256 0.0
H757 H 0.13604 0.79506 0.62923 0.0
H758 H 0.12001 0.77431 0.57708 0.0
C759 C 0.11843 0.70811 0.58731 0.0
C760 C 0.12258 0.74494 0.61857 0.0
C761 C 0.12085 0.68991 0.58631 0.0
C762 C 0.12589 0.82034 0.62252 0.0
C763 C 0.12714 0.80212 0.62068 0.0
C764 C 0.12046 0.76624 0.58878 0.0
C765 C 0.12747 0.71816 0.6 0.0
C766 C 0.12426 0.73731 0.60181 0.0
C767 C 0.11739 0.79322 0.60768 0.0
C768 C 0.11914 0.77389 0.60558 0.0
H769 H 0.15086 0.68546 0.6194 0.0
H770 H 0.14676 0.71715 0.621 0.0
H771 H 0.12436 0.74263 0.57383 0.0
H772 H 0.09635 0.82833 0.58972 0.0
H773 H 0.09842 0.79641 0.58662 0.0
C774 C 0.68878 0.62437 0.12574 0.0
C775 C 0.67969 0.61449 0.13843 0.0
C776 C 0.70713 0.62435 0.12523 0.0
C777 C 0.74563 0.59844 0.13854 0.0
H778 H 0.77102 0.64194 0.13003 0.0
C779 C 0.82139 0.6025 0.1415 0.0
C780 C 0.82979 0.61236 0.12834 0.0
C781 C 0.80313 0.60306 0.1434 0.0
C782 C 0.76412 0.62965 0.13224 0.0
H783 H 0.68277 0.59686 0.16058 0.0
H784 H 0.71489 0.59688 0.15972 0.0
H785 H 0.73902 0.64232 0.13226 0.0
H786 H 0.82562 0.63061 0.10689 0.0
H787 H 0.79371 0.63142 0.11007 0.0
H788 H 0.7707 0.58573 0.13836 0.0
C789 C 0.70776 0.60453 0.15008 0.0
C790 C 0.74579 0.62988 0.13354 0.0
C791 C 0.68937 0.60459 0.15062 0.0
C792 C 0.81955 0.62289 0.11719 0.0
C793 C 0.80127 0.62343 0.11908 0.0
C794 C 0.76396 0.59821 0.13722 0.0
C795 C 0.71683 0.61442 0.13737 0.0
C796 C 0.73634 0.61426 0.1366 0.0
C797 C 0.79285 0.61348 0.13217 0.0
C798 C 0.7734 0.6138 0.13397 0.0
H799 H 0.68173 0.63213 0.11613 0.0
H800 H 0.71372 0.6319 0.11513 0.0
H801 H 0.73871 0.58615 0.14066 0.0
H802 H 0.82891 0.59432 0.15038 0.0
H803 H 0.79707 0.59543 0.15377 0.0
C804 C 0.8797 0.17733 0.64064 0.0
C805 C 0.86796 0.16901 0.62894 0.0
C806 C 0.88049 0.19565 0.64169 0.0
C807 C 0.8699 0.23592 0.61715 0.0
H808 H 0.87141 0.25811 0.66313 0.0
C809 C 0.85983 0.31042 0.62672 0.0
C810 C 0.87052 0.31907 0.63914 0.0
C811 C 0.85996 0.29211 0.62536 0.0
C812 C 0.87122 0.25212 0.65019 0.0
H813 H 0.84796 0.17341 0.60907 0.0
H814 H 0.84932 0.20541 0.61096 0.0
H815 H 0.87095 0.22611 0.66086 0.0
H816 H 0.88982 0.31529 0.65982 0.0
H817 H 0.89021 0.28331 0.65728 0.0
H818 H 0.87019 0.26191 0.60647 0.0
C819 C 0.858 0.19774 0.61921 0.0
C820 C 0.87095 0.23379 0.64889 0.0
C821 C 0.85716 0.17941 0.6182 0.0
C822 C 0.88138 0.30902 0.65015 0.0
C823 C 0.88154 0.29069 0.64876 0.0
C824 C 0.87022 0.25425 0.61844 0.0
C825 C 0.86961 0.20605 0.63102 0.0
C826 C 0.87022 0.2255 0.63237 0.0
C827 C 0.87081 0.28203 0.63636 0.0
C828 C 0.87082 0.26255 0.63498 0.0
H829 H 0.88823 0.16969 0.64908 0.0
H830 H 0.88972 0.20169 0.65077 0.0
H831 H 0.8696 0.2299 0.60423 0.0
H832 H 0.85125 0.31778 0.61808 0.0
H833 H 0.85135 0.28583 0.61584 0.0
C834 C 0.31027 0.37572 0.13827 0.0
C835 C 0.31774 0.39251 0.136 0.0
C836 C 0.29205 0.37341 0.13786 0.0
C837 C 0.25206 0.39304 0.12004 0.0
H838 H 0.2281 0.36363 0.15408 0.0
C839 C 0.17652 0.38857 0.12338 0.0
C840 C 0.16881 0.37224 0.1274 0.0
C841 C 0.19471 0.39086 0.12434 0.0
C842 C 0.23462 0.37167 0.14431 0.0
H843 H 0.31193 0.42009 0.1318 0.0
H844 H 0.28002 0.41602 0.13098 0.0
H845 H 0.25979 0.36831 0.15654 0.0
H846 H 0.17419 0.34539 0.13522 0.0
H847 H 0.20606 0.34926 0.13646 0.0
H848 H 0.22704 0.3962 0.10761 0.0
C849 C 0.28833 0.40466 0.13301 0.0
C850 C 0.25275 0.37442 0.14579 0.0
C851 C 0.30658 0.407 0.13358 0.0
C852 C 0.17973 0.35815 0.1321 0.0
C853 C 0.19798 0.36041 0.13294 0.0
C854 C 0.23397 0.39019 0.11848 0.0
C855 C 0.28091 0.38782 0.13502 0.0
C856 C 0.26163 0.38516 0.13369 0.0
C857 C 0.20567 0.37685 0.1292 0.0
C858 C 0.22501 0.37951 0.13063 0.0
H859 H 0.3185 0.36428 0.14019 0.0
H860 H 0.28669 0.36027 0.1393 0.0
H861 H 0.25863 0.40115 0.11036 0.0
H862 H 0.16847 0.39975 0.11984 0.0
H863 H 0.20013 0.40377 0.12164 0.0
C864 C 0.3821 0.10109 0.18873 0.0
C865 C 0.37066 0.11201 0.17925 0.0
C866 C 0.38397 0.10311 0.2069 0.0
C867 C 0.37751 0.13604 0.24216 0.0
H868 H 0.38443 0.09603 0.27285 0.0
C869 C 0.37664 0.1407 0.31805 0.0
C870 C 0.38936 0.13095 0.32722 0.0
C871 C 0.3749 0.13894 0.29985 0.0
C872 C 0.3827 0.10734 0.26439 0.0
H873 H 0.35165 0.13312 0.18146 0.0
H874 H 0.35457 0.13634 0.21321 0.0
H875 H 0.37926 0.09119 0.24156 0.0
H876 H 0.41058 0.11214 0.3244 0.0
H877 H 0.4075 0.10909 0.2926 0.0
H878 H 0.38071 0.15214 0.26512 0.0
C879 C 0.36244 0.12651 0.20656 0.0
C880 C 0.37974 0.10457 0.24647 0.0
C881 C 0.36066 0.12457 0.18839 0.0
C882 C 0.40065 0.11983 0.31773 0.0
C883 C 0.39881 0.11797 0.29955 0.0
C884 C 0.38035 0.13879 0.2601 0.0
C885 C 0.37435 0.11602 0.21599 0.0
C886 C 0.37713 0.11889 0.23513 0.0
C887 C 0.38575 0.12731 0.29047 0.0
C888 C 0.38302 0.12447 0.27139 0.0
H889 H 0.39006 0.09135 0.18207 0.0
H890 H 0.39339 0.09493 0.21371 0.0
H891 H 0.37589 0.14739 0.23375 0.0
H892 H 0.36774 0.14938 0.32499 0.0
H893 H 0.36465 0.14623 0.29321 0.0
C894 C 0.38293 0.8752 0.67974 0.0
C895 C 0.36676 0.87751 0.67113 0.0
C896 C 0.3838 0.87512 0.69806 0.0
C897 C 0.35875 0.88842 0.73778 0.0
H898 H 0.3928 0.85866 0.76119 0.0
C899 C 0.36308 0.87963 0.81354 0.0
C900 C 0.38001 0.88211 0.82061 0.0
C901 C 0.36063 0.87864 0.79534 0.0
C902 C 0.38327 0.86706 0.75479 0.0
H903 H 0.33874 0.88118 0.67491 0.0
H904 H 0.34014 0.88047 0.70692 0.0
H905 H 0.3898 0.85719 0.72932 0.0
H906 H 0.40765 0.88537 0.81421 0.0
H907 H 0.40336 0.88334 0.78248 0.0
H908 H 0.35207 0.89798 0.76347 0.0
C909 C 0.35225 0.87921 0.69955 0.0
C910 C 0.38159 0.86631 0.73653 0.0
C911 C 0.35142 0.87953 0.6812 0.0
C912 C 0.39443 0.88352 0.80916 0.0
C913 C 0.39202 0.88225 0.79102 0.0
C914 C 0.36026 0.88897 0.75609 0.0
C915 C 0.36847 0.87709 0.70822 0.0
C916 C 0.3695 0.87717 0.72776 0.0
C917 C 0.37511 0.8798 0.78395 0.0
C918 C 0.37271 0.87848 0.76471 0.0
H919 H 0.395 0.87375 0.67232 0.0
H920 H 0.39657 0.87382 0.70424 0.0
H921 H 0.34948 0.89715 0.73149 0.0
H922 H 0.35172 0.87851 0.82205 0.0
H923 H 0.34747 0.87669 0.79017 0.0
C924 C 0.63246 0.8766 0.18335 0.0
C925 C 0.62857 0.89278 0.17542 0.0
C926 C 0.63042 0.87441 0.20143 0.0
C927 C 0.62466 0.89939 0.24318 0.0
H928 H 0.60775 0.85433 0.26017 0.0
C929 C 0.60241 0.88829 0.31475 0.0
C930 C 0.61063 0.87415 0.32327 0.0
C931 C 0.60391 0.89029 0.29657 0.0
C932 C 0.61253 0.86695 0.25558 0.0
H933 H 0.61955 0.91939 0.18017 0.0
H934 H 0.61539 0.91544 0.21165 0.0
H935 H 0.61198 0.8587 0.22872 0.0
H936 H 0.62629 0.85066 0.31941 0.0
H937 H 0.62854 0.85396 0.28752 0.0
H938 H 0.62472 0.90768 0.27012 0.0
C939 C 0.62047 0.90454 0.20402 0.0
C940 C 0.61508 0.86945 0.23758 0.0
C941 C 0.62278 0.9068 0.18595 0.0
C942 C 0.61983 0.86169 0.31319 0.0
C943 C 0.62108 0.86354 0.29497 0.0
C944 C 0.62185 0.89695 0.26114 0.0
C945 C 0.62416 0.88827 0.21199 0.0
C946 C 0.62128 0.88567 0.23115 0.0
C947 C 0.61341 0.87803 0.28657 0.0
C948 C 0.61585 0.88069 0.26749 0.0
H949 H 0.63711 0.8656 0.17557 0.0
H950 H 0.63379 0.86183 0.20713 0.0
H951 H 0.62974 0.91195 0.23878 0.0
H952 H 0.5953 0.89815 0.32217 0.0
H953 H 0.59777 0.90149 0.29034 0.0
C954 C 0.61702 0.09676 0.823 0.0
C955 C 0.62586 0.10967 0.83294 0.0
C956 C 0.61728 0.09734 0.80465 0.0
C957 C 0.62464 0.1279 0.76779 0.0
H958 H 0.63047 0.08513 0.74053 0.0
C959 C 0.61704 0.12616 0.69227 0.0
C960 C 0.62929 0.11602 0.68288 0.0
C961 C 0.61638 0.12536 0.7106 0.0
C962 C 0.62894 0.0972 0.74796 0.0
H963 H 0.64214 0.13315 0.83142 0.0
H964 H 0.64277 0.134 0.79947 0.0
H965 H 0.63014 0.08365 0.77254 0.0
H966 H 0.6506 0.09726 0.68535 0.0
H967 H 0.64959 0.09604 0.7173 0.0
H968 H 0.62385 0.14151 0.74324 0.0
C969 C 0.63539 0.1236 0.80584 0.0
C970 C 0.62855 0.09633 0.76629 0.0
C971 C 0.63512 0.12304 0.82416 0.0
C972 C 0.64095 0.10518 0.69219 0.0
C973 C 0.6403 0.10438 0.7105 0.0
C974 C 0.62503 0.12878 0.74947 0.0
C975 C 0.62639 0.11083 0.79588 0.0
C976 C 0.62648 0.11168 0.7764 0.0
C977 C 0.62797 0.11441 0.71991 0.0
C978 C 0.62726 0.11345 0.73936 0.0
H979 H 0.60972 0.08632 0.82938 0.0
H980 H 0.61008 0.08741 0.79733 0.0
H981 H 0.62281 0.13994 0.77521 0.0
H982 H 0.60785 0.13461 0.68547 0.0
H983 H 0.60662 0.1331 0.71747 0.0
C984 C 0.88409 0.81354 0.62476 0.0
C985 C 0.87316 0.82299 0.61327 0.0
C986 C 0.88459 0.79518 0.62403 0.0
C987 C 0.87596 0.75804 0.59414 0.0
H988 H 0.87764 0.73034 0.63682 0.0
C989 C 0.89461 0.68451 0.59471 0.0
C990 C 0.88507 0.67337 0.60593 0.0
C991 C 0.8921 0.7027 0.5953 0.0
C992 C 0.87702 0.73789 0.62478 0.0
H993 H 0.854 0.82058 0.59221 0.0
H994 H 0.85484 0.78855 0.59102 0.0
H995 H 0.87495 0.76227 0.63878 0.0
H996 H 0.86515 0.67254 0.62634 0.0
H997 H 0.86074 0.70429 0.62728 0.0
H998 H 0.87793 0.73365 0.58013 0.0
C999 C 0.86315 0.79535 0.60044 0.0
C1000 C 0.87568 0.75617 0.62591 0.0
C1001 C 0.86261 0.8137 0.6012 0.0
C1002 C 0.87275 0.68077 0.61754 0.0
C1003 C 0.87029 0.69896 0.61817 0.0
C1004 C 0.87737 0.73976 0.593 0.0
C1005 C 0.87422 0.7859 0.61178 0.0
C1006 C 0.8752 0.76645 0.6106 0.0
C1007 C 0.88004 0.71013 0.60715 0.0
C1008 C 0.87798 0.72949 0.60831 0.0
H1009 H 0.89239 0.82032 0.6342 0.0
H1010 H 0.89339 0.78828 0.63281 0.0
H1011 H 0.87578 0.76562 0.58211 0.0
H1012 H 0.90421 0.67923 0.58562 0.0
H1013 H 0.89994 0.71097 0.58677 0.0
C1014 C 0.81335 0.39027 0.13687 0.0
C1015 C 0.8231 0.37582 0.13077 0.0
C1016 C 0.79497 0.38971 0.13687 0.0
C1017 C 0.75812 0.35882 0.13847 0.0
H1018 H 0.73052 0.39745 0.12014 0.0
C1019 C 0.6832 0.35314 0.12902 0.0
C1020 C 0.67287 0.36805 0.13239 0.0
C1021 C 0.70152 0.35435 0.12901 0.0
C1022 C 0.73801 0.38666 0.12556 0.0
H1023 H 0.82125 0.3495 0.11975 0.0
H1024 H 0.78916 0.34848 0.11993 0.0
H1025 H 0.76258 0.39923 0.11966 0.0
H1026 H 0.67364 0.3959 0.13866 0.0
H1027 H 0.70565 0.39794 0.13915 0.0
H1028 H 0.7337 0.34634 0.14471 0.0
C1029 C 0.79576 0.36021 0.12473 0.0
C1030 C 0.75637 0.38767 0.12521 0.0
C1031 C 0.81412 0.36085 0.12453 0.0
C1032 C 0.68125 0.38418 0.13592 0.0
C1033 C 0.6996 0.38537 0.13609 0.0
C1034 C 0.73979 0.35788 0.139 0.0
C1035 C 0.78602 0.3746 0.13096 0.0
C1036 C 0.76658 0.37371 0.13155 0.0
C1037 C 0.70997 0.37048 0.13256 0.0
C1038 C 0.72949 0.37173 0.13244 0.0
H1039 H 0.8199 0.40201 0.14172 0.0
H1040 H 0.78776 0.40094 0.14184 0.0
H1041 H 0.7657 0.34799 0.1437 0.0
H1042 H 0.67714 0.34053 0.12612 0.0
H1043 H 0.70905 0.34268 0.12592 0.0
C1044 C 0.09846 0.19272 0.62249 0.0
C1045 C 0.10927 0.18214 0.63304 0.0
C1046 C 0.09985 0.21104 0.62323 0.0
C1047 C 0.11639 0.24785 0.65051 0.0
H1048 H 0.11753 0.27288 0.60619 0.0
C1049 C 0.13547 0.32128 0.64621 0.0
C1050 C 0.12535 0.3318 0.63494 0.0
C1051 C 0.13358 0.30298 0.646 0.0
C1052 C 0.11704 0.26612 0.61869 0.0
H1053 H 0.12967 0.18251 0.65305 0.0
H1054 H 0.13212 0.21446 0.65429 0.0
H1055 H 0.11333 0.24109 0.60626 0.0
H1056 H 0.10542 0.33135 0.61446 0.0
H1057 H 0.10202 0.2995 0.61421 0.0
H1058 H 0.12008 0.2729 0.66294 0.0
C1059 C 0.12249 0.2086 0.64551 0.0
C1060 C 0.11461 0.2479 0.61873 0.0
C1061 C 0.12114 0.19028 0.64474 0.0
C1062 C 0.11347 0.32363 0.62328 0.0
C1063 C 0.11158 0.30535 0.62308 0.0
C1064 C 0.11879 0.26609 0.65048 0.0
C1065 C 0.11204 0.21917 0.63459 0.0
C1066 C 0.11426 0.23857 0.63464 0.0
C1067 C 0.12152 0.29482 0.63451 0.0
C1068 C 0.11915 0.27542 0.63456 0.0
H1069 H 0.08914 0.18687 0.61338 0.0
H1070 H 0.09143 0.21885 0.61485 0.0
H1071 H 0.11597 0.24105 0.66299 0.0
H1072 H 0.14476 0.32716 0.65532 0.0
H1073 H 0.14162 0.29522 0.65478 0.0
C1074 C 0.19052 0.64772 0.13877 0.0
C1075 C 0.17998 0.64912 0.12367 0.0
C1076 C 0.2088 0.64693 0.13736 0.0
C1077 C 0.2441 0.63672 0.10543 0.0
H1078 H 0.27391 0.65734 0.14151 0.0
C1079 C 0.32017 0.6404 0.10099 0.0
C1080 C 0.32934 0.63491 0.11605 0.0
C1081 C 0.30191 0.6424 0.1014 0.0
C1082 C 0.26571 0.65144 0.13141 0.0
H1083 H 0.18032 0.65137 0.09527 0.0
H1084 H 0.21231 0.65057 0.09281 0.0
H1085 H 0.24214 0.66141 0.14295 0.0
H1086 H 0.32657 0.62711 0.14332 0.0
H1087 H 0.29468 0.63083 0.14407 0.0
H1088 H 0.26785 0.62705 0.09378 0.0
C1089 C 0.20644 0.64959 0.10573 0.0
C1090 C 0.24752 0.65371 0.13223 0.0
C1091 C 0.18811 0.65017 0.10714 0.0
C1092 C 0.31988 0.63133 0.13149 0.0
C1093 C 0.30166 0.63357 0.13197 0.0
C1094 C 0.26233 0.63464 0.1045 0.0
C1095 C 0.217 0.64776 0.12082 0.0
C1096 C 0.23645 0.6462 0.11937 0.0
C1097 C 0.29253 0.63918 0.11694 0.0
C1098 C 0.27327 0.64182 0.11759 0.0
H1099 H 0.18465 0.64675 0.1517 0.0
H1100 H 0.21645 0.64521 0.14924 0.0
H1101 H 0.23599 0.6305 0.09546 0.0
H1102 H 0.3271 0.64322 0.08888 0.0
H1103 H 0.29517 0.64681 0.08967 0.0
C1104 C 0.8797 0.18161 0.3861 0.0
C1105 C 0.86926 0.17371 0.37297 0.0
C1106 C 0.87958 0.19982 0.38851 0.0
C1107 C 0.86871 0.24137 0.36617 0.0
H1108 H 0.8673 0.26027 0.41358 0.0
C1109 C 0.85712 0.31487 0.37959 0.0
C1110 C 0.86785 0.32296 0.39236 0.0
C1111 C 0.85692 0.29661 0.37768 0.0
C1112 C 0.86787 0.25519 0.40027 0.0
H1113 H 0.85064 0.17878 0.35196 0.0
H1114 H 0.85036 0.21057 0.35625 0.0
H1115 H 0.86798 0.22848 0.40907 0.0
H1116 H 0.88648 0.31818 0.41343 0.0
H1117 H 0.88622 0.28624 0.41001 0.0
H1118 H 0.86862 0.26805 0.35736 0.0
C1119 C 0.85877 0.20268 0.36457 0.0
C1120 C 0.86827 0.23699 0.39768 0.0
C1121 C 0.85887 0.18445 0.36216 0.0
C1122 C 0.87806 0.31235 0.40347 0.0
C1123 C 0.87786 0.29405 0.40156 0.0
C1124 C 0.8683 0.25955 0.36876 0.0
C1125 C 0.86905 0.21055 0.37783 0.0
C1126 C 0.86869 0.22988 0.3806 0.0
C1127 C 0.86745 0.28601 0.3885 0.0
C1128 C 0.86785 0.26667 0.38583 0.0
H1129 H 0.88789 0.17372 0.39463 0.0
H1130 H 0.88785 0.20552 0.39867 0.0
H1131 H 0.86931 0.23631 0.35285 0.0
H1132 H 0.84901 0.32265 0.37087 0.0
H1133 H 0.84853 0.29079 0.3677 0.0
C1134 C 0.18196 0.37194 0.88524 0.0
C1135 C 0.1742 0.37652 0.86911 0.0
C1136 C 0.20025 0.37085 0.88681 0.0
C1137 C 0.24085 0.38784 0.8674 0.0
H1138 H 0.26312 0.34875 0.89118 0.0
C1139 C 0.31621 0.37939 0.86844 0.0
C1140 C 0.32391 0.3731 0.88399 0.0
C1141 C 0.29793 0.37952 0.86647 0.0
C1142 C 0.25711 0.35989 0.88471 0.0
H1143 H 0.17953 0.38335 0.84195 0.0
H1144 H 0.21144 0.38155 0.84477 0.0
H1145 H 0.23117 0.34929 0.88809 0.0
H1146 H 0.3185 0.36226 0.90976 0.0
H1147 H 0.28663 0.36292 0.90653 0.0
H1148 H 0.26665 0.39866 0.86429 0.0
C1149 C 0.20336 0.37886 0.85618 0.0
C1150 C 0.23881 0.36015 0.88289 0.0
C1151 C 0.18509 0.37979 0.85456 0.0
C1152 C 0.31296 0.36709 0.89758 0.0
C1153 C 0.29469 0.36736 0.89567 0.0
C1154 C 0.25912 0.38767 0.86934 0.0
C1155 C 0.21112 0.37449 0.87235 0.0
C1156 C 0.23052 0.37411 0.8742 0.0
C1157 C 0.28694 0.37351 0.88007 0.0
C1158 C 0.26748 0.37368 0.878 0.0
H1159 H 0.17393 0.36933 0.89669 0.0
H1160 H 0.20589 0.36757 0.89946 0.0
H1161 H 0.23476 0.3989 0.86085 0.0
H1162 H 0.3243 0.384 0.85768 0.0
H1163 H 0.29244 0.38409 0.85418 0.0
C1164 C 0.13572 0.82424 0.33985 0.0
C1165 C 0.1316 0.83328 0.35543 0.0
C1166 C 0.13573 0.80587 0.33943 0.0
C1167 C 0.12027 0.76662 0.36421 0.0
H1168 H 0.15551 0.74278 0.33615 0.0
C1169 C 0.13483 0.69214 0.36917 0.0
C1170 C 0.13531 0.68299 0.35309 0.0
C1171 C 0.13411 0.7105 0.36944 0.0
C1172 C 0.14554 0.74929 0.34395 0.0
H1173 H 0.12433 0.83021 0.3828 0.0
H1174 H 0.12492 0.79822 0.38226 0.0
H1175 H 0.1548 0.77483 0.33675 0.0
H1176 H 0.13561 0.68584 0.32473 0.0
H1177 H 0.13469 0.71796 0.32526 0.0
H1178 H 0.11141 0.74094 0.37176 0.0
C1179 C 0.12768 0.80524 0.37021 0.0
C1180 C 0.14505 0.76765 0.34424 0.0
C1181 C 0.12743 0.8236 0.37056 0.0
C1182 C 0.13521 0.69254 0.33731 0.0
C1183 C 0.13477 0.71089 0.3376 0.0
C1184 C 0.12094 0.74827 0.36411 0.0
C1185 C 0.13185 0.79613 0.35464 0.0
C1186 C 0.13236 0.77656 0.35433 0.0
C1187 C 0.13414 0.72002 0.35366 0.0
C1188 C 0.13354 0.73945 0.35393 0.0
H1189 H 0.13885 0.83135 0.32794 0.0
H1190 H 0.13865 0.79933 0.32711 0.0
H1191 H 0.11012 0.773 0.37188 0.0
H1192 H 0.13484 0.68511 0.38153 0.0
H1193 H 0.13374 0.71727 0.38199 0.0
C1194 C 0.82297 0.61802 0.90955 0.0
C1195 C 0.83219 0.61306 0.89434 0.0
C1196 C 0.8046 0.61921 0.9093 0.0
C1197 C 0.7673 0.62383 0.87823 0.0
H1198 H 0.73915 0.60904 0.91804 0.0
C1199 C 0.69186 0.61717 0.87451 0.0
C1200 C 0.68227 0.62445 0.88852 0.0
C1201 C 0.71013 0.61563 0.87559 0.0
C1202 C 0.74687 0.61334 0.90689 0.0
H1203 H 0.82937 0.60495 0.86709 0.0
H1204 H 0.79747 0.60662 0.86677 0.0
H1205 H 0.77116 0.60646 0.91934 0.0
H1206 H 0.68429 0.63558 0.91476 0.0
H1207 H 0.71623 0.6328 0.91665 0.0
H1208 H 0.743 0.63049 0.86571 0.0
C1209 C 0.80437 0.61005 0.87878 0.0
C1210 C 0.7652 0.61192 0.90764 0.0
C1211 C 0.82268 0.60898 0.879 0.0
C1212 C 0.69131 0.62995 0.90372 0.0
C1213 C 0.70958 0.62827 0.90486 0.0
C1214 C 0.74901 0.62513 0.87744 0.0
C1215 C 0.7951 0.61537 0.89385 0.0
C1216 C 0.77562 0.61709 0.89328 0.0
C1217 C 0.71918 0.6212 0.89076 0.0
C1218 C 0.7386 0.61986 0.89173 0.0
H1219 H 0.82994 0.62129 0.92157 0.0
H1220 H 0.79789 0.62352 0.92109 0.0
H1221 H 0.77492 0.6283 0.86708 0.0
H1222 H 0.68527 0.61278 0.86263 0.0
H1223 H 0.71719 0.60997 0.86459 0.0
C1224 C 0.61953 0.85941 0.81157 0.0
C1225 C 0.62957 0.87075 0.82226 0.0
C1226 C 0.62062 0.86042 0.79328 0.0
C1227 C 0.63346 0.89035 0.75741 0.0
H1228 H 0.63383 0.84753 0.72953 0.0
C1229 C 0.646 0.8904 0.68254 0.0
C1230 C 0.63526 0.87935 0.67222 0.0
C1231 C 0.64563 0.88933 0.70086 0.0
C1232 C 0.63356 0.8596 0.73713 0.0
H1233 H 0.64872 0.89198 0.82214 0.0
H1234 H 0.65077 0.89362 0.79019 0.0
H1235 H 0.63274 0.84568 0.76151 0.0
H1236 H 0.61572 0.85848 0.67306 0.0
H1237 H 0.615 0.8567 0.70504 0.0
H1238 H 0.63428 0.90426 0.73301 0.0
C1239 C 0.64187 0.8841 0.79596 0.0
C1240 C 0.63294 0.85855 0.75544 0.0
C1241 C 0.64077 0.88309 0.81426 0.0
C1242 C 0.62418 0.86717 0.68063 0.0
C1243 C 0.62384 0.86607 0.69895 0.0
C1244 C 0.63411 0.8914 0.73909 0.0
C1245 C 0.63179 0.87278 0.78525 0.0
C1246 C 0.63281 0.87391 0.76579 0.0
C1247 C 0.63455 0.87715 0.70927 0.0
C1248 C 0.63411 0.87604 0.72874 0.0
H1249 H 0.61072 0.84979 0.8173 0.0
H1250 H 0.61249 0.85168 0.78542 0.0
H1251 H 0.63312 0.90243 0.76499 0.0
H1252 H 0.65472 0.8999 0.67647 0.0
H1253 H 0.65418 0.8979 0.70845 0.0
C1254 C 0.64006 0.12697 0.18825 0.0
C1255 C 0.62797 0.13859 0.18057 0.0
C1256 C 0.64227 0.12656 0.20648 0.0
C1257 C 0.63327 0.15183 0.24737 0.0
H1258 H 0.63763 0.10611 0.26938 0.0
C1259 C 0.62384 0.14021 0.32191 0.0
C1260 C 0.63575 0.12878 0.33016 0.0
C1261 C 0.62407 0.14226 0.30366 0.0
C1262 C 0.63664 0.11899 0.26341 0.0
H1263 H 0.60885 0.15903 0.18598 0.0
H1264 H 0.61241 0.15804 0.21775 0.0
H1265 H 0.63595 0.10809 0.23749 0.0
H1266 H 0.65744 0.1108 0.32577 0.0
H1267 H 0.65776 0.11436 0.29395 0.0
H1268 H 0.63355 0.16262 0.27344 0.0
C1269 C 0.62045 0.14947 0.20971 0.0
C1270 C 0.63572 0.12014 0.24513 0.0
C1271 C 0.61833 0.14996 0.19148 0.0
C1272 C 0.64806 0.11967 0.31982 0.0
C1273 C 0.64819 0.12163 0.30159 0.0
C1274 C 0.63408 0.15065 0.26569 0.0
C1275 C 0.63234 0.13767 0.21744 0.0
C1276 C 0.63396 0.13656 0.23688 0.0
C1277 C 0.63611 0.13283 0.29331 0.0
C1278 C 0.63571 0.13421 0.27388 0.0
H1279 H 0.64777 0.11812 0.18019 0.0
H1280 H 0.65176 0.11751 0.21197 0.0
H1281 H 0.6322 0.16471 0.24144 0.0
H1282 H 0.61421 0.14742 0.32952 0.0
H1283 H 0.6145 0.15087 0.29761 0.0
C1284 C 0.37838 0.12434 0.69137 0.0
C1285 C 0.39432 0.12611 0.68221 0.0
C1286 C 0.37815 0.12432 0.7097 0.0
C1287 C 0.40682 0.11863 0.74881 0.0
H1288 H 0.36785 0.14123 0.77268 0.0
C1289 C 0.405 0.13208 0.82383 0.0
C1290 C 0.38932 0.12742 0.83245 0.0
C1291 C 0.40598 0.1316 0.80549 0.0
C1292 C 0.37874 0.13476 0.76617 0.0
H1293 H 0.42254 0.1293 0.68508 0.0
H1294 H 0.42211 0.1298 0.71715 0.0
H1295 H 0.36909 0.14145 0.74069 0.0
H1296 H 0.3624 0.11859 0.82865 0.0
H1297 H 0.36408 0.118 0.79659 0.0
H1298 H 0.4166 0.11235 0.77448 0.0
C1299 C 0.40981 0.12802 0.71017 0.0
C1300 C 0.37944 0.13482 0.74784 0.0
C1301 C 0.41005 0.12783 0.69178 0.0
C1302 C 0.37466 0.12224 0.82238 0.0
C1303 C 0.37558 0.12198 0.80405 0.0
C1304 C 0.4062 0.11877 0.76718 0.0
C1305 C 0.39383 0.1263 0.71936 0.0
C1306 C 0.39341 0.12663 0.73891 0.0
C1307 C 0.39124 0.12669 0.79544 0.0
C1308 C 0.39209 0.12672 0.77601 0.0
H1309 H 0.36604 0.12281 0.68437 0.0
H1310 H 0.36565 0.12257 0.71629 0.0
H1311 H 0.41763 0.11198 0.7424 0.0
H1312 H 0.41653 0.13608 0.83123 0.0
H1313 H 0.41817 0.13539 0.79916 0.0
C1314 C 0.36646 0.88193 0.18054 0.0
C1315 C 0.37955 0.87185 0.1723 0.0
C1316 C 0.36472 0.88182 0.19882 0.0
C1317 C 0.37647 0.85607 0.23832 0.0
H1318 H 0.36677 0.89981 0.26277 0.0
C1319 C 0.3819 0.86401 0.31381 0.0
C1320 C 0.36872 0.87386 0.32219 0.0
C1321 C 0.38263 0.8631 0.29547 0.0
C1322 C 0.36928 0.88746 0.25611 0.0
H1323 H 0.40115 0.85382 0.17679 0.0
H1324 H 0.39831 0.85387 0.20866 0.0
H1325 H 0.36932 0.8997 0.23085 0.0
H1326 H 0.34574 0.89018 0.31791 0.0
H1327 H 0.34701 0.88853 0.28595 0.0
H1328 H 0.37664 0.84391 0.26368 0.0
C1329 C 0.38918 0.86162 0.201 0.0
C1330 C 0.37073 0.88738 0.23782 0.0
C1331 C 0.39088 0.86168 0.18272 0.0
C1332 C 0.3561 0.88252 0.31187 0.0
C1333 C 0.35688 0.88167 0.29355 0.0
C1334 C 0.37509 0.85616 0.25663 0.0
C1335 C 0.37607 0.87168 0.20926 0.0
C1336 C 0.37435 0.87169 0.22871 0.0
C1337 C 0.37024 0.87209 0.28516 0.0
C1338 C 0.37149 0.87186 0.26571 0.0
H1339 H 0.35746 0.88984 0.17287 0.0
H1340 H 0.35433 0.88953 0.20475 0.0
H1341 H 0.379 0.84371 0.23169 0.0
H1342 H 0.39182 0.85719 0.32139 0.0
H1343 H 0.39316 0.85572 0.28936 0.0
C1344 C 0.10198 0.10483 0.56912 0.0
C1345 C 0.11294 0.11556 0.57954 0.0
C1346 C 0.10351 0.10495 0.55079 0.0
C1347 C 0.13447 0.11663 0.51528 0.0
H1348 H 0.09259 0.11908 0.48622 0.0
C1349 C 0.13706 0.13656 0.44251 0.0
C1350 C 0.12616 0.12748 0.43061 0.0
C1351 C 0.13548 0.13375 0.46056 0.0
C1352 C 0.10441 0.11815 0.49414 0.0
H1353 H 0.13405 0.13489 0.57887 0.0
H1354 H 0.13658 0.13517 0.54706 0.0
H1355 H 0.08968 0.11645 0.51806 0.0
H1356 H 0.10511 0.10822 0.42828 0.0
H1357 H 0.10245 0.10325 0.45984 0.0
H1358 H 0.14921 0.11852 0.49143 0.0
C1359 C 0.12698 0.12648 0.55301 0.0
C1360 C 0.10273 0.11664 0.51237 0.0
C1361 C 0.12544 0.1264 0.57126 0.0
C1362 C 0.11369 0.11546 0.43713 0.0
C1363 C 0.11209 0.11267 0.4552 0.0
C1364 C 0.13614 0.11813 0.49709 0.0
C1365 C 0.11607 0.11575 0.54256 0.0
C1366 C 0.11776 0.11611 0.52315 0.0
C1367 C 0.12296 0.12181 0.46711 0.0
C1368 C 0.12114 0.11915 0.48633 0.0
H1369 H 0.09224 0.09632 0.5751 0.0
H1370 H 0.095 0.09644 0.54308 0.0
H1371 H 0.1463 0.11591 0.52321 0.0
H1372 H 0.14677 0.14594 0.43792 0.0
H1373 H 0.14388 0.14118 0.46942 0.0
C1374 C 0.39937 0.64109 0.93726 0.0
C1375 C 0.396 0.6268 0.92601 0.0
C1376 C 0.40082 0.63857 0.95536 0.0
C1377 C 0.40602 0.60444 0.98992 0.0
H1378 H 0.3836 0.63989 0.01895 0.0
C1379 C 0.38854 0.59588 0.0639 0.0
C1380 C 0.39204 0.61042 0.07485 0.0
C1381 C 0.39095 0.59713 0.04571 0.0
C1382 C 0.39008 0.62997 0.01103 0.0
H1383 H 0.39196 0.59856 0.92481 0.0
H1384 H 0.39399 0.5942 0.95648 0.0
H1385 H 0.38421 0.64352 0.98725 0.0
H1386 H 0.40151 0.63742 0.07539 0.0
H1387 H 0.40557 0.63956 0.04376 0.0
H1388 H 0.41136 0.59068 0.01393 0.0
C1389 C 0.39587 0.60733 0.95132 0.0
C1390 C 0.39051 0.63208 0.99285 0.0
C1391 C 0.39462 0.60983 0.93316 0.0
C1392 C 0.39858 0.62599 0.06733 0.0
C1393 C 0.40085 0.62727 0.04921 0.0
C1394 C 0.40544 0.60226 0.00817 0.0
C1395 C 0.39869 0.62172 0.96266 0.0
C1396 C 0.39855 0.6194 0.98205 0.0
C1397 C 0.39675 0.61298 0.03819 0.0
C1398 C 0.39754 0.61506 0.01887 0.0
H1399 H 0.4007 0.6543 0.93211 0.0
H1400 H 0.40343 0.6499 0.96365 0.0
H1401 H 0.41246 0.59451 0.98201 0.0
H1402 H 0.38355 0.58368 0.0693 0.0
H1403 H 0.38763 0.58594 0.03748 0.0
C1404 C 0.91723 0.86855 0.42933 0.0
C1405 C 0.90224 0.87532 0.42094 0.0
C1406 C 0.91931 0.87027 0.44752 0.0
C1407 C 0.9037 0.89541 0.4861 0.0
H1408 H 0.91729 0.85385 0.51215 0.0
C1409 C 0.89163 0.88795 0.56036 0.0
C1410 C 0.9042 0.87903 0.57051 0.0
C1411 C 0.8934 0.88895 0.54213 0.0
C1412 C 0.91379 0.86567 0.50508 0.0
H1413 H 0.87784 0.88951 0.42498 0.0
H1414 H 0.88143 0.8924 0.45668 0.0
H1415 H 0.91674 0.85292 0.48014 0.0
H1416 H 0.92881 0.86468 0.56955 0.0
H1417 H 0.93197 0.86659 0.5377 0.0
H1418 H 0.90048 0.90808 0.51106 0.0
C1419 C 0.89166 0.88591 0.4492 0.0
C1420 C 0.91345 0.86513 0.48673 0.0
C1421 C 0.88955 0.88414 0.43104 0.0
C1422 C 0.91885 0.87157 0.56209 0.0
C1423 C 0.92062 0.87258 0.54384 0.0
C1424 C 0.90407 0.89597 0.50445 0.0
C1425 C 0.90649 0.87887 0.45765 0.0
C1426 C 0.90815 0.87991 0.47706 0.0
C1427 C 0.90779 0.88108 0.53364 0.0
C1428 C 0.90886 0.88102 0.51415 0.0
H1429 H 0.92729 0.86174 0.42191 0.0
H1430 H 0.93097 0.86487 0.45365 0.0
H1431 H 0.89983 0.9071 0.47899 0.0
H1432 H 0.88018 0.89383 0.56643 0.0
H1433 H 0.88316 0.8954 0.53465 0.0
C1434 C 0.59747 0.37743 0.93566 0.0
C1435 C 0.59786 0.36132 0.92651 0.0
C1436 C 0.59677 0.37773 0.95401 0.0
C1437 C 0.61011 0.35121 0.9914 0.0
H1438 H 0.58135 0.38305 0.01893 0.0
C1439 C 0.61111 0.34913 0.0667 0.0
C1440 C 0.61098 0.36526 0.07575 0.0
C1441 C 0.6077 0.34848 0.04869 0.0
C1442 C 0.5896 0.37421 0.01141 0.0
H1443 H 0.59699 0.33294 0.92941 0.0
H1444 H 0.59585 0.33352 0.96142 0.0
H1445 H 0.57818 0.38226 0.98693 0.0
H1446 H 0.60689 0.39334 0.07313 0.0
H1447 H 0.60145 0.39229 0.04151 0.0
H1448 H 0.62196 0.34349 0.0156 0.0
C1449 C 0.59623 0.34587 0.95438 0.0
C1450 C 0.58772 0.37372 0.99312 0.0
C1451 C 0.5968 0.34556 0.93605 0.0
C1452 C 0.60706 0.38071 0.06649 0.0
C1453 C 0.60384 0.38008 0.04839 0.0
C1454 C 0.6121 0.3518 0.00961 0.0
C1455 C 0.59657 0.36195 0.96355 0.0
C1456 C 0.59796 0.36219 0.98296 0.0
C1457 C 0.6043 0.36396 0.03925 0.0
C1458 C 0.60187 0.36329 0.01987 0.0
H1459 H 0.59821 0.3898 0.92868 0.0
H1460 H 0.59714 0.39031 0.96075 0.0
H1461 H 0.61843 0.34244 0.98386 0.0
H1462 H 0.61384 0.33696 0.07352 0.0
H1463 H 0.60777 0.33579 0.04217 0.0
C1464 C 0.11465 0.90076 0.56597 0.0
C1465 C 0.13176 0.89694 0.57185 0.0
C1466 C 0.1114 0.90386 0.54817 0.0
C1467 C 0.13282 0.91507 0.50613 0.0
H1468 H 0.09463 0.88816 0.48528 0.0
C1469 C 0.12937 0.89981 0.4323 0.0
C1470 C 0.11288 0.89915 0.42394 0.0
C1471 C 0.13057 0.90227 0.45043 0.0
C1472 C 0.10513 0.89604 0.49091 0.0
H1473 H 0.15897 0.89401 0.5638 0.0
H1474 H 0.15328 0.89942 0.53275 0.0
H1475 H 0.09881 0.88785 0.51703 0.0
H1476 H 0.08471 0.90107 0.42801 0.0
H1477 H 0.08682 0.90554 0.45976 0.0
H1478 H 0.13933 0.92305 0.47999 0.0
C1479 C 0.1424 0.90009 0.54191 0.0
C1480 C 0.10753 0.89584 0.50911 0.0
C1481 C 0.14564 0.89688 0.55968 0.0
C1482 C 0.09761 0.90143 0.43407 0.0
C1483 C 0.09881 0.90391 0.45226 0.0
C1484 C 0.13037 0.91534 0.48794 0.0
C1485 C 0.12521 0.90332 0.53593 0.0
C1486 C 0.12162 0.90507 0.51687 0.0
C1487 C 0.11532 0.90419 0.46066 0.0
C1488 C 0.11672 0.90553 0.48009 0.0
H1489 H 0.10367 0.90094 0.57503 0.0
H1490 H 0.09805 0.90649 0.54396 0.0
H1491 H 0.14363 0.92252 0.51179 0.0
H1492 H 0.14142 0.89812 0.42489 0.0
H1493 H 0.14348 0.90213 0.45649 0.0
C1494 C 0.60926 0.6171 0.93335 0.0
C1495 C 0.61861 0.60377 0.92461 0.0
C1496 C 0.60686 0.61642 0.95152 0.0
C1497 C 0.60976 0.58724 0.99042 0.0
H1498 H 0.61935 0.631 0.01505 0.0
C1499 C 0.6262 0.59123 0.06461 0.0
C1500 C 0.61966 0.60565 0.07415 0.0
C1501 C 0.62374 0.59016 0.04643 0.0
C1502 C 0.61635 0.61873 0.00839 0.0
H1503 H 0.63212 0.57892 0.92798 0.0
H1504 H 0.62815 0.57788 0.95973 0.0
H1505 H 0.61896 0.63057 0.98312 0.0
H1506 H 0.60474 0.62986 0.07223 0.0
H1507 H 0.60033 0.6279 0.04058 0.0
H1508 H 0.60754 0.57536 0.01583 0.0
C1509 C 0.62251 0.58876 0.95252 0.0
C1510 C 0.61611 0.61848 0.99007 0.0
C1511 C 0.62488 0.5894 0.93432 0.0
C1512 C 0.61009 0.61866 0.06524 0.0
C1513 C 0.60762 0.61758 0.04709 0.0
C1514 C 0.61002 0.58748 0.0088 0.0
C1515 C 0.61379 0.60244 0.96136 0.0
C1516 C 0.61293 0.60272 0.98086 0.0
C1517 C 0.61467 0.60348 0.03744 0.0
C1518 C 0.61344 0.60322 0.01797 0.0
H1519 H 0.60413 0.62828 0.92623 0.0
H1520 H 0.59979 0.62701 0.95791 0.0
H1521 H 0.60708 0.57493 0.98369 0.0
H1522 H 0.63361 0.58098 0.0711 0.0
H1523 H 0.62947 0.57922 0.03934 0.0
C1524 C 0.84804 0.11383 0.44442 0.0
C1525 C 0.86379 0.11216 0.43498 0.0
C1526 C 0.84762 0.1106 0.46244 0.0
C1527 C 0.87301 0.09088 0.4993 0.0
H1528 H 0.84404 0.12217 0.52724 0.0
C1529 C 0.87773 0.09933 0.57521 0.0
C1530 C 0.86166 0.10013 0.58431 0.0
C1531 C 0.87796 0.09868 0.55683 0.0
C1532 C 0.85204 0.11322 0.51959 0.0
H1533 H 0.89143 0.10548 0.43689 0.0
H1534 H 0.89089 0.10043 0.46855 0.0
H1535 H 0.84463 0.12536 0.49548 0.0
H1536 H 0.83324 0.10015 0.58132 0.0
H1537 H 0.83371 0.09921 0.54931 0.0
H1538 H 0.88084 0.07921 0.52373 0.0
C1539 C 0.87874 0.10385 0.46198 0.0
C1540 C 0.85234 0.11498 0.50136 0.0
C1541 C 0.87909 0.10684 0.44385 0.0
C1542 C 0.84585 0.09962 0.57472 0.0
C1543 C 0.8461 0.09915 0.55639 0.0
C1544 C 0.87287 0.08927 0.51762 0.0
C1545 C 0.86303 0.10589 0.47153 0.0
C1546 C 0.86276 0.10379 0.49096 0.0
C1547 C 0.86214 0.09901 0.54728 0.0
C1548 C 0.8623 0.10038 0.52789 0.0
H1549 H 0.83598 0.11767 0.43788 0.0
H1550 H 0.83519 0.11187 0.46926 0.0
H1551 H 0.88103 0.08191 0.4917 0.0
H1552 H 0.89013 0.09963 0.58224 0.0
H1553 H 0.89051 0.09864 0.55009 0.0
C1554 C 0.38923 0.38518 0.93989 0.0
C1555 C 0.38273 0.39893 0.92945 0.0
C1556 C 0.39031 0.38706 0.95812 0.0
C1557 C 0.37075 0.41191 0.99465 0.0
H1558 H 0.40924 0.39184 0.02133 0.0
C1559 C 0.37438 0.41701 0.07031 0.0
C1560 C 0.37849 0.40132 0.0791 0.0
C1561 C 0.3764 0.41824 0.0521 0.0
C1562 C 0.39837 0.39744 0.01406 0.0
H1563 H 0.37271 0.42562 0.92993 0.0
H1564 H 0.37476 0.42894 0.96178 0.0
H1565 H 0.41025 0.39143 0.98927 0.0
H1566 H 0.38831 0.37474 0.07574 0.0
H1567 H 0.39173 0.37688 0.044 0.0
H1568 H 0.35876 0.41769 0.01943 0.0
C1569 C 0.37879 0.41662 0.95586 0.0
C1570 C 0.39894 0.3972 0.99571 0.0
C1571 C 0.37771 0.41474 0.9376 0.0
C1572 C 0.38501 0.38702 0.06936 0.0
C1573 C 0.38709 0.38828 0.05118 0.0
C1574 C 0.3702 0.41219 0.013 0.0
C1575 C 0.38492 0.40273 0.96633 0.0
C1576 C 0.38501 0.40421 0.9858 0.0
C1577 C 0.38264 0.40384 0.04233 0.0
C1578 C 0.38389 0.40473 0.0229 0.0
H1579 H 0.39318 0.37281 0.93402 0.0
H1580 H 0.39487 0.37601 0.96581 0.0
H1581 H 0.35969 0.4172 0.98742 0.0
H1582 H 0.36938 0.42828 0.07745 0.0
H1583 H 0.37304 0.43046 0.04566 0.0
C1584 C 0.56102 0.11164 0.14982 0.0
C1585 C 0.57137 0.11349 0.13467 0.0
C1586 C 0.54269 0.11184 0.14863 0.0
C1587 C 0.50664 0.12567 0.11865 0.0
H1588 H 0.47783 0.10008 0.15202 0.0
C1589 C 0.43023 0.12157 0.11607 0.0
C1590 C 0.42214 0.1273 0.13166 0.0
C1591 C 0.4484 0.1188 0.11557 0.0
C1592 C 0.48577 0.10725 0.14262 0.0
H1593 H 0.57074 0.11627 0.10634 0.0
H1594 H 0.53877 0.11578 0.10412 0.0
H1595 H 0.50969 0.09632 0.15238 0.0
H1596 H 0.42656 0.1343 0.15899 0.0
H1597 H 0.45824 0.129 0.15817 0.0
H1598 H 0.48247 0.13623 0.10871 0.0
C1599 C 0.54472 0.11483 0.11702 0.0
C1600 C 0.50402 0.10523 0.14288 0.0
C1601 C 0.56306 0.11498 0.11825 0.0
C1602 C 0.43247 0.13 0.14676 0.0
C1603 C 0.45054 0.12687 0.14635 0.0
C1604 C 0.48835 0.12741 0.11819 0.0
C1605 C 0.53427 0.11355 0.13223 0.0
C1606 C 0.51474 0.11465 0.1311 0.0
C1607 C 0.45864 0.12132 0.13074 0.0
C1608 C 0.47783 0.11844 0.13035 0.0
H1609 H 0.56707 0.11063 0.16267 0.0
H1610 H 0.53516 0.11117 0.16069 0.0
H1611 H 0.5144 0.1334 0.10958 0.0
H1612 H 0.42256 0.11941 0.10424 0.0
H1613 H 0.45443 0.11449 0.1034 0.0
C1614 C 0.35666 0.93932 0.60316 0.0
C1615 C 0.37076 0.92744 0.60397 0.0
C1616 C 0.35983 0.95738 0.60174 0.0
C1617 C 0.39382 0.9903 0.61194 0.0
H1618 H 0.36426 0.02124 0.58437 0.0
C1619 C 0.40528 0.06531 0.61066 0.0
C1620 C 0.39012 0.07562 0.61277 0.0
C1621 C 0.40384 0.04729 0.60719 0.0
C1622 C 0.37258 0.01276 0.59219 0.0
H1623 H 0.39921 0.92513 0.60316 0.0
H1624 H 0.40469 0.95659 0.60051 0.0
H1625 H 0.35994 0.98944 0.58248 0.0
H1626 H 0.36155 0.07519 0.61242 0.0
H1627 H 0.35907 0.04382 0.60659 0.0
H1628 H 0.4062 0.01357 0.62195 0.0
C1629 C 0.39121 0.95197 0.60128 0.0
C1630 C 0.3701 0.99456 0.59111 0.0
C1631 C 0.38805 0.93394 0.60271 0.0
C1632 C 0.3735 0.06763 0.61089 0.0
C1633 C 0.37207 0.04965 0.60741 0.0
C1634 C 0.39629 0.00847 0.61303 0.0
C1635 C 0.37715 0.96392 0.60107 0.0
C1636 C 0.38055 0.98315 0.60115 0.0
C1637 C 0.38721 0.03923 0.60572 0.0
C1638 C 0.38554 0.01992 0.60335 0.0
H1639 H 0.34319 0.93473 0.6041 0.0
H1640 H 0.34872 0.96625 0.60178 0.0
H1641 H 0.40191 0.98188 0.62005 0.0
H1642 H 0.41827 0.07109 0.61195 0.0
H1643 H 0.41574 0.03963 0.60576 0.0
C1644 C 0.43738 0.88632 0.10741 0.0
C1645 C 0.42727 0.9005 0.11356 0.0
C1646 C 0.45558 0.88799 0.10559 0.0
C1647 C 0.49307 0.91361 0.12241 0.0
H1648 H 0.51795 0.89155 0.08374 0.0
C1649 C 0.56846 0.91814 0.1161 0.0
C1650 C 0.57706 0.90221 0.11244 0.0
C1651 C 0.55021 0.91942 0.11436 0.0
C1652 C 0.51118 0.89771 0.09465 0.0
H1653 H 0.42829 0.9277 0.12225 0.0
H1654 H 0.4601 0.93065 0.11894 0.0
H1655 H 0.48583 0.89119 0.08414 0.0
H1656 H 0.57333 0.87529 0.10355 0.0
H1657 H 0.5415 0.8775 0.10066 0.0
H1658 H 0.51839 0.91987 0.13309 0.0
C1659 C 0.45394 0.91817 0.11573 0.0
C1660 C 0.4928 0.8975 0.09489 0.0
C1661 C 0.43572 0.9165 0.11755 0.0
C1662 C 0.5671 0.88775 0.10648 0.0
C1663 C 0.54886 0.88904 0.10472 0.0
C1664 C 0.51144 0.91384 0.12216 0.0
C1665 C 0.46409 0.90388 0.10987 0.0
C1666 C 0.48355 0.90524 0.1089 0.0
C1667 C 0.54019 0.90481 0.10889 0.0
C1668 C 0.5207 0.90569 0.1084 0.0
H1669 H 0.43129 0.87379 0.10423 0.0
H1670 H 0.46303 0.87666 0.10127 0.0
H1671 H 0.48635 0.91947 0.13352 0.0
H1672 H 0.57576 0.92955 0.12062 0.0
H1673 H 0.54392 0.93181 0.11745 0.0
C1674 C 0.61164 0.06287 0.62232 0.0
C1675 C 0.60899 0.07361 0.60756 0.0
C1676 C 0.60905 0.04475 0.62122 0.0
C1677 C 0.6087 0.00794 0.59017 0.0
H1678 H 0.58703 0.98336 0.62921 0.0
C1679 C 0.61956 0.93438 0.60372 0.0
C1680 C 0.60553 0.92435 0.61041 0.0
C1681 C 0.61777 0.95247 0.60127 0.0
C1682 C 0.59287 0.99 0.61807 0.0
H1683 H 0.60152 0.07371 0.58003 0.0
H1684 H 0.59704 0.04185 0.5781 0.0
H1685 H 0.58754 0.01539 0.62899 0.0
H1686 H 0.57841 0.92534 0.61921 0.0
H1687 H 0.57528 0.95699 0.61487 0.0
H1688 H 0.61419 0.9825 0.57935 0.0
C1689 C 0.60117 0.04756 0.5905 0.0
C1690 C 0.59334 0.00836 0.61804 0.0
C1691 C 0.60369 0.06579 0.59163 0.0
C1692 C 0.5895 0.93272 0.61414 0.0
C1693 C 0.58772 0.95085 0.6117 0.0
C1694 C 0.60827 0.98956 0.59022 0.0
C1695 C 0.60379 0.03688 0.60532 0.0
C1696 C 0.60159 0.01751 0.60429 0.0
C1697 C 0.60191 0.96095 0.60545 0.0
C1698 C 0.60066 0.98039 0.60434 0.0
H1699 H 0.61576 0.06844 0.6348 0.0
H1700 H 0.61149 0.03684 0.63279 0.0
H1701 H 0.6152 0.01463 0.57943 0.0
H1702 H 0.63209 0.92834 0.60069 0.0
H1703 H 0.62903 0.95991 0.59666 0.0
C1704 C 0.43769 0.881 0.88741 0.0
C1705 C 0.43043 0.86735 0.87717 0.0
C1706 C 0.45589 0.88349 0.88817 0.0
C1707 C 0.49576 0.87556 0.86262 0.0
H1708 H 0.52029 0.88501 0.90643 0.0
C1709 C 0.56811 0.8982 0.86445 0.0
C1710 C 0.57908 0.88897 0.87606 0.0
C1711 C 0.54985 0.89624 0.86535 0.0
C1712 C 0.51359 0.88235 0.89412 0.0
H1713 H 0.43658 0.84537 0.85999 0.0
H1714 H 0.46837 0.84979 0.86127 0.0
H1715 H 0.48856 0.87938 0.90672 0.0
H1716 H 0.5795 0.87091 0.89809 0.0
H1717 H 0.5476 0.86761 0.89969 0.0
H1718 H 0.52074 0.87844 0.85001 0.0
C1719 C 0.45995 0.85861 0.86862 0.0
C1720 C 0.49546 0.87925 0.89427 0.0
C1721 C 0.44176 0.85602 0.86798 0.0
C1722 C 0.5714 0.87818 0.88893 0.0
C1723 C 0.55314 0.87634 0.88992 0.0
C1724 C 0.51383 0.87882 0.86245 0.0
C1725 C 0.46717 0.87247 0.87858 0.0
C1726 C 0.48639 0.87574 0.87853 0.0
C1727 C 0.54221 0.88514 0.87796 0.0
C1728 C 0.52294 0.8822 0.8782 0.0
H1729 H 0.4293 0.88994 0.89466 0.0
H1730 H 0.46111 0.89434 0.89586 0.0
H1731 H 0.48906 0.87307 0.85027 0.0
H1732 H 0.57361 0.90663 0.8544 0.0
H1733 H 0.5417 0.90333 0.85609 0.0
C1734 C 0.63324 0.93277 0.35704 0.0
C1735 C 0.62993 0.92244 0.37192 0.0
C1736 C 0.6306 0.95091 0.35756 0.0
C1737 C 0.60873 0.98613 0.38374 0.0
H1738 H 0.63893 0.01629 0.35581 0.0
C1739 C 0.61347 0.06247 0.38921 0.0
C1740 C 0.61134 0.07144 0.37323 0.0
C1741 C 0.61467 0.04414 0.38944 0.0
C1742 C 0.63036 0.00797 0.36359 0.0
H1743 H 0.62152 0.92291 0.39911 0.0
H1744 H 0.61773 0.95475 0.40036 0.0
H1745 H 0.64401 0.98469 0.35602 0.0
H1746 H 0.60861 0.06831 0.345 0.0
H1747 H 0.61122 0.03625 0.34541 0.0
H1748 H 0.59563 0.00979 0.3918 0.0
C1749 C 0.6218 0.94883 0.38807 0.0
C1750 C 0.63317 0.98985 0.36366 0.0
C1751 C 0.6241 0.9306 0.38742 0.0
C1752 C 0.61016 0.06174 0.35751 0.0
C1753 C 0.61174 0.04345 0.35772 0.0
C1754 C 0.60617 0.00433 0.38394 0.0
C1755 C 0.62494 0.95923 0.3731 0.0
C1756 C 0.62228 0.97863 0.37358 0.0
C1757 C 0.61413 0.03454 0.37366 0.0
C1758 C 0.61686 0.01534 0.37372 0.0
H1759 H 0.63749 0.92679 0.34482 0.0
H1760 H 0.63275 0.95834 0.34563 0.0
H1761 H 0.59989 0.97795 0.39132 0.0
H1762 H 0.61438 0.06964 0.40152 0.0
H1763 H 0.61658 0.0375 0.40187 0.0
C1764 C 0.43636 0.09234 0.88521 0.0
C1765 C 0.42629 0.10544 0.89348 0.0
C1766 C 0.4547 0.09279 0.88615 0.0
C1767 C 0.49262 0.11221 0.90975 0.0
H1768 H 0.51574 0.10857 0.86446 0.0
C1769 C 0.5685 0.11427 0.90051 0.0
C1770 C 0.57456 0.12521 0.88691 0.0
C1771 C 0.55052 0.11082 0.90242 0.0
C1772 C 0.50946 0.10962 0.87719 0.0
H1773 H 0.42754 0.1287 0.91007 0.0
H1774 H 0.45958 0.12944 0.91173 0.0
H1775 H 0.4841 0.10362 0.8665 0.0
H1776 H 0.56651 0.14122 0.86477 0.0
H1777 H 0.5352 0.13511 0.86807 0.0
H1778 H 0.51804 0.11857 0.92033 0.0
C1779 C 0.45327 0.11883 0.90453 0.0
C1780 C 0.4914 0.10659 0.8784 0.0
C1781 C 0.43492 0.11845 0.90349 0.0
C1782 C 0.56228 0.13273 0.87537 0.0
C1783 C 0.54436 0.12915 0.87718 0.0
C1784 C 0.51077 0.11509 0.90856 0.0
C1785 C 0.46335 0.10627 0.89549 0.0
C1786 C 0.48275 0.10807 0.89465 0.0
C1787 C 0.53831 0.11809 0.89065 0.0
C1788 C 0.5193 0.11407 0.89221 0.0
H1789 H 0.43012 0.08208 0.87746 0.0
H1790 H 0.46216 0.08281 0.87924 0.0
H1791 H 0.48629 0.11335 0.92245 0.0
H1792 H 0.57765 0.10829 0.90962 0.0
H1793 H 0.5462 0.10218 0.91286 0.0
C1794 C 0.39368 0.93988 0.35427 0.0
C1795 C 0.39169 0.92937 0.36926 0.0
C1796 C 0.3928 0.95817 0.35559 0.0
C1797 C 0.37682 0.99355 0.38537 0.0
H1798 H 0.40277 0.02334 0.35316 0.0
C1799 C 0.37914 0.06998 0.389 0.0
C1800 C 0.37396 0.07819 0.37331 0.0
C1801 C 0.38213 0.05185 0.38937 0.0
C1802 C 0.39548 0.01513 0.36222 0.0
H1803 H 0.38793 0.92969 0.3975 0.0
H1804 H 0.38723 0.96164 0.39997 0.0
H1805 H 0.40743 0.99162 0.35262 0.0
H1806 H 0.36807 0.07401 0.3457 0.0
H1807 H 0.37374 0.0424 0.34629 0.0
H1808 H 0.36525 0.01732 0.3952 0.0
C1809 C 0.38882 0.95582 0.38707 0.0
C1810 C 0.39802 0.99696 0.36186 0.0
C1811 C 0.38936 0.9375 0.38569 0.0
C1812 C 0.37195 0.06801 0.358 0.0
C1813 C 0.37529 0.04998 0.35829 0.0
C1814 C 0.37455 0.01177 0.38595 0.0
C1815 C 0.39026 0.9664 0.37199 0.0
C1816 C 0.38851 0.98588 0.37323 0.0
C1817 C 0.38036 0.04176 0.37398 0.0
C1818 C 0.38365 0.02265 0.3742 0.0
H1819 H 0.39533 0.93396 0.3414 0.0
H1820 H 0.39362 0.9658 0.34362 0.0
H1821 H 0.36902 0.9855 0.39413 0.0
H1822 H 0.38075 0.07755 0.401 0.0
H1823 H 0.38606 0.04575 0.40161 0.0
C1824 C 0.1239 0.44796 0.14841 0.0
C1825 C 0.11502 0.43798 0.13558 0.0
C1826 C 0.12407 0.46627 0.14756 0.0
C1827 C 0.10225 0.5047 0.12768 0.0
H1828 H 0.14752 0.52698 0.13599 0.0
C1829 C 0.11596 0.5785 0.11393 0.0
C1830 C 0.12609 0.58755 0.12655 0.0
C1831 C 0.11383 0.56025 0.11496 0.0
C1832 C 0.13474 0.52099 0.13382 0.0
H1833 H 0.09881 0.43939 0.11213 0.0
H1834 H 0.09927 0.47148 0.11055 0.0
H1835 H 0.1448 0.49519 0.13827 0.0
H1836 H 0.14167 0.58461 0.15029 0.0
H1837 H 0.13784 0.55291 0.15213 0.0
H1838 H 0.09225 0.53062 0.12318 0.0
C1839 C 0.10599 0.4651 0.12133 0.0
C1840 C 0.13318 0.50277 0.13514 0.0
C1841 C 0.10579 0.44672 0.1222 0.0
C1842 C 0.13389 0.57803 0.14028 0.0
C1843 C 0.13176 0.55984 0.1413 0.0
C1844 C 0.10383 0.52298 0.12635 0.0
C1845 C 0.11542 0.47504 0.13382 0.0
C1846 C 0.1169 0.49442 0.13221 0.0
C1847 C 0.12182 0.55073 0.1286 0.0
C1848 C 0.12007 0.53132 0.12953 0.0
H1849 H 0.131 0.44163 0.15899 0.0
H1850 H 0.13116 0.47359 0.15758 0.0
H1851 H 0.08952 0.49864 0.12546 0.0
H1852 H 0.10977 0.58548 0.1032 0.0
H1853 H 0.10621 0.55357 0.1049 0.0
C1854 C 0.11943 0.57883 0.89763 0.0
C1855 C 0.11988 0.58909 0.88229 0.0
C1856 C 0.11795 0.56052 0.89651 0.0
C1857 C 0.12851 0.52433 0.86691 0.0
H1858 H 0.09686 0.49657 0.89566 0.0
C1859 C 0.12136 0.44991 0.85628 0.0
C1860 C 0.11976 0.43922 0.87121 0.0
C1861 C 0.12022 0.46816 0.85777 0.0
C1862 C 0.10594 0.50412 0.88769 0.0
H1863 H 0.11855 0.58821 0.85378 0.0
H1864 H 0.11611 0.55631 0.85189 0.0
H1865 H 0.0968 0.52864 0.89825 0.0
H1866 H 0.11554 0.43923 0.89939 0.0
H1867 H 0.11409 0.47117 0.9021 0.0
H1868 H 0.13805 0.50002 0.85664 0.0
C1869 C 0.117 0.56243 0.86474 0.0
C1870 C 0.10583 0.52246 0.88915 0.0
C1871 C 0.11832 0.58071 0.86585 0.0
C1872 C 0.11679 0.44714 0.88764 0.0
C1873 C 0.11585 0.46545 0.88917 0.0
C1874 C 0.12875 0.50604 0.86558 0.0
C1875 C 0.11706 0.55215 0.88003 0.0
C1876 C 0.11706 0.53273 0.87868 0.0
C1877 C 0.11769 0.47619 0.87426 0.0
C1878 C 0.1174 0.49569 0.87587 0.0
H1879 H 0.12055 0.58491 0.91048 0.0
H1880 H 0.11809 0.55287 0.90849 0.0
H1881 H 0.13753 0.53193 0.85891 0.0
H1882 H 0.12345 0.44418 0.84339 0.0
H1883 H 0.1213 0.47599 0.84595 0.0
C1884 C 0.08036 0.60826 0.37151 0.0
C1885 C 0.08638 0.62341 0.38033 0.0
C1886 C 0.06249 0.60396 0.37139 0.0
C1887 C 0.01998 0.61375 0.39324 0.0
H1888 H 1.00011 0.59886 0.34858 0.0
C1889 C 0.94605 0.61754 0.37759 0.0
C1890 C 0.93827 0.60335 0.36855 0.0
C1891 C 0.96423 0.61824 0.38008 0.0
C1892 C 0.0055 0.60276 0.3612 0.0
H1893 H 0.07843 0.64571 0.39629 0.0
H1894 H 0.04722 0.63841 0.39577 0.0
H1895 H 0.03178 0.60322 0.35125 0.0
H1896 H 0.94344 0.57869 0.35511 0.0
H1897 H 0.97532 0.57999 0.35937 0.0
H1898 H 0.99357 0.61377 0.403 0.0
C1899 C 0.05632 0.62967 0.38919 0.0
C1900 C 0.02365 0.60523 0.36276 0.0
C1901 C 0.07422 0.63392 0.3894 0.0
C1902 C 0.94905 0.58981 0.36211 0.0
C1903 C 0.96729 0.59058 0.36449 0.0
C1904 C 0.00182 0.61137 0.39165 0.0
C1905 C 0.05023 0.61476 0.38 0.0
C1906 C 0.03108 0.61096 0.37874 0.0
C1907 C 0.97504 0.60481 0.37349 0.0
C1908 C 0.99438 0.60606 0.37555 0.0
H1909 H 0.08943 0.59981 0.36451 0.0
H1910 H 0.05827 0.59221 0.36443 0.0
H1911 H 0.02531 0.61787 0.40582 0.0
H1912 H 0.93812 0.62818 0.38276 0.0
H1913 H 0.96986 0.62948 0.38686 0.0
C1914 C 0.90474 0.54966 0.87658 0.0
C1915 C 0.89604 0.55727 0.89099 0.0
C1916 C 0.90761 0.53154 0.87591 0.0
C1917 C 0.90702 0.49079 0.90281 0.0
H1918 H 0.89676 0.46842 0.85803 0.0
C1919 C 0.88957 0.41725 0.89521 0.0
C1920 C 0.89606 0.40818 0.88046 0.0
C1921 C 0.89247 0.4353 0.89711 0.0
C1922 C 0.89996 0.47447 0.87056 0.0
H1923 H 0.88401 0.55192 0.91626 0.0
H1924 H 0.88865 0.52026 0.91492 0.0
H1925 H 0.89652 0.50033 0.86027 0.0
H1926 H 0.91122 0.41081 0.85646 0.0
H1927 H 0.91623 0.44239 0.85979 0.0
H1928 H 0.90987 0.46477 0.91316 0.0
C1929 C 0.89353 0.52831 0.90425 0.0
C1930 C 0.89985 0.49278 0.87185 0.0
C1931 C 0.89077 0.54646 0.90498 0.0
C1932 C 0.90599 0.41743 0.86794 0.0
C1933 C 0.90879 0.43552 0.86979 0.0
C1934 C 0.90704 0.47245 0.90152 0.0
C1935 C 0.90173 0.5206 0.88957 0.0
C1936 C 0.90317 0.50117 0.88803 0.0
C1937 C 0.90184 0.44468 0.88426 0.0
C1938 C 0.90331 0.4641 0.88542 0.0
H1939 H 0.90912 0.55766 0.86566 0.0
H1940 H 0.91426 0.52608 0.86456 0.0
H1941 H 0.90991 0.49684 0.9154 0.0
H1942 H 0.88192 0.41049 0.90513 0.0
H1943 H 0.8868 0.44203 0.90831 0.0
C1944 C 0.05945 0.39819 0.39027 0.0
C1945 C 0.06563 0.39175 0.37407 0.0
C1946 C 0.04143 0.40037 0.39312 0.0
C1947 C 0.99886 0.40447 0.37004 0.0
H1948 H 0.97918 0.38562 0.41308 0.0
C1949 C 0.92553 0.388 0.37695 0.0
C1950 C 0.91712 0.39137 0.39305 0.0
C1951 C 0.94367 0.3902 0.37529 0.0
C1952 C 0.98448 0.39122 0.40114 0.0
H1953 H 0.05778 0.38292 0.34805 0.0
H1954 H 0.02638 0.38667 0.35305 0.0
H1955 H 0.01099 0.3858 0.4089 0.0
H1956 H 0.92116 0.39991 0.42 0.0
H1957 H 0.95296 0.40388 0.41705 0.0
H1958 H 0.97237 0.40965 0.36215 0.0
C1959 C 0.03546 0.39017 0.3635 0.0
C1960 C 0.00271 0.39131 0.39873 0.0
C1961 C 0.05345 0.38791 0.36067 0.0
C1962 C 0.92726 0.39716 0.40743 0.0
C1963 C 0.94547 0.39936 0.40577 0.0
C1964 C 0.98066 0.40442 0.37246 0.0
C1965 C 0.02924 0.39626 0.3798 0.0
C1966 C 0.01006 0.39764 0.38302 0.0
C1967 C 0.95386 0.39586 0.38967 0.0
C1968 C 0.97325 0.39748 0.38788 0.0
H1969 H 0.0685 0.4013 0.40085 0.0
H1970 H 0.03702 0.40525 0.40576 0.0
H1971 H 0.00417 0.40971 0.35793 0.0
H1972 H 0.91814 0.38347 0.36561 0.0
H1973 H 0.94976 0.38709 0.3628 0.0
C1974 C 0.87806 0.42703 0.09549 0.0
C1975 C 0.88615 0.41617 0.108 0.0
C1976 C 0.88202 0.44498 0.09486 0.0
C1977 C 0.89906 0.4807 0.12309 0.0
H1978 H 0.9004 0.50688 0.07944 0.0
C1979 C 0.91319 0.55506 0.1221 0.0
C1980 C 0.90137 0.5651 0.1121 0.0
C1981 C 0.91356 0.53676 0.12036 0.0
C1982 C 0.90002 0.49972 0.09173 0.0
H1983 H 0.90529 0.41545 0.12918 0.0
H1984 H 0.91245 0.44665 0.12785 0.0
H1985 H 0.89712 0.47489 0.07863 0.0
H1986 H 0.88116 0.56388 0.09193 0.0
H1987 H 0.88179 0.53195 0.08897 0.0
H1988 H 0.90177 0.50549 0.13618 0.0
C1989 C 0.90275 0.44141 0.11878 0.0
C1990 C 0.8981 0.48143 0.09127 0.0
C1991 C 0.89871 0.4235 0.11948 0.0
C1992 C 0.89039 0.55652 0.09987 0.0
C1993 C 0.89082 0.53824 0.09808 0.0
C1994 C 0.90106 0.49894 0.12353 0.0
C1995 C 0.89424 0.45243 0.10667 0.0
C1996 C 0.8974 0.47172 0.10697 0.0
C1997 C 0.90218 0.52815 0.10854 0.0
C1998 C 0.90137 0.50867 0.10787 0.0
H1999 H 0.8683 0.42178 0.08648 0.0
H2000 H 0.87507 0.45311 0.08551 0.0
H2001 H 0.89825 0.4737 0.13543 0.0
H2002 H 0.92187 0.56127 0.13158 0.0
H2003 H 0.9226 0.52933 0.12844 0.0
C2004 C 0.92137 0.39018 0.66241 0.0
C2005 C 0.91201 0.38987 0.64647 0.0
C2006 C 0.93964 0.3921 0.66248 0.0
C2007 C 0.97766 0.40661 0.63652 0.0
H2008 H 0.00285 0.37138 0.66326 0.0
C2009 C 0.05219 0.39446 0.62816 0.0
C2010 C 0.0619 0.38935 0.643 0.0
C2011 C 0.03392 0.39619 0.62914 0.0
C2012 C 0.99608 0.38154 0.65598 0.0
H2013 H 0.91435 0.39214 0.61814 0.0
H2014 H 0.94633 0.39565 0.61831 0.0
H2015 H 0.97088 0.37199 0.66411 0.0
H2016 H 0.06027 0.3828 0.67067 0.0
H2017 H 0.02851 0.38634 0.67253 0.0
H2018 H 0.00287 0.41626 0.62847 0.0
C2019 C 0.93949 0.39436 0.63072 0.0
C2020 C 0.97775 0.38184 0.65644 0.0
C2021 C 0.92121 0.39227 0.63063 0.0
C2022 C 0.05309 0.38654 0.65895 0.0
C2023 C 0.03487 0.38848 0.65999 0.0
C2024 C 0.99606 0.40645 0.63621 0.0
C2025 C 0.94889 0.39393 0.64663 0.0
C2026 C 0.96836 0.39429 0.64664 0.0
C2027 C 0.02501 0.39305 0.64502 0.0
C2028 C 0.00549 0.39382 0.64585 0.0
H2029 H 0.91468 0.38843 0.67484 0.0
H2030 H 0.94657 0.39192 0.67493 0.0
H2031 H 0.97071 0.41643 0.62895 0.0
H2032 H 0.05864 0.39666 0.61567 0.0
H2033 H 0.02676 0.3995 0.61729 0.0
C2034 C 0.08237 0.60904 0.61461 0.0
C2035 C 0.08876 0.62446 0.62266 0.0
C2036 C 0.06445 0.60488 0.61523 0.0
C2037 C 0.02326 0.61615 0.63907 0.0
H2038 H 1.00048 0.59669 0.59764 0.0
C2039 C 0.94868 0.61913 0.62722 0.0
C2040 C 0.94022 0.60366 0.62151 0.0
C2041 C 0.96698 0.61993 0.6283 0.0
C2042 C 0.00674 0.60191 0.60937 0.0
H2043 H 0.08138 0.64771 0.63749 0.0
H2044 H 0.05017 0.64078 0.63811 0.0
H2045 H 0.03225 0.60154 0.59758 0.0
H2046 H 0.94428 0.5769 0.61242 0.0
H2047 H 0.97646 0.57848 0.61399 0.0
H2048 H 0.99757 0.61715 0.65054 0.0
C2049 C 0.05898 0.6316 0.63174 0.0
C2050 C 0.02493 0.60466 0.60937 0.0
C2051 C 0.07689 0.63565 0.63128 0.0
C2052 C 0.95044 0.58898 0.61691 0.0
C2053 C 0.96882 0.58989 0.61773 0.0
C2054 C 0.00507 0.61359 0.63897 0.0
C2055 C 0.05253 0.61613 0.62378 0.0
C2056 C 0.03338 0.61205 0.62414 0.0
C2057 C 0.97722 0.60538 0.62347 0.0
C2058 C 0.99663 0.60667 0.62405 0.0
H2059 H 0.09123 0.60011 0.60795 0.0
H2060 H 0.05998 0.59275 0.60915 0.0
H2061 H 0.02937 0.62146 0.65082 0.0
H2062 H 0.94115 0.63064 0.63089 0.0
H2063 H 0.97315 0.63209 0.63259 0.0
C2064 C 0.93292 0.10494 0.35728 0.0
C2065 C 0.92405 0.09268 0.36792 0.0
C2066 C 0.95104 0.10343 0.35426 0.0
C2067 C 0.99044 0.0846 0.3753 0.0
H2068 H 0.01391 0.09878 0.33238 0.0
C2069 C 0.06579 0.08299 0.37063 0.0
C2070 C 0.07389 0.098 0.36348 0.0
C2071 C 0.04771 0.08012 0.36857 0.0
C2072 C 0.00755 0.09485 0.34448 0.0
H2073 H 0.9271 0.06853 0.38269 0.0
H2074 H 0.95852 0.06571 0.37715 0.0
H2075 H 0.98175 0.09767 0.33338 0.0
H2076 H 0.06941 0.12125 0.34766 0.0
H2077 H 0.03786 0.11636 0.34424 0.0
H2078 H 0.01606 0.08216 0.38658 0.0
C2079 C 0.9516 0.07677 0.3715 0.0
C2080 C 0.98911 0.09422 0.34506 0.0
C2081 C 0.93352 0.07832 0.37458 0.0
C2082 C 0.06363 0.10953 0.35333 0.0
C2083 C 0.0455 0.10669 0.35133 0.0
C2084 C 0.0088 0.08523 0.37473 0.0
C2085 C 0.96071 0.08958 0.36174 0.0
C2086 C 0.98031 0.08921 0.36053 0.0
C2087 C 0.03722 0.09222 0.35937 0.0
C2088 C 0.01764 0.09049 0.35937 0.0
H2089 H 0.92606 0.11619 0.35195 0.0
H2090 H 0.95759 0.1136 0.34676 0.0
H2091 H 0.98417 0.08106 0.38757 0.0
H2092 H 0.07331 0.07374 0.37838 0.0
H2093 H 0.04187 0.06861 0.3746 0.0
C2094 C 0.40391 0.43217 0.85617 0.0
C2095 C 0.38962 0.42423 0.8474 0.0
C2096 C 0.40788 0.44997 0.85356 0.0
C2097 C 0.38566 0.49098 0.84084 0.0
H2098 H 0.43266 0.51085 0.84328 0.0
C2099 C 0.39599 0.566 0.84159 0.0
C2100 C 0.40757 0.5723 0.85462 0.0
C2101 C 0.39563 0.54811 0.83713 0.0
C2102 C 0.41944 0.50551 0.84262 0.0
H2103 H 0.36909 0.42853 0.82806 0.0
H2104 H 0.3762 0.45944 0.82331 0.0
H2105 H 0.42881 0.47895 0.84189 0.0
H2106 H 0.42863 0.56486 0.87236 0.0
H2107 H 0.42788 0.53378 0.86474 0.0
H2108 H 0.37623 0.5174 0.8421 0.0
C2109 C 0.38409 0.45202 0.83252 0.0
C2110 C 0.41724 0.48722 0.84183 0.0
C2111 C 0.38009 0.43424 0.83516 0.0
C2112 C 0.4195 0.56048 0.8623 0.0
C2113 C 0.41913 0.54261 0.85785 0.0
C2114 C 0.38786 0.50923 0.84164 0.0
C2115 C 0.39769 0.46026 0.84208 0.0
C2116 C 0.4003 0.4797 0.8412 0.0
C2117 C 0.40685 0.53609 0.84559 0.0
C2118 C 0.40476 0.51675 0.84282 0.0
H2119 H 0.41152 0.42488 0.86571 0.0
H2120 H 0.41837 0.45587 0.86125 0.0
H2121 H 0.37241 0.4857 0.84069 0.0
H2122 H 0.38668 0.57473 0.83533 0.0
H2123 H 0.38623 0.5436 0.82738 0.0
C2124 C 0.06873 0.90529 0.35231 0.0
C2125 C 0.07906 0.89493 0.34098 0.0
C2126 C 0.05048 0.90643 0.34989 0.0
C2127 C 0.01415 0.88034 0.33092 0.0
H2128 H 0.98599 0.92155 0.34109 0.0
C2129 C 0.93882 0.87692 0.32604 0.0
C2130 C 0.92937 0.88458 0.33995 0.0
C2131 C 0.95674 0.88055 0.3238 0.0
C2132 C 0.99366 0.90989 0.33829 0.0
H2133 H 0.0784 0.87866 0.3175 0.0
H2134 H 0.04673 0.88087 0.31314 0.0
H2135 H 0.0181 0.9238 0.34141 0.0
H2136 H 0.93121 0.90282 0.36188 0.0
H2137 H 0.96248 0.90893 0.35816 0.0
H2138 H 0.98992 0.86627 0.32829 0.0
C2139 C 0.05265 0.88779 0.32415 0.0
C2140 C 0.01207 0.91119 0.33847 0.0
C2141 C 0.07086 0.88663 0.32658 0.0
C2142 C 0.93806 0.89671 0.35099 0.0
C2143 C 0.95603 0.90026 0.34882 0.0
C2144 C 0.99581 0.87903 0.3308 0.0
C2145 C 0.04215 0.89725 0.33607 0.0
C2146 C 0.02256 0.89639 0.33488 0.0
C2147 C 0.96572 0.89184 0.33549 0.0
C2148 C 0.98528 0.89374 0.33459 0.0
H2149 H 0.07459 0.91184 0.36356 0.0
H2150 H 0.04282 0.91376 0.35938 0.0
H2151 H 0.02176 0.86856 0.32848 0.0
H2152 H 0.93252 0.86764 0.31719 0.0
H2153 H 0.96365 0.87414 0.31313 0.0
C2154 C 0.60004 0.43296 0.84814 0.0
C2155 C 0.6033 0.42872 0.86583 0.0
C2156 C 0.59836 0.45062 0.84299 0.0
C2157 C 0.60896 0.48907 0.83552 0.0
H2158 H 0.58804 0.523 0.86733 0.0
C2159 C 0.63172 0.56121 0.83958 0.0
C2160 C 0.62013 0.57427 0.84562 0.0
C2161 C 0.62623 0.54369 0.83814 0.0
C2162 C 0.59366 0.51379 0.85804 0.0
H2163 H 0.60662 0.43965 0.89203 0.0
H2164 H 0.60379 0.47003 0.88315 0.0
H2165 H 0.58368 0.49178 0.87238 0.0
H2166 H 0.59321 0.57931 0.85354 0.0
H2167 H 0.58349 0.5488 0.85062 0.0
H2168 H 0.61906 0.51115 0.82124 0.0
C2169 C 0.60238 0.4599 0.87319 0.0
C2170 C 0.59134 0.49581 0.86109 0.0
C2171 C 0.60417 0.4424 0.87828 0.0
C2172 C 0.60254 0.56958 0.84899 0.0
C2173 C 0.597 0.55203 0.84745 0.0
C2174 C 0.61122 0.5071 0.8324 0.0
C2175 C 0.59969 0.46432 0.85548 0.0
C2176 C 0.59948 0.48322 0.85026 0.0
C2177 C 0.60894 0.53874 0.84259 0.0
C2178 C 0.60409 0.51971 0.84397 0.0
H2179 H 0.59934 0.42271 0.83824 0.0
H2180 H 0.5962 0.45357 0.82924 0.0
H2181 H 0.61544 0.47976 0.82691 0.0
H2182 H 0.64535 0.56432 0.83682 0.0
H2183 H 0.63589 0.5339 0.83453 0.0
C2184 C 0.9373 0.89955 0.64636 0.0
C2185 C 0.92953 0.88406 0.65287 0.0
C2186 C 0.95514 0.90316 0.6494 0.0
C2187 C 0.99435 0.88933 0.67565 0.0
H2188 H 0.02013 0.9035 0.63408 0.0
C2189 C 0.06828 0.87544 0.66551 0.0
C2190 C 0.0785 0.88736 0.65574 0.0
C2191 C 0.05026 0.87825 0.66794 0.0
C2192 C 0.01316 0.89988 0.64595 0.0
H2193 H 0.93426 0.86078 0.66857 0.0
H2194 H 0.96524 0.86696 0.67371 0.0
H2195 H 0.98816 0.90279 0.63339 0.0
H2196 H 0.07792 0.9122 0.6418 0.0
H2197 H 0.04651 0.91718 0.64618 0.0
H2198 H 0.01947 0.88586 0.68798 0.0
C2199 C 0.95759 0.87642 0.66635 0.0
C2200 C 0.99476 0.89947 0.64555 0.0
C2201 C 0.93978 0.87282 0.66332 0.0
C2202 C 0.07045 0.9027 0.64934 0.0
C2203 C 0.0524 0.90549 0.65173 0.0
C2204 C 0.01277 0.8897 0.67603 0.0
C2205 C 0.96564 0.89139 0.65904 0.0
C2206 C 0.9851 0.89385 0.66028 0.0
C2207 C 0.04198 0.89305 0.66064 0.0
C2208 C 0.02243 0.89465 0.66107 0.0
H2209 H 0.92979 0.90854 0.6383 0.0
H2210 H 0.96082 0.91497 0.64381 0.0
H2211 H 0.98734 0.88521 0.68733 0.0
H2212 H 0.07402 0.86349 0.67067 0.0
H2213 H 0.04267 0.86832 0.67476 0.0
C2214 C 0.60435 0.43771 0.15025 0.0
C2215 C 0.5922 0.42851 0.13966 0.0
C2216 C 0.60291 0.45594 0.15265 0.0
C2217 C 0.58414 0.49475 0.13032 0.0
H2218 H 0.59853 0.51949 0.17265 0.0
C2219 C 0.58144 0.57018 0.13383 0.0
C2220 C 0.59654 0.57865 0.14048 0.0
C2221 C 0.57893 0.5521 0.13619 0.0
C2222 C 0.59453 0.51277 0.16071 0.0
H2223 H 0.56832 0.43114 0.12426 0.0
H2224 H 0.56557 0.46275 0.12878 0.0
H2225 H 0.59749 0.48733 0.17243 0.0
H2226 H 0.62038 0.57483 0.15569 0.0
H2227 H 0.61605 0.54327 0.15971 0.0
H2228 H 0.58143 0.52006 0.1185 0.0
C2229 C 0.57652 0.456 0.13484 0.0
C2230 C 0.59395 0.49432 0.16057 0.0
C2231 C 0.57802 0.43782 0.13236 0.0
C2232 C 0.60858 0.56876 0.15041 0.0
C2233 C 0.60608 0.55064 0.15275 0.0
C2234 C 0.58466 0.51313 0.13048 0.0
C2235 C 0.58922 0.4654 0.14459 0.0
C2236 C 0.58886 0.48506 0.14531 0.0
C2237 C 0.59147 0.54199 0.14522 0.0
C2238 C 0.58998 0.52241 0.14563 0.0
H2239 H 0.61547 0.43099 0.15605 0.0
H2240 H 0.61302 0.4627 0.16014 0.0
H2241 H 0.58054 0.48815 0.11819 0.0
H2242 H 0.57181 0.57739 0.12623 0.0
H2243 H 0.56735 0.54595 0.13053 0.0
C2244 C 0.93127 0.10279 0.66356 0.0
C2245 C 0.92518 0.09269 0.64926 0.0
C2246 C 0.94925 0.10342 0.66768 0.0
C2247 C 0.9926 0.08218 0.65862 0.0
H2248 H 0.01086 0.12918 0.66681 0.0
C2249 C 0.06586 0.10119 0.64857 0.0
C2250 C 0.07327 0.11424 0.65948 0.0
C2251 C 0.04803 0.09668 0.65002 0.0
C2252 C 0.00602 0.1159 0.66487 0.0
H2253 H 0.93315 0.07448 0.62875 0.0
H2254 H 0.96434 0.07567 0.63583 0.0
H2255 H 0.97927 0.1245 0.66491 0.0
H2256 H 0.06792 0.13204 0.68116 0.0
H2257 H 0.03699 0.12399 0.68387 0.0
H2258 H 0.01947 0.07368 0.65816 0.0
C2259 C 0.95529 0.08306 0.64396 0.0
C2260 C 0.98784 0.1132 0.66379 0.0
C2261 C 0.93735 0.08245 0.63984 0.0
C2262 C 0.06264 0.12202 0.67245 0.0
C2263 C 0.04484 0.1175 0.67392 0.0
C2264 C 0.01083 0.08487 0.6597 0.0
C2265 C 0.96155 0.09393 0.65762 0.0
C2266 C 0.98087 0.09635 0.66042 0.0
C2267 C 0.03718 0.10509 0.66244 0.0
C2268 C 0.01779 0.10182 0.66262 0.0
H2269 H 0.92228 0.1108 0.67115 0.0
H2270 H 0.95355 0.11168 0.6785 0.0
H2271 H 0.98771 0.06898 0.65625 0.0
H2272 H 0.07363 0.09494 0.63841 0.0
H2273 H 0.04258 0.08717 0.64086 0.0
C2274 C 0.42271 0.56856 0.13841 0.0
C2275 C 0.40782 0.57804 0.14388 0.0
C2276 C 0.42383 0.55042 0.14123 0.0
C2277 C 0.40365 0.51263 0.16521 0.0
H2278 H 0.41951 0.4862 0.12458 0.0
C2279 C 0.38891 0.43831 0.15459 0.0
C2280 C 0.40141 0.42807 0.14561 0.0
C2281 C 0.39154 0.45643 0.15693 0.0
C2282 C 0.41534 0.49331 0.1362 0.0
H2283 H 0.38284 0.57593 0.15748 0.0
H2284 H 0.3847 0.54429 0.16224 0.0
H2285 H 0.4209 0.5181 0.12423 0.0
H2286 H 0.42701 0.4287 0.13306 0.0
H2287 H 0.43173 0.46013 0.13742 0.0
H2288 H 0.39774 0.4877 0.17698 0.0
C2289 C 0.39561 0.55089 0.15588 0.0
C2290 C 0.41614 0.51168 0.136 0.0
C2291 C 0.39452 0.56907 0.1531 0.0
C2292 C 0.41703 0.43619 0.13991 0.0
C2293 C 0.41968 0.45427 0.14229 0.0
C2294 C 0.40285 0.4942 0.16541 0.0
C2295 C 0.41006 0.54125 0.14955 0.0
C2296 C 0.41019 0.52162 0.15043 0.0
C2297 C 0.40675 0.46473 0.15038 0.0
C2298 C 0.40857 0.4843 0.15084 0.0
H2299 H 0.43328 0.57504 0.13139 0.0
H2300 H 0.43533 0.5435 0.13651 0.0
H2301 H 0.39913 0.51984 0.17663 0.0
H2302 H 0.3767 0.43252 0.15912 0.0
H2303 H 0.38123 0.46405 0.16311 0.0
C2304 C 0.36357 0.06773 0.08434 0.0
C2305 C 0.35541 0.07755 0.09772 0.0
C2306 C 0.36036 0.04967 0.0826 0.0
C2307 C 0.33139 0.01281 0.09767 0.0
H2308 H 0.37348 0.98504 0.09052 0.0
C2309 C 0.33735 0.93974 0.11786 0.0
C2310 C 0.348 0.92848 0.10777 0.0
C2311 C 0.33593 0.95759 0.11367 0.0
C2312 C 0.36151 0.99253 0.0922 0.0
H2313 H 0.33671 0.07616 0.11919 0.0
H2314 H 0.33131 0.04467 0.11634 0.0
H2315 H 0.37513 0.01688 0.08854 0.0
H2316 H 0.36469 0.92703 0.0847 0.0
H2317 H 0.36206 0.95814 0.0773 0.0
H2318 H 0.31793 0.98834 0.10188 0.0
C2319 C 0.34006 0.05093 0.10703 0.0
C2320 C 0.36244 0.01087 0.09106 0.0
C2321 C 0.3432 0.06903 0.10871 0.0
C2322 C 0.35641 0.93532 0.0928 0.0
C2323 C 0.35502 0.9532 0.08864 0.0
C2324 C 0.33047 0.99443 0.09886 0.0
C2325 C 0.34898 0.04091 0.09426 0.0
C2326 C 0.34746 0.0213 0.094 0.0
C2327 C 0.34514 0.96466 0.0993 0.0
C2328 C 0.34558 0.98407 0.09637 0.0
H2329 H 0.37293 0.07388 0.07555 0.0
H2330 H 0.36716 0.04248 0.07236 0.0
H2331 H 0.31953 0.02037 0.09976 0.0
H2332 H 0.33067 0.93494 0.12946 0.0
H2333 H 0.32831 0.96601 0.12226 0.0
C2334 C 0.44583 0.87584 0.61161 0.0
C2335 C 0.43207 0.86392 0.60811 0.0
C2336 C 0.46324 0.87145 0.60802 0.0
C2337 C 0.49805 0.86304 0.5913 0.0
H2338 H 0.51622 0.81886 0.60876 0.0
C2339 C 0.57252 0.85112 0.59276 0.0
C2340 C 0.5789 0.84485 0.60892 0.0
C2341 C 0.55456 0.84999 0.58868 0.0
C2342 C 0.51136 0.83124 0.60375 0.0
H2343 H 0.42587 0.83796 0.59792 0.0
H2344 H 0.45666 0.83012 0.59175 0.0
H2345 H 0.48451 0.82421 0.60906 0.0
H2346 H 0.57153 0.83128 0.63287 0.0
H2347 H 0.54038 0.82961 0.62595 0.0
H2348 H 0.52475 0.8706 0.58693 0.0
C2349 C 0.45378 0.84294 0.59727 0.0
C2350 C 0.49315 0.83421 0.60375 0.0
C2351 C 0.43618 0.84745 0.60073 0.0
C2352 C 0.5671 0.83632 0.62033 0.0
C2353 C 0.54917 0.83526 0.61629 0.0
C2354 C 0.51618 0.8601 0.59131 0.0
C2355 C 0.4675 0.85495 0.60089 0.0
C2356 C 0.48635 0.8504 0.59806 0.0
C2357 C 0.54255 0.84262 0.60069 0.0
C2358 C 0.52315 0.84437 0.59802 0.0
H2359 H 0.44321 0.88867 0.61726 0.0
H2360 H 0.47345 0.8809 0.61129 0.0
H2361 H 0.49322 0.87556 0.58658 0.0
H2362 H 0.58124 0.85765 0.5836 0.0
H2363 H 0.55001 0.85547 0.57638 0.0
C2364 C 0.66535 0.06842 0.12456 0.0
C2365 C 0.65329 0.07881 0.11521 0.0
C2366 C 0.66728 0.05054 0.12065 0.0
C2367 C 0.65692 0.01553 0.08781 0.0
H2368 H 0.6565 0.98545 0.12886 0.0
C2369 C 0.63853 0.94151 0.08503 0.0
C2370 C 0.64622 0.92997 0.09723 0.0
C2371 C 0.64226 0.95955 0.08557 0.0
C2372 C 0.65699 0.99358 0.11721 0.0
H2373 H 0.63452 0.07868 0.0937 0.0
H2374 H 0.63784 0.04745 0.08693 0.0
H2375 H 0.65791 0.01715 0.13259 0.0
H2376 H 0.66477 0.92829 0.11885 0.0
H2377 H 0.6716 0.95964 0.11951 0.0
H2378 H 0.65571 0.99186 0.07245 0.0
C2379 C 0.64588 0.05316 0.09726 0.0
C2380 C 0.65777 0.01184 0.11936 0.0
C2381 C 0.64394 0.07109 0.10117 0.0
C2382 C 0.65852 0.93679 0.10932 0.0
C2383 C 0.66232 0.95482 0.1098 0.0
C2384 C 0.6562 0.99721 0.08565 0.0
C2385 C 0.65721 0.04255 0.10729 0.0
C2386 C 0.65758 0.02308 0.10472 0.0
C2387 C 0.65384 0.96654 0.09828 0.0
C2388 C 0.65604 0.98599 0.10034 0.0
H2389 H 0.67288 0.07394 0.13537 0.0
H2390 H 0.6764 0.04286 0.12841 0.0
H2391 H 0.65695 0.02379 0.07624 0.0
H2392 H 0.62897 0.93675 0.07556 0.0
H2393 H 0.63536 0.96812 0.07657 0.0
C2394 C 0.56502 0.14601 0.60898 0.0
C2395 C 0.57476 0.15573 0.62143 0.0
C2396 C 0.54695 0.14894 0.60679 0.0
C2397 C 0.50909 0.16593 0.63201 0.0
H2398 H 0.48391 0.15977 0.58805 0.0
C2399 C 0.43371 0.17169 0.62956 0.0
C2400 C 0.4248 0.15827 0.62037 0.0
C2401 C 0.45189 0.174 0.6276 0.0
C2402 C 0.49075 0.16147 0.60044 0.0
H2403 H 0.57337 0.17702 0.64041 0.0
H2404 H 0.54206 0.18241 0.63631 0.0
H2405 H 0.51608 0.15932 0.58824 0.0
H2406 H 0.42795 0.13733 0.60117 0.0
H2407 H 0.45961 0.14128 0.59787 0.0
H2408 H 0.48389 0.16773 0.64429 0.0
C2409 C 0.54823 0.17217 0.62857 0.0
C2410 C 0.5092 0.16119 0.60056 0.0
C2411 C 0.56625 0.16917 0.63083 0.0
C2412 C 0.43436 0.14783 0.60845 0.0
C2413 C 0.45255 0.15013 0.60651 0.0
C2414 C 0.49071 0.16624 0.63189 0.0
C2415 C 0.53822 0.16173 0.61694 0.0
C2416 C 0.51862 0.16326 0.61639 0.0
C2417 C 0.46163 0.16293 0.61643 0.0
C2418 C 0.48126 0.16385 0.61614 0.0
H2419 H 0.57113 0.13551 0.60154 0.0
H2420 H 0.5397 0.14056 0.59779 0.0
H2421 H 0.51581 0.16719 0.64452 0.0
H2422 H 0.42678 0.18005 0.63877 0.0
H2423 H 0.45838 0.18422 0.63519 0.0
C2424 C 0.34929 0.06852 0.90783 0.0
C2425 C 0.34554 0.07478 0.89087 0.0
C2426 C 0.34767 0.05058 0.91169 0.0
C2427 C 0.33213 0.00715 0.8934 0.0
H2428 H 0.37286 0.98947 0.91834 0.0
C2429 C 0.37881 0.94282 0.89202 0.0
C2430 C 0.36657 0.92892 0.89162 0.0
C2431 C 0.37355 0.95991 0.89597 0.0
C2432 C 0.36135 0.99416 0.9114 0.0
H2433 H 0.33592 0.06721 0.86505 0.0
H2434 H 0.33354 0.0361 0.87158 0.0
H2435 H 0.36758 0.0209 0.91741 0.0
H2436 H 0.33918 0.92203 0.8956 0.0
H2437 H 0.32985 0.95221 0.90255 0.0
H2438 H 0.32669 0.98032 0.8864 0.0
C2439 C 0.3375 0.04495 0.88206 0.0
C2440 C 0.35816 0.01225 0.91105 0.0
C2441 C 0.33899 0.06288 0.87824 0.0
C2442 C 0.34892 0.93247 0.89584 0.0
C2443 C 0.34358 0.94974 0.8997 0.0
C2444 C 0.33539 0.98901 0.89367 0.0
C2445 C 0.34238 0.03845 0.89865 0.0
C2446 C 0.34384 0.01907 0.90156 0.0
C2447 C 0.35585 0.9637 0.89964 0.0
C2448 C 0.35041 0.98237 0.90214 0.0
H2449 H 0.35421 0.07735 0.91793 0.0
H2450 H 0.35116 0.04615 0.92475 0.0
H2451 H 0.32077 0.01186 0.88626 0.0
H2452 H 0.39253 0.94059 0.88889 0.0
H2453 H 0.38333 0.9703 0.89548 0.0
C2454 C 0.56482 0.86534 0.41235 0.0
C2455 C 0.57641 0.85577 0.40158 0.0
C2456 C 0.5469 0.86111 0.4129 0.0
C2457 C 0.51286 0.841 0.3849 0.0
H2458 H 0.48334 0.84678 0.42603 0.0
C2459 C 0.43768 0.83377 0.3795 0.0
C2460 C 0.42772 0.84687 0.38792 0.0
C2461 C 0.45558 0.83176 0.3833 0.0
C2462 C 0.49138 0.84519 0.4144 0.0
H2463 H 0.57835 0.83349 0.38379 0.0
H2464 H 0.54711 0.826 0.38491 0.0
H2465 H 0.51531 0.8486 0.42902 0.0
H2466 H 0.42863 0.86751 0.40766 0.0
H2467 H 0.45984 0.86419 0.4141 0.0
H2468 H 0.48906 0.83815 0.37016 0.0
C2469 C 0.55185 0.83699 0.39271 0.0
C2470 C 0.50972 0.84621 0.41612 0.0
C2471 C 0.56981 0.8412 0.39218 0.0
C2472 C 0.43588 0.85727 0.40093 0.0
C2473 C 0.45381 0.85531 0.40468 0.0
C2474 C 0.49456 0.84002 0.38318 0.0
C2475 C 0.54009 0.8472 0.40269 0.0
C2476 C 0.52069 0.84437 0.40134 0.0
C2477 C 0.46402 0.84285 0.39556 0.0
C2478 C 0.48354 0.84234 0.39785 0.0
H2479 H 0.56944 0.87663 0.4198 0.0
H2480 H 0.53824 0.86935 0.42065 0.0
H2481 H 0.52084 0.83984 0.37317 0.0
H2482 H 0.4318 0.82542 0.36951 0.0
H2483 H 0.46291 0.82176 0.3763 0.0
C2484 C 0.6598 0.06909 0.89893 0.0
C2485 C 0.64575 0.07464 0.90959 0.0
C2486 C 0.66467 0.05134 0.89836 0.0
C2487 C 0.6587 0.0079 0.92041 0.0
H2488 H 0.66425 0.98951 0.87316 0.0
C2489 C 0.64975 0.93417 0.90272 0.0
C2490 C 0.65964 0.92707 0.8888 0.0
C2491 C 0.6511 0.95205 0.90707 0.0
C2492 C 0.66309 0.99439 0.8865 0.0
H2493 H 0.6266 0.06599 0.92887 0.0
H2494 H 0.63502 0.03516 0.92781 0.0
H2495 H 0.66156 0.02102 0.8777 0.0
H2496 H 0.67956 0.93304 0.8693 0.0
H2497 H 0.68218 0.96405 0.87711 0.0
H2498 H 0.65984 0.98114 0.92913 0.0
C2499 C 0.64234 0.04448 0.91992 0.0
C2500 C 0.66154 0.01253 0.88911 0.0
C2501 C 0.63745 0.0622 0.92046 0.0
C2502 C 0.67163 0.93807 0.88 0.0
C2503 C 0.67304 0.95592 0.88439 0.0
C2504 C 0.66028 0.98971 0.9178 0.0
C2505 C 0.65566 0.03872 0.90847 0.0
C2506 C 0.65907 0.01953 0.90606 0.0
C2507 C 0.66244 0.96327 0.89766 0.0
C2508 C 0.66225 0.98268 0.90077 0.0
H2509 H 0.66653 0.0783 0.89042 0.0
H2510 H 0.6752 0.04742 0.88962 0.0
H2511 H 0.65703 0.01284 0.93367 0.0
H2512 H 0.64036 0.9261 0.90976 0.0
H2513 H 0.64262 0.95722 0.91727 0.0
C2514 C 0.43218 0.15628 0.3973 0.0
C2515 C 0.42379 0.14376 0.40801 0.0
C2516 C 0.45035 0.15919 0.39865 0.0
C2517 C 0.49056 0.13589 0.41275 0.0
H2518 H 0.51323 0.1806 0.40317 0.0
C2519 C 0.56619 0.14166 0.40967 0.0
C2520 C 0.57281 0.15066 0.39495 0.0
C2521 C 0.54836 0.14287 0.41418 0.0
C2522 C 0.5071 0.16801 0.40583 0.0
H2523 H 0.42778 0.12538 0.42937 0.0
H2524 H 0.4593 0.13074 0.43199 0.0
H2525 H 0.48124 0.17917 0.40597 0.0
H2526 H 0.56601 0.16879 0.37408 0.0
H2527 H 0.53505 0.17084 0.38189 0.0
H2528 H 0.51631 0.12465 0.41225 0.0
C2529 C 0.45195 0.13798 0.42221 0.0
C2530 C 0.48874 0.16718 0.40741 0.0
C2531 C 0.43382 0.13501 0.4208 0.0
C2532 C 0.56138 0.16164 0.38547 0.0
C2533 C 0.5436 0.16289 0.39001 0.0
C2534 C 0.50888 0.13673 0.41121 0.0
C2535 C 0.46057 0.14971 0.41079 0.0
C2536 C 0.4802 0.15105 0.41064 0.0
C2537 C 0.53674 0.15316 0.40414 0.0
C2538 C 0.51739 0.15274 0.40748 0.0
H2539 H 0.42489 0.16322 0.38725 0.0
H2540 H 0.45649 0.16822 0.38953 0.0
H2541 H 0.48449 0.12317 0.41491 0.0
H2542 H 0.5746 0.13312 0.4173 0.0
H2543 H 0.54359 0.13541 0.42531 0.0
C2544 C 0.07571 0.38275 0.93519 0.0
C2545 C 0.08987 0.37447 0.92669 0.0
C2546 C 0.07284 0.38032 0.95318 0.0
C2547 C 0.08561 0.35332 0.99208 0.0
H2548 H 0.07581 0.39647 0.0175 0.0
C2549 C 0.0976 0.3623 0.06702 0.0
C2550 C 0.08631 0.3735 0.07646 0.0
C2551 C 0.09563 0.36011 0.04883 0.0
C2552 C 0.07823 0.3842 0.01065 0.0
H2553 H 0.11156 0.35637 0.93033 0.0
H2554 H 0.10671 0.35232 0.96173 0.0
H2555 H 0.07659 0.39673 0.98562 0.0
H2556 H 0.06333 0.3902 0.0743 0.0
H2557 H 0.05972 0.38614 0.04273 0.0
H2558 H 0.08769 0.34095 0.0173 0.0
C2559 C 0.09769 0.36058 0.95447 0.0
C2560 C 0.07867 0.38435 0.99229 0.0
C2561 C 0.10051 0.36295 0.93644 0.0
C2562 C 0.07237 0.38161 0.06745 0.0
C2563 C 0.07037 0.37938 0.04929 0.0
C2564 C 0.08519 0.35319 0.01051 0.0
C2565 C 0.0841 0.36962 0.96318 0.0
C2566 C 0.0825 0.36896 0.98273 0.0
C2567 C 0.08229 0.36903 0.03965 0.0
C2568 C 0.08162 0.36867 0.02004 0.0
H2569 H 0.06715 0.39159 0.92807 0.0
H2570 H 0.062 0.38718 0.95934 0.0
H2571 H 0.08841 0.34118 0.98517 0.0
H2572 H 0.10849 0.35586 0.07352 0.0
H2573 H 0.10511 0.35212 0.04184 0.0
C2574 C 0.11459 0.67103 0.92238 0.0
C2575 C 0.10332 0.65821 0.91508 0.0
C2576 C 0.11426 0.67471 0.94043 0.0
C2577 C 0.08879 0.66726 0.98188 0.0
H2578 H 0.13481 0.67159 0.00353 0.0
C2579 C 0.10177 0.65692 0.05652 0.0
C2580 C 0.11494 0.66719 0.06463 0.0
C2581 C 0.09861 0.65825 0.03841 0.0
C2582 C 0.12181 0.6707 0.99773 0.0
H2583 H 0.08225 0.63986 0.92104 0.0
H2584 H 0.08185 0.64606 0.95243 0.0
H2585 H 0.13241 0.66981 0.97175 0.0
H2586 H 0.13434 0.6877 0.06014 0.0
H2587 H 0.12869 0.69014 0.02874 0.0
H2588 H 0.0783 0.66768 0.00805 0.0
C2589 C 0.09083 0.65345 0.94422 0.0
C2590 C 0.12042 0.6697 0.97942 0.0
C2591 C 0.0911 0.64984 0.92616 0.0
C2592 C 0.1242 0.67947 0.05435 0.0
C2593 C 0.12104 0.68079 0.03628 0.0
C2594 C 0.09019 0.6682 1.00025 0.0
C2595 C 0.10272 0.6656 0.9517 0.0
C2596 C 0.10392 0.66784 0.97121 0.0
C2597 C 0.10854 0.66988 0.02797 0.0
C2598 C 0.10675 0.66982 0.00842 0.0
H2599 H 0.12411 0.67782 0.91425 0.0
H2600 H 0.12335 0.68443 0.94562 0.0
H2601 H 0.07584 0.66606 0.97604 0.0
H2602 H 0.0944 0.64731 0.06401 0.0
H2603 H 0.08894 0.64957 0.03246 0.0
C2604 C 0.89149 0.59553 0.43226 0.0
C2605 C 0.87778 0.59995 0.42073 0.0
C2606 C 0.88792 0.59051 0.44949 0.0
C2607 C 0.8576 0.59929 0.48467 0.0
H2608 H 0.88496 0.56358 0.50849 0.0
C2609 C 0.86415 0.59789 0.56065 0.0
C2610 C 0.88183 0.59735 0.56608 0.0
C2611 C 0.85959 0.5938 0.5432 0.0
C2612 C 0.87712 0.57355 0.50205 0.0
H2613 H 0.84952 0.60215 0.41797 0.0
H2614 H 0.8432 0.59377 0.4486 0.0
H2615 H 0.88415 0.56418 0.47643 0.0
H2616 H 0.90839 0.59109 0.55787 0.0
H2617 H 0.90053 0.58393 0.52778 0.0
H2618 H 0.85151 0.60936 0.51029 0.0
C2619 C 0.85671 0.59399 0.44409 0.0
C2620 C 0.87662 0.57385 0.4837 0.0
C2621 C 0.8603 0.59868 0.4266 0.0
C2622 C 0.89466 0.59171 0.55408 0.0
C2623 C 0.89011 0.58745 0.53682 0.0
C2624 C 0.85817 0.59904 0.50308 0.0
C2625 C 0.87055 0.59008 0.45575 0.0
C2626 C 0.86747 0.58717 0.47481 0.0
C2627 C 0.8726 0.58882 0.53101 0.0
C2628 C 0.86859 0.58663 0.51195 0.0
H2629 H 0.90508 0.59639 0.42807 0.0
H2630 H 0.89888 0.58782 0.45818 0.0
H2631 H 0.85053 0.60978 0.47818 0.0
H2632 H 0.85399 0.60226 0.56961 0.0
H2633 H 0.84597 0.5949 0.53915 0.0
C2634 C 0.8847 0.32928 0.93854 0.0
C2635 C 0.89773 0.33944 0.9302 0.0
C2636 C 0.88569 0.32585 0.9566 0.0
C2637 C 0.90487 0.34535 0.99684 0.0
H2638 H 0.88637 0.3034 0.01909 0.0
C2639 C 0.90073 0.34057 0.07228 0.0
C2640 C 0.88449 0.3346 0.07887 0.0
C2641 C 0.90496 0.33833 0.05449 0.0
C2642 C 0.89154 0.31523 0.01309 0.0
H2643 H 0.92271 0.3528 0.93412 0.0
H2644 H 0.92461 0.34651 0.96544 0.0
H2645 H 0.88913 0.30441 0.98711 0.0
H2646 H 0.86049 0.3206 0.07207 0.0
H2647 H 0.86779 0.31681 0.04118 0.0
H2648 H 0.90688 0.35637 0.02266 0.0
C2649 C 0.91337 0.34158 0.95815 0.0
C2650 C 0.89311 0.31582 0.99473 0.0
C2651 C 0.91234 0.34507 0.94012 0.0
C2652 C 0.87309 0.32541 0.06747 0.0
C2653 C 0.87733 0.32316 0.04971 0.0
C2654 C 0.90332 0.34476 0.01514 0.0
C2655 C 0.89978 0.33242 0.96675 0.0
C2656 C 0.89957 0.33099 0.98634 0.0
C2657 C 0.89309 0.33003 0.04287 0.0
C2658 C 0.89639 0.32981 0.02352 0.0
H2659 H 0.87323 0.32475 0.93134 0.0
H2660 H 0.87491 0.31884 0.96275 0.0
H2661 H 0.90958 0.3574 0.99089 0.0
H2662 H 0.90986 0.34765 0.08068 0.0
H2663 H 0.91736 0.34352 0.04975 0.0
C2664 C 0.10818 0.39651 0.56049 0.0
C2665 C 0.12071 0.39887 0.57391 0.0
C2666 C 0.11202 0.40104 0.54317 0.0
C2667 C 0.1482 0.40653 0.51204 0.0
H2668 H 0.11153 0.42758 0.48365 0.0
C2669 C 0.13008 0.42772 0.43533 0.0
C2670 C 0.13552 0.41233 0.42662 0.0
C2671 C 0.13173 0.42928 0.45359 0.0
C2672 C 0.1221 0.42199 0.49135 0.0
H2673 H 0.14718 0.40798 0.57961 0.0
H2674 H 0.15401 0.41583 0.54902 0.0
H2675 H 0.10747 0.42487 0.51518 0.0
H2676 H 0.14813 0.38703 0.43019 0.0
H2677 H 0.15072 0.38962 0.462 0.0
H2678 H 0.16271 0.4034 0.48807 0.0
C2679 C 0.14116 0.41045 0.55208 0.0
C2680 C 0.11966 0.42025 0.50946 0.0
C2681 C 0.13723 0.40605 0.56957 0.0
C2682 C 0.14378 0.39907 0.43646 0.0
C2683 C 0.14533 0.40059 0.45475 0.0
C2684 C 0.15065 0.40824 0.49385 0.0
C2685 C 0.12855 0.408 0.53869 0.0
C2686 C 0.13245 0.41208 0.51996 0.0
C2687 C 0.13875 0.41545 0.46362 0.0
C2688 C 0.13744 0.41565 0.48321 0.0
H2689 H 0.09532 0.39102 0.56331 0.0
H2690 H 0.1021 0.39869 0.53319 0.0
H2691 H 0.15829 0.40013 0.51977 0.0
H2692 H 0.12384 0.43827 0.42814 0.0
H2693 H 0.1269 0.44109 0.45992 0.0
C2694 C 0.91177 0.63474 0.92721 0.0
C2695 C 0.89845 0.64405 0.9184 0.0
C2696 C 0.91506 0.63774 0.94507 0.0
C2697 C 0.89146 0.65217 0.98453 0.0
H2698 H 0.93714 0.64776 0.00682 0.0
C2699 C 0.89733 0.64932 0.05987 0.0
C2700 C 0.90812 0.63581 0.06633 0.0
C2701 C 0.8982 0.6543 0.04218 0.0
C2702 C 0.92427 0.64898 0.00081 0.0
H2703 H 0.87903 0.6647 0.92123 0.0
H2704 H 0.8849 0.67003 0.95234 0.0
H2705 H 0.93513 0.64945 0.97481 0.0
H2706 H 0.92906 0.61773 0.05946 0.0
H2707 H 0.93038 0.62618 0.02873 0.0
H2708 H 0.8805 0.65102 0.01034 0.0
C2709 C 0.89258 0.66019 0.94549 0.0
C2710 C 0.92313 0.64996 0.98246 0.0
C2711 C 0.88931 0.65722 0.92761 0.0
C2712 C 0.92051 0.62816 0.05495 0.0
C2713 C 0.92134 0.63309 0.03728 0.0
C2714 C 0.89259 0.65113 0.00284 0.0
C2715 C 0.90512 0.65011 0.95457 0.0
C2716 C 0.90668 0.65123 0.97407 0.0
C2717 C 0.90985 0.64587 0.03053 0.0
C2718 C 0.90898 0.64917 0.01122 0.0
H2719 H 0.91909 0.62452 0.92054 0.0
H2720 H 0.92473 0.62965 0.95164 0.0
H2721 H 0.87855 0.65284 0.97854 0.0
H2722 H 0.88772 0.6556 0.06828 0.0
H2723 H 0.88939 0.66444 0.03753 0.0
C2724 C 0.84676 0.39695 0.43894 0.0
C2725 C 0.83567 0.3856 0.42931 0.0
C2726 C 0.84509 0.39845 0.45723 0.0
C2727 C 0.83605 0.40288 0.49627 0.0
H2728 H 0.83055 0.35747 0.51869 0.0
C2729 C 0.83905 0.39195 0.57265 0.0
C2730 C 0.85044 0.37825 0.57754 0.0
C2731 C 0.83444 0.39435 0.5549 0.0
C2732 C 0.83199 0.37028 0.51265 0.0
H2733 H 0.81324 0.36799 0.43124 0.0
H2734 H 0.81015 0.37083 0.463 0.0
H2735 H 0.82738 0.35978 0.48699 0.0
H2736 H 0.86566 0.35623 0.56762 0.0
H2737 H 0.85754 0.3603 0.53711 0.0
H2738 H 0.84141 0.41314 0.52211 0.0
C2739 C 0.82042 0.37826 0.4565 0.0
C2740 C 0.83001 0.37166 0.49446 0.0
C2741 C 0.82213 0.37672 0.43825 0.0
C2742 C 0.85688 0.36694 0.56439 0.0
C2743 C 0.85213 0.36919 0.54684 0.0
C2744 C 0.83796 0.40151 0.51458 0.0
C2745 C 0.83226 0.38867 0.46632 0.0
C2746 C 0.83236 0.38789 0.48594 0.0
C2747 C 0.84089 0.3829 0.54183 0.0
C2748 C 0.83639 0.38509 0.5229 0.0
H2749 H 0.85734 0.40399 0.4325 0.0
H2750 H 0.85451 0.4065 0.46433 0.0
H2751 H 0.83779 0.41562 0.49018 0.0
H2752 H 0.83393 0.40091 0.58247 0.0
H2753 H 0.82573 0.40504 0.5514 0.0
C2754 C 0.18123 0.63063 0.55306 0.0
C2755 C 0.16995 0.62042 0.56358 0.0
C2756 C 0.18263 0.6274 0.535 0.0
C2757 C 0.17169 0.59524 0.49935 0.0
H2758 H 0.16976 0.63713 0.47051 0.0
C2759 C 0.14936 0.59452 0.42655 0.0
C2760 C 0.15677 0.60675 0.41482 0.0
C2761 C 0.15399 0.59467 0.44437 0.0
C2762 C 0.17064 0.62526 0.47829 0.0
H2763 H 0.152 0.59817 0.56339 0.0
H2764 H 0.15432 0.59264 0.53189 0.0
H2765 H 0.17243 0.64 0.50221 0.0
H2766 H 0.17565 0.62807 0.41254 0.0
H2767 H 0.18391 0.62816 0.44357 0.0
H2768 H 0.16946 0.58053 0.47534 0.0
C2769 C 0.16221 0.60308 0.53762 0.0
C2770 C 0.17217 0.62691 0.49655 0.0
C2771 C 0.16084 0.60628 0.55572 0.0
C2772 C 0.16962 0.61851 0.42119 0.0
C2773 C 0.17425 0.61866 0.43903 0.0
C2774 C 0.17015 0.59359 0.48105 0.0
C2775 C 0.17276 0.6139 0.52693 0.0
C2776 C 0.17251 0.61194 0.50737 0.0
C2777 C 0.16617 0.60703 0.45095 0.0
C2778 C 0.16939 0.6086 0.47028 0.0
H2779 H 0.18855 0.64154 0.55867 0.0
H2780 H 0.19118 0.63577 0.52727 0.0
H2781 H 0.17215 0.58341 0.50723 0.0
H2782 H 0.13943 0.58525 0.42213 0.0
H2783 H 0.14737 0.58561 0.45312 0.0
C2784 C 0.31309 0.14178 0.38573 0.0
C2785 C 0.32202 0.13037 0.3972 0.0
C2786 C 0.29488 0.14018 0.38318 0.0
C2787 C 0.25463 0.13852 0.38582 0.0
H2788 H 0.23667 0.09082 0.38212 0.0
C2789 C 0.1825 0.12399 0.36554 0.0
C2790 C 0.17362 0.11112 0.37543 0.0
C2791 C 0.20077 0.12612 0.36706 0.0
C2792 C 0.2414 0.10423 0.38326 0.0
H2793 H 0.31854 0.10899 0.4157 0.0
H2794 H 0.28689 0.10641 0.41146 0.0
H2795 H 0.26779 0.09577 0.38806 0.0
H2796 H 0.17718 0.08996 0.39414 0.0
H2797 H 0.20886 0.0937 0.39681 0.0
H2798 H 0.22818 0.14697 0.38113 0.0
C2799 C 0.29399 0.11633 0.40413 0.0
C2800 C 0.25927 0.10708 0.38672 0.0
C2801 C 0.31216 0.11793 0.40668 0.0
C2802 C 0.18355 0.09997 0.38628 0.0
C2803 C 0.20178 0.10209 0.38778 0.0
C2804 C 0.23672 0.13567 0.38239 0.0
C2805 C 0.28518 0.12713 0.39203 0.0
C2806 C 0.26611 0.12426 0.38818 0.0
C2807 C 0.21061 0.11541 0.37845 0.0
C2808 C 0.22984 0.11848 0.38118 0.0
H2809 H 0.32026 0.15148 0.37816 0.0
H2810 H 0.28854 0.14869 0.37372 0.0
H2811 H 0.2594 0.15192 0.387 0.0
H2812 H 0.17529 0.13281 0.35705 0.0
H2813 H 0.20715 0.13632 0.35945 0.0
C2814 C 0.39057 0.68254 0.87114 0.0
C2815 C 0.38597 0.67454 0.85511 0.0
C2816 C 0.38815 0.70059 0.87374 0.0
C2817 C 0.36431 0.73915 0.85419 0.0
H2818 H 0.39054 0.76435 0.88999 0.0
C2819 C 0.34634 0.81092 0.87166 0.0
C2820 C 0.35988 0.82232 0.87707 0.0
C2821 C 0.34933 0.79278 0.87019 0.0
C2822 C 0.3832 0.75774 0.8797 0.0
H2823 H 0.37634 0.67941 0.82879 0.0
H2824 H 0.37346 0.71107 0.83272 0.0
H2825 H 0.39798 0.73426 0.88338 0.0
H2826 H 0.38717 0.82363 0.8853 0.0
H2827 H 0.39274 0.79253 0.88174 0.0
H2828 H 0.35052 0.76305 0.8495 0.0
C2829 C 0.37799 0.70337 0.84375 0.0
C2830 C 0.38727 0.74015 0.87613 0.0
C2831 C 0.37991 0.68518 0.84135 0.0
C2832 C 0.37636 0.81517 0.88134 0.0
C2833 C 0.37951 0.79717 0.87935 0.0
C2834 C 0.36061 0.7569 0.85738 0.0
C2835 C 0.38156 0.71132 0.86018 0.0
C2836 C 0.3778 0.73046 0.86341 0.0
C2837 C 0.36613 0.78565 0.87351 0.0
C2838 C 0.3699 0.76651 0.87029 0.0
H2839 H 0.39514 0.67472 0.88209 0.0
H2840 H 0.39081 0.70587 0.8867 0.0
H2841 H 0.35635 0.73227 0.84455 0.0
H2842 H 0.33349 0.81606 0.86832 0.0
H2843 H 0.33844 0.78446 0.8662 0.0
C2844 C 0.68759 0.86415 0.38742 0.0
C2845 C 0.6798 0.85396 0.37402 0.0
C2846 C 0.70575 0.86742 0.38744 0.0
C2847 C 0.7437 0.86888 0.35696 0.0
H2848 H 0.77122 0.87155 0.39982 0.0
C2849 C 0.81986 0.87604 0.35753 0.0
C2850 C 0.82749 0.88638 0.37091 0.0
C2851 C 0.80171 0.87267 0.35742 0.0
C2852 C 0.76368 0.87109 0.38774 0.0
H2853 H 0.68522 0.83847 0.35064 0.0
H2854 H 0.71682 0.84389 0.35088 0.0
H2855 H 0.74019 0.86345 0.40129 0.0
H2856 H 0.82183 0.90204 0.39411 0.0
H2857 H 0.79027 0.89641 0.39372 0.0
H2858 H 0.76721 0.8765 0.34342 0.0
C2859 C 0.70886 0.84971 0.36116 0.0
C2860 C 0.74588 0.8664 0.38858 0.0
C2861 C 0.69073 0.84646 0.36112 0.0
C2862 C 0.81644 0.89393 0.38366 0.0
C2863 C 0.79833 0.89057 0.38354 0.0
C2864 C 0.76152 0.87356 0.35612 0.0
C2865 C 0.71656 0.86056 0.37408 0.0
C2866 C 0.73564 0.86523 0.37321 0.0
C2867 C 0.79078 0.87956 0.37067 0.0
C2868 C 0.77174 0.87476 0.3715 0.0
H2869 H 0.67958 0.87021 0.39751 0.0
H2870 H 0.71118 0.87592 0.39755 0.0
H2871 H 0.73617 0.86844 0.34488 0.0
H2872 H 0.82797 0.86994 0.34755 0.0
H2873 H 0.79638 0.86406 0.34735 0.0
C2874 C 0.63129 0.18607 0.89215 0.0
C2875 C 0.64475 0.17729 0.88299 0.0
C2876 C 0.62809 0.20396 0.88921 0.0
C2877 C 0.63525 0.23824 0.85532 0.0
H2878 H 0.62038 0.27029 0.89209 0.0
C2879 C 0.63161 0.31371 0.84598 0.0
C2880 C 0.61805 0.32299 0.85444 0.0
C2881 C 0.63373 0.29564 0.84867 0.0
C2882 C 0.62427 0.26145 0.88161 0.0
H2883 H 0.66603 0.18076 0.86435 0.0
H2884 H 0.66075 0.21195 0.85959 0.0
H2885 H 0.62735 0.23988 0.89939 0.0
H2886 H 0.59545 0.32022 0.87162 0.0
H2887 H 0.59909 0.28868 0.87622 0.0
H2888 H 0.63235 0.25987 0.83758 0.0
C2889 C 0.65233 0.20493 0.86867 0.0
C2890 C 0.62832 0.244 0.88582 0.0
C2891 C 0.65548 0.18705 0.87154 0.0
C2892 C 0.60609 0.31354 0.86493 0.0
C2893 C 0.60827 0.29547 0.86771 0.0
C2894 C 0.63126 0.25569 0.85113 0.0
C2895 C 0.6383 0.21353 0.8771 0.0
C2896 C 0.63397 0.23217 0.87274 0.0
C2897 C 0.62237 0.28637 0.85995 0.0
C2898 C 0.62579 0.26755 0.86423 0.0
H2899 H 0.62269 0.17895 0.90098 0.0
H2900 H 0.61712 0.21009 0.89588 0.0
H2901 H 0.63916 0.22945 0.84481 0.0
H2902 H 0.64109 0.32053 0.83782 0.0
H2903 H 0.64479 0.2891 0.84254 0.0
C2904 C 0.31629 0.84275 0.62859 0.0
C2905 C 0.32598 0.85347 0.61707 0.0
C2906 C 0.2982 0.84527 0.63083 0.0
C2907 C 0.25875 0.86708 0.61181 0.0
H2908 H 0.24194 0.86517 0.65988 0.0
C2909 C 0.18833 0.88897 0.63049 0.0
C2910 C 0.179 0.87763 0.64173 0.0
C2911 C 0.20645 0.88685 0.6279 0.0
C2912 C 0.24637 0.86563 0.64636 0.0
H2913 H 0.32396 0.87469 0.59817 0.0
H2914 H 0.29249 0.87912 0.60214 0.0
H2915 H 0.27267 0.85875 0.65357 0.0
H2916 H 0.18164 0.85568 0.65967 0.0
H2917 H 0.21313 0.85204 0.65523 0.0
H2918 H 0.23241 0.87402 0.60464 0.0
C2919 C 0.29884 0.86869 0.6094 0.0
C2920 C 0.264 0.86187 0.64272 0.0
C2921 C 0.31694 0.86614 0.60713 0.0
C2922 C 0.18838 0.86467 0.65094 0.0
C2923 C 0.20649 0.86261 0.64841 0.0
C2924 C 0.24111 0.87088 0.61546 0.0
C2925 C 0.28931 0.85859 0.62163 0.0
C2926 C 0.27043 0.86245 0.62538 0.0
C2927 C 0.2157 0.87341 0.63657 0.0
C2928 C 0.23467 0.87014 0.63278 0.0
H2929 H 0.32278 0.83281 0.63641 0.0
H2930 H 0.29123 0.83697 0.64005 0.0
H2931 H 0.26316 0.86749 0.59828 0.0
H2932 H 0.18153 0.89907 0.62315 0.0
H2933 H 0.21319 0.89559 0.6189 0.0
C2934 C 0.63999 0.69076 0.14647 0.0
C2935 C 0.6271 0.67952 0.13926 0.0
C2936 C 0.63972 0.70884 0.14309 0.0
C2937 C 0.62313 0.74063 0.11039 0.0
H2938 H 0.63677 0.77536 0.14533 0.0
C2939 C 0.61525 0.81557 0.09977 0.0
C2940 C 0.628 0.827 0.10694 0.0
C2941 C 0.61593 0.79747 0.10296 0.0
C2942 C 0.63318 0.76582 0.13533 0.0
H2943 H 0.60333 0.67869 0.12346 0.0
H2944 H 0.60271 0.71027 0.11778 0.0
H2945 H 0.63525 0.74438 0.1534 0.0
H2946 H 0.65196 0.82816 0.12243 0.0
H2947 H 0.65327 0.79652 0.1278 0.0
H2948 H 0.62102 0.76208 0.09233 0.0
C2949 C 0.61324 0.70504 0.1258 0.0
C2950 C 0.63224 0.74803 0.13999 0.0
C2951 C 0.61348 0.68693 0.12921 0.0
C2952 C 0.64192 0.81976 0.1167 0.0
C2953 C 0.64257 0.80163 0.11994 0.0
C2954 C 0.62406 0.75841 0.10574 0.0
C2955 C 0.62656 0.71617 0.13239 0.0
C2956 C 0.62717 0.7352 0.12759 0.0
C2957 C 0.62936 0.7903 0.11343 0.0
C2958 C 0.62907 0.77126 0.11815 0.0
H2959 H 0.65069 0.68554 0.15426 0.0
H2960 H 0.65027 0.71695 0.14829 0.0
H2961 H 0.61952 0.7311 0.10039 0.0
H2962 H 0.60433 0.82066 0.0922 0.0
H2963 H 0.60547 0.78921 0.09782 0.0
C2964 C 0.81272 0.10724 0.64531 0.0
C2965 C 0.82213 0.11907 0.65608 0.0
C2966 C 0.79458 0.10925 0.6427 0.0
C2967 C 0.76011 0.14359 0.64487 0.0
H2968 H 0.72793 0.10426 0.63947 0.0
C2969 C 0.68446 0.15192 0.64255 0.0
C2970 C 0.67465 0.14085 0.63135 0.0
C2971 C 0.7026 0.14957 0.64462 0.0
C2972 C 0.73678 0.11539 0.6407 0.0
H2973 H 0.81955 0.14164 0.67341 0.0
H2974 H 0.78797 0.14485 0.66922 0.0
H2975 H 0.75884 0.09879 0.64616 0.0
H2976 H 0.67645 0.11904 0.61298 0.0
H2977 H 0.70814 0.11507 0.61646 0.0
H2978 H 0.73805 0.1602 0.63952 0.0
C2979 C 0.79466 0.13431 0.66237 0.0
C2980 C 0.75452 0.11225 0.64459 0.0
C2981 C 0.81278 0.13234 0.66494 0.0
C2982 C 0.68357 0.12782 0.62171 0.0
C2983 C 0.70173 0.12542 0.62384 0.0
C2984 C 0.74238 0.14673 0.64103 0.0
C2985 C 0.78538 0.12309 0.65085 0.0
C2986 C 0.76642 0.12632 0.64681 0.0
C2987 C 0.71141 0.13605 0.63558 0.0
C2988 C 0.73046 0.13268 0.63895 0.0
H2989 H 0.81947 0.09688 0.63825 0.0
H2990 H 0.78792 0.10039 0.63368 0.0
H2991 H 0.76892 0.15476 0.64608 0.0
H2992 H 0.67804 0.16206 0.65022 0.0
H2993 H 0.70958 0.15793 0.65386 0.0
C2994 C 0.36559 0.1874 0.11311 0.0
C2995 C 0.3546 0.18001 0.12601 0.0
C2996 C 0.36924 0.20549 0.11312 0.0
C2997 C 0.37018 0.24375 0.14335 0.0
H2998 H 0.37441 0.27092 0.10055 0.0
C2999 C 0.3773 0.3198 0.1431 0.0
C3000 C 0.38773 0.32752 0.12994 0.0
C3001 C 0.37413 0.30162 0.14311 0.0
C3002 C 0.37354 0.26348 0.11264 0.0
H3003 H 0.33811 0.18609 0.14848 0.0
H3004 H 0.34425 0.21754 0.1483 0.0
H3005 H 0.3662 0.23993 0.09886 0.0
H3006 H 0.40386 0.32197 0.10709 0.0
H3007 H 0.39865 0.29035 0.10734 0.0
H3008 H 0.37753 0.26727 0.15713 0.0
C3009 C 0.35037 0.20932 0.13841 0.0
C3010 C 0.36877 0.24569 0.11165 0.0
C3011 C 0.34672 0.19127 0.1384 0.0
C3012 C 0.39566 0.31651 0.11736 0.0
C3013 C 0.39253 0.29836 0.11739 0.0
C3014 C 0.37497 0.26152 0.14433 0.0
C3015 C 0.36198 0.21661 0.12602 0.0
C3016 C 0.36697 0.2356 0.12699 0.0
C3017 C 0.38137 0.29072 0.12999 0.0
C3018 C 0.3767 0.27164 0.12899 0.0
H3019 H 0.37195 0.17912 0.10341 0.0
H3020 H 0.3783 0.21063 0.10342 0.0
H3021 H 0.36924 0.2363 0.15542 0.0
H3022 H 0.37091 0.32786 0.15295 0.0
H3023 H 0.36539 0.29625 0.15297 0.0
C3024 C 0.11225 0.36783 0.18543 0.0
C3025 C 0.09951 0.37922 0.1784 0.0
C3026 C 0.11597 0.36793 0.20348 0.0
C3027 C 0.11348 0.39726 0.24215 0.0
H3028 H 0.12324 0.35489 0.26855 0.0
C3029 C 0.12232 0.39716 0.3179 0.0
C3030 C 0.13421 0.38512 0.32528 0.0
C3031 C 0.11878 0.39694 0.29983 0.0
C3032 C 0.12083 0.36689 0.26133 0.0
H3033 H 0.0801 0.399 0.18506 0.0
H3034 H 0.08646 0.39902 0.21646 0.0
H3035 H 0.11479 0.35265 0.23769 0.0
H3036 H 0.15243 0.36406 0.31924 0.0
H3037 H 0.1466 0.36397 0.28774 0.0
H3038 H 0.11963 0.41153 0.26571 0.0
C3039 C 0.09379 0.39024 0.20798 0.0
C3040 C 0.1159 0.36558 0.24363 0.0
C3041 C 0.09003 0.39009 0.18997 0.0
C3042 C 0.14311 0.37345 0.31403 0.0
C3043 C 0.13963 0.37328 0.29596 0.0
C3044 C 0.11847 0.39858 0.25983 0.0
C3045 C 0.10708 0.37945 0.21491 0.0
C3046 C 0.11211 0.38075 0.23382 0.0
C3047 C 0.12709 0.38472 0.28867 0.0
C3048 C 0.1222 0.38341 0.26968 0.0
H3049 H 0.11986 0.35932 0.17692 0.0
H3050 H 0.12633 0.3595 0.20835 0.0
H3051 H 0.11098 0.40924 0.23491 0.0
H3052 H 0.11513 0.40625 0.32618 0.0
H3053 H 0.10895 0.40586 0.29475 0.0
C3054 C 0.14647 0.62044 0.6744 0.0
C3055 C 0.15686 0.63353 0.66645 0.0
C3056 C 0.1426 0.62125 0.69238 0.0
C3057 C 0.15579 0.64196 0.73472 0.0
H3058 H 0.10697 0.63403 0.74723 0.0
C3059 C 0.13034 0.65542 0.80526 0.0
C3060 C 0.11874 0.64285 0.81234 0.0
C3061 C 0.13459 0.65513 0.78732 0.0
C3062 C 0.1207 0.63612 0.74404 0.0
H3063 H 0.17207 0.65723 0.67147 0.0
H3064 H 0.16546 0.65853 0.7028 0.0
H3065 H 0.11623 0.63056 0.71678 0.0
H3066 H 0.10199 0.62056 0.80585 0.0
H3067 H 0.10948 0.61996 0.77486 0.0
H3068 H 0.16032 0.64733 0.76201 0.0
C3069 C 0.16026 0.64766 0.69513 0.0
C3070 C 0.12602 0.63408 0.72655 0.0
C3071 C 0.16404 0.64691 0.67713 0.0
C3072 C 0.11094 0.63049 0.8009 0.0
C3073 C 0.11521 0.63018 0.78303 0.0
C3074 C 0.15049 0.6439 0.75226 0.0
C3075 C 0.14912 0.6351 0.7029 0.0
C3076 C 0.14364 0.63693 0.72165 0.0
C3077 C 0.12735 0.64227 0.77602 0.0
C3078 C 0.13287 0.64096 0.75719 0.0
H3079 H 0.14068 0.60996 0.6666 0.0
H3080 H 0.13421 0.61119 0.69801 0.0
H3081 H 0.16949 0.64412 0.73144 0.0
H3082 H 0.13659 0.66514 0.81366 0.0
H3083 H 0.14373 0.66487 0.78235 0.0
C3084 C 0.89099 0.61564 0.1744 0.0
C3085 C 0.88681 0.63215 0.16729 0.0
C3086 C 0.88933 0.61255 0.19243 0.0
C3087 C 0.86727 0.63093 0.23231 0.0
H3088 H 0.89566 0.59604 0.256 0.0
C3089 C 0.85244 0.61181 0.30409 0.0
C3090 C 0.86686 0.60846 0.31513 0.0
C3091 C 0.85471 0.61313 0.28587 0.0
C3092 C 0.8877 0.60599 0.24972 0.0
H3093 H 0.87857 0.65865 0.17366 0.0
H3094 H 0.87668 0.65364 0.20523 0.0
H3095 H 0.90158 0.60298 0.22551 0.0
H3096 H 0.89493 0.60339 0.31559 0.0
H3097 H 0.89903 0.60635 0.28419 0.0
H3098 H 0.85411 0.63475 0.25678 0.0
C3099 C 0.8805 0.64278 0.19685 0.0
C3100 C 0.89093 0.6098 0.23203 0.0
C3101 C 0.88181 0.64576 0.17874 0.0
C3102 C 0.88347 0.6058 0.30748 0.0
C3103 C 0.88581 0.60746 0.28934 0.0
C3104 C 0.86426 0.62738 0.25008 0.0
C3105 C 0.88377 0.62599 0.20392 0.0
C3106 C 0.88074 0.6223 0.22301 0.0
C3107 C 0.87154 0.61149 0.27826 0.0
C3108 C 0.87439 0.61482 0.25908 0.0
H3109 H 0.89467 0.60478 0.16592 0.0
H3110 H 0.89173 0.59937 0.19717 0.0
H3111 H 0.85885 0.64038 0.22586 0.0
H3112 H 0.83945 0.61385 0.30957 0.0
H3113 H 0.84327 0.61574 0.27781 0.0
C3114 C 0.87506 0.35553 0.82096 0.0
C3115 C 0.86499 0.34283 0.82989 0.0
C3116 C 0.87235 0.35865 0.80301 0.0
C3117 C 0.8383 0.35266 0.76826 0.0
H3118 H 0.87628 0.36543 0.73679 0.0
C3119 C 0.83057 0.35553 0.69251 0.0
C3120 C 0.83963 0.36879 0.68333 0.0
C3121 C 0.83285 0.35351 0.71065 0.0
C3122 C 0.86548 0.36212 0.74546 0.0
H3123 H 0.84482 0.32282 0.82666 0.0
H3124 H 0.84049 0.32786 0.79536 0.0
H3125 H 0.88279 0.35855 0.7674 0.0
H3126 H 0.85748 0.39095 0.68633 0.0
H3127 H 0.8614 0.38742 0.71799 0.0
H3128 H 0.82106 0.35596 0.74621 0.0
C3129 C 0.85012 0.33581 0.80229 0.0
C3130 C 0.86922 0.35814 0.76304 0.0
C3131 C 0.85275 0.33277 0.82024 0.0
C3132 C 0.85033 0.38055 0.69293 0.0
C3133 C 0.85271 0.37843 0.71107 0.0
C3134 C 0.83459 0.35653 0.75067 0.0
C3135 C 0.85958 0.34908 0.7935 0.0
C3136 C 0.85569 0.35328 0.77469 0.0
C3137 C 0.84432 0.36463 0.72008 0.0
C3138 C 0.84813 0.36127 0.73902 0.0
H3139 H 0.88451 0.36362 0.82799 0.0
H3140 H 0.8798 0.36906 0.79679 0.0
H3141 H 0.82746 0.34937 0.77688 0.0
H3142 H 0.82224 0.34622 0.68557 0.0
H3143 H 0.82622 0.34269 0.71714 0.0
C3144 C 0.68868 0.87477 0.61272 0.0
C3145 C 0.68098 0.85843 0.6168 0.0
C3146 C 0.70684 0.87734 0.61448 0.0
C3147 C 0.74932 0.85674 0.61358 0.0
H3148 H 0.76454 0.89201 0.64745 0.0
C3149 C 0.82115 0.88213 0.62001 0.0
C3150 C 0.82878 0.87865 0.6365 0.0
C3151 C 0.80299 0.88034 0.6175 0.0
C3152 C 0.76043 0.88217 0.63794 0.0
H3153 H 0.68638 0.83177 0.62519 0.0
H3154 H 0.71834 0.8361 0.62749 0.0
H3155 H 0.73297 0.88708 0.64228 0.0
H3156 H 0.82325 0.8713 0.66343 0.0
H3157 H 0.79129 0.86896 0.65918 0.0
H3158 H 0.77679 0.85215 0.60891 0.0
C3159 C 0.71018 0.84695 0.62324 0.0
C3160 C 0.74245 0.87939 0.63495 0.0
C3161 C 0.69194 0.84448 0.62191 0.0
C3162 C 0.81775 0.87412 0.65061 0.0
C3163 C 0.79951 0.87276 0.64819 0.0
C3164 C 0.76731 0.85982 0.61625 0.0
C3165 C 0.71771 0.86351 0.61993 0.0
C3166 C 0.73676 0.86659 0.62282 0.0
C3167 C 0.79205 0.87547 0.63151 0.0
C3168 C 0.773 0.87249 0.62853 0.0
H3169 H 0.6806 0.88584 0.60892 0.0
H3170 H 0.71238 0.8902 0.61178 0.0
H3171 H 0.74522 0.84681 0.60416 0.0
H3172 H 0.82928 0.88547 0.60882 0.0
H3173 H 0.7975 0.88256 0.60455 0.0
C3174 C 0.60531 0.18901 0.10136 0.0
C3175 C 0.61889 0.17964 0.10968 0.0
C3176 C 0.60363 0.20717 0.1038 0.0
C3177 C 0.61523 0.24241 0.13542 0.0
H3178 H 0.59938 0.27316 0.09812 0.0
C3179 C 0.61167 0.31851 0.1425 0.0
C3180 C 0.59786 0.32729 0.1339 0.0
C3181 C 0.61396 0.30035 0.14037 0.0
C3182 C 0.60358 0.26472 0.10876 0.0
H3183 H 0.64181 0.18226 0.12653 0.0
H3184 H 0.63903 0.21402 0.13056 0.0
H3185 H 0.60509 0.24228 0.09175 0.0
H3186 H 0.57502 0.32355 0.11713 0.0
H3187 H 0.57883 0.29191 0.1137 0.0
H3188 H 0.6137 0.26491 0.15243 0.0
C3189 C 0.62949 0.20724 0.12237 0.0
C3190 C 0.60692 0.247 0.10509 0.0
C3191 C 0.63121 0.18904 0.11989 0.0
C3192 C 0.58584 0.31728 0.12391 0.0
C3193 C 0.58814 0.29914 0.12178 0.0
C3194 C 0.6119 0.26017 0.1391 0.0
C3195 C 0.61547 0.21648 0.11464 0.0
C3196 C 0.61271 0.23557 0.11838 0.0
C3197 C 0.60249 0.29051 0.12959 0.0
C3198 C 0.60593 0.27154 0.12583 0.0
H3199 H 0.59556 0.18222 0.09343 0.0
H3200 H 0.59259 0.21378 0.09774 0.0
H3201 H 0.6194 0.23396 0.14606 0.0
H3202 H 0.62121 0.32578 0.15026 0.0
H3203 H 0.6252 0.29418 0.14654 0.0
C3204 C 0.18727 0.13877 0.6581 0.0
C3205 C 0.17602 0.12725 0.64886 0.0
C3206 C 0.20539 0.13884 0.65489 0.0
C3207 C 0.24162 0.11346 0.63392 0.0
H3208 H 0.26402 0.15929 0.63085 0.0
C3209 C 0.31152 0.12157 0.60581 0.0
C3210 C 0.32321 0.13237 0.61535 0.0
C3211 C 0.29351 0.12156 0.60956 0.0
C3212 C 0.25802 0.14639 0.6318 0.0
H3213 H 0.17521 0.10622 0.62953 0.0
H3214 H 0.20675 0.10643 0.62383 0.0
H3215 H 0.23308 0.15718 0.63904 0.0
H3216 H 0.32491 0.15231 0.63576 0.0
H3217 H 0.29345 0.15236 0.64224 0.0
H3218 H 0.26654 0.10271 0.62652 0.0
C3219 C 0.20161 0.11533 0.63369 0.0
C3220 C 0.24027 0.14515 0.63657 0.0
C3221 C 0.18347 0.11522 0.63695 0.0
C3222 C 0.3163 0.14385 0.62812 0.0
C3223 C 0.29824 0.14387 0.63184 0.0
C3224 C 0.25935 0.11471 0.62909 0.0
C3225 C 0.21276 0.12743 0.64231 0.0
C3226 C 0.23182 0.12867 0.63769 0.0
C3227 C 0.28669 0.1324 0.6229 0.0
C3228 C 0.26776 0.13119 0.62792 0.0
H3229 H 0.18201 0.14815 0.66744 0.0
H3230 H 0.2136 0.14806 0.66209 0.0
H3231 H 0.23567 0.10054 0.63489 0.0
H3232 H 0.31633 0.11262 0.59582 0.0
H3233 H 0.28494 0.11283 0.60217 0.0
C3234 C 0.39088 0.81622 0.09332 0.0
C3235 C 0.37846 0.82629 0.1026 0.0
C3236 C 0.39225 0.79811 0.09609 0.0
C3237 C 0.38263 0.76413 0.12944 0.0
H3238 H 0.39458 0.73209 0.09158 0.0
C3239 C 0.38675 0.688 0.13755 0.0
C3240 C 0.39997 0.6792 0.12807 0.0
C3241 C 0.38408 0.7061 0.13533 0.0
C3242 C 0.39146 0.74089 0.10235 0.0
H3243 H 0.35721 0.82496 0.12155 0.0
H3244 H 0.3594 0.79324 0.12615 0.0
H3245 H 0.3887 0.76284 0.08506 0.0
H3246 H 0.42143 0.68282 0.10963 0.0
H3247 H 0.41694 0.71429 0.10599 0.0
H3248 H 0.38539 0.74207 0.14672 0.0
C3249 C 0.3683 0.79946 0.11695 0.0
C3250 C 0.38803 0.75854 0.0986 0.0
C3251 C 0.36692 0.81762 0.11416 0.0
C3252 C 0.41105 0.68911 0.11707 0.0
C3253 C 0.40836 0.70715 0.11484 0.0
C3254 C 0.38601 0.74642 0.1332 0.0
C3255 C 0.38122 0.78952 0.10819 0.0
C3256 C 0.38374 0.77046 0.1121 0.0
C3257 C 0.39455 0.71579 0.12356 0.0
C3258 C 0.39066 0.73461 0.11972 0.0
H3259 H 0.40002 0.82243 0.08435 0.0
H3260 H 0.40246 0.79096 0.08922 0.0
H3261 H 0.37961 0.77296 0.14021 0.0
H3262 H 0.37793 0.68078 0.14609 0.0
H3263 H 0.3733 0.71231 0.14223 0.0
C3264 C 0.68447 0.10608 0.40929 0.0
C3265 C 0.675 0.11973 0.40125 0.0
C3266 C 0.7026 0.10441 0.40667 0.0
C3267 C 0.74264 0.12773 0.39114 0.0
H3268 H 0.75925 0.0804 0.38194 0.0
C3269 C 0.81423 0.11441 0.36914 0.0
C3270 C 0.82287 0.10035 0.37743 0.0
C3271 C 0.79602 0.1166 0.3709 0.0
C3272 C 0.75489 0.09369 0.38463 0.0
H3273 H 0.67743 0.14284 0.38477 0.0
H3274 H 0.70909 0.13995 0.38023 0.0
H3275 H 0.72828 0.08527 0.38845 0.0
H3276 H 0.81889 0.07713 0.39346 0.0
H3277 H 0.78729 0.08095 0.39657 0.0
H3278 H 0.76931 0.13612 0.38742 0.0
C3279 C 0.70247 0.13054 0.38862 0.0
C3280 C 0.73711 0.09649 0.38841 0.0
C3281 C 0.6843 0.13221 0.39124 0.0
C3282 C 0.81271 0.08808 0.38684 0.0
C3283 C 0.79452 0.09026 0.3886 0.0
C3284 C 0.76046 0.12493 0.38738 0.0
C3285 C 0.71177 0.11635 0.39594 0.0
C3286 C 0.73076 0.11352 0.39184 0.0
C3287 C 0.78598 0.10476 0.38098 0.0
C3288 C 0.76685 0.10785 0.38416 0.0
H3289 H 0.67779 0.09627 0.41716 0.0
H3290 H 0.7094 0.09355 0.41284 0.0
H3291 H 0.73825 0.141 0.39386 0.0
H3292 H 0.82161 0.12412 0.36178 0.0
H3293 H 0.78985 0.12773 0.36458 0.0
C3294 C 0.36583 0.31438 0.85086 0.0
C3295 C 0.37705 0.32434 0.86177 0.0
C3296 C 0.36441 0.29615 0.8529 0.0
C3297 C 0.3704 0.2615 0.88617 0.0
H3298 H 0.36508 0.23001 0.84631 0.0
C3299 C 0.34779 0.18529 0.86841 0.0
C3300 C 0.35729 0.17594 0.88118 0.0
C3301 C 0.34989 0.20349 0.86671 0.0
C3302 C 0.3663 0.23864 0.85761 0.0
H3303 H 0.39611 0.32276 0.88296 0.0
H3304 H 0.39376 0.29091 0.88639 0.0
H3305 H 0.37053 0.2612 0.84135 0.0
H3306 H 0.37589 0.17859 0.9027 0.0
H3307 H 0.37961 0.21031 0.89967 0.0
H3308 H 0.36606 0.23894 0.90242 0.0
C3309 C 0.38586 0.29727 0.87641 0.0
C3310 C 0.36949 0.25653 0.85475 0.0
C3311 C 0.38734 0.31552 0.87432 0.0
C3312 C 0.36832 0.18537 0.89276 0.0
C3313 C 0.37044 0.20359 0.89102 0.0
C3314 C 0.36717 0.24359 0.88903 0.0
C3315 C 0.37414 0.28741 0.86594 0.0
C3316 C 0.37151 0.26821 0.86898 0.0
C3317 C 0.36157 0.21282 0.8777 0.0
C3318 C 0.36498 0.23193 0.87478 0.0
H3319 H 0.35768 0.32072 0.84108 0.0
H3320 H 0.35516 0.28901 0.84469 0.0
H3321 H 0.37161 0.27017 0.89744 0.0
H3322 H 0.33911 0.17849 0.85934 0.0
H3323 H 0.34252 0.21021 0.85657 0.0
C3324 C 0.19008 0.91483 0.38077 0.0
C3325 C 0.17984 0.90376 0.36996 0.0
C3326 C 0.20814 0.912 0.38275 0.0
C3327 C 0.24676 0.88879 0.364 0.0
H3328 H 0.26424 0.89207 0.41183 0.0
C3329 C 0.31779 0.86821 0.38224 0.0
C3330 C 0.32704 0.87983 0.39337 0.0
C3331 C 0.2996 0.87002 0.37976 0.0
C3332 C 0.25964 0.89123 0.39838 0.0
H3333 H 0.18086 0.88154 0.35201 0.0
H3334 H 0.2124 0.87661 0.35546 0.0
H3335 H 0.23347 0.89844 0.4057 0.0
H3336 H 0.32423 0.90196 0.41122 0.0
H3337 H 0.29269 0.9051 0.40692 0.0
H3338 H 0.273 0.88166 0.35668 0.0
C3339 C 0.20644 0.88753 0.36239 0.0
C3340 C 0.24198 0.89494 0.39484 0.0
C3341 C 0.18833 0.89037 0.3604 0.0
C3342 C 0.31755 0.89275 0.40257 0.0
C3343 C 0.2994 0.89453 0.40013 0.0
C3344 C 0.26446 0.88509 0.36754 0.0
C3345 C 0.21647 0.898 0.37398 0.0
C3346 C 0.23532 0.89391 0.37759 0.0
C3347 C 0.29023 0.88343 0.38842 0.0
C3348 C 0.27117 0.88639 0.38477 0.0
H3349 H 0.18403 0.92534 0.38825 0.0
H3350 H 0.21553 0.92058 0.39145 0.0
H3351 H 0.24212 0.88799 0.35055 0.0
H3352 H 0.32467 0.85813 0.37491 0.0
H3353 H 0.29292 0.86106 0.37087 0.0
C3354 C 0.62267 0.6855 0.86814 0.0
C3355 C 0.63461 0.67618 0.85753 0.0
C3356 C 0.62411 0.7038 0.87004 0.0
C3357 C 0.64404 0.74368 0.85015 0.0
H3358 H 0.64043 0.76288 0.89731 0.0
C3359 C 0.6399 0.81609 0.88613 0.0
C3360 C 0.6524 0.82521 0.876 0.0
C3361 C 0.63803 0.79781 0.88456 0.0
C3362 C 0.6413 0.75779 0.88403 0.0
H3363 H 0.65699 0.67894 0.84007 0.0
H3364 H 0.65942 0.71073 0.84333 0.0
H3365 H 0.63543 0.73152 0.89236 0.0
H3366 H 0.6734 0.82207 0.85698 0.0
H3367 H 0.67043 0.79024 0.85456 0.0
H3368 H 0.64983 0.76989 0.84177 0.0
C3369 C 0.64892 0.70395 0.85016 0.0
C3370 C 0.63839 0.73979 0.88118 0.0
C3371 C 0.64754 0.68567 0.84833 0.0
C3372 C 0.66357 0.8155 0.86492 0.0
C3373 C 0.66174 0.79724 0.86339 0.0
C3374 C 0.64689 0.76166 0.85298 0.0
C3375 C 0.63744 0.71321 0.8613 0.0
C3376 C 0.6398 0.73249 0.86422 0.0
C3377 C 0.64866 0.78819 0.87286 0.0
C3378 C 0.64567 0.76896 0.86997 0.0
H3379 H 0.61256 0.67863 0.87544 0.0
H3380 H 0.61488 0.71055 0.87852 0.0
H3381 H 0.64498 0.73856 0.83689 0.0
H3382 H 0.63102 0.82314 0.89475 0.0
H3383 H 0.62775 0.79134 0.89199 0.0
C3384 C 0.86596 0.59951 0.81117 0.0
C3385 C 0.87844 0.60945 0.82065 0.0
C3386 C 0.86457 0.60103 0.79297 0.0
C3387 C 0.88901 0.61351 0.75342 0.0
H3388 H 0.84251 0.61485 0.73233 0.0
C3389 C 0.87798 0.60405 0.67874 0.0
C3390 C 0.86645 0.61595 0.67059 0.0
C3391 C 0.87912 0.60322 0.69708 0.0
C3392 C 0.85558 0.61458 0.738 0.0
H3393 H 0.89933 0.62879 0.81835 0.0
H3394 H 0.89695 0.6314 0.78625 0.0
H3395 H 0.84551 0.61475 0.76425 0.0
H3396 H 0.84657 0.63579 0.67538 0.0
H3397 H 0.84845 0.63423 0.70732 0.0
H3398 H 0.89907 0.6134 0.72711 0.0
C3399 C 0.88826 0.6224 0.79306 0.0
C3400 C 0.85731 0.6144 0.75629 0.0
C3401 C 0.88957 0.62097 0.81142 0.0
C3402 C 0.85557 0.62646 0.68121 0.0
C3403 C 0.85663 0.62555 0.69954 0.0
C3404 C 0.88728 0.61358 0.73509 0.0
C3405 C 0.87567 0.61247 0.78367 0.0
C3406 C 0.87402 0.61375 0.76422 0.0
C3407 C 0.86866 0.61417 0.70769 0.0
C3408 C 0.87053 0.61403 0.72717 0.0
H3409 H 0.85716 0.59048 0.81779 0.0
H3410 H 0.85493 0.593 0.78613 0.0
H3411 H 0.90205 0.61288 0.75913 0.0
H3412 H 0.88658 0.59578 0.67097 0.0
H3413 H 0.88831 0.59411 0.70297 0.0
C3414 C 0.84002 0.36373 0.31643 0.0
C3415 C 0.84828 0.3763 0.3273 0.0
C3416 C 0.84365 0.36302 0.29841 0.0
C3417 C 0.86379 0.38788 0.26141 0.0
H3418 H 0.87097 0.34133 0.24168 0.0
C3419 C 0.8949 0.3784 0.19304 0.0
C3420 C 0.88695 0.36604 0.18171 0.0
C3421 C 0.89037 0.37913 0.21084 0.0
C3422 C 0.86885 0.35442 0.24692 0.0
H3423 H 0.86623 0.39855 0.32748 0.0
H3424 H 0.87261 0.39729 0.29612 0.0
H3425 H 0.86162 0.34444 0.27218 0.0
H3426 H 0.86851 0.34423 0.18047 0.0
H3427 H 0.86062 0.34548 0.21157 0.0
H3428 H 0.87113 0.39785 0.23617 0.0
C3429 C 0.86322 0.38801 0.30149 0.0
C3430 C 0.86343 0.35622 0.26442 0.0
C3431 C 0.85956 0.38874 0.31952 0.0
C3432 C 0.87495 0.35387 0.18882 0.0
C3433 C 0.87042 0.35459 0.20667 0.0
C3434 C 0.86924 0.38608 0.24393 0.0
C3435 C 0.85565 0.37485 0.29077 0.0
C3436 C 0.86086 0.37298 0.27193 0.0
C3437 C 0.87777 0.36751 0.21782 0.0
C3438 C 0.87192 0.36933 0.23646 0.0
H3439 H 0.83118 0.354 0.32194 0.0
H3440 H 0.83726 0.35297 0.29052 0.0
H3441 H 0.86171 0.40098 0.26663 0.0
H3442 H 0.90427 0.38793 0.18807 0.0
H3443 H 0.89659 0.38899 0.2191 0.0
C3444 C 0.11126 0.37373 0.81823 0.0
C3445 C 0.09951 0.38459 0.82752 0.0
C3446 C 0.11352 0.37569 0.80007 0.0
C3447 C 0.10906 0.40919 0.76543 0.0
H3448 H 0.11486 0.36988 0.73339 0.0
C3449 C 0.10973 0.41754 0.6899 0.0
C3450 C 0.12023 0.40622 0.67973 0.0
C3451 C 0.10837 0.4153 0.70809 0.0
C3452 C 0.11356 0.38103 0.74219 0.0
H3453 H 0.0803 0.40544 0.82475 0.0
H3454 H 0.08413 0.40871 0.79313 0.0
H3455 H 0.1091 0.36436 0.76443 0.0
H3456 H 0.13831 0.38424 0.68096 0.0
H3457 H 0.13626 0.38062 0.71274 0.0
H3458 H 0.11361 0.42588 0.74329 0.0
C3459 C 0.09181 0.39888 0.79994 0.0
C3460 C 0.11017 0.37784 0.75999 0.0
C3461 C 0.08949 0.39687 0.81807 0.0
C3462 C 0.13007 0.39319 0.68835 0.0
C3463 C 0.12873 0.39097 0.70658 0.0
C3464 C 0.11253 0.41238 0.74766 0.0
C3465 C 0.10415 0.38861 0.79078 0.0
C3466 C 0.10775 0.39188 0.77181 0.0
C3467 C 0.11753 0.40173 0.71664 0.0
C3468 C 0.11473 0.39835 0.73576 0.0
H3469 H 0.11924 0.36416 0.82508 0.0
H3470 H 0.12318 0.3676 0.79345 0.0
H3471 H 0.10763 0.42032 0.77423 0.0
H3472 H 0.10191 0.42768 0.68373 0.0
H3473 H 0.09949 0.42376 0.71533 0.0
C3474 C 0.12678 0.60304 0.3019 0.0
C3475 C 0.13844 0.61337 0.31197 0.0
C3476 C 0.12445 0.60623 0.28395 0.0
C3477 C 0.1292 0.64171 0.251 0.0
H3478 H 0.11934 0.60394 0.21803 0.0
C3479 C 0.12087 0.6519 0.17545 0.0
C3480 C 0.10811 0.64153 0.16682 0.0
C3481 C 0.12458 0.64935 0.19333 0.0
C3482 C 0.12186 0.61467 0.2271 0.0
H3483 H 0.15742 0.63471 0.31076 0.0
H3484 H 0.15362 0.64005 0.27933 0.0
H3485 H 0.12727 0.59697 0.24822 0.0
H3486 H 0.08852 0.62105 0.17061 0.0
H3487 H 0.09481 0.6168 0.20169 0.0
H3488 H 0.12384 0.65939 0.22975 0.0
C3489 C 0.14601 0.62967 0.28542 0.0
C3490 C 0.12646 0.61067 0.24444 0.0
C3491 C 0.14835 0.62647 0.30342 0.0
C3492 C 0.09849 0.62924 0.17675 0.0
C3493 C 0.10223 0.62666 0.19457 0.0
C3494 C 0.12467 0.64572 0.2336 0.0
C3495 C 0.13374 0.61983 0.27552 0.0
C3496 C 0.13002 0.62412 0.25671 0.0
C3497 C 0.11564 0.63633 0.20298 0.0
C3498 C 0.12075 0.63225 0.22147 0.0
H3499 H 0.11888 0.59287 0.30801 0.0
H3500 H 0.11477 0.59847 0.27687 0.0
H3501 H 0.13159 0.65245 0.26011 0.0
H3502 H 0.12856 0.66148 0.16825 0.0
H3503 H 0.135 0.65702 0.19938 0.0
loop_
_geom_bond_atom_site_label_1
_geom_bond_atom_site_label_2
_geom_bond_distance
_geom_bond_site_symmetry_2
_ccdc_geom_bond_type
C0 O1 1.160 . S
C0 O7 1.185 . S
O1 C0 1.160 . S
O2 Zn3 1.899 . S
O2 C10 1.284 . S
Zn3 O2 1.899 . S
Zn3 O4 2.032 . S
Zn3 O7 2.086 . S
Zn3 O12 1.977 . S
O4 Zn3 2.032 . S
O4 C8 1.278 . S
C5 O6 1.203 . S
C5 O12 1.267 . S
O6 C5 1.203 . S
O7 C0 1.185 . S
O7 Zn3 2.086 . S
C8 O4 1.278 . S
C8 O9 1.211 . S
O9 C8 1.211 . S
C10 O2 1.284 . S
C10 O11 1.273 . S
O11 C10 1.273 . S
O12 Zn3 1.977 . S
O12 C5 1.267 . S
C13 O14 1.160 . S
C13 O20 1.185 . S
O14 C13 1.160 . S
O15 Zn16 1.899 . S
O15 C23 1.284 . S
Zn16 O15 1.899 . S
Zn16 O17 2.032 . S
Zn16 O20 2.086 . S
Zn16 O25 1.977 . S
O17 Zn16 2.032 . S
O17 C21 1.278 . S
C18 O19 1.203 . S
C18 O25 1.267 . S
O19 C18 1.203 . S
O20 C13 1.185 . S
O20 Zn16 2.086 . S
C21 O17 1.278 . S
C21 O22 1.211 . S
O22 C21 1.211 . S
C23 O15 1.284 . S
C23 O24 1.273 . S
O24 C23 1.273 . S
O25 Zn16 1.977 . S
O25 C18 1.267 . S
C26 O27 1.160 . S
C26 O33 1.185 . S
O27 C26 1.160 . S
O28 Zn29 1.899 . S
O28 C36 1.284 . S
Zn29 O28 1.899 . S
Zn29 O30 2.032 . S
Zn29 O33 2.086 . S
Zn29 O38 1.977 . S
O30 Zn29 2.032 . S
O30 C34 1.278 . S
C31 O32 1.203 . S
C31 O38 1.267 . S
O32 C31 1.203 . S
O33 C26 1.185 . S
O33 Zn29 2.086 . S
C34 O30 1.278 . S
C34 O35 1.211 . S
O35 C34 1.211 . S
C36 O28 1.284 . S
C36 O37 1.273 . S
O37 C36 1.273 . S
O38 Zn29 1.977 . S
O38 C31 1.267 . S
C39 O40 1.160 . S
C39 O46 1.185 . S
O40 C39 1.160 . S
O41 Zn42 1.899 . S
O41 C49 1.284 . S
Zn42 O41 1.899 . S
Zn42 O43 2.032 . S
Zn42 O46 2.086 . S
Zn42 O51 1.977 . S
O43 Zn42 2.032 . S
O43 C47 1.278 . S
C44 O45 1.203 . S
C44 O51 1.267 . S
O45 C44 1.203 . S
O46 C39 1.185 . S
O46 Zn42 2.086 . S
C47 O43 1.278 . S
C47 O48 1.211 . S
O48 C47 1.211 . S
C49 O41 1.284 . S
C49 O50 1.273 . S
O50 C49 1.273 . S
O51 Zn42 1.977 . S
O51 C44 1.267 . S
C52 O53 1.160 . S
C52 O59 1.185 . S
O53 C52 1.160 . S
O54 Zn55 1.899 . S
O54 C62 1.284 . S
Zn55 O54 1.899 . S
Zn55 O56 2.032 . S
Zn55 O59 2.086 . S
Zn55 O64 1.977 . S
O56 Zn55 2.032 . S
O56 C60 1.278 . S
C57 O58 1.203 . S
C57 O64 1.267 . S
O58 C57 1.203 . S
O59 C52 1.185 . S
O59 Zn55 2.086 . S
C60 O56 1.278 . S
C60 O61 1.211 . S
O61 C60 1.211 . S
C62 O54 1.284 . S
C62 O63 1.273 . S
O63 C62 1.273 . S
O64 Zn55 1.977 . S
O64 C57 1.267 . S
C65 O66 1.160 . S
C65 O72 1.185 . S
O66 C65 1.160 . S
O67 Zn68 1.899 . S
O67 C75 1.284 . S
Zn68 O67 1.899 . S
Zn68 O69 2.032 . S
Zn68 O72 2.086 . S
Zn68 O77 1.977 . S
O69 Zn68 2.032 . S
O69 C73 1.278 . S
C70 O71 1.203 . S
C70 O77 1.267 . S
O71 C70 1.203 . S
O72 C65 1.185 . S
O72 Zn68 2.086 . S
C73 O69 1.278 . S
C73 O74 1.211 . S
O74 C73 1.211 . S
C75 O67 1.284 . S
C75 O76 1.273 . S
O76 C75 1.273 . S
O77 Zn68 1.977 . S
O77 C70 1.267 . S
C78 O79 1.160 . S
C78 O85 1.185 . S
O79 C78 1.160 . S
O80 Zn81 1.899 . S
O80 C88 1.284 . S
Zn81 O80 1.899 . S
Zn81 O82 2.032 . S
Zn81 O85 2.086 . S
Zn81 O90 1.977 . S
O82 Zn81 2.032 . S
O82 C86 1.278 . S
C83 O84 1.203 . S
C83 O90 1.267 . S
O84 C83 1.203 . S
O85 C78 1.185 . S
O85 Zn81 2.086 . S
C86 O82 1.278 . S
C86 O87 1.211 . S
O87 C86 1.211 . S
C88 O80 1.284 . S
C88 O89 1.273 . S
O89 C88 1.273 . S
O90 Zn81 1.977 . S
O90 C83 1.267 . S
C91 O92 1.160 . S
C91 O98 1.185 . S
O92 C91 1.160 . S
O93 Zn94 1.899 . S
O93 C101 1.284 . S
Zn94 O93 1.899 . S
Zn94 O95 2.032 . S
Zn94 O98 2.086 . S
Zn94 O103 1.977 . S
O95 Zn94 2.032 . S
O95 C99 1.278 . S
C96 O97 1.203 . S
C96 O103 1.267 . S
O97 C96 1.203 . S
O98 C91 1.185 . S
O98 Zn94 2.086 . S
C99 O95 1.278 . S
C99 O100 1.211 . S
O100 C99 1.211 . S
C101 O93 1.284 . S
C101 O102 1.273 . S
O102 C101 1.273 . S
O103 Zn94 1.977 . S
O103 C96 1.267 . S
C104 O105 1.160 . S
C104 O111 1.185 . S
O105 C104 1.160 . S
O106 Zn107 1.899 . S
O106 C114 1.284 . S
Zn107 O106 1.899 . S
Zn107 O108 2.032 . S
Zn107 O111 2.086 . S
Zn107 O116 1.977 . S
O108 Zn107 2.032 . S
O108 C112 1.278 . S
C109 O110 1.203 . S
C109 O116 1.267 . S
O110 C109 1.203 . S
O111 C104 1.185 . S
O111 Zn107 2.086 . S
C112 O108 1.278 . S
C112 O113 1.211 . S
O113 C112 1.211 . S
C114 O106 1.284 . S
C114 O115 1.273 . S
O115 C114 1.273 . S
O116 Zn107 1.977 . S
O116 C109 1.267 . S
C117 O118 1.160 . S
C117 O124 1.185 . S
O118 C117 1.160 . S
O119 Zn120 1.899 . S
O119 C127 1.284 . S
Zn120 O119 1.899 . S
Zn120 O121 2.032 . S
Zn120 O124 2.086 . S
Zn120 O129 1.977 . S
O121 Zn120 2.032 . S
O121 C125 1.278 . S
C122 O123 1.203 . S
C122 O129 1.267 . S
O123 C122 1.203 . S
O124 C117 1.185 . S
O124 Zn120 2.086 . S
C125 O121 1.278 . S
C125 O126 1.211 . S
O126 C125 1.211 . S
C127 O119 1.284 . S
C127 O128 1.273 . S
O128 C127 1.273 . S
O129 Zn120 1.977 . S
O129 C122 1.267 . S
C130 O131 1.160 . S
C130 O137 1.185 . S
O131 C130 1.160 . S
O132 Zn133 1.899 . S
O132 C140 1.284 . S
Zn133 O132 1.899 . S
Zn133 O134 2.032 . S
Zn133 O137 2.086 . S
Zn133 O142 1.977 . S
O134 Zn133 2.032 . S
O134 C138 1.278 . S
C135 O136 1.203 . S
C135 O142 1.267 . S
O136 C135 1.203 . S
O137 C130 1.185 . S
O137 Zn133 2.086 . S
C138 O134 1.278 . S
C138 O139 1.211 . S
O139 C138 1.211 . S
C140 O132 1.284 . S
C140 O141 1.273 . S
O141 C140 1.273 . S
O142 Zn133 1.977 . S
O142 C135 1.267 . S
C143 O144 1.160 . S
C143 O150 1.185 . S
O144 C143 1.160 . S
O145 Zn146 1.899 . S
O145 C153 1.284 . S
Zn146 O145 1.899 . S
Zn146 O147 2.032 . S
Zn146 O150 2.086 . S
Zn146 O155 1.977 . S
O147 Zn146 2.032 . S
O147 C151 1.278 . S
C148 O149 1.203 . S
C148 O155 1.267 . S
O149 C148 1.203 . S
O150 C143 1.185 . S
O150 Zn146 2.086 . S
C151 O147 1.278 . S
C151 O152 1.211 . S
O152 C151 1.211 . S
C153 O145 1.284 . S
C153 O154 1.273 . S
O154 C153 1.273 . S
O155 Zn146 1.977 . S
O155 C148 1.267 . S
C156 O157 1.160 . S
C156 O163 1.185 . S
O157 C156 1.160 . S
O158 Zn159 1.899 . S
O158 C166 1.284 . S
Zn159 O158 1.899 . S
Zn159 O160 2.032 . S
Zn159 O163 2.086 . S
Zn159 O168 1.977 . S
O160 Zn159 2.032 . S
O160 C164 1.278 . S
C161 O162 1.203 . S
C161 O168 1.267 . S
O162 C161 1.203 . S
O163 C156 1.185 . S
O163 Zn159 2.086 . S
C164 O160 1.278 . S
C164 O165 1.211 . S
O165 C164 1.211 . S
C166 O158 1.284 . S
C166 O167 1.273 . S
O167 C166 1.273 . S
O168 Zn159 1.977 . S
O168 C161 1.267 . S
C169 O170 1.160 . S
C169 O176 1.185 . S
O170 C169 1.160 . S
O171 Zn172 1.899 . S
O171 C179 1.284 . S
Zn172 O171 1.899 . S
Zn172 O173 2.032 . S
Zn172 O176 2.086 . S
Zn172 O181 1.977 . S
O173 Zn172 2.032 . S
O173 C177 1.278 . S
C174 O175 1.203 . S
C174 O181 1.267 . S
O175 C174 1.203 . S
O176 C169 1.185 . S
O176 Zn172 2.086 . S
C177 O173 1.278 . S
C177 O178 1.211 . S
O178 C177 1.211 . S
C179 O171 1.284 . S
C179 O180 1.273 . S
O180 C179 1.273 . S
O181 Zn172 1.977 . S
O181 C174 1.267 . S
C182 O183 1.160 . S
C182 O189 1.185 . S
O183 C182 1.160 . S
O184 Zn185 1.899 . S
O184 C192 1.284 . S
Zn185 O184 1.899 . S
Zn185 O186 2.032 . S
Zn185 O189 2.086 . S
Zn185 O194 1.977 . S
O186 Zn185 2.032 . S
O186 C190 1.278 . S
C187 O188 1.203 . S
C187 O194 1.267 . S
O188 C187 1.203 . S
O189 C182 1.185 . S
O189 Zn185 2.086 . S
C190 O186 1.278 . S
C190 O191 1.211 . S
O191 C190 1.211 . S
C192 O184 1.284 . S
C192 O193 1.273 . S
O193 C192 1.273 . S
O194 Zn185 1.977 . S
O194 C187 1.267 . S
C195 O196 1.160 . S
C195 O202 1.185 . S
O196 C195 1.160 . S
O197 Zn198 1.899 . S
O197 C205 1.284 . S
Zn198 O197 1.899 . S
Zn198 O199 2.032 . S
Zn198 O202 2.086 . S
Zn198 O207 1.977 . S
O199 Zn198 2.032 . S
O199 C203 1.278 . S
C200 O201 1.203 . S
C200 O207 1.267 . S
O201 C200 1.203 . S
O202 C195 1.185 . S
O202 Zn198 2.086 . S
C203 O199 1.278 . S
C203 O204 1.211 . S
O204 C203 1.211 . S
C205 O197 1.284 . S
C205 O206 1.273 . S
O206 C205 1.273 . S
O207 Zn198 1.977 . S
O207 C200 1.267 . S
C208 O209 1.160 . S
C208 O215 1.185 . S
O209 C208 1.160 . S
O210 Zn211 1.899 . S
O210 C218 1.284 . S
Zn211 O210 1.899 . S
Zn211 O212 2.032 . S
Zn211 O215 2.086 . S
Zn211 O220 1.977 . S
O212 Zn211 2.032 . S
O212 C216 1.278 . S
C213 O214 1.203 . S
C213 O220 1.267 . S
O214 C213 1.203 . S
O215 C208 1.185 . S
O215 Zn211 2.086 . S
C216 O212 1.278 . S
C216 O217 1.211 . S
O217 C216 1.211 . S
C218 O210 1.284 . S
C218 O219 1.273 . S
O219 C218 1.273 . S
O220 Zn211 1.977 . S
O220 C213 1.267 . S
C221 O222 1.160 . S
C221 O228 1.185 . S
O222 C221 1.160 . S
O223 Zn224 1.899 . S
O223 C231 1.284 . S
Zn224 O223 1.899 . S
Zn224 O225 2.032 . S
Zn224 O228 2.086 . S
Zn224 O233 1.977 . S
O225 Zn224 2.032 . S
O225 C229 1.278 . S
C226 O227 1.203 . S
C226 O233 1.267 . S
O227 C226 1.203 . S
O228 C221 1.185 . S
O228 Zn224 2.086 . S
C229 O225 1.278 . S
C229 O230 1.211 . S
O230 C229 1.211 . S
C231 O223 1.284 . S
C231 O232 1.273 . S
O232 C231 1.273 . S
O233 Zn224 1.977 . S
O233 C226 1.267 . S
C234 O235 1.160 . S
C234 O241 1.185 . S
O235 C234 1.160 . S
O236 Zn237 1.899 . S
O236 C244 1.284 . S
Zn237 O236 1.899 . S
Zn237 O238 2.032 . S
Zn237 O241 2.086 . S
Zn237 O246 1.977 . S
O238 Zn237 2.032 . S
O238 C242 1.278 . S
C239 O240 1.203 . S
C239 O246 1.267 . S
O240 C239 1.203 . S
O241 C234 1.185 . S
O241 Zn237 2.086 . S
C242 O238 1.278 . S
C242 O243 1.211 . S
O243 C242 1.211 . S
C244 O236 1.284 . S
C244 O245 1.273 . S
O245 C244 1.273 . S
O246 Zn237 1.977 . S
O246 C239 1.267 . S
C247 O248 1.160 . S
C247 O254 1.185 . S
O248 C247 1.160 . S
O249 Zn250 1.899 . S
O249 C257 1.284 . S
Zn250 O249 1.899 . S
Zn250 O251 2.032 . S
Zn250 O254 2.086 . S
Zn250 O259 1.977 . S
O251 Zn250 2.032 . S
O251 C255 1.278 . S
C252 O253 1.203 . S
C252 O259 1.267 . S
O253 C252 1.203 . S
O254 C247 1.185 . S
O254 Zn250 2.086 . S
C255 O251 1.278 . S
C255 O256 1.211 . S
O256 C255 1.211 . S
C257 O249 1.284 . S
C257 O258 1.273 . S
O258 C257 1.273 . S
O259 Zn250 1.977 . S
O259 C252 1.267 . S
C260 O261 1.160 . S
C260 O267 1.185 . S
O261 C260 1.160 . S
O262 Zn263 1.899 . S
O262 C270 1.284 . S
Zn263 O262 1.899 . S
Zn263 O264 2.032 . S
Zn263 O267 2.086 . S
Zn263 O272 1.977 . S
O264 Zn263 2.032 . S
O264 C268 1.278 . S
C265 O266 1.203 . S
C265 O272 1.267 . S
O266 C265 1.203 . S
O267 C260 1.185 . S
O267 Zn263 2.086 . S
C268 O264 1.278 . S
C268 O269 1.211 . S
O269 C268 1.211 . S
C270 O262 1.284 . S
C270 O271 1.273 . S
O271 C270 1.273 . S
O272 Zn263 1.977 . S
O272 C265 1.267 . S
C273 O274 1.160 . S
C273 O280 1.185 . S
O274 C273 1.160 . S
O275 Zn276 1.899 . S
O275 C283 1.284 . S
Zn276 O275 1.899 . S
Zn276 O277 2.032 . S
Zn276 O280 2.086 . S
Zn276 O285 1.977 . S
O277 Zn276 2.032 . S
O277 C281 1.278 . S
C278 O279 1.203 . S
C278 O285 1.267 . S
O279 C278 1.203 . S
O280 C273 1.185 . S
O280 Zn276 2.086 . S
C281 O277 1.278 . S
C281 O282 1.211 . S
O282 C281 1.211 . S
C283 O275 1.284 . S
C283 O284 1.273 . S
O284 C283 1.273 . S
O285 Zn276 1.977 . S
O285 C278 1.267 . S
C286 O287 1.160 . S
C286 O293 1.185 . S
O287 C286 1.160 . S
O288 Zn289 1.899 . S
O288 C296 1.284 . S
Zn289 O288 1.899 . S
Zn289 O290 2.032 . S
Zn289 O293 2.086 . S
Zn289 O298 1.977 . S
O290 Zn289 2.032 . S
O290 C294 1.278 . S
C291 O292 1.203 . S
C291 O298 1.267 . S
O292 C291 1.203 . S
O293 C286 1.185 . S
O293 Zn289 2.086 . S
C294 O290 1.278 . S
C294 O295 1.211 . S
O295 C294 1.211 . S
C296 O288 1.284 . S
C296 O297 1.273 . S
O297 C296 1.273 . S
O298 Zn289 1.977 . S
O298 C291 1.267 . S
C299 O300 1.160 . S
C299 O306 1.185 . S
O300 C299 1.160 . S
O301 Zn302 1.899 . S
O301 C309 1.284 . S
Zn302 O301 1.899 . S
Zn302 O303 2.032 . S
Zn302 O306 2.086 . S
Zn302 O311 1.977 . S
O303 Zn302 2.032 . S
O303 C307 1.278 . S
C304 O305 1.203 . S
C304 O311 1.267 . S
O305 C304 1.203 . S
O306 C299 1.185 . S
O306 Zn302 2.086 . S
C307 O303 1.278 . S
C307 O308 1.211 . S
O308 C307 1.211 . S
C309 O301 1.284 . S
C309 O310 1.273 . S
O310 C309 1.273 . S
O311 Zn302 1.977 . S
O311 C304 1.267 . S
C312 O313 1.160 . S
C312 O319 1.185 . S
O313 C312 1.160 . S
O314 Zn315 1.899 . S
O314 C322 1.284 . S
Zn315 O314 1.899 . S
Zn315 O316 2.032 . S
Zn315 O319 2.086 . S
Zn315 O324 1.977 . S
O316 Zn315 2.032 . S
O316 C320 1.278 . S
C317 O318 1.203 . S
C317 O324 1.267 . S
O318 C317 1.203 . S
O319 C312 1.185 . S
O319 Zn315 2.086 . S
C320 O316 1.278 . S
C320 O321 1.211 . S
O321 C320 1.211 . S
C322 O314 1.284 . S
C322 O323 1.273 . S
O323 C322 1.273 . S
O324 Zn315 1.977 . S
O324 C317 1.267 . S
C325 O326 1.160 . S
C325 O332 1.185 . S
O326 C325 1.160 . S
O327 Zn328 1.899 . S
O327 C335 1.284 . S
Zn328 O327 1.899 . S
Zn328 O329 2.032 . S
Zn328 O332 2.086 . S
Zn328 O337 1.977 . S
O329 Zn328 2.032 . S
O329 C333 1.278 . S
C330 O331 1.203 . S
C330 O337 1.267 . S
O331 C330 1.203 . S
O332 C325 1.185 . S
O332 Zn328 2.086 . S
C333 O329 1.278 . S
C333 O334 1.211 . S
O334 C333 1.211 . S
C335 O327 1.284 . S
C335 O336 1.273 . S
O336 C335 1.273 . S
O337 Zn328 1.977 . S
O337 C330 1.267 . S
C338 O339 1.160 . S
C338 O345 1.185 . S
O339 C338 1.160 . S
O340 Zn341 1.899 . S
O340 C348 1.284 . S
Zn341 O340 1.899 . S
Zn341 O342 2.032 . S
Zn341 O345 2.086 . S
Zn341 O350 1.977 . S
O342 Zn341 2.032 . S
O342 C346 1.278 . S
C343 O344 1.203 . S
C343 O350 1.267 . S
O344 C343 1.203 . S
O345 C338 1.185 . S
O345 Zn341 2.086 . S
C346 O342 1.278 . S
C346 O347 1.211 . S
O347 C346 1.211 . S
C348 O340 1.284 . S
C348 O349 1.273 . S
O349 C348 1.273 . S
O350 Zn341 1.977 . S
O350 C343 1.267 . S
C351 O352 1.160 . S
C351 O358 1.185 . S
O352 C351 1.160 . S
O353 Zn354 1.899 . S
O353 C361 1.284 . S
Zn354 O353 1.899 . S
Zn354 O355 2.032 . S
Zn354 O358 2.086 . S
Zn354 O363 1.977 . S
O355 Zn354 2.032 . S
O355 C359 1.278 . S
C356 O357 1.203 . S
C356 O363 1.267 . S
O357 C356 1.203 . S
O358 C351 1.185 . S
O358 Zn354 2.086 . S
C359 O355 1.278 . S
C359 O360 1.211 . S
O360 C359 1.211 . S
C361 O353 1.284 . S
C361 O362 1.273 . S
O362 C361 1.273 . S
O363 Zn354 1.977 . S
O363 C356 1.267 . S
C364 O365 1.160 . S
C364 O371 1.185 . S
O365 C364 1.160 . S
O366 Zn367 1.899 . S
O366 C374 1.284 . S
Zn367 O366 1.899 . S
Zn367 O368 2.032 . S
Zn367 O371 2.086 . S
Zn367 O376 1.977 . S
O368 Zn367 2.032 . S
O368 C372 1.278 . S
C369 O370 1.203 . S
C369 O376 1.267 . S
O370 C369 1.203 . S
O371 C364 1.185 . S
O371 Zn367 2.086 . S
C372 O368 1.278 . S
C372 O373 1.211 . S
O373 C372 1.211 . S
C374 O366 1.284 . S
C374 O375 1.273 . S
O375 C374 1.273 . S
O376 Zn367 1.977 . S
O376 C369 1.267 . S
C377 O378 1.160 . S
C377 O384 1.185 . S
O378 C377 1.160 . S
O379 Zn380 1.899 . S
O379 C387 1.284 . S
Zn380 O379 1.899 . S
Zn380 O381 2.032 . S
Zn380 O384 2.086 . S
Zn380 O389 1.977 . S
O381 Zn380 2.032 . S
O381 C385 1.278 . S
C382 O383 1.203 . S
C382 O389 1.267 . S
O383 C382 1.203 . S
O384 C377 1.185 . S
O384 Zn380 2.086 . S
C385 O381 1.278 . S
C385 O386 1.211 . S
O386 C385 1.211 . S
C387 O379 1.284 . S
C387 O388 1.273 . S
O388 C387 1.273 . S
O389 Zn380 1.977 . S
O389 C382 1.267 . S
C390 O391 1.160 . S
C390 O397 1.185 . S
O391 C390 1.160 . S
O392 Zn393 1.899 . S
O392 C400 1.284 . S
Zn393 O392 1.899 . S
Zn393 O394 2.032 . S
Zn393 O397 2.086 . S
Zn393 O402 1.977 . S
O394 Zn393 2.032 . S
O394 C398 1.278 . S
C395 O396 1.203 . S
C395 O402 1.267 . S
O396 C395 1.203 . S
O397 C390 1.185 . S
O397 Zn393 2.086 . S
C398 O394 1.278 . S
C398 O399 1.211 . S
O399 C398 1.211 . S
C400 O392 1.284 . S
C400 O401 1.273 . S
O401 C400 1.273 . S
O402 Zn393 1.977 . S
O402 C395 1.267 . S
C403 O404 1.160 . S
C403 O410 1.185 . S
O404 C403 1.160 . S
O405 Zn406 1.899 . S
O405 C413 1.284 . S
Zn406 O405 1.899 . S
Zn406 O407 2.032 . S
Zn406 O410 2.086 . S
Zn406 O415 1.977 . S
O407 Zn406 2.032 . S
O407 C411 1.278 . S
C408 O409 1.203 . S
C408 O415 1.267 . S
O409 C408 1.203 . S
O410 C403 1.185 . S
O410 Zn406 2.086 . S
C411 O407 1.278 . S
C411 O412 1.211 . S
O412 C411 1.211 . S
C413 O405 1.284 . S
C413 O414 1.273 . S
O414 C413 1.273 . S
O415 Zn406 1.977 . S
O415 C408 1.267 . S
C416 O417 1.160 . S
C416 O423 1.185 . S
O417 C416 1.160 . S
O418 Zn419 1.899 . S
O418 C426 1.284 . S
Zn419 O418 1.899 . S
Zn419 O420 2.032 . S
Zn419 O423 2.086 . S
Zn419 O428 1.977 . S
O420 Zn419 2.032 . S
O420 C424 1.278 . S
C421 O422 1.203 . S
C421 O428 1.267 . S
O422 C421 1.203 . S
O423 C416 1.185 . S
O423 Zn419 2.086 . S
C424 O420 1.278 . S
C424 O425 1.211 . S
O425 C424 1.211 . S
C426 O418 1.284 . S
C426 O427 1.273 . S
O427 C426 1.273 . S
O428 Zn419 1.977 . S
O428 C421 1.267 . S
C429 O430 1.160 . S
C429 O436 1.185 . S
O430 C429 1.160 . S
O431 Zn432 1.899 . S
O431 C439 1.284 . S
Zn432 O431 1.899 . S
Zn432 O433 2.032 . S
Zn432 O436 2.086 . S
Zn432 O441 1.977 . S
O433 Zn432 2.032 . S
O433 C437 1.278 . S
C434 O435 1.203 . S
C434 O441 1.267 . S
O435 C434 1.203 . S
O436 C429 1.185 . S
O436 Zn432 2.086 . S
C437 O433 1.278 . S
C437 O438 1.211 . S
O438 C437 1.211 . S
C439 O431 1.284 . S
C439 O440 1.273 . S
O440 C439 1.273 . S
O441 Zn432 1.977 . S
O441 C434 1.267 . S
C442 O443 1.160 . S
C442 O449 1.185 . S
O443 C442 1.160 . S
O444 Zn445 1.899 . S
O444 C452 1.284 . S
Zn445 O444 1.899 . S
Zn445 O446 2.032 . S
Zn445 O449 2.086 . S
Zn445 O454 1.977 . S
O446 Zn445 2.032 . S
O446 C450 1.278 . S
C447 O448 1.203 . S
C447 O454 1.267 . S
O448 C447 1.203 . S
O449 C442 1.185 . S
O449 Zn445 2.086 . S
C450 O446 1.278 . S
C450 O451 1.211 . S
O451 C450 1.211 . S
C452 O444 1.284 . S
C452 O453 1.273 . S
O453 C452 1.273 . S
O454 Zn445 1.977 . S
O454 C447 1.267 . S
C455 O456 1.160 . S
C455 O462 1.185 . S
O456 C455 1.160 . S
O457 Zn458 1.899 . S
O457 C465 1.284 . S
Zn458 O457 1.899 . S
Zn458 O459 2.032 . S
Zn458 O462 2.086 . S
Zn458 O467 1.977 . S
O459 Zn458 2.032 . S
O459 C463 1.278 . S
C460 O461 1.203 . S
C460 O467 1.267 . S
O461 C460 1.203 . S
O462 C455 1.185 . S
O462 Zn458 2.086 . S
C463 O459 1.278 . S
C463 O464 1.211 . S
O464 C463 1.211 . S
C465 O457 1.284 . S
C465 O466 1.273 . S
O466 C465 1.273 . S
O467 Zn458 1.977 . S
O467 C460 1.267 . S
C468 O469 1.160 . S
C468 O475 1.185 . S
O469 C468 1.160 . S
O470 Zn471 1.899 . S
O470 C478 1.284 . S
Zn471 O470 1.899 . S
Zn471 O472 2.032 . S
Zn471 O475 2.086 . S
Zn471 O480 1.977 . S
O472 Zn471 2.032 . S
O472 C476 1.278 . S
C473 O474 1.203 . S
C473 O480 1.267 . S
O474 C473 1.203 . S
O475 C468 1.185 . S
O475 Zn471 2.086 . S
C476 O472 1.278 . S
C476 O477 1.211 . S
O477 C476 1.211 . S
C478 O470 1.284 . S
C478 O479 1.273 . S
O479 C478 1.273 . S
O480 Zn471 1.977 . S
O480 C473 1.267 . S
C481 O482 1.160 . S
C481 O488 1.185 . S
O482 C481 1.160 . S
O483 Zn484 1.899 . S
O483 C491 1.284 . S
Zn484 O483 1.899 . S
Zn484 O485 2.032 . S
Zn484 O488 2.086 . S
Zn484 O493 1.977 . S
O485 Zn484 2.032 . S
O485 C489 1.278 . S
C486 O487 1.203 . S
C486 O493 1.267 . S
O487 C486 1.203 . S
O488 C481 1.185 . S
O488 Zn484 2.086 . S
C489 O485 1.278 . S
C489 O490 1.211 . S
O490 C489 1.211 . S
C491 O483 1.284 . S
C491 O492 1.273 . S
O492 C491 1.273 . S
O493 Zn484 1.977 . S
O493 C486 1.267 . S
C494 O495 1.160 . S
C494 O501 1.185 . S
O495 C494 1.160 . S
O496 Zn497 1.899 . S
O496 C504 1.284 . S
Zn497 O496 1.899 . S
Zn497 O498 2.032 . S
Zn497 O501 2.086 . S
Zn497 O506 1.977 . S
O498 Zn497 2.032 . S
O498 C502 1.278 . S
C499 O500 1.203 . S
C499 O506 1.267 . S
O500 C499 1.203 . S
O501 C494 1.185 . S
O501 Zn497 2.086 . S
C502 O498 1.278 . S
C502 O503 1.211 . S
O503 C502 1.211 . S
C504 O496 1.284 . S
C504 O505 1.273 . S
O505 C504 1.273 . S
O506 Zn497 1.977 . S
O506 C499 1.267 . S
C507 O508 1.160 . S
C507 O514 1.185 . S
O508 C507 1.160 . S
O509 Zn510 1.899 . S
O509 C517 1.284 . S
Zn510 O509 1.899 . S
Zn510 O511 2.032 . S
Zn510 O514 2.086 . S
Zn510 O519 1.977 . S
O511 Zn510 2.032 . S
O511 C515 1.278 . S
C512 O513 1.203 . S
C512 O519 1.267 . S
O513 C512 1.203 . S
O514 C507 1.185 . S
O514 Zn510 2.086 . S
C515 O511 1.278 . S
C515 O516 1.211 . S
O516 C515 1.211 . S
C517 O509 1.284 . S
C517 O518 1.273 . S
O518 C517 1.273 . S
O519 Zn510 1.977 . S
O519 C512 1.267 . S
C520 O521 1.160 . S
C520 O527 1.185 . S
O521 C520 1.160 . S
O522 Zn523 1.899 . S
O522 C530 1.284 . S
Zn523 O522 1.899 . S
Zn523 O524 2.032 . S
Zn523 O527 2.086 . S
Zn523 O532 1.977 . S
O524 Zn523 2.032 . S
O524 C528 1.278 . S
C525 O526 1.203 . S
C525 O532 1.267 . S
O526 C525 1.203 . S
O527 C520 1.185 . S
O527 Zn523 2.086 . S
C528 O524 1.278 . S
C528 O529 1.211 . S
O529 C528 1.211 . S
C530 O522 1.284 . S
C530 O531 1.273 . S
O531 C530 1.273 . S
O532 Zn523 1.977 . S
O532 C525 1.267 . S
C533 O534 1.160 . S
C533 O540 1.185 . S
O534 C533 1.160 . S
O535 Zn536 1.899 . S
O535 C543 1.284 . S
Zn536 O535 1.899 . S
Zn536 O537 2.032 . S
Zn536 O540 2.086 . S
Zn536 O545 1.977 . S
O537 Zn536 2.032 . S
O537 C541 1.278 . S
C538 O539 1.203 . S
C538 O545 1.267 . S
O539 C538 1.203 . S
O540 C533 1.185 . S
O540 Zn536 2.086 . S
C541 O537 1.278 . S
C541 O542 1.211 . S
O542 C541 1.211 . S
C543 O535 1.284 . S
C543 O544 1.273 . S
O544 C543 1.273 . S
O545 Zn536 1.977 . S
O545 C538 1.267 . S
C546 O547 1.160 . S
C546 O553 1.185 . S
O547 C546 1.160 . S
O548 Zn549 1.899 . S
O548 C556 1.284 . S
Zn549 O548 1.899 . S
Zn549 O550 2.032 . S
Zn549 O553 2.086 . S
Zn549 O558 1.977 . S
O550 Zn549 2.032 . S
O550 C554 1.278 . S
C551 O552 1.203 . S
C551 O558 1.267 . S
O552 C551 1.203 . S
O553 C546 1.185 . S
O553 Zn549 2.086 . S
C554 O550 1.278 . S
C554 O555 1.211 . S
O555 C554 1.211 . S
C556 O548 1.284 . S
C556 O557 1.273 . S
O557 C556 1.273 . S
O558 Zn549 1.977 . S
O558 C551 1.267 . S
C559 O560 1.160 . S
C559 O566 1.185 . S
O560 C559 1.160 . S
O561 Zn562 1.899 . S
O561 C569 1.284 . S
Zn562 O561 1.899 . S
Zn562 O563 2.032 . S
Zn562 O566 2.086 . S
Zn562 O571 1.977 . S
O563 Zn562 2.032 . S
O563 C567 1.278 . S
C564 O565 1.203 . S
C564 O571 1.267 . S
O565 C564 1.203 . S
O566 C559 1.185 . S
O566 Zn562 2.086 . S
C567 O563 1.278 . S
C567 O568 1.211 . S
O568 C567 1.211 . S
C569 O561 1.284 . S
C569 O570 1.273 . S
O570 C569 1.273 . S
O571 Zn562 1.977 . S
O571 C564 1.267 . S
C572 O573 1.160 . S
C572 O579 1.185 . S
O573 C572 1.160 . S
O574 Zn575 1.899 . S
O574 C582 1.284 . S
Zn575 O574 1.899 . S
Zn575 O576 2.032 . S
Zn575 O579 2.086 . S
Zn575 O584 1.977 . S
O576 Zn575 2.032 . S
O576 C580 1.278 . S
C577 O578 1.203 . S
C577 O584 1.267 . S
O578 C577 1.203 . S
O579 C572 1.185 . S
O579 Zn575 2.086 . S
C580 O576 1.278 . S
C580 O581 1.211 . S
O581 C580 1.211 . S
C582 O574 1.284 . S
C582 O583 1.273 . S
O583 C582 1.273 . S
O584 Zn575 1.977 . S
O584 C577 1.267 . S
C585 O586 1.160 . S
C585 O592 1.185 . S
O586 C585 1.160 . S
O587 Zn588 1.899 . S
O587 C595 1.284 . S
Zn588 O587 1.899 . S
Zn588 O589 2.032 . S
Zn588 O592 2.086 . S
Zn588 O597 1.977 . S
O589 Zn588 2.032 . S
O589 C593 1.278 . S
C590 O591 1.203 . S
C590 O597 1.267 . S
O591 C590 1.203 . S
O592 C585 1.185 . S
O592 Zn588 2.086 . S
C593 O589 1.278 . S
C593 O594 1.211 . S
O594 C593 1.211 . S
C595 O587 1.284 . S
C595 O596 1.273 . S
O596 C595 1.273 . S
O597 Zn588 1.977 . S
O597 C590 1.267 . S
C598 O599 1.160 . S
C598 O605 1.185 . S
O599 C598 1.160 . S
O600 Zn601 1.899 . S
O600 C608 1.284 . S
Zn601 O600 1.899 . S
Zn601 O602 2.032 . S
Zn601 O605 2.086 . S
Zn601 O610 1.977 . S
O602 Zn601 2.032 . S
O602 C606 1.278 . S
C603 O604 1.203 . S
C603 O610 1.267 . S
O604 C603 1.203 . S
O605 C598 1.185 . S
O605 Zn601 2.086 . S
C606 O602 1.278 . S
C606 O607 1.211 . S
O607 C606 1.211 . S
C608 O600 1.284 . S
C608 O609 1.273 . S
O609 C608 1.273 . S
O610 Zn601 1.977 . S
O610 C603 1.267 . S
C611 O612 1.160 . S
C611 O618 1.185 . S
O612 C611 1.160 . S
O613 Zn614 1.899 . S
O613 C621 1.284 . S
Zn614 O613 1.899 . S
Zn614 O615 2.032 . S
Zn614 O618 2.086 . S
Zn614 O623 1.977 . S
O615 Zn614 2.032 . S
O615 C619 1.278 . S
C616 O617 1.203 . S
C616 O623 1.267 . S
O617 C616 1.203 . S
O618 C611 1.185 . S
O618 Zn614 2.086 . S
C619 O615 1.278 . S
C619 O620 1.211 . S
O620 C619 1.211 . S
C621 O613 1.284 . S
C621 O622 1.273 . S
O622 C621 1.273 . S
O623 Zn614 1.977 . S
O623 C616 1.267 . S
C624 C625 1.349 . S
C624 C626 1.327 . S
C624 H649 0.950 . S
C625 C624 1.349 . S
C625 C641 1.349 . S
C626 C624 1.327 . S
C626 C645 1.429 . S
C626 H650 0.950 . S
C627 C644 1.574 . S
C627 C646 1.368 . S
C627 H651 0.949 . S
H628 C632 0.949 . S
C629 C630 1.349 . S
C629 C631 1.327 . S
C629 H652 0.950 . S
C630 C629 1.349 . S
C630 C642 1.349 . S
C631 C629 1.327 . S
C631 C647 1.429 . S
C631 H653 0.950 . S
C632 H628 0.949 . S
C632 C640 1.574 . S
C632 C648 1.368 . S
H633 C641 0.950 . S
H634 C639 0.950 . S
H635 C640 0.949 . S
H636 C642 0.950 . S
H637 C643 0.950 . S
H638 C644 0.949 . S
C639 H634 0.950 . S
C639 C641 1.327 . S
C639 C645 1.429 . S
C640 C632 1.574 . S
C640 H635 0.949 . S
C640 C646 1.368 . S
C641 C625 1.349 . S
C641 H633 0.950 . S
C641 C639 1.327 . S
C642 C630 1.349 . S
C642 H636 0.950 . S
C642 C643 1.327 . S
C643 H637 0.950 . S
C643 C642 1.327 . S
C643 C647 1.429 . S
C644 C627 1.574 . S
C644 H638 0.949 . S
C644 C648 1.368 . S
C645 C626 1.429 . S
C645 C639 1.429 . S
C645 C646 1.523 . S
C646 C627 1.368 . S
C646 C640 1.368 . S
C646 C645 1.523 . S
C647 C631 1.429 . S
C647 C643 1.429 . S
C647 C648 1.523 . S
C648 C632 1.368 . S
C648 C644 1.368 . S
C648 C647 1.523 . S
H649 C624 0.950 . S
H650 C626 0.950 . S
H651 C627 0.949 . S
H652 C629 0.950 . S
H653 C631 0.950 . S
C654 C655 1.349 . S
C654 C656 1.327 . S
C654 H679 0.950 . S
C655 C654 1.349 . S
C655 C671 1.349 . S
C656 C654 1.327 . S
C656 C675 1.429 . S
C656 H680 0.950 . S
C657 C674 1.574 . S
C657 C676 1.368 . S
C657 H681 0.949 . S
H658 C662 0.949 . S
C659 C660 1.349 . S
C659 C661 1.327 . S
C659 H682 0.950 . S
C660 C659 1.349 . S
C660 C672 1.349 . S
C661 C659 1.327 . S
C661 C677 1.429 . S
C661 H683 0.950 . S
C662 H658 0.949 . S
C662 C670 1.574 . S
C662 C678 1.368 . S
H663 C671 0.950 . S
H664 C669 0.950 . S
H665 C670 0.949 . S
H666 C672 0.950 . S
H667 C673 0.950 . S
H668 C674 0.949 . S
C669 H664 0.950 . S
C669 C671 1.327 . S
C669 C675 1.429 . S
C670 C662 1.574 . S
C670 H665 0.949 . S
C670 C676 1.368 . S
C671 C655 1.349 . S
C671 H663 0.950 . S
C671 C669 1.327 . S
C672 C660 1.349 . S
C672 H666 0.950 . S
C672 C673 1.327 . S
C673 H667 0.950 . S
C673 C672 1.327 . S
C673 C677 1.429 . S
C674 C657 1.574 . S
C674 H668 0.949 . S
C674 C678 1.368 . S
C675 C656 1.429 . S
C675 C669 1.429 . S
C675 C676 1.523 . S
C676 C657 1.368 . S
C676 C670 1.368 . S
C676 C675 1.523 . S
C677 C661 1.429 . S
C677 C673 1.429 . S
C677 C678 1.523 . S
C678 C662 1.368 . S
C678 C674 1.368 . S
C678 C677 1.523 . S
H679 C654 0.950 . S
H680 C656 0.950 . S
H681 C657 0.949 . S
H682 C659 0.950 . S
H683 C661 0.950 . S
C684 C685 1.349 . S
C684 C686 1.327 . S
C684 H709 0.950 . S
C685 C684 1.349 . S
C685 C701 1.349 . S
C686 C684 1.327 . S
C686 C705 1.429 . S
C686 H710 0.950 . S
C687 C704 1.574 . S
C687 C706 1.368 . S
C687 H711 0.949 . S
H688 C692 0.949 . S
C689 C690 1.349 . S
C689 C691 1.327 . S
C689 H712 0.950 . S
C690 C689 1.349 . S
C690 C702 1.349 . S
C691 C689 1.327 . S
C691 C707 1.429 . S
C691 H713 0.950 . S
C692 H688 0.949 . S
C692 C700 1.574 . S
C692 C708 1.368 . S
H693 C701 0.950 . S
H694 C699 0.950 . S
H695 C700 0.949 . S
H696 C702 0.950 . S
H697 C703 0.950 . S
H698 C704 0.949 . S
C699 H694 0.950 . S
C699 C701 1.327 . S
C699 C705 1.429 . S
C700 C692 1.574 . S
C700 H695 0.949 . S
C700 C706 1.368 . S
C701 C685 1.349 . S
C701 H693 0.950 . S
C701 C699 1.327 . S
C702 C690 1.349 . S
C702 H696 0.950 . S
C702 C703 1.327 . S
C703 H697 0.950 . S
C703 C702 1.327 . S
C703 C707 1.429 . S
C704 C687 1.574 . S
C704 H698 0.949 . S
C704 C708 1.368 . S
C705 C686 1.429 . S
C705 C699 1.429 . S
C705 C706 1.523 . S
C706 C687 1.368 . S
C706 C700 1.368 . S
C706 C705 1.523 . S
C707 C691 1.429 . S
C707 C703 1.429 . S
C707 C708 1.523 . S
C708 C692 1.368 . S
C708 C704 1.368 . S
C708 C707 1.523 . S
H709 C684 0.950 . S
H710 C686 0.950 . S
H711 C687 0.949 . S
H712 C689 0.950 . S
H713 C691 0.950 . S
C714 C715 1.349 . S
C714 C716 1.327 . S
C714 H739 0.950 . S
C715 C714 1.349 . S
C715 C731 1.349 . S
C716 C714 1.327 . S
C716 C735 1.429 . S
C716 H740 0.950 . S
C717 C734 1.574 . S
C717 C736 1.368 . S
C717 H741 0.949 . S
H718 C722 0.949 . S
C719 C720 1.349 . S
C719 C721 1.327 . S
C719 H742 0.950 . S
C720 C719 1.349 . S
C720 C732 1.349 . S
C721 C719 1.327 . S
C721 C737 1.429 . S
C721 H743 0.950 . S
C722 H718 0.949 . S
C722 C730 1.574 . S
C722 C738 1.368 . S
H723 C731 0.950 . S
H724 C729 0.950 . S
H725 C730 0.949 . S
H726 C732 0.950 . S
H727 C733 0.950 . S
H728 C734 0.949 . S
C729 H724 0.950 . S
C729 C731 1.327 . S
C729 C735 1.429 . S
C730 C722 1.574 . S
C730 H725 0.949 . S
C730 C736 1.368 . S
C731 C715 1.349 . S
C731 H723 0.950 . S
C731 C729 1.327 . S
C732 C720 1.349 . S
C732 H726 0.950 . S
C732 C733 1.327 . S
C733 H727 0.950 . S
C733 C732 1.327 . S
C733 C737 1.429 . S
C734 C717 1.574 . S
C734 H728 0.949 . S
C734 C738 1.368 . S
C735 C716 1.429 . S
C735 C729 1.429 . S
C735 C736 1.523 . S
C736 C717 1.368 . S
C736 C730 1.368 . S
C736 C735 1.523 . S
C737 C721 1.429 . S
C737 C733 1.429 . S
C737 C738 1.523 . S
C738 C722 1.368 . S
C738 C734 1.368 . S
C738 C737 1.523 . S
H739 C714 0.950 . S
H740 C716 0.950 . S
H741 C717 0.949 . S
H742 C719 0.950 . S
H743 C721 0.950 . S
C744 C745 1.349 . S
C744 C746 1.327 . S
C744 H769 0.950 . S
C745 C744 1.349 . S
C745 C761 1.349 . S
C746 C744 1.327 . S
C746 C765 1.429 . S
C746 H770 0.950 . S
C747 C764 1.574 . S
C747 C766 1.368 . S
C747 H771 0.949 . S
H748 C752 0.949 . S
C749 C750 1.349 . S
C749 C751 1.327 . S
C749 H772 0.950 . S
C750 C749 1.349 . S
C750 C762 1.349 . S
C751 C749 1.327 . S
C751 C767 1.429 . S
C751 H773 0.950 . S
C752 H748 0.949 . S
C752 C760 1.574 . S
C752 C768 1.368 . S
H753 C761 0.950 . S
H754 C759 0.950 . S
H755 C760 0.949 . S
H756 C762 0.950 . S
H757 C763 0.950 . S
H758 C764 0.949 . S
C759 H754 0.950 . S
C759 C761 1.327 . S
C759 C765 1.429 . S
C760 C752 1.574 . S
C760 H755 0.949 . S
C760 C766 1.368 . S
C761 C745 1.349 . S
C761 H753 0.950 . S
C761 C759 1.327 . S
C762 C750 1.349 . S
C762 H756 0.950 . S
C762 C763 1.327 . S
C763 H757 0.950 . S
C763 C762 1.327 . S
C763 C767 1.429 . S
C764 C747 1.574 . S
C764 H758 0.949 . S
C764 C768 1.368 . S
C765 C746 1.429 . S
C765 C759 1.429 . S
C765 C766 1.523 . S
C766 C747 1.368 . S
C766 C760 1.368 . S
C766 C765 1.523 . S
C767 C751 1.429 . S
C767 C763 1.429 . S
C767 C768 1.523 . S
C768 C752 1.368 . S
C768 C764 1.368 . S
C768 C767 1.523 . S
H769 C744 0.950 . S
H770 C746 0.950 . S
H771 C747 0.949 . S
H772 C749 0.950 . S
H773 C751 0.950 . S
C774 C775 1.349 . S
C774 C776 1.327 . S
C774 H799 0.950 . S
C775 C774 1.349 . S
C775 C791 1.349 . S
C776 C774 1.327 . S
C776 C795 1.429 . S
C776 H800 0.950 . S
C777 C794 1.574 . S
C777 C796 1.368 . S
C777 H801 0.949 . S
H778 C782 0.949 . S
C779 C780 1.349 . S
C779 C781 1.327 . S
C779 H802 0.950 . S
C780 C779 1.349 . S
C780 C792 1.349 . S
C781 C779 1.327 . S
C781 C797 1.429 . S
C781 H803 0.950 . S
C782 H778 0.949 . S
C782 C790 1.574 . S
C782 C798 1.368 . S
H783 C791 0.950 . S
H784 C789 0.950 . S
H785 C790 0.949 . S
H786 C792 0.950 . S
H787 C793 0.950 . S
H788 C794 0.949 . S
C789 H784 0.950 . S
C789 C791 1.327 . S
C789 C795 1.429 . S
C790 C782 1.574 . S
C790 H785 0.949 . S
C790 C796 1.368 . S
C791 C775 1.349 . S
C791 H783 0.950 . S
C791 C789 1.327 . S
C792 C780 1.349 . S
C792 H786 0.950 . S
C792 C793 1.327 . S
C793 H787 0.950 . S
C793 C792 1.327 . S
C793 C797 1.429 . S
C794 C777 1.574 . S
C794 H788 0.949 . S
C794 C798 1.368 . S
C795 C776 1.429 . S
C795 C789 1.429 . S
C795 C796 1.523 . S
C796 C777 1.368 . S
C796 C790 1.368 . S
C796 C795 1.523 . S
C797 C781 1.429 . S
C797 C793 1.429 . S
C797 C798 1.523 . S
C798 C782 1.368 . S
C798 C794 1.368 . S
C798 C797 1.523 . S
H799 C774 0.950 . S
H800 C776 0.950 . S
H801 C777 0.949 . S
H802 C779 0.950 . S
H803 C781 0.950 . S
C804 C805 1.349 . S
C804 C806 1.327 . S
C804 H829 0.950 . S
C805 C804 1.349 . S
C805 C821 1.349 . S
C806 C804 1.327 . S
C806 C825 1.429 . S
C806 H830 0.950 . S
C807 C824 1.574 . S
C807 C826 1.368 . S
C807 H831 0.949 . S
H808 C812 0.949 . S
C809 C810 1.349 . S
C809 C811 1.327 . S
C809 H832 0.950 . S
C810 C809 1.349 . S
C810 C822 1.349 . S
C811 C809 1.327 . S
C811 C827 1.429 . S
C811 H833 0.950 . S
C812 H808 0.949 . S
C812 C820 1.574 . S
C812 C828 1.368 . S
H813 C821 0.950 . S
H814 C819 0.950 . S
H815 C820 0.949 . S
H816 C822 0.950 . S
H817 C823 0.950 . S
H818 C824 0.949 . S
C819 H814 0.950 . S
C819 C821 1.327 . S
C819 C825 1.429 . S
C820 C812 1.574 . S
C820 H815 0.949 . S
C820 C826 1.368 . S
C821 C805 1.349 . S
C821 H813 0.950 . S
C821 C819 1.327 . S
C822 C810 1.349 . S
C822 H816 0.950 . S
C822 C823 1.327 . S
C823 H817 0.950 . S
C823 C822 1.327 . S
C823 C827 1.429 . S
C824 C807 1.574 . S
C824 H818 0.949 . S
C824 C828 1.368 . S
C825 C806 1.429 . S
C825 C819 1.429 . S
C825 C826 1.523 . S
C826 C807 1.368 . S
C826 C820 1.368 . S
C826 C825 1.523 . S
C827 C811 1.429 . S
C827 C823 1.429 . S
C827 C828 1.523 . S
C828 C812 1.368 . S
C828 C824 1.368 . S
C828 C827 1.523 . S
H829 C804 0.950 . S
H830 C806 0.950 . S
H831 C807 0.949 . S
H832 C809 0.950 . S
H833 C811 0.950 . S
C834 C835 1.349 . S
C834 C836 1.327 . S
C834 H859 0.950 . S
C835 C834 1.349 . S
C835 C851 1.349 . S
C836 C834 1.327 . S
C836 C855 1.429 . S
C836 H860 0.950 . S
C837 C854 1.574 . S
C837 C856 1.368 . S
C837 H861 0.949 . S
H838 C842 0.949 . S
C839 C840 1.349 . S
C839 C841 1.327 . S
C839 H862 0.950 . S
C840 C839 1.349 . S
C840 C852 1.349 . S
C841 C839 1.327 . S
C841 C857 1.429 . S
C841 H863 0.950 . S
C842 H838 0.949 . S
C842 C850 1.574 . S
C842 C858 1.368 . S
H843 C851 0.950 . S
H844 C849 0.950 . S
H845 C850 0.949 . S
H846 C852 0.950 . S
H847 C853 0.950 . S
H848 C854 0.949 . S
C849 H844 0.950 . S
C849 C851 1.327 . S
C849 C855 1.429 . S
C850 C842 1.574 . S
C850 H845 0.949 . S
C850 C856 1.368 . S
C851 C835 1.349 . S
C851 H843 0.950 . S
C851 C849 1.327 . S
C852 C840 1.349 . S
C852 H846 0.950 . S
C852 C853 1.327 . S
C853 H847 0.950 . S
C853 C852 1.327 . S
C853 C857 1.429 . S
C854 C837 1.574 . S
C854 H848 0.949 . S
C854 C858 1.368 . S
C855 C836 1.429 . S
C855 C849 1.429 . S
C855 C856 1.523 . S
C856 C837 1.368 . S
C856 C850 1.368 . S
C856 C855 1.523 . S
C857 C841 1.429 . S
C857 C853 1.429 . S
C857 C858 1.523 . S
C858 C842 1.368 . S
C858 C854 1.368 . S
C858 C857 1.523 . S
H859 C834 0.950 . S
H860 C836 0.950 . S
H861 C837 0.949 . S
H862 C839 0.950 . S
H863 C841 0.950 . S
C864 C865 1.349 . S
C864 C866 1.327 . S
C864 H889 0.950 . S
C865 C864 1.349 . S
C865 C881 1.349 . S
C866 C864 1.327 . S
C866 C885 1.429 . S
C866 H890 0.950 . S
C867 C884 1.574 . S
C867 C886 1.368 . S
C867 H891 0.949 . S
H868 C872 0.949 . S
C869 C870 1.349 . S
C869 C871 1.327 . S
C869 H892 0.950 . S
C870 C869 1.349 . S
C870 C882 1.349 . S
C871 C869 1.327 . S
C871 C887 1.429 . S
C871 H893 0.950 . S
C872 H868 0.949 . S
C872 C880 1.574 . S
C872 C888 1.368 . S
H873 C881 0.950 . S
H874 C879 0.950 . S
H875 C880 0.949 . S
H876 C882 0.950 . S
H877 C883 0.950 . S
H878 C884 0.949 . S
C879 H874 0.950 . S
C879 C881 1.327 . S
C879 C885 1.429 . S
C880 C872 1.574 . S
C880 H875 0.949 . S
C880 C886 1.368 . S
C881 C865 1.349 . S
C881 H873 0.950 . S
C881 C879 1.327 . S
C882 C870 1.349 . S
C882 H876 0.950 . S
C882 C883 1.327 . S
C883 H877 0.950 . S
C883 C882 1.327 . S
C883 C887 1.429 . S
C884 C867 1.574 . S
C884 H878 0.949 . S
C884 C888 1.368 . S
C885 C866 1.429 . S
C885 C879 1.429 . S
C885 C886 1.523 . S
C886 C867 1.368 . S
C886 C880 1.368 . S
C886 C885 1.523 . S
C887 C871 1.429 . S
C887 C883 1.429 . S
C887 C888 1.523 . S
C888 C872 1.368 . S
C888 C884 1.368 . S
C888 C887 1.523 . S
H889 C864 0.950 . S
H890 C866 0.950 . S
H891 C867 0.949 . S
H892 C869 0.950 . S
H893 C871 0.950 . S
C894 C895 1.349 . S
C894 C896 1.327 . S
C894 H919 0.950 . S
C895 C894 1.349 . S
C895 C911 1.349 . S
C896 C894 1.327 . S
C896 C915 1.429 . S
C896 H920 0.950 . S
C897 C914 1.574 . S
C897 C916 1.368 . S
C897 H921 0.949 . S
H898 C902 0.949 . S
C899 C900 1.349 . S
C899 C901 1.327 . S
C899 H922 0.950 . S
C900 C899 1.349 . S
C900 C912 1.349 . S
C901 C899 1.327 . S
C901 C917 1.429 . S
C901 H923 0.950 . S
C902 H898 0.949 . S
C902 C910 1.574 . S
C902 C918 1.368 . S
H903 C911 0.950 . S
H904 C909 0.950 . S
H905 C910 0.949 . S
H906 C912 0.950 . S
H907 C913 0.950 . S
H908 C914 0.949 . S
C909 H904 0.950 . S
C909 C911 1.327 . S
C909 C915 1.429 . S
C910 C902 1.574 . S
C910 H905 0.949 . S
C910 C916 1.368 . S
C911 C895 1.349 . S
C911 H903 0.950 . S
C911 C909 1.327 . S
C912 C900 1.349 . S
C912 H906 0.950 . S
C912 C913 1.327 . S
C913 H907 0.950 . S
C913 C912 1.327 . S
C913 C917 1.429 . S
C914 C897 1.574 . S
C914 H908 0.949 . S
C914 C918 1.368 . S
C915 C896 1.429 . S
C915 C909 1.429 . S
C915 C916 1.523 . S
C916 C897 1.368 . S
C916 C910 1.368 . S
C916 C915 1.523 . S
C917 C901 1.429 . S
C917 C913 1.429 . S
C917 C918 1.523 . S
C918 C902 1.368 . S
C918 C914 1.368 . S
C918 C917 1.523 . S
H919 C894 0.950 . S
H920 C896 0.950 . S
H921 C897 0.949 . S
H922 C899 0.950 . S
H923 C901 0.950 . S
C924 C925 1.349 . S
C924 C926 1.327 . S
C924 H949 0.950 . S
C925 C924 1.349 . S
C925 C941 1.349 . S
C926 C924 1.327 . S
C926 C945 1.429 . S
C926 H950 0.950 . S
C927 C944 1.574 . S
C927 C946 1.368 . S
C927 H951 0.949 . S
H928 C932 0.949 . S
C929 C930 1.349 . S
C929 C931 1.327 . S
C929 H952 0.950 . S
C930 C929 1.349 . S
C930 C942 1.349 . S
C931 C929 1.327 . S
C931 C947 1.429 . S
C931 H953 0.950 . S
C932 H928 0.949 . S
C932 C940 1.574 . S
C932 C948 1.368 . S
H933 C941 0.950 . S
H934 C939 0.950 . S
H935 C940 0.949 . S
H936 C942 0.950 . S
H937 C943 0.950 . S
H938 C944 0.949 . S
C939 H934 0.950 . S
C939 C941 1.327 . S
C939 C945 1.429 . S
C940 C932 1.574 . S
C940 H935 0.949 . S
C940 C946 1.368 . S
C941 C925 1.349 . S
C941 H933 0.950 . S
C941 C939 1.327 . S
C942 C930 1.349 . S
C942 H936 0.950 . S
C942 C943 1.327 . S
C943 H937 0.950 . S
C943 C942 1.327 . S
C943 C947 1.429 . S
C944 C927 1.574 . S
C944 H938 0.949 . S
C944 C948 1.368 . S
C945 C926 1.429 . S
C945 C939 1.429 . S
C945 C946 1.523 . S
C946 C927 1.368 . S
C946 C940 1.368 . S
C946 C945 1.523 . S
C947 C931 1.429 . S
C947 C943 1.429 . S
C947 C948 1.523 . S
C948 C932 1.368 . S
C948 C944 1.368 . S
C948 C947 1.523 . S
H949 C924 0.950 . S
H950 C926 0.950 . S
H951 C927 0.949 . S
H952 C929 0.950 . S
H953 C931 0.950 . S
C954 C955 1.349 . S
C954 C956 1.327 . S
C954 H979 0.950 . S
C955 C954 1.349 . S
C955 C971 1.349 . S
C956 C954 1.327 . S
C956 C975 1.429 . S
C956 H980 0.950 . S
C957 C974 1.574 . S
C957 C976 1.368 . S
C957 H981 0.949 . S
H958 C962 0.949 . S
C959 C960 1.349 . S
C959 C961 1.327 . S
C959 H982 0.950 . S
C960 C959 1.349 . S
C960 C972 1.349 . S
C961 C959 1.327 . S
C961 C977 1.429 . S
C961 H983 0.950 . S
C962 H958 0.949 . S
C962 C970 1.574 . S
C962 C978 1.368 . S
H963 C971 0.950 . S
H964 C969 0.950 . S
H965 C970 0.949 . S
H966 C972 0.950 . S
H967 C973 0.950 . S
H968 C974 0.949 . S
C969 H964 0.950 . S
C969 C971 1.327 . S
C969 C975 1.429 . S
C970 C962 1.574 . S
C970 H965 0.949 . S
C970 C976 1.368 . S
C971 C955 1.349 . S
C971 H963 0.950 . S
C971 C969 1.327 . S
C972 C960 1.349 . S
C972 H966 0.950 . S
C972 C973 1.327 . S
C973 H967 0.950 . S
C973 C972 1.327 . S
C973 C977 1.429 . S
C974 C957 1.574 . S
C974 H968 0.949 . S
C974 C978 1.368 . S
C975 C956 1.429 . S
C975 C969 1.429 . S
C975 C976 1.523 . S
C976 C957 1.368 . S
C976 C970 1.368 . S
C976 C975 1.523 . S
C977 C961 1.429 . S
C977 C973 1.429 . S
C977 C978 1.523 . S
C978 C962 1.368 . S
C978 C974 1.368 . S
C978 C977 1.523 . S
H979 C954 0.950 . S
H980 C956 0.950 . S
H981 C957 0.949 . S
H982 C959 0.950 . S
H983 C961 0.950 . S
C984 C985 1.349 . S
C984 C986 1.327 . S
C984 H1009 0.950 . S
C985 C984 1.349 . S
C985 C1001 1.349 . S
C986 C984 1.327 . S
C986 C1005 1.429 . S
C986 H1010 0.950 . S
C987 C1004 1.574 . S
C987 C1006 1.368 . S
C987 H1011 0.949 . S
H988 C992 0.949 . S
C989 C990 1.349 . S
C989 C991 1.327 . S
C989 H1012 0.950 . S
C990 C989 1.349 . S
C990 C1002 1.349 . S
C991 C989 1.327 . S
C991 C1007 1.429 . S
C991 H1013 0.950 . S
C992 H988 0.949 . S
C992 C1000 1.574 . S
C992 C1008 1.368 . S
H993 C1001 0.950 . S
H994 C999 0.950 . S
H995 C1000 0.949 . S
H996 C1002 0.950 . S
H997 C1003 0.950 . S
H998 C1004 0.949 . S
C999 H994 0.950 . S
C999 C1001 1.327 . S
C999 C1005 1.429 . S
C1000 C992 1.574 . S
C1000 H995 0.949 . S
C1000 C1006 1.368 . S
C1001 C985 1.349 . S
C1001 H993 0.950 . S
C1001 C999 1.327 . S
C1002 C990 1.349 . S
C1002 H996 0.950 . S
C1002 C1003 1.327 . S
C1003 H997 0.950 . S
C1003 C1002 1.327 . S
C1003 C1007 1.429 . S
C1004 C987 1.574 . S
C1004 H998 0.949 . S
C1004 C1008 1.368 . S
C1005 C986 1.429 . S
C1005 C999 1.429 . S
C1005 C1006 1.523 . S
C1006 C987 1.368 . S
C1006 C1000 1.368 . S
C1006 C1005 1.523 . S
C1007 C991 1.429 . S
C1007 C1003 1.429 . S
C1007 C1008 1.523 . S
C1008 C992 1.368 . S
C1008 C1004 1.368 . S
C1008 C1007 1.523 . S
H1009 C984 0.950 . S
H1010 C986 0.950 . S
H1011 C987 0.949 . S
H1012 C989 0.950 . S
H1013 C991 0.950 . S
C1014 C1015 1.349 . S
C1014 C1016 1.327 . S
C1014 H1039 0.950 . S
C1015 C1014 1.349 . S
C1015 C1031 1.349 . S
C1016 C1014 1.327 . S
C1016 C1035 1.429 . S
C1016 H1040 0.950 . S
C1017 C1034 1.574 . S
C1017 C1036 1.368 . S
C1017 H1041 0.949 . S
H1018 C1022 0.949 . S
C1019 C1020 1.349 . S
C1019 C1021 1.327 . S
C1019 H1042 0.950 . S
C1020 C1019 1.349 . S
C1020 C1032 1.349 . S
C1021 C1019 1.327 . S
C1021 C1037 1.429 . S
C1021 H1043 0.950 . S
C1022 H1018 0.949 . S
C1022 C1030 1.574 . S
C1022 C1038 1.368 . S
H1023 C1031 0.950 . S
H1024 C1029 0.950 . S
H1025 C1030 0.949 . S
H1026 C1032 0.950 . S
H1027 C1033 0.950 . S
H1028 C1034 0.949 . S
C1029 H1024 0.950 . S
C1029 C1031 1.327 . S
C1029 C1035 1.429 . S
C1030 C1022 1.574 . S
C1030 H1025 0.949 . S
C1030 C1036 1.368 . S
C1031 C1015 1.349 . S
C1031 H1023 0.950 . S
C1031 C1029 1.327 . S
C1032 C1020 1.349 . S
C1032 H1026 0.950 . S
C1032 C1033 1.327 . S
C1033 H1027 0.950 . S
C1033 C1032 1.327 . S
C1033 C1037 1.429 . S
C1034 C1017 1.574 . S
C1034 H1028 0.949 . S
C1034 C1038 1.368 . S
C1035 C1016 1.429 . S
C1035 C1029 1.429 . S
C1035 C1036 1.523 . S
C1036 C1017 1.368 . S
C1036 C1030 1.368 . S
C1036 C1035 1.523 . S
C1037 C1021 1.429 . S
C1037 C1033 1.429 . S
C1037 C1038 1.523 . S
C1038 C1022 1.368 . S
C1038 C1034 1.368 . S
C1038 C1037 1.523 . S
H1039 C1014 0.950 . S
H1040 C1016 0.950 . S
H1041 C1017 0.949 . S
H1042 C1019 0.950 . S
H1043 C1021 0.950 . S
C1044 C1045 1.349 . S
C1044 C1046 1.327 . S
C1044 H1069 0.950 . S
C1045 C1044 1.349 . S
C1045 C1061 1.349 . S
C1046 C1044 1.327 . S
C1046 C1065 1.429 . S
C1046 H1070 0.950 . S
C1047 C1064 1.574 . S
C1047 C1066 1.368 . S
C1047 H1071 0.949 . S
H1048 C1052 0.949 . S
C1049 C1050 1.349 . S
C1049 C1051 1.327 . S
C1049 H1072 0.950 . S
C1050 C1049 1.349 . S
C1050 C1062 1.349 . S
C1051 C1049 1.327 . S
C1051 C1067 1.429 . S
C1051 H1073 0.950 . S
C1052 H1048 0.949 . S
C1052 C1060 1.574 . S
C1052 C1068 1.368 . S
H1053 C1061 0.950 . S
H1054 C1059 0.950 . S
H1055 C1060 0.949 . S
H1056 C1062 0.950 . S
H1057 C1063 0.950 . S
H1058 C1064 0.949 . S
C1059 H1054 0.950 . S
C1059 C1061 1.327 . S
C1059 C1065 1.429 . S
C1060 C1052 1.574 . S
C1060 H1055 0.949 . S
C1060 C1066 1.368 . S
C1061 C1045 1.349 . S
C1061 H1053 0.950 . S
C1061 C1059 1.327 . S
C1062 C1050 1.349 . S
C1062 H1056 0.950 . S
C1062 C1063 1.327 . S
C1063 H1057 0.950 . S
C1063 C1062 1.327 . S
C1063 C1067 1.429 . S
C1064 C1047 1.574 . S
C1064 H1058 0.949 . S
C1064 C1068 1.368 . S
C1065 C1046 1.429 . S
C1065 C1059 1.429 . S
C1065 C1066 1.523 . S
C1066 C1047 1.368 . S
C1066 C1060 1.368 . S
C1066 C1065 1.523 . S
C1067 C1051 1.429 . S
C1067 C1063 1.429 . S
C1067 C1068 1.523 . S
C1068 C1052 1.368 . S
C1068 C1064 1.368 . S
C1068 C1067 1.523 . S
H1069 C1044 0.950 . S
H1070 C1046 0.950 . S
H1071 C1047 0.949 . S
H1072 C1049 0.950 . S
H1073 C1051 0.950 . S
C1074 C1075 1.349 . S
C1074 C1076 1.327 . S
C1074 H1099 0.950 . S
C1075 C1074 1.349 . S
C1075 C1091 1.349 . S
C1076 C1074 1.327 . S
C1076 C1095 1.429 . S
C1076 H1100 0.950 . S
C1077 C1094 1.574 . S
C1077 C1096 1.368 . S
C1077 H1101 0.949 . S
H1078 C1082 0.949 . S
C1079 C1080 1.349 . S
C1079 C1081 1.327 . S
C1079 H1102 0.950 . S
C1080 C1079 1.349 . S
C1080 C1092 1.349 . S
C1081 C1079 1.327 . S
C1081 C1097 1.429 . S
C1081 H1103 0.950 . S
C1082 H1078 0.949 . S
C1082 C1090 1.574 . S
C1082 C1098 1.368 . S
H1083 C1091 0.950 . S
H1084 C1089 0.950 . S
H1085 C1090 0.949 . S
H1086 C1092 0.950 . S
H1087 C1093 0.950 . S
H1088 C1094 0.949 . S
C1089 H1084 0.950 . S
C1089 C1091 1.327 . S
C1089 C1095 1.429 . S
C1090 C1082 1.574 . S
C1090 H1085 0.949 . S
C1090 C1096 1.368 . S
C1091 C1075 1.349 . S
C1091 H1083 0.950 . S
C1091 C1089 1.327 . S
C1092 C1080 1.349 . S
C1092 H1086 0.950 . S
C1092 C1093 1.327 . S
C1093 H1087 0.950 . S
C1093 C1092 1.327 . S
C1093 C1097 1.429 . S
C1094 C1077 1.574 . S
C1094 H1088 0.949 . S
C1094 C1098 1.368 . S
C1095 C1076 1.429 . S
C1095 C1089 1.429 . S
C1095 C1096 1.523 . S
C1096 C1077 1.368 . S
C1096 C1090 1.368 . S
C1096 C1095 1.523 . S
C1097 C1081 1.429 . S
C1097 C1093 1.429 . S
C1097 C1098 1.523 . S
C1098 C1082 1.368 . S
C1098 C1094 1.368 . S
C1098 C1097 1.523 . S
H1099 C1074 0.950 . S
H1100 C1076 0.950 . S
H1101 C1077 0.949 . S
H1102 C1079 0.950 . S
H1103 C1081 0.950 . S
C1104 C1105 1.349 . S
C1104 C1106 1.327 . S
C1104 H1129 0.950 . S
C1105 C1104 1.349 . S
C1105 C1121 1.349 . S
C1106 C1104 1.327 . S
C1106 C1125 1.429 . S
C1106 H1130 0.950 . S
C1107 C1124 1.574 . S
C1107 C1126 1.368 . S
C1107 H1131 0.949 . S
H1108 C1112 0.949 . S
C1109 C1110 1.349 . S
C1109 C1111 1.327 . S
C1109 H1132 0.950 . S
C1110 C1109 1.349 . S
C1110 C1122 1.349 . S
C1111 C1109 1.327 . S
C1111 C1127 1.429 . S
C1111 H1133 0.950 . S
C1112 H1108 0.949 . S
C1112 C1120 1.574 . S
C1112 C1128 1.368 . S
H1113 C1121 0.950 . S
H1114 C1119 0.950 . S
H1115 C1120 0.949 . S
H1116 C1122 0.950 . S
H1117 C1123 0.950 . S
H1118 C1124 0.949 . S
C1119 H1114 0.950 . S
C1119 C1121 1.327 . S
C1119 C1125 1.429 . S
C1120 C1112 1.574 . S
C1120 H1115 0.949 . S
C1120 C1126 1.368 . S
C1121 C1105 1.349 . S
C1121 H1113 0.950 . S
C1121 C1119 1.327 . S
C1122 C1110 1.349 . S
C1122 H1116 0.950 . S
C1122 C1123 1.327 . S
C1123 H1117 0.950 . S
C1123 C1122 1.327 . S
C1123 C1127 1.429 . S
C1124 C1107 1.574 . S
C1124 H1118 0.949 . S
C1124 C1128 1.368 . S
C1125 C1106 1.429 . S
C1125 C1119 1.429 . S
C1125 C1126 1.523 . S
C1126 C1107 1.368 . S
C1126 C1120 1.368 . S
C1126 C1125 1.523 . S
C1127 C1111 1.429 . S
C1127 C1123 1.429 . S
C1127 C1128 1.523 . S
C1128 C1112 1.368 . S
C1128 C1124 1.368 . S
C1128 C1127 1.523 . S
H1129 C1104 0.950 . S
H1130 C1106 0.950 . S
H1131 C1107 0.949 . S
H1132 C1109 0.950 . S
H1133 C1111 0.950 . S
C1134 C1135 1.349 . S
C1134 C1136 1.327 . S
C1134 H1159 0.950 . S
C1135 C1134 1.349 . S
C1135 C1151 1.349 . S
C1136 C1134 1.327 . S
C1136 C1155 1.429 . S
C1136 H1160 0.950 . S
C1137 C1154 1.574 . S
C1137 C1156 1.368 . S
C1137 H1161 0.949 . S
H1138 C1142 0.949 . S
C1139 C1140 1.349 . S
C1139 C1141 1.327 . S
C1139 H1162 0.950 . S
C1140 C1139 1.349 . S
C1140 C1152 1.349 . S
C1141 C1139 1.327 . S
C1141 C1157 1.429 . S
C1141 H1163 0.950 . S
C1142 H1138 0.949 . S
C1142 C1150 1.574 . S
C1142 C1158 1.368 . S
H1143 C1151 0.950 . S
H1144 C1149 0.950 . S
H1145 C1150 0.949 . S
H1146 C1152 0.950 . S
H1147 C1153 0.950 . S
H1148 C1154 0.949 . S
C1149 H1144 0.950 . S
C1149 C1151 1.327 . S
C1149 C1155 1.429 . S
C1150 C1142 1.574 . S
C1150 H1145 0.949 . S
C1150 C1156 1.368 . S
C1151 C1135 1.349 . S
C1151 H1143 0.950 . S
C1151 C1149 1.327 . S
C1152 C1140 1.349 . S
C1152 H1146 0.950 . S
C1152 C1153 1.327 . S
C1153 H1147 0.950 . S
C1153 C1152 1.327 . S
C1153 C1157 1.429 . S
C1154 C1137 1.574 . S
C1154 H1148 0.949 . S
C1154 C1158 1.368 . S
C1155 C1136 1.429 . S
C1155 C1149 1.429 . S
C1155 C1156 1.523 . S
C1156 C1137 1.368 . S
C1156 C1150 1.368 . S
C1156 C1155 1.523 . S
C1157 C1141 1.429 . S
C1157 C1153 1.429 . S
C1157 C1158 1.523 . S
C1158 C1142 1.368 . S
C1158 C1154 1.368 . S
C1158 C1157 1.523 . S
H1159 C1134 0.950 . S
H1160 C1136 0.950 . S
H1161 C1137 0.949 . S
H1162 C1139 0.950 . S
H1163 C1141 0.950 . S
C1164 C1165 1.349 . S
C1164 C1166 1.327 . S
C1164 H1189 0.950 . S
C1165 C1164 1.349 . S
C1165 C1181 1.349 . S
C1166 C1164 1.327 . S
C1166 C1185 1.429 . S
C1166 H1190 0.950 . S
C1167 C1184 1.574 . S
C1167 C1186 1.368 . S
C1167 H1191 0.949 . S
H1168 C1172 0.949 . S
C1169 C1170 1.349 . S
C1169 C1171 1.327 . S
C1169 H1192 0.950 . S
C1170 C1169 1.349 . S
C1170 C1182 1.349 . S
C1171 C1169 1.327 . S
C1171 C1187 1.429 . S
C1171 H1193 0.950 . S
C1172 H1168 0.949 . S
C1172 C1180 1.574 . S
C1172 C1188 1.368 . S
H1173 C1181 0.950 . S
H1174 C1179 0.950 . S
H1175 C1180 0.949 . S
H1176 C1182 0.950 . S
H1177 C1183 0.950 . S
H1178 C1184 0.949 . S
C1179 H1174 0.950 . S
C1179 C1181 1.327 . S
C1179 C1185 1.429 . S
C1180 C1172 1.574 . S
C1180 H1175 0.949 . S
C1180 C1186 1.368 . S
C1181 C1165 1.349 . S
C1181 H1173 0.950 . S
C1181 C1179 1.327 . S
C1182 C1170 1.349 . S
C1182 H1176 0.950 . S
C1182 C1183 1.327 . S
C1183 H1177 0.950 . S
C1183 C1182 1.327 . S
C1183 C1187 1.429 . S
C1184 C1167 1.574 . S
C1184 H1178 0.949 . S
C1184 C1188 1.368 . S
C1185 C1166 1.429 . S
C1185 C1179 1.429 . S
C1185 C1186 1.523 . S
C1186 C1167 1.368 . S
C1186 C1180 1.368 . S
C1186 C1185 1.523 . S
C1187 C1171 1.429 . S
C1187 C1183 1.429 . S
C1187 C1188 1.523 . S
C1188 C1172 1.368 . S
C1188 C1184 1.368 . S
C1188 C1187 1.523 . S
H1189 C1164 0.950 . S
H1190 C1166 0.950 . S
H1191 C1167 0.949 . S
H1192 C1169 0.950 . S
H1193 C1171 0.950 . S
C1194 C1195 1.349 . S
C1194 C1196 1.327 . S
C1194 H1219 0.950 . S
C1195 C1194 1.349 . S
C1195 C1211 1.349 . S
C1196 C1194 1.327 . S
C1196 C1215 1.429 . S
C1196 H1220 0.950 . S
C1197 C1214 1.574 . S
C1197 C1216 1.368 . S
C1197 H1221 0.949 . S
H1198 C1202 0.949 . S
C1199 C1200 1.349 . S
C1199 C1201 1.327 . S
C1199 H1222 0.950 . S
C1200 C1199 1.349 . S
C1200 C1212 1.349 . S
C1201 C1199 1.327 . S
C1201 C1217 1.429 . S
C1201 H1223 0.950 . S
C1202 H1198 0.949 . S
C1202 C1210 1.574 . S
C1202 C1218 1.368 . S
H1203 C1211 0.950 . S
H1204 C1209 0.950 . S
H1205 C1210 0.949 . S
H1206 C1212 0.950 . S
H1207 C1213 0.950 . S
H1208 C1214 0.949 . S
C1209 H1204 0.950 . S
C1209 C1211 1.327 . S
C1209 C1215 1.429 . S
C1210 C1202 1.574 . S
C1210 H1205 0.949 . S
C1210 C1216 1.368 . S
C1211 C1195 1.349 . S
C1211 H1203 0.950 . S
C1211 C1209 1.327 . S
C1212 C1200 1.349 . S
C1212 H1206 0.950 . S
C1212 C1213 1.327 . S
C1213 H1207 0.950 . S
C1213 C1212 1.327 . S
C1213 C1217 1.429 . S
C1214 C1197 1.574 . S
C1214 H1208 0.949 . S
C1214 C1218 1.368 . S
C1215 C1196 1.429 . S
C1215 C1209 1.429 . S
C1215 C1216 1.523 . S
C1216 C1197 1.368 . S
C1216 C1210 1.368 . S
C1216 C1215 1.523 . S
C1217 C1201 1.429 . S
C1217 C1213 1.429 . S
C1217 C1218 1.523 . S
C1218 C1202 1.368 . S
C1218 C1214 1.368 . S
C1218 C1217 1.523 . S
H1219 C1194 0.950 . S
H1220 C1196 0.950 . S
H1221 C1197 0.949 . S
H1222 C1199 0.950 . S
H1223 C1201 0.950 . S
C1224 C1225 1.349 . S
C1224 C1226 1.327 . S
C1224 H1249 0.950 . S
C1225 C1224 1.349 . S
C1225 C1241 1.349 . S
C1226 C1224 1.327 . S
C1226 C1245 1.429 . S
C1226 H1250 0.950 . S
C1227 C1244 1.574 . S
C1227 C1246 1.368 . S
C1227 H1251 0.949 . S
H1228 C1232 0.949 . S
C1229 C1230 1.349 . S
C1229 C1231 1.327 . S
C1229 H1252 0.950 . S
C1230 C1229 1.349 . S
C1230 C1242 1.349 . S
C1231 C1229 1.327 . S
C1231 C1247 1.429 . S
C1231 H1253 0.950 . S
C1232 H1228 0.949 . S
C1232 C1240 1.574 . S
C1232 C1248 1.368 . S
H1233 C1241 0.950 . S
H1234 C1239 0.950 . S
H1235 C1240 0.949 . S
H1236 C1242 0.950 . S
H1237 C1243 0.950 . S
H1238 C1244 0.949 . S
C1239 H1234 0.950 . S
C1239 C1241 1.327 . S
C1239 C1245 1.429 . S
C1240 C1232 1.574 . S
C1240 H1235 0.949 . S
C1240 C1246 1.368 . S
C1241 C1225 1.349 . S
C1241 H1233 0.950 . S
C1241 C1239 1.327 . S
C1242 C1230 1.349 . S
C1242 H1236 0.950 . S
C1242 C1243 1.327 . S
C1243 H1237 0.950 . S
C1243 C1242 1.327 . S
C1243 C1247 1.429 . S
C1244 C1227 1.574 . S
C1244 H1238 0.949 . S
C1244 C1248 1.368 . S
C1245 C1226 1.429 . S
C1245 C1239 1.429 . S
C1245 C1246 1.523 . S
C1246 C1227 1.368 . S
C1246 C1240 1.368 . S
C1246 C1245 1.523 . S
C1247 C1231 1.429 . S
C1247 C1243 1.429 . S
C1247 C1248 1.523 . S
C1248 C1232 1.368 . S
C1248 C1244 1.368 . S
C1248 C1247 1.523 . S
H1249 C1224 0.950 . S
H1250 C1226 0.950 . S
H1251 C1227 0.949 . S
H1252 C1229 0.950 . S
H1253 C1231 0.950 . S
C1254 C1255 1.349 . S
C1254 C1256 1.327 . S
C1254 H1279 0.950 . S
C1255 C1254 1.349 . S
C1255 C1271 1.349 . S
C1256 C1254 1.327 . S
C1256 C1275 1.429 . S
C1256 H1280 0.950 . S
C1257 C1274 1.574 . S
C1257 C1276 1.368 . S
C1257 H1281 0.949 . S
H1258 C1262 0.949 . S
C1259 C1260 1.349 . S
C1259 C1261 1.327 . S
C1259 H1282 0.950 . S
C1260 C1259 1.349 . S
C1260 C1272 1.349 . S
C1261 C1259 1.327 . S
C1261 C1277 1.429 . S
C1261 H1283 0.950 . S
C1262 H1258 0.949 . S
C1262 C1270 1.574 . S
C1262 C1278 1.368 . S
H1263 C1271 0.950 . S
H1264 C1269 0.950 . S
H1265 C1270 0.949 . S
H1266 C1272 0.950 . S
H1267 C1273 0.950 . S
H1268 C1274 0.949 . S
C1269 H1264 0.950 . S
C1269 C1271 1.327 . S
C1269 C1275 1.429 . S
C1270 C1262 1.574 . S
C1270 H1265 0.949 . S
C1270 C1276 1.368 . S
C1271 C1255 1.349 . S
C1271 H1263 0.950 . S
C1271 C1269 1.327 . S
C1272 C1260 1.349 . S
C1272 H1266 0.950 . S
C1272 C1273 1.327 . S
C1273 H1267 0.950 . S
C1273 C1272 1.327 . S
C1273 C1277 1.429 . S
C1274 C1257 1.574 . S
C1274 H1268 0.949 . S
C1274 C1278 1.368 . S
C1275 C1256 1.429 . S
C1275 C1269 1.429 . S
C1275 C1276 1.523 . S
C1276 C1257 1.368 . S
C1276 C1270 1.368 . S
C1276 C1275 1.523 . S
C1277 C1261 1.429 . S
C1277 C1273 1.429 . S
C1277 C1278 1.523 . S
C1278 C1262 1.368 . S
C1278 C1274 1.368 . S
C1278 C1277 1.523 . S
H1279 C1254 0.950 . S
H1280 C1256 0.950 . S
H1281 C1257 0.949 . S
H1282 C1259 0.950 . S
H1283 C1261 0.950 . S
C1284 C1285 1.349 . S
C1284 C1286 1.327 . S
C1284 H1309 0.950 . S
C1285 C1284 1.349 . S
C1285 C1301 1.349 . S
C1286 C1284 1.327 . S
C1286 C1305 1.429 . S
C1286 H1310 0.950 . S
C1287 C1304 1.574 . S
C1287 C1306 1.368 . S
C1287 H1311 0.949 . S
H1288 C1292 0.949 . S
C1289 C1290 1.349 . S
C1289 C1291 1.327 . S
C1289 H1312 0.950 . S
C1290 C1289 1.349 . S
C1290 C1302 1.349 . S
C1291 C1289 1.327 . S
C1291 C1307 1.429 . S
C1291 H1313 0.950 . S
C1292 H1288 0.949 . S
C1292 C1300 1.574 . S
C1292 C1308 1.368 . S
H1293 C1301 0.950 . S
H1294 C1299 0.950 . S
H1295 C1300 0.949 . S
H1296 C1302 0.950 . S
H1297 C1303 0.950 . S
H1298 C1304 0.949 . S
C1299 H1294 0.950 . S
C1299 C1301 1.327 . S
C1299 C1305 1.429 . S
C1300 C1292 1.574 . S
C1300 H1295 0.949 . S
C1300 C1306 1.368 . S
C1301 C1285 1.349 . S
C1301 H1293 0.950 . S
C1301 C1299 1.327 . S
C1302 C1290 1.349 . S
C1302 H1296 0.950 . S
C1302 C1303 1.327 . S
C1303 H1297 0.950 . S
C1303 C1302 1.327 . S
C1303 C1307 1.429 . S
C1304 C1287 1.574 . S
C1304 H1298 0.949 . S
C1304 C1308 1.368 . S
C1305 C1286 1.429 . S
C1305 C1299 1.429 . S
C1305 C1306 1.523 . S
C1306 C1287 1.368 . S
C1306 C1300 1.368 . S
C1306 C1305 1.523 . S
C1307 C1291 1.429 . S
C1307 C1303 1.429 . S
C1307 C1308 1.523 . S
C1308 C1292 1.368 . S
C1308 C1304 1.368 . S
C1308 C1307 1.523 . S
H1309 C1284 0.950 . S
H1310 C1286 0.950 . S
H1311 C1287 0.949 . S
H1312 C1289 0.950 . S
H1313 C1291 0.950 . S
C1314 C1315 1.349 . S
C1314 C1316 1.327 . S
C1314 H1339 0.950 . S
C1315 C1314 1.349 . S
C1315 C1331 1.349 . S
C1316 C1314 1.327 . S
C1316 C1335 1.429 . S
C1316 H1340 0.950 . S
C1317 C1334 1.574 . S
C1317 C1336 1.368 . S
C1317 H1341 0.949 . S
H1318 C1322 0.949 . S
C1319 C1320 1.349 . S
C1319 C1321 1.327 . S
C1319 H1342 0.950 . S
C1320 C1319 1.349 . S
C1320 C1332 1.349 . S
C1321 C1319 1.327 . S
C1321 C1337 1.429 . S
C1321 H1343 0.950 . S
C1322 H1318 0.949 . S
C1322 C1330 1.574 . S
C1322 C1338 1.368 . S
H1323 C1331 0.950 . S
H1324 C1329 0.950 . S
H1325 C1330 0.949 . S
H1326 C1332 0.950 . S
H1327 C1333 0.950 . S
H1328 C1334 0.949 . S
C1329 H1324 0.950 . S
C1329 C1331 1.327 . S
C1329 C1335 1.429 . S
C1330 C1322 1.574 . S
C1330 H1325 0.949 . S
C1330 C1336 1.368 . S
C1331 C1315 1.349 . S
C1331 H1323 0.950 . S
C1331 C1329 1.327 . S
C1332 C1320 1.349 . S
C1332 H1326 0.950 . S
C1332 C1333 1.327 . S
C1333 H1327 0.950 . S
C1333 C1332 1.327 . S
C1333 C1337 1.429 . S
C1334 C1317 1.574 . S
C1334 H1328 0.949 . S
C1334 C1338 1.368 . S
C1335 C1316 1.429 . S
C1335 C1329 1.429 . S
C1335 C1336 1.523 . S
C1336 C1317 1.368 . S
C1336 C1330 1.368 . S
C1336 C1335 1.523 . S
C1337 C1321 1.429 . S
C1337 C1333 1.429 . S
C1337 C1338 1.523 . S
C1338 C1322 1.368 . S
C1338 C1334 1.368 . S
C1338 C1337 1.523 . S
H1339 C1314 0.950 . S
H1340 C1316 0.950 . S
H1341 C1317 0.949 . S
H1342 C1319 0.950 . S
H1343 C1321 0.950 . S
C1344 C1345 1.349 . S
C1344 C1346 1.327 . S
C1344 H1369 0.950 . S
C1345 C1344 1.349 . S
C1345 C1361 1.349 . S
C1346 C1344 1.327 . S
C1346 C1365 1.429 . S
C1346 H1370 0.950 . S
C1347 C1364 1.574 . S
C1347 C1366 1.368 . S
C1347 H1371 0.949 . S
H1348 C1352 0.949 . S
C1349 C1350 1.349 . S
C1349 C1351 1.327 . S
C1349 H1372 0.950 . S
C1350 C1349 1.349 . S
C1350 C1362 1.349 . S
C1351 C1349 1.327 . S
C1351 C1367 1.429 . S
C1351 H1373 0.950 . S
C1352 H1348 0.949 . S
C1352 C1360 1.574 . S
C1352 C1368 1.368 . S
H1353 C1361 0.950 . S
H1354 C1359 0.950 . S
H1355 C1360 0.949 . S
H1356 C1362 0.950 . S
H1357 C1363 0.950 . S
H1358 C1364 0.949 . S
C1359 H1354 0.950 . S
C1359 C1361 1.327 . S
C1359 C1365 1.429 . S
C1360 C1352 1.574 . S
C1360 H1355 0.949 . S
C1360 C1366 1.368 . S
C1361 C1345 1.349 . S
C1361 H1353 0.950 . S
C1361 C1359 1.327 . S
C1362 C1350 1.349 . S
C1362 H1356 0.950 . S
C1362 C1363 1.327 . S
C1363 H1357 0.950 . S
C1363 C1362 1.327 . S
C1363 C1367 1.429 . S
C1364 C1347 1.574 . S
C1364 H1358 0.949 . S
C1364 C1368 1.368 . S
C1365 C1346 1.429 . S
C1365 C1359 1.429 . S
C1365 C1366 1.523 . S
C1366 C1347 1.368 . S
C1366 C1360 1.368 . S
C1366 C1365 1.523 . S
C1367 C1351 1.429 . S
C1367 C1363 1.429 . S
C1367 C1368 1.523 . S
C1368 C1352 1.368 . S
C1368 C1364 1.368 . S
C1368 C1367 1.523 . S
H1369 C1344 0.950 . S
H1370 C1346 0.950 . S
H1371 C1347 0.949 . S
H1372 C1349 0.950 . S
H1373 C1351 0.950 . S
C1374 C1375 1.349 . S
C1374 C1376 1.327 . S
C1374 H1399 0.950 . S
C1375 C1374 1.349 . S
C1375 C1391 1.349 . S
C1376 C1374 1.327 . S
C1376 C1395 1.429 . S
C1376 H1400 0.950 . S
C1377 C1394 1.574 1_556 S
C1377 C1396 1.368 . S
C1377 H1401 0.949 . S
H1378 C1382 0.949 . S
C1379 C1380 1.349 . S
C1379 C1381 1.327 . S
C1379 H1402 0.950 . S
C1380 C1379 1.349 . S
C1380 C1392 1.349 . S
C1381 C1379 1.327 . S
C1381 C1397 1.429 . S
C1381 H1403 0.950 . S
C1382 H1378 0.949 . S
C1382 C1390 1.574 1_554 S
C1382 C1398 1.368 . S
H1383 C1391 0.950 . S
H1384 C1389 0.950 . S
H1385 C1390 0.949 . S
H1386 C1392 0.950 . S
H1387 C1393 0.950 . S
H1388 C1394 0.949 . S
C1389 H1384 0.950 . S
C1389 C1391 1.327 . S
C1389 C1395 1.429 . S
C1390 C1382 1.574 1_556 S
C1390 H1385 0.949 . S
C1390 C1396 1.368 . S
C1391 C1375 1.349 . S
C1391 H1383 0.950 . S
C1391 C1389 1.327 . S
C1392 C1380 1.349 . S
C1392 H1386 0.950 . S
C1392 C1393 1.327 . S
C1393 H1387 0.950 . S
C1393 C1392 1.327 . S
C1393 C1397 1.429 . S
C1394 C1377 1.574 1_554 S
C1394 H1388 0.949 . S
C1394 C1398 1.368 . S
C1395 C1376 1.429 . S
C1395 C1389 1.429 . S
C1395 C1396 1.523 . S
C1396 C1377 1.368 . S
C1396 C1390 1.368 . S
C1396 C1395 1.523 . S
C1397 C1381 1.429 . S
C1397 C1393 1.429 . S
C1397 C1398 1.523 . S
C1398 C1382 1.368 . S
C1398 C1394 1.368 . S
C1398 C1397 1.523 . S
H1399 C1374 0.950 . S
H1400 C1376 0.950 . S
H1401 C1377 0.949 . S
H1402 C1379 0.950 . S
H1403 C1381 0.950 . S
C1404 C1405 1.349 . S
C1404 C1406 1.327 . S
C1404 H1429 0.950 . S
C1405 C1404 1.349 . S
C1405 C1421 1.349 . S
C1406 C1404 1.327 . S
C1406 C1425 1.429 . S
C1406 H1430 0.950 . S
C1407 C1424 1.574 . S
C1407 C1426 1.368 . S
C1407 H1431 0.949 . S
H1408 C1412 0.949 . S
C1409 C1410 1.349 . S
C1409 C1411 1.327 . S
C1409 H1432 0.950 . S
C1410 C1409 1.349 . S
C1410 C1422 1.349 . S
C1411 C1409 1.327 . S
C1411 C1427 1.429 . S
C1411 H1433 0.950 . S
C1412 H1408 0.949 . S
C1412 C1420 1.574 . S
C1412 C1428 1.368 . S
H1413 C1421 0.950 . S
H1414 C1419 0.950 . S
H1415 C1420 0.949 . S
H1416 C1422 0.950 . S
H1417 C1423 0.950 . S
H1418 C1424 0.949 . S
C1419 H1414 0.950 . S
C1419 C1421 1.327 . S
C1419 C1425 1.429 . S
C1420 C1412 1.574 . S
C1420 H1415 0.949 . S
C1420 C1426 1.368 . S
C1421 C1405 1.349 . S
C1421 H1413 0.950 . S
C1421 C1419 1.327 . S
C1422 C1410 1.349 . S
C1422 H1416 0.950 . S
C1422 C1423 1.327 . S
C1423 H1417 0.950 . S
C1423 C1422 1.327 . S
C1423 C1427 1.429 . S
C1424 C1407 1.574 . S
C1424 H1418 0.949 . S
C1424 C1428 1.368 . S
C1425 C1406 1.429 . S
C1425 C1419 1.429 . S
C1425 C1426 1.523 . S
C1426 C1407 1.368 . S
C1426 C1420 1.368 . S
C1426 C1425 1.523 . S
C1427 C1411 1.429 . S
C1427 C1423 1.429 . S
C1427 C1428 1.523 . S
C1428 C1412 1.368 . S
C1428 C1424 1.368 . S
C1428 C1427 1.523 . S
H1429 C1404 0.950 . S
H1430 C1406 0.950 . S
H1431 C1407 0.949 . S
H1432 C1409 0.950 . S
H1433 C1411 0.950 . S
C1434 C1435 1.349 . S
C1434 C1436 1.327 . S
C1434 H1459 0.950 . S
C1435 C1434 1.349 . S
C1435 C1451 1.349 . S
C1436 C1434 1.327 . S
C1436 C1455 1.429 . S
C1436 H1460 0.950 . S
C1437 C1454 1.574 1_556 S
C1437 C1456 1.368 . S
C1437 H1461 0.949 . S
H1438 C1442 0.949 . S
C1439 C1440 1.349 . S
C1439 C1441 1.327 . S
C1439 H1462 0.950 . S
C1440 C1439 1.349 . S
C1440 C1452 1.349 . S
C1441 C1439 1.327 . S
C1441 C1457 1.429 . S
C1441 H1463 0.950 . S
C1442 H1438 0.949 . S
C1442 C1450 1.574 1_554 S
C1442 C1458 1.368 . S
H1443 C1451 0.950 . S
H1444 C1449 0.950 . S
H1445 C1450 0.949 . S
H1446 C1452 0.950 . S
H1447 C1453 0.950 . S
H1448 C1454 0.949 . S
C1449 H1444 0.950 . S
C1449 C1451 1.327 . S
C1449 C1455 1.429 . S
C1450 C1442 1.574 1_556 S
C1450 H1445 0.949 . S
C1450 C1456 1.368 . S
C1451 C1435 1.349 . S
C1451 H1443 0.950 . S
C1451 C1449 1.327 . S
C1452 C1440 1.349 . S
C1452 H1446 0.950 . S
C1452 C1453 1.327 . S
C1453 H1447 0.950 . S
C1453 C1452 1.327 . S
C1453 C1457 1.429 . S
C1454 C1437 1.574 1_554 S
C1454 H1448 0.949 . S
C1454 C1458 1.368 . S
C1455 C1436 1.429 . S
C1455 C1449 1.429 . S
C1455 C1456 1.523 . S
C1456 C1437 1.368 . S
C1456 C1450 1.368 . S
C1456 C1455 1.523 . S
C1457 C1441 1.429 . S
C1457 C1453 1.429 . S
C1457 C1458 1.523 . S
C1458 C1442 1.368 . S
C1458 C1454 1.368 . S
C1458 C1457 1.523 . S
H1459 C1434 0.950 . S
H1460 C1436 0.950 . S
H1461 C1437 0.949 . S
H1462 C1439 0.950 . S
H1463 C1441 0.950 . S
C1464 C1465 1.349 . S
C1464 C1466 1.327 . S
C1464 H1489 0.950 . S
C1465 C1464 1.349 . S
C1465 C1481 1.349 . S
C1466 C1464 1.327 . S
C1466 C1485 1.429 . S
C1466 H1490 0.950 . S
C1467 C1484 1.574 . S
C1467 C1486 1.368 . S
C1467 H1491 0.949 . S
H1468 C1472 0.949 . S
C1469 C1470 1.349 . S
C1469 C1471 1.327 . S
C1469 H1492 0.950 . S
C1470 C1469 1.349 . S
C1470 C1482 1.349 . S
C1471 C1469 1.327 . S
C1471 C1487 1.429 . S
C1471 H1493 0.950 . S
C1472 H1468 0.949 . S
C1472 C1480 1.574 . S
C1472 C1488 1.368 . S
H1473 C1481 0.950 . S
H1474 C1479 0.950 . S
H1475 C1480 0.949 . S
H1476 C1482 0.950 . S
H1477 C1483 0.950 . S
H1478 C1484 0.949 . S
C1479 H1474 0.950 . S
C1479 C1481 1.327 . S
C1479 C1485 1.429 . S
C1480 C1472 1.574 . S
C1480 H1475 0.949 . S
C1480 C1486 1.368 . S
C1481 C1465 1.349 . S
C1481 H1473 0.950 . S
C1481 C1479 1.327 . S
C1482 C1470 1.349 . S
C1482 H1476 0.950 . S
C1482 C1483 1.327 . S
C1483 H1477 0.950 . S
C1483 C1482 1.327 . S
C1483 C1487 1.429 . S
C1484 C1467 1.574 . S
C1484 H1478 0.949 . S
C1484 C1488 1.368 . S
C1485 C1466 1.429 . S
C1485 C1479 1.429 . S
C1485 C1486 1.523 . S
C1486 C1467 1.368 . S
C1486 C1480 1.368 . S
C1486 C1485 1.523 . S
C1487 C1471 1.429 . S
C1487 C1483 1.429 . S
C1487 C1488 1.523 . S
C1488 C1472 1.368 . S
C1488 C1484 1.368 . S
C1488 C1487 1.523 . S
H1489 C1464 0.950 . S
H1490 C1466 0.950 . S
H1491 C1467 0.949 . S
H1492 C1469 0.950 . S
H1493 C1471 0.950 . S
C1494 C1495 1.349 . S
C1494 C1496 1.327 . S
C1494 H1519 0.950 . S
C1495 C1494 1.349 . S
C1495 C1511 1.349 . S
C1496 C1494 1.327 . S
C1496 C1515 1.429 . S
C1496 H1520 0.950 . S
C1497 C1514 1.574 1_556 S
C1497 C1516 1.368 . S
C1497 H1521 0.949 . S
H1498 C1502 0.949 . S
C1499 C1500 1.349 . S
C1499 C1501 1.327 . S
C1499 H1522 0.950 . S
C1500 C1499 1.349 . S
C1500 C1512 1.349 . S
C1501 C1499 1.327 . S
C1501 C1517 1.429 . S
C1501 H1523 0.950 . S
C1502 H1498 0.949 . S
C1502 C1510 1.574 1_554 S
C1502 C1518 1.368 . S
H1503 C1511 0.950 . S
H1504 C1509 0.950 . S
H1505 C1510 0.949 . S
H1506 C1512 0.950 . S
H1507 C1513 0.950 . S
H1508 C1514 0.949 . S
C1509 H1504 0.950 . S
C1509 C1511 1.327 . S
C1509 C1515 1.429 . S
C1510 C1502 1.574 1_556 S
C1510 H1505 0.949 . S
C1510 C1516 1.368 . S
C1511 C1495 1.349 . S
C1511 H1503 0.950 . S
C1511 C1509 1.327 . S
C1512 C1500 1.349 . S
C1512 H1506 0.950 . S
C1512 C1513 1.327 . S
C1513 H1507 0.950 . S
C1513 C1512 1.327 . S
C1513 C1517 1.429 . S
C1514 C1497 1.574 1_554 S
C1514 H1508 0.949 . S
C1514 C1518 1.368 . S
C1515 C1496 1.429 . S
C1515 C1509 1.429 . S
C1515 C1516 1.523 . S
C1516 C1497 1.368 . S
C1516 C1510 1.368 . S
C1516 C1515 1.523 . S
C1517 C1501 1.429 . S
C1517 C1513 1.429 . S
C1517 C1518 1.523 . S
C1518 C1502 1.368 . S
C1518 C1514 1.368 . S
C1518 C1517 1.523 . S
H1519 C1494 0.950 . S
H1520 C1496 0.950 . S
H1521 C1497 0.949 . S
H1522 C1499 0.950 . S
H1523 C1501 0.950 . S
C1524 C1525 1.349 . S
C1524 C1526 1.327 . S
C1524 H1549 0.950 . S
C1525 C1524 1.349 . S
C1525 C1541 1.349 . S
C1526 C1524 1.327 . S
C1526 C1545 1.429 . S
C1526 H1550 0.950 . S
C1527 C1544 1.574 . S
C1527 C1546 1.368 . S
C1527 H1551 0.949 . S
H1528 C1532 0.949 . S
C1529 C1530 1.349 . S
C1529 C1531 1.327 . S
C1529 H1552 0.950 . S
C1530 C1529 1.349 . S
C1530 C1542 1.349 . S
C1531 C1529 1.327 . S
C1531 C1547 1.429 . S
C1531 H1553 0.950 . S
C1532 H1528 0.949 . S
C1532 C1540 1.574 . S
C1532 C1548 1.368 . S
H1533 C1541 0.950 . S
H1534 C1539 0.950 . S
H1535 C1540 0.949 . S
H1536 C1542 0.950 . S
H1537 C1543 0.950 . S
H1538 C1544 0.949 . S
C1539 H1534 0.950 . S
C1539 C1541 1.327 . S
C1539 C1545 1.429 . S
C1540 C1532 1.574 . S
C1540 H1535 0.949 . S
C1540 C1546 1.368 . S
C1541 C1525 1.349 . S
C1541 H1533 0.950 . S
C1541 C1539 1.327 . S
C1542 C1530 1.349 . S
C1542 H1536 0.950 . S
C1542 C1543 1.327 . S
C1543 H1537 0.950 . S
C1543 C1542 1.327 . S
C1543 C1547 1.429 . S
C1544 C1527 1.574 . S
C1544 H1538 0.949 . S
C1544 C1548 1.368 . S
C1545 C1526 1.429 . S
C1545 C1539 1.429 . S
C1545 C1546 1.523 . S
C1546 C1527 1.368 . S
C1546 C1540 1.368 . S
C1546 C1545 1.523 . S
C1547 C1531 1.429 . S
C1547 C1543 1.429 . S
C1547 C1548 1.523 . S
C1548 C1532 1.368 . S
C1548 C1544 1.368 . S
C1548 C1547 1.523 . S
H1549 C1524 0.950 . S
H1550 C1526 0.950 . S
H1551 C1527 0.949 . S
H1552 C1529 0.950 . S
H1553 C1531 0.950 . S
C1554 C1555 1.349 . S
C1554 C1556 1.327 . S
C1554 H1579 0.950 . S
C1555 C1554 1.349 . S
C1555 C1571 1.349 . S
C1556 C1554 1.327 . S
C1556 C1575 1.429 . S
C1556 H1580 0.950 . S
C1557 C1574 1.574 1_556 S
C1557 C1576 1.368 . S
C1557 H1581 0.949 . S
H1558 C1562 0.949 . S
C1559 C1560 1.349 . S
C1559 C1561 1.327 . S
C1559 H1582 0.950 . S
C1560 C1559 1.349 . S
C1560 C1572 1.349 . S
C1561 C1559 1.327 . S
C1561 C1577 1.429 . S
C1561 H1583 0.950 . S
C1562 H1558 0.949 . S
C1562 C1570 1.574 1_554 S
C1562 C1578 1.368 . S
H1563 C1571 0.950 . S
H1564 C1569 0.950 . S
H1565 C1570 0.949 . S
H1566 C1572 0.950 . S
H1567 C1573 0.950 . S
H1568 C1574 0.949 . S
C1569 H1564 0.950 . S
C1569 C1571 1.327 . S
C1569 C1575 1.429 . S
C1570 C1562 1.574 1_556 S
C1570 H1565 0.949 . S
C1570 C1576 1.368 . S
C1571 C1555 1.349 . S
C1571 H1563 0.950 . S
C1571 C1569 1.327 . S
C1572 C1560 1.349 . S
C1572 H1566 0.950 . S
C1572 C1573 1.327 . S
C1573 H1567 0.950 . S
C1573 C1572 1.327 . S
C1573 C1577 1.429 . S
C1574 C1557 1.574 1_554 S
C1574 H1568 0.949 . S
C1574 C1578 1.368 . S
C1575 C1556 1.429 . S
C1575 C1569 1.429 . S
C1575 C1576 1.523 . S
C1576 C1557 1.368 . S
C1576 C1570 1.368 . S
C1576 C1575 1.523 . S
C1577 C1561 1.429 . S
C1577 C1573 1.429 . S
C1577 C1578 1.523 . S
C1578 C1562 1.368 . S
C1578 C1574 1.368 . S
C1578 C1577 1.523 . S
H1579 C1554 0.950 . S
H1580 C1556 0.950 . S
H1581 C1557 0.949 . S
H1582 C1559 0.950 . S
H1583 C1561 0.950 . S
C1584 C1585 1.349 . S
C1584 C1586 1.327 . S
C1584 H1609 0.950 . S
C1585 C1584 1.349 . S
C1585 C1601 1.349 . S
C1586 C1584 1.327 . S
C1586 C1605 1.429 . S
C1586 H1610 0.950 . S
C1587 C1604 1.574 . S
C1587 C1606 1.368 . S
C1587 H1611 0.949 . S
H1588 C1592 0.949 . S
C1589 C1590 1.349 . S
C1589 C1591 1.327 . S
C1589 H1612 0.950 . S
C1590 C1589 1.349 . S
C1590 C1602 1.349 . S
C1591 C1589 1.327 . S
C1591 C1607 1.429 . S
C1591 H1613 0.950 . S
C1592 H1588 0.949 . S
C1592 C1600 1.574 . S
C1592 C1608 1.368 . S
H1593 C1601 0.950 . S
H1594 C1599 0.950 . S
H1595 C1600 0.949 . S
H1596 C1602 0.950 . S
H1597 C1603 0.950 . S
H1598 C1604 0.949 . S
C1599 H1594 0.950 . S
C1599 C1601 1.327 . S
C1599 C1605 1.429 . S
C1600 C1592 1.574 . S
C1600 H1595 0.949 . S
C1600 C1606 1.368 . S
C1601 C1585 1.349 . S
C1601 H1593 0.950 . S
C1601 C1599 1.327 . S
C1602 C1590 1.349 . S
C1602 H1596 0.950 . S
C1602 C1603 1.327 . S
C1603 H1597 0.950 . S
C1603 C1602 1.327 . S
C1603 C1607 1.429 . S
C1604 C1587 1.574 . S
C1604 H1598 0.949 . S
C1604 C1608 1.368 . S
C1605 C1586 1.429 . S
C1605 C1599 1.429 . S
C1605 C1606 1.523 . S
C1606 C1587 1.368 . S
C1606 C1600 1.368 . S
C1606 C1605 1.523 . S
C1607 C1591 1.429 . S
C1607 C1603 1.429 . S
C1607 C1608 1.523 . S
C1608 C1592 1.368 . S
C1608 C1604 1.368 . S
C1608 C1607 1.523 . S
H1609 C1584 0.950 . S
H1610 C1586 0.950 . S
H1611 C1587 0.949 . S
H1612 C1589 0.950 . S
H1613 C1591 0.950 . S
C1614 C1615 1.349 . S
C1614 C1616 1.327 . S
C1614 H1639 0.950 . S
C1615 C1614 1.349 . S
C1615 C1631 1.349 . S
C1616 C1614 1.327 . S
C1616 C1635 1.429 . S
C1616 H1640 0.950 . S
C1617 C1634 1.574 1_565 S
C1617 C1636 1.368 . S
C1617 H1641 0.949 . S
H1618 C1622 0.949 . S
C1619 C1620 1.349 . S
C1619 C1621 1.327 . S
C1619 H1642 0.950 . S
C1620 C1619 1.349 . S
C1620 C1632 1.349 . S
C1621 C1619 1.327 . S
C1621 C1637 1.429 . S
C1621 H1643 0.950 . S
C1622 H1618 0.949 . S
C1622 C1630 1.574 1_545 S
C1622 C1638 1.368 . S
H1623 C1631 0.950 . S
H1624 C1629 0.950 . S
H1625 C1630 0.949 . S
H1626 C1632 0.950 . S
H1627 C1633 0.950 . S
H1628 C1634 0.949 . S
C1629 H1624 0.950 . S
C1629 C1631 1.327 . S
C1629 C1635 1.429 . S
C1630 C1622 1.574 1_565 S
C1630 H1625 0.949 . S
C1630 C1636 1.368 . S
C1631 C1615 1.349 . S
C1631 H1623 0.950 . S
C1631 C1629 1.327 . S
C1632 C1620 1.349 . S
C1632 H1626 0.950 . S
C1632 C1633 1.327 . S
C1633 H1627 0.950 . S
C1633 C1632 1.327 . S
C1633 C1637 1.429 . S
C1634 C1617 1.574 1_545 S
C1634 H1628 0.949 . S
C1634 C1638 1.368 . S
C1635 C1616 1.429 . S
C1635 C1629 1.429 . S
C1635 C1636 1.523 . S
C1636 C1617 1.368 . S
C1636 C1630 1.368 . S
C1636 C1635 1.523 . S
C1637 C1621 1.429 . S
C1637 C1633 1.429 . S
C1637 C1638 1.523 . S
C1638 C1622 1.368 . S
C1638 C1634 1.368 . S
C1638 C1637 1.523 . S
H1639 C1614 0.950 . S
H1640 C1616 0.950 . S
H1641 C1617 0.949 . S
H1642 C1619 0.950 . S
H1643 C1621 0.950 . S
C1644 C1645 1.349 . S
C1644 C1646 1.327 . S
C1644 H1669 0.950 . S
C1645 C1644 1.349 . S
C1645 C1661 1.349 . S
C1646 C1644 1.327 . S
C1646 C1665 1.429 . S
C1646 H1670 0.950 . S
C1647 C1664 1.574 . S
C1647 C1666 1.368 . S
C1647 H1671 0.949 . S
H1648 C1652 0.949 . S
C1649 C1650 1.349 . S
C1649 C1651 1.327 . S
C1649 H1672 0.950 . S
C1650 C1649 1.349 . S
C1650 C1662 1.349 . S
C1651 C1649 1.327 . S
C1651 C1667 1.429 . S
C1651 H1673 0.950 . S
C1652 H1648 0.949 . S
C1652 C1660 1.574 . S
C1652 C1668 1.368 . S
H1653 C1661 0.950 . S
H1654 C1659 0.950 . S
H1655 C1660 0.949 . S
H1656 C1662 0.950 . S
H1657 C1663 0.950 . S
H1658 C1664 0.949 . S
C1659 H1654 0.950 . S
C1659 C1661 1.327 . S
C1659 C1665 1.429 . S
C1660 C1652 1.574 . S
C1660 H1655 0.949 . S
C1660 C1666 1.368 . S
C1661 C1645 1.349 . S
C1661 H1653 0.950 . S
C1661 C1659 1.327 . S
C1662 C1650 1.349 . S
C1662 H1656 0.950 . S
C1662 C1663 1.327 . S
C1663 H1657 0.950 . S
C1663 C1662 1.327 . S
C1663 C1667 1.429 . S
C1664 C1647 1.574 . S
C1664 H1658 0.949 . S
C1664 C1668 1.368 . S
C1665 C1646 1.429 . S
C1665 C1659 1.429 . S
C1665 C1666 1.523 . S
C1666 C1647 1.368 . S
C1666 C1660 1.368 . S
C1666 C1665 1.523 . S
C1667 C1651 1.429 . S
C1667 C1663 1.429 . S
C1667 C1668 1.523 . S
C1668 C1652 1.368 . S
C1668 C1664 1.368 . S
C1668 C1667 1.523 . S
H1669 C1644 0.950 . S
H1670 C1646 0.950 . S
H1671 C1647 0.949 . S
H1672 C1649 0.950 . S
H1673 C1651 0.950 . S
C1674 C1675 1.349 . S
C1674 C1676 1.327 . S
C1674 H1699 0.950 . S
C1675 C1674 1.349 . S
C1675 C1691 1.349 . S
C1676 C1674 1.327 . S
C1676 C1695 1.429 . S
C1676 H1700 0.950 . S
C1677 C1694 1.574 1_545 S
C1677 C1696 1.368 . S
C1677 H1701 0.949 . S
H1678 C1682 0.949 . S
C1679 C1680 1.349 . S
C1679 C1681 1.327 . S
C1679 H1702 0.950 . S
C1680 C1679 1.349 . S
C1680 C1692 1.349 . S
C1681 C1679 1.327 . S
C1681 C1697 1.429 . S
C1681 H1703 0.950 . S
C1682 H1678 0.949 . S
C1682 C1690 1.574 1_565 S
C1682 C1698 1.368 . S
H1683 C1691 0.950 . S
H1684 C1689 0.950 . S
H1685 C1690 0.949 . S
H1686 C1692 0.950 . S
H1687 C1693 0.950 . S
H1688 C1694 0.949 . S
C1689 H1684 0.950 . S
C1689 C1691 1.327 . S
C1689 C1695 1.429 . S
C1690 C1682 1.574 1_545 S
C1690 H1685 0.949 . S
C1690 C1696 1.368 . S
C1691 C1675 1.349 . S
C1691 H1683 0.950 . S
C1691 C1689 1.327 . S
C1692 C1680 1.349 . S
C1692 H1686 0.950 . S
C1692 C1693 1.327 . S
C1693 H1687 0.950 . S
C1693 C1692 1.327 . S
C1693 C1697 1.429 . S
C1694 C1677 1.574 1_565 S
C1694 H1688 0.949 . S
C1694 C1698 1.368 . S
C1695 C1676 1.429 . S
C1695 C1689 1.429 . S
C1695 C1696 1.523 . S
C1696 C1677 1.368 . S
C1696 C1690 1.368 . S
C1696 C1695 1.523 . S
C1697 C1681 1.429 . S
C1697 C1693 1.429 . S
C1697 C1698 1.523 . S
C1698 C1682 1.368 . S
C1698 C1694 1.368 . S
C1698 C1697 1.523 . S
H1699 C1674 0.950 . S
H1700 C1676 0.950 . S
H1701 C1677 0.949 . S
H1702 C1679 0.950 . S
H1703 C1681 0.950 . S
C1704 C1705 1.349 . S
C1704 C1706 1.327 . S
C1704 H1729 0.950 . S
C1705 C1704 1.349 . S
C1705 C1721 1.349 . S
C1706 C1704 1.327 . S
C1706 C1725 1.429 . S
C1706 H1730 0.950 . S
C1707 C1724 1.574 . S
C1707 C1726 1.368 . S
C1707 H1731 0.949 . S
H1708 C1712 0.949 . S
C1709 C1710 1.349 . S
C1709 C1711 1.327 . S
C1709 H1732 0.950 . S
C1710 C1709 1.349 . S
C1710 C1722 1.349 . S
C1711 C1709 1.327 . S
C1711 C1727 1.429 . S
C1711 H1733 0.950 . S
C1712 H1708 0.949 . S
C1712 C1720 1.574 . S
C1712 C1728 1.368 . S
H1713 C1721 0.950 . S
H1714 C1719 0.950 . S
H1715 C1720 0.949 . S
H1716 C1722 0.950 . S
H1717 C1723 0.950 . S
H1718 C1724 0.949 . S
C1719 H1714 0.950 . S
C1719 C1721 1.327 . S
C1719 C1725 1.429 . S
C1720 C1712 1.574 . S
C1720 H1715 0.949 . S
C1720 C1726 1.368 . S
C1721 C1705 1.349 . S
C1721 H1713 0.950 . S
C1721 C1719 1.327 . S
C1722 C1710 1.349 . S
C1722 H1716 0.950 . S
C1722 C1723 1.327 . S
C1723 H1717 0.950 . S
C1723 C1722 1.327 . S
C1723 C1727 1.429 . S
C1724 C1707 1.574 . S
C1724 H1718 0.949 . S
C1724 C1728 1.368 . S
C1725 C1706 1.429 . S
C1725 C1719 1.429 . S
C1725 C1726 1.523 . S
C1726 C1707 1.368 . S
C1726 C1720 1.368 . S
C1726 C1725 1.523 . S
C1727 C1711 1.429 . S
C1727 C1723 1.429 . S
C1727 C1728 1.523 . S
C1728 C1712 1.368 . S
C1728 C1724 1.368 . S
C1728 C1727 1.523 . S
H1729 C1704 0.950 . S
H1730 C1706 0.950 . S
H1731 C1707 0.949 . S
H1732 C1709 0.950 . S
H1733 C1711 0.950 . S
C1734 C1735 1.349 . S
C1734 C1736 1.327 . S
C1734 H1759 0.950 . S
C1735 C1734 1.349 . S
C1735 C1751 1.349 . S
C1736 C1734 1.327 . S
C1736 C1755 1.429 . S
C1736 H1760 0.950 . S
C1737 C1754 1.574 1_565 S
C1737 C1756 1.368 . S
C1737 H1761 0.949 . S
H1738 C1742 0.949 . S
C1739 C1740 1.349 . S
C1739 C1741 1.327 . S
C1739 H1762 0.950 . S
C1740 C1739 1.349 . S
C1740 C1752 1.349 . S
C1741 C1739 1.327 . S
C1741 C1757 1.429 . S
C1741 H1763 0.950 . S
C1742 H1738 0.949 . S
C1742 C1750 1.574 1_545 S
C1742 C1758 1.368 . S
H1743 C1751 0.950 . S
H1744 C1749 0.950 . S
H1745 C1750 0.949 . S
H1746 C1752 0.950 . S
H1747 C1753 0.950 . S
H1748 C1754 0.949 . S
C1749 H1744 0.950 . S
C1749 C1751 1.327 . S
C1749 C1755 1.429 . S
C1750 C1742 1.574 1_565 S
C1750 H1745 0.949 . S
C1750 C1756 1.368 . S
C1751 C1735 1.349 . S
C1751 H1743 0.950 . S
C1751 C1749 1.327 . S
C1752 C1740 1.349 . S
C1752 H1746 0.950 . S
C1752 C1753 1.327 . S
C1753 H1747 0.950 . S
C1753 C1752 1.327 . S
C1753 C1757 1.429 . S
C1754 C1737 1.574 1_545 S
C1754 H1748 0.949 . S
C1754 C1758 1.368 . S
C1755 C1736 1.429 . S
C1755 C1749 1.429 . S
C1755 C1756 1.523 . S
C1756 C1737 1.368 . S
C1756 C1750 1.368 . S
C1756 C1755 1.523 . S
C1757 C1741 1.429 . S
C1757 C1753 1.429 . S
C1757 C1758 1.523 . S
C1758 C1742 1.368 . S
C1758 C1754 1.368 . S
C1758 C1757 1.523 . S
H1759 C1734 0.950 . S
H1760 C1736 0.950 . S
H1761 C1737 0.949 . S
H1762 C1739 0.950 . S
H1763 C1741 0.950 . S
C1764 C1765 1.349 . S
C1764 C1766 1.327 . S
C1764 H1789 0.950 . S
C1765 C1764 1.349 . S
C1765 C1781 1.349 . S
C1766 C1764 1.327 . S
C1766 C1785 1.429 . S
C1766 H1790 0.950 . S
C1767 C1784 1.574 . S
C1767 C1786 1.368 . S
C1767 H1791 0.949 . S
H1768 C1772 0.949 . S
C1769 C1770 1.349 . S
C1769 C1771 1.327 . S
C1769 H1792 0.950 . S
C1770 C1769 1.349 . S
C1770 C1782 1.349 . S
C1771 C1769 1.327 . S
C1771 C1787 1.429 . S
C1771 H1793 0.950 . S
C1772 H1768 0.949 . S
C1772 C1780 1.574 . S
C1772 C1788 1.368 . S
H1773 C1781 0.950 . S
H1774 C1779 0.950 . S
H1775 C1780 0.949 . S
H1776 C1782 0.950 . S
H1777 C1783 0.950 . S
H1778 C1784 0.949 . S
C1779 H1774 0.950 . S
C1779 C1781 1.327 . S
C1779 C1785 1.429 . S
C1780 C1772 1.574 . S
C1780 H1775 0.949 . S
C1780 C1786 1.368 . S
C1781 C1765 1.349 . S
C1781 H1773 0.950 . S
C1781 C1779 1.327 . S
C1782 C1770 1.349 . S
C1782 H1776 0.950 . S
C1782 C1783 1.327 . S
C1783 H1777 0.950 . S
C1783 C1782 1.327 . S
C1783 C1787 1.429 . S
C1784 C1767 1.574 . S
C1784 H1778 0.949 . S
C1784 C1788 1.368 . S
C1785 C1766 1.429 . S
C1785 C1779 1.429 . S
C1785 C1786 1.523 . S
C1786 C1767 1.368 . S
C1786 C1780 1.368 . S
C1786 C1785 1.523 . S
C1787 C1771 1.429 . S
C1787 C1783 1.429 . S
C1787 C1788 1.523 . S
C1788 C1772 1.368 . S
C1788 C1784 1.368 . S
C1788 C1787 1.523 . S
H1789 C1764 0.950 . S
H1790 C1766 0.950 . S
H1791 C1767 0.949 . S
H1792 C1769 0.950 . S
H1793 C1771 0.950 . S
C1794 C1795 1.349 . S
C1794 C1796 1.327 . S
C1794 H1819 0.950 . S
C1795 C1794 1.349 . S
C1795 C1811 1.349 . S
C1796 C1794 1.327 . S
C1796 C1815 1.429 . S
C1796 H1820 0.950 . S
C1797 C1814 1.574 1_565 S
C1797 C1816 1.368 . S
C1797 H1821 0.949 . S
H1798 C1802 0.949 . S
C1799 C1800 1.349 . S
C1799 C1801 1.327 . S
C1799 H1822 0.950 . S
C1800 C1799 1.349 . S
C1800 C1812 1.349 . S
C1801 C1799 1.327 . S
C1801 C1817 1.429 . S
C1801 H1823 0.950 . S
C1802 H1798 0.949 . S
C1802 C1810 1.574 1_545 S
C1802 C1818 1.368 . S
H1803 C1811 0.950 . S
H1804 C1809 0.950 . S
H1805 C1810 0.949 . S
H1806 C1812 0.950 . S
H1807 C1813 0.950 . S
H1808 C1814 0.949 . S
C1809 H1804 0.950 . S
C1809 C1811 1.327 . S
C1809 C1815 1.429 . S
C1810 C1802 1.574 1_565 S
C1810 H1805 0.949 . S
C1810 C1816 1.368 . S
C1811 C1795 1.349 . S
C1811 H1803 0.950 . S
C1811 C1809 1.327 . S
C1812 C1800 1.349 . S
C1812 H1806 0.950 . S
C1812 C1813 1.327 . S
C1813 H1807 0.950 . S
C1813 C1812 1.327 . S
C1813 C1817 1.429 . S
C1814 C1797 1.574 1_545 S
C1814 H1808 0.949 . S
C1814 C1818 1.368 . S
C1815 C1796 1.429 . S
C1815 C1809 1.429 . S
C1815 C1816 1.523 . S
C1816 C1797 1.368 . S
C1816 C1810 1.368 . S
C1816 C1815 1.523 . S
C1817 C1801 1.429 . S
C1817 C1813 1.429 . S
C1817 C1818 1.523 . S
C1818 C1802 1.368 . S
C1818 C1814 1.368 . S
C1818 C1817 1.523 . S
H1819 C1794 0.950 . S
H1820 C1796 0.950 . S
H1821 C1797 0.949 . S
H1822 C1799 0.950 . S
H1823 C1801 0.950 . S
C1824 C1825 1.349 . S
C1824 C1826 1.327 . S
C1824 H1849 0.950 . S
C1825 C1824 1.349 . S
C1825 C1841 1.349 . S
C1826 C1824 1.327 . S
C1826 C1845 1.429 . S
C1826 H1850 0.950 . S
C1827 C1844 1.574 . S
C1827 C1846 1.368 . S
C1827 H1851 0.949 . S
H1828 C1832 0.949 . S
C1829 C1830 1.349 . S
C1829 C1831 1.327 . S
C1829 H1852 0.950 . S
C1830 C1829 1.349 . S
C1830 C1842 1.349 . S
C1831 C1829 1.327 . S
C1831 C1847 1.429 . S
C1831 H1853 0.950 . S
C1832 H1828 0.949 . S
C1832 C1840 1.574 . S
C1832 C1848 1.368 . S
H1833 C1841 0.950 . S
H1834 C1839 0.950 . S
H1835 C1840 0.949 . S
H1836 C1842 0.950 . S
H1837 C1843 0.950 . S
H1838 C1844 0.949 . S
C1839 H1834 0.950 . S
C1839 C1841 1.327 . S
C1839 C1845 1.429 . S
C1840 C1832 1.574 . S
C1840 H1835 0.949 . S
C1840 C1846 1.368 . S
C1841 C1825 1.349 . S
C1841 H1833 0.950 . S
C1841 C1839 1.327 . S
C1842 C1830 1.349 . S
C1842 H1836 0.950 . S
C1842 C1843 1.327 . S
C1843 H1837 0.950 . S
C1843 C1842 1.327 . S
C1843 C1847 1.429 . S
C1844 C1827 1.574 . S
C1844 H1838 0.949 . S
C1844 C1848 1.368 . S
C1845 C1826 1.429 . S
C1845 C1839 1.429 . S
C1845 C1846 1.523 . S
C1846 C1827 1.368 . S
C1846 C1840 1.368 . S
C1846 C1845 1.523 . S
C1847 C1831 1.429 . S
C1847 C1843 1.429 . S
C1847 C1848 1.523 . S
C1848 C1832 1.368 . S
C1848 C1844 1.368 . S
C1848 C1847 1.523 . S
H1849 C1824 0.950 . S
H1850 C1826 0.950 . S
H1851 C1827 0.949 . S
H1852 C1829 0.950 . S
H1853 C1831 0.950 . S
C1854 C1855 1.349 . S
C1854 C1856 1.327 . S
C1854 H1879 0.950 . S
C1855 C1854 1.349 . S
C1855 C1871 1.349 . S
C1856 C1854 1.327 . S
C1856 C1875 1.429 . S
C1856 H1880 0.950 . S
C1857 C1874 1.574 . S
C1857 C1876 1.368 . S
C1857 H1881 0.949 . S
H1858 C1862 0.949 . S
C1859 C1860 1.349 . S
C1859 C1861 1.327 . S
C1859 H1882 0.950 . S
C1860 C1859 1.349 . S
C1860 C1872 1.349 . S
C1861 C1859 1.327 . S
C1861 C1877 1.429 . S
C1861 H1883 0.950 . S
C1862 H1858 0.949 . S
C1862 C1870 1.574 . S
C1862 C1878 1.368 . S
H1863 C1871 0.950 . S
H1864 C1869 0.950 . S
H1865 C1870 0.949 . S
H1866 C1872 0.950 . S
H1867 C1873 0.950 . S
H1868 C1874 0.949 . S
C1869 H1864 0.950 . S
C1869 C1871 1.327 . S
C1869 C1875 1.429 . S
C1870 C1862 1.574 . S
C1870 H1865 0.949 . S
C1870 C1876 1.368 . S
C1871 C1855 1.349 . S
C1871 H1863 0.950 . S
C1871 C1869 1.327 . S
C1872 C1860 1.349 . S
C1872 H1866 0.950 . S
C1872 C1873 1.327 . S
C1873 H1867 0.950 . S
C1873 C1872 1.327 . S
C1873 C1877 1.429 . S
C1874 C1857 1.574 . S
C1874 H1868 0.949 . S
C1874 C1878 1.368 . S
C1875 C1856 1.429 . S
C1875 C1869 1.429 . S
C1875 C1876 1.523 . S
C1876 C1857 1.368 . S
C1876 C1870 1.368 . S
C1876 C1875 1.523 . S
C1877 C1861 1.429 . S
C1877 C1873 1.429 . S
C1877 C1878 1.523 . S
C1878 C1862 1.368 . S
C1878 C1874 1.368 . S
C1878 C1877 1.523 . S
H1879 C1854 0.950 . S
H1880 C1856 0.950 . S
H1881 C1857 0.949 . S
H1882 C1859 0.950 . S
H1883 C1861 0.950 . S
C1884 C1885 1.349 . S
C1884 C1886 1.327 . S
C1884 H1909 0.950 . S
C1885 C1884 1.349 . S
C1885 C1901 1.349 . S
C1886 C1884 1.327 . S
C1886 C1905 1.429 . S
C1886 H1910 0.950 . S
C1887 C1904 1.574 1_455 S
C1887 C1906 1.368 . S
C1887 H1911 0.949 . S
H1888 C1892 0.949 . S
C1889 C1890 1.349 . S
C1889 C1891 1.327 . S
C1889 H1912 0.950 . S
C1890 C1889 1.349 . S
C1890 C1902 1.349 . S
C1891 C1889 1.327 . S
C1891 C1907 1.429 . S
C1891 H1913 0.950 . S
C1892 H1888 0.949 . S
C1892 C1900 1.574 1_655 S
C1892 C1908 1.368 . S
H1893 C1901 0.950 . S
H1894 C1899 0.950 . S
H1895 C1900 0.949 . S
H1896 C1902 0.950 . S
H1897 C1903 0.950 . S
H1898 C1904 0.949 . S
C1899 H1894 0.950 . S
C1899 C1901 1.327 . S
C1899 C1905 1.429 . S
C1900 C1892 1.574 1_455 S
C1900 H1895 0.949 . S
C1900 C1906 1.368 . S
C1901 C1885 1.349 . S
C1901 H1893 0.950 . S
C1901 C1899 1.327 . S
C1902 C1890 1.349 . S
C1902 H1896 0.950 . S
C1902 C1903 1.327 . S
C1903 H1897 0.950 . S
C1903 C1902 1.327 . S
C1903 C1907 1.429 . S
C1904 C1887 1.574 1_655 S
C1904 H1898 0.949 . S
C1904 C1908 1.368 . S
C1905 C1886 1.429 . S
C1905 C1899 1.429 . S
C1905 C1906 1.523 . S
C1906 C1887 1.368 . S
C1906 C1900 1.368 . S
C1906 C1905 1.523 . S
C1907 C1891 1.429 . S
C1907 C1903 1.429 . S
C1907 C1908 1.523 . S
C1908 C1892 1.368 . S
C1908 C1904 1.368 . S
C1908 C1907 1.523 . S
H1909 C1884 0.950 . S
H1910 C1886 0.950 . S
H1911 C1887 0.949 . S
H1912 C1889 0.950 . S
H1913 C1891 0.950 . S
C1914 C1915 1.349 . S
C1914 C1916 1.327 . S
C1914 H1939 0.950 . S
C1915 C1914 1.349 . S
C1915 C1931 1.349 . S
C1916 C1914 1.327 . S
C1916 C1935 1.429 . S
C1916 H1940 0.950 . S
C1917 C1934 1.574 . S
C1917 C1936 1.368 . S
C1917 H1941 0.949 . S
H1918 C1922 0.949 . S
C1919 C1920 1.349 . S
C1919 C1921 1.327 . S
C1919 H1942 0.950 . S
C1920 C1919 1.349 . S
C1920 C1932 1.349 . S
C1921 C1919 1.327 . S
C1921 C1937 1.429 . S
C1921 H1943 0.950 . S
C1922 H1918 0.949 . S
C1922 C1930 1.574 . S
C1922 C1938 1.368 . S
H1923 C1931 0.950 . S
H1924 C1929 0.950 . S
H1925 C1930 0.949 . S
H1926 C1932 0.950 . S
H1927 C1933 0.950 . S
H1928 C1934 0.949 . S
C1929 H1924 0.950 . S
C1929 C1931 1.327 . S
C1929 C1935 1.429 . S
C1930 C1922 1.574 . S
C1930 H1925 0.949 . S
C1930 C1936 1.368 . S
C1931 C1915 1.349 . S
C1931 H1923 0.950 . S
C1931 C1929 1.327 . S
C1932 C1920 1.349 . S
C1932 H1926 0.950 . S
C1932 C1933 1.327 . S
C1933 H1927 0.950 . S
C1933 C1932 1.327 . S
C1933 C1937 1.429 . S
C1934 C1917 1.574 . S
C1934 H1928 0.949 . S
C1934 C1938 1.368 . S
C1935 C1916 1.429 . S
C1935 C1929 1.429 . S
C1935 C1936 1.523 . S
C1936 C1917 1.368 . S
C1936 C1930 1.368 . S
C1936 C1935 1.523 . S
C1937 C1921 1.429 . S
C1937 C1933 1.429 . S
C1937 C1938 1.523 . S
C1938 C1922 1.368 . S
C1938 C1934 1.368 . S
C1938 C1937 1.523 . S
H1939 C1914 0.950 . S
H1940 C1916 0.950 . S
H1941 C1917 0.949 . S
H1942 C1919 0.950 . S
H1943 C1921 0.950 . S
C1944 C1945 1.349 . S
C1944 C1946 1.327 . S
C1944 H1969 0.950 . S
C1945 C1944 1.349 . S
C1945 C1961 1.349 . S
C1946 C1944 1.327 . S
C1946 C1965 1.429 . S
C1946 H1970 0.950 . S
C1947 C1964 1.574 1_455 S
C1947 C1966 1.368 . S
C1947 H1971 0.949 . S
H1948 C1952 0.949 . S
C1949 C1950 1.349 . S
C1949 C1951 1.327 . S
C1949 H1972 0.950 . S
C1950 C1949 1.349 . S
C1950 C1962 1.349 . S
C1951 C1949 1.327 . S
C1951 C1967 1.429 . S
C1951 H1973 0.950 . S
C1952 H1948 0.949 . S
C1952 C1960 1.574 1_655 S
C1952 C1968 1.368 . S
H1953 C1961 0.950 . S
H1954 C1959 0.950 . S
H1955 C1960 0.949 . S
H1956 C1962 0.950 . S
H1957 C1963 0.950 . S
H1958 C1964 0.949 . S
C1959 H1954 0.950 . S
C1959 C1961 1.327 . S
C1959 C1965 1.429 . S
C1960 C1952 1.574 1_455 S
C1960 H1955 0.949 . S
C1960 C1966 1.368 . S
C1961 C1945 1.349 . S
C1961 H1953 0.950 . S
C1961 C1959 1.327 . S
C1962 C1950 1.349 . S
C1962 H1956 0.950 . S
C1962 C1963 1.327 . S
C1963 H1957 0.950 . S
C1963 C1962 1.327 . S
C1963 C1967 1.429 . S
C1964 C1947 1.574 1_655 S
C1964 H1958 0.949 . S
C1964 C1968 1.368 . S
C1965 C1946 1.429 . S
C1965 C1959 1.429 . S
C1965 C1966 1.523 . S
C1966 C1947 1.368 . S
C1966 C1960 1.368 . S
C1966 C1965 1.523 . S
C1967 C1951 1.429 . S
C1967 C1963 1.429 . S
C1967 C1968 1.523 . S
C1968 C1952 1.368 . S
C1968 C1964 1.368 . S
C1968 C1967 1.523 . S
H1969 C1944 0.950 . S
H1970 C1946 0.950 . S
H1971 C1947 0.949 . S
H1972 C1949 0.950 . S
H1973 C1951 0.950 . S
C1974 C1975 1.349 . S
C1974 C1976 1.327 . S
C1974 H1999 0.950 . S
C1975 C1974 1.349 . S
C1975 C1991 1.349 . S
C1976 C1974 1.327 . S
C1976 C1995 1.429 . S
C1976 H2000 0.950 . S
C1977 C1994 1.574 . S
C1977 C1996 1.368 . S
C1977 H2001 0.949 . S
H1978 C1982 0.949 . S
C1979 C1980 1.349 . S
C1979 C1981 1.327 . S
C1979 H2002 0.950 . S
C1980 C1979 1.349 . S
C1980 C1992 1.349 . S
C1981 C1979 1.327 . S
C1981 C1997 1.429 . S
C1981 H2003 0.950 . S
C1982 H1978 0.949 . S
C1982 C1990 1.574 . S
C1982 C1998 1.368 . S
H1983 C1991 0.950 . S
H1984 C1989 0.950 . S
H1985 C1990 0.949 . S
H1986 C1992 0.950 . S
H1987 C1993 0.950 . S
H1988 C1994 0.949 . S
C1989 H1984 0.950 . S
C1989 C1991 1.327 . S
C1989 C1995 1.429 . S
C1990 C1982 1.574 . S
C1990 H1985 0.949 . S
C1990 C1996 1.368 . S
C1991 C1975 1.349 . S
C1991 H1983 0.950 . S
C1991 C1989 1.327 . S
C1992 C1980 1.349 . S
C1992 H1986 0.950 . S
C1992 C1993 1.327 . S
C1993 H1987 0.950 . S
C1993 C1992 1.327 . S
C1993 C1997 1.429 . S
C1994 C1977 1.574 . S
C1994 H1988 0.949 . S
C1994 C1998 1.368 . S
C1995 C1976 1.429 . S
C1995 C1989 1.429 . S
C1995 C1996 1.523 . S
C1996 C1977 1.368 . S
C1996 C1990 1.368 . S
C1996 C1995 1.523 . S
C1997 C1981 1.429 . S
C1997 C1993 1.429 . S
C1997 C1998 1.523 . S
C1998 C1982 1.368 . S
C1998 C1994 1.368 . S
C1998 C1997 1.523 . S
H1999 C1974 0.950 . S
H2000 C1976 0.950 . S
H2001 C1977 0.949 . S
H2002 C1979 0.950 . S
H2003 C1981 0.950 . S
C2004 C2005 1.349 . S
C2004 C2006 1.327 . S
C2004 H2029 0.950 . S
C2005 C2004 1.349 . S
C2005 C2021 1.349 . S
C2006 C2004 1.327 . S
C2006 C2025 1.429 . S
C2006 H2030 0.950 . S
C2007 C2024 1.574 . S
C2007 C2026 1.368 . S
C2007 H2031 0.949 . S
H2008 C2012 0.962 . S
C2009 C2010 1.349 . S
C2009 C2011 1.327 . S
C2009 H2032 0.950 . S
C2010 C2009 1.349 . S
C2010 C2022 1.349 . S
C2011 C2009 1.327 . S
C2011 C2027 1.429 . S
C2011 H2033 0.950 . S
C2012 H2008 0.962 . S
C2012 C2020 1.574 . S
C2012 C2028 1.368 . S
H2013 C2021 0.950 . S
H2014 C2019 0.950 . S
H2015 C2020 0.949 . S
H2016 C2022 0.950 . S
H2017 C2023 0.950 . S
H2018 C2024 0.949 . S
C2019 H2014 0.950 . S
C2019 C2021 1.327 . S
C2019 C2025 1.429 . S
C2020 C2012 1.574 . S
C2020 H2015 0.949 . S
C2020 C2026 1.368 . S
C2021 C2005 1.349 . S
C2021 H2013 0.950 . S
C2021 C2019 1.327 . S
C2022 C2010 1.349 . S
C2022 H2016 0.950 . S
C2022 C2023 1.327 . S
C2023 H2017 0.950 . S
C2023 C2022 1.327 . S
C2023 C2027 1.429 . S
C2024 C2007 1.574 . S
C2024 H2018 0.949 . S
C2024 C2028 1.368 . S
C2025 C2006 1.429 . S
C2025 C2019 1.429 . S
C2025 C2026 1.523 . S
C2026 C2007 1.368 . S
C2026 C2020 1.368 . S
C2026 C2025 1.523 . S
C2027 C2011 1.429 . S
C2027 C2023 1.429 . S
C2027 C2028 1.523 1_455 S
C2028 C2012 1.368 . S
C2028 C2024 1.368 . S
C2028 C2027 1.523 1_655 S
H2029 C2004 0.950 . S
H2030 C2006 0.950 . S
H2031 C2007 0.949 . S
H2032 C2009 0.950 . S
H2033 C2011 0.950 . S
C2034 C2035 1.349 . S
C2034 C2036 1.327 . S
C2034 H2059 0.950 . S
C2035 C2034 1.349 . S
C2035 C2051 1.349 . S
C2036 C2034 1.327 . S
C2036 C2055 1.429 . S
C2036 H2060 0.950 . S
C2037 C2054 1.574 . S
C2037 C2056 1.368 . S
C2037 H2061 0.949 . S
H2038 C2042 0.949 . S
C2039 C2040 1.349 . S
C2039 C2041 1.327 . S
C2039 H2062 0.950 . S
C2040 C2039 1.349 . S
C2040 C2052 1.349 . S
C2041 C2039 1.327 . S
C2041 C2057 1.429 . S
C2041 H2063 0.950 . S
C2042 H2038 0.949 . S
C2042 C2050 1.574 . S
C2042 C2058 1.368 . S
H2043 C2051 0.950 . S
H2044 C2049 0.950 . S
H2045 C2050 0.949 . S
H2046 C2052 0.950 . S
H2047 C2053 0.950 . S
H2048 C2054 0.949 . S
C2049 H2044 0.950 . S
C2049 C2051 1.327 . S
C2049 C2055 1.429 . S
C2050 C2042 1.574 . S
C2050 H2045 0.949 . S
C2050 C2056 1.368 . S
C2051 C2035 1.349 . S
C2051 H2043 0.950 . S
C2051 C2049 1.327 . S
C2052 C2040 1.349 . S
C2052 H2046 0.950 . S
C2052 C2053 1.327 . S
C2053 H2047 0.950 . S
C2053 C2052 1.327 . S
C2053 C2057 1.429 . S
C2054 C2037 1.574 . S
C2054 H2048 0.949 . S
C2054 C2058 1.368 . S
C2055 C2036 1.429 . S
C2055 C2049 1.429 . S
C2055 C2056 1.523 . S
C2056 C2037 1.368 . S
C2056 C2050 1.368 . S
C2056 C2055 1.523 . S
C2057 C2041 1.429 . S
C2057 C2053 1.429 . S
C2057 C2058 1.523 1_655 S
C2058 C2042 1.368 . S
C2058 C2054 1.368 . S
C2058 C2057 1.523 1_455 S
H2059 C2034 0.950 . S
H2060 C2036 0.950 . S
H2061 C2037 0.949 . S
H2062 C2039 0.950 . S
H2063 C2041 0.950 . S
C2064 C2065 1.349 . S
C2064 C2066 1.327 . S
C2064 H2089 0.950 . S
C2065 C2064 1.349 . S
C2065 C2081 1.349 . S
C2066 C2064 1.327 . S
C2066 C2085 1.429 . S
C2066 H2090 0.950 . S
C2067 C2084 1.574 1_655 S
C2067 C2086 1.368 . S
C2067 H2091 0.949 . S
H2068 C2072 0.949 . S
C2069 C2070 1.349 . S
C2069 C2071 1.327 . S
C2069 H2092 0.950 . S
C2070 C2069 1.349 . S
C2070 C2082 1.349 . S
C2071 C2069 1.327 . S
C2071 C2087 1.429 . S
C2071 H2093 0.950 . S
C2072 H2068 0.949 . S
C2072 C2080 1.574 1_455 S
C2072 C2088 1.368 . S
H2073 C2081 0.950 . S
H2074 C2079 0.950 . S
H2075 C2080 0.949 . S
H2076 C2082 0.950 . S
H2077 C2083 0.950 . S
H2078 C2084 0.949 . S
C2079 H2074 0.950 . S
C2079 C2081 1.327 . S
C2079 C2085 1.429 . S
C2080 C2072 1.574 1_655 S
C2080 H2075 0.949 . S
C2080 C2086 1.368 . S
C2081 C2065 1.349 . S
C2081 H2073 0.950 . S
C2081 C2079 1.327 . S
C2082 C2070 1.349 . S
C2082 H2076 0.950 . S
C2082 C2083 1.327 . S
C2083 H2077 0.950 . S
C2083 C2082 1.327 . S
C2083 C2087 1.429 . S
C2084 C2067 1.574 1_455 S
C2084 H2078 0.949 . S
C2084 C2088 1.368 . S
C2085 C2066 1.429 . S
C2085 C2079 1.429 . S
C2085 C2086 1.523 . S
C2086 C2067 1.368 . S
C2086 C2080 1.368 . S
C2086 C2085 1.523 . S
C2087 C2071 1.429 . S
C2087 C2083 1.429 . S
C2087 C2088 1.523 . S
C2088 C2072 1.368 . S
C2088 C2084 1.368 . S
C2088 C2087 1.523 . S
H2089 C2064 0.950 . S
H2090 C2066 0.950 . S
H2091 C2067 0.949 . S
H2092 C2069 0.950 . S
H2093 C2071 0.950 . S
C2094 C2095 1.349 . S
C2094 C2096 1.327 . S
C2094 H2119 0.950 . S
C2095 C2094 1.349 . S
C2095 C2111 1.349 . S
C2096 C2094 1.327 . S
C2096 C2115 1.429 . S
C2096 H2120 0.950 . S
C2097 C2114 1.574 . S
C2097 C2116 1.368 . S
C2097 H2121 0.949 . S
H2098 C2102 0.949 . S
C2099 C2100 1.349 . S
C2099 C2101 1.327 . S
C2099 H2122 0.950 . S
C2100 C2099 1.349 . S
C2100 C2112 1.349 . S
C2101 C2099 1.327 . S
C2101 C2117 1.429 . S
C2101 H2123 0.950 . S
C2102 H2098 0.949 . S
C2102 C2110 1.574 . S
C2102 C2118 1.368 . S
H2103 C2111 0.950 . S
H2104 C2109 0.950 . S
H2105 C2110 0.949 . S
H2106 C2112 0.950 . S
H2107 C2113 0.950 . S
H2108 C2114 0.949 . S
C2109 H2104 0.950 . S
C2109 C2111 1.327 . S
C2109 C2115 1.429 . S
C2110 C2102 1.574 . S
C2110 H2105 0.949 . S
C2110 C2116 1.368 . S
C2111 C2095 1.349 . S
C2111 H2103 0.950 . S
C2111 C2109 1.327 . S
C2112 C2100 1.349 . S
C2112 H2106 0.950 . S
C2112 C2113 1.327 . S
C2113 H2107 0.950 . S
C2113 C2112 1.327 . S
C2113 C2117 1.429 . S
C2114 C2097 1.574 . S
C2114 H2108 0.949 . S
C2114 C2118 1.368 . S
C2115 C2096 1.429 . S
C2115 C2109 1.429 . S
C2115 C2116 1.523 . S
C2116 C2097 1.368 . S
C2116 C2110 1.368 . S
C2116 C2115 1.523 . S
C2117 C2101 1.429 . S
C2117 C2113 1.429 . S
C2117 C2118 1.523 . S
C2118 C2102 1.368 . S
C2118 C2114 1.368 . S
C2118 C2117 1.523 . S
H2119 C2094 0.950 . S
H2120 C2096 0.950 . S
H2121 C2097 0.949 . S
H2122 C2099 0.950 . S
H2123 C2101 0.950 . S
C2124 C2125 1.349 . S
C2124 C2126 1.327 . S
C2124 H2149 0.950 . S
C2125 C2124 1.349 . S
C2125 C2141 1.349 . S
C2126 C2124 1.327 . S
C2126 C2145 1.429 . S
C2126 H2150 0.950 . S
C2127 C2144 1.574 1_455 S
C2127 C2146 1.368 . S
C2127 H2151 0.949 . S
H2128 C2132 0.949 . S
C2129 C2130 1.349 . S
C2129 C2131 1.327 . S
C2129 H2152 0.950 . S
C2130 C2129 1.349 . S
C2130 C2142 1.349 . S
C2131 C2129 1.327 . S
C2131 C2147 1.429 . S
C2131 H2153 0.950 . S
C2132 H2128 0.949 . S
C2132 C2140 1.574 1_655 S
C2132 C2148 1.368 . S
H2133 C2141 0.950 . S
H2134 C2139 0.950 . S
H2135 C2140 0.949 . S
H2136 C2142 0.950 . S
H2137 C2143 0.950 . S
H2138 C2144 0.949 . S
C2139 H2134 0.950 . S
C2139 C2141 1.327 . S
C2139 C2145 1.429 . S
C2140 C2132 1.574 1_455 S
C2140 H2135 0.949 . S
C2140 C2146 1.368 . S
C2141 C2125 1.349 . S
C2141 H2133 0.950 . S
C2141 C2139 1.327 . S
C2142 C2130 1.349 . S
C2142 H2136 0.950 . S
C2142 C2143 1.327 . S
C2143 H2137 0.950 . S
C2143 C2142 1.327 . S
C2143 C2147 1.429 . S
C2144 C2127 1.574 1_655 S
C2144 H2138 0.949 . S
C2144 C2148 1.368 . S
C2145 C2126 1.429 . S
C2145 C2139 1.429 . S
C2145 C2146 1.523 . S
C2146 C2127 1.368 . S
C2146 C2140 1.368 . S
C2146 C2145 1.523 . S
C2147 C2131 1.429 . S
C2147 C2143 1.429 . S
C2147 C2148 1.523 . S
C2148 C2132 1.368 . S
C2148 C2144 1.368 . S
C2148 C2147 1.523 . S
H2149 C2124 0.950 . S
H2150 C2126 0.950 . S
H2151 C2127 0.949 . S
H2152 C2129 0.950 . S
H2153 C2131 0.950 . S
C2154 C2155 1.349 . S
C2154 C2156 1.327 . S
C2154 H2179 0.950 . S
C2155 C2154 1.349 . S
C2155 C2171 1.349 . S
C2156 C2154 1.327 . S
C2156 C2175 1.429 . S
C2156 H2180 0.950 . S
C2157 C2174 1.574 . S
C2157 C2176 1.368 . S
C2157 H2181 0.949 . S
H2158 C2162 0.949 . S
C2159 C2160 1.349 . S
C2159 C2161 1.327 . S
C2159 H2182 0.950 . S
C2160 C2159 1.349 . S
C2160 C2172 1.349 . S
C2161 C2159 1.327 . S
C2161 C2177 1.429 . S
C2161 H2183 0.950 . S
C2162 H2158 0.949 . S
C2162 C2170 1.574 . S
C2162 C2178 1.368 . S
H2163 C2171 0.950 . S
H2164 C2169 0.950 . S
H2165 C2170 0.949 . S
H2166 C2172 0.950 . S
H2167 C2173 0.950 . S
H2168 C2174 0.949 . S
C2169 H2164 0.950 . S
C2169 C2171 1.327 . S
C2169 C2175 1.429 . S
C2170 C2162 1.574 . S
C2170 H2165 0.949 . S
C2170 C2176 1.368 . S
C2171 C2155 1.349 . S
C2171 H2163 0.950 . S
C2171 C2169 1.327 . S
C2172 C2160 1.349 . S
C2172 H2166 0.950 . S
C2172 C2173 1.327 . S
C2173 H2167 0.950 . S
C2173 C2172 1.327 . S
C2173 C2177 1.429 . S
C2174 C2157 1.574 . S
C2174 H2168 0.949 . S
C2174 C2178 1.368 . S
C2175 C2156 1.429 . S
C2175 C2169 1.429 . S
C2175 C2176 1.523 . S
C2176 C2157 1.368 . S
C2176 C2170 1.368 . S
C2176 C2175 1.523 . S
C2177 C2161 1.429 . S
C2177 C2173 1.429 . S
C2177 C2178 1.523 . S
C2178 C2162 1.368 . S
C2178 C2174 1.368 . S
C2178 C2177 1.523 . S
H2179 C2154 0.950 . S
H2180 C2156 0.950 . S
H2181 C2157 0.949 . S
H2182 C2159 0.950 . S
H2183 C2161 0.950 . S
C2184 C2185 1.349 . S
C2184 C2186 1.327 . S
C2184 H2209 0.950 . S
C2185 C2184 1.349 . S
C2185 C2201 1.349 . S
C2186 C2184 1.327 . S
C2186 C2205 1.429 . S
C2186 H2210 0.950 . S
C2187 C2204 1.574 1_655 S
C2187 C2206 1.368 . S
C2187 H2211 0.949 . S
H2188 C2192 0.949 . S
C2189 C2190 1.349 . S
C2189 C2191 1.327 . S
C2189 H2212 0.950 . S
C2190 C2189 1.349 . S
C2190 C2202 1.349 . S
C2191 C2189 1.327 . S
C2191 C2207 1.429 . S
C2191 H2213 0.950 . S
C2192 H2188 0.949 . S
C2192 C2200 1.574 1_455 S
C2192 C2208 1.368 . S
H2193 C2201 0.950 . S
H2194 C2199 0.950 . S
H2195 C2200 0.949 . S
H2196 C2202 0.950 . S
H2197 C2203 0.950 . S
H2198 C2204 0.949 . S
C2199 H2194 0.950 . S
C2199 C2201 1.327 . S
C2199 C2205 1.429 . S
C2200 C2192 1.574 1_655 S
C2200 H2195 0.949 . S
C2200 C2206 1.368 . S
C2201 C2185 1.349 . S
C2201 H2193 0.950 . S
C2201 C2199 1.327 . S
C2202 C2190 1.349 . S
C2202 H2196 0.950 . S
C2202 C2203 1.327 . S
C2203 H2197 0.950 . S
C2203 C2202 1.327 . S
C2203 C2207 1.429 . S
C2204 C2187 1.574 1_455 S
C2204 H2198 0.949 . S
C2204 C2208 1.368 . S
C2205 C2186 1.429 . S
C2205 C2199 1.429 . S
C2205 C2206 1.523 . S
C2206 C2187 1.368 . S
C2206 C2200 1.368 . S
C2206 C2205 1.523 . S
C2207 C2191 1.429 . S
C2207 C2203 1.429 . S
C2207 C2208 1.523 . S
C2208 C2192 1.368 . S
C2208 C2204 1.368 . S
C2208 C2207 1.523 . S
H2209 C2184 0.950 . S
H2210 C2186 0.950 . S
H2211 C2187 0.949 . S
H2212 C2189 0.950 . S
H2213 C2191 0.950 . S
C2214 C2215 1.349 . S
C2214 C2216 1.327 . S
C2214 H2239 0.950 . S
C2215 C2214 1.349 . S
C2215 C2231 1.349 . S
C2216 C2214 1.327 . S
C2216 C2235 1.429 . S
C2216 H2240 0.950 . S
C2217 C2234 1.574 . S
C2217 C2236 1.368 . S
C2217 H2241 0.949 . S
H2218 C2222 0.949 . S
C2219 C2220 1.349 . S
C2219 C2221 1.327 . S
C2219 H2242 0.950 . S
C2220 C2219 1.349 . S
C2220 C2232 1.349 . S
C2221 C2219 1.327 . S
C2221 C2237 1.429 . S
C2221 H2243 0.950 . S
C2222 H2218 0.949 . S
C2222 C2230 1.574 . S
C2222 C2238 1.368 . S
H2223 C2231 0.950 . S
H2224 C2229 0.950 . S
H2225 C2230 0.949 . S
H2226 C2232 0.950 . S
H2227 C2233 0.950 . S
H2228 C2234 0.949 . S
C2229 H2224 0.950 . S
C2229 C2231 1.327 . S
C2229 C2235 1.429 . S
C2230 C2222 1.574 . S
C2230 H2225 0.949 . S
C2230 C2236 1.368 . S
C2231 C2215 1.349 . S
C2231 H2223 0.950 . S
C2231 C2229 1.327 . S
C2232 C2220 1.349 . S
C2232 H2226 0.950 . S
C2232 C2233 1.327 . S
C2233 H2227 0.950 . S
C2233 C2232 1.327 . S
C2233 C2237 1.429 . S
C2234 C2217 1.574 . S
C2234 H2228 0.949 . S
C2234 C2238 1.368 . S
C2235 C2216 1.429 . S
C2235 C2229 1.429 . S
C2235 C2236 1.523 . S
C2236 C2217 1.368 . S
C2236 C2230 1.368 . S
C2236 C2235 1.523 . S
C2237 C2221 1.429 . S
C2237 C2233 1.429 . S
C2237 C2238 1.523 . S
C2238 C2222 1.368 . S
C2238 C2234 1.368 . S
C2238 C2237 1.523 . S
H2239 C2214 0.950 . S
H2240 C2216 0.950 . S
H2241 C2217 0.949 . S
H2242 C2219 0.950 . S
H2243 C2221 0.950 . S
C2244 C2245 1.349 . S
C2244 C2246 1.327 . S
C2244 H2269 0.950 . S
C2245 C2244 1.349 . S
C2245 C2261 1.349 . S
C2246 C2244 1.327 . S
C2246 C2265 1.429 . S
C2246 H2270 0.950 . S
C2247 C2264 1.574 1_655 S
C2247 C2266 1.368 . S
C2247 H2271 0.949 . S
H2248 C2252 0.949 . S
C2249 C2250 1.349 . S
C2249 C2251 1.327 . S
C2249 H2272 0.950 . S
C2250 C2249 1.349 . S
C2250 C2262 1.349 . S
C2251 C2249 1.327 . S
C2251 C2267 1.429 . S
C2251 H2273 0.950 . S
C2252 H2248 0.949 . S
C2252 C2260 1.574 1_455 S
C2252 C2268 1.368 . S
H2253 C2261 0.950 . S
H2254 C2259 0.950 . S
H2255 C2260 0.949 . S
H2256 C2262 0.950 . S
H2257 C2263 0.950 . S
H2258 C2264 0.949 . S
C2259 H2254 0.950 . S
C2259 C2261 1.327 . S
C2259 C2265 1.429 . S
C2260 C2252 1.574 1_655 S
C2260 H2255 0.949 . S
C2260 C2266 1.368 . S
C2261 C2245 1.349 . S
C2261 H2253 0.950 . S
C2261 C2259 1.327 . S
C2262 C2250 1.349 . S
C2262 H2256 0.950 . S
C2262 C2263 1.327 . S
C2263 H2257 0.950 . S
C2263 C2262 1.327 . S
C2263 C2267 1.429 . S
C2264 C2247 1.574 1_455 S
C2264 H2258 0.949 . S
C2264 C2268 1.368 . S
C2265 C2246 1.429 . S
C2265 C2259 1.429 . S
C2265 C2266 1.523 . S
C2266 C2247 1.368 . S
C2266 C2260 1.368 . S
C2266 C2265 1.523 . S
C2267 C2251 1.429 . S
C2267 C2263 1.429 . S
C2267 C2268 1.523 . S
C2268 C2252 1.368 . S
C2268 C2264 1.368 . S
C2268 C2267 1.523 . S
H2269 C2244 0.950 . S
H2270 C2246 0.950 . S
H2271 C2247 0.949 . S
H2272 C2249 0.950 . S
H2273 C2251 0.950 . S
C2274 C2275 1.349 . S
C2274 C2276 1.327 . S
C2274 H2299 0.950 . S
C2275 C2274 1.349 . S
C2275 C2291 1.349 . S
C2276 C2274 1.327 . S
C2276 C2295 1.429 . S
C2276 H2300 0.950 . S
C2277 C2294 1.574 . S
C2277 C2296 1.368 . S
C2277 H2301 0.949 . S
H2278 C2282 0.949 . S
C2279 C2280 1.349 . S
C2279 C2281 1.327 . S
C2279 H2302 0.950 . S
C2280 C2279 1.349 . S
C2280 C2292 1.349 . S
C2281 C2279 1.327 . S
C2281 C2297 1.429 . S
C2281 H2303 0.950 . S
C2282 H2278 0.949 . S
C2282 C2290 1.574 . S
C2282 C2298 1.368 . S
H2283 C2291 0.950 . S
H2284 C2289 0.950 . S
H2285 C2290 0.949 . S
H2286 C2292 0.950 . S
H2287 C2293 0.950 . S
H2288 C2294 0.949 . S
C2289 H2284 0.950 . S
C2289 C2291 1.327 . S
C2289 C2295 1.429 . S
C2290 C2282 1.574 . S
C2290 H2285 0.949 . S
C2290 C2296 1.368 . S
C2291 C2275 1.349 . S
C2291 H2283 0.950 . S
C2291 C2289 1.327 . S
C2292 C2280 1.349 . S
C2292 H2286 0.950 . S
C2292 C2293 1.327 . S
C2293 H2287 0.950 . S
C2293 C2292 1.327 . S
C2293 C2297 1.429 . S
C2294 C2277 1.574 . S
C2294 H2288 0.949 . S
C2294 C2298 1.368 . S
C2295 C2276 1.429 . S
C2295 C2289 1.429 . S
C2295 C2296 1.523 . S
C2296 C2277 1.368 . S
C2296 C2290 1.368 . S
C2296 C2295 1.523 . S
C2297 C2281 1.429 . S
C2297 C2293 1.429 . S
C2297 C2298 1.523 . S
C2298 C2282 1.368 . S
C2298 C2294 1.368 . S
C2298 C2297 1.523 . S
H2299 C2274 0.950 . S
H2300 C2276 0.950 . S
H2301 C2277 0.949 . S
H2302 C2279 0.950 . S
H2303 C2281 0.950 . S
C2304 C2305 1.349 . S
C2304 C2306 1.327 . S
C2304 H2329 0.950 . S
C2305 C2304 1.349 . S
C2305 C2321 1.349 . S
C2306 C2304 1.327 . S
C2306 C2325 1.429 . S
C2306 H2330 0.950 . S
C2307 C2324 1.574 1_545 S
C2307 C2326 1.368 . S
C2307 H2331 0.949 . S
H2308 C2312 0.949 . S
C2309 C2310 1.349 . S
C2309 C2311 1.327 . S
C2309 H2332 0.950 . S
C2310 C2309 1.349 . S
C2310 C2322 1.349 . S
C2311 C2309 1.327 . S
C2311 C2327 1.429 . S
C2311 H2333 0.950 . S
C2312 H2308 0.949 . S
C2312 C2320 1.574 1_565 S
C2312 C2328 1.368 . S
H2313 C2321 0.950 . S
H2314 C2319 0.950 . S
H2315 C2320 0.949 . S
H2316 C2322 0.950 . S
H2317 C2323 0.950 . S
H2318 C2324 0.949 . S
C2319 H2314 0.950 . S
C2319 C2321 1.327 . S
C2319 C2325 1.429 . S
C2320 C2312 1.574 1_545 S
C2320 H2315 0.949 . S
C2320 C2326 1.368 . S
C2321 C2305 1.349 . S
C2321 H2313 0.950 . S
C2321 C2319 1.327 . S
C2322 C2310 1.349 . S
C2322 H2316 0.950 . S
C2322 C2323 1.327 . S
C2323 H2317 0.950 . S
C2323 C2322 1.327 . S
C2323 C2327 1.429 . S
C2324 C2307 1.574 1_565 S
C2324 H2318 0.949 . S
C2324 C2328 1.368 . S
C2325 C2306 1.429 . S
C2325 C2319 1.429 . S
C2325 C2326 1.523 . S
C2326 C2307 1.368 . S
C2326 C2320 1.368 . S
C2326 C2325 1.523 . S
C2327 C2311 1.429 . S
C2327 C2323 1.429 . S
C2327 C2328 1.523 . S
C2328 C2312 1.368 . S
C2328 C2324 1.368 . S
C2328 C2327 1.523 . S
H2329 C2304 0.950 . S
H2330 C2306 0.950 . S
H2331 C2307 0.949 . S
H2332 C2309 0.950 . S
H2333 C2311 0.950 . S
C2334 C2335 1.349 . S
C2334 C2336 1.327 . S
C2334 H2359 0.950 . S
C2335 C2334 1.349 . S
C2335 C2351 1.349 . S
C2336 C2334 1.327 . S
C2336 C2355 1.429 . S
C2336 H2360 0.950 . S
C2337 C2354 1.574 . S
C2337 C2356 1.368 . S
C2337 H2361 0.949 . S
H2338 C2342 0.949 . S
C2339 C2340 1.349 . S
C2339 C2341 1.327 . S
C2339 H2362 0.950 . S
C2340 C2339 1.349 . S
C2340 C2352 1.349 . S
C2341 C2339 1.327 . S
C2341 C2357 1.429 . S
C2341 H2363 0.950 . S
C2342 H2338 0.949 . S
C2342 C2350 1.574 . S
C2342 C2358 1.368 . S
H2343 C2351 0.950 . S
H2344 C2349 0.950 . S
H2345 C2350 0.949 . S
H2346 C2352 0.950 . S
H2347 C2353 0.950 . S
H2348 C2354 0.949 . S
C2349 H2344 0.950 . S
C2349 C2351 1.327 . S
C2349 C2355 1.429 . S
C2350 C2342 1.574 . S
C2350 H2345 0.949 . S
C2350 C2356 1.368 . S
C2351 C2335 1.349 . S
C2351 H2343 0.950 . S
C2351 C2349 1.327 . S
C2352 C2340 1.349 . S
C2352 H2346 0.950 . S
C2352 C2353 1.327 . S
C2353 H2347 0.950 . S
C2353 C2352 1.327 . S
C2353 C2357 1.429 . S
C2354 C2337 1.574 . S
C2354 H2348 0.949 . S
C2354 C2358 1.368 . S
C2355 C2336 1.429 . S
C2355 C2349 1.429 . S
C2355 C2356 1.523 . S
C2356 C2337 1.368 . S
C2356 C2350 1.368 . S
C2356 C2355 1.523 . S
C2357 C2341 1.429 . S
C2357 C2353 1.429 . S
C2357 C2358 1.523 . S
C2358 C2342 1.368 . S
C2358 C2354 1.368 . S
C2358 C2357 1.523 . S
H2359 C2334 0.950 . S
H2360 C2336 0.950 . S
H2361 C2337 0.949 . S
H2362 C2339 0.950 . S
H2363 C2341 0.950 . S
C2364 C2365 1.349 . S
C2364 C2366 1.327 . S
C2364 H2389 0.950 . S
C2365 C2364 1.349 . S
C2365 C2381 1.349 . S
C2366 C2364 1.327 . S
C2366 C2385 1.429 . S
C2366 H2390 0.950 . S
C2367 C2384 1.574 1_545 S
C2367 C2386 1.368 . S
C2367 H2391 0.949 . S
H2368 C2372 0.949 . S
C2369 C2370 1.349 . S
C2369 C2371 1.327 . S
C2369 H2392 0.950 . S
C2370 C2369 1.349 . S
C2370 C2382 1.349 . S
C2371 C2369 1.327 . S
C2371 C2387 1.429 . S
C2371 H2393 0.950 . S
C2372 H2368 0.949 . S
C2372 C2380 1.574 1_565 S
C2372 C2388 1.368 . S
H2373 C2381 0.950 . S
H2374 C2379 0.950 . S
H2375 C2380 0.949 . S
H2376 C2382 0.950 . S
H2377 C2383 0.950 . S
H2378 C2384 0.949 . S
C2379 H2374 0.950 . S
C2379 C2381 1.327 . S
C2379 C2385 1.429 . S
C2380 C2372 1.574 1_545 S
C2380 H2375 0.949 . S
C2380 C2386 1.368 . S
C2381 C2365 1.349 . S
C2381 H2373 0.950 . S
C2381 C2379 1.327 . S
C2382 C2370 1.349 . S
C2382 H2376 0.950 . S
C2382 C2383 1.327 . S
C2383 H2377 0.950 . S
C2383 C2382 1.327 . S
C2383 C2387 1.429 . S
C2384 C2367 1.574 1_565 S
C2384 H2378 0.949 . S
C2384 C2388 1.368 . S
C2385 C2366 1.429 . S
C2385 C2379 1.429 . S
C2385 C2386 1.523 . S
C2386 C2367 1.368 . S
C2386 C2380 1.368 . S
C2386 C2385 1.523 . S
C2387 C2371 1.429 . S
C2387 C2383 1.429 . S
C2387 C2388 1.523 . S
C2388 C2372 1.368 . S
C2388 C2384 1.368 . S
C2388 C2387 1.523 . S
H2389 C2364 0.950 . S
H2390 C2366 0.950 . S
H2391 C2367 0.949 . S
H2392 C2369 0.950 . S
H2393 C2371 0.950 . S
C2394 C2395 1.349 . S
C2394 C2396 1.327 . S
C2394 H2419 0.950 . S
C2395 C2394 1.349 . S
C2395 C2411 1.349 . S
C2396 C2394 1.327 . S
C2396 C2415 1.429 . S
C2396 H2420 0.950 . S
C2397 C2414 1.574 . S
C2397 C2416 1.368 . S
C2397 H2421 0.949 . S
H2398 C2402 0.949 . S
C2399 C2400 1.349 . S
C2399 C2401 1.327 . S
C2399 H2422 0.950 . S
C2400 C2399 1.349 . S
C2400 C2412 1.349 . S
C2401 C2399 1.327 . S
C2401 C2417 1.429 . S
C2401 H2423 0.950 . S
C2402 H2398 0.949 . S
C2402 C2410 1.574 . S
C2402 C2418 1.368 . S
H2403 C2411 0.950 . S
H2404 C2409 0.950 . S
H2405 C2410 0.949 . S
H2406 C2412 0.950 . S
H2407 C2413 0.950 . S
H2408 C2414 0.949 . S
C2409 H2404 0.950 . S
C2409 C2411 1.327 . S
C2409 C2415 1.429 . S
C2410 C2402 1.574 . S
C2410 H2405 0.949 . S
C2410 C2416 1.368 . S
C2411 C2395 1.349 . S
C2411 H2403 0.950 . S
C2411 C2409 1.327 . S
C2412 C2400 1.349 . S
C2412 H2406 0.950 . S
C2412 C2413 1.327 . S
C2413 H2407 0.950 . S
C2413 C2412 1.327 . S
C2413 C2417 1.429 . S
C2414 C2397 1.574 . S
C2414 H2408 0.949 . S
C2414 C2418 1.368 . S
C2415 C2396 1.429 . S
C2415 C2409 1.429 . S
C2415 C2416 1.523 . S
C2416 C2397 1.368 . S
C2416 C2410 1.368 . S
C2416 C2415 1.523 . S
C2417 C2401 1.429 . S
C2417 C2413 1.429 . S
C2417 C2418 1.523 . S
C2418 C2402 1.368 . S
C2418 C2414 1.368 . S
C2418 C2417 1.523 . S
H2419 C2394 0.950 . S
H2420 C2396 0.950 . S
H2421 C2397 0.949 . S
H2422 C2399 0.950 . S
H2423 C2401 0.950 . S
C2424 C2425 1.349 . S
C2424 C2426 1.327 . S
C2424 H2449 0.950 . S
C2425 C2424 1.349 . S
C2425 C2441 1.349 . S
C2426 C2424 1.327 . S
C2426 C2445 1.429 . S
C2426 H2450 0.950 . S
C2427 C2444 1.574 1_545 S
C2427 C2446 1.368 . S
C2427 H2451 0.949 . S
H2428 C2432 0.949 . S
C2429 C2430 1.349 . S
C2429 C2431 1.327 . S
C2429 H2452 0.950 . S
C2430 C2429 1.349 . S
C2430 C2442 1.349 . S
C2431 C2429 1.327 . S
C2431 C2447 1.429 . S
C2431 H2453 0.950 . S
C2432 H2428 0.949 . S
C2432 C2440 1.574 1_565 S
C2432 C2448 1.368 . S
H2433 C2441 0.950 . S
H2434 C2439 0.950 . S
H2435 C2440 0.949 . S
H2436 C2442 0.950 . S
H2437 C2443 0.950 . S
H2438 C2444 0.949 . S
C2439 H2434 0.950 . S
C2439 C2441 1.327 . S
C2439 C2445 1.429 . S
C2440 C2432 1.574 1_545 S
C2440 H2435 0.949 . S
C2440 C2446 1.368 . S
C2441 C2425 1.349 . S
C2441 H2433 0.950 . S
C2441 C2439 1.327 . S
C2442 C2430 1.349 . S
C2442 H2436 0.950 . S
C2442 C2443 1.327 . S
C2443 H2437 0.950 . S
C2443 C2442 1.327 . S
C2443 C2447 1.429 . S
C2444 C2427 1.574 1_565 S
C2444 H2438 0.949 . S
C2444 C2448 1.368 . S
C2445 C2426 1.429 . S
C2445 C2439 1.429 . S
C2445 C2446 1.523 . S
C2446 C2427 1.368 . S
C2446 C2440 1.368 . S
C2446 C2445 1.523 . S
C2447 C2431 1.429 . S
C2447 C2443 1.429 . S
C2447 C2448 1.523 . S
C2448 C2432 1.368 . S
C2448 C2444 1.368 . S
C2448 C2447 1.523 . S
H2449 C2424 0.950 . S
H2450 C2426 0.950 . S
H2451 C2427 0.949 . S
H2452 C2429 0.950 . S
H2453 C2431 0.950 . S
C2454 C2455 1.349 . S
C2454 C2456 1.327 . S
C2454 H2479 0.950 . S
C2455 C2454 1.349 . S
C2455 C2471 1.349 . S
C2456 C2454 1.327 . S
C2456 C2475 1.429 . S
C2456 H2480 0.950 . S
C2457 C2474 1.574 . S
C2457 C2476 1.368 . S
C2457 H2481 0.949 . S
H2458 C2462 0.949 . S
C2459 C2460 1.349 . S
C2459 C2461 1.327 . S
C2459 H2482 0.950 . S
C2460 C2459 1.349 . S
C2460 C2472 1.349 . S
C2461 C2459 1.327 . S
C2461 C2477 1.429 . S
C2461 H2483 0.950 . S
C2462 H2458 0.949 . S
C2462 C2470 1.574 . S
C2462 C2478 1.368 . S
H2463 C2471 0.950 . S
H2464 C2469 0.950 . S
H2465 C2470 0.949 . S
H2466 C2472 0.950 . S
H2467 C2473 0.950 . S
H2468 C2474 0.949 . S
C2469 H2464 0.950 . S
C2469 C2471 1.327 . S
C2469 C2475 1.429 . S
C2470 C2462 1.574 . S
C2470 H2465 0.949 . S
C2470 C2476 1.368 . S
C2471 C2455 1.349 . S
C2471 H2463 0.950 . S
C2471 C2469 1.327 . S
C2472 C2460 1.349 . S
C2472 H2466 0.950 . S
C2472 C2473 1.327 . S
C2473 H2467 0.950 . S
C2473 C2472 1.327 . S
C2473 C2477 1.429 . S
C2474 C2457 1.574 . S
C2474 H2468 0.949 . S
C2474 C2478 1.368 . S
C2475 C2456 1.429 . S
C2475 C2469 1.429 . S
C2475 C2476 1.523 . S
C2476 C2457 1.368 . S
C2476 C2470 1.368 . S
C2476 C2475 1.523 . S
C2477 C2461 1.429 . S
C2477 C2473 1.429 . S
C2477 C2478 1.523 . S
C2478 C2462 1.368 . S
C2478 C2474 1.368 . S
C2478 C2477 1.523 . S
H2479 C2454 0.950 . S
H2480 C2456 0.950 . S
H2481 C2457 0.949 . S
H2482 C2459 0.950 . S
H2483 C2461 0.950 . S
C2484 C2485 1.349 . S
C2484 C2486 1.327 . S
C2484 H2509 0.950 . S
C2485 C2484 1.349 . S
C2485 C2501 1.349 . S
C2486 C2484 1.327 . S
C2486 C2505 1.429 . S
C2486 H2510 0.950 . S
C2487 C2504 1.574 1_545 S
C2487 C2506 1.368 . S
C2487 H2511 0.949 . S
H2488 C2492 0.949 . S
C2489 C2490 1.349 . S
C2489 C2491 1.327 . S
C2489 H2512 0.950 . S
C2490 C2489 1.349 . S
C2490 C2502 1.349 . S
C2491 C2489 1.327 . S
C2491 C2507 1.429 . S
C2491 H2513 0.950 . S
C2492 H2488 0.949 . S
C2492 C2500 1.574 1_565 S
C2492 C2508 1.368 . S
H2493 C2501 0.950 . S
H2494 C2499 0.950 . S
H2495 C2500 0.949 . S
H2496 C2502 0.950 . S
H2497 C2503 0.950 . S
H2498 C2504 0.949 . S
C2499 H2494 0.950 . S
C2499 C2501 1.327 . S
C2499 C2505 1.429 . S
C2500 C2492 1.574 1_545 S
C2500 H2495 0.949 . S
C2500 C2506 1.368 . S
C2501 C2485 1.349 . S
C2501 H2493 0.950 . S
C2501 C2499 1.327 . S
C2502 C2490 1.349 . S
C2502 H2496 0.950 . S
C2502 C2503 1.327 . S
C2503 H2497 0.950 . S
C2503 C2502 1.327 . S
C2503 C2507 1.429 . S
C2504 C2487 1.574 1_565 S
C2504 H2498 0.949 . S
C2504 C2508 1.368 . S
C2505 C2486 1.429 . S
C2505 C2499 1.429 . S
C2505 C2506 1.523 . S
C2506 C2487 1.368 . S
C2506 C2500 1.368 . S
C2506 C2505 1.523 . S
C2507 C2491 1.429 . S
C2507 C2503 1.429 . S
C2507 C2508 1.523 . S
C2508 C2492 1.368 . S
C2508 C2504 1.368 . S
C2508 C2507 1.523 . S
H2509 C2484 0.950 . S
H2510 C2486 0.950 . S
H2511 C2487 0.949 . S
H2512 C2489 0.950 . S
H2513 C2491 0.950 . S
C2514 C2515 1.349 . S
C2514 C2516 1.327 . S
C2514 H2539 0.950 . S
C2515 C2514 1.349 . S
C2515 C2531 1.349 . S
C2516 C2514 1.327 . S
C2516 C2535 1.429 . S
C2516 H2540 0.950 . S
C2517 C2534 1.574 . S
C2517 C2536 1.368 . S
C2517 H2541 0.949 . S
H2518 C2522 0.949 . S
C2519 C2520 1.349 . S
C2519 C2521 1.327 . S
C2519 H2542 0.950 . S
C2520 C2519 1.349 . S
C2520 C2532 1.349 . S
C2521 C2519 1.327 . S
C2521 C2537 1.429 . S
C2521 H2543 0.950 . S
C2522 H2518 0.949 . S
C2522 C2530 1.574 . S
C2522 C2538 1.368 . S
H2523 C2531 0.950 . S
H2524 C2529 0.950 . S
H2525 C2530 0.949 . S
H2526 C2532 0.950 . S
H2527 C2533 0.950 . S
H2528 C2534 0.949 . S
C2529 H2524 0.950 . S
C2529 C2531 1.327 . S
C2529 C2535 1.429 . S
C2530 C2522 1.574 . S
C2530 H2525 0.949 . S
C2530 C2536 1.368 . S
C2531 C2515 1.349 . S
C2531 H2523 0.950 . S
C2531 C2529 1.327 . S
C2532 C2520 1.349 . S
C2532 H2526 0.950 . S
C2532 C2533 1.327 . S
C2533 H2527 0.950 . S
C2533 C2532 1.327 . S
C2533 C2537 1.429 . S
C2534 C2517 1.574 . S
C2534 H2528 0.949 . S
C2534 C2538 1.368 . S
C2535 C2516 1.429 . S
C2535 C2529 1.429 . S
C2535 C2536 1.523 . S
C2536 C2517 1.368 . S
C2536 C2530 1.368 . S
C2536 C2535 1.523 . S
C2537 C2521 1.429 . S
C2537 C2533 1.429 . S
C2537 C2538 1.523 . S
C2538 C2522 1.368 . S
C2538 C2534 1.368 . S
C2538 C2537 1.523 . S
H2539 C2514 0.950 . S
H2540 C2516 0.950 . S
H2541 C2517 0.949 . S
H2542 C2519 0.950 . S
H2543 C2521 0.950 . S
C2544 C2545 1.349 . S
C2544 C2546 1.327 . S
C2544 H2569 0.950 . S
C2545 C2544 1.349 . S
C2545 C2561 1.349 . S
C2546 C2544 1.327 . S
C2546 C2565 1.429 . S
C2546 H2570 0.950 . S
C2547 C2564 1.574 1_556 S
C2547 C2566 1.368 . S
C2547 H2571 0.949 . S
H2548 C2552 0.949 . S
C2549 C2550 1.349 . S
C2549 C2551 1.327 . S
C2549 H2572 0.950 . S
C2550 C2549 1.349 . S
C2550 C2562 1.349 . S
C2551 C2549 1.327 . S
C2551 C2567 1.429 . S
C2551 H2573 0.950 . S
C2552 H2548 0.949 . S
C2552 C2560 1.574 1_554 S
C2552 C2568 1.368 . S
H2553 C2561 0.950 . S
H2554 C2559 0.950 . S
H2555 C2560 0.949 . S
H2556 C2562 0.950 . S
H2557 C2563 0.950 . S
H2558 C2564 0.949 . S
C2559 H2554 0.950 . S
C2559 C2561 1.327 . S
C2559 C2565 1.429 . S
C2560 C2552 1.574 1_556 S
C2560 H2555 0.949 . S
C2560 C2566 1.368 . S
C2561 C2545 1.349 . S
C2561 H2553 0.950 . S
C2561 C2559 1.327 . S
C2562 C2550 1.349 . S
C2562 H2556 0.950 . S
C2562 C2563 1.327 . S
C2563 H2557 0.950 . S
C2563 C2562 1.327 . S
C2563 C2567 1.429 . S
C2564 C2547 1.574 1_554 S
C2564 H2558 0.949 . S
C2564 C2568 1.368 . S
C2565 C2546 1.429 . S
C2565 C2559 1.429 . S
C2565 C2566 1.523 . S
C2566 C2547 1.368 . S
C2566 C2560 1.368 . S
C2566 C2565 1.523 . S
C2567 C2551 1.429 . S
C2567 C2563 1.429 . S
C2567 C2568 1.523 . S
C2568 C2552 1.368 . S
C2568 C2564 1.368 . S
C2568 C2567 1.523 . S
H2569 C2544 0.950 . S
H2570 C2546 0.950 . S
H2571 C2547 0.949 . S
H2572 C2549 0.950 . S
H2573 C2551 0.950 . S
C2574 C2575 1.349 . S
C2574 C2576 1.327 . S
C2574 H2599 0.950 . S
C2575 C2574 1.349 . S
C2575 C2591 1.349 . S
C2576 C2574 1.327 . S
C2576 C2595 1.429 . S
C2576 H2600 0.950 . S
C2577 C2594 1.574 1_556 S
C2577 C2596 1.368 . S
C2577 H2601 0.949 . S
H2578 C2582 0.949 . S
C2579 C2580 1.349 . S
C2579 C2581 1.327 . S
C2579 H2602 0.950 . S
C2580 C2579 1.349 . S
C2580 C2592 1.349 . S
C2581 C2579 1.327 . S
C2581 C2597 1.429 . S
C2581 H2603 0.950 . S
C2582 H2578 0.949 . S
C2582 C2590 1.574 1_554 S
C2582 C2598 1.368 . S
H2583 C2591 0.950 . S
H2584 C2589 0.950 . S
H2585 C2590 0.949 . S
H2586 C2592 0.950 . S
H2587 C2593 0.950 . S
H2588 C2594 0.949 . S
C2589 H2584 0.950 . S
C2589 C2591 1.327 . S
C2589 C2595 1.429 . S
C2590 C2582 1.574 1_556 S
C2590 H2585 0.949 . S
C2590 C2596 1.368 . S
C2591 C2575 1.349 . S
C2591 H2583 0.950 . S
C2591 C2589 1.327 . S
C2592 C2580 1.349 . S
C2592 H2586 0.950 . S
C2592 C2593 1.327 . S
C2593 H2587 0.950 . S
C2593 C2592 1.327 . S
C2593 C2597 1.429 . S
C2594 C2577 1.574 1_554 S
C2594 H2588 0.949 . S
C2594 C2598 1.368 . S
C2595 C2576 1.429 . S
C2595 C2589 1.429 . S
C2595 C2596 1.523 . S
C2596 C2577 1.368 . S
C2596 C2590 1.368 . S
C2596 C2595 1.523 . S
C2597 C2581 1.429 . S
C2597 C2593 1.429 . S
C2597 C2598 1.523 . S
C2598 C2582 1.368 . S
C2598 C2594 1.368 . S
C2598 C2597 1.523 . S
H2599 C2574 0.950 . S
H2600 C2576 0.950 . S
H2601 C2577 0.949 . S
H2602 C2579 0.950 . S
H2603 C2581 0.950 . S
C2604 C2605 1.349 . S
C2604 C2606 1.327 . S
C2604 H2629 0.950 . S
C2605 C2604 1.349 . S
C2605 C2621 1.349 . S
C2606 C2604 1.327 . S
C2606 C2625 1.429 . S
C2606 H2630 0.950 . S
C2607 C2624 1.574 . S
C2607 C2626 1.368 . S
C2607 H2631 0.949 . S
H2608 C2612 0.949 . S
C2609 C2610 1.349 . S
C2609 C2611 1.327 . S
C2609 H2632 0.950 . S
C2610 C2609 1.349 . S
C2610 C2622 1.349 . S
C2611 C2609 1.327 . S
C2611 C2627 1.429 . S
C2611 H2633 0.950 . S
C2612 H2608 0.949 . S
C2612 C2620 1.574 . S
C2612 C2628 1.368 . S
H2613 C2621 0.950 . S
H2614 C2619 0.950 . S
H2615 C2620 0.949 . S
H2616 C2622 0.950 . S
H2617 C2623 0.950 . S
H2618 C2624 0.949 . S
C2619 H2614 0.950 . S
C2619 C2621 1.327 . S
C2619 C2625 1.429 . S
C2620 C2612 1.574 . S
C2620 H2615 0.949 . S
C2620 C2626 1.368 . S
C2621 C2605 1.349 . S
C2621 H2613 0.950 . S
C2621 C2619 1.327 . S
C2622 C2610 1.349 . S
C2622 H2616 0.950 . S
C2622 C2623 1.327 . S
C2623 H2617 0.950 . S
C2623 C2622 1.327 . S
C2623 C2627 1.429 . S
C2624 C2607 1.574 . S
C2624 H2618 0.949 . S
C2624 C2628 1.368 . S
C2625 C2606 1.429 . S
C2625 C2619 1.429 . S
C2625 C2626 1.523 . S
C2626 C2607 1.368 . S
C2626 C2620 1.368 . S
C2626 C2625 1.523 . S
C2627 C2611 1.429 . S
C2627 C2623 1.429 . S
C2627 C2628 1.523 . S
C2628 C2612 1.368 . S
C2628 C2624 1.368 . S
C2628 C2627 1.523 . S
H2629 C2604 0.950 . S
H2630 C2606 0.950 . S
H2631 C2607 0.949 . S
H2632 C2609 0.950 . S
H2633 C2611 0.950 . S
C2634 C2635 1.349 . S
C2634 C2636 1.327 . S
C2634 H2659 0.950 . S
C2635 C2634 1.349 . S
C2635 C2651 1.349 . S
C2636 C2634 1.327 . S
C2636 C2655 1.429 . S
C2636 H2660 0.950 . S
C2637 C2654 1.574 1_556 S
C2637 C2656 1.368 . S
C2637 H2661 0.949 . S
H2638 C2642 0.949 . S
C2639 C2640 1.349 . S
C2639 C2641 1.327 . S
C2639 H2662 0.950 . S
C2640 C2639 1.349 . S
C2640 C2652 1.349 . S
C2641 C2639 1.327 . S
C2641 C2657 1.429 . S
C2641 H2663 0.950 . S
C2642 H2638 0.949 . S
C2642 C2650 1.574 1_554 S
C2642 C2658 1.368 . S
H2643 C2651 0.950 . S
H2644 C2649 0.950 . S
H2645 C2650 0.949 . S
H2646 C2652 0.950 . S
H2647 C2653 0.950 . S
H2648 C2654 0.949 . S
C2649 H2644 0.950 . S
C2649 C2651 1.327 . S
C2649 C2655 1.429 . S
C2650 C2642 1.574 1_556 S
C2650 H2645 0.949 . S
C2650 C2656 1.368 . S
C2651 C2635 1.349 . S
C2651 H2643 0.950 . S
C2651 C2649 1.327 . S
C2652 C2640 1.349 . S
C2652 H2646 0.950 . S
C2652 C2653 1.327 . S
C2653 H2647 0.950 . S
C2653 C2652 1.327 . S
C2653 C2657 1.429 . S
C2654 C2637 1.574 1_554 S
C2654 H2648 0.949 . S
C2654 C2658 1.368 . S
C2655 C2636 1.429 . S
C2655 C2649 1.429 . S
C2655 C2656 1.523 . S
C2656 C2637 1.368 . S
C2656 C2650 1.368 . S
C2656 C2655 1.523 . S
C2657 C2641 1.429 . S
C2657 C2653 1.429 . S
C2657 C2658 1.523 . S
C2658 C2642 1.368 . S
C2658 C2654 1.368 . S
C2658 C2657 1.523 . S
H2659 C2634 0.950 . S
H2660 C2636 0.950 . S
H2661 C2637 0.949 . S
H2662 C2639 0.950 . S
H2663 C2641 0.950 . S
C2664 C2665 1.349 . S
C2664 C2666 1.327 . S
C2664 H2689 0.950 . S
C2665 C2664 1.349 . S
C2665 C2681 1.349 . S
C2666 C2664 1.327 . S
C2666 C2685 1.429 . S
C2666 H2690 0.950 . S
C2667 C2684 1.574 . S
C2667 C2686 1.368 . S
C2667 H2691 0.949 . S
H2668 C2672 0.949 . S
C2669 C2670 1.349 . S
C2669 C2671 1.327 . S
C2669 H2692 0.950 . S
C2670 C2669 1.349 . S
C2670 C2682 1.349 . S
C2671 C2669 1.327 . S
C2671 C2687 1.429 . S
C2671 H2693 0.950 . S
C2672 H2668 0.949 . S
C2672 C2680 1.574 . S
C2672 C2688 1.368 . S
H2673 C2681 0.950 . S
H2674 C2679 0.950 . S
H2675 C2680 0.949 . S
H2676 C2682 0.950 . S
H2677 C2683 0.950 . S
H2678 C2684 0.949 . S
C2679 H2674 0.950 . S
C2679 C2681 1.327 . S
C2679 C2685 1.429 . S
C2680 C2672 1.574 . S
C2680 H2675 0.949 . S
C2680 C2686 1.368 . S
C2681 C2665 1.349 . S
C2681 H2673 0.950 . S
C2681 C2679 1.327 . S
C2682 C2670 1.349 . S
C2682 H2676 0.950 . S
C2682 C2683 1.327 . S
C2683 H2677 0.950 . S
C2683 C2682 1.327 . S
C2683 C2687 1.429 . S
C2684 C2667 1.574 . S
C2684 H2678 0.949 . S
C2684 C2688 1.368 . S
C2685 C2666 1.429 . S
C2685 C2679 1.429 . S
C2685 C2686 1.523 . S
C2686 C2667 1.368 . S
C2686 C2680 1.368 . S
C2686 C2685 1.523 . S
C2687 C2671 1.429 . S
C2687 C2683 1.429 . S
C2687 C2688 1.523 . S
C2688 C2672 1.368 . S
C2688 C2684 1.368 . S
C2688 C2687 1.523 . S
H2689 C2664 0.950 . S
H2690 C2666 0.950 . S
H2691 C2667 0.949 . S
H2692 C2669 0.950 . S
H2693 C2671 0.950 . S
C2694 C2695 1.349 . S
C2694 C2696 1.327 . S
C2694 H2719 0.950 . S
C2695 C2694 1.349 . S
C2695 C2711 1.349 . S
C2696 C2694 1.327 . S
C2696 C2715 1.429 . S
C2696 H2720 0.950 . S
C2697 C2714 1.574 1_556 S
C2697 C2716 1.368 . S
C2697 H2721 0.949 . S
H2698 C2702 0.949 . S
C2699 C2700 1.349 . S
C2699 C2701 1.327 . S
C2699 H2722 0.950 . S
C2700 C2699 1.349 . S
C2700 C2712 1.349 . S
C2701 C2699 1.327 . S
C2701 C2717 1.429 . S
C2701 H2723 0.950 . S
C2702 H2698 0.949 . S
C2702 C2710 1.574 1_554 S
C2702 C2718 1.368 . S
H2703 C2711 0.950 . S
H2704 C2709 0.950 . S
H2705 C2710 0.949 . S
H2706 C2712 0.950 . S
H2707 C2713 0.950 . S
H2708 C2714 0.949 . S
C2709 H2704 0.950 . S
C2709 C2711 1.327 . S
C2709 C2715 1.429 . S
C2710 C2702 1.574 1_556 S
C2710 H2705 0.949 . S
C2710 C2716 1.368 . S
C2711 C2695 1.349 . S
C2711 H2703 0.950 . S
C2711 C2709 1.327 . S
C2712 C2700 1.349 . S
C2712 H2706 0.950 . S
C2712 C2713 1.327 . S
C2713 H2707 0.950 . S
C2713 C2712 1.327 . S
C2713 C2717 1.429 . S
C2714 C2697 1.574 1_554 S
C2714 H2708 0.949 . S
C2714 C2718 1.368 . S
C2715 C2696 1.429 . S
C2715 C2709 1.429 . S
C2715 C2716 1.523 . S
C2716 C2697 1.368 . S
C2716 C2710 1.368 . S
C2716 C2715 1.523 . S
C2717 C2701 1.429 . S
C2717 C2713 1.429 . S
C2717 C2718 1.523 . S
C2718 C2702 1.368 . S
C2718 C2714 1.368 . S
C2718 C2717 1.523 . S
H2719 C2694 0.950 . S
H2720 C2696 0.950 . S
H2721 C2697 0.949 . S
H2722 C2699 0.950 . S
H2723 C2701 0.950 . S
C2724 C2725 1.349 . S
C2724 C2726 1.327 . S
C2724 H2749 0.950 . S
C2725 C2724 1.349 . S
C2725 C2741 1.349 . S
C2726 C2724 1.327 . S
C2726 C2745 1.429 . S
C2726 H2750 0.950 . S
C2727 C2744 1.574 . S
C2727 C2746 1.368 . S
C2727 H2751 0.949 . S
H2728 C2732 0.949 . S
C2729 C2730 1.349 . S
C2729 C2731 1.327 . S
C2729 H2752 0.950 . S
C2730 C2729 1.349 . S
C2730 C2742 1.349 . S
C2731 C2729 1.327 . S
C2731 C2747 1.429 . S
C2731 H2753 0.950 . S
C2732 H2728 0.949 . S
C2732 C2740 1.574 . S
C2732 C2748 1.368 . S
H2733 C2741 0.950 . S
H2734 C2739 0.950 . S
H2735 C2740 0.949 . S
H2736 C2742 0.950 . S
H2737 C2743 0.950 . S
H2738 C2744 0.949 . S
C2739 H2734 0.950 . S
C2739 C2741 1.327 . S
C2739 C2745 1.429 . S
C2740 C2732 1.574 . S
C2740 H2735 0.949 . S
C2740 C2746 1.368 . S
C2741 C2725 1.349 . S
C2741 H2733 0.950 . S
C2741 C2739 1.327 . S
C2742 C2730 1.349 . S
C2742 H2736 0.950 . S
C2742 C2743 1.327 . S
C2743 H2737 0.950 . S
C2743 C2742 1.327 . S
C2743 C2747 1.429 . S
C2744 C2727 1.574 . S
C2744 H2738 0.949 . S
C2744 C2748 1.368 . S
C2745 C2726 1.429 . S
C2745 C2739 1.429 . S
C2745 C2746 1.523 . S
C2746 C2727 1.368 . S
C2746 C2740 1.368 . S
C2746 C2745 1.523 . S
C2747 C2731 1.429 . S
C2747 C2743 1.429 . S
C2747 C2748 1.523 . S
C2748 C2732 1.368 . S
C2748 C2744 1.368 . S
C2748 C2747 1.523 . S
H2749 C2724 0.950 . S
H2750 C2726 0.950 . S
H2751 C2727 0.949 . S
H2752 C2729 0.950 . S
H2753 C2731 0.950 . S
C2754 C2755 1.349 . S
C2754 C2756 1.327 . S
C2754 H2779 0.950 . S
C2755 C2754 1.349 . S
C2755 C2771 1.349 . S
C2756 C2754 1.327 . S
C2756 C2775 1.429 . S
C2756 H2780 0.950 . S
C2757 C2774 1.574 . S
C2757 C2776 1.368 . S
C2757 H2781 0.949 . S
H2758 C2762 0.949 . S
C2759 C2760 1.349 . S
C2759 C2761 1.327 . S
C2759 H2782 0.950 . S
C2760 C2759 1.349 . S
C2760 C2772 1.349 . S
C2761 C2759 1.327 . S
C2761 C2777 1.429 . S
C2761 H2783 0.950 . S
C2762 H2758 0.949 . S
C2762 C2770 1.574 . S
C2762 C2778 1.368 . S
H2763 C2771 0.950 . S
H2764 C2769 0.950 . S
H2765 C2770 0.949 . S
H2766 C2772 0.950 . S
H2767 C2773 0.950 . S
H2768 C2774 0.949 . S
C2769 H2764 0.950 . S
C2769 C2771 1.327 . S
C2769 C2775 1.429 . S
C2770 C2762 1.574 . S
C2770 H2765 0.949 . S
C2770 C2776 1.368 . S
C2771 C2755 1.349 . S
C2771 H2763 0.950 . S
C2771 C2769 1.327 . S
C2772 C2760 1.349 . S
C2772 H2766 0.950 . S
C2772 C2773 1.327 . S
C2773 H2767 0.950 . S
C2773 C2772 1.327 . S
C2773 C2777 1.429 . S
C2774 C2757 1.574 . S
C2774 H2768 0.949 . S
C2774 C2778 1.368 . S
C2775 C2756 1.429 . S
C2775 C2769 1.429 . S
C2775 C2776 1.523 . S
C2776 C2757 1.368 . S
C2776 C2770 1.368 . S
C2776 C2775 1.523 . S
C2777 C2761 1.429 . S
C2777 C2773 1.429 . S
C2777 C2778 1.523 . S
C2778 C2762 1.368 . S
C2778 C2774 1.368 . S
C2778 C2777 1.523 . S
H2779 C2754 0.950 . S
H2780 C2756 0.950 . S
H2781 C2757 0.949 . S
H2782 C2759 0.950 . S
H2783 C2761 0.950 . S
C2784 C2785 1.349 . S
C2784 C2786 1.327 . S
C2784 H2809 0.950 . S
C2785 C2784 1.349 . S
C2785 C2801 1.349 . S
C2786 C2784 1.327 . S
C2786 C2805 1.429 . S
C2786 H2810 0.950 . S
C2787 C2804 1.574 . S
C2787 C2806 1.368 . S
C2787 H2811 0.949 . S
H2788 C2792 0.949 . S
C2789 C2790 1.349 . S
C2789 C2791 1.327 . S
C2789 H2812 0.950 . S
C2790 C2789 1.349 . S
C2790 C2802 1.349 . S
C2791 C2789 1.327 . S
C2791 C2807 1.429 . S
C2791 H2813 0.950 . S
C2792 H2788 0.949 . S
C2792 C2800 1.574 . S
C2792 C2808 1.368 . S
H2793 C2801 0.950 . S
H2794 C2799 0.950 . S
H2795 C2800 0.949 . S
H2796 C2802 0.950 . S
H2797 C2803 0.950 . S
H2798 C2804 0.949 . S
C2799 H2794 0.950 . S
C2799 C2801 1.327 . S
C2799 C2805 1.429 . S
C2800 C2792 1.574 . S
C2800 H2795 0.949 . S
C2800 C2806 1.368 . S
C2801 C2785 1.349 . S
C2801 H2793 0.950 . S
C2801 C2799 1.327 . S
C2802 C2790 1.349 . S
C2802 H2796 0.950 . S
C2802 C2803 1.327 . S
C2803 H2797 0.950 . S
C2803 C2802 1.327 . S
C2803 C2807 1.429 . S
C2804 C2787 1.574 . S
C2804 H2798 0.949 . S
C2804 C2808 1.368 . S
C2805 C2786 1.429 . S
C2805 C2799 1.429 . S
C2805 C2806 1.523 . S
C2806 C2787 1.368 . S
C2806 C2800 1.368 . S
C2806 C2805 1.523 . S
C2807 C2791 1.429 . S
C2807 C2803 1.429 . S
C2807 C2808 1.523 . S
C2808 C2792 1.368 . S
C2808 C2804 1.368 . S
C2808 C2807 1.523 . S
H2809 C2784 0.950 . S
H2810 C2786 0.950 . S
H2811 C2787 0.949 . S
H2812 C2789 0.950 . S
H2813 C2791 0.950 . S
C2814 C2815 1.349 . S
C2814 C2816 1.327 . S
C2814 H2839 0.950 . S
C2815 C2814 1.349 . S
C2815 C2831 1.349 . S
C2816 C2814 1.327 . S
C2816 C2835 1.429 . S
C2816 H2840 0.950 . S
C2817 C2834 1.574 . S
C2817 C2836 1.368 . S
C2817 H2841 0.949 . S
H2818 C2822 0.949 . S
C2819 C2820 1.349 . S
C2819 C2821 1.327 . S
C2819 H2842 0.950 . S
C2820 C2819 1.349 . S
C2820 C2832 1.349 . S
C2821 C2819 1.327 . S
C2821 C2837 1.429 . S
C2821 H2843 0.950 . S
C2822 H2818 0.949 . S
C2822 C2830 1.574 . S
C2822 C2838 1.368 . S
H2823 C2831 0.950 . S
H2824 C2829 0.950 . S
H2825 C2830 0.949 . S
H2826 C2832 0.950 . S
H2827 C2833 0.950 . S
H2828 C2834 0.949 . S
C2829 H2824 0.950 . S
C2829 C2831 1.327 . S
C2829 C2835 1.429 . S
C2830 C2822 1.574 . S
C2830 H2825 0.949 . S
C2830 C2836 1.368 . S
C2831 C2815 1.349 . S
C2831 H2823 0.950 . S
C2831 C2829 1.327 . S
C2832 C2820 1.349 . S
C2832 H2826 0.950 . S
C2832 C2833 1.327 . S
C2833 H2827 0.950 . S
C2833 C2832 1.327 . S
C2833 C2837 1.429 . S
C2834 C2817 1.574 . S
C2834 H2828 0.949 . S
C2834 C2838 1.368 . S
C2835 C2816 1.429 . S
C2835 C2829 1.429 . S
C2835 C2836 1.523 . S
C2836 C2817 1.368 . S
C2836 C2830 1.368 . S
C2836 C2835 1.523 . S
C2837 C2821 1.429 . S
C2837 C2833 1.429 . S
C2837 C2838 1.523 . S
C2838 C2822 1.368 . S
C2838 C2834 1.368 . S
C2838 C2837 1.523 . S
H2839 C2814 0.950 . S
H2840 C2816 0.950 . S
H2841 C2817 0.949 . S
H2842 C2819 0.950 . S
H2843 C2821 0.950 . S
C2844 C2845 1.349 . S
C2844 C2846 1.327 . S
C2844 H2869 0.950 . S
C2845 C2844 1.349 . S
C2845 C2861 1.349 . S
C2846 C2844 1.327 . S
C2846 C2865 1.429 . S
C2846 H2870 0.950 . S
C2847 C2864 1.574 . S
C2847 C2866 1.368 . S
C2847 H2871 0.949 . S
H2848 C2852 0.949 . S
C2849 C2850 1.349 . S
C2849 C2851 1.327 . S
C2849 H2872 0.950 . S
C2850 C2849 1.349 . S
C2850 C2862 1.349 . S
C2851 C2849 1.327 . S
C2851 C2867 1.429 . S
C2851 H2873 0.950 . S
C2852 H2848 0.949 . S
C2852 C2860 1.574 . S
C2852 C2868 1.368 . S
H2853 C2861 0.950 . S
H2854 C2859 0.950 . S
H2855 C2860 0.949 . S
H2856 C2862 0.950 . S
H2857 C2863 0.950 . S
H2858 C2864 0.949 . S
C2859 H2854 0.950 . S
C2859 C2861 1.327 . S
C2859 C2865 1.429 . S
C2860 C2852 1.574 . S
C2860 H2855 0.949 . S
C2860 C2866 1.368 . S
C2861 C2845 1.349 . S
C2861 H2853 0.950 . S
C2861 C2859 1.327 . S
C2862 C2850 1.349 . S
C2862 H2856 0.950 . S
C2862 C2863 1.327 . S
C2863 H2857 0.950 . S
C2863 C2862 1.327 . S
C2863 C2867 1.429 . S
C2864 C2847 1.574 . S
C2864 H2858 0.949 . S
C2864 C2868 1.368 . S
C2865 C2846 1.429 . S
C2865 C2859 1.429 . S
C2865 C2866 1.523 . S
C2866 C2847 1.368 . S
C2866 C2860 1.368 . S
C2866 C2865 1.523 . S
C2867 C2851 1.429 . S
C2867 C2863 1.429 . S
C2867 C2868 1.523 . S
C2868 C2852 1.368 . S
C2868 C2864 1.368 . S
C2868 C2867 1.523 . S
H2869 C2844 0.950 . S
H2870 C2846 0.950 . S
H2871 C2847 0.949 . S
H2872 C2849 0.950 . S
H2873 C2851 0.950 . S
C2874 C2875 1.349 . S
C2874 C2876 1.327 . S
C2874 H2899 0.950 . S
C2875 C2874 1.349 . S
C2875 C2891 1.349 . S
C2876 C2874 1.327 . S
C2876 C2895 1.429 . S
C2876 H2900 0.950 . S
C2877 C2894 1.574 . S
C2877 C2896 1.368 . S
C2877 H2901 0.949 . S
H2878 C2882 0.949 . S
C2879 C2880 1.349 . S
C2879 C2881 1.327 . S
C2879 H2902 0.950 . S
C2880 C2879 1.349 . S
C2880 C2892 1.349 . S
C2881 C2879 1.327 . S
C2881 C2897 1.429 . S
C2881 H2903 0.950 . S
C2882 H2878 0.949 . S
C2882 C2890 1.574 . S
C2882 C2898 1.368 . S
H2883 C2891 0.950 . S
H2884 C2889 0.950 . S
H2885 C2890 0.949 . S
H2886 C2892 0.950 . S
H2887 C2893 0.950 . S
H2888 C2894 0.949 . S
C2889 H2884 0.950 . S
C2889 C2891 1.327 . S
C2889 C2895 1.429 . S
C2890 C2882 1.574 . S
C2890 H2885 0.949 . S
C2890 C2896 1.368 . S
C2891 C2875 1.349 . S
C2891 H2883 0.950 . S
C2891 C2889 1.327 . S
C2892 C2880 1.349 . S
C2892 H2886 0.950 . S
C2892 C2893 1.327 . S
C2893 H2887 0.950 . S
C2893 C2892 1.327 . S
C2893 C2897 1.429 . S
C2894 C2877 1.574 . S
C2894 H2888 0.949 . S
C2894 C2898 1.368 . S
C2895 C2876 1.429 . S
C2895 C2889 1.429 . S
C2895 C2896 1.523 . S
C2896 C2877 1.368 . S
C2896 C2890 1.368 . S
C2896 C2895 1.523 . S
C2897 C2881 1.429 . S
C2897 C2893 1.429 . S
C2897 C2898 1.523 . S
C2898 C2882 1.368 . S
C2898 C2894 1.368 . S
C2898 C2897 1.523 . S
H2899 C2874 0.950 . S
H2900 C2876 0.950 . S
H2901 C2877 0.949 . S
H2902 C2879 0.950 . S
H2903 C2881 0.950 . S
C2904 C2905 1.349 . S
C2904 C2906 1.327 . S
C2904 H2929 0.950 . S
C2905 C2904 1.349 . S
C2905 C2921 1.349 . S
C2906 C2904 1.327 . S
C2906 C2925 1.429 . S
C2906 H2930 0.950 . S
C2907 C2924 1.574 . S
C2907 C2926 1.368 . S
C2907 H2931 0.949 . S
H2908 C2912 0.949 . S
C2909 C2910 1.349 . S
C2909 C2911 1.327 . S
C2909 H2932 0.950 . S
C2910 C2909 1.349 . S
C2910 C2922 1.349 . S
C2911 C2909 1.327 . S
C2911 C2927 1.429 . S
C2911 H2933 0.950 . S
C2912 H2908 0.949 . S
C2912 C2920 1.574 . S
C2912 C2928 1.368 . S
H2913 C2921 0.950 . S
H2914 C2919 0.950 . S
H2915 C2920 0.949 . S
H2916 C2922 0.950 . S
H2917 C2923 0.950 . S
H2918 C2924 0.949 . S
C2919 H2914 0.950 . S
C2919 C2921 1.327 . S
C2919 C2925 1.429 . S
C2920 C2912 1.574 . S
C2920 H2915 0.949 . S
C2920 C2926 1.368 . S
C2921 C2905 1.349 . S
C2921 H2913 0.950 . S
C2921 C2919 1.327 . S
C2922 C2910 1.349 . S
C2922 H2916 0.950 . S
C2922 C2923 1.327 . S
C2923 H2917 0.950 . S
C2923 C2922 1.327 . S
C2923 C2927 1.429 . S
C2924 C2907 1.574 . S
C2924 H2918 0.949 . S
C2924 C2928 1.368 . S
C2925 C2906 1.429 . S
C2925 C2919 1.429 . S
C2925 C2926 1.523 . S
C2926 C2907 1.368 . S
C2926 C2920 1.368 . S
C2926 C2925 1.523 . S
C2927 C2911 1.429 . S
C2927 C2923 1.429 . S
C2927 C2928 1.523 . S
C2928 C2912 1.368 . S
C2928 C2924 1.368 . S
C2928 C2927 1.523 . S
H2929 C2904 0.950 . S
H2930 C2906 0.950 . S
H2931 C2907 0.949 . S
H2932 C2909 0.950 . S
H2933 C2911 0.950 . S
C2934 C2935 1.349 . S
C2934 C2936 1.327 . S
C2934 H2959 0.950 . S
C2935 C2934 1.349 . S
C2935 C2951 1.349 . S
C2936 C2934 1.327 . S
C2936 C2955 1.429 . S
C2936 H2960 0.950 . S
C2937 C2954 1.574 . S
C2937 C2956 1.368 . S
C2937 H2961 0.949 . S
H2938 C2942 0.949 . S
C2939 C2940 1.349 . S
C2939 C2941 1.327 . S
C2939 H2962 0.950 . S
C2940 C2939 1.349 . S
C2940 C2952 1.349 . S
C2941 C2939 1.327 . S
C2941 C2957 1.429 . S
C2941 H2963 0.950 . S
C2942 H2938 0.949 . S
C2942 C2950 1.574 . S
C2942 C2958 1.368 . S
H2943 C2951 0.950 . S
H2944 C2949 0.950 . S
H2945 C2950 0.949 . S
H2946 C2952 0.950 . S
H2947 C2953 0.950 . S
H2948 C2954 0.949 . S
C2949 H2944 0.950 . S
C2949 C2951 1.327 . S
C2949 C2955 1.429 . S
C2950 C2942 1.574 . S
C2950 H2945 0.949 . S
C2950 C2956 1.368 . S
C2951 C2935 1.349 . S
C2951 H2943 0.950 . S
C2951 C2949 1.327 . S
C2952 C2940 1.349 . S
C2952 H2946 0.950 . S
C2952 C2953 1.327 . S
C2953 H2947 0.950 . S
C2953 C2952 1.327 . S
C2953 C2957 1.429 . S
C2954 C2937 1.574 . S
C2954 H2948 0.949 . S
C2954 C2958 1.368 . S
C2955 C2936 1.429 . S
C2955 C2949 1.429 . S
C2955 C2956 1.523 . S
C2956 C2937 1.368 . S
C2956 C2950 1.368 . S
C2956 C2955 1.523 . S
C2957 C2941 1.429 . S
C2957 C2953 1.429 . S
C2957 C2958 1.523 . S
C2958 C2942 1.368 . S
C2958 C2954 1.368 . S
C2958 C2957 1.523 . S
H2959 C2934 0.950 . S
H2960 C2936 0.950 . S
H2961 C2937 0.949 . S
H2962 C2939 0.950 . S
H2963 C2941 0.950 . S
C2964 C2965 1.349 . S
C2964 C2966 1.327 . S
C2964 H2989 0.950 . S
C2965 C2964 1.349 . S
C2965 C2981 1.349 . S
C2966 C2964 1.327 . S
C2966 C2985 1.429 . S
C2966 H2990 0.950 . S
C2967 C2984 1.574 . S
C2967 C2986 1.368 . S
C2967 H2991 0.949 . S
H2968 C2972 0.949 . S
C2969 C2970 1.349 . S
C2969 C2971 1.327 . S
C2969 H2992 0.950 . S
C2970 C2969 1.349 . S
C2970 C2982 1.349 . S
C2971 C2969 1.327 . S
C2971 C2987 1.429 . S
C2971 H2993 0.950 . S
C2972 H2968 0.949 . S
C2972 C2980 1.574 . S
C2972 C2988 1.368 . S
H2973 C2981 0.950 . S
H2974 C2979 0.950 . S
H2975 C2980 0.949 . S
H2976 C2982 0.950 . S
H2977 C2983 0.950 . S
H2978 C2984 0.949 . S
C2979 H2974 0.950 . S
C2979 C2981 1.327 . S
C2979 C2985 1.429 . S
C2980 C2972 1.574 . S
C2980 H2975 0.949 . S
C2980 C2986 1.368 . S
C2981 C2965 1.349 . S
C2981 H2973 0.950 . S
C2981 C2979 1.327 . S
C2982 C2970 1.349 . S
C2982 H2976 0.950 . S
C2982 C2983 1.327 . S
C2983 H2977 0.950 . S
C2983 C2982 1.327 . S
C2983 C2987 1.429 . S
C2984 C2967 1.574 . S
C2984 H2978 0.949 . S
C2984 C2988 1.368 . S
C2985 C2966 1.429 . S
C2985 C2979 1.429 . S
C2985 C2986 1.523 . S
C2986 C2967 1.368 . S
C2986 C2980 1.368 . S
C2986 C2985 1.523 . S
C2987 C2971 1.429 . S
C2987 C2983 1.429 . S
C2987 C2988 1.523 . S
C2988 C2972 1.368 . S
C2988 C2984 1.368 . S
C2988 C2987 1.523 . S
H2989 C2964 0.950 . S
H2990 C2966 0.950 . S
H2991 C2967 0.949 . S
H2992 C2969 0.950 . S
H2993 C2971 0.950 . S
C2994 C2995 1.349 . S
C2994 C2996 1.327 . S
C2994 H3019 0.950 . S
C2995 C2994 1.349 . S
C2995 C3011 1.349 . S
C2996 C2994 1.327 . S
C2996 C3015 1.429 . S
C2996 H3020 0.950 . S
C2997 C3014 1.574 . S
C2997 C3016 1.368 . S
C2997 H3021 0.949 . S
H2998 C3002 0.949 . S
C2999 C3000 1.349 . S
C2999 C3001 1.327 . S
C2999 H3022 0.950 . S
C3000 C2999 1.349 . S
C3000 C3012 1.349 . S
C3001 C2999 1.327 . S
C3001 C3017 1.429 . S
C3001 H3023 0.950 . S
C3002 H2998 0.949 . S
C3002 C3010 1.574 . S
C3002 C3018 1.368 . S
H3003 C3011 0.950 . S
H3004 C3009 0.950 . S
H3005 C3010 0.949 . S
H3006 C3012 0.950 . S
H3007 C3013 0.950 . S
H3008 C3014 0.949 . S
C3009 H3004 0.950 . S
C3009 C3011 1.327 . S
C3009 C3015 1.429 . S
C3010 C3002 1.574 . S
C3010 H3005 0.949 . S
C3010 C3016 1.368 . S
C3011 C2995 1.349 . S
C3011 H3003 0.950 . S
C3011 C3009 1.327 . S
C3012 C3000 1.349 . S
C3012 H3006 0.950 . S
C3012 C3013 1.327 . S
C3013 H3007 0.950 . S
C3013 C3012 1.327 . S
C3013 C3017 1.429 . S
C3014 C2997 1.574 . S
C3014 H3008 0.949 . S
C3014 C3018 1.368 . S
C3015 C2996 1.429 . S
C3015 C3009 1.429 . S
C3015 C3016 1.523 . S
C3016 C2997 1.368 . S
C3016 C3010 1.368 . S
C3016 C3015 1.523 . S
C3017 C3001 1.429 . S
C3017 C3013 1.429 . S
C3017 C3018 1.523 . S
C3018 C3002 1.368 . S
C3018 C3014 1.368 . S
C3018 C3017 1.523 . S
H3019 C2994 0.950 . S
H3020 C2996 0.950 . S
H3021 C2997 0.949 . S
H3022 C2999 0.950 . S
H3023 C3001 0.950 . S
C3024 C3025 1.349 . S
C3024 C3026 1.327 . S
C3024 H3049 0.950 . S
C3025 C3024 1.349 . S
C3025 C3041 1.349 . S
C3026 C3024 1.327 . S
C3026 C3045 1.429 . S
C3026 H3050 0.950 . S
C3027 C3044 1.574 . S
C3027 C3046 1.368 . S
C3027 H3051 0.949 . S
H3028 C3032 0.949 . S
C3029 C3030 1.349 . S
C3029 C3031 1.327 . S
C3029 H3052 0.950 . S
C3030 C3029 1.349 . S
C3030 C3042 1.349 . S
C3031 C3029 1.327 . S
C3031 C3047 1.429 . S
C3031 H3053 0.950 . S
C3032 H3028 0.949 . S
C3032 C3040 1.574 . S
C3032 C3048 1.368 . S
H3033 C3041 0.950 . S
H3034 C3039 0.950 . S
H3035 C3040 0.949 . S
H3036 C3042 0.950 . S
H3037 C3043 0.950 . S
H3038 C3044 0.949 . S
C3039 H3034 0.950 . S
C3039 C3041 1.327 . S
C3039 C3045 1.429 . S
C3040 C3032 1.574 . S
C3040 H3035 0.949 . S
C3040 C3046 1.368 . S
C3041 C3025 1.349 . S
C3041 H3033 0.950 . S
C3041 C3039 1.327 . S
C3042 C3030 1.349 . S
C3042 H3036 0.950 . S
C3042 C3043 1.327 . S
C3043 H3037 0.950 . S
C3043 C3042 1.327 . S
C3043 C3047 1.429 . S
C3044 C3027 1.574 . S
C3044 H3038 0.949 . S
C3044 C3048 1.368 . S
C3045 C3026 1.429 . S
C3045 C3039 1.429 . S
C3045 C3046 1.523 . S
C3046 C3027 1.368 . S
C3046 C3040 1.368 . S
C3046 C3045 1.523 . S
C3047 C3031 1.429 . S
C3047 C3043 1.429 . S
C3047 C3048 1.523 . S
C3048 C3032 1.368 . S
C3048 C3044 1.368 . S
C3048 C3047 1.523 . S
H3049 C3024 0.950 . S
H3050 C3026 0.950 . S
H3051 C3027 0.949 . S
H3052 C3029 0.950 . S
H3053 C3031 0.950 . S
C3054 C3055 1.349 . S
C3054 C3056 1.327 . S
C3054 H3079 0.950 . S
C3055 C3054 1.349 . S
C3055 C3071 1.349 . S
C3056 C3054 1.327 . S
C3056 C3075 1.429 . S
C3056 H3080 0.950 . S
C3057 C3074 1.574 . S
C3057 C3076 1.368 . S
C3057 H3081 0.949 . S
H3058 C3062 0.949 . S
C3059 C3060 1.349 . S
C3059 C3061 1.327 . S
C3059 H3082 0.950 . S
C3060 C3059 1.349 . S
C3060 C3072 1.349 . S
C3061 C3059 1.327 . S
C3061 C3077 1.429 . S
C3061 H3083 0.950 . S
C3062 H3058 0.949 . S
C3062 C3070 1.574 . S
C3062 C3078 1.368 . S
H3063 C3071 0.950 . S
H3064 C3069 0.950 . S
H3065 C3070 0.949 . S
H3066 C3072 0.950 . S
H3067 C3073 0.950 . S
H3068 C3074 0.949 . S
C3069 H3064 0.950 . S
C3069 C3071 1.327 . S
C3069 C3075 1.429 . S
C3070 C3062 1.574 . S
C3070 H3065 0.949 . S
C3070 C3076 1.368 . S
C3071 C3055 1.349 . S
C3071 H3063 0.950 . S
C3071 C3069 1.327 . S
C3072 C3060 1.349 . S
C3072 H3066 0.950 . S
C3072 C3073 1.327 . S
C3073 H3067 0.950 . S
C3073 C3072 1.327 . S
C3073 C3077 1.429 . S
C3074 C3057 1.574 . S
C3074 H3068 0.949 . S
C3074 C3078 1.368 . S
C3075 C3056 1.429 . S
C3075 C3069 1.429 . S
C3075 C3076 1.523 . S
C3076 C3057 1.368 . S
C3076 C3070 1.368 . S
C3076 C3075 1.523 . S
C3077 C3061 1.429 . S
C3077 C3073 1.429 . S
C3077 C3078 1.523 . S
C3078 C3062 1.368 . S
C3078 C3074 1.368 . S
C3078 C3077 1.523 . S
H3079 C3054 0.950 . S
H3080 C3056 0.950 . S
H3081 C3057 0.949 . S
H3082 C3059 0.950 . S
H3083 C3061 0.950 . S
C3084 C3085 1.349 . S
C3084 C3086 1.327 . S
C3084 H3109 0.950 . S
C3085 C3084 1.349 . S
C3085 C3101 1.349 . S
C3086 C3084 1.327 . S
C3086 C3105 1.429 . S
C3086 H3110 0.950 . S
C3087 C3104 1.574 . S
C3087 C3106 1.368 . S
C3087 H3111 0.949 . S
H3088 C3092 0.949 . S
C3089 C3090 1.349 . S
C3089 C3091 1.327 . S
C3089 H3112 0.950 . S
C3090 C3089 1.349 . S
C3090 C3102 1.349 . S
C3091 C3089 1.327 . S
C3091 C3107 1.429 . S
C3091 H3113 0.950 . S
C3092 H3088 0.949 . S
C3092 C3100 1.574 . S
C3092 C3108 1.368 . S
H3093 C3101 0.950 . S
H3094 C3099 0.950 . S
H3095 C3100 0.949 . S
H3096 C3102 0.950 . S
H3097 C3103 0.950 . S
H3098 C3104 0.949 . S
C3099 H3094 0.950 . S
C3099 C3101 1.327 . S
C3099 C3105 1.429 . S
C3100 C3092 1.574 . S
C3100 H3095 0.949 . S
C3100 C3106 1.368 . S
C3101 C3085 1.349 . S
C3101 H3093 0.950 . S
C3101 C3099 1.327 . S
C3102 C3090 1.349 . S
C3102 H3096 0.950 . S
C3102 C3103 1.327 . S
C3103 H3097 0.950 . S
C3103 C3102 1.327 . S
C3103 C3107 1.429 . S
C3104 C3087 1.574 . S
C3104 H3098 0.949 . S
C3104 C3108 1.368 . S
C3105 C3086 1.429 . S
C3105 C3099 1.429 . S
C3105 C3106 1.523 . S
C3106 C3087 1.368 . S
C3106 C3100 1.368 . S
C3106 C3105 1.523 . S
C3107 C3091 1.429 . S
C3107 C3103 1.429 . S
C3107 C3108 1.523 . S
C3108 C3092 1.368 . S
C3108 C3104 1.368 . S
C3108 C3107 1.523 . S
H3109 C3084 0.950 . S
H3110 C3086 0.950 . S
H3111 C3087 0.949 . S
H3112 C3089 0.950 . S
H3113 C3091 0.950 . S
C3114 C3115 1.349 . S
C3114 C3116 1.327 . S
C3114 H3139 0.950 . S
C3115 C3114 1.349 . S
C3115 C3131 1.349 . S
C3116 C3114 1.327 . S
C3116 C3135 1.429 . S
C3116 H3140 0.950 . S
C3117 C3134 1.574 . S
C3117 C3136 1.368 . S
C3117 H3141 0.949 . S
H3118 C3122 0.949 . S
C3119 C3120 1.349 . S
C3119 C3121 1.327 . S
C3119 H3142 0.950 . S
C3120 C3119 1.349 . S
C3120 C3132 1.349 . S
C3121 C3119 1.327 . S
C3121 C3137 1.429 . S
C3121 H3143 0.950 . S
C3122 H3118 0.949 . S
C3122 C3130 1.574 . S
C3122 C3138 1.368 . S
H3123 C3131 0.950 . S
H3124 C3129 0.950 . S
H3125 C3130 0.949 . S
H3126 C3132 0.950 . S
H3127 C3133 0.950 . S
H3128 C3134 0.949 . S
C3129 H3124 0.950 . S
C3129 C3131 1.327 . S
C3129 C3135 1.429 . S
C3130 C3122 1.574 . S
C3130 H3125 0.949 . S
C3130 C3136 1.368 . S
C3131 C3115 1.349 . S
C3131 H3123 0.950 . S
C3131 C3129 1.327 . S
C3132 C3120 1.349 . S
C3132 H3126 0.950 . S
C3132 C3133 1.327 . S
C3133 H3127 0.950 . S
C3133 C3132 1.327 . S
C3133 C3137 1.429 . S
C3134 C3117 1.574 . S
C3134 H3128 0.949 . S
C3134 C3138 1.368 . S
C3135 C3116 1.429 . S
C3135 C3129 1.429 . S
C3135 C3136 1.523 . S
C3136 C3117 1.368 . S
C3136 C3130 1.368 . S
C3136 C3135 1.523 . S
C3137 C3121 1.429 . S
C3137 C3133 1.429 . S
C3137 C3138 1.523 . S
C3138 C3122 1.368 . S
C3138 C3134 1.368 . S
C3138 C3137 1.523 . S
H3139 C3114 0.950 . S
H3140 C3116 0.950 . S
H3141 C3117 0.949 . S
H3142 C3119 0.950 . S
H3143 C3121 0.950 . S
C3144 C3145 1.349 . S
C3144 C3146 1.327 . S
C3144 H3169 0.950 . S
C3145 C3144 1.349 . S
C3145 C3161 1.349 . S
C3146 C3144 1.327 . S
C3146 C3165 1.429 . S
C3146 H3170 0.950 . S
C3147 C3164 1.574 . S
C3147 C3166 1.368 . S
C3147 H3171 0.949 . S
H3148 C3152 0.949 . S
C3149 C3150 1.349 . S
C3149 C3151 1.327 . S
C3149 H3172 0.950 . S
C3150 C3149 1.349 . S
C3150 C3162 1.349 . S
C3151 C3149 1.327 . S
C3151 C3167 1.429 . S
C3151 H3173 0.950 . S
C3152 H3148 0.949 . S
C3152 C3160 1.574 . S
C3152 C3168 1.368 . S
H3153 C3161 0.950 . S
H3154 C3159 0.950 . S
H3155 C3160 0.949 . S
H3156 C3162 0.950 . S
H3157 C3163 0.950 . S
H3158 C3164 0.949 . S
C3159 H3154 0.950 . S
C3159 C3161 1.327 . S
C3159 C3165 1.429 . S
C3160 C3152 1.574 . S
C3160 H3155 0.949 . S
C3160 C3166 1.368 . S
C3161 C3145 1.349 . S
C3161 H3153 0.950 . S
C3161 C3159 1.327 . S
C3162 C3150 1.349 . S
C3162 H3156 0.950 . S
C3162 C3163 1.327 . S
C3163 H3157 0.950 . S
C3163 C3162 1.327 . S
C3163 C3167 1.429 . S
C3164 C3147 1.574 . S
C3164 H3158 0.949 . S
C3164 C3168 1.368 . S
C3165 C3146 1.429 . S
C3165 C3159 1.429 . S
C3165 C3166 1.523 . S
C3166 C3147 1.368 . S
C3166 C3160 1.368 . S
C3166 C3165 1.523 . S
C3167 C3151 1.429 . S
C3167 C3163 1.429 . S
C3167 C3168 1.523 . S
C3168 C3152 1.368 . S
C3168 C3164 1.368 . S
C3168 C3167 1.523 . S
H3169 C3144 0.950 . S
H3170 C3146 0.950 . S
H3171 C3147 0.949 . S
H3172 C3149 0.950 . S
H3173 C3151 0.950 . S
C3174 C3175 1.349 . S
C3174 C3176 1.327 . S
C3174 H3199 0.950 . S
C3175 C3174 1.349 . S
C3175 C3191 1.349 . S
C3176 C3174 1.327 . S
C3176 C3195 1.429 . S
C3176 H3200 0.950 . S
C3177 C3194 1.574 . S
C3177 C3196 1.368 . S
C3177 H3201 0.949 . S
H3178 C3182 0.949 . S
C3179 C3180 1.349 . S
C3179 C3181 1.327 . S
C3179 H3202 0.950 . S
C3180 C3179 1.349 . S
C3180 C3192 1.349 . S
C3181 C3179 1.327 . S
C3181 C3197 1.429 . S
C3181 H3203 0.950 . S
C3182 H3178 0.949 . S
C3182 C3190 1.574 . S
C3182 C3198 1.368 . S
H3183 C3191 0.950 . S
H3184 C3189 0.950 . S
H3185 C3190 0.949 . S
H3186 C3192 0.950 . S
H3187 C3193 0.950 . S
H3188 C3194 0.949 . S
C3189 H3184 0.950 . S
C3189 C3191 1.327 . S
C3189 C3195 1.429 . S
C3190 C3182 1.574 . S
C3190 H3185 0.949 . S
C3190 C3196 1.368 . S
C3191 C3175 1.349 . S
C3191 H3183 0.950 . S
C3191 C3189 1.327 . S
C3192 C3180 1.349 . S
C3192 H3186 0.950 . S
C3192 C3193 1.327 . S
C3193 H3187 0.950 . S
C3193 C3192 1.327 . S
C3193 C3197 1.429 . S
C3194 C3177 1.574 . S
C3194 H3188 0.949 . S
C3194 C3198 1.368 . S
C3195 C3176 1.429 . S
C3195 C3189 1.429 . S
C3195 C3196 1.523 . S
C3196 C3177 1.368 . S
C3196 C3190 1.368 . S
C3196 C3195 1.523 . S
C3197 C3181 1.429 . S
C3197 C3193 1.429 . S
C3197 C3198 1.523 . S
C3198 C3182 1.368 . S
C3198 C3194 1.368 . S
C3198 C3197 1.523 . S
H3199 C3174 0.950 . S
H3200 C3176 0.950 . S
H3201 C3177 0.949 . S
H3202 C3179 0.950 . S
H3203 C3181 0.950 . S
C3204 C3205 1.349 . S
C3204 C3206 1.327 . S
C3204 H3229 0.950 . S
C3205 C3204 1.349 . S
C3205 C3221 1.349 . S
C3206 C3204 1.327 . S
C3206 C3225 1.429 . S
C3206 H3230 0.950 . S
C3207 C3224 1.574 . S
C3207 C3226 1.368 . S
C3207 H3231 0.949 . S
H3208 C3212 0.949 . S
C3209 C3210 1.349 . S
C3209 C3211 1.327 . S
C3209 H3232 0.950 . S
C3210 C3209 1.349 . S
C3210 C3222 1.349 . S
C3211 C3209 1.327 . S
C3211 C3227 1.429 . S
C3211 H3233 0.950 . S
C3212 H3208 0.949 . S
C3212 C3220 1.574 . S
C3212 C3228 1.368 . S
H3213 C3221 0.950 . S
H3214 C3219 0.950 . S
H3215 C3220 0.949 . S
H3216 C3222 0.950 . S
H3217 C3223 0.950 . S
H3218 C3224 0.949 . S
C3219 H3214 0.950 . S
C3219 C3221 1.327 . S
C3219 C3225 1.429 . S
C3220 C3212 1.574 . S
C3220 H3215 0.949 . S
C3220 C3226 1.368 . S
C3221 C3205 1.349 . S
C3221 H3213 0.950 . S
C3221 C3219 1.327 . S
C3222 C3210 1.349 . S
C3222 H3216 0.950 . S
C3222 C3223 1.327 . S
C3223 H3217 0.950 . S
C3223 C3222 1.327 . S
C3223 C3227 1.429 . S
C3224 C3207 1.574 . S
C3224 H3218 0.949 . S
C3224 C3228 1.368 . S
C3225 C3206 1.429 . S
C3225 C3219 1.429 . S
C3225 C3226 1.523 . S
C3226 C3207 1.368 . S
C3226 C3220 1.368 . S
C3226 C3225 1.523 . S
C3227 C3211 1.429 . S
C3227 C3223 1.429 . S
C3227 C3228 1.523 . S
C3228 C3212 1.368 . S
C3228 C3224 1.368 . S
C3228 C3227 1.523 . S
H3229 C3204 0.950 . S
H3230 C3206 0.950 . S
H3231 C3207 0.949 . S
H3232 C3209 0.950 . S
H3233 C3211 0.950 . S
C3234 C3235 1.349 . S
C3234 C3236 1.327 . S
C3234 H3259 0.950 . S
C3235 C3234 1.349 . S
C3235 C3251 1.349 . S
C3236 C3234 1.327 . S
C3236 C3255 1.429 . S
C3236 H3260 0.950 . S
C3237 C3254 1.574 . S
C3237 C3256 1.368 . S
C3237 H3261 0.949 . S
H3238 C3242 0.949 . S
C3239 C3240 1.349 . S
C3239 C3241 1.327 . S
C3239 H3262 0.950 . S
C3240 C3239 1.349 . S
C3240 C3252 1.349 . S
C3241 C3239 1.327 . S
C3241 C3257 1.429 . S
C3241 H3263 0.950 . S
C3242 H3238 0.949 . S
C3242 C3250 1.574 . S
C3242 C3258 1.368 . S
H3243 C3251 0.950 . S
H3244 C3249 0.950 . S
H3245 C3250 0.949 . S
H3246 C3252 0.950 . S
H3247 C3253 0.950 . S
H3248 C3254 0.949 . S
C3249 H3244 0.950 . S
C3249 C3251 1.327 . S
C3249 C3255 1.429 . S
C3250 C3242 1.574 . S
C3250 H3245 0.949 . S
C3250 C3256 1.368 . S
C3251 C3235 1.349 . S
C3251 H3243 0.950 . S
C3251 C3249 1.327 . S
C3252 C3240 1.349 . S
C3252 H3246 0.950 . S
C3252 C3253 1.327 . S
C3253 H3247 0.950 . S
C3253 C3252 1.327 . S
C3253 C3257 1.429 . S
C3254 C3237 1.574 . S
C3254 H3248 0.949 . S
C3254 C3258 1.368 . S
C3255 C3236 1.429 . S
C3255 C3249 1.429 . S
C3255 C3256 1.523 . S
C3256 C3237 1.368 . S
C3256 C3250 1.368 . S
C3256 C3255 1.523 . S
C3257 C3241 1.429 . S
C3257 C3253 1.429 . S
C3257 C3258 1.523 . S
C3258 C3242 1.368 . S
C3258 C3254 1.368 . S
C3258 C3257 1.523 . S
H3259 C3234 0.950 . S
H3260 C3236 0.950 . S
H3261 C3237 0.949 . S
H3262 C3239 0.950 . S
H3263 C3241 0.950 . S
C3264 C3265 1.349 . S
C3264 C3266 1.327 . S
C3264 H3289 0.950 . S
C3265 C3264 1.349 . S
C3265 C3281 1.349 . S
C3266 C3264 1.327 . S
C3266 C3285 1.429 . S
C3266 H3290 0.950 . S
C3267 C3284 1.574 . S
C3267 C3286 1.368 . S
C3267 H3291 0.949 . S
H3268 C3272 0.949 . S
C3269 C3270 1.349 . S
C3269 C3271 1.327 . S
C3269 H3292 0.950 . S
C3270 C3269 1.349 . S
C3270 C3282 1.349 . S
C3271 C3269 1.327 . S
C3271 C3287 1.429 . S
C3271 H3293 0.950 . S
C3272 H3268 0.949 . S
C3272 C3280 1.574 . S
C3272 C3288 1.368 . S
H3273 C3281 0.950 . S
H3274 C3279 0.950 . S
H3275 C3280 0.949 . S
H3276 C3282 0.950 . S
H3277 C3283 0.950 . S
H3278 C3284 0.949 . S
C3279 H3274 0.950 . S
C3279 C3281 1.327 . S
C3279 C3285 1.429 . S
C3280 C3272 1.574 . S
C3280 H3275 0.949 . S
C3280 C3286 1.368 . S
C3281 C3265 1.349 . S
C3281 H3273 0.950 . S
C3281 C3279 1.327 . S
C3282 C3270 1.349 . S
C3282 H3276 0.950 . S
C3282 C3283 1.327 . S
C3283 H3277 0.950 . S
C3283 C3282 1.327 . S
C3283 C3287 1.429 . S
C3284 C3267 1.574 . S
C3284 H3278 0.949 . S
C3284 C3288 1.368 . S
C3285 C3266 1.429 . S
C3285 C3279 1.429 . S
C3285 C3286 1.523 . S
C3286 C3267 1.368 . S
C3286 C3280 1.368 . S
C3286 C3285 1.523 . S
C3287 C3271 1.429 . S
C3287 C3283 1.429 . S
C3287 C3288 1.523 . S
C3288 C3272 1.368 . S
C3288 C3284 1.368 . S
C3288 C3287 1.523 . S
H3289 C3264 0.950 . S
H3290 C3266 0.950 . S
H3291 C3267 0.949 . S
H3292 C3269 0.950 . S
H3293 C3271 0.950 . S
C3294 C3295 1.349 . S
C3294 C3296 1.327 . S
C3294 H3319 0.950 . S
C3295 C3294 1.349 . S
C3295 C3311 1.349 . S
C3296 C3294 1.327 . S
C3296 C3315 1.429 . S
C3296 H3320 0.950 . S
C3297 C3314 1.574 . S
C3297 C3316 1.368 . S
C3297 H3321 0.949 . S
H3298 C3302 0.949 . S
C3299 C3300 1.349 . S
C3299 C3301 1.327 . S
C3299 H3322 0.950 . S
C3300 C3299 1.349 . S
C3300 C3312 1.349 . S
C3301 C3299 1.327 . S
C3301 C3317 1.429 . S
C3301 H3323 0.950 . S
C3302 H3298 0.949 . S
C3302 C3310 1.574 . S
C3302 C3318 1.368 . S
H3303 C3311 0.950 . S
H3304 C3309 0.950 . S
H3305 C3310 0.949 . S
H3306 C3312 0.950 . S
H3307 C3313 0.950 . S
H3308 C3314 0.949 . S
C3309 H3304 0.950 . S
C3309 C3311 1.327 . S
C3309 C3315 1.429 . S
C3310 C3302 1.574 . S
C3310 H3305 0.949 . S
C3310 C3316 1.368 . S
C3311 C3295 1.349 . S
C3311 H3303 0.950 . S
C3311 C3309 1.327 . S
C3312 C3300 1.349 . S
C3312 H3306 0.950 . S
C3312 C3313 1.327 . S
C3313 H3307 0.950 . S
C3313 C3312 1.327 . S
C3313 C3317 1.429 . S
C3314 C3297 1.574 . S
C3314 H3308 0.949 . S
C3314 C3318 1.368 . S
C3315 C3296 1.429 . S
C3315 C3309 1.429 . S
C3315 C3316 1.523 . S
C3316 C3297 1.368 . S
C3316 C3310 1.368 . S
C3316 C3315 1.523 . S
C3317 C3301 1.429 . S
C3317 C3313 1.429 . S
C3317 C3318 1.523 . S
C3318 C3302 1.368 . S
C3318 C3314 1.368 . S
C3318 C3317 1.523 . S
H3319 C3294 0.950 . S
H3320 C3296 0.950 . S
H3321 C3297 0.949 . S
H3322 C3299 0.950 . S
H3323 C3301 0.950 . S
C3324 C3325 1.349 . S
C3324 C3326 1.327 . S
C3324 H3349 0.950 . S
C3325 C3324 1.349 . S
C3325 C3341 1.349 . S
C3326 C3324 1.327 . S
C3326 C3345 1.429 . S
C3326 H3350 0.950 . S
C3327 C3344 1.574 . S
C3327 C3346 1.368 . S
C3327 H3351 0.949 . S
H3328 C3332 0.949 . S
C3329 C3330 1.349 . S
C3329 C3331 1.327 . S
C3329 H3352 0.950 . S
C3330 C3329 1.349 . S
C3330 C3342 1.349 . S
C3331 C3329 1.327 . S
C3331 C3347 1.429 . S
C3331 H3353 0.950 . S
C3332 H3328 0.949 . S
C3332 C3340 1.574 . S
C3332 C3348 1.368 . S
H3333 C3341 0.950 . S
H3334 C3339 0.950 . S
H3335 C3340 0.949 . S
H3336 C3342 0.950 . S
H3337 C3343 0.950 . S
H3338 C3344 0.949 . S
C3339 H3334 0.950 . S
C3339 C3341 1.327 . S
C3339 C3345 1.429 . S
C3340 C3332 1.574 . S
C3340 H3335 0.949 . S
C3340 C3346 1.368 . S
C3341 C3325 1.349 . S
C3341 H3333 0.950 . S
C3341 C3339 1.327 . S
C3342 C3330 1.349 . S
C3342 H3336 0.950 . S
C3342 C3343 1.327 . S
C3343 H3337 0.950 . S
C3343 C3342 1.327 . S
C3343 C3347 1.429 . S
C3344 C3327 1.574 . S
C3344 H3338 0.949 . S
C3344 C3348 1.368 . S
C3345 C3326 1.429 . S
C3345 C3339 1.429 . S
C3345 C3346 1.523 . S
C3346 C3327 1.368 . S
C3346 C3340 1.368 . S
C3346 C3345 1.523 . S
C3347 C3331 1.429 . S
C3347 C3343 1.429 . S
C3347 C3348 1.523 . S
C3348 C3332 1.368 . S
C3348 C3344 1.368 . S
C3348 C3347 1.523 . S
H3349 C3324 0.950 . S
H3350 C3326 0.950 . S
H3351 C3327 0.949 . S
H3352 C3329 0.950 . S
H3353 C3331 0.950 . S
C3354 C3355 1.349 . S
C3354 C3356 1.327 . S
C3354 H3379 0.950 . S
C3355 C3354 1.349 . S
C3355 C3371 1.349 . S
C3356 C3354 1.327 . S
C3356 C3375 1.429 . S
C3356 H3380 0.950 . S
C3357 C3374 1.574 . S
C3357 C3376 1.368 . S
C3357 H3381 0.949 . S
H3358 C3362 0.949 . S
C3359 C3360 1.349 . S
C3359 C3361 1.327 . S
C3359 H3382 0.950 . S
C3360 C3359 1.349 . S
C3360 C3372 1.349 . S
C3361 C3359 1.327 . S
C3361 C3377 1.429 . S
C3361 H3383 0.950 . S
C3362 H3358 0.949 . S
C3362 C3370 1.574 . S
C3362 C3378 1.368 . S
H3363 C3371 0.950 . S
H3364 C3369 0.950 . S
H3365 C3370 0.949 . S
H3366 C3372 0.950 . S
H3367 C3373 0.950 . S
H3368 C3374 0.949 . S
C3369 H3364 0.950 . S
C3369 C3371 1.327 . S
C3369 C3375 1.429 . S
C3370 C3362 1.574 . S
C3370 H3365 0.949 . S
C3370 C3376 1.368 . S
C3371 C3355 1.349 . S
C3371 H3363 0.950 . S
C3371 C3369 1.327 . S
C3372 C3360 1.349 . S
C3372 H3366 0.950 . S
C3372 C3373 1.327 . S
C3373 H3367 0.950 . S
C3373 C3372 1.327 . S
C3373 C3377 1.429 . S
C3374 C3357 1.574 . S
C3374 H3368 0.949 . S
C3374 C3378 1.368 . S
C3375 C3356 1.429 . S
C3375 C3369 1.429 . S
C3375 C3376 1.523 . S
C3376 C3357 1.368 . S
C3376 C3370 1.368 . S
C3376 C3375 1.523 . S
C3377 C3361 1.429 . S
C3377 C3373 1.429 . S
C3377 C3378 1.523 . S
C3378 C3362 1.368 . S
C3378 C3374 1.368 . S
C3378 C3377 1.523 . S
H3379 C3354 0.950 . S
H3380 C3356 0.950 . S
H3381 C3357 0.949 . S
H3382 C3359 0.950 . S
H3383 C3361 0.950 . S
C3384 C3385 1.349 . S
C3384 C3386 1.327 . S
C3384 H3409 0.950 . S
C3385 C3384 1.349 . S
C3385 C3401 1.349 . S
C3386 C3384 1.327 . S
C3386 C3405 1.429 . S
C3386 H3410 0.950 . S
C3387 C3404 1.574 . S
C3387 C3406 1.368 . S
C3387 H3411 0.949 . S
H3388 C3392 0.949 . S
C3389 C3390 1.349 . S
C3389 C3391 1.327 . S
C3389 H3412 0.950 . S
C3390 C3389 1.349 . S
C3390 C3402 1.349 . S
C3391 C3389 1.327 . S
C3391 C3407 1.429 . S
C3391 H3413 0.950 . S
C3392 H3388 0.949 . S
C3392 C3400 1.574 . S
C3392 C3408 1.368 . S
H3393 C3401 0.950 . S
H3394 C3399 0.950 . S
H3395 C3400 0.949 . S
H3396 C3402 0.950 . S
H3397 C3403 0.950 . S
H3398 C3404 0.949 . S
C3399 H3394 0.950 . S
C3399 C3401 1.327 . S
C3399 C3405 1.429 . S
C3400 C3392 1.574 . S
C3400 H3395 0.949 . S
C3400 C3406 1.368 . S
C3401 C3385 1.349 . S
C3401 H3393 0.950 . S
C3401 C3399 1.327 . S
C3402 C3390 1.349 . S
C3402 H3396 0.950 . S
C3402 C3403 1.327 . S
C3403 H3397 0.950 . S
C3403 C3402 1.327 . S
C3403 C3407 1.429 . S
C3404 C3387 1.574 . S
C3404 H3398 0.949 . S
C3404 C3408 1.368 . S
C3405 C3386 1.429 . S
C3405 C3399 1.429 . S
C3405 C3406 1.523 . S
C3406 C3387 1.368 . S
C3406 C3400 1.368 . S
C3406 C3405 1.523 . S
C3407 C3391 1.429 . S
C3407 C3403 1.429 . S
C3407 C3408 1.523 . S
C3408 C3392 1.368 . S
C3408 C3404 1.368 . S
C3408 C3407 1.523 . S
H3409 C3384 0.950 . S
H3410 C3386 0.950 . S
H3411 C3387 0.949 . S
H3412 C3389 0.950 . S
H3413 C3391 0.950 . S
C3414 C3415 1.349 . S
C3414 C3416 1.327 . S
C3414 H3439 0.950 . S
C3415 C3414 1.349 . S
C3415 C3431 1.349 . S
C3416 C3414 1.327 . S
C3416 C3435 1.429 . S
C3416 H3440 0.950 . S
C3417 C3434 1.574 . S
C3417 C3436 1.368 . S
C3417 H3441 0.949 . S
H3418 C3422 0.949 . S
C3419 C3420 1.349 . S
C3419 C3421 1.327 . S
C3419 H3442 0.950 . S
C3420 C3419 1.349 . S
C3420 C3432 1.349 . S
C3421 C3419 1.327 . S
C3421 C3437 1.429 . S
C3421 H3443 0.950 . S
C3422 H3418 0.949 . S
C3422 C3430 1.574 . S
C3422 C3438 1.368 . S
H3423 C3431 0.950 . S
H3424 C3429 0.950 . S
H3425 C3430 0.949 . S
H3426 C3432 0.950 . S
H3427 C3433 0.950 . S
H3428 C3434 0.949 . S
C3429 H3424 0.950 . S
C3429 C3431 1.327 . S
C3429 C3435 1.429 . S
C3430 C3422 1.574 . S
C3430 H3425 0.949 . S
C3430 C3436 1.368 . S
C3431 C3415 1.349 . S
C3431 H3423 0.950 . S
C3431 C3429 1.327 . S
C3432 C3420 1.349 . S
C3432 H3426 0.950 . S
C3432 C3433 1.327 . S
C3433 H3427 0.950 . S
C3433 C3432 1.327 . S
C3433 C3437 1.429 . S
C3434 C3417 1.574 . S
C3434 H3428 0.949 . S
C3434 C3438 1.368 . S
C3435 C3416 1.429 . S
C3435 C3429 1.429 . S
C3435 C3436 1.523 . S
C3436 C3417 1.368 . S
C3436 C3430 1.368 . S
C3436 C3435 1.523 . S
C3437 C3421 1.429 . S
C3437 C3433 1.429 . S
C3437 C3438 1.523 . S
C3438 C3422 1.368 . S
C3438 C3434 1.368 . S
C3438 C3437 1.523 . S
H3439 C3414 0.950 . S
H3440 C3416 0.950 . S
H3441 C3417 0.949 . S
H3442 C3419 0.950 . S
H3443 C3421 0.950 . S
C3444 C3445 1.349 . S
C3444 C3446 1.327 . S
C3444 H3469 0.950 . S
C3445 C3444 1.349 . S
C3445 C3461 1.349 . S
C3446 C3444 1.327 . S
C3446 C3465 1.429 . S
C3446 H3470 0.950 . S
C3447 C3464 1.574 . S
C3447 C3466 1.368 . S
C3447 H3471 0.949 . S
H3448 C3452 0.949 . S
C3449 C3450 1.349 . S
C3449 C3451 1.327 . S
C3449 H3472 0.950 . S
C3450 C3449 1.349 . S
C3450 C3462 1.349 . S
C3451 C3449 1.327 . S
C3451 C3467 1.429 . S
C3451 H3473 0.950 . S
C3452 H3448 0.949 . S
C3452 C3460 1.574 . S
C3452 C3468 1.368 . S
H3453 C3461 0.950 . S
H3454 C3459 0.950 . S
H3455 C3460 0.949 . S
H3456 C3462 0.950 . S
H3457 C3463 0.950 . S
H3458 C3464 0.949 . S
C3459 H3454 0.950 . S
C3459 C3461 1.327 . S
C3459 C3465 1.429 . S
C3460 C3452 1.574 . S
C3460 H3455 0.949 . S
C3460 C3466 1.368 . S
C3461 C3445 1.349 . S
C3461 H3453 0.950 . S
C3461 C3459 1.327 . S
C3462 C3450 1.349 . S
C3462 H3456 0.950 . S
C3462 C3463 1.327 . S
C3463 H3457 0.950 . S
C3463 C3462 1.327 . S
C3463 C3467 1.429 . S
C3464 C3447 1.574 . S
C3464 H3458 0.949 . S
C3464 C3468 1.368 . S
C3465 C3446 1.429 . S
C3465 C3459 1.429 . S
C3465 C3466 1.523 . S
C3466 C3447 1.368 . S
C3466 C3460 1.368 . S
C3466 C3465 1.523 . S
C3467 C3451 1.429 . S
C3467 C3463 1.429 . S
C3467 C3468 1.523 . S
C3468 C3452 1.368 . S
C3468 C3464 1.368 . S
C3468 C3467 1.523 . S
H3469 C3444 0.950 . S
H3470 C3446 0.950 . S
H3471 C3447 0.949 . S
H3472 C3449 0.950 . S
H3473 C3451 0.950 . S
C3474 C3475 1.349 . S
C3474 C3476 1.327 . S
C3474 H3499 0.950 . S
C3475 C3474 1.349 . S
C3475 C3491 1.349 . S
C3476 C3474 1.327 . S
C3476 C3495 1.429 . S
C3476 H3500 0.950 . S
C3477 C3494 1.574 . S
C3477 C3496 1.368 . S
C3477 H3501 0.949 . S
H3478 C3482 0.949 . S
C3479 C3480 1.349 . S
C3479 C3481 1.327 . S
C3479 H3502 0.950 . S
C3480 C3479 1.349 . S
C3480 C3492 1.349 . S
C3481 C3479 1.327 . S
C3481 C3497 1.429 . S
C3481 H3503 0.950 . S
C3482 H3478 0.949 . S
C3482 C3490 1.574 . S
C3482 C3498 1.368 . S
H3483 C3491 0.950 . S
H3484 C3489 0.950 . S
H3485 C3490 0.949 . S
H3486 C3492 0.950 . S
H3487 C3493 0.950 . S
H3488 C3494 0.949 . S
C3489 H3484 0.950 . S
C3489 C3491 1.327 . S
C3489 C3495 1.429 . S
C3490 C3482 1.574 . S
C3490 H3485 0.949 . S
C3490 C3496 1.368 . S
C3491 C3475 1.349 . S
C3491 H3483 0.950 . S
C3491 C3489 1.327 . S
C3492 C3480 1.349 . S
C3492 H3486 0.950 . S
C3492 C3493 1.327 . S
C3493 H3487 0.950 . S
C3493 C3492 1.327 . S
C3493 C3497 1.429 . S
C3494 C3477 1.574 . S
C3494 H3488 0.949 . S
C3494 C3498 1.368 . S
C3495 C3476 1.429 . S
C3495 C3489 1.429 . S
C3495 C3496 1.523 . S
C3496 C3477 1.368 . S
C3496 C3490 1.368 . S
C3496 C3495 1.523 . S
C3497 C3481 1.429 . S
C3497 C3493 1.429 . S
C3497 C3498 1.523 . S
C3498 C3482 1.368 . S
C3498 C3494 1.368 . S
C3498 C3497 1.523 . S
H3499 C3474 0.950 . S
H3500 C3476 0.950 . S
H3501 C3477 0.949 . S
H3502 C3479 0.950 . S
H3503 C3481 0.950 . S
C625 C268 0.997 . S
C630 C8 0.997 . S
C655 C23 0.883 . S
C660 C229 0.886 . S
C685 C34 0.960 . S
C690 C244 0.955 . S
C715 C257 0.869 . S
C720 C49 0.869 . S
C745 C309 0.871 . S
C750 C62 0.871 . S
C775 C73 0.978 . S
C780 C283 0.971 . S
C805 C88 0.847 . S
C810 C296 0.847 . S
C835 C99 0.971 . S
C840 C216 0.972 . S
C865 C112 0.937 . S
C870 C203 0.938 . S
C895 C127 0.940 . S
C900 C166 0.940 . S
C925 C138 0.897 . S
C930 C177 0.897 . S
C955 C192 0.900 . S
C960 C153 0.900 . S
C985 C322 1.117 . S
C990 C582 1.117 . S
C1015 C543 0.992 . S
C1020 C333 0.996 . S
C1045 C348 1.079 . S
C1050 C554 1.088 . S
C1075 C567 1.002 . S
C1080 C359 1.002 . S
C1105 C372 1.015 . S
C1110 C621 1.010 . S
C1135 C593 1.110 . S
C1140 C387 1.100 . S
C1165 C398 1.010 . S
C1170 C606 1.011 . S
C1195 C530 1.106 . S
C1200 C413 1.105 . S
C1225 C426 1.063 . S
C1230 C517 1.063 . S
C1255 C476 1.086 . S
C1260 C437 1.086 . S
C1285 C491 1.023 . S
C1290 C452 1.022 . S
C1315 C502 1.036 . S
C1320 C463 1.036 . S
C1345 C346 0.781 . S
C1350 C10 0.781 . S
C1375 C21 0.772 . S
C1380 C361 0.771 . S
C1405 C36 0.799 . S
C1410 C320 0.799 . S
C1435 C47 0.782 . S
C1440 C335 0.780 . S
C1465 C60 0.827 . S
C1470 C400 0.825 . S
C1495 C411 0.781 . S
C1500 C75 0.781 . S
C1525 C374 0.780 . S
C1530 C86 0.782 . S
C1555 C385 0.781 . S
C1560 C101 0.782 . S
C1585 C478 0.788 . S
C1590 C114 0.788 . S
C1615 C125 0.784 . S
C1620 C489 0.783 . S
C1645 C504 0.787 . S
C1650 C140 0.788 . S
C1675 C151 0.793 . S
C1680 C515 0.792 . S
C1705 C164 0.797 . S
C1710 C424 0.796 . S
C1735 C179 0.790 . S
C1740 C439 0.789 . S
C1765 C450 0.789 . S
C1770 C190 0.790 . S
C1795 C465 0.786 . S
C1800 C205 0.786 . S
C1825 C218 0.782 . S
C1830 C569 0.782 . S
C1855 C231 0.807 . S
C1860 C595 0.806 . S
C1885 C608 0.788 . S
C1890 C242 0.789 . S
C1915 C528 0.790 . S
C1920 C255 0.791 . S
C1945 C270 0.777 . S
C1950 C619 0.778 . S
C1975 C541 0.781 . S
C1980 C281 0.781 . S
C2005 C294 0.790 . S
C2010 C556 0.789 . S
C2035 C307 0.808 . S
C2040 C580 0.807 . S
C2065 C364 1.475 . S
C2070 C5 1.444 . S
C2095 C382 1.497 . S
C2100 C13 1.472 . S
C2125 C390 1.497 . S
C2130 C31 1.469 . S
C2155 C39 1.463 . S
C2160 C408 1.486 . S
C2185 C317 1.474 . S
C2190 C52 1.452 . S
C2215 C325 1.485 . S
C2220 C70 1.454 . S
C2245 C78 1.483 . S
C2250 C343 1.507 . S
C2275 C351 1.487 . S
C2280 C96 1.455 . S
C2305 C109 1.453 . S
C2310 C494 1.483 . S
C2335 C117 1.466 . S
C2340 C512 1.467 . S
C2365 C468 1.491 . S
C2370 C135 1.445 . S
C2395 C143 1.483 . S
C2400 C486 1.486 . S
C2425 C447 1.466 . S
C2430 C156 1.477 . S
C2455 C174 1.452 . S
C2460 C455 1.490 . S
C2485 C182 1.475 . S
C2490 C421 1.490 . S
C2515 C200 1.441 . S
C2520 C429 1.478 . S
C2545 C585 1.458 . S
C2550 C213 1.419 . S
C2575 C226 1.506 . S
C2580 C559 1.549 . S
C2605 C234 1.475 . S
C2610 C577 1.478 . S
C2635 C247 1.509 . S
C2640 C538 1.519 . S
C2665 C546 1.458 . S
C2670 C265 1.420 . S
C2695 C525 1.447 . S
C2700 C273 1.448 . S
C2725 C616 1.508 . S
C2730 C286 1.504 . S
C2755 C299 1.483 . S
C2760 C598 1.503 . S
C2785 C195 1.325 . S
C2790 C0 1.319 . S
C2815 C18 1.296 . S
C2820 C161 1.316 . S
C2845 C169 1.330 . S
C2850 C26 1.319 . S
C2875 C187 1.334 . S
C2880 C44 1.332 . S
C2905 C122 1.323 . S
C2910 C57 1.309 . S
C2935 C65 1.340 . S
C2940 C130 1.347 . S
C2965 C83 1.316 . S
C2970 C148 1.326 . S
C2995 C104 1.317 . S
C3000 C91 1.306 . S
C3025 C208 1.359 . S
C3030 C260 1.349 . S
C3055 C304 1.330 . S
C3060 C221 1.375 . S
C3085 C278 1.302 . S
C3090 C239 1.300 . S
C3115 C252 1.320 . S
C3120 C291 1.325 . S
C3145 C507 1.427 . S
C3150 C312 1.442 . S
C3175 C473 1.404 . S
C3180 C330 1.400 . S
C3205 C338 1.434 . S
C3210 C481 1.414 . S
C3235 C499 1.413 . S
C3240 C356 1.419 . S
C3265 C434 1.413 . S
C3270 C369 1.415 . S
C3295 C377 1.455 . S
C3300 C442 1.428 . S
C3325 C395 1.403 . S
C3330 C460 1.404 . S
C3355 C403 1.418 . S
C3360 C416 1.409 . S
C3385 C520 1.436 . S
C3390 C572 1.440 . S
C3415 C611 1.425 . S
C3420 C533 1.424 . S
C3445 C590 1.388 . S
C3450 C551 1.394 . S
C3475 C603 1.400 . S
C3480 C564 1.389 . S
