# Generated by pormake.
# Topology wgw, (6)-cn, num edge types: 1
# Building blocks:
#     Node 0, Type 0, BuildingBlock: OJICUG_clean_sbu_0, # of connection points: 6
#     Node 1, Type 0, BuildingBlock: OJICUG_clean_sbu_0, # of connection points: 6
#     Node 2, Type 0, BuildingBlock: OJICUG_clean_sbu_0, # of connection points: 6
#     Node 3, Type 0, BuildingBlock: OJICUG_clean_sbu_0, # of connection points: 6
#     Node 4, Type 0, BuildingBlock: OJICUG_clean_sbu_0, # of connection points: 6
#     Node 5, Type 0, BuildingBlock: OJICUG_clean_sbu_0, # of connection points: 6
#     Node 6, Type 0, BuildingBlock: OJICUG_clean_sbu_0, # of connection points: 6
#     Node 7, Type 0, BuildingBlock: OJICUG_clean_sbu_0, # of connection points: 6
#     Edge 8, Type (0, 0), BuildingBlock: ZUJKAS_clean_linker_0, # of connection points: 2
#     Edge 9, Type (0, 0), BuildingBlock: ZUJKAS_clean_linker_0, # of connection points: 2
#     Edge 10, Type (0, 0), BuildingBlock: ZUJKAS_clean_linker_0, # of connection points: 2
#     Edge 11, Type (0, 0), BuildingBlock: ZUJKAS_clean_linker_0, # of connection points: 2
#     Edge 12, Type (0, 0), BuildingBlock: ZUJKAS_clean_linker_0, # of connection points: 2
#     Edge 13, Type (0, 0), BuildingBlock: ZUJKAS_clean_linker_0, # of connection points: 2
#     Edge 14, Type (0, 0), BuildingBlock: ZUJKAS_clean_linker_0, # of connection points: 2
#     Edge 15, Type (0, 0), BuildingBlock: ZUJKAS_clean_linker_0, # of connection points: 2
#     Edge 16, Type (0, 0), BuildingBlock: ZUJKAS_clean_linker_0, # of connection points: 2
#     Edge 17, Type (0, 0), BuildingBlock: ZUJKAS_clean_linker_0, # of connection points: 2
#     Edge 18, Type (0, 0), BuildingBlock: ZUJKAS_clean_linker_0, # of connection points: 2
#     Edge 19, Type (0, 0), BuildingBlock: ZUJKAS_clean_linker_0, # of connection points: 2
#     Edge 20, Type (0, 0), BuildingBlock: ZUJKAS_clean_linker_0, # of connection points: 2
#     Edge 21, Type (0, 0), BuildingBlock: ZUJKAS_clean_linker_0, # of connection points: 2
#     Edge 22, Type (0, 0), BuildingBlock: ZUJKAS_clean_linker_0, # of connection points: 2
#     Edge 23, Type (0, 0), BuildingBlock: ZUJKAS_clean_linker_0, # of connection points: 2
#     Edge 24, Type (0, 0), BuildingBlock: ZUJKAS_clean_linker_0, # of connection points: 2
#     Edge 25, Type (0, 0), BuildingBlock: ZUJKAS_clean_linker_0, # of connection points: 2
#     Edge 26, Type (0, 0), BuildingBlock: ZUJKAS_clean_linker_0, # of connection points: 2
#     Edge 27, Type (0, 0), BuildingBlock: ZUJKAS_clean_linker_0, # of connection points: 2
#     Edge 28, Type (0, 0), BuildingBlock: ZUJKAS_clean_linker_0, # of connection points: 2
#     Edge 29, Type (0, 0), BuildingBlock: ZUJKAS_clean_linker_0, # of connection points: 2
#     Edge 30, Type (0, 0), BuildingBlock: ZUJKAS_clean_linker_0, # of connection points: 2
#     Edge 31, Type (0, 0), BuildingBlock: ZUJKAS_clean_linker_0, # of connection points: 2
# Relax obj value: 0.221
# Max RMSD: 0.288
# Mean RMSD: 0.288
data_MOF--net-wgw--node1-OJICUG_clean_sbu_0--edge1-ZUJKAS_clean_linker_0
_symmetry_space_group_name_H-M    P1
_symmetry_Int_Tables_number       1
_symmetry_cell_setting            triclinic
loop_
_symmetry_equiv_pos_as_xyz
'x, y, z'
_cell_length_a     36.97684
_cell_length_b     36.975123
_cell_length_c     54.958153
_cell_angle_alpha  89.889624
_cell_angle_beta   89.95821
_cell_angle_gamma 90.015724
loop_
_atom_site_label
_atom_site_type_symbol
_atom_site_fract_x
_atom_site_fract_y
_atom_site_fract_z
_atom_type_partial_charge
Sc0 Sc 0.09013 0.46941 0.16033 0.0
Sc1 Sc 0.03179 0.46246 0.21086 0.0
Sc2 Sc 0.02432 0.40023 0.16271 0.0
O3 O 0.04883 0.44398 0.17798 0.0
C4 C 0.03857 0.44909 0.1158 0.0
C5 C 0.04376 0.53509 0.18032 0.0
C6 C 0.95714 0.44309 0.18445 0.0
C7 C 0.11676 0.47457 0.2156 0.0
C8 C 0.10831 0.38578 0.15256 0.0
C9 C 0.02709 0.37769 0.21907 0.0
O10 O 0.0637 0.46742 0.12555 0.0
O11 O 0.02972 0.51699 0.19757 0.0
O12 O 0.97047 0.42135 0.16892 0.0
O13 O 0.12203 0.47517 0.19276 0.0
O14 O 0.07577 0.37507 0.15511 0.0
O15 O 0.03102 0.40955 0.22728 0.0
O16 O 0.11747 0.41891 0.15384 0.0
O17 O 0.08572 0.46959 0.22494 0.0
O18 O 0.02376 0.37079 0.19653 0.0
O19 O 0.06658 0.52224 0.16536 0.0
O20 O 0.0219 0.42406 0.127 0.0
O21 O 0.97608 0.45834 0.20073 0.0
Sc22 Sc 0.09289 0.02349 0.66655 0.0
Sc23 Sc 0.03465 0.02948 0.71704 0.0
Sc24 Sc 0.02462 0.09009 0.66803 0.0
O25 O 0.05079 0.04779 0.68388 0.0
C26 C 0.10798 0.10741 0.65737 0.0
C27 C 0.11941 0.02219 0.72218 0.0
C28 C 0.02469 0.11428 0.72379 0.0
C29 C 0.05125 0.95596 0.68831 0.0
C30 C 0.04062 0.04092 0.6218 0.0
C31 C 0.95965 0.0436 0.68997 0.0
O32 O 0.11878 0.07491 0.65995 0.0
O33 O 0.0886 0.0284 0.73149 0.0
O34 O 0.02359 0.12102 0.70112 0.0
O35 O 0.07054 0.97 0.67161 0.0
O36 O 0.02229 0.06472 0.63294 0.0
O37 O 0.97924 0.02802 0.70582 0.0
O38 O 0.06711 0.02455 0.63152 0.0
O39 O 0.03849 0.97414 0.70592 0.0
O40 O 0.97183 0.06734 0.6753 0.0
O41 O 0.12426 0.01871 0.69939 0.0
O42 O 0.0749 0.1166 0.65921 0.0
O43 O 0.02823 0.08256 0.73229 0.0
Sc44 Sc 0.46683 0.09407 0.16915 0.0
Sc45 Sc 0.46023 0.03381 0.2187 0.0
Sc46 Sc 0.3974 0.02875 0.1706 0.0
O47 O 0.44139 0.05229 0.18619 0.0
C48 C 0.38346 0.1131 0.1614 0.0
C49 C 0.47218 0.11829 0.225 0.0
C50 C 0.37524 0.0286 0.2269 0.0
C51 C 0.53306 0.04761 0.18849 0.0
C52 C 0.44601 0.04428 0.1239 0.0
C53 C 0.44065 0.96054 0.19082 0.0
O54 O 0.41651 0.1223 0.16342 0.0
O55 O 0.46614 0.08717 0.23398 0.0
O56 O 0.36791 0.02777 0.20432 0.0
O57 O 0.51943 0.06963 0.17324 0.0
O58 O 0.42143 0.0268 0.13498 0.0
O59 O 0.4573 0.97861 0.20696 0.0
O60 O 0.46399 0.06942 0.13388 0.0
O61 O 0.5151 0.03392 0.20595 0.0
O62 O 0.41776 0.97465 0.17638 0.0
O63 O 0.47354 0.1241 0.20222 0.0
O64 O 0.3728 0.08046 0.16318 0.0
O65 O 0.40732 0.03079 0.23502 0.0
Sc66 Sc 0.46578 0.39361 0.66352 0.0
Sc67 Sc 0.45844 0.45405 0.71262 0.0
Sc68 Sc 0.40107 0.46381 0.66185 0.0
O69 O 0.44164 0.43709 0.67935 0.0
C70 C 0.45319 0.44464 0.61742 0.0
C71 C 0.53324 0.43363 0.6867 0.0
C72 C 0.44861 0.52794 0.68331 0.0
C73 C 0.46141 0.36918 0.7196 0.0
C74 C 0.38198 0.38066 0.65231 0.0
C75 C 0.37357 0.46787 0.71685 0.0
O76 O 0.46886 0.41857 0.62816 0.0
O77 O 0.51431 0.44804 0.70334 0.0
O78 O 0.42508 0.51621 0.6684 0.0
O79 O 0.46584 0.36308 0.69701 0.0
O80 O 0.37325 0.4139 0.65386 0.0
O81 O 0.40452 0.46283 0.72627 0.0
O82 O 0.41421 0.36941 0.65531 0.0
O83 O 0.45688 0.40072 0.7282 0.0
O84 O 0.36844 0.46833 0.69401 0.0
O85 O 0.51969 0.4139 0.67013 0.0
O86 O 0.42846 0.46325 0.62739 0.0
O87 O 0.46274 0.50875 0.69997 0.0
Sc88 Sc 0.52493 0.59289 0.32725 0.0
Sc89 Sc 0.53248 0.53329 0.27755 0.0
Sc90 Sc 0.59532 0.52856 0.32564 0.0
O91 O 0.55097 0.55165 0.31011 0.0
C92 C 0.60848 0.61299 0.33463 0.0
C93 C 0.52039 0.6178 0.27142 0.0
C94 C 0.61742 0.52744 0.26931 0.0
C95 C 0.45892 0.54679 0.30706 0.0
C96 C 0.54652 0.54327 0.37248 0.0
C97 C 0.55204 0.46017 0.30587 0.0
O98 O 0.57511 0.62141 0.33341 0.0
O99 O 0.52658 0.5868 0.26235 0.0
O100 O 0.62468 0.52659 0.29189 0.0
O101 O 0.47218 0.5686 0.32256 0.0
O102 O 0.5719 0.52706 0.36143 0.0
O103 O 0.53561 0.4781 0.2895 0.0
O104 O 0.52735 0.56756 0.36246 0.0
O105 O 0.47742 0.53317 0.28988 0.0
O106 O 0.57474 0.47439 0.3204 0.0
O107 O 0.51871 0.62332 0.29421 0.0
O108 O 0.61979 0.58064 0.33228 0.0
O109 O 0.58538 0.53034 0.26123 0.0
Sc110 Sc 0.89621 0.52313 0.82317 0.0
Sc111 Sc 0.95774 0.52977 0.77439 0.0
Sc112 Sc 0.96417 0.5902 0.82371 0.0
O113 O 0.9393 0.54778 0.80708 0.0
C114 C 0.88045 0.6068 0.83326 0.0
C115 C 0.87288 0.52311 0.76704 0.0
C116 C 0.96611 0.61483 0.76792 0.0
C117 C 0.93976 0.45586 0.80211 0.0
C118 C 0.94669 0.53896 0.86902 0.0
C119 C 0.03118 0.54553 0.80303 0.0
O120 O 0.87021 0.57416 0.8307 0.0
O121 O 0.90466 0.52686 0.75864 0.0
O122 O 0.96666 0.62137 0.79062 0.0
O123 O 0.91786 0.46945 0.81744 0.0
O124 O 0.96462 0.56401 0.85873 0.0
O125 O 0.01272 0.52996 0.78662 0.0
O126 O 0.92121 0.52213 0.85848 0.0
O127 O 0.95507 0.47448 0.78564 0.0
O128 O 0.01771 0.56839 0.81774 0.0
O129 O 0.86605 0.52113 0.78969 0.0
O130 O 0.91338 0.61646 0.83142 0.0
O131 O 0.96307 0.58314 0.75931 0.0
Sc132 Sc 0.90021 0.97228 0.32859 0.0
Sc133 Sc 0.95807 0.95937 0.27843 0.0
Sc134 Sc 0.96575 0.90299 0.3298 0.0
O135 O 0.94129 0.94487 0.31228 0.0
C136 C 0.95037 0.9557 0.37442 0.0
C137 C 0.94638 0.03576 0.30481 0.0
C138 C 0.03272 0.94373 0.30626 0.0
C139 C 0.87364 0.97164 0.2731 0.0
C140 C 0.88144 0.88926 0.3395 0.0
C141 C 0.96448 0.87426 0.27484 0.0
O142 O 0.92573 0.97345 0.36369 0.0
O143 O 0.95925 0.01551 0.28824 0.0
O144 O 0.01927 0.9244 0.32319 0.0
O145 O 0.86869 0.97557 0.29581 0.0
O146 O 0.91404 0.87835 0.33767 0.0
O147 O 0.9588 0.90481 0.26499 0.0
O148 O 0.87237 0.92234 0.33699 0.0
O149 O 0.90434 0.96443 0.264 0.0
O150 O 0.96844 0.87025 0.29764 0.0
O151 O 0.92495 0.02422 0.32124 0.0
O152 O 0.96699 0.9297 0.36441 0.0
O153 O 0.01391 0.95651 0.28891 0.0
Sc154 Sc 0.52465 0.89669 0.83427 0.0
Sc155 Sc 0.53459 0.95174 0.78241 0.0
Sc156 Sc 0.59099 0.96532 0.83314 0.0
O157 O 0.55014 0.93788 0.81661 0.0
C158 C 0.53905 0.95041 0.87843 0.0
C159 C 0.45917 0.93855 0.80976 0.0
C160 C 0.5469 0.02874 0.80788 0.0
C161 C 0.5269 0.86642 0.77977 0.0
C162 C 0.60846 0.88242 0.84516 0.0
C163 C 0.61917 0.96251 0.77794 0.0
O164 O 0.52225 0.92458 0.86837 0.0
O165 O 0.47858 0.95121 0.79263 0.0
O166 O 0.56687 0.01738 0.82515 0.0
O167 O 0.52303 0.86281 0.8026 0.0
O168 O 0.61818 0.91523 0.84213 0.0
O169 O 0.58883 0.95464 0.76856 0.0
O170 O 0.57571 0.872 0.84335 0.0
O171 O 0.53238 0.89683 0.76968 0.0
O172 O 0.62328 0.9678 0.80061 0.0
O173 O 0.4717 0.9183 0.82649 0.0
O174 O 0.56457 0.96733 0.86798 0.0
O175 O 0.53494 0.00817 0.7912 0.0
H176 H 0.40424 0.58305 0.33062 0.0
H177 H 0.33908 0.57112 0.3275 0.0
H178 H 0.36094 0.47838 0.28234 0.0
H179 H 0.42548 0.4897 0.28554 0.0
H180 H 0.30282 0.57315 0.28437 0.0
H181 H 0.28249 0.43924 0.32651 0.0
H182 H 0.32218 0.46642 0.33233 0.0
H183 H 0.31985 0.43809 0.30572 0.0
C184 C 0.39513 0.55964 0.32051 0.0
C185 C 0.42001 0.53751 0.30814 0.0
C186 C 0.35794 0.55287 0.31876 0.0
C187 C 0.34519 0.52355 0.30499 0.0
C188 C 0.37012 0.50062 0.29355 0.0
H189 H 0.18598 0.49114 0.2023 0.0
H190 H 0.23684 0.50554 0.22863 0.0
C191 C 0.40708 0.50744 0.29516 0.0
C192 C 0.30621 0.51941 0.29947 0.0
H193 H 0.24085 0.45483 0.29348 0.0
C194 C 0.28887 0.54762 0.28697 0.0
C195 C 0.28777 0.4863 0.30313 0.0
C196 C 0.30396 0.45597 0.3179 0.0
C197 C 0.25495 0.54245 0.27616 0.0
C198 C 0.23829 0.50811 0.27766 0.0
C199 C 0.25403 0.48096 0.292 0.0
C200 C 0.20696 0.49881 0.26219 0.0
C201 C 0.23796 0.5733 0.26228 0.0
C202 C 0.17358 0.48913 0.27241 0.0
C203 C 0.14422 0.48075 0.25735 0.0
C204 C 0.14801 0.48156 0.23183 0.0
C205 C 0.18191 0.49038 0.22181 0.0
C206 C 0.21102 0.49887 0.23683 0.0
H207 H 0.24787 0.59988 0.26893 0.0
H208 H 0.24529 0.57101 0.24275 0.0
H209 H 0.20801 0.57263 0.26379 0.0
H210 H 0.17012 0.48857 0.29198 0.0
H211 H 0.11856 0.47394 0.26569 0.0
H212 H 0.98325 0.41829 0.77127 0.0
H213 H -0.00243 0.35441 0.77198 0.0
H214 H 0.93158 0.34009 0.83602 0.0
H215 H 0.91636 0.40481 0.83534 0.0
H216 H 0.03074 0.31297 0.80919 0.0
H217 H 0.89135 0.26548 0.78683 0.0
H218 H 0.90431 0.31219 0.78296 0.0
H219 H 0.89778 0.29408 0.81294 0.0
C220 C 0.97163 0.40182 0.7856 0.0
C221 C 0.9484 0.41678 0.80318 0.0
C222 C 0.98005 0.36522 0.78602 0.0
C223 C 0.96557 0.34256 0.80399 0.0
C224 C 0.94274 0.35717 0.82186 0.0
H225 H 0.00066 0.11158 0.77089 0.0
H226 H 0.98796 0.16298 0.7978 0.0
C227 C 0.93413 0.3941 0.82145 0.0
C228 C 0.97403 0.30356 0.8028 0.0
H229 H 0.93891 0.22458 0.78122 0.0
C230 C 0.01055 0.29327 0.80379 0.0
C231 C 0.94757 0.27795 0.79588 0.0
C232 C 0.90801 0.28774 0.79446 0.0
C233 C 0.02165 0.25904 0.79588 0.0
C234 C -0.00443 0.23472 0.78684 0.0
C235 C 0.95875 0.24357 0.78813 0.0
C236 C 0.00622 0.20328 0.77203 0.0
C237 C 0.0614 0.24996 0.79568 0.0
C238 C 0.02063 0.20921 0.74876 0.0
C239 C 0.02741 0.18018 0.7333 0.0
C240 C 0.02015 0.14464 0.74092 0.0
C241 C 0.00673 0.13868 0.76458 0.0
C242 C -0.00058 0.1679 0.77995 0.0
H243 H 0.07669 0.26678 0.80888 0.0
H244 H 0.06578 0.22094 0.80002 0.0
H245 H 0.0725 0.25523 0.77724 0.0
H246 H 0.02562 0.23646 0.74229 0.0
H247 H 0.03788 0.18562 0.71524 0.0
H248 H 0.30467 0.04561 0.21904 0.0
H249 H 0.25344 0.03436 0.24596 0.0
H250 H 0.32536 0.99193 0.30074 0.0
H251 H 0.37723 0.00346 0.27385 0.0
H252 H 0.2651 0.94545 0.28578 0.0
H253 H 0.22034 0.08323 0.31072 0.0
H254 H 0.23082 0.07889 0.27894 0.0
H255 H 0.26607 0.07318 0.30117 0.0
C256 C 0.30973 0.03438 0.23695 0.0
C257 C 0.34495 0.02531 0.2443 0.0
C258 C 0.28046 0.02823 0.25237 0.0
C259 C 0.28575 0.01272 0.2754 0.0
C260 C 0.32089 0.00429 0.28311 0.0
H261 H 0.08414 0.92412 0.34022 0.0
H262 H 0.14865 0.94016 0.34008 0.0
C263 C 0.3504 0.01093 0.26776 0.0
C264 C 0.25382 0.0022 0.28992 0.0
H265 H 0.17396 0.0369 0.31013 0.0
C266 C 0.24552 0.96528 0.29191 0.0
C267 C 0.22861 0.02822 0.29798 0.0
C268 C 0.23702 0.06812 0.29734 0.0
C269 C 0.21104 0.95383 0.29938 0.0
C270 C 0.18467 0.9801 0.30525 0.0
C271 C 0.19422 0.01684 0.30548 0.0
C272 C 0.14585 0.97079 0.30655 0.0
C273 C 0.20202 0.91404 0.29886 0.0
C274 C 0.12309 0.98302 0.28792 0.0
C275 C 0.08657 0.97405 0.28792 0.0
C276 C 0.07182 0.9526 0.30663 0.0
C277 C 0.09466 0.9405 0.32547 0.0
C278 C 0.13148 0.94959 0.32543 0.0
H279 H 0.22492 0.89738 0.29212 0.0
H280 H 0.19496 0.90477 0.31748 0.0
H281 H 0.17818 0.90924 0.28702 0.0
H282 H 0.13374 -0.00072 0.27313 0.0
H283 H 0.06997 0.98398 0.27312 0.0
H284 H 0.45076 0.29794 0.70924 0.0
H285 H 0.45994 0.24626 0.73623 0.0
H286 H 0.48684 0.31819 0.79516 0.0
H287 H 0.47734 0.3704 0.76827 0.0
H288 H 0.53953 0.26049 0.783 0.0
H289 H 0.40015 0.20935 0.79654 0.0
H290 H 0.41025 0.22126 0.76555 0.0
H291 H 0.40992 0.25581 0.78853 0.0
C292 C 0.45814 0.30287 0.72802 0.0
C293 C 0.46343 0.33824 0.73661 0.0
C294 C 0.46314 0.27333 0.74345 0.0
C295 C 0.4737 0.27855 0.76769 0.0
C296 C 0.47835 0.31376 0.77654 0.0
H297 H 0.56027 0.08276 0.84135 0.0
H298 H 0.54174 0.14649 0.83856 0.0
C299 C 0.47286 0.34346 0.76117 0.0
C300 C 0.48299 0.24676 0.78272 0.0
H301 H 0.44825 0.16586 0.80105 0.0
C302 C 0.5196 0.24009 0.78768 0.0
C303 C 0.45679 0.22053 0.78884 0.0
C304 C 0.417 0.22716 0.78482 0.0
C305 C 0.53107 0.20628 0.79641 0.0
C306 C 0.50504 0.17893 0.80062 0.0
C307 C 0.46815 0.18685 0.7977 0.0
C308 C 0.51559 0.1406 0.80358 0.0
C309 C 0.57103 0.19907 0.7991 0.0
C310 C 0.50658 0.11629 0.78504 0.0
C311 C 0.51685 0.0802 0.78658 0.0
C312 C 0.5365 0.06742 0.80676 0.0
C313 C 0.54539 0.09178 0.82549 0.0
C314 C 0.53489 0.12816 0.82393 0.0
H315 H 0.58779 0.2221 0.79261 0.0
H316 H 0.57743 0.19416 0.81855 0.0
H317 H 0.57877 0.17448 0.78875 0.0
H318 H 0.49185 0.12539 0.76912 0.0
H319 H 0.50946 0.06241 0.77177 0.0
H320 H 0.61352 0.51001 0.22078 0.0
H321 H 0.6641 0.49532 0.19354 0.0
H322 H 0.73957 0.51857 0.25114 0.0
H323 H 0.68966 0.53316 0.27845 0.0
H324 H 0.74638 0.54795 0.19223 0.0
H325 H 0.73854 0.40153 0.21588 0.0
H326 H 0.69856 0.42913 0.21224 0.0
H327 H 0.7263 0.4343 0.23874 0.0
C328 C 0.64091 0.51253 0.22754 0.0
C329 C 0.64755 0.52253 0.25186 0.0
C330 C 0.66967 0.50406 0.21196 0.0
C331 C 0.70531 0.50577 0.22049 0.0
C332 C 0.71209 0.51707 0.24435 0.0
H333 H 0.92295 0.49672 0.20918 0.0
H334 H 0.85901 0.51078 0.20992 0.0
C335 C 0.68352 0.52532 0.25993 0.0
C336 C 0.73601 0.49405 0.20533 0.0
H337 H 0.79372 0.42279 0.19931 0.0
C338 C 0.75633 0.52038 0.19309 0.0
C339 C 0.74851 0.45801 0.20627 0.0
C340 C 0.72692 0.42887 0.21888 0.0
C341 C 0.79044 0.5121 0.18343 0.0
C342 C 0.80471 0.4769 0.18671 0.0
C343 C 0.78285 0.44981 0.19693 0.0
C344 C 0.84384 0.46952 0.18397 0.0
C345 C 0.81165 0.54159 0.1709 0.0
C346 C 0.85663 0.44093 0.16953 0.0
C347 C 0.8936 0.43244 0.16921 0.0
C348 C 0.91811 0.45209 0.18365 0.0
C349 C 0.90499 0.48084 0.19788 0.0
C350 C 0.86836 0.48931 0.19809 0.0
H351 H 0.79327 0.561 0.16165 0.0
H352 H 0.82731 0.55691 0.18468 0.0
H353 H 0.83079 0.53035 0.15729 0.0
H354 H 0.838 0.42499 0.15878 0.0
H355 H 0.90283 0.41014 0.15807 0.0
H356 H 0.0139 0.9173 0.72212 0.0
H357 H -0.00159 0.85368 0.72144 0.0
H358 H 0.05194 0.84155 0.6522 0.0
H359 H 0.06819 0.90607 0.65271 0.0
H360 H 0.95756 0.81563 0.68468 0.0
H361 H 0.09772 0.76289 0.69763 0.0
H362 H 0.08682 0.80947 0.70414 0.0
H363 H 0.0885 0.79416 0.67323 0.0
C364 C 0.02253 0.90138 0.70665 0.0
C365 C 0.04245 0.91691 0.68748 0.0
C366 C 0.01347 0.86494 0.70628 0.0
C367 C 0.02402 0.84302 0.68679 0.0
C368 C 0.04378 0.85812 0.66747 0.0
H369 H 0.98798 0.61249 0.7203 0.0
H370 H -0.00052 0.664 0.69316 0.0
C371 C 0.053 0.89491 0.66782 0.0
C372 C 0.01452 0.80428 0.68777 0.0
H373 H 0.04965 0.72369 0.70656 0.0
C374 C 0.9777 0.79515 0.68871 0.0
C375 C 0.0409 0.77767 0.69285 0.0
C376 C 0.08077 0.78626 0.69201 0.0
C377 C 0.9665 0.76103 0.69686 0.0
C378 C 0.99282 0.7357 0.70428 0.0
C379 C 0.02963 0.74344 0.70094 0.0
C380 C 0.98299 0.70422 0.7194 0.0
C381 C 0.92662 0.75315 0.69903 0.0
C382 C 0.97006 0.71004 0.74307 0.0
C383 C 0.96392 0.68093 0.75866 0.0
C384 C 0.97042 0.6454 0.75081 0.0
C385 C 0.98253 0.63957 0.72683 0.0
C386 C 0.98914 0.66886 0.71131 0.0
H387 H 0.91056 0.77016 0.68633 0.0
H388 H 0.92087 0.72421 0.6953 0.0
H389 H 0.91759 0.75925 0.71785 0.0
H390 H 0.9657 0.73727 0.74971 0.0
H391 H 0.95448 0.68631 0.77697 0.0
H392 H 0.58584 0.0801 0.16074 0.0
H393 H 0.6507 0.06611 0.16067 0.0
H394 H 0.63191 0.97906 0.2115 0.0
H395 H 0.56766 0.99232 0.21147 0.0
H396 H 0.69258 0.07127 0.20078 0.0
H397 H 0.70304 0.93238 0.16556 0.0
H398 H 0.66362 0.96026 0.16039 0.0
H399 H 0.66816 0.93456 0.18815 0.0
C400 C 0.59549 0.05753 0.17151 0.0
C401 C 0.57163 0.03756 0.1863 0.0
C402 C 0.63249 0.04952 0.17138 0.0
C403 C 0.64601 0.02113 0.18572 0.0
C404 C 0.622 0.00043 0.19976 0.0
H405 H 0.80535 0.99266 0.28545 0.0
H406 H 0.75531 0.00669 0.25833 0.0
C407 C 0.58525 0.00845 0.19999 0.0
C408 C 0.68533 0.01606 0.18919 0.0
H409 H 0.7477 0.94907 0.1969 0.0
C410 C 0.70506 0.04483 0.19919 0.0
C411 C 0.70188 0.98177 0.18674 0.0
C412 C 0.6831 0.95065 0.17435 0.0
C413 C 0.7394 0.03919 0.2092 0.0
C414 C 0.75398 0.00388 0.20943 0.0
C415 C 0.73605 0.97599 0.19711 0.0
C416 C 0.78475 0.99457 0.22531 0.0
C417 C 0.7589 0.07061 0.22075 0.0
C418 C 0.81747 0.98193 0.21567 0.0
C419 C 0.84634 0.97375 0.23119 0.0
C420 C 0.84265 0.97777 0.25657 0.0
C421 C 0.80931 0.9894 0.26605 0.0
C422 C 0.7807 -0.00232 0.25057 0.0
H423 H 0.75032 0.09674 0.21258 0.0
H424 H 0.75235 0.0714 0.24045 0.0
H425 H 0.78867 0.06783 0.21877 0.0
H426 H 0.82082 0.97897 0.19619 0.0
H427 H 0.87159 0.96472 0.22328 0.0
H428 H 0.4065 0.58802 0.68518 0.0
H429 H 0.42743 0.65002 0.69178 0.0
H430 H 0.53812 0.61452 0.68395 0.0
H431 H 0.51712 0.55223 0.67907 0.0
H432 H 0.53252 0.64761 0.72346 0.0
H433 H 0.46526 0.73411 0.65564 0.0
H434 H 0.4318 0.70758 0.67104 0.0
H435 H 0.46592 0.68547 0.65287 0.0
C436 C 0.43519 0.59383 0.68419 0.0
C437 C 0.46031 0.56573 0.68172 0.0
C438 C 0.44719 0.62929 0.68774 0.0
C439 C 0.48443 0.63718 0.68809 0.0
C440 C 0.50931 0.6092 0.68377 0.0
H441 H 0.54449 0.85906 0.73143 0.0
H442 H 0.53946 0.80437 0.70648 0.0
C443 C 0.49736 0.57369 0.68095 0.0
C444 C 0.49741 0.67277 0.69698 0.0
H445 H 0.48081 0.7635 0.69422 0.0
C446 C 0.5218 0.67294 0.71658 0.0
C447 C 0.48411 0.70607 0.68791 0.0
C448 C 0.46066 0.70826 0.66552 0.0
C449 C 0.53135 0.70508 0.72831 0.0
C450 C 0.51502 0.73782 0.72088 0.0
C451 C 0.49267 0.73819 0.70024 0.0
C452 C 0.51839 0.77105 0.73563 0.0
C453 C 0.5583 0.70343 0.74891 0.0
C454 C 0.50763 0.7705 0.7601 0.0
C455 C 0.51076 0.80137 0.77439 0.0
C456 C 0.52413 0.83375 0.7644 0.0
C457 C 0.5342 0.83451 0.73969 0.0
C458 C 0.53133 0.80336 0.72541 0.0
H459 H 0.57738 0.68049 0.74651 0.0
H460 H 0.57413 0.72886 0.75031 0.0
H461 H 0.54365 0.69906 0.7663 0.0
H462 H 0.49656 0.74613 0.76816 0.0
H463 H 0.50226 0.79989 0.79323 0.0
H464 H 0.87576 0.50225 0.71927 0.0
H465 H 0.82446 0.49018 0.69214 0.0
H466 H 0.75062 0.52278 0.74875 0.0
H467 H 0.80135 0.53456 0.77595 0.0
H468 H 0.7666 0.4389 0.70536 0.0
H469 H 0.71528 0.5765 0.68591 0.0
H470 H 0.76152 0.56774 0.6949 0.0
H471 H 0.72625 0.56968 0.71742 0.0
C472 C 0.84859 0.50741 0.72577 0.0
C473 C 0.84253 0.51924 0.74978 0.0
C474 C 0.81942 0.50047 0.71027 0.0
C475 C 0.78394 0.50603 0.71841 0.0
C476 C 0.77792 0.51889 0.74205 0.0
H477 H 0.57165 0.46741 0.72214 0.0
H478 H 0.63517 0.48362 0.72195 0.0
C479 C 0.80691 0.52536 0.75762 0.0
C480 C 0.75262 0.49534 0.70346 0.0
H481 H 0.67116 0.52804 0.68478 0.0
C482 C 0.74609 0.45832 0.70001 0.0
C483 C 0.72625 0.52085 0.69639 0.0
C484 C 0.73278 0.56097 0.69861 0.0
C485 C 0.71216 0.44598 0.69215 0.0
C486 C 0.68457 0.47147 0.68746 0.0
C487 C 0.6924 0.50858 0.68853 0.0
C488 C 0.6462 0.46061 0.68657 0.0
C489 C 0.70491 0.40587 0.69111 0.0
C490 C 0.63146 0.44187 0.66674 0.0
C491 C 0.59476 0.43229 0.66678 0.0
C492 C 0.57249 0.44151 0.68663 0.0
C493 C 0.58779 0.45996 0.70648 0.0
C494 C 0.62415 0.46939 0.70641 0.0
H495 H 0.7291 0.38961 0.69602 0.0
H496 H 0.68252 0.39876 0.70372 0.0
H497 H 0.69632 0.39831 0.67245 0.0
H498 H 0.64816 0.43504 0.65122 0.0
H499 H 0.58376 0.41824 0.65118 0.0
H500 H 0.08621 0.59431 0.18538 0.0
H501 H 0.0651 0.65647 0.19164 0.0
H502 H 0.95577 0.6229 0.17587 0.0
H503 H 0.97664 0.56036 0.1712 0.0
H504 H 0.02823 0.70954 0.16874 0.0
H505 H 0.94629 0.65409 0.24518 0.0
H506 H 0.97801 0.62679 0.2285 0.0
H507 H 0.93429 0.6369 0.2158 0.0
C508 C 0.05786 0.60056 0.18273 0.0
C509 C 0.03286 0.57296 0.17813 0.0
C510 C 0.04579 0.63596 0.18626 0.0
C511 C 0.0087 0.64406 0.18488 0.0
C512 C 0.98431 0.617 0.17774 0.0
H513 H 0.94491 0.86665 0.22685 0.0
H514 H 0.95112 0.8124 0.20154 0.0
C515 C -0.00377 0.58147 0.1749 0.0
C516 C -0.00453 0.6793 0.19399 0.0
H517 H 0.94625 0.71671 0.24004 0.0
C518 C 0.00998 0.71125 0.18416 0.0
C519 C 0.97184 0.6813 0.21426 0.0
C520 C 0.95693 0.648 0.22672 0.0
C521 C 0.00282 0.74505 0.19474 0.0
C522 C 0.97985 0.74682 0.21529 0.0
C523 C 0.96379 0.71513 0.22424 0.0
C524 C 0.97579 0.78009 0.22991 0.0
C525 C 0.02152 0.77819 0.18477 0.0
C526 C 0.98685 0.77956 0.2543 0.0
C527 C 0.98281 0.81005 0.26883 0.0
C528 C 0.96783 0.84194 0.25923 0.0
C529 C 0.95675 0.84253 0.23472 0.0
C530 C 0.96047 0.81168 0.2202 0.0
H531 H 0.0433 0.77116 0.17167 0.0
H532 H 0.00146 0.79536 0.17517 0.0
H533 H 0.03343 0.79442 0.19974 0.0
H534 H -0.00121 0.75544 0.26214 0.0
H535 H 0.99186 0.80866 0.28755 0.0
H536 H 0.92698 0.98705 0.71292 0.0
H537 H 0.86297 0.973 0.71457 0.0
H538 H 0.84001 0.06234 0.66642 0.0
H539 H 0.90465 0.07718 0.6649 0.0
H540 H 0.80019 0.06455 0.70758 0.0
H541 H 0.79044 0.92738 0.66926 0.0
H542 H 0.82619 0.9291 0.69121 0.0
H543 H 0.82915 0.95621 0.66397 0.0
C544 C 0.90852 0.00357 0.70239 0.0
C545 C 0.92096 0.03352 0.68897 0.0
C546 C 0.87188 0.99511 0.70308 0.0
C547 C 0.84679 0.01615 0.69022 0.0
C548 C 0.85906 0.04549 0.67621 0.0
H549 H 0.62205 0.95656 0.72809 0.0
H550 H 0.67328 0.97136 0.7015 0.0
C551 C 0.89594 0.05398 0.67544 0.0
C552 C 0.80777 0.01014 0.6945 0.0
H553 H 0.74651 0.94188 0.70147 0.0
C554 C 0.78802 0.03803 0.70555 0.0
C555 C 0.79164 0.97573 0.69152 0.0
C556 C 0.81042 0.94557 0.67808 0.0
C557 C 0.75405 0.03137 0.71589 0.0
C558 C 0.73989 -0.00412 0.7154 0.0
C559 C 0.75787 0.96891 0.70223 0.0
C560 C 0.70914 0.98551 0.73104 0.0
C561 C 0.73445 0.0619 0.72841 0.0
C562 C 0.71296 0.98749 0.75636 0.0
C563 C 0.68405 0.97894 0.77157 0.0
C564 C 0.65067 0.96815 0.76172 0.0
C565 C 0.64733 0.96494 0.73628 0.0
C566 C 0.67646 0.97343 0.72104 0.0
H567 H 0.74273 0.08859 0.72092 0.0
H568 H 0.70469 0.059 0.72653 0.0
H569 H 0.74122 0.06156 0.74808 0.0
H570 H 0.73832 -0.00397 0.76438 0.0
H571 H 0.68777 0.98149 0.79103 0.0
H572 H 0.49607 0.92404 0.21229 0.0
H573 H 0.50756 0.85943 0.21187 0.0
H574 H 0.41576 0.84314 0.16477 0.0
H575 H 0.4036 0.90839 0.16526 0.0
H576 H 0.41419 0.79994 0.205 0.0
H577 H 0.54876 0.78941 0.16255 0.0
H578 H 0.54907 0.82379 0.18549 0.0
H579 H 0.52056 0.82904 0.15911 0.0
C580 C 0.47842 0.90692 0.20159 0.0
C581 C 0.44869 0.92142 0.18896 0.0
C582 C 0.48539 0.86995 0.20109 0.0
C583 C 0.463 0.84656 0.18786 0.0
C584 C 0.43366 0.86086 0.17481 0.0
H585 H 0.52049 0.61913 0.22124 0.0
H586 H 0.50348 0.67001 0.19478 0.0
C587 C 0.42671 0.89809 0.17519 0.0
C588 C 0.46798 0.80706 0.19061 0.0
H589 H 0.53497 0.7438 0.19392 0.0
C590 C 0.44022 0.78725 0.20183 0.0
C591 C 0.5017 0.79025 0.18611 0.0
C592 C 0.53154 0.8092 0.17239 0.0
C593 C 0.44663 0.7525 0.21106 0.0
C594 C 0.48169 0.73756 0.20921 0.0
C595 C 0.50827 0.75566 0.19567 0.0
C596 C 0.4926 0.70662 0.22453 0.0
C597 C 0.41649 0.73297 0.22412 0.0
C598 C 0.49307 0.71093 0.24983 0.0
C599 C 0.50296 0.68233 0.2649 0.0
C600 C 0.51265 0.64865 0.25498 0.0
C601 C 0.51307 0.64465 0.22948 0.0
C602 C 0.50329 0.67357 0.21434 0.0
H603 H 0.38956 0.74209 0.21758 0.0
H604 H 0.41867 0.70325 0.22162 0.0
H605 H 0.41818 0.73888 0.24388 0.0
H606 H 0.4856 0.73654 0.25797 0.0
H607 H 0.50246 0.6866 0.28439 0.0
H608 H 0.30472 0.48522 0.70334 0.0
H609 H 0.25415 0.50129 0.7295 0.0
H610 H 0.32029 0.48419 0.79305 0.0
H611 H 0.37159 0.46792 0.76692 0.0
H612 H 0.24847 0.45197 0.79451 0.0
H613 H 0.2456 0.5968 0.76915 0.0
H614 H 0.24814 0.56765 0.74312 0.0
H615 H 0.28489 0.56852 0.76456 0.0
C616 C 0.30871 0.48474 0.72285 0.0
C617 C 0.34238 0.47546 0.73299 0.0
C618 C 0.27979 0.4942 0.73777 0.0
C619 C 0.28381 0.49462 0.76312 0.0
C620 C 0.31691 0.4844 0.77347 0.0
H621 H 0.08487 0.58252 0.82711 0.0
H622 H 0.1501 0.57034 0.82564 0.0
C623 C 0.34609 0.47506 0.7585 0.0
C624 C 0.25267 0.50497 0.77842 0.0
H625 H 0.18931 0.57136 0.78368 0.0
C626 C 0.23592 0.47835 0.79271 0.0
C627 C 0.23687 0.53965 0.77652 0.0
C628 C 0.25501 0.56994 0.76271 0.0
C629 C 0.20189 0.48451 0.80323 0.0
C630 C 0.18422 0.51786 0.79896 0.0
C631 C 0.20266 0.54563 0.78671 0.0
C632 C 0.14501 0.52249 0.80329 0.0
C633 C 0.18448 0.45467 0.81786 0.0
C634 C 0.12067 0.49961 0.79127 0.0
C635 C 0.0837 0.50658 0.79191 0.0
C636 C 0.07017 0.53678 0.80448 0.0
C637 C 0.09445 0.55904 0.81727 0.0
C638 C 0.13166 0.5521 0.8165 0.0
H639 H 0.20525 0.43788 0.82713 0.0
H640 H 0.1656 0.46563 0.83173 0.0
H641 H 0.16909 0.43672 0.80546 0.0
H642 H 0.13038 0.47719 0.78042 0.0
H643 H 0.06581 0.48871 0.78197 0.0
H644 H 0.00712 0.37929 0.26712 0.0
H645 H -0.00203 0.32718 0.29425 0.0
H646 H 0.03313 0.25547 0.23717 0.0
H647 H 0.04192 0.30696 0.20998 0.0
H648 H 0.94915 0.26675 0.28057 0.0
H649 H 0.0892 0.22229 0.29995 0.0
H650 H 0.07805 0.26818 0.29128 0.0
H651 H 0.08149 0.23345 0.26854 0.0
C652 C 0.01346 0.35244 0.26052 0.0
C653 C 0.02506 0.34714 0.23639 0.0
C654 C 0.0082 0.3228 0.27602 0.0
C655 C 0.01529 0.28767 0.26774 0.0
C656 C 0.02804 0.28249 0.24397 0.0
H657 H 0.98867 0.0699 0.27128 0.0
H658 H 0.00508 0.13335 0.26949 0.0
C659 C 0.03278 0.3119 0.22841 0.0
C660 C 0.00617 0.2557 0.28266 0.0
H661 H 0.04286 0.17647 0.30249 0.0
C662 C 0.96953 0.24732 0.28611 0.0
C663 C 0.03294 0.2307 0.28987 0.0
C664 C 0.07267 0.23919 0.28745 0.0
C665 C 0.95884 0.21298 0.29436 0.0
C666 C 0.98567 0.18685 0.29968 0.0
C667 C 0.02235 0.1965 0.29828 0.0
C668 C 0.97659 0.14808 0.30241 0.0
C669 C 0.91906 0.20394 0.29531 0.0
C670 C 0.95525 0.13516 0.3217 0.0
C671 C 0.94541 0.09857 0.32271 0.0
C672 C 0.957 0.07442 0.30451 0.0
C673 C 0.97906 0.08757 0.2856 0.0
C674 C 0.98867 0.12391 0.28457 0.0
H675 H 0.902 0.22594 0.28769 0.0
H676 H 0.91353 0.17871 0.28504 0.0
H677 H 0.91085 0.19941 0.31449 0.0
H678 H 0.94607 0.15334 0.33583 0.0
H679 H 0.92866 0.08929 0.33765 0.0
H680 H 0.42649 0.99164 0.78344 0.0
H681 H 0.36263 0.00658 0.78192 0.0
H682 H 0.33973 0.92404 0.83532 0.0
H683 H 0.40424 0.90846 0.83689 0.0
H684 H 0.29798 0.91873 0.79398 0.0
H685 H 0.29401 0.05906 0.82765 0.0
H686 H 0.3292 0.05376 0.80548 0.0
H687 H 0.33153 0.02904 0.83374 0.0
C688 C 0.40807 0.97675 0.79508 0.0
C689 C 0.42047 0.9486 0.81014 0.0
C690 C 0.37156 0.98574 0.79444 0.0
C691 C 0.34658 0.96695 0.80889 0.0
C692 C 0.35875 0.93919 0.8243 0.0
H693 H 0.12177 0.02807 0.77206 0.0
H694 H 0.17275 0.01324 0.79884 0.0
C695 C 0.39553 0.93026 0.82509 0.0
C696 C 0.30759 0.97371 0.80522 0.0
H697 H 0.24816 0.04326 0.79718 0.0
C698 C 0.28663 0.9457 0.79541 0.0
C699 C 0.29263 0.00876 0.8074 0.0
C700 C 0.31297 0.03924 0.81941 0.0
C701 C 0.25252 0.95271 0.78541 0.0
C702 C 0.23942 0.98859 0.78509 0.0
C703 C 0.25866 0.01587 0.79712 0.0
C704 C 0.20879 -0.00109 0.76942 0.0
C705 C 0.23168 0.92211 0.77393 0.0
C706 C 0.21281 -0.00327 0.74412 0.0
C707 C 0.18409 0.00537 0.72881 0.0
C708 C 0.15067 0.01633 0.73853 0.0
C709 C 0.14708 0.01956 0.76397 0.0
C710 C 0.17607 0.01106 0.77931 0.0
H711 H 0.23985 0.89553 0.78162 0.0
H712 H 0.20211 0.92571 0.77655 0.0
H713 H 0.23726 0.9217 0.75409 0.0
H714 H 0.23819 0.98798 0.7362 0.0
H715 H 0.18798 0.0027 0.70936 0.0
H716 H 0.49652 0.42368 0.28461 0.0
H717 H 0.48509 0.35906 0.28509 0.0
H718 H 0.57703 0.34272 0.3321 0.0
H719 H 0.58912 0.40801 0.33154 0.0
H720 H 0.57864 0.29972 0.29194 0.0
H721 H 0.44408 0.28859 0.33431 0.0
H722 H 0.44364 0.32312 0.31139 0.0
H723 H 0.47216 0.32828 0.33776 0.0
C724 C 0.5142 0.40655 0.29531 0.0
C725 C 0.54396 0.42105 0.30788 0.0
C726 C 0.50727 0.36956 0.29584 0.0
C727 C 0.52973 0.34615 0.30905 0.0
C728 C 0.55907 0.36045 0.32207 0.0
H729 H 0.47187 0.11915 0.27518 0.0
H730 H 0.489 0.1697 0.30177 0.0
C731 C 0.56599 0.3977 0.32166 0.0
C732 C 0.52481 0.30665 0.30628 0.0
H733 H 0.45787 0.24334 0.30279 0.0
C734 C 0.55261 0.28698 0.29505 0.0
C735 C 0.49111 0.28974 0.31073 0.0
C736 C 0.46124 0.3085 0.32448 0.0
C737 C 0.54625 0.25231 0.28575 0.0
C738 C 0.51119 0.23732 0.28752 0.0
C739 C 0.48458 0.25524 0.30108 0.0
C740 C 0.50031 0.20653 0.27212 0.0
C741 C 0.57644 0.23293 0.27271 0.0
C742 C 0.50005 0.21105 0.24681 0.0
C743 C 0.49007 0.18264 0.23167 0.0
C744 C 0.4801 0.14894 0.24151 0.0
C745 C 0.47952 0.1447 0.267 0.0
C746 C 0.48937 0.17343 0.28221 0.0
H747 H 0.60334 0.24195 0.27936 0.0
H748 H 0.57421 0.20318 0.27509 0.0
H749 H 0.57489 0.23913 0.25297 0.0
H750 H 0.5077 0.2367 0.23873 0.0
H751 H 0.49072 0.18709 0.21219 0.0
H752 H 0.10122 0.31193 0.15189 0.0
H753 H 0.14955 0.26693 0.15024 0.0
H754 H 0.22884 0.35197 0.14423 0.0
H755 H 0.18091 0.39729 0.1461 0.0
H756 H 0.20478 0.25452 0.11466 0.0
H757 H 0.26075 0.29376 0.20471 0.0
H758 H 0.2165 0.30779 0.19457 0.0
H759 H 0.25624 0.33005 0.18314 0.0
C760 C 0.12889 0.32116 0.15004 0.0
C761 C 0.13714 0.35832 0.14935 0.0
C762 C 0.15645 0.29536 0.14908 0.0
C763 C 0.19271 0.30621 0.14752 0.0
C764 C 0.20102 0.34313 0.14589 0.0
H765 H 0.39451 0.18607 0.15614 0.0
H766 H 0.34883 0.23317 0.15078 0.0
C767 C 0.17352 0.36897 0.14685 0.0
C768 C 0.22189 0.27889 0.14828 0.0
H769 H 0.29283 0.2494 0.18268 0.0
C770 C 0.22408 0.25335 0.12949 0.0
C771 C 0.24696 0.27755 0.16768 0.0
C772 C 0.24497 0.30352 0.18881 0.0
C773 C 0.25097 0.22656 0.1295 0.0
C774 C 0.27581 0.225 0.14904 0.0
C775 C 0.2738 0.25077 0.16769 0.0
C776 C 0.30347 0.19622 0.15095 0.0
C777 C 0.25285 0.20047 0.10847 0.0
C778 C 0.29303 0.15987 0.15297 0.0
C779 C 0.31902 0.13285 0.15602 0.0
C780 C 0.35601 0.1417 0.1573 0.0
C781 C 0.36633 0.17822 0.15519 0.0
C782 C 0.34028 0.20521 0.15212 0.0
H783 H 0.23893 0.21132 0.0921 0.0
H784 H 0.28133 0.19422 0.10364 0.0
H785 H 0.23928 0.17483 0.11369 0.0
H786 H 0.2647 0.15245 0.15267 0.0
H787 H 0.31 0.10509 0.15772 0.0
H788 H 0.18178 0.10046 0.65513 0.0
H789 H 0.22652 0.14865 0.65041 0.0
H790 H 0.14098 0.22736 0.64445 0.0
H791 H 0.09596 0.17961 0.64943 0.0
H792 H 0.23656 0.20052 0.61259 0.0
H793 H 0.20306 0.26473 0.7012 0.0
H794 H 0.18815 0.21977 0.69332 0.0
H795 H 0.16543 0.25863 0.68097 0.0
C796 C 0.17239 0.12797 0.65271 0.0
C797 C 0.1352 0.13613 0.6529 0.0
C798 C 0.19803 0.15546 0.64998 0.0
C799 C 0.18701 0.19155 0.64747 0.0
C800 C 0.15 0.19971 0.64682 0.0
H801 H 0.30932 0.39275 0.64629 0.0
H802 H 0.26142 0.3476 0.64231 0.0
C803 C 0.12433 0.1723 0.64959 0.0
C804 C 0.2143 0.22075 0.64612 0.0
H805 H 0.24604 0.29456 0.67656 0.0
C806 C 0.23866 0.22114 0.62654 0.0
C807 C 0.21684 0.24758 0.66435 0.0
C808 C 0.19222 0.24765 0.68628 0.0
C809 C 0.26552 0.24784 0.62464 0.0
C810 C 0.26835 0.27438 0.64304 0.0
C811 C 0.24367 0.27424 0.66244 0.0
C812 C 0.29763 0.30168 0.6432 0.0
C813 C 0.29039 0.24763 0.60287 0.0
C814 C 0.33385 0.29077 0.64496 0.0
C815 C 0.36133 0.31645 0.64722 0.0
C816 C 0.35308 0.3536 0.64797 0.0
C817 C 0.31673 0.36442 0.64576 0.0
C818 C 0.28928 0.33867 0.64349 0.0
H819 H 0.27839 0.23257 0.58737 0.0
H820 H 0.29674 0.27559 0.5968 0.0
H821 H 0.31612 0.23411 0.60789 0.0
H822 H 0.34081 0.26232 0.64531 0.0
H823 H 0.38895 0.30706 0.64898 0.0
H824 H 0.80825 0.90051 0.3432 0.0
H825 H 0.76059 0.8549 0.34627 0.0
H826 H 0.84101 0.7705 0.34669 0.0
H827 H 0.88888 0.81574 0.34396 0.0
H828 H 0.74702 0.80088 0.31278 0.0
H829 H 0.77601 0.7413 0.40334 0.0
H830 H 0.79466 0.7841 0.39363 0.0
H831 H 0.81457 0.74238 0.38349 0.0
C832 C 0.81592 0.87229 0.3443 0.0
C833 C 0.85253 0.8619 0.34337 0.0
C834 C 0.78858 0.84625 0.34602 0.0
C835 C 0.79725 0.80934 0.34702 0.0
C836 C 0.83371 0.79886 0.34648 0.0
H837 H 0.68231 0.60685 0.33739 0.0
H838 H 0.7267 0.65547 0.34115 0.0
C839 C 0.86107 0.82484 0.34477 0.0
C840 C 0.76817 0.78168 0.34693 0.0
H841 H 0.73537 0.70847 0.37788 0.0
C842 C 0.74421 0.7809 0.32714 0.0
C843 C 0.76467 0.75556 0.36563 0.0
C844 C 0.78862 0.75598 0.38785 0.0
C845 C 0.71748 0.7541 0.32518 0.0
C846 C 0.71426 0.72772 0.34374 0.0
C847 C 0.73794 0.72871 0.36368 0.0
C848 C 0.687 0.69836 0.34245 0.0
C849 C 0.69367 0.75355 0.30289 0.0
C850 C 0.64991 0.70633 0.3424 0.0
C851 C 0.62438 0.67861 0.34021 0.0
C852 C 0.63546 0.6423 0.33817 0.0
C853 C 0.67271 0.63443 0.33885 0.0
C854 C 0.69818 0.66218 0.34103 0.0
H855 H 0.70507 0.77021 0.28788 0.0
H856 H 0.68984 0.72548 0.29621 0.0
H857 H 0.6667 0.76467 0.30761 0.0
H858 H 0.6407 0.73404 0.34392 0.0
H859 H 0.59598 0.68575 0.3399 0.0
H860 H 0.68222 0.89129 0.84529 0.0
H861 H 0.72833 0.84391 0.84691 0.0
H862 H 0.64521 0.76316 0.85561 0.0
H863 H 0.59887 0.81006 0.85382 0.0
H864 H 0.74398 0.78854 0.88242 0.0
H865 H 0.70017 0.73233 0.79345 0.0
H866 H 0.68626 0.77641 0.80396 0.0
H867 H 0.66498 0.7364 0.81583 0.0
C868 C 0.67368 0.86352 0.84783 0.0
C869 C 0.63672 0.85453 0.84915 0.0
C870 C 0.70011 0.83649 0.84875 0.0
C871 C 0.69008 0.80005 0.85092 0.0
C872 C 0.65342 0.79111 0.85346 0.0
H873 H 0.8075 0.59755 0.83987 0.0
H874 H 0.76175 0.64428 0.84613 0.0
C875 C 0.62699 0.81803 0.85252 0.0
C876 C 0.71778 0.77123 0.84948 0.0
H877 H 0.74535 0.70002 0.81467 0.0
C878 C 0.74438 0.76918 0.86762 0.0
C879 C 0.71816 0.7461 0.83011 0.0
C880 C 0.69109 0.74795 0.80959 0.0
C881 C 0.7711 0.74218 0.86711 0.0
C882 C 0.77153 0.7171 0.84769 0.0
C883 C 0.74486 0.71919 0.82959 0.0
C884 C 0.79971 0.68881 0.84543 0.0
C885 C 0.79822 0.74034 0.88758 0.0
C886 C 0.83624 0.69836 0.84286 0.0
C887 C 0.86252 0.67172 0.83931 0.0
C888 C 0.85274 0.63496 0.83805 0.0
C889 C 0.81607 0.62552 0.84076 0.0
C890 C 0.78985 0.6522 0.84435 0.0
H891 H 0.78832 0.75457 0.90408 0.0
H892 H 0.80445 0.71186 0.89246 0.0
H893 H 0.8237 0.7536 0.8817 0.0
H894 H 0.84435 0.7265 0.84306 0.0
H895 H 0.89041 0.68007 0.83715 0.0
H896 H -0.00111 0.56851 0.89826 0.0
H897 H 0.01399 0.55156 0.94 0.0
H898 H 0.93112 0.46953 0.93897 0.0
H899 H 0.91541 0.48644 0.89731 0.0
H900 H 0.93028 0.51334 0.98078 0.0
H901 H 0.0677 0.45982 0.96179 0.0
H902 H 0.05992 0.50475 0.95047 0.0
H903 H 0.03471 0.46748 0.93813 0.0
C904 C 0.98388 0.54679 0.90683 0.0
C905 C 0.95598 0.52878 0.89435 0.0
C906 C 0.99272 0.53702 0.93065 0.0
C907 C 0.97402 0.50895 0.94237 0.0
C908 C 0.94597 0.49114 0.93013 0.0
H909 H 0.98641 0.41631 0.08804 0.0
H910 H 0.96995 0.43017 0.04598 0.0
C911 C 0.93708 0.50087 0.90632 0.0
C912 C 0.98317 0.49876 0.96765 0.0
H913 H 0.05178 0.46735 0.00337 0.0
C914 C 0.95674 0.50305 0.98575 0.0
C915 C 0.01772 0.48534 0.97396 0.0
C916 C 0.04658 0.47872 0.95506 0.0
C917 C 0.96427 0.49513 0.0102 0.0
C918 C -0.00105 0.48207 0.01654 0.0
C919 C 0.02526 0.47747 -0.0016 0.0
C920 C 0.00875 0.47359 0.04198 0.0
C921 C 0.93543 0.5017 0.02912 0.0
C922 C 0.03651 0.49293 0.05343 0.0
C923 C 0.04616 0.48501 0.07739 0.0
C924 C 0.0283 0.45739 0.09034 0.0
C925 C 0.00063 0.43785 0.07869 0.0
C926 C 0.99103 0.44583 0.05469 0.0
H927 H 0.91355 0.51951 0.02214 0.0
H928 H 0.92312 0.47547 0.03443 0.0
H929 H 0.94717 0.5142 0.04568 0.0
H930 H 0.05059 0.51436 0.04383 0.0
H931 H 0.06762 0.50059 0.08573 0.0
H932 H 0.987 0.07099 0.59395 0.0
H933 H 0.97119 0.05619 0.55197 0.0
H934 H 0.05622 0.97649 0.54998 0.0
H935 H 0.07215 0.99071 0.59199 0.0
H936 H 0.01703 0.06 0.51037 0.0
H937 H 0.96575 0.92084 0.52697 0.0
H938 H 0.97161 0.95338 0.5511 0.0
H939 H 0.01004 0.92975 0.53898 0.0
C940 C 0.0023 0.05018 0.58467 0.0
C941 C 0.0308 0.03196 0.59641 0.0
C942 C 0.99322 0.04183 0.56068 0.0
C943 C 0.01226 0.01497 0.54808 0.0
C944 C 0.04081 -0.00314 0.55961 0.0
H945 H 0.00286 0.92564 0.40315 0.0
H946 H 0.01814 0.94139 0.44502 0.0
C947 C 0.04997 0.0052 0.58358 0.0
C948 C 0.00284 0.00651 0.52262 0.0
H949 H 0.97259 0.93883 0.48578 0.0
C950 C 0.00713 0.0336 0.50495 0.0
C951 C 0.99005 0.97199 0.51574 0.0
C952 C 0.98375 0.94235 0.53419 0.0
C953 C -0.00042 0.02685 0.48038 0.0
C954 C 0.98682 0.99231 0.47349 0.0
C955 C 0.98244 0.96526 0.49119 0.0
C956 C 0.97789 0.98359 0.44798 0.0
C957 C 0.00612 0.05643 0.46194 0.0
C958 C 0.95 0.00198 0.43591 0.0
C959 C 0.94119 0.99314 0.41195 0.0
C960 C 0.95998 0.96551 0.39971 0.0
C961 C 0.98784 0.94706 0.41198 0.0
C962 C -0.00338 0.95598 0.43591 0.0
H963 H 0.02431 0.07779 0.46916 0.0
H964 H 0.01817 0.04533 0.44501 0.0
H965 H 0.97995 0.06928 0.45717 0.0
H966 H 0.93477 0.02291 0.44512 0.0
H967 H 0.91948 0.00778 0.40313 0.0
H968 H 0.48562 0.92106 0.90672 0.0
H969 H 0.46841 0.93833 0.94797 0.0
H970 H 0.55116 0.02052 0.94816 0.0
H971 H 0.56845 0.00382 0.90676 0.0
H972 H 0.51286 0.93782 0.98955 0.0
H973 H 0.45963 0.07522 0.96964 0.0
H974 H 0.46686 0.04181 0.94622 0.0
H975 H 0.50444 0.06675 0.95835 0.0
C976 C 0.50012 0.94294 0.91543 0.0
C977 C 0.52841 0.9611 0.90337 0.0
C978 C 0.49021 0.95274 0.93901 0.0
C979 C 0.50822 0.98096 0.95091 0.0
C980 C 0.53651 -0.0009 0.93905 0.0
H981 H 0.49728 0.07462 0.0943 0.0
H982 H 0.51176 0.0584 0.0524 0.0
C983 C 0.54647 0.98935 0.91544 0.0
C984 C 0.49817 0.99052 0.97609 0.0
H985 H 0.46592 0.05925 0.01128 0.0
C986 C 0.50241 0.96428 0.99433 0.0
C987 C 0.48462 0.0251 0.98214 0.0
C988 C 0.47827 0.0538 0.96306 0.0
C989 C 0.49408 0.97194 0.01866 0.0
C990 C 0.48061 0.00654 0.02473 0.0
C991 C 0.47627 0.03276 0.00648 0.0
C992 C 0.47136 0.01625 0.05001 0.0
C993 C 0.50058 0.94326 0.03775 0.0
C994 C 0.44352 -0.00184 0.06238 0.0
C995 C 0.43515 0.00727 0.08637 0.0
C996 C 0.45438 0.03483 0.09835 0.0
C997 C 0.48195 0.05321 0.0857 0.0
C998 C 0.49028 0.04404 0.06173 0.0
H999 H 0.51886 0.92161 0.03104 0.0
H1000 H 0.5125 0.95524 0.05443 0.0
H1001 H 0.4744 0.9306 0.04277 0.0
H1002 H 0.42819 0.97705 0.05343 0.0
H1003 H 0.41364 0.99269 0.0955 0.0
H1004 H 0.49586 0.57269 0.40298 0.0
H1005 H 0.48272 0.55545 0.44497 0.0
H1006 H 0.56616 0.47415 0.44209 0.0
H1007 H 0.57942 0.49086 0.39997 0.0
H1008 H 0.49922 0.44971 0.46111 0.0
H1009 H 0.54502 0.5765 0.50546 0.0
H1010 H 0.5135 0.58308 0.48099 0.0
H1011 H 0.55751 0.56467 0.47471 0.0
C1012 C 0.51158 0.55124 0.41125 0.0
C1013 C 0.53881 0.53326 0.39808 0.0
C1014 C 0.50414 0.54158 0.4353 0.0
C1015 C 0.52385 0.51393 0.44667 0.0
C1016 C 0.55084 0.49574 0.43362 0.0
H1017 H 0.50628 0.41301 0.58981 0.0
H1018 H 0.5245 0.42896 0.54839 0.0
C1019 C 0.55837 0.50538 0.40956 0.0
C1020 C 0.51545 0.50322 0.47196 0.0
H1021 H 0.51229 0.53498 0.53016 0.0
C1022 C 0.50232 0.46819 0.47628 0.0
C1023 C 0.51957 0.5275 0.4916 0.0
C1024 C 0.53497 0.56494 0.48808 0.0
C1025 C 0.49216 0.45708 0.49972 0.0
C1026 C 0.49587 0.48151 0.51932 0.0
C1027 C 0.50944 0.51639 0.51504 0.0
C1028 C 0.48503 0.47174 0.54437 0.0
C1029 C 0.47655 0.41971 0.50321 0.0
C1030 C 0.45734 0.49105 0.55594 0.0
C1031 C 0.44696 0.48219 0.57963 0.0
C1032 C 0.46422 0.45389 0.59225 0.0
C1033 C 0.49222 0.43478 0.5806 0.0
C1034 C 0.50259 0.44373 0.55689 0.0
H1035 H 0.46775 0.40759 0.4857 0.0
H1036 H 0.49747 0.40182 0.51127 0.0
H1037 H 0.45308 0.42038 0.51581 0.0
H1038 H 0.44359 0.51287 0.54657 0.0
H1039 H 0.42538 0.49756 0.58801 0.0
loop_
_geom_bond_atom_site_label_1
_geom_bond_atom_site_label_2
_geom_bond_distance
_geom_bond_site_symmetry_2
_ccdc_geom_bond_type
Sc0 O3 2.025 . S
Sc0 O10 2.105 . S
Sc0 O13 2.105 . S
Sc0 O16 2.105 . S
Sc0 O19 2.105 . S
Sc1 O3 2.025 . S
Sc1 O11 2.105 . S
Sc1 O15 2.105 . S
Sc1 O17 2.105 . S
Sc1 O21 2.105 1_455 S
Sc2 O3 2.025 . S
Sc2 O12 2.105 1_455 S
Sc2 O14 2.105 . S
Sc2 O18 2.105 . S
Sc2 O20 2.105 . S
O3 Sc0 2.025 . S
O3 Sc1 2.025 . S
O3 Sc2 2.025 . S
C4 O10 1.268 . S
C4 O20 1.268 . S
C5 O11 1.268 . S
C5 O19 1.268 . S
C6 O12 1.268 . S
C6 O21 1.268 . S
C7 O13 1.268 . S
C7 O17 1.268 . S
C8 O14 1.268 . S
C8 O16 1.268 . S
C9 O15 1.268 . S
C9 O18 1.268 . S
O10 Sc0 2.105 . S
O10 C4 1.268 . S
O11 Sc1 2.105 . S
O11 C5 1.268 . S
O12 Sc2 2.105 1_655 S
O12 C6 1.268 . S
O13 Sc0 2.105 . S
O13 C7 1.268 . S
O14 Sc2 2.105 . S
O14 C8 1.268 . S
O15 Sc1 2.105 . S
O15 C9 1.268 . S
O16 Sc0 2.105 . S
O16 C8 1.268 . S
O17 Sc1 2.105 . S
O17 C7 1.268 . S
O18 Sc2 2.105 . S
O18 C9 1.268 . S
O19 Sc0 2.105 . S
O19 C5 1.268 . S
O20 Sc2 2.105 . S
O20 C4 1.268 . S
O21 Sc1 2.105 1_655 S
O21 C6 1.268 . S
Sc22 O25 2.025 . S
Sc22 O32 2.105 . S
Sc22 O35 2.105 1_545 S
Sc22 O38 2.105 . S
Sc22 O41 2.105 . S
Sc23 O25 2.025 . S
Sc23 O33 2.105 . S
Sc23 O37 2.105 1_455 S
Sc23 O39 2.105 1_545 S
Sc23 O43 2.105 . S
Sc24 O25 2.025 . S
Sc24 O34 2.105 . S
Sc24 O36 2.105 . S
Sc24 O40 2.105 1_455 S
Sc24 O42 2.105 . S
O25 Sc22 2.025 . S
O25 Sc23 2.025 . S
O25 Sc24 2.025 . S
C26 O32 1.268 . S
C26 O42 1.268 . S
C27 O33 1.268 . S
C27 O41 1.268 . S
C28 O34 1.268 . S
C28 O43 1.268 . S
C29 O35 1.268 . S
C29 O39 1.268 . S
C30 O36 1.268 . S
C30 O38 1.268 . S
C31 O37 1.268 . S
C31 O40 1.268 . S
O32 Sc22 2.105 . S
O32 C26 1.268 . S
O33 Sc23 2.105 . S
O33 C27 1.268 . S
O34 Sc24 2.105 . S
O34 C28 1.268 . S
O35 Sc22 2.105 1_565 S
O35 C29 1.268 . S
O36 Sc24 2.105 . S
O36 C30 1.268 . S
O37 Sc23 2.105 1_655 S
O37 C31 1.268 . S
O38 Sc22 2.105 . S
O38 C30 1.268 . S
O39 Sc23 2.105 1_565 S
O39 C29 1.268 . S
O40 Sc24 2.105 1_655 S
O40 C31 1.268 . S
O41 Sc22 2.105 . S
O41 C27 1.268 . S
O42 Sc24 2.105 . S
O42 C26 1.268 . S
O43 Sc23 2.105 . S
O43 C28 1.268 . S
Sc44 O47 2.025 . S
Sc44 O54 2.105 . S
Sc44 O57 2.105 . S
Sc44 O60 2.105 . S
Sc44 O63 2.105 . S
Sc45 O47 2.025 . S
Sc45 O55 2.105 . S
Sc45 O59 2.105 1_545 S
Sc45 O61 2.105 . S
Sc45 O65 2.105 . S
Sc46 O47 2.025 . S
Sc46 O56 2.105 . S
Sc46 O58 2.105 . S
Sc46 O62 2.105 1_545 S
Sc46 O64 2.105 . S
O47 Sc44 2.025 . S
O47 Sc45 2.025 . S
O47 Sc46 2.025 . S
C48 O54 1.268 . S
C48 O64 1.268 . S
C49 O55 1.268 . S
C49 O63 1.268 . S
C50 O56 1.268 . S
C50 O65 1.268 . S
C51 O57 1.268 . S
C51 O61 1.268 . S
C52 O58 1.268 . S
C52 O60 1.268 . S
C53 O59 1.268 . S
C53 O62 1.268 . S
O54 Sc44 2.105 . S
O54 C48 1.268 . S
O55 Sc45 2.105 . S
O55 C49 1.268 . S
O56 Sc46 2.105 . S
O56 C50 1.268 . S
O57 Sc44 2.105 . S
O57 C51 1.268 . S
O58 Sc46 2.105 . S
O58 C52 1.268 . S
O59 Sc45 2.105 1_565 S
O59 C53 1.268 . S
O60 Sc44 2.105 . S
O60 C52 1.268 . S
O61 Sc45 2.105 . S
O61 C51 1.268 . S
O62 Sc46 2.105 1_565 S
O62 C53 1.268 . S
O63 Sc44 2.105 . S
O63 C49 1.268 . S
O64 Sc46 2.105 . S
O64 C48 1.268 . S
O65 Sc45 2.105 . S
O65 C50 1.268 . S
Sc66 O69 2.025 . S
Sc66 O76 2.105 . S
Sc66 O79 2.105 . S
Sc66 O82 2.105 . S
Sc66 O85 2.105 . S
Sc67 O69 2.025 . S
Sc67 O77 2.105 . S
Sc67 O81 2.105 . S
Sc67 O83 2.105 . S
Sc67 O87 2.105 . S
Sc68 O69 2.025 . S
Sc68 O78 2.105 . S
Sc68 O80 2.105 . S
Sc68 O84 2.105 . S
Sc68 O86 2.105 . S
O69 Sc66 2.025 . S
O69 Sc67 2.025 . S
O69 Sc68 2.025 . S
C70 O76 1.268 . S
C70 O86 1.268 . S
C71 O77 1.268 . S
C71 O85 1.268 . S
C72 O78 1.268 . S
C72 O87 1.268 . S
C73 O79 1.268 . S
C73 O83 1.268 . S
C74 O80 1.268 . S
C74 O82 1.268 . S
C75 O81 1.268 . S
C75 O84 1.268 . S
O76 Sc66 2.105 . S
O76 C70 1.268 . S
O77 Sc67 2.105 . S
O77 C71 1.268 . S
O78 Sc68 2.105 . S
O78 C72 1.268 . S
O79 Sc66 2.105 . S
O79 C73 1.268 . S
O80 Sc68 2.105 . S
O80 C74 1.268 . S
O81 Sc67 2.105 . S
O81 C75 1.268 . S
O82 Sc66 2.105 . S
O82 C74 1.268 . S
O83 Sc67 2.105 . S
O83 C73 1.268 . S
O84 Sc68 2.105 . S
O84 C75 1.268 . S
O85 Sc66 2.105 . S
O85 C71 1.268 . S
O86 Sc68 2.105 . S
O86 C70 1.268 . S
O87 Sc67 2.105 . S
O87 C72 1.268 . S
Sc88 O91 2.025 . S
Sc88 O98 2.105 . S
Sc88 O101 2.105 . S
Sc88 O104 2.105 . S
Sc88 O107 2.105 . S
Sc89 O91 2.025 . S
Sc89 O99 2.105 . S
Sc89 O103 2.105 . S
Sc89 O105 2.105 . S
Sc89 O109 2.105 . S
Sc90 O91 2.025 . S
Sc90 O100 2.105 . S
Sc90 O102 2.105 . S
Sc90 O106 2.105 . S
Sc90 O108 2.105 . S
O91 Sc88 2.025 . S
O91 Sc89 2.025 . S
O91 Sc90 2.025 . S
C92 O98 1.268 . S
C92 O108 1.268 . S
C93 O99 1.268 . S
C93 O107 1.268 . S
C94 O100 1.268 . S
C94 O109 1.268 . S
C95 O101 1.268 . S
C95 O105 1.268 . S
C96 O102 1.268 . S
C96 O104 1.268 . S
C97 O103 1.268 . S
C97 O106 1.268 . S
O98 Sc88 2.105 . S
O98 C92 1.268 . S
O99 Sc89 2.105 . S
O99 C93 1.268 . S
O100 Sc90 2.105 . S
O100 C94 1.268 . S
O101 Sc88 2.105 . S
O101 C95 1.268 . S
O102 Sc90 2.105 . S
O102 C96 1.268 . S
O103 Sc89 2.105 . S
O103 C97 1.268 . S
O104 Sc88 2.105 . S
O104 C96 1.268 . S
O105 Sc89 2.105 . S
O105 C95 1.268 . S
O106 Sc90 2.105 . S
O106 C97 1.268 . S
O107 Sc88 2.105 . S
O107 C93 1.268 . S
O108 Sc90 2.105 . S
O108 C92 1.268 . S
O109 Sc89 2.105 . S
O109 C94 1.268 . S
Sc110 O113 2.025 . S
Sc110 O120 2.105 . S
Sc110 O123 2.105 . S
Sc110 O126 2.105 . S
Sc110 O129 2.105 . S
Sc111 O113 2.025 . S
Sc111 O121 2.105 . S
Sc111 O125 2.105 1_655 S
Sc111 O127 2.105 . S
Sc111 O131 2.105 . S
Sc112 O113 2.025 . S
Sc112 O122 2.105 . S
Sc112 O124 2.105 . S
Sc112 O128 2.105 1_655 S
Sc112 O130 2.105 . S
O113 Sc110 2.025 . S
O113 Sc111 2.025 . S
O113 Sc112 2.025 . S
C114 O120 1.268 . S
C114 O130 1.268 . S
C115 O121 1.268 . S
C115 O129 1.268 . S
C116 O122 1.268 . S
C116 O131 1.268 . S
C117 O123 1.268 . S
C117 O127 1.268 . S
C118 O124 1.268 . S
C118 O126 1.268 . S
C119 O125 1.268 . S
C119 O128 1.268 . S
O120 Sc110 2.105 . S
O120 C114 1.268 . S
O121 Sc111 2.105 . S
O121 C115 1.268 . S
O122 Sc112 2.105 . S
O122 C116 1.268 . S
O123 Sc110 2.105 . S
O123 C117 1.268 . S
O124 Sc112 2.105 . S
O124 C118 1.268 . S
O125 Sc111 2.105 1_455 S
O125 C119 1.268 . S
O126 Sc110 2.105 . S
O126 C118 1.268 . S
O127 Sc111 2.105 . S
O127 C117 1.268 . S
O128 Sc112 2.105 1_455 S
O128 C119 1.268 . S
O129 Sc110 2.105 . S
O129 C115 1.268 . S
O130 Sc112 2.105 . S
O130 C114 1.268 . S
O131 Sc111 2.105 . S
O131 C116 1.268 . S
Sc132 O135 2.025 . S
Sc132 O142 2.105 . S
Sc132 O145 2.105 . S
Sc132 O148 2.105 . S
Sc132 O151 2.105 1_565 S
Sc133 O135 2.025 . S
Sc133 O143 2.105 1_565 S
Sc133 O147 2.105 . S
Sc133 O149 2.105 . S
Sc133 O153 2.105 1_655 S
Sc134 O135 2.025 . S
Sc134 O144 2.105 1_655 S
Sc134 O146 2.105 . S
Sc134 O150 2.105 . S
Sc134 O152 2.105 . S
O135 Sc132 2.025 . S
O135 Sc133 2.025 . S
O135 Sc134 2.025 . S
C136 O142 1.268 . S
C136 O152 1.268 . S
C137 O143 1.268 . S
C137 O151 1.268 . S
C138 O144 1.268 . S
C138 O153 1.268 . S
C139 O145 1.268 . S
C139 O149 1.268 . S
C140 O146 1.268 . S
C140 O148 1.268 . S
C141 O147 1.268 . S
C141 O150 1.268 . S
O142 Sc132 2.105 . S
O142 C136 1.268 . S
O143 Sc133 2.105 1_545 S
O143 C137 1.268 . S
O144 Sc134 2.105 1_455 S
O144 C138 1.268 . S
O145 Sc132 2.105 . S
O145 C139 1.268 . S
O146 Sc134 2.105 . S
O146 C140 1.268 . S
O147 Sc133 2.105 . S
O147 C141 1.268 . S
O148 Sc132 2.105 . S
O148 C140 1.268 . S
O149 Sc133 2.105 . S
O149 C139 1.268 . S
O150 Sc134 2.105 . S
O150 C141 1.268 . S
O151 Sc132 2.105 1_545 S
O151 C137 1.268 . S
O152 Sc134 2.105 . S
O152 C136 1.268 . S
O153 Sc133 2.105 1_455 S
O153 C138 1.268 . S
Sc154 O157 2.025 . S
Sc154 O164 2.105 . S
Sc154 O167 2.105 . S
Sc154 O170 2.105 . S
Sc154 O173 2.105 . S
Sc155 O157 2.025 . S
Sc155 O165 2.105 . S
Sc155 O169 2.105 . S
Sc155 O171 2.105 . S
Sc155 O175 2.105 1_565 S
Sc156 O157 2.025 . S
Sc156 O166 2.105 1_565 S
Sc156 O168 2.105 . S
Sc156 O172 2.105 . S
Sc156 O174 2.105 . S
O157 Sc154 2.025 . S
O157 Sc155 2.025 . S
O157 Sc156 2.025 . S
C158 O164 1.268 . S
C158 O174 1.268 . S
C159 O165 1.268 . S
C159 O173 1.268 . S
C160 O166 1.268 . S
C160 O175 1.268 . S
C161 O167 1.268 . S
C161 O171 1.268 . S
C162 O168 1.268 . S
C162 O170 1.268 . S
C163 O169 1.268 . S
C163 O172 1.268 . S
O164 Sc154 2.105 . S
O164 C158 1.268 . S
O165 Sc155 2.105 . S
O165 C159 1.268 . S
O166 Sc156 2.105 1_545 S
O166 C160 1.268 . S
O167 Sc154 2.105 . S
O167 C161 1.268 . S
O168 Sc156 2.105 . S
O168 C162 1.268 . S
O169 Sc155 2.105 . S
O169 C163 1.268 . S
O170 Sc154 2.105 . S
O170 C162 1.268 . S
O171 Sc155 2.105 . S
O171 C161 1.268 . S
O172 Sc156 2.105 . S
O172 C163 1.268 . S
O173 Sc154 2.105 . S
O173 C159 1.268 . S
O174 Sc156 2.105 . S
O174 C158 1.268 . S
O175 Sc155 2.105 1_545 S
O175 C160 1.268 . S
H176 C184 0.929 . S
H177 C186 0.930 . S
H178 C188 0.930 . S
H179 C191 0.929 . S
H180 C194 0.930 . S
H181 C196 0.960 . S
H182 C196 0.960 . S
H183 C196 0.960 . S
C184 H176 0.929 . S
C184 C185 1.377 . S
C184 C186 1.384 . S
C185 C184 1.377 . S
C185 C191 1.390 . S
C186 H177 0.930 . S
C186 C184 1.384 . S
C186 C187 1.372 . S
C187 C186 1.372 . S
C187 C188 1.400 . S
C187 C192 1.490 . S
C188 H178 0.930 . S
C188 C187 1.400 . S
C188 C191 1.386 . S
H189 C205 0.930 . S
H190 C206 0.931 . S
C191 H179 0.929 . S
C191 C185 1.390 . S
C191 C188 1.386 . S
C192 C187 1.490 . S
C192 C194 1.395 . S
C192 C195 1.403 . S
H193 C199 0.930 . S
C194 H180 0.930 . S
C194 C192 1.395 . S
C194 C197 1.403 . S
C195 C192 1.403 . S
C195 C196 1.524 . S
C195 C199 1.400 . S
C196 H181 0.960 . S
C196 H182 0.960 . S
C196 H183 0.960 . S
C196 C195 1.524 . S
C197 C194 1.403 . S
C197 C198 1.392 . S
C197 C201 1.495 . S
C198 C197 1.392 . S
C198 C199 1.385 . S
C198 C200 1.478 . S
C199 H193 0.930 . S
C199 C195 1.400 . S
C199 C198 1.385 . S
C200 C198 1.478 . S
C200 C202 1.381 . S
C200 C206 1.383 . S
C201 C197 1.495 . S
C201 H207 0.959 . S
C201 H208 0.961 . S
C201 H209 0.960 . S
C202 C200 1.381 . S
C202 C203 1.394 . S
C202 H210 0.930 . S
C203 C202 1.394 . S
C203 C204 1.383 . S
C203 H211 0.929 . S
C204 C203 1.383 . S
C204 C205 1.377 . S
C205 H189 0.930 . S
C205 C204 1.377 . S
C205 C206 1.379 . S
C206 H190 0.931 . S
C206 C200 1.383 . S
C206 C205 1.379 . S
H207 C201 0.959 . S
H208 C201 0.961 . S
H209 C201 0.960 . S
H210 C202 0.930 . S
H211 C203 0.929 . S
H212 C220 0.929 1_455 S
H213 C222 0.930 . S
H214 C224 0.930 . S
H215 C227 0.929 . S
H216 C230 0.930 . S
H217 C232 0.960 . S
H218 C232 0.960 . S
H219 C232 0.960 . S
C220 H212 0.929 1_655 S
C220 C221 1.377 . S
C220 C222 1.384 1_655 S
C221 C220 1.377 . S
C221 C227 1.390 . S
C222 H213 0.930 . S
C222 C220 1.384 1_455 S
C222 C223 1.372 1_455 S
C223 C222 1.372 1_655 S
C223 C224 1.400 . S
C223 C228 1.490 . S
C224 H214 0.930 . S
C224 C223 1.400 . S
C224 C227 1.386 . S
H225 C241 0.930 1_655 S
H226 C242 0.931 . S
C227 H215 0.929 . S
C227 C221 1.390 . S
C227 C224 1.386 . S
C228 C223 1.490 . S
C228 C230 1.395 1_655 S
C228 C231 1.403 . S
H229 C235 0.930 . S
C230 H216 0.930 . S
C230 C228 1.395 1_455 S
C230 C233 1.403 . S
C231 C228 1.403 . S
C231 C232 1.524 . S
C231 C235 1.400 . S
C232 H217 0.960 . S
C232 H218 0.960 . S
C232 H219 0.960 . S
C232 C231 1.524 . S
C233 C230 1.403 . S
C233 C234 1.392 . S
C233 C237 1.495 . S
C234 C233 1.392 . S
C234 C235 1.385 1_455 S
C234 C236 1.478 . S
C235 H229 0.930 . S
C235 C231 1.400 . S
C235 C234 1.385 1_655 S
C236 C234 1.478 . S
C236 C238 1.381 . S
C236 C242 1.383 1_455 S
C237 C233 1.495 . S
C237 H243 0.959 . S
C237 H244 0.961 . S
C237 H245 0.960 . S
C238 C236 1.381 . S
C238 C239 1.394 . S
C238 H246 0.930 . S
C239 C238 1.394 . S
C239 C240 1.383 . S
C239 H247 0.929 . S
C240 C239 1.383 . S
C240 C241 1.377 . S
C241 H225 0.930 1_455 S
C241 C240 1.377 . S
C241 C242 1.379 1_455 S
C242 H226 0.931 . S
C242 C236 1.383 1_655 S
C242 C241 1.379 1_655 S
H243 C237 0.959 . S
H244 C237 0.961 . S
H245 C237 0.960 . S
H246 C238 0.930 . S
H247 C239 0.929 . S
H248 C256 0.929 . S
H249 C258 0.930 . S
H250 C260 0.930 . S
H251 C263 0.929 . S
H252 C266 0.930 . S
H253 C268 0.960 . S
H254 C268 0.960 . S
H255 C268 0.960 . S
C256 H248 0.929 . S
C256 C257 1.377 . S
C256 C258 1.384 . S
C257 C256 1.377 . S
C257 C263 1.390 . S
C258 H249 0.930 . S
C258 C256 1.384 . S
C258 C259 1.372 . S
C259 C258 1.372 . S
C259 C260 1.400 . S
C259 C264 1.490 . S
C260 H250 0.930 . S
C260 C259 1.400 . S
C260 C263 1.386 . S
H261 C277 0.930 . S
H262 C278 0.931 . S
C263 H251 0.929 . S
C263 C257 1.390 . S
C263 C260 1.386 . S
C264 C259 1.490 . S
C264 C266 1.395 1_545 S
C264 C267 1.403 . S
H265 C271 0.930 . S
C266 H252 0.930 . S
C266 C264 1.395 1_565 S
C266 C269 1.403 . S
C267 C264 1.403 . S
C267 C268 1.524 . S
C267 C271 1.400 . S
C268 H253 0.960 . S
C268 H254 0.960 . S
C268 H255 0.960 . S
C268 C267 1.524 . S
C269 C266 1.403 . S
C269 C270 1.392 . S
C269 C273 1.495 . S
C270 C269 1.392 . S
C270 C271 1.385 1_565 S
C270 C272 1.478 . S
C271 H265 0.930 . S
C271 C267 1.400 . S
C271 C270 1.385 1_545 S
C272 C270 1.478 . S
C272 C274 1.381 . S
C272 C278 1.383 . S
C273 C269 1.495 . S
C273 H279 0.959 . S
C273 H280 0.961 . S
C273 H281 0.960 . S
C274 C272 1.381 . S
C274 C275 1.394 . S
C274 H282 0.930 . S
C275 C274 1.394 . S
C275 C276 1.383 . S
C275 H283 0.929 . S
C276 C275 1.383 . S
C276 C277 1.377 . S
C277 H261 0.930 . S
C277 C276 1.377 . S
C277 C278 1.379 . S
C278 H262 0.931 . S
C278 C272 1.383 . S
C278 C277 1.379 . S
H279 C273 0.959 . S
H280 C273 0.961 . S
H281 C273 0.960 . S
H282 C274 0.930 . S
H283 C275 0.929 . S
H284 C292 0.929 . S
H285 C294 0.930 . S
H286 C296 0.930 . S
H287 C299 0.929 . S
H288 C302 0.930 . S
H289 C304 0.960 . S
H290 C304 0.960 . S
H291 C304 0.960 . S
C292 H284 0.929 . S
C292 C293 1.377 . S
C292 C294 1.384 . S
C293 C292 1.377 . S
C293 C299 1.390 . S
C294 H285 0.930 . S
C294 C292 1.384 . S
C294 C295 1.372 . S
C295 C294 1.372 . S
C295 C296 1.400 . S
C295 C300 1.490 . S
C296 H286 0.930 . S
C296 C295 1.400 . S
C296 C299 1.386 . S
H297 C313 0.930 . S
H298 C314 0.931 . S
C299 H287 0.929 . S
C299 C293 1.390 . S
C299 C296 1.386 . S
C300 C295 1.490 . S
C300 C302 1.395 . S
C300 C303 1.403 . S
H301 C307 0.930 . S
C302 H288 0.930 . S
C302 C300 1.395 . S
C302 C305 1.403 . S
C303 C300 1.403 . S
C303 C304 1.524 . S
C303 C307 1.400 . S
C304 H289 0.960 . S
C304 H290 0.960 . S
C304 H291 0.960 . S
C304 C303 1.524 . S
C305 C302 1.403 . S
C305 C306 1.392 . S
C305 C309 1.495 . S
C306 C305 1.392 . S
C306 C307 1.385 . S
C306 C308 1.478 . S
C307 H301 0.930 . S
C307 C303 1.400 . S
C307 C306 1.385 . S
C308 C306 1.478 . S
C308 C310 1.381 . S
C308 C314 1.383 . S
C309 C305 1.495 . S
C309 H315 0.959 . S
C309 H316 0.961 . S
C309 H317 0.960 . S
C310 C308 1.381 . S
C310 C311 1.394 . S
C310 H318 0.930 . S
C311 C310 1.394 . S
C311 C312 1.383 . S
C311 H319 0.929 . S
C312 C311 1.383 . S
C312 C313 1.377 . S
C313 H297 0.930 . S
C313 C312 1.377 . S
C313 C314 1.379 . S
C314 H298 0.931 . S
C314 C308 1.383 . S
C314 C313 1.379 . S
H315 C309 0.959 . S
H316 C309 0.961 . S
H317 C309 0.960 . S
H318 C310 0.930 . S
H319 C311 0.929 . S
H320 C328 0.929 . S
H321 C330 0.930 . S
H322 C332 0.930 . S
H323 C335 0.929 . S
H324 C338 0.930 . S
H325 C340 0.960 . S
H326 C340 0.960 . S
H327 C340 0.960 . S
C328 H320 0.929 . S
C328 C329 1.377 . S
C328 C330 1.384 . S
C329 C328 1.377 . S
C329 C335 1.390 . S
C330 H321 0.930 . S
C330 C328 1.384 . S
C330 C331 1.372 . S
C331 C330 1.372 . S
C331 C332 1.400 . S
C331 C336 1.490 . S
C332 H322 0.930 . S
C332 C331 1.400 . S
C332 C335 1.386 . S
H333 C349 0.930 . S
H334 C350 0.931 . S
C335 H323 0.929 . S
C335 C329 1.390 . S
C335 C332 1.386 . S
C336 C331 1.490 . S
C336 C338 1.395 . S
C336 C339 1.403 . S
H337 C343 0.930 . S
C338 H324 0.930 . S
C338 C336 1.395 . S
C338 C341 1.403 . S
C339 C336 1.403 . S
C339 C340 1.524 . S
C339 C343 1.400 . S
C340 H325 0.960 . S
C340 H326 0.960 . S
C340 H327 0.960 . S
C340 C339 1.524 . S
C341 C338 1.403 . S
C341 C342 1.392 . S
C341 C345 1.495 . S
C342 C341 1.392 . S
C342 C343 1.385 . S
C342 C344 1.478 . S
C343 H337 0.930 . S
C343 C339 1.400 . S
C343 C342 1.385 . S
C344 C342 1.478 . S
C344 C346 1.381 . S
C344 C350 1.383 . S
C345 C341 1.495 . S
C345 H351 0.959 . S
C345 H352 0.961 . S
C345 H353 0.960 . S
C346 C344 1.381 . S
C346 C347 1.394 . S
C346 H354 0.930 . S
C347 C346 1.394 . S
C347 C348 1.383 . S
C347 H355 0.929 . S
C348 C347 1.383 . S
C348 C349 1.377 . S
C349 H333 0.930 . S
C349 C348 1.377 . S
C349 C350 1.379 . S
C350 H334 0.931 . S
C350 C344 1.383 . S
C350 C349 1.379 . S
H351 C345 0.959 . S
H352 C345 0.961 . S
H353 C345 0.960 . S
H354 C346 0.930 . S
H355 C347 0.929 . S
H356 C364 0.929 . S
H357 C366 0.930 . S
H358 C368 0.930 1_655 S
H359 C371 0.929 1_655 S
H360 C374 0.930 . S
H361 C376 0.960 1_655 S
H362 C376 0.960 . S
H363 C376 0.960 1_655 S
C364 H356 0.929 . S
C364 C365 1.377 . S
C364 C366 1.384 . S
C365 C364 1.377 . S
C365 C371 1.390 . S
C366 H357 0.930 . S
C366 C364 1.384 . S
C366 C367 1.372 . S
C367 C366 1.372 . S
C367 C368 1.400 . S
C367 C372 1.490 . S
C368 H358 0.930 1_455 S
C368 C367 1.400 . S
C368 C371 1.386 . S
H369 C385 0.930 . S
H370 C386 0.931 . S
C371 H359 0.929 1_455 S
C371 C365 1.390 . S
C371 C368 1.386 . S
C372 C367 1.490 . S
C372 C374 1.395 . S
C372 C375 1.403 . S
H373 C379 0.930 . S
C374 H360 0.930 . S
C374 C372 1.395 . S
C374 C377 1.403 . S
C375 C372 1.403 . S
C375 C376 1.524 . S
C375 C379 1.400 1_455 S
C376 H361 0.960 1_455 S
C376 H362 0.960 . S
C376 H363 0.960 1_455 S
C376 C375 1.524 . S
C377 C374 1.403 . S
C377 C378 1.392 1_455 S
C377 C381 1.495 . S
C378 C377 1.392 1_655 S
C378 C379 1.385 . S
C378 C380 1.478 . S
C379 H373 0.930 . S
C379 C375 1.400 1_655 S
C379 C378 1.385 . S
C380 C378 1.478 . S
C380 C382 1.381 1_655 S
C380 C386 1.383 . S
C381 C377 1.495 . S
C381 H387 0.959 . S
C381 H388 0.961 1_455 S
C381 H389 0.960 . S
C382 C380 1.381 1_455 S
C382 C383 1.394 1_455 S
C382 H390 0.930 . S
C383 C382 1.394 1_655 S
C383 C384 1.383 . S
C383 H391 0.929 1_655 S
C384 C383 1.383 . S
C384 C385 1.377 . S
C385 H369 0.930 . S
C385 C384 1.377 . S
C385 C386 1.379 . S
C386 H370 0.931 . S
C386 C380 1.383 . S
C386 C385 1.379 . S
H387 C381 0.959 . S
H388 C381 0.961 1_655 S
H389 C381 0.960 . S
H390 C382 0.930 . S
H391 C383 0.929 1_455 S
H392 C400 0.929 . S
H393 C402 0.930 . S
H394 C404 0.930 1_565 S
H395 C407 0.929 1_565 S
H396 C410 0.930 . S
H397 C412 0.960 . S
H398 C412 0.960 . S
H399 C412 0.960 . S
C400 H392 0.929 . S
C400 C401 1.377 . S
C400 C402 1.384 . S
C401 C400 1.377 . S
C401 C407 1.390 . S
C402 H393 0.930 . S
C402 C400 1.384 . S
C402 C403 1.372 . S
C403 C402 1.372 . S
C403 C404 1.400 . S
C403 C408 1.490 . S
C404 H394 0.930 1_545 S
C404 C403 1.400 . S
C404 C407 1.386 . S
H405 C421 0.930 . S
H406 C422 0.931 . S
C407 H395 0.929 1_545 S
C407 C401 1.390 . S
C407 C404 1.386 . S
C408 C403 1.490 . S
C408 C410 1.395 . S
C408 C411 1.403 1_545 S
H409 C415 0.930 . S
C410 H396 0.930 . S
C410 C408 1.395 . S
C410 C413 1.403 . S
C411 C408 1.403 1_565 S
C411 C412 1.524 . S
C411 C415 1.400 . S
C412 H397 0.960 . S
C412 H398 0.960 . S
C412 H399 0.960 . S
C412 C411 1.524 . S
C413 C410 1.403 . S
C413 C414 1.392 1_545 S
C413 C417 1.495 . S
C414 C413 1.392 1_565 S
C414 C415 1.385 . S
C414 C416 1.478 . S
C415 H409 0.930 . S
C415 C411 1.400 . S
C415 C414 1.385 . S
C416 C414 1.478 . S
C416 C418 1.381 1_565 S
C416 C422 1.383 . S
C417 C413 1.495 . S
C417 H423 0.959 . S
C417 H424 0.961 . S
C417 H425 0.960 . S
C418 C416 1.381 1_545 S
C418 C419 1.394 1_545 S
C418 H426 0.930 . S
C419 C418 1.394 1_565 S
C419 C420 1.383 . S
C419 H427 0.929 1_565 S
C420 C419 1.383 . S
C420 C421 1.377 . S
C421 H405 0.930 . S
C421 C420 1.377 . S
C421 C422 1.379 . S
C422 H406 0.931 . S
C422 C416 1.383 . S
C422 C421 1.379 . S
H423 C417 0.959 . S
H424 C417 0.961 . S
H425 C417 0.960 . S
H426 C418 0.930 . S
H427 C419 0.929 1_545 S
H428 C436 0.929 . S
H429 C438 0.930 . S
H430 C440 0.930 . S
H431 C443 0.929 . S
H432 C446 0.930 . S
H433 C448 0.960 . S
H434 C448 0.960 . S
H435 C448 0.960 . S
C436 H428 0.929 . S
C436 C437 1.377 . S
C436 C438 1.384 . S
C437 C436 1.377 . S
C437 C443 1.390 . S
C438 H429 0.930 . S
C438 C436 1.384 . S
C438 C439 1.372 . S
C439 C438 1.372 . S
C439 C440 1.400 . S
C439 C444 1.490 . S
C440 H430 0.930 . S
C440 C439 1.400 . S
C440 C443 1.386 . S
H441 C457 0.930 . S
H442 C458 0.931 . S
C443 H431 0.929 . S
C443 C437 1.390 . S
C443 C440 1.386 . S
C444 C439 1.490 . S
C444 C446 1.395 . S
C444 C447 1.403 . S
H445 C451 0.930 . S
C446 H432 0.930 . S
C446 C444 1.395 . S
C446 C449 1.403 . S
C447 C444 1.403 . S
C447 C448 1.524 . S
C447 C451 1.400 . S
C448 H433 0.960 . S
C448 H434 0.960 . S
C448 H435 0.960 . S
C448 C447 1.524 . S
C449 C446 1.403 . S
C449 C450 1.392 . S
C449 C453 1.495 . S
C450 C449 1.392 . S
C450 C451 1.385 . S
C450 C452 1.478 . S
C451 H445 0.930 . S
C451 C447 1.400 . S
C451 C450 1.385 . S
C452 C450 1.478 . S
C452 C454 1.381 . S
C452 C458 1.383 . S
C453 C449 1.495 . S
C453 H459 0.959 . S
C453 H460 0.961 . S
C453 H461 0.960 . S
C454 C452 1.381 . S
C454 C455 1.394 . S
C454 H462 0.930 . S
C455 C454 1.394 . S
C455 C456 1.383 . S
C455 H463 0.929 . S
C456 C455 1.383 . S
C456 C457 1.377 . S
C457 H441 0.930 . S
C457 C456 1.377 . S
C457 C458 1.379 . S
C458 H442 0.931 . S
C458 C452 1.383 . S
C458 C457 1.379 . S
H459 C453 0.959 . S
H460 C453 0.961 . S
H461 C453 0.960 . S
H462 C454 0.930 . S
H463 C455 0.929 . S
H464 C472 0.929 . S
H465 C474 0.930 . S
H466 C476 0.930 . S
H467 C479 0.929 . S
H468 C482 0.930 . S
H469 C484 0.960 . S
H470 C484 0.960 . S
H471 C484 0.960 . S
C472 H464 0.929 . S
C472 C473 1.377 . S
C472 C474 1.384 . S
C473 C472 1.377 . S
C473 C479 1.390 . S
C474 H465 0.930 . S
C474 C472 1.384 . S
C474 C475 1.372 . S
C475 C474 1.372 . S
C475 C476 1.400 . S
C475 C480 1.490 . S
C476 H466 0.930 . S
C476 C475 1.400 . S
C476 C479 1.386 . S
H477 C493 0.930 . S
H478 C494 0.931 . S
C479 H467 0.929 . S
C479 C473 1.390 . S
C479 C476 1.386 . S
C480 C475 1.490 . S
C480 C482 1.395 . S
C480 C483 1.403 . S
H481 C487 0.930 . S
C482 H468 0.930 . S
C482 C480 1.395 . S
C482 C485 1.403 . S
C483 C480 1.403 . S
C483 C484 1.524 . S
C483 C487 1.400 . S
C484 H469 0.960 . S
C484 H470 0.960 . S
C484 H471 0.960 . S
C484 C483 1.524 . S
C485 C482 1.403 . S
C485 C486 1.392 . S
C485 C489 1.495 . S
C486 C485 1.392 . S
C486 C487 1.385 . S
C486 C488 1.478 . S
C487 H481 0.930 . S
C487 C483 1.400 . S
C487 C486 1.385 . S
C488 C486 1.478 . S
C488 C490 1.381 . S
C488 C494 1.383 . S
C489 C485 1.495 . S
C489 H495 0.959 . S
C489 H496 0.961 . S
C489 H497 0.960 . S
C490 C488 1.381 . S
C490 C491 1.394 . S
C490 H498 0.930 . S
C491 C490 1.394 . S
C491 C492 1.383 . S
C491 H499 0.929 . S
C492 C491 1.383 . S
C492 C493 1.377 . S
C493 H477 0.930 . S
C493 C492 1.377 . S
C493 C494 1.379 . S
C494 H478 0.931 . S
C494 C488 1.383 . S
C494 C493 1.379 . S
H495 C489 0.959 . S
H496 C489 0.961 . S
H497 C489 0.960 . S
H498 C490 0.930 . S
H499 C491 0.929 . S
H500 C508 0.929 . S
H501 C510 0.930 . S
H502 C512 0.930 . S
H503 C515 0.929 1_655 S
H504 C518 0.930 . S
H505 C520 0.960 . S
H506 C520 0.960 . S
H507 C520 0.960 . S
C508 H500 0.929 . S
C508 C509 1.377 . S
C508 C510 1.384 . S
C509 C508 1.377 . S
C509 C515 1.390 . S
C510 H501 0.930 . S
C510 C508 1.384 . S
C510 C511 1.372 . S
C511 C510 1.372 . S
C511 C512 1.400 1_455 S
C511 C516 1.490 . S
C512 H502 0.930 . S
C512 C511 1.400 1_655 S
C512 C515 1.386 1_655 S
H513 C529 0.930 . S
H514 C530 0.931 . S
C515 H503 0.929 1_455 S
C515 C509 1.390 . S
C515 C512 1.386 1_455 S
C516 C511 1.490 . S
C516 C518 1.395 . S
C516 C519 1.403 1_455 S
H517 C523 0.930 . S
C518 H504 0.930 . S
C518 C516 1.395 . S
C518 C521 1.403 . S
C519 C516 1.403 1_655 S
C519 C520 1.524 . S
C519 C523 1.400 . S
C520 H505 0.960 . S
C520 H506 0.960 . S
C520 H507 0.960 . S
C520 C519 1.524 . S
C521 C518 1.403 . S
C521 C522 1.392 1_455 S
C521 C525 1.495 . S
C522 C521 1.392 1_655 S
C522 C523 1.385 . S
C522 C524 1.478 . S
C523 H517 0.930 . S
C523 C519 1.400 . S
C523 C522 1.385 . S
C524 C522 1.478 . S
C524 C526 1.381 1_655 S
C524 C530 1.383 . S
C525 C521 1.495 . S
C525 H531 0.959 . S
C525 H532 0.961 . S
C525 H533 0.960 . S
C526 C524 1.381 1_455 S
C526 C527 1.394 1_455 S
C526 H534 0.930 . S
C527 C526 1.394 1_655 S
C527 C528 1.383 . S
C527 H535 0.929 1_655 S
C528 C527 1.383 . S
C528 C529 1.377 . S
C529 H513 0.930 . S
C529 C528 1.377 . S
C529 C530 1.379 . S
C530 H514 0.931 . S
C530 C524 1.383 . S
C530 C529 1.379 . S
H531 C525 0.959 . S
H532 C525 0.961 . S
H533 C525 0.960 . S
H534 C526 0.930 . S
H535 C527 0.929 1_455 S
H536 C544 0.929 1_565 S
H537 C546 0.930 1_565 S
H538 C548 0.930 . S
H539 C551 0.929 . S
H540 C554 0.930 . S
H541 C556 0.960 1_565 S
H542 C556 0.960 1_565 S
H543 C556 0.960 . S
C544 H536 0.929 1_545 S
C544 C545 1.377 . S
C544 C546 1.384 . S
C545 C544 1.377 . S
C545 C551 1.390 . S
C546 H537 0.930 1_545 S
C546 C544 1.384 . S
C546 C547 1.372 . S
C547 C546 1.372 . S
C547 C548 1.400 . S
C547 C552 1.490 . S
C548 H538 0.930 . S
C548 C547 1.400 . S
C548 C551 1.386 . S
H549 C565 0.930 1_545 S
H550 C566 0.931 . S
C551 H539 0.929 . S
C551 C545 1.390 . S
C551 C548 1.386 . S
C552 C547 1.490 . S
C552 C554 1.395 . S
C552 C555 1.403 . S
H553 C559 0.930 . S
C554 H540 0.930 . S
C554 C552 1.395 . S
C554 C557 1.403 1_545 S
C555 C552 1.403 . S
C555 C556 1.524 . S
C555 C559 1.400 1_545 S
C556 H541 0.960 1_545 S
C556 H542 0.960 1_545 S
C556 H543 0.960 . S
C556 C555 1.524 . S
C557 C554 1.403 1_565 S
C557 C558 1.392 . S
C557 C561 1.495 . S
C558 C557 1.392 . S
C558 C559 1.385 . S
C558 C560 1.478 . S
C559 H553 0.930 . S
C559 C555 1.400 1_565 S
C559 C558 1.385 . S
C560 C558 1.478 . S
C560 C562 1.381 . S
C560 C566 1.383 1_565 S
C561 C557 1.495 . S
C561 H567 0.954 1_565 S
C561 H568 0.961 1_565 S
C561 H569 0.960 . S
C562 C560 1.381 . S
C562 C563 1.394 . S
C562 H570 0.930 . S
C563 C562 1.394 . S
C563 C564 1.383 . S
C563 H571 0.929 . S
C564 C563 1.383 . S
C564 C565 1.377 . S
C565 H549 0.930 1_565 S
C565 C564 1.377 . S
C565 C566 1.379 1_565 S
C566 H550 0.931 . S
C566 C560 1.383 1_545 S
C566 C565 1.379 1_545 S
H567 C561 0.954 1_545 S
H568 C561 0.961 1_545 S
H569 C561 0.960 . S
H570 C562 0.930 . S
H571 C563 0.929 . S
H572 C580 0.929 . S
H573 C582 0.930 . S
H574 C584 0.930 . S
H575 C587 0.929 . S
H576 C590 0.930 . S
H577 C592 0.960 . S
H578 C592 0.960 . S
H579 C592 0.960 . S
C580 H572 0.929 . S
C580 C581 1.377 . S
C580 C582 1.384 . S
C581 C580 1.377 . S
C581 C587 1.390 . S
C582 H573 0.930 . S
C582 C580 1.384 . S
C582 C583 1.372 . S
C583 C582 1.372 . S
C583 C584 1.400 . S
C583 C588 1.490 . S
C584 H574 0.930 . S
C584 C583 1.400 . S
C584 C587 1.386 . S
H585 C601 0.930 . S
H586 C602 0.931 . S
C587 H575 0.929 . S
C587 C581 1.390 . S
C587 C584 1.386 . S
C588 C583 1.490 . S
C588 C590 1.395 . S
C588 C591 1.403 . S
H589 C595 0.930 . S
C590 H576 0.930 . S
C590 C588 1.395 . S
C590 C593 1.403 . S
C591 C588 1.403 . S
C591 C592 1.524 . S
C591 C595 1.400 . S
C592 H577 0.960 . S
C592 H578 0.960 . S
C592 H579 0.960 . S
C592 C591 1.524 . S
C593 C590 1.403 . S
C593 C594 1.392 . S
C593 C597 1.495 . S
C594 C593 1.392 . S
C594 C595 1.385 . S
C594 C596 1.478 . S
C595 H589 0.930 . S
C595 C591 1.400 . S
C595 C594 1.385 . S
C596 C594 1.478 . S
C596 C598 1.381 . S
C596 C602 1.383 . S
C597 C593 1.495 . S
C597 H603 0.959 . S
C597 H604 0.961 . S
C597 H605 0.960 . S
C598 C596 1.381 . S
C598 C599 1.394 . S
C598 H606 0.930 . S
C599 C598 1.394 . S
C599 C600 1.383 . S
C599 H607 0.929 . S
C600 C599 1.383 . S
C600 C601 1.377 . S
C601 H585 0.930 . S
C601 C600 1.377 . S
C601 C602 1.379 . S
C602 H586 0.931 . S
C602 C596 1.383 . S
C602 C601 1.379 . S
H603 C597 0.959 . S
H604 C597 0.961 . S
H605 C597 0.960 . S
H606 C598 0.930 . S
H607 C599 0.929 . S
H608 C616 0.929 . S
H609 C618 0.930 . S
H610 C620 0.930 . S
H611 C623 0.929 . S
H612 C626 0.930 . S
H613 C628 0.960 . S
H614 C628 0.960 . S
H615 C628 0.960 . S
C616 H608 0.929 . S
C616 C617 1.377 . S
C616 C618 1.384 . S
C617 C616 1.377 . S
C617 C623 1.390 . S
C618 H609 0.930 . S
C618 C616 1.384 . S
C618 C619 1.372 . S
C619 C618 1.372 . S
C619 C620 1.400 . S
C619 C624 1.490 . S
C620 H610 0.930 . S
C620 C619 1.400 . S
C620 C623 1.386 . S
H621 C637 0.930 . S
H622 C638 0.931 . S
C623 H611 0.929 . S
C623 C617 1.390 . S
C623 C620 1.386 . S
C624 C619 1.490 . S
C624 C626 1.395 . S
C624 C627 1.403 . S
H625 C631 0.930 . S
C626 H612 0.930 . S
C626 C624 1.395 . S
C626 C629 1.403 . S
C627 C624 1.403 . S
C627 C628 1.524 . S
C627 C631 1.400 . S
C628 H613 0.960 . S
C628 H614 0.960 . S
C628 H615 0.960 . S
C628 C627 1.524 . S
C629 C626 1.403 . S
C629 C630 1.392 . S
C629 C633 1.495 . S
C630 C629 1.392 . S
C630 C631 1.385 . S
C630 C632 1.478 . S
C631 H625 0.930 . S
C631 C627 1.400 . S
C631 C630 1.385 . S
C632 C630 1.478 . S
C632 C634 1.381 . S
C632 C638 1.383 . S
C633 C629 1.495 . S
C633 H639 0.959 . S
C633 H640 0.961 . S
C633 H641 0.960 . S
C634 C632 1.381 . S
C634 C635 1.394 . S
C634 H642 0.930 . S
C635 C634 1.394 . S
C635 C636 1.383 . S
C635 H643 0.929 . S
C636 C635 1.383 . S
C636 C637 1.377 . S
C637 H621 0.930 . S
C637 C636 1.377 . S
C637 C638 1.379 . S
C638 H622 0.931 . S
C638 C632 1.383 . S
C638 C637 1.379 . S
H639 C633 0.959 . S
H640 C633 0.961 . S
H641 C633 0.960 . S
H642 C634 0.930 . S
H643 C635 0.929 . S
H644 C652 0.929 . S
H645 C654 0.930 . S
H646 C656 0.930 . S
H647 C659 0.929 . S
H648 C662 0.930 . S
H649 C664 0.960 . S
H650 C664 0.960 . S
H651 C664 0.960 . S
C652 H644 0.929 . S
C652 C653 1.377 . S
C652 C654 1.384 . S
C653 C652 1.377 . S
C653 C659 1.390 . S
C654 H645 0.930 . S
C654 C652 1.384 . S
C654 C655 1.372 . S
C655 C654 1.372 . S
C655 C656 1.400 . S
C655 C660 1.490 . S
C656 H646 0.930 . S
C656 C655 1.400 . S
C656 C659 1.386 . S
H657 C673 0.930 . S
H658 C674 0.931 . S
C659 H647 0.929 . S
C659 C653 1.390 . S
C659 C656 1.386 . S
C660 C655 1.490 . S
C660 C662 1.395 1_455 S
C660 C663 1.403 . S
H661 C667 0.930 . S
C662 H648 0.930 . S
C662 C660 1.395 1_655 S
C662 C665 1.403 . S
C663 C660 1.403 . S
C663 C664 1.524 . S
C663 C667 1.400 . S
C664 H649 0.960 . S
C664 H650 0.960 . S
C664 H651 0.960 . S
C664 C663 1.524 . S
C665 C662 1.403 . S
C665 C666 1.392 . S
C665 C669 1.495 . S
C666 C665 1.392 . S
C666 C667 1.385 1_655 S
C666 C668 1.478 . S
C667 H661 0.930 . S
C667 C663 1.400 . S
C667 C666 1.385 1_455 S
C668 C666 1.478 . S
C668 C670 1.381 . S
C668 C674 1.383 . S
C669 C665 1.495 . S
C669 H675 0.959 . S
C669 H676 0.961 . S
C669 H677 0.960 . S
C670 C668 1.381 . S
C670 C671 1.394 . S
C670 H678 0.930 . S
C671 C670 1.394 . S
C671 C672 1.383 . S
C671 H679 0.929 . S
C672 C671 1.383 . S
C672 C673 1.377 . S
C673 H657 0.930 . S
C673 C672 1.377 . S
C673 C674 1.379 . S
C674 H658 0.931 . S
C674 C668 1.383 . S
C674 C673 1.379 . S
H675 C669 0.959 . S
H676 C669 0.961 . S
H677 C669 0.960 . S
H678 C670 0.930 . S
H679 C671 0.929 . S
H680 C688 0.929 . S
H681 C690 0.930 . S
H682 C692 0.930 . S
H683 C695 0.929 . S
H684 C698 0.930 . S
H685 C700 0.960 . S
H686 C700 0.960 . S
H687 C700 0.960 . S
C688 H680 0.929 . S
C688 C689 1.377 . S
C688 C690 1.384 . S
C689 C688 1.377 . S
C689 C695 1.390 . S
C690 H681 0.930 . S
C690 C688 1.384 . S
C690 C691 1.372 . S
C691 C690 1.372 . S
C691 C692 1.400 . S
C691 C696 1.490 . S
C692 H682 0.930 . S
C692 C691 1.400 . S
C692 C695 1.386 . S
H693 C709 0.930 . S
H694 C710 0.931 . S
C695 H683 0.929 . S
C695 C689 1.390 . S
C695 C692 1.386 . S
C696 C691 1.490 . S
C696 C698 1.395 . S
C696 C699 1.403 1_565 S
H697 C703 0.930 . S
C698 H684 0.930 . S
C698 C696 1.395 . S
C698 C701 1.403 . S
C699 C696 1.403 1_545 S
C699 C700 1.524 . S
C699 C703 1.400 . S
C700 H685 0.960 . S
C700 H686 0.960 . S
C700 H687 0.960 . S
C700 C699 1.524 . S
C701 C698 1.403 . S
C701 C702 1.392 1_565 S
C701 C705 1.495 . S
C702 C701 1.392 1_545 S
C702 C703 1.385 . S
C702 C704 1.478 . S
C703 H697 0.930 . S
C703 C699 1.400 . S
C703 C702 1.385 . S
C704 C702 1.478 . S
C704 C706 1.381 . S
C704 C710 1.383 . S
C705 C701 1.495 . S
C705 H711 0.959 . S
C705 H712 0.961 . S
C705 H713 0.960 . S
C706 C704 1.381 . S
C706 C707 1.394 . S
C706 H714 0.930 . S
C707 C706 1.394 . S
C707 C708 1.383 . S
C707 H715 0.929 . S
C708 C707 1.383 . S
C708 C709 1.377 . S
C709 H693 0.930 . S
C709 C708 1.377 . S
C709 C710 1.379 . S
C710 H694 0.931 . S
C710 C704 1.383 . S
C710 C709 1.379 . S
H711 C705 0.959 . S
H712 C705 0.961 . S
H713 C705 0.960 . S
H714 C706 0.930 . S
H715 C707 0.929 . S
H716 C724 0.929 . S
H717 C726 0.930 . S
H718 C728 0.930 . S
H719 C731 0.929 . S
H720 C734 0.930 . S
H721 C736 0.960 . S
H722 C736 0.960 . S
H723 C736 0.960 . S
C724 H716 0.929 . S
C724 C725 1.377 . S
C724 C726 1.384 . S
C725 C724 1.377 . S
C725 C731 1.390 . S
C726 H717 0.930 . S
C726 C724 1.384 . S
C726 C727 1.372 . S
C727 C726 1.372 . S
C727 C728 1.400 . S
C727 C732 1.490 . S
C728 H718 0.930 . S
C728 C727 1.400 . S
C728 C731 1.386 . S
H729 C745 0.930 . S
H730 C746 0.931 . S
C731 H719 0.929 . S
C731 C725 1.390 . S
C731 C728 1.386 . S
C732 C727 1.490 . S
C732 C734 1.395 . S
C732 C735 1.403 . S
H733 C739 0.930 . S
C734 H720 0.930 . S
C734 C732 1.395 . S
C734 C737 1.403 . S
C735 C732 1.403 . S
C735 C736 1.524 . S
C735 C739 1.400 . S
C736 H721 0.960 . S
C736 H722 0.960 . S
C736 H723 0.960 . S
C736 C735 1.524 . S
C737 C734 1.403 . S
C737 C738 1.392 . S
C737 C741 1.495 . S
C738 C737 1.392 . S
C738 C739 1.385 . S
C738 C740 1.478 . S
C739 H733 0.930 . S
C739 C735 1.400 . S
C739 C738 1.385 . S
C740 C738 1.478 . S
C740 C742 1.381 . S
C740 C746 1.383 . S
C741 C737 1.495 . S
C741 H747 0.959 . S
C741 H748 0.961 . S
C741 H749 0.960 . S
C742 C740 1.381 . S
C742 C743 1.394 . S
C742 H750 0.930 . S
C743 C742 1.394 . S
C743 C744 1.383 . S
C743 H751 0.929 . S
C744 C743 1.383 . S
C744 C745 1.377 . S
C745 H729 0.930 . S
C745 C744 1.377 . S
C745 C746 1.379 . S
C746 H730 0.931 . S
C746 C740 1.383 . S
C746 C745 1.379 . S
H747 C741 0.959 . S
H748 C741 0.961 . S
H749 C741 0.960 . S
H750 C742 0.930 . S
H751 C743 0.929 . S
H752 C760 0.929 . S
H753 C762 0.930 . S
H754 C764 0.930 . S
H755 C767 0.929 . S
H756 C770 0.930 . S
H757 C772 0.960 . S
H758 C772 0.960 . S
H759 C772 0.960 . S
C760 H752 0.929 . S
C760 C761 1.377 . S
C760 C762 1.384 . S
C761 C760 1.377 . S
C761 C767 1.390 . S
C762 H753 0.930 . S
C762 C760 1.384 . S
C762 C763 1.372 . S
C763 C762 1.372 . S
C763 C764 1.400 . S
C763 C768 1.490 . S
C764 H754 0.930 . S
C764 C763 1.400 . S
C764 C767 1.386 . S
H765 C781 0.930 . S
H766 C782 0.931 . S
C767 H755 0.929 . S
C767 C761 1.390 . S
C767 C764 1.386 . S
C768 C763 1.490 . S
C768 C770 1.395 . S
C768 C771 1.403 . S
H769 C775 0.930 . S
C770 H756 0.930 . S
C770 C768 1.395 . S
C770 C773 1.403 . S
C771 C768 1.403 . S
C771 C772 1.524 . S
C771 C775 1.400 . S
C772 H757 0.960 . S
C772 H758 0.960 . S
C772 H759 0.960 . S
C772 C771 1.524 . S
C773 C770 1.403 . S
C773 C774 1.392 . S
C773 C777 1.495 . S
C774 C773 1.392 . S
C774 C775 1.385 . S
C774 C776 1.478 . S
C775 H769 0.930 . S
C775 C771 1.400 . S
C775 C774 1.385 . S
C776 C774 1.478 . S
C776 C778 1.381 . S
C776 C782 1.383 . S
C777 C773 1.495 . S
C777 H783 0.959 . S
C777 H784 0.961 . S
C777 H785 0.960 . S
C778 C776 1.381 . S
C778 C779 1.394 . S
C778 H786 0.930 . S
C779 C778 1.394 . S
C779 C780 1.383 . S
C779 H787 0.929 . S
C780 C779 1.383 . S
C780 C781 1.377 . S
C781 H765 0.930 . S
C781 C780 1.377 . S
C781 C782 1.379 . S
C782 H766 0.931 . S
C782 C776 1.383 . S
C782 C781 1.379 . S
H783 C777 0.959 . S
H784 C777 0.961 . S
H785 C777 0.960 . S
H786 C778 0.930 . S
H787 C779 0.929 . S
H788 C796 0.929 . S
H789 C798 0.930 . S
H790 C800 0.930 . S
H791 C803 0.929 . S
H792 C806 0.930 . S
H793 C808 0.960 . S
H794 C808 0.960 . S
H795 C808 0.960 . S
C796 H788 0.929 . S
C796 C797 1.377 . S
C796 C798 1.384 . S
C797 C796 1.377 . S
C797 C803 1.390 . S
C798 H789 0.930 . S
C798 C796 1.384 . S
C798 C799 1.372 . S
C799 C798 1.372 . S
C799 C800 1.400 . S
C799 C804 1.490 . S
C800 H790 0.930 . S
C800 C799 1.400 . S
C800 C803 1.386 . S
H801 C817 0.930 . S
H802 C818 0.931 . S
C803 H791 0.929 . S
C803 C797 1.390 . S
C803 C800 1.386 . S
C804 C799 1.490 . S
C804 C806 1.395 . S
C804 C807 1.403 . S
H805 C811 0.930 . S
C806 H792 0.930 . S
C806 C804 1.395 . S
C806 C809 1.403 . S
C807 C804 1.403 . S
C807 C808 1.524 . S
C807 C811 1.400 . S
C808 H793 0.960 . S
C808 H794 0.960 . S
C808 H795 0.960 . S
C808 C807 1.524 . S
C809 C806 1.403 . S
C809 C810 1.392 . S
C809 C813 1.495 . S
C810 C809 1.392 . S
C810 C811 1.385 . S
C810 C812 1.478 . S
C811 H805 0.930 . S
C811 C807 1.400 . S
C811 C810 1.385 . S
C812 C810 1.478 . S
C812 C814 1.381 . S
C812 C818 1.383 . S
C813 C809 1.495 . S
C813 H819 0.959 . S
C813 H820 0.961 . S
C813 H821 0.960 . S
C814 C812 1.381 . S
C814 C815 1.394 . S
C814 H822 0.930 . S
C815 C814 1.394 . S
C815 C816 1.383 . S
C815 H823 0.929 . S
C816 C815 1.383 . S
C816 C817 1.377 . S
C817 H801 0.930 . S
C817 C816 1.377 . S
C817 C818 1.379 . S
C818 H802 0.931 . S
C818 C812 1.383 . S
C818 C817 1.379 . S
H819 C813 0.959 . S
H820 C813 0.961 . S
H821 C813 0.960 . S
H822 C814 0.930 . S
H823 C815 0.929 . S
H824 C832 0.929 . S
H825 C834 0.930 . S
H826 C836 0.930 . S
H827 C839 0.929 . S
H828 C842 0.930 . S
H829 C844 0.960 . S
H830 C844 0.960 . S
H831 C844 0.960 . S
C832 H824 0.929 . S
C832 C833 1.377 . S
C832 C834 1.384 . S
C833 C832 1.377 . S
C833 C839 1.390 . S
C834 H825 0.930 . S
C834 C832 1.384 . S
C834 C835 1.372 . S
C835 C834 1.372 . S
C835 C836 1.400 . S
C835 C840 1.490 . S
C836 H826 0.930 . S
C836 C835 1.400 . S
C836 C839 1.386 . S
H837 C853 0.930 . S
H838 C854 0.931 . S
C839 H827 0.929 . S
C839 C833 1.390 . S
C839 C836 1.386 . S
C840 C835 1.490 . S
C840 C842 1.395 . S
C840 C843 1.403 . S
H841 C847 0.930 . S
C842 H828 0.930 . S
C842 C840 1.395 . S
C842 C845 1.403 . S
C843 C840 1.403 . S
C843 C844 1.524 . S
C843 C847 1.400 . S
C844 H829 0.960 . S
C844 H830 0.960 . S
C844 H831 0.960 . S
C844 C843 1.524 . S
C845 C842 1.403 . S
C845 C846 1.392 . S
C845 C849 1.495 . S
C846 C845 1.392 . S
C846 C847 1.385 . S
C846 C848 1.478 . S
C847 H841 0.930 . S
C847 C843 1.400 . S
C847 C846 1.385 . S
C848 C846 1.478 . S
C848 C850 1.381 . S
C848 C854 1.383 . S
C849 C845 1.495 . S
C849 H855 0.959 . S
C849 H856 0.961 . S
C849 H857 0.960 . S
C850 C848 1.381 . S
C850 C851 1.394 . S
C850 H858 0.930 . S
C851 C850 1.394 . S
C851 C852 1.383 . S
C851 H859 0.929 . S
C852 C851 1.383 . S
C852 C853 1.377 . S
C853 H837 0.930 . S
C853 C852 1.377 . S
C853 C854 1.379 . S
C854 H838 0.931 . S
C854 C848 1.383 . S
C854 C853 1.379 . S
H855 C849 0.959 . S
H856 C849 0.961 . S
H857 C849 0.960 . S
H858 C850 0.930 . S
H859 C851 0.929 . S
H860 C868 0.929 . S
H861 C870 0.930 . S
H862 C872 0.930 . S
H863 C875 0.929 . S
H864 C878 0.930 . S
H865 C880 0.960 . S
H866 C880 0.960 . S
H867 C880 0.960 . S
C868 H860 0.929 . S
C868 C869 1.377 . S
C868 C870 1.384 . S
C869 C868 1.377 . S
C869 C875 1.390 . S
C870 H861 0.930 . S
C870 C868 1.384 . S
C870 C871 1.372 . S
C871 C870 1.372 . S
C871 C872 1.400 . S
C871 C876 1.490 . S
C872 H862 0.930 . S
C872 C871 1.400 . S
C872 C875 1.386 . S
H873 C889 0.930 . S
H874 C890 0.931 . S
C875 H863 0.929 . S
C875 C869 1.390 . S
C875 C872 1.386 . S
C876 C871 1.490 . S
C876 C878 1.395 . S
C876 C879 1.403 . S
H877 C883 0.930 . S
C878 H864 0.930 . S
C878 C876 1.395 . S
C878 C881 1.403 . S
C879 C876 1.403 . S
C879 C880 1.524 . S
C879 C883 1.400 . S
C880 H865 0.960 . S
C880 H866 0.960 . S
C880 H867 0.960 . S
C880 C879 1.524 . S
C881 C878 1.403 . S
C881 C882 1.392 . S
C881 C885 1.495 . S
C882 C881 1.392 . S
C882 C883 1.385 . S
C882 C884 1.478 . S
C883 H877 0.930 . S
C883 C879 1.400 . S
C883 C882 1.385 . S
C884 C882 1.478 . S
C884 C886 1.381 . S
C884 C890 1.383 . S
C885 C881 1.495 . S
C885 H891 0.959 . S
C885 H892 0.961 . S
C885 H893 0.960 . S
C886 C884 1.381 . S
C886 C887 1.394 . S
C886 H894 0.930 . S
C887 C886 1.394 . S
C887 C888 1.383 . S
C887 H895 0.929 . S
C888 C887 1.383 . S
C888 C889 1.377 . S
C889 H873 0.930 . S
C889 C888 1.377 . S
C889 C890 1.379 . S
C890 H874 0.931 . S
C890 C884 1.383 . S
C890 C889 1.379 . S
H891 C885 0.959 . S
H892 C885 0.961 . S
H893 C885 0.960 . S
H894 C886 0.930 . S
H895 C887 0.929 . S
H896 C904 0.929 . S
H897 C906 0.930 . S
H898 C908 0.930 . S
H899 C911 0.922 1_455 S
H900 C914 0.930 . S
H901 C916 0.960 . S
H902 C916 0.960 . S
H903 C916 0.960 . S
C904 H896 0.929 . S
C904 C905 1.377 . S
C904 C906 1.384 . S
C905 C904 1.377 . S
C905 C911 1.400 . S
C906 H897 0.930 . S
C906 C904 1.384 . S
C906 C907 1.372 . S
C907 C906 1.372 . S
C907 C908 1.400 1_655 S
C907 C912 1.490 . S
C908 H898 0.930 . S
C908 C907 1.400 1_455 S
C908 C911 1.383 1_455 S
H909 C925 0.930 . S
H910 C926 0.931 . S
C911 H899 0.922 1_655 S
C911 C905 1.400 . S
C911 C908 1.383 1_655 S
C912 C907 1.490 . S
C912 C914 1.395 . S
C912 C915 1.403 1_655 S
H913 C919 0.930 . S
C914 H900 0.930 . S
C914 C912 1.395 . S
C914 C917 1.403 1_556 S
C915 C912 1.403 1_455 S
C915 C916 1.524 . S
C915 C919 1.400 1_556 S
C916 H901 0.960 . S
C916 H902 0.960 . S
C916 H903 0.960 . S
C916 C915 1.524 . S
C917 C914 1.403 1_554 S
C917 C918 1.392 . S
C917 C921 1.495 . S
C918 C917 1.392 . S
C918 C919 1.385 1_655 S
C918 C920 1.478 1_655 S
C919 H913 0.930 . S
C919 C915 1.400 1_554 S
C919 C918 1.385 1_455 S
C920 C918 1.478 1_455 S
C920 C922 1.381 1_455 S
C920 C926 1.383 . S
C921 C917 1.495 . S
C921 H927 0.959 . S
C921 H928 0.961 . S
C921 H929 0.960 . S
C922 C920 1.381 1_655 S
C922 C923 1.394 1_655 S
C922 H930 0.930 . S
C923 C922 1.394 1_455 S
C923 C924 1.383 . S
C923 H931 0.930 1_455 S
C924 C923 1.383 . S
C924 C925 1.377 . S
C925 H909 0.930 . S
C925 C924 1.377 . S
C925 C926 1.379 . S
C926 H910 0.931 . S
C926 C920 1.383 . S
C926 C925 1.379 . S
H927 C921 0.959 . S
H928 C921 0.961 . S
H929 C921 0.960 . S
H930 C922 0.930 . S
H931 C923 0.930 1_655 S
H932 C940 0.929 . S
H933 C942 0.930 . S
H934 C944 0.930 1_565 S
H935 C947 0.929 . S
H936 C950 0.930 . S
H937 C952 0.960 . S
H938 C952 0.960 1_655 S
H939 C952 0.960 . S
C940 H932 0.929 . S
C940 C941 1.377 1_655 S
C940 C942 1.384 . S
C941 C940 1.377 1_455 S
C941 C947 1.390 . S
C942 H933 0.930 . S
C942 C940 1.384 . S
C942 C943 1.372 1_655 S
C943 C942 1.372 1_455 S
C943 C944 1.400 . S
C943 C948 1.490 . S
C944 H934 0.930 1_545 S
C944 C943 1.400 . S
C944 C947 1.386 . S
H945 C961 0.930 . S
H946 C962 0.931 . S
C947 H935 0.929 . S
C947 C941 1.390 . S
C947 C944 1.386 . S
C948 C943 1.490 . S
C948 C950 1.395 1_455 S
C948 C951 1.403 1_545 S
H949 C955 0.931 . S
C950 H936 0.930 . S
C950 C948 1.395 1_655 S
C950 C953 1.403 . S
C951 C948 1.403 1_565 S
C951 C952 1.524 . S
C951 C955 1.401 . S
C952 H937 0.960 . S
C952 H938 0.960 1_455 S
C952 H939 0.960 . S
C952 C951 1.524 . S
C953 C950 1.403 . S
C953 C954 1.416 . S
C953 C957 1.495 . S
C954 C953 1.416 . S
C954 C955 1.363 1_645 S
C954 C956 1.474 1_545 S
C955 H949 0.931 . S
C955 C951 1.401 . S
C955 C954 1.363 1_465 S
C956 C954 1.474 1_565 S
C956 C958 1.381 . S
C956 C962 1.383 1_655 S
C957 C953 1.495 . S
C957 H963 0.959 . S
C957 H964 0.961 . S
C957 H965 0.960 . S
C958 C956 1.381 . S
C958 C959 1.394 . S
C958 H966 0.930 1_565 S
C959 C958 1.394 . S
C959 C960 1.383 . S
C959 H967 0.929 . S
C960 C959 1.383 . S
C960 C961 1.377 1_655 S
C961 H945 0.930 . S
C961 C960 1.377 1_455 S
C961 C962 1.379 . S
C962 H946 0.931 . S
C962 C956 1.383 1_455 S
C962 C961 1.379 . S
H963 C957 0.959 . S
H964 C957 0.961 . S
H965 C957 0.960 . S
H966 C958 0.930 1_545 S
H967 C959 0.929 . S
H968 C976 0.929 . S
H969 C978 0.922 1_545 S
H970 C980 0.930 . S
H971 C983 0.929 . S
H972 C986 0.930 . S
H973 C988 0.960 . S
H974 C988 0.960 . S
H975 C988 0.960 . S
C976 H968 0.929 . S
C976 C977 1.377 . S
C976 C978 1.384 . S
C977 C976 1.377 . S
C977 C983 1.390 . S
C978 H969 0.922 1_565 S
C978 C976 1.384 . S
C978 C979 1.372 . S
C979 C978 1.372 . S
C979 C980 1.400 . S
C979 C984 1.490 . S
C980 H970 0.930 . S
C980 C979 1.400 . S
C980 C983 1.386 . S
H981 C997 0.930 . S
H982 C998 0.940 . S
C983 H971 0.929 . S
C983 C977 1.390 . S
C983 C980 1.386 . S
C984 C979 1.490 . S
C984 C986 1.395 . S
C984 C987 1.403 1_565 S
H985 C991 0.930 . S
C986 H972 0.930 . S
C986 C984 1.395 . S
C986 C989 1.403 1_556 S
C987 C984 1.403 1_545 S
C987 C988 1.524 . S
C987 C991 1.400 1_556 S
C988 H973 0.960 . S
C988 H974 0.960 . S
C988 H975 0.960 . S
C988 C987 1.524 . S
C989 C986 1.403 1_554 S
C989 C990 1.392 1_565 S
C989 C993 1.495 . S
C990 C989 1.392 1_545 S
C990 C991 1.385 . S
C990 C992 1.478 . S
C991 H985 0.930 . S
C991 C987 1.400 1_554 S
C991 C990 1.385 . S
C992 C990 1.478 . S
C992 C994 1.381 . S
C992 C998 1.379 1_545 S
C993 C989 1.495 . S
C993 H999 0.959 . S
C993 H1000 0.961 . S
C993 H1001 0.960 . S
C994 C992 1.381 . S
C994 C995 1.394 . S
C994 H1002 0.930 . S
C995 C994 1.394 . S
C995 C996 1.383 . S
C995 H1003 0.929 . S
C996 C995 1.383 . S
C996 C997 1.377 . S
C997 H981 0.930 . S
C997 C996 1.377 . S
C997 C998 1.376 1_545 S
C998 H982 0.940 . S
C998 C992 1.379 1_565 S
C998 C997 1.376 1_565 S
H999 C993 0.959 . S
H1000 C993 0.961 . S
H1001 C993 0.960 . S
H1002 C994 0.930 . S
H1003 C995 0.929 . S
H1004 C1012 0.929 . S
H1005 C1014 0.930 . S
H1006 C1016 0.930 . S
H1007 C1019 0.929 . S
H1008 C1022 0.930 . S
H1009 C1024 0.960 . S
H1010 C1024 0.960 . S
H1011 C1024 0.960 . S
C1012 H1004 0.929 . S
C1012 C1013 1.377 . S
C1012 C1014 1.384 . S
C1013 C1012 1.377 . S
C1013 C1019 1.390 . S
C1014 H1005 0.930 . S
C1014 C1012 1.384 . S
C1014 C1015 1.372 . S
C1015 C1014 1.372 . S
C1015 C1016 1.400 . S
C1015 C1020 1.490 . S
C1016 H1006 0.930 . S
C1016 C1015 1.400 . S
C1016 C1019 1.386 . S
H1017 C1033 0.930 . S
H1018 C1034 0.931 . S
C1019 H1007 0.929 . S
C1019 C1013 1.390 . S
C1019 C1016 1.386 . S
C1020 C1015 1.490 . S
C1020 C1022 1.395 . S
C1020 C1023 1.403 . S
H1021 C1027 0.930 . S
C1022 H1008 0.930 . S
C1022 C1020 1.395 . S
C1022 C1025 1.403 . S
C1023 C1020 1.403 . S
C1023 C1024 1.524 . S
C1023 C1027 1.400 . S
C1024 H1009 0.960 . S
C1024 H1010 0.960 . S
C1024 H1011 0.960 . S
C1024 C1023 1.524 . S
C1025 C1022 1.403 . S
C1025 C1026 1.392 . S
C1025 C1029 1.495 . S
C1026 C1025 1.392 . S
C1026 C1027 1.385 . S
C1026 C1028 1.478 . S
C1027 H1021 0.930 . S
C1027 C1023 1.400 . S
C1027 C1026 1.385 . S
C1028 C1026 1.478 . S
C1028 C1030 1.381 . S
C1028 C1034 1.383 . S
C1029 C1025 1.495 . S
C1029 H1035 0.959 . S
C1029 H1036 0.961 . S
C1029 H1037 0.960 . S
C1030 C1028 1.381 . S
C1030 C1031 1.394 . S
C1030 H1038 0.930 . S
C1031 C1030 1.394 . S
C1031 C1032 1.383 . S
C1031 H1039 0.929 . S
C1032 C1031 1.383 . S
C1032 C1033 1.377 . S
C1033 H1017 0.930 . S
C1033 C1032 1.377 . S
C1033 C1034 1.379 . S
C1034 H1018 0.931 . S
C1034 C1028 1.383 . S
C1034 C1033 1.379 . S
H1035 C1029 0.959 . S
H1036 C1029 0.961 . S
H1037 C1029 0.960 . S
H1038 C1030 0.930 . S
H1039 C1031 0.929 . S
C185 C95 1.283 . S
C204 C7 1.243 . S
C221 C117 1.276 . S
C240 C28 1.289 . S
C257 C50 1.272 . S
C276 C138 1.257 . S
C293 C73 1.268 . S
C312 C160 1.272 . S
C329 C94 1.268 . S
C348 C6 1.274 . S
C365 C29 1.282 . S
C384 C116 1.253 . S
C401 C51 1.285 . S
C420 C139 1.235 . S
C437 C72 1.282 . S
C456 C161 1.251 . S
C473 C115 1.271 . S
C492 C71 1.301 . S
C509 C5 1.275 . S
C528 C141 1.260 . S
C545 C31 1.283 . S
C564 C163 1.250 . S
C581 C53 1.282 . S
C600 C93 1.247 . S
C617 C75 1.262 . S
C636 C119 1.285 . S
C653 C9 1.273 . S
C672 C137 1.287 . S
C689 C159 1.277 . S
C708 C27 1.234 . S
C725 C97 1.278 . S
C744 C49 1.234 . S
C761 C8 1.567 . S
C780 C48 1.568 . S
C797 C26 1.567 . S
C816 C74 1.573 . S
C833 C140 1.570 . S
C852 C92 1.563 . S
C869 C162 1.567 . S
C888 C114 1.564 . S
C905 C118 1.415 . S
C924 C4 1.426 . S
C941 C30 1.423 . S
C960 C136 1.431 . S
C977 C158 1.423 . S
C996 C52 1.417 . S
C1013 C96 1.421 . S
C1032 C70 1.406 . S
