# Generated by pormake.
# Topology wgu, (5)-cn, num edge types: 1
# Building blocks:
#     Node 0, Type 0, BuildingBlock: XOMCOT_clean_sbu_1, # of connection points: 5
#     Node 1, Type 0, BuildingBlock: XOMCOT_clean_sbu_1, # of connection points: 5
#     Node 2, Type 0, BuildingBlock: XOMCOT_clean_sbu_1, # of connection points: 5
#     Node 3, Type 0, BuildingBlock: XOMCOT_clean_sbu_1, # of connection points: 5
#     Node 4, Type 0, BuildingBlock: XOMCOT_clean_sbu_1, # of connection points: 5
#     Node 5, Type 0, BuildingBlock: XOMCOT_clean_sbu_1, # of connection points: 5
#     Node 6, Type 0, BuildingBlock: XOMCOT_clean_sbu_1, # of connection points: 5
#     Node 7, Type 0, BuildingBlock: XOMCOT_clean_sbu_1, # of connection points: 5
#     Edge 8, Type (0, 0), BuildingBlock: XUDNAN_clean_linker_2, # of connection points: 2
#     Edge 9, Type (0, 0), BuildingBlock: XUDNAN_clean_linker_2, # of connection points: 2
#     Edge 10, Type (0, 0), BuildingBlock: XUDNAN_clean_linker_2, # of connection points: 2
#     Edge 11, Type (0, 0), BuildingBlock: XUDNAN_clean_linker_2, # of connection points: 2
#     Edge 12, Type (0, 0), BuildingBlock: XUDNAN_clean_linker_2, # of connection points: 2
#     Edge 13, Type (0, 0), BuildingBlock: XUDNAN_clean_linker_2, # of connection points: 2
#     Edge 14, Type (0, 0), BuildingBlock: XUDNAN_clean_linker_2, # of connection points: 2
#     Edge 15, Type (0, 0), BuildingBlock: XUDNAN_clean_linker_2, # of connection points: 2
#     Edge 16, Type (0, 0), BuildingBlock: XUDNAN_clean_linker_2, # of connection points: 2
#     Edge 17, Type (0, 0), BuildingBlock: XUDNAN_clean_linker_2, # of connection points: 2
#     Edge 18, Type (0, 0), BuildingBlock: XUDNAN_clean_linker_2, # of connection points: 2
#     Edge 19, Type (0, 0), BuildingBlock: XUDNAN_clean_linker_2, # of connection points: 2
#     Edge 20, Type (0, 0), BuildingBlock: XUDNAN_clean_linker_2, # of connection points: 2
#     Edge 21, Type (0, 0), BuildingBlock: XUDNAN_clean_linker_2, # of connection points: 2
#     Edge 22, Type (0, 0), BuildingBlock: XUDNAN_clean_linker_2, # of connection points: 2
#     Edge 23, Type (0, 0), BuildingBlock: XUDNAN_clean_linker_2, # of connection points: 2
#     Edge 24, Type (0, 0), BuildingBlock: XUDNAN_clean_linker_2, # of connection points: 2
#     Edge 25, Type (0, 0), BuildingBlock: XUDNAN_clean_linker_2, # of connection points: 2
#     Edge 26, Type (0, 0), BuildingBlock: XUDNAN_clean_linker_2, # of connection points: 2
#     Edge 27, Type (0, 0), BuildingBlock: XUDNAN_clean_linker_2, # of connection points: 2
# Relax obj value: 0.210
# Max RMSD: 0.184
# Mean RMSD: 0.172
data_MOF--net-wgu--node1-XOMCOT_clean_sbu_1--edge1-XUDNAN_clean_linker_2
_symmetry_space_group_name_H-M    P1
_symmetry_Int_Tables_number       1
_symmetry_cell_setting            triclinic
loop_
_symmetry_equiv_pos_as_xyz
'x, y, z'
_cell_length_a     33.020106
_cell_length_b     32.813215
_cell_length_c     28.928695
_cell_angle_alpha  94.664313
_cell_angle_beta   92.395559
_cell_angle_gamma 90.213026
loop_
_atom_site_label
_atom_site_type_symbol
_atom_site_fract_x
_atom_site_fract_y
_atom_site_fract_z
_atom_type_partial_charge
C0 C 0.25595 0.41067 0.17075 0.0
C1 C 0.24306 0.45049 0.16895 0.0
N2 N 0.26488 0.46831 0.13764 0.0
N3 N 0.28569 0.4035 0.14064 0.0
C4 C 0.29045 0.43917 0.12125 0.0
H5 H 0.24361 0.38822 0.19174 0.0
Co6 Co 0.31272 0.35499 0.12334 0.0
C7 C 0.39896 0.3865 0.11121 0.0
O8 O 0.41236 0.35342 0.08833 0.0
N9 N 0.33997 0.30631 0.10644 0.0
C10 C 0.37892 0.25155 0.11078 0.0
C11 C 0.37268 0.29105 0.12847 0.0
C12 C 0.3262 0.27514 0.07647 0.0
N13 N 0.34946 0.24146 0.07824 0.0
O14 O 0.32036 0.34409 0.18713 0.0
H15 H 0.38961 0.30691 0.15738 0.0
H16 H 0.29825 0.27641 0.05575 0.0
O17 O 0.36259 0.38789 0.12475 0.0
C18 C 0.29279 0.31729 0.19111 0.0
O19 O 0.26735 0.30796 0.15561 0.0
N20 N 0.29987 0.36193 0.0611 0.0
C21 C 0.26631 0.35021 0.97131 0.0
C22 C 0.30842 0.35499 0.97898 0.0
C23 C 0.32474 0.36122 0.02454 0.0
C24 C 0.2589 0.35885 0.05379 0.0
C25 C 0.24146 0.35377 0.0093 0.0
H26 H 0.35713 0.36229 0.03011 0.0
H27 H 0.2396 0.35754 0.08292 0.0
H28 H 0.31109 0.44295 0.0938 0.0
H29 H 0.21918 0.46494 0.18875 0.0
H30 H 0.40142 0.23084 0.12357 0.0
H31 H 0.32851 0.35191 0.95027 0.0
H32 H 0.20896 0.34919 1.00496 0.0
C33 C 0.57102 0.31117 0.4335 0.0
C34 C 0.53357 0.29253 0.43176 0.0
N35 N 0.53352 0.26517 0.46414 0.0
N36 N 0.59465 0.29588 0.46685 0.0
C37 C 0.57114 0.2678 0.48488 0.0
H38 H 0.58067 0.33423 0.41157 0.0
Co39 Co 0.6482 0.31226 0.47945 0.0
C40 C 0.66861 0.29497 0.57503 0.0
O41 O 0.6812 0.33308 0.58213 0.0
N42 N 0.70383 0.32796 0.49109 0.0
C43 C 0.76485 0.35767 0.50221 0.0
C44 C 0.72376 0.3643 0.49705 0.0
C45 C 0.73388 0.3 0.49322 0.0
N46 N 0.77107 0.31711 0.49933 0.0
O47 O 0.6652 0.26521 0.44175 0.0
H48 H 0.7102 0.3941 0.4974 0.0
H49 H 0.7286 0.26732 0.49049 0.0
O50 O 0.6525 0.28189 0.53549 0.0
C51 C 0.67571 0.2758 0.40254 0.0
O52 O 0.67334 0.31461 0.39457 0.0
N53 N 0.62899 0.36037 0.51136 0.0
C54 C 0.5914 0.43367 0.54015 0.0
C55 C 0.58519 0.39842 0.56333 0.0
C56 C 0.60399 0.36177 0.54802 0.0
C57 C 0.63283 0.39382 0.48681 0.0
C58 C 0.61551 0.43111 0.50148 0.0
H59 H 0.59704 0.33428 0.56438 0.0
H60 H 0.64875 0.39124 0.45479 0.0
H61 H 0.58135 0.24986 0.51281 0.0
H62 H 0.50864 0.2982 0.40772 0.0
H63 H 0.78837 0.38091 0.50633 0.0
H64 H 0.56536 0.39903 0.59227 0.0
H65 H 0.61949 0.4573 0.48156 0.0
C66 C 0.69327 0.59303 0.9818 0.0
C67 C 0.70554 0.55609 0.96207 0.0
N68 N 0.74416 0.55029 0.97642 0.0
N69 N 0.7238 0.61064 0.00883 0.0
C70 C 0.75486 0.5839 1.00457 0.0
H71 H 0.66384 0.60665 0.97648 0.0
Co72 Co 0.71515 0.66285 0.03657 0.0
C73 C 0.7805 0.64009 0.11276 0.0
O74 O 0.78444 0.60023 0.10664 0.0
N75 N 0.70507 0.71535 0.06253 0.0
C76 C 0.69627 0.77044 0.11096 0.0
C77 C 0.70409 0.7291 0.10774 0.0
C78 C 0.69724 0.74846 0.03909 0.0
N79 N 0.69223 0.78249 0.0676 0.0
O80 O 0.75559 0.68429 0.99846 0.0
H81 H 0.70915 0.71039 0.13652 0.0
H82 H 0.69507 0.74771 1.00169 0.0
O83 O 0.75575 0.65866 0.08682 0.0
C84 C 0.74277 0.6904 0.95738 0.0
O85 O 0.70473 0.68154 0.94534 0.0
N86 N 0.67394 0.64164 0.07119 0.0
C87 C 0.60716 0.60018 0.10143 0.0
C88 C 0.64677 0.58787 0.11248 0.0
C89 C 0.67974 0.60894 0.09695 0.0
C90 C 0.6357 0.6552 0.06182 0.0
C91 C 0.60185 0.63514 0.07701 0.0
H92 H 0.70955 0.59686 0.10265 0.0
H93 H 0.63126 0.68018 0.03999 0.0
H94 H 0.78495 0.58945 0.01995 0.0
H95 H 0.68742 0.53486 0.93911 0.0
H96 H 0.69488 0.79021 0.14266 0.0
H97 H 0.65224 0.56106 0.1313 0.0
H98 H 0.5718 0.64536 0.06711 0.0
C99 C 0.41415 0.83156 0.57927 0.0
C100 C 0.44953 0.85093 0.57013 0.0
N101 N 0.47769 0.82225 0.56053 0.0
N102 N 0.41984 0.79083 0.57534 0.0
C103 C 0.45903 0.78599 0.56415 0.0
H104 H 0.38554 0.84614 0.58651 0.0
Co105 Co 0.37739 0.75407 0.57827 0.0
C106 C 0.41292 0.67202 0.55555 0.0
O107 O 0.38077 0.66188 0.52868 0.0
N108 N 0.33307 0.71796 0.58273 0.0
C109 C 0.29436 0.67136 0.61173 0.0
C110 C 0.33327 0.68517 0.60813 0.0
C111 C 0.2932 0.72422 0.57289 0.0
N112 N 0.26893 0.69624 0.58992 0.0
O113 O 0.38198 0.75974 0.64495 0.0
H114 H 0.3598 0.67345 0.62563 0.0
H115 H 0.28173 0.75082 0.55737 0.0
O116 O 0.41571 0.70792 0.5765 0.0
C117 C 0.35423 0.78346 0.66034 0.0
O118 O 0.33072 0.80123 0.6303 0.0
N119 N 0.37066 0.75238 0.51305 0.0
C120 C 0.35519 0.76515 0.41926 0.0
C121 C 0.38888 0.74232 0.4332 0.0
C122 C 0.39646 0.7368 0.4804 0.0
C123 C 0.33938 0.77647 0.50029 0.0
C124 C 0.33025 0.7821 0.45386 0.0
H125 H 0.42393 0.72154 0.49044 0.0
H126 H 0.32212 0.79283 0.5266 0.0
H127 H 0.47301 0.75663 0.55617 0.0
H128 H 0.45396 0.88359 0.56949 0.0
H129 H 0.28567 0.64595 0.63082 0.0
H130 H 0.41006 0.73003 0.40819 0.0
H131 H 0.30397 0.80013 0.44554 0.0
C132 C 0.74376 0.08204 0.89106 0.0
C133 C 0.72335 0.04605 0.89467 0.0
N134 N 0.71172 0.04533 0.93857 0.0
N135 N 0.74512 0.10448 0.93248 0.0
C136 C 0.72443 0.08131 0.96045 0.0
H137 H 0.75907 0.08964 0.8606 0.0
Co138 Co 0.77626 0.15328 0.94637 0.0
C139 C 0.83473 0.08503 0.95299 0.0
O140 O 0.80712 0.06432 0.97272 0.0
N141 N 0.80602 0.20168 0.95906 0.0
C142 C 0.85176 0.24975 0.98312 0.0
C143 C 0.8429 0.20844 0.98048 0.0
C144 C 0.79332 0.23906 0.94879 0.0
N145 N 0.82053 0.26864 0.9628 0.0
O146 O 0.77677 0.16093 0.88117 0.0
H147 H 0.86229 0.18498 0.99319 0.0
H148 H 0.76444 0.2448 0.93166 0.0
O149 O 0.82699 0.12137 0.94203 0.0
C150 C 0.74477 0.1783 0.86661 0.0
O151 O 0.71651 0.18813 0.89611 0.0
N152 N 0.77294 0.14945 0.01064 0.0
C153 C 0.75772 0.15502 0.1049 0.0
C154 C 0.79527 0.14125 0.08949 0.0
C155 C 0.80249 0.13897 0.04199 0.0
C156 C 0.73689 0.16443 0.02561 0.0
C157 C 0.72835 0.16682 0.07255 0.0
H158 H 0.83224 0.13018 0.03111 0.0
H159 H 0.71449 0.17434 1.00062 0.0
H160 H 0.7225 0.08821 0.99739 0.0
H161 H 0.71965 0.02126 0.86775 0.0
H162 H 0.87926 0.2646 0.99771 0.0
H163 H 0.81904 0.13326 0.11402 0.0
H164 H 0.69942 0.17866 0.08361 0.0
C165 C 0.9106 0.71029 0.5251 0.0
C166 C 0.94657 0.69176 0.53582 0.0
N167 N 0.97611 0.72034 0.53895 0.0
N168 N 0.91728 0.75042 0.52154 0.0
C169 C 0.95768 0.7557 0.52993 0.0
H170 H 0.88103 0.69583 0.52249 0.0
Co171 Co 0.8749 0.78681 0.51552 0.0
C172 C 0.91583 0.86879 0.53931 0.0
O173 O 0.88813 0.88009 0.56898 0.0
N174 N 0.83065 0.82229 0.50849 0.0
C175 C 0.79081 0.87168 0.48473 0.0
C176 C 0.82992 0.85767 0.48774 0.0
C177 C 0.79117 0.81465 0.51572 0.0
N178 N 0.7662 0.84447 0.50228 0.0
O179 O 0.8776 0.7804 0.4489 0.0
H180 H 0.85579 0.87171 0.47355 0.0
H181 H 0.78048 0.78652 0.52777 0.0
O182 O 0.91376 0.83328 0.51732 0.0
C183 C 0.85718 0.75015 0.42947 0.0
O184 O 0.83719 0.72694 0.45573 0.0
N185 N 0.87034 0.78929 0.58088 0.0
C186 C 0.85742 0.77842 0.67446 0.0
C187 C 0.89124 0.80054 0.66182 0.0
C188 C 0.89763 0.80489 0.61471 0.0
C189 C 0.8393 0.76522 0.5926 0.0
C190 C 0.83173 0.76015 0.63883 0.0
H191 H 0.92523 0.81946 0.60576 0.0
H192 H 0.82131 0.74804 0.5657 0.0
H193 H 0.97292 0.78509 0.53237 0.0
H194 H 0.95056 0.65996 0.54232 0.0
H195 H 0.78148 0.8994 0.46963 0.0
H196 H 0.91282 0.81396 0.68796 0.0
H197 H 0.80675 0.74061 0.6464 0.0
C198 C 0.18915 0.9383 0.0847 0.0
C199 C 0.20446 0.9768 0.08199 0.0
N200 N 0.23381 0.97456 0.05099 0.0
N201 N 0.20862 0.91174 0.05554 0.0
C202 C 0.2361 0.93464 0.03561 0.0
H203 H 0.16449 0.93021 0.10571 0.0
Co204 Co 0.19177 0.8578 0.04633 0.0
C205 C 0.21698 0.82647 0.95408 0.0
O206 O 0.18054 0.81037 0.94683 0.0
N207 N 0.17427 0.8026 0.03915 0.0
C208 C 0.14086 0.74348 0.03944 0.0
C209 C 0.13704 0.78517 0.03817 0.0
C210 C 0.19995 0.77063 0.04036 0.0
N211 N 0.18059 0.73444 0.04116 0.0
O212 O 0.23592 0.84203 0.08623 0.0
H213 H 0.10861 0.80116 0.03817 0.0
H214 H 0.23255 0.7741 0.04285 0.0
O215 O 0.22587 0.84779 0.99225 0.0
C216 C 0.23055 0.84714 0.12962 0.0
O217 O 0.19684 0.86413 0.14388 0.0
N218 N 0.14712 0.87589 0.0105 0.0
C219 C 0.08254 0.92269 0.97823 0.0
C220 C 0.11812 0.91804 0.95347 0.0
C221 C 0.15033 0.89524 0.97062 0.0
C222 C 0.1128 0.88026 0.03497 0.0
C223 C 0.07999 0.9028 0.01917 0.0
H224 H 0.17869 0.89604 0.95354 0.0
H225 H 0.11196 0.86855 0.06881 0.0
H226 H 0.25622 0.92271 0.00926 0.0
H227 H 0.19473 0.00442 0.10133 0.0
H228 H 0.11623 0.72174 0.04025 0.0
H229 H 0.12181 0.93336 0.92213 0.0
H230 H 0.05394 0.90676 0.04057 0.0
C231 C 0.11565 0.23812 0.55458 0.0
C232 C 0.07759 0.25454 0.55257 0.0
N233 N 0.05195 0.22669 0.53021 0.0
N234 N 0.1146 0.2 0.5335 0.0
C235 C 0.07544 0.19381 0.51879 0.0
H236 H 0.1426 0.25297 0.57062 0.0
Co237 Co 0.16101 0.1675 0.52895 0.0
C238 C 0.12187 0.08726 0.54498 0.0
O239 O 0.14437 0.0849 0.58318 0.0
N240 N 0.20911 0.13693 0.52276 0.0
C241 C 0.25981 0.0927 0.51343 0.0
C242 C 0.21892 0.09688 0.52095 0.0
C243 C 0.24422 0.15596 0.51475 0.0
N244 N 0.27558 0.13009 0.50946 0.0
O245 O 0.1611 0.17264 0.46366 0.0
H246 H 0.19813 0.0719 0.52363 0.0
H247 H 0.24697 0.18877 0.51439 0.0
O248 O 0.12656 0.11725 0.51981 0.0
C249 C 0.17725 0.207 0.45703 0.0
O250 O 0.18481 0.23322 0.49316 0.0
N251 N 0.16387 0.16698 0.59446 0.0
C252 C 0.1693 0.19199 0.68906 0.0
C253 C 0.13247 0.17732 0.6681 0.0
C254 C 0.13038 0.16484 0.6206 0.0
C255 C 0.2 0.18007 0.61516 0.0
C256 C 0.20357 0.19177 0.6623 0.0
H257 H 0.10123 0.15619 0.60424 0.0
H258 H 0.22577 0.18532 0.59496 0.0
H259 H 0.06449 0.16558 0.50059 0.0
H260 H 0.0699 0.28502 0.5663 0.0
H261 H 0.27639 0.06429 0.51027 0.0
H262 H 0.10517 0.17755 0.68761 0.0
H263 H 0.23226 0.20425 0.67665 0.0
H264 H 0.20633 0.05059 0.04113 0.0
H265 H 0.3138 0.97566 0.03323 0.0
H266 H 0.35553 0.0375 0.02526 0.0
H267 H 0.23993 0.12978 0.96197 0.0
H268 H 0.21651 0.17005 0.99738 0.0
H269 H 0.19471 0.11932 0.99192 0.0
H270 H 0.19841 0.11821 0.08161 0.0
H271 H 0.22026 0.16862 0.08724 0.0
H272 H 0.24644 0.12731 0.11279 0.0
H273 H 0.38618 0.10837 0.03386 0.0
H274 H 0.40279 0.18116 0.05564 0.0
H275 H 0.27468 0.20899 0.05782 0.0
C276 C 0.23852 0.04716 0.03643 0.0
C277 C 0.25702 0.00858 0.03787 0.0
C278 C 0.29914 0.005 0.03167 0.0
C279 C 0.32296 0.03994 0.02717 0.0
C280 C 0.30392 0.07793 0.02799 0.0
C281 C 0.26245 0.08156 0.03167 0.0
C282 C 0.24968 0.12586 0.03699 0.0
C283 C 0.22367 0.13689 0.99453 0.0
C284 C 0.22742 0.13554 0.08234 0.0
C285 C 0.29063 0.14672 0.03868 0.0
C286 C 0.32154 0.11871 0.0325 0.0
C287 C 0.36217 0.1306 0.03763 0.0
C288 C 0.37133 0.17192 0.05031 0.0
C289 C 0.34004 0.20078 0.05806 0.0
C290 C 0.29927 0.18799 0.05083 0.0
H291 H 1.00329 0.2873 0.56739 0.0
H292 H 1.00124 0.17789 0.47181 0.0
H293 H 0.92826 0.18782 0.45554 0.0
H294 H 0.90506 0.27485 0.61276 0.0
H295 H 0.89414 0.32876 0.61577 0.0
H296 H 0.94578 0.31179 0.62156 0.0
H297 H 0.96517 0.35398 0.55373 0.0
H298 H 0.91363 0.37111 0.54773 0.0
H299 H 0.9377 0.34588 0.49854 0.0
H300 H 0.85491 0.21075 0.44879 0.0
H301 H 0.78874 0.24578 0.45045 0.0
H302 H 0.84037 0.34128 0.54787 0.0
C303 C 0.98806 0.26531 0.54276 0.0
C304 C 0.00881 0.23171 0.52095 0.0
C305 C 0.98655 0.20369 0.4895 0.0
C306 C 0.94491 0.20915 0.47984 0.0
C307 C 0.92581 0.24284 0.50171 0.0
C308 C 0.94677 0.27048 0.5324 0.0
C309 C 0.91969 0.30487 0.55042 0.0
C310 C 0.91595 0.30505 0.60326 0.0
C311 C 0.93496 0.34641 0.53677 0.0
C312 C 0.88013 0.2925 0.52478 0.0
C313 C 0.88411 0.25643 0.49717 0.0
C314 C 0.8515 0.23894 0.47039 0.0
C315 C 0.81398 0.25893 0.47175 0.0
C316 C 0.80941 0.29622 0.49938 0.0
C317 C 0.84305 0.31304 0.52618 0.0
H318 H 0.72889 0.96602 0.9134 0.0
H319 H 0.66658 0.04464 0.01483 0.0
H320 H 0.65111 0.9845 0.05764 0.0
H321 H 0.66183 0.87644 0.91341 0.0
H322 H 0.70337 0.84112 0.90793 0.0
H323 H 0.70609 0.88964 0.88318 0.0
H324 H 0.77366 0.90627 0.92969 0.0
H325 H 0.7712 0.85788 0.95453 0.0
H326 H 0.77568 0.90455 0.99187 0.0
H327 H 0.64733 0.91617 0.09232 0.0
H328 H 0.6541 0.84523 0.11483 0.0
H329 H 0.71933 0.81294 0.99015 0.0
C330 C 0.71088 0.97057 0.94375 0.0
C331 C 0.69854 0.01002 0.96053 0.0
C332 C 0.6763 0.01466 1.00143 0.0
C333 C 0.66729 0.9807 0.02583 0.0
C334 C 0.68068 0.94236 0.00875 0.0
C335 C 0.7018 0.93714 0.96846 0.0
C336 C 0.71513 0.89333 0.95887 0.0
C337 C 0.6954 0.87401 0.91314 0.0
C338 C 0.76166 0.89036 0.95877 0.0
C339 C 0.69854 0.87472 1.00033 0.0
C340 C 0.67867 0.90333 0.02868 0.0
C341 C 0.66247 0.89343 0.07012 0.0
C342 C 0.66668 0.85319 0.08279 0.0
C343 C 0.68691 0.82346 0.05408 0.0
C344 C 0.70285 0.83461 0.01232 0.0
H345 H 0.04385 0.75272 0.50555 0.0
H346 H 1.00152 0.6748 0.60775 0.0
H347 H 0.07223 0.66191 0.63335 0.0
H348 H 0.12834 0.69076 0.47287 0.0
H349 H 0.16166 0.73306 0.46502 0.0
H350 H 0.10768 0.7386 0.45666 0.0
H351 H 0.1093 0.80146 0.51705 0.0
H352 H 0.16335 0.79615 0.52549 0.0
H353 H 0.13127 0.79666 0.57444 0.0
H354 H 0.14673 0.65665 0.64723 0.0
H355 H 0.22095 0.65731 0.64742 0.0
H356 H 0.21629 0.73541 0.53286 0.0
C357 C 0.04968 0.73341 0.53368 0.0
C358 C 0.01741 0.71471 0.55478 0.0
C359 C 0.02594 0.68908 0.59098 0.0
C360 C 0.06593 0.68177 0.60588 0.0
C361 C 0.09713 0.70011 0.58398 0.0
C362 C 0.08962 0.72528 0.54855 0.0
C363 C 0.12895 0.73946 0.52952 0.0
C364 C 0.13181 0.72457 0.47796 0.0
C365 C 0.13347 0.78621 0.53709 0.0
C366 C 0.15957 0.71813 0.55966 0.0
C367 C 0.14047 0.69595 0.59106 0.0
C368 C 0.16211 0.67374 0.62264 0.0
C369 C 0.20449 0.67406 0.62213 0.0
C370 C 0.22508 0.69614 0.58991 0.0
C371 C 0.20194 0.71846 0.5583 0.0
H372 H 0.78565 0.50336 0.03487 0.0
H373 H 0.75138 0.51473 0.89052 0.0
H374 H 0.77633 0.44508 0.8699 0.0
H375 H 0.87771 0.43537 0.01322 0.0
H376 H 0.86679 0.40595 0.06124 0.0
H377 H 0.85408 0.45946 0.06336 0.0
H378 H 0.77976 0.44133 0.07882 0.0
H379 H 0.79198 0.38786 0.07606 0.0
H380 H 0.75207 0.40564 0.03845 0.0
H381 H 0.79132 0.37143 0.86705 0.0
H382 H 0.80215 0.29886 0.88116 0.0
H383 H 0.82963 0.33357 0.02666 0.0
C384 C 0.78533 0.49167 0.99876 0.0
C385 C 0.76724 0.51434 0.96403 0.0
C386 C 0.76558 0.49775 0.91732 0.0
C387 C 0.77965 0.45831 0.90537 0.0
C388 C 0.79557 0.43584 0.94059 0.0
C389 C 0.7992 0.45201 0.98629 0.0
C390 C 0.81348 0.4197 0.01789 0.0
C391 C 0.85552 0.43079 0.04024 0.0
C392 C 0.78246 0.41327 0.05497 0.0
C393 C 0.81551 0.38261 0.9831 0.0
C394 C 0.80528 0.3928 0.93867 0.0
C395 C 0.80058 0.36324 0.90138 0.0
C396 C 0.8065 0.32219 0.90967 0.0
C397 C 0.81735 0.3111 0.95469 0.0
C398 C 0.82247 0.3417 0.99174 0.0
H399 H 0.547 0.78231 0.58292 0.0
H400 H 0.49877 0.87844 0.50274 0.0
H401 H 0.5674 0.89302 0.47732 0.0
H402 H 0.63821 0.83575 0.62311 0.0
H403 H 0.66971 0.79094 0.62016 0.0
H404 H 0.61647 0.78623 0.62999 0.0
H405 H 0.60824 0.73334 0.55865 0.0
H406 H 0.66152 0.73787 0.54865 0.0
H407 H 0.62448 0.74662 0.50303 0.0
H408 H 0.64069 0.89775 0.46114 0.0
H409 H 0.71458 0.89432 0.457 0.0
H410 H 0.71695 0.79755 0.55133 0.0
C411 C 0.55102 0.80606 0.5596 0.0
C412 C 0.51769 0.82929 0.54472 0.0
C413 C 0.52401 0.86059 0.5148 0.0
C414 C 0.5628 0.86892 0.50001 0.0
C415 C 0.59512 0.84589 0.51571 0.0
C416 C 0.58981 0.81522 0.54501 0.0
C417 C 0.63013 0.79642 0.55832 0.0
C418 C 0.63915 0.80273 0.61102 0.0
C419 C 0.63114 0.75086 0.54112 0.0
C420 C 0.65881 0.82141 0.53198 0.0
C421 C 0.63785 0.84948 0.50738 0.0
C422 C 0.65752 0.87599 0.48041 0.0
C423 C 0.69981 0.87392 0.47857 0.0
C424 C 0.72238 0.84577 0.50393 0.0
C425 C 0.70116 0.81919 0.53097 0.0
H426 H 0.19703 0.51558 0.14003 0.0
H427 H 0.32206 0.51295 0.09902 0.0
H428 H 0.31303 0.5798 0.06704 0.0
H429 H 0.15512 0.56252 0.0419 0.0
H430 H 0.11984 0.59374 0.07467 0.0
H431 H 0.13588 0.5455 0.09453 0.0
H432 H 0.16004 0.58176 0.17391 0.0
H433 H 0.14363 0.63002 0.15447 0.0
H434 H 0.19526 0.62401 0.17545 0.0
H435 H 0.2902 0.64635 0.03823 0.0
H436 H 0.25636 0.70996 0.01886 0.0
H437 H 0.14705 0.67062 0.08136 0.0
C438 C 0.22268 0.5292 0.12486 0.0
C439 C 0.26018 0.50866 0.12175 0.0
C440 C 0.29281 0.52758 0.10109 0.0
C441 C 0.28804 0.56568 0.08297 0.0
C442 C 0.25051 0.58468 0.08592 0.0
C443 C 0.2185 0.5673 0.1067 0.0
C444 C 0.18146 0.59441 0.1058 0.0
C445 C 0.14599 0.57274 0.07754 0.0
C446 C 0.16941 0.60838 0.15535 0.0
C447 C 0.19771 0.62972 0.08127 0.0
C448 C 0.23754 0.6234 0.06993 0.0
C449 C 0.25908 0.65177 0.04721 0.0
C450 C 0.23962 0.68792 0.03651 0.0
C451 C 0.19904 0.6956 0.04875 0.0
C452 C 0.17784 0.66568 0.07095 0.0
H453 H 0.30257 0.19551 0.46723 0.0
H454 H 0.34317 0.09017 0.5374 0.0
H455 H 0.41438 0.11224 0.53155 0.0
H456 H 0.38605 0.19699 0.38814 0.0
H457 H 0.3873 0.25207 0.39129 0.0
H458 H 0.3404 0.22557 0.39864 0.0
H459 H 0.33334 0.26768 0.47786 0.0
H460 H 0.38065 0.29337 0.4708 0.0
H461 H 0.37357 0.26652 0.52184 0.0
H462 H 0.48123 0.14839 0.52179 0.0
H463 H 0.53804 0.19361 0.50601 0.0
H464 H 0.45289 0.27602 0.444 0.0
C465 C 0.32639 0.17702 0.48138 0.0
C466 C 0.31722 0.14114 0.50301 0.0
C467 C 0.34942 0.11751 0.52032 0.0
C468 C 0.38996 0.12995 0.51736 0.0
C469 C 0.39784 0.16593 0.49665 0.0
C470 C 0.36691 0.18891 0.47859 0.0
C471 C 0.38327 0.22667 0.45869 0.0
C472 C 0.37369 0.22523 0.40607 0.0
C473 C 0.36673 0.26587 0.48383 0.0
C474 C 0.42826 0.22189 0.46934 0.0
C475 C 0.4361 0.18658 0.49099 0.0
C476 C 0.47542 0.17606 0.50472 0.0
C477 C 0.50754 0.20218 0.49592 0.0
C478 C 0.50029 0.23858 0.47366 0.0
C479 C 0.45989 0.2483 0.4604 0.0
H480 H 0.59996 0.51707 0.08693 0.0
H481 H 0.53413 0.6251 0.1361 0.0
H482 H 0.47428 0.58185 0.14765 0.0
H483 H 0.51778 0.46794 0.02296 0.0
H484 H 0.53207 0.41713 0.03641 0.0
H485 H 0.57026 0.45627 0.03524 0.0
H486 H 0.59425 0.4441 0.11942 0.0
H487 H 0.55618 0.40479 0.12083 0.0
H488 H 0.55816 0.44716 0.16463 0.0
H489 H 0.42091 0.52626 0.15162 0.0
H490 H 0.3781 0.46399 0.14522 0.0
H491 H 0.47921 0.39309 0.09178 0.0
C492 C 0.57326 0.53158 0.10107 0.0
C493 C 0.57185 0.57442 0.11119 0.0
C494 C 0.53586 0.59233 0.12821 0.0
C495 C 0.50182 0.568 0.13503 0.0
C496 C 0.50421 0.52584 0.1244 0.0
C497 C 0.53903 0.50785 0.10769 0.0
C498 C 0.53331 0.46224 0.09665 0.0
C499 C 0.53866 0.45021 0.04474 0.0
C500 C 0.56219 0.43816 0.12721 0.0
C501 C 0.48969 0.45729 0.10945 0.0
C502 C 0.47346 0.49422 0.12574 0.0
C503 C 0.4334 0.4972 0.13905 0.0
C504 C 0.4093 0.4616 0.13528 0.0
C505 C 0.42518 0.42354 0.1179 0.0
C506 C 0.46605 0.42159 0.10521 0.0
H507 H 0.51071 0.4495 0.53011 0.0
H508 H 0.62581 0.50536 0.57673 0.0
H509 H 0.59205 0.57242 0.59074 0.0
H510 H 0.47701 0.53082 0.46679 0.0
H511 H 0.42443 0.52622 0.48007 0.0
H512 H 0.45662 0.48206 0.47928 0.0
H513 H 0.43836 0.47054 0.56351 0.0
H514 H 0.40583 0.51454 0.56446 0.0
H515 H 0.44574 0.51156 0.60849 0.0
H516 H 0.54564 0.63411 0.59609 0.0
H517 H 0.49137 0.68547 0.58935 0.0
H518 H 0.40773 0.58933 0.53483 0.0
C519 C 0.52845 0.47574 0.5444 0.0
C520 C 0.57057 0.47243 0.55339 0.0
C521 C 0.59334 0.50746 0.57046 0.0
C522 C 0.57443 0.54554 0.57842 0.0
C523 C 0.53283 0.54805 0.56857 0.0
C524 C 0.51015 0.51406 0.55179 0.0
C525 C 0.46666 0.52545 0.54049 0.0
C526 C 0.45555 0.51555 0.48858 0.0
C527 C 0.43743 0.50427 0.57107 0.0
C528 C 0.46843 0.57117 0.55305 0.0
C529 C 0.50668 0.58363 0.56975 0.0
C530 C 0.51555 0.62463 0.58317 0.0
C531 C 0.48456 0.65361 0.57923 0.0
C532 C 0.44537 0.6415 0.56137 0.0
C533 C 0.43741 0.59966 0.54836 0.0
H534 H 1.00012 0.91255 0.98278 0.0
H535 H 0.09091 0.99787 0.94373 0.0
H536 H 0.03711 0.04742 0.9275 0.0
H537 H 0.9199 0.93823 0.899 0.0
H538 H 0.88056 0.9331 0.93954 0.0
H539 H 0.92593 0.90304 0.94347 0.0
H540 H 0.93808 0.93125 0.02931 0.0
H541 H 0.89288 0.96145 0.02553 0.0
H542 H 0.94067 0.98576 0.04341 0.0
H543 H 0.97293 0.09016 0.92139 0.0
H544 H 0.90456 0.12104 0.92534 0.0
H545 H 0.85727 0.00757 0.96966 0.0
C546 C 0.00875 0.94149 0.97043 0.0
C547 C 0.04985 0.95105 0.96426 0.0
C548 C 0.05965 0.98934 0.94787 0.0
C549 C 0.02928 0.01787 0.93883 0.0
C550 C 0.98916 0.0077 0.94615 0.0
C551 C 0.9789 0.97028 0.96135 0.0
C552 C 0.93393 0.96744 0.9688 0.0
C553 C 0.91391 0.93344 0.93572 0.0
C554 C 0.92595 0.96112 0.01978 0.0
C555 C 0.92056 0.00934 0.95624 0.0
C556 C 0.95266 0.03216 0.94295 0.0
C557 C 0.94752 0.07239 0.93135 0.0
C558 C 0.90862 0.0897 0.93368 0.0
C559 C 0.8755 0.06681 0.94775 0.0
C560 C 0.88181 0.02602 0.95868 0.0
H561 H 0.95333 0.92548 0.60138 0.0
H562 H 0.95141 0.8786 0.45689 0.0
H563 H 1.00209 0.9312 0.44103 0.0
H564 H 0.96543 0.03164 0.58547 0.0
H565 H 1.0 0.04161 0.63501 0.0
H566 H 0.96295 1.00114 0.63439 0.0
H567 H 0.01992 0.94911 0.64938 0.0
H568 H 0.0571 0.9895 0.65049 0.0
H569 H 0.06163 0.94445 0.61107 0.0
H570 H 0.05047 0.99308 0.44082 0.0
H571 H 0.09925 0.05071 0.45862 0.0
H572 H 0.07369 0.05171 0.60438 0.0
C573 C 0.96364 0.92628 0.56641 0.0
C574 C 0.94826 0.89821 0.53024 0.0
C575 C 0.96291 0.89979 0.48509 0.0
C576 C 0.99148 0.92973 0.47575 0.0
C577 C 1.00574 0.95734 0.51215 0.0
C578 C 0.99287 0.9552 0.55679 0.0
C579 C 0.01429 0.98687 0.59036 0.0
C580 C 0.98385 0.0171 0.61261 0.0
C581 C 0.03975 0.96625 0.62751 0.0
C582 C 0.04097 0.0075 0.55771 0.0
C583 C 0.03519 0.99065 0.51255 0.0
C584 C 0.05553 0.00609 0.47619 0.0
C585 C 0.08297 0.03894 0.48649 0.0
C586 C 0.09046 0.05531 0.53285 0.0
C587 C 0.06891 0.03942 0.56866 0.0
H588 H 0.28193 0.34513 0.28156 0.0
H589 H 0.29307 0.23549 0.1892 0.0
H590 H 0.26776 0.19375 0.24921 0.0
H591 H 0.30661 0.29507 0.39365 0.0
H592 H 0.2699 0.32608 0.42435 0.0
H593 H 0.29651 0.34617 0.3779 0.0
H594 H 0.22782 0.36204 0.33702 0.0
H595 H 0.2008 0.34126 0.38252 0.0
H596 H 0.19138 0.32136 0.3231 0.0
H597 H 0.23051 0.16563 0.31349 0.0
H598 H 0.19218 0.1521 0.38257 0.0
H599 H 0.20455 0.2801 0.43245 0.0
C600 C 0.28104 0.31215 0.27517 0.0
C601 C 0.29017 0.29323 0.23145 0.0
C602 C 0.28685 0.25022 0.22306 0.0
C603 C 0.27232 0.22632 0.25678 0.0
C604 C 0.26135 0.24596 0.29879 0.0
C605 C 0.26637 0.28778 0.30859 0.0
C606 C 0.24884 0.30166 0.35474 0.0
C607 C 0.28247 0.31821 0.38973 0.0
C608 C 0.21522 0.33345 0.34895 0.0
C609 C 0.23173 0.26158 0.36812 0.0
C610 C 0.23949 0.22972 0.33567 0.0
C611 C 0.22481 0.19022 0.3396 0.0
C612 C 0.2026 0.18289 0.37854 0.0
C613 C 0.19528 0.21501 0.41275 0.0
C614 C 0.20974 0.25483 0.40695 0.0
H615 H 0.71107 0.24699 0.83701 0.0
H616 H 0.76426 0.13205 0.78714 0.0
H617 H 0.74647 0.14697 0.70588 0.0
H618 H 0.62844 0.24846 0.75473 0.0
H619 H 0.632 0.3026 0.74878 0.0
H620 H 0.64852 0.28241 0.80241 0.0
H621 H 0.7196 0.31522 0.79728 0.0
H622 H 0.70303 0.33619 0.74414 0.0
H623 H 0.74756 0.30462 0.74551 0.0
H624 H 0.71837 0.17397 0.6298 0.0
H625 H 0.69357 0.21516 0.56613 0.0
H626 H 0.66391 0.31383 0.66756 0.0
C627 C 0.7191 0.22503 0.80891 0.0
C628 C 0.73868 0.18825 0.81803 0.0
C629 C 0.74932 0.16047 0.7806 0.0
C630 C 0.73904 0.16857 0.73451 0.0
C631 C 0.71886 0.20491 0.72671 0.0
C632 C 0.70994 0.23306 0.763 0.0
C633 C 0.69012 0.27076 0.74579 0.0
C634 C 0.64723 0.27636 0.76402 0.0
C635 C 0.71667 0.30894 0.75895 0.0
C636 C 0.68876 0.25942 0.69405 0.0
C637 C 0.70482 0.22108 0.68354 0.0
C638 C 0.70598 0.20409 0.63773 0.0
C639 C 0.69148 0.22744 0.60185 0.0
C640 C 0.67677 0.26746 0.61214 0.0
C641 C 0.67497 0.28324 0.65882 0.0
H642 H 0.84169 0.67634 0.38195 0.0
H643 H 0.86473 0.80369 0.36173 0.0
H644 H 0.85174 0.78882 0.27686 0.0
H645 H 0.88873 0.63385 0.2755 0.0
H646 H 0.85183 0.59309 0.26589 0.0
H647 H 0.86537 0.61371 0.32415 0.0
H648 H 0.78975 0.62887 0.33847 0.0
H649 H 0.77601 0.60849 0.2803 0.0
H650 H 0.76149 0.65972 0.2998 0.0
H651 H 0.82792 0.76071 0.19513 0.0
H652 H 0.80184 0.72111 0.12343 0.0
H653 H 0.79949 0.61137 0.19723 0.0
C654 C 0.84456 0.70104 0.3596 0.0
C655 C 0.85414 0.74122 0.37836 0.0
C656 C 0.85771 0.77265 0.34801 0.0
C657 C 0.85024 0.76447 0.29983 0.0
C658 C 0.84008 0.72455 0.28257 0.0
C659 C 0.83798 0.69324 0.31159 0.0
C660 C 0.82586 0.65313 0.28482 0.0
C661 C 0.85999 0.62159 0.28776 0.0
C662 C 0.78591 0.6366 0.30186 0.0
C663 C 0.82039 0.66678 0.23622 0.0
C664 C 0.82852 0.70812 0.23556 0.0
C665 C 0.82236 0.72819 0.19516 0.0
C666 C 0.80748 0.70548 0.15462 0.0
C667 C 0.79939 0.66302 0.15453 0.0
C668 C 0.80644 0.64352 0.19586 0.0
H669 H 0.19911 0.81163 0.86178 0.0
H670 H 0.30051 0.82996 0.96152 0.0
H671 H 0.34822 0.81766 0.89771 0.0
H672 H 0.24192 0.73237 0.78707 0.0
H673 H 0.22045 0.75139 0.73477 0.0
H674 H 0.19504 0.76033 0.78851 0.0
H675 H 0.19602 0.83843 0.78012 0.0
H676 H 0.22107 0.82966 0.72618 0.0
H677 H 0.24354 0.8637 0.77234 0.0
H678 H 0.38462 0.80022 0.8208 0.0
H679 H 0.40521 0.78827 0.73894 0.0
H680 H 0.27878 0.78619 0.69226 0.0
C681 C 0.23136 0.81294 0.87035 0.0
C682 C 0.24618 0.82139 0.9166 0.0
C683 C 0.28858 0.82354 0.92623 0.0
C684 C 0.31583 0.81636 0.89026 0.0
C685 C 0.30009 0.80764 0.84492 0.0
C686 C 0.25873 0.80657 0.83502 0.0
C687 C 0.24903 0.79857 0.78358 0.0
C688 C 0.22521 0.75827 0.77288 0.0
C689 C 0.22608 0.83475 0.76444 0.0
C690 C 0.29133 0.7952 0.76579 0.0
C691 C 0.32058 0.79983 0.80145 0.0
C692 C 0.36187 0.7969 0.7927 0.0
C693 C 0.37334 0.78991 0.74628 0.0
C694 C 0.34357 0.78679 0.70954 0.0
C695 C 0.30221 0.78904 0.71972 0.0
H696 H 0.71795 0.72472 0.87855 0.0
H697 H 0.82634 0.69625 0.95918 0.0
H698 H 0.86861 0.72167 0.89842 0.0
H699 H 0.75188 0.69303 0.7695 0.0
H700 H 0.72754 0.73331 0.74011 0.0
H701 H 0.70664 0.71655 0.7918 0.0
H702 H 0.71028 0.79072 0.82996 0.0
H703 H 0.73141 0.80792 0.77844 0.0
H704 H 0.75792 0.81802 0.83397 0.0
H705 H 0.89854 0.74464 0.824 0.0
H706 H 0.9129 0.76286 0.74491 0.0
H707 H 0.78414 0.77801 0.71572 0.0
C708 C 0.7506 0.72415 0.8838 0.0
C709 C 0.76887 0.70827 0.92354 0.0
C710 C 0.81169 0.70836 0.92907 0.0
C711 C 0.83589 0.72275 0.89473 0.0
C712 C 0.81676 0.73754 0.85549 0.0
C713 C 0.775 0.73868 0.85028 0.0
C714 C 0.7615 0.75443 0.80441 0.0
C715 C 0.73536 0.72241 0.77472 0.0
C716 C 0.73896 0.7952 0.81217 0.0
C717 C 0.80212 0.7605 0.78354 0.0
C718 C 0.83376 0.75112 0.81358 0.0
C719 C 0.87395 0.75258 0.80056 0.0
C720 C 0.88185 0.76317 0.75556 0.0
C721 C 0.8497 0.77191 0.72389 0.0
C722 C 0.80946 0.77127 0.73881 0.0
H723 H 0.32235 0.834 0.38454 0.0
H724 H 0.36755 0.71345 0.34071 0.0
H725 H 0.34811 0.72481 0.25932 0.0
H726 H 0.23423 0.82555 0.31326 0.0
H727 H 0.23334 0.8788 0.30211 0.0
H728 H 0.25667 0.86356 0.35522 0.0
H729 H 0.32354 0.89946 0.33688 0.0
H730 H 0.30042 0.91468 0.28349 0.0
H731 H 0.34684 0.88595 0.28254 0.0
H732 H 0.31873 0.74818 0.18242 0.0
H733 H 0.27805 0.77866 0.12005 0.0
H734 H 0.2473 0.88014 0.21733 0.0
C735 C 0.32823 0.80972 0.35814 0.0
C736 C 0.34644 0.77266 0.36953 0.0
C737 C 0.35422 0.74238 0.33316 0.0
C738 C 0.34313 0.7485 0.28672 0.0
C739 C 0.3242 0.78501 0.27712 0.0
C740 C 0.3167 0.81496 0.31203 0.0
C741 C 0.29263 0.84981 0.29384 0.0
C742 C 0.2518 0.85468 0.3175 0.0
C743 C 0.31734 0.88984 0.29953 0.0
C744 C 0.28681 0.83448 0.24331 0.0
C745 C 0.30598 0.79751 0.23388 0.0
C746 C 0.30387 0.77723 0.18947 0.0
C747 C 0.28088 0.7948 0.15422 0.0
C748 C 0.25969 0.83172 0.16404 0.0
C749 C 0.26329 0.85191 0.20894 0.0
H750 H 0.22751 0.18505 0.75793 0.0
H751 H 0.11797 0.2507 0.72361 0.0
H752 H 0.13143 0.29952 0.79216 0.0
H753 H 0.22217 0.20217 0.8866 0.0
H754 H 0.27644 0.20757 0.89392 0.0
H755 H 0.25457 0.17489 0.84624 0.0
H756 H 0.29449 0.21512 0.7892 0.0
H757 H 0.31539 0.24881 0.83649 0.0
H758 H 0.28769 0.26959 0.7889 0.0
H759 H 0.16095 0.34544 0.8589 0.0
H760 H 0.19948 0.3797 0.92645 0.0
H761 H 0.2905 0.28487 0.91545 0.0
C762 C 0.20575 0.209 0.76571 0.0
C763 C 0.17158 0.21402 0.73576 0.0
C764 C 0.14391 0.24588 0.74665 0.0
C765 C 0.15157 0.27403 0.78516 0.0
C766 C 0.18682 0.26957 0.81244 0.0
C767 C 0.21298 0.23731 0.80387 0.0
C768 C 0.24959 0.24037 0.83725 0.0
C769 C 0.25074 0.20411 0.86782 0.0
C770 C 0.28911 0.24368 0.81139 0.0
C771 C 0.24047 0.27997 0.86517 0.0
C772 C 0.2041 0.2963 0.85041 0.0
C773 C 0.18931 0.33279 0.871 0.0
C774 C 0.2115 0.35219 0.90897 0.0
C775 C 0.24808 0.3351 0.92564 0.0
C776 C 0.26311 0.29906 0.90273 0.0
H777 H 0.7776 0.22112 0.16339 0.0
H778 H 0.71799 0.10305 0.15682 0.0
H779 H 0.69728 0.11732 0.23811 0.0
H780 H 0.81098 0.22673 0.28897 0.0
H781 H 0.80077 0.28073 0.29634 0.0
H782 H 0.81645 0.25802 0.24116 0.0
H783 H 0.75239 0.2868 0.20067 0.0
H784 H 0.7365 0.30939 0.25557 0.0
H785 H 0.70306 0.27471 0.22055 0.0
H786 H 0.6777 0.1481 0.31792 0.0
H787 H 0.65779 0.19374 0.38584 0.0
H788 H 0.72832 0.29211 0.33716 0.0
C789 C 0.76129 0.19789 0.17978 0.0
C790 C 0.74999 0.16074 0.15477 0.0
C791 C 0.72744 0.13137 0.1762 0.0
C792 C 0.71566 0.13924 0.22221 0.0
C793 C 0.72669 0.17664 0.24597 0.0
C794 C 0.7491 0.20543 0.22537 0.0
C795 C 0.75347 0.24485 0.25608 0.0
C796 C 0.79807 0.25305 0.27155 0.0
C797 C 0.73525 0.28104 0.23176 0.0
C798 C 0.72874 0.23446 0.29638 0.0
C799 C 0.71428 0.19472 0.29067 0.0
C800 C 0.68925 0.17912 0.32292 0.0
C801 C 0.67814 0.20513 0.36138 0.0
C802 C 0.69141 0.24635 0.36646 0.0
C803 C 0.71763 0.26071 0.33401 0.0
loop_
_geom_bond_atom_site_label_1
_geom_bond_atom_site_label_2
_geom_bond_distance
_geom_bond_site_symmetry_2
_ccdc_geom_bond_type
C0 C1 1.351 . S
C0 N3 1.368 . S
C0 H5 0.931 . S
C1 C0 1.351 . S
C1 N2 1.373 . S
C1 H29 0.930 . S
N2 C1 1.373 . S
N2 C4 1.340 . S
N3 C0 1.368 . S
N3 C4 1.321 . S
N3 Co6 2.135 . S
C4 N2 1.340 . S
C4 N3 1.321 . S
C4 H28 0.930 . S
H5 C0 0.931 . S
Co6 N3 2.135 . S
Co6 N9 2.121 . S
Co6 O14 2.055 . S
Co6 O17 2.039 . S
Co6 N20 2.140 . S
C7 O8 1.227 . S
C7 O17 1.265 . S
O8 C7 1.227 . S
N9 Co6 2.121 . S
N9 C11 1.375 . S
N9 C12 1.313 . S
C10 C11 1.338 . S
C10 N13 1.377 . S
C10 H30 0.930 . S
C11 N9 1.375 . S
C11 C10 1.338 . S
C11 H15 0.931 . S
C12 N9 1.313 . S
C12 N13 1.344 . S
C12 H16 0.930 . S
N13 C10 1.377 . S
N13 C12 1.344 . S
O14 Co6 2.055 . S
O14 C18 1.253 . S
H15 C11 0.931 . S
H16 C12 0.930 . S
O17 Co6 2.039 . S
O17 C7 1.265 . S
C18 O14 1.253 . S
C18 O19 1.227 . S
O19 C18 1.227 . S
N20 Co6 2.140 . S
N20 C23 1.346 1_554 S
N20 C24 1.345 1_554 S
C21 C22 1.387 . S
C21 C25 1.391 . S
C22 C21 1.387 . S
C22 C23 1.369 . S
C22 H31 0.929 . S
C23 N20 1.346 1_556 S
C23 C22 1.369 . S
C23 H26 0.928 . S
C24 N20 1.345 1_556 S
C24 C25 1.371 . S
C24 H27 0.931 1_556 S
C25 C21 1.391 . S
C25 C24 1.371 . S
C25 H32 0.930 . S
H26 C23 0.928 . S
H27 C24 0.931 1_554 S
H28 C4 0.930 . S
H29 C1 0.930 . S
H30 C10 0.930 . S
H31 C22 0.929 . S
H32 C25 0.930 . S
C33 C34 1.351 . S
C33 N36 1.368 . S
C33 H38 0.931 . S
C34 C33 1.351 . S
C34 N35 1.373 . S
C34 H62 0.930 . S
N35 C34 1.373 . S
N35 C37 1.340 . S
N36 C33 1.368 . S
N36 C37 1.321 . S
N36 Co39 2.135 . S
C37 N35 1.340 . S
C37 N36 1.321 . S
C37 H61 0.930 . S
H38 C33 0.931 . S
Co39 N36 2.135 . S
Co39 N42 2.121 . S
Co39 O47 2.055 . S
Co39 O50 2.039 . S
Co39 N53 2.140 . S
C40 O41 1.227 . S
C40 O50 1.265 . S
O41 C40 1.227 . S
N42 Co39 2.121 . S
N42 C44 1.375 . S
N42 C45 1.313 . S
C43 C44 1.338 . S
C43 N46 1.377 . S
C43 H63 0.930 . S
C44 N42 1.375 . S
C44 C43 1.338 . S
C44 H48 0.931 . S
C45 N42 1.313 . S
C45 N46 1.344 . S
C45 H49 0.930 . S
N46 C43 1.377 . S
N46 C45 1.344 . S
O47 Co39 2.055 . S
O47 C51 1.253 . S
H48 C44 0.931 . S
H49 C45 0.930 . S
O50 Co39 2.039 . S
O50 C40 1.265 . S
C51 O47 1.253 . S
C51 O52 1.227 . S
O52 C51 1.227 . S
N53 Co39 2.140 . S
N53 C56 1.346 . S
N53 C57 1.345 . S
C54 C55 1.387 . S
C54 C58 1.391 . S
C55 C54 1.387 . S
C55 C56 1.369 . S
C55 H64 0.929 . S
C56 N53 1.346 . S
C56 C55 1.369 . S
C56 H59 0.928 . S
C57 N53 1.345 . S
C57 C58 1.371 . S
C57 H60 0.931 . S
C58 C54 1.391 . S
C58 C57 1.371 . S
C58 H65 0.930 . S
H59 C56 0.928 . S
H60 C57 0.931 . S
H61 C37 0.930 . S
H62 C34 0.930 . S
H63 C43 0.930 . S
H64 C55 0.929 . S
H65 C58 0.930 . S
C66 C67 1.351 . S
C66 N69 1.368 1_556 S
C66 H71 0.931 . S
C67 C66 1.351 . S
C67 N68 1.373 1_556 S
C67 H95 0.930 . S
N68 C67 1.373 1_554 S
N68 C70 1.340 . S
N69 C66 1.368 1_554 S
N69 C70 1.321 . S
N69 Co72 2.135 . S
C70 N68 1.340 . S
C70 N69 1.321 . S
C70 H94 0.930 . S
H71 C66 0.931 . S
Co72 N69 2.135 . S
Co72 N75 2.121 . S
Co72 O80 2.055 1_554 S
Co72 O83 2.039 . S
Co72 N86 2.140 . S
C73 O74 1.227 . S
C73 O83 1.265 . S
O74 C73 1.227 . S
N75 Co72 2.121 . S
N75 C77 1.375 . S
N75 C78 1.313 . S
C76 C77 1.338 . S
C76 N79 1.377 . S
C76 H96 0.930 . S
C77 N75 1.375 . S
C77 C76 1.338 . S
C77 H81 0.931 . S
C78 N75 1.313 . S
C78 N79 1.344 . S
C78 H82 0.930 1_554 S
N79 C76 1.377 . S
N79 C78 1.344 . S
O80 Co72 2.055 1_556 S
O80 C84 1.253 . S
H81 C77 0.931 . S
H82 C78 0.930 1_556 S
O83 Co72 2.039 . S
O83 C73 1.265 . S
C84 O80 1.253 . S
C84 O85 1.227 . S
O85 C84 1.227 . S
N86 Co72 2.140 . S
N86 C89 1.346 . S
N86 C90 1.354 . S
C87 C88 1.387 . S
C87 C91 1.391 . S
C88 C87 1.387 . S
C88 C89 1.369 . S
C88 H97 0.929 . S
C89 N86 1.346 . S
C89 C88 1.369 . S
C89 H92 0.928 . S
C90 N86 1.354 . S
C90 C91 1.373 . S
C90 H93 0.920 1_554 S
C91 C87 1.391 . S
C91 C90 1.373 . S
C91 H98 0.930 1_554 S
H92 C89 0.928 . S
H93 C90 0.920 1_556 S
H94 C70 0.930 . S
H95 C67 0.930 . S
H96 C76 0.930 . S
H97 C88 0.929 . S
H98 C91 0.930 1_556 S
C99 C100 1.351 . S
C99 N102 1.368 . S
C99 H104 0.931 . S
C100 C99 1.351 . S
C100 N101 1.373 . S
C100 H128 0.930 . S
N101 C100 1.373 . S
N101 C103 1.340 . S
N102 C99 1.368 . S
N102 C103 1.321 . S
N102 Co105 2.135 . S
C103 N101 1.340 . S
C103 N102 1.321 . S
C103 H127 0.930 . S
H104 C99 0.931 . S
Co105 N102 2.135 . S
Co105 N108 2.121 . S
Co105 O113 2.055 . S
Co105 O116 2.039 . S
Co105 N119 2.140 . S
C106 O107 1.227 . S
C106 O116 1.265 . S
O107 C106 1.227 . S
N108 Co105 2.121 . S
N108 C110 1.375 . S
N108 C111 1.313 . S
C109 C110 1.338 . S
C109 N112 1.377 . S
C109 H129 0.930 . S
C110 N108 1.375 . S
C110 C109 1.338 . S
C110 H114 0.931 . S
C111 N108 1.313 . S
C111 N112 1.344 . S
C111 H115 0.930 . S
N112 C109 1.377 . S
N112 C111 1.344 . S
O113 Co105 2.055 . S
O113 C117 1.253 . S
H114 C110 0.931 . S
H115 C111 0.930 . S
O116 Co105 2.039 . S
O116 C106 1.265 . S
C117 O113 1.253 . S
C117 O118 1.227 . S
O118 C117 1.227 . S
N119 Co105 2.140 . S
N119 C122 1.346 . S
N119 C123 1.345 . S
C120 C121 1.387 . S
C120 C124 1.391 . S
C121 C120 1.387 . S
C121 C122 1.369 . S
C121 H130 0.929 . S
C122 N119 1.346 . S
C122 C121 1.369 . S
C122 H125 0.928 . S
C123 N119 1.345 . S
C123 C124 1.371 . S
C123 H126 0.931 . S
C124 C120 1.391 . S
C124 C123 1.371 . S
C124 H131 0.930 . S
H125 C122 0.928 . S
H126 C123 0.931 . S
H127 C103 0.930 . S
H128 C100 0.930 . S
H129 C109 0.930 . S
H130 C121 0.929 . S
H131 C124 0.930 . S
C132 C133 1.351 1_545 S
C132 N135 1.368 . S
C132 H137 0.931 . S
C133 C132 1.351 1_565 S
C133 N134 1.373 . S
C133 H161 0.930 . S
N134 C133 1.373 . S
N134 C136 1.340 . S
N135 C132 1.368 . S
N135 C136 1.321 1_545 S
N135 Co138 2.135 . S
C136 N134 1.340 . S
C136 N135 1.321 1_565 S
C136 H160 0.930 . S
H137 C132 0.931 . S
Co138 N135 2.135 . S
Co138 N141 2.121 . S
Co138 O146 2.055 . S
Co138 O149 2.039 . S
Co138 N152 2.140 1_556 S
C139 O140 1.227 . S
C139 O149 1.265 1_554 S
O140 C139 1.227 . S
N141 Co138 2.121 . S
N141 C143 1.375 1_556 S
N141 C144 1.313 . S
C142 C143 1.338 . S
C142 N145 1.377 1_554 S
C142 H162 0.930 . S
C143 N141 1.375 1_554 S
C143 C142 1.338 . S
C143 H147 0.931 . S
C144 N141 1.313 . S
C144 N145 1.344 . S
C144 H148 0.930 . S
N145 C142 1.377 1_556 S
N145 C144 1.344 . S
O146 Co138 2.055 . S
O146 C150 1.253 . S
H147 C143 0.931 . S
H148 C144 0.930 . S
O149 Co138 2.039 . S
O149 C139 1.265 1_556 S
C150 O146 1.253 . S
C150 O151 1.227 . S
O151 C150 1.227 . S
N152 Co138 2.140 1_554 S
N152 C155 1.346 . S
N152 C156 1.345 . S
C153 C154 1.387 . S
C153 C157 1.391 . S
C154 C153 1.387 . S
C154 C155 1.369 . S
C154 H163 0.929 . S
C155 N152 1.346 . S
C155 C154 1.369 . S
C155 H158 0.928 . S
C156 N152 1.345 . S
C156 C157 1.371 . S
C156 H159 0.931 . S
C157 C153 1.391 . S
C157 C156 1.371 . S
C157 H164 0.930 . S
H158 C155 0.928 . S
H159 C156 0.931 . S
H160 C136 0.930 . S
H161 C133 0.930 . S
H162 C142 0.930 . S
H163 C154 0.929 . S
H164 C157 0.930 . S
C165 C166 1.349 1_655 S
C165 N168 1.368 . S
C165 H170 0.932 . S
C166 C165 1.349 1_455 S
C166 N167 1.373 . S
C166 H194 0.930 . S
N167 C166 1.373 . S
N167 C169 1.340 . S
N168 C165 1.368 . S
N168 C169 1.321 1_655 S
N168 Co171 2.135 . S
C169 N167 1.340 . S
C169 N168 1.321 1_455 S
C169 H193 0.930 . S
H170 C165 0.932 . S
Co171 N168 2.135 . S
Co171 N174 2.121 . S
Co171 O179 2.055 . S
Co171 O182 2.039 . S
Co171 N185 2.140 . S
C172 O173 1.227 . S
C172 O182 1.265 . S
O173 C172 1.227 . S
N174 Co171 2.121 . S
N174 C176 1.375 . S
N174 C177 1.313 . S
C175 C176 1.338 . S
C175 N178 1.377 . S
C175 H195 0.930 . S
C176 N174 1.375 . S
C176 C175 1.338 . S
C176 H180 0.931 . S
C177 N174 1.313 . S
C177 N178 1.344 . S
C177 H181 0.930 . S
N178 C175 1.377 . S
N178 C177 1.344 . S
O179 Co171 2.055 . S
O179 C183 1.253 . S
H180 C176 0.931 . S
H181 C177 0.930 . S
O182 Co171 2.039 . S
O182 C172 1.265 . S
C183 O179 1.253 . S
C183 O184 1.227 . S
O184 C183 1.227 . S
N185 Co171 2.140 . S
N185 C188 1.346 . S
N185 C189 1.345 . S
C186 C187 1.387 . S
C186 C190 1.391 . S
C187 C186 1.387 . S
C187 C188 1.369 . S
C187 H196 0.929 . S
C188 N185 1.346 . S
C188 C187 1.369 . S
C188 H191 0.928 . S
C189 N185 1.345 . S
C189 C190 1.371 . S
C189 H192 0.931 . S
C190 C186 1.391 . S
C190 C189 1.371 . S
C190 H197 0.930 . S
H191 C188 0.928 . S
H192 C189 0.931 . S
H193 C169 0.930 . S
H194 C166 0.930 . S
H195 C175 0.930 . S
H196 C187 0.929 . S
H197 C190 0.930 . S
C198 C199 1.351 . S
C198 N201 1.368 1_545 S
C198 H203 0.931 . S
C199 C198 1.351 . S
C199 N200 1.373 . S
C199 H227 0.930 . S
N200 C199 1.373 . S
N200 C202 1.340 . S
N201 C198 1.368 1_565 S
N201 C202 1.321 1_565 S
N201 Co204 2.135 . S
C202 N200 1.340 . S
C202 N201 1.321 1_545 S
C202 H226 0.930 1_554 S
H203 C198 0.931 . S
Co204 N201 2.135 . S
Co204 N207 2.121 . S
Co204 O212 2.055 . S
Co204 O215 2.039 1_554 S
Co204 N218 2.140 . S
C205 O206 1.227 . S
C205 O215 1.265 . S
O206 C205 1.227 . S
N207 Co204 2.121 . S
N207 C209 1.375 1_554 S
N207 C210 1.313 . S
C208 C209 1.338 . S
C208 N211 1.377 1_556 S
C208 H228 0.930 . S
C209 N207 1.375 1_556 S
C209 C208 1.338 . S
C209 H213 0.931 . S
C210 N207 1.313 . S
C210 N211 1.344 . S
C210 H214 0.930 . S
N211 C208 1.377 1_554 S
N211 C210 1.344 . S
O212 Co204 2.055 . S
O212 C216 1.253 . S
H213 C209 0.931 . S
H214 C210 0.930 . S
O215 Co204 2.039 1_556 S
O215 C205 1.265 . S
C216 O212 1.253 . S
C216 O217 1.227 . S
O217 C216 1.227 . S
N218 Co204 2.140 . S
N218 C221 1.346 . S
N218 C222 1.345 . S
C219 C220 1.387 . S
C219 C223 1.391 . S
C220 C219 1.387 . S
C220 C221 1.369 . S
C220 H229 0.912 1_564 S
C221 N218 1.346 . S
C221 C220 1.369 . S
C221 H224 0.928 1_554 S
C222 N218 1.345 . S
C222 C223 1.371 . S
C222 H225 0.931 . S
C223 C219 1.391 . S
C223 C222 1.371 . S
C223 H230 0.930 . S
H224 C221 0.928 1_556 S
H225 C222 0.931 . S
H226 C202 0.930 1_556 S
H227 C199 0.930 . S
H228 C208 0.930 . S
H229 C220 0.912 1_546 S
H230 C223 0.930 . S
C231 C232 1.351 1_455 S
C231 N234 1.368 . S
C231 H236 0.931 . S
C232 C231 1.351 1_655 S
C232 N233 1.373 . S
C232 H260 0.930 . S
N233 C232 1.373 . S
N233 C235 1.340 . S
N234 C231 1.368 . S
N234 C235 1.321 1_455 S
N234 Co237 2.135 . S
C235 N233 1.340 . S
C235 N234 1.321 1_655 S
C235 H259 0.930 . S
H236 C231 0.931 . S
Co237 N234 2.135 . S
Co237 N240 2.121 . S
Co237 O245 2.055 . S
Co237 O248 2.039 . S
Co237 N251 2.140 . S
C238 O239 1.227 . S
C238 O248 1.265 . S
O239 C238 1.227 . S
N240 Co237 2.121 . S
N240 C242 1.375 . S
N240 C243 1.313 . S
C241 C242 1.338 . S
C241 N244 1.377 . S
C241 H261 0.930 . S
C242 N240 1.375 . S
C242 C241 1.338 . S
C242 H246 0.931 . S
C243 N240 1.313 . S
C243 N244 1.344 . S
C243 H247 0.930 . S
N244 C241 1.377 . S
N244 C243 1.344 . S
O245 Co237 2.055 . S
O245 C249 1.253 . S
H246 C242 0.931 . S
H247 C243 0.930 . S
O248 Co237 2.039 . S
O248 C238 1.265 . S
C249 O245 1.253 . S
C249 O250 1.227 . S
O250 C249 1.227 . S
N251 Co237 2.140 . S
N251 C254 1.346 . S
N251 C255 1.345 . S
C252 C253 1.387 . S
C252 C256 1.391 . S
C253 C252 1.387 . S
C253 C254 1.369 . S
C253 H262 0.929 . S
C254 N251 1.346 . S
C254 C253 1.369 . S
C254 H257 0.928 . S
C255 N251 1.345 . S
C255 C256 1.371 . S
C255 H258 0.931 . S
C256 C252 1.391 . S
C256 C255 1.371 . S
C256 H263 0.930 . S
H257 C254 0.928 . S
H258 C255 0.931 . S
H259 C235 0.930 . S
H260 C232 0.930 . S
H261 C241 0.930 . S
H262 C253 0.929 . S
H263 C256 0.930 . S
H264 C276 0.930 . S
H265 C278 0.930 1_556 S
H266 C279 0.930 1_556 S
H267 C283 0.959 . S
H268 C283 0.959 . S
H269 C283 0.961 . S
H270 C284 0.960 . S
H271 C284 0.961 . S
H272 C284 0.959 . S
H273 C287 0.929 1_556 S
H274 C288 0.931 . S
H275 C290 0.930 . S
C276 H264 0.930 . S
C276 C277 1.399 . S
C276 C281 1.399 . S
C277 C276 1.399 . S
C277 C278 1.376 . S
C278 H265 0.930 1_554 S
C278 C277 1.376 . S
C278 C279 1.388 . S
C279 H266 0.930 1_554 S
C279 C278 1.388 . S
C279 C280 1.390 . S
C280 C279 1.390 . S
C280 C281 1.394 . S
C280 C286 1.465 . S
C281 C276 1.399 . S
C281 C280 1.394 . S
C281 C282 1.516 . S
C282 C281 1.516 . S
C282 C283 1.502 . S
C282 C284 1.561 . S
C282 C285 1.526 . S
C283 H267 0.959 . S
C283 H268 0.959 . S
C283 H269 0.961 . S
C283 C282 1.502 . S
C284 H270 0.960 . S
C284 H271 0.961 . S
C284 H272 0.959 . S
C284 C282 1.561 . S
C285 C282 1.526 . S
C285 C286 1.396 . S
C285 C290 1.390 . S
C286 C280 1.465 . S
C286 C285 1.396 . S
C286 C287 1.399 . S
C287 H273 0.929 1_554 S
C287 C286 1.399 . S
C287 C288 1.385 . S
C288 H274 0.931 . S
C288 C287 1.385 . S
C288 C289 1.389 . S
C289 C288 1.389 . S
C289 C290 1.387 . S
C290 H275 0.930 . S
C290 C285 1.390 . S
C290 C289 1.387 . S
H291 C303 0.930 . S
H292 C305 0.930 . S
H293 C306 0.930 . S
H294 C310 0.959 . S
H295 C310 0.959 . S
H296 C310 0.961 . S
H297 C311 0.960 . S
H298 C311 0.961 . S
H299 C311 0.959 . S
H300 C314 0.929 . S
H301 C315 0.931 . S
H302 C317 0.930 . S
C303 H291 0.930 . S
C303 C304 1.399 . S
C303 C308 1.399 . S
C304 C303 1.399 . S
C304 C305 1.376 . S
C305 H292 0.930 . S
C305 C304 1.376 . S
C305 C306 1.388 . S
C306 H293 0.930 . S
C306 C305 1.388 . S
C306 C307 1.390 . S
C307 C306 1.390 . S
C307 C308 1.394 . S
C307 C313 1.465 . S
C308 C303 1.399 . S
C308 C307 1.394 . S
C308 C309 1.516 . S
C309 C308 1.516 . S
C309 C310 1.502 . S
C309 C311 1.561 . S
C309 C312 1.526 . S
C310 H294 0.959 . S
C310 H295 0.959 . S
C310 H296 0.961 . S
C310 C309 1.502 . S
C311 H297 0.960 . S
C311 H298 0.961 . S
C311 H299 0.959 . S
C311 C309 1.561 . S
C312 C309 1.526 . S
C312 C313 1.396 . S
C312 C317 1.390 . S
C313 C307 1.465 . S
C313 C312 1.396 . S
C313 C314 1.399 . S
C314 H300 0.929 . S
C314 C313 1.399 . S
C314 C315 1.385 . S
C315 H301 0.931 . S
C315 C314 1.385 . S
C315 C316 1.389 . S
C316 C315 1.389 . S
C316 C317 1.387 . S
C317 H302 0.930 . S
C317 C312 1.390 . S
C317 C316 1.387 . S
H318 C330 0.930 . S
H319 C332 0.930 . S
H320 C333 0.930 . S
H321 C337 0.959 . S
H322 C337 0.959 . S
H323 C337 0.961 . S
H324 C338 0.960 . S
H325 C338 0.961 . S
H326 C338 0.959 . S
H327 C341 0.929 . S
H328 C342 0.931 . S
H329 C344 0.930 . S
C330 H318 0.930 . S
C330 C331 1.399 . S
C330 C335 1.399 . S
C331 C330 1.399 . S
C331 C332 1.376 1_556 S
C332 H319 0.930 . S
C332 C331 1.376 1_554 S
C332 C333 1.388 . S
C333 H320 0.930 . S
C333 C332 1.388 . S
C333 C334 1.390 . S
C334 C333 1.390 . S
C334 C335 1.394 1_554 S
C334 C340 1.465 . S
C335 C330 1.399 . S
C335 C334 1.394 1_556 S
C335 C336 1.516 . S
C336 C335 1.516 . S
C336 C337 1.502 . S
C336 C338 1.561 . S
C336 C339 1.526 . S
C337 H321 0.959 . S
C337 H322 0.959 . S
C337 H323 0.961 . S
C337 C336 1.502 . S
C338 H324 0.960 . S
C338 H325 0.961 . S
C338 H326 0.959 . S
C338 C336 1.561 . S
C339 C336 1.526 . S
C339 C340 1.396 1_556 S
C339 C344 1.390 . S
C340 C334 1.465 . S
C340 C339 1.396 1_554 S
C340 C341 1.399 . S
C341 H327 0.929 . S
C341 C340 1.399 . S
C341 C342 1.385 . S
C342 H328 0.931 . S
C342 C341 1.385 . S
C342 C343 1.389 . S
C343 C342 1.389 . S
C343 C344 1.387 1_554 S
C344 H329 0.930 . S
C344 C339 1.390 . S
C344 C343 1.387 1_556 S
H345 C357 0.930 . S
H346 C359 0.930 . S
H347 C360 0.930 . S
H348 C364 0.959 . S
H349 C364 0.959 . S
H350 C364 0.961 . S
H351 C365 0.960 . S
H352 C365 0.961 . S
H353 C365 0.959 . S
H354 C368 0.929 . S
H355 C369 0.931 . S
H356 C371 0.930 . S
C357 H345 0.930 . S
C357 C358 1.399 . S
C357 C362 1.399 . S
C358 C357 1.399 . S
C358 C359 1.376 . S
C359 H346 0.930 . S
C359 C358 1.376 . S
C359 C360 1.388 . S
C360 H347 0.930 . S
C360 C359 1.388 . S
C360 C361 1.390 . S
C361 C360 1.390 . S
C361 C362 1.394 . S
C361 C367 1.465 . S
C362 C357 1.399 . S
C362 C361 1.394 . S
C362 C363 1.516 . S
C363 C362 1.516 . S
C363 C364 1.502 . S
C363 C365 1.561 . S
C363 C366 1.526 . S
C364 H348 0.959 . S
C364 H349 0.959 . S
C364 H350 0.961 . S
C364 C363 1.502 . S
C365 H351 0.960 . S
C365 H352 0.961 . S
C365 H353 0.959 . S
C365 C363 1.561 . S
C366 C363 1.526 . S
C366 C367 1.396 . S
C366 C371 1.390 . S
C367 C361 1.465 . S
C367 C366 1.396 . S
C367 C368 1.399 . S
C368 H354 0.929 . S
C368 C367 1.399 . S
C368 C369 1.385 . S
C369 H355 0.931 . S
C369 C368 1.385 . S
C369 C370 1.389 . S
C370 C369 1.389 . S
C370 C371 1.387 . S
C371 H356 0.930 . S
C371 C366 1.390 . S
C371 C370 1.387 . S
H372 C384 0.930 . S
H373 C386 0.930 . S
H374 C387 0.930 . S
H375 C391 0.959 . S
H376 C391 0.959 . S
H377 C391 0.961 . S
H378 C392 0.960 . S
H379 C392 0.961 . S
H380 C392 0.959 . S
H381 C395 0.929 . S
H382 C396 0.931 . S
H383 C398 0.930 . S
C384 H372 0.930 . S
C384 C385 1.399 . S
C384 C389 1.399 . S
C385 C384 1.399 . S
C385 C386 1.376 1_554 S
C386 H373 0.930 . S
C386 C385 1.376 1_556 S
C386 C387 1.388 . S
C387 H374 0.930 . S
C387 C386 1.388 . S
C387 C388 1.390 . S
C388 C387 1.390 . S
C388 C389 1.394 1_556 S
C388 C394 1.465 . S
C389 C384 1.399 . S
C389 C388 1.394 1_554 S
C389 C390 1.516 . S
C390 C389 1.516 . S
C390 C391 1.502 . S
C390 C392 1.561 . S
C390 C393 1.526 . S
C391 H375 0.959 . S
C391 H376 0.959 . S
C391 H377 0.961 . S
C391 C390 1.502 . S
C392 H378 0.960 . S
C392 H379 0.961 . S
C392 H380 0.959 . S
C392 C390 1.561 . S
C393 C390 1.526 . S
C393 C394 1.396 1_554 S
C393 C398 1.390 . S
C394 C388 1.465 . S
C394 C393 1.396 1_556 S
C394 C395 1.399 . S
C395 H381 0.929 . S
C395 C394 1.399 . S
C395 C396 1.385 . S
C396 H382 0.931 . S
C396 C395 1.385 . S
C396 C397 1.389 . S
C397 C396 1.389 . S
C397 C398 1.387 1_556 S
C398 H383 0.930 . S
C398 C393 1.390 . S
C398 C397 1.387 1_554 S
H399 C411 0.930 . S
H400 C413 0.930 . S
H401 C414 0.930 . S
H402 C418 0.959 . S
H403 C418 0.959 . S
H404 C418 0.961 . S
H405 C419 0.960 . S
H406 C419 0.961 . S
H407 C419 0.959 . S
H408 C422 0.929 . S
H409 C423 0.931 . S
H410 C425 0.930 . S
C411 H399 0.930 . S
C411 C412 1.399 . S
C411 C416 1.399 . S
C412 C411 1.399 . S
C412 C413 1.376 . S
C413 H400 0.930 . S
C413 C412 1.376 . S
C413 C414 1.388 . S
C414 H401 0.930 . S
C414 C413 1.388 . S
C414 C415 1.390 . S
C415 C414 1.390 . S
C415 C416 1.394 . S
C415 C421 1.465 . S
C416 C411 1.399 . S
C416 C415 1.394 . S
C416 C417 1.516 . S
C417 C416 1.516 . S
C417 C418 1.502 . S
C417 C419 1.561 . S
C417 C420 1.526 . S
C418 H402 0.959 . S
C418 H403 0.959 . S
C418 H404 0.961 . S
C418 C417 1.502 . S
C419 H405 0.960 . S
C419 H406 0.961 . S
C419 H407 0.959 . S
C419 C417 1.561 . S
C420 C417 1.526 . S
C420 C421 1.396 . S
C420 C425 1.390 . S
C421 C415 1.465 . S
C421 C420 1.396 . S
C421 C422 1.399 . S
C422 H408 0.929 . S
C422 C421 1.399 . S
C422 C423 1.385 . S
C423 H409 0.931 . S
C423 C422 1.385 . S
C423 C424 1.389 . S
C424 C423 1.389 . S
C424 C425 1.387 . S
C425 H410 0.930 . S
C425 C420 1.390 . S
C425 C424 1.387 . S
H426 C438 0.930 . S
H427 C440 0.930 . S
H428 C441 0.930 . S
H429 C445 0.959 . S
H430 C445 0.959 . S
H431 C445 0.961 . S
H432 C446 0.960 . S
H433 C446 0.961 . S
H434 C446 0.959 . S
H435 C449 0.929 . S
H436 C450 0.944 . S
H437 C452 0.930 . S
C438 H426 0.930 . S
C438 C439 1.399 . S
C438 C443 1.399 . S
C439 C438 1.399 . S
C439 C440 1.376 . S
C440 H427 0.930 . S
C440 C439 1.376 . S
C440 C441 1.388 . S
C441 H428 0.930 . S
C441 C440 1.388 . S
C441 C442 1.390 . S
C442 C441 1.390 . S
C442 C443 1.394 . S
C442 C448 1.465 . S
C443 C438 1.399 . S
C443 C442 1.394 . S
C443 C444 1.516 . S
C444 C443 1.516 . S
C444 C445 1.502 . S
C444 C446 1.561 . S
C444 C447 1.526 . S
C445 H429 0.959 . S
C445 H430 0.959 . S
C445 H431 0.961 . S
C445 C444 1.502 . S
C446 H432 0.960 . S
C446 H433 0.961 . S
C446 H434 0.959 . S
C446 C444 1.561 . S
C447 C444 1.526 . S
C447 C448 1.396 . S
C447 C452 1.390 . S
C448 C442 1.465 . S
C448 C447 1.396 . S
C448 C449 1.399 . S
C449 H435 0.929 . S
C449 C448 1.399 . S
C449 C450 1.385 . S
C450 H436 0.944 . S
C450 C449 1.385 . S
C450 C451 1.389 . S
C451 C450 1.389 . S
C451 C452 1.387 . S
C452 H437 0.930 . S
C452 C447 1.390 . S
C452 C451 1.387 . S
H453 C465 0.930 . S
H454 C467 0.930 . S
H455 C468 0.930 . S
H456 C472 0.959 . S
H457 C472 0.959 . S
H458 C472 0.961 . S
H459 C473 0.960 . S
H460 C473 0.961 . S
H461 C473 0.959 . S
H462 C476 0.929 . S
H463 C477 0.931 . S
H464 C479 0.930 . S
C465 H453 0.930 . S
C465 C466 1.399 . S
C465 C470 1.399 . S
C466 C465 1.399 . S
C466 C467 1.376 . S
C467 H454 0.930 . S
C467 C466 1.376 . S
C467 C468 1.388 . S
C468 H455 0.930 . S
C468 C467 1.388 . S
C468 C469 1.390 . S
C469 C468 1.390 . S
C469 C470 1.394 . S
C469 C475 1.465 . S
C470 C465 1.399 . S
C470 C469 1.394 . S
C470 C471 1.516 . S
C471 C470 1.516 . S
C471 C472 1.502 . S
C471 C473 1.561 . S
C471 C474 1.526 . S
C472 H456 0.959 . S
C472 H457 0.959 . S
C472 H458 0.961 . S
C472 C471 1.502 . S
C473 H459 0.960 . S
C473 H460 0.961 . S
C473 H461 0.959 . S
C473 C471 1.561 . S
C474 C471 1.526 . S
C474 C475 1.396 . S
C474 C479 1.390 . S
C475 C469 1.465 . S
C475 C474 1.396 . S
C475 C476 1.399 . S
C476 H462 0.929 . S
C476 C475 1.399 . S
C476 C477 1.385 . S
C477 H463 0.931 . S
C477 C476 1.385 . S
C477 C478 1.389 . S
C478 C477 1.389 . S
C478 C479 1.387 . S
C479 H464 0.930 . S
C479 C474 1.390 . S
C479 C478 1.387 . S
H480 C492 0.928 . S
H481 C494 0.930 . S
H482 C495 0.930 . S
H483 C499 0.959 . S
H484 C499 0.959 . S
H485 C499 0.961 . S
H486 C500 0.960 . S
H487 C500 0.961 . S
H488 C500 0.959 . S
H489 C503 0.929 . S
H490 C504 0.931 . S
H491 C506 0.930 . S
C492 H480 0.928 . S
C492 C493 1.399 . S
C492 C497 1.399 . S
C493 C492 1.399 . S
C493 C494 1.376 . S
C494 H481 0.930 . S
C494 C493 1.376 . S
C494 C495 1.388 . S
C495 H482 0.930 . S
C495 C494 1.388 . S
C495 C496 1.390 . S
C496 C495 1.390 . S
C496 C497 1.394 . S
C496 C502 1.465 . S
C497 C492 1.399 . S
C497 C496 1.394 . S
C497 C498 1.516 . S
C498 C497 1.516 . S
C498 C499 1.502 1_554 S
C498 C500 1.561 . S
C498 C501 1.526 . S
C499 H483 0.959 . S
C499 H484 0.959 . S
C499 H485 0.961 . S
C499 C498 1.502 1_556 S
C500 H486 0.960 . S
C500 H487 0.961 . S
C500 H488 0.959 . S
C500 C498 1.561 . S
C501 C498 1.526 . S
C501 C502 1.396 . S
C501 C506 1.390 . S
C502 C496 1.465 . S
C502 C501 1.396 . S
C502 C503 1.399 . S
C503 H489 0.929 . S
C503 C502 1.399 . S
C503 C504 1.385 . S
C504 H490 0.931 . S
C504 C503 1.385 . S
C504 C505 1.389 . S
C505 C504 1.389 . S
C505 C506 1.387 . S
C506 H491 0.930 . S
C506 C501 1.390 . S
C506 C505 1.387 . S
H507 C519 0.930 . S
H508 C521 0.930 . S
H509 C522 0.930 . S
H510 C526 0.959 . S
H511 C526 0.959 . S
H512 C526 0.961 . S
H513 C527 0.960 . S
H514 C527 0.961 . S
H515 C527 0.959 . S
H516 C530 0.929 . S
H517 C531 0.931 . S
H518 C533 0.930 . S
C519 H507 0.930 . S
C519 C520 1.399 . S
C519 C524 1.399 . S
C520 C519 1.399 . S
C520 C521 1.376 . S
C521 H508 0.930 . S
C521 C520 1.376 . S
C521 C522 1.388 . S
C522 H509 0.930 . S
C522 C521 1.388 . S
C522 C523 1.390 . S
C523 C522 1.390 . S
C523 C524 1.394 . S
C523 C529 1.465 . S
C524 C519 1.399 . S
C524 C523 1.394 . S
C524 C525 1.516 . S
C525 C524 1.516 . S
C525 C526 1.502 . S
C525 C527 1.561 . S
C525 C528 1.526 . S
C526 H510 0.959 . S
C526 H511 0.959 . S
C526 H512 0.961 . S
C526 C525 1.502 . S
C527 H513 0.960 . S
C527 H514 0.961 . S
C527 H515 0.959 . S
C527 C525 1.561 . S
C528 C525 1.526 . S
C528 C529 1.396 . S
C528 C533 1.390 . S
C529 C523 1.465 . S
C529 C528 1.396 . S
C529 C530 1.399 . S
C530 H516 0.929 . S
C530 C529 1.399 . S
C530 C531 1.385 . S
C531 H517 0.931 . S
C531 C530 1.385 . S
C531 C532 1.389 . S
C532 C531 1.389 . S
C532 C533 1.387 . S
C533 H518 0.930 . S
C533 C528 1.390 . S
C533 C532 1.387 . S
H534 C546 0.930 1_556 S
H535 C548 0.930 . S
H536 C549 0.930 . S
H537 C553 0.959 . S
H538 C553 0.959 . S
H539 C553 0.961 . S
H540 C554 0.960 . S
H541 C554 0.961 . S
H542 C554 0.959 . S
H543 C557 0.929 . S
H544 C558 0.931 . S
H545 C560 0.930 1_565 S
C546 H534 0.930 1_554 S
C546 C547 1.399 . S
C546 C551 1.399 . S
C547 C546 1.399 . S
C547 C548 1.376 1_565 S
C548 H535 0.930 . S
C548 C547 1.376 1_545 S
C548 C549 1.388 . S
C549 H536 0.930 . S
C549 C548 1.388 . S
C549 C550 1.390 . S
C550 C549 1.390 . S
C550 C551 1.394 1_545 S
C550 C556 1.465 1_455 S
C551 C546 1.399 . S
C551 C550 1.394 1_565 S
C551 C552 1.516 1_454 S
C552 C551 1.516 1_656 S
C552 C553 1.502 . S
C552 C554 1.561 1_556 S
C552 C555 1.524 1_556 S
C553 H537 0.959 . S
C553 H538 0.959 . S
C553 H539 0.961 . S
C553 C552 1.502 . S
C554 H540 0.960 . S
C554 H541 0.961 . S
C554 H542 0.959 . S
C554 C552 1.561 1_554 S
C555 C552 1.524 1_554 S
C555 C556 1.398 1_565 S
C555 C560 1.390 1_564 S
C556 C550 1.465 1_655 S
C556 C555 1.398 1_545 S
C556 C557 1.399 . S
C557 H543 0.929 . S
C557 C556 1.399 . S
C557 C558 1.385 . S
C558 H544 0.931 . S
C558 C557 1.385 . S
C558 C559 1.389 . S
C559 C558 1.389 . S
C559 C560 1.387 1_554 S
C560 H545 0.930 1_545 S
C560 C555 1.390 1_546 S
C560 C559 1.387 1_556 S
H561 C573 0.930 . S
H562 C575 0.930 . S
H563 C576 0.930 . S
H564 C580 0.959 . S
H565 C580 0.959 . S
H566 C580 0.961 1_565 S
H567 C581 0.973 1_565 S
H568 C581 0.964 . S
H569 C581 0.934 1_465 S
H570 C584 0.929 1_565 S
H571 C585 0.931 . S
H572 C587 0.937 . S
C573 H561 0.930 . S
C573 C574 1.399 . S
C573 C578 1.399 . S
C574 C573 1.399 . S
C574 C575 1.376 1_655 S
C575 H562 0.930 . S
C575 C574 1.376 1_455 S
C575 C576 1.388 . S
C576 H563 0.930 . S
C576 C575 1.388 . S
C576 C577 1.390 . S
C577 C576 1.390 . S
C577 C578 1.394 1_455 S
C577 C583 1.465 . S
C578 C573 1.399 . S
C578 C577 1.394 1_655 S
C578 C579 1.516 1_565 S
C579 C578 1.516 1_545 S
C579 C580 1.502 . S
C579 C581 1.571 . S
C579 C582 1.526 1_655 S
C580 H564 0.959 . S
C580 H565 0.959 . S
C580 H566 0.961 1_545 S
C580 C579 1.502 . S
C581 H567 0.973 1_545 S
C581 H568 0.964 . S
C581 H569 0.934 1_645 S
C581 C579 1.571 . S
C582 C579 1.526 1_455 S
C582 C583 1.396 1_545 S
C582 C587 1.390 . S
C583 C577 1.465 . S
C583 C582 1.396 1_565 S
C583 C584 1.399 1_565 S
C584 H570 0.929 1_545 S
C584 C583 1.399 1_545 S
C584 C585 1.385 . S
C585 H571 0.931 . S
C585 C584 1.385 . S
C585 C586 1.389 . S
C586 C585 1.389 . S
C586 C587 1.387 . S
C587 H572 0.937 . S
C587 C582 1.390 . S
C587 C586 1.387 . S
H588 C600 0.930 . S
H589 C602 0.930 . S
H590 C603 0.930 . S
H591 C607 0.959 . S
H592 C607 0.959 . S
H593 C607 0.961 . S
H594 C608 0.960 . S
H595 C608 0.961 . S
H596 C608 0.959 . S
H597 C611 0.929 . S
H598 C612 0.931 . S
H599 C614 0.930 . S
C600 H588 0.930 . S
C600 C601 1.399 . S
C600 C605 1.399 . S
C601 C600 1.399 . S
C601 C602 1.376 . S
C602 H589 0.930 . S
C602 C601 1.376 . S
C602 C603 1.388 . S
C603 H590 0.930 . S
C603 C602 1.388 . S
C603 C604 1.390 . S
C604 C603 1.390 . S
C604 C605 1.394 . S
C604 C610 1.465 . S
C605 C600 1.399 . S
C605 C604 1.394 . S
C605 C606 1.516 . S
C606 C605 1.516 . S
C606 C607 1.502 . S
C606 C608 1.561 . S
C606 C609 1.526 . S
C607 H591 0.959 . S
C607 H592 0.959 . S
C607 H593 0.961 . S
C607 C606 1.502 . S
C608 H594 0.960 . S
C608 H595 0.961 . S
C608 H596 0.959 . S
C608 C606 1.561 . S
C609 C606 1.526 . S
C609 C610 1.396 . S
C609 C614 1.390 . S
C610 C604 1.465 . S
C610 C609 1.396 . S
C610 C611 1.399 . S
C611 H597 0.929 . S
C611 C610 1.399 . S
C611 C612 1.385 . S
C612 H598 0.931 . S
C612 C611 1.385 . S
C612 C613 1.389 . S
C613 C612 1.389 . S
C613 C614 1.387 . S
C614 H599 0.930 . S
C614 C609 1.390 . S
C614 C613 1.387 . S
H615 C627 0.930 . S
H616 C629 0.930 . S
H617 C630 0.930 . S
H618 C634 0.959 . S
H619 C634 0.959 . S
H620 C634 0.961 . S
H621 C635 0.960 . S
H622 C635 0.961 . S
H623 C635 0.959 . S
H624 C638 0.929 . S
H625 C639 0.931 . S
H626 C641 0.930 . S
C627 H615 0.930 . S
C627 C628 1.399 . S
C627 C632 1.399 . S
C628 C627 1.399 . S
C628 C629 1.376 . S
C629 H616 0.930 . S
C629 C628 1.376 . S
C629 C630 1.388 . S
C630 H617 0.930 . S
C630 C629 1.388 . S
C630 C631 1.390 . S
C631 C630 1.390 . S
C631 C632 1.394 . S
C631 C637 1.465 . S
C632 C627 1.399 . S
C632 C631 1.394 . S
C632 C633 1.516 . S
C633 C632 1.516 . S
C633 C634 1.502 . S
C633 C635 1.561 . S
C633 C636 1.526 . S
C634 H618 0.959 . S
C634 H619 0.959 . S
C634 H620 0.961 . S
C634 C633 1.502 . S
C635 H621 0.960 . S
C635 H622 0.961 . S
C635 H623 0.959 . S
C635 C633 1.561 . S
C636 C633 1.526 . S
C636 C637 1.396 . S
C636 C641 1.390 . S
C637 C631 1.465 . S
C637 C636 1.396 . S
C637 C638 1.399 . S
C638 H624 0.929 . S
C638 C637 1.399 . S
C638 C639 1.385 . S
C639 H625 0.931 . S
C639 C638 1.385 . S
C639 C640 1.389 . S
C640 C639 1.389 . S
C640 C641 1.387 . S
C641 H626 0.930 . S
C641 C636 1.390 . S
C641 C640 1.387 . S
H642 C654 0.930 . S
H643 C656 0.930 . S
H644 C657 0.930 . S
H645 C661 0.959 . S
H646 C661 0.959 . S
H647 C661 0.961 . S
H648 C662 0.960 . S
H649 C662 0.961 . S
H650 C662 0.959 . S
H651 C665 0.929 . S
H652 C666 0.931 . S
H653 C668 0.930 . S
C654 H642 0.930 . S
C654 C655 1.399 . S
C654 C659 1.399 . S
C655 C654 1.399 . S
C655 C656 1.376 . S
C656 H643 0.930 . S
C656 C655 1.376 . S
C656 C657 1.388 . S
C657 H644 0.930 . S
C657 C656 1.388 . S
C657 C658 1.390 . S
C658 C657 1.390 . S
C658 C659 1.394 . S
C658 C664 1.465 . S
C659 C654 1.399 . S
C659 C658 1.394 . S
C659 C660 1.516 . S
C660 C659 1.516 . S
C660 C661 1.502 . S
C660 C662 1.561 . S
C660 C663 1.526 . S
C661 H645 0.959 . S
C661 H646 0.959 . S
C661 H647 0.961 . S
C661 C660 1.502 . S
C662 H648 0.960 . S
C662 H649 0.961 . S
C662 H650 0.959 . S
C662 C660 1.561 . S
C663 C660 1.526 . S
C663 C664 1.396 . S
C663 C668 1.390 . S
C664 C658 1.465 . S
C664 C663 1.396 . S
C664 C665 1.399 . S
C665 H651 0.929 . S
C665 C664 1.399 . S
C665 C666 1.385 . S
C666 H652 0.931 . S
C666 C665 1.385 . S
C666 C667 1.389 . S
C667 C666 1.389 . S
C667 C668 1.387 . S
C668 H653 0.930 . S
C668 C663 1.390 . S
C668 C667 1.387 . S
H669 C681 0.930 . S
H670 C683 0.930 . S
H671 C684 0.930 . S
H672 C688 0.959 . S
H673 C688 0.959 . S
H674 C688 0.961 . S
H675 C689 0.960 . S
H676 C689 0.961 . S
H677 C689 0.959 . S
H678 C692 0.929 . S
H679 C693 0.931 . S
H680 C695 0.930 . S
C681 H669 0.930 . S
C681 C682 1.399 . S
C681 C686 1.399 . S
C682 C681 1.399 . S
C682 C683 1.376 . S
C683 H670 0.930 . S
C683 C682 1.376 . S
C683 C684 1.388 . S
C684 H671 0.930 . S
C684 C683 1.388 . S
C684 C685 1.390 . S
C685 C684 1.390 . S
C685 C686 1.394 . S
C685 C691 1.465 . S
C686 C681 1.399 . S
C686 C685 1.394 . S
C686 C687 1.516 . S
C687 C686 1.516 . S
C687 C688 1.502 . S
C687 C689 1.561 . S
C687 C690 1.526 . S
C688 H672 0.959 . S
C688 H673 0.959 . S
C688 H674 0.961 . S
C688 C687 1.502 . S
C689 H675 0.960 . S
C689 H676 0.961 . S
C689 H677 0.959 . S
C689 C687 1.561 . S
C690 C687 1.526 . S
C690 C691 1.396 . S
C690 C695 1.390 . S
C691 C685 1.465 . S
C691 C690 1.396 . S
C691 C692 1.399 . S
C692 H678 0.929 . S
C692 C691 1.399 . S
C692 C693 1.385 . S
C693 H679 0.931 . S
C693 C692 1.385 . S
C693 C694 1.389 . S
C694 C693 1.389 . S
C694 C695 1.387 . S
C695 H680 0.930 . S
C695 C690 1.390 . S
C695 C694 1.387 . S
H696 C708 0.930 . S
H697 C710 0.930 . S
H698 C711 0.930 . S
H699 C715 0.959 . S
H700 C715 0.959 . S
H701 C715 0.961 . S
H702 C716 0.960 . S
H703 C716 0.961 . S
H704 C716 0.959 . S
H705 C719 0.929 . S
H706 C720 0.931 . S
H707 C722 0.930 . S
C708 H696 0.930 . S
C708 C709 1.399 . S
C708 C713 1.399 . S
C709 C708 1.399 . S
C709 C710 1.376 . S
C710 H697 0.930 . S
C710 C709 1.376 . S
C710 C711 1.388 . S
C711 H698 0.930 . S
C711 C710 1.388 . S
C711 C712 1.390 . S
C712 C711 1.390 . S
C712 C713 1.394 . S
C712 C718 1.465 . S
C713 C708 1.399 . S
C713 C712 1.394 . S
C713 C714 1.516 . S
C714 C713 1.516 . S
C714 C715 1.502 . S
C714 C716 1.561 . S
C714 C717 1.526 . S
C715 H699 0.959 . S
C715 H700 0.959 . S
C715 H701 0.961 . S
C715 C714 1.502 . S
C716 H702 0.960 . S
C716 H703 0.961 . S
C716 H704 0.959 . S
C716 C714 1.561 . S
C717 C714 1.526 . S
C717 C718 1.396 . S
C717 C722 1.390 . S
C718 C712 1.465 . S
C718 C717 1.396 . S
C718 C719 1.399 . S
C719 H705 0.929 . S
C719 C718 1.399 . S
C719 C720 1.385 . S
C720 H706 0.931 . S
C720 C719 1.385 . S
C720 C721 1.389 . S
C721 C720 1.389 . S
C721 C722 1.387 . S
C722 H707 0.930 . S
C722 C717 1.390 . S
C722 C721 1.387 . S
H723 C735 0.930 . S
H724 C737 0.930 . S
H725 C738 0.930 . S
H726 C742 0.959 . S
H727 C742 0.959 . S
H728 C742 0.961 . S
H729 C743 0.960 . S
H730 C743 0.961 . S
H731 C743 0.959 . S
H732 C746 0.929 . S
H733 C747 0.931 . S
H734 C749 0.930 . S
C735 H723 0.930 . S
C735 C736 1.399 . S
C735 C740 1.399 . S
C736 C735 1.399 . S
C736 C737 1.376 . S
C737 H724 0.930 . S
C737 C736 1.376 . S
C737 C738 1.388 . S
C738 H725 0.930 . S
C738 C737 1.388 . S
C738 C739 1.390 . S
C739 C738 1.390 . S
C739 C740 1.394 . S
C739 C745 1.465 . S
C740 C735 1.399 . S
C740 C739 1.394 . S
C740 C741 1.516 . S
C741 C740 1.516 . S
C741 C742 1.502 . S
C741 C743 1.561 . S
C741 C744 1.526 . S
C742 H726 0.959 . S
C742 H727 0.959 . S
C742 H728 0.961 . S
C742 C741 1.502 . S
C743 H729 0.960 . S
C743 H730 0.961 . S
C743 H731 0.959 . S
C743 C741 1.561 . S
C744 C741 1.526 . S
C744 C745 1.396 . S
C744 C749 1.390 . S
C745 C739 1.465 . S
C745 C744 1.396 . S
C745 C746 1.399 . S
C746 H732 0.929 . S
C746 C745 1.399 . S
C746 C747 1.385 . S
C747 H733 0.931 . S
C747 C746 1.385 . S
C747 C748 1.389 . S
C748 C747 1.389 . S
C748 C749 1.387 . S
C749 H734 0.930 . S
C749 C744 1.390 . S
C749 C748 1.387 . S
H750 C762 0.930 . S
H751 C764 0.930 . S
H752 C765 0.930 . S
H753 C769 0.959 . S
H754 C769 0.959 . S
H755 C769 0.961 . S
H756 C770 0.960 . S
H757 C770 0.961 . S
H758 C770 0.959 . S
H759 C773 0.929 . S
H760 C774 0.931 . S
H761 C776 0.930 . S
C762 H750 0.930 . S
C762 C763 1.399 . S
C762 C767 1.399 . S
C763 C762 1.399 . S
C763 C764 1.376 . S
C764 H751 0.930 . S
C764 C763 1.376 . S
C764 C765 1.388 . S
C765 H752 0.930 . S
C765 C764 1.388 . S
C765 C766 1.390 . S
C766 C765 1.390 . S
C766 C767 1.394 . S
C766 C772 1.465 . S
C767 C762 1.399 . S
C767 C766 1.394 . S
C767 C768 1.516 . S
C768 C767 1.516 . S
C768 C769 1.502 . S
C768 C770 1.561 . S
C768 C771 1.526 . S
C769 H753 0.959 . S
C769 H754 0.959 . S
C769 H755 0.961 . S
C769 C768 1.502 . S
C770 H756 0.960 . S
C770 H757 0.961 . S
C770 H758 0.959 . S
C770 C768 1.561 . S
C771 C768 1.526 . S
C771 C772 1.396 . S
C771 C776 1.390 . S
C772 C766 1.465 . S
C772 C771 1.396 . S
C772 C773 1.399 . S
C773 H759 0.929 . S
C773 C772 1.399 . S
C773 C774 1.385 . S
C774 H760 0.931 . S
C774 C773 1.385 . S
C774 C775 1.389 . S
C775 C774 1.389 . S
C775 C776 1.387 . S
C776 H761 0.930 . S
C776 C771 1.390 . S
C776 C775 1.387 . S
H777 C789 0.930 . S
H778 C791 0.930 . S
H779 C792 0.930 . S
H780 C796 0.959 . S
H781 C796 0.959 . S
H782 C796 0.961 . S
H783 C797 0.960 . S
H784 C797 0.961 . S
H785 C797 0.959 . S
H786 C800 0.929 . S
H787 C801 0.931 . S
H788 C803 0.930 . S
C789 H777 0.930 . S
C789 C790 1.399 . S
C789 C794 1.399 . S
C790 C789 1.399 . S
C790 C791 1.376 . S
C791 H778 0.930 . S
C791 C790 1.376 . S
C791 C792 1.388 . S
C792 H779 0.930 . S
C792 C791 1.388 . S
C792 C793 1.390 . S
C793 C792 1.390 . S
C793 C794 1.394 . S
C793 C799 1.465 . S
C794 C789 1.399 . S
C794 C793 1.394 . S
C794 C795 1.516 . S
C795 C794 1.516 . S
C795 C796 1.502 . S
C795 C797 1.561 . S
C795 C798 1.526 . S
C796 H780 0.959 . S
C796 H781 0.959 . S
C796 H782 0.961 . S
C796 C795 1.502 . S
C797 H783 0.960 . S
C797 H784 0.961 . S
C797 H785 0.959 . S
C797 C795 1.561 . S
C798 C795 1.526 . S
C798 C799 1.396 . S
C798 C803 1.390 . S
C799 C793 1.465 . S
C799 C798 1.396 . S
C799 C800 1.399 . S
C800 H786 0.929 . S
C800 C799 1.399 . S
C800 C801 1.385 . S
C801 H787 0.931 . S
C801 C800 1.385 . S
C801 C802 1.389 . S
C802 C801 1.389 . S
C802 C803 1.387 . S
C803 H788 0.930 . S
C803 C798 1.390 . S
C803 C802 1.387 . S
C277 N200 0.755 . S
C289 N13 0.582 . S
C304 N233 0.750 . S
C316 N46 0.799 . S
C331 N134 0.791 . S
C343 N79 0.727 . S
C358 N167 0.857 . S
C370 N112 0.844 . S
C385 N68 0.678 . S
C397 N145 0.846 . S
C412 N101 0.873 . S
C424 N178 0.908 . S
C439 N2 0.830 . S
C451 N211 0.783 . S
C466 N244 0.746 . S
C478 N35 0.740 . S
C493 C87 2.005 . S
C505 C7 1.987 . S
C520 C54 2.181 . S
C532 C106 2.167 . S
C547 C219 2.059 . S
C559 C139 2.063 . S
C574 C172 2.365 . S
C586 C238 2.379 . S
C601 C18 1.811 . S
C613 C249 1.835 . S
C628 C150 1.965 . S
C640 C40 1.972 . S
C655 C183 1.769 . S
C667 C73 1.773 . S
C682 C205 1.908 . S
C694 C117 1.904 . S
C709 C84 1.525 . S
C721 C186 1.495 . S
C736 C120 1.337 . S
C748 C216 1.330 . S
C763 C252 1.082 . S
C775 C21 1.112 . S
C790 C153 1.291 . S
C802 C51 1.310 . S
