# Generated by pormake.
# Topology umm, (4)-cn, num edge types: 1
# Building blocks:
#     Node 0, Type 0, BuildingBlock: KOZSID_clean_sbu_0, # of connection points: 4
#     Node 1, Type 0, BuildingBlock: KOZSID_clean_sbu_0, # of connection points: 4
#     Node 2, Type 0, BuildingBlock: KOZSID_clean_sbu_0, # of connection points: 4
#     Node 3, Type 0, BuildingBlock: KOZSID_clean_sbu_0, # of connection points: 4
#     Node 4, Type 0, BuildingBlock: KOZSID_clean_sbu_0, # of connection points: 4
#     Node 5, Type 0, BuildingBlock: KOZSID_clean_sbu_0, # of connection points: 4
#     Node 6, Type 0, BuildingBlock: KOZSID_clean_sbu_0, # of connection points: 4
#     Node 7, Type 0, BuildingBlock: KOZSID_clean_sbu_0, # of connection points: 4
#     Node 8, Type 0, BuildingBlock: KOZSID_clean_sbu_0, # of connection points: 4
#     Node 9, Type 0, BuildingBlock: KOZSID_clean_sbu_0, # of connection points: 4
#     Node 10, Type 0, BuildingBlock: KOZSID_clean_sbu_0, # of connection points: 4
#     Node 11, Type 0, BuildingBlock: KOZSID_clean_sbu_0, # of connection points: 4
#     Edge 12, Type (0, 0), BuildingBlock: UVAHIK_clean_linker_0, # of connection points: 2
#     Edge 13, Type (0, 0), BuildingBlock: UVAHIK_clean_linker_0, # of connection points: 2
#     Edge 14, Type (0, 0), BuildingBlock: UVAHIK_clean_linker_0, # of connection points: 2
#     Edge 15, Type (0, 0), BuildingBlock: UVAHIK_clean_linker_0, # of connection points: 2
#     Edge 16, Type (0, 0), BuildingBlock: UVAHIK_clean_linker_0, # of connection points: 2
#     Edge 17, Type (0, 0), BuildingBlock: UVAHIK_clean_linker_0, # of connection points: 2
#     Edge 18, Type (0, 0), BuildingBlock: UVAHIK_clean_linker_0, # of connection points: 2
#     Edge 19, Type (0, 0), BuildingBlock: UVAHIK_clean_linker_0, # of connection points: 2
#     Edge 20, Type (0, 0), BuildingBlock: UVAHIK_clean_linker_0, # of connection points: 2
#     Edge 21, Type (0, 0), BuildingBlock: UVAHIK_clean_linker_0, # of connection points: 2
#     Edge 22, Type (0, 0), BuildingBlock: UVAHIK_clean_linker_0, # of connection points: 2
#     Edge 23, Type (0, 0), BuildingBlock: UVAHIK_clean_linker_0, # of connection points: 2
#     Edge 24, Type (0, 0), BuildingBlock: UVAHIK_clean_linker_0, # of connection points: 2
#     Edge 25, Type (0, 0), BuildingBlock: UVAHIK_clean_linker_0, # of connection points: 2
#     Edge 26, Type (0, 0), BuildingBlock: UVAHIK_clean_linker_0, # of connection points: 2
#     Edge 27, Type (0, 0), BuildingBlock: UVAHIK_clean_linker_0, # of connection points: 2
#     Edge 28, Type (0, 0), BuildingBlock: UVAHIK_clean_linker_0, # of connection points: 2
#     Edge 29, Type (0, 0), BuildingBlock: UVAHIK_clean_linker_0, # of connection points: 2
#     Edge 30, Type (0, 0), BuildingBlock: UVAHIK_clean_linker_0, # of connection points: 2
#     Edge 31, Type (0, 0), BuildingBlock: UVAHIK_clean_linker_0, # of connection points: 2
#     Edge 32, Type (0, 0), BuildingBlock: UVAHIK_clean_linker_0, # of connection points: 2
#     Edge 33, Type (0, 0), BuildingBlock: UVAHIK_clean_linker_0, # of connection points: 2
#     Edge 34, Type (0, 0), BuildingBlock: UVAHIK_clean_linker_0, # of connection points: 2
#     Edge 35, Type (0, 0), BuildingBlock: UVAHIK_clean_linker_0, # of connection points: 2
# Relax obj value: 0.060
# Max RMSD: 0.166
# Mean RMSD: 0.166
data_MOF--net-umm--node1-KOZSID_clean_sbu_0--edge1-UVAHIK_clean_linker_0
_symmetry_space_group_name_H-M    P1
_symmetry_Int_Tables_number       1
_symmetry_cell_setting            triclinic
loop_
_symmetry_equiv_pos_as_xyz
'x, y, z'
_cell_length_a     78.452374
_cell_length_b     78.495893
_cell_length_c     47.370465
_cell_angle_alpha  90.076947
_cell_angle_beta   89.901683
_cell_angle_gamma 119.96701
loop_
_atom_site_label
_atom_site_type_symbol
_atom_site_fract_x
_atom_site_fract_y
_atom_site_fract_z
_atom_type_partial_charge
C0 C 0.36772 0.55534 0.08009 0.0
C1 C 0.3479 0.54118 0.08057 0.0
C2 C 0.34676 0.52426 0.09068 0.0
C3 C 0.36587 0.52902 0.0958 0.0
N4 N 0.37889 0.54785 0.08949 0.0
Co5 Co 0.40781 0.56083 0.09358 0.0
N6 N 0.40703 0.53522 0.09386 0.0
C7 C 0.3911 0.51761 0.09929 0.0
C8 C 0.39505 0.50245 0.0983 0.0
C9 C 0.41472 0.5111 0.09212 0.0
C10 C 0.42172 0.53116 0.08972 0.0
N11 N 0.43674 0.57381 0.09807 0.0
C12 C 0.44899 0.56652 0.09404 0.0
C13 C 0.46825 0.58058 0.10038 0.0
C14 C 0.46789 0.59713 0.10893 0.0
C15 C 0.4485 0.59231 0.10734 0.0
N16 N 0.40838 0.58636 0.09316 0.0
C17 C 0.42305 0.60357 0.10285 0.0
C18 C 0.41923 0.61874 0.09937 0.0
C19 C 0.40101 0.61045 0.0868 0.0
C20 C 0.39473 0.59064 0.08334 0.0
N21 N 0.40506 0.55982 0.13487 0.0
C22 C 0.40555 0.56354 0.19389 0.0
C23 C 0.39376 0.56826 0.17717 0.0
C24 C 0.39356 0.56611 0.14778 0.0
C25 C 0.41636 0.55606 0.18047 0.0
C26 C 0.41595 0.55436 0.15107 0.0
N27 N 0.41089 0.56225 0.05254 0.0
C28 C 0.42753 0.58129 0.01141 0.0
C29 C 0.41531 0.56561 0.99365 0.0
C30 C 0.40096 0.54801 1.00619 0.0
C31 C 0.39903 0.54662 0.03566 0.0
C32 C 0.42503 0.57935 0.04056 0.0
H33 H 0.38783 0.533 0.04482 0.0
H34 H 0.43456 0.59183 0.05343 0.0
H35 H 0.38456 0.57013 0.13545 0.0
H36 H 0.42505 0.54927 0.14145 0.0
C37 C 0.37236 0.51562 0.10098 0.0
C38 C 0.37542 0.57596 0.07219 0.0
C39 C 0.44261 0.54601 0.08646 0.0
C40 C 0.44126 0.6054 0.11 0.0
H41 H 0.33559 0.54289 0.07426 0.0
H42 H 0.33365 0.50999 0.09274 0.0
H43 H 0.38478 0.4869 0.10095 0.0
H44 H 0.42303 0.50354 0.0901 0.0
H45 H 0.48116 0.57898 0.09922 0.0
H46 H 0.48037 0.61118 0.11474 0.0
H47 H 0.42887 0.63414 0.1042 0.0
H48 H 0.39326 0.61807 0.08088 0.0
H49 H 0.3849 0.57378 0.18668 0.0
H50 H 0.42576 0.55229 0.19246 0.0
H51 H 0.43913 0.59503 1.00292 0.0
H52 H 0.39108 0.5355 0.99339 0.0
C53 C 0.81605 0.36654 0.41507 0.0
C54 C 0.81088 0.34683 0.41497 0.0
C55 C 0.82736 0.34613 0.42196 0.0
C56 C 0.84165 0.36534 0.42579 0.0
N57 N 0.83528 0.37831 0.42192 0.0
Co58 Co 0.8515 0.4077 0.42465 0.0
N59 N 0.87641 0.40675 0.42956 0.0
C60 C 0.87813 0.39045 0.43031 0.0
C61 C 0.89714 0.39429 0.43211 0.0
C62 C 0.90834 0.41428 0.43216 0.0
C63 C 0.89541 0.42151 0.4306 0.0
N64 N 0.86765 0.43707 0.42831 0.0
C65 C 0.88745 0.449 0.43033 0.0
C66 C 0.89254 0.46859 0.43278 0.0
C67 C 0.87538 0.46909 0.43195 0.0
C68 C 0.86082 0.44984 0.42919 0.0
N69 N 0.82668 0.40866 0.41819 0.0
C70 C 0.82489 0.42493 0.41777 0.0
C71 C 0.80634 0.42118 0.41099 0.0
C72 C 0.79573 0.40138 0.40626 0.0
C73 C 0.80846 0.39415 0.41047 0.0
N74 N 0.84729 0.40602 0.46641 0.0
C75 C 0.84662 0.40885 0.52578 0.0
C76 C 0.83965 0.41839 0.50857 0.0
C77 C 0.83984 0.41656 0.47933 0.0
C78 C 0.85274 0.39676 0.51297 0.0
C79 C 0.85297 0.39559 0.48342 0.0
N80 N 0.85587 0.40975 0.38336 0.0
C81 C 0.85975 0.42747 0.34007 0.0
C82 C 0.86247 0.41383 0.32481 0.0
C83 C 0.86165 0.3979 0.33922 0.0
C84 C 0.85856 0.39626 0.36851 0.0
C85 C 0.85634 0.42508 0.36894 0.0
H86 H 0.8584 0.38404 0.37879 0.0
H87 H 0.85403 0.43584 0.37914 0.0
H88 H 0.83417 0.42418 0.46782 0.0
H89 H 0.85818 0.38646 0.47491 0.0
C90 C 0.8616 0.37174 0.42901 0.0
C91 C 0.80254 0.37341 0.40688 0.0
C92 C 0.90193 0.44248 0.42962 0.0
C93 C 0.84101 0.44355 0.4236 0.0
H94 H 0.79687 0.33422 0.40947 0.0
H95 H 0.82899 0.33323 0.42272 0.0
H96 H 0.90227 0.3838 0.43286 0.0
H97 H 0.92424 0.42257 0.43291 0.0
H98 H 0.90718 0.48123 0.43447 0.0
H99 H 0.87379 0.48201 0.43225 0.0
H100 H 0.80122 0.43163 0.4093 0.0
H101 H 0.78039 0.39317 0.40019 0.0
H102 H 0.83419 0.42744 0.51765 0.0
H103 H 0.85799 0.38884 0.52562 0.0
H104 H 0.85986 0.4398 0.32962 0.0
H105 H 0.86362 0.38696 0.32803 0.0
C106 C 0.45271 0.81208 0.74913 0.0
C107 C 0.46735 0.80703 0.74897 0.0
C108 C 0.48462 0.82381 0.75451 0.0
C109 C 0.47962 0.83811 0.75766 0.0
N110 N 0.46015 0.83147 0.75483 0.0
Co111 Co 0.44676 0.84754 0.75675 0.0
N112 N 0.47258 0.87269 0.76 0.0
C113 C 0.49067 0.87458 0.76074 0.0
C114 C 0.50572 0.89367 0.76199 0.0
C115 C 0.49674 0.90471 0.76181 0.0
C116 C 0.47662 0.89163 0.76059 0.0
N117 N 0.43334 0.86363 0.75915 0.0
C118 C 0.44108 0.88343 0.76028 0.0
C119 C 0.42649 0.88848 0.76192 0.0
C120 C 0.40891 0.87127 0.7616 0.0
C121 C 0.41371 0.85674 0.75987 0.0
N122 N 0.42097 0.8224 0.75247 0.0
C123 C 0.40279 0.82038 0.75256 0.0
C124 C 0.38801 0.80154 0.74727 0.0
C125 C 0.3973 0.79096 0.74302 0.0
C126 C 0.41729 0.80399 0.74599 0.0
N127 N 0.44513 0.84482 0.79878 0.0
C128 C 0.4428 0.84441 0.85834 0.0
C129 C 0.42622 0.83893 0.84175 0.0
C130 C 0.42765 0.83899 0.81244 0.0
C131 C 0.46047 0.84925 0.84477 0.0
C132 C 0.46133 0.84946 0.81513 0.0
N133 N 0.44816 0.85026 0.7151 0.0
C134 C 0.43209 0.8494 0.67132 0.0
C135 C 0.44811 0.85152 0.65566 0.0
C136 C 0.46458 0.85374 0.67036 0.0
C137 C 0.4643 0.85308 0.7 0.0
C138 C 0.4324 0.84877 0.7006 0.0
H139 H 0.47713 0.85465 0.71034 0.0
H140 H 0.41957 0.84686 0.711 0.0
H141 H 0.41433 0.83445 0.80148 0.0
H142 H 0.4753 0.85368 0.80601 0.0
C143 C 0.49307 0.85815 0.75988 0.0
C144 C 0.43222 0.79825 0.74204 0.0
C145 C 0.46204 0.89799 0.75967 0.0
C146 C 0.40021 0.83666 0.75632 0.0
H147 H 0.46586 0.79285 0.74437 0.0
H148 H 0.4992 0.82555 0.75489 0.0
H149 H 0.52137 0.89894 0.76263 0.0
H150 H 0.50419 0.92061 0.76229 0.0
H151 H 0.42839 0.90311 0.76291 0.0
H152 H 0.39435 0.86959 0.76185 0.0
H153 H 0.37238 0.79624 0.74595 0.0
H154 H 0.39023 0.77546 0.73789 0.0
H155 H 0.4121 0.8346 0.8514 0.0
H156 H 0.47368 0.85344 0.85691 0.0
H157 H 0.41922 0.84823 0.66105 0.0
H158 H 0.47741 0.85554 0.65911 0.0
C159 C 0.64338 0.45147 0.0794 0.0
C160 C 0.66321 0.46559 0.08009 0.0
C161 C 0.66435 0.4824 0.09079 0.0
C162 C 0.64524 0.47761 0.09604 0.0
N163 N 0.63222 0.45887 0.08926 0.0
Co164 Co 0.60331 0.44587 0.09336 0.0
N165 N 0.6041 0.47148 0.0943 0.0
C166 C 0.62001 0.48902 0.10014 0.0
C167 C 0.61604 0.50418 0.09968 0.0
C168 C 0.5964 0.4956 0.09341 0.0
C169 C 0.58943 0.47558 0.09037 0.0
N170 N 0.57438 0.43287 0.09791 0.0
C171 C 0.56214 0.4402 0.09413 0.0
C172 C 0.54285 0.42605 0.1002 0.0
C173 C 0.54319 0.40943 0.10839 0.0
C174 C 0.56259 0.41429 0.10683 0.0
N175 N 0.60271 0.42035 0.09221 0.0
C176 C 0.58803 0.40304 0.10159 0.0
C177 C 0.59181 0.38789 0.09748 0.0
C178 C 0.61002 0.3963 0.0848 0.0
C179 C 0.61634 0.41616 0.08192 0.0
N180 N 0.60598 0.4465 0.13461 0.0
C181 C 0.60546 0.44239 0.19348 0.0
C182 C 0.61705 0.43752 0.1765 0.0
C183 C 0.61731 0.43992 0.14719 0.0
C184 C 0.59484 0.45018 0.18044 0.0
C185 C 0.59522 0.45202 0.15109 0.0
N186 N 0.60032 0.44485 0.05236 0.0
C187 C 0.58383 0.42621 0.01092 0.0
C188 C 0.59628 0.44197 0.99345 0.0
C189 C 0.61062 0.45943 1.00629 0.0
C190 C 0.61236 0.46059 0.03578 0.0
C191 C 0.58615 0.4279 0.0401 0.0
H192 H 0.62355 0.4741 0.04517 0.0
H193 H 0.5765 0.41535 0.05275 0.0
H194 H 0.62622 0.43587 0.13462 0.0
H195 H 0.58621 0.45728 0.14172 0.0
C196 C 0.63875 0.49097 0.10173 0.0
C197 C 0.63565 0.43096 0.07083 0.0
C198 C 0.56857 0.46076 0.08682 0.0
C199 C 0.56981 0.40116 0.10898 0.0
H200 H 0.67551 0.46392 0.07352 0.0
H201 H 0.67747 0.49663 0.09313 0.0
H202 H 0.62629 0.51969 0.10276 0.0
H203 H 0.58808 0.50317 0.09176 0.0
H204 H 0.52992 0.4276 0.09904 0.0
H205 H 0.53068 0.39532 0.11387 0.0
H206 H 0.58214 0.37245 0.10193 0.0
H207 H 0.61772 0.38871 0.07839 0.0
H208 H 0.62572 0.43173 0.18579 0.0
H209 H 0.58563 0.45407 0.19273 0.0
H210 H 0.5722 0.41257 1.00221 0.0
H211 H 0.62067 0.47199 0.99372 0.0
C212 C 0.19583 0.64411 0.41399 0.0
C213 C 0.2005 0.66367 0.41453 0.0
C214 C 0.1843 0.66391 0.42496 0.0
C215 C 0.17065 0.64457 0.43004 0.0
N216 N 0.17726 0.63222 0.42339 0.0
Co217 Co 0.16229 0.6032 0.42679 0.0
N218 N 0.13684 0.60283 0.42778 0.0
C219 C 0.13442 0.61824 0.43396 0.0
C220 C 0.11507 0.61354 0.43371 0.0
C221 C 0.10466 0.59391 0.42721 0.0
C222 C 0.11832 0.5877 0.4238 0.0
N223 N 0.14733 0.57417 0.4304 0.0
C224 C 0.12789 0.56136 0.42646 0.0
C225 C 0.1236 0.54221 0.43162 0.0
C226 C 0.14091 0.54322 0.43957 0.0
C227 C 0.15482 0.56284 0.4387 0.0
N228 N 0.18786 0.60381 0.42582 0.0
C229 C 0.19116 0.5895 0.43493 0.0
C230 C 0.2104 0.59415 0.43126 0.0
C231 C 0.21969 0.61253 0.41918 0.0
C232 C 0.20554 0.61805 0.41609 0.0
N233 N 0.16391 0.60533 0.46816 0.0
C234 C 0.167 0.60296 0.52702 0.0
C235 C 0.18341 0.61581 0.51067 0.0
C236 C 0.18151 0.6169 0.48137 0.0
C237 C 0.14881 0.5924 0.5133 0.0
C238 C 0.1476 0.59369 0.48407 0.0
N239 N 0.16061 0.60059 0.38565 0.0
C240 C 0.16387 0.58499 0.34387 0.0
C241 C 0.15703 0.59493 0.32686 0.0
C242 C 0.15243 0.60819 0.34011 0.0
C243 C 0.15447 0.61091 0.36946 0.0
C244 C 0.16529 0.58782 0.37298 0.0
H245 H 0.15085 0.62117 0.37912 0.0
H246 H 0.17012 0.5795 0.38526 0.0
H247 H 0.19448 0.6265 0.46927 0.0
H248 H 0.1335 0.58462 0.4743 0.0
C249 C 0.15067 0.63726 0.43566 0.0
C250 C 0.20949 0.63731 0.40574 0.0
C251 C 0.11304 0.56705 0.42005 0.0
C252 C 0.17525 0.57083 0.4414 0.0
H253 H 0.21409 0.67642 0.40794 0.0
H254 H 0.18239 0.67658 0.42719 0.0
H255 H 0.10924 0.6233 0.4371 0.0
H256 H 0.0888 0.58512 0.42575 0.0
H257 H 0.10943 0.52892 0.43009 0.0
H258 H 0.14315 0.53103 0.44454 0.0
H259 H 0.21673 0.58494 0.43563 0.0
H260 H 0.23507 0.62092 0.41334 0.0
H261 H 0.19781 0.62437 0.52015 0.0
H262 H 0.13553 0.58278 0.52493 0.0
H263 H 0.16822 0.57506 0.33489 0.0
H264 H 0.14697 0.61618 0.3281 0.0
C265 C 0.55675 0.1931 0.74718 0.0
C266 C 0.54245 0.19859 0.7475 0.0
C267 C 0.52566 0.18287 0.75806 0.0
C268 C 0.53062 0.16871 0.76353 0.0
N269 N 0.54945 0.17457 0.75702 0.0
Co270 Co 0.56265 0.15884 0.76131 0.0
N271 N 0.53712 0.13393 0.76222 0.0
C272 C 0.51949 0.1322 0.76783 0.0
C273 C 0.50441 0.11305 0.76756 0.0
C274 C 0.51313 0.10205 0.76167 0.0
C275 C 0.53315 0.11518 0.75864 0.0
N276 N 0.57586 0.14311 0.76606 0.0
C277 C 0.56866 0.12354 0.76257 0.0
C278 C 0.58297 0.11862 0.76866 0.0
C279 C 0.59952 0.13569 0.77666 0.0
C280 C 0.59448 0.15009 0.77494 0.0
N281 N 0.58808 0.18387 0.76018 0.0
C282 C 0.60543 0.18667 0.76966 0.0
C283 C 0.62048 0.20564 0.76561 0.0
C284 C 0.61196 0.21529 0.75288 0.0
C285 C 0.59215 0.20161 0.74985 0.0
N286 N 0.56189 0.16098 0.80256 0.0
C287 C 0.56586 0.16473 0.86151 0.0
C288 C 0.5705 0.18108 0.84446 0.0
C289 C 0.56821 0.17886 0.81512 0.0
C290 C 0.55837 0.14634 0.84845 0.0
C291 C 0.55656 0.1448 0.81909 0.0
N292 N 0.56382 0.15679 0.72028 0.0
C293 C 0.58274 0.1591 0.67899 0.0
C294 C 0.567 0.15563 0.66135 0.0
C295 C 0.54941 0.15235 0.67406 0.0
C296 C 0.54811 0.15294 0.70355 0.0
C297 C 0.58089 0.15972 0.70815 0.0
H298 H 0.53451 0.15051 0.71282 0.0
H299 H 0.59344 0.16274 0.7209 0.0
H300 H 0.57213 0.19175 0.80252 0.0
H301 H 0.55148 0.13054 0.80976 0.0
C302 C 0.51737 0.14887 0.7692 0.0
C303 C 0.57729 0.20599 0.73875 0.0
C304 C 0.54808 0.1092 0.75561 0.0
C305 C 0.60748 0.17046 0.77707 0.0
H306 H 0.54396 0.21243 0.74071 0.0
H307 H 0.51133 0.18159 0.76013 0.0
H308 H 0.48887 0.10772 0.77058 0.0
H309 H 0.50565 0.08617 0.76034 0.0
H310 H 0.58157 0.1042 0.76766 0.0
H311 H 0.6137 0.13746 0.78216 0.0
H312 H 0.63594 0.21155 0.77019 0.0
H313 H 0.61941 0.23058 0.74656 0.0
H314 H 0.57603 0.19552 0.8537 0.0
H315 H 0.55468 0.13331 0.86071 0.0
H316 H 0.59647 0.16125 0.6704 0.0
H317 H 0.53686 0.14971 0.66137 0.0
C318 C 0.45427 0.64154 0.6057 0.0
C319 C 0.46798 0.66146 0.60445 0.0
C320 C 0.48492 0.66298 0.59359 0.0
C321 C 0.48062 0.64396 0.58885 0.0
N322 N 0.46205 0.63067 0.59608 0.0
Co323 Co 0.44974 0.60177 0.59308 0.0
N324 N 0.47573 0.60336 0.592 0.0
C325 C 0.49301 0.61949 0.58573 0.0
C326 C 0.50858 0.61613 0.58652 0.0
C327 C 0.50054 0.59665 0.59345 0.0
C328 C 0.48041 0.58915 0.59642 0.0
N329 N 0.4374 0.57284 0.58964 0.0
C330 C 0.44528 0.56112 0.59375 0.0
C331 C 0.43151 0.54163 0.58815 0.0
C332 C 0.41454 0.54129 0.58004 0.0
C333 C 0.41883 0.56053 0.5811 0.0
N334 N 0.42385 0.60038 0.5944 0.0
C335 C 0.40665 0.58527 0.58553 0.0
C336 C 0.39119 0.5886 0.58968 0.0
C337 C 0.39929 0.60696 0.60184 0.0
C338 C 0.41927 0.61378 0.60444 0.0
N339 N 0.44988 0.60363 0.55171 0.0
C340 C 0.44451 0.60107 0.49284 0.0
C341 C 0.43977 0.61305 0.50924 0.0
C342 C 0.4427 0.61425 0.53855 0.0
C343 C 0.45314 0.59142 0.50653 0.0
C344 C 0.45561 0.59282 0.53577 0.0
N345 N 0.44922 0.59948 0.63421 0.0
C346 C 0.43164 0.5825 0.67615 0.0
C347 C 0.44767 0.5951 0.693 0.0
C348 C 0.46449 0.61015 0.67982 0.0
C349 C 0.46503 0.61199 0.65034 0.0
C350 C 0.43266 0.58501 0.64698 0.0
H351 H 0.47821 0.62346 0.64055 0.0
H352 H 0.41995 0.57516 0.63475 0.0
H353 H 0.43843 0.62316 0.55069 0.0
H354 H 0.46154 0.58452 0.54553 0.0
C355 C 0.49437 0.63793 0.58348 0.0
C356 C 0.43381 0.63334 0.61491 0.0
C357 C 0.46604 0.56821 0.60058 0.0
C358 C 0.40524 0.56718 0.57871 0.0
H359 H 0.46599 0.6736 0.61087 0.0
H360 H 0.49896 0.67629 0.59092 0.0
H361 H 0.52399 0.62669 0.58328 0.0
H362 H 0.50855 0.58881 0.59562 0.0
H363 H 0.4336 0.52902 0.58948 0.0
H364 H 0.40058 0.52847 0.57485 0.0
H365 H 0.37576 0.57856 0.58559 0.0
H366 H 0.39145 0.61444 0.60808 0.0
H367 H 0.43309 0.62086 0.49979 0.0
H368 H 0.45766 0.58248 0.49484 0.0
H369 H 0.41824 0.57089 0.68548 0.0
H370 H 0.47722 0.62019 0.69213 0.0
C371 C 0.81486 0.45069 0.93566 0.0
C372 C 0.81001 0.46546 0.93653 0.0
C373 C 0.82689 0.4827 0.93128 0.0
C374 C 0.84105 0.47756 0.92766 0.0
N375 N 0.83423 0.45803 0.9298 0.0
Co376 Co 0.85015 0.44446 0.92781 0.0
N377 N 0.87543 0.47019 0.92503 0.0
C378 C 0.87745 0.48833 0.92412 0.0
C379 C 0.89659 0.50329 0.92304 0.0
C380 C 0.90753 0.49421 0.9234 0.0
C381 C 0.89435 0.47412 0.92453 0.0
N382 N 0.8661 0.43088 0.92589 0.0
C383 C 0.88592 0.4385 0.92526 0.0
C384 C 0.89086 0.42383 0.92413 0.0
C385 C 0.87358 0.40631 0.92426 0.0
C386 C 0.85911 0.41123 0.9254 0.0
N387 N 0.82482 0.41875 0.93109 0.0
C388 C 0.82258 0.4005 0.93014 0.0
C389 C 0.80359 0.38577 0.93467 0.0
C390 C 0.79313 0.39515 0.9393 0.0
C391 C 0.8064 0.41515 0.93736 0.0
N392 N 0.84797 0.44327 0.88573 0.0
C393 C 0.84866 0.44184 0.82617 0.0
C394 C 0.84393 0.42528 0.84235 0.0
C395 C 0.84343 0.42624 0.87166 0.0
C396 C 0.85215 0.45899 0.8401 0.0
C397 C 0.85183 0.4594 0.86975 0.0
N398 N 0.8524 0.44547 0.96947 0.0
C399 C 0.85024 0.42873 0.0131 0.0
C400 C 0.85424 0.44535 0.02878 0.0
C401 C 0.85776 0.46232 0.01423 0.0
C402 C 0.85669 0.46204 0.98462 0.0
C403 C 0.8494 0.42911 0.98388 0.0
H404 H 0.85926 0.47525 0.97436 0.0
H405 H 0.84625 0.41588 0.97343 0.0
H406 H 0.83955 0.41297 0.88227 0.0
H407 H 0.85503 0.473 0.87917 0.0
C408 C 0.86113 0.49089 0.92531 0.0
C409 C 0.80088 0.43015 0.94233 0.0
C410 C 0.90059 0.45944 0.92554 0.0
C411 C 0.83888 0.39779 0.92754 0.0
H412 H 0.79592 0.46411 0.94143 0.0
H413 H 0.82879 0.49734 0.93141 0.0
H414 H 0.90195 0.51895 0.92251 0.0
H415 H 0.92344 0.50161 0.92316 0.0
H416 H 0.90546 0.42563 0.92343 0.0
H417 H 0.8718 0.39172 0.924 0.0
H418 H 0.79813 0.3701 0.93555 0.0
H419 H 0.77759 0.38813 0.94418 0.0
H420 H 0.84062 0.41153 0.83239 0.0
H421 H 0.85569 0.47215 0.82826 0.0
H422 H 0.84793 0.41539 0.02332 0.0
H423 H 0.86099 0.47558 0.02558 0.0
C424 C 0.36888 0.81507 0.27121 0.0
C425 C 0.34907 0.80947 0.27071 0.0
C426 C 0.34798 0.82524 0.26039 0.0
C427 C 0.3671 0.8395 0.25515 0.0
N428 N 0.38008 0.83365 0.26159 0.0
Co429 Co 0.40899 0.84944 0.2573 0.0
N430 N 0.4083 0.87431 0.25685 0.0
C431 C 0.39242 0.87607 0.25136 0.0
C432 C 0.39645 0.89521 0.2523 0.0
C433 C 0.41611 0.90614 0.25855 0.0
C434 C 0.42302 0.89299 0.26104 0.0
N435 N 0.4379 0.86524 0.25254 0.0
C436 C 0.4502 0.88475 0.25657 0.0
C437 C 0.46944 0.88985 0.25014 0.0
C438 C 0.469 0.8729 0.24156 0.0
C439 C 0.44959 0.85841 0.24322 0.0
N440 N 0.40948 0.82444 0.25799 0.0
C441 C 0.42409 0.82177 0.24828 0.0
C442 C 0.42023 0.8028 0.25204 0.0
C443 C 0.40205 0.79302 0.2648 0.0
C444 C 0.39582 0.80662 0.2681 0.0
N445 N 0.40619 0.84758 0.21609 0.0
C446 C 0.40702 0.84444 0.15722 0.0
C447 C 0.3954 0.82784 0.17386 0.0
C448 C 0.39496 0.82976 0.20321 0.0
C449 C 0.41746 0.86274 0.17056 0.0
C450 C 0.41693 0.86398 0.1999 0.0
N451 N 0.41221 0.85135 0.29823 0.0
C452 C 0.42995 0.85063 0.33909 0.0
C453 C 0.41823 0.85493 0.3566 0.0
C454 C 0.40318 0.85713 0.34435 0.0
C455 C 0.40051 0.85544 0.31504 0.0
C456 C 0.42663 0.84878 0.31011 0.0
H457 H 0.38909 0.85752 0.30592 0.0
H458 H 0.43583 0.84531 0.29731 0.0
H459 H 0.38606 0.81672 0.21557 0.0
H460 H 0.42587 0.87818 0.2095 0.0
C461 C 0.37364 0.85937 0.24975 0.0
C462 C 0.37654 0.80214 0.27934 0.0
C463 C 0.44386 0.89888 0.26441 0.0
C464 C 0.4423 0.83806 0.24082 0.0
H465 H 0.33674 0.79551 0.27717 0.0
H466 H 0.33489 0.82644 0.25827 0.0
H467 H 0.38623 0.90055 0.24962 0.0
H468 H 0.42447 0.92198 0.26057 0.0
H469 H 0.48239 0.9043 0.25134 0.0
H470 H 0.48146 0.87125 0.23577 0.0
H471 H 0.42982 0.79696 0.24725 0.0
H472 H 0.39429 0.7777 0.27097 0.0
H473 H 0.38689 0.81345 0.16429 0.0
H474 H 0.42669 0.87594 0.15852 0.0
H475 H 0.4415 0.84847 0.34776 0.0
H476 H 0.39381 0.86047 0.35724 0.0
C477 C 0.55694 0.36525 0.60476 0.0
C478 C 0.54227 0.34565 0.6035 0.0
C479 C 0.5258 0.34535 0.59312 0.0
C480 C 0.5313 0.36472 0.58868 0.0
N481 N 0.55016 0.37711 0.5957 0.0
Co482 Co 0.56404 0.40614 0.59288 0.0
N483 N 0.53889 0.40632 0.59224 0.0
C484 C 0.52112 0.39092 0.58588 0.0
C485 C 0.50639 0.39551 0.58671 0.0
C486 C 0.51551 0.41505 0.59379 0.0
C487 C 0.53539 0.42132 0.59692 0.0
N488 N 0.57794 0.43518 0.58964 0.0
C489 C 0.57119 0.44784 0.59415 0.0
C490 C 0.58589 0.46706 0.58901 0.0
C491 C 0.60224 0.46625 0.5806 0.0
C492 C 0.59669 0.44666 0.58114 0.0
N493 N 0.58909 0.40576 0.59371 0.0
C494 C 0.60669 0.42023 0.58479 0.0
C495 C 0.62137 0.41568 0.58831 0.0
C496 C 0.61234 0.3972 0.6001 0.0
C497 C 0.59262 0.39151 0.60313 0.0
N498 N 0.56362 0.4043 0.55152 0.0
C499 C 0.56846 0.40642 0.4926 0.0
C500 C 0.57214 0.3936 0.50871 0.0
C501 C 0.56952 0.39268 0.53807 0.0
C502 C 0.56117 0.41722 0.50659 0.0
C503 C 0.55891 0.41599 0.53586 0.0
N504 N 0.56481 0.40837 0.634 0.0
C505 C 0.58284 0.42479 0.67589 0.0
C506 C 0.56642 0.41303 0.69269 0.0
C507 C 0.5492 0.39862 0.67955 0.0
C508 C 0.54865 0.39663 0.65011 0.0
C509 C 0.58177 0.42214 0.64674 0.0
H510 H 0.53515 0.38571 0.64034 0.0
H511 H 0.59474 0.43135 0.6345 0.0
H512 H 0.57299 0.3831 0.55001 0.0
H513 H 0.55397 0.42509 0.54587 0.0
C514 C 0.5185 0.37196 0.5835 0.0
C515 C 0.57734 0.37215 0.61324 0.0
C516 C 0.5507 0.44193 0.60124 0.0
C517 C 0.6093 0.43885 0.57837 0.0
H518 H 0.54332 0.33291 0.60954 0.0
H519 H 0.51132 0.33261 0.59047 0.0
H520 H 0.49081 0.38572 0.58335 0.0
H521 H 0.50838 0.42376 0.5959 0.0
H522 H 0.58488 0.48027 0.59094 0.0
H523 H 0.61662 0.47855 0.57565 0.0
H524 H 0.63691 0.425 0.58401 0.0
H525 H 0.61941 0.38886 0.60577 0.0
H526 H 0.57776 0.38491 0.49895 0.0
H527 H 0.55753 0.42689 0.49509 0.0
H528 H 0.59653 0.43587 0.68524 0.0
H529 H 0.53618 0.38924 0.69185 0.0
C530 C 0.19513 0.55433 0.94005 0.0
C531 C 0.20011 0.53965 0.94005 0.0
C532 C 0.1842 0.52308 0.92942 0.0
C533 C 0.17042 0.5285 0.92367 0.0
N534 N 0.17667 0.54741 0.93011 0.0
Co535 Co 0.16145 0.56114 0.92557 0.0
N536 N 0.13622 0.53591 0.92412 0.0
C537 C 0.13415 0.51818 0.91828 0.0
C538 C 0.11487 0.50338 0.91809 0.0
C539 C 0.10415 0.5124 0.92395 0.0
C540 C 0.11757 0.5323 0.92745 0.0
N541 N 0.14621 0.57487 0.92082 0.0
C542 C 0.12668 0.56803 0.92422 0.0
C543 C 0.12218 0.58267 0.91843 0.0
C544 C 0.13948 0.59906 0.91067 0.0
C545 C 0.15358 0.59361 0.91227 0.0
N546 N 0.1868 0.58627 0.92695 0.0
C547 C 0.18999 0.60376 0.91746 0.0
C548 C 0.2091 0.61852 0.92146 0.0
C549 C 0.21843 0.60967 0.93416 0.0
C550 C 0.20443 0.58996 0.93724 0.0
N551 N 0.16384 0.56054 0.88433 0.0
C552 C 0.16798 0.56468 0.82544 0.0
C553 C 0.18415 0.5689 0.84264 0.0
C554 C 0.18173 0.5665 0.87196 0.0
C555 C 0.14956 0.55754 0.83829 0.0
C556 C 0.14783 0.55566 0.86763 0.0
N557 N 0.15906 0.56214 0.96658 0.0
C558 C 0.16183 0.58107 1.00806 0.0
C559 C 0.15536 0.56445 0.02531 0.0
C560 C 0.151 0.54661 0.01229 0.0
C561 C 0.15309 0.54581 0.98297 0.0
C562 C 0.16332 0.57955 0.97897 0.0
H563 H 0.14975 0.53197 0.97352 0.0
H564 H 0.168 0.5926 0.9665 0.0
H565 H 0.19448 0.57007 0.88469 0.0
H566 H 0.13357 0.55089 0.8768 0.0
C567 C 0.15059 0.51564 0.91743 0.0
C568 C 0.2085 0.57485 0.94815 0.0
C569 C 0.11199 0.54749 0.93084 0.0
C570 C 0.17402 0.60625 0.91015 0.0
H571 H 0.21374 0.54074 0.94704 0.0
H572 H 0.18256 0.5086 0.92742 0.0
H573 H 0.10928 0.48782 0.91487 0.0
H574 H 0.08827 0.50518 0.92499 0.0
H575 H 0.1079 0.5816 0.91946 0.0
H576 H 0.14159 0.6134 0.90539 0.0
H577 H 0.21531 0.63401 0.91687 0.0
H578 H 0.23374 0.61684 0.94038 0.0
H579 H 0.19861 0.57417 0.83354 0.0
H580 H 0.13667 0.55418 0.82588 0.0
H581 H 0.16595 0.59535 0.01684 0.0
H582 H 0.14576 0.53326 0.02448 0.0
C583 C 0.64417 0.19413 0.27313 0.0
C584 C 0.66402 0.19996 0.27182 0.0
C585 C 0.66517 0.18429 0.26113 0.0
C586 C 0.64602 0.16985 0.2565 0.0
N587 N 0.633 0.17551 0.26365 0.0
Co588 Co 0.60404 0.15942 0.26054 0.0
N589 N 0.60505 0.13471 0.25963 0.0
C590 C 0.62097 0.13316 0.25337 0.0
C591 C 0.61718 0.1141 0.25403 0.0
C592 C 0.59763 0.10298 0.26087 0.0
C593 C 0.59054 0.11594 0.26401 0.0
N594 N 0.57506 0.14333 0.25698 0.0
C595 C 0.563 0.12378 0.26107 0.0
C596 C 0.54359 0.11849 0.25557 0.0
C597 C 0.54367 0.13532 0.24744 0.0
C598 C 0.56304 0.14995 0.24845 0.0
N599 N 0.60325 0.18424 0.26168 0.0
C600 C 0.58835 0.18668 0.25277 0.0
C601 C 0.59205 0.20559 0.25671 0.0
C602 C 0.61043 0.21558 0.26878 0.0
C603 C 0.61692 0.20216 0.27149 0.0
N604 N 0.60604 0.16109 0.21917 0.0
C605 C 0.60362 0.16393 0.16029 0.0
C606 C 0.61584 0.18058 0.17663 0.0
C607 C 0.61696 0.17881 0.20595 0.0
C608 C 0.59369 0.14569 0.17403 0.0
C609 C 0.59502 0.1446 0.20328 0.0
N610 N 0.60161 0.1577 0.30167 0.0
C611 C 0.58465 0.15853 0.34353 0.0
C612 C 0.59692 0.15466 0.36042 0.0
C613 C 0.61183 0.15258 0.3473 0.0
C614 C 0.61383 0.15399 0.31784 0.0
C615 C 0.58731 0.16013 0.31437 0.0
H616 H 0.62516 0.15201 0.30811 0.0
H617 H 0.57771 0.16331 0.3021 0.0
H618 H 0.62605 0.19194 0.21804 0.0
H619 H 0.58649 0.13042 0.21308 0.0
C620 C 0.63961 0.15 0.25113 0.0
C621 C 0.63641 0.20685 0.28198 0.0
C622 C 0.56966 0.10977 0.26798 0.0
C623 C 0.57009 0.17024 0.24601 0.0
H624 H 0.67635 0.214 0.27801 0.0
H625 H 0.67832 0.18325 0.25841 0.0
H626 H 0.62749 0.10893 0.25069 0.0
H627 H 0.58946 0.08713 0.2628 0.0
H628 H 0.53076 0.10397 0.25703 0.0
H629 H 0.53103 0.1368 0.24231 0.0
H630 H 0.58223 0.21125 0.25256 0.0
H631 H 0.61814 0.23091 0.27491 0.0
H632 H 0.62387 0.19502 0.16713 0.0
H633 H 0.58457 0.13228 0.16239 0.0
H634 H 0.57316 0.16057 0.35282 0.0
H635 H 0.62161 0.14954 0.35964 0.0
C636 C 0.40988 0.58491 0.23604 0.0
C637 C 0.40733 0.56715 0.22495 0.0
C638 C 0.41291 0.5889 0.26502 0.0
C639 C 0.40599 0.56514 0.33468 0.0
H640 H 0.44831 0.61603 0.35876 0.0
C641 C 0.4334 0.57923 0.44984 0.0
C642 C 0.43974 0.59782 0.46202 0.0
C643 C 0.42884 0.57594 0.42112 0.0
C644 C 0.43623 0.60185 0.35251 0.0
H645 H 0.40542 0.53943 0.2358 0.0
H646 H 0.41057 0.54632 0.28634 0.0
H647 H 0.44102 0.60937 0.30858 0.0
H648 H 0.44614 0.62754 0.45302 0.0
H649 H 0.43758 0.62162 0.40308 0.0
H650 H 0.40099 0.55759 0.37845 0.0
C651 C 0.41026 0.55719 0.27262 0.0
C652 C 0.43208 0.59802 0.32367 0.0
C653 C 0.40745 0.5533 0.24363 0.0
C654 C 0.44119 0.61299 0.44455 0.0
C655 C 0.4365 0.60965 0.41575 0.0
C656 C 0.41001 0.56901 0.3635 0.0
C657 C 0.41324 0.57513 0.28365 0.0
C658 C 0.41705 0.57954 0.31439 0.0
C659 C 0.43025 0.59105 0.40361 0.0
C660 C 0.42535 0.58734 0.37286 0.0
H661 H 0.41007 0.59598 0.22221 0.0
H662 H 0.415 0.60278 0.27285 0.0
H663 H 0.39411 0.55086 0.32829 0.0
H664 H 0.4317 0.56703 0.46256 0.0
H665 H 0.42439 0.5615 0.41262 0.0
C666 C 0.85703 0.4315 0.56728 0.0
C667 C 0.84797 0.41221 0.55672 0.0
C668 C 0.85762 0.43498 0.59627 0.0
C669 C 0.85066 0.41083 0.66644 0.0
H670 H 0.84721 0.456 0.6918 0.0
C671 C 0.86171 0.43358 0.7834 0.0
C672 C 0.85018 0.4409 0.79508 0.0
C673 C 0.86194 0.43086 0.7543 0.0
C674 C 0.84797 0.44319 0.6852 0.0
H675 H 0.83253 0.38141 0.56814 0.0
H676 H 0.83292 0.38737 0.61888 0.0
H677 H 0.84576 0.44891 0.64168 0.0
H678 H 0.83008 0.45142 0.78556 0.0
H679 H 0.82992 0.44614 0.73462 0.0
H680 H 0.85189 0.40454 0.70999 0.0
C681 C 0.84003 0.3999 0.60486 0.0
C682 C 0.84746 0.43927 0.65629 0.0
C683 C 0.83972 0.39643 0.57578 0.0
C684 C 0.83922 0.44591 0.77701 0.0
C685 C 0.83919 0.4429 0.74782 0.0
C686 C 0.85091 0.41459 0.69535 0.0
C687 C 0.84888 0.41926 0.61552 0.0
C688 C 0.84896 0.42313 0.64645 0.0
C689 C 0.85037 0.43507 0.73609 0.0
C690 C 0.84974 0.43093 0.70518 0.0
H691 H 0.86375 0.44394 0.55303 0.0
H692 H 0.86506 0.45008 0.60354 0.0
H693 H 0.85206 0.39838 0.65983 0.0
H694 H 0.87048 0.42981 0.79689 0.0
H695 H 0.87118 0.42536 0.74613 0.0
C696 C 0.43279 0.85585 0.90114 0.0
C697 C 0.44131 0.84541 0.88947 0.0
C698 C 0.42955 0.85552 0.93018 0.0
C699 C 0.44205 0.84209 0.99965 0.0
H700 H 0.39475 0.84225 0.02326 0.0
C701 C 0.41371 0.82881 0.11557 0.0
C702 C 0.40915 0.84276 0.12632 0.0
C703 C 0.4174 0.82835 0.08671 0.0
C704 C 0.40805 0.84228 0.017 0.0
H705 H 0.45355 0.82675 0.89901 0.0
H706 H 0.4474 0.82562 0.94987 0.0
H707 H 0.40212 0.84305 0.97321 0.0
H708 H 0.40434 0.8668 0.11523 0.0
H709 H 0.41037 0.86574 0.06475 0.0
H710 H 0.44759 0.84084 0.04374 0.0
C711 C 0.44355 0.83443 0.93668 0.0
C712 C 0.41239 0.84288 0.98826 0.0
C713 C 0.44706 0.83502 0.90754 0.0
C714 C 0.40786 0.85592 0.10754 0.0
C715 C 0.41123 0.85525 0.07866 0.0
C716 C 0.43754 0.84123 0.02844 0.0
C717 C 0.43444 0.84444 0.94835 0.0
C718 C 0.42959 0.84307 0.97912 0.0
C719 C 0.41627 0.84162 0.06797 0.0
C720 C 0.42061 0.84154 0.03742 0.0
H721 H 0.42845 0.86419 0.88769 0.0
H722 H 0.42309 0.86392 0.93831 0.0
H723 H 0.45552 0.84244 0.99357 0.0
H724 H 0.41499 0.81862 0.12961 0.0
H725 H 0.42112 0.81761 0.07904 0.0
C726 C 0.60492 0.45298 0.24342 0.0
C727 C 0.6037 0.43865 0.22442 0.0
C728 C 0.60222 0.44906 0.2724 0.0
C729 C 0.5782 0.40857 0.3232 0.0
H730 H 0.61298 0.44721 0.3776 0.0
C731 C 0.56967 0.39355 0.44403 0.0
C732 C 0.57298 0.40933 0.46173 0.0
C733 C 0.57408 0.39657 0.41512 0.0
C734 C 0.60295 0.43633 0.36276 0.0
H735 H 0.59863 0.40894 0.22091 0.0
H736 H 0.59373 0.40202 0.27159 0.0
H737 H 0.61946 0.45369 0.32728 0.0
H738 H 0.584 0.44079 0.46268 0.0
H739 H 0.59093 0.44586 0.41255 0.0
H740 H 0.56134 0.39141 0.35856 0.0
C741 C 0.59686 0.41632 0.26404 0.0
C742 C 0.60674 0.44004 0.33388 0.0
C743 C 0.59985 0.42034 0.23507 0.0
C744 C 0.5809 0.42818 0.44973 0.0
C745 C 0.5852 0.43117 0.42092 0.0
C746 C 0.57428 0.40492 0.35211 0.0
C747 C 0.59796 0.43062 0.28303 0.0
C748 C 0.59434 0.42627 0.31375 0.0
C749 C 0.58191 0.41544 0.40315 0.0
C750 C 0.58651 0.41883 0.37232 0.0
H751 H 0.60792 0.46723 0.23584 0.0
H752 H 0.60303 0.46034 0.28646 0.0
H753 H 0.56825 0.39775 0.3082 0.0
H754 H 0.56348 0.37881 0.45243 0.0
H755 H 0.57151 0.38411 0.40222 0.0
C756 C 0.18199 0.61519 0.57542 0.0
C757 C 0.16881 0.59977 0.55778 0.0
C758 C 0.18356 0.61188 0.60416 0.0
C759 C 0.17104 0.57127 0.65597 0.0
H760 H 0.17851 0.61079 0.71138 0.0
C761 C 0.1566 0.55464 0.77542 0.0
C762 C 0.17027 0.56844 0.79445 0.0
C763 C 0.158 0.5587 0.74647 0.0
C764 C 0.17663 0.59969 0.69614 0.0
H765 H 0.14732 0.56856 0.55689 0.0
H766 H 0.14938 0.56307 0.6067 0.0
H767 H 0.17785 0.61759 0.66125 0.0
H768 H 0.19617 0.59733 0.79794 0.0
H769 H 0.19854 0.6045 0.74733 0.0
H770 H 0.16923 0.55318 0.69102 0.0
C771 C 0.15881 0.57769 0.5984 0.0
C772 C 0.17631 0.60359 0.66733 0.0
C773 C 0.15736 0.58096 0.56973 0.0
C774 C 0.18552 0.58632 0.7838 0.0
C775 C 0.18677 0.5905 0.75486 0.0
C776 C 0.17115 0.5673 0.68475 0.0
C777 C 0.17197 0.59306 0.61609 0.0
C778 C 0.17332 0.58936 0.6468 0.0
C779 C 0.17296 0.57678 0.73587 0.0
C780 C 0.17379 0.58139 0.7052 0.0
H781 H 0.19097 0.62991 0.56713 0.0
H782 H 0.19403 0.62406 0.61696 0.0
H783 H 0.16919 0.56009 0.64091 0.0
H784 H 0.14474 0.5407 0.78295 0.0
H785 H 0.14705 0.54787 0.73244 0.0
C786 C 0.6157 0.17903 0.11192 0.0
C787 C 0.60042 0.16551 0.12947 0.0
C788 C 0.61238 0.18043 0.08313 0.0
C789 C 0.57177 0.16682 0.03105 0.0
H790 H 0.61185 0.17536 0.97594 0.0
C791 C 0.55568 0.15305 0.91143 0.0
C792 C 0.56954 0.16681 0.89253 0.0
C793 C 0.55964 0.1543 0.9404 0.0
C794 C 0.60058 0.17318 0.99109 0.0
H795 H 0.56947 0.14317 0.13017 0.0
H796 H 0.56398 0.145 0.08024 0.0
H797 H 0.61855 0.17479 0.02612 0.0
H798 H 0.59847 0.19272 0.88934 0.0
H799 H 0.60542 0.19489 0.93997 0.0
H800 H 0.55364 0.16472 0.9959 0.0
C801 C 0.57849 0.15481 0.08867 0.0
C802 C 0.60444 0.1729 0.01993 0.0
C803 C 0.58175 0.15351 0.11738 0.0
C804 C 0.5874 0.182 0.90336 0.0
C805 C 0.59146 0.18312 0.93232 0.0
C806 C 0.56787 0.16693 1.00225 0.0
C807 C 0.59371 0.16832 0.07108 0.0
C808 C 0.59001 0.16954 0.04034 0.0
C809 C 0.57767 0.16923 0.95118 0.0
C810 C 0.58217 0.16997 0.98189 0.0
H811 H 0.6303 0.18844 0.12033 0.0
H812 H 0.62444 0.19116 0.07039 0.0
H813 H 0.56043 0.16466 0.04605 0.0
H814 H 0.54175 0.14123 0.90379 0.0
H815 H 0.54876 0.14327 0.9543 0.0
C816 C 0.35064 0.58711 0.07661 0.0
C817 C 0.3618 0.58179 0.05938 0.0
C818 C 0.33561 0.5896 0.065 0.0
C819 C 0.31587 0.59702 0.99779 0.0
H820 H 0.26578 0.57076 0.03695 0.0
C821 C 0.24295 0.58086 0.94423 0.0
C822 C 0.22791 0.58036 0.96088 0.0
C823 C 0.26035 0.58364 0.95667 0.0
C824 C 0.2797 0.57853 0.02591 0.0
H825 H 0.36633 0.57508 0.01672 0.0
H826 H 0.34027 0.57975 0.99617 0.0
H827 H 0.29435 0.57125 0.05778 0.0
H828 H 0.21937 0.58319 1.00322 0.0
H829 H 0.25001 0.5887 0.02512 0.0
H830 H 0.30126 0.60432 0.9659 0.0
C831 C 0.34318 0.58219 0.01859 0.0
C832 C 0.29613 0.57876 0.03789 0.0
C833 C 0.35809 0.57952 0.03027 0.0
C834 C 0.23082 0.58351 0.99003 0.0
C835 C 0.24829 0.58644 1.00252 0.0
C836 C 0.29947 0.59694 0.9859 0.0
C837 C 0.33148 0.58688 0.03589 0.0
C838 C 0.31438 0.58781 0.02385 0.0
C839 C 0.26317 0.58616 0.98609 0.0
C840 C 0.28106 0.58748 0.99962 0.0
H841 H 0.35309 0.58863 0.09919 0.0
H842 H 0.327 0.59337 0.07888 0.0
H843 H 0.32976 0.60434 0.98657 0.0
H844 H 0.24092 0.57836 0.92167 0.0
H845 H 0.27123 0.58306 0.94327 0.0
C846 C 0.76841 0.34425 0.41129 0.0
C847 C 0.78296 0.35923 0.3946 0.0
C848 C 0.75103 0.32945 0.39904 0.0
C849 C 0.73115 0.3058 0.32934 0.0
H850 H 0.6818 0.27919 0.37035 0.0
C851 C 0.66044 0.24303 0.27874 0.0
C852 C 0.64997 0.22611 0.29536 0.0
C853 C 0.67531 0.2605 0.29071 0.0
C854 C 0.6955 0.28643 0.35866 0.0
H855 H 0.79042 0.37126 0.35246 0.0
H856 H 0.75979 0.34589 0.33102 0.0
H857 H 0.71 0.30784 0.39122 0.0
H858 H 0.64658 0.21401 0.33728 0.0
H859 H 0.67237 0.24461 0.35847 0.0
H860 H 0.7166 0.28439 0.29678 0.0
C861 C 0.76196 0.34508 0.35344 0.0
C862 C 0.71174 0.30285 0.37066 0.0
C863 C 0.77942 0.35977 0.3657 0.0
C864 C 0.65427 0.22702 0.32423 0.0
C865 C 0.66902 0.24453 0.33629 0.0
C866 C 0.71488 0.28951 0.31726 0.0
C867 C 0.74768 0.32942 0.3698 0.0
C868 C 0.7299 0.31268 0.35632 0.0
C869 C 0.67999 0.2614 0.31957 0.0
C870 C 0.6969 0.27948 0.33187 0.0
H871 H 0.77085 0.34358 0.43366 0.0
H872 H 0.74061 0.31764 0.41239 0.0
H873 H 0.7449 0.31261 0.31778 0.0
H874 H 0.65754 0.24253 0.25632 0.0
H875 H 0.68335 0.27324 0.27728 0.0
C876 C 0.42381 0.77481 0.70146 0.0
C877 C 0.42686 0.77851 0.73053 0.0
C878 C 0.4213 0.7572 0.69006 0.0
C879 C 0.43405 0.7188 0.70499 0.0
H880 H 0.39827 0.69075 0.64359 0.0
C881 C 0.42935 0.64853 0.65866 0.0
C882 C 0.42781 0.64638 0.62926 0.0
C883 C 0.42658 0.6629 0.67204 0.0
C884 C 0.40849 0.69848 0.66056 0.0
H885 H 0.42889 0.76662 0.77069 0.0
H886 H 0.4244 0.73577 0.75094 0.0
H887 H 0.3982 0.71907 0.66487 0.0
H888 H 0.42205 0.65721 0.59063 0.0
H889 H 0.41748 0.68256 0.61372 0.0
H890 H 0.44478 0.69872 0.70032 0.0
C891 C 0.42418 0.74649 0.73682 0.0
C892 C 0.4084 0.71473 0.67281 0.0
C893 C 0.42657 0.76404 0.74819 0.0
C894 C 0.42298 0.65846 0.61342 0.0
C895 C 0.42035 0.67294 0.62673 0.0
C896 C 0.43422 0.70267 0.69266 0.0
C897 C 0.42189 0.74299 0.70752 0.0
C898 C 0.42124 0.72515 0.69513 0.0
C899 C 0.42248 0.67564 0.65622 0.0
C900 C 0.42152 0.69229 0.67016 0.0
H901 H 0.42408 0.78585 0.68747 0.0
H902 H 0.41973 0.7551 0.66741 0.0
H903 H 0.4444 0.72667 0.72177 0.0
H904 H 0.43324 0.63944 0.67121 0.0
H905 H 0.42799 0.66422 0.69478 0.0
C906 C 0.65974 0.41882 0.07337 0.0
C907 C 0.64915 0.42529 0.05708 0.0
C908 C 0.67454 0.41623 0.06103 0.0
C909 C 0.69429 0.41065 0.99243 0.0
H910 H 0.74385 0.43325 0.03269 0.0
C911 C 0.76694 0.42574 0.93852 0.0
C912 C 0.78137 0.42482 0.95483 0.0
C913 C 0.74965 0.42322 0.9511 0.0
C914 C 0.73005 0.4265 0.02129 0.0
H915 H 0.64549 0.43407 0.01535 0.0
H916 H 0.67116 0.4293 0.99352 0.0
H917 H 0.71573 0.43329 0.05434 0.0
H918 H 0.78875 0.4195 0.99658 0.0
H919 H 0.75829 0.41443 0.01859 0.0
H920 H 0.70859 0.40386 0.95934 0.0
C921 C 0.66795 0.42599 0.01573 0.0
C922 C 0.71388 0.42658 0.03375 0.0
C923 C 0.65327 0.42873 0.02816 0.0
C924 C 0.77782 0.42035 0.98364 0.0
C925 C 0.76046 0.41768 0.99623 0.0
C926 C 0.71043 0.41043 0.98003 0.0
C927 C 0.67903 0.42004 0.03211 0.0
C928 C 0.69585 0.41884 0.01939 0.0
C929 C 0.7463 0.41951 0.98027 0.0
C930 C 0.72864 0.41854 0.99414 0.0
H931 H 0.65699 0.4164 0.09583 0.0
H932 H 0.68267 0.4115 0.07422 0.0
H933 H 0.68055 0.40435 0.98091 0.0
H934 H 0.76942 0.42918 0.91623 0.0
H935 H 0.7393 0.42496 0.93807 0.0
C936 C 0.23222 0.65059 0.36412 0.0
C937 C 0.22888 0.6514 0.39303 0.0
C938 C 0.24969 0.66508 0.35157 0.0
C939 C 0.30033 0.70668 0.36815 0.0
H940 H 0.29579 0.72534 0.29437 0.0
C941 C 0.35878 0.78198 0.32164 0.0
C942 C 0.36293 0.78289 0.2927 0.0
C943 C 0.34385 0.76458 0.3337 0.0
C944 C 0.29741 0.72015 0.31481 0.0
H945 H 0.24122 0.66734 0.43183 0.0
H946 H 0.27152 0.69288 0.41007 0.0
H947 H 0.26719 0.69749 0.31559 0.0
H948 H 0.35491 0.76656 0.25353 0.0
H949 H 0.32881 0.73603 0.27451 0.0
H950 H 0.33047 0.72986 0.36759 0.0
C951 C 0.26094 0.68103 0.39692 0.0
C952 C 0.28097 0.70408 0.32702 0.0
C953 C 0.24355 0.66647 0.40944 0.0
C954 C 0.35215 0.76605 0.27602 0.0
C955 C 0.3371 0.74869 0.28799 0.0
C956 C 0.31674 0.72286 0.35601 0.0
C957 C 0.26418 0.68075 0.36768 0.0
C958 C 0.2821 0.69718 0.35399 0.0
C959 C 0.33256 0.74781 0.31692 0.0
C960 C 0.31546 0.7299 0.32927 0.0
H961 H 0.2211 0.63901 0.35113 0.0
H962 H 0.25175 0.66407 0.32914 0.0
H963 H 0.30196 0.70164 0.38868 0.0
H964 H 0.36669 0.79494 0.33475 0.0
H965 H 0.34062 0.76452 0.35594 0.0
C966 C 0.58602 0.24132 0.74159 0.0
C967 C 0.58296 0.22516 0.72516 0.0
C968 C 0.58841 0.25845 0.72874 0.0
C969 C 0.57713 0.27523 0.66146 0.0
H970 H 0.60906 0.32704 0.69415 0.0
C971 C 0.58489 0.34484 0.60775 0.0
C972 C 0.58255 0.35789 0.62541 0.0
C973 C 0.58727 0.32973 0.61927 0.0
C974 C 0.6 0.31266 0.68483 0.0
H975 H 0.58055 0.2142 0.68266 0.0
H976 H 0.58542 0.24432 0.65994 0.0
H977 H 0.60947 0.29882 0.71501 0.0
H978 H 0.5813 0.36588 0.6687 0.0
H979 H 0.58572 0.3396 0.68907 0.0
H980 H 0.56768 0.28908 0.63131 0.0
C981 C 0.58556 0.24377 0.68277 0.0
C982 C 0.60019 0.29642 0.69683 0.0
C983 C 0.58302 0.22659 0.69568 0.0
C984 C 0.58328 0.35605 0.65475 0.0
C985 C 0.58582 0.34103 0.66633 0.0
C986 C 0.57707 0.29146 0.64936 0.0
C987 C 0.58786 0.25982 0.69911 0.0
C988 C 0.58862 0.27741 0.68547 0.0
C989 C 0.58747 0.32744 0.64873 0.0
C990 C 0.58837 0.31038 0.66099 0.0
H991 H 0.58574 0.24037 0.76442 0.0
H992 H 0.58985 0.27029 0.74213 0.0
H993 H 0.56769 0.26085 0.65237 0.0
H994 H 0.58425 0.34597 0.58502 0.0
H995 H 0.58873 0.31969 0.6051 0.0
C996 C 0.46298 0.53515 0.05911 0.0
C997 C 0.45721 0.5392 0.08514 0.0
C998 C 0.47512 0.52678 0.05815 0.0
C999 C 0.48896 0.49627 0.10075 0.0
H1000 H 0.5332 0.51455 0.04942 0.0
C1001 C 0.54546 0.46982 0.10986 0.0
C1002 C 0.55397 0.46755 0.08512 0.0
C1003 C 0.53317 0.47797 0.10882 0.0
C1004 C 0.52071 0.50901 0.06359 0.0
H1005 H 0.45944 0.53786 0.13047 0.0
H1006 H 0.48067 0.52326 0.12894 0.0
H1007 H 0.51316 0.53038 0.04944 0.0
H1008 H 0.55654 0.472 0.03997 0.0
H1009 H 0.53455 0.48575 0.03781 0.0
H1010 H 0.4962 0.47476 0.11471 0.0
C1011 C 0.47587 0.52648 0.10925 0.0
C1012 C 0.50927 0.51817 0.06366 0.0
C1013 C 0.4639 0.535 0.11017 0.0
C1014 C 0.54991 0.47344 0.05925 0.0
C1015 C 0.53751 0.4815 0.05814 0.0
C1016 C 0.50026 0.48701 0.10053 0.0
C1017 C 0.48146 0.52205 0.08324 0.0
C1018 C 0.49338 0.51204 0.08245 0.0
C1019 C 0.52907 0.48404 0.08297 0.0
C1020 C 0.51645 0.49336 0.08216 0.0
H1021 H 0.45774 0.53808 0.03959 0.0
H1022 H 0.47903 0.52341 0.03779 0.0
H1023 H 0.47658 0.49092 0.11512 0.0
H1024 H 0.54874 0.46572 0.1301 0.0
H1025 H 0.52734 0.48001 0.12847 0.0
C1026 C 0.93503 0.46042 0.45282 0.0
C1027 C 0.92337 0.45703 0.42874 0.0
C1028 C 0.95549 0.47237 0.45127 0.0
C1029 C 0.99605 0.51045 0.40777 0.0
H1030 H 0.02746 0.49225 0.44661 0.0
C1031 C 0.08077 0.54946 0.39447 0.0
C1032 C 0.09175 0.55195 0.41901 0.0
C1033 C 0.06027 0.53725 0.39464 0.0
C1034 C 0.01895 0.49767 0.43585 0.0
H1035 H 0.92363 0.46373 0.38446 0.0
H1036 H 0.95949 0.48475 0.38159 0.0
H1037 H 0.9917 0.47312 0.44944 0.0
H1038 H 0.09012 0.54402 0.46304 0.0
H1039 H 0.0544 0.52266 0.46349 0.0
H1040 H 0.02333 0.53509 0.39433 0.0
C1041 C 0.95289 0.4783 0.40174 0.0
C1042 C 0.9984 0.4867 0.43751 0.0
C1043 C 0.9324 0.46628 0.40331 0.0
C1044 C 0.08197 0.5419 0.44366 0.0
C1045 C 0.06151 0.5297 0.44387 0.0
C1046 C 0.01663 0.52146 0.40615 0.0
C1047 C 0.96474 0.48123 0.4256 0.0
C1048 C 0.98666 0.49297 0.42362 0.0
C1049 C 0.05032 0.52739 0.41946 0.0
C1050 C 0.02837 0.51527 0.42028 0.0
H1051 H 0.9283 0.4534 0.47265 0.0
H1052 H 0.9641 0.47457 0.47018 0.0
H1053 H 0.9875 0.51584 0.39704 0.0
H1054 H 0.08802 0.55735 0.37537 0.0
H1055 H 0.0522 0.53568 0.37538 0.0
C1056 C 0.53389 0.0771 0.72959 0.0
C1057 C 0.54131 0.08778 0.75468 0.0
C1058 C 0.52537 0.05657 0.7295 0.0
C1059 C 0.50118 0.01365 0.77738 0.0
H1060 H 0.51024 0.9859 0.71673 0.0
C1061 C 0.47555 0.93062 0.78388 0.0
C1062 C 0.46879 0.9194 0.75912 0.0
C1063 C 0.48368 0.95106 0.78299 0.0
C1064 C 0.50731 0.99338 0.73365 0.0
H1065 H 0.54556 0.08565 0.79934 0.0
H1066 H 0.53097 0.04985 0.79928 0.0
H1067 H 0.52645 0.02174 0.71565 0.0
H1068 H 0.46482 0.9204 0.71415 0.0
H1069 H 0.47874 0.95616 0.71245 0.0
H1070 H 0.48202 0.98536 0.79537 0.0
C1071 C 0.53164 0.0572 0.77963 0.0
C1072 C 0.51667 0.01396 0.73306 0.0
C1073 C 0.54022 0.07769 0.77965 0.0
C1074 C 0.4699 0.92883 0.7335 0.0
C1075 C 0.47804 0.94929 0.73256 0.0
C1076 C 0.4918 0.99309 0.77795 0.0
C1077 C 0.52388 0.04632 0.75462 0.0
C1078 C 0.51382 0.02438 0.755 0.0
C1079 C 0.48525 0.96073 0.75726 0.0
C1080 C 0.49479 0.98265 0.75617 0.0
H1081 H 0.53428 0.0846 0.71021 0.0
H1082 H 0.51936 0.04868 0.70994 0.0
H1083 H 0.49832 0.02113 0.79436 0.0
H1084 H 0.47497 0.92358 0.80381 0.0
H1085 H 0.48928 0.95933 0.80237 0.0
C1086 C 0.47925 0.5486 0.57726 0.0
C1087 C 0.47335 0.55403 0.60205 0.0
C1088 C 0.48789 0.53677 0.57854 0.0
C1089 C 0.49358 0.50146 0.62328 0.0
H1090 H 0.53979 0.51666 0.57696 0.0
C1091 C 0.53757 0.46015 0.62905 0.0
C1092 C 0.54451 0.45698 0.6034 0.0
C1093 C 0.52978 0.47278 0.63032 0.0
C1094 C 0.52678 0.51203 0.58981 0.0
H1095 H 0.47139 0.55122 0.64746 0.0
H1096 H 0.48635 0.53021 0.64986 0.0
H1097 H 0.52373 0.53637 0.57616 0.0
H1098 H 0.54848 0.46403 0.55892 0.0
H1099 H 0.53475 0.4859 0.56085 0.0
H1100 H 0.49638 0.47689 0.63653 0.0
C1101 C 0.48428 0.53506 0.62941 0.0
C1102 C 0.51757 0.52338 0.58937 0.0
C1103 C 0.47575 0.54706 0.62811 0.0
C1104 C 0.54361 0.46664 0.57905 0.0
C1105 C 0.53575 0.47918 0.58024 0.0
C1106 C 0.50272 0.49 0.62358 0.0
C1107 C 0.49073 0.53003 0.60465 0.0
C1108 C 0.50077 0.51816 0.6059 0.0
C1109 C 0.52857 0.48233 0.60585 0.0
C1110 C 0.51936 0.49504 0.60667 0.0
H1111 H 0.47754 0.55391 0.55695 0.0
H1112 H 0.49241 0.53295 0.55905 0.0
H1113 H 0.48058 0.49694 0.6361 0.0
H1114 H 0.53792 0.4526 0.64798 0.0
H1115 H 0.52462 0.47498 0.65046 0.0
C1116 C 0.08068 0.54085 0.90727 0.0
C1117 C 0.09063 0.54104 0.93196 0.0
C1118 C 0.06016 0.53213 0.90715 0.0
C1119 C 0.01631 0.51434 0.95357 0.0
H1120 H 0.98878 0.48213 0.88873 0.0
C1121 C 0.9313 0.46623 0.95125 0.0
C1122 C 0.922 0.4661 0.92594 0.0
C1123 C 0.95179 0.47457 0.95229 0.0
C1124 C 0.9962 0.49122 0.90689 0.0
H1125 H 0.08715 0.53227 0.97576 0.0
H1126 H 0.0512 0.51706 0.97577 0.0
H1127 H 0.02459 0.49919 0.89017 0.0
H1128 H 0.92647 0.47409 0.8818 0.0
H1129 H 0.96226 0.48876 0.88343 0.0
H1130 H 0.9879 0.50645 0.97022 0.0
C1131 C 0.05922 0.52393 0.95659 0.0
C1132 C 0.01679 0.50104 0.9077 0.0
C1133 C 0.07977 0.53263 0.95666 0.0
C1134 C 0.93339 0.47392 0.90149 0.0
C1135 C 0.95386 0.48226 0.90249 0.0
C1136 C 0.9957 0.50454 0.95274 0.0
C1137 C 0.04911 0.52327 0.93169 0.0
C1138 C 0.02714 0.51281 0.93099 0.0
C1139 C 0.9634 0.48296 0.928 0.0
C1140 C 0.98535 0.49289 0.92933 0.0
H1141 H 0.08875 0.54692 0.88782 0.0
H1142 H 0.05293 0.53212 0.88769 0.0
H1143 H 0.02378 0.52342 0.97171 0.0
H1144 H 0.92274 0.46032 0.97037 0.0
H1145 H 0.95856 0.47454 0.97219 0.0
C1146 C 0.46572 0.9313 0.2414 0.0
C1147 C 0.45852 0.92021 0.26621 0.0
C1148 C 0.47773 0.95174 0.24273 0.0
C1149 C 0.51031 0.99297 0.28939 0.0
H1150 H 0.49807 0.02376 0.238 0.0
C1151 C 0.55072 0.07825 0.29505 0.0
C1152 C 0.55519 0.08836 0.2693 0.0
C1153 C 0.53836 0.05778 0.2958 0.0
C1154 C 0.5019 0.01545 0.25228 0.0
H1155 H 0.45817 0.92146 0.31176 0.0
H1156 H 0.47953 0.95735 0.31427 0.0
H1157 H 0.47848 0.98803 0.23695 0.0
H1158 H 0.55076 0.08533 0.22416 0.0
H1159 H 0.52946 0.04965 0.22516 0.0
H1160 H 0.53398 0.02036 0.30438 0.0
C1161 C 0.476 0.95026 0.29379 0.0
C1162 C 0.49061 0.99491 0.25169 0.0
C1163 C 0.46381 0.92978 0.29242 0.0
C1164 C 0.54716 0.07779 0.2443 0.0
C1165 C 0.53493 0.05736 0.24497 0.0
C1166 C 0.52174 0.01355 0.28983 0.0
C1167 C 0.48283 0.96152 0.26892 0.0
C1168 C 0.49474 0.9834 0.27009 0.0
C1169 C 0.53039 0.04701 0.27072 0.0
C1170 C 0.51777 0.02509 0.27114 0.0
H1171 H 0.46161 0.92416 0.22097 0.0
H1172 H 0.48292 0.95993 0.22321 0.0
H1173 H 0.51396 0.98452 0.3037 0.0
H1174 H 0.55697 0.08617 0.31453 0.0
H1175 H 0.53505 0.05041 0.31604 0.0
C1176 C 0.45161 0.60828 0.74241 0.0
C1177 C 0.4465 0.59236 0.7241 0.0
C1178 C 0.44876 0.60524 0.77159 0.0
C1179 C 0.42036 0.56556 0.82399 0.0
H1180 H 0.45578 0.60445 0.87763 0.0
C1181 C 0.41577 0.5523 0.94522 0.0
C1182 C 0.41776 0.56784 0.96237 0.0
C1183 C 0.41916 0.55493 0.91607 0.0
C1184 C 0.44568 0.59351 0.86288 0.0
H1185 H 0.43533 0.56097 0.72203 0.0
H1186 H 0.43093 0.55572 0.7728 0.0
H1187 H 0.46277 0.60989 0.82724 0.0
H1188 H 0.424 0.59809 0.96183 0.0
H1189 H 0.43025 0.60271 0.91131 0.0
H1190 H 0.40346 0.54909 0.85983 0.0
C1191 C 0.4365 0.57047 0.76474 0.0
C1192 C 0.44965 0.59665 0.83396 0.0
C1193 C 0.43914 0.57348 0.73562 0.0
C1194 C 0.4228 0.58592 0.94949 0.0
C1195 C 0.42636 0.58859 0.92048 0.0
C1196 C 0.41652 0.56235 0.85294 0.0
C1197 C 0.44095 0.58624 0.78313 0.0
C1198 C 0.437 0.58276 0.81407 0.0
C1199 C 0.42475 0.5732 0.90346 0.0
C1200 C 0.42906 0.57634 0.8727 0.0
H1201 H 0.45713 0.62296 0.73408 0.0
H1202 H 0.45215 0.61773 0.78496 0.0
H1203 H 0.41005 0.55469 0.80939 0.0
H1204 H 0.41211 0.53824 0.95438 0.0
H1205 H 0.4179 0.54282 0.90351 0.0
C1206 C 0.85282 0.40121 0.27551 0.0
C1207 C 0.86538 0.41628 0.29392 0.0
C1208 C 0.85334 0.40481 0.24651 0.0
C1209 C 0.86814 0.44639 0.19699 0.0
H1210 H 0.85658 0.40645 0.14027 0.0
C1211 C 0.87046 0.4595 0.07548 0.0
C1212 C 0.8549 0.44452 0.06003 0.0
C1213 C 0.87244 0.45706 0.10437 0.0
C1214 C 0.85972 0.41771 0.15593 0.0
H1215 H 0.8892 0.44643 0.29654 0.0
H1216 H 0.89061 0.45256 0.24591 0.0
H1217 H 0.86007 0.39968 0.18948 0.0
H1218 H 0.82841 0.41598 0.0631 0.0
H1219 H 0.83197 0.41172 0.11322 0.0
H1220 H 0.86791 0.46443 0.1632 0.0
C1221 C 0.8799 0.43817 0.25378 0.0
C1222 C 0.86169 0.41383 0.18413 0.0
C1223 C 0.87924 0.43462 0.28273 0.0
C1224 C 0.8408 0.4276 0.07431 0.0
C1225 C 0.84285 0.42512 0.10298 0.0
C1226 C 0.86635 0.45033 0.16872 0.0
C1227 C 0.86656 0.4235 0.23539 0.0
C1228 C 0.8657 0.42803 0.20509 0.0
C1229 C 0.85895 0.43957 0.11815 0.0
C1230 C 0.86185 0.43592 0.14798 0.0
H1231 H 0.84188 0.38702 0.2837 0.0
H1232 H 0.84272 0.39321 0.23305 0.0
H1233 H 0.8709 0.45757 0.21259 0.0
H1234 H 0.88158 0.47265 0.06501 0.0
H1235 H 0.88498 0.46846 0.11562 0.0
C1236 C 0.46318 0.86486 0.60791 0.0
C1237 C 0.44714 0.85133 0.6243 0.0
C1238 C 0.46117 0.86592 0.57866 0.0
C1239 C 0.42331 0.856 0.52582 0.0
H1240 H 0.46071 0.85756 0.4709 0.0
C1241 C 0.4062 0.8466 0.40652 0.0
C1242 C 0.42177 0.85681 0.38747 0.0
C1243 C 0.40989 0.84703 0.43547 0.0
C1244 C 0.45027 0.85748 0.48594 0.0
H1245 H 0.41693 0.82734 0.62251 0.0
H1246 H 0.4134 0.82945 0.57184 0.0
H1247 H 0.46672 0.85612 0.52116 0.0
H1248 H 0.45326 0.87621 0.38376 0.0
H1249 H 0.45968 0.87748 0.43427 0.0
H1250 H 0.40695 0.85764 0.49093 0.0
C1251 C 0.42737 0.83948 0.58161 0.0
C1252 C 0.45372 0.85659 0.51473 0.0
C1253 C 0.42942 0.83829 0.61064 0.0
C1254 C 0.44101 0.86799 0.39799 0.0
C1255 C 0.44468 0.86861 0.42692 0.0
C1256 C 0.41996 0.85712 0.49711 0.0
C1257 C 0.44306 0.85356 0.56539 0.0
C1258 C 0.44013 0.85557 0.53491 0.0
C1259 C 0.42922 0.85789 0.44604 0.0
C1260 C 0.43327 0.85764 0.47673 0.0
H1261 H 0.477 0.87514 0.61781 0.0
H1262 H 0.47351 0.87691 0.56659 0.0
H1263 H 0.41274 0.85556 0.54098 0.0
H1264 H 0.39126 0.8377 0.39893 0.0
H1265 H 0.39762 0.83836 0.44945 0.0
C1266 C 0.56155 0.40002 0.74222 0.0
C1267 C 0.56756 0.41597 0.72373 0.0
C1268 C 0.56418 0.40313 0.77139 0.0
C1269 C 0.59319 0.44258 0.82383 0.0
H1270 H 0.55623 0.40452 0.87702 0.0
C1271 C 0.59652 0.45567 0.94513 0.0
C1272 C 0.59411 0.43993 0.96215 0.0
C1273 C 0.59342 0.45323 0.91593 0.0
C1274 C 0.56673 0.41522 0.86239 0.0
H1275 H 0.58018 0.44756 0.72122 0.0
H1276 H 0.58418 0.45298 0.772 0.0
H1277 H 0.54969 0.39924 0.82653 0.0
H1278 H 0.58748 0.40955 0.96134 0.0
H1279 H 0.58165 0.40526 0.91073 0.0
H1280 H 0.61001 0.4587 0.85993 0.0
C1281 C 0.57806 0.43811 0.76412 0.0
C1282 C 0.56304 0.41217 0.83342 0.0
C1283 C 0.57565 0.43501 0.735 0.0
C1284 C 0.58897 0.42187 0.9491 0.0
C1285 C 0.58567 0.41939 0.92005 0.0
C1286 C 0.59675 0.44574 0.85283 0.0
C1287 C 0.57266 0.42226 0.78273 0.0
C1288 C 0.57628 0.42574 0.8137 0.0
C1289 C 0.58769 0.43497 0.90317 0.0
C1290 C 0.58364 0.43201 0.8724 0.0
H1291 H 0.55544 0.38521 0.73406 0.0
H1292 H 0.56008 0.39056 0.78493 0.0
H1293 H 0.60394 0.45319 0.80938 0.0
H1294 H 0.60028 0.46973 0.95443 0.0
H1295 H 0.595 0.46549 0.90343 0.0
C1296 C 0.14828 0.57955 0.06759 0.0
C1297 C 0.15337 0.56602 0.05652 0.0
C1298 C 0.1477 0.5821 0.09671 0.0
C1299 C 0.16445 0.57148 0.16507 0.0
H1300 H 0.12989 0.58864 0.19677 0.0
C1301 C 0.14986 0.57266 0.28473 0.0
C1302 C 0.15479 0.59129 0.29569 0.0
C1303 C 0.14905 0.56943 0.25563 0.0
C1304 C 0.13966 0.58393 0.18811 0.0
H1305 H 0.16119 0.54405 0.06811 0.0
H1306 H 0.15886 0.54749 0.11868 0.0
H1307 H 0.12875 0.58201 0.14627 0.0
H1308 H 0.16209 0.62093 0.28395 0.0
H1309 H 0.15965 0.61485 0.23304 0.0
H1310 H 0.17461 0.57261 0.20743 0.0
C1311 C 0.1561 0.5568 0.10481 0.0
C1312 C 0.13915 0.58023 0.15911 0.0
C1313 C 0.15709 0.55453 0.07561 0.0
C1314 C 0.15805 0.60635 0.27652 0.0
C1315 C 0.15679 0.60294 0.24733 0.0
C1316 C 0.16461 0.57474 0.19413 0.0
C1317 C 0.1517 0.57085 0.11585 0.0
C1318 C 0.15166 0.57409 0.14705 0.0
C1319 C 0.1526 0.58455 0.23668 0.0
C1320 C 0.15233 0.58112 0.20587 0.0
H1321 H 0.14479 0.58836 0.05379 0.0
H1322 H 0.14449 0.59326 0.10406 0.0
H1323 H 0.17466 0.56723 0.15678 0.0
H1324 H 0.1466 0.56045 0.29859 0.0
H1325 H 0.14551 0.55504 0.2479 0.0
C1326 C 0.58731 0.16857 0.61714 0.0
C1327 C 0.56921 0.15554 0.63005 0.0
C1328 C 0.58996 0.16781 0.58809 0.0
C1329 C 0.56376 0.15208 0.5206 0.0
H1330 H 0.61105 0.1529 0.49449 0.0
C1331 C 0.57502 0.14162 0.40285 0.0
C1332 C 0.59401 0.15294 0.3915 0.0
C1333 C 0.57191 0.14101 0.43198 0.0
C1334 C 0.59789 0.15292 0.50132 0.0
H1335 H 0.53955 0.13173 0.62204 0.0
H1336 H 0.54408 0.13076 0.57108 0.0
H1337 H 0.60557 0.1541 0.54495 0.0
H1338 H 0.62468 0.17232 0.40177 0.0
H1339 H 0.61928 0.1717 0.45264 0.0
H1340 H 0.55624 0.15142 0.4771 0.0
C1341 C 0.55623 0.1415 0.58368 0.0
C1342 C 0.59472 0.15354 0.53029 0.0
C1343 C 0.55362 0.14212 0.61287 0.0
C1344 C 0.60991 0.16332 0.40996 0.0
C1345 C 0.60677 0.16291 0.43914 0.0
C1346 C 0.56701 0.15167 0.49161 0.0
C1347 C 0.57452 0.15417 0.57105 0.0
C1348 C 0.57764 0.15316 0.54025 0.0
C1349 C 0.58768 0.1519 0.45055 0.0
C1350 C 0.58413 0.15209 0.48153 0.0
H1351 H 0.59952 0.17947 0.62949 0.0
H1352 H 0.60409 0.17803 0.57891 0.0
H1353 H 0.55057 0.152 0.52762 0.0
H1354 H 0.56252 0.13324 0.38913 0.0
H1355 H 0.55708 0.13198 0.4399 0.0
loop_
_geom_bond_atom_site_label_1
_geom_bond_atom_site_label_2
_geom_bond_distance
_geom_bond_site_symmetry_2
_ccdc_geom_bond_type
C0 C1 1.443 . S
C0 N4 1.376 . S
C0 C38 1.389 . S
C1 C0 1.443 . S
C1 C2 1.340 . S
C1 H41 0.951 . S
C2 C1 1.340 . S
C2 C3 1.439 . S
C2 H42 0.950 . S
C3 C2 1.439 . S
C3 N4 1.374 . S
C3 C37 1.395 . S
N4 C0 1.376 . S
N4 C3 1.374 . S
N4 Co5 2.008 . S
Co5 N4 2.008 . S
Co5 N6 1.995 . S
Co5 N11 2.008 . S
Co5 N16 1.995 . S
Co5 N21 2.282 . S
Co5 N27 2.282 . S
N6 Co5 1.995 . S
N6 C7 1.376 . S
N6 C10 1.383 . S
C7 N6 1.376 . S
C7 C8 1.446 . S
C7 C37 1.391 . S
C8 C7 1.446 . S
C8 C9 1.339 . S
C8 H43 0.949 . S
C9 C8 1.339 . S
C9 C10 1.439 . S
C9 H44 0.950 . S
C10 N6 1.383 . S
C10 C9 1.439 . S
C10 C39 1.392 . S
N11 Co5 2.008 . S
N11 C12 1.376 . S
N11 C15 1.374 . S
C12 N11 1.376 . S
C12 C13 1.443 . S
C12 C39 1.389 . S
C13 C12 1.443 . S
C13 C14 1.340 . S
C13 H45 0.951 . S
C14 C13 1.340 . S
C14 C15 1.439 . S
C14 H46 0.950 . S
C15 N11 1.374 . S
C15 C14 1.439 . S
C15 C40 1.395 . S
N16 Co5 1.995 . S
N16 C17 1.376 . S
N16 C20 1.383 . S
C17 N16 1.376 . S
C17 C18 1.446 . S
C17 C40 1.391 . S
C18 C17 1.446 . S
C18 C19 1.339 . S
C18 H47 0.949 . S
C19 C18 1.339 . S
C19 C20 1.439 . S
C19 H48 0.950 . S
C20 N16 1.383 . S
C20 C19 1.439 . S
C20 C38 1.392 . S
N21 Co5 2.282 . S
N21 C24 1.332 . S
N21 C26 1.332 . S
C22 C23 1.386 . S
C22 C25 1.388 . S
C23 C22 1.386 . S
C23 C24 1.382 . S
C23 H49 0.950 . S
C24 N21 1.332 . S
C24 C23 1.382 . S
C24 H35 0.952 . S
C25 C22 1.388 . S
C25 C26 1.382 . S
C25 H50 0.950 . S
C26 N21 1.332 . S
C26 C25 1.382 . S
C26 H36 0.948 . S
N27 Co5 2.282 . S
N27 C31 1.332 . S
N27 C32 1.332 . S
C28 C29 1.388 . S
C28 C32 1.382 1_556 S
C28 H51 0.950 . S
C29 C28 1.388 . S
C29 C30 1.386 . S
C30 C29 1.386 . S
C30 C31 1.382 1_556 S
C30 H52 0.950 . S
C31 N27 1.332 . S
C31 C30 1.382 1_554 S
C31 H33 0.952 . S
C32 N27 1.332 . S
C32 C28 1.382 1_554 S
C32 H34 0.948 . S
H33 C31 0.952 . S
H34 C32 0.948 . S
H35 C24 0.952 . S
H36 C26 0.948 . S
C37 C3 1.395 . S
C37 C7 1.391 . S
C38 C0 1.389 . S
C38 C20 1.392 . S
C39 C10 1.392 . S
C39 C12 1.389 . S
C40 C15 1.395 . S
C40 C17 1.391 . S
H41 C1 0.951 . S
H42 C2 0.950 . S
H43 C8 0.949 . S
H44 C9 0.950 . S
H45 C13 0.951 . S
H46 C14 0.950 . S
H47 C18 0.949 . S
H48 C19 0.950 . S
H49 C23 0.950 . S
H50 C25 0.950 . S
H51 C28 0.950 . S
H52 C30 0.950 . S
C53 C54 1.443 . S
C53 N57 1.376 . S
C53 C91 1.389 . S
C54 C53 1.443 . S
C54 C55 1.340 . S
C54 H94 0.951 . S
C55 C54 1.340 . S
C55 C56 1.439 . S
C55 H95 0.950 . S
C56 C55 1.439 . S
C56 N57 1.374 . S
C56 C90 1.395 . S
N57 C53 1.376 . S
N57 C56 1.374 . S
N57 Co58 2.008 . S
Co58 N57 2.008 . S
Co58 N59 1.995 . S
Co58 N64 2.008 . S
Co58 N69 1.995 . S
Co58 N74 2.282 . S
Co58 N80 2.282 . S
N59 Co58 1.995 . S
N59 C60 1.376 . S
N59 C63 1.383 . S
C60 N59 1.376 . S
C60 C61 1.446 . S
C60 C90 1.391 . S
C61 C60 1.446 . S
C61 C62 1.339 . S
C61 H96 0.949 . S
C62 C61 1.339 . S
C62 C63 1.439 . S
C62 H97 0.950 . S
C63 N59 1.383 . S
C63 C62 1.439 . S
C63 C92 1.392 . S
N64 Co58 2.008 . S
N64 C65 1.376 . S
N64 C68 1.374 . S
C65 N64 1.376 . S
C65 C66 1.443 . S
C65 C92 1.389 . S
C66 C65 1.443 . S
C66 C67 1.340 . S
C66 H98 0.951 . S
C67 C66 1.340 . S
C67 C68 1.439 . S
C67 H99 0.950 . S
C68 N64 1.374 . S
C68 C67 1.439 . S
C68 C93 1.395 . S
N69 Co58 1.995 . S
N69 C70 1.376 . S
N69 C73 1.383 . S
C70 N69 1.376 . S
C70 C71 1.446 . S
C70 C93 1.391 . S
C71 C70 1.446 . S
C71 C72 1.339 . S
C71 H100 0.949 . S
C72 C71 1.339 . S
C72 C73 1.439 . S
C72 H101 0.950 . S
C73 N69 1.383 . S
C73 C72 1.439 . S
C73 C91 1.392 . S
N74 Co58 2.282 . S
N74 C77 1.332 . S
N74 C79 1.332 . S
C75 C76 1.386 . S
C75 C78 1.388 . S
C76 C75 1.386 . S
C76 C77 1.382 . S
C76 H102 0.950 . S
C77 N74 1.332 . S
C77 C76 1.382 . S
C77 H88 0.952 . S
C78 C75 1.388 . S
C78 C79 1.382 . S
C78 H103 0.950 . S
C79 N74 1.332 . S
C79 C78 1.382 . S
C79 H89 0.948 . S
N80 Co58 2.282 . S
N80 C84 1.332 . S
N80 C85 1.332 . S
C81 C82 1.388 . S
C81 C85 1.382 . S
C81 H104 0.950 . S
C82 C81 1.388 . S
C82 C83 1.386 . S
C83 C82 1.386 . S
C83 C84 1.382 . S
C83 H105 0.950 . S
C84 N80 1.332 . S
C84 C83 1.382 . S
C84 H86 0.952 . S
C85 N80 1.332 . S
C85 C81 1.382 . S
C85 H87 0.948 . S
H86 C84 0.952 . S
H87 C85 0.948 . S
H88 C77 0.952 . S
H89 C79 0.948 . S
C90 C56 1.395 . S
C90 C60 1.391 . S
C91 C53 1.389 . S
C91 C73 1.392 . S
C92 C63 1.392 . S
C92 C65 1.389 . S
C93 C68 1.395 . S
C93 C70 1.391 . S
H94 C54 0.951 . S
H95 C55 0.950 . S
H96 C61 0.949 . S
H97 C62 0.950 . S
H98 C66 0.951 . S
H99 C67 0.950 . S
H100 C71 0.949 . S
H101 C72 0.950 . S
H102 C76 0.950 . S
H103 C78 0.950 . S
H104 C81 0.950 . S
H105 C83 0.950 . S
C106 C107 1.443 . S
C106 N110 1.376 . S
C106 C144 1.389 . S
C107 C106 1.443 . S
C107 C108 1.340 . S
C107 H147 0.951 . S
C108 C107 1.340 . S
C108 C109 1.439 . S
C108 H148 0.950 . S
C109 C108 1.439 . S
C109 N110 1.374 . S
C109 C143 1.395 . S
N110 C106 1.376 . S
N110 C109 1.374 . S
N110 Co111 2.008 . S
Co111 N110 2.008 . S
Co111 N112 1.995 . S
Co111 N117 2.008 . S
Co111 N122 1.995 . S
Co111 N127 2.282 . S
Co111 N133 2.282 . S
N112 Co111 1.995 . S
N112 C113 1.376 . S
N112 C116 1.383 . S
C113 N112 1.376 . S
C113 C114 1.446 . S
C113 C143 1.391 . S
C114 C113 1.446 . S
C114 C115 1.339 . S
C114 H149 0.949 . S
C115 C114 1.339 . S
C115 C116 1.439 . S
C115 H150 0.950 . S
C116 N112 1.383 . S
C116 C115 1.439 . S
C116 C145 1.392 . S
N117 Co111 2.008 . S
N117 C118 1.376 . S
N117 C121 1.374 . S
C118 N117 1.376 . S
C118 C119 1.443 . S
C118 C145 1.389 . S
C119 C118 1.443 . S
C119 C120 1.340 . S
C119 H151 0.951 . S
C120 C119 1.340 . S
C120 C121 1.439 . S
C120 H152 0.950 . S
C121 N117 1.374 . S
C121 C120 1.439 . S
C121 C146 1.395 . S
N122 Co111 1.995 . S
N122 C123 1.376 . S
N122 C126 1.383 . S
C123 N122 1.376 . S
C123 C124 1.446 . S
C123 C146 1.391 . S
C124 C123 1.446 . S
C124 C125 1.339 . S
C124 H153 0.949 . S
C125 C124 1.339 . S
C125 C126 1.439 . S
C125 H154 0.950 . S
C126 N122 1.383 . S
C126 C125 1.439 . S
C126 C144 1.392 . S
N127 Co111 2.282 . S
N127 C130 1.332 . S
N127 C132 1.332 . S
C128 C129 1.386 . S
C128 C131 1.388 . S
C129 C128 1.386 . S
C129 C130 1.382 . S
C129 H155 0.950 . S
C130 N127 1.332 . S
C130 C129 1.382 . S
C130 H141 0.952 . S
C131 C128 1.388 . S
C131 C132 1.382 . S
C131 H156 0.950 . S
C132 N127 1.332 . S
C132 C131 1.382 . S
C132 H142 0.948 . S
N133 Co111 2.282 . S
N133 C137 1.332 . S
N133 C138 1.332 . S
C134 C135 1.388 . S
C134 C138 1.382 . S
C134 H157 0.950 . S
C135 C134 1.388 . S
C135 C136 1.386 . S
C136 C135 1.386 . S
C136 C137 1.382 . S
C136 H158 0.950 . S
C137 N133 1.332 . S
C137 C136 1.382 . S
C137 H139 0.952 . S
C138 N133 1.332 . S
C138 C134 1.382 . S
C138 H140 0.948 . S
H139 C137 0.952 . S
H140 C138 0.948 . S
H141 C130 0.952 . S
H142 C132 0.948 . S
C143 C109 1.395 . S
C143 C113 1.391 . S
C144 C106 1.389 . S
C144 C126 1.392 . S
C145 C116 1.392 . S
C145 C118 1.389 . S
C146 C121 1.395 . S
C146 C123 1.391 . S
H147 C107 0.951 . S
H148 C108 0.950 . S
H149 C114 0.949 . S
H150 C115 0.950 . S
H151 C119 0.951 . S
H152 C120 0.950 . S
H153 C124 0.949 . S
H154 C125 0.950 . S
H155 C129 0.950 . S
H156 C131 0.950 . S
H157 C134 0.950 . S
H158 C136 0.950 . S
C159 C160 1.443 . S
C159 N163 1.376 . S
C159 C197 1.389 . S
C160 C159 1.443 . S
C160 C161 1.340 . S
C160 H200 0.951 . S
C161 C160 1.340 . S
C161 C162 1.439 . S
C161 H201 0.950 . S
C162 C161 1.439 . S
C162 N163 1.374 . S
C162 C196 1.395 . S
N163 C159 1.376 . S
N163 C162 1.374 . S
N163 Co164 2.008 . S
Co164 N163 2.008 . S
Co164 N165 1.995 . S
Co164 N170 2.008 . S
Co164 N175 1.995 . S
Co164 N180 2.282 . S
Co164 N186 2.282 . S
N165 Co164 1.995 . S
N165 C166 1.376 . S
N165 C169 1.383 . S
C166 N165 1.376 . S
C166 C167 1.446 . S
C166 C196 1.391 . S
C167 C166 1.446 . S
C167 C168 1.339 . S
C167 H202 0.949 . S
C168 C167 1.339 . S
C168 C169 1.439 . S
C168 H203 0.950 . S
C169 N165 1.383 . S
C169 C168 1.439 . S
C169 C198 1.392 . S
N170 Co164 2.008 . S
N170 C171 1.376 . S
N170 C174 1.374 . S
C171 N170 1.376 . S
C171 C172 1.443 . S
C171 C198 1.389 . S
C172 C171 1.443 . S
C172 C173 1.340 . S
C172 H204 0.951 . S
C173 C172 1.340 . S
C173 C174 1.439 . S
C173 H205 0.950 . S
C174 N170 1.374 . S
C174 C173 1.439 . S
C174 C199 1.395 . S
N175 Co164 1.995 . S
N175 C176 1.376 . S
N175 C179 1.383 . S
C176 N175 1.376 . S
C176 C177 1.446 . S
C176 C199 1.391 . S
C177 C176 1.446 . S
C177 C178 1.339 . S
C177 H206 0.949 . S
C178 C177 1.339 . S
C178 C179 1.439 . S
C178 H207 0.950 . S
C179 N175 1.383 . S
C179 C178 1.439 . S
C179 C197 1.392 . S
N180 Co164 2.282 . S
N180 C183 1.332 . S
N180 C185 1.332 . S
C181 C182 1.386 . S
C181 C184 1.388 . S
C182 C181 1.386 . S
C182 C183 1.382 . S
C182 H208 0.950 . S
C183 N180 1.332 . S
C183 C182 1.382 . S
C183 H194 0.952 . S
C184 C181 1.388 . S
C184 C185 1.382 . S
C184 H209 0.950 . S
C185 N180 1.332 . S
C185 C184 1.382 . S
C185 H195 0.948 . S
N186 Co164 2.282 . S
N186 C190 1.332 . S
N186 C191 1.332 . S
C187 C188 1.388 . S
C187 C191 1.382 1_556 S
C187 H210 0.950 . S
C188 C187 1.388 . S
C188 C189 1.386 . S
C189 C188 1.386 . S
C189 C190 1.382 1_556 S
C189 H211 0.950 . S
C190 N186 1.332 . S
C190 C189 1.382 1_554 S
C190 H192 0.952 . S
C191 N186 1.332 . S
C191 C187 1.382 1_554 S
C191 H193 0.948 . S
H192 C190 0.952 . S
H193 C191 0.948 . S
H194 C183 0.952 . S
H195 C185 0.948 . S
C196 C162 1.395 . S
C196 C166 1.391 . S
C197 C159 1.389 . S
C197 C179 1.392 . S
C198 C169 1.392 . S
C198 C171 1.389 . S
C199 C174 1.395 . S
C199 C176 1.391 . S
H200 C160 0.951 . S
H201 C161 0.950 . S
H202 C167 0.949 . S
H203 C168 0.950 . S
H204 C172 0.951 . S
H205 C173 0.950 . S
H206 C177 0.949 . S
H207 C178 0.950 . S
H208 C182 0.950 . S
H209 C184 0.950 . S
H210 C187 0.950 . S
H211 C189 0.950 . S
C212 C213 1.443 . S
C212 N216 1.376 . S
C212 C250 1.389 . S
C213 C212 1.443 . S
C213 C214 1.340 . S
C213 H253 0.951 . S
C214 C213 1.340 . S
C214 C215 1.439 . S
C214 H254 0.950 . S
C215 C214 1.439 . S
C215 N216 1.374 . S
C215 C249 1.395 . S
N216 C212 1.376 . S
N216 C215 1.374 . S
N216 Co217 2.008 . S
Co217 N216 2.008 . S
Co217 N218 1.995 . S
Co217 N223 2.008 . S
Co217 N228 1.995 . S
Co217 N233 2.282 . S
Co217 N239 2.282 . S
N218 Co217 1.995 . S
N218 C219 1.376 . S
N218 C222 1.383 . S
C219 N218 1.376 . S
C219 C220 1.446 . S
C219 C249 1.391 . S
C220 C219 1.446 . S
C220 C221 1.339 . S
C220 H255 0.949 . S
C221 C220 1.339 . S
C221 C222 1.439 . S
C221 H256 0.950 . S
C222 N218 1.383 . S
C222 C221 1.439 . S
C222 C251 1.392 . S
N223 Co217 2.008 . S
N223 C224 1.376 . S
N223 C227 1.374 . S
C224 N223 1.376 . S
C224 C225 1.443 . S
C224 C251 1.389 . S
C225 C224 1.443 . S
C225 C226 1.340 . S
C225 H257 0.951 . S
C226 C225 1.340 . S
C226 C227 1.439 . S
C226 H258 0.950 . S
C227 N223 1.374 . S
C227 C226 1.439 . S
C227 C252 1.395 . S
N228 Co217 1.995 . S
N228 C229 1.376 . S
N228 C232 1.383 . S
C229 N228 1.376 . S
C229 C230 1.446 . S
C229 C252 1.391 . S
C230 C229 1.446 . S
C230 C231 1.339 . S
C230 H259 0.949 . S
C231 C230 1.339 . S
C231 C232 1.439 . S
C231 H260 0.950 . S
C232 N228 1.383 . S
C232 C231 1.439 . S
C232 C250 1.392 . S
N233 Co217 2.282 . S
N233 C236 1.332 . S
N233 C238 1.332 . S
C234 C235 1.386 . S
C234 C237 1.388 . S
C235 C234 1.386 . S
C235 C236 1.382 . S
C235 H261 0.950 . S
C236 N233 1.332 . S
C236 C235 1.382 . S
C236 H247 0.952 . S
C237 C234 1.388 . S
C237 C238 1.382 . S
C237 H262 0.950 . S
C238 N233 1.332 . S
C238 C237 1.382 . S
C238 H248 0.948 . S
N239 Co217 2.282 . S
N239 C243 1.332 . S
N239 C244 1.332 . S
C240 C241 1.388 . S
C240 C244 1.382 . S
C240 H263 0.950 . S
C241 C240 1.388 . S
C241 C242 1.386 . S
C242 C241 1.386 . S
C242 C243 1.382 . S
C242 H264 0.950 . S
C243 N239 1.332 . S
C243 C242 1.382 . S
C243 H245 0.952 . S
C244 N239 1.332 . S
C244 C240 1.382 . S
C244 H246 0.948 . S
H245 C243 0.952 . S
H246 C244 0.948 . S
H247 C236 0.952 . S
H248 C238 0.948 . S
C249 C215 1.395 . S
C249 C219 1.391 . S
C250 C212 1.389 . S
C250 C232 1.392 . S
C251 C222 1.392 . S
C251 C224 1.389 . S
C252 C227 1.395 . S
C252 C229 1.391 . S
H253 C213 0.951 . S
H254 C214 0.950 . S
H255 C220 0.949 . S
H256 C221 0.950 . S
H257 C225 0.951 . S
H258 C226 0.950 . S
H259 C230 0.949 . S
H260 C231 0.950 . S
H261 C235 0.950 . S
H262 C237 0.950 . S
H263 C240 0.950 . S
H264 C242 0.950 . S
C265 C266 1.443 . S
C265 N269 1.376 . S
C265 C303 1.389 . S
C266 C265 1.443 . S
C266 C267 1.340 . S
C266 H306 0.951 . S
C267 C266 1.340 . S
C267 C268 1.439 . S
C267 H307 0.950 . S
C268 C267 1.439 . S
C268 N269 1.374 . S
C268 C302 1.395 . S
N269 C265 1.376 . S
N269 C268 1.374 . S
N269 Co270 2.008 . S
Co270 N269 2.008 . S
Co270 N271 1.995 . S
Co270 N276 2.008 . S
Co270 N281 1.995 . S
Co270 N286 2.282 . S
Co270 N292 2.282 . S
N271 Co270 1.995 . S
N271 C272 1.376 . S
N271 C275 1.383 . S
C272 N271 1.376 . S
C272 C273 1.446 . S
C272 C302 1.391 . S
C273 C272 1.446 . S
C273 C274 1.339 . S
C273 H308 0.949 . S
C274 C273 1.339 . S
C274 C275 1.439 . S
C274 H309 0.950 . S
C275 N271 1.383 . S
C275 C274 1.439 . S
C275 C304 1.392 . S
N276 Co270 2.008 . S
N276 C277 1.376 . S
N276 C280 1.374 . S
C277 N276 1.376 . S
C277 C278 1.443 . S
C277 C304 1.389 . S
C278 C277 1.443 . S
C278 C279 1.340 . S
C278 H310 0.951 . S
C279 C278 1.340 . S
C279 C280 1.439 . S
C279 H311 0.950 . S
C280 N276 1.374 . S
C280 C279 1.439 . S
C280 C305 1.395 . S
N281 Co270 1.995 . S
N281 C282 1.376 . S
N281 C285 1.383 . S
C282 N281 1.376 . S
C282 C283 1.446 . S
C282 C305 1.391 . S
C283 C282 1.446 . S
C283 C284 1.339 . S
C283 H312 0.949 . S
C284 C283 1.339 . S
C284 C285 1.439 . S
C284 H313 0.950 . S
C285 N281 1.383 . S
C285 C284 1.439 . S
C285 C303 1.392 . S
N286 Co270 2.282 . S
N286 C289 1.332 . S
N286 C291 1.332 . S
C287 C288 1.386 . S
C287 C290 1.388 . S
C288 C287 1.386 . S
C288 C289 1.382 . S
C288 H314 0.950 . S
C289 N286 1.332 . S
C289 C288 1.382 . S
C289 H300 0.952 . S
C290 C287 1.388 . S
C290 C291 1.382 . S
C290 H315 0.950 . S
C291 N286 1.332 . S
C291 C290 1.382 . S
C291 H301 0.948 . S
N292 Co270 2.282 . S
N292 C296 1.332 . S
N292 C297 1.332 . S
C293 C294 1.388 . S
C293 C297 1.382 . S
C293 H316 0.950 . S
C294 C293 1.388 . S
C294 C295 1.386 . S
C295 C294 1.386 . S
C295 C296 1.382 . S
C295 H317 0.950 . S
C296 N292 1.332 . S
C296 C295 1.382 . S
C296 H298 0.952 . S
C297 N292 1.332 . S
C297 C293 1.382 . S
C297 H299 0.948 . S
H298 C296 0.952 . S
H299 C297 0.948 . S
H300 C289 0.952 . S
H301 C291 0.948 . S
C302 C268 1.395 . S
C302 C272 1.391 . S
C303 C265 1.389 . S
C303 C285 1.392 . S
C304 C275 1.392 . S
C304 C277 1.389 . S
C305 C280 1.395 . S
C305 C282 1.391 . S
H306 C266 0.951 . S
H307 C267 0.950 . S
H308 C273 0.949 . S
H309 C274 0.950 . S
H310 C278 0.951 . S
H311 C279 0.950 . S
H312 C283 0.949 . S
H313 C284 0.950 . S
H314 C288 0.950 . S
H315 C290 0.950 . S
H316 C293 0.950 . S
H317 C295 0.950 . S
C318 C319 1.443 . S
C318 N322 1.376 . S
C318 C356 1.389 . S
C319 C318 1.443 . S
C319 C320 1.340 . S
C319 H359 0.951 . S
C320 C319 1.340 . S
C320 C321 1.439 . S
C320 H360 0.950 . S
C321 C320 1.439 . S
C321 N322 1.374 . S
C321 C355 1.395 . S
N322 C318 1.376 . S
N322 C321 1.374 . S
N322 Co323 2.008 . S
Co323 N322 2.008 . S
Co323 N324 1.995 . S
Co323 N329 2.008 . S
Co323 N334 1.995 . S
Co323 N339 2.282 . S
Co323 N345 2.282 . S
N324 Co323 1.995 . S
N324 C325 1.376 . S
N324 C328 1.383 . S
C325 N324 1.376 . S
C325 C326 1.446 . S
C325 C355 1.391 . S
C326 C325 1.446 . S
C326 C327 1.339 . S
C326 H361 0.949 . S
C327 C326 1.339 . S
C327 C328 1.439 . S
C327 H362 0.950 . S
C328 N324 1.383 . S
C328 C327 1.439 . S
C328 C357 1.392 . S
N329 Co323 2.008 . S
N329 C330 1.376 . S
N329 C333 1.374 . S
C330 N329 1.376 . S
C330 C331 1.443 . S
C330 C357 1.389 . S
C331 C330 1.443 . S
C331 C332 1.340 . S
C331 H363 0.951 . S
C332 C331 1.340 . S
C332 C333 1.439 . S
C332 H364 0.950 . S
C333 N329 1.374 . S
C333 C332 1.439 . S
C333 C358 1.395 . S
N334 Co323 1.995 . S
N334 C335 1.376 . S
N334 C338 1.383 . S
C335 N334 1.376 . S
C335 C336 1.446 . S
C335 C358 1.391 . S
C336 C335 1.446 . S
C336 C337 1.339 . S
C336 H365 0.949 . S
C337 C336 1.339 . S
C337 C338 1.439 . S
C337 H366 0.950 . S
C338 N334 1.383 . S
C338 C337 1.439 . S
C338 C356 1.392 . S
N339 Co323 2.282 . S
N339 C342 1.332 . S
N339 C344 1.332 . S
C340 C341 1.386 . S
C340 C343 1.388 . S
C341 C340 1.386 . S
C341 C342 1.382 . S
C341 H367 0.950 . S
C342 N339 1.332 . S
C342 C341 1.382 . S
C342 H353 0.952 . S
C343 C340 1.388 . S
C343 C344 1.382 . S
C343 H368 0.950 . S
C344 N339 1.332 . S
C344 C343 1.382 . S
C344 H354 0.948 . S
N345 Co323 2.282 . S
N345 C349 1.332 . S
N345 C350 1.332 . S
C346 C347 1.388 . S
C346 C350 1.382 . S
C346 H369 0.950 . S
C347 C346 1.388 . S
C347 C348 1.386 . S
C348 C347 1.386 . S
C348 C349 1.382 . S
C348 H370 0.950 . S
C349 N345 1.332 . S
C349 C348 1.382 . S
C349 H351 0.952 . S
C350 N345 1.332 . S
C350 C346 1.382 . S
C350 H352 0.948 . S
H351 C349 0.952 . S
H352 C350 0.948 . S
H353 C342 0.952 . S
H354 C344 0.948 . S
C355 C321 1.395 . S
C355 C325 1.391 . S
C356 C318 1.389 . S
C356 C338 1.392 . S
C357 C328 1.392 . S
C357 C330 1.389 . S
C358 C333 1.395 . S
C358 C335 1.391 . S
H359 C319 0.951 . S
H360 C320 0.950 . S
H361 C326 0.949 . S
H362 C327 0.950 . S
H363 C331 0.951 . S
H364 C332 0.950 . S
H365 C336 0.949 . S
H366 C337 0.950 . S
H367 C341 0.950 . S
H368 C343 0.950 . S
H369 C346 0.950 . S
H370 C348 0.950 . S
C371 C372 1.443 . S
C371 N375 1.376 . S
C371 C409 1.389 . S
C372 C371 1.443 . S
C372 C373 1.340 . S
C372 H412 0.951 . S
C373 C372 1.340 . S
C373 C374 1.439 . S
C373 H413 0.950 . S
C374 C373 1.439 . S
C374 N375 1.374 . S
C374 C408 1.395 . S
N375 C371 1.376 . S
N375 C374 1.374 . S
N375 Co376 2.008 . S
Co376 N375 2.008 . S
Co376 N377 1.995 . S
Co376 N382 2.008 . S
Co376 N387 1.995 . S
Co376 N392 2.282 . S
Co376 N398 2.282 . S
N377 Co376 1.995 . S
N377 C378 1.376 . S
N377 C381 1.383 . S
C378 N377 1.376 . S
C378 C379 1.446 . S
C378 C408 1.391 . S
C379 C378 1.446 . S
C379 C380 1.339 . S
C379 H414 0.949 . S
C380 C379 1.339 . S
C380 C381 1.439 . S
C380 H415 0.950 . S
C381 N377 1.383 . S
C381 C380 1.439 . S
C381 C410 1.392 . S
N382 Co376 2.008 . S
N382 C383 1.376 . S
N382 C386 1.374 . S
C383 N382 1.376 . S
C383 C384 1.443 . S
C383 C410 1.389 . S
C384 C383 1.443 . S
C384 C385 1.340 . S
C384 H416 0.951 . S
C385 C384 1.340 . S
C385 C386 1.439 . S
C385 H417 0.950 . S
C386 N382 1.374 . S
C386 C385 1.439 . S
C386 C411 1.395 . S
N387 Co376 1.995 . S
N387 C388 1.376 . S
N387 C391 1.383 . S
C388 N387 1.376 . S
C388 C389 1.446 . S
C388 C411 1.391 . S
C389 C388 1.446 . S
C389 C390 1.339 . S
C389 H418 0.949 . S
C390 C389 1.339 . S
C390 C391 1.439 . S
C390 H419 0.950 . S
C391 N387 1.383 . S
C391 C390 1.439 . S
C391 C409 1.392 . S
N392 Co376 2.282 . S
N392 C395 1.332 . S
N392 C397 1.332 . S
C393 C394 1.386 . S
C393 C396 1.388 . S
C394 C393 1.386 . S
C394 C395 1.382 . S
C394 H420 0.950 . S
C395 N392 1.332 . S
C395 C394 1.382 . S
C395 H406 0.952 . S
C396 C393 1.388 . S
C396 C397 1.382 . S
C396 H421 0.950 . S
C397 N392 1.332 . S
C397 C396 1.382 . S
C397 H407 0.948 . S
N398 Co376 2.282 . S
N398 C402 1.332 . S
N398 C403 1.332 . S
C399 C400 1.388 . S
C399 C403 1.382 1_554 S
C399 H422 0.950 . S
C400 C399 1.388 . S
C400 C401 1.386 . S
C401 C400 1.386 . S
C401 C402 1.382 1_554 S
C401 H423 0.950 . S
C402 N398 1.332 . S
C402 C401 1.382 1_556 S
C402 H404 0.952 . S
C403 N398 1.332 . S
C403 C399 1.382 1_556 S
C403 H405 0.948 . S
H404 C402 0.952 . S
H405 C403 0.948 . S
H406 C395 0.952 . S
H407 C397 0.948 . S
C408 C374 1.395 . S
C408 C378 1.391 . S
C409 C371 1.389 . S
C409 C391 1.392 . S
C410 C381 1.392 . S
C410 C383 1.389 . S
C411 C386 1.395 . S
C411 C388 1.391 . S
H412 C372 0.951 . S
H413 C373 0.950 . S
H414 C379 0.949 . S
H415 C380 0.950 . S
H416 C384 0.951 . S
H417 C385 0.950 . S
H418 C389 0.949 . S
H419 C390 0.950 . S
H420 C394 0.950 . S
H421 C396 0.950 . S
H422 C399 0.950 . S
H423 C401 0.950 . S
C424 C425 1.443 . S
C424 N428 1.376 . S
C424 C462 1.389 . S
C425 C424 1.443 . S
C425 C426 1.340 . S
C425 H465 0.951 . S
C426 C425 1.340 . S
C426 C427 1.439 . S
C426 H466 0.950 . S
C427 C426 1.439 . S
C427 N428 1.374 . S
C427 C461 1.395 . S
N428 C424 1.376 . S
N428 C427 1.374 . S
N428 Co429 2.008 . S
Co429 N428 2.008 . S
Co429 N430 1.995 . S
Co429 N435 2.008 . S
Co429 N440 1.995 . S
Co429 N445 2.282 . S
Co429 N451 2.282 . S
N430 Co429 1.995 . S
N430 C431 1.376 . S
N430 C434 1.383 . S
C431 N430 1.376 . S
C431 C432 1.446 . S
C431 C461 1.391 . S
C432 C431 1.446 . S
C432 C433 1.339 . S
C432 H467 0.949 . S
C433 C432 1.339 . S
C433 C434 1.439 . S
C433 H468 0.950 . S
C434 N430 1.383 . S
C434 C433 1.439 . S
C434 C463 1.392 . S
N435 Co429 2.008 . S
N435 C436 1.376 . S
N435 C439 1.374 . S
C436 N435 1.376 . S
C436 C437 1.443 . S
C436 C463 1.389 . S
C437 C436 1.443 . S
C437 C438 1.340 . S
C437 H469 0.951 . S
C438 C437 1.340 . S
C438 C439 1.439 . S
C438 H470 0.950 . S
C439 N435 1.374 . S
C439 C438 1.439 . S
C439 C464 1.395 . S
N440 Co429 1.995 . S
N440 C441 1.376 . S
N440 C444 1.383 . S
C441 N440 1.376 . S
C441 C442 1.446 . S
C441 C464 1.391 . S
C442 C441 1.446 . S
C442 C443 1.339 . S
C442 H471 0.949 . S
C443 C442 1.339 . S
C443 C444 1.439 . S
C443 H472 0.950 . S
C444 N440 1.383 . S
C444 C443 1.439 . S
C444 C462 1.392 . S
N445 Co429 2.282 . S
N445 C448 1.332 . S
N445 C450 1.332 . S
C446 C447 1.386 . S
C446 C449 1.388 . S
C447 C446 1.386 . S
C447 C448 1.382 . S
C447 H473 0.950 . S
C448 N445 1.332 . S
C448 C447 1.382 . S
C448 H459 0.952 . S
C449 C446 1.388 . S
C449 C450 1.382 . S
C449 H474 0.950 . S
C450 N445 1.332 . S
C450 C449 1.382 . S
C450 H460 0.948 . S
N451 Co429 2.282 . S
N451 C455 1.332 . S
N451 C456 1.332 . S
C452 C453 1.388 . S
C452 C456 1.382 . S
C452 H475 0.950 . S
C453 C452 1.388 . S
C453 C454 1.386 . S
C454 C453 1.386 . S
C454 C455 1.382 . S
C454 H476 0.950 . S
C455 N451 1.332 . S
C455 C454 1.382 . S
C455 H457 0.952 . S
C456 N451 1.332 . S
C456 C452 1.382 . S
C456 H458 0.948 . S
H457 C455 0.952 . S
H458 C456 0.948 . S
H459 C448 0.952 . S
H460 C450 0.948 . S
C461 C427 1.395 . S
C461 C431 1.391 . S
C462 C424 1.389 . S
C462 C444 1.392 . S
C463 C434 1.392 . S
C463 C436 1.389 . S
C464 C439 1.395 . S
C464 C441 1.391 . S
H465 C425 0.951 . S
H466 C426 0.950 . S
H467 C432 0.949 . S
H468 C433 0.950 . S
H469 C437 0.951 . S
H470 C438 0.950 . S
H471 C442 0.949 . S
H472 C443 0.950 . S
H473 C447 0.950 . S
H474 C449 0.950 . S
H475 C452 0.950 . S
H476 C454 0.950 . S
C477 C478 1.443 . S
C477 N481 1.376 . S
C477 C515 1.389 . S
C478 C477 1.443 . S
C478 C479 1.340 . S
C478 H518 0.951 . S
C479 C478 1.340 . S
C479 C480 1.439 . S
C479 H519 0.950 . S
C480 C479 1.439 . S
C480 N481 1.374 . S
C480 C514 1.395 . S
N481 C477 1.376 . S
N481 C480 1.374 . S
N481 Co482 2.008 . S
Co482 N481 2.008 . S
Co482 N483 1.995 . S
Co482 N488 2.008 . S
Co482 N493 1.995 . S
Co482 N498 2.282 . S
Co482 N504 2.282 . S
N483 Co482 1.995 . S
N483 C484 1.376 . S
N483 C487 1.383 . S
C484 N483 1.376 . S
C484 C485 1.446 . S
C484 C514 1.391 . S
C485 C484 1.446 . S
C485 C486 1.339 . S
C485 H520 0.949 . S
C486 C485 1.339 . S
C486 C487 1.439 . S
C486 H521 0.950 . S
C487 N483 1.383 . S
C487 C486 1.439 . S
C487 C516 1.392 . S
N488 Co482 2.008 . S
N488 C489 1.376 . S
N488 C492 1.374 . S
C489 N488 1.376 . S
C489 C490 1.443 . S
C489 C516 1.389 . S
C490 C489 1.443 . S
C490 C491 1.340 . S
C490 H522 0.951 . S
C491 C490 1.340 . S
C491 C492 1.439 . S
C491 H523 0.950 . S
C492 N488 1.374 . S
C492 C491 1.439 . S
C492 C517 1.395 . S
N493 Co482 1.995 . S
N493 C494 1.376 . S
N493 C497 1.383 . S
C494 N493 1.376 . S
C494 C495 1.446 . S
C494 C517 1.391 . S
C495 C494 1.446 . S
C495 C496 1.339 . S
C495 H524 0.949 . S
C496 C495 1.339 . S
C496 C497 1.439 . S
C496 H525 0.950 . S
C497 N493 1.383 . S
C497 C496 1.439 . S
C497 C515 1.392 . S
N498 Co482 2.282 . S
N498 C501 1.332 . S
N498 C503 1.332 . S
C499 C500 1.386 . S
C499 C502 1.388 . S
C500 C499 1.386 . S
C500 C501 1.382 . S
C500 H526 0.950 . S
C501 N498 1.332 . S
C501 C500 1.382 . S
C501 H512 0.952 . S
C502 C499 1.388 . S
C502 C503 1.382 . S
C502 H527 0.950 . S
C503 N498 1.332 . S
C503 C502 1.382 . S
C503 H513 0.948 . S
N504 Co482 2.282 . S
N504 C508 1.332 . S
N504 C509 1.332 . S
C505 C506 1.388 . S
C505 C509 1.382 . S
C505 H528 0.950 . S
C506 C505 1.388 . S
C506 C507 1.386 . S
C507 C506 1.386 . S
C507 C508 1.382 . S
C507 H529 0.950 . S
C508 N504 1.332 . S
C508 C507 1.382 . S
C508 H510 0.952 . S
C509 N504 1.332 . S
C509 C505 1.382 . S
C509 H511 0.948 . S
H510 C508 0.952 . S
H511 C509 0.948 . S
H512 C501 0.952 . S
H513 C503 0.948 . S
C514 C480 1.395 . S
C514 C484 1.391 . S
C515 C477 1.389 . S
C515 C497 1.392 . S
C516 C487 1.392 . S
C516 C489 1.389 . S
C517 C492 1.395 . S
C517 C494 1.391 . S
H518 C478 0.951 . S
H519 C479 0.950 . S
H520 C485 0.949 . S
H521 C486 0.950 . S
H522 C490 0.951 . S
H523 C491 0.950 . S
H524 C495 0.949 . S
H525 C496 0.950 . S
H526 C500 0.950 . S
H527 C502 0.950 . S
H528 C505 0.950 . S
H529 C507 0.950 . S
C530 C531 1.443 . S
C530 N534 1.376 . S
C530 C568 1.389 . S
C531 C530 1.443 . S
C531 C532 1.340 . S
C531 H571 0.951 . S
C532 C531 1.340 . S
C532 C533 1.439 . S
C532 H572 0.950 . S
C533 C532 1.439 . S
C533 N534 1.374 . S
C533 C567 1.395 . S
N534 C530 1.376 . S
N534 C533 1.374 . S
N534 Co535 2.008 . S
Co535 N534 2.008 . S
Co535 N536 1.995 . S
Co535 N541 2.008 . S
Co535 N546 1.995 . S
Co535 N551 2.282 . S
Co535 N557 2.282 . S
N536 Co535 1.995 . S
N536 C537 1.376 . S
N536 C540 1.383 . S
C537 N536 1.376 . S
C537 C538 1.446 . S
C537 C567 1.391 . S
C538 C537 1.446 . S
C538 C539 1.339 . S
C538 H573 0.949 . S
C539 C538 1.339 . S
C539 C540 1.439 . S
C539 H574 0.950 . S
C540 N536 1.383 . S
C540 C539 1.439 . S
C540 C569 1.392 . S
N541 Co535 2.008 . S
N541 C542 1.376 . S
N541 C545 1.374 . S
C542 N541 1.376 . S
C542 C543 1.443 . S
C542 C569 1.389 . S
C543 C542 1.443 . S
C543 C544 1.340 . S
C543 H575 0.951 . S
C544 C543 1.340 . S
C544 C545 1.439 . S
C544 H576 0.950 . S
C545 N541 1.374 . S
C545 C544 1.439 . S
C545 C570 1.395 . S
N546 Co535 1.995 . S
N546 C547 1.376 . S
N546 C550 1.383 . S
C547 N546 1.376 . S
C547 C548 1.446 . S
C547 C570 1.391 . S
C548 C547 1.446 . S
C548 C549 1.339 . S
C548 H577 0.949 . S
C549 C548 1.339 . S
C549 C550 1.439 . S
C549 H578 0.950 . S
C550 N546 1.383 . S
C550 C549 1.439 . S
C550 C568 1.392 . S
N551 Co535 2.282 . S
N551 C554 1.332 . S
N551 C556 1.332 . S
C552 C553 1.386 . S
C552 C555 1.388 . S
C553 C552 1.386 . S
C553 C554 1.382 . S
C553 H579 0.950 . S
C554 N551 1.332 . S
C554 C553 1.382 . S
C554 H565 0.952 . S
C555 C552 1.388 . S
C555 C556 1.382 . S
C555 H580 0.950 . S
C556 N551 1.332 . S
C556 C555 1.382 . S
C556 H566 0.948 . S
N557 Co535 2.282 . S
N557 C561 1.332 . S
N557 C562 1.332 . S
C558 C559 1.388 . S
C558 C562 1.382 1_554 S
C558 H581 0.950 . S
C559 C558 1.388 . S
C559 C560 1.386 . S
C560 C559 1.386 . S
C560 C561 1.382 1_554 S
C560 H582 0.950 . S
C561 N557 1.332 . S
C561 C560 1.382 1_556 S
C561 H563 0.952 . S
C562 N557 1.332 . S
C562 C558 1.382 1_556 S
C562 H564 0.948 . S
H563 C561 0.952 . S
H564 C562 0.948 . S
H565 C554 0.952 . S
H566 C556 0.948 . S
C567 C533 1.395 . S
C567 C537 1.391 . S
C568 C530 1.389 . S
C568 C550 1.392 . S
C569 C540 1.392 . S
C569 C542 1.389 . S
C570 C545 1.395 . S
C570 C547 1.391 . S
H571 C531 0.951 . S
H572 C532 0.950 . S
H573 C538 0.949 . S
H574 C539 0.950 . S
H575 C543 0.951 . S
H576 C544 0.950 . S
H577 C548 0.949 . S
H578 C549 0.950 . S
H579 C553 0.950 . S
H580 C555 0.950 . S
H581 C558 0.950 . S
H582 C560 0.950 . S
C583 C584 1.443 . S
C583 N587 1.376 . S
C583 C621 1.389 . S
C584 C583 1.443 . S
C584 C585 1.340 . S
C584 H624 0.951 . S
C585 C584 1.340 . S
C585 C586 1.439 . S
C585 H625 0.950 . S
C586 C585 1.439 . S
C586 N587 1.374 . S
C586 C620 1.395 . S
N587 C583 1.376 . S
N587 C586 1.374 . S
N587 Co588 2.008 . S
Co588 N587 2.008 . S
Co588 N589 1.995 . S
Co588 N594 2.008 . S
Co588 N599 1.995 . S
Co588 N604 2.282 . S
Co588 N610 2.282 . S
N589 Co588 1.995 . S
N589 C590 1.376 . S
N589 C593 1.383 . S
C590 N589 1.376 . S
C590 C591 1.446 . S
C590 C620 1.391 . S
C591 C590 1.446 . S
C591 C592 1.339 . S
C591 H626 0.949 . S
C592 C591 1.339 . S
C592 C593 1.439 . S
C592 H627 0.950 . S
C593 N589 1.383 . S
C593 C592 1.439 . S
C593 C622 1.392 . S
N594 Co588 2.008 . S
N594 C595 1.376 . S
N594 C598 1.374 . S
C595 N594 1.376 . S
C595 C596 1.443 . S
C595 C622 1.389 . S
C596 C595 1.443 . S
C596 C597 1.340 . S
C596 H628 0.951 . S
C597 C596 1.340 . S
C597 C598 1.439 . S
C597 H629 0.950 . S
C598 N594 1.374 . S
C598 C597 1.439 . S
C598 C623 1.395 . S
N599 Co588 1.995 . S
N599 C600 1.376 . S
N599 C603 1.383 . S
C600 N599 1.376 . S
C600 C601 1.446 . S
C600 C623 1.391 . S
C601 C600 1.446 . S
C601 C602 1.339 . S
C601 H630 0.949 . S
C602 C601 1.339 . S
C602 C603 1.439 . S
C602 H631 0.950 . S
C603 N599 1.383 . S
C603 C602 1.439 . S
C603 C621 1.392 . S
N604 Co588 2.282 . S
N604 C607 1.332 . S
N604 C609 1.332 . S
C605 C606 1.386 . S
C605 C608 1.388 . S
C606 C605 1.386 . S
C606 C607 1.382 . S
C606 H632 0.950 . S
C607 N604 1.332 . S
C607 C606 1.382 . S
C607 H618 0.952 . S
C608 C605 1.388 . S
C608 C609 1.382 . S
C608 H633 0.950 . S
C609 N604 1.332 . S
C609 C608 1.382 . S
C609 H619 0.948 . S
N610 Co588 2.282 . S
N610 C614 1.332 . S
N610 C615 1.332 . S
C611 C612 1.388 . S
C611 C615 1.382 . S
C611 H634 0.950 . S
C612 C611 1.388 . S
C612 C613 1.386 . S
C613 C612 1.386 . S
C613 C614 1.382 . S
C613 H635 0.950 . S
C614 N610 1.332 . S
C614 C613 1.382 . S
C614 H616 0.952 . S
C615 N610 1.332 . S
C615 C611 1.382 . S
C615 H617 0.948 . S
H616 C614 0.952 . S
H617 C615 0.948 . S
H618 C607 0.952 . S
H619 C609 0.948 . S
C620 C586 1.395 . S
C620 C590 1.391 . S
C621 C583 1.389 . S
C621 C603 1.392 . S
C622 C593 1.392 . S
C622 C595 1.389 . S
C623 C598 1.395 . S
C623 C600 1.391 . S
H624 C584 0.951 . S
H625 C585 0.950 . S
H626 C591 0.949 . S
H627 C592 0.950 . S
H628 C596 0.951 . S
H629 C597 0.950 . S
H630 C601 0.949 . S
H631 C602 0.950 . S
H632 C606 0.950 . S
H633 C608 0.950 . S
H634 C611 0.950 . S
H635 C613 0.950 . S
C636 C637 1.349 . S
C636 C638 1.327 . S
C636 H661 0.950 . S
C637 C636 1.349 . S
C637 C653 1.349 . S
C638 C636 1.327 . S
C638 C657 1.429 . S
C638 H662 0.950 . S
C639 C656 1.574 . S
C639 C658 1.368 . S
C639 H663 0.949 . S
H640 C644 0.949 . S
C641 C642 1.349 . S
C641 C643 1.327 . S
C641 H664 0.950 . S
C642 C641 1.349 . S
C642 C654 1.349 . S
C643 C641 1.327 . S
C643 C659 1.429 . S
C643 H665 0.950 . S
C644 H640 0.949 . S
C644 C652 1.574 . S
C644 C660 1.368 . S
H645 C653 0.950 . S
H646 C651 0.950 . S
H647 C652 0.949 . S
H648 C654 0.950 . S
H649 C655 0.950 . S
H650 C656 0.949 . S
C651 H646 0.950 . S
C651 C653 1.327 . S
C651 C657 1.429 . S
C652 C644 1.574 . S
C652 H647 0.949 . S
C652 C658 1.368 . S
C653 C637 1.349 . S
C653 H645 0.950 . S
C653 C651 1.327 . S
C654 C642 1.349 . S
C654 H648 0.950 . S
C654 C655 1.327 . S
C655 H649 0.950 . S
C655 C654 1.327 . S
C655 C659 1.429 . S
C656 C639 1.574 . S
C656 H650 0.949 . S
C656 C660 1.368 . S
C657 C638 1.429 . S
C657 C651 1.429 . S
C657 C658 1.523 . S
C658 C639 1.368 . S
C658 C652 1.368 . S
C658 C657 1.523 . S
C659 C643 1.429 . S
C659 C655 1.429 . S
C659 C660 1.523 . S
C660 C644 1.368 . S
C660 C656 1.368 . S
C660 C659 1.523 . S
H661 C636 0.950 . S
H662 C638 0.950 . S
H663 C639 0.949 . S
H664 C641 0.950 . S
H665 C643 0.950 . S
C666 C667 1.349 . S
C666 C668 1.327 . S
C666 H691 0.950 . S
C667 C666 1.349 . S
C667 C683 1.349 . S
C668 C666 1.327 . S
C668 C687 1.429 . S
C668 H692 0.950 . S
C669 C686 1.574 . S
C669 C688 1.368 . S
C669 H693 0.949 . S
H670 C674 0.949 . S
C671 C672 1.349 . S
C671 C673 1.327 . S
C671 H694 0.950 . S
C672 C671 1.349 . S
C672 C684 1.349 . S
C673 C671 1.327 . S
C673 C689 1.429 . S
C673 H695 0.950 . S
C674 H670 0.949 . S
C674 C682 1.574 . S
C674 C690 1.368 . S
H675 C683 0.950 . S
H676 C681 0.950 . S
H677 C682 0.949 . S
H678 C684 0.950 . S
H679 C685 0.950 . S
H680 C686 0.949 . S
C681 H676 0.950 . S
C681 C683 1.327 . S
C681 C687 1.429 . S
C682 C674 1.574 . S
C682 H677 0.949 . S
C682 C688 1.368 . S
C683 C667 1.349 . S
C683 H675 0.950 . S
C683 C681 1.327 . S
C684 C672 1.349 . S
C684 H678 0.950 . S
C684 C685 1.327 . S
C685 H679 0.950 . S
C685 C684 1.327 . S
C685 C689 1.429 . S
C686 C669 1.574 . S
C686 H680 0.949 . S
C686 C690 1.368 . S
C687 C668 1.429 . S
C687 C681 1.429 . S
C687 C688 1.523 . S
C688 C669 1.368 . S
C688 C682 1.368 . S
C688 C687 1.523 . S
C689 C673 1.429 . S
C689 C685 1.429 . S
C689 C690 1.523 . S
C690 C674 1.368 . S
C690 C686 1.368 . S
C690 C689 1.523 . S
H691 C666 0.950 . S
H692 C668 0.950 . S
H693 C669 0.949 . S
H694 C671 0.950 . S
H695 C673 0.950 . S
C696 C697 1.349 . S
C696 C698 1.327 . S
C696 H721 0.950 . S
C697 C696 1.349 . S
C697 C713 1.349 . S
C698 C696 1.327 . S
C698 C717 1.429 . S
C698 H722 0.950 . S
C699 C716 1.574 1_556 S
C699 C718 1.368 . S
C699 H723 0.949 . S
H700 C704 0.949 . S
C701 C702 1.349 . S
C701 C703 1.327 . S
C701 H724 0.950 . S
C702 C701 1.349 . S
C702 C714 1.349 . S
C703 C701 1.327 . S
C703 C719 1.429 . S
C703 H725 0.950 . S
C704 H700 0.949 . S
C704 C712 1.574 1_554 S
C704 C720 1.368 . S
H705 C713 0.950 . S
H706 C711 0.950 . S
H707 C712 0.949 . S
H708 C714 0.950 . S
H709 C715 0.950 . S
H710 C716 0.949 . S
C711 H706 0.950 . S
C711 C713 1.327 . S
C711 C717 1.429 . S
C712 C704 1.574 1_556 S
C712 H707 0.949 . S
C712 C718 1.368 . S
C713 C697 1.349 . S
C713 H705 0.950 . S
C713 C711 1.327 . S
C714 C702 1.349 . S
C714 H708 0.950 . S
C714 C715 1.327 . S
C715 H709 0.950 . S
C715 C714 1.327 . S
C715 C719 1.429 . S
C716 C699 1.574 1_554 S
C716 H710 0.949 . S
C716 C720 1.368 . S
C717 C698 1.429 . S
C717 C711 1.429 . S
C717 C718 1.523 . S
C718 C699 1.368 . S
C718 C712 1.368 . S
C718 C717 1.523 . S
C719 C703 1.429 . S
C719 C715 1.429 . S
C719 C720 1.523 . S
C720 C704 1.368 . S
C720 C716 1.368 . S
C720 C719 1.523 . S
H721 C696 0.950 . S
H722 C698 0.950 . S
H723 C699 0.949 . S
H724 C701 0.950 . S
H725 C703 0.950 . S
C726 C727 1.349 . S
C726 C728 1.327 . S
C726 H751 0.950 . S
C727 C726 1.349 . S
C727 C743 1.349 . S
C728 C726 1.327 . S
C728 C747 1.429 . S
C728 H752 0.950 . S
C729 C746 1.574 . S
C729 C748 1.368 . S
C729 H753 0.949 . S
H730 C734 0.949 . S
C731 C732 1.349 . S
C731 C733 1.327 . S
C731 H754 0.950 . S
C732 C731 1.349 . S
C732 C744 1.349 . S
C733 C731 1.327 . S
C733 C749 1.429 . S
C733 H755 0.950 . S
C734 H730 0.949 . S
C734 C742 1.574 . S
C734 C750 1.368 . S
H735 C743 0.950 . S
H736 C741 0.950 . S
H737 C742 0.949 . S
H738 C744 0.950 . S
H739 C745 0.950 . S
H740 C746 0.949 . S
C741 H736 0.950 . S
C741 C743 1.327 . S
C741 C747 1.429 . S
C742 C734 1.574 . S
C742 H737 0.949 . S
C742 C748 1.368 . S
C743 C727 1.349 . S
C743 H735 0.950 . S
C743 C741 1.327 . S
C744 C732 1.349 . S
C744 H738 0.950 . S
C744 C745 1.327 . S
C745 H739 0.950 . S
C745 C744 1.327 . S
C745 C749 1.429 . S
C746 C729 1.574 . S
C746 H740 0.949 . S
C746 C750 1.368 . S
C747 C728 1.429 . S
C747 C741 1.429 . S
C747 C748 1.523 . S
C748 C729 1.368 . S
C748 C742 1.368 . S
C748 C747 1.523 . S
C749 C733 1.429 . S
C749 C745 1.429 . S
C749 C750 1.523 . S
C750 C734 1.368 . S
C750 C746 1.368 . S
C750 C749 1.523 . S
H751 C726 0.950 . S
H752 C728 0.950 . S
H753 C729 0.949 . S
H754 C731 0.950 . S
H755 C733 0.950 . S
C756 C757 1.349 . S
C756 C758 1.327 . S
C756 H781 0.950 . S
C757 C756 1.349 . S
C757 C773 1.349 . S
C758 C756 1.327 . S
C758 C777 1.429 . S
C758 H782 0.950 . S
C759 C776 1.574 . S
C759 C778 1.368 . S
C759 H783 0.949 . S
H760 C764 0.949 . S
C761 C762 1.349 . S
C761 C763 1.327 . S
C761 H784 0.950 . S
C762 C761 1.349 . S
C762 C774 1.349 . S
C763 C761 1.327 . S
C763 C779 1.429 . S
C763 H785 0.950 . S
C764 H760 0.949 . S
C764 C772 1.574 . S
C764 C780 1.368 . S
H765 C773 0.950 . S
H766 C771 0.950 . S
H767 C772 0.949 . S
H768 C774 0.950 . S
H769 C775 0.950 . S
H770 C776 0.949 . S
C771 H766 0.950 . S
C771 C773 1.327 . S
C771 C777 1.429 . S
C772 C764 1.574 . S
C772 H767 0.949 . S
C772 C778 1.368 . S
C773 C757 1.349 . S
C773 H765 0.950 . S
C773 C771 1.327 . S
C774 C762 1.349 . S
C774 H768 0.950 . S
C774 C775 1.327 . S
C775 H769 0.950 . S
C775 C774 1.327 . S
C775 C779 1.429 . S
C776 C759 1.574 . S
C776 H770 0.949 . S
C776 C780 1.368 . S
C777 C758 1.429 . S
C777 C771 1.429 . S
C777 C778 1.523 . S
C778 C759 1.368 . S
C778 C772 1.368 . S
C778 C777 1.523 . S
C779 C763 1.429 . S
C779 C775 1.429 . S
C779 C780 1.523 . S
C780 C764 1.368 . S
C780 C776 1.368 . S
C780 C779 1.523 . S
H781 C756 0.950 . S
H782 C758 0.950 . S
H783 C759 0.949 . S
H784 C761 0.950 . S
H785 C763 0.950 . S
C786 C787 1.349 . S
C786 C788 1.327 . S
C786 H811 0.950 . S
C787 C786 1.349 . S
C787 C803 1.349 . S
C788 C786 1.327 . S
C788 C807 1.429 . S
C788 H812 0.950 . S
C789 C806 1.574 1_554 S
C789 C808 1.368 . S
C789 H813 0.949 . S
H790 C794 0.949 . S
C791 C792 1.349 . S
C791 C793 1.327 . S
C791 H814 0.950 . S
C792 C791 1.349 . S
C792 C804 1.349 . S
C793 C791 1.327 . S
C793 C809 1.429 . S
C793 H815 0.950 . S
C794 H790 0.949 . S
C794 C802 1.574 1_556 S
C794 C810 1.368 . S
H795 C803 0.950 . S
H796 C801 0.950 . S
H797 C802 0.949 . S
H798 C804 0.950 . S
H799 C805 0.950 . S
H800 C806 0.949 . S
C801 H796 0.950 . S
C801 C803 1.327 . S
C801 C807 1.429 . S
C802 C794 1.574 1_554 S
C802 H797 0.949 . S
C802 C808 1.368 . S
C803 C787 1.349 . S
C803 H795 0.950 . S
C803 C801 1.327 . S
C804 C792 1.349 . S
C804 H798 0.950 . S
C804 C805 1.327 . S
C805 H799 0.950 . S
C805 C804 1.327 . S
C805 C809 1.429 . S
C806 C789 1.574 1_556 S
C806 H800 0.949 . S
C806 C810 1.368 . S
C807 C788 1.429 . S
C807 C801 1.429 . S
C807 C808 1.523 . S
C808 C789 1.368 . S
C808 C802 1.368 . S
C808 C807 1.523 . S
C809 C793 1.429 . S
C809 C805 1.429 . S
C809 C810 1.523 . S
C810 C794 1.368 . S
C810 C806 1.368 . S
C810 C809 1.523 . S
H811 C786 0.950 . S
H812 C788 0.950 . S
H813 C789 0.949 . S
H814 C791 0.950 . S
H815 C793 0.950 . S
C816 C817 1.349 . S
C816 C818 1.327 . S
C816 H841 0.950 . S
C817 C816 1.349 . S
C817 C833 1.349 . S
C818 C816 1.327 . S
C818 C837 1.429 . S
C818 H842 0.950 . S
C819 C836 1.574 . S
C819 C838 1.368 1_556 S
C819 H843 0.949 . S
H820 C824 0.949 . S
C821 C822 1.349 . S
C821 C823 1.327 . S
C821 H844 0.950 . S
C822 C821 1.349 . S
C822 C834 1.349 . S
C823 C821 1.327 . S
C823 C839 1.429 . S
C823 H845 0.950 . S
C824 H820 0.949 . S
C824 C832 1.574 . S
C824 C840 1.368 1_554 S
H825 C833 0.950 . S
H826 C831 0.950 . S
H827 C832 0.949 . S
H828 C834 0.950 . S
H829 C835 0.950 . S
H830 C836 0.949 . S
C831 H826 0.950 . S
C831 C833 1.327 . S
C831 C837 1.429 . S
C832 C824 1.574 . S
C832 H827 0.949 . S
C832 C838 1.368 . S
C833 C817 1.349 . S
C833 H825 0.950 . S
C833 C831 1.327 . S
C834 C822 1.349 . S
C834 H828 0.950 . S
C834 C835 1.327 . S
C835 H829 0.950 . S
C835 C834 1.327 . S
C835 C839 1.429 . S
C836 C819 1.574 . S
C836 H830 0.949 . S
C836 C840 1.368 . S
C837 C818 1.429 . S
C837 C831 1.429 . S
C837 C838 1.523 . S
C838 C819 1.368 1_554 S
C838 C832 1.368 . S
C838 C837 1.523 . S
C839 C823 1.429 . S
C839 C835 1.429 . S
C839 C840 1.523 . S
C840 C824 1.368 1_556 S
C840 C836 1.368 . S
C840 C839 1.523 . S
H841 C816 0.950 . S
H842 C818 0.950 . S
H843 C819 0.949 . S
H844 C821 0.950 . S
H845 C823 0.950 . S
C846 C847 1.349 . S
C846 C848 1.327 . S
C846 H871 0.950 . S
C847 C846 1.349 . S
C847 C863 1.349 . S
C848 C846 1.327 . S
C848 C867 1.429 . S
C848 H872 0.950 . S
C849 C866 1.574 . S
C849 C868 1.368 . S
C849 H873 0.949 . S
H850 C854 0.949 . S
C851 C852 1.349 . S
C851 C853 1.327 . S
C851 H874 0.950 . S
C852 C851 1.349 . S
C852 C864 1.349 . S
C853 C851 1.327 . S
C853 C869 1.429 . S
C853 H875 0.950 . S
C854 H850 0.949 . S
C854 C862 1.574 . S
C854 C870 1.368 . S
H855 C863 0.950 . S
H856 C861 0.950 . S
H857 C862 0.949 . S
H858 C864 0.950 . S
H859 C865 0.950 . S
H860 C866 0.949 . S
C861 H856 0.950 . S
C861 C863 1.327 . S
C861 C867 1.429 . S
C862 C854 1.574 . S
C862 H857 0.949 . S
C862 C868 1.368 . S
C863 C847 1.349 . S
C863 H855 0.950 . S
C863 C861 1.327 . S
C864 C852 1.349 . S
C864 H858 0.950 . S
C864 C865 1.327 . S
C865 H859 0.950 . S
C865 C864 1.327 . S
C865 C869 1.429 . S
C866 C849 1.574 . S
C866 H860 0.949 . S
C866 C870 1.368 . S
C867 C848 1.429 . S
C867 C861 1.429 . S
C867 C868 1.523 . S
C868 C849 1.368 . S
C868 C862 1.368 . S
C868 C867 1.523 . S
C869 C853 1.429 . S
C869 C865 1.429 . S
C869 C870 1.523 . S
C870 C854 1.368 . S
C870 C866 1.368 . S
C870 C869 1.523 . S
H871 C846 0.950 . S
H872 C848 0.950 . S
H873 C849 0.949 . S
H874 C851 0.950 . S
H875 C853 0.950 . S
C876 C877 1.349 . S
C876 C878 1.327 . S
C876 H901 0.950 . S
C877 C876 1.349 . S
C877 C893 1.349 . S
C878 C876 1.327 . S
C878 C897 1.429 . S
C878 H902 0.950 . S
C879 C896 1.574 . S
C879 C898 1.368 . S
C879 H903 0.949 . S
H880 C884 0.949 . S
C881 C882 1.349 . S
C881 C883 1.327 . S
C881 H904 0.950 . S
C882 C881 1.349 . S
C882 C894 1.349 . S
C883 C881 1.327 . S
C883 C899 1.429 . S
C883 H905 0.950 . S
C884 H880 0.949 . S
C884 C892 1.574 . S
C884 C900 1.368 . S
H885 C893 0.950 . S
H886 C891 0.950 . S
H887 C892 0.949 . S
H888 C894 0.950 . S
H889 C895 0.950 . S
H890 C896 0.949 . S
C891 H886 0.950 . S
C891 C893 1.327 . S
C891 C897 1.429 . S
C892 C884 1.574 . S
C892 H887 0.949 . S
C892 C898 1.368 . S
C893 C877 1.349 . S
C893 H885 0.950 . S
C893 C891 1.327 . S
C894 C882 1.349 . S
C894 H888 0.950 . S
C894 C895 1.327 . S
C895 H889 0.950 . S
C895 C894 1.327 . S
C895 C899 1.429 . S
C896 C879 1.574 . S
C896 H890 0.949 . S
C896 C900 1.368 . S
C897 C878 1.429 . S
C897 C891 1.429 . S
C897 C898 1.523 . S
C898 C879 1.368 . S
C898 C892 1.368 . S
C898 C897 1.523 . S
C899 C883 1.429 . S
C899 C895 1.429 . S
C899 C900 1.523 . S
C900 C884 1.368 . S
C900 C896 1.368 . S
C900 C899 1.523 . S
H901 C876 0.950 . S
H902 C878 0.950 . S
H903 C879 0.949 . S
H904 C881 0.950 . S
H905 C883 0.950 . S
C906 C907 1.349 . S
C906 C908 1.327 . S
C906 H931 0.950 . S
C907 C906 1.349 . S
C907 C923 1.349 . S
C908 C906 1.327 . S
C908 C927 1.429 . S
C908 H932 0.950 . S
C909 C926 1.574 . S
C909 C928 1.368 1_556 S
C909 H933 0.949 . S
H910 C914 0.949 . S
C911 C912 1.349 . S
C911 C913 1.327 . S
C911 H934 0.950 . S
C912 C911 1.349 . S
C912 C924 1.349 . S
C913 C911 1.327 . S
C913 C929 1.429 . S
C913 H935 0.950 . S
C914 H910 0.949 . S
C914 C922 1.574 . S
C914 C930 1.368 1_554 S
H915 C923 0.950 . S
H916 C921 0.950 . S
H917 C922 0.949 . S
H918 C924 0.950 . S
H919 C925 0.950 . S
H920 C926 0.949 . S
C921 H916 0.950 . S
C921 C923 1.327 . S
C921 C927 1.429 . S
C922 C914 1.574 . S
C922 H917 0.949 . S
C922 C928 1.368 . S
C923 C907 1.349 . S
C923 H915 0.950 . S
C923 C921 1.327 . S
C924 C912 1.349 . S
C924 H918 0.950 . S
C924 C925 1.327 . S
C925 H919 0.950 . S
C925 C924 1.327 . S
C925 C929 1.429 . S
C926 C909 1.574 . S
C926 H920 0.949 . S
C926 C930 1.368 . S
C927 C908 1.429 . S
C927 C921 1.429 . S
C927 C928 1.523 . S
C928 C909 1.368 1_554 S
C928 C922 1.368 . S
C928 C927 1.523 . S
C929 C913 1.429 . S
C929 C925 1.429 . S
C929 C930 1.523 . S
C930 C914 1.368 1_556 S
C930 C926 1.368 . S
C930 C929 1.523 . S
H931 C906 0.950 . S
H932 C908 0.950 . S
H933 C909 0.949 . S
H934 C911 0.950 . S
H935 C913 0.950 . S
C936 C937 1.349 . S
C936 C938 1.327 . S
C936 H961 0.950 . S
C937 C936 1.349 . S
C937 C953 1.349 . S
C938 C936 1.327 . S
C938 C957 1.429 . S
C938 H962 0.950 . S
C939 C956 1.574 . S
C939 C958 1.368 . S
C939 H963 0.949 . S
H940 C944 0.949 . S
C941 C942 1.349 . S
C941 C943 1.327 . S
C941 H964 0.950 . S
C942 C941 1.349 . S
C942 C954 1.349 . S
C943 C941 1.327 . S
C943 C959 1.429 . S
C943 H965 0.950 . S
C944 H940 0.949 . S
C944 C952 1.574 . S
C944 C960 1.368 . S
H945 C953 0.950 . S
H946 C951 0.950 . S
H947 C952 0.949 . S
H948 C954 0.950 . S
H949 C955 0.950 . S
H950 C956 0.949 . S
C951 H946 0.950 . S
C951 C953 1.327 . S
C951 C957 1.429 . S
C952 C944 1.574 . S
C952 H947 0.949 . S
C952 C958 1.368 . S
C953 C937 1.349 . S
C953 H945 0.950 . S
C953 C951 1.327 . S
C954 C942 1.349 . S
C954 H948 0.950 . S
C954 C955 1.327 . S
C955 H949 0.950 . S
C955 C954 1.327 . S
C955 C959 1.429 . S
C956 C939 1.574 . S
C956 H950 0.949 . S
C956 C960 1.368 . S
C957 C938 1.429 . S
C957 C951 1.429 . S
C957 C958 1.523 . S
C958 C939 1.368 . S
C958 C952 1.368 . S
C958 C957 1.523 . S
C959 C943 1.429 . S
C959 C955 1.429 . S
C959 C960 1.523 . S
C960 C944 1.368 . S
C960 C956 1.368 . S
C960 C959 1.523 . S
H961 C936 0.950 . S
H962 C938 0.950 . S
H963 C939 0.949 . S
H964 C941 0.950 . S
H965 C943 0.950 . S
C966 C967 1.349 . S
C966 C968 1.327 . S
C966 H991 0.950 . S
C967 C966 1.349 . S
C967 C983 1.349 . S
C968 C966 1.327 . S
C968 C987 1.429 . S
C968 H992 0.950 . S
C969 C986 1.574 . S
C969 C988 1.368 . S
C969 H993 0.949 . S
H970 C974 0.949 . S
C971 C972 1.349 . S
C971 C973 1.327 . S
C971 H994 0.950 . S
C972 C971 1.349 . S
C972 C984 1.349 . S
C973 C971 1.327 . S
C973 C989 1.429 . S
C973 H995 0.950 . S
C974 H970 0.949 . S
C974 C982 1.574 . S
C974 C990 1.368 . S
H975 C983 0.950 . S
H976 C981 0.950 . S
H977 C982 0.949 . S
H978 C984 0.950 . S
H979 C985 0.950 . S
H980 C986 0.949 . S
C981 H976 0.950 . S
C981 C983 1.327 . S
C981 C987 1.429 . S
C982 C974 1.574 . S
C982 H977 0.949 . S
C982 C988 1.368 . S
C983 C967 1.349 . S
C983 H975 0.950 . S
C983 C981 1.327 . S
C984 C972 1.349 . S
C984 H978 0.950 . S
C984 C985 1.327 . S
C985 H979 0.950 . S
C985 C984 1.327 . S
C985 C989 1.429 . S
C986 C969 1.574 . S
C986 H980 0.949 . S
C986 C990 1.368 . S
C987 C968 1.429 . S
C987 C981 1.429 . S
C987 C988 1.523 . S
C988 C969 1.368 . S
C988 C982 1.368 . S
C988 C987 1.523 . S
C989 C973 1.429 . S
C989 C985 1.429 . S
C989 C990 1.523 . S
C990 C974 1.368 . S
C990 C986 1.368 . S
C990 C989 1.523 . S
H991 C966 0.950 . S
H992 C968 0.950 . S
H993 C969 0.949 . S
H994 C971 0.950 . S
H995 C973 0.950 . S
C996 C997 1.349 . S
C996 C998 1.327 . S
C996 H1021 0.950 . S
C997 C996 1.349 . S
C997 C1013 1.349 . S
C998 C996 1.327 . S
C998 C1017 1.429 . S
C998 H1022 0.950 . S
C999 C1016 1.574 . S
C999 C1018 1.368 . S
C999 H1023 0.949 . S
H1000 C1004 0.949 . S
C1001 C1002 1.349 . S
C1001 C1003 1.327 . S
C1001 H1024 0.950 . S
C1002 C1001 1.349 . S
C1002 C1014 1.349 . S
C1003 C1001 1.327 . S
C1003 C1019 1.429 . S
C1003 H1025 0.950 . S
C1004 H1000 0.949 . S
C1004 C1012 1.574 . S
C1004 C1020 1.368 . S
H1005 C1013 0.950 . S
H1006 C1011 0.950 . S
H1007 C1012 0.949 . S
H1008 C1014 0.950 . S
H1009 C1015 0.950 . S
H1010 C1016 0.949 . S
C1011 H1006 0.950 . S
C1011 C1013 1.327 . S
C1011 C1017 1.429 . S
C1012 C1004 1.574 . S
C1012 H1007 0.949 . S
C1012 C1018 1.368 . S
C1013 C997 1.349 . S
C1013 H1005 0.950 . S
C1013 C1011 1.327 . S
C1014 C1002 1.349 . S
C1014 H1008 0.950 . S
C1014 C1015 1.327 . S
C1015 H1009 0.950 . S
C1015 C1014 1.327 . S
C1015 C1019 1.429 . S
C1016 C999 1.574 . S
C1016 H1010 0.949 . S
C1016 C1020 1.368 . S
C1017 C998 1.429 . S
C1017 C1011 1.429 . S
C1017 C1018 1.523 . S
C1018 C999 1.368 . S
C1018 C1012 1.368 . S
C1018 C1017 1.523 . S
C1019 C1003 1.429 . S
C1019 C1015 1.429 . S
C1019 C1020 1.523 . S
C1020 C1004 1.368 . S
C1020 C1016 1.368 . S
C1020 C1019 1.523 . S
H1021 C996 0.950 . S
H1022 C998 0.950 . S
H1023 C999 0.949 . S
H1024 C1001 0.950 . S
H1025 C1003 0.950 . S
C1026 C1027 1.349 . S
C1026 C1028 1.327 . S
C1026 H1051 0.950 . S
C1027 C1026 1.349 . S
C1027 C1043 1.349 . S
C1028 C1026 1.327 . S
C1028 C1047 1.429 . S
C1028 H1052 0.950 . S
C1029 C1046 1.574 1_655 S
C1029 C1048 1.368 . S
C1029 H1053 0.949 . S
H1030 C1034 0.949 . S
C1031 C1032 1.349 . S
C1031 C1033 1.327 . S
C1031 H1054 0.950 . S
C1032 C1031 1.349 . S
C1032 C1044 1.349 . S
C1033 C1031 1.327 . S
C1033 C1049 1.429 . S
C1033 H1055 0.950 . S
C1034 H1030 0.949 . S
C1034 C1042 1.574 1_455 S
C1034 C1050 1.368 . S
H1035 C1043 0.950 . S
H1036 C1041 0.950 . S
H1037 C1042 0.949 . S
H1038 C1044 0.950 . S
H1039 C1045 0.950 . S
H1040 C1046 0.949 . S
C1041 H1036 0.950 . S
C1041 C1043 1.327 . S
C1041 C1047 1.429 . S
C1042 C1034 1.574 1_655 S
C1042 H1037 0.949 . S
C1042 C1048 1.368 . S
C1043 C1027 1.349 . S
C1043 H1035 0.950 . S
C1043 C1041 1.327 . S
C1044 C1032 1.349 . S
C1044 H1038 0.950 . S
C1044 C1045 1.327 . S
C1045 H1039 0.950 . S
C1045 C1044 1.327 . S
C1045 C1049 1.429 . S
C1046 C1029 1.574 1_455 S
C1046 H1040 0.949 . S
C1046 C1050 1.368 . S
C1047 C1028 1.429 . S
C1047 C1041 1.429 . S
C1047 C1048 1.523 . S
C1048 C1029 1.368 . S
C1048 C1042 1.368 . S
C1048 C1047 1.523 . S
C1049 C1033 1.429 . S
C1049 C1045 1.429 . S
C1049 C1050 1.523 . S
C1050 C1034 1.368 . S
C1050 C1046 1.368 . S
C1050 C1049 1.523 . S
H1051 C1026 0.950 . S
H1052 C1028 0.950 . S
H1053 C1029 0.949 . S
H1054 C1031 0.950 . S
H1055 C1033 0.950 . S
C1056 C1057 1.349 . S
C1056 C1058 1.327 . S
C1056 H1081 0.950 . S
C1057 C1056 1.349 . S
C1057 C1073 1.349 . S
C1058 C1056 1.327 . S
C1058 C1077 1.429 . S
C1058 H1082 0.950 . S
C1059 C1076 1.574 1_545 S
C1059 C1078 1.368 . S
C1059 H1083 0.949 . S
H1060 C1064 0.949 . S
C1061 C1062 1.349 . S
C1061 C1063 1.327 . S
C1061 H1084 0.950 . S
C1062 C1061 1.349 . S
C1062 C1074 1.349 . S
C1063 C1061 1.327 . S
C1063 C1079 1.429 . S
C1063 H1085 0.950 . S
C1064 H1060 0.949 . S
C1064 C1072 1.574 1_565 S
C1064 C1080 1.368 . S
H1065 C1073 0.950 . S
H1066 C1071 0.950 . S
H1067 C1072 0.949 . S
H1068 C1074 0.950 . S
H1069 C1075 0.950 . S
H1070 C1076 0.949 . S
C1071 H1066 0.950 . S
C1071 C1073 1.327 . S
C1071 C1077 1.429 . S
C1072 C1064 1.574 1_545 S
C1072 H1067 0.949 . S
C1072 C1078 1.368 . S
C1073 C1057 1.349 . S
C1073 H1065 0.950 . S
C1073 C1071 1.327 . S
C1074 C1062 1.349 . S
C1074 H1068 0.950 . S
C1074 C1075 1.327 . S
C1075 H1069 0.950 . S
C1075 C1074 1.327 . S
C1075 C1079 1.429 . S
C1076 C1059 1.574 1_565 S
C1076 H1070 0.949 . S
C1076 C1080 1.368 . S
C1077 C1058 1.429 . S
C1077 C1071 1.429 . S
C1077 C1078 1.523 . S
C1078 C1059 1.368 . S
C1078 C1072 1.368 . S
C1078 C1077 1.523 . S
C1079 C1063 1.429 . S
C1079 C1075 1.429 . S
C1079 C1080 1.523 . S
C1080 C1064 1.368 . S
C1080 C1076 1.368 . S
C1080 C1079 1.523 . S
H1081 C1056 0.950 . S
H1082 C1058 0.950 . S
H1083 C1059 0.949 . S
H1084 C1061 0.950 . S
H1085 C1063 0.950 . S
C1086 C1087 1.349 . S
C1086 C1088 1.327 . S
C1086 H1111 0.950 . S
C1087 C1086 1.349 . S
C1087 C1103 1.349 . S
C1088 C1086 1.327 . S
C1088 C1107 1.429 . S
C1088 H1112 0.950 . S
C1089 C1106 1.574 . S
C1089 C1108 1.368 . S
C1089 H1113 0.949 . S
H1090 C1094 0.949 . S
C1091 C1092 1.349 . S
C1091 C1093 1.327 . S
C1091 H1114 0.950 . S
C1092 C1091 1.349 . S
C1092 C1104 1.349 . S
C1093 C1091 1.327 . S
C1093 C1109 1.429 . S
C1093 H1115 0.950 . S
C1094 H1090 0.949 . S
C1094 C1102 1.574 . S
C1094 C1110 1.368 . S
H1095 C1103 0.950 . S
H1096 C1101 0.950 . S
H1097 C1102 0.949 . S
H1098 C1104 0.950 . S
H1099 C1105 0.950 . S
H1100 C1106 0.949 . S
C1101 H1096 0.950 . S
C1101 C1103 1.327 . S
C1101 C1107 1.429 . S
C1102 C1094 1.574 . S
C1102 H1097 0.949 . S
C1102 C1108 1.368 . S
C1103 C1087 1.349 . S
C1103 H1095 0.950 . S
C1103 C1101 1.327 . S
C1104 C1092 1.349 . S
C1104 H1098 0.950 . S
C1104 C1105 1.327 . S
C1105 H1099 0.950 . S
C1105 C1104 1.327 . S
C1105 C1109 1.429 . S
C1106 C1089 1.574 . S
C1106 H1100 0.949 . S
C1106 C1110 1.368 . S
C1107 C1088 1.429 . S
C1107 C1101 1.429 . S
C1107 C1108 1.523 . S
C1108 C1089 1.368 . S
C1108 C1102 1.368 . S
C1108 C1107 1.523 . S
C1109 C1093 1.429 . S
C1109 C1105 1.429 . S
C1109 C1110 1.523 . S
C1110 C1094 1.368 . S
C1110 C1106 1.368 . S
C1110 C1109 1.523 . S
H1111 C1086 0.950 . S
H1112 C1088 0.950 . S
H1113 C1089 0.949 . S
H1114 C1091 0.950 . S
H1115 C1093 0.950 . S
C1116 C1117 1.349 . S
C1116 C1118 1.327 . S
C1116 H1141 0.950 . S
C1117 C1116 1.349 . S
C1117 C1133 1.349 . S
C1118 C1116 1.327 . S
C1118 C1137 1.429 . S
C1118 H1142 0.950 . S
C1119 C1136 1.574 1_455 S
C1119 C1138 1.368 . S
C1119 H1143 0.949 . S
H1120 C1124 0.949 . S
C1121 C1122 1.349 . S
C1121 C1123 1.327 . S
C1121 H1144 0.950 . S
C1122 C1121 1.349 . S
C1122 C1134 1.349 . S
C1123 C1121 1.327 . S
C1123 C1139 1.429 . S
C1123 H1145 0.950 . S
C1124 H1120 0.949 . S
C1124 C1132 1.574 1_655 S
C1124 C1140 1.368 . S
H1125 C1133 0.950 . S
H1126 C1131 0.950 . S
H1127 C1132 0.949 . S
H1128 C1134 0.950 . S
H1129 C1135 0.950 . S
H1130 C1136 0.949 . S
C1131 H1126 0.950 . S
C1131 C1133 1.327 . S
C1131 C1137 1.429 . S
C1132 C1124 1.574 1_455 S
C1132 H1127 0.949 . S
C1132 C1138 1.368 . S
C1133 C1117 1.349 . S
C1133 H1125 0.950 . S
C1133 C1131 1.327 . S
C1134 C1122 1.349 . S
C1134 H1128 0.950 . S
C1134 C1135 1.327 . S
C1135 H1129 0.950 . S
C1135 C1134 1.327 . S
C1135 C1139 1.429 . S
C1136 C1119 1.574 1_655 S
C1136 H1130 0.949 . S
C1136 C1140 1.368 . S
C1137 C1118 1.429 . S
C1137 C1131 1.429 . S
C1137 C1138 1.523 . S
C1138 C1119 1.368 . S
C1138 C1132 1.368 . S
C1138 C1137 1.523 . S
C1139 C1123 1.429 . S
C1139 C1135 1.429 . S
C1139 C1140 1.523 . S
C1140 C1124 1.368 . S
C1140 C1136 1.368 . S
C1140 C1139 1.523 . S
H1141 C1116 0.950 . S
H1142 C1118 0.950 . S
H1143 C1119 0.949 . S
H1144 C1121 0.950 . S
H1145 C1123 0.950 . S
C1146 C1147 1.349 . S
C1146 C1148 1.327 . S
C1146 H1171 0.950 . S
C1147 C1146 1.349 . S
C1147 C1163 1.349 . S
C1148 C1146 1.327 . S
C1148 C1167 1.429 . S
C1148 H1172 0.950 . S
C1149 C1166 1.574 1_565 S
C1149 C1168 1.368 . S
C1149 H1173 0.949 . S
H1150 C1154 0.949 . S
C1151 C1152 1.349 . S
C1151 C1153 1.327 . S
C1151 H1174 0.950 . S
C1152 C1151 1.349 . S
C1152 C1164 1.349 . S
C1153 C1151 1.327 . S
C1153 C1169 1.429 . S
C1153 H1175 0.950 . S
C1154 H1150 0.949 . S
C1154 C1162 1.574 1_545 S
C1154 C1170 1.368 . S
H1155 C1163 0.950 . S
H1156 C1161 0.950 . S
H1157 C1162 0.949 . S
H1158 C1164 0.950 . S
H1159 C1165 0.950 . S
H1160 C1166 0.949 . S
C1161 H1156 0.950 . S
C1161 C1163 1.327 . S
C1161 C1167 1.429 . S
C1162 C1154 1.574 1_565 S
C1162 H1157 0.949 . S
C1162 C1168 1.368 . S
C1163 C1147 1.349 . S
C1163 H1155 0.950 . S
C1163 C1161 1.327 . S
C1164 C1152 1.349 . S
C1164 H1158 0.950 . S
C1164 C1165 1.327 . S
C1165 H1159 0.950 . S
C1165 C1164 1.327 . S
C1165 C1169 1.429 . S
C1166 C1149 1.574 1_545 S
C1166 H1160 0.949 . S
C1166 C1170 1.368 . S
C1167 C1148 1.429 . S
C1167 C1161 1.429 . S
C1167 C1168 1.523 . S
C1168 C1149 1.368 . S
C1168 C1162 1.368 . S
C1168 C1167 1.523 . S
C1169 C1153 1.429 . S
C1169 C1165 1.429 . S
C1169 C1170 1.523 . S
C1170 C1154 1.368 . S
C1170 C1166 1.368 . S
C1170 C1169 1.523 . S
H1171 C1146 0.950 . S
H1172 C1148 0.950 . S
H1173 C1149 0.949 . S
H1174 C1151 0.950 . S
H1175 C1153 0.950 . S
C1176 C1177 1.349 . S
C1176 C1178 1.327 . S
C1176 H1201 0.950 . S
C1177 C1176 1.349 . S
C1177 C1193 1.349 . S
C1178 C1176 1.327 . S
C1178 C1197 1.429 . S
C1178 H1202 0.950 . S
C1179 C1196 1.574 . S
C1179 C1198 1.368 . S
C1179 H1203 0.949 . S
H1180 C1184 0.949 . S
C1181 C1182 1.349 . S
C1181 C1183 1.327 . S
C1181 H1204 0.950 . S
C1182 C1181 1.349 . S
C1182 C1194 1.349 . S
C1183 C1181 1.327 . S
C1183 C1199 1.429 . S
C1183 H1205 0.950 . S
C1184 H1180 0.949 . S
C1184 C1192 1.574 . S
C1184 C1200 1.368 . S
H1185 C1193 0.950 . S
H1186 C1191 0.950 . S
H1187 C1192 0.949 . S
H1188 C1194 0.950 . S
H1189 C1195 0.950 . S
H1190 C1196 0.949 . S
C1191 H1186 0.950 . S
C1191 C1193 1.327 . S
C1191 C1197 1.429 . S
C1192 C1184 1.574 . S
C1192 H1187 0.949 . S
C1192 C1198 1.368 . S
C1193 C1177 1.349 . S
C1193 H1185 0.950 . S
C1193 C1191 1.327 . S
C1194 C1182 1.349 . S
C1194 H1188 0.950 . S
C1194 C1195 1.327 . S
C1195 H1189 0.950 . S
C1195 C1194 1.327 . S
C1195 C1199 1.429 . S
C1196 C1179 1.574 . S
C1196 H1190 0.949 . S
C1196 C1200 1.368 . S
C1197 C1178 1.429 . S
C1197 C1191 1.429 . S
C1197 C1198 1.523 . S
C1198 C1179 1.368 . S
C1198 C1192 1.368 . S
C1198 C1197 1.523 . S
C1199 C1183 1.429 . S
C1199 C1195 1.429 . S
C1199 C1200 1.523 . S
C1200 C1184 1.368 . S
C1200 C1196 1.368 . S
C1200 C1199 1.523 . S
H1201 C1176 0.950 . S
H1202 C1178 0.950 . S
H1203 C1179 0.949 . S
H1204 C1181 0.950 . S
H1205 C1183 0.950 . S
C1206 C1207 1.349 . S
C1206 C1208 1.327 . S
C1206 H1231 0.950 . S
C1207 C1206 1.349 . S
C1207 C1223 1.349 . S
C1208 C1206 1.327 . S
C1208 C1227 1.429 . S
C1208 H1232 0.950 . S
C1209 C1226 1.574 . S
C1209 C1228 1.368 . S
C1209 H1233 0.949 . S
H1210 C1214 0.949 . S
C1211 C1212 1.349 . S
C1211 C1213 1.327 . S
C1211 H1234 0.950 . S
C1212 C1211 1.349 . S
C1212 C1224 1.349 . S
C1213 C1211 1.327 . S
C1213 C1229 1.429 . S
C1213 H1235 0.950 . S
C1214 H1210 0.949 . S
C1214 C1222 1.574 . S
C1214 C1230 1.368 . S
H1215 C1223 0.950 . S
H1216 C1221 0.950 . S
H1217 C1222 0.949 . S
H1218 C1224 0.950 . S
H1219 C1225 0.950 . S
H1220 C1226 0.949 . S
C1221 H1216 0.950 . S
C1221 C1223 1.327 . S
C1221 C1227 1.429 . S
C1222 C1214 1.574 . S
C1222 H1217 0.949 . S
C1222 C1228 1.368 . S
C1223 C1207 1.349 . S
C1223 H1215 0.950 . S
C1223 C1221 1.327 . S
C1224 C1212 1.349 . S
C1224 H1218 0.950 . S
C1224 C1225 1.327 . S
C1225 H1219 0.950 . S
C1225 C1224 1.327 . S
C1225 C1229 1.429 . S
C1226 C1209 1.574 . S
C1226 H1220 0.949 . S
C1226 C1230 1.368 . S
C1227 C1208 1.429 . S
C1227 C1221 1.429 . S
C1227 C1228 1.523 . S
C1228 C1209 1.368 . S
C1228 C1222 1.368 . S
C1228 C1227 1.523 . S
C1229 C1213 1.429 . S
C1229 C1225 1.429 . S
C1229 C1230 1.523 . S
C1230 C1214 1.368 . S
C1230 C1226 1.368 . S
C1230 C1229 1.523 . S
H1231 C1206 0.950 . S
H1232 C1208 0.950 . S
H1233 C1209 0.949 . S
H1234 C1211 0.950 . S
H1235 C1213 0.950 . S
C1236 C1237 1.349 . S
C1236 C1238 1.327 . S
C1236 H1261 0.950 . S
C1237 C1236 1.349 . S
C1237 C1253 1.349 . S
C1238 C1236 1.327 . S
C1238 C1257 1.429 . S
C1238 H1262 0.950 . S
C1239 C1256 1.574 . S
C1239 C1258 1.368 . S
C1239 H1263 0.949 . S
H1240 C1244 0.949 . S
C1241 C1242 1.349 . S
C1241 C1243 1.327 . S
C1241 H1264 0.950 . S
C1242 C1241 1.349 . S
C1242 C1254 1.349 . S
C1243 C1241 1.327 . S
C1243 C1259 1.429 . S
C1243 H1265 0.950 . S
C1244 H1240 0.949 . S
C1244 C1252 1.574 . S
C1244 C1260 1.368 . S
H1245 C1253 0.950 . S
H1246 C1251 0.950 . S
H1247 C1252 0.949 . S
H1248 C1254 0.950 . S
H1249 C1255 0.950 . S
H1250 C1256 0.949 . S
C1251 H1246 0.950 . S
C1251 C1253 1.327 . S
C1251 C1257 1.429 . S
C1252 C1244 1.574 . S
C1252 H1247 0.949 . S
C1252 C1258 1.368 . S
C1253 C1237 1.349 . S
C1253 H1245 0.950 . S
C1253 C1251 1.327 . S
C1254 C1242 1.349 . S
C1254 H1248 0.950 . S
C1254 C1255 1.327 . S
C1255 H1249 0.950 . S
C1255 C1254 1.327 . S
C1255 C1259 1.429 . S
C1256 C1239 1.574 . S
C1256 H1250 0.949 . S
C1256 C1260 1.368 . S
C1257 C1238 1.429 . S
C1257 C1251 1.429 . S
C1257 C1258 1.523 . S
C1258 C1239 1.368 . S
C1258 C1252 1.368 . S
C1258 C1257 1.523 . S
C1259 C1243 1.429 . S
C1259 C1255 1.429 . S
C1259 C1260 1.523 . S
C1260 C1244 1.368 . S
C1260 C1256 1.368 . S
C1260 C1259 1.523 . S
H1261 C1236 0.950 . S
H1262 C1238 0.950 . S
H1263 C1239 0.949 . S
H1264 C1241 0.950 . S
H1265 C1243 0.950 . S
C1266 C1267 1.349 . S
C1266 C1268 1.327 . S
C1266 H1291 0.950 . S
C1267 C1266 1.349 . S
C1267 C1283 1.349 . S
C1268 C1266 1.327 . S
C1268 C1287 1.429 . S
C1268 H1292 0.950 . S
C1269 C1286 1.574 . S
C1269 C1288 1.368 . S
C1269 H1293 0.949 . S
H1270 C1274 0.949 . S
C1271 C1272 1.349 . S
C1271 C1273 1.327 . S
C1271 H1294 0.950 . S
C1272 C1271 1.349 . S
C1272 C1284 1.349 . S
C1273 C1271 1.327 . S
C1273 C1289 1.429 . S
C1273 H1295 0.950 . S
C1274 H1270 0.949 . S
C1274 C1282 1.574 . S
C1274 C1290 1.368 . S
H1275 C1283 0.950 . S
H1276 C1281 0.950 . S
H1277 C1282 0.949 . S
H1278 C1284 0.950 . S
H1279 C1285 0.950 . S
H1280 C1286 0.949 . S
C1281 H1276 0.950 . S
C1281 C1283 1.327 . S
C1281 C1287 1.429 . S
C1282 C1274 1.574 . S
C1282 H1277 0.949 . S
C1282 C1288 1.368 . S
C1283 C1267 1.349 . S
C1283 H1275 0.950 . S
C1283 C1281 1.327 . S
C1284 C1272 1.349 . S
C1284 H1278 0.950 . S
C1284 C1285 1.327 . S
C1285 H1279 0.950 . S
C1285 C1284 1.327 . S
C1285 C1289 1.429 . S
C1286 C1269 1.574 . S
C1286 H1280 0.949 . S
C1286 C1290 1.368 . S
C1287 C1268 1.429 . S
C1287 C1281 1.429 . S
C1287 C1288 1.523 . S
C1288 C1269 1.368 . S
C1288 C1282 1.368 . S
C1288 C1287 1.523 . S
C1289 C1273 1.429 . S
C1289 C1285 1.429 . S
C1289 C1290 1.523 . S
C1290 C1274 1.368 . S
C1290 C1286 1.368 . S
C1290 C1289 1.523 . S
H1291 C1266 0.950 . S
H1292 C1268 0.950 . S
H1293 C1269 0.949 . S
H1294 C1271 0.950 . S
H1295 C1273 0.950 . S
C1296 C1297 1.349 . S
C1296 C1298 1.327 . S
C1296 H1321 0.950 . S
C1297 C1296 1.349 . S
C1297 C1313 1.349 . S
C1298 C1296 1.327 . S
C1298 C1317 1.429 . S
C1298 H1322 0.950 . S
C1299 C1316 1.574 . S
C1299 C1318 1.368 . S
C1299 H1323 0.949 . S
H1300 C1304 0.949 . S
C1301 C1302 1.349 . S
C1301 C1303 1.327 . S
C1301 H1324 0.950 . S
C1302 C1301 1.349 . S
C1302 C1314 1.349 . S
C1303 C1301 1.327 . S
C1303 C1319 1.429 . S
C1303 H1325 0.950 . S
C1304 H1300 0.949 . S
C1304 C1312 1.574 . S
C1304 C1320 1.368 . S
H1305 C1313 0.950 . S
H1306 C1311 0.950 . S
H1307 C1312 0.949 . S
H1308 C1314 0.950 . S
H1309 C1315 0.950 . S
H1310 C1316 0.949 . S
C1311 H1306 0.950 . S
C1311 C1313 1.327 . S
C1311 C1317 1.429 . S
C1312 C1304 1.574 . S
C1312 H1307 0.949 . S
C1312 C1318 1.368 . S
C1313 C1297 1.349 . S
C1313 H1305 0.950 . S
C1313 C1311 1.327 . S
C1314 C1302 1.349 . S
C1314 H1308 0.950 . S
C1314 C1315 1.327 . S
C1315 H1309 0.950 . S
C1315 C1314 1.327 . S
C1315 C1319 1.429 . S
C1316 C1299 1.574 . S
C1316 H1310 0.949 . S
C1316 C1320 1.368 . S
C1317 C1298 1.429 . S
C1317 C1311 1.429 . S
C1317 C1318 1.523 . S
C1318 C1299 1.368 . S
C1318 C1312 1.368 . S
C1318 C1317 1.523 . S
C1319 C1303 1.429 . S
C1319 C1315 1.429 . S
C1319 C1320 1.523 . S
C1320 C1304 1.368 . S
C1320 C1316 1.368 . S
C1320 C1319 1.523 . S
H1321 C1296 0.950 . S
H1322 C1298 0.950 . S
H1323 C1299 0.949 . S
H1324 C1301 0.950 . S
H1325 C1303 0.950 . S
C1326 C1327 1.349 . S
C1326 C1328 1.327 . S
C1326 H1351 0.950 . S
C1327 C1326 1.349 . S
C1327 C1343 1.349 . S
C1328 C1326 1.327 . S
C1328 C1347 1.429 . S
C1328 H1352 0.950 . S
C1329 C1346 1.574 . S
C1329 C1348 1.368 . S
C1329 H1353 0.949 . S
H1330 C1334 0.949 . S
C1331 C1332 1.349 . S
C1331 C1333 1.327 . S
C1331 H1354 0.950 . S
C1332 C1331 1.349 . S
C1332 C1344 1.349 . S
C1333 C1331 1.327 . S
C1333 C1349 1.429 . S
C1333 H1355 0.950 . S
C1334 H1330 0.949 . S
C1334 C1342 1.574 . S
C1334 C1350 1.368 . S
H1335 C1343 0.950 . S
H1336 C1341 0.950 . S
H1337 C1342 0.949 . S
H1338 C1344 0.950 . S
H1339 C1345 0.950 . S
H1340 C1346 0.949 . S
C1341 H1336 0.950 . S
C1341 C1343 1.327 . S
C1341 C1347 1.429 . S
C1342 C1334 1.574 . S
C1342 H1337 0.949 . S
C1342 C1348 1.368 . S
C1343 C1327 1.349 . S
C1343 H1335 0.950 . S
C1343 C1341 1.327 . S
C1344 C1332 1.349 . S
C1344 H1338 0.950 . S
C1344 C1345 1.327 . S
C1345 H1339 0.950 . S
C1345 C1344 1.327 . S
C1345 C1349 1.429 . S
C1346 C1329 1.574 . S
C1346 H1340 0.949 . S
C1346 C1350 1.368 . S
C1347 C1328 1.429 . S
C1347 C1341 1.429 . S
C1347 C1348 1.523 . S
C1348 C1329 1.368 . S
C1348 C1342 1.368 . S
C1348 C1347 1.523 . S
C1349 C1333 1.429 . S
C1349 C1345 1.429 . S
C1349 C1350 1.523 . S
C1350 C1334 1.368 . S
C1350 C1346 1.368 . S
C1350 C1349 1.523 . S
H1351 C1326 0.950 . S
H1352 C1328 0.950 . S
H1353 C1329 0.949 . S
H1354 C1331 0.950 . S
H1355 C1333 0.950 . S
C637 C22 1.646 . S
C642 C340 1.646 . S
C667 C75 1.646 . S
C672 C393 1.646 . S
C697 C128 1.646 . S
C702 C446 1.646 . S
C727 C181 1.646 . S
C732 C499 1.646 . S
C757 C234 1.646 . S
C762 C552 1.646 . S
C787 C605 1.646 . S
C792 C287 1.646 . S
C817 C38 1.903 . S
C822 C568 1.903 . S
C847 C91 1.903 . S
C852 C621 1.903 . S
C877 C144 1.903 . S
C882 C356 1.903 . S
C907 C197 1.903 . S
C912 C409 1.903 . S
C937 C250 1.903 . S
C942 C462 1.903 . S
C967 C303 1.903 . S
C972 C515 1.903 . S
C997 C39 1.961 . S
C1002 C198 1.961 . S
C1027 C92 1.960 . S
C1032 C251 1.960 . S
C1057 C304 1.960 . S
C1062 C145 1.960 . S
C1087 C357 1.960 . S
C1092 C516 1.960 . S
C1117 C569 1.960 . S
C1122 C410 1.960 . S
C1147 C463 1.960 . S
C1152 C622 1.960 . S
C1177 C347 1.289 . S
C1182 C29 1.289 . S
C1207 C82 1.289 . S
C1212 C400 1.289 . S
C1237 C135 1.289 . S
C1242 C453 1.289 . S
C1267 C506 1.289 . S
C1272 C188 1.289 . S
C1297 C559 1.289 . S
C1302 C241 1.289 . S
C1327 C294 1.289 . S
C1332 C612 1.289 . S
