# Generated by pormake.
# Topology irl, (4)-cn, num edge types: 1
# Building blocks:
#     Node 0, Type 0, BuildingBlock: ICAMEG_clean_sbu_1, # of connection points: 4
#     Node 1, Type 0, BuildingBlock: ICAMEG_clean_sbu_1, # of connection points: 4
#     Node 2, Type 0, BuildingBlock: ICAMEG_clean_sbu_1, # of connection points: 4
#     Node 3, Type 0, BuildingBlock: ICAMEG_clean_sbu_1, # of connection points: 4
#     Node 4, Type 0, BuildingBlock: ICAMEG_clean_sbu_1, # of connection points: 4
#     Node 5, Type 0, BuildingBlock: ICAMEG_clean_sbu_1, # of connection points: 4
#     Node 6, Type 0, BuildingBlock: ICAMEG_clean_sbu_1, # of connection points: 4
#     Node 7, Type 0, BuildingBlock: ICAMEG_clean_sbu_1, # of connection points: 4
#     Edge 8, Type (0, 0), BuildingBlock: CIFDUS_clean_linker_0, # of connection points: 2
#     Edge 9, Type (0, 0), BuildingBlock: CIFDUS_clean_linker_0, # of connection points: 2
#     Edge 10, Type (0, 0), BuildingBlock: CIFDUS_clean_linker_0, # of connection points: 2
#     Edge 11, Type (0, 0), BuildingBlock: CIFDUS_clean_linker_0, # of connection points: 2
#     Edge 12, Type (0, 0), BuildingBlock: CIFDUS_clean_linker_0, # of connection points: 2
#     Edge 13, Type (0, 0), BuildingBlock: CIFDUS_clean_linker_0, # of connection points: 2
#     Edge 14, Type (0, 0), BuildingBlock: CIFDUS_clean_linker_0, # of connection points: 2
#     Edge 15, Type (0, 0), BuildingBlock: CIFDUS_clean_linker_0, # of connection points: 2
#     Edge 16, Type (0, 0), BuildingBlock: CIFDUS_clean_linker_0, # of connection points: 2
#     Edge 17, Type (0, 0), BuildingBlock: CIFDUS_clean_linker_0, # of connection points: 2
#     Edge 18, Type (0, 0), BuildingBlock: CIFDUS_clean_linker_0, # of connection points: 2
#     Edge 19, Type (0, 0), BuildingBlock: CIFDUS_clean_linker_0, # of connection points: 2
#     Edge 20, Type (0, 0), BuildingBlock: CIFDUS_clean_linker_0, # of connection points: 2
#     Edge 21, Type (0, 0), BuildingBlock: CIFDUS_clean_linker_0, # of connection points: 2
#     Edge 22, Type (0, 0), BuildingBlock: CIFDUS_clean_linker_0, # of connection points: 2
#     Edge 23, Type (0, 0), BuildingBlock: CIFDUS_clean_linker_0, # of connection points: 2
# Relax obj value: 0.025
# Max RMSD: 0.075
# Mean RMSD: 0.075
data_MOF--net-irl--node1-ICAMEG_clean_sbu_1--edge1-CIFDUS_clean_linker_0
_symmetry_space_group_name_H-M    P1
_symmetry_Int_Tables_number       1
_symmetry_cell_setting            triclinic
loop_
_symmetry_equiv_pos_as_xyz
'x, y, z'
_cell_length_a     30.49601
_cell_length_b     43.575284
_cell_length_c     26.784247
_cell_angle_alpha  90.005471
_cell_angle_beta   89.965399
_cell_angle_gamma 89.333172
loop_
_atom_site_label
_atom_site_type_symbol
_atom_site_fract_x
_atom_site_fract_y
_atom_site_fract_z
_atom_type_partial_charge
Co0 Co 0.0171 0.16044 0.9967 0.0
Co1 Co 0.11318 0.12946 0.04583 0.0
O2 O 0.08127 0.15655 0.99963 0.0
C3 C 0.04266 0.14278 0.89421 0.0
O4 O 0.07199 0.12417 0.91393 0.0
C5 C 0.15224 0.19076 0.06329 0.0
O6 O 0.11262 0.20288 0.06233 0.0
O7 O 0.07748 0.14465 0.10366 0.0
O8 O 0.0133 0.16064 0.07094 0.0
H9 H 0.12583 0.05264 0.18504 0.0
H10 H 0.07175 0.20379 0.93943 0.0
O11 O 0.01863 0.15976 0.9219 0.0
H12 H 0.98667 0.26803 0.05709 0.0
H13 H 0.87457 0.20227 0.92874 0.0
H14 H 0.9431 0.1322 0.05122 0.0
H15 H 0.97689 0.21192 0.05496 0.0
H16 H 0.95509 0.19724 0.93409 0.0
O17 O 0.15764 0.16196 0.05817 0.0
H18 H 0.08671 0.08643 0.12562 0.0
H19 H 0.20795 0.1157 0.06494 0.0
H20 H 0.86248 0.13669 0.04744 0.0
H21 H 0.08238 0.25985 0.94007 0.0
H22 H 0.8277 0.17194 0.98584 0.0
H23 H 0.03972 0.29234 0.99933 0.0
O24 O 0.01008 0.11513 0.99661 0.0
H25 H 0.20239 0.14162 0.88944 0.0
H26 H 0.14208 0.06764 0.00976 0.0
H27 H 0.18422 0.04859 0.93727 0.0
H28 H 0.21479 0.08574 0.87651 0.0
H29 H 0.15948 0.15958 0.96207 0.0
H30 H 0.24838 0.08244 0.12398 0.0
H31 H 0.20726 0.05051 0.18445 0.0
O32 O 0.07057 0.0959 0.03377 0.0
C33 C 0.03816 0.15477 0.10805 0.0
C34 C 0.14411 0.06637 0.15877 0.0
C35 C 0.21289 0.08314 0.12455 0.0
N36 N 0.14499 0.10286 0.09164 0.0
C37 C 0.12214 0.08548 0.12495 0.0
C38 C 0.18982 0.102 0.09131 0.0
C39 C 0.1898 0.06522 0.15845 0.0
C40 C 0.05278 0.21783 0.96497 0.0
N41 N 0.02359 0.20465 0.99691 0.0
C42 C 0.05906 0.24953 0.96531 0.0
C43 C 0.03517 0.26774 0.99862 0.0
C44 C 0.00542 0.25412 0.03107 0.0
C45 C 1.00008 0.22234 0.02976 0.0
C46 C 0.88934 0.1869 0.95583 0.0
C47 C 0.92822 0.14774 0.02456 0.0
C48 C 0.9349 0.18392 0.95898 0.0
N49 N 0.95377 0.16465 0.99326 0.0
C50 C 0.88254 0.15012 0.02249 0.0
C51 C 0.86306 0.16988 0.98788 0.0
C52 C 0.033 0.09285 0.01365 0.0
C53 C 0.18922 0.1252 0.91562 0.0
C54 C 0.15481 0.08388 0.98318 0.0
C55 C 0.17891 0.07299 0.94238 0.0
C56 C 0.19611 0.09385 0.90835 0.0
N57 N 0.14799 0.11464 0.98993 0.0
C58 C 0.16501 0.13524 0.95691 0.0
Co59 Co 0.99478 0.84742 0.00389 0.0
Co60 Co 0.89601 0.87804 0.04494 0.0
O61 O 0.93048 0.84978 1.00309 0.0
C62 C 0.97632 0.85928 0.89837 0.0
O63 O 0.94641 0.87928 0.91284 0.0
C64 C 0.85522 0.8174 0.06534 0.0
O65 O 0.89459 0.80523 0.07018 0.0
O66 O 0.92843 0.86437 0.10619 0.0
O67 O 0.99589 0.8529 0.07714 0.0
H68 H 0.87517 0.95865 0.17723 0.0
H69 H 0.94505 0.79871 0.95272 0.0
O70 O 0.99649 0.84271 0.93011 0.0
H71 H 0.02748 0.7459 0.08644 0.0
H72 H 0.1417 0.80413 0.95195 0.0
H73 H 0.0653 0.88242 0.05369 0.0
H74 H 0.03468 0.80169 0.07385 0.0
H75 H 0.0609 0.8073 0.95294 0.0
O76 O 0.85069 0.84587 0.05596 0.0
H77 H 0.91771 0.92315 0.12366 0.0
H78 H 0.80039 0.89234 0.05563 0.0
H79 H 0.1461 0.87991 0.0542 0.0
H80 H 0.9371 0.74281 0.96374 0.0
H81 H 0.18486 0.84053 1.00303 0.0
H82 H 0.97843 0.71608 0.0311 0.0
O83 O 0.99933 0.89258 0.99564 0.0
H84 H 0.81623 0.86167 0.88322 0.0
H85 H 0.86998 0.93891 1.00212 0.0
H86 H 0.83234 0.95593 0.92537 0.0
H87 H 0.80507 0.91714 0.8653 0.0
H88 H 0.8546 0.84573 0.96015 0.0
H89 H 0.75657 0.92727 0.10881 0.0
H90 H 0.794 0.96085 0.16999 0.0
O91 O 0.93935 0.91144 0.03416 0.0
C92 C 0.96904 0.85797 0.11255 0.0
C93 C 0.85849 0.94418 0.15063 0.0
C94 C 0.79192 0.92653 0.11229 0.0
N95 N 0.86159 0.9058 0.08638 0.0
C96 C 0.88241 0.92409 0.12012 0.0
C97 C 0.8169 0.90672 0.08239 0.0
C98 C 0.81295 0.94538 0.14659 0.0
C99 C 0.96343 0.78715 0.98179 0.0
N100 N 0.99044 0.80338 0.01243 0.0
C101 C 0.95868 0.75554 0.98799 0.0
C102 C 0.98183 0.74056 0.02584 0.0
C103 C 0.00933 0.75728 0.05693 0.0
C104 C 0.0132 0.78888 0.0497 0.0
C105 C 0.12519 0.82129 0.9746 0.0
C106 C 0.08189 0.865 0.03183 0.0
C107 C 0.07945 0.8232 0.97532 0.0
N108 N 0.05836 0.84473 0.004 0.0
C109 C 0.12767 0.86379 0.03204 0.0
C110 C 0.14939 0.84172 1.00326 0.0
C111 C 0.97631 0.91484 0.01265 0.0
C112 C 0.82796 0.8788 0.9091 0.0
C113 C 0.85865 0.92194 0.97596 0.0
C114 C 0.83711 0.93169 0.93268 0.0
C115 C 0.82176 0.90992 0.89903 0.0
N116 N 0.86474 0.89139 0.98552 0.0
C117 C 0.8496 0.86991 0.9528 0.0
Co118 Co 0.01197 0.84349 0.5051 0.0
Co119 Co 0.11088 0.87365 0.46512 0.0
O120 O 0.076 0.84756 0.50937 0.0
C121 C 0.02563 0.86492 0.60788 0.0
O122 O 0.05642 0.88308 0.59136 0.0
C123 C 0.15509 0.81199 0.45418 0.0
O124 O 0.11661 0.79889 0.45123 0.0
O125 O 0.08038 0.85747 0.40445 0.0
O126 O 0.0153 0.84067 0.43182 0.0
H127 H 0.13263 0.94772 0.32381 0.0
H128 H 0.06295 0.80263 0.57223 0.0
O129 O 0.00605 0.84663 0.57879 0.0
H130 H 0.99092 0.73368 0.45237 0.0
H131 H 0.86506 0.80325 0.55855 0.0
H132 H 0.94284 0.86927 0.43892 0.0
H133 H 0.97886 0.78967 0.4479 0.0
H134 H 0.9454 0.80857 0.56301 0.0
O135 O 0.1576 0.84097 0.45921 0.0
H136 H 0.08983 0.91505 0.38056 0.0
H137 H 0.20637 0.88738 0.45566 0.0
H138 H 0.86253 0.8644 0.43288 0.0
H139 H 0.07569 0.74672 0.57833 0.0
H140 H 0.8231 0.8312 0.493 0.0
H141 H 0.03962 0.71186 0.518 0.0
O142 O 1.0031 0.88889 0.5003 0.0
H143 H 0.18673 0.86435 0.63099 0.0
H144 H 0.13501 0.93614 0.501 0.0
H145 H 0.17034 0.95647 0.57669 0.0
H146 H 0.19659 0.92042 0.64233 0.0
H147 H 0.15063 0.84511 0.55498 0.0
H148 H 0.25047 0.91954 0.39946 0.0
H149 H 0.21356 0.95011 0.33307 0.0
O150 O 0.06644 0.90748 0.47078 0.0
C151 C 0.04232 0.84631 0.39704 0.0
C152 C 0.14908 0.93457 0.35267 0.0
C153 C 0.21522 0.91871 0.39507 0.0
N154 N 0.14553 0.89941 0.42152 0.0
C155 C 0.12501 0.91608 0.38499 0.0
C156 C 0.19009 0.90044 0.42667 0.0
C157 C 0.19449 0.93587 0.35785 0.0
C158 C 0.04689 0.78756 0.54611 0.0
N159 N 0.02011 0.79937 0.50985 0.0
C160 C 0.05433 0.75595 0.54963 0.0
C161 C 0.03413 0.7364 0.51573 0.0
C162 C 0.00682 0.74863 0.47887 0.0
C163 C 1.00021 0.78036 0.47643 0.0
C164 C 0.88188 0.81774 0.53208 0.0
C165 C 0.92595 0.85463 0.46503 0.0
C166 C 0.92736 0.82089 0.53448 0.0
N167 N 0.94883 0.83904 0.50102 0.0
C168 C 0.88046 0.85203 0.46151 0.0
C169 C 0.85836 0.83342 0.49529 0.0
C170 C 0.02687 0.91097 0.48535 0.0
C171 C 0.17541 0.88029 0.60268 0.0
C172 C 0.14583 0.92038 0.52963 0.0
C173 C 0.1661 0.93199 0.57228 0.0
C174 C 0.18088 0.91175 0.60905 0.0
N175 N 0.14042 0.88951 0.52372 0.0
C176 C 0.15505 0.86952 0.5595 0.0
Co177 Co 0.99111 0.15688 0.50758 0.0
Co178 Co 0.89212 0.13307 0.45833 0.0
O179 O 0.92694 0.15708 0.50542 0.0
C180 C 0.9647 0.1409 0.61055 0.0
O181 O 0.93345 0.12412 0.59145 0.0
C182 C 0.86092 0.19725 0.44383 0.0
O183 O 0.90228 0.20524 0.44231 0.0
O184 O 0.92839 0.14709 0.40055 0.0
O185 O 0.99443 0.15727 0.43335 0.0
H186 H 0.86927 0.06027 0.31549 0.0
H187 H 0.94133 0.20339 0.56582 0.0
O188 O 0.99012 0.15606 0.58234 0.0
H189 H 0.03199 0.26242 0.44833 0.0
H190 H 0.13801 0.18871 0.57448 0.0
H191 H 0.0615 0.12416 0.45181 0.0
H192 H 0.03612 0.20585 0.44971 0.0
H193 H 0.05721 0.1891 0.57 0.0
O194 O 0.85103 0.1691 0.44898 0.0
H195 H 0.9128 0.09006 0.37567 0.0
H196 H 0.79612 0.12626 0.44065 0.0
H197 H 0.14233 0.12326 0.4547 0.0
H198 H 0.93637 0.25995 0.56595 0.0
H199 H 0.18113 0.15571 0.5164 0.0
H200 H 0.98184 0.28983 0.50678 0.0
O201 O 0.99318 0.11132 0.50685 0.0
H202 H 0.80487 0.14731 0.61607 0.0
H203 H 0.85988 0.07222 0.49267 0.0
H204 H 0.81675 0.05426 0.56465 0.0
H205 H 0.78885 0.09195 0.62694 0.0
H206 H 0.84861 0.1642 0.54384 0.0
H207 H 0.75133 0.09706 0.38095 0.0
H208 H 0.78793 0.06368 0.31791 0.0
O209 O 0.9319 0.09635 0.46737 0.0
C210 C 0.96879 0.15409 0.39621 0.0
C211 C 0.85294 0.07466 0.34288 0.0
C212 C 0.78675 0.09534 0.37957 0.0
N213 N 0.85702 0.10969 0.41184 0.0
C214 C 0.87741 0.09151 0.37713 0.0
C215 C 0.81228 0.11188 0.41321 0.0
C216 C 0.8073 0.0766 0.34423 0.0
C217 C 0.96154 0.21627 0.54034 0.0
N218 N 0.98916 0.20137 0.50802 0.0
C219 C 0.95845 0.24827 0.54042 0.0
C220 C 0.98392 0.26502 0.50715 0.0
C221 C 0.01205 0.24965 0.47433 0.0
C222 C 0.0142 0.21762 0.47522 0.0
C223 C 0.12149 0.17453 0.54735 0.0
C224 C 0.07815 0.1385 0.47851 0.0
C225 C 0.07575 0.17461 0.54469 0.0
N226 N 0.05468 0.15686 0.51036 0.0
C227 C 0.12392 0.13783 0.48008 0.0
C228 C 0.14566 0.15601 0.51475 0.0
C229 C 0.96896 0.09069 0.48788 0.0
C230 C 0.81679 0.13067 0.58914 0.0
C231 C 0.84815 0.08871 0.5198 0.0
C232 C 0.82356 0.07843 0.56037 0.0
C233 C 0.80787 0.0996 0.59526 0.0
N234 N 0.85683 0.11921 0.51408 0.0
C235 C 0.84142 0.14011 0.54805 0.0
Co236 Co 0.52933 0.64952 0.00474 0.0
Co237 Co 0.62775 0.62897 0.05882 0.0
O238 O 0.59353 0.65217 0.00903 0.0
C239 C 0.55777 0.63779 0.90038 0.0
O240 O 0.59034 0.62111 0.918 0.0
C241 C 0.66467 0.69225 0.06832 0.0
O242 O 0.62491 0.70416 0.06832 0.0
O243 O 0.59112 0.64652 0.11397 0.0
O244 O 0.52422 0.64717 0.07915 0.0
H245 H 0.64695 0.56249 0.21066 0.0
H246 H 0.57454 0.70004 0.95285 0.0
O247 O 0.53149 0.6516 0.92995 0.0
H248 H 0.47366 0.75069 0.07183 0.0
H249 H 0.38006 0.67729 0.93688 0.0
H250 H 0.46235 0.61141 0.05456 0.0
H251 H 0.47695 0.69424 0.06551 0.0
H252 H 0.46043 0.68128 0.944 0.0
O253 O 0.67028 0.66336 0.06503 0.0
H254 H 0.60503 0.59098 0.14667 0.0
H255 H 0.72346 0.61877 0.07744 0.0
H256 H 0.38198 0.60682 0.04892 0.0
H257 H 0.57208 0.75661 0.95764 0.0
H258 H 0.34028 0.63992 0.98973 0.0
H259 H 0.5214 0.78227 0.01755 0.0
O260 O 0.53308 0.60405 1.00065 0.0
H261 H 0.7167 0.63455 0.90119 0.0
H262 H 0.6588 0.56585 0.03107 0.0
H263 H 0.7021 0.544 0.96167 0.0
H264 H 0.73151 0.57846 0.89613 0.0
H265 H 0.67262 0.65536 0.97088 0.0
H266 H 0.76666 0.59077 0.1409 0.0
H267 H 0.72837 0.56227 0.20804 0.0
O268 O 0.58779 0.59308 0.05372 0.0
C269 C 0.5494 0.64878 0.11707 0.0
C270 C 0.66401 0.57477 0.18154 0.0
C271 C 0.73119 0.59068 0.14243 0.0
N272 N 0.66174 0.60644 0.10822 0.0
C273 C 0.64045 0.5909 0.14514 0.0
C274 C 0.70655 0.60657 0.10668 0.0
C275 C 0.70969 0.57468 0.18007 0.0
C276 C 0.55218 0.71109 0.97871 0.0
N277 N 0.52581 0.69391 0.00868 0.0
C278 C 0.55103 0.7431 0.98139 0.0
C279 C 0.52263 0.75748 0.01506 0.0
C280 C 0.49585 0.73978 0.04555 0.0
C281 C 0.49794 0.70782 0.04189 0.0
C282 C 0.39785 0.66281 0.96292 0.0
C283 C 0.4444 0.62605 0.02899 0.0
C284 C 0.44336 0.66494 0.96708 0.0
N285 N 0.46601 0.64681 1.00004 0.0
C286 C 0.39891 0.62328 0.02584 0.0
C287 C 0.37555 0.64184 0.99258 0.0
C288 C 0.5557 0.58508 0.02641 0.0
C289 C 0.70412 0.6193 0.92955 0.0
C290 C 0.6711 0.58096 1.00251 0.0
C291 C 0.69581 0.56847 0.96341 0.0
C292 C 0.71236 0.58782 0.92669 0.0
N293 N 0.66306 0.61185 0.00502 0.0
C294 C 0.6793 0.63096 0.96923 0.0
Co295 Co 0.48437 0.34906 1.00036 0.0
Co296 Co 0.38021 0.37721 0.02843 0.0
O297 O 0.42022 0.34964 0.99179 0.0
C298 C 0.47202 0.35958 0.89137 0.0
O299 O 0.43787 0.37692 0.90219 0.0
C300 C 0.34197 0.31576 0.05048 0.0
O301 O 0.38133 0.30466 0.05996 0.0
O302 O 0.40852 0.36602 0.09348 0.0
O303 O 0.47776 0.35222 0.07447 0.0
H304 H 0.34304 0.45884 0.15443 0.0
H305 H 0.44211 0.30043 0.94075 0.0
O306 O 0.49348 0.34612 0.92602 0.0
H307 H 0.51613 0.24632 0.07934 0.0
H308 H 0.63812 0.31194 0.96409 0.0
H309 H 0.54681 0.38334 0.06355 0.0
H310 H 0.52082 0.30258 0.07143 0.0
H311 H 0.55769 0.31299 0.95433 0.0
O312 O 0.33693 0.3436 0.03732 0.0
H313 H 0.39218 0.42435 0.10665 0.0
H314 H 0.28319 0.38809 0.02867 0.0
H315 H 0.62708 0.38287 0.07482 0.0
H316 H 0.43682 0.24409 0.94703 0.0
H317 H 0.67331 0.34698 0.02485 0.0
H318 H 0.47394 0.21669 0.01679 0.0
O319 O 0.48734 0.39459 0.99512 0.0
H320 H 0.31408 0.35419 0.86102 0.0
H321 H 0.35257 0.436 0.9798 0.0
H322 H 0.31936 0.44983 0.8988 0.0
H323 H 0.29982 0.40873 0.83878 0.0
H324 H 0.34791 0.34145 0.94218 0.0
H325 H 0.23284 0.42196 0.0759 0.0
H326 H 0.26273 0.45774 0.13918 0.0
O327 O 0.421 0.41205 0.0194 0.0
C328 C 0.4474 0.35793 0.10602 0.0
C329 C 0.32962 0.44339 0.12688 0.0
C330 C 0.26777 0.42266 0.08287 0.0
N331 N 0.34061 0.40432 0.06477 0.0
C332 C 0.35729 0.42387 0.09963 0.0
C333 C 0.29643 0.40345 0.05635 0.0
C334 C 0.28456 0.44274 0.11834 0.0
C335 C 0.45864 0.28861 0.97096 0.0
N336 N 0.48192 0.30473 0.00549 0.0
C337 C 0.4554 0.25674 0.97443 0.0
C338 C 0.47619 0.24138 0.01362 0.0
C339 C 0.49985 0.258 0.04874 0.0
C340 C 0.50231 0.28986 0.04412 0.0
C341 C 0.61833 0.32765 0.98614 0.0
C342 C 0.56669 0.36754 0.04188 0.0
C343 C 0.57278 0.32839 0.9807 0.0
N344 N 0.54756 0.34807 0.0086 0.0
C345 C 0.61213 0.36743 0.04833 0.0
C346 C 0.63805 0.34731 0.02025 0.0
C347 C 0.46024 0.41623 0.00502 0.0
C348 C 0.32246 0.3723 0.88684 0.0
C349 C 0.34457 0.41804 0.95367 0.0
C350 C 0.32554 0.42598 0.90798 0.0
C351 C 0.31452 0.40291 0.87436 0.0
N352 N 0.35247 0.38798 0.96553 0.0
C353 C 0.34149 0.36522 0.9329 0.0
Co354 Co 0.50809 0.343 0.48935 0.0
Co355 Co 0.61306 0.36783 0.46174 0.0
O356 O 0.57184 0.34215 0.4987 0.0
C357 C 0.52001 0.35534 0.59774 0.0
O358 O 0.55443 0.37165 0.5861 0.0
C359 C 0.645 0.30418 0.44273 0.0
O360 O 0.60408 0.29669 0.4343 0.0
O361 O 0.58463 0.3576 0.3966 0.0
O362 O 0.51525 0.34499 0.41514 0.0
H363 H 0.65589 0.44753 0.33584 0.0
H364 H 0.54859 0.29434 0.5518 0.0
O365 O 0.49845 0.34164 0.56376 0.0
H366 H 0.47551 0.23985 0.41421 0.0
H367 H 0.35344 0.31049 0.52579 0.0
H368 H 0.44672 0.37789 0.42418 0.0
H369 H 0.47156 0.29632 0.41978 0.0
H370 H 0.43381 0.30964 0.53623 0.0
O371 O 0.65433 0.33178 0.45382 0.0
H372 H 0.60435 0.41541 0.3832 0.0
H373 H 0.71045 0.37385 0.46168 0.0
H374 H 0.36656 0.37928 0.41217 0.0
H375 H 0.55314 0.23781 0.54787 0.0
H376 H 0.31933 0.34541 0.46324 0.0
H377 H 0.51652 0.21021 0.47859 0.0
O378 O 0.50634 0.38853 0.49231 0.0
H379 H 0.67813 0.34359 0.62969 0.0
H380 H 0.64151 0.42598 0.51012 0.0
H381 H 0.6749 0.43921 0.59103 0.0
H382 H 0.69351 0.39782 0.65145 0.0
H383 H 0.6442 0.33145 0.54858 0.0
H384 H 0.76315 0.40532 0.41488 0.0
H385 H 0.73592 0.44257 0.35158 0.0
O386 O 0.57328 0.40455 0.46934 0.0
C387 C 0.54573 0.3504 0.38379 0.0
C388 C 0.66814 0.43145 0.36344 0.0
C389 C 0.72835 0.40773 0.40775 0.0
N390 N 0.65435 0.39295 0.4254 0.0
C391 C 0.63911 0.41327 0.39046 0.0
C392 C 0.69836 0.38992 0.43404 0.0
C393 C 0.71305 0.42863 0.37225 0.0
C394 C 0.53221 0.28244 0.52185 0.0
N395 N 0.50964 0.29856 0.48625 0.0
C396 C 0.53505 0.25046 0.51969 0.0
C397 C 0.51455 0.23499 0.48076 0.0
C398 C 0.49156 0.25161 0.4446 0.0
C399 C 0.4895 0.28358 0.44791 0.0
C400 C 0.37367 0.32531 0.50325 0.0
C401 C 0.42642 0.36294 0.44629 0.0
C402 C 0.41919 0.32498 0.50906 0.0
N403 N 0.44495 0.34353 0.48055 0.0
C404 C 0.38103 0.36389 0.43944 0.0
C405 C 0.35455 0.3449 0.46813 0.0
C406 C 0.53349 0.40967 0.48207 0.0
C407 C 0.67023 0.36182 0.60366 0.0
C408 C 0.64921 0.40789 0.53635 0.0
C409 C 0.6683 0.41549 0.58202 0.0
C410 C 0.67878 0.39226 0.61587 0.0
N411 N 0.64084 0.37799 0.52467 0.0
C412 C 0.65117 0.35508 0.55759 0.0
Co413 Co 0.4963 0.65628 0.51497 0.0
Co414 Co 0.39931 0.62892 0.46549 0.0
O415 O 0.43195 0.6542 0.51314 0.0
C416 C 0.47292 0.63912 0.61857 0.0
O417 O 0.4431 0.62095 0.59991 0.0
C418 C 0.35591 0.6909 0.4548 0.0
O419 O 0.3945 0.70397 0.45502 0.0
O420 O 0.43305 0.6461 0.4079 0.0
O421 O 0.49899 0.65659 0.44061 0.0
H422 H 0.38452 0.55763 0.31922 0.0
H423 H 0.44359 0.70102 0.57345 0.0
O424 O 0.49614 0.65564 0.58991 0.0
H425 H 0.52871 0.76313 0.45479 0.0
H426 H 0.64104 0.69387 0.57981 0.0
H427 H 0.56855 0.62607 0.45857 0.0
H428 H 0.53697 0.70676 0.45624 0.0
H429 H 0.56036 0.69116 0.57636 0.0
O430 O 0.35312 0.66184 0.45807 0.0
H431 H 0.42448 0.58914 0.38022 0.0
H432 H 0.30443 0.61555 0.44929 0.0
H433 H 0.6493 0.62827 0.46045 0.0
H434 H 0.43454 0.75737 0.57356 0.0
H435 H 0.68607 0.66236 0.52142 0.0
H436 H 0.47722 0.7888 0.51381 0.0
O437 O 0.50216 0.61072 0.51471 0.0
H438 H 0.31401 0.6357 0.62574 0.0
H439 H 0.37362 0.56586 0.49718 0.0
H440 H 0.33404 0.54441 0.5692 0.0
H441 H 0.3038 0.57946 0.63411 0.0
H442 H 0.35444 0.65607 0.55343 0.0
H443 H 0.26316 0.58453 0.38877 0.0
H444 H 0.30326 0.55519 0.32325 0.0
O445 O 0.44322 0.59471 0.47224 0.0
C446 C 0.47326 0.65367 0.40347 0.0
C447 C 0.36668 0.57025 0.34766 0.0
C448 C 0.29857 0.58539 0.38665 0.0
N449 N 0.36686 0.60407 0.41843 0.0
C450 C 0.38914 0.58808 0.38238 0.0
C451 C 0.32212 0.603 0.42072 0.0
C452 C 0.32109 0.56892 0.34992 0.0
C453 C 0.46255 0.71459 0.54767 0.0
N454 N 0.49091 0.70066 0.51507 0.0
C455 C 0.45717 0.74646 0.54776 0.0
C456 C 0.48108 0.76408 0.51418 0.0
C457 C 0.50995 0.74969 0.48103 0.0
C458 C 0.51442 0.71776 0.48194 0.0
C459 C 0.6254 0.67898 0.553 0.0
C460 C 0.5843 0.64111 0.48499 0.0
C461 C 0.57973 0.67731 0.55093 0.0
N462 N 0.55976 0.65866 0.51702 0.0
C463 C 0.63004 0.64219 0.48598 0.0
C464 C 0.65065 0.66129 0.52022 0.0
C465 C 0.47999 0.58974 0.49365 0.0
C466 C 0.32704 0.62018 0.59772 0.0
C467 C 0.36108 0.58119 0.52552 0.0
C468 C 0.33841 0.56895 0.56608 0.0
C469 C 0.32138 0.58863 0.60243 0.0
N470 N 0.36666 0.61214 0.52124 0.0
C471 C 0.34984 0.63159 0.5566 0.0
H472 H 0.93054 0.96854 0.02041 0.0
H473 H 0.06094 0.93203 0.99528 0.0
H474 H 0.08982 0.98404 0.99283 0.0
H475 H 0.07818 0.03964 1.00028 0.0
H476 H 0.94732 0.07618 0.02016 0.0
H477 H 0.91815 0.02413 0.02143 0.0
C478 C 0.9652 0.97185 0.01395 0.0
C479 C 0.99349 0.94633 0.00827 0.0
C480 C 0.98143 0.00176 0.01164 0.0
C481 C 0.03838 0.95121 0.99979 0.0
C482 C 0.05495 0.98094 0.99846 0.0
C483 C 0.04332 0.03621 0.00489 0.0
C484 C 0.01502 0.06164 0.01077 0.0
C485 C 0.02681 0.00634 0.00478 0.0
C486 C 0.96974 0.05693 0.01561 0.0
C487 C 0.95311 0.0272 0.01652 0.0
H488 H 0.07149 0.96434 0.48893 0.0
H489 H 0.94019 0.92884 0.48283 0.0
H490 H 0.91037 0.98132 0.4819 0.0
H491 H 0.92208 0.03746 0.48244 0.0
H492 H 0.05399 0.07166 0.49462 0.0
H493 H 0.08304 0.01944 0.49356 0.0
C494 C 0.03636 0.96793 0.48741 0.0
C495 C 0.00823 0.9426 0.4857 0.0
C496 C 0.01952 0.99801 0.48798 0.0
C497 C 0.96266 0.94789 0.48424 0.0
C498 C 0.94559 0.9779 0.48361 0.0
C499 C 0.95714 0.03348 0.48491 0.0
C500 C 0.98574 0.05859 0.4884 0.0
C501 C 0.97376 0.00318 0.48541 0.0
C502 C 0.03112 0.05291 0.49201 0.0
C503 C 0.04785 0.023 0.49131 0.0
H504 H 0.48604 0.55837 0.98047 0.0
H505 H 0.60037 0.53728 0.0699 0.0
H506 H 0.58314 0.48296 0.06724 0.0
H507 H 0.53415 0.44123 0.04213 0.0
H508 H 0.41767 0.46262 0.95753 0.0
H509 H 0.43723 0.51681 0.95544 0.0
C510 C 0.50732 0.54193 0.99924 0.0
C511 C 0.54465 0.55205 0.02493 0.0
C512 C 0.49682 0.51064 0.99846 0.0
C513 C 0.57157 0.5303 0.04942 0.0
C514 C 0.56177 0.49912 0.04803 0.0
C515 C 0.51348 0.45779 0.02277 0.0
C516 C 0.47458 0.44816 1.0001 0.0
C517 C 0.5244 0.48902 0.02285 0.0
C518 C 0.44756 0.46971 0.97568 0.0
C519 C 0.45877 0.50065 0.97442 0.0
H520 H 0.58068 0.46178 0.49793 0.0
H521 H 0.44953 0.42986 0.46958 0.0
H522 H 0.42203 0.48254 0.4694 0.0
H523 H 0.43502 0.5374 0.4763 0.0
H524 H 0.5645 0.57008 0.51104 0.0
H525 H 0.59293 0.51732 0.50944 0.0
C526 C 0.54611 0.46636 0.49175 0.0
C527 C 0.51729 0.44184 0.48356 0.0
C528 C 0.53022 0.49681 0.49279 0.0
C529 C 0.47247 0.44821 0.47611 0.0
C530 C 0.45668 0.47837 0.47588 0.0
C531 C 0.46939 0.53314 0.48392 0.0
C532 C 0.49745 0.5578 0.49388 0.0
C533 C 0.48524 0.50281 0.4841 0.0
C534 C 0.54203 0.55158 0.50347 0.0
C535 C 0.55834 0.5214 0.50247 0.0
H536 H 0.08089 0.1552 0.19774 0.0
H537 H 0.95163 0.16196 0.13261 0.0
H538 H 0.91876 0.16294 0.21538 0.0
H539 H 0.92615 0.15947 0.30666 0.0
H540 H 0.05567 0.15537 0.37165 0.0
H541 H 0.08852 0.15594 0.28898 0.0
C542 C 0.04556 0.15708 0.2016 0.0
C543 C 0.01894 0.15815 0.15877 0.0
C544 C 0.02666 0.15802 0.24951 0.0
C545 C 0.97315 0.16095 0.16471 0.0
C546 C 0.95416 0.16146 0.21217 0.0
C547 C 0.96155 0.15888 0.30277 0.0
C548 C 0.98818 0.15703 0.34556 0.0
C549 C 0.98053 0.15961 0.25488 0.0
C550 C 0.03411 0.15664 0.33962 0.0
C551 C 0.0531 0.15692 0.2922 0.0
H552 H 0.07904 0.86662 0.31043 0.0
H553 H 0.96724 0.81787 0.36789 0.0
H554 H 0.9337 0.81809 0.2857 0.0
H555 H 0.93426 0.83401 0.19744 0.0
H556 H 0.04658 0.88172 0.14003 0.0
H557 H 0.08126 0.88027 0.22187 0.0
C558 C 0.0477 0.85561 0.30487 0.0
C559 C 0.02584 0.8424 0.34549 0.0
C560 C 0.02816 0.85601 0.25744 0.0
C561 C 0.985 0.82834 0.33744 0.0
C562 C 0.9655 0.82857 0.2904 0.0
C563 C 0.96616 0.84419 0.20318 0.0
C564 C 0.98782 0.85797 0.16306 0.0
C565 C 0.98637 0.84282 0.25028 0.0
C566 C 0.02944 0.87077 0.17047 0.0
C567 C 0.04933 0.86997 0.21723 0.0
H568 H 0.07416 0.85796 0.69124 0.0
H569 H 0.9428 0.87547 0.63868 0.0
H570 H 0.9154 0.87637 0.72465 0.0
H571 H 0.92887 0.87088 0.81484 0.0
H572 H 0.05915 0.84787 0.86636 0.0
H573 H 0.08699 0.85008 0.78106 0.0
C574 C 0.0397 0.86224 0.699 0.0
C575 C 0.01047 0.86707 0.6595 0.0
C576 C 0.024 0.86139 0.74819 0.0
C577 C 0.96569 0.87193 0.66914 0.0
C578 C 0.95007 0.87236 0.71807 0.0
C579 C 0.96327 0.86631 0.80715 0.0
C580 C 0.99189 0.8592 0.84648 0.0
C581 C 0.97888 0.86687 0.7579 0.0
C582 C 0.0364 0.85308 0.8364 0.0
C583 C 0.05243 0.85453 0.78774 0.0
H584 H 0.96498 0.14526 0.84602 0.0
H585 H 0.10452 0.13979 0.82123 0.0
H586 H 0.09267 0.14017 0.73068 0.0
H587 H 0.04237 0.14168 0.65877 0.0
H588 H 0.90271 0.14111 0.68368 0.0
H589 H 0.91459 0.14337 0.77415 0.0
C590 C 0.99271 0.14427 0.82063 0.0
C591 C 0.03556 0.14287 0.83985 0.0
C592 C 0.98552 0.14332 0.76887 0.0
C593 C 0.0713 0.14096 0.80697 0.0
C594 C 0.06451 0.1412 0.75535 0.0
C595 C 0.01461 0.14211 0.68415 0.0
C596 C 0.97174 0.14154 0.66494 0.0
C597 C 0.02177 0.14233 0.73592 0.0
C598 C 0.93596 0.14155 0.69788 0.0
C599 C 0.94276 0.14291 0.74946 0.0
H600 H 0.58837 0.66014 0.20725 0.0
H601 H 0.46227 0.64401 0.13942 0.0
H602 H 0.42731 0.64539 0.22104 0.0
H603 H 0.43257 0.64871 0.31249 0.0
H604 H 0.55843 0.66638 0.38001 0.0
H605 H 0.59277 0.66707 0.29817 0.0
C606 C 0.55322 0.6571 0.21023 0.0
C607 C 0.52828 0.65174 0.16699 0.0
C608 C 0.53298 0.65814 0.2575 0.0
C609 C 0.48259 0.6481 0.17183 0.0
C610 C 0.4624 0.64884 0.21865 0.0
C611 C 0.46741 0.65303 0.30937 0.0
C612 C 0.49266 0.65723 0.35277 0.0
C613 C 0.48729 0.65351 0.26187 0.0
C614 C 0.53788 0.66289 0.34759 0.0
C615 C 0.55778 0.66325 0.30062 0.0
H616 H 0.46428 0.3504 0.34141 0.0
H617 H 0.60203 0.34903 0.30391 0.0
H618 H 0.58365 0.35019 0.21513 0.0
H619 H 0.52871 0.35303 0.14822 0.0
H620 H 0.39104 0.35713 0.18589 0.0
H621 H 0.40934 0.35354 0.27452 0.0
C622 C 0.49039 0.35017 0.31395 0.0
C623 C 0.53457 0.34955 0.32965 0.0
C624 C 0.47962 0.35149 0.26288 0.0
C625 C 0.56778 0.34951 0.29317 0.0
C626 C 0.55729 0.3502 0.2423 0.0
C627 C 0.50258 0.35303 0.17568 0.0
C628 C 0.45845 0.35532 0.16007 0.0
C629 C 0.51334 0.35143 0.22673 0.0
C630 C 0.42525 0.35548 0.19655 0.0
C631 C 0.43569 0.35338 0.24735 0.0
H632 H 0.42294 0.35859 0.80655 0.0
H633 H 0.55643 0.35531 0.85936 0.0
H634 H 0.58337 0.35429 0.77331 0.0
H635 H 0.56899 0.35546 0.68258 0.0
H636 H 0.43551 0.35346 0.62989 0.0
H637 H 0.40854 0.35527 0.71593 0.0
C638 C 0.4579 0.35757 0.79907 0.0
C639 C 0.48767 0.3573 0.83915 0.0
C640 C 0.47314 0.35605 0.74946 0.0
C641 C 0.53287 0.35551 0.82908 0.0
C642 C 0.54831 0.35502 0.77989 0.0
C643 C 0.53403 0.35532 0.69008 0.0
C644 C 0.50426 0.35458 0.65003 0.0
C645 C 0.51877 0.35545 0.73974 0.0
C646 C 0.45905 0.35397 0.66016 0.0
C647 C 0.44361 0.35511 0.70933 0.0
H648 H 0.47895 0.63782 0.85427 0.0
H649 H 0.61792 0.63991 0.82519 0.0
H650 H 0.60375 0.64227 0.73512 0.0
H651 H 0.55159 0.64313 0.66469 0.0
H652 H 0.41315 0.63506 0.6937 0.0
H653 H 0.42711 0.63564 0.78383 0.0
C654 C 0.50607 0.63893 0.82811 0.0
C655 C 0.5494 0.63905 0.84611 0.0
C656 C 0.49767 0.63915 0.77651 0.0
C657 C 0.58433 0.63986 0.81202 0.0
C658 C 0.57621 0.64124 0.76064 0.0
C659 C 0.52454 0.64163 0.69087 0.0
C660 C 0.48136 0.63939 0.67285 0.0
C661 C 0.53301 0.64085 0.74246 0.0
C662 C 0.4466 0.63686 0.70689 0.0
C663 C 0.4546 0.63722 0.75832 0.0
H664 H 0.3378 0.25398 0.06869 0.0
H665 H 0.25668 0.33409 0.04105 0.0
H666 H 0.19113 0.30305 0.04504 0.0
H667 H 0.15628 0.25292 0.05361 0.0
H668 H 0.23689 0.17244 0.0796 0.0
H669 H 0.30259 0.20379 0.07931 0.0
C670 C 0.30579 0.26466 0.06377 0.0
C671 C 0.30244 0.29635 0.05445 0.0
C672 C 0.26783 0.24658 0.0658 0.0
C673 C 0.26053 0.30974 0.04808 0.0
C674 C 0.22281 0.29201 0.05041 0.0
C675 C 0.18816 0.24228 0.05971 0.0
C676 C 0.19151 0.21038 0.06657 0.0
C677 C 0.22602 0.26038 0.05891 0.0
C678 C 0.23324 0.19696 0.07404 0.0
C679 C 0.27095 0.21486 0.07385 0.0
H680 H 0.66864 0.75509 0.06716 0.0
H681 H 0.75005 0.67347 0.07472 0.0
H682 H 0.81561 0.70461 0.07601 0.0
H683 H 0.85067 0.75499 0.07287 0.0
H684 H 0.76972 0.83675 0.0643 0.0
H685 H 0.70382 0.80571 0.06571 0.0
C686 C 0.70069 0.74413 0.06934 0.0
C687 C 0.70411 0.71192 0.07077 0.0
C688 C 0.73869 0.76223 0.06982 0.0
C689 C 0.74612 0.69818 0.07346 0.0
C690 C 0.78385 0.71598 0.07421 0.0
C691 C 0.81864 0.76604 0.07163 0.0
C692 C 0.81539 0.79818 0.06845 0.0
C693 C 0.78062 0.74803 0.07211 0.0
C694 C 0.77344 0.81205 0.06665 0.0
C695 C 0.73556 0.7943 0.06744 0.0
H696 H 0.16463 0.7494 0.44899 0.0
H697 H 0.23915 0.83289 0.45708 0.0
H698 H 0.30733 0.8033 0.45702 0.0
H699 H 0.34653 0.75357 0.45598 0.0
H700 H 0.27198 0.67008 0.44852 0.0
H701 H 0.20385 0.6997 0.44693 0.0
C702 C 0.19575 0.76115 0.45056 0.0
C703 C 0.19642 0.79341 0.45301 0.0
C704 C 0.23522 0.74394 0.45068 0.0
C705 C 0.2373 0.80812 0.45517 0.0
C706 C 0.27653 0.7912 0.45515 0.0
C707 C 0.31542 0.74184 0.45378 0.0
C708 C 0.31471 0.70956 0.45237 0.0
C709 C 0.27597 0.75907 0.45308 0.0
C710 C 0.27385 0.69486 0.44971 0.0
C711 C 0.23465 0.71181 0.44881 0.0
H712 H 0.73341 0.31293 0.44618 0.0
H713 H 0.63633 0.24193 0.43497 0.0
H714 H 0.69434 0.20279 0.43371 0.0
H715 H 0.7726 0.18854 0.43705 0.0
H716 H 0.86966 0.25962 0.44719 0.0
H717 H 0.8117 0.29876 0.44745 0.0
C718 C 0.72486 0.2889 0.4434 0.0
C719 C 0.68043 0.28046 0.44074 0.0
C720 C 0.75843 0.26645 0.44247 0.0
C721 C 0.67015 0.24917 0.43692 0.0
C722 C 0.70335 0.22672 0.43629 0.0
C723 C 0.78115 0.21259 0.43918 0.0
C724 C 0.82557 0.22104 0.4421 0.0
C725 C 0.7476 0.23507 0.4392 0.0
C726 C 0.83587 0.25237 0.4447 0.0
C727 C 0.80269 0.27482 0.44499 0.0
loop_
_geom_bond_atom_site_label_1
_geom_bond_atom_site_label_2
_geom_bond_distance
_geom_bond_site_symmetry_2
_ccdc_geom_bond_type
Co0 O2 2.142 1_654 S
Co0 O8 2.089 . S
Co0 O11 2.077 1_554 S
Co0 O24 2.096 1_654 S
Co0 N41 2.151 . S
Co0 N49 2.215 . S
Co1 O2 2.160 1_554 S
Co1 O7 2.058 . S
Co1 O17 2.057 . S
Co1 O32 2.037 . S
Co1 N36 2.145 . S
Co1 N57 2.257 1_554 S
O2 Co0 2.142 1_456 S
O2 Co1 2.160 1_556 S
C3 O4 1.278 . S
C3 O11 1.224 1_455 S
O4 C3 1.278 . S
C5 O6 1.245 . S
C5 O17 1.232 . S
O6 C5 1.245 . S
O7 Co1 2.058 . S
O7 C33 1.269 . S
O8 Co0 2.089 . S
O8 C33 1.257 1_655 S
H9 C34 0.930 . S
H10 C40 0.925 1_455 S
O11 Co0 2.077 1_556 S
O11 C3 1.224 1_655 S
H12 C44 0.929 . S
H13 C46 0.930 . S
H14 C47 0.930 . S
H15 C45 0.929 . S
H16 C48 0.928 . S
O17 Co1 2.057 . S
O17 C5 1.232 . S
H18 C37 0.929 . S
H19 C38 0.929 . S
H20 C50 0.931 . S
H21 C42 0.929 . S
H22 C51 0.930 . S
H23 C43 0.931 . S
O24 Co0 2.096 1_456 S
O24 C52 1.214 1_556 S
H25 C53 0.929 . S
H26 C54 0.929 1_554 S
H27 C55 0.930 . S
H28 C56 0.929 . S
H29 C58 0.930 . S
H30 C35 0.930 . S
H31 C39 0.930 . S
O32 Co1 2.037 . S
O32 C52 1.234 . S
C33 O7 1.269 . S
C33 O8 1.257 1_455 S
C34 H9 0.930 . S
C34 C37 1.388 . S
C34 C39 1.418 . S
C35 H30 0.930 . S
C35 C38 1.404 . S
C35 C39 1.353 . S
N36 Co1 2.145 . S
N36 C37 1.397 . S
N36 C38 1.334 . S
C37 H18 0.929 . S
C37 C34 1.388 . S
C37 N36 1.397 . S
C38 H19 0.929 . S
C38 C35 1.404 . S
C38 N36 1.334 . S
C39 H31 0.930 . S
C39 C34 1.418 . S
C39 C35 1.353 . S
C40 H10 0.925 1_655 S
C40 N41 1.330 1_556 S
C40 C42 1.446 . S
N41 Co0 2.151 . S
N41 C40 1.330 1_554 S
N41 C45 1.418 . S
C42 H21 0.929 . S
C42 C40 1.446 . S
C42 C43 1.332 1_556 S
C43 H23 0.931 . S
C43 C42 1.332 1_554 S
C43 C44 1.267 . S
C44 H12 0.929 . S
C44 C43 1.267 . S
C44 C45 1.251 . S
C45 H15 0.929 . S
C45 N41 1.418 . S
C45 C44 1.251 . S
C46 H13 0.930 . S
C46 C48 1.406 . S
C46 C51 1.261 1_556 S
C47 H14 0.930 . S
C47 N49 1.325 . S
C47 C50 1.357 . S
C48 H16 0.928 . S
C48 C46 1.406 . S
C48 N49 1.261 1_556 S
N49 Co0 2.215 . S
N49 C47 1.325 . S
N49 C48 1.261 1_554 S
C50 H20 0.931 . S
C50 C47 1.357 . S
C50 C51 1.312 . S
C51 H22 0.930 . S
C51 C46 1.261 1_554 S
C51 C50 1.312 . S
C52 O24 1.214 1_554 S
C52 O32 1.234 . S
C53 H25 0.929 . S
C53 C56 1.391 . S
C53 C58 1.391 . S
C54 H26 0.929 1_556 S
C54 C55 1.390 . S
C54 N57 1.391 . S
C55 H27 0.930 . S
C55 C54 1.390 . S
C55 C56 1.392 . S
C56 H28 0.929 . S
C56 C53 1.391 . S
C56 C55 1.392 . S
N57 Co1 2.257 1_556 S
N57 C54 1.391 . S
N57 C58 1.388 . S
C58 H29 0.930 . S
C58 C53 1.391 . S
C58 N57 1.388 . S
Co59 O61 2.142 1_454 S
Co59 O67 2.089 . S
Co59 O70 2.077 1_554 S
Co59 O83 2.096 1_454 S
Co59 N100 2.151 . S
Co59 N108 2.215 . S
Co60 O61 2.160 1_554 S
Co60 O66 2.058 . S
Co60 O76 2.057 . S
Co60 O91 2.037 . S
Co60 N95 2.145 . S
Co60 N116 2.257 1_554 S
O61 Co59 2.142 1_656 S
O61 Co60 2.160 1_556 S
C62 O63 1.278 . S
C62 O70 1.224 1_655 S
O63 C62 1.278 . S
C64 O65 1.245 . S
C64 O76 1.232 . S
O65 C64 1.245 . S
O66 Co60 2.058 . S
O66 C92 1.269 . S
O67 Co59 2.089 . S
O67 C92 1.257 1_455 S
H68 C93 0.930 . S
H69 C99 0.925 1_655 S
O70 Co59 2.077 1_556 S
O70 C62 1.224 1_455 S
H71 C103 0.929 . S
H72 C105 0.930 . S
H73 C106 0.930 . S
H74 C104 0.929 . S
H75 C107 0.928 . S
O76 Co60 2.057 . S
O76 C64 1.232 . S
H77 C96 0.929 . S
H78 C97 0.929 . S
H79 C109 0.931 . S
H80 C101 0.929 . S
H81 C110 0.930 . S
H82 C102 0.931 . S
O83 Co59 2.096 1_656 S
O83 C111 1.214 1_556 S
H84 C112 0.929 . S
H85 C113 0.929 1_554 S
H86 C114 0.930 . S
H87 C115 0.929 . S
H88 C117 0.930 . S
H89 C94 0.930 . S
H90 C98 0.930 . S
O91 Co60 2.037 . S
O91 C111 1.234 . S
C92 O66 1.269 . S
C92 O67 1.257 1_655 S
C93 H68 0.930 . S
C93 C96 1.388 . S
C93 C98 1.418 . S
C94 H89 0.930 . S
C94 C97 1.404 . S
C94 C98 1.353 . S
N95 Co60 2.145 . S
N95 C96 1.397 . S
N95 C97 1.334 . S
C96 H77 0.929 . S
C96 C93 1.388 . S
C96 N95 1.397 . S
C97 H78 0.929 . S
C97 C94 1.404 . S
C97 N95 1.334 . S
C98 H90 0.930 . S
C98 C93 1.418 . S
C98 C94 1.353 . S
C99 H69 0.925 1_455 S
C99 N100 1.330 1_556 S
C99 C101 1.446 . S
N100 Co59 2.151 . S
N100 C99 1.330 1_554 S
N100 C104 1.418 . S
C101 H80 0.929 . S
C101 C99 1.446 . S
C101 C102 1.332 1_556 S
C102 H82 0.931 . S
C102 C101 1.332 1_554 S
C102 C103 1.267 . S
C103 H71 0.929 . S
C103 C102 1.267 . S
C103 C104 1.251 . S
C104 H74 0.929 . S
C104 N100 1.418 . S
C104 C103 1.251 . S
C105 H72 0.930 . S
C105 C107 1.406 . S
C105 C110 1.261 1_556 S
C106 H73 0.930 . S
C106 N108 1.325 . S
C106 C109 1.357 . S
C107 H75 0.928 . S
C107 C105 1.406 . S
C107 N108 1.261 1_556 S
N108 Co59 2.215 . S
N108 C106 1.325 . S
N108 C107 1.261 1_554 S
C109 H79 0.931 . S
C109 C106 1.357 . S
C109 C110 1.312 . S
C110 H81 0.930 . S
C110 C105 1.261 1_554 S
C110 C109 1.312 . S
C111 O83 1.214 1_554 S
C111 O91 1.234 . S
C112 H84 0.929 . S
C112 C115 1.391 . S
C112 C117 1.391 . S
C113 H85 0.929 1_556 S
C113 C114 1.390 . S
C113 N116 1.391 . S
C114 H86 0.930 . S
C114 C113 1.390 . S
C114 C115 1.392 . S
C115 H87 0.929 . S
C115 C112 1.391 . S
C115 C114 1.392 . S
N116 Co60 2.257 1_556 S
N116 C113 1.391 . S
N116 C117 1.388 . S
C117 H88 0.930 . S
C117 C112 1.391 . S
C117 N116 1.388 . S
Co118 O120 2.143 1_655 S
Co118 O126 2.074 . S
Co118 O129 2.093 . S
Co118 O142 2.097 1_655 S
Co118 N159 2.151 . S
Co118 N167 2.214 . S
Co119 O120 2.160 . S
Co119 O125 2.058 . S
Co119 O135 2.057 . S
Co119 O150 2.037 . S
Co119 N154 2.145 . S
Co119 N175 2.257 . S
O120 Co118 2.143 1_455 S
O120 Co119 2.160 . S
C121 O122 1.278 . S
C121 O129 1.224 1_455 S
O122 C121 1.278 . S
C123 O124 1.245 . S
C123 O135 1.232 . S
O124 C123 1.245 . S
O125 Co119 2.058 . S
O125 C151 1.269 . S
O126 Co118 2.074 . S
O126 C151 1.257 1_655 S
H127 C152 0.930 . S
H128 C158 0.925 1_455 S
O129 Co118 2.093 . S
O129 C121 1.224 1_655 S
H130 C162 0.929 . S
H131 C164 0.930 . S
H132 C165 0.930 . S
H133 C163 0.929 . S
H134 C166 0.928 . S
O135 Co119 2.057 . S
O135 C123 1.232 . S
H136 C155 0.929 . S
H137 C156 0.929 . S
H138 C168 0.931 . S
H139 C160 0.929 . S
H140 C169 0.930 . S
H141 C161 0.931 . S
O142 Co118 2.097 1_455 S
O142 C170 1.214 . S
H143 C171 0.929 . S
H144 C172 0.929 . S
H145 C173 0.930 . S
H146 C174 0.929 . S
H147 C176 0.930 . S
H148 C153 0.930 . S
H149 C157 0.930 . S
O150 Co119 2.037 . S
O150 C170 1.234 . S
C151 O125 1.269 . S
C151 O126 1.257 1_455 S
C152 H127 0.930 . S
C152 C155 1.388 . S
C152 C157 1.418 . S
C153 H148 0.930 . S
C153 C156 1.404 . S
C153 C157 1.353 . S
N154 Co119 2.145 . S
N154 C155 1.397 . S
N154 C156 1.334 . S
C155 H136 0.929 . S
C155 C152 1.388 . S
C155 N154 1.397 . S
C156 H137 0.929 . S
C156 C153 1.404 . S
C156 N154 1.334 . S
C157 H149 0.930 . S
C157 C152 1.418 . S
C157 C153 1.353 . S
C158 H128 0.925 1_655 S
C158 N159 1.330 . S
C158 C160 1.446 . S
N159 Co118 2.151 . S
N159 C158 1.330 . S
N159 C163 1.418 . S
C160 H139 0.929 . S
C160 C158 1.446 . S
C160 C161 1.332 . S
C161 H141 0.931 . S
C161 C160 1.332 . S
C161 C162 1.267 . S
C162 H130 0.929 . S
C162 C161 1.267 . S
C162 C163 1.251 . S
C163 H133 0.929 . S
C163 N159 1.418 . S
C163 C162 1.251 . S
C164 H131 0.930 . S
C164 C166 1.406 . S
C164 C169 1.261 . S
C165 H132 0.930 . S
C165 N167 1.325 . S
C165 C168 1.357 . S
C166 H134 0.928 . S
C166 C164 1.406 . S
C166 N167 1.261 . S
N167 Co118 2.214 . S
N167 C165 1.325 . S
N167 C166 1.261 . S
C168 H138 0.931 . S
C168 C165 1.357 . S
C168 C169 1.312 . S
C169 H140 0.930 . S
C169 C164 1.261 . S
C169 C168 1.312 . S
C170 O142 1.214 . S
C170 O150 1.234 . S
C171 H143 0.929 . S
C171 C174 1.391 . S
C171 C176 1.391 . S
C172 H144 0.929 . S
C172 C173 1.390 . S
C172 N175 1.391 . S
C173 H145 0.930 . S
C173 C172 1.390 . S
C173 C174 1.392 . S
C174 H146 0.929 . S
C174 C171 1.391 . S
C174 C173 1.392 . S
N175 Co119 2.257 . S
N175 C172 1.391 . S
N175 C176 1.388 . S
C176 H147 0.930 . S
C176 C171 1.391 . S
C176 N175 1.388 . S
Co177 O179 2.143 1_455 S
Co177 O185 2.074 . S
Co177 O188 2.093 . S
Co177 O201 2.097 1_455 S
Co177 N218 2.151 . S
Co177 N226 2.214 . S
Co178 O179 2.160 . S
Co178 O184 2.058 . S
Co178 O194 2.057 . S
Co178 O209 2.037 . S
Co178 N213 2.145 . S
Co178 N234 2.257 . S
O179 Co177 2.143 1_655 S
O179 Co178 2.160 . S
C180 O181 1.278 . S
C180 O188 1.224 1_655 S
O181 C180 1.278 . S
C182 O183 1.245 . S
C182 O194 1.232 . S
O183 C182 1.245 . S
O184 Co178 2.058 . S
O184 C210 1.269 . S
O185 Co177 2.074 . S
O185 C210 1.257 1_455 S
H186 C211 0.930 . S
H187 C217 0.925 1_655 S
O188 Co177 2.093 . S
O188 C180 1.224 1_455 S
H189 C221 0.929 . S
H190 C223 0.930 . S
H191 C224 0.930 . S
H192 C222 0.929 . S
H193 C225 0.928 . S
O194 Co178 2.057 . S
O194 C182 1.232 . S
H195 C214 0.929 . S
H196 C215 0.929 . S
H197 C227 0.931 . S
H198 C219 0.929 . S
H199 C228 0.930 . S
H200 C220 0.931 . S
O201 Co177 2.097 1_655 S
O201 C229 1.214 . S
H202 C230 0.929 . S
H203 C231 0.929 . S
H204 C232 0.930 . S
H205 C233 0.929 . S
H206 C235 0.930 . S
H207 C212 0.930 . S
H208 C216 0.930 . S
O209 Co178 2.037 . S
O209 C229 1.234 . S
C210 O184 1.269 . S
C210 O185 1.257 1_655 S
C211 H186 0.930 . S
C211 C214 1.388 . S
C211 C216 1.418 . S
C212 H207 0.930 . S
C212 C215 1.404 . S
C212 C216 1.353 . S
N213 Co178 2.145 . S
N213 C214 1.397 . S
N213 C215 1.334 . S
C214 H195 0.929 . S
C214 C211 1.388 . S
C214 N213 1.397 . S
C215 H196 0.929 . S
C215 C212 1.404 . S
C215 N213 1.334 . S
C216 H208 0.930 . S
C216 C211 1.418 . S
C216 C212 1.353 . S
C217 H187 0.925 1_455 S
C217 N218 1.330 . S
C217 C219 1.446 . S
N218 Co177 2.151 . S
N218 C217 1.330 . S
N218 C222 1.418 . S
C219 H198 0.929 . S
C219 C217 1.446 . S
C219 C220 1.332 . S
C220 H200 0.931 . S
C220 C219 1.332 . S
C220 C221 1.267 . S
C221 H189 0.929 . S
C221 C220 1.267 . S
C221 C222 1.251 . S
C222 H192 0.929 . S
C222 N218 1.418 . S
C222 C221 1.251 . S
C223 H190 0.930 . S
C223 C225 1.406 . S
C223 C228 1.261 . S
C224 H191 0.930 . S
C224 N226 1.325 . S
C224 C227 1.357 . S
C225 H193 0.928 . S
C225 C223 1.406 . S
C225 N226 1.261 . S
N226 Co177 2.214 . S
N226 C224 1.325 . S
N226 C225 1.261 . S
C227 H197 0.931 . S
C227 C224 1.357 . S
C227 C228 1.312 . S
C228 H199 0.930 . S
C228 C223 1.261 . S
C228 C227 1.312 . S
C229 O201 1.214 . S
C229 O209 1.234 . S
C230 H202 0.929 . S
C230 C233 1.391 . S
C230 C235 1.391 . S
C231 H203 0.929 . S
C231 C232 1.390 . S
C231 N234 1.391 . S
C232 H204 0.930 . S
C232 C231 1.390 . S
C232 C233 1.392 . S
C233 H205 0.929 . S
C233 C230 1.391 . S
C233 C232 1.392 . S
N234 Co178 2.257 . S
N234 C231 1.391 . S
N234 C235 1.388 . S
C235 H206 0.930 . S
C235 C230 1.391 . S
C235 N234 1.388 . S
Co236 O238 2.142 1_554 S
Co236 O244 2.089 . S
Co236 O247 2.077 1_554 S
Co236 O260 2.096 1_554 S
Co236 N277 2.151 . S
Co236 N285 2.215 . S
Co237 O238 2.160 1_554 S
Co237 O243 2.058 . S
Co237 O253 2.057 . S
Co237 O268 2.037 . S
Co237 N272 2.145 . S
Co237 N293 2.257 1_554 S
O238 Co236 2.142 1_556 S
O238 Co237 2.160 1_556 S
C239 O240 1.278 . S
C239 O247 1.224 . S
O240 C239 1.278 . S
C241 O242 1.245 . S
C241 O253 1.232 . S
O242 C241 1.245 . S
O243 Co237 2.058 . S
O243 C269 1.269 . S
O244 Co236 2.089 . S
O244 C269 1.257 . S
H245 C270 0.930 . S
H246 C276 0.930 . S
O247 Co236 2.077 1_556 S
O247 C239 1.224 . S
H248 C280 0.929 . S
H249 C282 0.930 . S
H250 C283 0.930 . S
H251 C281 0.929 . S
H252 C284 0.928 . S
O253 Co237 2.057 . S
O253 C241 1.232 . S
H254 C273 0.929 . S
H255 C274 0.929 . S
H256 C286 0.931 . S
H257 C278 0.929 . S
H258 C287 0.930 . S
H259 C279 0.931 . S
O260 Co236 2.096 1_556 S
O260 C288 1.214 1_556 S
H261 C289 0.929 . S
H262 C290 0.929 1_554 S
H263 C291 0.930 . S
H264 C292 0.929 . S
H265 C294 0.930 . S
H266 C271 0.930 . S
H267 C275 0.930 . S
O268 Co237 2.037 . S
O268 C288 1.234 . S
C269 O243 1.269 . S
C269 O244 1.257 . S
C270 H245 0.930 . S
C270 C273 1.388 . S
C270 C275 1.418 . S
C271 H266 0.930 . S
C271 C274 1.404 . S
C271 C275 1.353 . S
N272 Co237 2.145 . S
N272 C273 1.397 . S
N272 C274 1.334 . S
C273 H254 0.929 . S
C273 C270 1.388 . S
C273 N272 1.397 . S
C274 H255 0.929 . S
C274 C271 1.404 . S
C274 N272 1.334 . S
C275 H267 0.930 . S
C275 C270 1.418 . S
C275 C271 1.353 . S
C276 H246 0.930 . S
C276 N277 1.330 1_556 S
C276 C278 1.446 . S
N277 Co236 2.151 . S
N277 C276 1.330 1_554 S
N277 C281 1.418 . S
C278 H257 0.929 . S
C278 C276 1.446 . S
C278 C279 1.332 1_556 S
C279 H259 0.931 . S
C279 C278 1.332 1_554 S
C279 C280 1.267 . S
C280 H248 0.929 . S
C280 C279 1.267 . S
C280 C281 1.251 . S
C281 H251 0.929 . S
C281 N277 1.418 . S
C281 C280 1.251 . S
C282 H249 0.930 . S
C282 C284 1.406 . S
C282 C287 1.261 1_556 S
C283 H250 0.930 . S
C283 N285 1.325 . S
C283 C286 1.357 . S
C284 H252 0.928 . S
C284 C282 1.406 . S
C284 N285 1.261 1_556 S
N285 Co236 2.215 . S
N285 C283 1.325 . S
N285 C284 1.261 1_554 S
C286 H256 0.931 . S
C286 C283 1.357 . S
C286 C287 1.312 . S
C287 H258 0.930 . S
C287 C282 1.261 1_554 S
C287 C286 1.312 . S
C288 O260 1.214 1_554 S
C288 O268 1.234 . S
C289 H261 0.929 . S
C289 C292 1.391 . S
C289 C294 1.391 . S
C290 H262 0.929 1_556 S
C290 C291 1.390 . S
C290 N293 1.391 . S
C291 H263 0.930 . S
C291 C290 1.390 . S
C291 C292 1.392 . S
C292 H264 0.929 . S
C292 C289 1.391 . S
C292 C291 1.392 . S
N293 Co237 2.257 1_556 S
N293 C290 1.391 . S
N293 C294 1.388 . S
C294 H265 0.930 . S
C294 C289 1.391 . S
C294 N293 1.388 . S
Co295 O297 2.142 1_554 S
Co295 O303 2.089 . S
Co295 O306 2.077 1_554 S
Co295 O319 2.096 1_554 S
Co295 N336 2.151 . S
Co295 N344 2.215 . S
Co296 O297 2.160 1_554 S
Co296 O302 2.058 . S
Co296 O312 2.057 . S
Co296 O327 2.037 . S
Co296 N331 2.145 . S
Co296 N352 2.257 1_554 S
O297 Co295 2.142 1_556 S
O297 Co296 2.160 1_556 S
C298 O299 1.278 . S
C298 O306 1.224 . S
O299 C298 1.278 . S
C300 O301 1.245 . S
C300 O312 1.232 . S
O301 C300 1.245 . S
O302 Co296 2.058 . S
O302 C328 1.269 . S
O303 Co295 2.089 . S
O303 C328 1.257 . S
H304 C329 0.930 . S
H305 C335 0.930 . S
O306 Co295 2.077 1_556 S
O306 C298 1.224 . S
H307 C339 0.929 . S
H308 C341 0.930 . S
H309 C342 0.930 . S
H310 C340 0.929 . S
H311 C343 0.928 . S
O312 Co296 2.057 . S
O312 C300 1.232 . S
H313 C332 0.929 . S
H314 C333 0.929 . S
H315 C345 0.931 . S
H316 C337 0.929 . S
H317 C346 0.930 . S
H318 C338 0.931 . S
O319 Co295 2.096 1_556 S
O319 C347 1.214 1_556 S
H320 C348 0.929 . S
H321 C349 0.929 1_554 S
H322 C350 0.930 . S
H323 C351 0.929 . S
H324 C353 0.930 . S
H325 C330 0.930 . S
H326 C334 0.930 . S
O327 Co296 2.037 . S
O327 C347 1.234 . S
C328 O302 1.269 . S
C328 O303 1.257 . S
C329 H304 0.930 . S
C329 C332 1.388 . S
C329 C334 1.418 . S
C330 H325 0.930 . S
C330 C333 1.404 . S
C330 C334 1.353 . S
N331 Co296 2.145 . S
N331 C332 1.397 . S
N331 C333 1.334 . S
C332 H313 0.929 . S
C332 C329 1.388 . S
C332 N331 1.397 . S
C333 H314 0.929 . S
C333 C330 1.404 . S
C333 N331 1.334 . S
C334 H326 0.930 . S
C334 C329 1.418 . S
C334 C330 1.353 . S
C335 H305 0.930 . S
C335 N336 1.330 1_556 S
C335 C337 1.446 . S
N336 Co295 2.151 . S
N336 C335 1.330 1_554 S
N336 C340 1.418 . S
C337 H316 0.929 . S
C337 C335 1.446 . S
C337 C338 1.332 1_556 S
C338 H318 0.931 . S
C338 C337 1.332 1_554 S
C338 C339 1.267 . S
C339 H307 0.929 . S
C339 C338 1.267 . S
C339 C340 1.251 . S
C340 H310 0.929 . S
C340 N336 1.418 . S
C340 C339 1.251 . S
C341 H308 0.930 . S
C341 C343 1.406 . S
C341 C346 1.261 1_556 S
C342 H309 0.930 . S
C342 N344 1.325 . S
C342 C345 1.357 . S
C343 H311 0.928 . S
C343 C341 1.406 . S
C343 N344 1.261 1_556 S
N344 Co295 2.215 . S
N344 C342 1.325 . S
N344 C343 1.261 1_554 S
C345 H315 0.931 . S
C345 C342 1.357 . S
C345 C346 1.312 . S
C346 H317 0.930 . S
C346 C341 1.261 1_554 S
C346 C345 1.312 . S
C347 O319 1.214 1_554 S
C347 O327 1.234 . S
C348 H320 0.929 . S
C348 C351 1.391 . S
C348 C353 1.391 . S
C349 H321 0.929 1_556 S
C349 C350 1.390 . S
C349 N352 1.391 . S
C350 H322 0.930 . S
C350 C349 1.390 . S
C350 C351 1.392 . S
C351 H323 0.929 . S
C351 C348 1.391 . S
C351 C350 1.392 . S
N352 Co296 2.257 1_556 S
N352 C349 1.391 . S
N352 C353 1.388 . S
C353 H324 0.930 . S
C353 C348 1.391 . S
C353 N352 1.388 . S
Co354 O356 2.143 . S
Co354 O362 2.074 . S
Co354 O365 2.093 . S
Co354 O378 2.097 . S
Co354 N395 2.151 . S
Co354 N403 2.214 . S
Co355 O356 2.160 . S
Co355 O361 2.058 . S
Co355 O371 2.057 . S
Co355 O386 2.037 . S
Co355 N390 2.145 . S
Co355 N411 2.257 . S
O356 Co354 2.143 . S
O356 Co355 2.160 . S
C357 O358 1.278 . S
C357 O365 1.224 . S
O358 C357 1.278 . S
C359 O360 1.245 . S
C359 O371 1.232 . S
O360 C359 1.245 . S
O361 Co355 2.058 . S
O361 C387 1.269 . S
O362 Co354 2.074 . S
O362 C387 1.257 . S
H363 C388 0.930 . S
H364 C394 0.930 . S
O365 Co354 2.093 . S
O365 C357 1.224 . S
H366 C398 0.929 . S
H367 C400 0.930 . S
H368 C401 0.930 . S
H369 C399 0.929 . S
H370 C402 0.928 . S
O371 Co355 2.057 . S
O371 C359 1.232 . S
H372 C391 0.929 . S
H373 C392 0.929 . S
H374 C404 0.931 . S
H375 C396 0.929 . S
H376 C405 0.930 . S
H377 C397 0.931 . S
O378 Co354 2.097 . S
O378 C406 1.214 . S
H379 C407 0.929 . S
H380 C408 0.929 . S
H381 C409 0.930 . S
H382 C410 0.929 . S
H383 C412 0.930 . S
H384 C389 0.930 . S
H385 C393 0.930 . S
O386 Co355 2.037 . S
O386 C406 1.234 . S
C387 O361 1.269 . S
C387 O362 1.257 . S
C388 H363 0.930 . S
C388 C391 1.388 . S
C388 C393 1.418 . S
C389 H384 0.930 . S
C389 C392 1.404 . S
C389 C393 1.353 . S
N390 Co355 2.145 . S
N390 C391 1.397 . S
N390 C392 1.334 . S
C391 H372 0.929 . S
C391 C388 1.388 . S
C391 N390 1.397 . S
C392 H373 0.929 . S
C392 C389 1.404 . S
C392 N390 1.334 . S
C393 H385 0.930 . S
C393 C388 1.418 . S
C393 C389 1.353 . S
C394 H364 0.930 . S
C394 N395 1.330 . S
C394 C396 1.446 . S
N395 Co354 2.151 . S
N395 C394 1.330 . S
N395 C399 1.418 . S
C396 H375 0.929 . S
C396 C394 1.446 . S
C396 C397 1.332 . S
C397 H377 0.931 . S
C397 C396 1.332 . S
C397 C398 1.267 . S
C398 H366 0.929 . S
C398 C397 1.267 . S
C398 C399 1.251 . S
C399 H369 0.929 . S
C399 N395 1.418 . S
C399 C398 1.251 . S
C400 H367 0.930 . S
C400 C402 1.406 . S
C400 C405 1.261 . S
C401 H368 0.930 . S
C401 N403 1.325 . S
C401 C404 1.357 . S
C402 H370 0.928 . S
C402 C400 1.406 . S
C402 N403 1.261 . S
N403 Co354 2.214 . S
N403 C401 1.325 . S
N403 C402 1.261 . S
C404 H374 0.931 . S
C404 C401 1.357 . S
C404 C405 1.312 . S
C405 H376 0.930 . S
C405 C400 1.261 . S
C405 C404 1.312 . S
C406 O378 1.214 . S
C406 O386 1.234 . S
C407 H379 0.929 . S
C407 C410 1.391 . S
C407 C412 1.391 . S
C408 H380 0.929 . S
C408 C409 1.390 . S
C408 N411 1.391 . S
C409 H381 0.930 . S
C409 C408 1.390 . S
C409 C410 1.392 . S
C410 H382 0.929 . S
C410 C407 1.391 . S
C410 C409 1.392 . S
N411 Co355 2.257 . S
N411 C408 1.391 . S
N411 C412 1.388 . S
C412 H383 0.930 . S
C412 C407 1.391 . S
C412 N411 1.388 . S
Co413 O415 2.143 . S
Co413 O421 2.074 . S
Co413 O424 2.093 . S
Co413 O437 2.097 . S
Co413 N454 2.151 . S
Co413 N462 2.214 . S
Co414 O415 2.160 . S
Co414 O420 2.058 . S
Co414 O430 2.057 . S
Co414 O445 2.037 . S
Co414 N449 2.145 . S
Co414 N470 2.257 . S
O415 Co413 2.143 . S
O415 Co414 2.160 . S
C416 O417 1.278 . S
C416 O424 1.224 . S
O417 C416 1.278 . S
C418 O419 1.245 . S
C418 O430 1.232 . S
O419 C418 1.245 . S
O420 Co414 2.058 . S
O420 C446 1.269 . S
O421 Co413 2.074 . S
O421 C446 1.257 . S
H422 C447 0.930 . S
H423 C453 0.930 . S
O424 Co413 2.093 . S
O424 C416 1.224 . S
H425 C457 0.929 . S
H426 C459 0.930 . S
H427 C460 0.930 . S
H428 C458 0.929 . S
H429 C461 0.928 . S
O430 Co414 2.057 . S
O430 C418 1.232 . S
H431 C450 0.929 . S
H432 C451 0.929 . S
H433 C463 0.931 . S
H434 C455 0.929 . S
H435 C464 0.930 . S
H436 C456 0.931 . S
O437 Co413 2.097 . S
O437 C465 1.214 . S
H438 C466 0.929 . S
H439 C467 0.929 . S
H440 C468 0.930 . S
H441 C469 0.929 . S
H442 C471 0.930 . S
H443 C448 0.930 . S
H444 C452 0.930 . S
O445 Co414 2.037 . S
O445 C465 1.234 . S
C446 O420 1.269 . S
C446 O421 1.257 . S
C447 H422 0.930 . S
C447 C450 1.388 . S
C447 C452 1.418 . S
C448 H443 0.930 . S
C448 C451 1.404 . S
C448 C452 1.353 . S
N449 Co414 2.145 . S
N449 C450 1.397 . S
N449 C451 1.334 . S
C450 H431 0.929 . S
C450 C447 1.388 . S
C450 N449 1.397 . S
C451 H432 0.929 . S
C451 C448 1.404 . S
C451 N449 1.334 . S
C452 H444 0.930 . S
C452 C447 1.418 . S
C452 C448 1.353 . S
C453 H423 0.930 . S
C453 N454 1.330 . S
C453 C455 1.446 . S
N454 Co413 2.151 . S
N454 C453 1.330 . S
N454 C458 1.418 . S
C455 H434 0.929 . S
C455 C453 1.446 . S
C455 C456 1.332 . S
C456 H436 0.931 . S
C456 C455 1.332 . S
C456 C457 1.267 . S
C457 H425 0.929 . S
C457 C456 1.267 . S
C457 C458 1.251 . S
C458 H428 0.929 . S
C458 N454 1.418 . S
C458 C457 1.251 . S
C459 H426 0.930 . S
C459 C461 1.406 . S
C459 C464 1.261 . S
C460 H427 0.930 . S
C460 N462 1.325 . S
C460 C463 1.357 . S
C461 H429 0.928 . S
C461 C459 1.406 . S
C461 N462 1.261 . S
N462 Co413 2.214 . S
N462 C460 1.325 . S
N462 C461 1.261 . S
C463 H433 0.931 . S
C463 C460 1.357 . S
C463 C464 1.312 . S
C464 H435 0.930 . S
C464 C459 1.261 . S
C464 C463 1.312 . S
C465 O437 1.214 . S
C465 O445 1.234 . S
C466 H438 0.929 . S
C466 C469 1.391 . S
C466 C471 1.391 . S
C467 H439 0.929 . S
C467 C468 1.390 . S
C467 N470 1.391 . S
C468 H440 0.930 . S
C468 C467 1.390 . S
C468 C469 1.392 . S
C469 H441 0.929 . S
C469 C466 1.391 . S
C469 C468 1.392 . S
N470 Co414 2.257 . S
N470 C467 1.391 . S
N470 C471 1.388 . S
C471 H442 0.930 . S
C471 C466 1.391 . S
C471 N470 1.388 . S
H472 C478 0.930 . S
H473 C481 0.930 . S
H474 C482 0.930 . S
H475 C483 0.930 1_556 S
H476 C486 0.930 . S
H477 C487 0.930 . S
C478 H472 0.930 . S
C478 C479 1.355 . S
C478 C480 1.415 . S
C479 C478 1.355 . S
C479 C481 1.419 1_654 S
C480 C478 1.415 . S
C480 C485 1.425 1_665 S
C480 C487 1.409 1_565 S
C481 H473 0.930 . S
C481 C479 1.419 1_456 S
C481 C482 1.362 . S
C482 H474 0.930 . S
C482 C481 1.362 . S
C482 C485 1.409 1_566 S
C483 H475 0.930 1_554 S
C483 C484 1.355 . S
C483 C485 1.415 . S
C484 C483 1.355 . S
C484 C486 1.419 1_455 S
C485 C480 1.425 1_445 S
C485 C482 1.409 1_544 S
C485 C483 1.415 . S
C486 H476 0.930 . S
C486 C484 1.419 1_655 S
C486 C487 1.362 . S
C487 H477 0.930 . S
C487 C480 1.409 1_545 S
C487 C486 1.362 . S
H488 C494 0.930 . S
H489 C497 0.930 . S
H490 C498 0.930 . S
H491 C499 0.930 . S
H492 C502 0.930 . S
H493 C503 0.930 . S
C494 H488 0.930 . S
C494 C495 1.355 . S
C494 C496 1.415 . S
C495 C494 1.355 . S
C495 C497 1.419 1_455 S
C496 C494 1.415 . S
C496 C501 1.425 1_465 S
C496 C503 1.409 1_565 S
C497 H489 0.930 . S
C497 C495 1.419 1_655 S
C497 C498 1.362 . S
C498 H490 0.930 . S
C498 C497 1.362 . S
C498 C501 1.409 1_565 S
C499 H491 0.930 . S
C499 C500 1.355 . S
C499 C501 1.415 . S
C500 C499 1.355 . S
C500 C502 1.419 1_655 S
C501 C496 1.425 1_645 S
C501 C498 1.409 1_545 S
C501 C499 1.415 . S
C502 H492 0.930 . S
C502 C500 1.419 1_455 S
C502 C503 1.362 . S
C503 H493 0.930 . S
C503 C496 1.409 1_545 S
C503 C502 1.362 . S
H504 C510 0.930 1_556 S
H505 C513 0.930 . S
H506 C514 0.930 . S
H507 C515 0.930 . S
H508 C518 0.930 . S
H509 C519 0.930 . S
C510 H504 0.930 1_554 S
C510 C511 1.355 . S
C510 C512 1.415 . S
C511 C510 1.355 . S
C511 C513 1.419 . S
C512 C510 1.415 . S
C512 C517 1.425 . S
C512 C519 1.409 1_554 S
C513 H505 0.930 . S
C513 C511 1.419 . S
C513 C514 1.362 . S
C514 H506 0.930 . S
C514 C513 1.362 . S
C514 C517 1.409 . S
C515 H507 0.930 . S
C515 C516 1.355 . S
C515 C517 1.415 . S
C516 C515 1.355 . S
C516 C518 1.419 1_554 S
C517 C512 1.425 . S
C517 C514 1.409 . S
C517 C515 1.415 . S
C518 H508 0.930 . S
C518 C516 1.419 1_556 S
C518 C519 1.362 . S
C519 H509 0.930 . S
C519 C512 1.409 1_556 S
C519 C518 1.362 . S
H520 C526 0.930 . S
H521 C529 0.930 . S
H522 C530 0.930 . S
H523 C531 0.930 . S
H524 C534 0.930 . S
H525 C535 0.930 . S
C526 H520 0.930 . S
C526 C527 1.355 . S
C526 C528 1.415 . S
C527 C526 1.355 . S
C527 C529 1.419 . S
C528 C526 1.415 . S
C528 C533 1.425 . S
C528 C535 1.409 . S
C529 H521 0.930 . S
C529 C527 1.419 . S
C529 C530 1.362 . S
C530 H522 0.930 . S
C530 C529 1.362 . S
C530 C533 1.409 . S
C531 H523 0.930 . S
C531 C532 1.355 . S
C531 C533 1.415 . S
C532 C531 1.355 . S
C532 C534 1.419 . S
C533 C528 1.425 . S
C533 C530 1.409 . S
C533 C531 1.415 . S
C534 H524 0.930 . S
C534 C532 1.419 . S
C534 C535 1.362 . S
C535 H525 0.930 . S
C535 C528 1.409 . S
C535 C534 1.362 . S
H536 C542 0.930 . S
H537 C545 0.930 . S
H538 C546 0.930 . S
H539 C547 0.930 . S
H540 C550 0.930 . S
H541 C551 0.930 . S
C542 H536 0.930 . S
C542 C543 1.355 . S
C542 C544 1.413 1_455 S
C543 C542 1.355 . S
C543 C545 1.419 . S
C544 C542 1.413 1_655 S
C544 C549 1.425 1_655 S
C544 C551 1.411 . S
C545 H537 0.930 . S
C545 C543 1.419 . S
C545 C546 1.362 . S
C546 H538 0.930 . S
C546 C545 1.362 . S
C546 C549 1.411 . S
C547 H539 0.930 . S
C547 C548 1.355 . S
C547 C549 1.413 1_655 S
C548 C547 1.355 . S
C548 C550 1.419 . S
C549 C544 1.425 1_455 S
C549 C546 1.411 . S
C549 C547 1.413 1_455 S
C550 H540 0.930 . S
C550 C548 1.419 . S
C550 C551 1.362 . S
C551 H541 0.930 . S
C551 C544 1.411 . S
C551 C550 1.362 . S
H552 C558 0.930 . S
H553 C561 0.930 . S
H554 C562 0.930 . S
H555 C563 0.930 . S
H556 C566 0.930 . S
H557 C567 0.930 . S
C558 H552 0.930 . S
C558 C559 1.355 . S
C558 C560 1.414 1_455 S
C559 C558 1.355 . S
C559 C561 1.419 . S
C560 C558 1.414 1_655 S
C560 C565 1.425 1_655 S
C560 C567 1.410 . S
C561 H553 0.930 . S
C561 C559 1.419 . S
C561 C562 1.362 . S
C562 H554 0.930 . S
C562 C561 1.362 . S
C562 C565 1.410 . S
C563 H555 0.930 . S
C563 C564 1.355 . S
C563 C565 1.414 1_655 S
C564 C563 1.355 . S
C564 C566 1.419 . S
C565 C560 1.425 1_455 S
C565 C562 1.410 . S
C565 C563 1.414 1_455 S
C566 H556 0.930 . S
C566 C564 1.419 . S
C566 C567 1.362 . S
C567 H557 0.930 . S
C567 C560 1.410 . S
C567 C566 1.362 . S
H568 C574 0.930 . S
H569 C577 0.930 . S
H570 C578 0.930 . S
H571 C579 0.930 . S
H572 C582 0.930 . S
H573 C583 0.930 . S
C574 H568 0.930 . S
C574 C575 1.355 . S
C574 C576 1.415 . S
C575 C574 1.355 . S
C575 C577 1.419 1_455 S
C576 C574 1.415 . S
C576 C581 1.425 1_455 S
C576 C583 1.409 . S
C577 H569 0.930 . S
C577 C575 1.419 1_655 S
C577 C578 1.362 . S
C578 H570 0.930 . S
C578 C577 1.362 . S
C578 C581 1.409 . S
C579 H571 0.930 . S
C579 C580 1.355 . S
C579 C581 1.415 . S
C580 C579 1.355 . S
C580 C582 1.419 1_655 S
C581 C576 1.425 1_655 S
C581 C578 1.409 . S
C581 C579 1.415 . S
C582 H572 0.930 . S
C582 C580 1.419 1_455 S
C582 C583 1.362 . S
C583 H573 0.930 . S
C583 C576 1.409 . S
C583 C582 1.362 . S
H584 C590 0.930 . S
H585 C593 0.930 . S
H586 C594 0.930 . S
H587 C595 0.930 . S
H588 C598 0.930 . S
H589 C599 0.930 . S
C590 H584 0.930 . S
C590 C591 1.355 1_655 S
C590 C592 1.415 . S
C591 C590 1.355 1_455 S
C591 C593 1.419 . S
C592 C590 1.415 . S
C592 C597 1.425 1_655 S
C592 C599 1.409 . S
C593 H585 0.930 . S
C593 C591 1.419 . S
C593 C594 1.362 . S
C594 H586 0.930 . S
C594 C593 1.362 . S
C594 C597 1.409 . S
C595 H587 0.930 . S
C595 C596 1.355 1_455 S
C595 C597 1.415 . S
C596 C595 1.355 1_655 S
C596 C598 1.419 . S
C597 C592 1.425 1_455 S
C597 C594 1.409 . S
C597 C595 1.415 . S
C598 H588 0.930 . S
C598 C596 1.419 . S
C598 C599 1.362 . S
C599 H589 0.930 . S
C599 C592 1.409 . S
C599 C598 1.362 . S
H600 C606 0.930 . S
H601 C609 0.930 . S
H602 C610 0.930 . S
H603 C611 0.930 . S
H604 C614 0.930 . S
H605 C615 0.930 . S
C606 H600 0.930 . S
C606 C607 1.355 . S
C606 C608 1.415 . S
C607 C606 1.355 . S
C607 C609 1.419 . S
C608 C606 1.415 . S
C608 C613 1.425 . S
C608 C615 1.409 . S
C609 H601 0.930 . S
C609 C607 1.419 . S
C609 C610 1.362 . S
C610 H602 0.930 . S
C610 C609 1.362 . S
C610 C613 1.409 . S
C611 H603 0.930 . S
C611 C612 1.355 . S
C611 C613 1.415 . S
C612 C611 1.355 . S
C612 C614 1.419 . S
C613 C608 1.425 . S
C613 C610 1.409 . S
C613 C611 1.415 . S
C614 H604 0.930 . S
C614 C612 1.419 . S
C614 C615 1.362 . S
C615 H605 0.930 . S
C615 C608 1.409 . S
C615 C614 1.362 . S
H616 C622 0.930 . S
H617 C625 0.930 . S
H618 C626 0.930 . S
H619 C627 0.930 . S
H620 C630 0.930 . S
H621 C631 0.930 . S
C622 H616 0.930 . S
C622 C623 1.355 . S
C622 C624 1.415 . S
C623 C622 1.355 . S
C623 C625 1.419 . S
C624 C622 1.415 . S
C624 C629 1.425 . S
C624 C631 1.409 . S
C625 H617 0.930 . S
C625 C623 1.419 . S
C625 C626 1.362 . S
C626 H618 0.930 . S
C626 C625 1.362 . S
C626 C629 1.409 . S
C627 H619 0.930 . S
C627 C628 1.355 . S
C627 C629 1.415 . S
C628 C627 1.355 . S
C628 C630 1.419 . S
C629 C624 1.425 . S
C629 C626 1.409 . S
C629 C627 1.415 . S
C630 H620 0.930 . S
C630 C628 1.419 . S
C630 C631 1.362 . S
C631 H621 0.930 . S
C631 C624 1.409 . S
C631 C630 1.362 . S
H632 C638 0.930 . S
H633 C641 0.930 . S
H634 C642 0.930 . S
H635 C643 0.930 . S
H636 C646 0.930 . S
H637 C647 0.930 . S
C638 H632 0.930 . S
C638 C639 1.355 . S
C638 C640 1.415 . S
C639 C638 1.355 . S
C639 C641 1.419 . S
C640 C638 1.415 . S
C640 C645 1.425 . S
C640 C647 1.409 . S
C641 H633 0.930 . S
C641 C639 1.419 . S
C641 C642 1.362 . S
C642 H634 0.930 . S
C642 C641 1.362 . S
C642 C645 1.409 . S
C643 H635 0.930 . S
C643 C644 1.355 . S
C643 C645 1.415 . S
C644 C643 1.355 . S
C644 C646 1.419 . S
C645 C640 1.425 . S
C645 C642 1.409 . S
C645 C643 1.415 . S
C646 H636 0.930 . S
C646 C644 1.419 . S
C646 C647 1.362 . S
C647 H637 0.930 . S
C647 C640 1.409 . S
C647 C646 1.362 . S
H648 C654 0.930 . S
H649 C657 0.930 . S
H650 C658 0.930 . S
H651 C659 0.930 . S
H652 C662 0.930 . S
H653 C663 0.930 . S
C654 H648 0.930 . S
C654 C655 1.355 . S
C654 C656 1.415 . S
C655 C654 1.355 . S
C655 C657 1.419 . S
C656 C654 1.415 . S
C656 C661 1.425 . S
C656 C663 1.409 . S
C657 H649 0.930 . S
C657 C655 1.419 . S
C657 C658 1.362 . S
C658 H650 0.930 . S
C658 C657 1.362 . S
C658 C661 1.409 . S
C659 H651 0.930 . S
C659 C660 1.355 . S
C659 C661 1.415 . S
C660 C659 1.355 . S
C660 C662 1.419 . S
C661 C656 1.425 . S
C661 C658 1.409 . S
C661 C659 1.415 . S
C662 H652 0.930 . S
C662 C660 1.419 . S
C662 C663 1.362 . S
C663 H653 0.930 . S
C663 C656 1.409 . S
C663 C662 1.362 . S
H664 C670 0.930 . S
H665 C673 0.930 . S
H666 C674 0.930 . S
H667 C675 0.930 . S
H668 C678 0.930 . S
H669 C679 0.930 . S
C670 H664 0.930 . S
C670 C671 1.355 . S
C670 C672 1.415 . S
C671 C670 1.355 . S
C671 C673 1.419 . S
C672 C670 1.415 . S
C672 C677 1.425 . S
C672 C679 1.409 . S
C673 H665 0.930 . S
C673 C671 1.419 . S
C673 C674 1.362 . S
C674 H666 0.930 . S
C674 C673 1.362 . S
C674 C677 1.409 . S
C675 H667 0.930 . S
C675 C676 1.355 . S
C675 C677 1.415 . S
C676 C675 1.355 . S
C676 C678 1.419 . S
C677 C672 1.425 . S
C677 C674 1.409 . S
C677 C675 1.415 . S
C678 H668 0.930 . S
C678 C676 1.419 . S
C678 C679 1.362 . S
C679 H669 0.930 . S
C679 C672 1.409 . S
C679 C678 1.362 . S
H680 C686 0.930 . S
H681 C689 0.930 . S
H682 C690 0.930 . S
H683 C691 0.930 . S
H684 C694 0.930 . S
H685 C695 0.930 . S
C686 H680 0.930 . S
C686 C687 1.355 . S
C686 C688 1.415 . S
C687 C686 1.355 . S
C687 C689 1.419 . S
C688 C686 1.415 . S
C688 C693 1.425 . S
C688 C695 1.409 . S
C689 H681 0.930 . S
C689 C687 1.419 . S
C689 C690 1.362 . S
C690 H682 0.930 . S
C690 C689 1.362 . S
C690 C693 1.409 . S
C691 H683 0.930 . S
C691 C692 1.355 . S
C691 C693 1.415 . S
C692 C691 1.355 . S
C692 C694 1.419 . S
C693 C688 1.425 . S
C693 C690 1.409 . S
C693 C691 1.415 . S
C694 H684 0.930 . S
C694 C692 1.419 . S
C694 C695 1.362 . S
C695 H685 0.930 . S
C695 C688 1.409 . S
C695 C694 1.362 . S
H696 C702 0.930 . S
H697 C705 0.930 . S
H698 C706 0.930 . S
H699 C707 0.930 . S
H700 C710 0.930 . S
H701 C711 0.930 . S
C702 H696 0.930 . S
C702 C703 1.355 . S
C702 C704 1.415 . S
C703 C702 1.355 . S
C703 C705 1.419 . S
C704 C702 1.415 . S
C704 C709 1.425 . S
C704 C711 1.409 . S
C705 H697 0.930 . S
C705 C703 1.419 . S
C705 C706 1.362 . S
C706 H698 0.930 . S
C706 C705 1.362 . S
C706 C709 1.409 . S
C707 H699 0.930 . S
C707 C708 1.355 . S
C707 C709 1.415 . S
C708 C707 1.355 . S
C708 C710 1.419 . S
C709 C704 1.425 . S
C709 C706 1.409 . S
C709 C707 1.415 . S
C710 H700 0.930 . S
C710 C708 1.419 . S
C710 C711 1.362 . S
C711 H701 0.930 . S
C711 C704 1.409 . S
C711 C710 1.362 . S
H712 C718 0.930 . S
H713 C721 0.930 . S
H714 C722 0.930 . S
H715 C723 0.930 . S
H716 C726 0.930 . S
H717 C727 0.930 . S
C718 H712 0.930 . S
C718 C719 1.355 . S
C718 C720 1.415 . S
C719 C718 1.355 . S
C719 C721 1.419 . S
C720 C718 1.415 . S
C720 C725 1.425 . S
C720 C727 1.409 . S
C721 H713 0.930 . S
C721 C719 1.419 . S
C721 C722 1.362 . S
C722 H714 0.930 . S
C722 C721 1.362 . S
C722 C725 1.409 . S
C723 H715 0.930 . S
C723 C724 1.355 . S
C723 C725 1.415 . S
C724 C723 1.355 . S
C724 C726 1.419 . S
C725 C720 1.425 . S
C725 C722 1.409 . S
C725 C723 1.415 . S
C726 H716 0.930 . S
C726 C724 1.419 . S
C726 C727 1.362 . S
C727 H717 0.930 . S
C727 C720 1.409 . S
C727 C726 1.362 . S
C479 C111 1.499 . S
C484 C52 1.518 . S
C495 C170 1.499 . S
C500 C229 1.519 . S
C511 C288 1.517 . S
C516 C347 1.501 . S
C527 C406 1.506 . S
C532 C465 1.510 . S
C543 C33 1.367 . S
C548 C210 1.345 . S
C559 C151 1.368 . S
C564 C92 1.345 . S
C575 C121 1.432 . S
C580 C62 1.436 . S
C591 C3 1.409 . S
C596 C180 1.428 . S
C607 C269 1.356 . S
C612 C446 1.371 . S
C623 C387 1.335 . S
C628 C328 1.341 . S
C639 C298 1.451 . S
C644 C357 1.409 . S
C655 C239 1.405 . S
C660 C416 1.434 . S
C671 C300 1.508 . S
C676 C5 1.506 . S
C687 C241 1.507 . S
C692 C64 1.507 . S
C703 C123 1.509 . S
C708 C418 1.506 . S
C719 C359 1.509 . S
C724 C182 1.508 . S
