# Generated by pormake.
# Topology lta, (4)-cn, num edge types: 1
# Building blocks:
#     Node 0, Type 0, BuildingBlock: GALJAG_clean_sbu_0, # of connection points: 4
#     Node 1, Type 0, BuildingBlock: GALJAG_clean_sbu_0, # of connection points: 4
#     Node 2, Type 0, BuildingBlock: GALJAG_clean_sbu_0, # of connection points: 4
#     Node 3, Type 0, BuildingBlock: GALJAG_clean_sbu_0, # of connection points: 4
#     Node 4, Type 0, BuildingBlock: GALJAG_clean_sbu_0, # of connection points: 4
#     Node 5, Type 0, BuildingBlock: GALJAG_clean_sbu_0, # of connection points: 4
#     Node 6, Type 0, BuildingBlock: GALJAG_clean_sbu_0, # of connection points: 4
#     Node 7, Type 0, BuildingBlock: GALJAG_clean_sbu_0, # of connection points: 4
#     Node 8, Type 0, BuildingBlock: GALJAG_clean_sbu_0, # of connection points: 4
#     Node 9, Type 0, BuildingBlock: GALJAG_clean_sbu_0, # of connection points: 4
#     Node 10, Type 0, BuildingBlock: GALJAG_clean_sbu_0, # of connection points: 4
#     Node 11, Type 0, BuildingBlock: GALJAG_clean_sbu_0, # of connection points: 4
#     Node 12, Type 0, BuildingBlock: GALJAG_clean_sbu_0, # of connection points: 4
#     Node 13, Type 0, BuildingBlock: GALJAG_clean_sbu_0, # of connection points: 4
#     Node 14, Type 0, BuildingBlock: GALJAG_clean_sbu_0, # of connection points: 4
#     Node 15, Type 0, BuildingBlock: GALJAG_clean_sbu_0, # of connection points: 4
#     Node 16, Type 0, BuildingBlock: GALJAG_clean_sbu_0, # of connection points: 4
#     Node 17, Type 0, BuildingBlock: GALJAG_clean_sbu_0, # of connection points: 4
#     Node 18, Type 0, BuildingBlock: GALJAG_clean_sbu_0, # of connection points: 4
#     Node 19, Type 0, BuildingBlock: GALJAG_clean_sbu_0, # of connection points: 4
#     Node 20, Type 0, BuildingBlock: GALJAG_clean_sbu_0, # of connection points: 4
#     Node 21, Type 0, BuildingBlock: GALJAG_clean_sbu_0, # of connection points: 4
#     Node 22, Type 0, BuildingBlock: GALJAG_clean_sbu_0, # of connection points: 4
#     Node 23, Type 0, BuildingBlock: GALJAG_clean_sbu_0, # of connection points: 4
#     Edge 24, Type (0, 0), BuildingBlock: XIVTED_clean_linker_0, # of connection points: 2
#     Edge 25, Type (0, 0), BuildingBlock: XIVTED_clean_linker_0, # of connection points: 2
#     Edge 26, Type (0, 0), BuildingBlock: XIVTED_clean_linker_0, # of connection points: 2
#     Edge 27, Type (0, 0), BuildingBlock: XIVTED_clean_linker_0, # of connection points: 2
#     Edge 28, Type (0, 0), BuildingBlock: XIVTED_clean_linker_0, # of connection points: 2
#     Edge 29, Type (0, 0), BuildingBlock: XIVTED_clean_linker_0, # of connection points: 2
#     Edge 30, Type (0, 0), BuildingBlock: XIVTED_clean_linker_0, # of connection points: 2
#     Edge 31, Type (0, 0), BuildingBlock: XIVTED_clean_linker_0, # of connection points: 2
#     Edge 32, Type (0, 0), BuildingBlock: XIVTED_clean_linker_0, # of connection points: 2
#     Edge 33, Type (0, 0), BuildingBlock: XIVTED_clean_linker_0, # of connection points: 2
#     Edge 34, Type (0, 0), BuildingBlock: XIVTED_clean_linker_0, # of connection points: 2
#     Edge 35, Type (0, 0), BuildingBlock: XIVTED_clean_linker_0, # of connection points: 2
#     Edge 36, Type (0, 0), BuildingBlock: XIVTED_clean_linker_0, # of connection points: 2
#     Edge 37, Type (0, 0), BuildingBlock: XIVTED_clean_linker_0, # of connection points: 2
#     Edge 38, Type (0, 0), BuildingBlock: XIVTED_clean_linker_0, # of connection points: 2
#     Edge 39, Type (0, 0), BuildingBlock: XIVTED_clean_linker_0, # of connection points: 2
#     Edge 40, Type (0, 0), BuildingBlock: XIVTED_clean_linker_0, # of connection points: 2
#     Edge 41, Type (0, 0), BuildingBlock: XIVTED_clean_linker_0, # of connection points: 2
#     Edge 42, Type (0, 0), BuildingBlock: XIVTED_clean_linker_0, # of connection points: 2
#     Edge 43, Type (0, 0), BuildingBlock: XIVTED_clean_linker_0, # of connection points: 2
#     Edge 44, Type (0, 0), BuildingBlock: XIVTED_clean_linker_0, # of connection points: 2
#     Edge 45, Type (0, 0), BuildingBlock: XIVTED_clean_linker_0, # of connection points: 2
#     Edge 46, Type (0, 0), BuildingBlock: XIVTED_clean_linker_0, # of connection points: 2
#     Edge 47, Type (0, 0), BuildingBlock: XIVTED_clean_linker_0, # of connection points: 2
#     Edge 48, Type (0, 0), BuildingBlock: XIVTED_clean_linker_0, # of connection points: 2
#     Edge 49, Type (0, 0), BuildingBlock: XIVTED_clean_linker_0, # of connection points: 2
#     Edge 50, Type (0, 0), BuildingBlock: XIVTED_clean_linker_0, # of connection points: 2
#     Edge 51, Type (0, 0), BuildingBlock: XIVTED_clean_linker_0, # of connection points: 2
#     Edge 52, Type (0, 0), BuildingBlock: XIVTED_clean_linker_0, # of connection points: 2
#     Edge 53, Type (0, 0), BuildingBlock: XIVTED_clean_linker_0, # of connection points: 2
#     Edge 54, Type (0, 0), BuildingBlock: XIVTED_clean_linker_0, # of connection points: 2
#     Edge 55, Type (0, 0), BuildingBlock: XIVTED_clean_linker_0, # of connection points: 2
#     Edge 56, Type (0, 0), BuildingBlock: XIVTED_clean_linker_0, # of connection points: 2
#     Edge 57, Type (0, 0), BuildingBlock: XIVTED_clean_linker_0, # of connection points: 2
#     Edge 58, Type (0, 0), BuildingBlock: XIVTED_clean_linker_0, # of connection points: 2
#     Edge 59, Type (0, 0), BuildingBlock: XIVTED_clean_linker_0, # of connection points: 2
#     Edge 60, Type (0, 0), BuildingBlock: XIVTED_clean_linker_0, # of connection points: 2
#     Edge 61, Type (0, 0), BuildingBlock: XIVTED_clean_linker_0, # of connection points: 2
#     Edge 62, Type (0, 0), BuildingBlock: XIVTED_clean_linker_0, # of connection points: 2
#     Edge 63, Type (0, 0), BuildingBlock: XIVTED_clean_linker_0, # of connection points: 2
#     Edge 64, Type (0, 0), BuildingBlock: XIVTED_clean_linker_0, # of connection points: 2
#     Edge 65, Type (0, 0), BuildingBlock: XIVTED_clean_linker_0, # of connection points: 2
#     Edge 66, Type (0, 0), BuildingBlock: XIVTED_clean_linker_0, # of connection points: 2
#     Edge 67, Type (0, 0), BuildingBlock: XIVTED_clean_linker_0, # of connection points: 2
#     Edge 68, Type (0, 0), BuildingBlock: XIVTED_clean_linker_0, # of connection points: 2
#     Edge 69, Type (0, 0), BuildingBlock: XIVTED_clean_linker_0, # of connection points: 2
#     Edge 70, Type (0, 0), BuildingBlock: XIVTED_clean_linker_0, # of connection points: 2
#     Edge 71, Type (0, 0), BuildingBlock: XIVTED_clean_linker_0, # of connection points: 2
# Relax obj value: 0.417
# Max RMSD: 0.230
# Mean RMSD: 0.230
data_MOF--net-lta--node1-GALJAG_clean_sbu_0--edge1-XIVTED_clean_linker_0
_symmetry_space_group_name_H-M    P1
_symmetry_Int_Tables_number       1
_symmetry_cell_setting            triclinic
loop_
_symmetry_equiv_pos_as_xyz
'x, y, z'
_cell_length_a     56.872958
_cell_length_b     56.818383
_cell_length_c     56.827476
_cell_angle_alpha  89.915608
_cell_angle_beta   89.933231
_cell_angle_gamma 90.243212
loop_
_atom_site_label
_atom_site_type_symbol
_atom_site_fract_x
_atom_site_fract_y
_atom_site_fract_z
_atom_type_partial_charge
In0 In 0.14004 0.32183 0.49831 0.0
O1 O 0.16312 0.34191 0.52409 0.0
O2 O 0.13237 0.32507 0.53747 0.0
C3 C 0.15158 0.35103 0.46243 0.0
C4 C 0.16496 0.28191 0.49588 0.0
C5 C 0.09295 0.31619 0.49805 0.0
O6 O 0.14768 0.35806 0.48305 0.0
O7 O 0.14981 0.32908 0.45974 0.0
O8 O 0.10697 0.29919 0.49984 0.0
O9 O 0.10265 0.3361 0.4962 0.0
C10 C 0.15031 0.33751 0.54173 0.0
O11 O 0.14752 0.28564 0.48274 0.0
O12 O 0.17026 0.29861 0.50945 0.0
In13 In 0.69049 0.11495 0.47731 0.0
O14 O 0.67929 0.14562 0.50051 0.0
O15 O 0.6861 0.11277 0.51699 0.0
C16 C 0.65948 0.12709 0.44379 0.0
C17 C 0.73451 0.13096 0.4699 0.0
C18 C 0.6833 0.06817 0.47871 0.0
O19 O 0.65828 0.13453 0.46465 0.0
O20 O 0.67679 0.11386 0.43957 0.0
O21 O 0.7027 0.07702 0.4724 0.0
O22 O 0.66769 0.08288 0.48405 0.0
C23 C 0.67977 0.13387 0.51935 0.0
O24 O 0.72918 0.11771 0.48687 0.0
O25 O 0.71772 0.13569 0.45625 0.0
In26 In 0.86047 0.67978 0.48895 0.0
O27 O 0.84465 0.71635 0.48625 0.0
O28 O 0.82224 0.68817 0.49658 0.0
C29 C 0.90074 0.70363 0.49601 0.0
C30 C 0.85827 0.64504 0.52118 0.0
C31 C 0.85996 0.65851 0.44662 0.0
O32 O 0.88957 0.70453 0.47687 0.0
O33 O 0.89142 0.6909 0.51169 0.0
O34 O 0.84143 0.66552 0.45655 0.0
O35 O 0.87863 0.66261 0.45784 0.0
C36 C 0.82436 0.70985 0.49244 0.0
O37 O 0.86336 0.64143 0.4999 0.0
O38 O 0.85461 0.6663 0.52637 0.0
In39 In 0.31859 0.84975 0.51206 0.0
O40 O 0.33997 0.83125 0.54037 0.0
O41 O 0.31697 0.85852 0.55116 0.0
C42 C 0.34653 0.8407 0.47492 0.0
C43 C 0.28171 0.82074 0.50661 0.0
C44 C 0.31464 0.89665 0.50823 0.0
O45 O 0.3541 0.84105 0.49577 0.0
O46 O 0.32484 0.84466 0.47284 0.0
O47 O 0.29708 0.88342 0.51169 0.0
O48 O 0.33415 0.88621 0.50699 0.0
C49 C 0.3319 0.84332 0.55711 0.0
O50 O 0.28051 0.84249 0.50246 0.0
O51 O 0.30148 0.81367 0.51361 0.0
In52 In 0.10936 0.68052 0.48728 0.0
O53 O 0.09149 0.65982 0.45798 0.0
O54 O 0.1275 0.669 0.45353 0.0
C55 C 0.11258 0.64733 0.521 0.0
C56 C 0.14615 0.71011 0.48945 0.0
C57 C 0.0691 0.70419 0.49439 0.0
O58 O 0.10844 0.64235 0.49978 0.0
O59 O 0.11497 0.66899 0.52518 0.0
O60 O 0.07933 0.70381 0.4747 0.0
O61 O 0.0793 0.69285 0.51045 0.0
C62 C 0.10958 0.65894 0.44514 0.0
O63 O 0.12584 0.71695 0.48393 0.0
O64 O 0.14785 0.68843 0.49374 0.0
In65 In 0.30665 0.11857 0.48618 0.0
O66 O 0.31944 0.14767 0.46186 0.0
O67 O 0.31009 0.11487 0.44642 0.0
C68 C 0.3411 0.12914 0.51688 0.0
C69 C 0.2666 0.14161 0.4956 0.0
C70 C 0.30602 0.07122 0.48811 0.0
O71 O 0.34299 0.13253 0.49504 0.0
O72 O 0.32169 0.12044 0.52339 0.0
O73 O 0.28842 0.08336 0.49389 0.0
O74 O 0.32352 0.08295 0.48118 0.0
C75 C 0.31787 0.13551 0.44338 0.0
O76 O 0.26913 0.12935 0.4773 0.0
O77 O 0.28393 0.14152 0.50938 0.0
In78 In 0.87104 0.29436 0.50683 0.0
O79 O 0.85605 0.32918 0.49393 0.0
O80 O 0.87263 0.3068 0.46895 0.0
C81 C 0.85104 0.30556 0.54834 0.0
C82 C 0.85235 0.25268 0.49418 0.0
C83 C 0.91826 0.29786 0.50817 0.0
O84 O 0.87185 0.29819 0.5467 0.0
O85 O 0.84004 0.30644 0.52911 0.0
O86 O 0.90787 0.2786 0.50426 0.0
O87 O 0.90485 0.31506 0.51176 0.0
C88 C 0.86207 0.3259 0.4728 0.0
O89 O 0.86434 0.25498 0.5127 0.0
O90 O 0.84974 0.27127 0.48245 0.0
In91 In 0.65134 0.84802 0.49533 0.0
O92 O 0.69042 0.84067 0.49636 0.0
O93 O 0.66706 0.81199 0.50243 0.0
C94 C 0.65767 0.89483 0.49523 0.0
C95 C 0.63771 0.83689 0.45125 0.0
C96 C 0.62336 0.84376 0.53334 0.0
O97 O 0.67409 0.88059 0.49946 0.0
O98 O 0.63786 0.88545 0.49141 0.0
O99 O 0.61571 0.84208 0.51259 0.0
O100 O 0.64517 0.84755 0.53494 0.0
C101 C 0.68803 0.81904 0.5006 0.0
O102 O 0.63001 0.82624 0.46915 0.0
O103 O 0.65228 0.85304 0.45559 0.0
In104 In 0.48092 0.13306 0.31189 0.0
O105 O 0.48174 0.13854 0.27229 0.0
O106 O 0.4938 0.16645 0.29406 0.0
C107 C 0.47891 0.08594 0.31037 0.0
C108 C 0.51988 0.13662 0.33843 0.0
C109 C 0.43786 0.14731 0.32585 0.0
O110 O 0.48184 0.09841 0.29221 0.0
O111 O 0.47684 0.09728 0.32934 0.0
O112 O 0.45656 0.15652 0.33342 0.0
O113 O 0.44087 0.13129 0.31088 0.0
C114 C 0.49053 0.15888 0.27349 0.0
O115 O 0.49982 0.14236 0.34597 0.0
O116 O 0.52023 0.12908 0.31758 0.0
In117 In 0.86354 0.48223 0.31651 0.0
O118 O 0.85155 0.49221 0.27975 0.0
O119 O 0.83106 0.4672 0.29868 0.0
C120 C 0.90781 0.47235 0.30314 0.0
C121 C 0.86102 0.5257 0.33541 0.0
C122 C 0.85322 0.44895 0.34845 0.0
O123 O 0.89344 0.48243 0.28963 0.0
O124 O 0.89981 0.46727 0.32319 0.0
O125 O 0.8524 0.47065 0.35322 0.0
O126 O 0.85884 0.44417 0.32749 0.0
C127 C 0.83384 0.47883 0.27999 0.0
O128 O 0.84296 0.51395 0.33008 0.0
O129 O 0.8802 0.51551 0.33129 0.0
In130 In 0.48891 0.86311 0.30702 0.0
O131 O 0.49935 0.85525 0.26926 0.0
O132 O 0.46713 0.84094 0.28187 0.0
C133 C 0.48592 0.91034 0.30754 0.0
C134 C 0.45661 0.85037 0.33924 0.0
C135 C 0.53167 0.84798 0.32028 0.0
O136 O 0.48357 0.89855 0.28892 0.0
O137 O 0.48986 0.89834 0.32575 0.0
O138 O 0.51406 0.83448 0.31901 0.0
O139 O 0.52784 0.86898 0.31418 0.0
C140 C 0.48136 0.84297 0.26497 0.0
O141 O 0.47823 0.84617 0.34161 0.0
O142 O 0.45116 0.8608 0.3204 0.0
In143 In 0.12433 0.4961 0.30101 0.0
O144 O 0.13671 0.48751 0.33814 0.0
O145 O 0.14229 0.46173 0.31188 0.0
C146 C 0.1213 0.53921 0.32009 0.0
C147 C 0.14979 0.4967 0.26107 0.0
C148 C 0.07989 0.48215 0.29298 0.0
O149 O 0.14075 0.5291 0.31662 0.0
O150 O 0.10344 0.52775 0.31344 0.0
O151 O 0.09014 0.49713 0.28008 0.0
O152 O 0.09204 0.47443 0.30981 0.0
C153 C 0.14426 0.46733 0.33322 0.0
O154 O 0.13765 0.47922 0.26734 0.0
O155 O 0.14901 0.51399 0.27486 0.0
In156 In 0.48223 0.88159 0.69839 0.0
O157 O 0.50567 0.86605 0.72656 0.0
O158 O 0.47006 0.8725 0.73559 0.0
C159 C 0.48655 0.92835 0.692 0.0
C160 C 0.51407 0.86394 0.66812 0.0
C161 C 0.43927 0.86625 0.68605 0.0
O162 O 0.48728 0.91913 0.71218 0.0
O163 O 0.4831 0.91411 0.67542 0.0
O164 O 0.45671 0.8527 0.68787 0.0
O165 O 0.44337 0.88751 0.6912 0.0
C166 C 0.48981 0.86481 0.74197 0.0
O167 O 0.4923 0.86022 0.66609 0.0
O168 O 0.51984 0.87624 0.68566 0.0
In169 In 0.11933 0.48976 0.67926 0.0
O170 O 0.12646 0.48645 0.71855 0.0
O171 O 0.14608 0.51173 0.699 0.0
C172 C 0.07241 0.48426 0.68146 0.0
C173 C 0.12046 0.52322 0.6457 0.0
C174 C 0.14109 0.44942 0.6676 0.0
O175 O 0.08369 0.49563 0.69683 0.0
O176 O 0.08482 0.47566 0.66527 0.0
O177 O 0.14969 0.46941 0.66302 0.0
O178 O 0.122 0.44984 0.67889 0.0
C179 C 0.14192 0.50242 0.71872 0.0
O180 O 0.12544 0.50202 0.6416 0.0
O181 O 0.11505 0.5276 0.66677 0.0
In182 In 0.51674 0.14524 0.65207 0.0
O183 O 0.50496 0.15396 0.68918 0.0
O184 O 0.51706 0.18205 0.66753 0.0
C185 C 0.51693 0.09887 0.66093 0.0
C186 C 0.47897 0.14883 0.62369 0.0
C187 C 0.56034 0.1553 0.63636 0.0
O188 O 0.52042 0.11399 0.67682 0.0
O189 O 0.51401 0.10717 0.64054 0.0
O190 O 0.5423 0.16586 0.62912 0.0
O191 O 0.55646 0.13979 0.6518 0.0
C192 C 0.50892 0.1757 0.68718 0.0
O193 O 0.49974 0.14847 0.61593 0.0
O194 O 0.47726 0.14771 0.64577 0.0
In195 In 0.85028 0.47745 0.66866 0.0
O196 O 0.84243 0.47867 0.70787 0.0
O197 O 0.81412 0.48376 0.68395 0.0
C198 C 0.8971 0.47754 0.67452 0.0
C199 C 0.83759 0.43363 0.65589 0.0
C200 C 0.84723 0.51381 0.63831 0.0
O201 O 0.88346 0.48765 0.6888 0.0
O202 O 0.88708 0.46747 0.65749 0.0
O203 O 0.84799 0.49266 0.63175 0.0
O204 O 0.8476 0.5167 0.6603 0.0
C205 C 0.82073 0.48217 0.70506 0.0
O206 O 0.82887 0.45179 0.64663 0.0
O207 O 0.85258 0.43758 0.67177 0.0
In208 In 0.3218 0.47115 0.12635 0.0
O209 O 0.28684 0.45809 0.1409 0.0
O210 O 0.29547 0.49429 0.14516 0.0
C211 C 0.31146 0.47174 0.08016 0.0
C212 C 0.35462 0.50525 0.12924 0.0
C213 C 0.34125 0.4324 0.14552 0.0
O214 O 0.30081 0.48434 0.09495 0.0
O215 O 0.3271 0.45862 0.08872 0.0
O216 O 0.34563 0.45286 0.15289 0.0
O217 O 0.32672 0.43148 0.12882 0.0
C218 C 0.28077 0.47799 0.14856 0.0
O219 O 0.35332 0.49128 0.11207 0.0
O220 O 0.33956 0.50182 0.14521 0.0
In221 In 0.30304 0.51338 0.86174 0.0
O222 O 0.33242 0.49645 0.84054 0.0
O223 O 0.303 0.47514 0.84925 0.0
C224 C 0.33023 0.55217 0.86017 0.0
C225 C 0.26103 0.52143 0.84136 0.0
C226 C 0.30258 0.50237 0.9077 0.0
O227 O 0.32675 0.53929 0.84243 0.0
O228 O 0.31953 0.54579 0.8786 0.0
O229 O 0.2879 0.51637 0.89873 0.0
O230 O 0.31764 0.49433 0.89356 0.0
C231 C 0.32284 0.47647 0.83947 0.0
O232 O 0.26447 0.50466 0.85538 0.0
O233 O 0.27869 0.53438 0.83784 0.0
In234 In 0.46786 0.31882 0.85219 0.0
O235 O 0.46106 0.28355 0.83444 0.0
O236 O 0.48216 0.30882 0.81648 0.0
C237 C 0.46302 0.2973 0.89402 0.0
C238 C 0.50528 0.3456 0.86363 0.0
C239 C 0.43248 0.34557 0.83585 0.0
O240 O 0.47915 0.29215 0.87971 0.0
O241 O 0.44898 0.31293 0.88696 0.0
O242 O 0.45384 0.35059 0.83262 0.0
O243 O 0.42883 0.32684 0.84726 0.0
C244 C 0.47307 0.28858 0.81644 0.0
O245 O 0.48462 0.35068 0.86987 0.0
O246 O 0.50703 0.32703 0.85164 0.0
In247 In 0.66918 0.49425 0.86677 0.0
O248 O 0.63985 0.51172 0.8461 0.0
O249 O 0.66853 0.53315 0.857 0.0
C250 C 0.63834 0.45903 0.87477 0.0
C251 C 0.70265 0.48546 0.83471 0.0
C252 C 0.68445 0.50268 0.91067 0.0
O253 O 0.63436 0.48007 0.88048 0.0
O254 O 0.6581 0.45562 0.8653 0.0
O255 O 0.69013 0.48439 0.89948 0.0
O256 O 0.67127 0.51664 0.89965 0.0
C257 C 0.64905 0.53194 0.84648 0.0
O258 O 0.70743 0.49315 0.85496 0.0
O259 O 0.68113 0.48182 0.83091 0.0
In260 In 0.50672 0.68737 0.86595 0.0
O261 O 0.48635 0.72012 0.85555 0.0
O262 O 0.52302 0.71967 0.84868 0.0
C263 C 0.51536 0.69094 0.91227 0.0
C264 C 0.46626 0.66287 0.86269 0.0
C265 C 0.54072 0.66258 0.84433 0.0
O266 O 0.50503 0.70684 0.90081 0.0
O267 O 0.52148 0.67331 0.90032 0.0
O268 O 0.51919 0.65955 0.83991 0.0
O269 O 0.54505 0.67842 0.85923 0.0
C270 C 0.50406 0.73098 0.84777 0.0
O271 O 0.47595 0.67218 0.84494 0.0
O272 O 0.47705 0.66583 0.88183 0.0
In273 In 0.67477 0.50038 0.12803 0.0
O274 O 0.7129 0.50424 0.13898 0.0
O275 O 0.69059 0.48263 0.16004 0.0
C276 C 0.68821 0.50882 0.08346 0.0
C277 C 0.64492 0.46474 0.11871 0.0
C278 C 0.65463 0.53605 0.15171 0.0
O279 O 0.69601 0.49178 0.0953 0.0
O280 O 0.67386 0.52181 0.09423 0.0
O281 O 0.64748 0.51507 0.15338 0.0
O282 O 0.67201 0.53898 0.13822 0.0
C283 C 0.71086 0.49108 0.15675 0.0
O284 O 0.63948 0.48602 0.1156 0.0
O285 O 0.6653 0.46147 0.12677 0.0
In286 In 0.50186 0.67371 0.13278 0.0
O287 O 0.51237 0.71018 0.14491 0.0
O288 O 0.47641 0.7004 0.14833 0.0
C289 C 0.50853 0.68166 0.0867 0.0
C290 C 0.53822 0.65594 0.1575 0.0
C291 C 0.469 0.63954 0.13254 0.0
O292 O 0.49279 0.69205 0.09837 0.0
O293 O 0.52066 0.66716 0.09825 0.0
O294 O 0.47034 0.65454 0.14886 0.0
O295 O 0.48406 0.64195 0.11641 0.0
C296 C 0.49195 0.71605 0.15107 0.0
O297 O 0.51713 0.65108 0.16231 0.0
O298 O 0.54087 0.67021 0.14073 0.0
In299 In 0.49824 0.29911 0.10818 0.0
O300 O 0.48277 0.32537 0.13405 0.0
O301 O 0.46011 0.29886 0.12057 0.0
C302 C 0.53154 0.3319 0.10006 0.0
C303 C 0.51039 0.26333 0.13648 0.0
C304 C 0.48606 0.28736 0.06407 0.0
O305 O 0.50988 0.33604 0.09803 0.0
O306 O 0.53648 0.31097 0.10555 0.0
O307 O 0.5055 0.28135 0.0729 0.0
O308 O 0.47306 0.29928 0.07744 0.0
C309 C 0.46235 0.31666 0.1336 0.0
O310 O 0.49879 0.26021 0.11786 0.0
O311 O 0.51628 0.28434 0.14042 0.0
H312 H 0.15295 0.47671 0.37938 0.0
H313 H 0.15633 0.34104 0.41547 0.0
H314 H 0.153 0.4202 0.32874 0.0
H315 H 0.15748 0.39851 0.46502 0.0
H316 H 0.16017 0.36946 0.38321 0.0
H317 H 0.16007 0.4482 0.41065 0.0
C318 C 0.15477 0.4583 0.37482 0.0
C319 C 0.15212 0.45074 0.35152 0.0
C320 C 0.15984 0.37582 0.40116 0.0
C321 C 0.15993 0.41792 0.38724 0.0
C322 C 0.15765 0.35961 0.41956 0.0
C323 C 0.15631 0.36749 0.4429 0.0
C324 C 0.16064 0.40002 0.40622 0.0
C325 C 0.15821 0.3917 0.44726 0.0
C326 C 0.1588 0.44201 0.39269 0.0
C327 C 0.1548 0.42672 0.34654 0.0
N328 N 0.16007 0.40711 0.42908 0.0
N329 N 0.15825 0.41109 0.36432 0.0
H330 H 0.65704 0.11231 0.39802 0.0
H331 H 0.52414 0.15449 0.38282 0.0
H332 H 0.61946 0.15248 0.45023 0.0
H333 H 0.56413 0.12197 0.32717 0.0
H334 H 0.55943 0.15512 0.4073 0.0
H335 H 0.62389 0.1171 0.37105 0.0
C336 C 0.64192 0.12235 0.4037 0.0
C337 C 0.6409 0.13188 0.42641 0.0
C338 C 0.56054 0.14797 0.38968 0.0
C339 C 0.60288 0.13724 0.39584 0.0
C340 C 0.54039 0.14757 0.37574 0.0
C341 C 0.54122 0.13804 0.35302 0.0
C342 C 0.58163 0.13862 0.38088 0.0
C343 C 0.56273 0.1294 0.34464 0.0
C344 C 0.62299 0.12505 0.38833 0.0
C345 C 0.62092 0.14475 0.4329 0.0
N346 N 0.58206 0.12975 0.35864 0.0
N347 N 0.60261 0.14688 0.41776 0.0
H348 H 0.89764 0.6438 0.42101 0.0
H349 H 0.82192 0.55002 0.34918 0.0
H350 H 0.82186 0.64031 0.42348 0.0
H351 H 0.8977 0.5541 0.34765 0.0
H352 H 0.82099 0.58667 0.37173 0.0
H353 H 0.89747 0.61499 0.38925 0.0
C354 C 0.88093 0.63719 0.41462 0.0
C355 C 0.85975 0.64416 0.42506 0.0
C356 C 0.83781 0.57968 0.36623 0.0
C357 C 0.85941 0.61094 0.38896 0.0
C358 C 0.83834 0.55877 0.35339 0.0
C359 C 0.85993 0.5489 0.34686 0.0
C360 C 0.85903 0.59068 0.37261 0.0
C361 C 0.88068 0.561 0.35259 0.0
C362 C 0.88084 0.6207 0.39651 0.0
C363 C 0.8386 0.63522 0.416 0.0
N364 N 0.87972 0.58114 0.36533 0.0
N365 N 0.83897 0.61879 0.39866 0.0
H366 H 0.39331 0.83012 0.47497 0.0
H367 H 0.40898 0.85647 0.33804 0.0
H368 H 0.33522 0.84455 0.4284 0.0
H369 H 0.46511 0.83186 0.38268 0.0
H370 H 0.38125 0.85034 0.37042 0.0
H371 H 0.41959 0.82874 0.44097 0.0
C372 C 0.38607 0.83279 0.45755 0.0
C373 C 0.36213 0.83762 0.45446 0.0
C374 C 0.39959 0.84607 0.37306 0.0
C375 C 0.39205 0.83628 0.41554 0.0
C376 C 0.41541 0.84959 0.3546 0.0
C377 C 0.43935 0.84483 0.35779 0.0
C378 C 0.40786 0.83794 0.39489 0.0
C379 C 0.44678 0.83586 0.37954 0.0
C380 C 0.40106 0.83199 0.43814 0.0
C381 C 0.35361 0.84086 0.43154 0.0
N382 N 0.43112 0.83291 0.39734 0.0
N383 N 0.36862 0.84035 0.41294 0.0
H384 H 0.12666 0.5171 0.59846 0.0
H385 H 0.11671 0.65417 0.56832 0.0
H386 H 0.11425 0.57055 0.65086 0.0
H387 H 0.1128 0.59953 0.51576 0.0
H388 H 0.1196 0.62399 0.59886 0.0
H389 H 0.12551 0.54739 0.56788 0.0
C390 C 0.12377 0.53523 0.60352 0.0
C391 C 0.12047 0.54137 0.62718 0.0
C392 C 0.11809 0.6186 0.58065 0.0
C393 C 0.11917 0.57604 0.59237 0.0
C394 C 0.11649 0.63581 0.56322 0.0
C395 C 0.11445 0.62929 0.53952 0.0
C396 C 0.11783 0.59474 0.57429 0.0
C397 C 0.11426 0.60528 0.53386 0.0
C398 C 0.12304 0.55248 0.58607 0.0
C399 C 0.11679 0.56509 0.63279 0.0
N400 N 0.11597 0.58884 0.55114 0.0
N401 N 0.11626 0.58159 0.6155 0.0
H402 H 0.3412 0.12473 0.56486 0.0
H403 H 0.47825 0.1539 0.57596 0.0
H404 H 0.38497 0.14537 0.5062 0.0
H405 H 0.43278 0.14386 0.63603 0.0
H406 H 0.44403 0.15129 0.55017 0.0
H407 H 0.37431 0.13196 0.59143 0.0
C408 C 0.35775 0.13088 0.55761 0.0
C409 C 0.36043 0.13436 0.53332 0.0
C410 C 0.44149 0.14982 0.569 0.0
C411 C 0.39829 0.14257 0.56348 0.0
C412 C 0.46102 0.1513 0.58372 0.0
C413 C 0.4583 0.14901 0.60812 0.0
C414 C 0.41912 0.1458 0.57876 0.0
C415 C 0.43561 0.1457 0.61727 0.0
C416 C 0.37661 0.13504 0.57276 0.0
C417 C 0.38219 0.14239 0.52481 0.0
N418 N 0.41688 0.14402 0.60256 0.0
N419 N 0.40032 0.14609 0.53987 0.0
H420 H 0.85916 0.39254 0.66821 0.0
H421 H 0.8094 0.32858 0.55445 0.0
H422 H 0.80514 0.42058 0.623 0.0
H423 H 0.87224 0.30776 0.59139 0.0
H424 H 0.79972 0.355 0.58689 0.0
H425 H 0.85614 0.35488 0.64762 0.0
C426 C 0.84633 0.39062 0.65426 0.0
C427 C 0.83275 0.4098 0.64689 0.0
C428 C 0.81536 0.34428 0.58813 0.0
C429 C 0.82928 0.36693 0.62329 0.0
C430 C 0.82086 0.32912 0.56966 0.0
C431 C 0.84195 0.31643 0.57003 0.0
C432 C 0.83114 0.34678 0.60696 0.0
C433 C 0.85602 0.31759 0.59025 0.0
C434 C 0.84463 0.36914 0.64251 0.0
C435 C 0.81625 0.40632 0.62892 0.0
N436 N 0.85059 0.33289 0.60774 0.0
N437 N 0.81522 0.38539 0.61747 0.0
H438 H 0.56187 0.86873 0.66916 0.0
H439 H 0.57652 0.83324 0.53437 0.0
H440 H 0.5051 0.84197 0.62641 0.0
H441 H 0.63491 0.85136 0.57936 0.0
H442 H 0.55046 0.83398 0.56854 0.0
H443 H 0.5894 0.85995 0.63734 0.0
C444 C 0.55525 0.86077 0.65316 0.0
C445 C 0.53118 0.85627 0.65028 0.0
C446 C 0.569 0.8376 0.571 0.0
C447 C 0.56247 0.8464 0.61377 0.0
C448 C 0.58387 0.83722 0.55149 0.0
C449 C 0.60783 0.84245 0.55406 0.0
C450 C 0.57816 0.84345 0.59319 0.0
C451 C 0.61649 0.84735 0.57663 0.0
C452 C 0.57097 0.85577 0.635 0.0
C453 C 0.52353 0.84585 0.62927 0.0
N454 N 0.6016 0.84795 0.59532 0.0
N455 N 0.5391 0.84149 0.61171 0.0
H456 H 0.34014 0.17712 0.43399 0.0
H457 H 0.3962 0.12486 0.31722 0.0
H458 H 0.31845 0.11197 0.40147 0.0
H459 H 0.42686 0.1809 0.35834 0.0
H460 H 0.36032 0.12766 0.34077 0.0
H461 H 0.36406 0.1861 0.39936 0.0
C462 C 0.34 0.16495 0.41933 0.0
C463 C 0.32777 0.14351 0.42077 0.0
C464 C 0.37473 0.13966 0.34432 0.0
C465 C 0.35518 0.15358 0.38129 0.0
C466 C 0.39519 0.13811 0.33087 0.0
C467 C 0.41467 0.15232 0.33624 0.0
C468 C 0.37385 0.15549 0.36324 0.0
C469 C 0.41236 0.16933 0.35392 0.0
C470 C 0.3537 0.17006 0.39961 0.0
C471 C 0.32798 0.12851 0.40121 0.0
N472 N 0.39243 0.1702 0.36707 0.0
N473 N 0.34183 0.13364 0.3824 0.0
H474 H 0.8693 0.3205 0.42576 0.0
H475 H 0.84191 0.45453 0.39491 0.0
H476 H 0.84454 0.37044 0.47719 0.0
H477 H 0.85735 0.40154 0.34285 0.0
H478 H 0.84085 0.42385 0.42517 0.0
H479 H 0.86347 0.34981 0.39496 0.0
C480 C 0.86255 0.33765 0.43054 0.0
C481 C 0.85754 0.34316 0.45403 0.0
C482 C 0.84423 0.41892 0.40709 0.0
C483 C 0.85088 0.37683 0.41892 0.0
C484 C 0.84482 0.4364 0.38982 0.0
C485 C 0.84991 0.43054 0.36641 0.0
C486 C 0.84894 0.39549 0.40084 0.0
C487 C 0.85349 0.40683 0.36073 0.0
C488 C 0.85915 0.35436 0.41294 0.0
C489 C 0.84869 0.36555 0.45926 0.0
N490 N 0.85315 0.39019 0.37787 0.0
N491 N 0.84581 0.38168 0.44183 0.0
H492 H 0.57245 0.87324 0.32404 0.0
H493 H 0.60773 0.80202 0.43707 0.0
H494 H 0.54071 0.80686 0.34336 0.0
H495 H 0.64689 0.86196 0.41128 0.0
H496 H 0.58774 0.79931 0.39916 0.0
H497 H 0.60462 0.86537 0.35128 0.0
C498 C 0.57254 0.85676 0.33364 0.0
C499 C 0.55367 0.84091 0.33189 0.0
C500 C 0.60101 0.8128 0.40161 0.0
C501 C 0.59009 0.83198 0.3634 0.0
C502 C 0.61238 0.81438 0.42328 0.0
C503 C 0.62858 0.83254 0.42742 0.0
C504 C 0.60565 0.82976 0.38415 0.0
C505 C 0.63421 0.8479 0.40889 0.0
C506 C 0.59089 0.85226 0.34923 0.0
C507 C 0.55477 0.81971 0.34448 0.0
N508 N 0.62243 0.84644 0.38819 0.0
N509 N 0.57242 0.81608 0.36012 0.0
H510 H 0.07298 0.63746 0.42256 0.0
H511 H 0.157 0.56743 0.33574 0.0
H512 H 0.14761 0.65041 0.41712 0.0
H513 H 0.08135 0.56123 0.3348 0.0
H514 H 0.15361 0.60077 0.36261 0.0
H515 H 0.07519 0.61229 0.38781 0.0
C516 C 0.08979 0.63517 0.41389 0.0
C517 C 0.11019 0.64577 0.42285 0.0
C518 C 0.13772 0.59233 0.35629 0.0
C519 C 0.11291 0.61692 0.38323 0.0
C520 C 0.13966 0.57331 0.34094 0.0
C521 C 0.11943 0.56141 0.3333 0.0
C522 C 0.11541 0.59929 0.36423 0.0
C523 C 0.0974 0.56981 0.34044 0.0
C524 C 0.09105 0.62084 0.39404 0.0
C525 C 0.13149 0.64239 0.41088 0.0
N526 N 0.09598 0.58806 0.35577 0.0
N527 N 0.13235 0.62802 0.39183 0.0
H528 H 0.36109 0.80977 0.57496 0.0
H529 H 0.39939 0.89207 0.67932 0.0
H530 H 0.32376 0.87291 0.59402 0.0
H531 H 0.42894 0.82332 0.66719 0.0
H532 H 0.36694 0.88218 0.65298 0.0
H533 H 0.38146 0.81097 0.61272 0.0
C534 C 0.35692 0.82368 0.58728 0.0
C535 C 0.3411 0.84153 0.58124 0.0
C536 C 0.38024 0.86906 0.65644 0.0
C537 C 0.36452 0.84323 0.6243 0.0
C538 C 0.39876 0.8747 0.67151 0.0
C539 C 0.4171 0.85867 0.67499 0.0
C540 C 0.38033 0.84738 0.64457 0.0
C541 C 0.41532 0.83633 0.66467 0.0
C542 C 0.36851 0.82435 0.60887 0.0
C543 C 0.33609 0.85897 0.59791 0.0
N544 N 0.39751 0.83151 0.64952 0.0
N545 N 0.34811 0.85965 0.61853 0.0
H546 H 0.18028 0.44429 0.64025 0.0
H547 H 0.12566 0.33024 0.58238 0.0
H548 H 0.12183 0.40537 0.66951 0.0
H549 H 0.18532 0.36808 0.55415 0.0
H550 H 0.12971 0.35215 0.61909 0.0
H551 H 0.18851 0.41128 0.61409 0.0
C552 C 0.16953 0.42855 0.64157 0.0
C553 C 0.15001 0.42774 0.65663 0.0
C554 C 0.14217 0.35541 0.60503 0.0
C555 C 0.15899 0.39016 0.62649 0.0
C556 C 0.13983 0.34293 0.58405 0.0
C557 C 0.15486 0.34776 0.56508 0.0
C558 C 0.1595 0.37301 0.60689 0.0
C559 C 0.17311 0.36411 0.56826 0.0
C560 C 0.17417 0.40973 0.62657 0.0
C561 C 0.13682 0.40686 0.65784 0.0
N562 N 0.17468 0.37646 0.58863 0.0
N563 N 0.14124 0.38907 0.64258 0.0
H564 H 0.57333 0.18902 0.60465 0.0
H565 H 0.68044 0.11253 0.56239 0.0
H566 H 0.60009 0.12933 0.64307 0.0
H567 H 0.65719 0.1755 0.52699 0.0
H568 H 0.65706 0.12347 0.59666 0.0
H569 H 0.60916 0.18959 0.58099 0.0
C570 C 0.58696 0.17629 0.60837 0.0
C571 C 0.58358 0.15877 0.62544 0.0
C572 C 0.65741 0.13516 0.5816 0.0
C573 C 0.62443 0.15908 0.59827 0.0
C574 C 0.67078 0.12892 0.56203 0.0
C575 C 0.67028 0.14288 0.54168 0.0
C576 C 0.64321 0.15531 0.58062 0.0
C577 C 0.65775 0.16406 0.54224 0.0
C578 C 0.60743 0.17662 0.59488 0.0
C579 C 0.60189 0.14292 0.62981 0.0
N580 N 0.64429 0.1694 0.56123 0.0
N581 N 0.62136 0.14315 0.61597 0.0
H582 H 0.84554 0.56099 0.64788 0.0
H583 H 0.86202 0.59799 0.51299 0.0
H584 H 0.84892 0.51148 0.59047 0.0
H585 H 0.84984 0.64826 0.5685 0.0
H586 H 0.85815 0.56612 0.54154 0.0
H587 H 0.84758 0.59337 0.61944 0.0
C588 C 0.84658 0.55696 0.62929 0.0
C589 C 0.84711 0.53356 0.62148 0.0
C590 C 0.85629 0.58411 0.54751 0.0
C591 C 0.84961 0.57038 0.58895 0.0
C592 C 0.85857 0.60231 0.53123 0.0
C593 C 0.85628 0.62577 0.53844 0.0
C594 C 0.85179 0.58939 0.57123 0.0
C595 C 0.85174 0.63038 0.56225 0.0
C596 C 0.84776 0.57542 0.61308 0.0
C597 C 0.84848 0.52927 0.59723 0.0
N598 N 0.84969 0.61232 0.57784 0.0
N599 N 0.84978 0.54751 0.58184 0.0
H600 H 0.37793 0.43099 0.17649 0.0
H601 H 0.41585 0.30505 0.1298 0.0
H602 H 0.33505 0.38668 0.13212 0.0
H603 H 0.46288 0.35498 0.1625 0.0
H604 H 0.38253 0.3295 0.14139 0.0
H605 H 0.40499 0.39818 0.18227 0.0
C606 C 0.37394 0.4142 0.16839 0.0
C607 C 0.35457 0.41165 0.15335 0.0
C608 C 0.40011 0.33487 0.14642 0.0
C609 C 0.38546 0.37422 0.15972 0.0
C610 C 0.41912 0.3209 0.13986 0.0
C611 C 0.44214 0.32834 0.14474 0.0
C612 C 0.40424 0.35639 0.15786 0.0
C613 C 0.4454 0.34887 0.15802 0.0
C614 C 0.38942 0.3955 0.17165 0.0
C615 C 0.35006 0.38948 0.1435 0.0
N616 N 0.42666 0.3624 0.16379 0.0
N617 N 0.36563 0.3717 0.14653 0.0
H618 H 0.44248 0.64863 0.82327 0.0
H619 H 0.34414 0.5794 0.89718 0.0
H620 H 0.43999 0.64613 0.89914 0.0
H621 H 0.35496 0.56954 0.82266 0.0
H622 H 0.37538 0.60903 0.89728 0.0
H623 H 0.40677 0.62434 0.82189 0.0
C624 C 0.43433 0.64308 0.83961 0.0
C625 C 0.44424 0.64921 0.86135 0.0
C626 C 0.37081 0.60051 0.88087 0.0
C627 C 0.40351 0.62165 0.85993 0.0
C628 C 0.35292 0.58367 0.88079 0.0
C629 C 0.34712 0.5719 0.85992 0.0
C630 C 0.38294 0.60562 0.85992 0.0
C631 C 0.35901 0.57813 0.83916 0.0
C632 C 0.41401 0.62922 0.83882 0.0
C633 C 0.433 0.64163 0.88201 0.0
N634 N 0.37649 0.59449 0.83971 0.0
N635 N 0.41327 0.6282 0.88078 0.0
H636 H 0.38529 0.34123 0.84456 0.0
H637 H 0.36372 0.47568 0.81446 0.0
H638 H 0.43656 0.38658 0.8113 0.0
H639 H 0.31061 0.43014 0.84435 0.0
H640 H 0.38797 0.44133 0.80636 0.0
H641 H 0.35531 0.37131 0.83815 0.0
C642 C 0.39014 0.35736 0.83557 0.0
C643 C 0.41349 0.36166 0.82884 0.0
C644 C 0.37086 0.43875 0.81435 0.0
C645 C 0.37944 0.39612 0.8216 0.0
C646 C 0.35701 0.45837 0.81895 0.0
C647 C 0.33535 0.45572 0.83045 0.0
C648 C 0.36313 0.41637 0.82164 0.0
C649 C 0.32734 0.43292 0.83567 0.0
C650 C 0.37303 0.37453 0.83191 0.0
C651 C 0.41881 0.38273 0.81709 0.0
N652 N 0.34144 0.41412 0.83161 0.0
N653 N 0.40199 0.39932 0.81414 0.0
H654 H 0.64131 0.41309 0.86081 0.0
H655 H 0.50572 0.38686 0.8882 0.0
H656 H 0.59465 0.46261 0.89421 0.0
H657 H 0.55117 0.33866 0.85137 0.0
H658 H 0.53932 0.41299 0.89463 0.0
H659 H 0.60979 0.38367 0.86141 0.0
C660 C 0.6245 0.41768 0.86849 0.0
C661 C 0.62047 0.44035 0.87728 0.0
C662 C 0.54199 0.39663 0.88527 0.0
C663 C 0.58435 0.40692 0.8779 0.0
C664 C 0.52282 0.38172 0.8816 0.0
C665 C 0.52567 0.36071 0.86905 0.0
C666 C 0.56415 0.39048 0.87627 0.0
C667 C 0.5482 0.35481 0.861 0.0
C668 C 0.60651 0.40091 0.86879 0.0
C669 C 0.59842 0.44537 0.8871 0.0
N670 N 0.56657 0.36971 0.86461 0.0
N671 N 0.58113 0.42884 0.88698 0.0
H672 H 0.66309 0.57789 0.84936 0.0
H673 H 0.53518 0.62355 0.81679 0.0
H674 H 0.60701 0.53359 0.82346 0.0
H675 H 0.58801 0.6654 0.85187 0.0
H676 H 0.56471 0.59334 0.80924 0.0
H677 H 0.63929 0.61253 0.8406 0.0
C678 C 0.64592 0.57549 0.84146 0.0
C679 C 0.63676 0.55288 0.83757 0.0
C680 C 0.56994 0.60932 0.81823 0.0
C681 C 0.60945 0.59231 0.82766 0.0
C682 C 0.55311 0.62659 0.82248 0.0
C683 C 0.5591 0.64673 0.8354 0.0
C684 C 0.59282 0.61225 0.82705 0.0
C685 C 0.5826 0.64992 0.84218 0.0
C686 C 0.63234 0.59525 0.83648 0.0
C687 C 0.61455 0.55074 0.82709 0.0
N688 N 0.59855 0.63266 0.83825 0.0
N689 N 0.6015 0.57021 0.82281 0.0
H690 H 0.66576 0.58277 0.14923 0.0
H691 H 0.53672 0.61822 0.1874 0.0
H692 H 0.61467 0.53452 0.17842 0.0
H693 H 0.58499 0.6638 0.15021 0.0
H694 H 0.56904 0.59113 0.19534 0.0
H695 H 0.64058 0.61562 0.16041 0.0
C696 C 0.64943 0.57912 0.15838 0.0
C697 C 0.64197 0.55591 0.1624 0.0
C698 C 0.57267 0.60732 0.18589 0.0
C699 C 0.61302 0.59332 0.17504 0.0
C700 C 0.55424 0.62282 0.18144 0.0
C701 C 0.55814 0.64293 0.16762 0.0
C702 C 0.59501 0.61199 0.17635 0.0
C703 C 0.58118 0.6482 0.16053 0.0
C704 C 0.63506 0.59788 0.16476 0.0
C705 C 0.62084 0.55217 0.17461 0.0
N706 N 0.59869 0.63258 0.16459 0.0
N707 N 0.60688 0.57068 0.18013 0.0
H708 H 0.38833 0.5159 0.09678 0.0
H709 H 0.43549 0.62944 0.16575 0.0
H710 H 0.36017 0.53859 0.16352 0.0
H711 H 0.46323 0.60562 0.09923 0.0
H712 H 0.40762 0.59646 0.16546 0.0
H713 H 0.41606 0.54873 0.09768 0.0
C714 C 0.38805 0.52777 0.11168 0.0
C715 C 0.37196 0.52456 0.1301 0.0
C716 C 0.4198 0.59848 0.15093 0.0
C717 C 0.40358 0.56225 0.13123 0.0
C718 C 0.43566 0.6173 0.15107 0.0
C719 C 0.45166 0.62022 0.13249 0.0
C720 C 0.41999 0.58253 0.13205 0.0
C721 C 0.45119 0.60401 0.11392 0.0
C722 C 0.40387 0.54654 0.11217 0.0
C723 C 0.37233 0.54046 0.14896 0.0
N724 N 0.43562 0.58586 0.11419 0.0
N725 N 0.38789 0.55868 0.14903 0.0
H726 H 0.60006 0.46742 0.10183 0.0
H727 H 0.57889 0.32818 0.10729 0.0
H728 H 0.65302 0.41763 0.12327 0.0
H729 H 0.52482 0.37831 0.0898 0.0
H730 H 0.60743 0.3604 0.10928 0.0
H731 H 0.5732 0.4347 0.09388 0.0
C732 C 0.60604 0.44958 0.10481 0.0
C733 C 0.62871 0.44519 0.11336 0.0
C734 C 0.58936 0.36433 0.10482 0.0
C735 C 0.59816 0.40771 0.10426 0.0
C736 C 0.57309 0.34594 0.10359 0.0
C737 C 0.54946 0.35064 0.09853 0.0
C738 C 0.5819 0.38756 0.10099 0.0
C739 C 0.54287 0.37395 0.09387 0.0
C740 C 0.59072 0.43092 0.10024 0.0
C741 C 0.63562 0.42177 0.11681 0.0
N742 N 0.55899 0.39157 0.09538 0.0
N743 N 0.62036 0.4039 0.11232 0.0
H744 H 0.06822 0.27492 0.49847 0.0
H745 H 0.94381 0.33811 0.5137 0.0
H746 H 0.05936 0.35031 0.4999 0.0
H747 H 0.9512 0.2636 0.50116 0.0
H748 H 0.98642 0.34257 0.51108 0.0
H749 H 0.02557 0.27009 0.50135 0.0
C750 C 0.05727 0.29045 0.49934 0.0
C751 C 0.06726 0.31305 0.49895 0.0
C752 C 0.97875 0.32524 0.50891 0.0
C753 C 0.01859 0.30767 0.50241 0.0
C754 C 0.95444 0.32266 0.51048 0.0
C755 C 0.94401 0.30045 0.50761 0.0
C756 C -0.00725 0.30544 0.50451 0.0
C757 C 0.95857 0.28104 0.50346 0.0
C758 C 0.03295 0.28768 0.50098 0.0
C759 C 0.05233 0.33258 0.5001 0.0
N760 N 0.98225 0.28399 0.50203 0.0
N761 N 0.02872 0.32943 0.50187 0.0
H762 H 0.6417 0.04562 0.4866 0.0
H763 H 0.69953 0.91833 0.49695 0.0
H764 H 0.7156 0.03284 0.47521 0.0
H765 H 0.62482 0.92935 0.48988 0.0
H766 H 0.70592 0.96069 0.49267 0.0
H767 H 0.6353 0.00332 0.49108 0.0
C768 C 0.65657 0.03387 0.48498 0.0
C769 C 0.67921 0.04266 0.48052 0.0
C770 C 0.68814 0.95383 0.49205 0.0
C771 C 0.67205 -0.00563 0.48581 0.0
C772 C 0.68447 0.9297 0.49461 0.0
C773 C 0.66162 0.92039 0.49374 0.0
C774 C 0.66879 0.96873 0.4888 0.0
C775 C 0.64273 0.93585 0.49061 0.0
C776 C 0.6529 0.00976 0.48752 0.0
C777 C 0.69786 0.02673 0.47858 0.0
N778 N 0.64674 0.95931 0.48829 0.0
N779 N 0.69388 0.0033 0.48135 0.0
H780 H 0.92623 0.72818 0.46336 0.0
H781 H 0.04354 0.70644 0.53496 0.0
H782 H 0.92884 0.70267 0.53487 0.0
H783 H 0.04123 0.72508 0.46135 0.0
H784 H 0.00187 0.71596 0.53835 0.0
H785 H 0.96802 0.73801 0.46565 0.0
C786 C 0.9355 0.72509 0.4797 0.0
C787 C 0.92428 0.71408 0.49877 0.0
C788 C 0.01056 0.71838 0.52154 0.0
C789 C 0.972 0.72505 0.50145 0.0
C790 C 0.03434 0.71296 0.5196 0.0
C791 C 0.04562 0.71444 0.4977 0.0
C792 C -0.00201 0.72509 0.50138 0.0
C793 C 0.03304 0.72331 0.47847 0.0
C794 C 0.95935 0.73067 0.481 0.0
C795 C 0.93698 0.71073 0.51961 0.0
N796 N 0.00973 0.72789 0.48065 0.0
N797 N 0.9603 0.71581 0.52027 0.0
H798 H 0.3428 0.04252 0.47818 0.0
H799 H 0.2751 0.92363 0.51229 0.0
H800 H 0.27088 0.04129 0.50253 0.0
H801 H 0.34947 0.9279 0.49756 0.0
H802 H 0.27225 0.9663 0.50679 0.0
H803 H 0.34453 -3e-05 0.4828 0.0
C804 C 0.32732 0.03325 0.48444 0.0
C805 C 0.30667 0.0454 0.49004 0.0
C806 C 0.28918 0.95787 0.5048 0.0
C807 C 0.30854 -0.00335 0.49545 0.0
C808 C 0.29082 0.93357 0.50793 0.0
C809 C 0.31257 0.9223 0.5054 0.0
C810 C 0.30942 0.97088 0.49898 0.0
C811 C 0.33237 0.93592 0.49972 0.0
C812 C 0.32834 0.00895 0.48713 0.0
C813 C 0.28714 0.03253 0.49805 0.0
N814 N 0.33031 0.95949 0.49666 0.0
N815 N 0.28856 0.00878 0.50055 0.0
H816 H 0.48743 0.93881 0.34603 0.0
H817 H 0.48047 0.05787 0.2715 0.0
H818 H 0.48047 0.94043 0.27041 0.0
H819 H 0.47681 0.05532 0.34733 0.0
H820 H 0.48142 0.01489 0.27059 0.0
H821 H 0.48471 0.98166 0.34676 0.0
C822 C 0.48532 0.94822 0.32957 0.0
C823 C 0.48419 0.93614 0.30812 0.0
C824 C 0.48031 0.02373 0.28742 0.0
C825 C 0.48109 0.98508 0.30881 0.0
C826 C 0.47979 0.04823 0.28795 0.0
C827 C 0.47861 0.06009 0.30953 0.0
C828 C 0.4798 0.01105 0.30864 0.0
C829 C 0.47773 0.04682 0.33032 0.0
C830 C 0.48371 0.97266 0.33 0.0
C831 C 0.48141 0.94913 0.28732 0.0
N832 N 0.47844 0.02297 0.32937 0.0
N833 N 0.48002 0.97296 0.28818 0.0
H834 H 0.93173 0.489 0.26471 0.0
H835 H 0.05522 0.44926 0.31767 0.0
H836 H 0.94015 0.44708 0.32751 0.0
H837 H 0.04822 0.49985 0.2614 0.0
H838 H 0.01304 0.44178 0.31593 0.0
H839 H 0.9742 0.4867 0.25788 0.0
C840 C 0.94248 0.47903 0.27685 0.0
C841 C 0.93258 0.46851 0.29689 0.0
C842 C 0.02073 0.45436 0.30378 0.0
C843 C 0.9809 0.46585 0.28926 0.0
C844 C 0.04481 0.45863 0.30477 0.0
C845 C 0.05508 0.47548 0.28991 0.0
C846 C 0.00682 0.46714 0.28793 0.0
C847 C 0.04087 0.4869 0.27334 0.0
C848 C 0.96668 0.47777 0.27298 0.0
C849 C 0.94718 0.45571 0.31201 0.0
N850 N 0.01733 0.48273 0.27298 0.0
N851 N 0.97066 0.45493 0.308 0.0
H852 H 0.48613 0.95104 0.6499 0.0
H853 H 0.5194 0.07682 0.70369 0.0
H854 H 0.49674 0.96281 0.72417 0.0
H855 H 0.50897 0.06349 0.62966 0.0
H856 H 0.5123 0.03506 0.71177 0.0
H857 H 0.49492 0.99233 0.6424 0.0
C858 C 0.49021 0.96238 0.66466 0.0
C859 C 0.49068 0.95356 0.68769 0.0
C860 C 0.51168 0.04127 0.69376 0.0
C861 C 0.50092 0.00086 0.67923 0.0
C862 C 0.51581 0.06505 0.68913 0.0
C863 C 0.51469 0.07356 0.66598 0.0
C864 C 0.50639 0.02599 0.67508 0.0
C865 C 0.50995 0.05764 0.64777 0.0
C866 C 0.49531 0.98595 0.66036 0.0
C867 C 0.49614 0.96898 0.70615 0.0
N868 N 0.50588 0.03464 0.65273 0.0
N869 N 0.50108 0.99195 0.70151 0.0
H870 H 0.9234 0.499 0.70876 0.0
H871 H 0.04525 0.4597 0.65069 0.0
H872 H 0.92922 0.45631 0.64626 0.0
H873 H 0.04113 0.50308 0.71284 0.0
H874 H 0.00254 0.45694 0.65013 0.0
H875 H 0.96637 0.49954 0.71185 0.0
C876 C 0.93373 0.48969 0.69575 0.0
C877 C 0.92282 0.47765 0.67719 0.0
C878 C 0.01091 0.46701 0.66396 0.0
C879 C 0.97175 0.47819 0.68059 0.0
C880 C 0.03532 0.46858 0.66429 0.0
C881 C 0.04668 0.48171 0.68179 0.0
C882 C -0.00227 0.47872 0.68123 0.0
C883 C 0.03299 0.49282 0.69902 0.0
C884 C 0.95821 0.49001 0.69752 0.0
C885 C 0.93694 0.46586 0.66081 0.0
N886 N 0.00915 0.49115 0.69826 0.0
N887 N 0.96067 0.46648 0.66288 0.0
H888 H 0.33123 0.47129 0.93015 0.0
H889 H 0.27901 0.49895 0.05766 0.0
H890 H 0.27342 0.51875 0.94221 0.0
H891 H 0.33459 0.44908 0.04481 0.0
H892 H 0.27499 0.5047 0.01523 0.0
H893 H 0.33133 0.46145 0.97195 0.0
C894 C 0.31852 0.47961 0.94162 0.0
C895 C 0.30239 0.49596 0.93279 0.0
C896 C 0.28794 0.49237 0.02168 0.0
C897 C 0.30238 0.4848 0.98062 0.0
C898 C 0.29022 0.48906 0.04588 0.0
C899 C 0.30727 0.47365 0.05469 0.0
C900 C 0.30291 0.48026 0.00625 0.0
C901 C 0.32129 0.46121 0.03871 0.0
C902 C 0.31855 0.47394 0.96547 0.0
C903 C 0.28622 0.50613 0.94836 0.0
N904 N 0.31891 0.46493 0.01524 0.0
N905 N 0.2867 0.50046 0.97158 0.0
H906 H 0.49462 0.26798 0.91505 0.0
H907 H 0.44446 0.29694 0.04256 0.0
H908 H 0.43042 0.30605 0.9281 0.0
H909 H 0.5125 0.26598 0.03004 0.0
H910 H 0.43524 0.29259 0.0009 0.0
H911 H 0.49735 0.25914 0.95707 0.0
C912 C 0.48087 0.2741 0.92671 0.0
C913 C 0.46248 0.28811 0.91823 0.0
C914 C 0.4521 0.2865 0.00728 0.0
C915 C 0.4656 0.27826 0.96618 0.0
C916 C 0.45738 0.289 0.03105 0.0
C917 C 0.47943 0.28218 0.03961 0.0
C918 C 0.46906 0.27725 0.99194 0.0
C919 C 0.49539 0.27172 0.02404 0.0
C920 C 0.48248 0.26911 0.95068 0.0
C921 C 0.44505 0.29545 0.934 0.0
N922 N 0.49001 0.26985 0.00083 0.0
N923 N 0.4472 0.2907 0.9573 0.0
H924 H 0.711 0.47443 0.93906 0.0
H925 H 0.67392 0.54426 0.05443 0.0
H926 H 0.67289 0.53995 0.9384 0.0
H927 H 0.71465 0.48035 0.05538 0.0
H928 H 0.67839 0.54603 0.01174 0.0
H929 H 0.7175 0.47916 0.98131 0.0
C930 C 0.70426 0.48995 0.94778 0.0
C931 C 0.6911 0.50666 0.93536 0.0
C932 C 0.68662 0.53177 0.02129 0.0
C933 C 0.6983 0.51212 0.98358 0.0
C934 C 0.68407 0.53077 0.04566 0.0
C935 C 0.69364 0.51195 0.05834 0.0
C936 C 0.69864 0.51369 0.00956 0.0
C937 C 0.70679 0.49504 0.04619 0.0
C938 C 0.70797 0.49266 0.97188 0.0
C939 C 0.6829 0.52652 0.94741 0.0
N940 N 0.70864 0.49613 0.0224 0.0
N941 N 0.6864 0.52856 0.97092 0.0
H942 H 0.53898 0.66013 0.94038 0.0
H943 H 0.4869 0.71398 0.05859 0.0
H944 H 0.49808 0.72391 0.94244 0.0
H945 H 0.53812 0.65816 0.05731 0.0
H946 H 0.49159 0.71867 0.01607 0.0
H947 H 0.54005 0.65991 0.98334 0.0
C948 C 0.53042 0.67421 0.9499 0.0
C949 C 0.51826 0.69196 0.93794 0.0
C950 C 0.50194 0.70552 0.02512 0.0
C951 C 0.51921 0.69172 0.98696 0.0
C952 C 0.49921 0.7028 0.04934 0.0
C953 C 0.51201 0.68554 0.06136 0.0
C954 C 0.51742 0.69073 0.01287 0.0
C955 C 0.52783 0.6716 0.04864 0.0
C956 C 0.53104 0.67409 0.9744 0.0
C957 C 0.50756 0.70984 0.95105 0.0
N958 N 0.52995 0.67437 0.02502 0.0
N959 N 0.50807 0.70914 0.97491 0.0
H960 H 0.1589 0.24378 0.46703 0.0
H961 H 0.25805 0.1698 0.53325 0.0
H962 H 0.19883 0.26855 0.52669 0.0
H963 H 0.23037 0.15038 0.46527 0.0
H964 H 0.22999 0.20204 0.53506 0.0
H965 H 0.17966 0.20609 0.46938 0.0
C966 C 0.17203 0.24127 0.48058 0.0
C967 C 0.17739 0.25931 0.49654 0.0
C968 C 0.22985 0.19057 0.51985 0.0
C969 C 0.20076 0.21641 0.49955 0.0
C970 C 0.24577 0.17209 0.51888 0.0
C971 C 0.24673 0.1577 0.49891 0.0
C972 C 0.21489 0.19472 0.50067 0.0
C973 C 0.2303 0.16127 0.48088 0.0
C974 C 0.18377 0.21979 0.48197 0.0
C975 C 0.19435 0.25517 0.51389 0.0
N976 N 0.2152 0.17969 0.48203 0.0
N977 N 0.20546 0.23416 0.51491 0.0
H978 H 0.74984 0.16117 0.43574 0.0
H979 H 0.85068 0.21106 0.51856 0.0
H980 H 0.77121 0.128 0.5006 0.0
H981 H 0.82827 0.24387 0.45385 0.0
H982 H 0.82731 0.17623 0.50848 0.0
H983 H 0.78428 0.18683 0.43788 0.0
C984 C 0.76204 0.159 0.45019 0.0
C985 C 0.75748 0.14282 0.46827 0.0
C986 C 0.82778 0.19093 0.49633 0.0
C987 C 0.79663 0.1723 0.47109 0.0
C988 C 0.84109 0.21079 0.5021 0.0
C989 C 0.84099 0.23047 0.48722 0.0
C990 C 0.8143 0.19091 0.47561 0.0
C991 C 0.82849 0.22918 0.46601 0.0
C992 C 0.78167 0.17368 0.45146 0.0
C993 C 0.77394 0.14051 0.48647 0.0
N994 N 0.81541 0.20986 0.46098 0.0
N995 N 0.7926 0.15543 0.48766 0.0
H996 H 0.8251 0.75737 0.48578 0.0
H997 H 0.68745 0.77187 0.50969 0.0
H998 H 0.77912 0.69973 0.50476 0.0
H999 H 0.73431 0.82995 0.49461 0.0
H1000 H 0.72106 0.74525 0.50927 0.0
H1001 H 0.79213 0.78443 0.48984 0.0
C1002 C 0.80804 0.75044 0.49081 0.0
C1003 C 0.80473 0.72633 0.49486 0.0
C1004 C 0.724 0.76383 0.50618 0.0
C1005 C 0.76703 0.75708 0.49958 0.0
C1006 C 0.70485 0.77902 0.50644 0.0
C1007 C 0.70817 0.80306 0.50205 0.0
C1008 C 0.74655 0.77282 0.50139 0.0
C1009 C 0.73103 0.81148 0.49799 0.0
C1010 C 0.78926 0.76588 0.49318 0.0
C1011 C 0.78235 0.71822 0.50142 0.0
N1012 N 0.74936 0.79632 0.49763 0.0
N1013 N 0.7643 0.73359 0.50351 0.0
H1014 H 0.19115 0.69909 0.50123 0.0
H1015 H 0.23744 0.83184 0.49198 0.0
H1016 H 0.14703 0.75752 0.48151 0.0
H1017 H 0.28047 0.77338 0.51391 0.0
H1018 H 0.20428 0.80483 0.48693 0.0
H1019 H 0.22441 0.72604 0.50477 0.0
C1020 C 0.1885 0.71762 0.4976 0.0
C1021 C 0.16636 0.72616 0.49112 0.0
C1022 C 0.22097 0.79792 0.49283 0.0
C1023 C 0.20426 0.75707 0.49516 0.0
C1024 C 0.23988 0.8133 0.49573 0.0
C1025 C 0.26163 0.80477 0.50342 0.0
C1026 C 0.22395 0.77387 0.49767 0.0
C1027 C 0.26394 0.78065 0.50798 0.0
C1028 C 0.20748 0.73299 0.49964 0.0
C1029 C 0.16385 0.75027 0.48658 0.0
N1030 N 0.24528 0.76603 0.50505 0.0
N1031 N 0.18262 0.76493 0.48873 0.0
H1032 H 0.51422 0.20055 0.27195 0.0
H1033 H 0.49507 0.21773 0.13453 0.0
H1034 H 0.48222 0.14788 0.2275 0.0
H1035 H 0.53311 0.26672 0.17844 0.0
H1036 H 0.49425 0.18968 0.16717 0.0
H1037 H 0.52455 0.22332 0.23703 0.0
C1038 C 0.50939 0.1938 0.25479 0.0
C1039 C 0.49712 0.1725 0.25253 0.0
C1040 C 0.50309 0.20642 0.16954 0.0
C1041 C 0.5089 0.19836 0.21254 0.0
C1042 C 0.50364 0.22239 0.1509 0.0
C1043 C 0.51383 0.24466 0.154 0.0
C1044 C 0.51267 0.21296 0.19136 0.0
C1045 C 0.5248 0.24981 0.17546 0.0
C1046 C 0.51541 0.20671 0.23486 0.0
C1047 C 0.49152 0.16436 0.22994 0.0
N1048 N 0.52363 0.23418 0.19346 0.0
N1049 N 0.49728 0.17744 0.21077 0.0
H1050 H 0.79387 0.45233 0.27708 0.0
H1051 H 0.75545 0.5087 0.15419 0.0
H1052 H 0.83604 0.50245 0.23827 0.0
H1053 H 0.71077 0.46333 0.19592 0.0
H1054 H 0.78708 0.50302 0.18262 0.0
H1055 H 0.76508 0.45252 0.24524 0.0
C1056 C 0.79711 0.46326 0.26177 0.0
C1057 C 0.81719 0.47757 0.26033 0.0
C1058 C 0.7704 0.4942 0.1855 0.0
C1059 C 0.78442 0.47793 0.22397 0.0
C1060 C 0.75237 0.49742 0.16928 0.0
C1061 C 0.73047 0.48662 0.17289 0.0
C1062 C 0.76643 0.48008 0.20542 0.0
C1063 C 0.72739 0.4721 0.19262 0.0
C1064 C 0.78069 0.46338 0.24363 0.0
C1065 C 0.82067 0.4913 0.24011 0.0
N1066 N 0.74516 0.46936 0.20826 0.0
N1067 N 0.80434 0.49125 0.22274 0.0
H1068 H 0.521 0.75412 0.15311 0.0
H1069 H 0.44464 0.81475 0.25208 0.0
H1070 H 0.45175 0.73009 0.17325 0.0
H1071 H 0.51153 0.84148 0.22772 0.0
H1072 H 0.44353 0.78796 0.21855 0.0
H1073 H 0.5147 0.79019 0.17535 0.0
C1074 C 0.50436 0.75658 0.16206 0.0
C1075 C 0.48704 0.73898 0.16181 0.0
C1076 C 0.45827 0.79995 0.22031 0.0
C1077 C 0.47976 0.78004 0.18743 0.0
C1078 C 0.45891 0.81523 0.23944 0.0
C1079 C 0.47845 0.82993 0.24287 0.0
C1080 C 0.47743 0.79927 0.20472 0.0
C1081 C 0.49632 0.83012 0.22588 0.0
C1082 C 0.50073 0.7772 0.17469 0.0
C1083 C 0.46566 0.74316 0.17331 0.0
N1084 N 0.49557 0.8147 0.20771 0.0
N1085 N 0.46276 0.76314 0.18603 0.0
H1086 H 0.17801 0.53192 0.24437 0.0
H1087 H 0.24589 0.446 0.15727 0.0
H1088 H 0.15671 0.46021 0.23082 0.0
H1089 H 0.26515 0.51872 0.16828 0.0
H1090 H 0.21046 0.45213 0.18076 0.0
H1091 H 0.20718 0.52889 0.21296 0.0
C1092 C 0.17931 0.51563 0.23457 0.0
C1093 C 0.16523 0.49617 0.24034 0.0
C1094 C 0.22232 0.4668 0.17787 0.0
C1095 C 0.19858 0.49248 0.20464 0.0
C1096 C 0.24255 0.46329 0.16452 0.0
C1097 C 0.25855 0.48181 0.16114 0.0
C1098 C 0.21821 0.48895 0.188 0.0
C1099 C 0.25334 0.50392 0.17069 0.0
C1100 C 0.19595 0.51389 0.21667 0.0
C1101 C 0.16744 0.47554 0.22704 0.0
N1102 N 0.2337 0.50682 0.1839 0.0
N1103 N 0.18404 0.47414 0.20996 0.0
H1104 H 0.46517 0.75867 0.8438 0.0
H1105 H 0.53115 0.84957 0.76046 0.0
H1106 H 0.53974 0.75757 0.82964 0.0
H1107 H 0.45643 0.85081 0.77367 0.0
H1108 H 0.53576 0.82117 0.7923 0.0
H1109 H 0.46265 0.79691 0.82428 0.0
C1110 C 0.48104 0.76659 0.83673 0.0
C1111 C 0.50262 0.75483 0.83789 0.0
C1112 C 0.51839 0.82792 0.78853 0.0
C1113 C 0.4999 0.79844 0.81564 0.0
C1114 C 0.51577 0.84418 0.7704 0.0
C1115 C 0.49332 0.8521 0.76419 0.0
C1116 C 0.49837 0.81936 0.80027 0.0
C1117 C 0.47401 0.84485 0.77776 0.0
C1118 C 0.47961 0.78844 0.82568 0.0
C1119 C 0.52269 0.76594 0.82878 0.0
N1120 N 0.47692 0.82849 0.79493 0.0
N1121 N 0.5208 0.78703 0.81777 0.0
H1122 H 0.25052 0.55465 0.80837 0.0
H1123 H 0.13954 0.48215 0.76232 0.0
H1124 H 0.22186 0.49365 0.84372 0.0
H1125 H 0.17377 0.53797 0.7235 0.0
H1126 H 0.16437 0.49123 0.79627 0.0
H1127 H 0.21706 0.55418 0.78151 0.0
C1128 C 0.23697 0.54139 0.8107 0.0
C1129 C 0.23911 0.5239 0.82796 0.0
C1130 C 0.16625 0.50166 0.7804 0.0
C1131 C 0.20102 0.52308 0.79722 0.0
C1132 C 0.15211 0.49647 0.76105 0.0
C1133 C 0.15494 0.50909 0.74002 0.0
C1134 C 0.18326 0.51957 0.77861 0.0
C1135 C 0.17129 0.52759 0.73931 0.0
C1136 C 0.21791 0.54109 0.79534 0.0
C1137 C 0.22099 0.50727 0.83041 0.0
N1138 N 0.18501 0.53213 0.75827 0.0
N1139 N 0.20283 0.50705 0.81495 0.0
H1140 H 0.51766 0.22287 0.68756 0.0
H1141 H 0.45889 0.24265 0.81384 0.0
H1142 H 0.48835 0.16658 0.72961 0.0
H1143 H 0.49641 0.29662 0.77542 0.0
H1144 H 0.46733 0.21487 0.78212 0.0
H1145 H 0.5081 0.25062 0.71883 0.0
C1146 C 0.50925 0.21637 0.70342 0.0
C1147 C 0.50379 0.19246 0.70609 0.0
C1148 C 0.47368 0.2328 0.78064 0.0
C1149 C 0.49272 0.22402 0.74181 0.0
C1150 C 0.46881 0.24865 0.79867 0.0
C1151 C 0.47702 0.27188 0.79719 0.0
C1152 C 0.48677 0.24036 0.76104 0.0
C1153 C 0.48981 0.27882 0.77723 0.0
C1154 C 0.50379 0.2322 0.72124 0.0
C1155 C 0.49288 0.18491 0.72693 0.0
N1156 N 0.49431 0.26308 0.75992 0.0
N1157 N 0.48765 0.20069 0.74402 0.0
H1158 H 0.69552 0.47304 0.7891 0.0
H1159 H 0.83065 0.48265 0.75214 0.0
H1160 H 0.75022 0.49173 0.83835 0.0
H1161 H 0.77303 0.48313 0.70275 0.0
H1162 H 0.80222 0.48198 0.78458 0.0
H1163 H 0.72476 0.47171 0.75775 0.0
C1164 C 0.71374 0.47669 0.79333 0.0
C1165 C 0.72051 0.48263 0.81627 0.0
C1166 C 0.79586 0.48231 0.76663 0.0
C1167 C 0.75397 0.48129 0.78052 0.0
C1168 C 0.81203 0.48271 0.74816 0.0
C1169 C 0.8041 0.48297 0.72481 0.0
C1170 C 0.77171 0.48192 0.76159 0.0
C1171 C 0.77985 0.483 0.72053 0.0
C1172 C 0.73039 0.47605 0.77542 0.0
C1173 C 0.74433 0.48717 0.82083 0.0
N1174 N 0.7645 0.48237 0.73877 0.0
N1175 N 0.76027 0.48646 0.80304 0.0
loop_
_geom_bond_atom_site_label_1
_geom_bond_atom_site_label_2
_geom_bond_distance
_geom_bond_site_symmetry_2
_ccdc_geom_bond_type
In0 O1 2.294 . S
In0 O2 2.326 . S
In0 O6 2.266 . S
In0 O7 2.326 . S
In0 O8 2.266 . S
In0 O9 2.326 . S
In0 O11 2.294 . S
In0 O12 2.326 . S
O1 In0 2.294 . S
O1 C10 1.240 . S
O2 In0 2.326 . S
O2 C10 1.252 . S
C3 O6 1.252 . S
C3 O7 1.260 . S
C4 O11 1.240 . S
C4 O12 1.252 . S
C5 O8 1.252 . S
C5 O9 1.260 . S
O6 In0 2.266 . S
O6 C3 1.252 . S
O7 In0 2.326 . S
O7 C3 1.260 . S
O8 In0 2.266 . S
O8 C5 1.252 . S
O9 In0 2.326 . S
O9 C5 1.260 . S
C10 O1 1.240 . S
C10 O2 1.252 . S
O11 In0 2.294 . S
O11 C4 1.240 . S
O12 In0 2.326 . S
O12 C4 1.252 . S
In13 O14 2.294 . S
In13 O15 2.326 . S
In13 O19 2.266 . S
In13 O20 2.326 . S
In13 O21 2.266 . S
In13 O22 2.326 . S
In13 O24 2.294 . S
In13 O25 2.326 . S
O14 In13 2.294 . S
O14 C23 1.240 . S
O15 In13 2.326 . S
O15 C23 1.252 . S
C16 O19 1.252 . S
C16 O20 1.260 . S
C17 O24 1.240 . S
C17 O25 1.252 . S
C18 O21 1.252 . S
C18 O22 1.260 . S
O19 In13 2.266 . S
O19 C16 1.252 . S
O20 In13 2.326 . S
O20 C16 1.260 . S
O21 In13 2.266 . S
O21 C18 1.252 . S
O22 In13 2.326 . S
O22 C18 1.260 . S
C23 O14 1.240 . S
C23 O15 1.252 . S
O24 In13 2.294 . S
O24 C17 1.240 . S
O25 In13 2.326 . S
O25 C17 1.252 . S
In26 O27 2.294 . S
In26 O28 2.326 . S
In26 O32 2.266 . S
In26 O33 2.326 . S
In26 O34 2.266 . S
In26 O35 2.326 . S
In26 O37 2.294 . S
In26 O38 2.326 . S
O27 In26 2.294 . S
O27 C36 1.240 . S
O28 In26 2.326 . S
O28 C36 1.252 . S
C29 O32 1.252 . S
C29 O33 1.260 . S
C30 O37 1.240 . S
C30 O38 1.252 . S
C31 O34 1.252 . S
C31 O35 1.260 . S
O32 In26 2.266 . S
O32 C29 1.252 . S
O33 In26 2.326 . S
O33 C29 1.260 . S
O34 In26 2.266 . S
O34 C31 1.252 . S
O35 In26 2.326 . S
O35 C31 1.260 . S
C36 O27 1.240 . S
C36 O28 1.252 . S
O37 In26 2.294 . S
O37 C30 1.240 . S
O38 In26 2.326 . S
O38 C30 1.252 . S
In39 O40 2.294 . S
In39 O41 2.326 . S
In39 O45 2.266 . S
In39 O46 2.326 . S
In39 O47 2.266 . S
In39 O48 2.326 . S
In39 O50 2.294 . S
In39 O51 2.326 . S
O40 In39 2.294 . S
O40 C49 1.240 . S
O41 In39 2.326 . S
O41 C49 1.252 . S
C42 O45 1.252 . S
C42 O46 1.260 . S
C43 O50 1.240 . S
C43 O51 1.252 . S
C44 O47 1.252 . S
C44 O48 1.260 . S
O45 In39 2.266 . S
O45 C42 1.252 . S
O46 In39 2.326 . S
O46 C42 1.260 . S
O47 In39 2.266 . S
O47 C44 1.252 . S
O48 In39 2.326 . S
O48 C44 1.260 . S
C49 O40 1.240 . S
C49 O41 1.252 . S
O50 In39 2.294 . S
O50 C43 1.240 . S
O51 In39 2.326 . S
O51 C43 1.252 . S
In52 O53 2.294 . S
In52 O54 2.326 . S
In52 O58 2.266 . S
In52 O59 2.326 . S
In52 O60 2.266 . S
In52 O61 2.326 . S
In52 O63 2.294 . S
In52 O64 2.326 . S
O53 In52 2.294 . S
O53 C62 1.240 . S
O54 In52 2.326 . S
O54 C62 1.252 . S
C55 O58 1.252 . S
C55 O59 1.260 . S
C56 O63 1.240 . S
C56 O64 1.252 . S
C57 O60 1.252 . S
C57 O61 1.260 . S
O58 In52 2.266 . S
O58 C55 1.252 . S
O59 In52 2.326 . S
O59 C55 1.260 . S
O60 In52 2.266 . S
O60 C57 1.252 . S
O61 In52 2.326 . S
O61 C57 1.260 . S
C62 O53 1.240 . S
C62 O54 1.252 . S
O63 In52 2.294 . S
O63 C56 1.240 . S
O64 In52 2.326 . S
O64 C56 1.252 . S
In65 O66 2.294 . S
In65 O67 2.326 . S
In65 O71 2.266 . S
In65 O72 2.326 . S
In65 O73 2.266 . S
In65 O74 2.326 . S
In65 O76 2.294 . S
In65 O77 2.326 . S
O66 In65 2.294 . S
O66 C75 1.240 . S
O67 In65 2.326 . S
O67 C75 1.252 . S
C68 O71 1.252 . S
C68 O72 1.260 . S
C69 O76 1.240 . S
C69 O77 1.252 . S
C70 O73 1.252 . S
C70 O74 1.260 . S
O71 In65 2.266 . S
O71 C68 1.252 . S
O72 In65 2.326 . S
O72 C68 1.260 . S
O73 In65 2.266 . S
O73 C70 1.252 . S
O74 In65 2.326 . S
O74 C70 1.260 . S
C75 O66 1.240 . S
C75 O67 1.252 . S
O76 In65 2.294 . S
O76 C69 1.240 . S
O77 In65 2.326 . S
O77 C69 1.252 . S
In78 O79 2.294 . S
In78 O80 2.326 . S
In78 O84 2.266 . S
In78 O85 2.326 . S
In78 O86 2.266 . S
In78 O87 2.326 . S
In78 O89 2.294 . S
In78 O90 2.326 . S
O79 In78 2.294 . S
O79 C88 1.240 . S
O80 In78 2.326 . S
O80 C88 1.252 . S
C81 O84 1.252 . S
C81 O85 1.260 . S
C82 O89 1.240 . S
C82 O90 1.252 . S
C83 O86 1.252 . S
C83 O87 1.260 . S
O84 In78 2.266 . S
O84 C81 1.252 . S
O85 In78 2.326 . S
O85 C81 1.260 . S
O86 In78 2.266 . S
O86 C83 1.252 . S
O87 In78 2.326 . S
O87 C83 1.260 . S
C88 O79 1.240 . S
C88 O80 1.252 . S
O89 In78 2.294 . S
O89 C82 1.240 . S
O90 In78 2.326 . S
O90 C82 1.252 . S
In91 O92 2.294 . S
In91 O93 2.326 . S
In91 O97 2.266 . S
In91 O98 2.326 . S
In91 O99 2.266 . S
In91 O100 2.326 . S
In91 O102 2.294 . S
In91 O103 2.326 . S
O92 In91 2.294 . S
O92 C101 1.240 . S
O93 In91 2.326 . S
O93 C101 1.252 . S
C94 O97 1.252 . S
C94 O98 1.260 . S
C95 O102 1.240 . S
C95 O103 1.252 . S
C96 O99 1.252 . S
C96 O100 1.260 . S
O97 In91 2.266 . S
O97 C94 1.252 . S
O98 In91 2.326 . S
O98 C94 1.260 . S
O99 In91 2.266 . S
O99 C96 1.252 . S
O100 In91 2.326 . S
O100 C96 1.260 . S
C101 O92 1.240 . S
C101 O93 1.252 . S
O102 In91 2.294 . S
O102 C95 1.240 . S
O103 In91 2.326 . S
O103 C95 1.252 . S
In104 O105 2.294 . S
In104 O106 2.326 . S
In104 O110 2.266 . S
In104 O111 2.326 . S
In104 O112 2.266 . S
In104 O113 2.326 . S
In104 O115 2.294 . S
In104 O116 2.326 . S
O105 In104 2.294 . S
O105 C114 1.240 . S
O106 In104 2.326 . S
O106 C114 1.252 . S
C107 O110 1.252 . S
C107 O111 1.260 . S
C108 O115 1.240 . S
C108 O116 1.252 . S
C109 O112 1.252 . S
C109 O113 1.260 . S
O110 In104 2.266 . S
O110 C107 1.252 . S
O111 In104 2.326 . S
O111 C107 1.260 . S
O112 In104 2.266 . S
O112 C109 1.252 . S
O113 In104 2.326 . S
O113 C109 1.260 . S
C114 O105 1.240 . S
C114 O106 1.252 . S
O115 In104 2.294 . S
O115 C108 1.240 . S
O116 In104 2.326 . S
O116 C108 1.252 . S
In117 O118 2.294 . S
In117 O119 2.326 . S
In117 O123 2.266 . S
In117 O124 2.326 . S
In117 O125 2.266 . S
In117 O126 2.326 . S
In117 O128 2.294 . S
In117 O129 2.326 . S
O118 In117 2.294 . S
O118 C127 1.240 . S
O119 In117 2.326 . S
O119 C127 1.252 . S
C120 O123 1.252 . S
C120 O124 1.260 . S
C121 O128 1.240 . S
C121 O129 1.252 . S
C122 O125 1.252 . S
C122 O126 1.260 . S
O123 In117 2.266 . S
O123 C120 1.252 . S
O124 In117 2.326 . S
O124 C120 1.260 . S
O125 In117 2.266 . S
O125 C122 1.252 . S
O126 In117 2.326 . S
O126 C122 1.260 . S
C127 O118 1.240 . S
C127 O119 1.252 . S
O128 In117 2.294 . S
O128 C121 1.240 . S
O129 In117 2.326 . S
O129 C121 1.252 . S
In130 O131 2.294 . S
In130 O132 2.326 . S
In130 O136 2.266 . S
In130 O137 2.326 . S
In130 O138 2.266 . S
In130 O139 2.326 . S
In130 O141 2.294 . S
In130 O142 2.326 . S
O131 In130 2.294 . S
O131 C140 1.240 . S
O132 In130 2.326 . S
O132 C140 1.252 . S
C133 O136 1.252 . S
C133 O137 1.260 . S
C134 O141 1.240 . S
C134 O142 1.252 . S
C135 O138 1.252 . S
C135 O139 1.260 . S
O136 In130 2.266 . S
O136 C133 1.252 . S
O137 In130 2.326 . S
O137 C133 1.260 . S
O138 In130 2.266 . S
O138 C135 1.252 . S
O139 In130 2.326 . S
O139 C135 1.260 . S
C140 O131 1.240 . S
C140 O132 1.252 . S
O141 In130 2.294 . S
O141 C134 1.240 . S
O142 In130 2.326 . S
O142 C134 1.252 . S
In143 O144 2.294 . S
In143 O145 2.326 . S
In143 O149 2.266 . S
In143 O150 2.326 . S
In143 O151 2.266 . S
In143 O152 2.326 . S
In143 O154 2.294 . S
In143 O155 2.326 . S
O144 In143 2.294 . S
O144 C153 1.240 . S
O145 In143 2.326 . S
O145 C153 1.252 . S
C146 O149 1.252 . S
C146 O150 1.260 . S
C147 O154 1.240 . S
C147 O155 1.252 . S
C148 O151 1.252 . S
C148 O152 1.260 . S
O149 In143 2.266 . S
O149 C146 1.252 . S
O150 In143 2.326 . S
O150 C146 1.260 . S
O151 In143 2.266 . S
O151 C148 1.252 . S
O152 In143 2.326 . S
O152 C148 1.260 . S
C153 O144 1.240 . S
C153 O145 1.252 . S
O154 In143 2.294 . S
O154 C147 1.240 . S
O155 In143 2.326 . S
O155 C147 1.252 . S
In156 O157 2.294 . S
In156 O158 2.326 . S
In156 O162 2.266 . S
In156 O163 2.326 . S
In156 O164 2.266 . S
In156 O165 2.326 . S
In156 O167 2.294 . S
In156 O168 2.326 . S
O157 In156 2.294 . S
O157 C166 1.240 . S
O158 In156 2.326 . S
O158 C166 1.252 . S
C159 O162 1.252 . S
C159 O163 1.260 . S
C160 O167 1.240 . S
C160 O168 1.252 . S
C161 O164 1.252 . S
C161 O165 1.260 . S
O162 In156 2.266 . S
O162 C159 1.252 . S
O163 In156 2.326 . S
O163 C159 1.260 . S
O164 In156 2.266 . S
O164 C161 1.252 . S
O165 In156 2.326 . S
O165 C161 1.260 . S
C166 O157 1.240 . S
C166 O158 1.252 . S
O167 In156 2.294 . S
O167 C160 1.240 . S
O168 In156 2.326 . S
O168 C160 1.252 . S
In169 O170 2.294 . S
In169 O171 2.326 . S
In169 O175 2.266 . S
In169 O176 2.326 . S
In169 O177 2.266 . S
In169 O178 2.326 . S
In169 O180 2.294 . S
In169 O181 2.326 . S
O170 In169 2.294 . S
O170 C179 1.240 . S
O171 In169 2.326 . S
O171 C179 1.252 . S
C172 O175 1.252 . S
C172 O176 1.260 . S
C173 O180 1.240 . S
C173 O181 1.252 . S
C174 O177 1.252 . S
C174 O178 1.260 . S
O175 In169 2.266 . S
O175 C172 1.252 . S
O176 In169 2.326 . S
O176 C172 1.260 . S
O177 In169 2.266 . S
O177 C174 1.252 . S
O178 In169 2.326 . S
O178 C174 1.260 . S
C179 O170 1.240 . S
C179 O171 1.252 . S
O180 In169 2.294 . S
O180 C173 1.240 . S
O181 In169 2.326 . S
O181 C173 1.252 . S
In182 O183 2.294 . S
In182 O184 2.326 . S
In182 O188 2.266 . S
In182 O189 2.326 . S
In182 O190 2.266 . S
In182 O191 2.326 . S
In182 O193 2.294 . S
In182 O194 2.326 . S
O183 In182 2.294 . S
O183 C192 1.240 . S
O184 In182 2.326 . S
O184 C192 1.252 . S
C185 O188 1.252 . S
C185 O189 1.260 . S
C186 O193 1.240 . S
C186 O194 1.252 . S
C187 O190 1.252 . S
C187 O191 1.260 . S
O188 In182 2.266 . S
O188 C185 1.252 . S
O189 In182 2.326 . S
O189 C185 1.260 . S
O190 In182 2.266 . S
O190 C187 1.252 . S
O191 In182 2.326 . S
O191 C187 1.260 . S
C192 O183 1.240 . S
C192 O184 1.252 . S
O193 In182 2.294 . S
O193 C186 1.240 . S
O194 In182 2.326 . S
O194 C186 1.252 . S
In195 O196 2.294 . S
In195 O197 2.326 . S
In195 O201 2.266 . S
In195 O202 2.326 . S
In195 O203 2.266 . S
In195 O204 2.326 . S
In195 O206 2.294 . S
In195 O207 2.326 . S
O196 In195 2.294 . S
O196 C205 1.240 . S
O197 In195 2.326 . S
O197 C205 1.252 . S
C198 O201 1.252 . S
C198 O202 1.260 . S
C199 O206 1.240 . S
C199 O207 1.252 . S
C200 O203 1.252 . S
C200 O204 1.260 . S
O201 In195 2.266 . S
O201 C198 1.252 . S
O202 In195 2.326 . S
O202 C198 1.260 . S
O203 In195 2.266 . S
O203 C200 1.252 . S
O204 In195 2.326 . S
O204 C200 1.260 . S
C205 O196 1.240 . S
C205 O197 1.252 . S
O206 In195 2.294 . S
O206 C199 1.240 . S
O207 In195 2.326 . S
O207 C199 1.252 . S
In208 O209 2.294 . S
In208 O210 2.326 . S
In208 O214 2.266 . S
In208 O215 2.326 . S
In208 O216 2.266 . S
In208 O217 2.326 . S
In208 O219 2.294 . S
In208 O220 2.326 . S
O209 In208 2.294 . S
O209 C218 1.240 . S
O210 In208 2.326 . S
O210 C218 1.252 . S
C211 O214 1.252 . S
C211 O215 1.260 . S
C212 O219 1.240 . S
C212 O220 1.252 . S
C213 O216 1.252 . S
C213 O217 1.260 . S
O214 In208 2.266 . S
O214 C211 1.252 . S
O215 In208 2.326 . S
O215 C211 1.260 . S
O216 In208 2.266 . S
O216 C213 1.252 . S
O217 In208 2.326 . S
O217 C213 1.260 . S
C218 O209 1.240 . S
C218 O210 1.252 . S
O219 In208 2.294 . S
O219 C212 1.240 . S
O220 In208 2.326 . S
O220 C212 1.252 . S
In221 O222 2.294 . S
In221 O223 2.326 . S
In221 O227 2.266 . S
In221 O228 2.326 . S
In221 O229 2.266 . S
In221 O230 2.326 . S
In221 O232 2.294 . S
In221 O233 2.326 . S
O222 In221 2.294 . S
O222 C231 1.240 . S
O223 In221 2.326 . S
O223 C231 1.252 . S
C224 O227 1.252 . S
C224 O228 1.260 . S
C225 O232 1.240 . S
C225 O233 1.252 . S
C226 O229 1.252 . S
C226 O230 1.260 . S
O227 In221 2.266 . S
O227 C224 1.252 . S
O228 In221 2.326 . S
O228 C224 1.260 . S
O229 In221 2.266 . S
O229 C226 1.252 . S
O230 In221 2.326 . S
O230 C226 1.260 . S
C231 O222 1.240 . S
C231 O223 1.252 . S
O232 In221 2.294 . S
O232 C225 1.240 . S
O233 In221 2.326 . S
O233 C225 1.252 . S
In234 O235 2.294 . S
In234 O236 2.326 . S
In234 O240 2.266 . S
In234 O241 2.326 . S
In234 O242 2.266 . S
In234 O243 2.326 . S
In234 O245 2.294 . S
In234 O246 2.326 . S
O235 In234 2.294 . S
O235 C244 1.240 . S
O236 In234 2.326 . S
O236 C244 1.252 . S
C237 O240 1.252 . S
C237 O241 1.260 . S
C238 O245 1.240 . S
C238 O246 1.252 . S
C239 O242 1.252 . S
C239 O243 1.260 . S
O240 In234 2.266 . S
O240 C237 1.252 . S
O241 In234 2.326 . S
O241 C237 1.260 . S
O242 In234 2.266 . S
O242 C239 1.252 . S
O243 In234 2.326 . S
O243 C239 1.260 . S
C244 O235 1.240 . S
C244 O236 1.252 . S
O245 In234 2.294 . S
O245 C238 1.240 . S
O246 In234 2.326 . S
O246 C238 1.252 . S
In247 O248 2.294 . S
In247 O249 2.326 . S
In247 O253 2.266 . S
In247 O254 2.326 . S
In247 O255 2.266 . S
In247 O256 2.326 . S
In247 O258 2.294 . S
In247 O259 2.326 . S
O248 In247 2.294 . S
O248 C257 1.240 . S
O249 In247 2.326 . S
O249 C257 1.252 . S
C250 O253 1.252 . S
C250 O254 1.260 . S
C251 O258 1.240 . S
C251 O259 1.252 . S
C252 O255 1.252 . S
C252 O256 1.260 . S
O253 In247 2.266 . S
O253 C250 1.252 . S
O254 In247 2.326 . S
O254 C250 1.260 . S
O255 In247 2.266 . S
O255 C252 1.252 . S
O256 In247 2.326 . S
O256 C252 1.260 . S
C257 O248 1.240 . S
C257 O249 1.252 . S
O258 In247 2.294 . S
O258 C251 1.240 . S
O259 In247 2.326 . S
O259 C251 1.252 . S
In260 O261 2.294 . S
In260 O262 2.326 . S
In260 O266 2.266 . S
In260 O267 2.326 . S
In260 O268 2.266 . S
In260 O269 2.326 . S
In260 O271 2.294 . S
In260 O272 2.326 . S
O261 In260 2.294 . S
O261 C270 1.240 . S
O262 In260 2.326 . S
O262 C270 1.252 . S
C263 O266 1.252 . S
C263 O267 1.260 . S
C264 O271 1.240 . S
C264 O272 1.252 . S
C265 O268 1.252 . S
C265 O269 1.260 . S
O266 In260 2.266 . S
O266 C263 1.252 . S
O267 In260 2.326 . S
O267 C263 1.260 . S
O268 In260 2.266 . S
O268 C265 1.252 . S
O269 In260 2.326 . S
O269 C265 1.260 . S
C270 O261 1.240 . S
C270 O262 1.252 . S
O271 In260 2.294 . S
O271 C264 1.240 . S
O272 In260 2.326 . S
O272 C264 1.252 . S
In273 O274 2.294 . S
In273 O275 2.326 . S
In273 O279 2.266 . S
In273 O280 2.326 . S
In273 O281 2.266 . S
In273 O282 2.326 . S
In273 O284 2.294 . S
In273 O285 2.326 . S
O274 In273 2.294 . S
O274 C283 1.240 . S
O275 In273 2.326 . S
O275 C283 1.252 . S
C276 O279 1.252 . S
C276 O280 1.260 . S
C277 O284 1.240 . S
C277 O285 1.252 . S
C278 O281 1.252 . S
C278 O282 1.260 . S
O279 In273 2.266 . S
O279 C276 1.252 . S
O280 In273 2.326 . S
O280 C276 1.260 . S
O281 In273 2.266 . S
O281 C278 1.252 . S
O282 In273 2.326 . S
O282 C278 1.260 . S
C283 O274 1.240 . S
C283 O275 1.252 . S
O284 In273 2.294 . S
O284 C277 1.240 . S
O285 In273 2.326 . S
O285 C277 1.252 . S
In286 O287 2.294 . S
In286 O288 2.326 . S
In286 O292 2.266 . S
In286 O293 2.326 . S
In286 O294 2.266 . S
In286 O295 2.326 . S
In286 O297 2.294 . S
In286 O298 2.326 . S
O287 In286 2.294 . S
O287 C296 1.240 . S
O288 In286 2.326 . S
O288 C296 1.252 . S
C289 O292 1.252 . S
C289 O293 1.260 . S
C290 O297 1.240 . S
C290 O298 1.252 . S
C291 O294 1.252 . S
C291 O295 1.260 . S
O292 In286 2.266 . S
O292 C289 1.252 . S
O293 In286 2.326 . S
O293 C289 1.260 . S
O294 In286 2.266 . S
O294 C291 1.252 . S
O295 In286 2.326 . S
O295 C291 1.260 . S
C296 O287 1.240 . S
C296 O288 1.252 . S
O297 In286 2.294 . S
O297 C290 1.240 . S
O298 In286 2.326 . S
O298 C290 1.252 . S
In299 O300 2.294 . S
In299 O301 2.326 . S
In299 O305 2.266 . S
In299 O306 2.326 . S
In299 O307 2.266 . S
In299 O308 2.326 . S
In299 O310 2.294 . S
In299 O311 2.326 . S
O300 In299 2.294 . S
O300 C309 1.240 . S
O301 In299 2.326 . S
O301 C309 1.252 . S
C302 O305 1.252 . S
C302 O306 1.260 . S
C303 O310 1.240 . S
C303 O311 1.252 . S
C304 O307 1.252 . S
C304 O308 1.260 . S
O305 In299 2.266 . S
O305 C302 1.252 . S
O306 In299 2.326 . S
O306 C302 1.260 . S
O307 In299 2.266 . S
O307 C304 1.252 . S
O308 In299 2.326 . S
O308 C304 1.260 . S
C309 O300 1.240 . S
C309 O301 1.252 . S
O310 In299 2.294 . S
O310 C303 1.240 . S
O311 In299 2.326 . S
O311 C303 1.252 . S
H312 C318 0.930 . S
H313 C322 0.930 . S
H314 C327 0.929 . S
H315 C325 0.929 . S
H316 C320 0.929 . S
H317 C326 0.929 . S
C318 H312 0.930 . S
C318 C319 1.367 . S
C318 C326 1.378 . S
C319 C318 1.367 . S
C319 C327 1.433 . S
C320 H316 0.929 . S
C320 C322 1.378 . S
C320 C324 1.350 . S
C321 C324 1.463 . S
C321 C326 1.350 . S
C321 N329 1.427 . S
C322 H313 0.930 . S
C322 C320 1.378 . S
C322 C323 1.367 . S
C323 C322 1.367 . S
C323 C325 1.433 . S
C324 C320 1.350 . S
C324 C321 1.463 . S
C324 N328 1.427 . S
C325 H315 0.929 . S
C325 C323 1.433 . S
C325 N328 1.384 . S
C326 H317 0.929 . S
C326 C318 1.378 . S
C326 C321 1.350 . S
C327 H314 0.929 . S
C327 C319 1.433 . S
C327 N329 1.384 . S
N328 C324 1.427 . S
N328 C325 1.384 . S
N329 C321 1.427 . S
N329 C327 1.384 . S
H330 C336 0.930 . S
H331 C340 0.930 . S
H332 C345 0.929 . S
H333 C343 0.929 . S
H334 C338 0.929 . S
H335 C344 0.929 . S
C336 H330 0.930 . S
C336 C337 1.367 . S
C336 C344 1.378 . S
C337 C336 1.367 . S
C337 C345 1.433 . S
C338 H334 0.929 . S
C338 C340 1.378 . S
C338 C342 1.350 . S
C339 C342 1.463 . S
C339 C344 1.350 . S
C339 N347 1.427 . S
C340 H331 0.930 . S
C340 C338 1.378 . S
C340 C341 1.367 . S
C341 C340 1.367 . S
C341 C343 1.433 . S
C342 C338 1.350 . S
C342 C339 1.463 . S
C342 N346 1.427 . S
C343 H333 0.929 . S
C343 C341 1.433 . S
C343 N346 1.384 . S
C344 H335 0.929 . S
C344 C336 1.378 . S
C344 C339 1.350 . S
C345 H332 0.929 . S
C345 C337 1.433 . S
C345 N347 1.384 . S
N346 C342 1.427 . S
N346 C343 1.384 . S
N347 C339 1.427 . S
N347 C345 1.384 . S
H348 C354 0.930 . S
H349 C358 0.930 . S
H350 C363 0.929 . S
H351 C361 0.929 . S
H352 C356 0.929 . S
H353 C362 0.929 . S
C354 H348 0.930 . S
C354 C355 1.367 . S
C354 C362 1.378 . S
C355 C354 1.367 . S
C355 C363 1.433 . S
C356 H352 0.929 . S
C356 C358 1.378 . S
C356 C360 1.350 . S
C357 C360 1.463 . S
C357 C362 1.350 . S
C357 N365 1.427 . S
C358 H349 0.930 . S
C358 C356 1.378 . S
C358 C359 1.367 . S
C359 C358 1.367 . S
C359 C361 1.433 . S
C360 C356 1.350 . S
C360 C357 1.463 . S
C360 N364 1.427 . S
C361 H351 0.929 . S
C361 C359 1.433 . S
C361 N364 1.384 . S
C362 H353 0.929 . S
C362 C354 1.378 . S
C362 C357 1.350 . S
C363 H350 0.929 . S
C363 C355 1.433 . S
C363 N365 1.384 . S
N364 C360 1.427 . S
N364 C361 1.384 . S
N365 C357 1.427 . S
N365 C363 1.384 . S
H366 C372 0.930 . S
H367 C376 0.930 . S
H368 C381 0.929 . S
H369 C379 0.929 . S
H370 C374 0.929 . S
H371 C380 0.929 . S
C372 H366 0.930 . S
C372 C373 1.367 . S
C372 C380 1.378 . S
C373 C372 1.367 . S
C373 C381 1.433 . S
C374 H370 0.929 . S
C374 C376 1.378 . S
C374 C378 1.350 . S
C375 C378 1.463 . S
C375 C380 1.350 . S
C375 N383 1.427 . S
C376 H367 0.930 . S
C376 C374 1.378 . S
C376 C377 1.367 . S
C377 C376 1.367 . S
C377 C379 1.433 . S
C378 C374 1.350 . S
C378 C375 1.463 . S
C378 N382 1.427 . S
C379 H369 0.929 . S
C379 C377 1.433 . S
C379 N382 1.384 . S
C380 H371 0.929 . S
C380 C372 1.378 . S
C380 C375 1.350 . S
C381 H368 0.929 . S
C381 C373 1.433 . S
C381 N383 1.384 . S
N382 C378 1.427 . S
N382 C379 1.384 . S
N383 C375 1.427 . S
N383 C381 1.384 . S
H384 C390 0.930 . S
H385 C394 0.930 . S
H386 C399 0.929 . S
H387 C397 0.929 . S
H388 C392 0.929 . S
H389 C398 0.929 . S
C390 H384 0.930 . S
C390 C391 1.367 . S
C390 C398 1.378 . S
C391 C390 1.367 . S
C391 C399 1.433 . S
C392 H388 0.929 . S
C392 C394 1.378 . S
C392 C396 1.350 . S
C393 C396 1.463 . S
C393 C398 1.350 . S
C393 N401 1.427 . S
C394 H385 0.930 . S
C394 C392 1.378 . S
C394 C395 1.367 . S
C395 C394 1.367 . S
C395 C397 1.433 . S
C396 C392 1.350 . S
C396 C393 1.463 . S
C396 N400 1.427 . S
C397 H387 0.929 . S
C397 C395 1.433 . S
C397 N400 1.384 . S
C398 H389 0.929 . S
C398 C390 1.378 . S
C398 C393 1.350 . S
C399 H386 0.929 . S
C399 C391 1.433 . S
C399 N401 1.384 . S
N400 C396 1.427 . S
N400 C397 1.384 . S
N401 C393 1.427 . S
N401 C399 1.384 . S
H402 C408 0.930 . S
H403 C412 0.930 . S
H404 C417 0.929 . S
H405 C415 0.929 . S
H406 C410 0.929 . S
H407 C416 0.929 . S
C408 H402 0.930 . S
C408 C409 1.367 . S
C408 C416 1.378 . S
C409 C408 1.367 . S
C409 C417 1.433 . S
C410 H406 0.929 . S
C410 C412 1.378 . S
C410 C414 1.350 . S
C411 C414 1.463 . S
C411 C416 1.350 . S
C411 N419 1.427 . S
C412 H403 0.930 . S
C412 C410 1.378 . S
C412 C413 1.367 . S
C413 C412 1.367 . S
C413 C415 1.433 . S
C414 C410 1.350 . S
C414 C411 1.463 . S
C414 N418 1.427 . S
C415 H405 0.929 . S
C415 C413 1.433 . S
C415 N418 1.384 . S
C416 H407 0.929 . S
C416 C408 1.378 . S
C416 C411 1.350 . S
C417 H404 0.929 . S
C417 C409 1.433 . S
C417 N419 1.384 . S
N418 C414 1.427 . S
N418 C415 1.384 . S
N419 C411 1.427 . S
N419 C417 1.384 . S
H420 C426 0.930 . S
H421 C430 0.930 . S
H422 C435 0.929 . S
H423 C433 0.929 . S
H424 C428 0.929 . S
H425 C434 0.929 . S
C426 H420 0.930 . S
C426 C427 1.367 . S
C426 C434 1.378 . S
C427 C426 1.367 . S
C427 C435 1.433 . S
C428 H424 0.929 . S
C428 C430 1.378 . S
C428 C432 1.350 . S
C429 C432 1.463 . S
C429 C434 1.350 . S
C429 N437 1.427 . S
C430 H421 0.930 . S
C430 C428 1.378 . S
C430 C431 1.367 . S
C431 C430 1.367 . S
C431 C433 1.433 . S
C432 C428 1.350 . S
C432 C429 1.463 . S
C432 N436 1.427 . S
C433 H423 0.929 . S
C433 C431 1.433 . S
C433 N436 1.384 . S
C434 H425 0.929 . S
C434 C426 1.378 . S
C434 C429 1.350 . S
C435 H422 0.929 . S
C435 C427 1.433 . S
C435 N437 1.384 . S
N436 C432 1.427 . S
N436 C433 1.384 . S
N437 C429 1.427 . S
N437 C435 1.384 . S
H438 C444 0.930 . S
H439 C448 0.930 . S
H440 C453 0.929 . S
H441 C451 0.929 . S
H442 C446 0.929 . S
H443 C452 0.929 . S
C444 H438 0.930 . S
C444 C445 1.367 . S
C444 C452 1.378 . S
C445 C444 1.367 . S
C445 C453 1.433 . S
C446 H442 0.929 . S
C446 C448 1.378 . S
C446 C450 1.350 . S
C447 C450 1.463 . S
C447 C452 1.350 . S
C447 N455 1.427 . S
C448 H439 0.930 . S
C448 C446 1.378 . S
C448 C449 1.367 . S
C449 C448 1.367 . S
C449 C451 1.433 . S
C450 C446 1.350 . S
C450 C447 1.463 . S
C450 N454 1.427 . S
C451 H441 0.929 . S
C451 C449 1.433 . S
C451 N454 1.384 . S
C452 H443 0.929 . S
C452 C444 1.378 . S
C452 C447 1.350 . S
C453 H440 0.929 . S
C453 C445 1.433 . S
C453 N455 1.384 . S
N454 C450 1.427 . S
N454 C451 1.384 . S
N455 C447 1.427 . S
N455 C453 1.384 . S
H456 C462 0.930 . S
H457 C466 0.930 . S
H458 C471 0.929 . S
H459 C469 0.929 . S
H460 C464 0.929 . S
H461 C470 0.929 . S
C462 H456 0.930 . S
C462 C463 1.367 . S
C462 C470 1.378 . S
C463 C462 1.367 . S
C463 C471 1.433 . S
C464 H460 0.929 . S
C464 C466 1.378 . S
C464 C468 1.350 . S
C465 C468 1.463 . S
C465 C470 1.350 . S
C465 N473 1.427 . S
C466 H457 0.930 . S
C466 C464 1.378 . S
C466 C467 1.367 . S
C467 C466 1.367 . S
C467 C469 1.433 . S
C468 C464 1.350 . S
C468 C465 1.463 . S
C468 N472 1.427 . S
C469 H459 0.929 . S
C469 C467 1.433 . S
C469 N472 1.384 . S
C470 H461 0.929 . S
C470 C462 1.378 . S
C470 C465 1.350 . S
C471 H458 0.929 . S
C471 C463 1.433 . S
C471 N473 1.384 . S
N472 C468 1.427 . S
N472 C469 1.384 . S
N473 C465 1.427 . S
N473 C471 1.384 . S
H474 C480 0.930 . S
H475 C484 0.930 . S
H476 C489 0.929 . S
H477 C487 0.929 . S
H478 C482 0.929 . S
H479 C488 0.929 . S
C480 H474 0.930 . S
C480 C481 1.367 . S
C480 C488 1.378 . S
C481 C480 1.367 . S
C481 C489 1.433 . S
C482 H478 0.929 . S
C482 C484 1.378 . S
C482 C486 1.350 . S
C483 C486 1.463 . S
C483 C488 1.350 . S
C483 N491 1.427 . S
C484 H475 0.930 . S
C484 C482 1.378 . S
C484 C485 1.367 . S
C485 C484 1.367 . S
C485 C487 1.433 . S
C486 C482 1.350 . S
C486 C483 1.463 . S
C486 N490 1.427 . S
C487 H477 0.929 . S
C487 C485 1.433 . S
C487 N490 1.384 . S
C488 H479 0.929 . S
C488 C480 1.378 . S
C488 C483 1.350 . S
C489 H476 0.929 . S
C489 C481 1.433 . S
C489 N491 1.384 . S
N490 C486 1.427 . S
N490 C487 1.384 . S
N491 C483 1.427 . S
N491 C489 1.384 . S
H492 C498 0.930 . S
H493 C502 0.930 . S
H494 C507 0.929 . S
H495 C505 0.929 . S
H496 C500 0.929 . S
H497 C506 0.929 . S
C498 H492 0.930 . S
C498 C499 1.367 . S
C498 C506 1.378 . S
C499 C498 1.367 . S
C499 C507 1.433 . S
C500 H496 0.929 . S
C500 C502 1.378 . S
C500 C504 1.350 . S
C501 C504 1.463 . S
C501 C506 1.350 . S
C501 N509 1.427 . S
C502 H493 0.930 . S
C502 C500 1.378 . S
C502 C503 1.367 . S
C503 C502 1.367 . S
C503 C505 1.433 . S
C504 C500 1.350 . S
C504 C501 1.463 . S
C504 N508 1.427 . S
C505 H495 0.929 . S
C505 C503 1.433 . S
C505 N508 1.384 . S
C506 H497 0.929 . S
C506 C498 1.378 . S
C506 C501 1.350 . S
C507 H494 0.929 . S
C507 C499 1.433 . S
C507 N509 1.384 . S
N508 C504 1.427 . S
N508 C505 1.384 . S
N509 C501 1.427 . S
N509 C507 1.384 . S
H510 C516 0.930 . S
H511 C520 0.930 . S
H512 C525 0.929 . S
H513 C523 0.929 . S
H514 C518 0.929 . S
H515 C524 0.929 . S
C516 H510 0.930 . S
C516 C517 1.367 . S
C516 C524 1.378 . S
C517 C516 1.367 . S
C517 C525 1.433 . S
C518 H514 0.929 . S
C518 C520 1.378 . S
C518 C522 1.350 . S
C519 C522 1.463 . S
C519 C524 1.350 . S
C519 N527 1.427 . S
C520 H511 0.930 . S
C520 C518 1.378 . S
C520 C521 1.367 . S
C521 C520 1.367 . S
C521 C523 1.433 . S
C522 C518 1.350 . S
C522 C519 1.463 . S
C522 N526 1.427 . S
C523 H513 0.929 . S
C523 C521 1.433 . S
C523 N526 1.384 . S
C524 H515 0.929 . S
C524 C516 1.378 . S
C524 C519 1.350 . S
C525 H512 0.929 . S
C525 C517 1.433 . S
C525 N527 1.384 . S
N526 C522 1.427 . S
N526 C523 1.384 . S
N527 C519 1.427 . S
N527 C525 1.384 . S
H528 C534 0.930 . S
H529 C538 0.930 . S
H530 C543 0.929 . S
H531 C541 0.929 . S
H532 C536 0.929 . S
H533 C542 0.929 . S
C534 H528 0.930 . S
C534 C535 1.367 . S
C534 C542 1.378 . S
C535 C534 1.367 . S
C535 C543 1.433 . S
C536 H532 0.929 . S
C536 C538 1.378 . S
C536 C540 1.350 . S
C537 C540 1.463 . S
C537 C542 1.350 . S
C537 N545 1.427 . S
C538 H529 0.930 . S
C538 C536 1.378 . S
C538 C539 1.367 . S
C539 C538 1.367 . S
C539 C541 1.433 . S
C540 C536 1.350 . S
C540 C537 1.463 . S
C540 N544 1.427 . S
C541 H531 0.929 . S
C541 C539 1.433 . S
C541 N544 1.384 . S
C542 H533 0.929 . S
C542 C534 1.378 . S
C542 C537 1.350 . S
C543 H530 0.929 . S
C543 C535 1.433 . S
C543 N545 1.384 . S
N544 C540 1.427 . S
N544 C541 1.384 . S
N545 C537 1.427 . S
N545 C543 1.384 . S
H546 C552 0.930 . S
H547 C556 0.930 . S
H548 C561 0.929 . S
H549 C559 0.929 . S
H550 C554 0.929 . S
H551 C560 0.929 . S
C552 H546 0.930 . S
C552 C553 1.367 . S
C552 C560 1.378 . S
C553 C552 1.367 . S
C553 C561 1.433 . S
C554 H550 0.929 . S
C554 C556 1.378 . S
C554 C558 1.350 . S
C555 C558 1.463 . S
C555 C560 1.350 . S
C555 N563 1.427 . S
C556 H547 0.930 . S
C556 C554 1.378 . S
C556 C557 1.367 . S
C557 C556 1.367 . S
C557 C559 1.433 . S
C558 C554 1.350 . S
C558 C555 1.463 . S
C558 N562 1.427 . S
C559 H549 0.929 . S
C559 C557 1.433 . S
C559 N562 1.384 . S
C560 H551 0.929 . S
C560 C552 1.378 . S
C560 C555 1.350 . S
C561 H548 0.929 . S
C561 C553 1.433 . S
C561 N563 1.384 . S
N562 C558 1.427 . S
N562 C559 1.384 . S
N563 C555 1.427 . S
N563 C561 1.384 . S
H564 C570 0.930 . S
H565 C574 0.930 . S
H566 C579 0.929 . S
H567 C577 0.929 . S
H568 C572 0.929 . S
H569 C578 0.929 . S
C570 H564 0.930 . S
C570 C571 1.367 . S
C570 C578 1.378 . S
C571 C570 1.367 . S
C571 C579 1.433 . S
C572 H568 0.929 . S
C572 C574 1.378 . S
C572 C576 1.350 . S
C573 C576 1.463 . S
C573 C578 1.350 . S
C573 N581 1.427 . S
C574 H565 0.930 . S
C574 C572 1.378 . S
C574 C575 1.367 . S
C575 C574 1.367 . S
C575 C577 1.433 . S
C576 C572 1.350 . S
C576 C573 1.463 . S
C576 N580 1.427 . S
C577 H567 0.929 . S
C577 C575 1.433 . S
C577 N580 1.384 . S
C578 H569 0.929 . S
C578 C570 1.378 . S
C578 C573 1.350 . S
C579 H566 0.929 . S
C579 C571 1.433 . S
C579 N581 1.384 . S
N580 C576 1.427 . S
N580 C577 1.384 . S
N581 C573 1.427 . S
N581 C579 1.384 . S
H582 C588 0.930 . S
H583 C592 0.930 . S
H584 C597 0.929 . S
H585 C595 0.929 . S
H586 C590 0.929 . S
H587 C596 0.929 . S
C588 H582 0.930 . S
C588 C589 1.367 . S
C588 C596 1.378 . S
C589 C588 1.367 . S
C589 C597 1.433 . S
C590 H586 0.929 . S
C590 C592 1.378 . S
C590 C594 1.350 . S
C591 C594 1.463 . S
C591 C596 1.350 . S
C591 N599 1.427 . S
C592 H583 0.930 . S
C592 C590 1.378 . S
C592 C593 1.367 . S
C593 C592 1.367 . S
C593 C595 1.433 . S
C594 C590 1.350 . S
C594 C591 1.463 . S
C594 N598 1.427 . S
C595 H585 0.929 . S
C595 C593 1.433 . S
C595 N598 1.384 . S
C596 H587 0.929 . S
C596 C588 1.378 . S
C596 C591 1.350 . S
C597 H584 0.929 . S
C597 C589 1.433 . S
C597 N599 1.384 . S
N598 C594 1.427 . S
N598 C595 1.384 . S
N599 C591 1.427 . S
N599 C597 1.384 . S
H600 C606 0.930 . S
H601 C610 0.930 . S
H602 C615 0.929 . S
H603 C613 0.929 . S
H604 C608 0.929 . S
H605 C614 0.929 . S
C606 H600 0.930 . S
C606 C607 1.367 . S
C606 C614 1.378 . S
C607 C606 1.367 . S
C607 C615 1.433 . S
C608 H604 0.929 . S
C608 C610 1.378 . S
C608 C612 1.350 . S
C609 C612 1.463 . S
C609 C614 1.350 . S
C609 N617 1.427 . S
C610 H601 0.930 . S
C610 C608 1.378 . S
C610 C611 1.367 . S
C611 C610 1.367 . S
C611 C613 1.433 . S
C612 C608 1.350 . S
C612 C609 1.463 . S
C612 N616 1.427 . S
C613 H603 0.929 . S
C613 C611 1.433 . S
C613 N616 1.384 . S
C614 H605 0.929 . S
C614 C606 1.378 . S
C614 C609 1.350 . S
C615 H602 0.929 . S
C615 C607 1.433 . S
C615 N617 1.384 . S
N616 C612 1.427 . S
N616 C613 1.384 . S
N617 C609 1.427 . S
N617 C615 1.384 . S
H618 C624 0.930 . S
H619 C628 0.930 . S
H620 C633 0.929 . S
H621 C631 0.929 . S
H622 C626 0.929 . S
H623 C632 0.929 . S
C624 H618 0.930 . S
C624 C625 1.367 . S
C624 C632 1.378 . S
C625 C624 1.367 . S
C625 C633 1.433 . S
C626 H622 0.929 . S
C626 C628 1.378 . S
C626 C630 1.350 . S
C627 C630 1.463 . S
C627 C632 1.350 . S
C627 N635 1.427 . S
C628 H619 0.930 . S
C628 C626 1.378 . S
C628 C629 1.367 . S
C629 C628 1.367 . S
C629 C631 1.433 . S
C630 C626 1.350 . S
C630 C627 1.463 . S
C630 N634 1.427 . S
C631 H621 0.929 . S
C631 C629 1.433 . S
C631 N634 1.384 . S
C632 H623 0.929 . S
C632 C624 1.378 . S
C632 C627 1.350 . S
C633 H620 0.929 . S
C633 C625 1.433 . S
C633 N635 1.384 . S
N634 C630 1.427 . S
N634 C631 1.384 . S
N635 C627 1.427 . S
N635 C633 1.384 . S
H636 C642 0.930 . S
H637 C646 0.930 . S
H638 C651 0.929 . S
H639 C649 0.929 . S
H640 C644 0.929 . S
H641 C650 0.929 . S
C642 H636 0.930 . S
C642 C643 1.367 . S
C642 C650 1.378 . S
C643 C642 1.367 . S
C643 C651 1.433 . S
C644 H640 0.929 . S
C644 C646 1.378 . S
C644 C648 1.350 . S
C645 C648 1.463 . S
C645 C650 1.350 . S
C645 N653 1.427 . S
C646 H637 0.930 . S
C646 C644 1.378 . S
C646 C647 1.367 . S
C647 C646 1.367 . S
C647 C649 1.433 . S
C648 C644 1.350 . S
C648 C645 1.463 . S
C648 N652 1.427 . S
C649 H639 0.929 . S
C649 C647 1.433 . S
C649 N652 1.384 . S
C650 H641 0.929 . S
C650 C642 1.378 . S
C650 C645 1.350 . S
C651 H638 0.929 . S
C651 C643 1.433 . S
C651 N653 1.384 . S
N652 C648 1.427 . S
N652 C649 1.384 . S
N653 C645 1.427 . S
N653 C651 1.384 . S
H654 C660 0.930 . S
H655 C664 0.930 . S
H656 C669 0.929 . S
H657 C667 0.929 . S
H658 C662 0.929 . S
H659 C668 0.929 . S
C660 H654 0.930 . S
C660 C661 1.367 . S
C660 C668 1.378 . S
C661 C660 1.367 . S
C661 C669 1.433 . S
C662 H658 0.929 . S
C662 C664 1.378 . S
C662 C666 1.350 . S
C663 C666 1.463 . S
C663 C668 1.350 . S
C663 N671 1.427 . S
C664 H655 0.930 . S
C664 C662 1.378 . S
C664 C665 1.367 . S
C665 C664 1.367 . S
C665 C667 1.433 . S
C666 C662 1.350 . S
C666 C663 1.463 . S
C666 N670 1.427 . S
C667 H657 0.929 . S
C667 C665 1.433 . S
C667 N670 1.384 . S
C668 H659 0.929 . S
C668 C660 1.378 . S
C668 C663 1.350 . S
C669 H656 0.929 . S
C669 C661 1.433 . S
C669 N671 1.384 . S
N670 C666 1.427 . S
N670 C667 1.384 . S
N671 C663 1.427 . S
N671 C669 1.384 . S
H672 C678 0.930 . S
H673 C682 0.930 . S
H674 C687 0.929 . S
H675 C685 0.929 . S
H676 C680 0.929 . S
H677 C686 0.929 . S
C678 H672 0.930 . S
C678 C679 1.367 . S
C678 C686 1.378 . S
C679 C678 1.367 . S
C679 C687 1.433 . S
C680 H676 0.929 . S
C680 C682 1.378 . S
C680 C684 1.350 . S
C681 C684 1.463 . S
C681 C686 1.350 . S
C681 N689 1.427 . S
C682 H673 0.930 . S
C682 C680 1.378 . S
C682 C683 1.367 . S
C683 C682 1.367 . S
C683 C685 1.433 . S
C684 C680 1.350 . S
C684 C681 1.463 . S
C684 N688 1.427 . S
C685 H675 0.929 . S
C685 C683 1.433 . S
C685 N688 1.384 . S
C686 H677 0.929 . S
C686 C678 1.378 . S
C686 C681 1.350 . S
C687 H674 0.929 . S
C687 C679 1.433 . S
C687 N689 1.384 . S
N688 C684 1.427 . S
N688 C685 1.384 . S
N689 C681 1.427 . S
N689 C687 1.384 . S
H690 C696 0.930 . S
H691 C700 0.930 . S
H692 C705 0.929 . S
H693 C703 0.929 . S
H694 C698 0.929 . S
H695 C704 0.929 . S
C696 H690 0.930 . S
C696 C697 1.367 . S
C696 C704 1.378 . S
C697 C696 1.367 . S
C697 C705 1.433 . S
C698 H694 0.929 . S
C698 C700 1.378 . S
C698 C702 1.350 . S
C699 C702 1.463 . S
C699 C704 1.350 . S
C699 N707 1.427 . S
C700 H691 0.930 . S
C700 C698 1.378 . S
C700 C701 1.367 . S
C701 C700 1.367 . S
C701 C703 1.433 . S
C702 C698 1.350 . S
C702 C699 1.463 . S
C702 N706 1.427 . S
C703 H693 0.929 . S
C703 C701 1.433 . S
C703 N706 1.384 . S
C704 H695 0.929 . S
C704 C696 1.378 . S
C704 C699 1.350 . S
C705 H692 0.929 . S
C705 C697 1.433 . S
C705 N707 1.384 . S
N706 C702 1.427 . S
N706 C703 1.384 . S
N707 C699 1.427 . S
N707 C705 1.384 . S
H708 C714 0.930 . S
H709 C718 0.930 . S
H710 C723 0.929 . S
H711 C721 0.929 . S
H712 C716 0.929 . S
H713 C722 0.929 . S
C714 H708 0.930 . S
C714 C715 1.367 . S
C714 C722 1.378 . S
C715 C714 1.367 . S
C715 C723 1.433 . S
C716 H712 0.929 . S
C716 C718 1.378 . S
C716 C720 1.350 . S
C717 C720 1.463 . S
C717 C722 1.350 . S
C717 N725 1.427 . S
C718 H709 0.930 . S
C718 C716 1.378 . S
C718 C719 1.367 . S
C719 C718 1.367 . S
C719 C721 1.433 . S
C720 C716 1.350 . S
C720 C717 1.463 . S
C720 N724 1.427 . S
C721 H711 0.929 . S
C721 C719 1.433 . S
C721 N724 1.384 . S
C722 H713 0.929 . S
C722 C714 1.378 . S
C722 C717 1.350 . S
C723 H710 0.929 . S
C723 C715 1.433 . S
C723 N725 1.384 . S
N724 C720 1.427 . S
N724 C721 1.384 . S
N725 C717 1.427 . S
N725 C723 1.384 . S
H726 C732 0.930 . S
H727 C736 0.930 . S
H728 C741 0.929 . S
H729 C739 0.929 . S
H730 C734 0.929 . S
H731 C740 0.929 . S
C732 H726 0.930 . S
C732 C733 1.367 . S
C732 C740 1.378 . S
C733 C732 1.367 . S
C733 C741 1.433 . S
C734 H730 0.929 . S
C734 C736 1.378 . S
C734 C738 1.350 . S
C735 C738 1.463 . S
C735 C740 1.350 . S
C735 N743 1.427 . S
C736 H727 0.930 . S
C736 C734 1.378 . S
C736 C737 1.367 . S
C737 C736 1.367 . S
C737 C739 1.433 . S
C738 C734 1.350 . S
C738 C735 1.463 . S
C738 N742 1.427 . S
C739 H729 0.929 . S
C739 C737 1.433 . S
C739 N742 1.384 . S
C740 H731 0.929 . S
C740 C732 1.378 . S
C740 C735 1.350 . S
C741 H728 0.929 . S
C741 C733 1.433 . S
C741 N743 1.384 . S
N742 C738 1.427 . S
N742 C739 1.384 . S
N743 C735 1.427 . S
N743 C741 1.384 . S
H744 C750 0.930 . S
H745 C754 0.930 . S
H746 C759 0.929 . S
H747 C757 0.929 . S
H748 C752 0.929 . S
H749 C758 0.929 . S
C750 H744 0.930 . S
C750 C751 1.367 . S
C750 C758 1.378 . S
C751 C750 1.367 . S
C751 C759 1.433 . S
C752 H748 0.929 . S
C752 C754 1.378 . S
C752 C756 1.350 . S
C753 C756 1.463 1_455 S
C753 C758 1.350 . S
C753 N761 1.427 . S
C754 H745 0.930 . S
C754 C752 1.378 . S
C754 C755 1.367 . S
C755 C754 1.367 . S
C755 C757 1.433 . S
C756 C752 1.350 . S
C756 C753 1.463 1_655 S
C756 N760 1.427 . S
C757 H747 0.929 . S
C757 C755 1.433 . S
C757 N760 1.384 . S
C758 H749 0.929 . S
C758 C750 1.378 . S
C758 C753 1.350 . S
C759 H746 0.929 . S
C759 C751 1.433 . S
C759 N761 1.384 . S
N760 C756 1.427 . S
N760 C757 1.384 . S
N761 C753 1.427 . S
N761 C759 1.384 . S
H762 C768 0.930 . S
H763 C772 0.930 . S
H764 C777 0.929 . S
H765 C775 0.929 . S
H766 C770 0.929 . S
H767 C776 0.929 . S
C768 H762 0.930 . S
C768 C769 1.367 . S
C768 C776 1.378 . S
C769 C768 1.367 . S
C769 C777 1.433 . S
C770 H766 0.929 . S
C770 C772 1.378 . S
C770 C774 1.350 . S
C771 C774 1.463 1_545 S
C771 C776 1.350 . S
C771 N779 1.427 . S
C772 H763 0.930 . S
C772 C770 1.378 . S
C772 C773 1.367 . S
C773 C772 1.367 . S
C773 C775 1.433 . S
C774 C770 1.350 . S
C774 C771 1.463 1_565 S
C774 N778 1.427 . S
C775 H765 0.929 . S
C775 C773 1.433 . S
C775 N778 1.384 . S
C776 H767 0.929 . S
C776 C768 1.378 . S
C776 C771 1.350 . S
C777 H764 0.929 . S
C777 C769 1.433 . S
C777 N779 1.384 . S
N778 C774 1.427 . S
N778 C775 1.384 . S
N779 C771 1.427 . S
N779 C777 1.384 . S
H780 C786 0.930 . S
H781 C790 0.930 . S
H782 C795 0.929 . S
H783 C793 0.929 . S
H784 C788 0.929 . S
H785 C794 0.929 . S
C786 H780 0.930 . S
C786 C787 1.367 . S
C786 C794 1.378 . S
C787 C786 1.367 . S
C787 C795 1.433 . S
C788 H784 0.929 . S
C788 C790 1.378 . S
C788 C792 1.350 . S
C789 C792 1.463 1_655 S
C789 C794 1.350 . S
C789 N797 1.427 . S
C790 H781 0.930 . S
C790 C788 1.378 . S
C790 C791 1.367 . S
C791 C790 1.367 . S
C791 C793 1.433 . S
C792 C788 1.350 . S
C792 C789 1.463 1_455 S
C792 N796 1.427 . S
C793 H783 0.929 . S
C793 C791 1.433 . S
C793 N796 1.384 . S
C794 H785 0.929 . S
C794 C786 1.378 . S
C794 C789 1.350 . S
C795 H782 0.929 . S
C795 C787 1.433 . S
C795 N797 1.384 . S
N796 C792 1.427 . S
N796 C793 1.384 . S
N797 C789 1.427 . S
N797 C795 1.384 . S
H798 C804 0.930 . S
H799 C808 0.930 . S
H800 C813 0.929 . S
H801 C811 0.929 . S
H802 C806 0.929 . S
H803 C812 0.929 . S
C804 H798 0.930 . S
C804 C805 1.367 . S
C804 C812 1.378 . S
C805 C804 1.367 . S
C805 C813 1.433 . S
C806 H802 0.929 . S
C806 C808 1.378 . S
C806 C810 1.350 . S
C807 C810 1.463 1_545 S
C807 C812 1.350 . S
C807 N815 1.427 . S
C808 H799 0.930 . S
C808 C806 1.378 . S
C808 C809 1.367 . S
C809 C808 1.367 . S
C809 C811 1.433 . S
C810 C806 1.350 . S
C810 C807 1.463 1_565 S
C810 N814 1.427 . S
C811 H801 0.929 . S
C811 C809 1.433 . S
C811 N814 1.384 . S
C812 H803 0.929 . S
C812 C804 1.378 . S
C812 C807 1.350 . S
C813 H800 0.929 . S
C813 C805 1.433 . S
C813 N815 1.384 . S
N814 C810 1.427 . S
N814 C811 1.384 . S
N815 C807 1.427 . S
N815 C813 1.384 . S
H816 C822 0.930 . S
H817 C826 0.930 . S
H818 C831 0.929 . S
H819 C829 0.929 . S
H820 C824 0.929 . S
H821 C830 0.929 . S
C822 H816 0.930 . S
C822 C823 1.367 . S
C822 C830 1.378 . S
C823 C822 1.367 . S
C823 C831 1.433 . S
C824 H820 0.929 . S
C824 C826 1.378 . S
C824 C828 1.350 . S
C825 C828 1.463 1_565 S
C825 C830 1.350 . S
C825 N833 1.427 . S
C826 H817 0.930 . S
C826 C824 1.378 . S
C826 C827 1.367 . S
C827 C826 1.367 . S
C827 C829 1.433 . S
C828 C824 1.350 . S
C828 C825 1.463 1_545 S
C828 N832 1.427 . S
C829 H819 0.929 . S
C829 C827 1.433 . S
C829 N832 1.384 . S
C830 H821 0.929 . S
C830 C822 1.378 . S
C830 C825 1.350 . S
C831 H818 0.929 . S
C831 C823 1.433 . S
C831 N833 1.384 . S
N832 C828 1.427 . S
N832 C829 1.384 . S
N833 C825 1.427 . S
N833 C831 1.384 . S
H834 C840 0.930 . S
H835 C844 0.930 . S
H836 C849 0.929 . S
H837 C847 0.929 . S
H838 C842 0.929 . S
H839 C848 0.929 . S
C840 H834 0.930 . S
C840 C841 1.367 . S
C840 C848 1.378 . S
C841 C840 1.367 . S
C841 C849 1.433 . S
C842 H838 0.929 . S
C842 C844 1.378 . S
C842 C846 1.350 . S
C843 C846 1.463 1_655 S
C843 C848 1.350 . S
C843 N851 1.427 . S
C844 H835 0.930 . S
C844 C842 1.378 . S
C844 C845 1.367 . S
C845 C844 1.367 . S
C845 C847 1.433 . S
C846 C842 1.350 . S
C846 C843 1.463 1_455 S
C846 N850 1.427 . S
C847 H837 0.929 . S
C847 C845 1.433 . S
C847 N850 1.384 . S
C848 H839 0.929 . S
C848 C840 1.378 . S
C848 C843 1.350 . S
C849 H836 0.929 . S
C849 C841 1.433 . S
C849 N851 1.384 . S
N850 C846 1.427 . S
N850 C847 1.384 . S
N851 C843 1.427 . S
N851 C849 1.384 . S
H852 C858 0.930 . S
H853 C862 0.930 . S
H854 C867 0.929 . S
H855 C865 0.929 . S
H856 C860 0.929 . S
H857 C866 0.929 . S
C858 H852 0.930 . S
C858 C859 1.367 . S
C858 C866 1.378 . S
C859 C858 1.367 . S
C859 C867 1.433 . S
C860 H856 0.929 . S
C860 C862 1.378 . S
C860 C864 1.350 . S
C861 C864 1.463 1_565 S
C861 C866 1.350 . S
C861 N869 1.427 . S
C862 H853 0.930 . S
C862 C860 1.378 . S
C862 C863 1.367 . S
C863 C862 1.367 . S
C863 C865 1.433 . S
C864 C860 1.350 . S
C864 C861 1.463 1_545 S
C864 N868 1.427 . S
C865 H855 0.929 . S
C865 C863 1.433 . S
C865 N868 1.384 . S
C866 H857 0.929 . S
C866 C858 1.378 . S
C866 C861 1.350 . S
C867 H854 0.929 . S
C867 C859 1.433 . S
C867 N869 1.384 . S
N868 C864 1.427 . S
N868 C865 1.384 . S
N869 C861 1.427 . S
N869 C867 1.384 . S
H870 C876 0.930 . S
H871 C880 0.930 . S
H872 C885 0.929 . S
H873 C883 0.929 . S
H874 C878 0.929 . S
H875 C884 0.929 . S
C876 H870 0.930 . S
C876 C877 1.367 . S
C876 C884 1.378 . S
C877 C876 1.367 . S
C877 C885 1.433 . S
C878 H874 0.929 . S
C878 C880 1.378 . S
C878 C882 1.350 . S
C879 C882 1.463 1_655 S
C879 C884 1.350 . S
C879 N887 1.427 . S
C880 H871 0.930 . S
C880 C878 1.378 . S
C880 C881 1.367 . S
C881 C880 1.367 . S
C881 C883 1.433 . S
C882 C878 1.350 . S
C882 C879 1.463 1_455 S
C882 N886 1.427 . S
C883 H873 0.929 . S
C883 C881 1.433 . S
C883 N886 1.384 . S
C884 H875 0.929 . S
C884 C876 1.378 . S
C884 C879 1.350 . S
C885 H872 0.929 . S
C885 C877 1.433 . S
C885 N887 1.384 . S
N886 C882 1.427 . S
N886 C883 1.384 . S
N887 C879 1.427 . S
N887 C885 1.384 . S
H888 C894 0.930 . S
H889 C898 0.930 . S
H890 C903 0.929 . S
H891 C901 0.929 . S
H892 C896 0.929 . S
H893 C902 0.929 . S
C894 H888 0.930 . S
C894 C895 1.367 . S
C894 C902 1.378 . S
C895 C894 1.367 . S
C895 C903 1.433 . S
C896 H892 0.929 . S
C896 C898 1.378 . S
C896 C900 1.350 . S
C897 C900 1.463 1_556 S
C897 C902 1.350 . S
C897 N905 1.427 . S
C898 H889 0.930 . S
C898 C896 1.378 . S
C898 C899 1.367 . S
C899 C898 1.367 . S
C899 C901 1.433 . S
C900 C896 1.350 . S
C900 C897 1.463 1_554 S
C900 N904 1.427 . S
C901 H891 0.929 . S
C901 C899 1.433 . S
C901 N904 1.384 . S
C902 H893 0.929 . S
C902 C894 1.378 . S
C902 C897 1.350 . S
C903 H890 0.929 . S
C903 C895 1.433 . S
C903 N905 1.384 . S
N904 C900 1.427 . S
N904 C901 1.384 . S
N905 C897 1.427 . S
N905 C903 1.384 . S
H906 C912 0.930 . S
H907 C916 0.930 . S
H908 C921 0.929 . S
H909 C919 0.929 . S
H910 C914 0.929 . S
H911 C920 0.929 . S
C912 H906 0.930 . S
C912 C913 1.367 . S
C912 C920 1.378 . S
C913 C912 1.367 . S
C913 C921 1.433 . S
C914 H910 0.929 . S
C914 C916 1.378 . S
C914 C918 1.350 . S
C915 C918 1.463 1_556 S
C915 C920 1.350 . S
C915 N923 1.427 . S
C916 H907 0.930 . S
C916 C914 1.378 . S
C916 C917 1.367 . S
C917 C916 1.367 . S
C917 C919 1.433 . S
C918 C914 1.350 . S
C918 C915 1.463 1_554 S
C918 N922 1.427 . S
C919 H909 0.929 . S
C919 C917 1.433 . S
C919 N922 1.384 . S
C920 H911 0.929 . S
C920 C912 1.378 . S
C920 C915 1.350 . S
C921 H908 0.929 . S
C921 C913 1.433 . S
C921 N923 1.384 . S
N922 C918 1.427 . S
N922 C919 1.384 . S
N923 C915 1.427 . S
N923 C921 1.384 . S
H924 C930 0.930 . S
H925 C934 0.930 . S
H926 C939 0.929 . S
H927 C937 0.929 . S
H928 C932 0.929 . S
H929 C938 0.929 . S
C930 H924 0.930 . S
C930 C931 1.367 . S
C930 C938 1.378 . S
C931 C930 1.367 . S
C931 C939 1.433 . S
C932 H928 0.929 . S
C932 C934 1.378 . S
C932 C936 1.350 . S
C933 C936 1.463 1_556 S
C933 C938 1.350 . S
C933 N941 1.427 . S
C934 H925 0.930 . S
C934 C932 1.378 . S
C934 C935 1.367 . S
C935 C934 1.367 . S
C935 C937 1.433 . S
C936 C932 1.350 . S
C936 C933 1.463 1_554 S
C936 N940 1.427 . S
C937 H927 0.929 . S
C937 C935 1.433 . S
C937 N940 1.384 . S
C938 H929 0.929 . S
C938 C930 1.378 . S
C938 C933 1.350 . S
C939 H926 0.929 . S
C939 C931 1.433 . S
C939 N941 1.384 . S
N940 C936 1.427 . S
N940 C937 1.384 . S
N941 C933 1.427 . S
N941 C939 1.384 . S
H942 C948 0.930 . S
H943 C952 0.930 . S
H944 C957 0.929 . S
H945 C955 0.929 . S
H946 C950 0.929 . S
H947 C956 0.929 . S
C948 H942 0.930 . S
C948 C949 1.367 . S
C948 C956 1.378 . S
C949 C948 1.367 . S
C949 C957 1.433 . S
C950 H946 0.929 . S
C950 C952 1.378 . S
C950 C954 1.350 . S
C951 C954 1.463 1_556 S
C951 C956 1.350 . S
C951 N959 1.427 . S
C952 H943 0.930 . S
C952 C950 1.378 . S
C952 C953 1.367 . S
C953 C952 1.367 . S
C953 C955 1.433 . S
C954 C950 1.350 . S
C954 C951 1.463 1_554 S
C954 N958 1.427 . S
C955 H945 0.929 . S
C955 C953 1.433 . S
C955 N958 1.384 . S
C956 H947 0.929 . S
C956 C948 1.378 . S
C956 C951 1.350 . S
C957 H944 0.929 . S
C957 C949 1.433 . S
C957 N959 1.384 . S
N958 C954 1.427 . S
N958 C955 1.384 . S
N959 C951 1.427 . S
N959 C957 1.384 . S
H960 C966 0.930 . S
H961 C970 0.930 . S
H962 C975 0.929 . S
H963 C973 0.929 . S
H964 C968 0.929 . S
H965 C974 0.929 . S
C966 H960 0.930 . S
C966 C967 1.367 . S
C966 C974 1.378 . S
C967 C966 1.367 . S
C967 C975 1.433 . S
C968 H964 0.929 . S
C968 C970 1.378 . S
C968 C972 1.350 . S
C969 C972 1.463 . S
C969 C974 1.350 . S
C969 N977 1.427 . S
C970 H961 0.930 . S
C970 C968 1.378 . S
C970 C971 1.367 . S
C971 C970 1.367 . S
C971 C973 1.433 . S
C972 C968 1.350 . S
C972 C969 1.463 . S
C972 N976 1.427 . S
C973 H963 0.929 . S
C973 C971 1.433 . S
C973 N976 1.384 . S
C974 H965 0.929 . S
C974 C966 1.378 . S
C974 C969 1.350 . S
C975 H962 0.929 . S
C975 C967 1.433 . S
C975 N977 1.384 . S
N976 C972 1.427 . S
N976 C973 1.384 . S
N977 C969 1.427 . S
N977 C975 1.384 . S
H978 C984 0.930 . S
H979 C988 0.930 . S
H980 C993 0.929 . S
H981 C991 0.929 . S
H982 C986 0.929 . S
H983 C992 0.929 . S
C984 H978 0.930 . S
C984 C985 1.367 . S
C984 C992 1.378 . S
C985 C984 1.367 . S
C985 C993 1.433 . S
C986 H982 0.929 . S
C986 C988 1.378 . S
C986 C990 1.350 . S
C987 C990 1.463 . S
C987 C992 1.350 . S
C987 N995 1.427 . S
C988 H979 0.930 . S
C988 C986 1.378 . S
C988 C989 1.367 . S
C989 C988 1.367 . S
C989 C991 1.433 . S
C990 C986 1.350 . S
C990 C987 1.463 . S
C990 N994 1.427 . S
C991 H981 0.929 . S
C991 C989 1.433 . S
C991 N994 1.384 . S
C992 H983 0.929 . S
C992 C984 1.378 . S
C992 C987 1.350 . S
C993 H980 0.929 . S
C993 C985 1.433 . S
C993 N995 1.384 . S
N994 C990 1.427 . S
N994 C991 1.384 . S
N995 C987 1.427 . S
N995 C993 1.384 . S
H996 C1002 0.930 . S
H997 C1006 0.930 . S
H998 C1011 0.929 . S
H999 C1009 0.929 . S
H1000 C1004 0.929 . S
H1001 C1010 0.929 . S
C1002 H996 0.930 . S
C1002 C1003 1.367 . S
C1002 C1010 1.378 . S
C1003 C1002 1.367 . S
C1003 C1011 1.433 . S
C1004 H1000 0.929 . S
C1004 C1006 1.378 . S
C1004 C1008 1.350 . S
C1005 C1008 1.463 . S
C1005 C1010 1.350 . S
C1005 N1013 1.427 . S
C1006 H997 0.930 . S
C1006 C1004 1.378 . S
C1006 C1007 1.367 . S
C1007 C1006 1.367 . S
C1007 C1009 1.433 . S
C1008 C1004 1.350 . S
C1008 C1005 1.463 . S
C1008 N1012 1.427 . S
C1009 H999 0.929 . S
C1009 C1007 1.433 . S
C1009 N1012 1.384 . S
C1010 H1001 0.929 . S
C1010 C1002 1.378 . S
C1010 C1005 1.350 . S
C1011 H998 0.929 . S
C1011 C1003 1.433 . S
C1011 N1013 1.384 . S
N1012 C1008 1.427 . S
N1012 C1009 1.384 . S
N1013 C1005 1.427 . S
N1013 C1011 1.384 . S
H1014 C1020 0.930 . S
H1015 C1024 0.930 . S
H1016 C1029 0.929 . S
H1017 C1027 0.929 . S
H1018 C1022 0.929 . S
H1019 C1028 0.929 . S
C1020 H1014 0.930 . S
C1020 C1021 1.367 . S
C1020 C1028 1.378 . S
C1021 C1020 1.367 . S
C1021 C1029 1.433 . S
C1022 H1018 0.929 . S
C1022 C1024 1.378 . S
C1022 C1026 1.350 . S
C1023 C1026 1.463 . S
C1023 C1028 1.350 . S
C1023 N1031 1.427 . S
C1024 H1015 0.930 . S
C1024 C1022 1.378 . S
C1024 C1025 1.367 . S
C1025 C1024 1.367 . S
C1025 C1027 1.433 . S
C1026 C1022 1.350 . S
C1026 C1023 1.463 . S
C1026 N1030 1.427 . S
C1027 H1017 0.929 . S
C1027 C1025 1.433 . S
C1027 N1030 1.384 . S
C1028 H1019 0.929 . S
C1028 C1020 1.378 . S
C1028 C1023 1.350 . S
C1029 H1016 0.929 . S
C1029 C1021 1.433 . S
C1029 N1031 1.384 . S
N1030 C1026 1.427 . S
N1030 C1027 1.384 . S
N1031 C1023 1.427 . S
N1031 C1029 1.384 . S
H1032 C1038 0.930 . S
H1033 C1042 0.930 . S
H1034 C1047 0.929 . S
H1035 C1045 0.929 . S
H1036 C1040 0.929 . S
H1037 C1046 0.929 . S
C1038 H1032 0.930 . S
C1038 C1039 1.367 . S
C1038 C1046 1.378 . S
C1039 C1038 1.367 . S
C1039 C1047 1.433 . S
C1040 H1036 0.929 . S
C1040 C1042 1.378 . S
C1040 C1044 1.350 . S
C1041 C1044 1.463 . S
C1041 C1046 1.350 . S
C1041 N1049 1.427 . S
C1042 H1033 0.930 . S
C1042 C1040 1.378 . S
C1042 C1043 1.367 . S
C1043 C1042 1.367 . S
C1043 C1045 1.433 . S
C1044 C1040 1.350 . S
C1044 C1041 1.463 . S
C1044 N1048 1.427 . S
C1045 H1035 0.929 . S
C1045 C1043 1.433 . S
C1045 N1048 1.384 . S
C1046 H1037 0.929 . S
C1046 C1038 1.378 . S
C1046 C1041 1.350 . S
C1047 H1034 0.929 . S
C1047 C1039 1.433 . S
C1047 N1049 1.384 . S
N1048 C1044 1.427 . S
N1048 C1045 1.384 . S
N1049 C1041 1.427 . S
N1049 C1047 1.384 . S
H1050 C1056 0.930 . S
H1051 C1060 0.930 . S
H1052 C1065 0.929 . S
H1053 C1063 0.929 . S
H1054 C1058 0.929 . S
H1055 C1064 0.929 . S
C1056 H1050 0.930 . S
C1056 C1057 1.367 . S
C1056 C1064 1.378 . S
C1057 C1056 1.367 . S
C1057 C1065 1.433 . S
C1058 H1054 0.929 . S
C1058 C1060 1.378 . S
C1058 C1062 1.350 . S
C1059 C1062 1.463 . S
C1059 C1064 1.350 . S
C1059 N1067 1.427 . S
C1060 H1051 0.930 . S
C1060 C1058 1.378 . S
C1060 C1061 1.367 . S
C1061 C1060 1.367 . S
C1061 C1063 1.433 . S
C1062 C1058 1.350 . S
C1062 C1059 1.463 . S
C1062 N1066 1.427 . S
C1063 H1053 0.929 . S
C1063 C1061 1.433 . S
C1063 N1066 1.384 . S
C1064 H1055 0.929 . S
C1064 C1056 1.378 . S
C1064 C1059 1.350 . S
C1065 H1052 0.929 . S
C1065 C1057 1.433 . S
C1065 N1067 1.384 . S
N1066 C1062 1.427 . S
N1066 C1063 1.384 . S
N1067 C1059 1.427 . S
N1067 C1065 1.384 . S
H1068 C1074 0.930 . S
H1069 C1078 0.930 . S
H1070 C1083 0.929 . S
H1071 C1081 0.929 . S
H1072 C1076 0.929 . S
H1073 C1082 0.929 . S
C1074 H1068 0.930 . S
C1074 C1075 1.367 . S
C1074 C1082 1.378 . S
C1075 C1074 1.367 . S
C1075 C1083 1.433 . S
C1076 H1072 0.929 . S
C1076 C1078 1.378 . S
C1076 C1080 1.350 . S
C1077 C1080 1.463 . S
C1077 C1082 1.350 . S
C1077 N1085 1.427 . S
C1078 H1069 0.930 . S
C1078 C1076 1.378 . S
C1078 C1079 1.367 . S
C1079 C1078 1.367 . S
C1079 C1081 1.433 . S
C1080 C1076 1.350 . S
C1080 C1077 1.463 . S
C1080 N1084 1.427 . S
C1081 H1071 0.929 . S
C1081 C1079 1.433 . S
C1081 N1084 1.384 . S
C1082 H1073 0.929 . S
C1082 C1074 1.378 . S
C1082 C1077 1.350 . S
C1083 H1070 0.929 . S
C1083 C1075 1.433 . S
C1083 N1085 1.384 . S
N1084 C1080 1.427 . S
N1084 C1081 1.384 . S
N1085 C1077 1.427 . S
N1085 C1083 1.384 . S
H1086 C1092 0.930 . S
H1087 C1096 0.930 . S
H1088 C1101 0.929 . S
H1089 C1099 0.929 . S
H1090 C1094 0.929 . S
H1091 C1100 0.929 . S
C1092 H1086 0.930 . S
C1092 C1093 1.367 . S
C1092 C1100 1.378 . S
C1093 C1092 1.367 . S
C1093 C1101 1.433 . S
C1094 H1090 0.929 . S
C1094 C1096 1.378 . S
C1094 C1098 1.350 . S
C1095 C1098 1.463 . S
C1095 C1100 1.350 . S
C1095 N1103 1.427 . S
C1096 H1087 0.930 . S
C1096 C1094 1.378 . S
C1096 C1097 1.367 . S
C1097 C1096 1.367 . S
C1097 C1099 1.433 . S
C1098 C1094 1.350 . S
C1098 C1095 1.463 . S
C1098 N1102 1.427 . S
C1099 H1089 0.929 . S
C1099 C1097 1.433 . S
C1099 N1102 1.384 . S
C1100 H1091 0.929 . S
C1100 C1092 1.378 . S
C1100 C1095 1.350 . S
C1101 H1088 0.929 . S
C1101 C1093 1.433 . S
C1101 N1103 1.384 . S
N1102 C1098 1.427 . S
N1102 C1099 1.384 . S
N1103 C1095 1.427 . S
N1103 C1101 1.384 . S
H1104 C1110 0.930 . S
H1105 C1114 0.930 . S
H1106 C1119 0.929 . S
H1107 C1117 0.929 . S
H1108 C1112 0.929 . S
H1109 C1118 0.929 . S
C1110 H1104 0.930 . S
C1110 C1111 1.367 . S
C1110 C1118 1.378 . S
C1111 C1110 1.367 . S
C1111 C1119 1.433 . S
C1112 H1108 0.929 . S
C1112 C1114 1.378 . S
C1112 C1116 1.350 . S
C1113 C1116 1.463 . S
C1113 C1118 1.350 . S
C1113 N1121 1.427 . S
C1114 H1105 0.930 . S
C1114 C1112 1.378 . S
C1114 C1115 1.367 . S
C1115 C1114 1.367 . S
C1115 C1117 1.433 . S
C1116 C1112 1.350 . S
C1116 C1113 1.463 . S
C1116 N1120 1.427 . S
C1117 H1107 0.929 . S
C1117 C1115 1.433 . S
C1117 N1120 1.384 . S
C1118 H1109 0.929 . S
C1118 C1110 1.378 . S
C1118 C1113 1.350 . S
C1119 H1106 0.929 . S
C1119 C1111 1.433 . S
C1119 N1121 1.384 . S
N1120 C1116 1.427 . S
N1120 C1117 1.384 . S
N1121 C1113 1.427 . S
N1121 C1119 1.384 . S
H1122 C1128 0.930 . S
H1123 C1132 0.930 . S
H1124 C1137 0.929 . S
H1125 C1135 0.929 . S
H1126 C1130 0.929 . S
H1127 C1136 0.929 . S
C1128 H1122 0.930 . S
C1128 C1129 1.367 . S
C1128 C1136 1.378 . S
C1129 C1128 1.367 . S
C1129 C1137 1.433 . S
C1130 H1126 0.929 . S
C1130 C1132 1.378 . S
C1130 C1134 1.350 . S
C1131 C1134 1.463 . S
C1131 C1136 1.350 . S
C1131 N1139 1.427 . S
C1132 H1123 0.930 . S
C1132 C1130 1.378 . S
C1132 C1133 1.367 . S
C1133 C1132 1.367 . S
C1133 C1135 1.433 . S
C1134 C1130 1.350 . S
C1134 C1131 1.463 . S
C1134 N1138 1.427 . S
C1135 H1125 0.929 . S
C1135 C1133 1.433 . S
C1135 N1138 1.384 . S
C1136 H1127 0.929 . S
C1136 C1128 1.378 . S
C1136 C1131 1.350 . S
C1137 H1124 0.929 . S
C1137 C1129 1.433 . S
C1137 N1139 1.384 . S
N1138 C1134 1.427 . S
N1138 C1135 1.384 . S
N1139 C1131 1.427 . S
N1139 C1137 1.384 . S
H1140 C1146 0.930 . S
H1141 C1150 0.930 . S
H1142 C1155 0.929 . S
H1143 C1153 0.929 . S
H1144 C1148 0.929 . S
H1145 C1154 0.929 . S
C1146 H1140 0.930 . S
C1146 C1147 1.367 . S
C1146 C1154 1.378 . S
C1147 C1146 1.367 . S
C1147 C1155 1.433 . S
C1148 H1144 0.929 . S
C1148 C1150 1.378 . S
C1148 C1152 1.350 . S
C1149 C1152 1.463 . S
C1149 C1154 1.350 . S
C1149 N1157 1.427 . S
C1150 H1141 0.930 . S
C1150 C1148 1.378 . S
C1150 C1151 1.367 . S
C1151 C1150 1.367 . S
C1151 C1153 1.433 . S
C1152 C1148 1.350 . S
C1152 C1149 1.463 . S
C1152 N1156 1.427 . S
C1153 H1143 0.929 . S
C1153 C1151 1.433 . S
C1153 N1156 1.384 . S
C1154 H1145 0.929 . S
C1154 C1146 1.378 . S
C1154 C1149 1.350 . S
C1155 H1142 0.929 . S
C1155 C1147 1.433 . S
C1155 N1157 1.384 . S
N1156 C1152 1.427 . S
N1156 C1153 1.384 . S
N1157 C1149 1.427 . S
N1157 C1155 1.384 . S
H1158 C1164 0.930 . S
H1159 C1168 0.930 . S
H1160 C1173 0.929 . S
H1161 C1171 0.929 . S
H1162 C1166 0.929 . S
H1163 C1172 0.929 . S
C1164 H1158 0.930 . S
C1164 C1165 1.367 . S
C1164 C1172 1.378 . S
C1165 C1164 1.367 . S
C1165 C1173 1.433 . S
C1166 H1162 0.929 . S
C1166 C1168 1.378 . S
C1166 C1170 1.350 . S
C1167 C1170 1.463 . S
C1167 C1172 1.350 . S
C1167 N1175 1.427 . S
C1168 H1159 0.930 . S
C1168 C1166 1.378 . S
C1168 C1169 1.367 . S
C1169 C1168 1.367 . S
C1169 C1171 1.433 . S
C1170 C1166 1.350 . S
C1170 C1167 1.463 . S
C1170 N1174 1.427 . S
C1171 H1161 0.929 . S
C1171 C1169 1.433 . S
C1171 N1174 1.384 . S
C1172 H1163 0.929 . S
C1172 C1164 1.378 . S
C1172 C1167 1.350 . S
C1173 H1160 0.929 . S
C1173 C1165 1.433 . S
C1173 N1175 1.384 . S
N1174 C1170 1.427 . S
N1174 C1171 1.384 . S
N1175 C1167 1.427 . S
N1175 C1173 1.384 . S
C319 C153 1.503 . S
C323 C3 1.521 . S
C337 C16 1.515 . S
C341 C108 1.510 . S
C355 C31 1.521 . S
C359 C121 1.504 . S
C373 C42 1.512 . S
C377 C134 1.512 . S
C391 C173 1.500 . S
C395 C55 1.521 . S
C409 C68 1.516 . S
C413 C186 1.510 . S
C427 C199 1.500 . S
C431 C81 1.520 . S
C445 C160 1.511 . S
C449 C96 1.511 . S
C463 C75 1.508 . S
C467 C109 1.518 . S
C481 C88 1.510 . S
C485 C122 1.511 . S
C499 C135 1.516 . S
C503 C95 1.510 . S
C517 C62 1.500 . S
C521 C146 1.520 . S
C535 C49 1.509 . S
C539 C161 1.517 . S
C553 C174 1.513 . S
C557 C10 1.507 . S
C571 C187 1.518 . S
C575 C23 1.501 . S
C589 C200 1.522 . S
C593 C30 1.501 . S
C607 C213 1.517 . S
C611 C309 1.502 . S
C625 C264 1.508 . S
C629 C224 1.518 . S
C643 C239 1.522 . S
C647 C231 1.502 . S
C661 C250 1.520 . S
C665 C238 1.500 . S
C679 C257 1.504 . S
C683 C265 1.515 . S
C697 C278 1.521 . S
C701 C290 1.504 . S
C715 C212 1.500 . S
C719 C291 1.520 . S
C733 C277 1.501 . S
C737 C302 1.522 . S
C751 C5 1.632 . S
C755 C83 1.631 . S
C769 C18 1.625 . S
C773 C94 1.628 . S
C787 C29 1.632 . S
C791 C57 1.630 . S
C805 C70 1.626 . S
C809 C44 1.626 . S
C823 C133 1.629 . S
C827 C107 1.632 . S
C841 C120 1.629 . S
C845 C148 1.626 . S
C859 C159 1.630 . S
C863 C185 1.632 . S
C877 C198 1.632 . S
C881 C172 1.631 . S
C895 C226 1.625 . S
C899 C211 1.627 . S
C913 C237 1.631 . S
C917 C304 1.628 . S
C931 C252 1.632 . S
C935 C276 1.631 . S
C949 C263 1.629 . S
C953 C289 1.632 . S
C967 C4 1.000 . S
C971 C69 1.001 . S
C985 C17 1.002 . S
C989 C82 1.000 . S
C1003 C36 0.999 . S
C1007 C101 1.003 . S
C1021 C56 1.002 . S
C1025 C43 1.000 . S
C1039 C114 1.003 . S
C1043 C303 1.000 . S
C1057 C127 1.002 . S
C1061 C283 0.999 . S
C1075 C296 1.000 . S
C1079 C140 1.002 . S
C1093 C147 1.003 . S
C1097 C218 0.999 . S
C1111 C270 1.001 . S
C1115 C166 1.001 . S
C1129 C225 1.002 . S
C1133 C179 1.001 . S
C1147 C192 1.003 . S
C1151 C244 1.000 . S
C1165 C251 1.003 . S
C1169 C205 0.999 . S
