# Generated by pormake.
# Topology wio, (6)-cn, num edge types: 1
# Building blocks:
#     Node 0, Type 0, BuildingBlock: BETDAH_clean_sbu_0, # of connection points: 6
#     Node 1, Type 0, BuildingBlock: BETDAH_clean_sbu_0, # of connection points: 6
#     Node 2, Type 0, BuildingBlock: BETDAH_clean_sbu_0, # of connection points: 6
#     Node 3, Type 0, BuildingBlock: BETDAH_clean_sbu_0, # of connection points: 6
#     Node 4, Type 0, BuildingBlock: BETDAH_clean_sbu_0, # of connection points: 6
#     Node 5, Type 0, BuildingBlock: BETDAH_clean_sbu_0, # of connection points: 6
#     Node 6, Type 0, BuildingBlock: BETDAH_clean_sbu_0, # of connection points: 6
#     Node 7, Type 0, BuildingBlock: BETDAH_clean_sbu_0, # of connection points: 6
#     Node 8, Type 0, BuildingBlock: BETDAH_clean_sbu_0, # of connection points: 6
#     Node 9, Type 0, BuildingBlock: BETDAH_clean_sbu_0, # of connection points: 6
#     Node 10, Type 0, BuildingBlock: BETDAH_clean_sbu_0, # of connection points: 6
#     Node 11, Type 0, BuildingBlock: BETDAH_clean_sbu_0, # of connection points: 6
#     Node 12, Type 0, BuildingBlock: BETDAH_clean_sbu_0, # of connection points: 6
#     Node 13, Type 0, BuildingBlock: BETDAH_clean_sbu_0, # of connection points: 6
#     Node 14, Type 0, BuildingBlock: BETDAH_clean_sbu_0, # of connection points: 6
#     Node 15, Type 0, BuildingBlock: BETDAH_clean_sbu_0, # of connection points: 6
#     Node 16, Type 0, BuildingBlock: BETDAH_clean_sbu_0, # of connection points: 6
#     Node 17, Type 0, BuildingBlock: BETDAH_clean_sbu_0, # of connection points: 6
#     Node 18, Type 0, BuildingBlock: BETDAH_clean_sbu_0, # of connection points: 6
#     Node 19, Type 0, BuildingBlock: BETDAH_clean_sbu_0, # of connection points: 6
#     Node 20, Type 0, BuildingBlock: BETDAH_clean_sbu_0, # of connection points: 6
#     Node 21, Type 0, BuildingBlock: BETDAH_clean_sbu_0, # of connection points: 6
#     Node 22, Type 0, BuildingBlock: BETDAH_clean_sbu_0, # of connection points: 6
#     Node 23, Type 0, BuildingBlock: BETDAH_clean_sbu_0, # of connection points: 6
#     Node 24, Type 0, BuildingBlock: BETDAH_clean_sbu_0, # of connection points: 6
#     Node 25, Type 0, BuildingBlock: BETDAH_clean_sbu_0, # of connection points: 6
#     Node 26, Type 0, BuildingBlock: BETDAH_clean_sbu_0, # of connection points: 6
#     Node 27, Type 0, BuildingBlock: BETDAH_clean_sbu_0, # of connection points: 6
#     Node 28, Type 0, BuildingBlock: BETDAH_clean_sbu_0, # of connection points: 6
#     Node 29, Type 0, BuildingBlock: BETDAH_clean_sbu_0, # of connection points: 6
#     Node 30, Type 0, BuildingBlock: BETDAH_clean_sbu_0, # of connection points: 6
#     Node 31, Type 0, BuildingBlock: BETDAH_clean_sbu_0, # of connection points: 6
#     Edge 32, Type (0, 0), BuildingBlock: KIFKEQ_clean_linker_1, # of connection points: 2
#     Edge 33, Type (0, 0), BuildingBlock: KIFKEQ_clean_linker_1, # of connection points: 2
#     Edge 34, Type (0, 0), BuildingBlock: KIFKEQ_clean_linker_1, # of connection points: 2
#     Edge 35, Type (0, 0), BuildingBlock: KIFKEQ_clean_linker_1, # of connection points: 2
#     Edge 36, Type (0, 0), BuildingBlock: KIFKEQ_clean_linker_1, # of connection points: 2
#     Edge 37, Type (0, 0), BuildingBlock: KIFKEQ_clean_linker_1, # of connection points: 2
#     Edge 38, Type (0, 0), BuildingBlock: KIFKEQ_clean_linker_1, # of connection points: 2
#     Edge 39, Type (0, 0), BuildingBlock: KIFKEQ_clean_linker_1, # of connection points: 2
#     Edge 40, Type (0, 0), BuildingBlock: KIFKEQ_clean_linker_1, # of connection points: 2
#     Edge 41, Type (0, 0), BuildingBlock: KIFKEQ_clean_linker_1, # of connection points: 2
#     Edge 42, Type (0, 0), BuildingBlock: KIFKEQ_clean_linker_1, # of connection points: 2
#     Edge 43, Type (0, 0), BuildingBlock: KIFKEQ_clean_linker_1, # of connection points: 2
#     Edge 44, Type (0, 0), BuildingBlock: KIFKEQ_clean_linker_1, # of connection points: 2
#     Edge 45, Type (0, 0), BuildingBlock: KIFKEQ_clean_linker_1, # of connection points: 2
#     Edge 46, Type (0, 0), BuildingBlock: KIFKEQ_clean_linker_1, # of connection points: 2
#     Edge 47, Type (0, 0), BuildingBlock: KIFKEQ_clean_linker_1, # of connection points: 2
#     Edge 48, Type (0, 0), BuildingBlock: KIFKEQ_clean_linker_1, # of connection points: 2
#     Edge 49, Type (0, 0), BuildingBlock: KIFKEQ_clean_linker_1, # of connection points: 2
#     Edge 50, Type (0, 0), BuildingBlock: KIFKEQ_clean_linker_1, # of connection points: 2
#     Edge 51, Type (0, 0), BuildingBlock: KIFKEQ_clean_linker_1, # of connection points: 2
#     Edge 52, Type (0, 0), BuildingBlock: KIFKEQ_clean_linker_1, # of connection points: 2
#     Edge 53, Type (0, 0), BuildingBlock: KIFKEQ_clean_linker_1, # of connection points: 2
#     Edge 54, Type (0, 0), BuildingBlock: KIFKEQ_clean_linker_1, # of connection points: 2
#     Edge 55, Type (0, 0), BuildingBlock: KIFKEQ_clean_linker_1, # of connection points: 2
#     Edge 56, Type (0, 0), BuildingBlock: KIFKEQ_clean_linker_1, # of connection points: 2
#     Edge 57, Type (0, 0), BuildingBlock: KIFKEQ_clean_linker_1, # of connection points: 2
#     Edge 58, Type (0, 0), BuildingBlock: KIFKEQ_clean_linker_1, # of connection points: 2
#     Edge 59, Type (0, 0), BuildingBlock: KIFKEQ_clean_linker_1, # of connection points: 2
#     Edge 60, Type (0, 0), BuildingBlock: KIFKEQ_clean_linker_1, # of connection points: 2
#     Edge 61, Type (0, 0), BuildingBlock: KIFKEQ_clean_linker_1, # of connection points: 2
#     Edge 62, Type (0, 0), BuildingBlock: KIFKEQ_clean_linker_1, # of connection points: 2
#     Edge 63, Type (0, 0), BuildingBlock: KIFKEQ_clean_linker_1, # of connection points: 2
#     Edge 64, Type (0, 0), BuildingBlock: KIFKEQ_clean_linker_1, # of connection points: 2
#     Edge 65, Type (0, 0), BuildingBlock: KIFKEQ_clean_linker_1, # of connection points: 2
#     Edge 66, Type (0, 0), BuildingBlock: KIFKEQ_clean_linker_1, # of connection points: 2
#     Edge 67, Type (0, 0), BuildingBlock: KIFKEQ_clean_linker_1, # of connection points: 2
#     Edge 68, Type (0, 0), BuildingBlock: KIFKEQ_clean_linker_1, # of connection points: 2
#     Edge 69, Type (0, 0), BuildingBlock: KIFKEQ_clean_linker_1, # of connection points: 2
#     Edge 70, Type (0, 0), BuildingBlock: KIFKEQ_clean_linker_1, # of connection points: 2
#     Edge 71, Type (0, 0), BuildingBlock: KIFKEQ_clean_linker_1, # of connection points: 2
#     Edge 72, Type (0, 0), BuildingBlock: KIFKEQ_clean_linker_1, # of connection points: 2
#     Edge 73, Type (0, 0), BuildingBlock: KIFKEQ_clean_linker_1, # of connection points: 2
#     Edge 74, Type (0, 0), BuildingBlock: KIFKEQ_clean_linker_1, # of connection points: 2
#     Edge 75, Type (0, 0), BuildingBlock: KIFKEQ_clean_linker_1, # of connection points: 2
#     Edge 76, Type (0, 0), BuildingBlock: KIFKEQ_clean_linker_1, # of connection points: 2
#     Edge 77, Type (0, 0), BuildingBlock: KIFKEQ_clean_linker_1, # of connection points: 2
#     Edge 78, Type (0, 0), BuildingBlock: KIFKEQ_clean_linker_1, # of connection points: 2
#     Edge 79, Type (0, 0), BuildingBlock: KIFKEQ_clean_linker_1, # of connection points: 2
#     Edge 80, Type (0, 0), BuildingBlock: KIFKEQ_clean_linker_1, # of connection points: 2
#     Edge 81, Type (0, 0), BuildingBlock: KIFKEQ_clean_linker_1, # of connection points: 2
#     Edge 82, Type (0, 0), BuildingBlock: KIFKEQ_clean_linker_1, # of connection points: 2
#     Edge 83, Type (0, 0), BuildingBlock: KIFKEQ_clean_linker_1, # of connection points: 2
#     Edge 84, Type (0, 0), BuildingBlock: KIFKEQ_clean_linker_1, # of connection points: 2
#     Edge 85, Type (0, 0), BuildingBlock: KIFKEQ_clean_linker_1, # of connection points: 2
#     Edge 86, Type (0, 0), BuildingBlock: KIFKEQ_clean_linker_1, # of connection points: 2
#     Edge 87, Type (0, 0), BuildingBlock: KIFKEQ_clean_linker_1, # of connection points: 2
#     Edge 88, Type (0, 0), BuildingBlock: KIFKEQ_clean_linker_1, # of connection points: 2
#     Edge 89, Type (0, 0), BuildingBlock: KIFKEQ_clean_linker_1, # of connection points: 2
#     Edge 90, Type (0, 0), BuildingBlock: KIFKEQ_clean_linker_1, # of connection points: 2
#     Edge 91, Type (0, 0), BuildingBlock: KIFKEQ_clean_linker_1, # of connection points: 2
#     Edge 92, Type (0, 0), BuildingBlock: KIFKEQ_clean_linker_1, # of connection points: 2
#     Edge 93, Type (0, 0), BuildingBlock: KIFKEQ_clean_linker_1, # of connection points: 2
#     Edge 94, Type (0, 0), BuildingBlock: KIFKEQ_clean_linker_1, # of connection points: 2
#     Edge 95, Type (0, 0), BuildingBlock: KIFKEQ_clean_linker_1, # of connection points: 2
#     Edge 96, Type (0, 0), BuildingBlock: KIFKEQ_clean_linker_1, # of connection points: 2
#     Edge 97, Type (0, 0), BuildingBlock: KIFKEQ_clean_linker_1, # of connection points: 2
#     Edge 98, Type (0, 0), BuildingBlock: KIFKEQ_clean_linker_1, # of connection points: 2
#     Edge 99, Type (0, 0), BuildingBlock: KIFKEQ_clean_linker_1, # of connection points: 2
#     Edge 100, Type (0, 0), BuildingBlock: KIFKEQ_clean_linker_1, # of connection points: 2
#     Edge 101, Type (0, 0), BuildingBlock: KIFKEQ_clean_linker_1, # of connection points: 2
#     Edge 102, Type (0, 0), BuildingBlock: KIFKEQ_clean_linker_1, # of connection points: 2
#     Edge 103, Type (0, 0), BuildingBlock: KIFKEQ_clean_linker_1, # of connection points: 2
#     Edge 104, Type (0, 0), BuildingBlock: KIFKEQ_clean_linker_1, # of connection points: 2
#     Edge 105, Type (0, 0), BuildingBlock: KIFKEQ_clean_linker_1, # of connection points: 2
#     Edge 106, Type (0, 0), BuildingBlock: KIFKEQ_clean_linker_1, # of connection points: 2
#     Edge 107, Type (0, 0), BuildingBlock: KIFKEQ_clean_linker_1, # of connection points: 2
#     Edge 108, Type (0, 0), BuildingBlock: KIFKEQ_clean_linker_1, # of connection points: 2
#     Edge 109, Type (0, 0), BuildingBlock: KIFKEQ_clean_linker_1, # of connection points: 2
#     Edge 110, Type (0, 0), BuildingBlock: KIFKEQ_clean_linker_1, # of connection points: 2
#     Edge 111, Type (0, 0), BuildingBlock: KIFKEQ_clean_linker_1, # of connection points: 2
#     Edge 112, Type (0, 0), BuildingBlock: KIFKEQ_clean_linker_1, # of connection points: 2
#     Edge 113, Type (0, 0), BuildingBlock: KIFKEQ_clean_linker_1, # of connection points: 2
#     Edge 114, Type (0, 0), BuildingBlock: KIFKEQ_clean_linker_1, # of connection points: 2
#     Edge 115, Type (0, 0), BuildingBlock: KIFKEQ_clean_linker_1, # of connection points: 2
#     Edge 116, Type (0, 0), BuildingBlock: KIFKEQ_clean_linker_1, # of connection points: 2
#     Edge 117, Type (0, 0), BuildingBlock: KIFKEQ_clean_linker_1, # of connection points: 2
#     Edge 118, Type (0, 0), BuildingBlock: KIFKEQ_clean_linker_1, # of connection points: 2
#     Edge 119, Type (0, 0), BuildingBlock: KIFKEQ_clean_linker_1, # of connection points: 2
#     Edge 120, Type (0, 0), BuildingBlock: KIFKEQ_clean_linker_1, # of connection points: 2
#     Edge 121, Type (0, 0), BuildingBlock: KIFKEQ_clean_linker_1, # of connection points: 2
#     Edge 122, Type (0, 0), BuildingBlock: KIFKEQ_clean_linker_1, # of connection points: 2
#     Edge 123, Type (0, 0), BuildingBlock: KIFKEQ_clean_linker_1, # of connection points: 2
#     Edge 124, Type (0, 0), BuildingBlock: KIFKEQ_clean_linker_1, # of connection points: 2
#     Edge 125, Type (0, 0), BuildingBlock: KIFKEQ_clean_linker_1, # of connection points: 2
#     Edge 126, Type (0, 0), BuildingBlock: KIFKEQ_clean_linker_1, # of connection points: 2
#     Edge 127, Type (0, 0), BuildingBlock: KIFKEQ_clean_linker_1, # of connection points: 2
# Relax obj value: 0.196
# Max RMSD: 0.235
# Mean RMSD: 0.235
data_MOF--net-wio--node1-BETDAH_clean_sbu_0--edge1-KIFKEQ_clean_linker_1
_symmetry_space_group_name_H-M    P1
_symmetry_Int_Tables_number       1
_symmetry_cell_setting            triclinic
loop_
_symmetry_equiv_pos_as_xyz
'x, y, z'
_cell_length_a     62.267294
_cell_length_b     62.286669
_cell_length_c     55.351176
_cell_angle_alpha  90.070785
_cell_angle_beta   89.944377
_cell_angle_gamma 90.011825
loop_
_atom_site_label
_atom_site_type_symbol
_atom_site_fract_x
_atom_site_fract_y
_atom_site_fract_z
_atom_type_partial_charge
Ho0 Ho 0.1533 0.11619 0.28814 0.0
Ho1 Ho 0.10582 0.12716 0.29672 0.0
C2 C 0.1247 0.13511 0.24333 0.0
C3 C 0.19021 0.10188 0.27341 0.0
C4 C 0.20718 0.10634 0.25551 0.0
C5 C 0.22778 0.09805 0.2595 0.0
C6 C 0.24424 0.10155 0.24278 0.0
C7 C 0.24044 0.11337 0.22155 0.0
C8 C 0.21978 0.12201 0.2178 0.0
C9 C 0.2033 0.11855 0.23468 0.0
C10 C 0.1464 0.15439 0.30994 0.0
C11 C 0.13319 0.10164 0.33871 0.0
C12 C 0.07079 0.1438 0.31424 0.0
C13 C 0.05476 0.14131 0.33384 0.0
C14 C 0.05948 0.13073 0.35562 0.0
C15 C 0.04393 0.12932 0.37402 0.0
C16 C 0.02335 0.1384 0.37095 0.0
C17 C 0.01891 0.14909 0.34911 0.0
C18 C 0.03439 0.15048 0.33083 0.0
C19 C 0.11299 0.08704 0.27899 0.0
O20 O 0.1423 0.12532 0.25087 0.0
O21 O 0.10889 0.14014 0.25847 0.0
O22 O 0.18798 0.11592 0.29077 0.0
O23 O 0.17178 0.09483 0.26526 0.0
O24 O 0.16285 0.14219 0.31369 0.0
O25 O 0.1351 0.1467 0.29293 0.0
O26 O 0.11598 0.11334 0.33331 0.0
O27 O 0.14852 0.09811 0.32261 0.0
O28 O 0.07098 0.12926 0.29719 0.0
O29 O 0.09011 0.14987 0.32048 0.0
O30 O 0.09578 0.09819 0.27466 0.0
O31 O 0.12425 0.09718 0.29397 0.0
H32 H 0.23114 0.08875 0.2756 0.0
H33 H 0.25999 0.09502 0.24658 0.0
H34 H 0.21619 0.13104 0.2016 0.0
H35 H 0.18754 0.12526 0.23139 0.0
H36 H 0.07514 0.12359 0.3584 0.0
H37 H 0.0479 0.12079 0.39045 0.0
H38 H 1.00346 0.15661 0.34616 0.0
H39 H 0.03046 0.15891 0.3143 0.0
Ho40 Ho 0.14481 0.90102 0.5341 0.0
Ho41 Ho 0.13512 0.85357 0.54527 0.0
C42 C 0.12476 0.87057 0.49149 0.0
C43 C 0.15872 0.93716 0.51703 0.0
C44 C 0.15378 0.95362 0.49869 0.0
C45 C 0.17083 0.96413 0.48717 0.0
C46 C 0.16693 0.98117 0.47137 0.0
C47 C 0.14583 0.98817 0.46678 0.0
C48 C 0.12868 0.97715 0.4778 0.0
C49 C 0.13261 0.96003 0.49364 0.0
C50 C 0.10748 0.89415 0.55752 0.0
C51 C 0.16084 0.88296 0.5852 0.0
C52 C 0.11937 0.81874 0.56424 0.0
C53 C 0.12154 0.80455 0.58551 0.0
C54 C 0.10782 0.7868 0.58769 0.0
C55 C 0.10962 0.77274 0.60731 0.0
C56 C 0.12521 0.77609 0.62535 0.0
C57 C 0.13881 0.79414 0.62321 0.0
C58 C 0.13699 0.80821 0.60349 0.0
C59 C 0.17459 0.86102 0.52592 0.0
O60 O 0.13324 0.8892 0.4979 0.0
O61 O 0.12207 0.85458 0.50707 0.0
O62 O 0.14552 0.93562 0.53535 0.0
O63 O 0.16542 0.91845 0.50926 0.0
O64 O 0.11931 0.91109 0.56006 0.0
O65 O 0.11498 0.88236 0.54082 0.0
O66 O 0.14918 0.86543 0.58107 0.0
O67 O 0.16377 0.89764 0.56823 0.0
O68 O 0.13528 0.81891 0.54882 0.0
O69 O 0.11153 0.83791 0.56805 0.0
O70 O 0.16368 0.84346 0.52259 0.0
O71 O 0.1645 0.87258 0.54067 0.0
H72 H 0.18727 0.95942 0.49077 0.0
H73 H 0.18052 0.98892 0.46281 0.0
H74 H 0.11224 0.98213 0.47475 0.0
H75 H 0.11916 0.95213 0.50231 0.0
H76 H 0.09579 0.78365 0.57399 0.0
H77 H 0.0991 0.75891 0.60797 0.0
H78 H 0.15085 0.79746 0.63681 0.0
H79 H 0.1477 0.82186 0.60219 0.0
Ho80 Ho 0.35971 0.8947 0.78473 0.0
Ho81 Ho 0.40701 0.88488 0.79658 0.0
C82 C 0.39061 0.87422 0.74271 0.0
C83 C 0.32397 0.90857 0.76667 0.0
C84 C 0.30842 0.90371 0.74726 0.0
C85 C 0.30073 0.92057 0.73293 0.0
C86 C 0.28486 0.9169 0.71557 0.0
C87 C 0.27622 0.89624 0.71219 0.0
C88 C 0.28415 0.87925 0.72636 0.0
C89 C 0.30015 0.88293 0.74368 0.0
C90 C 0.36613 0.8574 0.80827 0.0
C91 C 0.37703 0.91031 0.83627 0.0
C92 C 0.44141 0.86974 0.81697 0.0
C93 C 0.45525 0.87286 0.8386 0.0
C94 C 0.4577 0.85598 0.85522 0.0
C95 C 0.472 0.85778 0.87468 0.0
C96 C 0.48434 0.8765 0.87801 0.0
C97 C 0.48158 0.89353 0.86152 0.0
C98 C 0.46724 0.89174 0.8421 0.0
C99 C 0.39988 0.92448 0.77743 0.0
O100 O 0.37203 0.883 0.74877 0.0
O101 O 0.40636 0.87141 0.75856 0.0
O102 O 0.32507 0.89505 0.78469 0.0
O103 O 0.34282 0.91584 0.76008 0.0
O104 O 0.34917 0.86927 0.81045 0.0
O105 O 0.3782 0.86484 0.79178 0.0
O106 O 0.39461 0.89873 0.83219 0.0
O107 O 0.36249 0.91338 0.81918 0.0
O108 O 0.44164 0.88457 0.80025 0.0
O109 O 0.42218 0.86193 0.82058 0.0
O110 O 0.41746 0.91356 0.77434 0.0
O111 O 0.38811 0.91434 0.79191 0.0
H112 H 0.30674 0.93675 0.73548 0.0
H113 H 0.27895 0.93041 0.70522 0.0
H114 H 0.27801 0.86311 0.72402 0.0
H115 H 0.30583 0.86958 0.75446 0.0
H116 H 0.44877 0.84119 0.85293 0.0
H117 H 0.4734 0.84444 0.8871 0.0
H118 H 0.49097 0.90808 0.86318 0.0
H119 H 0.4659 0.90501 0.82957 0.0
Ho120 Ho 0.36537 0.1091 0.03514 0.0
Ho121 Ho 0.37539 0.15628 0.0468 0.0
C122 C 0.3859 0.13962 0.9929 0.0
C123 C 0.35125 0.07325 1.01754 0.0
C124 C 0.35595 0.05708 0.99872 0.0
C125 C 0.3389 0.04876 0.98512 0.0
C126 C 0.34234 0.03203 0.96873 0.0
C127 C 0.36295 0.02313 0.96565 0.0
C128 C 0.38017 0.03195 0.97881 0.0
C129 C 0.37671 0.04878 0.9952 0.0
C130 C 0.40274 0.11557 0.05867 0.0
C131 C 0.34916 0.12681 0.08635 0.0
C132 C 0.39092 0.19055 0.06711 0.0
C133 C 0.38783 0.20446 0.0887 0.0
C134 C 0.40448 0.20646 0.1057 0.0
C135 C 0.40271 0.22077 0.12518 0.0
C136 C 0.38425 0.23356 0.12813 0.0
C137 C 0.36745 0.23128 0.11125 0.0
C138 C 0.36921 0.21693 0.09181 0.0
C139 C 0.33593 0.14938 0.0273 0.0
O140 O 0.37709 0.12108 0.99905 0.0
O141 O 0.38879 0.15542 1.00872 0.0
O142 O 0.36456 0.07448 0.03575 0.0
O143 O 0.34448 0.09207 1.01028 0.0
O144 O 0.39071 0.09876 0.06118 0.0
O145 O 0.39535 0.12744 0.04203 0.0
O146 O 0.36102 0.14424 0.08242 0.0
O147 O 0.34619 0.1123 0.06918 0.0
O148 O 0.37615 0.1909 0.05032 0.0
O149 O 0.39849 0.17125 0.07081 0.0
O150 O 0.34696 0.16691 1.0243 0.0
O151 O 0.34584 0.13761 0.04194 0.0
H152 H 0.32277 0.05494 0.98751 0.0
H153 H 0.32879 0.02599 0.95853 0.0
H154 H 0.39622 0.02545 0.97698 0.0
H155 H 0.39017 0.05493 1.00548 0.0
H156 H 0.41908 0.19716 0.10371 0.0
H157 H 0.41586 0.22182 0.13791 0.0
H158 H 0.35312 0.24105 0.1126 0.0
H159 H 0.35612 0.21596 0.07898 0.0
Ho160 Ho 0.15204 0.89496 0.26731 0.0
Ho161 Ho 0.10455 0.88587 0.25626 0.0
C162 C 0.12145 0.87494 0.30985 0.0
C163 C 0.18842 0.90791 0.28474 0.0
C164 C 0.20387 0.90309 0.30429 0.0
C165 C 0.21108 0.91992 0.31906 0.0
C166 C 0.22686 0.91634 0.33654 0.0
C167 C 0.23591 0.89582 0.33962 0.0
C168 C 0.22848 0.87887 0.32499 0.0
C169 C 0.21257 0.88245 0.30754 0.0
C170 C 0.14471 0.8582 0.24296 0.0
C171 C 0.13407 0.91168 0.21651 0.0
C172 C 0.06938 0.87063 0.23754 0.0
C173 C 0.05545 0.8722 0.21599 0.0
C174 C 0.05876 0.88776 0.19806 0.0
C175 C 0.04473 0.88916 0.17825 0.0
C176 C 0.0271 0.87504 0.17599 0.0
C177 C 0.02416 0.8593 0.19395 0.0
C178 C 0.03818 0.85791 0.21365 0.0
C179 C 0.11241 0.92489 0.27646 0.0
O180 O 0.14016 0.88324 0.30344 0.0
O181 O 0.10539 0.87258 0.29431 0.0
O182 O 0.1867 0.89393 0.2672 0.0
O183 O 0.1699 0.91612 0.29112 0.0
O184 O 0.16157 0.87012 0.2403 0.0
O185 O 0.13316 0.86538 0.26007 0.0
O186 O 0.11648 0.90007 0.22057 0.0
O187 O 0.14887 0.91428 0.23343 0.0
O188 O 0.06999 0.88726 0.25194 0.0
O189 O 0.08827 0.86188 0.23454 0.0
O190 O 0.09488 0.91395 0.27988 0.0
O191 O 0.12379 0.91506 0.2613 0.0
H192 H 0.20478 0.936 0.31675 0.0
H193 H 0.23238 0.92982 0.34723 0.0
H194 H 0.23493 0.86284 0.32708 0.0
H195 H 0.20731 0.86914 0.29642 0.0
H196 H 0.07204 0.89891 0.19949 0.0
H197 H 0.04772 0.90133 0.1647 0.0
H198 H 0.01066 0.84837 0.19319 0.0
H199 H 0.03531 0.8458 0.22732 0.0
Ho200 Ho 0.36643 0.90115 0.51892 0.0
Ho201 Ho 0.37627 0.85374 0.5075 0.0
C202 C 0.38664 0.87066 0.56132 0.0
C203 C 0.35244 0.93713 0.53636 0.0
C204 C 0.35721 0.95332 0.55515 0.0
C205 C 0.34017 0.96201 0.56851 0.0
C206 C 0.34373 0.97876 0.58485 0.0
C207 C 0.36445 0.98731 0.58815 0.0
C208 C 0.38166 0.97812 0.57524 0.0
C209 C 0.37808 0.96129 0.55889 0.0
C210 C 0.40381 0.89438 0.49555 0.0
C211 C 0.35052 0.88313 0.46766 0.0
C212 C 0.3923 0.81902 0.48854 0.0
C213 C 0.39041 0.80478 0.46727 0.0
C214 C 0.40344 0.78647 0.46592 0.0
C215 C 0.402 0.77245 0.44621 0.0
C216 C 0.38747 0.77641 0.42725 0.0
C217 C 0.37453 0.79499 0.42858 0.0
C218 C 0.37599 0.80903 0.44841 0.0
C219 C 0.33677 0.86104 0.52686 0.0
O220 O 0.37805 0.88926 0.55505 0.0
O221 O 0.38937 0.85473 0.54565 0.0
O222 O 0.3658 0.93577 0.51817 0.0
O223 O 0.34551 0.91836 0.54364 0.0
O224 O 0.39195 0.9113 0.49301 0.0
O225 O 0.39628 0.88258 0.51219 0.0
O226 O 0.36221 0.86561 0.47174 0.0
O227 O 0.34758 0.8978 0.48468 0.0
O228 O 0.37629 0.81907 0.50384 0.0
O229 O 0.40001 0.83825 0.48478 0.0
O230 O 0.34771 0.84349 0.5301 0.0
O231 O 0.34685 0.87265 0.51218 0.0
H232 H 0.32396 0.9561 0.56596 0.0
H233 H 0.33017 0.98508 0.59485 0.0
H234 H 0.3978 0.98435 0.57723 0.0
H235 H 0.39154 0.95485 0.54881 0.0
H236 H 0.41467 0.78288 0.48031 0.0
H237 H 0.41196 0.7582 0.44615 0.0
H238 H 0.36331 0.79875 0.41427 0.0
H239 H 0.36584 0.82313 0.44905 0.0
Ho240 Ho 0.36035 0.11688 0.7681 0.0
Ho241 Ho 0.40792 0.12593 0.75753 0.0
C242 C 0.39063 0.13659 0.81112 0.0
C243 C 0.3238 0.10366 0.78488 0.0
C244 C 0.30758 0.10847 0.80362 0.0
C245 C 0.29761 0.09135 0.81561 0.0
C246 C 0.28078 0.09508 0.8318 0.0
C247 C 0.27341 0.11608 0.83633 0.0
C248 C 0.28389 0.13332 0.82483 0.0
C249 C 0.30081 0.12955 0.80861 0.0
C250 C 0.36785 0.15376 0.74407 0.0
C251 C 0.37866 0.10061 0.71722 0.0
C252 C 0.44336 0.14098 0.73918 0.0
C253 C 0.45715 0.13954 0.71746 0.0
C254 C 0.47461 0.15361 0.71523 0.0
C255 C 0.48851 0.15227 0.69538 0.0
C256 C 0.48527 0.1368 0.67716 0.0
C257 C 0.46745 0.1229 0.6793 0.0
C258 C 0.45354 0.12426 0.69926 0.0
C259 C 0.39979 0.08673 0.77715 0.0
O260 O 0.3719 0.12851 0.80443 0.0
O261 O 0.40687 0.13888 0.79576 0.0
O262 O 0.32571 0.11737 0.76713 0.0
O263 O 0.34231 0.09605 0.79213 0.0
O264 O 0.35093 0.14192 0.74138 0.0
O265 O 0.37932 0.1465 0.76117 0.0
O266 O 0.39617 0.11225 0.72153 0.0
O267 O 0.36383 0.09772 0.73407 0.0
O268 O 0.44245 0.12406 0.75308 0.0
O269 O 0.42463 0.15016 0.73659 0.0
O270 O 0.41726 0.09765 0.78094 0.0
O271 O 0.38857 0.09671 0.76202 0.0
H272 H 0.30259 0.07497 0.81209 0.0
H273 H 0.27346 0.08145 0.84071 0.0
H274 H 0.27861 0.14967 0.8278 0.0
H275 H 0.30825 0.14307 0.79959 0.0
H276 H 0.47772 0.16551 0.7291 0.0
H277 H 0.50217 0.16301 0.69471 0.0
H278 H 0.46422 0.11095 0.66556 0.0
H279 H 0.44012 0.11328 0.70061 0.0
Ho280 Ho 0.14449 0.10923 1.0155 0.0
Ho281 Ho 0.1342 0.15684 1.00691 0.0
C282 C 0.12498 0.13809 0.06005 0.0
C283 C 0.15776 0.07248 0.03155 0.0
C284 C 0.15331 0.05705 0.05126 0.0
C285 C 0.1703 0.05015 0.06595 0.0
C286 C 0.16699 0.0345 0.08365 0.0
C287 C 0.14658 0.02525 0.08702 0.0
C288 C 0.12948 0.03235 0.07247 0.0
C289 C 0.13278 0.04813 0.05482 0.0
C290 C 0.10716 0.11664 0.99237 0.0
C291 C 0.15998 0.12896 0.96523 0.0
C292 C 0.11828 0.19211 0.9892 0.0
C293 C 0.12025 0.20647 0.96805 0.0
C294 C 0.10582 0.22361 0.96557 0.0
C295 C 0.10748 0.23784 0.94608 0.0
C296 C 0.12365 0.23528 0.92849 0.0
C297 C 0.13794 0.21781 0.9309 0.0
C298 C 0.13626 0.20357 0.95049 0.0
C299 C 0.17378 0.1491 1.02563 0.0
O300 O 0.1342 0.12018 0.05246 0.0
O301 O 0.12113 0.15436 0.04515 0.0
O302 O 0.14314 0.0746 1.01477 0.0
O303 O 0.16656 0.0908 0.03761 0.0
O304 O 0.11944 0.1002 0.98863 0.0
O305 O 0.11435 0.1277 1.00987 0.0
O306 O 0.14837 0.14632 0.97051 0.0
O307 O 0.16303 0.11352 0.98127 0.0
O308 O 0.13447 0.19157 1.00421 0.0
O309 O 0.11016 0.17306 0.9853 0.0
O310 O 0.16261 0.1663 0.03013 0.0
O311 O 0.16387 0.13809 1.01022 0.0
H312 H 0.1863 0.05663 0.06344 0.0
H313 H 0.18058 0.02924 0.0943 0.0
H314 H 0.11351 0.02575 0.07478 0.0
H315 H 0.11932 0.05312 0.0438 0.0
H316 H 0.09335 0.22616 0.97893 0.0
H317 H 0.0964 0.25121 0.94519 0.0
H318 H 0.15044 0.21509 0.91764 0.0
H319 H 0.14752 0.1904 0.95201 0.0
Ho320 Ho 0.90739 0.88612 0.75638 0.0
Ho321 Ho 0.85992 0.8952 0.76723 0.0
C322 C 0.87789 0.9113 0.71619 0.0
C323 C 0.94262 0.87078 0.73782 0.0
C324 C 0.95659 0.87229 0.71628 0.0
C325 C 0.95274 0.88718 0.69777 0.0
C326 C 0.96669 0.88845 0.67785 0.0
C327 C 0.98477 0.87486 0.67606 0.0
C328 C 0.98829 0.85982 0.69462 0.0
C329 C 0.97435 0.85857 0.71443 0.0
C330 C 0.89954 0.9254 0.77588 0.0
C331 C 0.8904 0.87567 0.81009 0.0
C332 C 0.82344 0.90811 0.78446 0.0
C333 C 0.80794 0.90318 0.80395 0.0
C334 C 0.80036 0.91999 0.8185 0.0
C335 C 0.78458 0.91626 0.83597 0.0
C336 C 0.77592 0.89559 0.83925 0.0
C337 C 0.78371 0.87867 0.82483 0.0
C338 C 0.79962 0.8824 0.80739 0.0
C339 C 0.8674 0.85815 0.74343 0.0
O340 O 0.89549 0.89979 0.72046 0.0
O341 O 0.86306 0.91414 0.73305 0.0
O342 O 0.94198 0.88746 0.75216 0.0
O343 O 0.92372 0.86207 0.73481 0.0
O344 O 0.91705 0.9145 0.77947 0.0
O345 O 0.88809 0.9154 0.76093 0.0
O346 O 0.87171 0.88389 0.80356 0.0
O347 O 0.9065 0.87318 0.79459 0.0
O348 O 0.82528 0.89415 0.76691 0.0
O349 O 0.84191 0.91637 0.79092 0.0
O350 O 0.85053 0.87001 0.74058 0.0
O351 O 0.87883 0.86557 0.76048 0.0
H352 H 0.93907 0.89787 0.69882 0.0
H353 H 0.96326 0.90006 0.66384 0.0
H354 H 1.00215 0.84934 0.69422 0.0
H355 H 0.97763 0.84698 0.72855 0.0
H356 H 0.80638 0.93617 0.81605 0.0
H357 H 0.77877 0.92972 0.84651 0.0
H358 H 0.77755 0.86253 0.82707 0.0
H359 H 0.80518 0.8691 0.79644 0.0
Ho360 Ho 0.87686 0.15622 0.50682 0.0
Ho361 Ho 0.86599 0.10877 0.51621 0.0
C362 C 0.85096 0.12813 0.46555 0.0
C363 C 0.89322 0.19111 0.48864 0.0
C364 C 0.891 0.20565 0.46768 0.0
C365 C 0.90516 0.22303 0.46536 0.0
C366 C 0.90336 0.23733 0.44595 0.0
C367 C 0.88732 0.23458 0.42828 0.0
C368 C 0.87326 0.2169 0.43057 0.0
C369 C 0.87508 0.20259 0.45007 0.0
C370 C 0.83702 0.14922 0.52533 0.0
C371 C 0.88585 0.13789 0.56023 0.0
C372 C 0.85193 0.07241 0.53256 0.0
C373 C 0.85645 0.05642 0.55164 0.0
C374 C 0.8393 0.04805 0.56507 0.0
C375 C 0.84268 0.0316 0.5818 0.0
C376 C 0.86334 0.023 0.58542 0.0
C377 C 0.88065 0.03183 0.57239 0.0
C378 C 0.87725 0.04838 0.55567 0.0
C379 C 0.90362 0.1155 0.49318 0.0
O380 O 0.8628 0.14539 0.47053 0.0
O381 O 0.84756 0.11302 0.48191 0.0
O382 O 0.87752 0.19096 0.50434 0.0
O383 O 0.90061 0.17185 0.48425 0.0
O384 O 0.8483 0.1664 0.52945 0.0
O385 O 0.84693 0.13775 0.51032 0.0
O386 O 0.87633 0.12004 0.55297 0.0
O387 O 0.89002 0.15386 0.54503 0.0
O388 O 0.86595 0.07413 0.51506 0.0
O389 O 0.84425 0.09099 0.53947 0.0
O390 O 0.89136 0.09897 0.48994 0.0
O391 O 0.8963 0.12689 0.51035 0.0
H392 H 0.91755 0.22569 0.47876 0.0
H393 H 0.91425 0.25086 0.44516 0.0
H394 H 0.86086 0.21404 0.41724 0.0
H395 H 0.86403 0.18923 0.45148 0.0
H396 H 0.82313 0.05402 0.56231 0.0
H397 H 0.82904 0.02556 0.59186 0.0
H398 H 0.89674 0.02556 0.57458 0.0
H399 H 0.89081 0.05455 0.54556 0.0
Ho400 Ho 0.60362 0.12578 0.25688 0.0
Ho401 Ho 0.65108 0.11617 0.26847 0.0
C402 C 0.63331 0.10006 0.21723 0.0
C403 C 0.56876 0.14139 0.23781 0.0
C404 C 0.55437 0.13928 0.21669 0.0
C405 C 0.53646 0.15283 0.21499 0.0
C406 C 0.52221 0.15115 0.19551 0.0
C407 C 0.52553 0.13584 0.17713 0.0
C408 C 0.54372 0.12237 0.17881 0.0
C409 C 0.55798 0.12407 0.19839 0.0
C410 C 0.61095 0.08638 0.27633 0.0
C411 C 0.62041 0.1365 0.31071 0.0
C412 C 0.68713 0.10238 0.28586 0.0
C413 C 0.70343 0.10729 0.30444 0.0
C414 C 0.71308 0.09025 0.31686 0.0
C415 C 0.72998 0.09401 0.33291 0.0
C416 C 0.73773 0.11496 0.33685 0.0
C417 C 0.72757 0.13214 0.32492 0.0
C418 C 0.71059 0.12835 0.30884 0.0
C419 C 0.64426 0.1533 0.24466 0.0
O420 O 0.61582 0.11183 0.22117 0.0
O421 O 0.64782 0.09705 0.23438 0.0
O422 O 0.56894 0.12556 0.25328 0.0
O423 O 0.58795 0.14915 0.23387 0.0
O424 O 0.59334 0.09725 0.27941 0.0
O425 O 0.62269 0.09641 0.26173 0.0
O426 O 0.63907 0.12796 0.3045 0.0
O427 O 0.6045 0.13908 0.29501 0.0
O428 O 0.6857 0.11559 0.26758 0.0
O429 O 0.66838 0.09556 0.29337 0.0
O430 O 0.66127 0.14151 0.2424 0.0
O431 O 0.63243 0.14588 0.26136 0.0
H432 H 0.53334 0.16465 0.22893 0.0
H433 H 0.50829 0.16155 0.19522 0.0
H434 H 0.547 0.11054 0.16494 0.0
H435 H 0.57174 0.11349 0.19933 0.0
H436 H 0.70779 0.07389 0.31378 0.0
H437 H 0.73705 0.08044 0.34216 0.0
H438 H 0.73315 0.14846 0.32745 0.0
H439 H 0.70339 0.1418 0.29947 0.0
Ho440 Ho 0.63502 0.85463 1.00746 0.0
Ho441 Ho 0.64535 0.90196 1.01825 0.0
C442 C 0.66109 0.8832 0.96716 0.0
C443 C 0.61842 0.82009 0.98884 0.0
C444 C 0.62105 0.80415 0.96921 0.0
C445 C 0.63098 0.80919 0.94711 0.0
C446 C 0.63244 0.79369 0.92868 0.0
C447 C 0.62406 0.77286 0.93206 0.0
C448 C 0.61404 0.76808 0.95423 0.0
C449 C 0.6126 0.78351 0.97253 0.0
C450 C 0.67483 0.86147 1.02612 0.0
C451 C 0.62512 0.87223 0.06121 0.0
C452 C 0.65973 0.93828 0.03438 0.0
C453 C 0.65461 0.95551 0.05172 0.0
C454 C 0.64427 0.95145 0.07381 0.0
C455 C 0.64047 0.96827 0.09015 0.0
C456 C 0.64694 0.9894 0.08466 0.0
C457 C 0.65683 0.99333 0.06223 0.0
C458 C 0.66063 0.97657 0.04601 0.0
C459 C 0.60755 0.89531 0.99557 0.0
O460 O 0.64934 0.86579 0.97152 0.0
O461 O 0.66417 0.89798 0.98403 0.0
O462 O 0.63255 0.81986 1.00629 0.0
O463 O 0.61281 0.83956 0.98267 0.0
O464 O 0.66386 0.84393 0.02923 0.0
O465 O 0.66474 0.87328 1.01169 0.0
O466 O 0.6342 0.89055 0.05477 0.0
O467 O 0.62177 0.85639 0.04558 0.0
O468 O 0.64705 0.93657 1.01568 0.0
O469 O 0.66551 0.91962 0.04313 0.0
O470 O 0.61948 0.91214 0.9928 0.0
O471 O 0.61523 0.88361 1.01218 0.0
H472 H 0.63757 0.82506 0.9441 0.0
H473 H 0.64044 0.7979 0.91197 0.0
H474 H 0.60708 0.7524 0.95742 0.0
H475 H 0.60468 0.77934 0.98933 0.0
H476 H 0.6394 0.93529 0.07855 0.0
H477 H 0.63296 0.96462 0.10732 0.0
H478 H 0.66167 0.00942 0.05718 0.0
H479 H 0.6685 0.98006 0.02898 0.0
Ho480 Ho 0.90545 0.1274 0.79657 0.0
Ho481 Ho 0.85801 0.1166 0.78716 0.0
C482 C 0.87727 0.10161 0.83784 0.0
C483 C 0.94038 0.1437 0.81477 0.0
C484 C 0.95486 0.14154 0.8358 0.0
C485 C 0.97214 0.15581 0.83824 0.0
C486 C 0.98639 0.15405 0.8577 0.0
C487 C 0.9837 0.13796 0.8753 0.0
C488 C 0.96611 0.1238 0.8729 0.0
C489 C 0.95185 0.12557 0.85334 0.0
C490 C 0.89841 0.08759 0.77802 0.0
C491 C 0.8872 0.13635 0.74313 0.0
C492 C 0.82159 0.10284 0.77065 0.0
C493 C 0.80612 0.1074 0.75104 0.0
C494 C 0.79833 0.09031 0.73705 0.0
C495 C 0.78267 0.0938 0.7194 0.0
C496 C 0.77434 0.1145 0.71539 0.0
C497 C 0.78234 0.13168 0.72925 0.0
C498 C 0.79814 0.12819 0.74685 0.0
C499 C 0.86479 0.15416 0.81027 0.0
O500 O 0.89456 0.1134 0.83285 0.0
O501 O 0.86214 0.09823 0.8215 0.0
O502 O 0.9402 0.12792 0.79918 0.0
O503 O 0.92114 0.1512 0.81904 0.0
O504 O 0.9156 0.09888 0.77388 0.0
O505 O 0.88696 0.09749 0.79305 0.0
O506 O 0.86936 0.1268 0.75038 0.0
O507 O 0.90315 0.14057 0.75837 0.0
O508 O 0.82336 0.11716 0.78783 0.0
O509 O 0.84011 0.0946 0.76435 0.0
O510 O 0.8483 0.14185 0.81358 0.0
O511 O 0.87615 0.14689 0.79305 0.0
H512 H 0.97476 0.16824 0.82489 0.0
H513 H 0.99986 0.16503 0.85858 0.0
H514 H 0.96329 0.11135 0.88617 0.0
H515 H 0.93857 0.11444 0.85184 0.0
H516 H 0.80412 0.07413 0.74006 0.0
H517 H 0.7767 0.08016 0.70928 0.0
H518 H 0.77646 0.14784 0.72643 0.0
H519 H 0.80389 0.14171 0.75732 0.0
Ho520 Ho 0.63525 0.15746 0.54608 0.0
Ho521 Ho 0.64514 0.11008 0.53477 0.0
C522 C 0.66101 0.12815 0.58598 0.0
C523 C 0.61909 0.19215 0.56502 0.0
C524 C 0.6208 0.20637 0.58633 0.0
C525 C 0.63459 0.20178 0.60568 0.0
C526 C 0.63585 0.21579 0.62556 0.0
C527 C 0.62329 0.23465 0.62647 0.0
C528 C 0.60939 0.23896 0.60703 0.0
C529 C 0.60818 0.22499 0.58724 0.0
C530 C 0.67475 0.15031 0.52674 0.0
C531 C 0.62491 0.14043 0.49226 0.0
C532 C 0.65914 0.07403 0.51749 0.0
C533 C 0.65446 0.05784 0.49868 0.0
C534 C 0.67156 0.04917 0.4854 0.0
C535 C 0.66809 0.03241 0.46905 0.0
C536 C 0.64739 0.02382 0.46568 0.0
C537 C 0.63012 0.03299 0.47851 0.0
C538 C 0.63362 0.04984 0.49487 0.0
C539 C 0.60783 0.11689 0.55834 0.0
O540 O 0.64933 0.14566 0.58185 0.0
O541 O 0.66399 0.11346 0.56899 0.0
O542 O 0.6352 0.19213 0.54985 0.0
O543 O 0.61137 0.1729 0.56866 0.0
O544 O 0.66376 0.16782 0.52352 0.0
O545 O 0.66476 0.13858 0.54141 0.0
O546 O 0.63348 0.12184 0.49861 0.0
O547 O 0.62221 0.1564 0.50788 0.0
O548 O 0.64565 0.07546 0.53555 0.0
O549 O 0.66617 0.09277 0.51025 0.0
O550 O 0.61975 0.10002 0.56093 0.0
O551 O 0.61528 0.12857 0.54154 0.0
H552 H 0.6444 0.18743 0.60539 0.0
H553 H 0.64659 0.21178 0.64025 0.0
H554 H 0.59976 0.25343 0.60678 0.0
H555 H 0.59743 0.22884 0.57248 0.0
H556 H 0.68775 0.05511 0.48802 0.0
H557 H 0.68169 0.02611 0.45912 0.0
H558 H 0.614 0.02673 0.47647 0.0
H559 H 0.62011 0.05625 0.50488 0.0
Ho560 Ho 0.6037 0.88508 0.29667 0.0
Ho561 Ho 0.65129 0.89396 0.28593 0.0
C562 C 0.63319 0.91032 0.33685 0.0
C563 C 0.56827 0.87006 0.31505 0.0
C564 C 0.55455 0.87142 0.3368 0.0
C565 C 0.55842 0.88641 0.35523 0.0
C566 C 0.54455 0.88774 0.37522 0.0
C567 C 0.52649 0.87413 0.37713 0.0
C568 C 0.52299 0.85893 0.35868 0.0
C569 C 0.53686 0.85761 0.33881 0.0
C570 C 0.61178 0.92421 0.27698 0.0
C571 C 0.62076 0.87453 0.24301 0.0
C572 C 0.68791 0.90668 0.26887 0.0
C573 C 0.70333 0.902 0.24919 0.0
C574 C 0.71044 0.91891 0.23451 0.0
C575 C 0.72623 0.91546 0.21695 0.0
C576 C 0.73538 0.895 0.21372 0.0
C577 C 0.72804 0.87797 0.22824 0.0
C578 C 0.71213 0.88142 0.24576 0.0
C579 C 0.64358 0.8573 0.31029 0.0
O580 O 0.61558 0.89882 0.33257 0.0
O581 O 0.64808 0.91306 0.32003 0.0
O582 O 0.5692 0.88707 0.30129 0.0
O583 O 0.58697 0.8608 0.3175 0.0
O584 O 0.5943 0.91328 0.27327 0.0
O585 O 0.62314 0.91427 0.29204 0.0
O586 O 0.63953 0.88255 0.24962 0.0
O587 O 0.60459 0.8722 0.25842 0.0
O588 O 0.68592 0.89238 0.28601 0.0
O589 O 0.66954 0.91534 0.26276 0.0
O590 O 0.6605 0.86914 0.31301 0.0
O591 O 0.63225 0.8645 0.29305 0.0
H592 H 0.57202 0.89718 0.35405 0.0
H593 H 0.54797 0.89947 0.38914 0.0
H594 H 0.50915 0.84841 0.35919 0.0
H595 H 0.53355 0.84595 0.32475 0.0
H596 H 0.70407 0.93496 0.23694 0.0
H597 H 0.73168 0.92901 0.20634 0.0
H598 H 0.73457 0.86198 0.22603 0.0
H599 H 0.70696 0.86804 0.25681 0.0
Ho600 Ho 0.8764 0.85427 0.04564 0.0
Ho601 Ho 0.86665 0.9017 0.03475 0.0
C602 C 0.85041 0.88338 0.08568 0.0
C603 C 0.89227 0.81947 0.0645 0.0
C604 C 0.89041 0.8055 0.08599 0.0
C605 C 0.90483 0.78838 0.08871 0.0
C606 C 0.90321 0.77442 0.10845 0.0
C607 C 0.8871 0.77724 0.12605 0.0
C608 C 0.87284 0.79471 0.12342 0.0
C609 C 0.87447 0.80868 0.10358 0.0
C610 C 0.83704 0.86159 1.02619 0.0
C611 C 0.88673 0.87145 0.99191 0.0
C612 C 0.85289 0.93796 1.0179 0.0
C613 C 0.8576 0.95429 0.99929 0.0
C614 C 0.84043 0.96374 0.9869 0.0
C615 C 0.84399 0.98064 0.9708 0.0
C616 C 0.86486 0.98858 0.96679 0.0
C617 C 0.88217 0.97863 0.97871 0.0
C618 C 0.87858 0.96165 0.99483 0.0
C619 C 0.90383 0.89468 0.05841 0.0
O620 O 0.86218 0.86594 0.08148 0.0
O621 O 0.84753 0.89814 0.06878 0.0
O622 O 0.87605 0.81964 0.04953 0.0
O623 O 0.90038 0.8386 0.06786 0.0
O624 O 0.84805 0.84411 1.02278 0.0
O625 O 0.84695 0.87321 0.04103 0.0
O626 O 0.87829 0.89006 0.99846 0.0
O627 O 0.88938 0.85538 1.00739 0.0
O628 O 0.86644 0.93632 0.03585 0.0
O629 O 0.84574 0.91932 1.01047 0.0
O630 O 0.89187 0.91151 0.0612 0.0
O631 O 0.89647 0.88313 0.04143 0.0
H632 H 0.91724 0.78562 0.07533 0.0
H633 H 0.91426 0.76103 0.10949 0.0
H634 H 0.86039 0.79763 0.13668 0.0
H635 H 0.86322 0.82183 0.10186 0.0
H636 H 0.82413 0.9583 0.99002 0.0
H637 H 0.83033 0.98755 0.96155 0.0
H638 H 0.89843 0.98437 0.97615 0.0
H639 H 0.89213 0.95461 1.00418 0.0
Ho640 Ho 0.65259 0.61571 0.78663 0.0
Ho641 Ho 0.60507 0.6264 0.79694 0.0
C642 C 0.62308 0.6362 0.74341 0.0
C643 C 0.68899 0.6017 0.77024 0.0
C644 C 0.7063 0.60751 0.75314 0.0
C645 C 0.70202 0.61432 0.72943 0.0
C646 C 0.71896 0.61868 0.71344 0.0
C647 C 0.74047 0.61624 0.72083 0.0
C648 C 0.74459 0.60984 0.74475 0.0
C649 C 0.7277 0.60552 0.76067 0.0
C650 C 0.64611 0.65336 0.80964 0.0
C651 C 0.63347 0.60009 0.83733 0.0
C652 C 0.57023 0.64262 0.81554 0.0
C653 C 0.55561 0.64046 0.83651 0.0
C654 C 0.53721 0.65338 0.83766 0.0
C655 C 0.52298 0.65182 0.8572 0.0
C656 C 0.52681 0.63728 0.87618 0.0
C657 C 0.54545 0.6244 0.875 0.0
C658 C 0.5597 0.62598 0.85536 0.0
C659 C 0.61216 0.58676 0.7778 0.0
O660 O 0.6411 0.62671 0.75019 0.0
O661 O 0.60713 0.6399 0.75886 0.0
O662 O 0.68719 0.61371 0.78951 0.0
O663 O 0.67036 0.59602 0.76129 0.0
O664 O 0.66288 0.64135 0.81229 0.0
O665 O 0.63435 0.6459 0.79292 0.0
O666 O 0.61637 0.61233 0.83301 0.0
O667 O 0.64812 0.59655 0.82043 0.0
O668 O 0.5703 0.62699 0.79975 0.0
O669 O 0.58952 0.64993 0.8199 0.0
O670 O 0.59477 0.59788 0.77425 0.0
O671 O 0.62364 0.59669 0.79272 0.0
H672 H 0.68565 0.61594 0.72314 0.0
H673 H 0.71519 0.62338 0.6951 0.0
H674 H 0.76091 0.6081 0.75119 0.0
H675 H 0.73138 0.60035 0.77889 0.0
H676 H 0.53373 0.66465 0.82329 0.0
H677 H 0.5087 0.66174 0.85713 0.0
H678 H 0.54913 0.61317 0.88932 0.0
H679 H 0.57386 0.61592 0.85488 0.0
Ho680 Ho 0.64488 0.40269 0.03697 0.0
Ho681 Ho 0.63485 0.35524 0.04755 0.0
C682 C 0.62473 0.37292 0.99396 0.0
C683 C 0.65879 0.43916 1.02079 0.0
C684 C 0.65341 0.45633 1.00347 0.0
C685 C 0.64375 0.45204 0.98105 0.0
C686 C 0.63981 0.46881 0.96473 0.0
C687 C 0.64548 0.49012 0.97055 0.0
C688 C 0.65464 0.49426 0.99331 0.0
C689 C 0.65858 0.47756 1.00952 0.0
C690 C 0.60733 0.39579 0.06008 0.0
C691 C 0.661 0.38388 0.08777 0.0
C692 C 0.61844 0.3205 0.06592 0.0
C693 C 0.62077 0.30453 0.08553 0.0
C694 C 0.63063 0.30942 0.10771 0.0
C695 C 0.63187 0.29384 0.12605 0.0
C696 C 0.62333 0.27309 0.12252 0.0
C697 C 0.61336 0.26848 0.10028 0.0
C698 C 0.61214 0.28398 0.08207 0.0
C699 C 0.67446 0.36242 0.02838 0.0
O700 O 0.63362 0.39131 1.00049 0.0
O701 O 0.62155 0.35698 1.00949 0.0
O702 O 0.64621 0.43733 0.03959 0.0
O703 O 0.6648 0.42056 1.01202 0.0
O704 O 0.61922 0.41265 0.06285 0.0
O705 O 0.61489 0.38414 0.0433 0.0
O706 O 0.64929 0.36643 0.08343 0.0
O707 O 0.66397 0.3987 0.07096 0.0
O708 O 0.63295 0.32044 0.04882 0.0
O709 O 0.61244 0.3399 0.07196 0.0
O710 O 0.66353 0.34486 1.02521 0.0
O711 O 0.66443 0.37404 0.04312 0.0
H712 H 0.63954 0.43576 0.97603 0.0
H713 H 0.63288 0.465 0.94731 0.0
H714 H 0.65885 0.51047 0.99861 0.0
H715 H 0.66592 0.48122 1.02679 0.0
H716 H 0.63736 0.32522 0.11083 0.0
H717 H 0.63983 0.29794 0.14281 0.0
H718 H 0.60626 0.25288 0.09696 0.0
H719 H 0.60427 0.27992 0.06522 0.0
Ho720 Ho 0.85829 0.39564 0.28867 0.0
Ho721 Ho 0.90584 0.38535 0.29735 0.0
C722 C 0.88728 0.37646 0.24407 0.0
C723 C 0.82149 0.4088 0.27265 0.0
C724 C 0.80605 0.40417 0.253 0.0
C725 C 0.79832 0.42119 0.23892 0.0
C726 C 0.7827 0.41762 0.22123 0.0
C727 C 0.77434 0.39692 0.21728 0.0
C728 C 0.78227 0.3798 0.23124 0.0
C729 C 0.79802 0.38337 0.24887 0.0
C730 C 0.86566 0.35816 0.31152 0.0
C731 C 0.87783 0.41087 0.33909 0.0
C732 C 0.94111 0.36941 0.31507 0.0
C733 C 0.95544 0.37134 0.33627 0.0
C734 C 0.97285 0.35721 0.33849 0.0
C735 C 0.98703 0.35883 0.35804 0.0
C736 C 0.98414 0.37465 0.37596 0.0
C737 C 0.9664 0.38864 0.3738 0.0
C738 C 0.95221 0.38701 0.35415 0.0
C739 C 0.89816 0.42498 0.27877 0.0
O740 O 0.8694 0.38575 0.25164 0.0
O741 O 0.90341 0.37233 0.25907 0.0
O742 O 0.82365 0.39429 0.28952 0.0
O743 O 0.83979 0.41757 0.26645 0.0
O744 O 0.84922 0.37042 0.31532 0.0
O745 O 0.87675 0.36547 0.29412 0.0
O746 O 0.89517 0.39925 0.33382 0.0
O747 O 0.86248 0.41409 0.32297 0.0
O748 O 0.94058 0.38564 0.30013 0.0
O749 O 0.92206 0.36128 0.31891 0.0
O750 O 0.91534 0.41381 0.27426 0.0
O751 O 0.8871 0.41507 0.29414 0.0
H752 H 0.80413 0.43738 0.24188 0.0
H753 H 0.77679 0.43122 0.21104 0.0
H754 H 0.77635 0.36364 0.22846 0.0
H755 H 0.80371 0.36989 0.25942 0.0
H756 H 0.97565 0.345 0.32488 0.0
H757 H 1.00061 0.34799 0.35873 0.0
H758 H 0.96342 0.40087 0.38732 0.0
H759 H 0.93883 0.39802 0.35283 0.0
Ho760 Ho 0.86629 0.60889 0.53813 0.0
Ho761 Ho 0.87693 0.65643 0.54709 0.0
C762 C 0.8861 0.63769 0.49383 0.0
C763 C 0.85218 0.57242 0.52208 0.0
C764 C 0.8568 0.5562 0.50328 0.0
C765 C 0.83959 0.54599 0.49172 0.0
C766 C 0.84326 0.52935 0.47524 0.0
C767 C 0.86429 0.52245 0.47001 0.0
C768 C 0.88159 0.53314 0.48116 0.0
C769 C 0.87788 0.54986 0.49763 0.0
C770 C 0.90404 0.61586 0.56065 0.0
C771 C 0.85126 0.62856 0.5887 0.0
C772 C 0.89313 0.69159 0.56488 0.0
C773 C 0.891 0.70632 0.58572 0.0
C774 C 0.87666 0.70226 0.60475 0.0
C775 C 0.87511 0.71661 0.62429 0.0
C776 C 0.88791 0.7353 0.62521 0.0
C777 C 0.90234 0.73911 0.60608 0.0
C778 C 0.90385 0.7248 0.58662 0.0
C779 C 0.83717 0.64898 0.52865 0.0
O780 O 0.87669 0.61983 0.50125 0.0
O781 O 0.89009 0.65386 0.50887 0.0
O782 O 0.8661 0.57427 0.53963 0.0
O783 O 0.8447 0.59097 0.51483 0.0
O784 O 0.89186 0.59932 0.56414 0.0
O785 O 0.8966 0.62719 0.54355 0.0
O786 O 0.86298 0.64584 0.58353 0.0
O787 O 0.84792 0.61329 0.5725 0.0
O788 O 0.87735 0.69122 0.54933 0.0
O789 O 0.90063 0.67241 0.56938 0.0
O790 O 0.84834 0.66619 0.5243 0.0
O791 O 0.84714 0.63783 0.54385 0.0
H792 H 0.8232 0.55066 0.49573 0.0
H793 H 0.82955 0.52188 0.46663 0.0
H794 H 0.89798 0.52821 0.47767 0.0
H795 H 0.89147 0.55754 0.50628 0.0
H796 H 0.86667 0.68804 0.60448 0.0
H797 H 0.86397 0.71297 0.63875 0.0
H798 H 0.91219 0.75344 0.60584 0.0
H799 H 0.91503 0.72824 0.57212 0.0
Ho800 Ho 0.65123 0.39425 0.76839 0.0
Ho801 Ho 0.60359 0.38564 0.7584 0.0
C802 C 0.62101 0.3755 0.81199 0.0
C803 C 0.68821 0.40713 0.78423 0.0
C804 C 0.70544 0.40126 0.8013 0.0
C805 C 0.70113 0.39315 0.82448 0.0
C806 C 0.71802 0.38899 0.84058 0.0
C807 C 0.7395 0.39288 0.83378 0.0
C808 C 0.74365 0.40041 0.81028 0.0
C809 C 0.72682 0.40458 0.79428 0.0
C810 C 0.64338 0.35717 0.74484 0.0
C811 C 0.63267 0.41014 0.71765 0.0
C812 C 0.56749 0.37115 0.74128 0.0
C813 C 0.55378 0.37058 0.71946 0.0
C814 C 0.55495 0.38636 0.70137 0.0
C815 C 0.5403 0.38621 0.68204 0.0
C816 C 0.52414 0.37038 0.68058 0.0
C817 C 0.52362 0.35426 0.69835 0.0
C818 C 0.53826 0.35437 0.71751 0.0
C819 C 0.61227 0.4247 0.77809 0.0
O820 O 0.63989 0.38299 0.80495 0.0
O821 O 0.60458 0.37347 0.79689 0.0
O822 O 0.68588 0.39472 0.76536 0.0
O823 O 0.66985 0.4136 0.79323 0.0
O824 O 0.66043 0.36876 0.74206 0.0
O825 O 0.63198 0.36471 0.76187 0.0
O826 O 0.61543 0.39813 0.72195 0.0
O827 O 0.64722 0.41361 0.73463 0.0
O828 O 0.56947 0.38954 0.75241 0.0
O829 O 0.58546 0.36033 0.74067 0.0
O830 O 0.5949 0.41377 0.78239 0.0
O831 O 0.62321 0.41473 0.76263 0.0
H832 H 0.68474 0.39037 0.83028 0.0
H833 H 0.71421 0.38335 0.85858 0.0
H834 H 0.75996 0.40321 0.80424 0.0
H835 H 0.73052 0.4107 0.77644 0.0
H836 H 0.56681 0.39904 0.70251 0.0
H837 H 0.5411 0.39895 0.66877 0.0
H838 H 0.51166 0.34164 0.69764 0.0
H839 H 0.53712 0.34199 0.7312 0.0
Ho840 Ho 0.86573 0.40291 1.01637 0.0
Ho841 Ho 0.87652 0.35545 1.00774 0.0
C842 C 0.88545 0.37444 0.06088 0.0
C843 C 0.85216 0.43963 0.03227 0.0
C844 C 0.85687 0.45529 0.05164 0.0
C845 C 0.83972 0.46482 0.06408 0.0
C846 C 0.84349 0.48059 0.08155 0.0
C847 C 0.86455 0.48728 0.08694 0.0
C848 C 0.88177 0.47754 0.07462 0.0
C849 C 0.87798 0.46163 0.05719 0.0
C850 C 0.90335 0.39586 0.9935 0.0
C851 C 0.85032 0.38287 0.96615 0.0
C852 C 0.89308 0.32048 0.99001 0.0
C853 C 0.89072 0.30466 0.97021 0.0
C854 C 0.88015 0.30952 0.94846 0.0
C855 C 0.87875 0.29409 0.92993 0.0
C856 C 0.88785 0.27351 0.93283 0.0
C857 C 0.89856 0.26894 0.95462 0.0
C858 C 0.89993 0.28429 0.97303 0.0
C859 C 0.83669 0.36271 1.02625 0.0
O860 O 0.87573 0.39208 0.0534 0.0
O861 O 0.88989 0.35841 0.04581 0.0
O862 O 0.8665 0.43754 1.01517 0.0
O863 O 0.84381 0.42126 0.03886 0.0
O864 O 0.89093 0.41216 0.98972 0.0
O865 O 0.89613 0.38474 1.01092 0.0
O866 O 0.86203 0.3656 0.97142 0.0
O867 O 0.84719 0.39833 0.9822 0.0
O868 O 0.87828 0.32063 1.00679 0.0
O869 O 0.89941 0.3398 0.98413 0.0
O870 O 0.8479 0.3455 0.03045 0.0
O871 O 0.84663 0.37388 1.01103 0.0
H872 H 0.82332 0.46027 0.06 0.0
H873 H 0.82984 0.48792 0.09046 0.0
H874 H 0.89817 0.48215 0.07853 0.0
H875 H 0.89153 0.45446 0.04793 0.0
H876 H 0.87298 0.32518 0.94583 0.0
H877 H 0.87021 0.29816 0.91353 0.0
H878 H 0.9061 0.25348 0.95744 0.0
H879 H 0.90835 0.28025 0.98954 0.0
Ho880 Ho 0.8581 0.6164 0.26592 0.0
Ho881 Ho 0.90571 0.62675 0.25724 0.0
C882 C 0.88702 0.6352 0.31067 0.0
C883 C 0.82092 0.60269 0.28045 0.0
C884 C 0.80375 0.6074 0.29803 0.0
C885 C 0.80767 0.61872 0.31951 0.0
C886 C 0.79099 0.62225 0.33613 0.0
C887 C 0.77009 0.61458 0.33147 0.0
C888 C 0.76626 0.60373 0.30957 0.0
C889 C 0.78291 0.60015 0.29311 0.0
C890 C 0.86552 0.65408 0.24338 0.0
C891 C 0.87801 0.60112 0.21558 0.0
C892 C 0.94103 0.6428 0.23965 0.0
C893 C 0.95543 0.64095 0.21846 0.0
C894 C 0.97233 0.65565 0.21582 0.0
C895 C 0.98663 0.65409 0.19633 0.0
C896 C 0.98437 0.63776 0.17889 0.0
C897 C 0.96711 0.6232 0.18144 0.0
C898 C 0.95281 0.62478 0.20102 0.0
C899 C 0.89801 0.58709 0.27577 0.0
O900 O 0.8691 0.62599 0.30307 0.0
O901 O 0.9031 0.63956 0.29563 0.0
O902 O 0.82344 0.61653 0.26298 0.0
O903 O 0.8392 0.59556 0.28891 0.0
O904 O 0.84899 0.64196 0.23969 0.0
O905 O 0.87662 0.64661 0.26063 0.0
O906 O 0.89525 0.61293 0.22067 0.0
O907 O 0.86286 0.5977 0.23189 0.0
O908 O 0.94046 0.62653 0.25453 0.0
O909 O 0.92199 0.65094 0.23584 0.0
O910 O 0.9152 0.59827 0.28024 0.0
O911 O 0.88694 0.59701 0.26044 0.0
H912 H 0.82362 0.62463 0.32353 0.0
H913 H 0.79461 0.63052 0.35285 0.0
H914 H 0.75034 0.59797 0.30509 0.0
H915 H 0.77952 0.59155 0.27651 0.0
H916 H 0.97466 0.66825 0.22907 0.0
H917 H 0.99981 0.66539 0.19533 0.0
H918 H 0.96462 0.61057 0.16829 0.0
H919 H 0.93982 0.61332 0.20265 0.0
Ho920 Ho 0.64635 0.60718 0.51777 0.0
Ho921 Ho 0.63509 0.65437 0.50732 0.0
C922 C 0.626 0.63676 0.56105 0.0
C923 C 0.66068 0.57122 0.53486 0.0
C924 C 0.65575 0.55506 0.55361 0.0
C925 C 0.67271 0.54602 0.56675 0.0
C926 C 0.66892 0.52943 0.5832 0.0
C927 C 0.64803 0.52138 0.58682 0.0
C928 C 0.63093 0.53089 0.57409 0.0
C929 C 0.63475 0.54758 0.55764 0.0
C930 C 0.60845 0.61318 0.49509 0.0
C931 C 0.66159 0.62583 0.46683 0.0
C932 C 0.61888 0.68868 0.48773 0.0
C933 C 0.62208 0.7039 0.46725 0.0
C934 C 0.60828 0.70324 0.44712 0.0
C935 C 0.60953 0.71892 0.42896 0.0
C936 C 0.62446 0.73582 0.43058 0.0
C937 C 0.6386 0.73615 0.45044 0.0
C938 C 0.6374 0.72046 0.46854 0.0
C939 C 0.67497 0.64804 0.526 0.0
O940 O 0.63605 0.61905 0.55429 0.0
O941 O 0.62139 0.65226 0.54539 0.0
O942 O 0.64741 0.57256 0.51663 0.0
O943 O 0.66745 0.59 0.54224 0.0
O944 O 0.62074 0.59664 0.49217 0.0
O945 O 0.61587 0.62502 0.51177 0.0
O946 O 0.64946 0.643 0.47132 0.0
O947 O 0.66511 0.61115 0.48362 0.0
O948 O 0.63273 0.68905 0.5055 0.0
O949 O 0.6126 0.66918 0.48249 0.0
O950 O 0.66367 0.66532 0.52946 0.0
O951 O 0.66511 0.63627 0.51129 0.0
H952 H 0.68902 0.55158 0.56399 0.0
H953 H 0.68242 0.52287 0.59305 0.0
H954 H 0.61466 0.52506 0.57632 0.0
H955 H 0.62135 0.55431 0.54775 0.0
H956 H 0.59608 0.6909 0.44572 0.0
H957 H 0.59826 0.71821 0.41409 0.0
H958 H 0.65056 0.74869 0.45214 0.0
H959 H 0.64822 0.72162 0.48379 0.0
Ho960 Ho 0.40642 0.38474 0.25744 0.0
Ho961 Ho 0.35896 0.39559 0.26686 0.0
C962 C 0.37859 0.41086 0.21635 0.0
C963 C 0.44134 0.3684 0.23923 0.0
C964 C 0.45613 0.37083 0.21848 0.0
C965 C 0.47445 0.35779 0.21719 0.0
C966 C 0.48878 0.35956 0.19777 0.0
C967 C 0.48513 0.37443 0.17907 0.0
C968 C 0.46658 0.38743 0.1804 0.0
C969 C 0.45224 0.38563 0.1999 0.0
C970 C 0.39942 0.42445 0.27622 0.0
C971 C 0.38786 0.37524 0.31069 0.0
C972 C 0.32231 0.40957 0.28262 0.0
C973 C 0.3051 0.40403 0.29994 0.0
C974 C 0.30951 0.39768 0.32377 0.0
C975 C 0.29267 0.39345 0.33993 0.0
C976 C 0.27112 0.3956 0.33258 0.0
C977 C 0.26686 0.40159 0.30857 0.0
C978 C 0.28366 0.40576 0.29247 0.0
C979 C 0.36572 0.35772 0.24436 0.0
O980 O 0.3957 0.39881 0.22117 0.0
O981 O 0.3636 0.41439 0.23286 0.0
O982 O 0.44121 0.38378 0.25532 0.0
O983 O 0.42204 0.36133 0.23443 0.0
O984 O 0.41663 0.41318 0.28019 0.0
O985 O 0.38797 0.41465 0.26114 0.0
O986 O 0.37002 0.38491 0.30361 0.0
O987 O 0.40389 0.37128 0.29546 0.0
O988 O 0.32433 0.39697 0.26387 0.0
O989 O 0.34085 0.41581 0.29135 0.0
O990 O 0.34916 0.36987 0.241 0.0
O991 O 0.37711 0.36526 0.26134 0.0
H992 H 0.47776 0.34625 0.23134 0.0
H993 H 0.50298 0.34954 0.19771 0.0
H994 H 0.46305 0.39891 0.16628 0.0
H995 H 0.43814 0.39578 0.20049 0.0
H996 H 0.32591 0.39631 0.33002 0.0
H997 H 0.29653 0.38908 0.35835 0.0
H998 H 0.2505 0.40312 0.30219 0.0
H999 H 0.27988 0.41058 0.27416 0.0
Ho1000 Ho 0.37699 0.65725 1.00759 0.0
Ho1001 Ho 0.36701 0.60986 1.01848 0.0
C1002 C 0.35139 0.62814 0.96726 0.0
C1003 C 0.39325 0.69188 0.9888 0.0
C1004 C 0.39062 0.70765 0.96902 0.0
C1005 C 0.3815 0.70221 0.94661 0.0
C1006 C 0.38001 0.71761 0.9281 0.0
C1007 C 0.38756 0.73873 0.9317 0.0
C1008 C 0.39677 0.74391 0.95419 0.0
C1009 C 0.39824 0.72859 0.97256 0.0
C1010 C 0.33719 0.65013 1.02624 0.0
C1011 C 0.38697 0.64 0.06137 0.0
C1012 C 0.35305 0.5737 0.03543 0.0
C1013 C 0.35782 0.55749 0.05415 0.0
C1014 C 0.34069 0.54771 0.06632 0.0
C1015 C 0.34439 0.53096 0.08257 0.0
C1016 C 0.36537 0.52351 0.08698 0.0
C1017 C 0.38263 0.5338 0.07527 0.0
C1018 C 0.37889 0.55064 0.059 0.0
C1019 C 0.40457 0.61675 0.99537 0.0
O1020 O 0.36287 0.64572 0.97172 0.0
O1021 O 0.34843 0.61327 0.98402 0.0
O1022 O 0.37893 0.69204 1.00609 0.0
O1023 O 0.39926 0.67244 0.98291 0.0
O1024 O 0.34801 0.66776 0.02934 0.0
O1025 O 0.34741 0.63836 1.01181 0.0
O1026 O 0.37819 0.62154 0.0549 0.0
O1027 O 0.3901 0.65588 0.04576 0.0
O1028 O 0.36659 0.57524 1.01743 0.0
O1029 O 0.34595 0.59238 0.04278 0.0
O1030 O 0.39268 0.59988 0.9926 0.0
O1031 O 0.39698 0.6284 1.01214 0.0
H1032 H 0.37555 0.68612 0.94341 0.0
H1033 H 0.37264 0.71307 0.91114 0.0
H1034 H 0.4031 0.75983 0.95758 0.0
H1035 H 0.40554 0.73309 0.9896 0.0
H1036 H 0.32432 0.55277 0.06291 0.0
H1037 H 0.33075 0.52379 0.09164 0.0
H1038 H 0.39897 0.52845 0.07813 0.0
H1039 H 0.39242 0.55796 0.04985 0.0
Ho1040 Ho 0.10664 0.62681 0.75693 0.0
Ho1041 Ho 0.154 0.61624 0.76678 0.0
C1042 C 0.13516 0.60059 0.71615 0.0
C1043 C 0.0721 0.64246 0.73732 0.0
C1044 C 0.05777 0.63919 0.71609 0.0
C1045 C 0.05579 0.65551 0.69869 0.0
C1046 C 0.04121 0.65356 0.6795 0.0
C1047 C 0.0281 0.63524 0.67722 0.0
C1048 C 0.03032 0.6188 0.69453 0.0
C1049 C 0.04494 0.62073 0.71368 0.0
C1050 C 0.11353 0.58713 0.77568 0.0
C1051 C 0.12455 0.63636 0.8104 0.0
C1052 C 0.19037 0.60253 0.78347 0.0
C1053 C 0.2063 0.60712 0.80259 0.0
C1054 C 0.21486 0.58997 0.81582 0.0
C1055 C 0.23132 0.59341 0.83255 0.0
C1056 C 0.23973 0.61412 0.83636 0.0
C1057 C 0.23069 0.63143 0.82355 0.0
C1058 C 0.21414 0.62797 0.80683 0.0
C1059 C 0.14714 0.65377 0.7437 0.0
O1060 O 0.11787 0.61248 0.72085 0.0
O1061 O 0.1501 0.59738 0.73272 0.0
O1062 O 0.07193 0.62794 0.75439 0.0
O1063 O 0.0914 0.64981 0.73303 0.0
O1064 O 0.09624 0.59834 0.77945 0.0
O1065 O 0.12513 0.59699 0.76078 0.0
O1066 O 0.14244 0.62677 0.80338 0.0
O1067 O 0.10864 0.64036 0.79504 0.0
O1068 O 0.18865 0.61649 0.76594 0.0
O1069 O 0.17179 0.59479 0.7903 0.0
O1070 O 0.16366 0.64152 0.74033 0.0
O1071 O 0.13579 0.64644 0.76086 0.0
H1072 H 0.06536 0.66999 0.70012 0.0
H1073 H 0.04024 0.66645 0.66644 0.0
H1074 H 0.02033 0.60459 0.69371 0.0
H1075 H 0.04586 0.6079 0.72683 0.0
H1076 H 0.20905 0.57377 0.8129 0.0
H1077 H 0.23751 0.57977 0.84244 0.0
H1078 H 0.23681 0.64756 0.82592 0.0
H1079 H 0.20781 0.64152 0.79688 0.0
Ho1080 Ho 0.1349 0.35642 0.50684 0.0
Ho1081 Ho 0.14537 0.40388 0.51552 0.0
C1082 C 0.16079 0.38406 0.46526 0.0
C1083 C 0.11932 0.32147 0.488 0.0
C1084 C 0.1224 0.30718 0.46667 0.0
C1085 C 0.10568 0.30469 0.44984 0.0
C1086 C 0.10758 0.29023 0.43048 0.0
C1087 C 0.12626 0.27776 0.42747 0.0
C1088 C 0.14309 0.28047 0.44424 0.0
C1089 C 0.1412 0.29496 0.46355 0.0
C1090 C 0.17464 0.36377 0.52526 0.0
C1091 C 0.12636 0.375 0.56021 0.0
C1092 C 0.15889 0.44109 0.53017 0.0
C1093 C 0.15401 0.45822 0.54773 0.0
C1094 C 0.14319 0.45413 0.5695 0.0
C1095 C 0.13953 0.4708 0.58608 0.0
C1096 C 0.14656 0.49186 0.58111 0.0
C1097 C 0.1569 0.49585 0.55893 0.0
C1098 C 0.16061 0.47921 0.5425 0.0
C1099 C 0.10763 0.39648 0.49294 0.0
O1100 O 0.14889 0.36691 0.4704 0.0
O1101 O 0.16424 0.39923 0.48154 0.0
O1102 O 0.13427 0.32169 0.50461 0.0
O1103 O 0.11147 0.34059 0.48392 0.0
O1104 O 0.1634 0.34661 0.52958 0.0
O1105 O 0.16479 0.37504 0.51005 0.0
O1106 O 0.13587 0.39278 0.55268 0.0
O1107 O 0.12173 0.35906 0.54507 0.0
O1108 O 0.14518 0.43853 0.51258 0.0
O1109 O 0.16605 0.42283 0.53865 0.0
O1110 O 0.11985 0.4129 0.48911 0.0
O1111 O 0.11508 0.38551 0.51029 0.0
H1112 H 0.09095 0.31378 0.45181 0.0
H1113 H 0.09437 0.28888 0.41786 0.0
H1114 H 0.1576 0.27097 0.44286 0.0
H1115 H 0.15436 0.2963 0.47623 0.0
H1116 H 0.1378 0.43806 0.57378 0.0
H1117 H 0.13167 0.46707 0.60303 0.0
H1118 H 0.16216 0.51188 0.55422 0.0
H1119 H 0.16881 0.48273 0.52569 0.0
Ho1120 Ho 0.40747 0.62606 0.29689 0.0
Ho1121 Ho 0.36006 0.61608 0.28613 0.0
C1122 C 0.37868 0.5998 0.33694 0.0
C1123 C 0.44214 0.64225 0.31572 0.0
C1124 C 0.45795 0.63947 0.33545 0.0
C1125 C 0.45261 0.62994 0.35767 0.0
C1126 C 0.46806 0.62824 0.37612 0.0
C1127 C 0.48913 0.63599 0.37265 0.0
C1128 C 0.49421 0.64563 0.35036 0.0
C1129 C 0.47883 0.64731 0.33205 0.0
C1130 C 0.40041 0.5865 0.27771 0.0
C1131 C 0.39002 0.63621 0.24322 0.0
C1132 C 0.32352 0.60257 0.2697 0.0
C1133 C 0.30629 0.60847 0.25264 0.0
C1134 C 0.31061 0.61693 0.22961 0.0
C1135 C 0.29372 0.62124 0.21355 0.0
C1136 C 0.27225 0.61716 0.22023 0.0
C1137 C 0.2681 0.60925 0.24357 0.0
C1138 C 0.28491 0.60492 0.25952 0.0
C1139 C 0.36703 0.65366 0.30918 0.0
O1140 O 0.39608 0.61162 0.33269 0.0
O1141 O 0.36393 0.59679 0.32004 0.0
O1142 O 0.44228 0.62805 0.2983 0.0
O1143 O 0.4227 0.64821 0.3217 0.0
O1144 O 0.41801 0.5974 0.27469 0.0
O1145 O 0.38865 0.59649 0.29234 0.0
O1146 O 0.37163 0.62727 0.24967 0.0
O1147 O 0.40589 0.63942 0.25884 0.0
O1148 O 0.32543 0.61462 0.28892 0.0
O1149 O 0.34209 0.5967 0.26071 0.0
O1150 O 0.35016 0.6418 0.31199 0.0
O1151 O 0.37862 0.64604 0.29241 0.0
H1152 H 0.43656 0.62381 0.36075 0.0
H1153 H 0.46359 0.62055 0.39292 0.0
H1154 H 0.51008 0.65212 0.34709 0.0
H1155 H 0.48326 0.65492 0.31517 0.0
H1156 H 0.32699 0.6199 0.22391 0.0
H1157 H 0.29754 0.62717 0.19567 0.0
H1158 H 0.25179 0.60629 0.24953 0.0
H1159 H 0.28122 0.59853 0.27725 0.0
Ho1160 Ho 0.13546 0.65626 0.04654 0.0
Ho1161 Ho 0.14533 0.60869 0.03814 0.0
C1162 C 0.1614 0.62876 0.08803 0.0
C1163 C 0.11981 0.69185 0.06387 0.0
C1164 C 0.12162 0.70632 0.08498 0.0
C1165 C 0.1076 0.72385 0.0869 0.0
C1166 C 0.10911 0.73816 0.10637 0.0
C1167 C 0.1247 0.73528 0.1245 0.0
C1168 C 0.1386 0.71744 0.12262 0.0
C1169 C 0.13708 0.70312 0.10306 0.0
C1170 C 0.17495 0.64835 0.02752 0.0
C1171 C 0.12646 0.63745 0.99337 0.0
C1172 C 0.15823 0.57115 1.02379 0.0
C1173 C 0.15319 0.55406 1.00622 0.0
C1174 C 0.14204 0.55819 0.9847 0.0
C1175 C 0.13823 0.54157 0.96809 0.0
C1176 C 0.14543 0.52052 0.97279 0.0
C1177 C 0.15609 0.51649 0.99474 0.0
C1178 C 0.15996 0.53308 1.01119 0.0
C1179 C 0.10806 0.61661 0.06154 0.0
O1180 O 0.14943 0.6459 0.08304 0.0
O1181 O 0.16467 0.61357 0.0717 0.0
O1182 O 0.13624 0.69099 0.04919 0.0
O1183 O 0.11134 0.67295 0.06769 0.0
O1184 O 0.16371 0.66547 1.023 0.0
O1185 O 0.16516 0.63734 0.04305 0.0
O1186 O 0.13559 0.61952 1.00099 0.0
O1187 O 0.12234 0.65362 1.00837 0.0
O1188 O 0.14436 0.57406 0.04119 0.0
O1189 O 0.16586 0.58922 1.01533 0.0
O1190 O 0.12029 0.6002 0.06536 0.0
O1191 O 0.11527 0.62735 0.04384 0.0
H1192 H 0.09557 0.72664 0.07312 0.0
H1193 H 0.09835 0.75181 0.10684 0.0
H1194 H 0.15065 0.71448 0.13631 0.0
H1195 H 0.14802 0.68965 0.10196 0.0
H1196 H 0.1365 0.57424 0.98065 0.0
H1197 H 0.13011 0.54534 0.95133 0.0
H1198 H 0.16149 0.50047 0.99926 0.0
H1199 H 0.16841 0.52952 0.02782 0.0
Ho1200 Ho 0.10495 0.38567 0.7967 0.0
Ho1201 Ho 0.15255 0.39559 0.78738 0.0
C1202 C 0.13323 0.41177 0.83765 0.0
C1203 C 0.06967 0.37001 0.81481 0.0
C1204 C 0.0554 0.37193 0.8361 0.0
C1205 C 0.03789 0.35792 0.83829 0.0
C1206 C 0.02376 0.35952 0.85792 0.0
C1207 C 0.02681 0.37519 0.87596 0.0
C1208 C 0.04464 0.38909 0.87381 0.0
C1209 C 0.05877 0.38748 0.85407 0.0
C1210 C 0.11266 0.42504 0.77749 0.0
C1211 C 0.12333 0.37587 0.74338 0.0
C1212 C 0.18937 0.40874 0.77128 0.0
C1213 C 0.20547 0.40397 0.75238 0.0
C1214 C 0.21521 0.42109 0.74016 0.0
C1215 C 0.23184 0.41738 0.72369 0.0
C1216 C 0.23923 0.3964 0.71911 0.0
C1217 C 0.22899 0.37916 0.73088 0.0
C1218 C 0.21228 0.3829 0.74736 0.0
C1219 C 0.14497 0.35847 0.81098 0.0
O1220 O 0.11594 0.39987 0.83295 0.0
O1221 O 0.1483 0.41483 0.82113 0.0
O1222 O 0.07024 0.38626 0.79991 0.0
O1223 O 0.08868 0.36174 0.81846 0.0
O1224 O 0.09536 0.41393 0.77341 0.0
O1225 O 0.12387 0.41523 0.79277 0.0
O1226 O 0.14141 0.38493 0.75068 0.0
O1227 O 0.10708 0.37238 0.75848 0.0
O1228 O 0.18717 0.39471 0.78866 0.0
O1229 O 0.17101 0.41682 0.76421 0.0
O1230 O 0.16154 0.37065 0.81444 0.0
O1231 O 0.13394 0.36564 0.7935 0.0
H1232 H 0.03496 0.34582 0.8246 0.0
H1233 H 0.0101 0.34877 0.85858 0.0
H1234 H 0.04774 0.4012 0.88741 0.0
H1235 H 0.07222 0.39842 0.85276 0.0
H1236 H 0.2102 0.43746 0.74369 0.0
H1237 H 0.23897 0.43102 0.71459 0.0
H1238 H 0.2343 0.36281 0.72789 0.0
H1239 H 0.205 0.36937 0.75653 0.0
Ho1240 Ho 0.37628 0.35468 0.54663 0.0
Ho1241 Ho 0.36644 0.40253 0.538 0.0
C1242 C 0.35095 0.38293 0.58832 0.0
C1243 C 0.39211 0.31934 0.56424 0.0
C1244 C 0.3905 0.30508 0.58554 0.0
C1245 C 0.40476 0.28776 0.58763 0.0
C1246 C 0.40338 0.27357 0.60719 0.0
C1247 C 0.38768 0.27636 0.62527 0.0
C1248 C 0.37357 0.29401 0.62325 0.0
C1249 C 0.37496 0.30821 0.60359 0.0
C1250 C 0.33678 0.36274 0.52798 0.0
C1251 C 0.38514 0.37325 0.49338 0.0
C1252 C 0.35386 0.43967 0.52233 0.0
C1253 C 0.35828 0.45532 0.50282 0.0
C1254 C 0.34107 0.46344 0.48931 0.0
C1255 C 0.34435 0.47968 0.47226 0.0
C1256 C 0.36496 0.48834 0.46839 0.0
C1257 C 0.38233 0.47975 0.4815 0.0
C1258 C 0.37903 0.46342 0.49853 0.0
C1259 C 0.40375 0.3943 0.56093 0.0
O1260 O 0.3625 0.36553 0.5831 0.0
O1261 O 0.34784 0.39831 0.57221 0.0
O1262 O 0.37556 0.32 0.54974 0.0
O1263 O 0.40059 0.3383 0.56772 0.0
O1264 O 0.34778 0.34542 0.52356 0.0
O1265 O 0.34675 0.37382 0.54331 0.0
O1266 O 0.37597 0.3912 0.50095 0.0
O1267 O 0.38928 0.35713 0.50837 0.0
O1268 O 0.36865 0.43711 0.53883 0.0
O1269 O 0.34462 0.42159 0.5162 0.0
O1270 O 0.39172 0.41085 0.56506 0.0
O1271 O 0.39621 0.38363 0.54337 0.0
H1272 H 0.41686 0.28502 0.57389 0.0
H1273 H 0.41431 0.26007 0.60776 0.0
H1274 H 0.36143 0.29691 0.63689 0.0
H1275 H 0.36384 0.32152 0.60238 0.0
H1276 H 0.32493 0.45747 0.49226 0.0
H1277 H 0.33066 0.48552 0.46218 0.0
H1278 H 0.39839 0.48608 0.47914 0.0
H1279 H 0.39265 0.4575 0.50868 0.0
H1280 H 0.25006 0.14899 0.19405 0.0
H1281 H 0.2704 0.08375 0.20732 0.0
H1282 H 0.27789 0.15256 0.16314 0.0
H1283 H 0.29869 0.08766 0.17743 0.0
H1284 H 0.32606 0.09216 0.10112 0.0
H1285 H 0.30099 0.08974 0.13447 0.0
H1286 H 0.31675 0.15459 0.15579 0.0
H1287 H 0.34175 0.15724 0.12169 0.0
C1288 C 0.26048 0.13544 0.19047 0.0
C1289 C 0.25787 0.11605 0.2032 0.0
C1290 C 0.27665 0.13759 0.17297 0.0
C1291 C 0.29056 0.1204 0.16772 0.0
C1292 C 0.28814 0.10118 0.18075 0.0
C1293 C 0.27201 0.09901 0.19816 0.0
C1294 C 0.32441 0.1059 0.11299 0.0
C1295 C 0.33595 0.12492 0.10863 0.0
C1296 C 0.31005 0.10445 0.13228 0.0
C1297 C 0.30678 0.12196 0.1479 0.0
C1298 C 0.31869 0.14087 0.14396 0.0
C1299 C 0.33319 0.14232 0.12456 0.0
H1300 H 0.09956 0.08884 0.36761 0.0
H1301 H 0.16852 0.08513 0.36044 0.0
H1302 H 0.10102 0.06315 0.40114 0.0
H1303 H 0.16997 0.05959 0.39353 0.0
H1304 H 0.16871 0.02564 0.46491 0.0
H1305 H 0.1643 0.05555 0.43707 0.0
H1306 H 0.10962 0.02393 0.40492 0.0
H1307 H 0.11413 0.99379 0.43272 0.0
C1308 C 0.11504 0.08291 0.37349 0.0
C1309 C 0.13393 0.089 0.36136 0.0
C1310 C 0.11586 0.06803 0.39251 0.0
C1311 C 0.1356 0.05924 0.39995 0.0
C1312 C 0.15451 0.06616 0.38847 0.0
C1313 C 0.15367 0.08077 0.36939 0.0
C1314 C 0.15577 0.02498 0.45187 0.0
C1315 C 0.14199 0.0071 0.45084 0.0
C1316 C 0.15319 0.0422 0.43597 0.0
C1317 C 0.1367 0.04208 0.41865 0.0
C1318 C 0.12235 0.02463 0.41821 0.0
C1319 C 0.12497 0.00732 0.43412 0.0
H1320 H 0.23969 0.87179 0.71707 0.0
H1321 H 0.27321 0.91265 0.66658 0.0
H1322 H 0.21005 0.86808 0.68835 0.0
H1323 H 0.24379 0.90893 0.63801 0.0
H1324 H 0.1801 0.91876 0.60298 0.0
H1325 H 0.20701 0.92105 0.6346 0.0
H1326 H 0.2 0.85318 0.64849 0.0
H1327 H 0.17261 0.85094 0.61686 0.0
C1328 C 0.24086 0.87977 0.69975 0.0
C1329 C 0.25875 0.8927 0.69422 0.0
C1330 C 0.22385 0.87767 0.68331 0.0
C1331 C 0.22436 0.88847 0.66102 0.0
C1332 C 0.24257 0.90085 0.65527 0.0
C1333 C 0.25949 0.90295 0.67164 0.0
C1334 C 0.18404 0.90434 0.61296 0.0
C1335 C 0.17431 0.88462 0.60722 0.0
C1336 C 0.19963 0.90563 0.63099 0.0
C1337 C 0.20604 0.88722 0.64374 0.0
C1338 C 0.19545 0.86768 0.639 0.0
C1339 C 0.17971 0.8664 0.62091 0.0
H1340 H 0.40871 0.92061 0.86886 0.0
H1341 H 0.34128 0.92997 0.85384 0.0
H1342 H 0.40622 0.94621 0.90238 0.0
H1343 H 0.33889 0.95551 0.88696 0.0
H1344 H 0.33677 0.98826 0.95953 0.0
H1345 H 0.3408 0.95874 0.93101 0.0
H1346 H 0.40068 0.98581 0.90605 0.0
H1347 H 0.39657 0.01556 0.9345 0.0
C1348 C 0.3933 0.92783 0.87295 0.0
C1349 C 0.3752 0.92329 0.85864 0.0
C1350 C 0.39193 0.94264 0.89199 0.0
C1351 C 0.37238 0.95299 0.89727 0.0
C1352 C 0.35414 0.94771 0.88356 0.0
C1353 C 0.35554 0.93311 0.86447 0.0
C1354 C 0.35076 0.98803 0.94789 0.0
C1355 C 0.36619 1.00449 0.94911 0.0
C1356 C 0.35311 0.97103 0.9316 0.0
C1357 C 0.371 0.96997 0.91616 0.0
C1358 C 0.38682 0.98602 0.91789 0.0
C1359 C 0.38444 1.0031 0.93417 0.0
H1360 H 0.33067 0.91876 0.45035 0.0
H1361 H 0.3394 0.85123 0.43544 0.0
H1362 H 0.30394 0.92092 0.41854 0.0
H1363 H 0.3122 0.85335 0.40359 0.0
H1364 H 0.27292 0.8721 0.33479 0.0
H1365 H 0.30232 0.86855 0.36384 0.0
H1366 H 0.26738 0.90821 0.41445 0.0
H1367 H 0.23818 0.91176 0.38556 0.0
C1368 C 0.32703 0.90437 0.44012 0.0
C1369 C 0.33707 0.88477 0.44562 0.0
C1370 C 0.31154 0.90559 0.42197 0.0
C1371 C 0.30555 0.88722 0.40884 0.0
C1372 C 0.31643 0.86781 0.41337 0.0
C1373 C 0.33206 0.8666 0.43159 0.0
C1374 C 0.27144 0.87985 0.35224 0.0
C1375 C 0.25326 0.89239 0.35775 0.0
C1376 C 0.28831 0.87784 0.36886 0.0
C1377 C 0.28738 0.88836 0.39134 0.0
C1378 C 0.26891 0.90035 0.39706 0.0
C1379 C 0.25212 0.90236 0.3805 0.0
H1380 H 0.39789 0.9945 0.61965 0.0
H1381 H 0.33881 0.02265 0.59385 0.0
H1382 H 0.40218 0.02428 0.64803 0.0
H1383 H 0.34303 0.0522 0.62227 0.0
H1384 H 0.34292 0.08148 0.69904 0.0
H1385 H 0.34059 0.05579 0.66611 0.0
H1386 H 0.40835 0.0637 0.65195 0.0
H1387 H 0.41075 0.08944 0.68534 0.0
C1388 C 0.38596 0.00715 0.61979 0.0
C1389 C 0.36785 0.00598 0.60465 0.0
C1390 C 0.38845 0.02425 0.63604 0.0
C1391 C 0.37287 0.04056 0.63755 0.0
C1392 C 0.35513 0.03972 0.62188 0.0
C1393 C 0.35268 0.0227 0.60564 0.0
C1394 C 0.3573 0.07801 0.68874 0.0
C1395 C 0.37703 0.08751 0.6949 0.0
C1396 C 0.35594 0.06331 0.66974 0.0
C1397 C 0.3743 0.0576 0.65641 0.0
C1398 C 0.39396 0.0676 0.66203 0.0
C1399 C 0.39528 0.08251 0.681 0.0
H1400 H 0.17704 0.0935 0.94411 0.0
H1401 H 0.17278 0.16231 0.93593 0.0
H1402 H 0.2027 0.09183 0.91109 0.0
H1403 H 0.19853 0.1606 0.90243 0.0
H1404 H 0.2676 0.14812 0.87004 0.0
H1405 H 0.23768 0.15252 0.89824 0.0
H1406 H 0.20676 0.09674 0.86761 0.0
H1407 H 0.23647 0.09242 0.8394 0.0
C1408 C 0.18131 0.10827 0.93497 0.0
C1409 C 0.17286 0.12804 0.9427 0.0
C1410 C 0.19599 0.10729 0.91592 0.0
C1411 C 0.20276 0.12609 0.90413 0.0
C1412 C 0.19379 0.14585 0.9113 0.0
C1413 C 0.17887 0.14681 0.9303 0.0
C1414 C 0.25428 0.13699 0.86908 0.0
C1415 C 0.25465 0.11973 0.85264 0.0
C1416 C 0.23708 0.13954 0.88522 0.0
C1417 C 0.21988 0.12488 0.88532 0.0
C1418 C 0.21992 0.10809 0.86832 0.0
C1419 C 0.23703 0.10557 0.8522 0.0
H1420 H 0.1024 0.92237 0.1839 0.0
H1421 H 0.16964 0.9321 0.19964 0.0
H1422 H 0.10457 0.94935 0.15185 0.0
H1423 H 0.17188 0.95858 0.16759 0.0
H1424 H 0.16263 0.02362 0.13293 0.0
H1425 H 0.15918 0.99483 0.16234 0.0
H1426 H 0.11986 0.95893 0.11231 0.0
H1427 H 0.12327 0.98794 0.08279 0.0
C1428 C 0.11772 0.92991 0.18023 0.0
C1429 C 0.13578 0.92521 0.19452 0.0
C1430 C 0.11897 0.94541 0.16187 0.0
C1431 C 0.13831 0.95646 0.15744 0.0
C1432 C 0.15658 0.95084 0.17091 0.0
C1433 C 0.15533 0.93548 0.1892 0.0
C1434 C 0.15334 0.00956 0.12812 0.0
C1435 C 0.14339 0.00805 0.1054 0.0
C1436 C 0.15138 0.99299 0.14498 0.0
C1437 C 0.13948 0.97438 0.1396 0.0
C1438 C 0.12905 0.97306 0.11711 0.0
C1439 C 0.13099 0.98971 0.1002 0.0
H1440 H 0.73928 0.87124 0.83462 0.0
H1441 H 0.77334 0.91176 0.88505 0.0
H1442 H 0.70981 0.86757 0.86364 0.0
H1443 H 0.74408 0.90809 0.91389 0.0
H1444 H 0.68053 0.91872 0.94908 0.0
H1445 H 0.70735 0.92063 0.91729 0.0
H1446 H 0.69985 0.85274 0.90377 0.0
H1447 H 0.67252 0.85086 0.93562 0.0
C1448 C 0.74061 0.87915 0.85199 0.0
C1449 C 0.75859 0.89199 0.85741 0.0
C1450 C 0.72369 0.87707 0.86859 0.0
C1451 C 0.7244 0.88782 0.89094 0.0
C1452 C 0.74272 0.90006 0.89659 0.0
C1453 C 0.75954 0.90214 0.88006 0.0
C1454 C 0.68435 0.9042 0.93916 0.0
C1455 C 0.67452 0.88459 0.94507 0.0
C1456 C 0.69988 0.90528 0.92103 0.0
C1457 C 0.70613 0.88675 0.90834 0.0
C1458 C 0.69543 0.86731 0.91323 0.0
C1459 C 0.67974 0.86624 0.93144 0.0
H1460 H 0.83734 0.98803 0.59223 0.0
H1461 H 0.89683 0.01619 0.61695 0.0
H1462 H 0.84153 0.95897 0.62121 0.0
H1463 H 0.9011 0.98688 0.64585 0.0
H1464 H 0.90973 0.92212 0.68385 0.0
H1465 H 0.90712 0.94753 0.65023 0.0
H1466 H 0.83953 0.95585 0.66511 0.0
H1467 H 0.84206 0.93048 0.69828 0.0
C1468 C 0.85129 0.9881 0.60391 0.0
C1469 C 0.8666 1.00467 0.60241 0.0
C1470 C 0.85373 0.97135 0.62047 0.0
C1471 C 0.87159 0.97063 0.63596 0.0
C1472 C 0.88727 0.98681 0.634 0.0
C1473 C 0.88479 1.00364 0.61745 0.0
C1474 C 0.89425 0.92908 0.67964 0.0
C1475 C 0.87611 0.92427 0.6938 0.0
C1476 C 0.8928 0.9438 0.66053 0.0
C1477 C 0.87313 0.95381 0.65503 0.0
C1478 C 0.85488 0.94831 0.66864 0.0
C1479 C 0.85636 0.9338 0.68778 0.0
H1480 H 0.77426 0.09078 0.34038 0.0
H1481 H 0.74406 0.14752 0.36978 0.0
H1482 H 0.80401 0.09509 0.36847 0.0
H1483 H 0.77402 0.15191 0.39787 0.0
H1484 H 0.83891 0.16119 0.43548 0.0
H1485 H 0.81329 0.15937 0.40193 0.0
H1486 H 0.80782 0.09084 0.41206 0.0
H1487 H 0.83337 0.09262 0.44513 0.0
C1488 C 0.77392 0.10416 0.35288 0.0
C1489 C 0.75655 0.11861 0.35303 0.0
C1490 C 0.79105 0.10668 0.36893 0.0
C1491 C 0.79135 0.12375 0.38556 0.0
C1492 C 0.77441 0.1387 0.38514 0.0
C1493 C 0.7572 0.13615 0.36906 0.0
C1494 C 0.83257 0.1457 0.43017 0.0
C1495 C 0.83817 0.12705 0.44299 0.0
C1496 C 0.81772 0.14469 0.41113 0.0
C1497 C 0.80842 0.12497 0.40437 0.0
C1498 C 0.8148 0.10626 0.41658 0.0
C1499 C 0.82941 0.1073 0.43565 0.0
H1500 H 0.61238 0.99759 0.11431 0.0
H1501 H 0.67528 0.02156 0.09536 0.0
H1502 H 0.6087 0.0262 0.14434 0.0
H1503 H 0.67126 0.05047 0.12456 0.0
H1504 H 0.66865 0.07875 0.20114 0.0
H1505 H 0.67113 0.05328 0.16807 0.0
H1506 H 0.60487 0.06554 0.14963 0.0
H1507 H 0.60225 0.09098 0.18328 0.0
C1508 C 0.62537 0.00898 0.11647 0.0
C1509 C 0.64414 0.0072 0.10243 0.0
C1510 C 0.62315 0.02555 0.13346 0.0
C1511 C 0.63969 0.04065 0.13688 0.0
C1512 C 0.65829 0.03902 0.12257 0.0
C1513 C 0.66049 0.02253 0.10562 0.0
C1514 C 0.65463 0.07625 0.18992 0.0
C1515 C 0.63522 0.0869 0.19495 0.0
C1516 C 0.65609 0.06168 0.17082 0.0
C1517 C 0.63819 0.05728 0.15619 0.0
C1518 C 0.6189 0.06838 0.16074 0.0
C1519 C 0.61745 0.08312 0.17986 0.0
H1520 H 0.77175 0.09731 0.67005 0.0
H1521 H 0.73806 0.13944 0.71916 0.0
H1522 H 0.74292 0.10114 0.64076 0.0
H1523 H 0.70898 0.1432 0.68976 0.0
H1524 H 0.67279 0.16016 0.61772 0.0
H1525 H 0.69969 0.15774 0.64984 0.0
H1526 H 0.7062 0.08976 0.63613 0.0
H1527 H 0.67982 0.09225 0.60398 0.0
C1528 C 0.75811 0.1073 0.67466 0.0
C1529 C 0.75716 0.11791 0.69705 0.0
C1530 C 0.74151 0.10946 0.65788 0.0
C1531 C 0.72342 0.12223 0.66301 0.0
C1532 C 0.7227 0.13332 0.68516 0.0
C1533 C 0.73938 0.13118 0.70199 0.0
C1534 C 0.67969 0.14465 0.6219 0.0
C1535 C 0.6743 0.12645 0.60813 0.0
C1536 C 0.69515 0.14326 0.64028 0.0
C1537 C 0.70546 0.12363 0.64526 0.0
C1538 C 0.69907 0.10526 0.63236 0.0
C1539 C 0.68377 0.10666 0.61403 0.0
H1540 H 0.67311 0.98853 0.46005 0.0
H1541 H 0.61404 0.01658 0.43409 0.0
H1542 H 0.66896 0.95892 0.43168 0.0
H1543 H 0.60981 0.98675 0.40578 0.0
H1544 H 0.60117 0.92157 0.36875 0.0
H1545 H 0.60362 0.94735 0.40208 0.0
H1546 H 0.67138 0.95516 0.38785 0.0
H1547 H 0.66901 0.9294 0.35497 0.0
C1548 C 0.65926 0.98845 0.44823 0.0
C1549 C 0.64407 1.00515 0.44917 0.0
C1550 C 0.65684 0.9714 0.43203 0.0
C1551 C 0.63912 0.97051 0.41635 0.0
C1552 C 0.62353 0.98681 0.41779 0.0
C1553 C 0.62598 1.00395 0.434 0.0
C1554 C 0.61665 0.92848 0.37307 0.0
C1555 C 0.63488 0.92344 0.35916 0.0
C1556 C 0.61801 0.94342 0.392 0.0
C1557 C 0.63768 0.95341 0.39756 0.0
C1558 C 0.65602 0.94764 0.38425 0.0
C1559 C 0.65463 0.93291 0.36528 0.0
H1560 H 0.83017 0.91881 0.1031 0.0
H1561 H 0.83943 0.85134 0.11772 0.0
H1562 H 0.80333 0.92071 0.13487 0.0
H1563 H 0.8121 0.85318 0.14951 0.0
H1564 H 0.77252 0.87148 0.21836 0.0
H1565 H 0.80199 0.86819 0.18929 0.0
H1566 H 0.76688 0.90777 0.13894 0.0
H1567 H 0.73762 0.91107 0.16786 0.0
C1568 C 0.82662 0.90438 0.11325 0.0
C1569 C 0.83685 0.88487 0.10768 0.0
C1570 C 0.81106 0.90544 0.13137 0.0
C1571 C 0.80518 0.887 0.14441 0.0
C1572 C 0.81623 0.86769 0.1398 0.0
C1573 C 0.83194 0.86664 0.12161 0.0
C1574 C 0.77102 0.87927 0.20097 0.0
C1575 C 0.75278 0.89172 0.19554 0.0
C1576 C 0.78792 0.8774 0.18433 0.0
C1577 C 0.78697 0.88797 0.16191 0.0
C1578 C 0.76843 0.89987 0.15628 0.0
C1579 C 0.75161 0.90174 0.17285 0.0
H1580 H 0.84182 0.08375 0.85813 0.0
H1581 H 0.91032 0.08991 0.8681 0.0
H1582 H 0.84015 0.05826 0.89125 0.0
H1583 H 0.90861 0.06436 0.90169 0.0
H1584 H 0.89737 0.99513 0.93386 0.0
H1585 H 0.90149 0.02506 0.90571 0.0
H1586 H 0.84432 0.05454 0.9349 0.0
H1587 H 0.84027 0.02483 0.96309 0.0
C1588 C 0.8565 0.07994 0.86768 0.0
C1589 C 0.87621 0.08885 0.86041 0.0
C1590 C 0.85553 0.06536 0.88679 0.0
C1591 C 0.87425 0.05918 0.8991 0.0
C1592 C 0.89392 0.06864 0.89241 0.0
C1593 C 0.89487 0.08345 0.87334 0.0
C1594 C 0.88586 0.00815 0.93453 0.0
C1595 C 0.86831 0.00738 0.95054 0.0
C1596 C 0.88826 0.02534 0.91841 0.0
C1597 C 0.87314 0.04213 0.91792 0.0
C1598 C 0.85604 0.0417 0.93451 0.0
C1599 C 0.85367 0.02459 0.95061 0.0
H1600 H 0.74525 0.64784 0.68655 0.0
H1601 H 0.77667 0.59178 0.71576 0.0
H1602 H 0.77422 0.65176 0.65699 0.0
H1603 H 0.8058 0.59608 0.6868 0.0
H1604 H 0.83439 0.59303 0.60978 0.0
H1605 H 0.80912 0.59124 0.64319 0.0
H1606 H 0.81333 0.66 0.65218 0.0
H1607 H 0.83867 0.66182 0.6183 0.0
C1608 C 0.75837 0.63643 0.68676 0.0
C1609 C 0.75856 0.61945 0.70351 0.0
C1610 C 0.77511 0.63883 0.67001 0.0
C1611 C 0.79233 0.62422 0.66951 0.0
C1612 C 0.7927 0.60751 0.68656 0.0
C1613 C 0.77606 0.60517 0.70332 0.0
C1614 C 0.8302 0.60777 0.61907 0.0
C1615 C 0.83856 0.62757 0.61136 0.0
C1616 C 0.81575 0.60673 0.63833 0.0
C1617 C 0.80912 0.62548 0.65034 0.0
C1618 C 0.81798 0.64528 0.64315 0.0
C1619 C 0.83267 0.6463 0.62393 0.0
H1620 H 0.6014 0.59045 0.86998 0.0
H1621 H 0.66862 0.57966 0.85496 0.0
H1622 H 0.60343 0.5652 0.90384 0.0
H1623 H 0.67055 0.5544 0.88821 0.0
H1624 H 0.67314 0.52315 0.96104 0.0
H1625 H 0.66926 0.55191 0.93172 0.0
H1626 H 0.60809 0.52588 0.9095 0.0
H1627 H 0.61161 0.49738 0.93963 0.0
C1628 C 0.61665 0.58298 0.87409 0.0
C1629 C 0.63484 0.58709 0.85974 0.0
C1630 C 0.61777 0.56833 0.89332 0.0
C1631 C 0.63714 0.5577 0.89872 0.0
C1632 C 0.65542 0.56244 0.88481 0.0
C1633 C 0.65428 0.57689 0.86561 0.0
C1634 C 0.65867 0.5237 0.95022 0.0
C1635 C 0.64269 0.50789 0.95276 0.0
C1636 C 0.65655 0.54011 0.93321 0.0
C1637 C 0.63841 0.54119 0.91816 0.0
C1638 C 0.62219 0.52565 0.92095 0.0
C1639 C 0.62433 0.50914 0.938 0.0
H1640 H 0.67259 0.35163 0.11925 0.0
H1641 H 0.6801 0.41955 0.106 0.0
H1642 H 0.69957 0.35377 0.15137 0.0
H1643 H 0.70653 0.42175 0.13812 0.0
H1644 H 0.77199 0.41385 0.17186 0.0
H1645 H 0.74321 0.41004 0.14249 0.0
H1646 H 0.70895 0.36831 0.19147 0.0
H1647 H 0.73799 0.37206 0.22095 0.0
C1648 C 0.67964 0.36708 0.12351 0.0
C1649 C 0.67436 0.38537 0.10988 0.0
C1650 C 0.69513 0.36831 0.1419 0.0
C1651 C 0.70557 0.38786 0.147 0.0
C1652 C 0.69929 0.40631 0.13424 0.0
C1653 C 0.68397 0.40508 0.11592 0.0
C1654 C 0.75829 0.40394 0.17645 0.0
C1655 C 0.75723 0.39344 0.19887 0.0
C1656 C 0.74173 0.40178 0.15962 0.0
C1657 C 0.72356 0.38912 0.16474 0.0
C1658 C 0.72273 0.37811 0.18689 0.0
C1659 C 0.73939 0.38024 0.20377 0.0
H1660 H 0.84104 0.48523 0.46651 0.0
H1661 H 0.89597 0.51759 0.43567 0.0
H1662 H 0.84546 0.45602 0.43766 0.0
H1663 H 0.90051 0.48812 0.40693 0.0
H1664 H 0.91107 0.42366 0.36854 0.0
H1665 H 0.90915 0.44898 0.40243 0.0
H1666 H 0.84032 0.45261 0.3939 0.0
H1667 H 0.84221 0.42739 0.36043 0.0
C1668 C 0.85404 0.48618 0.45354 0.0
C1669 C 0.86796 0.50398 0.45325 0.0
C1670 C 0.85662 0.46934 0.43706 0.0
C1671 C 0.87326 0.46977 0.41989 0.0
C1672 C 0.88767 0.48717 0.4201 0.0
C1673 C 0.88503 0.5041 0.43656 0.0
C1674 C 0.89551 0.42953 0.37426 0.0
C1675 C 0.87679 0.42351 0.36178 0.0
C1676 C 0.89444 0.44421 0.3935 0.0
C1677 C 0.87459 0.4529 0.40081 0.0
C1678 C 0.85584 0.44611 0.38893 0.0
C1679 C 0.85694 0.43169 0.36964 0.0
H1680 H 0.74543 0.3606 0.8671 0.0
H1681 H 0.77433 0.41897 0.8403 0.0
H1682 H 0.77425 0.3573 0.89689 0.0
H1683 H 0.80335 0.41526 0.86935 0.0
H1684 H 0.83174 0.41793 0.94595 0.0
H1685 H 0.80633 0.41917 0.91277 0.0
H1686 H 0.81351 0.35083 0.90221 0.0
H1687 H 0.83897 0.34952 0.93597 0.0
C1688 C 0.75796 0.37266 0.86746 0.0
C1689 C 0.75748 0.39008 0.8513 0.0
C1690 C 0.77463 0.37062 0.88433 0.0
C1691 C 0.79112 0.38603 0.88554 0.0
C1692 C 0.79082 0.4032 0.86908 0.0
C1693 C 0.77425 0.40521 0.85224 0.0
C1694 C 0.82816 0.40316 0.9364 0.0
C1695 C 0.83739 0.38362 0.94366 0.0
C1696 C 0.81362 0.4039 0.91725 0.0
C1697 C 0.80781 0.3851 0.90482 0.0
C1698 C 0.8175 0.36557 0.91158 0.0
C1699 C 0.83225 0.36486 0.93073 0.0
H1700 H 0.9113 0.58718 0.18669 0.0
H1701 H 0.8423 0.58525 0.19417 0.0
H1702 H 0.90921 0.5601 0.15457 0.0
H1703 H 0.84016 0.55876 0.16204 0.0
H1704 H 0.8451 0.49207 0.13083 0.0
H1705 H 0.84929 0.5212 0.15971 0.0
H1706 H 0.89667 0.55082 0.11345 0.0
H1707 H 0.89252 0.5214 0.08443 0.0
C1708 C 0.89568 0.58141 0.18107 0.0
C1709 C 0.87698 0.58819 0.19312 0.0
C1710 C 0.89447 0.56584 0.16272 0.0
C1711 C 0.87455 0.55687 0.1561 0.0
C1712 C 0.85582 0.56481 0.16715 0.0
C1713 C 0.85704 0.58017 0.18545 0.0
C1714 C 0.85635 0.50483 0.12672 0.0
C1715 C 0.86829 0.50449 0.10518 0.0
C1716 C 0.85873 0.5216 0.14327 0.0
C1717 C 0.87306 0.5386 0.13874 0.0
C1718 C 0.88553 0.53798 0.11754 0.0
C1719 C 0.88317 0.5211 0.10093 0.0
H1720 H 0.73896 0.58547 0.34353 0.0
H1721 H 0.76123 0.64941 0.3606 0.0
H1722 H 0.71051 0.58905 0.3733 0.0
H1723 H 0.73319 0.65261 0.39135 0.0
H1724 H 0.66937 0.65733 0.43288 0.0
H1725 H 0.69418 0.65537 0.39851 0.0
H1726 H 0.70843 0.58942 0.41646 0.0
H1727 H 0.68357 0.5912 0.45009 0.0
C1728 C 0.73772 0.60039 0.35349 0.0
C1729 C 0.75247 0.61715 0.34958 0.0
C1730 C 0.72149 0.60235 0.37081 0.0
C1731 C 0.71958 0.62107 0.38487 0.0
C1732 C 0.73406 0.63803 0.38071 0.0
C1733 C 0.75033 0.63608 0.3633 0.0
C1734 C 0.67754 0.64233 0.42919 0.0
C1735 C 0.67447 0.62444 0.44428 0.0
C1736 C 0.69192 0.64127 0.40965 0.0
C1737 C 0.70337 0.62225 0.40472 0.0
C1738 C 0.69973 0.60425 0.41944 0.0
C1739 C 0.6855 0.60532 0.43889 0.0
H1740 H 0.6006 0.42097 0.68569 0.0
H1741 H 0.66848 0.42874 0.69907 0.0
H1742 H 0.60315 0.44621 0.65183 0.0
H1743 H 0.67098 0.45385 0.66564 0.0
H1744 H 0.67301 0.48559 0.59271 0.0
H1745 H 0.6684 0.45648 0.62157 0.0
H1746 H 0.60987 0.48574 0.6474 0.0
H1747 H 0.61457 0.51512 0.61864 0.0
C1748 C 0.6161 0.42775 0.68117 0.0
C1749 C 0.63433 0.42287 0.6951 0.0
C1750 C 0.61753 0.44236 0.66193 0.0
C1751 C 0.63726 0.45212 0.65608 0.0
C1752 C 0.65558 0.4465 0.66946 0.0
C1753 C 0.65412 0.43215 0.68873 0.0
C1754 C 0.65919 0.48594 0.60461 0.0
C1755 C 0.64434 0.50293 0.60353 0.0
C1756 C 0.65651 0.46916 0.62109 0.0
C1757 C 0.63884 0.46883 0.63691 0.0
C1758 C 0.62354 0.48539 0.6353 0.0
C1759 C 0.62627 0.50226 0.61882 0.0
H1760 H 0.17297 0.3507 0.43561 0.0
H1761 H 0.17807 0.41943 0.44429 0.0
H1762 H 0.19831 0.35231 0.40167 0.0
H1763 H 0.20324 0.42101 0.41074 0.0
H1764 H 0.23491 0.42003 0.33761 0.0
H1765 H 0.20595 0.41593 0.36684 0.0
H1766 H 0.23773 0.3605 0.39696 0.0
H1767 H 0.26659 0.36428 0.3672 0.0
C1768 C 0.17918 0.36616 0.43001 0.0
C1769 C 0.17353 0.38494 0.44264 0.0
C1770 C 0.19384 0.36706 0.41076 0.0
C1771 C 0.20286 0.38679 0.40356 0.0
C1772 C 0.19647 0.40559 0.41563 0.0
C1773 C 0.18208 0.40467 0.43496 0.0
C1774 C 0.2356 0.40675 0.35019 0.0
C1775 C 0.25313 0.3925 0.35005 0.0
C1776 C 0.21906 0.40451 0.36709 0.0
C1777 C 0.21954 0.38792 0.38428 0.0
C1778 C 0.23678 0.37333 0.38382 0.0
C1779 C 0.25344 0.37565 0.36696 0.0
H1780 H 0.41172 0.42315 0.18641 0.0
H1781 H 0.34308 0.42832 0.19594 0.0
H1782 H 0.40988 0.44871 0.15281 0.0
H1783 H 0.34127 0.4538 0.1628 0.0
H1784 H 0.34144 0.48679 0.09065 0.0
H1785 H 0.34577 0.4573 0.11905 0.0
H1786 H 0.40207 0.48801 0.14869 0.0
H1787 H 0.39764 0.51775 0.12034 0.0
C1788 C 0.39622 0.42939 0.18106 0.0
C1789 C 0.37754 0.4237 0.19384 0.0
C1790 C 0.39519 0.44421 0.162 0.0
C1791 C 0.37543 0.45337 0.15517 0.0
C1792 C 0.35671 0.44692 0.16737 0.0
C1793 C 0.35777 0.43236 0.18648 0.0
C1794 C 0.35471 0.48736 0.10328 0.0
C1795 C 0.369 0.50486 0.1034 0.0
C1796 C 0.35724 0.47037 0.1195 0.0
C1797 C 0.37418 0.47034 0.13626 0.0
C1798 C 0.38897 0.48742 0.13584 0.0
C1799 C 0.3864 0.5045 0.11961 0.0
H1800 H 0.27498 0.58845 0.84263 0.0
H1801 H 0.24634 0.64739 0.86832 0.0
H1802 H 0.30406 0.5926 0.87164 0.0
H1803 H 0.27567 0.65163 0.89725 0.0
H1804 H 0.34053 0.66024 0.93537 0.0
H1805 H 0.31512 0.65785 0.90168 0.0
H1806 H 0.30698 0.59013 0.9156 0.0
H1807 H 0.33231 0.59243 0.94885 0.0
C1808 C 0.27481 0.60227 0.85452 0.0
C1809 C 0.25809 0.61743 0.85331 0.0
C1810 C 0.29157 0.60469 0.8711 0.0
C1811 C 0.29215 0.62238 0.88687 0.0
C1812 C 0.27584 0.63793 0.88518 0.0
C1813 C 0.25899 0.63547 0.86861 0.0
C1814 C 0.3336 0.64478 0.93092 0.0
C1815 C 0.33843 0.62653 0.94484 0.0
C1816 C 0.31889 0.64346 0.91178 0.0
C1817 C 0.30894 0.62381 0.906 0.0
C1818 C 0.31447 0.60546 0.91936 0.0
C1819 C 0.32896 0.60681 0.93854 0.0
H1820 H 0.17 0.5793 0.69883 0.0
H1821 H 0.1033 0.59206 0.68286 0.0
H1822 H 0.17176 0.55436 0.66527 0.0
H1823 H 0.10523 0.56715 0.64857 0.0
H1824 H 0.11205 0.50003 0.61096 0.0
H1825 H 0.10874 0.52814 0.64162 0.0
H1826 H 0.17145 0.55218 0.62206 0.0
H1827 H 0.17516 0.5237 0.59236 0.0
C1828 C 0.15574 0.57703 0.68792 0.0
C1829 C 0.13648 0.58768 0.69363 0.0
C1830 C 0.1568 0.56276 0.66851 0.0
C1831 C 0.13865 0.55869 0.65416 0.0
C1832 C 0.11946 0.56975 0.65942 0.0
C1833 C 0.11841 0.58419 0.6789 0.0
C1834 C 0.12517 0.51125 0.6133 0.0
C1835 C 0.1439 0.50949 0.59918 0.0
C1836 C 0.12314 0.52756 0.63066 0.0
C1837 C 0.13984 0.54243 0.63438 0.0
C1838 C 0.15836 0.54088 0.61991 0.0
C1839 C 0.16039 0.52464 0.60264 0.0
H1840 H 0.18001 0.59352 0.1077 0.0
H1841 H 0.17282 0.66181 0.11863 0.0
H1842 H 0.20543 0.5919 0.14084 0.0
H1843 H 0.19828 0.66013 0.15237 0.0
H1844 H 0.26632 0.6499 0.18746 0.0
H1845 H 0.23751 0.65359 0.15771 0.0
H1846 H 0.2084 0.59526 0.18426 0.0
H1847 H 0.23742 0.59115 0.21322 0.0
C1848 C 0.1836 0.60818 0.11745 0.0
C1849 C 0.17437 0.62781 0.11047 0.0
C1850 C 0.19815 0.60723 0.13658 0.0
C1851 C 0.20397 0.62588 0.14928 0.0
C1852 C 0.19429 0.64549 0.14279 0.0
C1853 C 0.17953 0.64642 0.12365 0.0
C1854 C 0.2538 0.63784 0.18688 0.0
C1855 C 0.25427 0.62019 0.20273 0.0
C1856 C 0.23713 0.6401 0.17004 0.0
C1857 C 0.22064 0.6247 0.16856 0.0
C1858 C 0.22093 0.60732 0.18473 0.0
C1859 C 0.23751 0.60508 0.20153 0.0
H1860 H 0.10146 0.42045 0.87117 0.0
H1861 H 0.16807 0.43321 0.85467 0.0
H1862 H 0.10354 0.4454 0.90539 0.0
H1863 H 0.16998 0.4582 0.88811 0.0
H1864 H 0.17396 0.48878 0.96095 0.0
H1865 H 0.17 0.46038 0.93121 0.0
H1866 H 0.10708 0.48435 0.91263 0.0
H1867 H 0.11063 0.51237 0.94337 0.0
C1868 C 0.11658 0.42833 0.87497 0.0
C1869 C 0.13458 0.42479 0.86012 0.0
C1870 C 0.11771 0.4428 0.89443 0.0
C1871 C 0.13692 0.45388 0.89953 0.0
C1872 C 0.155 0.4498 0.88502 0.0
C1873 C 0.15385 0.43548 0.86566 0.0
C1874 C 0.15908 0.48784 0.95088 0.0
C1875 C 0.14262 0.50295 0.95465 0.0
C1876 C 0.15691 0.47164 0.93358 0.0
C1877 C 0.13827 0.4701 0.91936 0.0
C1878 C 0.12158 0.48493 0.92338 0.0
C1879 C 0.12375 0.50119 0.94079 0.0
H1880 H 0.33384 0.41851 0.60917 0.0
H1881 H 0.33867 0.34983 0.61826 0.0
H1882 H 0.3086 0.42038 0.64259 0.0
H1883 H 0.31335 0.35174 0.65215 0.0
H1884 H 0.24469 0.36413 0.68559 0.0
H1885 H 0.2742 0.35966 0.65687 0.0
H1886 H 0.30524 0.4159 0.68626 0.0
H1887 H 0.27596 0.42028 0.71502 0.0
C1888 C 0.32978 0.40382 0.61858 0.0
C1889 C 0.33826 0.38401 0.61099 0.0
C1890 C 0.31535 0.40491 0.63786 0.0
C1891 C 0.30887 0.38621 0.65003 0.0
C1892 C 0.31787 0.36642 0.64299 0.0
C1893 C 0.33255 0.36535 0.62375 0.0
C1894 C 0.25796 0.37536 0.68618 0.0
C1895 C 0.25774 0.39275 0.70244 0.0
C1896 C 0.27491 0.37276 0.66974 0.0
C1897 C 0.29202 0.38751 0.66914 0.0
C1898 C 0.29214 0.40446 0.68594 0.0
C1899 C 0.27527 0.40702 0.70237 0.0
H1900 H 0.33874 0.52305 0.46115 0.0
H1901 H 0.39844 0.49511 0.4367 0.0
H1902 H 0.34279 0.5519 0.43187 0.0
H1903 H 0.40257 0.52422 0.4075 0.0
H1904 H 0.4107 0.58917 0.36911 0.0
H1905 H 0.40832 0.56368 0.40274 0.0
H1906 H 0.34083 0.55465 0.38794 0.0
H1907 H 0.34312 0.58005 0.35477 0.0
C1908 C 0.3527 0.52297 0.44946 0.0
C1909 C 0.36811 0.50651 0.45114 0.0
C1910 C 0.35506 0.5396 0.43272 0.0
C1911 C 0.37294 0.54034 0.41722 0.0
C1912 C 0.38872 0.52428 0.41934 0.0
C1913 C 0.38632 0.50755 0.43607 0.0
C1914 C 0.39529 0.58201 0.37333 0.0
C1915 C 0.3771 0.58664 0.35922 0.0
C1916 C 0.39398 0.56725 0.39244 0.0
C1917 C 0.3744 0.55705 0.398 0.0
C1918 C 0.35612 0.56233 0.38437 0.0
C1919 C 0.35746 0.57686 0.36524 0.0
H1920 H 0.09477 0.2514 0.40853 0.0
H1921 H 0.16188 0.2675 0.40045 0.0
H1922 H 0.0986 0.2235 0.37769 0.0
H1923 H 0.16569 0.23947 0.37006 0.0
H1924 H 0.17077 0.16922 0.34649 0.0
H1925 H 0.16504 0.20008 0.37231 0.0
H1926 H 0.10704 0.21539 0.3333 0.0
H1927 H 0.11304 0.18411 0.30676 0.0
C1928 C 0.11027 0.24927 0.39998 0.0
C1929 C 0.12808 0.26166 0.40735 0.0
C1930 C 0.11244 0.23323 0.38226 0.0
C1931 C 0.13249 0.22906 0.37153 0.0
C1932 C 0.15008 0.24196 0.37824 0.0
C1933 C 0.14791 0.25801 0.39581 0.0
C1934 C 0.15681 0.17916 0.34316 0.0
C1935 C 0.14228 0.17404 0.32458 0.0
C1936 C 0.15359 0.197 0.35799 0.0
C1937 C 0.13565 0.21036 0.35488 0.0
C1938 C 0.12099 0.20535 0.33627 0.0
C1939 C 0.12439 0.18746 0.32109 0.0
H1940 H 0.07651 0.86215 0.55371 0.0
H1941 H 0.09506 0.91721 0.59626 0.0
H1942 H 0.04517 0.85686 0.58024 0.0
H1943 H 0.06441 0.91195 0.62248 0.0
H1944 H 0.99864 0.91164 0.65362 0.0
H1945 H 0.02619 0.91539 0.62276 0.0
H1946 H 0.03521 0.84667 0.62192 0.0
H1947 H 0.00683 0.84278 0.6521 0.0
C1948 C 0.07396 0.87303 0.56871 0.0
C1949 C 0.08829 0.89009 0.57285 0.0
C1950 C 0.05604 0.87002 0.58393 0.0
C1951 C 0.05205 0.88413 0.60342 0.0
C1952 C 0.06655 0.90105 0.6074 0.0
C1953 C 0.0843 0.90398 0.59238 0.0
C1954 C 0.00611 0.89724 0.64656 0.0
C1955 C 1.00051 0.87692 0.65565 0.0
C1956 C 0.02217 0.89942 0.62901 0.0
C1957 C 0.03324 0.88136 0.62003 0.0
C1958 C 0.02706 0.86094 0.62833 0.0
C1959 C 0.01093 0.85875 0.64591 0.0
H1960 H 0.34253 0.84579 0.84685 0.0
H1961 H 0.39885 0.82692 0.80656 0.0
H1962 H 0.34841 0.81679 0.87511 0.0
H1963 H 0.40517 0.79768 0.83572 0.0
H1964 H 0.39368 0.73485 0.88237 0.0
H1965 H 0.38971 0.76277 0.85143 0.0
H1966 H 0.37351 0.80873 0.90697 0.0
H1967 H 0.3767 0.78098 0.93749 0.0
C1968 C 0.35629 0.83544 0.84404 0.0
C1969 C 0.37038 0.8389 0.82456 0.0
C1970 C 0.35975 0.81883 0.86044 0.0
C1971 C 0.37746 0.80503 0.85802 0.0
C1972 C 0.39137 0.80803 0.83815 0.0
C1973 C 0.38787 0.82485 0.82156 0.0
C1974 C 0.38912 0.7509 0.88792 0.0
C1975 C 0.38547 0.75557 0.91252 0.0
C1976 C 0.38711 0.76696 0.8702 0.0
C1977 C 0.38119 0.78802 0.87664 0.0
C1978 C 0.37783 0.79266 0.90124 0.0
C1979 C 0.37988 0.77672 0.91885 0.0
H1980 H 0.43358 0.14768 0.0552 0.0
H1981 H 0.41528 0.09227 0.09718 0.0
H1982 H 0.46476 0.1531 0.08184 0.0
H1983 H 0.4458 0.09767 0.12356 0.0
H1984 H 0.51158 0.09877 0.15518 0.0
H1985 H 0.48394 0.09464 0.12451 0.0
H1986 H 0.47463 0.16332 0.12323 0.0
H1987 H 0.50309 0.16757 0.15318 0.0
C1988 C 0.43616 0.13673 0.0701 0.0
C1989 C 0.42193 0.11957 0.07405 0.0
C1990 C 0.45399 0.13982 0.0854 0.0
C1991 C 0.45801 0.12569 0.10481 0.0
C1992 C 0.44364 0.10861 0.10858 0.0
C1993 C 0.42596 0.1056 0.09345 0.0
C1994 C 0.50401 0.11307 0.14808 0.0
C1995 C 0.50959 0.1335 0.15696 0.0
C1996 C 0.48788 0.11069 0.13063 0.0
C1997 C 0.47673 0.12863 0.12153 0.0
C1998 C 0.48284 0.14913 0.1297 0.0
C1999 C 0.49903 0.15153 0.14716 0.0
H2000 H 0.11317 0.82679 0.24719 0.0
H2001 H 0.16694 0.84659 0.20328 0.0
H2002 H 0.10774 0.79562 0.22044 0.0
H2003 H 0.16153 0.81609 0.17684 0.0
H2004 H 0.16174 0.7502 0.14557 0.0
H2005 H 0.16567 0.77796 0.17615 0.0
H2006 H 0.0968 0.78559 0.17903 0.0
H2007 H 0.09277 0.75701 0.1491 0.0
C2008 C 0.12373 0.82456 0.23183 0.0
C2009 C 0.14049 0.83917 0.2274 0.0
C2010 C 0.12064 0.80674 0.21648 0.0
C2011 C 0.13436 0.80313 0.19655 0.0
C2012 C 0.15094 0.81794 0.19224 0.0
C2013 C 0.15396 0.8356 0.2074 0.0
C2014 C 0.14736 0.75742 0.153 0.0
C2015 C 0.12694 0.75133 0.14459 0.0
C2016 C 0.14963 0.77361 0.1704 0.0
C2017 C 0.13157 0.78433 0.17991 0.0
C2018 C 0.11108 0.77772 0.17221 0.0
C2019 C 0.1088 0.76147 0.15478 0.0
H2020 H 0.5126 0.91111 0.39922 0.0
H2021 H 0.50441 0.84226 0.40135 0.0
H2022 H 0.48503 0.91514 0.43 0.0
H2023 H 0.476 0.84643 0.43146 0.0
H2024 H 0.4348 0.86249 0.49956 0.0
H2025 H 0.4661 0.85698 0.47303 0.0
H2026 H 0.4468 0.91171 0.43039 0.0
H2027 H 0.41617 0.91718 0.45663 0.0
C2028 C 0.50513 0.89677 0.4064 0.0
C2029 C 0.51075 0.87636 0.39751 0.0
C2030 C 0.48905 0.89911 0.42391 0.0
C2031 C 0.47798 0.88113 0.43304 0.0
C2032 C 0.48416 0.86064 0.42493 0.0
C2033 C 0.50031 0.85829 0.40739 0.0
C2034 C 0.43732 0.87324 0.48447 0.0
C2035 C 0.42299 0.89025 0.48022 0.0
C2036 C 0.45522 0.87011 0.46925 0.0
C2037 C 0.45918 0.88405 0.44964 0.0
C2038 C 0.44468 0.90094 0.44555 0.0
C2039 C 0.42694 0.90399 0.46059 0.0
H2040 H 0.35072 0.26119 0.64635 0.0
H2041 H 0.41973 0.25496 0.65 0.0
H2042 H 0.34692 0.23352 0.67697 0.0
H2043 H 0.41583 0.22645 0.67999 0.0
H2044 H 0.39938 0.18526 0.74827 0.0
H2045 H 0.40484 0.21633 0.72142 0.0
H2046 H 0.35133 0.19546 0.67769 0.0
H2047 H 0.34589 0.16509 0.7042 0.0
C2048 C 0.36513 0.25412 0.65381 0.0
C2049 C 0.38553 0.26036 0.64541 0.0
C2050 C 0.36294 0.23798 0.67124 0.0
C2051 C 0.38106 0.22743 0.68081 0.0
C2052 C 0.40151 0.23419 0.67313 0.0
C2053 C 0.40372 0.2504 0.65566 0.0
C2054 C 0.3889 0.18738 0.73286 0.0
C2055 C 0.37219 0.1727 0.72843 0.0
C2056 C 0.392 0.20515 0.71745 0.0
C2057 C 0.37834 0.20864 0.69747 0.0
C2058 C 0.36185 0.19373 0.69314 0.0
C2059 C 0.35882 0.17614 0.70835 0.0
H2060 H 0.07525 0.14754 0.99813 0.0
H2061 H 0.09566 0.09548 0.95198 0.0
H2062 H 0.04384 0.15326 0.97184 0.0
H2063 H 0.06497 0.10119 0.92604 0.0
H2064 H 0.99911 0.10065 0.8952 0.0
H2065 H 0.02689 0.09637 0.92562 0.0
H2066 H 0.03348 0.16522 0.93078 0.0
H2067 H 1.00485 0.16958 0.901 0.0
C2068 C 0.0731 0.13742 0.9824 0.0
C2069 C 0.08795 0.12105 0.9772 0.0
C2070 C 0.05514 0.14067 0.96732 0.0
C2071 C 0.05165 0.1275 0.9469 0.0
C2072 C 0.06671 0.11132 0.94183 0.0
C2073 C 0.08449 0.10814 0.95671 0.0
C2074 C 0.0061 0.11494 0.9031 0.0
C2075 C 0.99971 0.13547 0.89535 0.0
C2076 C 0.0223 0.11248 0.92041 0.0
C2077 C 0.03274 0.13045 0.9305 0.0
C2078 C 0.02582 0.15101 0.9235 0.0
C2079 C 0.00955 0.15349 0.90615 0.0
H2080 H 0.89966 0.82741 0.74734 0.0
H2081 H 0.8444 0.8453 0.70486 0.0
H2082 H 0.90537 0.79617 0.72072 0.0
H2083 H 0.84997 0.81462 0.67872 0.0
H2084 H 0.85112 0.74831 0.64838 0.0
H2085 H 0.84712 0.77597 0.67913 0.0
H2086 H 0.91557 0.78694 0.67823 0.0
H2087 H 0.91973 0.75859 0.648 0.0
C2088 C 0.88883 0.82474 0.73234 0.0
C2089 C 0.87163 0.8389 0.7282 0.0
C2090 C 0.89206 0.80687 0.71709 0.0
C2091 C 0.87799 0.8027 0.69765 0.0
C2092 C 0.86088 0.81695 0.69373 0.0
C2093 C 0.85776 0.83471 0.70873 0.0
C2094 C 0.86542 0.75626 0.65501 0.0
C2095 C 0.88573 0.75121 0.64543 0.0
C2096 C 0.86309 0.77236 0.67251 0.0
C2097 C 0.881 0.78395 0.68102 0.0
C2098 C 0.90144 0.77835 0.6722 0.0
C2099 C 0.90377 0.76224 0.65461 0.0
H2100 H 0.02738 0.14137 0.42065 0.0
H2101 H 0.98045 0.1308 0.36447 0.0
H2102 H 0.99916 0.13726 0.45128 0.0
H2103 H 0.95245 0.12747 0.39476 0.0
H2104 H 0.91392 0.09426 0.45246 0.0
H2105 H 0.94307 0.10068 0.4245 0.0
H2106 H 0.96495 0.15369 0.4684 0.0
H2107 H 0.93543 0.14684 0.49719 0.0
C2108 C 0.0111 0.13821 0.41479 0.0
C2109 C 0.0063 0.13637 0.38998 0.0
C2110 C 0.99487 0.13612 0.43236 0.0
C2111 C 0.9735 0.13193 0.42556 0.0
C2112 C 0.96874 0.13043 0.40076 0.0
C2113 C 0.98484 0.13256 0.3833 0.0
C2114 C 0.92489 0.10733 0.45633 0.0
C2115 C 0.92214 0.1202 0.47699 0.0
C2116 C 0.9416 0.1111 0.4401 0.0
C2117 C 0.95625 0.1279 0.4439 0.0
C2118 C 0.95393 0.1406 0.46489 0.0
C2119 C 0.93697 0.13681 0.48129 0.0
H2120 H 0.61861 0.2768 0.17206 0.0
H2121 H 0.63225 0.23048 0.11598 0.0
H2122 H 0.62227 0.2485 0.2026 0.0
H2123 H 0.63515 0.20238 0.14614 0.0
H2124 H 0.66687 0.16417 0.20508 0.0
H2125 H 0.66097 0.19335 0.17708 0.0
H2126 H 0.60586 0.2139 0.21849 0.0
H2127 H 0.61217 0.18439 0.24733 0.0
C2128 C 0.62236 0.26063 0.16621 0.0
C2129 C 0.62518 0.25602 0.14147 0.0
C2130 C 0.62419 0.24436 0.18371 0.0
C2131 C 0.62909 0.22314 0.17689 0.0
C2132 C 0.63161 0.21856 0.15215 0.0
C2133 C 0.62974 0.2347 0.13476 0.0
C2134 C 0.65345 0.17485 0.20838 0.0
C2135 C 0.63984 0.17175 0.22836 0.0
C2136 C 0.64998 0.19158 0.19213 0.0
C2137 C 0.63276 0.20587 0.19523 0.0
C2138 C 0.61929 0.20317 0.21555 0.0
C2139 C 0.62278 0.1862 0.23195 0.0
H2140 H 0.4943 0.91173 0.90577 0.0
H2141 H 0.51098 0.84495 0.89604 0.0
H2142 H 0.52238 0.91525 0.93611 0.0
H2143 H 0.53892 0.84848 0.92679 0.0
H2144 H 0.57822 0.86166 0.99773 0.0
H2145 H 0.54697 0.85602 0.97115 0.0
H2146 H 0.56176 0.91504 0.93384 0.0
H2147 H 0.59261 0.92043 0.95976 0.0
C2148 C 0.50392 0.89777 0.91004 0.0
C2149 C 0.50043 0.87813 0.89809 0.0
C2150 C 0.52 0.89977 0.92757 0.0
C2151 C 0.53307 0.88218 0.93378 0.0
C2152 C 0.52906 0.8623 0.92261 0.0
C2153 C 0.51299 0.86031 0.90494 0.0
C2154 C 0.57476 0.87331 0.98376 0.0
C2155 C 0.58801 0.8914 0.98077 0.0
C2156 C 0.55689 0.87012 0.96856 0.0
C2157 C 0.55174 0.88517 0.95043 0.0
C2158 C 0.56494 0.9033 0.94781 0.0
C2159 C 0.58277 0.90632 0.96267 0.0
H2160 H 0.8908 0.27775 0.88316 0.0
H2161 H 0.88013 0.23064 0.93909 0.0
H2162 H 0.88661 0.24965 0.85238 0.0
H2163 H 0.87673 0.20277 0.90867 0.0
H2164 H 0.84343 0.16453 0.85089 0.0
H2165 H 0.84986 0.19364 0.87888 0.0
H2166 H 0.90302 0.21542 0.83516 0.0
H2167 H 0.89616 0.18595 0.80631 0.0
C2168 C 0.8876 0.26145 0.88893 0.0
C2169 C 0.88576 0.25656 0.91371 0.0
C2170 C 0.88547 0.2453 0.87127 0.0
C2171 C 0.88123 0.22392 0.87798 0.0
C2172 C 0.87973 0.21907 0.90275 0.0
C2173 C 0.8819 0.23509 0.92029 0.0
C2174 C 0.85653 0.17546 0.84706 0.0
C2175 C 0.86945 0.17269 0.82644 0.0
C2176 C 0.86031 0.19215 0.86331 0.0
C2177 C 0.87716 0.20676 0.85957 0.0
C2178 C 0.88989 0.20443 0.8386 0.0
C2179 C 0.8861 0.18749 0.82218 0.0
H2180 H 0.50689 0.16874 0.6525 0.0
H2181 H 0.49969 0.09981 0.65549 0.0
H2182 H 0.53528 0.1647 0.62234 0.0
H2183 H 0.52723 0.09588 0.62466 0.0
H2184 H 0.59593 0.09442 0.59765 0.0
H2185 H 0.56538 0.0998 0.62401 0.0
H2186 H 0.54528 0.15392 0.58086 0.0
H2187 H 0.57652 0.1485 0.55419 0.0
C2188 C 0.51121 0.15272 0.64665 0.0
C2189 C 0.50104 0.13459 0.65678 0.0
C2190 C 0.52735 0.15043 0.62908 0.0
C2191 C 0.53381 0.12995 0.62118 0.0
C2192 C 0.52301 0.11191 0.63058 0.0
C2193 C 0.50694 0.11418 0.64812 0.0
C2194 C 0.585 0.10746 0.59361 0.0
C2195 C 0.58872 0.12105 0.57378 0.0
C2196 C 0.56731 0.11046 0.60872 0.0
C2197 C 0.55259 0.12714 0.60452 0.0
C2198 C 0.55632 0.14094 0.58473 0.0
C2199 C 0.57418 0.13787 0.56943 0.0
H2200 H 0.6124 0.82539 0.30626 0.0
H2201 H 0.66408 0.84783 0.35167 0.0
H2202 H 0.60567 0.79584 0.33493 0.0
H2203 H 0.65779 0.81863 0.37954 0.0
H2204 H 0.62941 0.7789 0.43854 0.0
H2205 H 0.63165 0.80772 0.40909 0.0
H2206 H 0.62233 0.7621 0.35127 0.0
H2207 H 0.61999 0.73302 0.38098 0.0
C2208 C 0.62222 0.82408 0.32233 0.0
C2209 C 0.63864 0.83909 0.32677 0.0
C2210 C 0.6185 0.80709 0.33866 0.0
C2211 C 0.63104 0.80494 0.35977 0.0
C2212 C 0.64749 0.81994 0.36386 0.0
C2213 C 0.65121 0.83667 0.34767 0.0
C2214 C 0.62797 0.7749 0.41957 0.0
C2215 C 0.62489 0.7535 0.41222 0.0
C2216 C 0.62919 0.79149 0.40261 0.0
C2217 C 0.62745 0.78728 0.37769 0.0
C2218 C 0.62361 0.76599 0.37029 0.0
C2219 C 0.62234 0.7493 0.38734 0.0
H2220 H 0.93541 0.8634 0.05363 0.0
H2221 H 0.91551 0.91677 0.09811 0.0
H2222 H 0.96682 0.85809 0.07999 0.0
H2223 H 0.9462 0.91146 0.12419 0.0
H2224 H 0.01201 0.91206 0.15512 0.0
H2225 H 0.98425 0.91593 0.12461 0.0
H2226 H 0.97725 0.84703 0.12112 0.0
H2227 H 0.00587 0.84306 0.15094 0.0
C2228 C 0.93768 0.8739 0.06903 0.0
C2229 C 0.92297 0.89051 0.07374 0.0
C2230 C 0.95563 0.87088 0.08415 0.0
C2231 C 0.95927 0.88453 0.10413 0.0
C2232 C 0.94435 0.90095 0.10873 0.0
C2233 C 0.92657 0.90391 0.09378 0.0
C2234 C 1.00495 0.89766 0.14755 0.0
C2235 C 0.0112 0.87724 0.15579 0.0
C2236 C 0.98875 0.89989 0.1302 0.0
C2237 C 0.97818 0.8818 0.12058 0.0
C2238 C 0.985 0.86133 0.12804 0.0
C2239 C 1.00127 0.85908 0.14541 0.0
H2240 H 0.6688 0.66463 0.84898 0.0
H2241 H 0.61402 0.68442 0.80678 0.0
H2242 H 0.6627 0.69383 0.87697 0.0
H2243 H 0.60747 0.71392 0.83566 0.0
H2244 H 0.61941 0.77674 0.88257 0.0
H2245 H 0.62346 0.74861 0.85181 0.0
H2246 H 0.63668 0.7024 0.90792 0.0
H2247 H 0.63341 0.73034 0.9383 0.0
C2248 C 0.65532 0.67522 0.84569 0.0
C2249 C 0.64172 0.67197 0.82576 0.0
C2250 C 0.65174 0.69195 0.86193 0.0
C2251 C 0.63439 0.70608 0.85888 0.0
C2252 C 0.62098 0.70329 0.83857 0.0
C2253 C 0.6246 0.68633 0.82214 0.0
C2254 C 0.62332 0.76059 0.88829 0.0
C2255 C 0.62613 0.75589 0.913 0.0
C2256 C 0.62538 0.74442 0.87067 0.0
C2257 C 0.6305 0.72323 0.87733 0.0
C2258 C 0.63299 0.71857 0.90204 0.0
C2259 C 0.63089 0.73461 0.91955 0.0
H2260 H 0.57696 0.36318 0.05668 0.0
H2261 H 0.59443 0.41902 0.09852 0.0
H2262 H 0.54588 0.35739 0.08346 0.0
H2263 H 0.56403 0.41327 0.12499 0.0
H2264 H 0.49827 0.41147 0.15656 0.0
H2265 H 0.52573 0.41574 0.12567 0.0
H2266 H 0.53647 0.34726 0.12532 0.0
H2267 H 0.50823 0.34284 0.15558 0.0
C2268 C 0.57421 0.37414 0.07156 0.0
C2269 C 0.58819 0.39154 0.07544 0.0
C2270 C 0.55645 0.37084 0.08693 0.0
C2271 C 0.55224 0.385 0.10633 0.0
C2272 C 0.56635 0.4023 0.11001 0.0
C2273 C 0.58396 0.40552 0.09484 0.0
C2274 C 0.50613 0.39723 0.14963 0.0
C2275 C 0.50102 0.37682 0.15885 0.0
C2276 C 0.52213 0.3997 0.13204 0.0
C2277 C 0.53361 0.38187 0.12314 0.0
C2278 C 0.52798 0.36136 0.13165 0.0
C2279 C 0.51193 0.35887 0.14928 0.0
H2280 H 0.8444 0.34643 0.35175 0.0
H2281 H 0.89671 0.3264 0.30575 0.0
H2282 H 0.85018 0.31572 0.37762 0.0
H2283 H 0.90252 0.29497 0.33196 0.0
H2284 H 0.91889 0.25597 0.40276 0.0
H2285 H 0.91444 0.28461 0.37304 0.0
H2286 H 0.84559 0.27762 0.37794 0.0
H2287 H 0.84996 0.24981 0.4083 0.0
C2288 C 0.85713 0.33533 0.34704 0.0
C2289 C 0.87009 0.33892 0.32662 0.0
C2290 C 0.86036 0.31755 0.36188 0.0
C2291 C 0.87664 0.30259 0.35683 0.0
C2292 C 0.88986 0.30619 0.33647 0.0
C2293 C 0.88655 0.32416 0.32143 0.0
C2294 C 0.90278 0.26058 0.39757 0.0
C2295 C 0.88478 0.25062 0.40828 0.0
C2296 C 0.90025 0.27686 0.38025 0.0
C2297 C 0.87965 0.28367 0.3732 0.0
C2298 C 0.86172 0.27311 0.38319 0.0
C2299 C 0.86423 0.2569 0.40047 0.0
H2300 H 0.9179 0.5921 0.59814 0.0
H2301 H 0.93452 0.64843 0.55678 0.0
H2302 H 0.94887 0.59758 0.62384 0.0
H2303 H 0.96591 0.65417 0.58315 0.0
H2304 H 1.00265 0.66706 0.65757 0.0
H2305 H 0.97444 0.66336 0.62713 0.0
H2306 H 0.98821 0.59566 0.62144 0.0
H2307 H 0.01654 0.59932 0.65144 0.0
C2308 C 0.92825 0.60569 0.59444 0.0
C2309 C 0.9236 0.6199 0.57542 0.0
C2310 C 0.94614 0.60877 0.6092 0.0
C2311 C 0.96003 0.62622 0.60555 0.0
C2312 C 0.95546 0.6406 0.58654 0.0
C2313 C 0.9375 0.63735 0.57145 0.0
C2314 C 0.99996 0.65144 0.64954 0.0
C2315 C 0.01183 0.63343 0.65732 0.0
C2316 C 0.98375 0.64935 0.63204 0.0
C2317 C 0.97887 0.62918 0.62198 0.0
C2318 C 0.99124 0.61137 0.62912 0.0
C2319 C 0.00747 0.61346 0.64646 0.0
H2320 H 0.66652 0.34402 0.7065 0.0
H2321 H 0.61093 0.32657 0.74879 0.0
H2322 H 0.66098 0.31325 0.68054 0.0
H2323 H 0.60517 0.29529 0.72225 0.0
H2324 H 0.59133 0.25807 0.64885 0.0
H2325 H 0.5953 0.28625 0.67933 0.0
H2326 H 0.66357 0.27442 0.68158 0.0
H2327 H 0.65977 0.2469 0.65063 0.0
C2328 C 0.65308 0.33352 0.71035 0.0
C2329 C 0.63911 0.33787 0.72972 0.0
C2330 C 0.64998 0.31572 0.69546 0.0
C2331 C 0.63275 0.30158 0.69935 0.0
C2332 C 0.61857 0.30591 0.71867 0.0
C2333 C 0.62181 0.32382 0.73384 0.0
C2334 C 0.60721 0.26147 0.65584 0.0
C2335 C 0.62527 0.25028 0.64697 0.0
C2336 C 0.60943 0.27748 0.67356 0.0
C2337 C 0.62978 0.2828 0.68279 0.0
C2338 C 0.64768 0.271 0.67464 0.0
C2339 C 0.64547 0.255 0.65702 0.0
H2340 H 0.91569 0.41806 0.95417 0.0
H2341 H 0.93479 0.36438 0.99847 0.0
H2342 H 0.94646 0.4125 0.92823 0.0
H2343 H 0.96629 0.35881 0.97219 0.0
H2344 H 1.00507 0.34343 0.90079 0.0
H2345 H 0.97657 0.34768 0.9308 0.0
H2346 H 0.98459 0.41648 0.92787 0.0
H2347 H 0.01224 0.41234 0.8972 0.0
C2348 C 0.9266 0.40508 0.95851 0.0
C2349 C 0.92273 0.39167 0.97846 0.0
C2350 C 0.94443 0.40198 0.94363 0.0
C2351 C 0.95914 0.38537 0.94816 0.0
C2352 C 0.95527 0.37174 0.96808 0.0
C2353 C 0.93727 0.37492 0.98317 0.0
C2354 C 1.00072 0.35949 0.90648 0.0
C2355 C 0.01091 0.37755 0.89621 0.0
C2356 C 0.98452 0.3619 0.92397 0.0
C2357 C 0.97802 0.38243 0.93165 0.0
C2358 C 0.98885 0.40041 0.92213 0.0
C2359 C 1.00497 0.39802 0.90467 0.0
H2360 H 0.8498 0.76197 0.14623 0.0
H2361 H 0.91876 0.75629 0.15187 0.0
H2362 H 0.84553 0.73432 0.17677 0.0
H2363 H 0.9144 0.72776 0.18176 0.0
H2364 H 0.89658 0.68588 0.24913 0.0
H2365 H 0.90242 0.71729 0.22286 0.0
H2366 H 0.85034 0.69628 0.17707 0.0
H2367 H 0.84451 0.66563 0.203 0.0
C2368 C 0.8641 0.75504 0.15413 0.0
C2369 C 0.88463 0.76139 0.14628 0.0
C2370 C 0.86164 0.7389 0.17151 0.0
C2371 C 0.87962 0.72848 0.18156 0.0
C2372 C 0.90019 0.7354 0.1745 0.0
C2373 C 0.90266 0.75161 0.15708 0.0
C2374 C 0.88648 0.68807 0.23341 0.0
C2375 C 0.87006 0.67326 0.22821 0.0
C2376 C 0.8898 0.70602 0.21834 0.0
C2377 C 0.87665 0.70955 0.19794 0.0
C2378 C 0.86045 0.69452 0.19286 0.0
C2379 C 0.8572 0.67676 0.20773 0.0
H2380 H 0.57775 0.64563 0.49766 0.0
H2381 H 0.59667 0.59001 0.4562 0.0
H2382 H 0.54831 0.65224 0.46881 0.0
H2383 H 0.56751 0.59619 0.42821 0.0
H2384 H 0.53144 0.62547 0.36651 0.0
H2385 H 0.55928 0.62185 0.39689 0.0
H2386 H 0.51336 0.63682 0.4529 0.0
H2387 H 0.48534 0.6412 0.42213 0.0
C2388 C 0.57563 0.63485 0.48248 0.0
C2389 C 0.58976 0.61749 0.47906 0.0
C2390 C 0.55871 0.63852 0.46606 0.0
C2391 C 0.55569 0.62491 0.44593 0.0
C2392 C 0.56956 0.6073 0.4431 0.0
C2393 C 0.58627 0.60368 0.45934 0.0
C2394 C 0.52721 0.62828 0.38523 0.0
C2395 C 0.50603 0.63365 0.39174 0.0
C2396 C 0.5432 0.62598 0.40276 0.0
C2397 C 0.5386 0.62888 0.42745 0.0
C2398 C 0.51751 0.63457 0.43406 0.0
C2399 C 0.5014 0.63682 0.41643 0.0
H2400 H 0.34879 0.24428 0.15512 0.0
H2401 H 0.41612 0.25944 0.14693 0.0
H2402 H 0.34535 0.27257 0.18527 0.0
H2403 H 0.41265 0.28758 0.17752 0.0
H2404 H 0.39848 0.32753 0.2481 0.0
H2405 H 0.40409 0.29593 0.22196 0.0
H2406 H 0.34676 0.31208 0.18212 0.0
H2407 H 0.34144 0.34329 0.20756 0.0
C2408 C 0.36289 0.2536 0.15972 0.0
C2409 C 0.38266 0.24965 0.14822 0.0
C2410 C 0.36093 0.26979 0.17713 0.0
C2411 C 0.37869 0.28249 0.18369 0.0
C2412 C 0.3987 0.27799 0.17305 0.0
C2413 C 0.40065 0.26182 0.15547 0.0
C2414 C 0.38722 0.32431 0.23366 0.0
C2415 C 0.36962 0.33803 0.22982 0.0
C2416 C 0.39038 0.30623 0.21872 0.0
C2417 C 0.37577 0.30138 0.20003 0.0
C2418 C 0.35814 0.31506 0.19654 0.0
C2419 C 0.35515 0.33308 0.21113 0.0
H2420 H 0.51404 0.6005 0.89952 0.0
H2421 H 0.50348 0.66904 0.89911 0.0
H2422 H 0.48663 0.59649 0.93052 0.0
H2423 H 0.4753 0.66486 0.9295 0.0
H2424 H 0.43479 0.64959 0.99841 0.0
H2425 H 0.46592 0.65524 0.97163 0.0
H2426 H 0.44827 0.59869 0.93099 0.0
H2427 H 0.41781 0.59311 0.95741 0.0
C2428 C 0.50607 0.61479 0.90617 0.0
C2429 C 0.51099 0.63508 0.89651 0.0
C2430 C 0.4901 0.61245 0.92382 0.0
C2431 C 0.47845 0.63031 0.93237 0.0
C2432 C 0.48391 0.65074 0.92345 0.0
C2433 C 0.49993 0.65308 0.90575 0.0
C2434 C 0.43765 0.63845 0.98372 0.0
C2435 C 0.42379 0.62092 0.98006 0.0
C2436 C 0.45545 0.64166 0.96835 0.0
C2437 C 0.45981 0.62729 0.9492 0.0
C2438 C 0.44583 0.60984 0.94577 0.0
C2439 C 0.42818 0.60672 0.96092 0.0
H2440 H 0.16254 0.76205 0.6465 0.0
H2441 H 0.09371 0.75405 0.65025 0.0
H2442 H 0.16701 0.73459 0.67724 0.0
H2443 H 0.09829 0.72575 0.68034 0.0
H2444 H 0.11536 0.68489 0.74832 0.0
H2445 H 0.10948 0.71603 0.72173 0.0
H2446 H 0.16353 0.6964 0.678 0.0
H2447 H 0.16937 0.66595 0.70426 0.0
C2448 C 0.1483 0.75464 0.65401 0.0
C2449 C 0.12776 0.76029 0.6456 0.0
C2450 C 0.15089 0.73862 0.67151 0.0
C2451 C 0.13303 0.72764 0.68112 0.0
C2452 C 0.11242 0.73384 0.67345 0.0
C2453 C 0.10982 0.74992 0.65592 0.0
C2454 C 0.1259 0.68732 0.73299 0.0
C2455 C 0.14282 0.67293 0.72844 0.0
C2456 C 0.12254 0.70512 0.71773 0.0
C2457 C 0.13618 0.70894 0.69778 0.0
C2458 C 0.15299 0.6944 0.69341 0.0
C2459 C 0.15625 0.67675 0.70847 0.0
H2460 H 0.99904 0.4119 0.39658 0.0
H2461 H 0.00577 0.34299 0.40105 0.0
H2462 H 0.0268 0.4162 0.42702 0.0
H2463 H 0.03439 0.34739 0.43086 0.0
H2464 H 0.07616 0.36504 0.49844 0.0
H2465 H 0.04474 0.35908 0.47219 0.0
H2466 H 0.06495 0.41189 0.42706 0.0
H2467 H 0.09563 0.41782 0.45295 0.0
C2468 C 0.00623 0.39761 0.4042 0.0
C2469 C 1.00013 0.3771 0.39606 0.0
C2470 C 0.02242 0.40009 0.42152 0.0
C2471 C 0.03315 0.38215 0.43123 0.0
C2472 C 0.0265 0.36158 0.42387 0.0
C2473 C 0.01024 0.35909 0.4065 0.0
C2474 C 0.07379 0.37528 0.48288 0.0
C2475 C 0.08838 0.39192 0.47785 0.0
C2476 C 0.05584 0.37188 0.46781 0.0
C2477 C 0.05208 0.38519 0.4476 0.0
C2478 C 0.06689 0.40164 0.4427 0.0
C2479 C 0.08466 0.40495 0.45756 0.0
H2480 H 0.41929 0.75332 0.40415 0.0
H2481 H 0.35069 0.76368 0.40394 0.0
H2482 H 0.4151 0.72504 0.3739 0.0
H2483 H 0.34667 0.73619 0.37304 0.0
H2484 H 0.34345 0.66712 0.34706 0.0
H2485 H 0.34901 0.69785 0.37307 0.0
H2486 H 0.40536 0.71531 0.33197 0.0
H2487 H 0.39975 0.68388 0.30564 0.0
C2488 C 0.40332 0.74972 0.39756 0.0
C2489 C 0.3853 0.76071 0.40683 0.0
C2490 C 0.40097 0.73365 0.37995 0.0
C2491 C 0.38052 0.72809 0.37115 0.0
C2492 C 0.36264 0.73973 0.37967 0.0
C2493 C 0.36498 0.75574 0.39725 0.0
C2494 C 0.35701 0.67751 0.34337 0.0
C2495 C 0.37117 0.673 0.32424 0.0
C2496 C 0.36012 0.69531 0.35828 0.0
C2497 C 0.37749 0.70932 0.35456 0.0
C2498 C 0.39183 0.70483 0.33543 0.0
C2499 C 0.38864 0.68687 0.32032 0.0
H2500 H 0.09719 0.59637 0.10266 0.0
H2501 H 0.07585 0.64725 0.05558 0.0
H2502 H 0.06659 0.60217 0.12876 0.0
H2503 H 0.04449 0.65305 0.08205 0.0
H2504 H 1.00499 0.66954 0.15285 0.0
H2505 H 0.03378 0.66542 0.12311 0.0
H2506 H 0.0286 0.59652 0.12913 0.0
H2507 H 1.00067 0.60058 0.15946 0.0
C2508 C 0.08583 0.6088 0.09776 0.0
C2509 C 0.08899 0.6213 0.07692 0.0
C2510 C 0.06811 0.61203 0.11275 0.0
C2511 C 0.05276 0.62785 0.10744 0.0
C2512 C 0.05599 0.64072 0.08674 0.0
C2513 C 0.07392 0.63741 0.07155 0.0
C2514 C 0.01003 0.65349 0.14789 0.0
C2515 C 1.00052 0.6354 0.15889 0.0
C2516 C 0.0264 0.65115 0.13057 0.0
C2517 C 0.03377 0.63065 0.12383 0.0
C2518 C 0.02366 0.61259 0.13413 0.0
C2519 C 0.00737 0.61492 0.1514 0.0
H2520 H 0.11404 0.32656 0.80547 0.0
H2521 H 0.16591 0.34732 0.85158 0.0
H2522 H 0.10827 0.29529 0.83194 0.0
H2523 H 0.16016 0.31678 0.87773 0.0
H2524 H 0.16093 0.25096 0.90866 0.0
H2525 H 0.16514 0.27875 0.87826 0.0
H2526 H 0.09625 0.28491 0.87301 0.0
H2527 H 0.09196 0.25627 0.90277 0.0
C2528 C 0.1241 0.32452 0.82124 0.0
C2529 C 0.14046 0.33942 0.82635 0.0
C2530 C 0.12082 0.30664 0.83643 0.0
C2531 C 0.13394 0.30328 0.85688 0.0
C2532 C 0.15007 0.31841 0.86191 0.0
C2533 C 0.15328 0.3361 0.8469 0.0
C2534 C 0.14662 0.25785 0.90075 0.0
C2535 C 0.1261 0.25133 0.90846 0.0
C2536 C 0.14904 0.27406 0.88345 0.0
C2537 C 0.13104 0.28439 0.87334 0.0
C2538 C 0.11048 0.27734 0.88031 0.0
C2539 C 0.10805 0.26106 0.89765 0.0
H2540 H 0.52828 0.37905 0.63184 0.0
H2541 H 0.48107 0.36405 0.68648 0.0
H2542 H 0.49948 0.38222 0.60171 0.0
H2543 H 0.45261 0.36704 0.65653 0.0
H2544 H 0.40938 0.40757 0.60675 0.0
H2545 H 0.4387 0.39974 0.63425 0.0
H2546 H 0.46848 0.35973 0.58004 0.0
H2547 H 0.43849 0.36747 0.55216 0.0
C2548 C 0.51182 0.37631 0.6374 0.0
C2549 C 0.50703 0.37133 0.66164 0.0
C2550 C 0.49537 0.37791 0.62009 0.0
C2551 C 0.47377 0.3749 0.62674 0.0
C2552 C 0.46908 0.36953 0.65083 0.0
C2553 C 0.48545 0.3677 0.66799 0.0
C2554 C 0.42209 0.397 0.60062 0.0
C2555 C 0.4216 0.38812 0.57727 0.0
C2556 C 0.43887 0.39243 0.61647 0.0
C2557 C 0.45591 0.37908 0.60939 0.0
C2558 C 0.45558 0.37015 0.58597 0.0
C2559 C 0.43842 0.37445 0.57009 0.0
H2560 H 0.08208 0.05974 0.26183 0.0
H2561 H 0.14613 0.06084 0.29155 0.0
H2562 H 0.08251 0.02046 0.26251 0.0
H2563 H 0.14656 0.02164 0.29236 0.0
H2564 H 0.08143 0.95218 0.29359 0.0
H2565 H 0.08214 0.99146 0.29345 0.0
H2566 H 0.1468 0.99018 0.26518 0.0
H2567 H 0.1461 0.95098 0.26546 0.0
C2568 C 0.09633 0.05159 0.26826 0.0
C2569 C 0.11406 0.06337 0.27665 0.0
C2570 C 0.0965 0.02909 0.2689 0.0
C2571 C 0.11449 0.01789 0.27773 0.0
C2572 C 0.13248 0.02973 0.28537 0.0
C2573 C 0.13224 0.0522 0.28491 0.0
C2574 C 0.09588 0.9603 0.28767 0.0
C2575 C 0.1137 0.9485 0.27952 0.0
C2576 C 0.09622 0.9828 0.28733 0.0
C2577 C 0.11444 0.99398 0.27905 0.0
C2578 C 0.13254 0.98211 0.27176 0.0
C2579 C 0.13214 0.95964 0.27192 0.0
H2580 H 0.20214 0.82992 0.50957 0.0
H2581 H 0.20056 0.89458 0.53769 0.0
H2582 H 0.24141 0.83048 0.51087 0.0
H2583 H 0.2397 0.89507 0.5393 0.0
H2584 H 0.30923 0.8299 0.54307 0.0
H2585 H 0.26995 0.83044 0.54181 0.0
H2586 H 0.27166 0.8951 0.51374 0.0
H2587 H 0.3108 0.89461 0.5153 0.0
C2588 C 0.21019 0.84433 0.51577 0.0
C2589 C 0.19826 0.86219 0.52355 0.0
C2590 C 0.23268 0.84457 0.51679 0.0
C2591 C 0.24373 0.86273 0.52547 0.0
C2592 C 0.23175 0.88086 0.53243 0.0
C2593 C 0.2093 0.88057 0.53152 0.0
C2594 C 0.30118 0.84431 0.53696 0.0
C2595 C 0.3131 0.86219 0.52926 0.0
C2596 C 0.27869 0.84455 0.53597 0.0
C2597 C 0.26763 0.86273 0.5274 0.0
C2598 C 0.27961 0.88087 0.52053 0.0
C2599 C 0.30206 0.88059 0.52141 0.0
H2600 H 0.36613 0.95048 0.78854 0.0
H2601 H 0.43123 0.95201 0.76174 0.0
H2602 H 0.36553 0.98966 0.78981 0.0
H2603 H 0.4306 0.99128 0.76279 0.0
H2604 H 0.36646 0.06062 0.76483 0.0
H2605 H 0.36597 0.02144 0.76374 0.0
H2606 H 0.42999 0.02006 0.79365 0.0
H2607 H 0.43053 0.05933 0.79452 0.0
C2608 C 0.38022 0.95921 0.78259 0.0
C2609 C 0.39874 0.94816 0.77507 0.0
C2610 C 0.37987 0.98168 0.78332 0.0
C2611 C 0.39809 0.99365 0.77665 0.0
C2612 C 0.41642 0.98256 0.76846 0.0
C2613 C 0.41671 0.96007 0.76759 0.0
C2614 C 0.38033 0.05194 0.77146 0.0
C2615 C 0.39855 0.06307 0.77972 0.0
C2616 C 0.38005 0.02947 0.77084 0.0
C2617 C 0.39803 0.01757 0.77836 0.0
C2618 C 0.41602 0.02873 0.78731 0.0
C2619 C 0.41624 0.05122 0.78808 0.0
H2620 H 0.20001 0.11618 1.01247 0.0
H2621 H 0.201 0.17967 0.04382 0.0
H2622 H 0.23918 0.1158 1.01162 0.0
H2623 H 0.2403 0.17925 0.04316 0.0
H2624 H 0.30983 0.11556 0.03753 0.0
H2625 H 0.27065 0.11497 0.03834 0.0
H2626 H 0.26931 0.1803 1.01232 0.0
H2627 H 0.3086 0.18091 1.01171 0.0
C2628 C 0.20862 0.12994 1.0195 0.0
C2629 C 0.19742 0.14796 0.0282 0.0
C2630 C 0.23108 0.12972 1.01902 0.0
C2631 C 0.2429 0.14758 0.0271 0.0
C2632 C 0.23168 0.16538 0.03642 0.0
C2633 C 0.20918 0.16554 0.03706 0.0
C2634 C 0.30116 0.1297 0.0317 0.0
C2635 C 0.31229 0.14829 1.02458 0.0
C2636 C 0.2787 0.12937 0.03216 0.0
C2637 C 0.26682 0.14766 1.02564 0.0
C2638 C 0.27798 0.16607 1.01786 0.0
C2639 C 0.30048 0.16634 1.01724 0.0
H2640 H 0.92962 0.0605 0.76093 0.0
H2641 H 0.8653 0.06118 0.79007 0.0
H2642 H 0.92937 0.02121 0.7615 0.0
H2643 H 0.86507 0.022 0.7908 0.0
H2644 H 0.93047 0.95288 0.79272 0.0
H2645 H 0.92969 0.99216 0.79227 0.0
H2646 H 0.86513 0.99054 0.76389 0.0
H2647 H 0.86589 0.95136 0.76451 0.0
C2648 C 0.91535 0.05226 0.76719 0.0
C2649 C 0.89748 0.06393 0.77545 0.0
C2650 C 0.91528 0.02976 0.76777 0.0
C2651 C 0.89728 0.01844 0.77643 0.0
C2652 C 0.87915 0.03017 0.78392 0.0
C2653 C 0.87929 0.05263 0.78351 0.0
C2654 C 0.91603 0.96094 0.7867 0.0
C2655 C 0.89825 0.94903 0.77864 0.0
C2656 C 0.91566 0.98343 0.78618 0.0
C2657 C 0.89743 0.99452 0.77779 0.0
C2658 C 0.87939 0.98255 0.77055 0.0
C2659 C 0.87982 0.96009 0.7709 0.0
H2660 H 0.70225 0.18157 0.51067 0.0
H2661 H 0.70074 0.11657 0.53758 0.0
H2662 H 0.74155 0.18083 0.5113 0.0
H2663 H 0.73991 0.11587 0.53845 0.0
H2664 H 0.81058 0.11622 0.51295 0.0
H2665 H 0.77141 0.11608 0.51199 0.0
H2666 H 0.77061 0.18018 0.54183 0.0
H2667 H 0.80992 0.18037 0.54255 0.0
C2668 C 0.71031 0.16705 0.51645 0.0
C2669 C 0.6984 0.14913 0.52408 0.0
C2670 C 0.73282 0.1667 0.51708 0.0
C2671 C 0.7439 0.14837 0.52517 0.0
C2672 C 0.73193 0.13021 0.53201 0.0
C2673 C 0.70946 0.13061 0.53152 0.0
C2674 C 0.80204 0.13019 0.51957 0.0
C2675 C 0.81334 0.14832 0.52781 0.0
C2676 C 0.77957 0.13011 0.51903 0.0
C2677 C 0.76783 0.1482 0.52662 0.0
C2678 C 0.77916 0.16612 0.53547 0.0
C2679 C 0.80167 0.16615 0.53615 0.0
H2680 H 0.6449 0.06052 0.26566 0.0
H2681 H 0.57969 0.05877 0.29213 0.0
H2682 H 0.64568 0.02136 0.26452 0.0
H2683 H 0.58051 0.0195 0.29124 0.0
H2684 H 0.581 0.95147 0.25948 0.0
H2685 H 0.58136 0.99074 0.26039 0.0
H2686 H 0.64528 0.98961 0.29059 0.0
H2687 H 0.64497 0.95044 0.28944 0.0
C2688 C 0.63082 0.05174 0.27157 0.0
C2689 C 0.61221 0.06273 0.27894 0.0
C2690 C 0.63128 0.02929 0.27093 0.0
C2691 C 0.61308 0.01726 0.27754 0.0
C2692 C 0.59467 0.02828 0.28562 0.0
C2693 C 0.59427 0.05077 0.28639 0.0
C2694 C 0.59523 0.95963 0.26599 0.0
C2695 C 0.61294 0.94786 0.27441 0.0
C2696 C 0.59535 0.98212 0.26678 0.0
C2697 C 0.61325 0.99335 0.27584 0.0
C2698 C 0.63126 0.98152 0.28342 0.0
C2699 C 0.63109 0.95906 0.28276 0.0
H2700 H 0.70231 0.83014 0.04193 0.0
H2701 H 0.70087 0.89507 1.01479 0.0
H2702 H 0.74159 0.83069 0.04078 0.0
H2703 H 0.74003 0.89555 1.01332 0.0
H2704 H 0.81089 0.895 0.03793 0.0
H2705 H 0.77174 0.8954 0.03911 0.0
H2706 H 0.77042 0.83098 1.01016 0.0
H2707 H 0.80971 0.83051 1.00929 0.0
C2708 C 0.71039 0.8446 0.03596 0.0
C2709 C 0.69851 0.86255 0.02843 0.0
C2710 C 0.73288 0.84484 0.03503 0.0
C2711 C 0.74398 0.86308 1.0267 0.0
C2712 C 0.73204 0.88127 1.01994 0.0
C2713 C 0.70958 0.88099 1.02077 0.0
C2714 C 0.80224 0.88101 0.03154 0.0
C2715 C 0.81339 0.8627 1.02357 0.0
C2716 C 0.77978 0.88125 0.0322 0.0
C2717 C 0.7679 0.86314 1.02497 0.0
C2718 C 0.77908 0.84505 1.01628 0.0
C2719 C 0.80158 0.84486 1.01551 0.0
H2720 H 0.64597 0.56084 0.78834 0.0
H2721 H 0.58065 0.55926 0.76233 0.0
H2722 H 0.64654 0.5217 0.78975 0.0
H2723 H 0.58127 0.51998 0.76348 0.0
H2724 H 0.58167 0.45215 0.79579 0.0
H2725 H 0.58214 0.49142 0.7946 0.0
H2726 H 0.64589 0.48985 0.76381 0.0
H2727 H 0.64548 0.4507 0.76526 0.0
C2728 C 0.63183 0.55209 0.78259 0.0
C2729 C 0.61325 0.56312 0.77527 0.0
C2730 C 0.63216 0.52965 0.78338 0.0
C2731 C 0.61388 0.51768 0.77698 0.0
C2732 C 0.59549 0.52873 0.76895 0.0
C2733 C 0.59521 0.55121 0.76801 0.0
C2734 C 0.59589 0.46022 0.7891 0.0
C2735 C 0.61352 0.44835 0.78059 0.0
C2736 C 0.59607 0.48271 0.78815 0.0
C2737 C 0.61396 0.49379 0.77884 0.0
C2738 C 0.63189 0.48186 0.77117 0.0
C2739 C 0.63166 0.45942 0.772 0.0
H2740 H 0.81043 0.39579 1.01379 0.0
H2741 H 0.80947 0.33192 0.04394 0.0
H2742 H 0.77124 0.39623 1.01321 0.0
H2743 H 0.77016 0.33238 0.04352 0.0
H2744 H 0.70184 0.33113 1.01222 0.0
H2745 H 0.74112 0.33174 1.01279 0.0
H2746 H 0.73977 0.39671 0.04009 0.0
H2747 H 0.70056 0.39613 0.03933 0.0
C2748 C 0.80182 0.38195 1.02061 0.0
C2749 C 0.81303 0.36381 0.02889 0.0
C2750 C 0.77935 0.3822 1.02028 0.0
C2751 C 0.76754 0.36426 0.02809 0.0
C2752 C 0.77878 0.34633 0.037 0.0
C2753 C 0.80129 0.34614 0.03749 0.0
C2754 C 0.70995 0.34562 1.01804 0.0
C2755 C 0.69812 0.36357 1.02575 0.0
C2756 C 0.73245 0.3459 1.01863 0.0
C2757 C 0.74361 0.36419 1.02674 0.0
C2758 C 0.73172 0.38239 0.03365 0.0
C2759 C 0.70924 0.38206 0.03322 0.0
H2760 H 0.9289 0.55991 0.29315 0.0
H2761 H 0.86471 0.56086 0.26378 0.0
H2762 H 0.92837 0.52062 0.29281 0.0
H2763 H 0.86418 0.52164 0.26338 0.0
H2764 H 0.92899 0.45221 0.26125 0.0
H2765 H 0.92839 0.49151 0.26154 0.0
H2766 H 0.86423 0.49037 0.2912 0.0
H2767 H 0.86484 0.45116 0.29088 0.0
C2768 C 0.91459 0.55173 0.28689 0.0
C2769 C 0.89685 0.56346 0.27847 0.0
C2770 C 0.91437 0.52923 0.28646 0.0
C2771 C 0.89632 0.51799 0.27783 0.0
C2772 C 0.8783 0.52978 0.27021 0.0
C2773 C 0.87861 0.55225 0.27044 0.0
C2774 C 0.91467 0.46037 0.26754 0.0
C2775 C 0.89697 0.4486 0.27604 0.0
C2776 C 0.9144 0.48287 0.26795 0.0
C2777 C 0.89634 0.49408 0.27662 0.0
C2778 C 0.87836 0.48225 0.28432 0.0
C2779 C 0.87871 0.45978 0.28413 0.0
H2780 H 0.70197 0.67969 0.54212 0.0
H2781 H 0.70144 0.61462 0.51519 0.0
H2782 H 0.74127 0.67944 0.54175 0.0
H2783 H 0.74063 0.6144 0.51462 0.0
H2784 H 0.81104 0.6158 0.54117 0.0
H2785 H 0.77186 0.61516 0.54169 0.0
H2786 H 0.77056 0.67895 0.51121 0.0
H2787 H 0.80987 0.67962 0.51088 0.0
C2788 C 0.71025 0.66527 0.53637 0.0
C2789 C 0.69862 0.64718 0.52867 0.0
C2790 C 0.73275 0.66519 0.5359 0.0
C2791 C 0.74412 0.64697 0.52792 0.0
C2792 C 0.73242 0.62866 0.52098 0.0
C2793 C 0.70995 0.62879 0.52129 0.0
C2794 C 0.80239 0.62959 0.53431 0.0
C2795 C 0.81353 0.64777 0.526 0.0
C2796 C 0.77992 0.62922 0.5346 0.0
C2797 C 0.76805 0.64708 0.52671 0.0
C2798 C 0.77922 0.66506 0.5178 0.0
C2799 C 0.80173 0.66537 0.51735 0.0
H2800 H 0.3666 0.56057 0.28848 0.0
H2801 H 0.43171 0.55903 0.26169 0.0
H2802 H 0.36593 0.52143 0.28952 0.0
H2803 H 0.43098 0.51976 0.2624 0.0
H2804 H 0.36632 0.4508 0.26424 0.0
H2805 H 0.36615 0.48994 0.2633 0.0
H2806 H 0.43033 0.4908 0.29287 0.0
H2807 H 0.43056 0.45151 0.29349 0.0
C2808 C 0.38067 0.55184 0.28248 0.0
C2809 C 0.39923 0.56287 0.27505 0.0
C2810 C 0.38029 0.5294 0.28306 0.0
C2811 C 0.39848 0.51743 0.27628 0.0
C2812 C 0.41683 0.52849 0.26816 0.0
C2813 C 0.41718 0.55098 0.26747 0.0
C2814 C 0.38031 0.45935 0.2708 0.0
C2815 C 0.39848 0.44808 0.27889 0.0
C2816 C 0.3802 0.4818 0.27028 0.0
C2817 C 0.39831 0.49353 0.27778 0.0
C2818 C 0.41626 0.48224 0.28656 0.0
C2819 C 0.41632 0.45975 0.28719 0.0
H2820 H 0.3094 0.68141 0.04157 0.0
H2821 H 0.31147 0.61606 1.01561 0.0
H2822 H 0.27012 0.6804 0.0407 0.0
H2823 H 0.27229 0.61508 1.01457 0.0
H2824 H 0.20147 0.61559 0.04038 0.0
H2825 H 0.24067 0.61555 0.04116 0.0
H2826 H 0.24122 0.67904 1.00987 0.0
H2827 H 0.20192 0.67911 1.0093 0.0
C2828 C 0.30146 0.66676 0.03594 0.0
C2829 C 0.31352 0.64882 0.02866 0.0
C2830 C 0.27897 0.66625 0.03518 0.0
C2831 C 0.26804 0.64773 0.02732 0.0
C2832 C 0.28016 0.62956 1.02081 0.0
C2833 C 0.30262 0.63013 1.02141 0.0
C2834 C 0.20997 0.62944 0.0334 0.0
C2835 C 0.19861 0.64738 1.02483 0.0
C2836 C 0.23245 0.62941 0.03383 0.0
C2837 C 0.24411 0.64738 1.02581 0.0
C2838 C 0.23273 0.66508 1.01657 0.0
C2839 C 0.21022 0.66504 1.01598 0.0
H2840 H 0.08181 0.45235 0.76014 0.0
H2841 H 0.14609 0.4511 0.78926 0.0
H2842 H 0.08249 0.49165 0.76063 0.0
H2843 H 0.14673 0.49025 0.78995 0.0
H2844 H 0.08211 0.56002 0.79214 0.0
H2845 H 0.08238 0.52073 0.79139 0.0
H2846 H 0.14709 0.52162 0.76323 0.0
H2847 H 0.14685 0.56079 0.76418 0.0
C2848 C 0.09617 0.46047 0.76636 0.0
C2849 C 0.11389 0.44865 0.77467 0.0
C2850 C 0.09648 0.48296 0.76691 0.0
C2851 C 0.11458 0.49411 0.77558 0.0
C2852 C 0.13257 0.48222 0.78307 0.0
C2853 C 0.1322 0.45976 0.78267 0.0
C2854 C 0.09647 0.55179 0.7861 0.0
C2855 C 0.11445 0.56348 0.77822 0.0
C2856 C 0.09655 0.5293 0.78541 0.0
C2857 C 0.11468 0.51802 0.777 0.0
C2858 C 0.1329 0.52977 0.7699 0.0
C2859 C 0.13276 0.55222 0.77044 0.0
H2860 H 0.2017 0.33261 0.54226 0.0
H2861 H 0.20102 0.39703 0.5136 0.0
H2862 H 0.241 0.33294 0.54185 0.0
H2863 H 0.24025 0.39735 0.51309 0.0
H2864 H 0.3108 0.39617 0.54022 0.0
H2865 H 0.27159 0.39698 0.54064 0.0
H2866 H 0.27006 0.33296 0.51064 0.0
H2867 H 0.30935 0.33215 0.51029 0.0
C2868 C 0.20995 0.34692 0.53614 0.0
C2869 C 0.19829 0.36478 0.52794 0.0
C2870 C 0.23245 0.34703 0.53566 0.0
C2871 C 0.24377 0.36509 0.52719 0.0
C2872 C 0.23205 0.38322 0.5198 0.0
C2873 C 0.20958 0.38303 0.52008 0.0
C2874 C 0.30208 0.38238 0.53342 0.0
C2875 C 0.31316 0.36409 0.52523 0.0
C2876 C 0.27962 0.38284 0.53366 0.0
C2877 C 0.26768 0.36495 0.52591 0.0
C2878 C 0.27878 0.34687 0.51711 0.0
C2879 C 0.30128 0.34649 0.51666 0.0
H2880 H 0.1256 0.10549 0.09278 0.0
H2881 H 0.1139 0.17373 0.08816 0.0
H2882 H 0.12353 0.10735 0.13642 0.0
H2883 H 0.11154 0.17541 0.13267 0.0
H2884 H 0.09191 0.15491 0.21688 0.0
H2885 H 0.08912 0.15781 0.17246 0.0
H2886 H 0.15062 0.12675 0.1651 0.0
H2887 H 0.15359 0.12398 0.20849 0.0
C2888 C 0.12231 0.12095 0.10097 0.0
C2889 C 0.12021 0.13953 0.08664 0.0
C2890 C 0.12112 0.12196 0.12617 0.0
C2891 C 0.11761 0.14154 0.13815 0.0
C2892 C 0.11422 0.16004 0.124 0.0
C2893 C 0.11559 0.15907 0.09848 0.0
C2894 C 0.10494 0.14896 0.20577 0.0
C2895 C 0.12294 0.13913 0.21659 0.0
C2896 C 0.10335 0.15068 0.18031 0.0
C2897 C 0.11958 0.14232 0.16518 0.0
C2898 C 0.13772 0.13315 0.17611 0.0
C2899 C 0.13941 0.13166 0.20122 0.0
H2900 H 0.10825 0.9005 0.46076 0.0
H2901 H 0.12993 0.83478 0.4629 0.0
H2902 H 0.10445 0.89816 0.41682 0.0
H2903 H 0.12682 0.83268 0.41864 0.0
H2904 H 0.15142 0.85868 0.34076 0.0
H2905 H 0.14883 0.85456 0.38464 0.0
H2906 H 0.08308 0.87616 0.38242 0.0
H2907 H 0.08544 0.8796 0.33822 0.0
C2908 C 0.11184 0.88541 0.45188 0.0
C2909 C 0.11924 0.86777 0.46542 0.0
C2910 C 0.10964 0.88407 0.42668 0.0
C2911 C 0.11534 0.86525 0.41418 0.0
C2912 C 0.12227 0.8474 0.42773 0.0
C2913 C 0.1239 0.84855 0.45309 0.0
C2914 C 0.13623 0.86205 0.34953 0.0
C2915 C 0.11859 0.86934 0.3359 0.0
C2916 C 0.13475 0.85965 0.3747 0.0
C2917 C 0.11576 0.86504 0.38708 0.0
C2918 C 0.09793 0.87186 0.37343 0.0
C2919 C 0.09923 0.87369 0.3481 0.0
H2920 H 0.36095 0.85733 0.71191 0.0
H2921 H 0.42657 0.87935 0.71442 0.0
H2922 H 0.3635 0.85339 0.668 0.0
H2923 H 0.42888 0.8761 0.67017 0.0
H2924 H 0.40265 0.90071 0.59235 0.0
H2925 H 0.40681 0.89805 0.63622 0.0
H2926 H 0.38584 0.83212 0.63365 0.0
H2927 H 0.38236 0.83454 0.58946 0.0
C2928 C 0.37607 0.86095 0.70312 0.0
C2929 C 0.39361 0.8685 0.71673 0.0
C2930 C 0.37753 0.85866 0.67793 0.0
C2931 C 0.39638 0.86444 0.66554 0.0
C2932 C 0.41415 0.87148 0.67918 0.0
C2933 C 0.41288 0.8732 0.70453 0.0
C2934 C 0.39942 0.88547 0.60105 0.0
C2935 C 0.39229 0.86779 0.58733 0.0
C2936 C 0.40185 0.88395 0.6262 0.0
C2937 C 0.39665 0.86489 0.63847 0.0
C2938 C 0.39001 0.84702 0.62473 0.0
C2939 C 0.38815 0.84836 0.59941 0.0
H2940 H 0.4263 0.13129 0.83979 0.0
H2941 H 0.36055 0.15296 0.84197 0.0
H2942 H 0.42829 0.13434 0.88406 0.0
H2943 H 0.36278 0.1567 0.88593 0.0
H2944 H 0.38133 0.17567 0.96468 0.0
H2945 H 0.38477 0.17805 0.92046 0.0
H2946 H 0.40634 0.11232 0.91799 0.0
H2947 H 0.4022 0.10971 0.96188 0.0
C2948 C 0.41249 0.13729 0.84961 0.0
C2949 C 0.3933 0.14197 0.83728 0.0
C2950 C 0.41358 0.13889 0.87498 0.0
C2951 C 0.3957 0.14581 0.88856 0.0
C2952 C 0.3769 0.15152 0.87606 0.0
C2953 C 0.37562 0.14934 0.85084 0.0
C2954 C 0.38725 0.1619 0.95474 0.0
C2955 C 0.39159 0.14253 0.96687 0.0
C2956 C 0.38907 0.16321 0.9294 0.0
C2957 C 0.39587 0.14538 0.91567 0.0
C2958 C 0.40125 0.1264 0.92798 0.0
C2959 C 0.39885 0.1249 0.95316 0.0
H2960 H 0.86036 0.85944 0.84103 0.0
H2961 H 0.92626 0.88066 0.83857 0.0
H2962 H 0.86282 0.85546 0.88493 0.0
H2963 H 0.92847 0.87737 0.8828 0.0
H2964 H 0.90299 0.90156 0.96115 0.0
H2965 H 0.90683 0.8993 0.9172 0.0
H2966 H 0.88492 0.83365 0.91897 0.0
H2967 H 0.88177 0.83568 0.96323 0.0
C2968 C 0.87551 0.86293 0.84983 0.0
C2969 C 0.89317 0.87023 0.8362 0.0
C2970 C 0.87691 0.8606 0.87501 0.0
C2971 C 0.89583 0.8661 0.88742 0.0
C2972 C 0.91368 0.87297 0.87379 0.0
C2973 C 0.91246 0.87472 0.84844 0.0
C2974 C 0.89949 0.88646 0.95226 0.0
C2975 C 0.89222 0.86875 0.96579 0.0
C2976 C 0.90173 0.88516 0.92705 0.0
C2977 C 0.89617 0.86631 0.91452 0.0
C2978 C 0.88935 0.8484 0.92807 0.0
C2979 C 0.8877 0.84951 0.95344 0.0
H2980 H 0.9224 0.15082 0.71627 0.0
H2981 H 0.85583 0.1322 0.70914 0.0
H2982 H 0.92499 0.15365 0.67183 0.0
H2983 H 0.8587 0.13465 0.66559 0.0
H2984 H 0.88211 0.10639 0.59412 0.0
H2985 H 0.88451 0.10918 0.63767 0.0
H2986 H 0.90275 0.17569 0.63165 0.0
H2987 H 0.89997 0.17316 0.5872 0.0
C2988 C 0.90829 0.14766 0.70543 0.0
C2989 C 0.88898 0.14106 0.71656 0.0
C2990 C 0.90978 0.14931 0.67997 0.0
C2991 C 0.89207 0.1442 0.66518 0.0
C2992 C 0.87267 0.13853 0.67641 0.0
C2993 C 0.8711 0.13711 0.70155 0.0
C2994 C 0.88685 0.12169 0.60175 0.0
C2995 C 0.89059 0.13964 0.5868 0.0
C2996 C 0.88824 0.12322 0.62691 0.0
C2997 C 0.89368 0.14266 0.6382 0.0
C2998 C 0.8986 0.16045 0.62346 0.0
C2999 C 0.89697 0.15899 0.598 0.0
H3000 H 0.62909 0.17646 0.46392 0.0
H3001 H 0.60896 0.11024 0.46135 0.0
H3002 H 0.62552 0.17873 0.41972 0.0
H3003 H 0.60472 0.11273 0.41749 0.0
H3004 H 0.58466 0.13104 0.33929 0.0
H3005 H 0.58254 0.13432 0.38354 0.0
H3006 H 0.64771 0.15766 0.38527 0.0
H3007 H 0.65009 0.15368 0.34134 0.0
C3008 C 0.62332 0.16259 0.45404 0.0
C3009 C 0.61924 0.14319 0.46622 0.0
C3010 C 0.62142 0.16384 0.42871 0.0
C3011 C 0.61479 0.14591 0.41505 0.0
C3012 C 0.60966 0.12688 0.42743 0.0
C3013 C 0.61214 0.12546 0.45259 0.0
C3014 C 0.59835 0.13732 0.34907 0.0
C3015 C 0.6175 0.1422 0.33674 0.0
C3016 C 0.59719 0.13906 0.37443 0.0
C3017 C 0.61495 0.14629 0.38796 0.0
C3018 C 0.63369 0.15223 0.37543 0.0
C3019 C 0.63504 0.14992 0.35024 0.0
H3020 H 0.6107 0.90285 0.09259 0.0
H3021 H 0.62815 0.8359 0.08922 0.0
H3022 H 0.60659 0.90018 0.13647 0.0
H3023 H 0.62476 0.83345 0.13343 0.0
H3024 H 0.65042 0.85758 0.21208 0.0
H3025 H 0.64811 0.85422 0.16807 0.0
H3026 H 0.58322 0.87826 0.17013 0.0
H3027 H 0.58524 0.88089 0.21443 0.0
C3028 C 0.61333 0.88745 0.10118 0.0
C3029 C 0.61961 0.86954 0.08731 0.0
C3030 C 0.61094 0.88593 0.12635 0.0
C3031 C 0.61535 0.86662 0.13849 0.0
C3032 C 0.62121 0.84855 0.12462 0.0
C3033 C 0.62301 0.84992 0.09928 0.0
C3034 C 0.63545 0.86163 0.20323 0.0
C3035 C 0.61795 0.86933 0.21684 0.0
C3036 C 0.63414 0.85969 0.17799 0.0
C3037 C 0.6155 0.86598 0.16556 0.0
C3038 C 0.59779 0.87324 0.17918 0.0
C3039 C 0.59889 0.8746 0.20456 0.0
H3040 H 0.65536 0.63872 0.71032 0.0
H3041 H 0.58655 0.64561 0.71626 0.0
H3042 H 0.65283 0.64114 0.66664 0.0
H3043 H 0.5842 0.64854 0.67183 0.0
H3044 H 0.60924 0.67159 0.5869 0.0
H3045 H 0.60582 0.67489 0.63126 0.0
H3046 H 0.62911 0.61019 0.63941 0.0
H3047 H 0.63211 0.60658 0.59598 0.0
C3048 C 0.63965 0.64107 0.70241 0.0
C3049 C 0.62112 0.64163 0.71706 0.0
C3050 C 0.63826 0.64257 0.67725 0.0
C3051 C 0.61835 0.64496 0.66574 0.0
C3052 C 0.59981 0.64684 0.68022 0.0
C3053 C 0.60117 0.64516 0.70567 0.0
C3054 C 0.61323 0.65796 0.59814 0.0
C3055 C 0.62113 0.63889 0.58757 0.0
C3056 C 0.61124 0.65985 0.62354 0.0
C3057 C 0.6173 0.6428 0.63882 0.0
C3058 C 0.62439 0.62363 0.62818 0.0
C3059 C 0.62613 0.62164 0.6031 0.0
H3060 H 0.65107 0.35947 0.84304 0.0
H3061 H 0.58537 0.38133 0.84065 0.0
H3062 H 0.64869 0.35607 0.88703 0.0
H3063 H 0.58327 0.37864 0.88492 0.0
H3064 H 0.60985 0.40342 0.96283 0.0
H3065 H 0.60607 0.40094 0.91889 0.0
H3066 H 0.62548 0.33455 0.92137 0.0
H3067 H 0.62852 0.33679 0.96563 0.0
C3068 C 0.63599 0.36323 0.85187 0.0
C3069 C 0.61835 0.37052 0.83824 0.0
C3070 C 0.63463 0.36124 0.8771 0.0
C3071 C 0.6158 0.36708 0.88952 0.0
C3072 C 0.59799 0.37398 0.87589 0.0
C3073 C 0.59915 0.37538 0.85052 0.0
C3074 C 0.61281 0.38813 0.9541 0.0
C3075 C 0.61933 0.37025 0.96782 0.0
C3076 C 0.61062 0.38671 0.9289 0.0
C3077 C 0.61548 0.36756 0.91659 0.0
C3078 C 0.62158 0.34952 0.93032 0.0
C3079 C 0.62317 0.35077 0.95568 0.0
H3080 H 0.88075 0.40602 0.0946 0.0
H3081 H 0.90035 0.3397 0.0881 0.0
H3082 H 0.88317 0.4036 0.13817 0.0
H3083 H 0.90313 0.33754 0.13256 0.0
H3084 H 0.92212 0.36157 0.21684 0.0
H3085 H 0.92445 0.35883 0.17237 0.0
H3086 H 0.8585 0.37914 0.16667 0.0
H3087 H 0.85591 0.38152 0.21023 0.0
C3088 C 0.88586 0.3909 0.10234 0.0
C3089 C 0.8901 0.37296 0.08749 0.0
C3090 C 0.88724 0.38957 0.1275 0.0
C3091 C 0.89316 0.37036 0.13893 0.0
C3092 C 0.89857 0.35261 0.12429 0.0
C3093 C 0.89695 0.35386 0.09881 0.0
C3094 C 0.90803 0.36507 0.2061 0.0
C3095 C 0.8889 0.37197 0.21741 0.0
C3096 C 0.90937 0.36347 0.18062 0.0
C3097 C 0.8917 0.36897 0.16595 0.0
C3098 C 0.87247 0.37499 0.17736 0.0
C3099 C 0.87105 0.37635 0.20252 0.0
H3100 H 0.85755 0.62534 0.34534 0.0
H3101 H 0.92045 0.65379 0.33729 0.0
H3102 H 0.86047 0.62799 0.38874 0.0
H3103 H 0.92318 0.6566 0.38174 0.0
H3104 H 0.89793 0.67327 0.46613 0.0
H3105 H 0.90057 0.67512 0.42165 0.0
H3106 H 0.88742 0.6073 0.41718 0.0
H3107 H 0.88508 0.60525 0.4608 0.0
C3108 C 0.87198 0.63247 0.35268 0.0
C3109 C 0.8888 0.63926 0.3374 0.0
C3110 C 0.87364 0.6339 0.3778 0.0
C3111 C 0.8921 0.64234 0.38882 0.0
C3112 C 0.9087 0.65005 0.3738 0.0
C3113 C 0.90714 0.64839 0.34833 0.0
C3114 C 0.89604 0.65869 0.45566 0.0
C3115 C 0.89102 0.63917 0.46729 0.0
C3116 C 0.89758 0.65977 0.43017 0.0
C3117 C 0.89396 0.64139 0.41583 0.0
C3118 C 0.89004 0.62181 0.4276 0.0
C3119 C 0.88869 0.62069 0.45278 0.0
H3120 H 0.42394 0.36479 0.33812 0.0
H3121 H 0.35534 0.37379 0.34356 0.0
H3122 H 0.42593 0.36173 0.38255 0.0
H3123 H 0.35752 0.37127 0.38722 0.0
H3124 H 0.3768 0.40333 0.45891 0.0
H3125 H 0.37951 0.40033 0.41542 0.0
H3126 H 0.40592 0.33671 0.42234 0.0
H3127 H 0.40283 0.33938 0.46676 0.0
C3128 C 0.40928 0.36574 0.34861 0.0
C3129 C 0.38951 0.36989 0.33707 0.0
C3130 C 0.41044 0.36397 0.37405 0.0
C3131 C 0.39189 0.36645 0.38841 0.0
C3132 C 0.37212 0.36947 0.37674 0.0
C3133 C 0.37093 0.37101 0.35158 0.0
C3134 C 0.38339 0.38864 0.4515 0.0
C3135 C 0.38943 0.37151 0.46671 0.0
C3136 C 0.38493 0.38699 0.42638 0.0
C3137 C 0.39282 0.36828 0.41537 0.0
C3138 C 0.39983 0.35138 0.43033 0.0
C3139 C 0.39801 0.35291 0.45577 0.0
H3140 H 0.35959 0.65125 0.21208 0.0
H3141 H 0.42618 0.6324 0.21491 0.0
H3142 H 0.36214 0.65517 0.16816 0.0
H3143 H 0.42849 0.63557 0.17066 0.0
H3144 H 0.40306 0.60999 0.09232 0.0
H3145 H 0.4067 0.61241 0.1363 0.0
H3146 H 0.3847 0.678 0.13416 0.0
H3147 H 0.38183 0.67584 0.08988 0.0
C3148 C 0.3749 0.64829 0.20336 0.0
C3149 C 0.39274 0.64168 0.2171 0.0
C3150 C 0.37634 0.65056 0.17817 0.0
C3151 C 0.3955 0.64569 0.16587 0.0
C3152 C 0.41351 0.63949 0.1796 0.0
C3153 C 0.41223 0.63782 0.20496 0.0
C3154 C 0.39952 0.62512 0.10114 0.0
C3155 C 0.39232 0.64278 0.0875 0.0
C3156 C 0.40163 0.6265 0.12636 0.0
C3157 C 0.39599 0.64538 0.13878 0.0
C3158 C 0.38922 0.66324 0.12513 0.0
C3159 C 0.38771 0.66205 0.09976 0.0
H3160 H 0.08851 0.64758 0.83781 0.0
H3161 H 0.15679 0.63638 0.84357 0.0
H3162 H 0.08631 0.65029 0.88229 0.0
H3163 H 0.1544 0.63874 0.88718 0.0
H3164 H 0.13588 0.60785 0.95865 0.0
H3165 H 0.13317 0.61083 0.91523 0.0
H3166 H 0.10519 0.67377 0.92246 0.0
H3167 H 0.10807 0.67099 0.96688 0.0
C3168 C 0.10306 0.64609 0.84837 0.0
C3169 C 0.12277 0.64149 0.83687 0.0
C3170 C 0.10179 0.64766 0.87386 0.0
C3171 C 0.12017 0.6445 0.8883 0.0
C3172 C 0.13991 0.64103 0.87666 0.0
C3173 C 0.14121 0.63965 0.8515 0.0
C3174 C 0.12886 0.62234 0.95135 0.0
C3175 C 0.12228 0.63921 0.96667 0.0
C3176 C 0.12738 0.62402 0.92624 0.0
C3177 C 0.11909 0.64256 0.91529 0.0
C3178 C 0.11158 0.65922 0.93036 0.0
C3179 C 0.11329 0.65763 0.95581 0.0
H3180 H 0.15596 0.37487 0.71061 0.0
H3181 H 0.0873 0.36576 0.71548 0.0
H3182 H 0.15402 0.37255 0.66697 0.0
H3183 H 0.08554 0.36312 0.67099 0.0
H3184 H 0.10622 0.34232 0.58661 0.0
H3185 H 0.10315 0.33954 0.63104 0.0
H3186 H 0.13484 0.40069 0.63851 0.0
H3187 H 0.13775 0.40366 0.59513 0.0
C3188 C 0.14038 0.37207 0.70248 0.0
C3189 C 0.12173 0.3708 0.71687 0.0
C3190 C 0.13933 0.37073 0.67729 0.0
C3191 C 0.11963 0.36787 0.66538 0.0
C3192 C 0.101 0.36527 0.67961 0.0
C3193 C 0.10202 0.3668 0.70511 0.0
C3194 C 0.11226 0.35528 0.59775 0.0
C3195 C 0.12229 0.3732 0.58695 0.0
C3196 C 0.11045 0.35369 0.6232 0.0
C3197 C 0.11891 0.36984 0.63836 0.0
C3198 C 0.12831 0.38788 0.62747 0.0
C3199 C 0.12989 0.38957 0.60236 0.0
loop_
_geom_bond_atom_site_label_1
_geom_bond_atom_site_label_2
_geom_bond_distance
_geom_bond_site_symmetry_2
_ccdc_geom_bond_type
Ho0 C3 2.811 . S
Ho0 O20 2.322 . S
Ho0 O22 2.378 . S
Ho0 O23 2.524 . S
Ho0 O24 2.381 . S
Ho0 O25 2.669 . S
Ho0 O27 2.346 . S
Ho0 O31 2.305 . S
Ho1 C12 2.811 . S
Ho1 O21 2.346 . S
Ho1 O25 2.305 . S
Ho1 O26 2.322 . S
Ho1 O28 2.378 . S
Ho1 O29 2.524 . S
Ho1 O30 2.381 . S
Ho1 O31 2.669 . S
C2 O20 1.259 . S
C2 O21 1.268 . S
C3 Ho0 2.811 . S
C3 C4 1.488 . S
C3 O22 1.215 . S
C3 O23 1.289 . S
C4 C3 1.488 . S
C4 C5 1.348 . S
C4 C9 1.413 . S
C5 C4 1.348 . S
C5 C6 1.442 . S
C5 H32 0.930 . S
C6 C5 1.442 . S
C6 C7 1.381 . S
C6 H33 0.931 . S
C7 C6 1.381 . S
C7 C8 1.321 . S
C8 C7 1.321 . S
C8 C9 1.403 . S
C8 H34 0.934 . S
C9 C4 1.413 . S
C9 C8 1.403 . S
C9 H35 0.930 . S
C10 O24 1.275 . S
C10 O25 1.256 . S
C11 O26 1.259 . S
C11 O27 1.268 . S
C12 Ho1 2.811 . S
C12 C13 1.488 . S
C12 O28 1.215 . S
C12 O29 1.289 . S
C13 C12 1.488 . S
C13 C14 1.348 . S
C13 C18 1.413 . S
C14 C13 1.348 . S
C14 C15 1.442 . S
C14 H36 0.930 . S
C15 C14 1.442 . S
C15 C16 1.381 . S
C15 H37 0.931 . S
C16 C15 1.381 . S
C16 C17 1.321 . S
C17 C16 1.321 . S
C17 C18 1.403 . S
C17 H38 0.934 . S
C18 C13 1.413 . S
C18 C17 1.403 . S
C18 H39 0.930 . S
C19 O30 1.275 . S
C19 O31 1.256 . S
O20 Ho0 2.322 . S
O20 C2 1.259 . S
O21 Ho1 2.346 . S
O21 C2 1.268 . S
O22 Ho0 2.378 . S
O22 C3 1.215 . S
O23 Ho0 2.524 . S
O23 C3 1.289 . S
O24 Ho0 2.381 . S
O24 C10 1.275 . S
O25 Ho0 2.669 . S
O25 Ho1 2.305 . S
O25 C10 1.256 . S
O26 Ho1 2.322 . S
O26 C11 1.259 . S
O27 Ho0 2.346 . S
O27 C11 1.268 . S
O28 Ho1 2.378 . S
O28 C12 1.215 . S
O29 Ho1 2.524 . S
O29 C12 1.289 . S
O30 Ho1 2.381 . S
O30 C19 1.275 . S
O31 Ho0 2.305 . S
O31 Ho1 2.669 . S
O31 C19 1.256 . S
H32 C5 0.930 . S
H33 C6 0.931 . S
H34 C8 0.934 . S
H35 C9 0.930 . S
H36 C14 0.930 . S
H37 C15 0.931 . S
H38 C17 0.934 . S
H39 C18 0.930 . S
Ho40 C43 2.811 . S
Ho40 O60 2.322 . S
Ho40 O62 2.378 . S
Ho40 O63 2.524 . S
Ho40 O64 2.381 . S
Ho40 O65 2.669 . S
Ho40 O67 2.346 . S
Ho40 O71 2.305 . S
Ho41 C52 2.811 . S
Ho41 O61 2.346 . S
Ho41 O65 2.305 . S
Ho41 O66 2.322 . S
Ho41 O68 2.378 . S
Ho41 O69 2.524 . S
Ho41 O70 2.381 . S
Ho41 O71 2.669 . S
C42 O60 1.259 . S
C42 O61 1.268 . S
C43 Ho40 2.811 . S
C43 C44 1.488 . S
C43 O62 1.215 . S
C43 O63 1.289 . S
C44 C43 1.488 . S
C44 C45 1.348 . S
C44 C49 1.413 . S
C45 C44 1.348 . S
C45 C46 1.442 . S
C45 H72 0.930 . S
C46 C45 1.442 . S
C46 C47 1.381 . S
C46 H73 0.931 . S
C47 C46 1.381 . S
C47 C48 1.321 . S
C48 C47 1.321 . S
C48 C49 1.403 . S
C48 H74 0.934 1_565 S
C49 C44 1.413 . S
C49 C48 1.403 . S
C49 H75 0.930 . S
C50 O64 1.275 . S
C50 O65 1.256 . S
C51 O66 1.259 . S
C51 O67 1.268 . S
C52 Ho41 2.811 . S
C52 C53 1.488 . S
C52 O68 1.215 . S
C52 O69 1.289 . S
C53 C52 1.488 . S
C53 C54 1.348 . S
C53 C58 1.413 . S
C54 C53 1.348 . S
C54 C55 1.442 . S
C54 H76 0.930 . S
C55 C54 1.442 . S
C55 C56 1.381 . S
C55 H77 0.931 . S
C56 C55 1.381 . S
C56 C57 1.321 . S
C57 C56 1.321 . S
C57 C58 1.403 . S
C57 H78 0.934 . S
C58 C53 1.413 . S
C58 C57 1.403 . S
C58 H79 0.930 . S
C59 O70 1.275 . S
C59 O71 1.256 . S
O60 Ho40 2.322 . S
O60 C42 1.259 . S
O61 Ho41 2.346 . S
O61 C42 1.268 . S
O62 Ho40 2.378 . S
O62 C43 1.215 . S
O63 Ho40 2.524 . S
O63 C43 1.289 . S
O64 Ho40 2.381 . S
O64 C50 1.275 . S
O65 Ho40 2.669 . S
O65 Ho41 2.305 . S
O65 C50 1.256 . S
O66 Ho41 2.322 . S
O66 C51 1.259 . S
O67 Ho40 2.346 . S
O67 C51 1.268 . S
O68 Ho41 2.378 . S
O68 C52 1.215 . S
O69 Ho41 2.524 . S
O69 C52 1.289 . S
O70 Ho41 2.381 . S
O70 C59 1.275 . S
O71 Ho40 2.305 . S
O71 Ho41 2.669 . S
O71 C59 1.256 . S
H72 C45 0.930 . S
H73 C46 0.931 . S
H74 C48 0.934 1_545 S
H75 C49 0.930 . S
H76 C54 0.930 . S
H77 C55 0.931 . S
H78 C57 0.934 . S
H79 C58 0.930 . S
Ho80 C83 2.811 . S
Ho80 O100 2.322 . S
Ho80 O102 2.378 . S
Ho80 O103 2.524 . S
Ho80 O104 2.381 . S
Ho80 O105 2.669 . S
Ho80 O107 2.346 . S
Ho80 O111 2.305 . S
Ho81 C92 2.811 . S
Ho81 O101 2.346 . S
Ho81 O105 2.305 . S
Ho81 O106 2.322 . S
Ho81 O108 2.378 . S
Ho81 O109 2.524 . S
Ho81 O110 2.381 . S
Ho81 O111 2.669 . S
C82 O100 1.259 . S
C82 O101 1.268 . S
C83 Ho80 2.811 . S
C83 C84 1.488 . S
C83 O102 1.215 . S
C83 O103 1.289 . S
C84 C83 1.488 . S
C84 C85 1.348 . S
C84 C89 1.413 . S
C85 C84 1.348 . S
C85 C86 1.442 . S
C85 H112 0.930 . S
C86 C85 1.442 . S
C86 C87 1.381 . S
C86 H113 0.931 . S
C87 C86 1.381 . S
C87 C88 1.321 . S
C88 C87 1.321 . S
C88 C89 1.403 . S
C88 H114 0.934 . S
C89 C84 1.413 . S
C89 C88 1.403 . S
C89 H115 0.930 . S
C90 O104 1.275 . S
C90 O105 1.256 . S
C91 O106 1.259 . S
C91 O107 1.268 . S
C92 Ho81 2.811 . S
C92 C93 1.488 . S
C92 O108 1.215 . S
C92 O109 1.289 . S
C93 C92 1.488 . S
C93 C94 1.348 . S
C93 C98 1.413 . S
C94 C93 1.348 . S
C94 C95 1.442 . S
C94 H116 0.930 . S
C95 C94 1.442 . S
C95 C96 1.381 . S
C95 H117 0.931 . S
C96 C95 1.381 . S
C96 C97 1.321 . S
C97 C96 1.321 . S
C97 C98 1.403 . S
C97 H118 0.934 . S
C98 C93 1.413 . S
C98 C97 1.403 . S
C98 H119 0.930 . S
C99 O110 1.275 . S
C99 O111 1.256 . S
O100 Ho80 2.322 . S
O100 C82 1.259 . S
O101 Ho81 2.346 . S
O101 C82 1.268 . S
O102 Ho80 2.378 . S
O102 C83 1.215 . S
O103 Ho80 2.524 . S
O103 C83 1.289 . S
O104 Ho80 2.381 . S
O104 C90 1.275 . S
O105 Ho80 2.669 . S
O105 Ho81 2.305 . S
O105 C90 1.256 . S
O106 Ho81 2.322 . S
O106 C91 1.259 . S
O107 Ho80 2.346 . S
O107 C91 1.268 . S
O108 Ho81 2.378 . S
O108 C92 1.215 . S
O109 Ho81 2.524 . S
O109 C92 1.289 . S
O110 Ho81 2.381 . S
O110 C99 1.275 . S
O111 Ho80 2.305 . S
O111 Ho81 2.669 . S
O111 C99 1.256 . S
H112 C85 0.930 . S
H113 C86 0.931 . S
H114 C88 0.934 . S
H115 C89 0.930 . S
H116 C94 0.930 . S
H117 C95 0.931 . S
H118 C97 0.934 . S
H119 C98 0.930 . S
Ho120 C123 2.811 1_554 S
Ho120 O140 2.322 1_554 S
Ho120 O142 2.378 . S
Ho120 O143 2.524 1_554 S
Ho120 O144 2.381 . S
Ho120 O145 2.669 . S
Ho120 O147 2.346 . S
Ho120 O151 2.305 . S
Ho121 C132 2.811 . S
Ho121 O141 2.346 1_554 S
Ho121 O145 2.305 . S
Ho121 O146 2.322 . S
Ho121 O148 2.378 . S
Ho121 O149 2.524 . S
Ho121 O150 2.381 . S
Ho121 O151 2.669 . S
C122 O140 1.259 . S
C122 O141 1.268 . S
C123 Ho120 2.811 1_556 S
C123 C124 1.488 . S
C123 O142 1.215 1_556 S
C123 O143 1.289 . S
C124 C123 1.488 . S
C124 C125 1.348 . S
C124 C129 1.413 . S
C125 C124 1.348 . S
C125 C126 1.442 . S
C125 H152 0.930 . S
C126 C125 1.442 . S
C126 C127 1.381 . S
C126 H153 0.931 . S
C127 C126 1.381 . S
C127 C128 1.321 . S
C128 C127 1.321 . S
C128 C129 1.403 . S
C128 H154 0.934 1_545 S
C129 C124 1.413 . S
C129 C128 1.403 . S
C129 H155 0.930 . S
C130 O144 1.275 . S
C130 O145 1.256 . S
C131 O146 1.259 . S
C131 O147 1.268 . S
C132 Ho121 2.811 . S
C132 C133 1.488 . S
C132 O148 1.215 . S
C132 O149 1.289 . S
C133 C132 1.488 . S
C133 C134 1.348 . S
C133 C138 1.413 . S
C134 C133 1.348 . S
C134 C135 1.442 . S
C134 H156 0.930 . S
C135 C134 1.442 . S
C135 C136 1.381 . S
C135 H157 0.931 . S
C136 C135 1.381 . S
C136 C137 1.321 . S
C137 C136 1.321 . S
C137 C138 1.403 . S
C137 H158 0.934 . S
C138 C133 1.413 . S
C138 C137 1.403 . S
C138 H159 0.930 . S
C139 O150 1.275 . S
C139 O151 1.256 . S
O140 Ho120 2.322 1_556 S
O140 C122 1.259 . S
O141 Ho121 2.346 1_556 S
O141 C122 1.268 . S
O142 Ho120 2.378 . S
O142 C123 1.215 1_554 S
O143 Ho120 2.524 1_556 S
O143 C123 1.289 . S
O144 Ho120 2.381 . S
O144 C130 1.275 . S
O145 Ho120 2.669 . S
O145 Ho121 2.305 . S
O145 C130 1.256 . S
O146 Ho121 2.322 . S
O146 C131 1.259 . S
O147 Ho120 2.346 . S
O147 C131 1.268 . S
O148 Ho121 2.378 . S
O148 C132 1.215 . S
O149 Ho121 2.524 . S
O149 C132 1.289 . S
O150 Ho121 2.381 . S
O150 C139 1.275 . S
O151 Ho120 2.305 . S
O151 Ho121 2.669 . S
O151 C139 1.256 . S
H152 C125 0.930 . S
H153 C126 0.931 . S
H154 C128 0.934 1_565 S
H155 C129 0.930 . S
H156 C134 0.930 . S
H157 C135 0.931 . S
H158 C137 0.934 . S
H159 C138 0.930 . S
Ho160 C163 2.811 . S
Ho160 O180 2.322 . S
Ho160 O182 2.378 . S
Ho160 O183 2.524 . S
Ho160 O184 2.381 . S
Ho160 O185 2.669 . S
Ho160 O187 2.346 . S
Ho160 O191 2.305 . S
Ho161 C172 2.811 . S
Ho161 O181 2.346 . S
Ho161 O185 2.305 . S
Ho161 O186 2.322 . S
Ho161 O188 2.378 . S
Ho161 O189 2.524 . S
Ho161 O190 2.381 . S
Ho161 O191 2.669 . S
C162 O180 1.259 . S
C162 O181 1.268 . S
C163 Ho160 2.811 . S
C163 C164 1.488 . S
C163 O182 1.215 . S
C163 O183 1.289 . S
C164 C163 1.488 . S
C164 C165 1.348 . S
C164 C169 1.413 . S
C165 C164 1.348 . S
C165 C166 1.442 . S
C165 H192 0.930 . S
C166 C165 1.442 . S
C166 C167 1.381 . S
C166 H193 0.931 . S
C167 C166 1.381 . S
C167 C168 1.321 . S
C168 C167 1.321 . S
C168 C169 1.403 . S
C168 H194 0.934 . S
C169 C164 1.413 . S
C169 C168 1.403 . S
C169 H195 0.930 . S
C170 O184 1.275 . S
C170 O185 1.256 . S
C171 O186 1.259 . S
C171 O187 1.268 . S
C172 Ho161 2.811 . S
C172 C173 1.488 . S
C172 O188 1.215 . S
C172 O189 1.289 . S
C173 C172 1.488 . S
C173 C174 1.348 . S
C173 C178 1.413 . S
C174 C173 1.348 . S
C174 C175 1.442 . S
C174 H196 0.930 . S
C175 C174 1.442 . S
C175 C176 1.381 . S
C175 H197 0.931 . S
C176 C175 1.381 . S
C176 C177 1.321 . S
C177 C176 1.321 . S
C177 C178 1.403 . S
C177 H198 0.934 . S
C178 C173 1.413 . S
C178 C177 1.403 . S
C178 H199 0.930 . S
C179 O190 1.275 . S
C179 O191 1.256 . S
O180 Ho160 2.322 . S
O180 C162 1.259 . S
O181 Ho161 2.346 . S
O181 C162 1.268 . S
O182 Ho160 2.378 . S
O182 C163 1.215 . S
O183 Ho160 2.524 . S
O183 C163 1.289 . S
O184 Ho160 2.381 . S
O184 C170 1.275 . S
O185 Ho160 2.669 . S
O185 Ho161 2.305 . S
O185 C170 1.256 . S
O186 Ho161 2.322 . S
O186 C171 1.259 . S
O187 Ho160 2.346 . S
O187 C171 1.268 . S
O188 Ho161 2.378 . S
O188 C172 1.215 . S
O189 Ho161 2.524 . S
O189 C172 1.289 . S
O190 Ho161 2.381 . S
O190 C179 1.275 . S
O191 Ho160 2.305 . S
O191 Ho161 2.669 . S
O191 C179 1.256 . S
H192 C165 0.930 . S
H193 C166 0.931 . S
H194 C168 0.934 . S
H195 C169 0.930 . S
H196 C174 0.930 . S
H197 C175 0.931 . S
H198 C177 0.934 . S
H199 C178 0.930 . S
Ho200 C203 2.811 . S
Ho200 O220 2.322 . S
Ho200 O222 2.378 . S
Ho200 O223 2.524 . S
Ho200 O224 2.381 . S
Ho200 O225 2.669 . S
Ho200 O227 2.346 . S
Ho200 O231 2.305 . S
Ho201 C212 2.811 . S
Ho201 O221 2.346 . S
Ho201 O225 2.305 . S
Ho201 O226 2.322 . S
Ho201 O228 2.378 . S
Ho201 O229 2.524 . S
Ho201 O230 2.381 . S
Ho201 O231 2.669 . S
C202 O220 1.259 . S
C202 O221 1.268 . S
C203 Ho200 2.811 . S
C203 C204 1.488 . S
C203 O222 1.215 . S
C203 O223 1.289 . S
C204 C203 1.488 . S
C204 C205 1.348 . S
C204 C209 1.413 . S
C205 C204 1.348 . S
C205 C206 1.442 . S
C205 H232 0.930 . S
C206 C205 1.442 . S
C206 C207 1.381 . S
C206 H233 0.931 . S
C207 C206 1.381 . S
C207 C208 1.321 . S
C208 C207 1.321 . S
C208 C209 1.403 . S
C208 H234 0.934 1_565 S
C209 C204 1.413 . S
C209 C208 1.403 . S
C209 H235 0.930 . S
C210 O224 1.275 . S
C210 O225 1.256 . S
C211 O226 1.259 . S
C211 O227 1.268 . S
C212 Ho201 2.811 . S
C212 C213 1.488 . S
C212 O228 1.215 . S
C212 O229 1.289 . S
C213 C212 1.488 . S
C213 C214 1.348 . S
C213 C218 1.413 . S
C214 C213 1.348 . S
C214 C215 1.442 . S
C214 H236 0.930 . S
C215 C214 1.442 . S
C215 C216 1.381 . S
C215 H237 0.931 . S
C216 C215 1.381 . S
C216 C217 1.321 . S
C217 C216 1.321 . S
C217 C218 1.403 . S
C217 H238 0.934 . S
C218 C213 1.413 . S
C218 C217 1.403 . S
C218 H239 0.930 . S
C219 O230 1.275 . S
C219 O231 1.256 . S
O220 Ho200 2.322 . S
O220 C202 1.259 . S
O221 Ho201 2.346 . S
O221 C202 1.268 . S
O222 Ho200 2.378 . S
O222 C203 1.215 . S
O223 Ho200 2.524 . S
O223 C203 1.289 . S
O224 Ho200 2.381 . S
O224 C210 1.275 . S
O225 Ho200 2.669 . S
O225 Ho201 2.305 . S
O225 C210 1.256 . S
O226 Ho201 2.322 . S
O226 C211 1.259 . S
O227 Ho200 2.346 . S
O227 C211 1.268 . S
O228 Ho201 2.378 . S
O228 C212 1.215 . S
O229 Ho201 2.524 . S
O229 C212 1.289 . S
O230 Ho201 2.381 . S
O230 C219 1.275 . S
O231 Ho200 2.305 . S
O231 Ho201 2.669 . S
O231 C219 1.256 . S
H232 C205 0.930 . S
H233 C206 0.931 . S
H234 C208 0.934 1_545 S
H235 C209 0.930 . S
H236 C214 0.930 . S
H237 C215 0.931 . S
H238 C217 0.934 . S
H239 C218 0.930 . S
Ho240 C243 2.811 . S
Ho240 O260 2.322 . S
Ho240 O262 2.378 . S
Ho240 O263 2.524 . S
Ho240 O264 2.381 . S
Ho240 O265 2.669 . S
Ho240 O267 2.346 . S
Ho240 O271 2.305 . S
Ho241 C252 2.811 . S
Ho241 O261 2.346 . S
Ho241 O265 2.305 . S
Ho241 O266 2.322 . S
Ho241 O268 2.378 . S
Ho241 O269 2.524 . S
Ho241 O270 2.381 . S
Ho241 O271 2.669 . S
C242 O260 1.259 . S
C242 O261 1.268 . S
C243 Ho240 2.811 . S
C243 C244 1.488 . S
C243 O262 1.215 . S
C243 O263 1.289 . S
C244 C243 1.488 . S
C244 C245 1.348 . S
C244 C249 1.413 . S
C245 C244 1.348 . S
C245 C246 1.442 . S
C245 H272 0.930 . S
C246 C245 1.442 . S
C246 C247 1.381 . S
C246 H273 0.931 . S
C247 C246 1.381 . S
C247 C248 1.321 . S
C248 C247 1.321 . S
C248 C249 1.403 . S
C248 H274 0.934 . S
C249 C244 1.413 . S
C249 C248 1.403 . S
C249 H275 0.930 . S
C250 O264 1.275 . S
C250 O265 1.256 . S
C251 O266 1.259 . S
C251 O267 1.268 . S
C252 Ho241 2.811 . S
C252 C253 1.488 . S
C252 O268 1.215 . S
C252 O269 1.289 . S
C253 C252 1.488 . S
C253 C254 1.348 . S
C253 C258 1.413 . S
C254 C253 1.348 . S
C254 C255 1.442 . S
C254 H276 0.930 . S
C255 C254 1.442 . S
C255 C256 1.381 . S
C255 H277 0.931 . S
C256 C255 1.381 . S
C256 C257 1.321 . S
C257 C256 1.321 . S
C257 C258 1.403 . S
C257 H278 0.934 . S
C258 C253 1.413 . S
C258 C257 1.403 . S
C258 H279 0.930 . S
C259 O270 1.275 . S
C259 O271 1.256 . S
O260 Ho240 2.322 . S
O260 C242 1.259 . S
O261 Ho241 2.346 . S
O261 C242 1.268 . S
O262 Ho240 2.378 . S
O262 C243 1.215 . S
O263 Ho240 2.524 . S
O263 C243 1.289 . S
O264 Ho240 2.381 . S
O264 C250 1.275 . S
O265 Ho240 2.669 . S
O265 Ho241 2.305 . S
O265 C250 1.256 . S
O266 Ho241 2.322 . S
O266 C251 1.259 . S
O267 Ho240 2.346 . S
O267 C251 1.268 . S
O268 Ho241 2.378 . S
O268 C252 1.215 . S
O269 Ho241 2.524 . S
O269 C252 1.289 . S
O270 Ho241 2.381 . S
O270 C259 1.275 . S
O271 Ho240 2.305 . S
O271 Ho241 2.669 . S
O271 C259 1.256 . S
H272 C245 0.930 . S
H273 C246 0.931 . S
H274 C248 0.934 . S
H275 C249 0.930 . S
H276 C254 0.930 . S
H277 C255 0.931 . S
H278 C257 0.934 . S
H279 C258 0.930 . S
Ho280 C283 2.811 1_556 S
Ho280 O300 2.322 1_556 S
Ho280 O302 2.378 . S
Ho280 O303 2.524 1_556 S
Ho280 O304 2.381 . S
Ho280 O305 2.669 . S
Ho280 O307 2.346 . S
Ho280 O311 2.305 . S
Ho281 C292 2.811 . S
Ho281 O301 2.346 1_556 S
Ho281 O305 2.305 . S
Ho281 O306 2.322 . S
Ho281 O308 2.378 . S
Ho281 O309 2.524 . S
Ho281 O310 2.381 . S
Ho281 O311 2.669 . S
C282 O300 1.259 . S
C282 O301 1.268 . S
C283 Ho280 2.811 1_554 S
C283 C284 1.488 . S
C283 O302 1.215 1_554 S
C283 O303 1.289 . S
C284 C283 1.488 . S
C284 C285 1.348 . S
C284 C289 1.413 . S
C285 C284 1.348 . S
C285 C286 1.442 . S
C285 H312 0.930 . S
C286 C285 1.442 . S
C286 C287 1.381 . S
C286 H313 0.931 . S
C287 C286 1.381 . S
C287 C288 1.321 . S
C288 C287 1.321 . S
C288 C289 1.403 . S
C288 H314 0.934 1_545 S
C289 C284 1.413 . S
C289 C288 1.403 . S
C289 H315 0.930 . S
C290 O304 1.275 . S
C290 O305 1.256 . S
C291 O306 1.259 . S
C291 O307 1.268 . S
C292 Ho281 2.811 . S
C292 C293 1.488 . S
C292 O308 1.215 . S
C292 O309 1.289 . S
C293 C292 1.488 . S
C293 C294 1.348 . S
C293 C298 1.413 . S
C294 C293 1.348 . S
C294 C295 1.442 . S
C294 H316 0.930 . S
C295 C294 1.442 . S
C295 C296 1.381 . S
C295 H317 0.931 . S
C296 C295 1.381 . S
C296 C297 1.321 . S
C297 C296 1.321 . S
C297 C298 1.403 . S
C297 H318 0.934 . S
C298 C293 1.413 . S
C298 C297 1.403 . S
C298 H319 0.930 . S
C299 O310 1.275 . S
C299 O311 1.256 . S
O300 Ho280 2.322 1_554 S
O300 C282 1.259 . S
O301 Ho281 2.346 1_554 S
O301 C282 1.268 . S
O302 Ho280 2.378 . S
O302 C283 1.215 1_556 S
O303 Ho280 2.524 1_554 S
O303 C283 1.289 . S
O304 Ho280 2.381 . S
O304 C290 1.275 . S
O305 Ho280 2.669 . S
O305 Ho281 2.305 . S
O305 C290 1.256 . S
O306 Ho281 2.322 . S
O306 C291 1.259 . S
O307 Ho280 2.346 . S
O307 C291 1.268 . S
O308 Ho281 2.378 . S
O308 C292 1.215 . S
O309 Ho281 2.524 . S
O309 C292 1.289 . S
O310 Ho281 2.381 . S
O310 C299 1.275 . S
O311 Ho280 2.305 . S
O311 Ho281 2.669 . S
O311 C299 1.256 . S
H312 C285 0.930 . S
H313 C286 0.931 . S
H314 C288 0.934 1_565 S
H315 C289 0.930 . S
H316 C294 0.930 . S
H317 C295 0.931 . S
H318 C297 0.934 . S
H319 C298 0.930 . S
Ho320 C323 2.811 . S
Ho320 O340 2.322 . S
Ho320 O342 2.378 . S
Ho320 O343 2.524 . S
Ho320 O344 2.381 . S
Ho320 O345 2.669 . S
Ho320 O347 2.346 . S
Ho320 O351 2.305 . S
Ho321 C332 2.811 . S
Ho321 O341 2.346 . S
Ho321 O345 2.305 . S
Ho321 O346 2.322 . S
Ho321 O348 2.378 . S
Ho321 O349 2.524 . S
Ho321 O350 2.381 . S
Ho321 O351 2.669 . S
C322 O340 1.259 . S
C322 O341 1.268 . S
C323 Ho320 2.811 . S
C323 C324 1.488 . S
C323 O342 1.215 . S
C323 O343 1.289 . S
C324 C323 1.488 . S
C324 C325 1.348 . S
C324 C329 1.413 . S
C325 C324 1.348 . S
C325 C326 1.442 . S
C325 H352 0.930 . S
C326 C325 1.442 . S
C326 C327 1.381 . S
C326 H353 0.931 . S
C327 C326 1.381 . S
C327 C328 1.321 . S
C328 C327 1.321 . S
C328 C329 1.403 . S
C328 H354 0.934 . S
C329 C324 1.413 . S
C329 C328 1.403 . S
C329 H355 0.930 . S
C330 O344 1.275 . S
C330 O345 1.256 . S
C331 O346 1.259 . S
C331 O347 1.268 . S
C332 Ho321 2.811 . S
C332 C333 1.488 . S
C332 O348 1.215 . S
C332 O349 1.289 . S
C333 C332 1.488 . S
C333 C334 1.348 . S
C333 C338 1.413 . S
C334 C333 1.348 . S
C334 C335 1.442 . S
C334 H356 0.930 . S
C335 C334 1.442 . S
C335 C336 1.381 . S
C335 H357 0.931 . S
C336 C335 1.381 . S
C336 C337 1.321 . S
C337 C336 1.321 . S
C337 C338 1.403 . S
C337 H358 0.934 . S
C338 C333 1.413 . S
C338 C337 1.403 . S
C338 H359 0.930 . S
C339 O350 1.275 . S
C339 O351 1.256 . S
O340 Ho320 2.322 . S
O340 C322 1.259 . S
O341 Ho321 2.346 . S
O341 C322 1.268 . S
O342 Ho320 2.378 . S
O342 C323 1.215 . S
O343 Ho320 2.524 . S
O343 C323 1.289 . S
O344 Ho320 2.381 . S
O344 C330 1.275 . S
O345 Ho320 2.669 . S
O345 Ho321 2.305 . S
O345 C330 1.256 . S
O346 Ho321 2.322 . S
O346 C331 1.259 . S
O347 Ho320 2.346 . S
O347 C331 1.268 . S
O348 Ho321 2.378 . S
O348 C332 1.215 . S
O349 Ho321 2.524 . S
O349 C332 1.289 . S
O350 Ho321 2.381 . S
O350 C339 1.275 . S
O351 Ho320 2.305 . S
O351 Ho321 2.669 . S
O351 C339 1.256 . S
H352 C325 0.930 . S
H353 C326 0.931 . S
H354 C328 0.934 . S
H355 C329 0.930 . S
H356 C334 0.930 . S
H357 C335 0.931 . S
H358 C337 0.934 . S
H359 C338 0.930 . S
Ho360 C363 2.811 . S
Ho360 O380 2.322 . S
Ho360 O382 2.378 . S
Ho360 O383 2.524 . S
Ho360 O384 2.381 . S
Ho360 O385 2.669 . S
Ho360 O387 2.346 . S
Ho360 O391 2.305 . S
Ho361 C372 2.811 . S
Ho361 O381 2.346 . S
Ho361 O385 2.305 . S
Ho361 O386 2.322 . S
Ho361 O388 2.378 . S
Ho361 O389 2.524 . S
Ho361 O390 2.381 . S
Ho361 O391 2.669 . S
C362 O380 1.259 . S
C362 O381 1.268 . S
C363 Ho360 2.811 . S
C363 C364 1.488 . S
C363 O382 1.215 . S
C363 O383 1.289 . S
C364 C363 1.488 . S
C364 C365 1.348 . S
C364 C369 1.413 . S
C365 C364 1.348 . S
C365 C366 1.442 . S
C365 H392 0.930 . S
C366 C365 1.442 . S
C366 C367 1.381 . S
C366 H393 0.931 . S
C367 C366 1.381 . S
C367 C368 1.321 . S
C368 C367 1.321 . S
C368 C369 1.403 . S
C368 H394 0.934 . S
C369 C364 1.413 . S
C369 C368 1.403 . S
C369 H395 0.930 . S
C370 O384 1.275 . S
C370 O385 1.256 . S
C371 O386 1.259 . S
C371 O387 1.268 . S
C372 Ho361 2.811 . S
C372 C373 1.488 . S
C372 O388 1.215 . S
C372 O389 1.289 . S
C373 C372 1.488 . S
C373 C374 1.348 . S
C373 C378 1.413 . S
C374 C373 1.348 . S
C374 C375 1.442 . S
C374 H396 0.930 . S
C375 C374 1.442 . S
C375 C376 1.381 . S
C375 H397 0.931 . S
C376 C375 1.381 . S
C376 C377 1.321 . S
C377 C376 1.321 . S
C377 C378 1.403 . S
C377 H398 0.934 1_545 S
C378 C373 1.413 . S
C378 C377 1.403 . S
C378 H399 0.930 . S
C379 O390 1.275 . S
C379 O391 1.256 . S
O380 Ho360 2.322 . S
O380 C362 1.259 . S
O381 Ho361 2.346 . S
O381 C362 1.268 . S
O382 Ho360 2.378 . S
O382 C363 1.215 . S
O383 Ho360 2.524 . S
O383 C363 1.289 . S
O384 Ho360 2.381 . S
O384 C370 1.275 . S
O385 Ho360 2.669 . S
O385 Ho361 2.305 . S
O385 C370 1.256 . S
O386 Ho361 2.322 . S
O386 C371 1.259 . S
O387 Ho360 2.346 . S
O387 C371 1.268 . S
O388 Ho361 2.378 . S
O388 C372 1.215 . S
O389 Ho361 2.524 . S
O389 C372 1.289 . S
O390 Ho361 2.381 . S
O390 C379 1.275 . S
O391 Ho360 2.305 . S
O391 Ho361 2.669 . S
O391 C379 1.256 . S
H392 C365 0.930 . S
H393 C366 0.931 . S
H394 C368 0.934 . S
H395 C369 0.930 . S
H396 C374 0.930 . S
H397 C375 0.931 . S
H398 C377 0.934 1_565 S
H399 C378 0.930 . S
Ho400 C403 2.811 . S
Ho400 O420 2.322 . S
Ho400 O422 2.378 . S
Ho400 O423 2.524 . S
Ho400 O424 2.381 . S
Ho400 O425 2.669 . S
Ho400 O427 2.346 . S
Ho400 O431 2.305 . S
Ho401 C412 2.811 . S
Ho401 O421 2.346 . S
Ho401 O425 2.305 . S
Ho401 O426 2.322 . S
Ho401 O428 2.378 . S
Ho401 O429 2.524 . S
Ho401 O430 2.381 . S
Ho401 O431 2.669 . S
C402 O420 1.259 . S
C402 O421 1.268 . S
C403 Ho400 2.811 . S
C403 C404 1.488 . S
C403 O422 1.215 . S
C403 O423 1.289 . S
C404 C403 1.488 . S
C404 C405 1.348 . S
C404 C409 1.413 . S
C405 C404 1.348 . S
C405 C406 1.442 . S
C405 H432 0.930 . S
C406 C405 1.442 . S
C406 C407 1.381 . S
C406 H433 0.931 . S
C407 C406 1.381 . S
C407 C408 1.321 . S
C408 C407 1.321 . S
C408 C409 1.403 . S
C408 H434 0.934 . S
C409 C404 1.413 . S
C409 C408 1.403 . S
C409 H435 0.930 . S
C410 O424 1.275 . S
C410 O425 1.256 . S
C411 O426 1.259 . S
C411 O427 1.268 . S
C412 Ho401 2.811 . S
C412 C413 1.488 . S
C412 O428 1.215 . S
C412 O429 1.289 . S
C413 C412 1.488 . S
C413 C414 1.348 . S
C413 C418 1.413 . S
C414 C413 1.348 . S
C414 C415 1.442 . S
C414 H436 0.930 . S
C415 C414 1.442 . S
C415 C416 1.381 . S
C415 H437 0.931 . S
C416 C415 1.381 . S
C416 C417 1.321 . S
C417 C416 1.321 . S
C417 C418 1.403 . S
C417 H438 0.934 . S
C418 C413 1.413 . S
C418 C417 1.403 . S
C418 H439 0.930 . S
C419 O430 1.275 . S
C419 O431 1.256 . S
O420 Ho400 2.322 . S
O420 C402 1.259 . S
O421 Ho401 2.346 . S
O421 C402 1.268 . S
O422 Ho400 2.378 . S
O422 C403 1.215 . S
O423 Ho400 2.524 . S
O423 C403 1.289 . S
O424 Ho400 2.381 . S
O424 C410 1.275 . S
O425 Ho400 2.669 . S
O425 Ho401 2.305 . S
O425 C410 1.256 . S
O426 Ho401 2.322 . S
O426 C411 1.259 . S
O427 Ho400 2.346 . S
O427 C411 1.268 . S
O428 Ho401 2.378 . S
O428 C412 1.215 . S
O429 Ho401 2.524 . S
O429 C412 1.289 . S
O430 Ho401 2.381 . S
O430 C419 1.275 . S
O431 Ho400 2.305 . S
O431 Ho401 2.669 . S
O431 C419 1.256 . S
H432 C405 0.930 . S
H433 C406 0.931 . S
H434 C408 0.934 . S
H435 C409 0.930 . S
H436 C414 0.930 . S
H437 C415 0.931 . S
H438 C417 0.934 . S
H439 C418 0.930 . S
Ho440 C443 2.811 . S
Ho440 O460 2.322 . S
Ho440 O462 2.378 . S
Ho440 O463 2.524 . S
Ho440 O464 2.381 . S
Ho440 O465 2.669 . S
Ho440 O467 2.346 1_556 S
Ho440 O471 2.305 . S
Ho441 C452 2.811 1_556 S
Ho441 O461 2.346 . S
Ho441 O465 2.305 . S
Ho441 O466 2.322 1_556 S
Ho441 O468 2.378 . S
Ho441 O469 2.524 1_556 S
Ho441 O470 2.381 . S
Ho441 O471 2.669 . S
C442 O460 1.259 . S
C442 O461 1.268 . S
C443 Ho440 2.811 . S
C443 C444 1.488 . S
C443 O462 1.215 . S
C443 O463 1.289 . S
C444 C443 1.488 . S
C444 C445 1.348 . S
C444 C449 1.413 . S
C445 C444 1.348 . S
C445 C446 1.442 . S
C445 H472 0.930 . S
C446 C445 1.442 . S
C446 C447 1.381 . S
C446 H473 0.931 . S
C447 C446 1.381 . S
C447 C448 1.321 . S
C448 C447 1.321 . S
C448 C449 1.403 . S
C448 H474 0.934 . S
C449 C444 1.413 . S
C449 C448 1.403 . S
C449 H475 0.930 . S
C450 O464 1.275 . S
C450 O465 1.256 . S
C451 O466 1.259 . S
C451 O467 1.268 . S
C452 Ho441 2.811 1_554 S
C452 C453 1.488 . S
C452 O468 1.215 1_554 S
C452 O469 1.289 . S
C453 C452 1.488 . S
C453 C454 1.348 . S
C453 C458 1.413 . S
C454 C453 1.348 . S
C454 C455 1.442 . S
C454 H476 0.930 . S
C455 C454 1.442 . S
C455 C456 1.381 . S
C455 H477 0.931 . S
C456 C455 1.381 . S
C456 C457 1.321 . S
C457 C456 1.321 . S
C457 C458 1.403 . S
C457 H478 0.934 1_565 S
C458 C453 1.413 . S
C458 C457 1.403 . S
C458 H479 0.930 . S
C459 O470 1.275 . S
C459 O471 1.256 . S
O460 Ho440 2.322 . S
O460 C442 1.259 . S
O461 Ho441 2.346 . S
O461 C442 1.268 . S
O462 Ho440 2.378 . S
O462 C443 1.215 . S
O463 Ho440 2.524 . S
O463 C443 1.289 . S
O464 Ho440 2.381 . S
O464 C450 1.275 . S
O465 Ho440 2.669 . S
O465 Ho441 2.305 . S
O465 C450 1.256 . S
O466 Ho441 2.322 1_554 S
O466 C451 1.259 . S
O467 Ho440 2.346 1_554 S
O467 C451 1.268 . S
O468 Ho441 2.378 . S
O468 C452 1.215 1_556 S
O469 Ho441 2.524 1_554 S
O469 C452 1.289 . S
O470 Ho441 2.381 . S
O470 C459 1.275 . S
O471 Ho440 2.305 . S
O471 Ho441 2.669 . S
O471 C459 1.256 . S
H472 C445 0.930 . S
H473 C446 0.931 . S
H474 C448 0.934 . S
H475 C449 0.930 . S
H476 C454 0.930 . S
H477 C455 0.931 . S
H478 C457 0.934 1_545 S
H479 C458 0.930 . S
Ho480 C483 2.811 . S
Ho480 O500 2.322 . S
Ho480 O502 2.378 . S
Ho480 O503 2.524 . S
Ho480 O504 2.381 . S
Ho480 O505 2.669 . S
Ho480 O507 2.346 . S
Ho480 O511 2.305 . S
Ho481 C492 2.811 . S
Ho481 O501 2.346 . S
Ho481 O505 2.305 . S
Ho481 O506 2.322 . S
Ho481 O508 2.378 . S
Ho481 O509 2.524 . S
Ho481 O510 2.381 . S
Ho481 O511 2.669 . S
C482 O500 1.259 . S
C482 O501 1.268 . S
C483 Ho480 2.811 . S
C483 C484 1.488 . S
C483 O502 1.215 . S
C483 O503 1.289 . S
C484 C483 1.488 . S
C484 C485 1.348 . S
C484 C489 1.413 . S
C485 C484 1.348 . S
C485 C486 1.442 . S
C485 H512 0.930 . S
C486 C485 1.442 . S
C486 C487 1.381 . S
C486 H513 0.931 . S
C487 C486 1.381 . S
C487 C488 1.321 . S
C488 C487 1.321 . S
C488 C489 1.403 . S
C488 H514 0.934 . S
C489 C484 1.413 . S
C489 C488 1.403 . S
C489 H515 0.930 . S
C490 O504 1.275 . S
C490 O505 1.256 . S
C491 O506 1.259 . S
C491 O507 1.268 . S
C492 Ho481 2.811 . S
C492 C493 1.488 . S
C492 O508 1.215 . S
C492 O509 1.289 . S
C493 C492 1.488 . S
C493 C494 1.348 . S
C493 C498 1.413 . S
C494 C493 1.348 . S
C494 C495 1.442 . S
C494 H516 0.930 . S
C495 C494 1.442 . S
C495 C496 1.381 . S
C495 H517 0.931 . S
C496 C495 1.381 . S
C496 C497 1.321 . S
C497 C496 1.321 . S
C497 C498 1.403 . S
C497 H518 0.934 . S
C498 C493 1.413 . S
C498 C497 1.403 . S
C498 H519 0.930 . S
C499 O510 1.275 . S
C499 O511 1.256 . S
O500 Ho480 2.322 . S
O500 C482 1.259 . S
O501 Ho481 2.346 . S
O501 C482 1.268 . S
O502 Ho480 2.378 . S
O502 C483 1.215 . S
O503 Ho480 2.524 . S
O503 C483 1.289 . S
O504 Ho480 2.381 . S
O504 C490 1.275 . S
O505 Ho480 2.669 . S
O505 Ho481 2.305 . S
O505 C490 1.256 . S
O506 Ho481 2.322 . S
O506 C491 1.259 . S
O507 Ho480 2.346 . S
O507 C491 1.268 . S
O508 Ho481 2.378 . S
O508 C492 1.215 . S
O509 Ho481 2.524 . S
O509 C492 1.289 . S
O510 Ho481 2.381 . S
O510 C499 1.275 . S
O511 Ho480 2.305 . S
O511 Ho481 2.669 . S
O511 C499 1.256 . S
H512 C485 0.930 . S
H513 C486 0.931 . S
H514 C488 0.934 . S
H515 C489 0.930 . S
H516 C494 0.930 . S
H517 C495 0.931 . S
H518 C497 0.934 . S
H519 C498 0.930 . S
Ho520 C523 2.811 . S
Ho520 O540 2.322 . S
Ho520 O542 2.378 . S
Ho520 O543 2.524 . S
Ho520 O544 2.381 . S
Ho520 O545 2.669 . S
Ho520 O547 2.346 . S
Ho520 O551 2.305 . S
Ho521 C532 2.811 . S
Ho521 O541 2.346 . S
Ho521 O545 2.305 . S
Ho521 O546 2.322 . S
Ho521 O548 2.378 . S
Ho521 O549 2.524 . S
Ho521 O550 2.381 . S
Ho521 O551 2.669 . S
C522 O540 1.259 . S
C522 O541 1.268 . S
C523 Ho520 2.811 . S
C523 C524 1.488 . S
C523 O542 1.215 . S
C523 O543 1.289 . S
C524 C523 1.488 . S
C524 C525 1.348 . S
C524 C529 1.413 . S
C525 C524 1.348 . S
C525 C526 1.442 . S
C525 H552 0.930 . S
C526 C525 1.442 . S
C526 C527 1.381 . S
C526 H553 0.931 . S
C527 C526 1.381 . S
C527 C528 1.321 . S
C528 C527 1.321 . S
C528 C529 1.403 . S
C528 H554 0.934 . S
C529 C524 1.413 . S
C529 C528 1.403 . S
C529 H555 0.930 . S
C530 O544 1.275 . S
C530 O545 1.256 . S
C531 O546 1.259 . S
C531 O547 1.268 . S
C532 Ho521 2.811 . S
C532 C533 1.488 . S
C532 O548 1.215 . S
C532 O549 1.289 . S
C533 C532 1.488 . S
C533 C534 1.348 . S
C533 C538 1.413 . S
C534 C533 1.348 . S
C534 C535 1.442 . S
C534 H556 0.930 . S
C535 C534 1.442 . S
C535 C536 1.381 . S
C535 H557 0.931 . S
C536 C535 1.381 . S
C536 C537 1.321 . S
C537 C536 1.321 . S
C537 C538 1.403 . S
C537 H558 0.934 1_545 S
C538 C533 1.413 . S
C538 C537 1.403 . S
C538 H559 0.930 . S
C539 O550 1.275 . S
C539 O551 1.256 . S
O540 Ho520 2.322 . S
O540 C522 1.259 . S
O541 Ho521 2.346 . S
O541 C522 1.268 . S
O542 Ho520 2.378 . S
O542 C523 1.215 . S
O543 Ho520 2.524 . S
O543 C523 1.289 . S
O544 Ho520 2.381 . S
O544 C530 1.275 . S
O545 Ho520 2.669 . S
O545 Ho521 2.305 . S
O545 C530 1.256 . S
O546 Ho521 2.322 . S
O546 C531 1.259 . S
O547 Ho520 2.346 . S
O547 C531 1.268 . S
O548 Ho521 2.378 . S
O548 C532 1.215 . S
O549 Ho521 2.524 . S
O549 C532 1.289 . S
O550 Ho521 2.381 . S
O550 C539 1.275 . S
O551 Ho520 2.305 . S
O551 Ho521 2.669 . S
O551 C539 1.256 . S
H552 C525 0.930 . S
H553 C526 0.931 . S
H554 C528 0.934 . S
H555 C529 0.930 . S
H556 C534 0.930 . S
H557 C535 0.931 . S
H558 C537 0.934 1_565 S
H559 C538 0.930 . S
Ho560 C563 2.811 . S
Ho560 O580 2.322 . S
Ho560 O582 2.378 . S
Ho560 O583 2.524 . S
Ho560 O584 2.381 . S
Ho560 O585 2.669 . S
Ho560 O587 2.346 . S
Ho560 O591 2.305 . S
Ho561 C572 2.811 . S
Ho561 O581 2.346 . S
Ho561 O585 2.305 . S
Ho561 O586 2.322 . S
Ho561 O588 2.378 . S
Ho561 O589 2.524 . S
Ho561 O590 2.381 . S
Ho561 O591 2.669 . S
C562 O580 1.259 . S
C562 O581 1.268 . S
C563 Ho560 2.811 . S
C563 C564 1.488 . S
C563 O582 1.215 . S
C563 O583 1.289 . S
C564 C563 1.488 . S
C564 C565 1.348 . S
C564 C569 1.413 . S
C565 C564 1.348 . S
C565 C566 1.442 . S
C565 H592 0.930 . S
C566 C565 1.442 . S
C566 C567 1.381 . S
C566 H593 0.931 . S
C567 C566 1.381 . S
C567 C568 1.321 . S
C568 C567 1.321 . S
C568 C569 1.403 . S
C568 H594 0.934 . S
C569 C564 1.413 . S
C569 C568 1.403 . S
C569 H595 0.930 . S
C570 O584 1.275 . S
C570 O585 1.256 . S
C571 O586 1.259 . S
C571 O587 1.268 . S
C572 Ho561 2.811 . S
C572 C573 1.488 . S
C572 O588 1.215 . S
C572 O589 1.289 . S
C573 C572 1.488 . S
C573 C574 1.348 . S
C573 C578 1.413 . S
C574 C573 1.348 . S
C574 C575 1.442 . S
C574 H596 0.930 . S
C575 C574 1.442 . S
C575 C576 1.381 . S
C575 H597 0.931 . S
C576 C575 1.381 . S
C576 C577 1.321 . S
C577 C576 1.321 . S
C577 C578 1.403 . S
C577 H598 0.934 . S
C578 C573 1.413 . S
C578 C577 1.403 . S
C578 H599 0.930 . S
C579 O590 1.275 . S
C579 O591 1.256 . S
O580 Ho560 2.322 . S
O580 C562 1.259 . S
O581 Ho561 2.346 . S
O581 C562 1.268 . S
O582 Ho560 2.378 . S
O582 C563 1.215 . S
O583 Ho560 2.524 . S
O583 C563 1.289 . S
O584 Ho560 2.381 . S
O584 C570 1.275 . S
O585 Ho560 2.669 . S
O585 Ho561 2.305 . S
O585 C570 1.256 . S
O586 Ho561 2.322 . S
O586 C571 1.259 . S
O587 Ho560 2.346 . S
O587 C571 1.268 . S
O588 Ho561 2.378 . S
O588 C572 1.215 . S
O589 Ho561 2.524 . S
O589 C572 1.289 . S
O590 Ho561 2.381 . S
O590 C579 1.275 . S
O591 Ho560 2.305 . S
O591 Ho561 2.669 . S
O591 C579 1.256 . S
H592 C565 0.930 . S
H593 C566 0.931 . S
H594 C568 0.934 . S
H595 C569 0.930 . S
H596 C574 0.930 . S
H597 C575 0.931 . S
H598 C577 0.934 . S
H599 C578 0.930 . S
Ho600 C603 2.811 . S
Ho600 O620 2.322 . S
Ho600 O622 2.378 . S
Ho600 O623 2.524 . S
Ho600 O624 2.381 . S
Ho600 O625 2.669 . S
Ho600 O627 2.346 1_554 S
Ho600 O631 2.305 . S
Ho601 C612 2.811 1_554 S
Ho601 O621 2.346 . S
Ho601 O625 2.305 . S
Ho601 O626 2.322 1_554 S
Ho601 O628 2.378 . S
Ho601 O629 2.524 1_554 S
Ho601 O630 2.381 . S
Ho601 O631 2.669 . S
C602 O620 1.259 . S
C602 O621 1.268 . S
C603 Ho600 2.811 . S
C603 C604 1.488 . S
C603 O622 1.215 . S
C603 O623 1.289 . S
C604 C603 1.488 . S
C604 C605 1.348 . S
C604 C609 1.413 . S
C605 C604 1.348 . S
C605 C606 1.442 . S
C605 H632 0.930 . S
C606 C605 1.442 . S
C606 C607 1.381 . S
C606 H633 0.931 . S
C607 C606 1.381 . S
C607 C608 1.321 . S
C608 C607 1.321 . S
C608 C609 1.403 . S
C608 H634 0.934 . S
C609 C604 1.413 . S
C609 C608 1.403 . S
C609 H635 0.930 . S
C610 O624 1.275 . S
C610 O625 1.256 . S
C611 O626 1.259 . S
C611 O627 1.268 . S
C612 Ho601 2.811 1_556 S
C612 C613 1.488 . S
C612 O628 1.215 1_556 S
C612 O629 1.289 . S
C613 C612 1.488 . S
C613 C614 1.348 . S
C613 C618 1.413 . S
C614 C613 1.348 . S
C614 C615 1.442 . S
C614 H636 0.930 . S
C615 C614 1.442 . S
C615 C616 1.381 . S
C615 H637 0.931 . S
C616 C615 1.381 . S
C616 C617 1.321 . S
C617 C616 1.321 . S
C617 C618 1.403 . S
C617 H638 0.934 1_565 S
C618 C613 1.413 . S
C618 C617 1.403 . S
C618 H639 0.930 . S
C619 O630 1.275 . S
C619 O631 1.256 . S
O620 Ho600 2.322 . S
O620 C602 1.259 . S
O621 Ho601 2.346 . S
O621 C602 1.268 . S
O622 Ho600 2.378 . S
O622 C603 1.215 . S
O623 Ho600 2.524 . S
O623 C603 1.289 . S
O624 Ho600 2.381 . S
O624 C610 1.275 . S
O625 Ho600 2.669 . S
O625 Ho601 2.305 . S
O625 C610 1.256 . S
O626 Ho601 2.322 1_556 S
O626 C611 1.259 . S
O627 Ho600 2.346 1_556 S
O627 C611 1.268 . S
O628 Ho601 2.378 . S
O628 C612 1.215 1_554 S
O629 Ho601 2.524 1_556 S
O629 C612 1.289 . S
O630 Ho601 2.381 . S
O630 C619 1.275 . S
O631 Ho600 2.305 . S
O631 Ho601 2.669 . S
O631 C619 1.256 . S
H632 C605 0.930 . S
H633 C606 0.931 . S
H634 C608 0.934 . S
H635 C609 0.930 . S
H636 C614 0.930 . S
H637 C615 0.931 . S
H638 C617 0.934 1_545 S
H639 C618 0.930 . S
Ho640 C643 2.811 . S
Ho640 O660 2.322 . S
Ho640 O662 2.378 . S
Ho640 O663 2.524 . S
Ho640 O664 2.381 . S
Ho640 O665 2.669 . S
Ho640 O667 2.346 . S
Ho640 O671 2.305 . S
Ho641 C652 2.811 . S
Ho641 O661 2.346 . S
Ho641 O665 2.305 . S
Ho641 O666 2.322 . S
Ho641 O668 2.378 . S
Ho641 O669 2.524 . S
Ho641 O670 2.381 . S
Ho641 O671 2.669 . S
C642 O660 1.259 . S
C642 O661 1.268 . S
C643 Ho640 2.811 . S
C643 C644 1.488 . S
C643 O662 1.215 . S
C643 O663 1.289 . S
C644 C643 1.488 . S
C644 C645 1.348 . S
C644 C649 1.413 . S
C645 C644 1.348 . S
C645 C646 1.442 . S
C645 H672 0.930 . S
C646 C645 1.442 . S
C646 C647 1.381 . S
C646 H673 0.931 . S
C647 C646 1.381 . S
C647 C648 1.321 . S
C648 C647 1.321 . S
C648 C649 1.403 . S
C648 H674 0.934 . S
C649 C644 1.413 . S
C649 C648 1.403 . S
C649 H675 0.930 . S
C650 O664 1.275 . S
C650 O665 1.256 . S
C651 O666 1.259 . S
C651 O667 1.268 . S
C652 Ho641 2.811 . S
C652 C653 1.488 . S
C652 O668 1.215 . S
C652 O669 1.289 . S
C653 C652 1.488 . S
C653 C654 1.348 . S
C653 C658 1.413 . S
C654 C653 1.348 . S
C654 C655 1.442 . S
C654 H676 0.930 . S
C655 C654 1.442 . S
C655 C656 1.381 . S
C655 H677 0.931 . S
C656 C655 1.381 . S
C656 C657 1.321 . S
C657 C656 1.321 . S
C657 C658 1.403 . S
C657 H678 0.934 . S
C658 C653 1.413 . S
C658 C657 1.403 . S
C658 H679 0.930 . S
C659 O670 1.275 . S
C659 O671 1.256 . S
O660 Ho640 2.322 . S
O660 C642 1.259 . S
O661 Ho641 2.346 . S
O661 C642 1.268 . S
O662 Ho640 2.378 . S
O662 C643 1.215 . S
O663 Ho640 2.524 . S
O663 C643 1.289 . S
O664 Ho640 2.381 . S
O664 C650 1.275 . S
O665 Ho640 2.669 . S
O665 Ho641 2.305 . S
O665 C650 1.256 . S
O666 Ho641 2.322 . S
O666 C651 1.259 . S
O667 Ho640 2.346 . S
O667 C651 1.268 . S
O668 Ho641 2.378 . S
O668 C652 1.215 . S
O669 Ho641 2.524 . S
O669 C652 1.289 . S
O670 Ho641 2.381 . S
O670 C659 1.275 . S
O671 Ho640 2.305 . S
O671 Ho641 2.669 . S
O671 C659 1.256 . S
H672 C645 0.930 . S
H673 C646 0.931 . S
H674 C648 0.934 . S
H675 C649 0.930 . S
H676 C654 0.930 . S
H677 C655 0.931 . S
H678 C657 0.934 . S
H679 C658 0.930 . S
Ho680 C683 2.811 1_554 S
Ho680 O700 2.322 1_554 S
Ho680 O702 2.378 . S
Ho680 O703 2.524 1_554 S
Ho680 O704 2.381 . S
Ho680 O705 2.669 . S
Ho680 O707 2.346 . S
Ho680 O711 2.305 . S
Ho681 C692 2.811 . S
Ho681 O701 2.346 1_554 S
Ho681 O705 2.305 . S
Ho681 O706 2.322 . S
Ho681 O708 2.378 . S
Ho681 O709 2.524 . S
Ho681 O710 2.381 . S
Ho681 O711 2.669 . S
C682 O700 1.259 . S
C682 O701 1.268 . S
C683 Ho680 2.811 1_556 S
C683 C684 1.488 . S
C683 O702 1.215 1_556 S
C683 O703 1.289 . S
C684 C683 1.488 . S
C684 C685 1.348 . S
C684 C689 1.413 . S
C685 C684 1.348 . S
C685 C686 1.442 . S
C685 H712 0.930 . S
C686 C685 1.442 . S
C686 C687 1.381 . S
C686 H713 0.931 . S
C687 C686 1.381 . S
C687 C688 1.321 . S
C688 C687 1.321 . S
C688 C689 1.403 . S
C688 H714 0.934 . S
C689 C684 1.413 . S
C689 C688 1.403 . S
C689 H715 0.930 . S
C690 O704 1.275 . S
C690 O705 1.256 . S
C691 O706 1.259 . S
C691 O707 1.268 . S
C692 Ho681 2.811 . S
C692 C693 1.488 . S
C692 O708 1.215 . S
C692 O709 1.289 . S
C693 C692 1.488 . S
C693 C694 1.348 . S
C693 C698 1.413 . S
C694 C693 1.348 . S
C694 C695 1.442 . S
C694 H716 0.930 . S
C695 C694 1.442 . S
C695 C696 1.381 . S
C695 H717 0.931 . S
C696 C695 1.381 . S
C696 C697 1.321 . S
C697 C696 1.321 . S
C697 C698 1.403 . S
C697 H718 0.934 . S
C698 C693 1.413 . S
C698 C697 1.403 . S
C698 H719 0.930 . S
C699 O710 1.275 . S
C699 O711 1.256 . S
O700 Ho680 2.322 1_556 S
O700 C682 1.259 . S
O701 Ho681 2.346 1_556 S
O701 C682 1.268 . S
O702 Ho680 2.378 . S
O702 C683 1.215 1_554 S
O703 Ho680 2.524 1_556 S
O703 C683 1.289 . S
O704 Ho680 2.381 . S
O704 C690 1.275 . S
O705 Ho680 2.669 . S
O705 Ho681 2.305 . S
O705 C690 1.256 . S
O706 Ho681 2.322 . S
O706 C691 1.259 . S
O707 Ho680 2.346 . S
O707 C691 1.268 . S
O708 Ho681 2.378 . S
O708 C692 1.215 . S
O709 Ho681 2.524 . S
O709 C692 1.289 . S
O710 Ho681 2.381 . S
O710 C699 1.275 . S
O711 Ho680 2.305 . S
O711 Ho681 2.669 . S
O711 C699 1.256 . S
H712 C685 0.930 . S
H713 C686 0.931 . S
H714 C688 0.934 . S
H715 C689 0.930 . S
H716 C694 0.930 . S
H717 C695 0.931 . S
H718 C697 0.934 . S
H719 C698 0.930 . S
Ho720 C723 2.811 . S
Ho720 O740 2.322 . S
Ho720 O742 2.378 . S
Ho720 O743 2.524 . S
Ho720 O744 2.381 . S
Ho720 O745 2.669 . S
Ho720 O747 2.346 . S
Ho720 O751 2.305 . S
Ho721 C732 2.811 . S
Ho721 O741 2.346 . S
Ho721 O745 2.305 . S
Ho721 O746 2.322 . S
Ho721 O748 2.378 . S
Ho721 O749 2.524 . S
Ho721 O750 2.381 . S
Ho721 O751 2.669 . S
C722 O740 1.259 . S
C722 O741 1.268 . S
C723 Ho720 2.811 . S
C723 C724 1.488 . S
C723 O742 1.215 . S
C723 O743 1.289 . S
C724 C723 1.488 . S
C724 C725 1.348 . S
C724 C729 1.413 . S
C725 C724 1.348 . S
C725 C726 1.442 . S
C725 H752 0.930 . S
C726 C725 1.442 . S
C726 C727 1.381 . S
C726 H753 0.931 . S
C727 C726 1.381 . S
C727 C728 1.321 . S
C728 C727 1.321 . S
C728 C729 1.403 . S
C728 H754 0.934 . S
C729 C724 1.413 . S
C729 C728 1.403 . S
C729 H755 0.930 . S
C730 O744 1.275 . S
C730 O745 1.256 . S
C731 O746 1.259 . S
C731 O747 1.268 . S
C732 Ho721 2.811 . S
C732 C733 1.488 . S
C732 O748 1.215 . S
C732 O749 1.289 . S
C733 C732 1.488 . S
C733 C734 1.348 . S
C733 C738 1.413 . S
C734 C733 1.348 . S
C734 C735 1.442 . S
C734 H756 0.930 . S
C735 C734 1.442 . S
C735 C736 1.381 . S
C735 H757 0.931 . S
C736 C735 1.381 . S
C736 C737 1.321 . S
C737 C736 1.321 . S
C737 C738 1.403 . S
C737 H758 0.934 . S
C738 C733 1.413 . S
C738 C737 1.403 . S
C738 H759 0.930 . S
C739 O750 1.275 . S
C739 O751 1.256 . S
O740 Ho720 2.322 . S
O740 C722 1.259 . S
O741 Ho721 2.346 . S
O741 C722 1.268 . S
O742 Ho720 2.378 . S
O742 C723 1.215 . S
O743 Ho720 2.524 . S
O743 C723 1.289 . S
O744 Ho720 2.381 . S
O744 C730 1.275 . S
O745 Ho720 2.669 . S
O745 Ho721 2.305 . S
O745 C730 1.256 . S
O746 Ho721 2.322 . S
O746 C731 1.259 . S
O747 Ho720 2.346 . S
O747 C731 1.268 . S
O748 Ho721 2.378 . S
O748 C732 1.215 . S
O749 Ho721 2.524 . S
O749 C732 1.289 . S
O750 Ho721 2.381 . S
O750 C739 1.275 . S
O751 Ho720 2.305 . S
O751 Ho721 2.669 . S
O751 C739 1.256 . S
H752 C725 0.930 . S
H753 C726 0.931 . S
H754 C728 0.934 . S
H755 C729 0.930 . S
H756 C734 0.930 . S
H757 C735 0.931 . S
H758 C737 0.934 . S
H759 C738 0.930 . S
Ho760 C763 2.811 . S
Ho760 O780 2.322 . S
Ho760 O782 2.378 . S
Ho760 O783 2.524 . S
Ho760 O784 2.381 . S
Ho760 O785 2.669 . S
Ho760 O787 2.346 . S
Ho760 O791 2.305 . S
Ho761 C772 2.811 . S
Ho761 O781 2.346 . S
Ho761 O785 2.305 . S
Ho761 O786 2.322 . S
Ho761 O788 2.378 . S
Ho761 O789 2.524 . S
Ho761 O790 2.381 . S
Ho761 O791 2.669 . S
C762 O780 1.259 . S
C762 O781 1.268 . S
C763 Ho760 2.811 . S
C763 C764 1.488 . S
C763 O782 1.215 . S
C763 O783 1.289 . S
C764 C763 1.488 . S
C764 C765 1.348 . S
C764 C769 1.413 . S
C765 C764 1.348 . S
C765 C766 1.442 . S
C765 H792 0.930 . S
C766 C765 1.442 . S
C766 C767 1.381 . S
C766 H793 0.931 . S
C767 C766 1.381 . S
C767 C768 1.321 . S
C768 C767 1.321 . S
C768 C769 1.403 . S
C768 H794 0.934 . S
C769 C764 1.413 . S
C769 C768 1.403 . S
C769 H795 0.930 . S
C770 O784 1.275 . S
C770 O785 1.256 . S
C771 O786 1.259 . S
C771 O787 1.268 . S
C772 Ho761 2.811 . S
C772 C773 1.488 . S
C772 O788 1.215 . S
C772 O789 1.289 . S
C773 C772 1.488 . S
C773 C774 1.348 . S
C773 C778 1.413 . S
C774 C773 1.348 . S
C774 C775 1.442 . S
C774 H796 0.930 . S
C775 C774 1.442 . S
C775 C776 1.381 . S
C775 H797 0.931 . S
C776 C775 1.381 . S
C776 C777 1.321 . S
C777 C776 1.321 . S
C777 C778 1.403 . S
C777 H798 0.934 . S
C778 C773 1.413 . S
C778 C777 1.403 . S
C778 H799 0.930 . S
C779 O790 1.275 . S
C779 O791 1.256 . S
O780 Ho760 2.322 . S
O780 C762 1.259 . S
O781 Ho761 2.346 . S
O781 C762 1.268 . S
O782 Ho760 2.378 . S
O782 C763 1.215 . S
O783 Ho760 2.524 . S
O783 C763 1.289 . S
O784 Ho760 2.381 . S
O784 C770 1.275 . S
O785 Ho760 2.669 . S
O785 Ho761 2.305 . S
O785 C770 1.256 . S
O786 Ho761 2.322 . S
O786 C771 1.259 . S
O787 Ho760 2.346 . S
O787 C771 1.268 . S
O788 Ho761 2.378 . S
O788 C772 1.215 . S
O789 Ho761 2.524 . S
O789 C772 1.289 . S
O790 Ho761 2.381 . S
O790 C779 1.275 . S
O791 Ho760 2.305 . S
O791 Ho761 2.669 . S
O791 C779 1.256 . S
H792 C765 0.930 . S
H793 C766 0.931 . S
H794 C768 0.934 . S
H795 C769 0.930 . S
H796 C774 0.930 . S
H797 C775 0.931 . S
H798 C777 0.934 . S
H799 C778 0.930 . S
Ho800 C803 2.811 . S
Ho800 O820 2.322 . S
Ho800 O822 2.378 . S
Ho800 O823 2.524 . S
Ho800 O824 2.381 . S
Ho800 O825 2.669 . S
Ho800 O827 2.346 . S
Ho800 O831 2.305 . S
Ho801 C812 2.811 . S
Ho801 O821 2.346 . S
Ho801 O825 2.305 . S
Ho801 O826 2.322 . S
Ho801 O828 2.378 . S
Ho801 O829 2.524 . S
Ho801 O830 2.381 . S
Ho801 O831 2.669 . S
C802 O820 1.259 . S
C802 O821 1.268 . S
C803 Ho800 2.811 . S
C803 C804 1.488 . S
C803 O822 1.215 . S
C803 O823 1.289 . S
C804 C803 1.488 . S
C804 C805 1.348 . S
C804 C809 1.413 . S
C805 C804 1.348 . S
C805 C806 1.442 . S
C805 H832 0.930 . S
C806 C805 1.442 . S
C806 C807 1.381 . S
C806 H833 0.931 . S
C807 C806 1.381 . S
C807 C808 1.321 . S
C808 C807 1.321 . S
C808 C809 1.403 . S
C808 H834 0.934 . S
C809 C804 1.413 . S
C809 C808 1.403 . S
C809 H835 0.930 . S
C810 O824 1.275 . S
C810 O825 1.256 . S
C811 O826 1.259 . S
C811 O827 1.268 . S
C812 Ho801 2.811 . S
C812 C813 1.488 . S
C812 O828 1.215 . S
C812 O829 1.289 . S
C813 C812 1.488 . S
C813 C814 1.348 . S
C813 C818 1.413 . S
C814 C813 1.348 . S
C814 C815 1.442 . S
C814 H836 0.930 . S
C815 C814 1.442 . S
C815 C816 1.381 . S
C815 H837 0.931 . S
C816 C815 1.381 . S
C816 C817 1.321 . S
C817 C816 1.321 . S
C817 C818 1.403 . S
C817 H838 0.934 . S
C818 C813 1.413 . S
C818 C817 1.403 . S
C818 H839 0.930 . S
C819 O830 1.275 . S
C819 O831 1.256 . S
O820 Ho800 2.322 . S
O820 C802 1.259 . S
O821 Ho801 2.346 . S
O821 C802 1.268 . S
O822 Ho800 2.378 . S
O822 C803 1.215 . S
O823 Ho800 2.524 . S
O823 C803 1.289 . S
O824 Ho800 2.381 . S
O824 C810 1.275 . S
O825 Ho800 2.669 . S
O825 Ho801 2.305 . S
O825 C810 1.256 . S
O826 Ho801 2.322 . S
O826 C811 1.259 . S
O827 Ho800 2.346 . S
O827 C811 1.268 . S
O828 Ho801 2.378 . S
O828 C812 1.215 . S
O829 Ho801 2.524 . S
O829 C812 1.289 . S
O830 Ho801 2.381 . S
O830 C819 1.275 . S
O831 Ho800 2.305 . S
O831 Ho801 2.669 . S
O831 C819 1.256 . S
H832 C805 0.930 . S
H833 C806 0.931 . S
H834 C808 0.934 . S
H835 C809 0.930 . S
H836 C814 0.930 . S
H837 C815 0.931 . S
H838 C817 0.934 . S
H839 C818 0.930 . S
Ho840 C843 2.811 1_556 S
Ho840 O860 2.322 1_556 S
Ho840 O862 2.378 . S
Ho840 O863 2.524 1_556 S
Ho840 O864 2.381 . S
Ho840 O865 2.669 . S
Ho840 O867 2.346 . S
Ho840 O871 2.305 . S
Ho841 C852 2.811 . S
Ho841 O861 2.346 1_556 S
Ho841 O865 2.305 . S
Ho841 O866 2.322 . S
Ho841 O868 2.378 . S
Ho841 O869 2.524 . S
Ho841 O870 2.381 . S
Ho841 O871 2.669 . S
C842 O860 1.259 . S
C842 O861 1.268 . S
C843 Ho840 2.811 1_554 S
C843 C844 1.488 . S
C843 O862 1.215 1_554 S
C843 O863 1.289 . S
C844 C843 1.488 . S
C844 C845 1.348 . S
C844 C849 1.413 . S
C845 C844 1.348 . S
C845 C846 1.442 . S
C845 H872 0.930 . S
C846 C845 1.442 . S
C846 C847 1.381 . S
C846 H873 0.931 . S
C847 C846 1.381 . S
C847 C848 1.321 . S
C848 C847 1.321 . S
C848 C849 1.403 . S
C848 H874 0.934 . S
C849 C844 1.413 . S
C849 C848 1.403 . S
C849 H875 0.930 . S
C850 O864 1.275 . S
C850 O865 1.256 . S
C851 O866 1.259 . S
C851 O867 1.268 . S
C852 Ho841 2.811 . S
C852 C853 1.488 . S
C852 O868 1.215 . S
C852 O869 1.289 . S
C853 C852 1.488 . S
C853 C854 1.348 . S
C853 C858 1.413 . S
C854 C853 1.348 . S
C854 C855 1.442 . S
C854 H876 0.930 . S
C855 C854 1.442 . S
C855 C856 1.381 . S
C855 H877 0.931 . S
C856 C855 1.381 . S
C856 C857 1.321 . S
C857 C856 1.321 . S
C857 C858 1.403 . S
C857 H878 0.934 . S
C858 C853 1.413 . S
C858 C857 1.403 . S
C858 H879 0.930 . S
C859 O870 1.275 . S
C859 O871 1.256 . S
O860 Ho840 2.322 1_554 S
O860 C842 1.259 . S
O861 Ho841 2.346 1_554 S
O861 C842 1.268 . S
O862 Ho840 2.378 . S
O862 C843 1.215 1_556 S
O863 Ho840 2.524 1_554 S
O863 C843 1.289 . S
O864 Ho840 2.381 . S
O864 C850 1.275 . S
O865 Ho840 2.669 . S
O865 Ho841 2.305 . S
O865 C850 1.256 . S
O866 Ho841 2.322 . S
O866 C851 1.259 . S
O867 Ho840 2.346 . S
O867 C851 1.268 . S
O868 Ho841 2.378 . S
O868 C852 1.215 . S
O869 Ho841 2.524 . S
O869 C852 1.289 . S
O870 Ho841 2.381 . S
O870 C859 1.275 . S
O871 Ho840 2.305 . S
O871 Ho841 2.669 . S
O871 C859 1.256 . S
H872 C845 0.930 . S
H873 C846 0.931 . S
H874 C848 0.934 . S
H875 C849 0.930 . S
H876 C854 0.930 . S
H877 C855 0.931 . S
H878 C857 0.934 . S
H879 C858 0.930 . S
Ho880 C883 2.811 . S
Ho880 O900 2.322 . S
Ho880 O902 2.378 . S
Ho880 O903 2.524 . S
Ho880 O904 2.381 . S
Ho880 O905 2.669 . S
Ho880 O907 2.346 . S
Ho880 O911 2.305 . S
Ho881 C892 2.811 . S
Ho881 O901 2.346 . S
Ho881 O905 2.305 . S
Ho881 O906 2.322 . S
Ho881 O908 2.378 . S
Ho881 O909 2.524 . S
Ho881 O910 2.381 . S
Ho881 O911 2.669 . S
C882 O900 1.259 . S
C882 O901 1.268 . S
C883 Ho880 2.811 . S
C883 C884 1.488 . S
C883 O902 1.215 . S
C883 O903 1.289 . S
C884 C883 1.488 . S
C884 C885 1.348 . S
C884 C889 1.413 . S
C885 C884 1.348 . S
C885 C886 1.442 . S
C885 H912 0.930 . S
C886 C885 1.442 . S
C886 C887 1.381 . S
C886 H913 0.931 . S
C887 C886 1.381 . S
C887 C888 1.321 . S
C888 C887 1.321 . S
C888 C889 1.403 . S
C888 H914 0.934 . S
C889 C884 1.413 . S
C889 C888 1.403 . S
C889 H915 0.930 . S
C890 O904 1.275 . S
C890 O905 1.256 . S
C891 O906 1.259 . S
C891 O907 1.268 . S
C892 Ho881 2.811 . S
C892 C893 1.488 . S
C892 O908 1.215 . S
C892 O909 1.289 . S
C893 C892 1.488 . S
C893 C894 1.348 . S
C893 C898 1.413 . S
C894 C893 1.348 . S
C894 C895 1.442 . S
C894 H916 0.930 . S
C895 C894 1.442 . S
C895 C896 1.381 . S
C895 H917 0.931 . S
C896 C895 1.381 . S
C896 C897 1.321 . S
C897 C896 1.321 . S
C897 C898 1.403 . S
C897 H918 0.934 . S
C898 C893 1.413 . S
C898 C897 1.403 . S
C898 H919 0.930 . S
C899 O910 1.275 . S
C899 O911 1.256 . S
O900 Ho880 2.322 . S
O900 C882 1.259 . S
O901 Ho881 2.346 . S
O901 C882 1.268 . S
O902 Ho880 2.378 . S
O902 C883 1.215 . S
O903 Ho880 2.524 . S
O903 C883 1.289 . S
O904 Ho880 2.381 . S
O904 C890 1.275 . S
O905 Ho880 2.669 . S
O905 Ho881 2.305 . S
O905 C890 1.256 . S
O906 Ho881 2.322 . S
O906 C891 1.259 . S
O907 Ho880 2.346 . S
O907 C891 1.268 . S
O908 Ho881 2.378 . S
O908 C892 1.215 . S
O909 Ho881 2.524 . S
O909 C892 1.289 . S
O910 Ho881 2.381 . S
O910 C899 1.275 . S
O911 Ho880 2.305 . S
O911 Ho881 2.669 . S
O911 C899 1.256 . S
H912 C885 0.930 . S
H913 C886 0.931 . S
H914 C888 0.934 . S
H915 C889 0.930 . S
H916 C894 0.930 . S
H917 C895 0.931 . S
H918 C897 0.934 . S
H919 C898 0.930 . S
Ho920 C923 2.811 . S
Ho920 O940 2.322 . S
Ho920 O942 2.378 . S
Ho920 O943 2.524 . S
Ho920 O944 2.381 . S
Ho920 O945 2.669 . S
Ho920 O947 2.346 . S
Ho920 O951 2.305 . S
Ho921 C932 2.811 . S
Ho921 O941 2.346 . S
Ho921 O945 2.305 . S
Ho921 O946 2.322 . S
Ho921 O948 2.378 . S
Ho921 O949 2.524 . S
Ho921 O950 2.381 . S
Ho921 O951 2.669 . S
C922 O940 1.259 . S
C922 O941 1.268 . S
C923 Ho920 2.811 . S
C923 C924 1.488 . S
C923 O942 1.215 . S
C923 O943 1.289 . S
C924 C923 1.488 . S
C924 C925 1.348 . S
C924 C929 1.413 . S
C925 C924 1.348 . S
C925 C926 1.442 . S
C925 H952 0.930 . S
C926 C925 1.442 . S
C926 C927 1.381 . S
C926 H953 0.931 . S
C927 C926 1.381 . S
C927 C928 1.321 . S
C928 C927 1.321 . S
C928 C929 1.403 . S
C928 H954 0.934 . S
C929 C924 1.413 . S
C929 C928 1.403 . S
C929 H955 0.930 . S
C930 O944 1.275 . S
C930 O945 1.256 . S
C931 O946 1.259 . S
C931 O947 1.268 . S
C932 Ho921 2.811 . S
C932 C933 1.488 . S
C932 O948 1.215 . S
C932 O949 1.289 . S
C933 C932 1.488 . S
C933 C934 1.348 . S
C933 C938 1.413 . S
C934 C933 1.348 . S
C934 C935 1.442 . S
C934 H956 0.930 . S
C935 C934 1.442 . S
C935 C936 1.381 . S
C935 H957 0.931 . S
C936 C935 1.381 . S
C936 C937 1.321 . S
C937 C936 1.321 . S
C937 C938 1.403 . S
C937 H958 0.934 . S
C938 C933 1.413 . S
C938 C937 1.403 . S
C938 H959 0.930 . S
C939 O950 1.275 . S
C939 O951 1.256 . S
O940 Ho920 2.322 . S
O940 C922 1.259 . S
O941 Ho921 2.346 . S
O941 C922 1.268 . S
O942 Ho920 2.378 . S
O942 C923 1.215 . S
O943 Ho920 2.524 . S
O943 C923 1.289 . S
O944 Ho920 2.381 . S
O944 C930 1.275 . S
O945 Ho920 2.669 . S
O945 Ho921 2.305 . S
O945 C930 1.256 . S
O946 Ho921 2.322 . S
O946 C931 1.259 . S
O947 Ho920 2.346 . S
O947 C931 1.268 . S
O948 Ho921 2.378 . S
O948 C932 1.215 . S
O949 Ho921 2.524 . S
O949 C932 1.289 . S
O950 Ho921 2.381 . S
O950 C939 1.275 . S
O951 Ho920 2.305 . S
O951 Ho921 2.669 . S
O951 C939 1.256 . S
H952 C925 0.930 . S
H953 C926 0.931 . S
H954 C928 0.934 . S
H955 C929 0.930 . S
H956 C934 0.930 . S
H957 C935 0.931 . S
H958 C937 0.934 . S
H959 C938 0.930 . S
Ho960 C963 2.811 . S
Ho960 O980 2.322 . S
Ho960 O982 2.378 . S
Ho960 O983 2.524 . S
Ho960 O984 2.381 . S
Ho960 O985 2.669 . S
Ho960 O987 2.346 . S
Ho960 O991 2.305 . S
Ho961 C972 2.811 . S
Ho961 O981 2.346 . S
Ho961 O985 2.305 . S
Ho961 O986 2.322 . S
Ho961 O988 2.378 . S
Ho961 O989 2.524 . S
Ho961 O990 2.381 . S
Ho961 O991 2.669 . S
C962 O980 1.259 . S
C962 O981 1.268 . S
C963 Ho960 2.811 . S
C963 C964 1.488 . S
C963 O982 1.215 . S
C963 O983 1.289 . S
C964 C963 1.488 . S
C964 C965 1.348 . S
C964 C969 1.413 . S
C965 C964 1.348 . S
C965 C966 1.442 . S
C965 H992 0.930 . S
C966 C965 1.442 . S
C966 C967 1.381 . S
C966 H993 0.931 . S
C967 C966 1.381 . S
C967 C968 1.321 . S
C968 C967 1.321 . S
C968 C969 1.403 . S
C968 H994 0.934 . S
C969 C964 1.413 . S
C969 C968 1.403 . S
C969 H995 0.930 . S
C970 O984 1.275 . S
C970 O985 1.256 . S
C971 O986 1.259 . S
C971 O987 1.268 . S
C972 Ho961 2.811 . S
C972 C973 1.488 . S
C972 O988 1.215 . S
C972 O989 1.289 . S
C973 C972 1.488 . S
C973 C974 1.348 . S
C973 C978 1.413 . S
C974 C973 1.348 . S
C974 C975 1.442 . S
C974 H996 0.930 . S
C975 C974 1.442 . S
C975 C976 1.381 . S
C975 H997 0.931 . S
C976 C975 1.381 . S
C976 C977 1.321 . S
C977 C976 1.321 . S
C977 C978 1.403 . S
C977 H998 0.934 . S
C978 C973 1.413 . S
C978 C977 1.403 . S
C978 H999 0.930 . S
C979 O990 1.275 . S
C979 O991 1.256 . S
O980 Ho960 2.322 . S
O980 C962 1.259 . S
O981 Ho961 2.346 . S
O981 C962 1.268 . S
O982 Ho960 2.378 . S
O982 C963 1.215 . S
O983 Ho960 2.524 . S
O983 C963 1.289 . S
O984 Ho960 2.381 . S
O984 C970 1.275 . S
O985 Ho960 2.669 . S
O985 Ho961 2.305 . S
O985 C970 1.256 . S
O986 Ho961 2.322 . S
O986 C971 1.259 . S
O987 Ho960 2.346 . S
O987 C971 1.268 . S
O988 Ho961 2.378 . S
O988 C972 1.215 . S
O989 Ho961 2.524 . S
O989 C972 1.289 . S
O990 Ho961 2.381 . S
O990 C979 1.275 . S
O991 Ho960 2.305 . S
O991 Ho961 2.669 . S
O991 C979 1.256 . S
H992 C965 0.930 . S
H993 C966 0.931 . S
H994 C968 0.934 . S
H995 C969 0.930 . S
H996 C974 0.930 . S
H997 C975 0.931 . S
H998 C977 0.934 . S
H999 C978 0.930 . S
Ho1000 C1003 2.811 . S
Ho1000 O1020 2.322 . S
Ho1000 O1022 2.378 . S
Ho1000 O1023 2.524 . S
Ho1000 O1024 2.381 . S
Ho1000 O1025 2.669 . S
Ho1000 O1027 2.346 1_556 S
Ho1000 O1031 2.305 . S
Ho1001 C1012 2.811 1_556 S
Ho1001 O1021 2.346 . S
Ho1001 O1025 2.305 . S
Ho1001 O1026 2.322 1_556 S
Ho1001 O1028 2.378 . S
Ho1001 O1029 2.524 1_556 S
Ho1001 O1030 2.381 . S
Ho1001 O1031 2.669 . S
C1002 O1020 1.259 . S
C1002 O1021 1.268 . S
C1003 Ho1000 2.811 . S
C1003 C1004 1.488 . S
C1003 O1022 1.215 . S
C1003 O1023 1.289 . S
C1004 C1003 1.488 . S
C1004 C1005 1.348 . S
C1004 C1009 1.413 . S
C1005 C1004 1.348 . S
C1005 C1006 1.442 . S
C1005 H1032 0.930 . S
C1006 C1005 1.442 . S
C1006 C1007 1.381 . S
C1006 H1033 0.931 . S
C1007 C1006 1.381 . S
C1007 C1008 1.321 . S
C1008 C1007 1.321 . S
C1008 C1009 1.403 . S
C1008 H1034 0.934 . S
C1009 C1004 1.413 . S
C1009 C1008 1.403 . S
C1009 H1035 0.930 . S
C1010 O1024 1.275 . S
C1010 O1025 1.256 . S
C1011 O1026 1.259 . S
C1011 O1027 1.268 . S
C1012 Ho1001 2.811 1_554 S
C1012 C1013 1.488 . S
C1012 O1028 1.215 1_554 S
C1012 O1029 1.289 . S
C1013 C1012 1.488 . S
C1013 C1014 1.348 . S
C1013 C1018 1.413 . S
C1014 C1013 1.348 . S
C1014 C1015 1.442 . S
C1014 H1036 0.930 . S
C1015 C1014 1.442 . S
C1015 C1016 1.381 . S
C1015 H1037 0.931 . S
C1016 C1015 1.381 . S
C1016 C1017 1.321 . S
C1017 C1016 1.321 . S
C1017 C1018 1.403 . S
C1017 H1038 0.934 . S
C1018 C1013 1.413 . S
C1018 C1017 1.403 . S
C1018 H1039 0.930 . S
C1019 O1030 1.275 . S
C1019 O1031 1.256 . S
O1020 Ho1000 2.322 . S
O1020 C1002 1.259 . S
O1021 Ho1001 2.346 . S
O1021 C1002 1.268 . S
O1022 Ho1000 2.378 . S
O1022 C1003 1.215 . S
O1023 Ho1000 2.524 . S
O1023 C1003 1.289 . S
O1024 Ho1000 2.381 . S
O1024 C1010 1.275 . S
O1025 Ho1000 2.669 . S
O1025 Ho1001 2.305 . S
O1025 C1010 1.256 . S
O1026 Ho1001 2.322 1_554 S
O1026 C1011 1.259 . S
O1027 Ho1000 2.346 1_554 S
O1027 C1011 1.268 . S
O1028 Ho1001 2.378 . S
O1028 C1012 1.215 1_556 S
O1029 Ho1001 2.524 1_554 S
O1029 C1012 1.289 . S
O1030 Ho1001 2.381 . S
O1030 C1019 1.275 . S
O1031 Ho1000 2.305 . S
O1031 Ho1001 2.669 . S
O1031 C1019 1.256 . S
H1032 C1005 0.930 . S
H1033 C1006 0.931 . S
H1034 C1008 0.934 . S
H1035 C1009 0.930 . S
H1036 C1014 0.930 . S
H1037 C1015 0.931 . S
H1038 C1017 0.934 . S
H1039 C1018 0.930 . S
Ho1040 C1043 2.811 . S
Ho1040 O1060 2.322 . S
Ho1040 O1062 2.378 . S
Ho1040 O1063 2.524 . S
Ho1040 O1064 2.381 . S
Ho1040 O1065 2.669 . S
Ho1040 O1067 2.346 . S
Ho1040 O1071 2.305 . S
Ho1041 C1052 2.811 . S
Ho1041 O1061 2.346 . S
Ho1041 O1065 2.305 . S
Ho1041 O1066 2.322 . S
Ho1041 O1068 2.378 . S
Ho1041 O1069 2.524 . S
Ho1041 O1070 2.381 . S
Ho1041 O1071 2.669 . S
C1042 O1060 1.259 . S
C1042 O1061 1.268 . S
C1043 Ho1040 2.811 . S
C1043 C1044 1.488 . S
C1043 O1062 1.215 . S
C1043 O1063 1.289 . S
C1044 C1043 1.488 . S
C1044 C1045 1.348 . S
C1044 C1049 1.413 . S
C1045 C1044 1.348 . S
C1045 C1046 1.442 . S
C1045 H1072 0.930 . S
C1046 C1045 1.442 . S
C1046 C1047 1.381 . S
C1046 H1073 0.931 . S
C1047 C1046 1.381 . S
C1047 C1048 1.321 . S
C1048 C1047 1.321 . S
C1048 C1049 1.403 . S
C1048 H1074 0.934 . S
C1049 C1044 1.413 . S
C1049 C1048 1.403 . S
C1049 H1075 0.930 . S
C1050 O1064 1.275 . S
C1050 O1065 1.256 . S
C1051 O1066 1.259 . S
C1051 O1067 1.268 . S
C1052 Ho1041 2.811 . S
C1052 C1053 1.488 . S
C1052 O1068 1.215 . S
C1052 O1069 1.289 . S
C1053 C1052 1.488 . S
C1053 C1054 1.348 . S
C1053 C1058 1.413 . S
C1054 C1053 1.348 . S
C1054 C1055 1.442 . S
C1054 H1076 0.930 . S
C1055 C1054 1.442 . S
C1055 C1056 1.381 . S
C1055 H1077 0.931 . S
C1056 C1055 1.381 . S
C1056 C1057 1.321 . S
C1057 C1056 1.321 . S
C1057 C1058 1.403 . S
C1057 H1078 0.934 . S
C1058 C1053 1.413 . S
C1058 C1057 1.403 . S
C1058 H1079 0.930 . S
C1059 O1070 1.275 . S
C1059 O1071 1.256 . S
O1060 Ho1040 2.322 . S
O1060 C1042 1.259 . S
O1061 Ho1041 2.346 . S
O1061 C1042 1.268 . S
O1062 Ho1040 2.378 . S
O1062 C1043 1.215 . S
O1063 Ho1040 2.524 . S
O1063 C1043 1.289 . S
O1064 Ho1040 2.381 . S
O1064 C1050 1.275 . S
O1065 Ho1040 2.669 . S
O1065 Ho1041 2.305 . S
O1065 C1050 1.256 . S
O1066 Ho1041 2.322 . S
O1066 C1051 1.259 . S
O1067 Ho1040 2.346 . S
O1067 C1051 1.268 . S
O1068 Ho1041 2.378 . S
O1068 C1052 1.215 . S
O1069 Ho1041 2.524 . S
O1069 C1052 1.289 . S
O1070 Ho1041 2.381 . S
O1070 C1059 1.275 . S
O1071 Ho1040 2.305 . S
O1071 Ho1041 2.669 . S
O1071 C1059 1.256 . S
H1072 C1045 0.930 . S
H1073 C1046 0.931 . S
H1074 C1048 0.934 . S
H1075 C1049 0.930 . S
H1076 C1054 0.930 . S
H1077 C1055 0.931 . S
H1078 C1057 0.934 . S
H1079 C1058 0.930 . S
Ho1080 C1083 2.811 . S
Ho1080 O1100 2.322 . S
Ho1080 O1102 2.378 . S
Ho1080 O1103 2.524 . S
Ho1080 O1104 2.381 . S
Ho1080 O1105 2.669 . S
Ho1080 O1107 2.346 . S
Ho1080 O1111 2.305 . S
Ho1081 C1092 2.811 . S
Ho1081 O1101 2.346 . S
Ho1081 O1105 2.305 . S
Ho1081 O1106 2.322 . S
Ho1081 O1108 2.378 . S
Ho1081 O1109 2.524 . S
Ho1081 O1110 2.381 . S
Ho1081 O1111 2.669 . S
C1082 O1100 1.259 . S
C1082 O1101 1.268 . S
C1083 Ho1080 2.811 . S
C1083 C1084 1.488 . S
C1083 O1102 1.215 . S
C1083 O1103 1.289 . S
C1084 C1083 1.488 . S
C1084 C1085 1.348 . S
C1084 C1089 1.413 . S
C1085 C1084 1.348 . S
C1085 C1086 1.442 . S
C1085 H1112 0.930 . S
C1086 C1085 1.442 . S
C1086 C1087 1.381 . S
C1086 H1113 0.931 . S
C1087 C1086 1.381 . S
C1087 C1088 1.321 . S
C1088 C1087 1.321 . S
C1088 C1089 1.403 . S
C1088 H1114 0.934 . S
C1089 C1084 1.413 . S
C1089 C1088 1.403 . S
C1089 H1115 0.930 . S
C1090 O1104 1.275 . S
C1090 O1105 1.256 . S
C1091 O1106 1.259 . S
C1091 O1107 1.268 . S
C1092 Ho1081 2.811 . S
C1092 C1093 1.488 . S
C1092 O1108 1.215 . S
C1092 O1109 1.289 . S
C1093 C1092 1.488 . S
C1093 C1094 1.348 . S
C1093 C1098 1.413 . S
C1094 C1093 1.348 . S
C1094 C1095 1.442 . S
C1094 H1116 0.930 . S
C1095 C1094 1.442 . S
C1095 C1096 1.381 . S
C1095 H1117 0.931 . S
C1096 C1095 1.381 . S
C1096 C1097 1.321 . S
C1097 C1096 1.321 . S
C1097 C1098 1.403 . S
C1097 H1118 0.934 . S
C1098 C1093 1.413 . S
C1098 C1097 1.403 . S
C1098 H1119 0.930 . S
C1099 O1110 1.275 . S
C1099 O1111 1.256 . S
O1100 Ho1080 2.322 . S
O1100 C1082 1.259 . S
O1101 Ho1081 2.346 . S
O1101 C1082 1.268 . S
O1102 Ho1080 2.378 . S
O1102 C1083 1.215 . S
O1103 Ho1080 2.524 . S
O1103 C1083 1.289 . S
O1104 Ho1080 2.381 . S
O1104 C1090 1.275 . S
O1105 Ho1080 2.669 . S
O1105 Ho1081 2.305 . S
O1105 C1090 1.256 . S
O1106 Ho1081 2.322 . S
O1106 C1091 1.259 . S
O1107 Ho1080 2.346 . S
O1107 C1091 1.268 . S
O1108 Ho1081 2.378 . S
O1108 C1092 1.215 . S
O1109 Ho1081 2.524 . S
O1109 C1092 1.289 . S
O1110 Ho1081 2.381 . S
O1110 C1099 1.275 . S
O1111 Ho1080 2.305 . S
O1111 Ho1081 2.669 . S
O1111 C1099 1.256 . S
H1112 C1085 0.930 . S
H1113 C1086 0.931 . S
H1114 C1088 0.934 . S
H1115 C1089 0.930 . S
H1116 C1094 0.930 . S
H1117 C1095 0.931 . S
H1118 C1097 0.934 . S
H1119 C1098 0.930 . S
Ho1120 C1123 2.811 . S
Ho1120 O1140 2.322 . S
Ho1120 O1142 2.378 . S
Ho1120 O1143 2.524 . S
Ho1120 O1144 2.381 . S
Ho1120 O1145 2.669 . S
Ho1120 O1147 2.346 . S
Ho1120 O1151 2.305 . S
Ho1121 C1132 2.811 . S
Ho1121 O1141 2.346 . S
Ho1121 O1145 2.305 . S
Ho1121 O1146 2.322 . S
Ho1121 O1148 2.378 . S
Ho1121 O1149 2.524 . S
Ho1121 O1150 2.381 . S
Ho1121 O1151 2.669 . S
C1122 O1140 1.259 . S
C1122 O1141 1.268 . S
C1123 Ho1120 2.811 . S
C1123 C1124 1.488 . S
C1123 O1142 1.215 . S
C1123 O1143 1.289 . S
C1124 C1123 1.488 . S
C1124 C1125 1.348 . S
C1124 C1129 1.413 . S
C1125 C1124 1.348 . S
C1125 C1126 1.442 . S
C1125 H1152 0.930 . S
C1126 C1125 1.442 . S
C1126 C1127 1.381 . S
C1126 H1153 0.931 . S
C1127 C1126 1.381 . S
C1127 C1128 1.321 . S
C1128 C1127 1.321 . S
C1128 C1129 1.403 . S
C1128 H1154 0.934 . S
C1129 C1124 1.413 . S
C1129 C1128 1.403 . S
C1129 H1155 0.930 . S
C1130 O1144 1.275 . S
C1130 O1145 1.256 . S
C1131 O1146 1.259 . S
C1131 O1147 1.268 . S
C1132 Ho1121 2.811 . S
C1132 C1133 1.488 . S
C1132 O1148 1.215 . S
C1132 O1149 1.289 . S
C1133 C1132 1.488 . S
C1133 C1134 1.348 . S
C1133 C1138 1.413 . S
C1134 C1133 1.348 . S
C1134 C1135 1.442 . S
C1134 H1156 0.930 . S
C1135 C1134 1.442 . S
C1135 C1136 1.381 . S
C1135 H1157 0.931 . S
C1136 C1135 1.381 . S
C1136 C1137 1.321 . S
C1137 C1136 1.321 . S
C1137 C1138 1.403 . S
C1137 H1158 0.934 . S
C1138 C1133 1.413 . S
C1138 C1137 1.403 . S
C1138 H1159 0.930 . S
C1139 O1150 1.275 . S
C1139 O1151 1.256 . S
O1140 Ho1120 2.322 . S
O1140 C1122 1.259 . S
O1141 Ho1121 2.346 . S
O1141 C1122 1.268 . S
O1142 Ho1120 2.378 . S
O1142 C1123 1.215 . S
O1143 Ho1120 2.524 . S
O1143 C1123 1.289 . S
O1144 Ho1120 2.381 . S
O1144 C1130 1.275 . S
O1145 Ho1120 2.669 . S
O1145 Ho1121 2.305 . S
O1145 C1130 1.256 . S
O1146 Ho1121 2.322 . S
O1146 C1131 1.259 . S
O1147 Ho1120 2.346 . S
O1147 C1131 1.268 . S
O1148 Ho1121 2.378 . S
O1148 C1132 1.215 . S
O1149 Ho1121 2.524 . S
O1149 C1132 1.289 . S
O1150 Ho1121 2.381 . S
O1150 C1139 1.275 . S
O1151 Ho1120 2.305 . S
O1151 Ho1121 2.669 . S
O1151 C1139 1.256 . S
H1152 C1125 0.930 . S
H1153 C1126 0.931 . S
H1154 C1128 0.934 . S
H1155 C1129 0.930 . S
H1156 C1134 0.930 . S
H1157 C1135 0.931 . S
H1158 C1137 0.934 . S
H1159 C1138 0.930 . S
Ho1160 C1163 2.811 . S
Ho1160 O1180 2.322 . S
Ho1160 O1182 2.378 . S
Ho1160 O1183 2.524 . S
Ho1160 O1184 2.381 . S
Ho1160 O1185 2.669 . S
Ho1160 O1187 2.346 1_554 S
Ho1160 O1191 2.305 . S
Ho1161 C1172 2.811 1_554 S
Ho1161 O1181 2.346 . S
Ho1161 O1185 2.305 . S
Ho1161 O1186 2.322 1_554 S
Ho1161 O1188 2.378 . S
Ho1161 O1189 2.524 1_554 S
Ho1161 O1190 2.381 . S
Ho1161 O1191 2.669 . S
C1162 O1180 1.259 . S
C1162 O1181 1.268 . S
C1163 Ho1160 2.811 . S
C1163 C1164 1.488 . S
C1163 O1182 1.215 . S
C1163 O1183 1.289 . S
C1164 C1163 1.488 . S
C1164 C1165 1.348 . S
C1164 C1169 1.413 . S
C1165 C1164 1.348 . S
C1165 C1166 1.442 . S
C1165 H1192 0.930 . S
C1166 C1165 1.442 . S
C1166 C1167 1.381 . S
C1166 H1193 0.931 . S
C1167 C1166 1.381 . S
C1167 C1168 1.321 . S
C1168 C1167 1.321 . S
C1168 C1169 1.403 . S
C1168 H1194 0.934 . S
C1169 C1164 1.413 . S
C1169 C1168 1.403 . S
C1169 H1195 0.930 . S
C1170 O1184 1.275 . S
C1170 O1185 1.256 . S
C1171 O1186 1.259 . S
C1171 O1187 1.268 . S
C1172 Ho1161 2.811 1_556 S
C1172 C1173 1.488 . S
C1172 O1188 1.215 1_556 S
C1172 O1189 1.289 . S
C1173 C1172 1.488 . S
C1173 C1174 1.348 . S
C1173 C1178 1.413 . S
C1174 C1173 1.348 . S
C1174 C1175 1.442 . S
C1174 H1196 0.930 . S
C1175 C1174 1.442 . S
C1175 C1176 1.381 . S
C1175 H1197 0.931 . S
C1176 C1175 1.381 . S
C1176 C1177 1.321 . S
C1177 C1176 1.321 . S
C1177 C1178 1.403 . S
C1177 H1198 0.934 . S
C1178 C1173 1.413 . S
C1178 C1177 1.403 . S
C1178 H1199 0.930 . S
C1179 O1190 1.275 . S
C1179 O1191 1.256 . S
O1180 Ho1160 2.322 . S
O1180 C1162 1.259 . S
O1181 Ho1161 2.346 . S
O1181 C1162 1.268 . S
O1182 Ho1160 2.378 . S
O1182 C1163 1.215 . S
O1183 Ho1160 2.524 . S
O1183 C1163 1.289 . S
O1184 Ho1160 2.381 . S
O1184 C1170 1.275 . S
O1185 Ho1160 2.669 . S
O1185 Ho1161 2.305 . S
O1185 C1170 1.256 . S
O1186 Ho1161 2.322 1_556 S
O1186 C1171 1.259 . S
O1187 Ho1160 2.346 1_556 S
O1187 C1171 1.268 . S
O1188 Ho1161 2.378 . S
O1188 C1172 1.215 1_554 S
O1189 Ho1161 2.524 1_556 S
O1189 C1172 1.289 . S
O1190 Ho1161 2.381 . S
O1190 C1179 1.275 . S
O1191 Ho1160 2.305 . S
O1191 Ho1161 2.669 . S
O1191 C1179 1.256 . S
H1192 C1165 0.930 . S
H1193 C1166 0.931 . S
H1194 C1168 0.934 . S
H1195 C1169 0.930 . S
H1196 C1174 0.930 . S
H1197 C1175 0.931 . S
H1198 C1177 0.934 . S
H1199 C1178 0.930 . S
Ho1200 C1203 2.811 . S
Ho1200 O1220 2.322 . S
Ho1200 O1222 2.378 . S
Ho1200 O1223 2.524 . S
Ho1200 O1224 2.381 . S
Ho1200 O1225 2.669 . S
Ho1200 O1227 2.346 . S
Ho1200 O1231 2.305 . S
Ho1201 C1212 2.811 . S
Ho1201 O1221 2.346 . S
Ho1201 O1225 2.305 . S
Ho1201 O1226 2.322 . S
Ho1201 O1228 2.378 . S
Ho1201 O1229 2.524 . S
Ho1201 O1230 2.381 . S
Ho1201 O1231 2.669 . S
C1202 O1220 1.259 . S
C1202 O1221 1.268 . S
C1203 Ho1200 2.811 . S
C1203 C1204 1.488 . S
C1203 O1222 1.215 . S
C1203 O1223 1.289 . S
C1204 C1203 1.488 . S
C1204 C1205 1.348 . S
C1204 C1209 1.413 . S
C1205 C1204 1.348 . S
C1205 C1206 1.442 . S
C1205 H1232 0.930 . S
C1206 C1205 1.442 . S
C1206 C1207 1.381 . S
C1206 H1233 0.931 . S
C1207 C1206 1.381 . S
C1207 C1208 1.321 . S
C1208 C1207 1.321 . S
C1208 C1209 1.403 . S
C1208 H1234 0.934 . S
C1209 C1204 1.413 . S
C1209 C1208 1.403 . S
C1209 H1235 0.930 . S
C1210 O1224 1.275 . S
C1210 O1225 1.256 . S
C1211 O1226 1.259 . S
C1211 O1227 1.268 . S
C1212 Ho1201 2.811 . S
C1212 C1213 1.488 . S
C1212 O1228 1.215 . S
C1212 O1229 1.289 . S
C1213 C1212 1.488 . S
C1213 C1214 1.348 . S
C1213 C1218 1.413 . S
C1214 C1213 1.348 . S
C1214 C1215 1.442 . S
C1214 H1236 0.930 . S
C1215 C1214 1.442 . S
C1215 C1216 1.381 . S
C1215 H1237 0.931 . S
C1216 C1215 1.381 . S
C1216 C1217 1.321 . S
C1217 C1216 1.321 . S
C1217 C1218 1.403 . S
C1217 H1238 0.934 . S
C1218 C1213 1.413 . S
C1218 C1217 1.403 . S
C1218 H1239 0.930 . S
C1219 O1230 1.275 . S
C1219 O1231 1.256 . S
O1220 Ho1200 2.322 . S
O1220 C1202 1.259 . S
O1221 Ho1201 2.346 . S
O1221 C1202 1.268 . S
O1222 Ho1200 2.378 . S
O1222 C1203 1.215 . S
O1223 Ho1200 2.524 . S
O1223 C1203 1.289 . S
O1224 Ho1200 2.381 . S
O1224 C1210 1.275 . S
O1225 Ho1200 2.669 . S
O1225 Ho1201 2.305 . S
O1225 C1210 1.256 . S
O1226 Ho1201 2.322 . S
O1226 C1211 1.259 . S
O1227 Ho1200 2.346 . S
O1227 C1211 1.268 . S
O1228 Ho1201 2.378 . S
O1228 C1212 1.215 . S
O1229 Ho1201 2.524 . S
O1229 C1212 1.289 . S
O1230 Ho1201 2.381 . S
O1230 C1219 1.275 . S
O1231 Ho1200 2.305 . S
O1231 Ho1201 2.669 . S
O1231 C1219 1.256 . S
H1232 C1205 0.930 . S
H1233 C1206 0.931 . S
H1234 C1208 0.934 . S
H1235 C1209 0.930 . S
H1236 C1214 0.930 . S
H1237 C1215 0.931 . S
H1238 C1217 0.934 . S
H1239 C1218 0.930 . S
Ho1240 C1243 2.811 . S
Ho1240 O1260 2.322 . S
Ho1240 O1262 2.378 . S
Ho1240 O1263 2.524 . S
Ho1240 O1264 2.381 . S
Ho1240 O1265 2.669 . S
Ho1240 O1267 2.346 . S
Ho1240 O1271 2.305 . S
Ho1241 C1252 2.811 . S
Ho1241 O1261 2.346 . S
Ho1241 O1265 2.305 . S
Ho1241 O1266 2.322 . S
Ho1241 O1268 2.378 . S
Ho1241 O1269 2.524 . S
Ho1241 O1270 2.381 . S
Ho1241 O1271 2.669 . S
C1242 O1260 1.259 . S
C1242 O1261 1.268 . S
C1243 Ho1240 2.811 . S
C1243 C1244 1.488 . S
C1243 O1262 1.215 . S
C1243 O1263 1.289 . S
C1244 C1243 1.488 . S
C1244 C1245 1.348 . S
C1244 C1249 1.413 . S
C1245 C1244 1.348 . S
C1245 C1246 1.442 . S
C1245 H1272 0.930 . S
C1246 C1245 1.442 . S
C1246 C1247 1.381 . S
C1246 H1273 0.931 . S
C1247 C1246 1.381 . S
C1247 C1248 1.321 . S
C1248 C1247 1.321 . S
C1248 C1249 1.403 . S
C1248 H1274 0.934 . S
C1249 C1244 1.413 . S
C1249 C1248 1.403 . S
C1249 H1275 0.930 . S
C1250 O1264 1.275 . S
C1250 O1265 1.256 . S
C1251 O1266 1.259 . S
C1251 O1267 1.268 . S
C1252 Ho1241 2.811 . S
C1252 C1253 1.488 . S
C1252 O1268 1.215 . S
C1252 O1269 1.289 . S
C1253 C1252 1.488 . S
C1253 C1254 1.348 . S
C1253 C1258 1.413 . S
C1254 C1253 1.348 . S
C1254 C1255 1.442 . S
C1254 H1276 0.930 . S
C1255 C1254 1.442 . S
C1255 C1256 1.381 . S
C1255 H1277 0.931 . S
C1256 C1255 1.381 . S
C1256 C1257 1.321 . S
C1257 C1256 1.321 . S
C1257 C1258 1.403 . S
C1257 H1278 0.934 . S
C1258 C1253 1.413 . S
C1258 C1257 1.403 . S
C1258 H1279 0.930 . S
C1259 O1270 1.275 . S
C1259 O1271 1.256 . S
O1260 Ho1240 2.322 . S
O1260 C1242 1.259 . S
O1261 Ho1241 2.346 . S
O1261 C1242 1.268 . S
O1262 Ho1240 2.378 . S
O1262 C1243 1.215 . S
O1263 Ho1240 2.524 . S
O1263 C1243 1.289 . S
O1264 Ho1240 2.381 . S
O1264 C1250 1.275 . S
O1265 Ho1240 2.669 . S
O1265 Ho1241 2.305 . S
O1265 C1250 1.256 . S
O1266 Ho1241 2.322 . S
O1266 C1251 1.259 . S
O1267 Ho1240 2.346 . S
O1267 C1251 1.268 . S
O1268 Ho1241 2.378 . S
O1268 C1252 1.215 . S
O1269 Ho1241 2.524 . S
O1269 C1252 1.289 . S
O1270 Ho1241 2.381 . S
O1270 C1259 1.275 . S
O1271 Ho1240 2.305 . S
O1271 Ho1241 2.669 . S
O1271 C1259 1.256 . S
H1272 C1245 0.930 . S
H1273 C1246 0.931 . S
H1274 C1248 0.934 . S
H1275 C1249 0.930 . S
H1276 C1254 0.930 . S
H1277 C1255 0.931 . S
H1278 C1257 0.934 . S
H1279 C1258 0.930 . S
H1280 C1288 0.950 . S
H1281 C1293 0.950 . S
H1282 C1290 0.950 . S
H1283 C1292 0.950 . S
H1284 C1294 0.950 . S
H1285 C1296 0.950 . S
H1286 C1298 0.950 . S
H1287 C1299 0.950 . S
C1288 H1280 0.950 . S
C1288 C1289 1.386 . S
C1288 C1290 1.391 . S
C1289 C1288 1.386 . S
C1289 C1293 1.393 . S
C1290 H1282 0.950 . S
C1290 C1288 1.391 . S
C1290 C1291 1.400 . S
C1291 C1290 1.400 . S
C1291 C1292 1.398 . S
C1291 C1297 1.491 . S
C1292 H1283 0.950 . S
C1292 C1291 1.398 . S
C1292 C1293 1.391 . S
C1293 H1281 0.950 . S
C1293 C1289 1.393 . S
C1293 C1292 1.391 . S
C1294 H1284 0.950 . S
C1294 C1295 1.386 . S
C1294 C1296 1.391 . S
C1295 C1294 1.386 . S
C1295 C1299 1.393 . S
C1296 H1285 0.950 . S
C1296 C1294 1.391 . S
C1296 C1297 1.400 . S
C1297 C1291 1.491 . S
C1297 C1296 1.400 . S
C1297 C1298 1.398 . S
C1298 H1286 0.950 . S
C1298 C1297 1.398 . S
C1298 C1299 1.391 . S
C1299 H1287 0.950 . S
C1299 C1295 1.393 . S
C1299 C1298 1.391 . S
H1300 C1308 0.950 . S
H1301 C1313 0.950 . S
H1302 C1310 0.950 . S
H1303 C1312 0.950 . S
H1304 C1314 0.946 1_565 S
H1305 C1316 0.950 . S
H1306 C1318 0.950 . S
H1307 C1319 0.950 . S
C1308 H1300 0.950 . S
C1308 C1309 1.386 . S
C1308 C1310 1.391 . S
C1309 C1308 1.386 . S
C1309 C1313 1.393 . S
C1310 H1302 0.950 . S
C1310 C1308 1.391 . S
C1310 C1311 1.400 . S
C1311 C1310 1.400 . S
C1311 C1312 1.398 . S
C1311 C1317 1.491 . S
C1312 H1303 0.950 . S
C1312 C1311 1.398 . S
C1312 C1313 1.391 . S
C1313 H1301 0.950 . S
C1313 C1309 1.393 . S
C1313 C1312 1.391 . S
C1314 H1304 0.946 1_545 S
C1314 C1315 1.386 . S
C1314 C1316 1.395 . S
C1315 C1314 1.386 . S
C1315 C1319 1.393 . S
C1316 H1305 0.950 . S
C1316 C1314 1.395 . S
C1316 C1317 1.400 . S
C1317 C1311 1.491 . S
C1317 C1316 1.400 . S
C1317 C1318 1.398 . S
C1318 H1306 0.950 . S
C1318 C1317 1.398 . S
C1318 C1319 1.391 . S
C1319 H1307 0.950 . S
C1319 C1315 1.393 . S
C1319 C1318 1.391 . S
H1320 C1328 0.950 . S
H1321 C1333 0.950 . S
H1322 C1330 0.950 . S
H1323 C1332 0.950 . S
H1324 C1334 0.950 . S
H1325 C1336 0.950 . S
H1326 C1338 0.950 . S
H1327 C1339 0.950 . S
C1328 H1320 0.950 . S
C1328 C1329 1.386 . S
C1328 C1330 1.391 . S
C1329 C1328 1.386 . S
C1329 C1333 1.393 . S
C1330 H1322 0.950 . S
C1330 C1328 1.391 . S
C1330 C1331 1.400 . S
C1331 C1330 1.400 . S
C1331 C1332 1.398 . S
C1331 C1337 1.491 . S
C1332 H1323 0.950 . S
C1332 C1331 1.398 . S
C1332 C1333 1.391 . S
C1333 H1321 0.950 . S
C1333 C1329 1.393 . S
C1333 C1332 1.391 . S
C1334 H1324 0.950 . S
C1334 C1335 1.386 . S
C1334 C1336 1.391 . S
C1335 C1334 1.386 . S
C1335 C1339 1.393 . S
C1336 H1325 0.950 . S
C1336 C1334 1.391 . S
C1336 C1337 1.400 . S
C1337 C1331 1.491 . S
C1337 C1336 1.400 . S
C1337 C1338 1.398 . S
C1338 H1326 0.950 . S
C1338 C1337 1.398 . S
C1338 C1339 1.391 . S
C1339 H1327 0.950 . S
C1339 C1335 1.393 . S
C1339 C1338 1.391 . S
H1340 C1348 0.950 . S
H1341 C1353 0.950 . S
H1342 C1350 0.950 . S
H1343 C1352 0.950 . S
H1344 C1354 0.950 . S
H1345 C1356 0.950 . S
H1346 C1358 0.950 . S
H1347 C1359 0.950 . S
C1348 H1340 0.950 . S
C1348 C1349 1.386 . S
C1348 C1350 1.391 . S
C1349 C1348 1.386 . S
C1349 C1353 1.393 . S
C1350 H1342 0.950 . S
C1350 C1348 1.391 . S
C1350 C1351 1.400 . S
C1351 C1350 1.400 . S
C1351 C1352 1.398 . S
C1351 C1357 1.491 . S
C1352 H1343 0.950 . S
C1352 C1351 1.398 . S
C1352 C1353 1.391 . S
C1353 H1341 0.950 . S
C1353 C1349 1.393 . S
C1353 C1352 1.391 . S
C1354 H1344 0.950 . S
C1354 C1355 1.386 . S
C1354 C1356 1.391 . S
C1355 C1354 1.386 . S
C1355 C1359 1.393 . S
C1356 H1345 0.950 . S
C1356 C1354 1.391 . S
C1356 C1357 1.400 . S
C1357 C1351 1.491 . S
C1357 C1356 1.400 . S
C1357 C1358 1.398 . S
C1358 H1346 0.950 . S
C1358 C1357 1.398 . S
C1358 C1359 1.391 . S
C1359 H1347 0.950 . S
C1359 C1355 1.393 . S
C1359 C1358 1.391 . S
H1360 C1368 0.950 . S
H1361 C1373 0.950 . S
H1362 C1370 0.950 . S
H1363 C1372 0.950 . S
H1364 C1374 0.950 . S
H1365 C1376 0.950 . S
H1366 C1378 0.950 . S
H1367 C1379 0.950 . S
C1368 H1360 0.950 . S
C1368 C1369 1.386 . S
C1368 C1370 1.391 . S
C1369 C1368 1.386 . S
C1369 C1373 1.393 . S
C1370 H1362 0.950 . S
C1370 C1368 1.391 . S
C1370 C1371 1.400 . S
C1371 C1370 1.400 . S
C1371 C1372 1.398 . S
C1371 C1377 1.491 . S
C1372 H1363 0.950 . S
C1372 C1371 1.398 . S
C1372 C1373 1.391 . S
C1373 H1361 0.950 . S
C1373 C1369 1.393 . S
C1373 C1372 1.391 . S
C1374 H1364 0.950 . S
C1374 C1375 1.386 . S
C1374 C1376 1.391 . S
C1375 C1374 1.386 . S
C1375 C1379 1.393 . S
C1376 H1365 0.950 . S
C1376 C1374 1.391 . S
C1376 C1377 1.400 . S
C1377 C1371 1.491 . S
C1377 C1376 1.400 . S
C1377 C1378 1.398 . S
C1378 H1366 0.950 . S
C1378 C1377 1.398 . S
C1378 C1379 1.391 . S
C1379 H1367 0.950 . S
C1379 C1375 1.393 . S
C1379 C1378 1.391 . S
H1380 C1388 0.950 . S
H1381 C1393 0.964 . S
H1382 C1390 0.950 . S
H1383 C1392 0.950 . S
H1384 C1394 0.950 . S
H1385 C1396 0.950 . S
H1386 C1398 0.950 . S
H1387 C1399 0.950 . S
C1388 H1380 0.950 . S
C1388 C1389 1.386 . S
C1388 C1390 1.391 . S
C1389 C1388 1.386 . S
C1389 C1393 1.392 1_545 S
C1390 H1382 0.950 . S
C1390 C1388 1.391 . S
C1390 C1391 1.400 . S
C1391 C1390 1.400 . S
C1391 C1392 1.398 . S
C1391 C1397 1.491 . S
C1392 H1383 0.950 . S
C1392 C1391 1.398 . S
C1392 C1393 1.378 1_545 S
C1393 H1381 0.964 . S
C1393 C1389 1.392 1_565 S
C1393 C1392 1.378 1_565 S
C1394 H1384 0.950 . S
C1394 C1395 1.386 . S
C1394 C1396 1.391 . S
C1395 C1394 1.386 . S
C1395 C1399 1.393 . S
C1396 H1385 0.950 . S
C1396 C1394 1.391 . S
C1396 C1397 1.400 . S
C1397 C1391 1.491 . S
C1397 C1396 1.400 . S
C1397 C1398 1.398 . S
C1398 H1386 0.950 . S
C1398 C1397 1.398 . S
C1398 C1399 1.391 . S
C1399 H1387 0.950 . S
C1399 C1395 1.393 . S
C1399 C1398 1.391 . S
H1400 C1408 0.950 . S
H1401 C1413 0.950 . S
H1402 C1410 0.950 . S
H1403 C1412 0.950 . S
H1404 C1414 0.950 . S
H1405 C1416 0.950 . S
H1406 C1418 0.950 . S
H1407 C1419 0.950 . S
C1408 H1400 0.950 . S
C1408 C1409 1.386 . S
C1408 C1410 1.391 . S
C1409 C1408 1.386 . S
C1409 C1413 1.393 . S
C1410 H1402 0.950 . S
C1410 C1408 1.391 . S
C1410 C1411 1.400 . S
C1411 C1410 1.400 . S
C1411 C1412 1.398 . S
C1411 C1417 1.491 . S
C1412 H1403 0.950 . S
C1412 C1411 1.398 . S
C1412 C1413 1.391 . S
C1413 H1401 0.950 . S
C1413 C1409 1.393 . S
C1413 C1412 1.391 . S
C1414 H1404 0.950 . S
C1414 C1415 1.386 . S
C1414 C1416 1.391 . S
C1415 C1414 1.386 . S
C1415 C1419 1.393 . S
C1416 H1405 0.950 . S
C1416 C1414 1.391 . S
C1416 C1417 1.400 . S
C1417 C1411 1.491 . S
C1417 C1416 1.400 . S
C1417 C1418 1.398 . S
C1418 H1406 0.950 . S
C1418 C1417 1.398 . S
C1418 C1419 1.391 . S
C1419 H1407 0.950 . S
C1419 C1415 1.393 . S
C1419 C1418 1.391 . S
H1420 C1428 0.950 . S
H1421 C1433 0.950 . S
H1422 C1430 0.950 . S
H1423 C1432 0.950 . S
H1424 C1434 0.950 . S
H1425 C1436 0.950 . S
H1426 C1438 0.950 . S
H1427 C1439 0.950 . S
C1428 H1420 0.950 . S
C1428 C1429 1.386 . S
C1428 C1430 1.391 . S
C1429 C1428 1.386 . S
C1429 C1433 1.393 . S
C1430 H1422 0.950 . S
C1430 C1428 1.391 . S
C1430 C1431 1.400 . S
C1431 C1430 1.400 . S
C1431 C1432 1.398 . S
C1431 C1437 1.491 . S
C1432 H1423 0.950 . S
C1432 C1431 1.398 . S
C1432 C1433 1.391 . S
C1433 H1421 0.950 . S
C1433 C1429 1.393 . S
C1433 C1432 1.391 . S
C1434 H1424 0.950 . S
C1434 C1435 1.386 1_545 S
C1434 C1436 1.391 1_545 S
C1435 C1434 1.386 1_565 S
C1435 C1439 1.393 . S
C1436 H1425 0.950 . S
C1436 C1434 1.391 1_565 S
C1436 C1437 1.400 . S
C1437 C1431 1.491 . S
C1437 C1436 1.400 . S
C1437 C1438 1.398 . S
C1438 H1426 0.950 . S
C1438 C1437 1.398 . S
C1438 C1439 1.391 . S
C1439 H1427 0.950 . S
C1439 C1435 1.393 . S
C1439 C1438 1.391 . S
H1440 C1448 0.950 . S
H1441 C1453 0.950 . S
H1442 C1450 0.950 . S
H1443 C1452 0.950 . S
H1444 C1454 0.950 . S
H1445 C1456 0.950 . S
H1446 C1458 0.950 . S
H1447 C1459 0.950 . S
C1448 H1440 0.950 . S
C1448 C1449 1.386 . S
C1448 C1450 1.391 . S
C1449 C1448 1.386 . S
C1449 C1453 1.393 . S
C1450 H1442 0.950 . S
C1450 C1448 1.391 . S
C1450 C1451 1.400 . S
C1451 C1450 1.400 . S
C1451 C1452 1.398 . S
C1451 C1457 1.491 . S
C1452 H1443 0.950 . S
C1452 C1451 1.398 . S
C1452 C1453 1.391 . S
C1453 H1441 0.950 . S
C1453 C1449 1.393 . S
C1453 C1452 1.391 . S
C1454 H1444 0.950 . S
C1454 C1455 1.386 . S
C1454 C1456 1.391 . S
C1455 C1454 1.386 . S
C1455 C1459 1.393 . S
C1456 H1445 0.950 . S
C1456 C1454 1.391 . S
C1456 C1457 1.400 . S
C1457 C1451 1.491 . S
C1457 C1456 1.400 . S
C1457 C1458 1.398 . S
C1458 H1446 0.950 . S
C1458 C1457 1.398 . S
C1458 C1459 1.391 . S
C1459 H1447 0.950 . S
C1459 C1455 1.393 . S
C1459 C1458 1.391 . S
H1460 C1468 0.950 . S
H1461 C1473 0.950 . S
H1462 C1470 0.950 . S
H1463 C1472 0.950 . S
H1464 C1474 0.950 . S
H1465 C1476 0.950 . S
H1466 C1478 0.950 . S
H1467 C1479 0.950 . S
C1468 H1460 0.950 . S
C1468 C1469 1.386 . S
C1468 C1470 1.391 . S
C1469 C1468 1.386 . S
C1469 C1473 1.393 . S
C1470 H1462 0.950 . S
C1470 C1468 1.391 . S
C1470 C1471 1.400 . S
C1471 C1470 1.400 . S
C1471 C1472 1.398 . S
C1471 C1477 1.491 . S
C1472 H1463 0.950 . S
C1472 C1471 1.398 . S
C1472 C1473 1.391 . S
C1473 H1461 0.950 . S
C1473 C1469 1.393 . S
C1473 C1472 1.391 . S
C1474 H1464 0.950 . S
C1474 C1475 1.386 . S
C1474 C1476 1.391 . S
C1475 C1474 1.386 . S
C1475 C1479 1.393 . S
C1476 H1465 0.950 . S
C1476 C1474 1.391 . S
C1476 C1477 1.400 . S
C1477 C1471 1.491 . S
C1477 C1476 1.400 . S
C1477 C1478 1.398 . S
C1478 H1466 0.950 . S
C1478 C1477 1.398 . S
C1478 C1479 1.391 . S
C1479 H1467 0.950 . S
C1479 C1475 1.393 . S
C1479 C1478 1.391 . S
H1480 C1488 0.950 . S
H1481 C1493 0.950 . S
H1482 C1490 0.950 . S
H1483 C1492 0.950 . S
H1484 C1494 0.950 . S
H1485 C1496 0.950 . S
H1486 C1498 0.950 . S
H1487 C1499 0.950 . S
C1488 H1480 0.950 . S
C1488 C1489 1.386 . S
C1488 C1490 1.391 . S
C1489 C1488 1.386 . S
C1489 C1493 1.393 . S
C1490 H1482 0.950 . S
C1490 C1488 1.391 . S
C1490 C1491 1.400 . S
C1491 C1490 1.400 . S
C1491 C1492 1.398 . S
C1491 C1497 1.491 . S
C1492 H1483 0.950 . S
C1492 C1491 1.398 . S
C1492 C1493 1.391 . S
C1493 H1481 0.950 . S
C1493 C1489 1.393 . S
C1493 C1492 1.391 . S
C1494 H1484 0.950 . S
C1494 C1495 1.386 . S
C1494 C1496 1.391 . S
C1495 C1494 1.386 . S
C1495 C1499 1.393 . S
C1496 H1485 0.950 . S
C1496 C1494 1.391 . S
C1496 C1497 1.400 . S
C1497 C1491 1.491 . S
C1497 C1496 1.400 . S
C1497 C1498 1.398 . S
C1498 H1486 0.950 . S
C1498 C1497 1.398 . S
C1498 C1499 1.391 . S
C1499 H1487 0.950 . S
C1499 C1495 1.393 . S
C1499 C1498 1.391 . S
H1500 C1508 0.950 . S
H1501 C1513 0.950 . S
H1502 C1510 0.950 . S
H1503 C1512 0.950 . S
H1504 C1514 0.950 . S
H1505 C1516 0.950 . S
H1506 C1518 0.950 . S
H1507 C1519 0.950 . S
C1508 H1500 0.950 . S
C1508 C1509 1.376 1_565 S
C1508 C1510 1.391 1_565 S
C1509 C1508 1.376 1_545 S
C1509 C1513 1.429 . S
C1510 H1502 0.950 . S
C1510 C1508 1.391 1_545 S
C1510 C1511 1.400 . S
C1511 C1510 1.400 . S
C1511 C1512 1.398 . S
C1511 C1517 1.491 . S
C1512 H1503 0.950 . S
C1512 C1511 1.398 . S
C1512 C1513 1.391 . S
C1513 H1501 0.950 . S
C1513 C1509 1.429 . S
C1513 C1512 1.391 . S
C1514 H1504 0.950 . S
C1514 C1515 1.386 . S
C1514 C1516 1.391 . S
C1515 C1514 1.386 . S
C1515 C1519 1.393 . S
C1516 H1505 0.950 . S
C1516 C1514 1.391 . S
C1516 C1517 1.400 . S
C1517 C1511 1.491 . S
C1517 C1516 1.400 . S
C1517 C1518 1.398 . S
C1518 H1506 0.950 . S
C1518 C1517 1.398 . S
C1518 C1519 1.391 . S
C1519 H1507 0.950 . S
C1519 C1515 1.393 . S
C1519 C1518 1.391 . S
H1520 C1528 0.950 . S
H1521 C1533 0.950 . S
H1522 C1530 0.950 . S
H1523 C1532 0.950 . S
H1524 C1534 0.950 . S
H1525 C1536 0.950 . S
H1526 C1538 0.950 . S
H1527 C1539 0.950 . S
C1528 H1520 0.950 . S
C1528 C1529 1.386 . S
C1528 C1530 1.391 . S
C1529 C1528 1.386 . S
C1529 C1533 1.393 . S
C1530 H1522 0.950 . S
C1530 C1528 1.391 . S
C1530 C1531 1.400 . S
C1531 C1530 1.400 . S
C1531 C1532 1.398 . S
C1531 C1537 1.491 . S
C1532 H1523 0.950 . S
C1532 C1531 1.398 . S
C1532 C1533 1.391 . S
C1533 H1521 0.950 . S
C1533 C1529 1.393 . S
C1533 C1532 1.391 . S
C1534 H1524 0.950 . S
C1534 C1535 1.386 . S
C1534 C1536 1.391 . S
C1535 C1534 1.386 . S
C1535 C1539 1.393 . S
C1536 H1525 0.950 . S
C1536 C1534 1.391 . S
C1536 C1537 1.400 . S
C1537 C1531 1.491 . S
C1537 C1536 1.400 . S
C1537 C1538 1.398 . S
C1538 H1526 0.950 . S
C1538 C1537 1.398 . S
C1538 C1539 1.391 . S
C1539 H1527 0.950 . S
C1539 C1535 1.393 . S
C1539 C1538 1.391 . S
H1540 C1548 0.951 . S
H1541 C1553 0.950 . S
H1542 C1550 0.950 . S
H1543 C1552 0.950 . S
H1544 C1554 0.950 . S
H1545 C1556 0.950 . S
H1546 C1558 0.950 . S
H1547 C1559 0.950 . S
C1548 H1540 0.951 . S
C1548 C1549 1.386 1_545 S
C1548 C1550 1.390 1_545 S
C1549 C1548 1.386 1_565 S
C1549 C1553 1.393 . S
C1550 H1542 0.950 . S
C1550 C1548 1.390 1_565 S
C1550 C1551 1.400 . S
C1551 C1550 1.400 . S
C1551 C1552 1.398 . S
C1551 C1557 1.491 . S
C1552 H1543 0.950 . S
C1552 C1551 1.398 . S
C1552 C1553 1.391 . S
C1553 H1541 0.950 . S
C1553 C1549 1.393 . S
C1553 C1552 1.391 . S
C1554 H1544 0.950 . S
C1554 C1555 1.386 . S
C1554 C1556 1.391 . S
C1555 C1554 1.386 . S
C1555 C1559 1.393 . S
C1556 H1545 0.950 . S
C1556 C1554 1.391 . S
C1556 C1557 1.400 . S
C1557 C1551 1.491 . S
C1557 C1556 1.400 . S
C1557 C1558 1.398 . S
C1558 H1546 0.950 . S
C1558 C1557 1.398 . S
C1558 C1559 1.391 . S
C1559 H1547 0.950 . S
C1559 C1555 1.393 . S
C1559 C1558 1.391 . S
H1560 C1568 0.950 . S
H1561 C1573 0.950 . S
H1562 C1570 0.950 . S
H1563 C1572 0.950 . S
H1564 C1574 0.950 . S
H1565 C1576 0.950 . S
H1566 C1578 0.950 . S
H1567 C1579 0.950 . S
C1568 H1560 0.950 . S
C1568 C1569 1.386 . S
C1568 C1570 1.391 . S
C1569 C1568 1.386 . S
C1569 C1573 1.393 . S
C1570 H1562 0.950 . S
C1570 C1568 1.391 . S
C1570 C1571 1.400 . S
C1571 C1570 1.400 . S
C1571 C1572 1.398 . S
C1571 C1577 1.491 . S
C1572 H1563 0.950 . S
C1572 C1571 1.398 . S
C1572 C1573 1.391 . S
C1573 H1561 0.950 . S
C1573 C1569 1.393 . S
C1573 C1572 1.391 . S
C1574 H1564 0.950 . S
C1574 C1575 1.386 . S
C1574 C1576 1.391 . S
C1575 C1574 1.386 . S
C1575 C1579 1.393 . S
C1576 H1565 0.950 . S
C1576 C1574 1.391 . S
C1576 C1577 1.400 . S
C1577 C1571 1.491 . S
C1577 C1576 1.400 . S
C1577 C1578 1.398 . S
C1578 H1566 0.950 . S
C1578 C1577 1.398 . S
C1578 C1579 1.391 . S
C1579 H1567 0.950 . S
C1579 C1575 1.393 . S
C1579 C1578 1.391 . S
H1580 C1588 0.950 . S
H1581 C1593 0.950 . S
H1582 C1590 0.950 . S
H1583 C1592 0.950 . S
H1584 C1594 0.959 . S
H1585 C1596 0.950 . S
H1586 C1598 0.950 . S
H1587 C1599 0.950 . S
C1588 H1580 0.950 . S
C1588 C1589 1.386 . S
C1588 C1590 1.391 . S
C1589 C1588 1.386 . S
C1589 C1593 1.393 . S
C1590 H1582 0.950 . S
C1590 C1588 1.391 . S
C1590 C1591 1.400 . S
C1591 C1590 1.400 . S
C1591 C1592 1.398 . S
C1591 C1597 1.491 . S
C1592 H1583 0.950 . S
C1592 C1591 1.398 . S
C1592 C1593 1.391 . S
C1593 H1581 0.950 . S
C1593 C1589 1.393 . S
C1593 C1592 1.391 . S
C1594 H1584 0.959 . S
C1594 C1595 1.386 . S
C1594 C1596 1.391 . S
C1595 C1594 1.386 . S
C1595 C1599 1.393 . S
C1596 H1585 0.950 . S
C1596 C1594 1.391 . S
C1596 C1597 1.400 . S
C1597 C1591 1.491 . S
C1597 C1596 1.400 . S
C1597 C1598 1.398 . S
C1598 H1586 0.950 . S
C1598 C1597 1.398 . S
C1598 C1599 1.391 . S
C1599 H1587 0.950 . S
C1599 C1595 1.393 . S
C1599 C1598 1.391 . S
H1600 C1608 0.950 . S
H1601 C1613 0.950 . S
H1602 C1610 0.950 . S
H1603 C1612 0.950 . S
H1604 C1614 0.950 . S
H1605 C1616 0.950 . S
H1606 C1618 0.950 . S
H1607 C1619 0.950 . S
C1608 H1600 0.950 . S
C1608 C1609 1.386 . S
C1608 C1610 1.391 . S
C1609 C1608 1.386 . S
C1609 C1613 1.393 . S
C1610 H1602 0.950 . S
C1610 C1608 1.391 . S
C1610 C1611 1.400 . S
C1611 C1610 1.400 . S
C1611 C1612 1.398 . S
C1611 C1617 1.491 . S
C1612 H1603 0.950 . S
C1612 C1611 1.398 . S
C1612 C1613 1.391 . S
C1613 H1601 0.950 . S
C1613 C1609 1.393 . S
C1613 C1612 1.391 . S
C1614 H1604 0.950 . S
C1614 C1615 1.386 . S
C1614 C1616 1.391 . S
C1615 C1614 1.386 . S
C1615 C1619 1.393 . S
C1616 H1605 0.950 . S
C1616 C1614 1.391 . S
C1616 C1617 1.400 . S
C1617 C1611 1.491 . S
C1617 C1616 1.400 . S
C1617 C1618 1.398 . S
C1618 H1606 0.950 . S
C1618 C1617 1.398 . S
C1618 C1619 1.391 . S
C1619 H1607 0.950 . S
C1619 C1615 1.393 . S
C1619 C1618 1.391 . S
H1620 C1628 0.950 . S
H1621 C1633 0.950 . S
H1622 C1630 0.950 . S
H1623 C1632 0.950 . S
H1624 C1634 0.950 . S
H1625 C1636 0.950 . S
H1626 C1638 0.950 . S
H1627 C1639 0.950 . S
C1628 H1620 0.950 . S
C1628 C1629 1.386 . S
C1628 C1630 1.391 . S
C1629 C1628 1.386 . S
C1629 C1633 1.393 . S
C1630 H1622 0.950 . S
C1630 C1628 1.391 . S
C1630 C1631 1.400 . S
C1631 C1630 1.400 . S
C1631 C1632 1.398 . S
C1631 C1637 1.491 . S
C1632 H1623 0.950 . S
C1632 C1631 1.398 . S
C1632 C1633 1.391 . S
C1633 H1621 0.950 . S
C1633 C1629 1.393 . S
C1633 C1632 1.391 . S
C1634 H1624 0.950 . S
C1634 C1635 1.386 . S
C1634 C1636 1.391 . S
C1635 C1634 1.386 . S
C1635 C1639 1.393 . S
C1636 H1625 0.950 . S
C1636 C1634 1.391 . S
C1636 C1637 1.400 . S
C1637 C1631 1.491 . S
C1637 C1636 1.400 . S
C1637 C1638 1.398 . S
C1638 H1626 0.950 . S
C1638 C1637 1.398 . S
C1638 C1639 1.391 . S
C1639 H1627 0.950 . S
C1639 C1635 1.393 . S
C1639 C1638 1.391 . S
H1640 C1648 0.950 . S
H1641 C1653 0.950 . S
H1642 C1650 0.950 . S
H1643 C1652 0.950 . S
H1644 C1654 0.950 . S
H1645 C1656 0.950 . S
H1646 C1658 0.950 . S
H1647 C1659 0.950 . S
C1648 H1640 0.950 . S
C1648 C1649 1.386 . S
C1648 C1650 1.391 . S
C1649 C1648 1.386 . S
C1649 C1653 1.393 . S
C1650 H1642 0.950 . S
C1650 C1648 1.391 . S
C1650 C1651 1.400 . S
C1651 C1650 1.400 . S
C1651 C1652 1.398 . S
C1651 C1657 1.491 . S
C1652 H1643 0.950 . S
C1652 C1651 1.398 . S
C1652 C1653 1.391 . S
C1653 H1641 0.950 . S
C1653 C1649 1.393 . S
C1653 C1652 1.391 . S
C1654 H1644 0.950 . S
C1654 C1655 1.386 . S
C1654 C1656 1.391 . S
C1655 C1654 1.386 . S
C1655 C1659 1.393 . S
C1656 H1645 0.950 . S
C1656 C1654 1.391 . S
C1656 C1657 1.400 . S
C1657 C1651 1.491 . S
C1657 C1656 1.400 . S
C1657 C1658 1.398 . S
C1658 H1646 0.950 . S
C1658 C1657 1.398 . S
C1658 C1659 1.391 . S
C1659 H1647 0.950 . S
C1659 C1655 1.393 . S
C1659 C1658 1.391 . S
H1660 C1668 0.950 . S
H1661 C1673 0.950 . S
H1662 C1670 0.950 . S
H1663 C1672 0.950 . S
H1664 C1674 0.950 . S
H1665 C1676 0.950 . S
H1666 C1678 0.950 . S
H1667 C1679 0.950 . S
C1668 H1660 0.950 . S
C1668 C1669 1.386 . S
C1668 C1670 1.391 . S
C1669 C1668 1.386 . S
C1669 C1673 1.393 . S
C1670 H1662 0.950 . S
C1670 C1668 1.391 . S
C1670 C1671 1.400 . S
C1671 C1670 1.400 . S
C1671 C1672 1.398 . S
C1671 C1677 1.491 . S
C1672 H1663 0.950 . S
C1672 C1671 1.398 . S
C1672 C1673 1.391 . S
C1673 H1661 0.950 . S
C1673 C1669 1.393 . S
C1673 C1672 1.391 . S
C1674 H1664 0.950 . S
C1674 C1675 1.386 . S
C1674 C1676 1.391 . S
C1675 C1674 1.386 . S
C1675 C1679 1.393 . S
C1676 H1665 0.950 . S
C1676 C1674 1.391 . S
C1676 C1677 1.400 . S
C1677 C1671 1.491 . S
C1677 C1676 1.400 . S
C1677 C1678 1.398 . S
C1678 H1666 0.950 . S
C1678 C1677 1.398 . S
C1678 C1679 1.391 . S
C1679 H1667 0.950 . S
C1679 C1675 1.393 . S
C1679 C1678 1.391 . S
H1680 C1688 0.950 . S
H1681 C1693 0.950 . S
H1682 C1690 0.950 . S
H1683 C1692 0.950 . S
H1684 C1694 0.950 . S
H1685 C1696 0.950 . S
H1686 C1698 0.950 . S
H1687 C1699 0.950 . S
C1688 H1680 0.950 . S
C1688 C1689 1.386 . S
C1688 C1690 1.391 . S
C1689 C1688 1.386 . S
C1689 C1693 1.393 . S
C1690 H1682 0.950 . S
C1690 C1688 1.391 . S
C1690 C1691 1.400 . S
C1691 C1690 1.400 . S
C1691 C1692 1.398 . S
C1691 C1697 1.491 . S
C1692 H1683 0.950 . S
C1692 C1691 1.398 . S
C1692 C1693 1.391 . S
C1693 H1681 0.950 . S
C1693 C1689 1.393 . S
C1693 C1692 1.391 . S
C1694 H1684 0.950 . S
C1694 C1695 1.386 . S
C1694 C1696 1.391 . S
C1695 C1694 1.386 . S
C1695 C1699 1.393 . S
C1696 H1685 0.950 . S
C1696 C1694 1.391 . S
C1696 C1697 1.400 . S
C1697 C1691 1.491 . S
C1697 C1696 1.400 . S
C1697 C1698 1.398 . S
C1698 H1686 0.950 . S
C1698 C1697 1.398 . S
C1698 C1699 1.391 . S
C1699 H1687 0.950 . S
C1699 C1695 1.393 . S
C1699 C1698 1.391 . S
H1700 C1708 0.950 . S
H1701 C1713 0.950 . S
H1702 C1710 0.950 . S
H1703 C1712 0.950 . S
H1704 C1714 0.950 . S
H1705 C1716 0.950 . S
H1706 C1718 0.950 . S
H1707 C1719 0.950 . S
C1708 H1700 0.950 . S
C1708 C1709 1.386 . S
C1708 C1710 1.391 . S
C1709 C1708 1.386 . S
C1709 C1713 1.393 . S
C1710 H1702 0.950 . S
C1710 C1708 1.391 . S
C1710 C1711 1.400 . S
C1711 C1710 1.400 . S
C1711 C1712 1.398 . S
C1711 C1717 1.491 . S
C1712 H1703 0.950 . S
C1712 C1711 1.398 . S
C1712 C1713 1.391 . S
C1713 H1701 0.950 . S
C1713 C1709 1.393 . S
C1713 C1712 1.391 . S
C1714 H1704 0.950 . S
C1714 C1715 1.386 . S
C1714 C1716 1.391 . S
C1715 C1714 1.386 . S
C1715 C1719 1.393 . S
C1716 H1705 0.950 . S
C1716 C1714 1.391 . S
C1716 C1717 1.400 . S
C1717 C1711 1.491 . S
C1717 C1716 1.400 . S
C1717 C1718 1.398 . S
C1718 H1706 0.950 . S
C1718 C1717 1.398 . S
C1718 C1719 1.391 . S
C1719 H1707 0.950 . S
C1719 C1715 1.393 . S
C1719 C1718 1.391 . S
H1720 C1728 0.950 . S
H1721 C1733 0.950 . S
H1722 C1730 0.950 . S
H1723 C1732 0.950 . S
H1724 C1734 0.950 . S
H1725 C1736 0.950 . S
H1726 C1738 0.950 . S
H1727 C1739 0.950 . S
C1728 H1720 0.950 . S
C1728 C1729 1.386 . S
C1728 C1730 1.391 . S
C1729 C1728 1.386 . S
C1729 C1733 1.393 . S
C1730 H1722 0.950 . S
C1730 C1728 1.391 . S
C1730 C1731 1.400 . S
C1731 C1730 1.400 . S
C1731 C1732 1.398 . S
C1731 C1737 1.491 . S
C1732 H1723 0.950 . S
C1732 C1731 1.398 . S
C1732 C1733 1.391 . S
C1733 H1721 0.950 . S
C1733 C1729 1.393 . S
C1733 C1732 1.391 . S
C1734 H1724 0.950 . S
C1734 C1735 1.386 . S
C1734 C1736 1.391 . S
C1735 C1734 1.386 . S
C1735 C1739 1.393 . S
C1736 H1725 0.950 . S
C1736 C1734 1.391 . S
C1736 C1737 1.400 . S
C1737 C1731 1.491 . S
C1737 C1736 1.400 . S
C1737 C1738 1.398 . S
C1738 H1726 0.950 . S
C1738 C1737 1.398 . S
C1738 C1739 1.391 . S
C1739 H1727 0.950 . S
C1739 C1735 1.393 . S
C1739 C1738 1.391 . S
H1740 C1748 0.950 . S
H1741 C1753 0.950 . S
H1742 C1750 0.950 . S
H1743 C1752 0.950 . S
H1744 C1754 0.950 . S
H1745 C1756 0.950 . S
H1746 C1758 0.950 . S
H1747 C1759 0.950 . S
C1748 H1740 0.950 . S
C1748 C1749 1.386 . S
C1748 C1750 1.391 . S
C1749 C1748 1.386 . S
C1749 C1753 1.393 . S
C1750 H1742 0.950 . S
C1750 C1748 1.391 . S
C1750 C1751 1.400 . S
C1751 C1750 1.400 . S
C1751 C1752 1.398 . S
C1751 C1757 1.491 . S
C1752 H1743 0.950 . S
C1752 C1751 1.398 . S
C1752 C1753 1.391 . S
C1753 H1741 0.950 . S
C1753 C1749 1.393 . S
C1753 C1752 1.391 . S
C1754 H1744 0.950 . S
C1754 C1755 1.386 . S
C1754 C1756 1.391 . S
C1755 C1754 1.386 . S
C1755 C1759 1.393 . S
C1756 H1745 0.950 . S
C1756 C1754 1.391 . S
C1756 C1757 1.400 . S
C1757 C1751 1.491 . S
C1757 C1756 1.400 . S
C1757 C1758 1.398 . S
C1758 H1746 0.950 . S
C1758 C1757 1.398 . S
C1758 C1759 1.391 . S
C1759 H1747 0.950 . S
C1759 C1755 1.393 . S
C1759 C1758 1.391 . S
H1760 C1768 0.950 . S
H1761 C1773 0.950 . S
H1762 C1770 0.950 . S
H1763 C1772 0.950 . S
H1764 C1774 0.950 . S
H1765 C1776 0.950 . S
H1766 C1778 0.950 . S
H1767 C1779 0.950 . S
C1768 H1760 0.950 . S
C1768 C1769 1.386 . S
C1768 C1770 1.391 . S
C1769 C1768 1.386 . S
C1769 C1773 1.393 . S
C1770 H1762 0.950 . S
C1770 C1768 1.391 . S
C1770 C1771 1.400 . S
C1771 C1770 1.400 . S
C1771 C1772 1.398 . S
C1771 C1777 1.491 . S
C1772 H1763 0.950 . S
C1772 C1771 1.398 . S
C1772 C1773 1.391 . S
C1773 H1761 0.950 . S
C1773 C1769 1.393 . S
C1773 C1772 1.391 . S
C1774 H1764 0.950 . S
C1774 C1775 1.386 . S
C1774 C1776 1.391 . S
C1775 C1774 1.386 . S
C1775 C1779 1.393 . S
C1776 H1765 0.950 . S
C1776 C1774 1.391 . S
C1776 C1777 1.400 . S
C1777 C1771 1.491 . S
C1777 C1776 1.400 . S
C1777 C1778 1.398 . S
C1778 H1766 0.950 . S
C1778 C1777 1.398 . S
C1778 C1779 1.391 . S
C1779 H1767 0.950 . S
C1779 C1775 1.393 . S
C1779 C1778 1.391 . S
H1780 C1788 0.950 . S
H1781 C1793 0.950 . S
H1782 C1790 0.950 . S
H1783 C1792 0.950 . S
H1784 C1794 0.950 . S
H1785 C1796 0.950 . S
H1786 C1798 0.950 . S
H1787 C1799 0.950 . S
C1788 H1780 0.950 . S
C1788 C1789 1.386 . S
C1788 C1790 1.391 . S
C1789 C1788 1.386 . S
C1789 C1793 1.393 . S
C1790 H1782 0.950 . S
C1790 C1788 1.391 . S
C1790 C1791 1.400 . S
C1791 C1790 1.400 . S
C1791 C1792 1.398 . S
C1791 C1797 1.491 . S
C1792 H1783 0.950 . S
C1792 C1791 1.398 . S
C1792 C1793 1.391 . S
C1793 H1781 0.950 . S
C1793 C1789 1.393 . S
C1793 C1792 1.391 . S
C1794 H1784 0.950 . S
C1794 C1795 1.386 . S
C1794 C1796 1.391 . S
C1795 C1794 1.386 . S
C1795 C1799 1.393 . S
C1796 H1785 0.950 . S
C1796 C1794 1.391 . S
C1796 C1797 1.400 . S
C1797 C1791 1.491 . S
C1797 C1796 1.400 . S
C1797 C1798 1.398 . S
C1798 H1786 0.950 . S
C1798 C1797 1.398 . S
C1798 C1799 1.391 . S
C1799 H1787 0.950 . S
C1799 C1795 1.393 . S
C1799 C1798 1.391 . S
H1800 C1808 0.950 . S
H1801 C1813 0.950 . S
H1802 C1810 0.950 . S
H1803 C1812 0.950 . S
H1804 C1814 0.950 . S
H1805 C1816 0.950 . S
H1806 C1818 0.950 . S
H1807 C1819 0.950 . S
C1808 H1800 0.950 . S
C1808 C1809 1.386 . S
C1808 C1810 1.391 . S
C1809 C1808 1.386 . S
C1809 C1813 1.393 . S
C1810 H1802 0.950 . S
C1810 C1808 1.391 . S
C1810 C1811 1.400 . S
C1811 C1810 1.400 . S
C1811 C1812 1.398 . S
C1811 C1817 1.491 . S
C1812 H1803 0.950 . S
C1812 C1811 1.398 . S
C1812 C1813 1.391 . S
C1813 H1801 0.950 . S
C1813 C1809 1.393 . S
C1813 C1812 1.391 . S
C1814 H1804 0.950 . S
C1814 C1815 1.386 . S
C1814 C1816 1.391 . S
C1815 C1814 1.386 . S
C1815 C1819 1.393 . S
C1816 H1805 0.950 . S
C1816 C1814 1.391 . S
C1816 C1817 1.400 . S
C1817 C1811 1.491 . S
C1817 C1816 1.400 . S
C1817 C1818 1.398 . S
C1818 H1806 0.950 . S
C1818 C1817 1.398 . S
C1818 C1819 1.391 . S
C1819 H1807 0.950 . S
C1819 C1815 1.393 . S
C1819 C1818 1.391 . S
H1820 C1828 0.950 . S
H1821 C1833 0.950 . S
H1822 C1830 0.950 . S
H1823 C1832 0.950 . S
H1824 C1834 0.950 . S
H1825 C1836 0.950 . S
H1826 C1838 0.950 . S
H1827 C1839 0.950 . S
C1828 H1820 0.950 . S
C1828 C1829 1.386 . S
C1828 C1830 1.391 . S
C1829 C1828 1.386 . S
C1829 C1833 1.393 . S
C1830 H1822 0.950 . S
C1830 C1828 1.391 . S
C1830 C1831 1.400 . S
C1831 C1830 1.400 . S
C1831 C1832 1.398 . S
C1831 C1837 1.491 . S
C1832 H1823 0.950 . S
C1832 C1831 1.398 . S
C1832 C1833 1.391 . S
C1833 H1821 0.950 . S
C1833 C1829 1.393 . S
C1833 C1832 1.391 . S
C1834 H1824 0.950 . S
C1834 C1835 1.386 . S
C1834 C1836 1.391 . S
C1835 C1834 1.386 . S
C1835 C1839 1.393 . S
C1836 H1825 0.950 . S
C1836 C1834 1.391 . S
C1836 C1837 1.400 . S
C1837 C1831 1.491 . S
C1837 C1836 1.400 . S
C1837 C1838 1.398 . S
C1838 H1826 0.950 . S
C1838 C1837 1.398 . S
C1838 C1839 1.391 . S
C1839 H1827 0.950 . S
C1839 C1835 1.393 . S
C1839 C1838 1.391 . S
H1840 C1848 0.950 . S
H1841 C1853 0.950 . S
H1842 C1850 0.950 . S
H1843 C1852 0.950 . S
H1844 C1854 0.950 . S
H1845 C1856 0.950 . S
H1846 C1858 0.950 . S
H1847 C1859 0.950 . S
C1848 H1840 0.950 . S
C1848 C1849 1.386 . S
C1848 C1850 1.391 . S
C1849 C1848 1.386 . S
C1849 C1853 1.393 . S
C1850 H1842 0.950 . S
C1850 C1848 1.391 . S
C1850 C1851 1.400 . S
C1851 C1850 1.400 . S
C1851 C1852 1.398 . S
C1851 C1857 1.491 . S
C1852 H1843 0.950 . S
C1852 C1851 1.398 . S
C1852 C1853 1.391 . S
C1853 H1841 0.950 . S
C1853 C1849 1.393 . S
C1853 C1852 1.391 . S
C1854 H1844 0.950 . S
C1854 C1855 1.386 . S
C1854 C1856 1.391 . S
C1855 C1854 1.386 . S
C1855 C1859 1.393 . S
C1856 H1845 0.950 . S
C1856 C1854 1.391 . S
C1856 C1857 1.400 . S
C1857 C1851 1.491 . S
C1857 C1856 1.400 . S
C1857 C1858 1.398 . S
C1858 H1846 0.950 . S
C1858 C1857 1.398 . S
C1858 C1859 1.391 . S
C1859 H1847 0.950 . S
C1859 C1855 1.393 . S
C1859 C1858 1.391 . S
H1860 C1868 0.950 . S
H1861 C1873 0.950 . S
H1862 C1870 0.950 . S
H1863 C1872 0.950 . S
H1864 C1874 0.950 . S
H1865 C1876 0.950 . S
H1866 C1878 0.950 . S
H1867 C1879 0.950 . S
C1868 H1860 0.950 . S
C1868 C1869 1.386 . S
C1868 C1870 1.391 . S
C1869 C1868 1.386 . S
C1869 C1873 1.393 . S
C1870 H1862 0.950 . S
C1870 C1868 1.391 . S
C1870 C1871 1.400 . S
C1871 C1870 1.400 . S
C1871 C1872 1.398 . S
C1871 C1877 1.491 . S
C1872 H1863 0.950 . S
C1872 C1871 1.398 . S
C1872 C1873 1.391 . S
C1873 H1861 0.950 . S
C1873 C1869 1.393 . S
C1873 C1872 1.391 . S
C1874 H1864 0.950 . S
C1874 C1875 1.386 . S
C1874 C1876 1.391 . S
C1875 C1874 1.386 . S
C1875 C1879 1.393 . S
C1876 H1865 0.950 . S
C1876 C1874 1.391 . S
C1876 C1877 1.400 . S
C1877 C1871 1.491 . S
C1877 C1876 1.400 . S
C1877 C1878 1.398 . S
C1878 H1866 0.950 . S
C1878 C1877 1.398 . S
C1878 C1879 1.391 . S
C1879 H1867 0.950 . S
C1879 C1875 1.393 . S
C1879 C1878 1.391 . S
H1880 C1888 0.950 . S
H1881 C1893 0.950 . S
H1882 C1890 0.950 . S
H1883 C1892 0.950 . S
H1884 C1894 0.950 . S
H1885 C1896 0.950 . S
H1886 C1898 0.950 . S
H1887 C1899 0.950 . S
C1888 H1880 0.950 . S
C1888 C1889 1.386 . S
C1888 C1890 1.391 . S
C1889 C1888 1.386 . S
C1889 C1893 1.393 . S
C1890 H1882 0.950 . S
C1890 C1888 1.391 . S
C1890 C1891 1.400 . S
C1891 C1890 1.400 . S
C1891 C1892 1.398 . S
C1891 C1897 1.491 . S
C1892 H1883 0.950 . S
C1892 C1891 1.398 . S
C1892 C1893 1.391 . S
C1893 H1881 0.950 . S
C1893 C1889 1.393 . S
C1893 C1892 1.391 . S
C1894 H1884 0.950 . S
C1894 C1895 1.386 . S
C1894 C1896 1.391 . S
C1895 C1894 1.386 . S
C1895 C1899 1.393 . S
C1896 H1885 0.950 . S
C1896 C1894 1.391 . S
C1896 C1897 1.400 . S
C1897 C1891 1.491 . S
C1897 C1896 1.400 . S
C1897 C1898 1.398 . S
C1898 H1886 0.950 . S
C1898 C1897 1.398 . S
C1898 C1899 1.391 . S
C1899 H1887 0.950 . S
C1899 C1895 1.393 . S
C1899 C1898 1.391 . S
H1900 C1908 0.950 . S
H1901 C1913 0.950 . S
H1902 C1910 0.950 . S
H1903 C1912 0.950 . S
H1904 C1914 0.950 . S
H1905 C1916 0.950 . S
H1906 C1918 0.950 . S
H1907 C1919 0.950 . S
C1908 H1900 0.950 . S
C1908 C1909 1.386 . S
C1908 C1910 1.391 . S
C1909 C1908 1.386 . S
C1909 C1913 1.393 . S
C1910 H1902 0.950 . S
C1910 C1908 1.391 . S
C1910 C1911 1.400 . S
C1911 C1910 1.400 . S
C1911 C1912 1.398 . S
C1911 C1917 1.491 . S
C1912 H1903 0.950 . S
C1912 C1911 1.398 . S
C1912 C1913 1.391 . S
C1913 H1901 0.950 . S
C1913 C1909 1.393 . S
C1913 C1912 1.391 . S
C1914 H1904 0.950 . S
C1914 C1915 1.386 . S
C1914 C1916 1.391 . S
C1915 C1914 1.386 . S
C1915 C1919 1.393 . S
C1916 H1905 0.950 . S
C1916 C1914 1.391 . S
C1916 C1917 1.400 . S
C1917 C1911 1.491 . S
C1917 C1916 1.400 . S
C1917 C1918 1.398 . S
C1918 H1906 0.950 . S
C1918 C1917 1.398 . S
C1918 C1919 1.391 . S
C1919 H1907 0.950 . S
C1919 C1915 1.393 . S
C1919 C1918 1.391 . S
H1920 C1928 0.950 . S
H1921 C1933 0.950 . S
H1922 C1930 0.950 . S
H1923 C1932 0.950 . S
H1924 C1934 0.950 . S
H1925 C1936 0.950 . S
H1926 C1938 0.950 . S
H1927 C1939 0.950 . S
C1928 H1920 0.950 . S
C1928 C1929 1.386 . S
C1928 C1930 1.391 . S
C1929 C1928 1.386 . S
C1929 C1933 1.393 . S
C1930 H1922 0.950 . S
C1930 C1928 1.391 . S
C1930 C1931 1.400 . S
C1931 C1930 1.400 . S
C1931 C1932 1.398 . S
C1931 C1937 1.491 . S
C1932 H1923 0.950 . S
C1932 C1931 1.398 . S
C1932 C1933 1.391 . S
C1933 H1921 0.950 . S
C1933 C1929 1.393 . S
C1933 C1932 1.391 . S
C1934 H1924 0.950 . S
C1934 C1935 1.386 . S
C1934 C1936 1.391 . S
C1935 C1934 1.386 . S
C1935 C1939 1.393 . S
C1936 H1925 0.950 . S
C1936 C1934 1.391 . S
C1936 C1937 1.400 . S
C1937 C1931 1.491 . S
C1937 C1936 1.400 . S
C1937 C1938 1.398 . S
C1938 H1926 0.950 . S
C1938 C1937 1.398 . S
C1938 C1939 1.391 . S
C1939 H1927 0.950 . S
C1939 C1935 1.393 . S
C1939 C1938 1.391 . S
H1940 C1948 0.950 . S
H1941 C1953 0.950 . S
H1942 C1950 0.950 . S
H1943 C1952 0.950 . S
H1944 C1954 0.980 . S
H1945 C1956 0.950 . S
H1946 C1958 0.950 . S
H1947 C1959 0.950 . S
C1948 H1940 0.950 . S
C1948 C1949 1.386 . S
C1948 C1950 1.391 . S
C1949 C1948 1.386 . S
C1949 C1953 1.393 . S
C1950 H1942 0.950 . S
C1950 C1948 1.391 . S
C1950 C1951 1.400 . S
C1951 C1950 1.400 . S
C1951 C1952 1.398 . S
C1951 C1957 1.491 . S
C1952 H1943 0.950 . S
C1952 C1951 1.398 . S
C1952 C1953 1.391 . S
C1953 H1941 0.950 . S
C1953 C1949 1.393 . S
C1953 C1952 1.391 . S
C1954 H1944 0.980 . S
C1954 C1955 1.389 . S
C1954 C1956 1.359 1_655 S
C1955 C1954 1.389 . S
C1955 C1959 1.393 1_655 S
C1956 H1945 0.950 . S
C1956 C1954 1.359 1_455 S
C1956 C1957 1.400 . S
C1957 C1951 1.491 . S
C1957 C1956 1.400 . S
C1957 C1958 1.398 . S
C1958 H1946 0.950 . S
C1958 C1957 1.398 . S
C1958 C1959 1.391 . S
C1959 H1947 0.950 . S
C1959 C1955 1.393 1_455 S
C1959 C1958 1.391 . S
H1960 C1968 0.950 . S
H1961 C1973 0.950 . S
H1962 C1970 0.950 . S
H1963 C1972 0.950 . S
H1964 C1974 0.950 . S
H1965 C1976 0.950 . S
H1966 C1978 0.950 . S
H1967 C1979 0.950 . S
C1968 H1960 0.950 . S
C1968 C1969 1.386 . S
C1968 C1970 1.391 . S
C1969 C1968 1.386 . S
C1969 C1973 1.393 . S
C1970 H1962 0.950 . S
C1970 C1968 1.391 . S
C1970 C1971 1.400 . S
C1971 C1970 1.400 . S
C1971 C1972 1.398 . S
C1971 C1977 1.491 . S
C1972 H1963 0.950 . S
C1972 C1971 1.398 . S
C1972 C1973 1.391 . S
C1973 H1961 0.950 . S
C1973 C1969 1.393 . S
C1973 C1972 1.391 . S
C1974 H1964 0.950 . S
C1974 C1975 1.386 . S
C1974 C1976 1.391 . S
C1975 C1974 1.386 . S
C1975 C1979 1.393 . S
C1976 H1965 0.950 . S
C1976 C1974 1.391 . S
C1976 C1977 1.400 . S
C1977 C1971 1.491 . S
C1977 C1976 1.400 . S
C1977 C1978 1.398 . S
C1978 H1966 0.950 . S
C1978 C1977 1.398 . S
C1978 C1979 1.391 . S
C1979 H1967 0.950 . S
C1979 C1975 1.393 . S
C1979 C1978 1.391 . S
H1980 C1988 0.950 . S
H1981 C1993 0.950 . S
H1982 C1990 0.950 . S
H1983 C1992 0.950 . S
H1984 C1994 0.950 . S
H1985 C1996 0.950 . S
H1986 C1998 0.950 . S
H1987 C1999 0.950 . S
C1988 H1980 0.950 . S
C1988 C1989 1.386 . S
C1988 C1990 1.391 . S
C1989 C1988 1.386 . S
C1989 C1993 1.393 . S
C1990 H1982 0.950 . S
C1990 C1988 1.391 . S
C1990 C1991 1.400 . S
C1991 C1990 1.400 . S
C1991 C1992 1.398 . S
C1991 C1997 1.491 . S
C1992 H1983 0.950 . S
C1992 C1991 1.398 . S
C1992 C1993 1.391 . S
C1993 H1981 0.950 . S
C1993 C1989 1.393 . S
C1993 C1992 1.391 . S
C1994 H1984 0.950 . S
C1994 C1995 1.386 . S
C1994 C1996 1.391 . S
C1995 C1994 1.386 . S
C1995 C1999 1.393 . S
C1996 H1985 0.950 . S
C1996 C1994 1.391 . S
C1996 C1997 1.400 . S
C1997 C1991 1.491 . S
C1997 C1996 1.400 . S
C1997 C1998 1.398 . S
C1998 H1986 0.950 . S
C1998 C1997 1.398 . S
C1998 C1999 1.391 . S
C1999 H1987 0.950 . S
C1999 C1995 1.393 . S
C1999 C1998 1.391 . S
H2000 C2008 0.950 . S
H2001 C2013 0.950 . S
H2002 C2010 0.950 . S
H2003 C2012 0.950 . S
H2004 C2014 0.950 . S
H2005 C2016 0.950 . S
H2006 C2018 0.950 . S
H2007 C2019 0.950 . S
C2008 H2000 0.950 . S
C2008 C2009 1.386 . S
C2008 C2010 1.391 . S
C2009 C2008 1.386 . S
C2009 C2013 1.393 . S
C2010 H2002 0.950 . S
C2010 C2008 1.391 . S
C2010 C2011 1.400 . S
C2011 C2010 1.400 . S
C2011 C2012 1.398 . S
C2011 C2017 1.491 . S
C2012 H2003 0.950 . S
C2012 C2011 1.398 . S
C2012 C2013 1.391 . S
C2013 H2001 0.950 . S
C2013 C2009 1.393 . S
C2013 C2012 1.391 . S
C2014 H2004 0.950 . S
C2014 C2015 1.386 . S
C2014 C2016 1.391 . S
C2015 C2014 1.386 . S
C2015 C2019 1.393 . S
C2016 H2005 0.950 . S
C2016 C2014 1.391 . S
C2016 C2017 1.400 . S
C2017 C2011 1.491 . S
C2017 C2016 1.400 . S
C2017 C2018 1.398 . S
C2018 H2006 0.950 . S
C2018 C2017 1.398 . S
C2018 C2019 1.391 . S
C2019 H2007 0.950 . S
C2019 C2015 1.393 . S
C2019 C2018 1.391 . S
H2020 C2028 0.950 . S
H2021 C2033 0.950 . S
H2022 C2030 0.950 . S
H2023 C2032 0.950 . S
H2024 C2034 0.950 . S
H2025 C2036 0.950 . S
H2026 C2038 0.950 . S
H2027 C2039 0.950 . S
C2028 H2020 0.950 . S
C2028 C2029 1.386 . S
C2028 C2030 1.391 . S
C2029 C2028 1.386 . S
C2029 C2033 1.393 . S
C2030 H2022 0.950 . S
C2030 C2028 1.391 . S
C2030 C2031 1.400 . S
C2031 C2030 1.400 . S
C2031 C2032 1.398 . S
C2031 C2037 1.491 . S
C2032 H2023 0.950 . S
C2032 C2031 1.398 . S
C2032 C2033 1.391 . S
C2033 H2021 0.950 . S
C2033 C2029 1.393 . S
C2033 C2032 1.391 . S
C2034 H2024 0.950 . S
C2034 C2035 1.386 . S
C2034 C2036 1.391 . S
C2035 C2034 1.386 . S
C2035 C2039 1.393 . S
C2036 H2025 0.950 . S
C2036 C2034 1.391 . S
C2036 C2037 1.400 . S
C2037 C2031 1.491 . S
C2037 C2036 1.400 . S
C2037 C2038 1.398 . S
C2038 H2026 0.950 . S
C2038 C2037 1.398 . S
C2038 C2039 1.391 . S
C2039 H2027 0.950 . S
C2039 C2035 1.393 . S
C2039 C2038 1.391 . S
H2040 C2048 0.950 . S
H2041 C2053 0.950 . S
H2042 C2050 0.950 . S
H2043 C2052 0.950 . S
H2044 C2054 0.950 . S
H2045 C2056 0.950 . S
H2046 C2058 0.950 . S
H2047 C2059 0.950 . S
C2048 H2040 0.950 . S
C2048 C2049 1.386 . S
C2048 C2050 1.391 . S
C2049 C2048 1.386 . S
C2049 C2053 1.393 . S
C2050 H2042 0.950 . S
C2050 C2048 1.391 . S
C2050 C2051 1.400 . S
C2051 C2050 1.400 . S
C2051 C2052 1.398 . S
C2051 C2057 1.491 . S
C2052 H2043 0.950 . S
C2052 C2051 1.398 . S
C2052 C2053 1.391 . S
C2053 H2041 0.950 . S
C2053 C2049 1.393 . S
C2053 C2052 1.391 . S
C2054 H2044 0.950 . S
C2054 C2055 1.386 . S
C2054 C2056 1.391 . S
C2055 C2054 1.386 . S
C2055 C2059 1.393 . S
C2056 H2045 0.950 . S
C2056 C2054 1.391 . S
C2056 C2057 1.400 . S
C2057 C2051 1.491 . S
C2057 C2056 1.400 . S
C2057 C2058 1.398 . S
C2058 H2046 0.950 . S
C2058 C2057 1.398 . S
C2058 C2059 1.391 . S
C2059 H2047 0.950 . S
C2059 C2055 1.393 . S
C2059 C2058 1.391 . S
H2060 C2068 0.950 . S
H2061 C2073 0.950 . S
H2062 C2070 0.950 . S
H2063 C2072 0.950 . S
H2064 C2074 0.950 . S
H2065 C2076 0.950 . S
H2066 C2078 0.950 . S
H2067 C2079 0.950 . S
C2068 H2060 0.950 . S
C2068 C2069 1.386 . S
C2068 C2070 1.391 . S
C2069 C2068 1.386 . S
C2069 C2073 1.393 . S
C2070 H2062 0.950 . S
C2070 C2068 1.391 . S
C2070 C2071 1.400 . S
C2071 C2070 1.400 . S
C2071 C2072 1.398 . S
C2071 C2077 1.491 . S
C2072 H2063 0.950 . S
C2072 C2071 1.398 . S
C2072 C2073 1.391 . S
C2073 H2061 0.950 . S
C2073 C2069 1.393 . S
C2073 C2072 1.391 . S
C2074 H2064 0.950 . S
C2074 C2075 1.386 1_455 S
C2074 C2076 1.391 . S
C2075 C2074 1.386 1_655 S
C2075 C2079 1.393 . S
C2076 H2065 0.950 . S
C2076 C2074 1.391 . S
C2076 C2077 1.400 . S
C2077 C2071 1.491 . S
C2077 C2076 1.400 . S
C2077 C2078 1.398 . S
C2078 H2066 0.950 . S
C2078 C2077 1.398 . S
C2078 C2079 1.391 1_455 S
C2079 H2067 0.950 . S
C2079 C2075 1.393 . S
C2079 C2078 1.391 1_655 S
H2080 C2088 0.950 . S
H2081 C2093 0.950 . S
H2082 C2090 0.950 . S
H2083 C2092 0.950 . S
H2084 C2094 0.950 . S
H2085 C2096 0.950 . S
H2086 C2098 0.950 . S
H2087 C2099 0.950 . S
C2088 H2080 0.950 . S
C2088 C2089 1.386 . S
C2088 C2090 1.391 . S
C2089 C2088 1.386 . S
C2089 C2093 1.393 . S
C2090 H2082 0.950 . S
C2090 C2088 1.391 . S
C2090 C2091 1.400 . S
C2091 C2090 1.400 . S
C2091 C2092 1.398 . S
C2091 C2097 1.491 . S
C2092 H2083 0.950 . S
C2092 C2091 1.398 . S
C2092 C2093 1.391 . S
C2093 H2081 0.950 . S
C2093 C2089 1.393 . S
C2093 C2092 1.391 . S
C2094 H2084 0.950 . S
C2094 C2095 1.386 . S
C2094 C2096 1.391 . S
C2095 C2094 1.386 . S
C2095 C2099 1.393 . S
C2096 H2085 0.950 . S
C2096 C2094 1.391 . S
C2096 C2097 1.400 . S
C2097 C2091 1.491 . S
C2097 C2096 1.400 . S
C2097 C2098 1.398 . S
C2098 H2086 0.950 . S
C2098 C2097 1.398 . S
C2098 C2099 1.391 . S
C2099 H2087 0.950 . S
C2099 C2095 1.393 . S
C2099 C2098 1.391 . S
H2100 C2108 0.951 . S
H2101 C2113 0.950 . S
H2102 C2110 0.950 . S
H2103 C2112 0.950 . S
H2104 C2114 0.950 . S
H2105 C2116 0.950 . S
H2106 C2118 0.950 . S
H2107 C2119 0.950 . S
C2108 H2100 0.951 . S
C2108 C2109 1.386 1_655 S
C2108 C2110 1.391 . S
C2109 C2108 1.386 1_455 S
C2109 C2113 1.393 1_455 S
C2110 H2102 0.950 . S
C2110 C2108 1.391 . S
C2110 C2111 1.400 . S
C2111 C2110 1.400 . S
C2111 C2112 1.398 . S
C2111 C2117 1.491 . S
C2112 H2103 0.950 . S
C2112 C2111 1.398 . S
C2112 C2113 1.391 . S
C2113 H2101 0.950 . S
C2113 C2109 1.393 1_655 S
C2113 C2112 1.391 . S
C2114 H2104 0.950 . S
C2114 C2115 1.386 . S
C2114 C2116 1.391 . S
C2115 C2114 1.386 . S
C2115 C2119 1.393 . S
C2116 H2105 0.950 . S
C2116 C2114 1.391 . S
C2116 C2117 1.400 . S
C2117 C2111 1.491 . S
C2117 C2116 1.400 . S
C2117 C2118 1.398 . S
C2118 H2106 0.950 . S
C2118 C2117 1.398 . S
C2118 C2119 1.391 . S
C2119 H2107 0.950 . S
C2119 C2115 1.393 . S
C2119 C2118 1.391 . S
H2120 C2128 0.950 . S
H2121 C2133 0.950 . S
H2122 C2130 0.950 . S
H2123 C2132 0.950 . S
H2124 C2134 0.950 . S
H2125 C2136 0.950 . S
H2126 C2138 0.950 . S
H2127 C2139 0.950 . S
C2128 H2120 0.950 . S
C2128 C2129 1.386 . S
C2128 C2130 1.391 . S
C2129 C2128 1.386 . S
C2129 C2133 1.393 . S
C2130 H2122 0.950 . S
C2130 C2128 1.391 . S
C2130 C2131 1.400 . S
C2131 C2130 1.400 . S
C2131 C2132 1.398 . S
C2131 C2137 1.491 . S
C2132 H2123 0.950 . S
C2132 C2131 1.398 . S
C2132 C2133 1.391 . S
C2133 H2121 0.950 . S
C2133 C2129 1.393 . S
C2133 C2132 1.391 . S
C2134 H2124 0.950 . S
C2134 C2135 1.386 . S
C2134 C2136 1.391 . S
C2135 C2134 1.386 . S
C2135 C2139 1.393 . S
C2136 H2125 0.950 . S
C2136 C2134 1.391 . S
C2136 C2137 1.400 . S
C2137 C2131 1.491 . S
C2137 C2136 1.400 . S
C2137 C2138 1.398 . S
C2138 H2126 0.950 . S
C2138 C2137 1.398 . S
C2138 C2139 1.391 . S
C2139 H2127 0.950 . S
C2139 C2135 1.393 . S
C2139 C2138 1.391 . S
H2140 C2148 0.950 . S
H2141 C2153 0.950 . S
H2142 C2150 0.950 . S
H2143 C2152 0.950 . S
H2144 C2154 0.950 . S
H2145 C2156 0.950 . S
H2146 C2158 0.950 . S
H2147 C2159 0.950 . S
C2148 H2140 0.950 . S
C2148 C2149 1.386 . S
C2148 C2150 1.391 . S
C2149 C2148 1.386 . S
C2149 C2153 1.393 . S
C2150 H2142 0.950 . S
C2150 C2148 1.391 . S
C2150 C2151 1.400 . S
C2151 C2150 1.400 . S
C2151 C2152 1.398 . S
C2151 C2157 1.491 . S
C2152 H2143 0.950 . S
C2152 C2151 1.398 . S
C2152 C2153 1.391 . S
C2153 H2141 0.950 . S
C2153 C2149 1.393 . S
C2153 C2152 1.391 . S
C2154 H2144 0.950 . S
C2154 C2155 1.386 . S
C2154 C2156 1.391 . S
C2155 C2154 1.386 . S
C2155 C2159 1.393 . S
C2156 H2145 0.950 . S
C2156 C2154 1.391 . S
C2156 C2157 1.400 . S
C2157 C2151 1.491 . S
C2157 C2156 1.400 . S
C2157 C2158 1.398 . S
C2158 H2146 0.950 . S
C2158 C2157 1.398 . S
C2158 C2159 1.391 . S
C2159 H2147 0.950 . S
C2159 C2155 1.393 . S
C2159 C2158 1.391 . S
H2160 C2168 0.950 . S
H2161 C2173 0.950 . S
H2162 C2170 0.950 . S
H2163 C2172 0.950 . S
H2164 C2174 0.950 . S
H2165 C2176 0.950 . S
H2166 C2178 0.950 . S
H2167 C2179 0.950 . S
C2168 H2160 0.950 . S
C2168 C2169 1.386 . S
C2168 C2170 1.391 . S
C2169 C2168 1.386 . S
C2169 C2173 1.393 . S
C2170 H2162 0.950 . S
C2170 C2168 1.391 . S
C2170 C2171 1.400 . S
C2171 C2170 1.400 . S
C2171 C2172 1.398 . S
C2171 C2177 1.491 . S
C2172 H2163 0.950 . S
C2172 C2171 1.398 . S
C2172 C2173 1.391 . S
C2173 H2161 0.950 . S
C2173 C2169 1.393 . S
C2173 C2172 1.391 . S
C2174 H2164 0.950 . S
C2174 C2175 1.386 . S
C2174 C2176 1.391 . S
C2175 C2174 1.386 . S
C2175 C2179 1.393 . S
C2176 H2165 0.950 . S
C2176 C2174 1.391 . S
C2176 C2177 1.400 . S
C2177 C2171 1.491 . S
C2177 C2176 1.400 . S
C2177 C2178 1.398 . S
C2178 H2166 0.950 . S
C2178 C2177 1.398 . S
C2178 C2179 1.391 . S
C2179 H2167 0.950 . S
C2179 C2175 1.393 . S
C2179 C2178 1.391 . S
H2180 C2188 0.950 . S
H2181 C2193 0.950 . S
H2182 C2190 0.950 . S
H2183 C2192 0.950 . S
H2184 C2194 0.950 . S
H2185 C2196 0.950 . S
H2186 C2198 0.950 . S
H2187 C2199 0.950 . S
C2188 H2180 0.950 . S
C2188 C2189 1.386 . S
C2188 C2190 1.391 . S
C2189 C2188 1.386 . S
C2189 C2193 1.393 . S
C2190 H2182 0.950 . S
C2190 C2188 1.391 . S
C2190 C2191 1.400 . S
C2191 C2190 1.400 . S
C2191 C2192 1.398 . S
C2191 C2197 1.491 . S
C2192 H2183 0.950 . S
C2192 C2191 1.398 . S
C2192 C2193 1.391 . S
C2193 H2181 0.950 . S
C2193 C2189 1.393 . S
C2193 C2192 1.391 . S
C2194 H2184 0.950 . S
C2194 C2195 1.386 . S
C2194 C2196 1.391 . S
C2195 C2194 1.386 . S
C2195 C2199 1.393 . S
C2196 H2185 0.950 . S
C2196 C2194 1.391 . S
C2196 C2197 1.400 . S
C2197 C2191 1.491 . S
C2197 C2196 1.400 . S
C2197 C2198 1.398 . S
C2198 H2186 0.950 . S
C2198 C2197 1.398 . S
C2198 C2199 1.391 . S
C2199 H2187 0.950 . S
C2199 C2195 1.393 . S
C2199 C2198 1.391 . S
H2200 C2208 0.950 . S
H2201 C2213 0.950 . S
H2202 C2210 0.950 . S
H2203 C2212 0.950 . S
H2204 C2214 0.950 . S
H2205 C2216 0.950 . S
H2206 C2218 0.950 . S
H2207 C2219 0.950 . S
C2208 H2200 0.950 . S
C2208 C2209 1.386 . S
C2208 C2210 1.391 . S
C2209 C2208 1.386 . S
C2209 C2213 1.393 . S
C2210 H2202 0.950 . S
C2210 C2208 1.391 . S
C2210 C2211 1.400 . S
C2211 C2210 1.400 . S
C2211 C2212 1.398 . S
C2211 C2217 1.491 . S
C2212 H2203 0.950 . S
C2212 C2211 1.398 . S
C2212 C2213 1.391 . S
C2213 H2201 0.950 . S
C2213 C2209 1.393 . S
C2213 C2212 1.391 . S
C2214 H2204 0.950 . S
C2214 C2215 1.386 . S
C2214 C2216 1.391 . S
C2215 C2214 1.386 . S
C2215 C2219 1.393 . S
C2216 H2205 0.950 . S
C2216 C2214 1.391 . S
C2216 C2217 1.400 . S
C2217 C2211 1.491 . S
C2217 C2216 1.400 . S
C2217 C2218 1.398 . S
C2218 H2206 0.950 . S
C2218 C2217 1.398 . S
C2218 C2219 1.391 . S
C2219 H2207 0.950 . S
C2219 C2215 1.393 . S
C2219 C2218 1.391 . S
H2220 C2228 0.950 . S
H2221 C2233 0.950 . S
H2222 C2230 0.950 . S
H2223 C2232 0.950 . S
H2224 C2234 0.950 1_455 S
H2225 C2236 0.950 . S
H2226 C2238 0.950 . S
H2227 C2239 0.950 . S
C2228 H2220 0.950 . S
C2228 C2229 1.386 . S
C2228 C2230 1.391 . S
C2229 C2228 1.386 . S
C2229 C2233 1.393 . S
C2230 H2222 0.950 . S
C2230 C2228 1.391 . S
C2230 C2231 1.400 . S
C2231 C2230 1.400 . S
C2231 C2232 1.398 . S
C2231 C2237 1.491 . S
C2232 H2223 0.950 . S
C2232 C2231 1.398 . S
C2232 C2233 1.391 . S
C2233 H2221 0.950 . S
C2233 C2229 1.393 . S
C2233 C2232 1.391 . S
C2234 H2224 0.950 1_655 S
C2234 C2235 1.386 1_655 S
C2234 C2236 1.391 . S
C2235 C2234 1.386 1_455 S
C2235 C2239 1.393 1_455 S
C2236 H2225 0.950 . S
C2236 C2234 1.391 . S
C2236 C2237 1.400 . S
C2237 C2231 1.491 . S
C2237 C2236 1.400 . S
C2237 C2238 1.398 . S
C2238 H2226 0.950 . S
C2238 C2237 1.398 . S
C2238 C2239 1.391 . S
C2239 H2227 0.950 . S
C2239 C2235 1.393 1_655 S
C2239 C2238 1.391 . S
H2240 C2248 0.950 . S
H2241 C2253 0.950 . S
H2242 C2250 0.950 . S
H2243 C2252 0.950 . S
H2244 C2254 0.950 . S
H2245 C2256 0.950 . S
H2246 C2258 0.950 . S
H2247 C2259 0.950 . S
C2248 H2240 0.950 . S
C2248 C2249 1.386 . S
C2248 C2250 1.391 . S
C2249 C2248 1.386 . S
C2249 C2253 1.393 . S
C2250 H2242 0.950 . S
C2250 C2248 1.391 . S
C2250 C2251 1.400 . S
C2251 C2250 1.400 . S
C2251 C2252 1.398 . S
C2251 C2257 1.491 . S
C2252 H2243 0.950 . S
C2252 C2251 1.398 . S
C2252 C2253 1.391 . S
C2253 H2241 0.950 . S
C2253 C2249 1.393 . S
C2253 C2252 1.391 . S
C2254 H2244 0.950 . S
C2254 C2255 1.386 . S
C2254 C2256 1.391 . S
C2255 C2254 1.386 . S
C2255 C2259 1.393 . S
C2256 H2245 0.950 . S
C2256 C2254 1.391 . S
C2256 C2257 1.400 . S
C2257 C2251 1.491 . S
C2257 C2256 1.400 . S
C2257 C2258 1.398 . S
C2258 H2246 0.950 . S
C2258 C2257 1.398 . S
C2258 C2259 1.391 . S
C2259 H2247 0.950 . S
C2259 C2255 1.393 . S
C2259 C2258 1.391 . S
H2260 C2268 0.950 . S
H2261 C2273 0.950 . S
H2262 C2270 0.950 . S
H2263 C2272 0.950 . S
H2264 C2274 0.950 . S
H2265 C2276 0.950 . S
H2266 C2278 0.950 . S
H2267 C2279 0.950 . S
C2268 H2260 0.950 . S
C2268 C2269 1.386 . S
C2268 C2270 1.391 . S
C2269 C2268 1.386 . S
C2269 C2273 1.393 . S
C2270 H2262 0.950 . S
C2270 C2268 1.391 . S
C2270 C2271 1.400 . S
C2271 C2270 1.400 . S
C2271 C2272 1.398 . S
C2271 C2277 1.491 . S
C2272 H2263 0.950 . S
C2272 C2271 1.398 . S
C2272 C2273 1.391 . S
C2273 H2261 0.950 . S
C2273 C2269 1.393 . S
C2273 C2272 1.391 . S
C2274 H2264 0.950 . S
C2274 C2275 1.386 . S
C2274 C2276 1.391 . S
C2275 C2274 1.386 . S
C2275 C2279 1.393 . S
C2276 H2265 0.950 . S
C2276 C2274 1.391 . S
C2276 C2277 1.400 . S
C2277 C2271 1.491 . S
C2277 C2276 1.400 . S
C2277 C2278 1.398 . S
C2278 H2266 0.950 . S
C2278 C2277 1.398 . S
C2278 C2279 1.391 . S
C2279 H2267 0.950 . S
C2279 C2275 1.393 . S
C2279 C2278 1.391 . S
H2280 C2288 0.950 . S
H2281 C2293 0.950 . S
H2282 C2290 0.950 . S
H2283 C2292 0.950 . S
H2284 C2294 0.950 . S
H2285 C2296 0.950 . S
H2286 C2298 0.950 . S
H2287 C2299 0.950 . S
C2288 H2280 0.950 . S
C2288 C2289 1.386 . S
C2288 C2290 1.391 . S
C2289 C2288 1.386 . S
C2289 C2293 1.393 . S
C2290 H2282 0.950 . S
C2290 C2288 1.391 . S
C2290 C2291 1.400 . S
C2291 C2290 1.400 . S
C2291 C2292 1.398 . S
C2291 C2297 1.491 . S
C2292 H2283 0.950 . S
C2292 C2291 1.398 . S
C2292 C2293 1.391 . S
C2293 H2281 0.950 . S
C2293 C2289 1.393 . S
C2293 C2292 1.391 . S
C2294 H2284 0.950 . S
C2294 C2295 1.386 . S
C2294 C2296 1.391 . S
C2295 C2294 1.386 . S
C2295 C2299 1.393 . S
C2296 H2285 0.950 . S
C2296 C2294 1.391 . S
C2296 C2297 1.400 . S
C2297 C2291 1.491 . S
C2297 C2296 1.400 . S
C2297 C2298 1.398 . S
C2298 H2286 0.950 . S
C2298 C2297 1.398 . S
C2298 C2299 1.391 . S
C2299 H2287 0.950 . S
C2299 C2295 1.393 . S
C2299 C2298 1.391 . S
H2300 C2308 0.950 . S
H2301 C2313 0.950 . S
H2302 C2310 0.950 . S
H2303 C2312 0.950 . S
H2304 C2314 0.950 1_455 S
H2305 C2316 0.950 . S
H2306 C2318 0.950 . S
H2307 C2319 0.950 . S
C2308 H2300 0.950 . S
C2308 C2309 1.386 . S
C2308 C2310 1.391 . S
C2309 C2308 1.386 . S
C2309 C2313 1.393 . S
C2310 H2302 0.950 . S
C2310 C2308 1.391 . S
C2310 C2311 1.400 . S
C2311 C2310 1.400 . S
C2311 C2312 1.398 . S
C2311 C2317 1.491 . S
C2312 H2303 0.950 . S
C2312 C2311 1.398 . S
C2312 C2313 1.391 . S
C2313 H2301 0.950 . S
C2313 C2309 1.393 . S
C2313 C2312 1.391 . S
C2314 H2304 0.950 1_655 S
C2314 C2315 1.386 1_655 S
C2314 C2316 1.391 . S
C2315 C2314 1.386 1_455 S
C2315 C2319 1.393 1_455 S
C2316 H2305 0.950 . S
C2316 C2314 1.391 . S
C2316 C2317 1.400 . S
C2317 C2311 1.491 . S
C2317 C2316 1.400 . S
C2317 C2318 1.398 . S
C2318 H2306 0.950 . S
C2318 C2317 1.398 . S
C2318 C2319 1.391 . S
C2319 H2307 0.950 . S
C2319 C2315 1.393 1_655 S
C2319 C2318 1.391 . S
H2320 C2328 0.950 . S
H2321 C2333 0.950 . S
H2322 C2330 0.950 . S
H2323 C2332 0.950 . S
H2324 C2334 0.950 . S
H2325 C2336 0.950 . S
H2326 C2338 0.950 . S
H2327 C2339 0.950 . S
C2328 H2320 0.950 . S
C2328 C2329 1.386 . S
C2328 C2330 1.391 . S
C2329 C2328 1.386 . S
C2329 C2333 1.393 . S
C2330 H2322 0.950 . S
C2330 C2328 1.391 . S
C2330 C2331 1.400 . S
C2331 C2330 1.400 . S
C2331 C2332 1.398 . S
C2331 C2337 1.491 . S
C2332 H2323 0.950 . S
C2332 C2331 1.398 . S
C2332 C2333 1.391 . S
C2333 H2321 0.950 . S
C2333 C2329 1.393 . S
C2333 C2332 1.391 . S
C2334 H2324 0.950 . S
C2334 C2335 1.386 . S
C2334 C2336 1.391 . S
C2335 C2334 1.386 . S
C2335 C2339 1.393 . S
C2336 H2325 0.950 . S
C2336 C2334 1.391 . S
C2336 C2337 1.400 . S
C2337 C2331 1.491 . S
C2337 C2336 1.400 . S
C2337 C2338 1.398 . S
C2338 H2326 0.950 . S
C2338 C2337 1.398 . S
C2338 C2339 1.391 . S
C2339 H2327 0.950 . S
C2339 C2335 1.393 . S
C2339 C2338 1.391 . S
H2340 C2348 0.950 . S
H2341 C2353 0.950 . S
H2342 C2350 0.950 . S
H2343 C2352 0.950 . S
H2344 C2354 0.950 . S
H2345 C2356 0.950 . S
H2346 C2358 0.950 . S
H2347 C2359 0.950 . S
C2348 H2340 0.950 . S
C2348 C2349 1.386 . S
C2348 C2350 1.391 . S
C2349 C2348 1.386 . S
C2349 C2353 1.393 . S
C2350 H2342 0.950 . S
C2350 C2348 1.391 . S
C2350 C2351 1.400 . S
C2351 C2350 1.400 . S
C2351 C2352 1.398 . S
C2351 C2357 1.491 . S
C2352 H2343 0.950 . S
C2352 C2351 1.398 . S
C2352 C2353 1.391 . S
C2353 H2341 0.950 . S
C2353 C2349 1.393 . S
C2353 C2352 1.391 . S
C2354 H2344 0.950 . S
C2354 C2355 1.386 . S
C2354 C2356 1.391 1_455 S
C2355 C2354 1.386 . S
C2355 C2359 1.393 1_455 S
C2356 H2345 0.950 . S
C2356 C2354 1.391 1_655 S
C2356 C2357 1.400 . S
C2357 C2351 1.491 . S
C2357 C2356 1.400 . S
C2357 C2358 1.398 . S
C2358 H2346 0.950 . S
C2358 C2357 1.398 . S
C2358 C2359 1.391 . S
C2359 H2347 0.950 . S
C2359 C2355 1.393 1_655 S
C2359 C2358 1.391 . S
H2360 C2368 0.950 . S
H2361 C2373 0.950 . S
H2362 C2370 0.950 . S
H2363 C2372 0.950 . S
H2364 C2374 0.950 . S
H2365 C2376 0.950 . S
H2366 C2378 0.950 . S
H2367 C2379 0.950 . S
C2368 H2360 0.950 . S
C2368 C2369 1.386 . S
C2368 C2370 1.391 . S
C2369 C2368 1.386 . S
C2369 C2373 1.393 . S
C2370 H2362 0.950 . S
C2370 C2368 1.391 . S
C2370 C2371 1.400 . S
C2371 C2370 1.400 . S
C2371 C2372 1.398 . S
C2371 C2377 1.491 . S
C2372 H2363 0.950 . S
C2372 C2371 1.398 . S
C2372 C2373 1.391 . S
C2373 H2361 0.950 . S
C2373 C2369 1.393 . S
C2373 C2372 1.391 . S
C2374 H2364 0.950 . S
C2374 C2375 1.386 . S
C2374 C2376 1.391 . S
C2375 C2374 1.386 . S
C2375 C2379 1.393 . S
C2376 H2365 0.950 . S
C2376 C2374 1.391 . S
C2376 C2377 1.400 . S
C2377 C2371 1.491 . S
C2377 C2376 1.400 . S
C2377 C2378 1.398 . S
C2378 H2366 0.950 . S
C2378 C2377 1.398 . S
C2378 C2379 1.391 . S
C2379 H2367 0.950 . S
C2379 C2375 1.393 . S
C2379 C2378 1.391 . S
H2380 C2388 0.950 . S
H2381 C2393 0.950 . S
H2382 C2390 0.950 . S
H2383 C2392 0.950 . S
H2384 C2394 0.950 . S
H2385 C2396 0.950 . S
H2386 C2398 0.950 . S
H2387 C2399 0.950 . S
C2388 H2380 0.950 . S
C2388 C2389 1.386 . S
C2388 C2390 1.391 . S
C2389 C2388 1.386 . S
C2389 C2393 1.393 . S
C2390 H2382 0.950 . S
C2390 C2388 1.391 . S
C2390 C2391 1.400 . S
C2391 C2390 1.400 . S
C2391 C2392 1.398 . S
C2391 C2397 1.491 . S
C2392 H2383 0.950 . S
C2392 C2391 1.398 . S
C2392 C2393 1.391 . S
C2393 H2381 0.950 . S
C2393 C2389 1.393 . S
C2393 C2392 1.391 . S
C2394 H2384 0.950 . S
C2394 C2395 1.386 . S
C2394 C2396 1.391 . S
C2395 C2394 1.386 . S
C2395 C2399 1.393 . S
C2396 H2385 0.950 . S
C2396 C2394 1.391 . S
C2396 C2397 1.400 . S
C2397 C2391 1.491 . S
C2397 C2396 1.400 . S
C2397 C2398 1.398 . S
C2398 H2386 0.950 . S
C2398 C2397 1.398 . S
C2398 C2399 1.391 . S
C2399 H2387 0.950 . S
C2399 C2395 1.393 . S
C2399 C2398 1.391 . S
H2400 C2408 0.950 . S
H2401 C2413 0.950 . S
H2402 C2410 0.950 . S
H2403 C2412 0.950 . S
H2404 C2414 0.950 . S
H2405 C2416 0.950 . S
H2406 C2418 0.950 . S
H2407 C2419 0.950 . S
C2408 H2400 0.950 . S
C2408 C2409 1.386 . S
C2408 C2410 1.391 . S
C2409 C2408 1.386 . S
C2409 C2413 1.393 . S
C2410 H2402 0.950 . S
C2410 C2408 1.391 . S
C2410 C2411 1.400 . S
C2411 C2410 1.400 . S
C2411 C2412 1.398 . S
C2411 C2417 1.491 . S
C2412 H2403 0.950 . S
C2412 C2411 1.398 . S
C2412 C2413 1.391 . S
C2413 H2401 0.950 . S
C2413 C2409 1.393 . S
C2413 C2412 1.391 . S
C2414 H2404 0.950 . S
C2414 C2415 1.386 . S
C2414 C2416 1.391 . S
C2415 C2414 1.386 . S
C2415 C2419 1.393 . S
C2416 H2405 0.950 . S
C2416 C2414 1.391 . S
C2416 C2417 1.400 . S
C2417 C2411 1.491 . S
C2417 C2416 1.400 . S
C2417 C2418 1.398 . S
C2418 H2406 0.950 . S
C2418 C2417 1.398 . S
C2418 C2419 1.391 . S
C2419 H2407 0.950 . S
C2419 C2415 1.393 . S
C2419 C2418 1.391 . S
H2420 C2428 0.950 . S
H2421 C2433 0.950 . S
H2422 C2430 0.950 . S
H2423 C2432 0.950 . S
H2424 C2434 0.950 . S
H2425 C2436 0.950 . S
H2426 C2438 0.950 . S
H2427 C2439 0.950 . S
C2428 H2420 0.950 . S
C2428 C2429 1.386 . S
C2428 C2430 1.391 . S
C2429 C2428 1.386 . S
C2429 C2433 1.393 . S
C2430 H2422 0.950 . S
C2430 C2428 1.391 . S
C2430 C2431 1.400 . S
C2431 C2430 1.400 . S
C2431 C2432 1.398 . S
C2431 C2437 1.491 . S
C2432 H2423 0.950 . S
C2432 C2431 1.398 . S
C2432 C2433 1.391 . S
C2433 H2421 0.950 . S
C2433 C2429 1.393 . S
C2433 C2432 1.391 . S
C2434 H2424 0.950 . S
C2434 C2435 1.386 . S
C2434 C2436 1.391 . S
C2435 C2434 1.386 . S
C2435 C2439 1.393 . S
C2436 H2425 0.950 . S
C2436 C2434 1.391 . S
C2436 C2437 1.400 . S
C2437 C2431 1.491 . S
C2437 C2436 1.400 . S
C2437 C2438 1.398 . S
C2438 H2426 0.950 . S
C2438 C2437 1.398 . S
C2438 C2439 1.391 . S
C2439 H2427 0.950 . S
C2439 C2435 1.393 . S
C2439 C2438 1.391 . S
H2440 C2448 0.950 . S
H2441 C2453 0.950 . S
H2442 C2450 0.950 . S
H2443 C2452 0.950 . S
H2444 C2454 0.950 . S
H2445 C2456 0.950 . S
H2446 C2458 0.950 . S
H2447 C2459 0.950 . S
C2448 H2440 0.950 . S
C2448 C2449 1.386 . S
C2448 C2450 1.391 . S
C2449 C2448 1.386 . S
C2449 C2453 1.393 . S
C2450 H2442 0.950 . S
C2450 C2448 1.391 . S
C2450 C2451 1.400 . S
C2451 C2450 1.400 . S
C2451 C2452 1.398 . S
C2451 C2457 1.491 . S
C2452 H2443 0.950 . S
C2452 C2451 1.398 . S
C2452 C2453 1.391 . S
C2453 H2441 0.950 . S
C2453 C2449 1.393 . S
C2453 C2452 1.391 . S
C2454 H2444 0.950 . S
C2454 C2455 1.386 . S
C2454 C2456 1.391 . S
C2455 C2454 1.386 . S
C2455 C2459 1.393 . S
C2456 H2445 0.950 . S
C2456 C2454 1.391 . S
C2456 C2457 1.400 . S
C2457 C2451 1.491 . S
C2457 C2456 1.400 . S
C2457 C2458 1.398 . S
C2458 H2446 0.950 . S
C2458 C2457 1.398 . S
C2458 C2459 1.391 . S
C2459 H2447 0.950 . S
C2459 C2455 1.393 . S
C2459 C2458 1.391 . S
H2460 C2468 0.950 . S
H2461 C2473 0.950 . S
H2462 C2470 0.950 . S
H2463 C2472 0.950 . S
H2464 C2474 0.950 . S
H2465 C2476 0.950 . S
H2466 C2478 0.950 . S
H2467 C2479 0.950 . S
C2468 H2460 0.950 . S
C2468 C2469 1.386 1_455 S
C2468 C2470 1.391 . S
C2469 C2468 1.386 1_655 S
C2469 C2473 1.393 . S
C2470 H2462 0.950 . S
C2470 C2468 1.391 . S
C2470 C2471 1.400 . S
C2471 C2470 1.400 . S
C2471 C2472 1.398 . S
C2471 C2477 1.491 . S
C2472 H2463 0.950 . S
C2472 C2471 1.398 . S
C2472 C2473 1.391 1_455 S
C2473 H2461 0.950 . S
C2473 C2469 1.393 . S
C2473 C2472 1.391 1_655 S
C2474 H2464 0.950 . S
C2474 C2475 1.386 . S
C2474 C2476 1.391 . S
C2475 C2474 1.386 . S
C2475 C2479 1.393 . S
C2476 H2465 0.950 . S
C2476 C2474 1.391 . S
C2476 C2477 1.400 . S
C2477 C2471 1.491 . S
C2477 C2476 1.400 . S
C2477 C2478 1.398 . S
C2478 H2466 0.950 . S
C2478 C2477 1.398 . S
C2478 C2479 1.391 . S
C2479 H2467 0.950 . S
C2479 C2475 1.393 . S
C2479 C2478 1.391 . S
H2480 C2488 0.950 . S
H2481 C2493 0.950 . S
H2482 C2490 0.950 . S
H2483 C2492 0.950 . S
H2484 C2494 0.950 . S
H2485 C2496 0.950 . S
H2486 C2498 0.950 . S
H2487 C2499 0.950 . S
C2488 H2480 0.950 . S
C2488 C2489 1.386 . S
C2488 C2490 1.391 . S
C2489 C2488 1.386 . S
C2489 C2493 1.393 . S
C2490 H2482 0.950 . S
C2490 C2488 1.391 . S
C2490 C2491 1.400 . S
C2491 C2490 1.400 . S
C2491 C2492 1.398 . S
C2491 C2497 1.491 . S
C2492 H2483 0.950 . S
C2492 C2491 1.398 . S
C2492 C2493 1.391 . S
C2493 H2481 0.950 . S
C2493 C2489 1.393 . S
C2493 C2492 1.391 . S
C2494 H2484 0.950 . S
C2494 C2495 1.386 . S
C2494 C2496 1.391 . S
C2495 C2494 1.386 . S
C2495 C2499 1.393 . S
C2496 H2485 0.950 . S
C2496 C2494 1.391 . S
C2496 C2497 1.400 . S
C2497 C2491 1.491 . S
C2497 C2496 1.400 . S
C2497 C2498 1.398 . S
C2498 H2486 0.950 . S
C2498 C2497 1.398 . S
C2498 C2499 1.391 . S
C2499 H2487 0.950 . S
C2499 C2495 1.393 . S
C2499 C2498 1.391 . S
H2500 C2508 0.950 . S
H2501 C2513 0.950 . S
H2502 C2510 0.950 . S
H2503 C2512 0.950 . S
H2504 C2514 0.950 . S
H2505 C2516 0.950 . S
H2506 C2518 0.950 . S
H2507 C2519 0.950 . S
C2508 H2500 0.950 . S
C2508 C2509 1.386 . S
C2508 C2510 1.391 . S
C2509 C2508 1.386 . S
C2509 C2513 1.393 . S
C2510 H2502 0.950 . S
C2510 C2508 1.391 . S
C2510 C2511 1.400 . S
C2511 C2510 1.400 . S
C2511 C2512 1.398 . S
C2511 C2517 1.491 . S
C2512 H2503 0.950 . S
C2512 C2511 1.398 . S
C2512 C2513 1.391 . S
C2513 H2501 0.950 . S
C2513 C2509 1.393 . S
C2513 C2512 1.391 . S
C2514 H2504 0.950 . S
C2514 C2515 1.386 . S
C2514 C2516 1.391 1_655 S
C2515 C2514 1.386 . S
C2515 C2519 1.393 1_655 S
C2516 H2505 0.950 . S
C2516 C2514 1.391 1_455 S
C2516 C2517 1.400 . S
C2517 C2511 1.491 . S
C2517 C2516 1.400 . S
C2517 C2518 1.398 . S
C2518 H2506 0.950 . S
C2518 C2517 1.398 . S
C2518 C2519 1.391 . S
C2519 H2507 0.950 . S
C2519 C2515 1.393 1_455 S
C2519 C2518 1.391 . S
H2520 C2528 0.950 . S
H2521 C2533 0.950 . S
H2522 C2530 0.950 . S
H2523 C2532 0.950 . S
H2524 C2534 0.950 . S
H2525 C2536 0.950 . S
H2526 C2538 0.950 . S
H2527 C2539 0.950 . S
C2528 H2520 0.950 . S
C2528 C2529 1.386 . S
C2528 C2530 1.391 . S
C2529 C2528 1.386 . S
C2529 C2533 1.393 . S
C2530 H2522 0.950 . S
C2530 C2528 1.391 . S
C2530 C2531 1.400 . S
C2531 C2530 1.400 . S
C2531 C2532 1.398 . S
C2531 C2537 1.491 . S
C2532 H2523 0.950 . S
C2532 C2531 1.398 . S
C2532 C2533 1.391 . S
C2533 H2521 0.950 . S
C2533 C2529 1.393 . S
C2533 C2532 1.391 . S
C2534 H2524 0.950 . S
C2534 C2535 1.386 . S
C2534 C2536 1.391 . S
C2535 C2534 1.386 . S
C2535 C2539 1.393 . S
C2536 H2525 0.950 . S
C2536 C2534 1.391 . S
C2536 C2537 1.400 . S
C2537 C2531 1.491 . S
C2537 C2536 1.400 . S
C2537 C2538 1.398 . S
C2538 H2526 0.950 . S
C2538 C2537 1.398 . S
C2538 C2539 1.391 . S
C2539 H2527 0.950 . S
C2539 C2535 1.393 . S
C2539 C2538 1.391 . S
H2540 C2548 0.950 . S
H2541 C2553 0.950 . S
H2542 C2550 0.950 . S
H2543 C2552 0.950 . S
H2544 C2554 0.950 . S
H2545 C2556 0.950 . S
H2546 C2558 0.950 . S
H2547 C2559 0.950 . S
C2548 H2540 0.950 . S
C2548 C2549 1.386 . S
C2548 C2550 1.391 . S
C2549 C2548 1.386 . S
C2549 C2553 1.393 . S
C2550 H2542 0.950 . S
C2550 C2548 1.391 . S
C2550 C2551 1.400 . S
C2551 C2550 1.400 . S
C2551 C2552 1.398 . S
C2551 C2557 1.491 . S
C2552 H2543 0.950 . S
C2552 C2551 1.398 . S
C2552 C2553 1.391 . S
C2553 H2541 0.950 . S
C2553 C2549 1.393 . S
C2553 C2552 1.391 . S
C2554 H2544 0.950 . S
C2554 C2555 1.386 . S
C2554 C2556 1.391 . S
C2555 C2554 1.386 . S
C2555 C2559 1.393 . S
C2556 H2545 0.950 . S
C2556 C2554 1.391 . S
C2556 C2557 1.400 . S
C2557 C2551 1.491 . S
C2557 C2556 1.400 . S
C2557 C2558 1.398 . S
C2558 H2546 0.950 . S
C2558 C2557 1.398 . S
C2558 C2559 1.391 . S
C2559 H2547 0.950 . S
C2559 C2555 1.393 . S
C2559 C2558 1.391 . S
H2560 C2568 0.950 . S
H2561 C2573 0.950 . S
H2562 C2570 0.950 . S
H2563 C2572 0.950 . S
H2564 C2574 0.950 . S
H2565 C2576 0.950 . S
H2566 C2578 0.950 . S
H2567 C2579 0.950 . S
C2568 H2560 0.950 . S
C2568 C2569 1.386 . S
C2568 C2570 1.391 . S
C2569 C2568 1.386 . S
C2569 C2573 1.393 . S
C2570 H2562 0.950 . S
C2570 C2568 1.391 . S
C2570 C2571 1.400 . S
C2571 C2570 1.400 . S
C2571 C2572 1.398 . S
C2571 C2577 1.491 1_545 S
C2572 H2563 0.950 . S
C2572 C2571 1.398 . S
C2572 C2573 1.391 . S
C2573 H2561 0.950 . S
C2573 C2569 1.393 . S
C2573 C2572 1.391 . S
C2574 H2564 0.950 . S
C2574 C2575 1.386 . S
C2574 C2576 1.391 . S
C2575 C2574 1.386 . S
C2575 C2579 1.393 . S
C2576 H2565 0.950 . S
C2576 C2574 1.391 . S
C2576 C2577 1.400 . S
C2577 C2571 1.491 1_565 S
C2577 C2576 1.400 . S
C2577 C2578 1.398 . S
C2578 H2566 0.950 . S
C2578 C2577 1.398 . S
C2578 C2579 1.391 . S
C2579 H2567 0.950 . S
C2579 C2575 1.393 . S
C2579 C2578 1.391 . S
H2580 C2588 0.950 . S
H2581 C2593 0.950 . S
H2582 C2590 0.950 . S
H2583 C2592 0.950 . S
H2584 C2594 0.950 . S
H2585 C2596 0.950 . S
H2586 C2598 0.950 . S
H2587 C2599 0.950 . S
C2588 H2580 0.950 . S
C2588 C2589 1.386 . S
C2588 C2590 1.391 . S
C2589 C2588 1.386 . S
C2589 C2593 1.393 . S
C2590 H2582 0.950 . S
C2590 C2588 1.391 . S
C2590 C2591 1.400 . S
C2591 C2590 1.400 . S
C2591 C2592 1.398 . S
C2591 C2597 1.491 . S
C2592 H2583 0.950 . S
C2592 C2591 1.398 . S
C2592 C2593 1.391 . S
C2593 H2581 0.950 . S
C2593 C2589 1.393 . S
C2593 C2592 1.391 . S
C2594 H2584 0.950 . S
C2594 C2595 1.386 . S
C2594 C2596 1.391 . S
C2595 C2594 1.386 . S
C2595 C2599 1.393 . S
C2596 H2585 0.950 . S
C2596 C2594 1.391 . S
C2596 C2597 1.400 . S
C2597 C2591 1.491 . S
C2597 C2596 1.400 . S
C2597 C2598 1.398 . S
C2598 H2586 0.950 . S
C2598 C2597 1.398 . S
C2598 C2599 1.391 . S
C2599 H2587 0.950 . S
C2599 C2595 1.393 . S
C2599 C2598 1.391 . S
H2600 C2608 0.950 . S
H2601 C2613 0.950 . S
H2602 C2610 0.950 . S
H2603 C2612 0.950 . S
H2604 C2614 0.950 . S
H2605 C2616 0.950 . S
H2606 C2618 0.950 . S
H2607 C2619 0.950 . S
C2608 H2600 0.950 . S
C2608 C2609 1.386 . S
C2608 C2610 1.391 . S
C2609 C2608 1.386 . S
C2609 C2613 1.393 . S
C2610 H2602 0.950 . S
C2610 C2608 1.391 . S
C2610 C2611 1.400 . S
C2611 C2610 1.400 . S
C2611 C2612 1.398 . S
C2611 C2617 1.491 1_565 S
C2612 H2603 0.950 . S
C2612 C2611 1.398 . S
C2612 C2613 1.391 . S
C2613 H2601 0.950 . S
C2613 C2609 1.393 . S
C2613 C2612 1.391 . S
C2614 H2604 0.950 . S
C2614 C2615 1.386 . S
C2614 C2616 1.391 . S
C2615 C2614 1.386 . S
C2615 C2619 1.393 . S
C2616 H2605 0.950 . S
C2616 C2614 1.391 . S
C2616 C2617 1.400 . S
C2617 C2611 1.491 1_545 S
C2617 C2616 1.400 . S
C2617 C2618 1.398 . S
C2618 H2606 0.950 . S
C2618 C2617 1.398 . S
C2618 C2619 1.391 . S
C2619 H2607 0.950 . S
C2619 C2615 1.393 . S
C2619 C2618 1.391 . S
H2620 C2628 0.950 . S
H2621 C2633 0.950 . S
H2622 C2630 0.950 . S
H2623 C2632 0.950 . S
H2624 C2634 0.950 . S
H2625 C2636 0.950 . S
H2626 C2638 0.950 . S
H2627 C2639 0.950 . S
C2628 H2620 0.950 . S
C2628 C2629 1.386 . S
C2628 C2630 1.391 . S
C2629 C2628 1.386 . S
C2629 C2633 1.393 1_556 S
C2630 H2622 0.950 . S
C2630 C2628 1.391 . S
C2630 C2631 1.410 . S
C2631 C2630 1.410 . S
C2631 C2632 1.389 1_556 S
C2631 C2637 1.490 1_556 S
C2632 H2623 0.950 . S
C2632 C2631 1.389 1_554 S
C2632 C2633 1.391 . S
C2633 H2621 0.950 . S
C2633 C2629 1.393 1_554 S
C2633 C2632 1.391 . S
C2634 H2624 0.950 . S
C2634 C2635 1.386 . S
C2634 C2636 1.391 . S
C2635 C2634 1.386 . S
C2635 C2639 1.393 1_554 S
C2636 H2625 0.950 . S
C2636 C2634 1.391 . S
C2636 C2637 1.410 . S
C2637 C2631 1.490 1_554 S
C2637 C2636 1.410 . S
C2637 C2638 1.389 1_554 S
C2638 H2626 0.950 . S
C2638 C2637 1.389 1_556 S
C2638 C2639 1.391 . S
C2639 H2627 0.950 . S
C2639 C2635 1.393 1_556 S
C2639 C2638 1.391 . S
H2640 C2648 0.950 . S
H2641 C2653 0.950 . S
H2642 C2650 0.950 . S
H2643 C2652 0.950 . S
H2644 C2654 0.950 . S
H2645 C2656 0.950 . S
H2646 C2658 0.950 . S
H2647 C2659 0.950 . S
C2648 H2640 0.950 . S
C2648 C2649 1.386 . S
C2648 C2650 1.391 . S
C2649 C2648 1.386 . S
C2649 C2653 1.393 . S
C2650 H2642 0.950 . S
C2650 C2648 1.391 . S
C2650 C2651 1.400 . S
C2651 C2650 1.400 . S
C2651 C2652 1.398 . S
C2651 C2657 1.491 1_545 S
C2652 H2643 0.950 . S
C2652 C2651 1.398 . S
C2652 C2653 1.391 . S
C2653 H2641 0.950 . S
C2653 C2649 1.393 . S
C2653 C2652 1.391 . S
C2654 H2644 0.950 . S
C2654 C2655 1.386 . S
C2654 C2656 1.391 . S
C2655 C2654 1.386 . S
C2655 C2659 1.393 . S
C2656 H2645 0.950 . S
C2656 C2654 1.391 . S
C2656 C2657 1.400 . S
C2657 C2651 1.491 1_565 S
C2657 C2656 1.400 . S
C2657 C2658 1.398 . S
C2658 H2646 0.950 . S
C2658 C2657 1.398 . S
C2658 C2659 1.391 . S
C2659 H2647 0.950 . S
C2659 C2655 1.393 . S
C2659 C2658 1.391 . S
H2660 C2668 0.950 . S
H2661 C2673 0.950 . S
H2662 C2670 0.950 . S
H2663 C2672 0.950 . S
H2664 C2674 0.950 . S
H2665 C2676 0.950 . S
H2666 C2678 0.950 . S
H2667 C2679 0.950 . S
C2668 H2660 0.950 . S
C2668 C2669 1.386 . S
C2668 C2670 1.391 . S
C2669 C2668 1.386 . S
C2669 C2673 1.393 . S
C2670 H2662 0.950 . S
C2670 C2668 1.391 . S
C2670 C2671 1.400 . S
C2671 C2670 1.400 . S
C2671 C2672 1.398 . S
C2671 C2677 1.491 . S
C2672 H2663 0.950 . S
C2672 C2671 1.398 . S
C2672 C2673 1.391 . S
C2673 H2661 0.950 . S
C2673 C2669 1.393 . S
C2673 C2672 1.391 . S
C2674 H2664 0.950 . S
C2674 C2675 1.386 . S
C2674 C2676 1.391 . S
C2675 C2674 1.386 . S
C2675 C2679 1.393 . S
C2676 H2665 0.950 . S
C2676 C2674 1.391 . S
C2676 C2677 1.400 . S
C2677 C2671 1.491 . S
C2677 C2676 1.400 . S
C2677 C2678 1.398 . S
C2678 H2666 0.950 . S
C2678 C2677 1.398 . S
C2678 C2679 1.391 . S
C2679 H2667 0.950 . S
C2679 C2675 1.393 . S
C2679 C2678 1.391 . S
H2680 C2688 0.950 . S
H2681 C2693 0.950 . S
H2682 C2690 0.950 . S
H2683 C2692 0.950 . S
H2684 C2694 0.950 . S
H2685 C2696 0.950 . S
H2686 C2698 0.950 . S
H2687 C2699 0.950 . S
C2688 H2680 0.950 . S
C2688 C2689 1.386 . S
C2688 C2690 1.391 . S
C2689 C2688 1.386 . S
C2689 C2693 1.393 . S
C2690 H2682 0.950 . S
C2690 C2688 1.391 . S
C2690 C2691 1.400 . S
C2691 C2690 1.400 . S
C2691 C2692 1.398 . S
C2691 C2697 1.491 1_545 S
C2692 H2683 0.950 . S
C2692 C2691 1.398 . S
C2692 C2693 1.391 . S
C2693 H2681 0.950 . S
C2693 C2689 1.393 . S
C2693 C2692 1.391 . S
C2694 H2684 0.950 . S
C2694 C2695 1.386 . S
C2694 C2696 1.391 . S
C2695 C2694 1.386 . S
C2695 C2699 1.393 . S
C2696 H2685 0.950 . S
C2696 C2694 1.391 . S
C2696 C2697 1.400 . S
C2697 C2691 1.491 1_565 S
C2697 C2696 1.400 . S
C2697 C2698 1.398 . S
C2698 H2686 0.950 . S
C2698 C2697 1.398 . S
C2698 C2699 1.391 . S
C2699 H2687 0.950 . S
C2699 C2695 1.393 . S
C2699 C2698 1.391 . S
H2700 C2708 0.950 . S
H2701 C2713 0.950 . S
H2702 C2710 0.947 1_554 S
H2703 C2712 0.950 . S
H2704 C2714 0.950 . S
H2705 C2716 0.947 1_556 S
H2706 C2718 0.950 . S
H2707 C2719 0.950 . S
C2708 H2700 0.950 . S
C2708 C2709 1.386 . S
C2708 C2710 1.393 . S
C2709 C2708 1.386 . S
C2709 C2713 1.393 . S
C2710 H2702 0.947 1_556 S
C2710 C2708 1.393 . S
C2710 C2711 1.401 . S
C2711 C2710 1.401 . S
C2711 C2712 1.398 . S
C2711 C2717 1.491 1_556 S
C2712 H2703 0.950 . S
C2712 C2711 1.398 . S
C2712 C2713 1.391 . S
C2713 H2701 0.950 . S
C2713 C2709 1.393 . S
C2713 C2712 1.391 . S
C2714 H2704 0.950 . S
C2714 C2715 1.386 . S
C2714 C2716 1.393 . S
C2715 C2714 1.386 . S
C2715 C2719 1.393 . S
C2716 H2705 0.947 1_554 S
C2716 C2714 1.393 . S
C2716 C2717 1.401 . S
C2717 C2711 1.491 1_554 S
C2717 C2716 1.401 . S
C2717 C2718 1.398 . S
C2718 H2706 0.950 . S
C2718 C2717 1.398 . S
C2718 C2719 1.391 . S
C2719 H2707 0.950 . S
C2719 C2715 1.393 . S
C2719 C2718 1.391 . S
H2720 C2728 0.950 . S
H2721 C2733 0.950 . S
H2722 C2730 0.950 . S
H2723 C2732 0.950 . S
H2724 C2734 0.950 . S
H2725 C2736 0.950 . S
H2726 C2738 0.950 . S
H2727 C2739 0.950 . S
C2728 H2720 0.950 . S
C2728 C2729 1.386 . S
C2728 C2730 1.391 . S
C2729 C2728 1.386 . S
C2729 C2733 1.393 . S
C2730 H2722 0.950 . S
C2730 C2728 1.391 . S
C2730 C2731 1.400 . S
C2731 C2730 1.400 . S
C2731 C2732 1.398 . S
C2731 C2737 1.491 . S
C2732 H2723 0.950 . S
C2732 C2731 1.398 . S
C2732 C2733 1.391 . S
C2733 H2721 0.950 . S
C2733 C2729 1.393 . S
C2733 C2732 1.391 . S
C2734 H2724 0.950 . S
C2734 C2735 1.386 . S
C2734 C2736 1.391 . S
C2735 C2734 1.386 . S
C2735 C2739 1.393 . S
C2736 H2725 0.950 . S
C2736 C2734 1.391 . S
C2736 C2737 1.400 . S
C2737 C2731 1.491 . S
C2737 C2736 1.400 . S
C2737 C2738 1.398 . S
C2738 H2726 0.950 . S
C2738 C2737 1.398 . S
C2738 C2739 1.391 . S
C2739 H2727 0.950 . S
C2739 C2735 1.393 . S
C2739 C2738 1.391 . S
H2740 C2748 0.950 . S
H2741 C2753 0.950 . S
H2742 C2750 0.950 . S
H2743 C2752 0.950 . S
H2744 C2754 0.950 . S
H2745 C2756 0.950 . S
H2746 C2758 0.950 . S
H2747 C2759 0.950 . S
C2748 H2740 0.950 . S
C2748 C2749 1.386 1_554 S
C2748 C2750 1.391 . S
C2749 C2748 1.386 1_556 S
C2749 C2753 1.393 . S
C2750 H2742 0.950 . S
C2750 C2748 1.391 . S
C2750 C2751 1.400 1_554 S
C2751 C2750 1.400 1_556 S
C2751 C2752 1.398 . S
C2751 C2757 1.491 1_556 S
C2752 H2743 0.950 . S
C2752 C2751 1.398 . S
C2752 C2753 1.391 . S
C2753 H2741 0.950 . S
C2753 C2749 1.393 . S
C2753 C2752 1.391 . S
C2754 H2744 0.950 . S
C2754 C2755 1.386 1_556 S
C2754 C2756 1.391 . S
C2755 C2754 1.386 1_554 S
C2755 C2759 1.393 . S
C2756 H2745 0.950 . S
C2756 C2754 1.391 . S
C2756 C2757 1.400 1_556 S
C2757 C2751 1.491 1_554 S
C2757 C2756 1.400 1_554 S
C2757 C2758 1.398 . S
C2758 H2746 0.950 . S
C2758 C2757 1.398 . S
C2758 C2759 1.391 . S
C2759 H2747 0.950 . S
C2759 C2755 1.393 . S
C2759 C2758 1.391 . S
H2760 C2768 0.950 . S
H2761 C2773 0.950 . S
H2762 C2770 0.950 . S
H2763 C2772 0.950 . S
H2764 C2774 0.950 . S
H2765 C2776 0.950 . S
H2766 C2778 0.950 . S
H2767 C2779 0.950 . S
C2768 H2760 0.950 . S
C2768 C2769 1.386 . S
C2768 C2770 1.391 . S
C2769 C2768 1.386 . S
C2769 C2773 1.393 . S
C2770 H2762 0.950 . S
C2770 C2768 1.391 . S
C2770 C2771 1.400 . S
C2771 C2770 1.400 . S
C2771 C2772 1.398 . S
C2771 C2777 1.491 . S
C2772 H2763 0.950 . S
C2772 C2771 1.398 . S
C2772 C2773 1.391 . S
C2773 H2761 0.950 . S
C2773 C2769 1.393 . S
C2773 C2772 1.391 . S
C2774 H2764 0.950 . S
C2774 C2775 1.386 . S
C2774 C2776 1.391 . S
C2775 C2774 1.386 . S
C2775 C2779 1.393 . S
C2776 H2765 0.950 . S
C2776 C2774 1.391 . S
C2776 C2777 1.400 . S
C2777 C2771 1.491 . S
C2777 C2776 1.400 . S
C2777 C2778 1.398 . S
C2778 H2766 0.950 . S
C2778 C2777 1.398 . S
C2778 C2779 1.391 . S
C2779 H2767 0.950 . S
C2779 C2775 1.393 . S
C2779 C2778 1.391 . S
H2780 C2788 0.950 . S
H2781 C2793 0.950 . S
H2782 C2790 0.950 . S
H2783 C2792 0.950 . S
H2784 C2794 0.950 . S
H2785 C2796 0.950 . S
H2786 C2798 0.950 . S
H2787 C2799 0.950 . S
C2788 H2780 0.950 . S
C2788 C2789 1.386 . S
C2788 C2790 1.391 . S
C2789 C2788 1.386 . S
C2789 C2793 1.393 . S
C2790 H2782 0.950 . S
C2790 C2788 1.391 . S
C2790 C2791 1.400 . S
C2791 C2790 1.400 . S
C2791 C2792 1.398 . S
C2791 C2797 1.491 . S
C2792 H2783 0.950 . S
C2792 C2791 1.398 . S
C2792 C2793 1.391 . S
C2793 H2781 0.950 . S
C2793 C2789 1.393 . S
C2793 C2792 1.391 . S
C2794 H2784 0.950 . S
C2794 C2795 1.386 . S
C2794 C2796 1.391 . S
C2795 C2794 1.386 . S
C2795 C2799 1.393 . S
C2796 H2785 0.950 . S
C2796 C2794 1.391 . S
C2796 C2797 1.400 . S
C2797 C2791 1.491 . S
C2797 C2796 1.400 . S
C2797 C2798 1.398 . S
C2798 H2786 0.950 . S
C2798 C2797 1.398 . S
C2798 C2799 1.391 . S
C2799 H2787 0.950 . S
C2799 C2795 1.393 . S
C2799 C2798 1.391 . S
H2800 C2808 0.950 . S
H2801 C2813 0.950 . S
H2802 C2810 0.950 . S
H2803 C2812 0.950 . S
H2804 C2814 0.950 . S
H2805 C2816 0.950 . S
H2806 C2818 0.950 . S
H2807 C2819 0.950 . S
C2808 H2800 0.950 . S
C2808 C2809 1.386 . S
C2808 C2810 1.391 . S
C2809 C2808 1.386 . S
C2809 C2813 1.393 . S
C2810 H2802 0.950 . S
C2810 C2808 1.391 . S
C2810 C2811 1.400 . S
C2811 C2810 1.400 . S
C2811 C2812 1.398 . S
C2811 C2817 1.491 . S
C2812 H2803 0.950 . S
C2812 C2811 1.398 . S
C2812 C2813 1.391 . S
C2813 H2801 0.950 . S
C2813 C2809 1.393 . S
C2813 C2812 1.391 . S
C2814 H2804 0.950 . S
C2814 C2815 1.386 . S
C2814 C2816 1.391 . S
C2815 C2814 1.386 . S
C2815 C2819 1.393 . S
C2816 H2805 0.950 . S
C2816 C2814 1.391 . S
C2816 C2817 1.400 . S
C2817 C2811 1.491 . S
C2817 C2816 1.400 . S
C2817 C2818 1.398 . S
C2818 H2806 0.950 . S
C2818 C2817 1.398 . S
C2818 C2819 1.391 . S
C2819 H2807 0.950 . S
C2819 C2815 1.393 . S
C2819 C2818 1.391 . S
H2820 C2828 0.950 . S
H2821 C2833 0.950 . S
H2822 C2830 0.950 . S
H2823 C2832 0.950 . S
H2824 C2834 0.950 . S
H2825 C2836 0.950 . S
H2826 C2838 0.950 . S
H2827 C2839 0.950 . S
C2828 H2820 0.950 . S
C2828 C2829 1.386 1_554 S
C2828 C2830 1.391 . S
C2829 C2828 1.386 1_556 S
C2829 C2833 1.393 . S
C2830 H2822 0.950 . S
C2830 C2828 1.391 . S
C2830 C2831 1.382 1_554 S
C2831 C2830 1.382 1_556 S
C2831 C2832 1.423 . S
C2831 C2837 1.486 1_556 S
C2832 H2823 0.950 . S
C2832 C2831 1.423 . S
C2832 C2833 1.391 . S
C2833 H2821 0.950 . S
C2833 C2829 1.393 . S
C2833 C2832 1.391 . S
C2834 H2824 0.950 . S
C2834 C2835 1.386 1_556 S
C2834 C2836 1.391 . S
C2835 C2834 1.386 1_554 S
C2835 C2839 1.393 . S
C2836 H2825 0.950 . S
C2836 C2834 1.391 . S
C2836 C2837 1.382 1_556 S
C2837 C2831 1.486 1_554 S
C2837 C2836 1.382 1_554 S
C2837 C2838 1.423 . S
C2838 H2826 0.950 . S
C2838 C2837 1.423 . S
C2838 C2839 1.391 . S
C2839 H2827 0.950 . S
C2839 C2835 1.393 . S
C2839 C2838 1.391 . S
H2840 C2848 0.950 . S
H2841 C2853 0.950 . S
H2842 C2850 0.950 . S
H2843 C2852 0.950 . S
H2844 C2854 0.950 . S
H2845 C2856 0.950 . S
H2846 C2858 0.950 . S
H2847 C2859 0.950 . S
C2848 H2840 0.950 . S
C2848 C2849 1.386 . S
C2848 C2850 1.391 . S
C2849 C2848 1.386 . S
C2849 C2853 1.393 . S
C2850 H2842 0.950 . S
C2850 C2848 1.391 . S
C2850 C2851 1.400 . S
C2851 C2850 1.400 . S
C2851 C2852 1.398 . S
C2851 C2857 1.491 . S
C2852 H2843 0.950 . S
C2852 C2851 1.398 . S
C2852 C2853 1.391 . S
C2853 H2841 0.950 . S
C2853 C2849 1.393 . S
C2853 C2852 1.391 . S
C2854 H2844 0.950 . S
C2854 C2855 1.386 . S
C2854 C2856 1.391 . S
C2855 C2854 1.386 . S
C2855 C2859 1.393 . S
C2856 H2845 0.950 . S
C2856 C2854 1.391 . S
C2856 C2857 1.400 . S
C2857 C2851 1.491 . S
C2857 C2856 1.400 . S
C2857 C2858 1.398 . S
C2858 H2846 0.950 . S
C2858 C2857 1.398 . S
C2858 C2859 1.391 . S
C2859 H2847 0.950 . S
C2859 C2855 1.393 . S
C2859 C2858 1.391 . S
H2860 C2868 0.950 . S
H2861 C2873 0.950 . S
H2862 C2870 0.950 . S
H2863 C2872 0.950 . S
H2864 C2874 0.950 . S
H2865 C2876 0.950 . S
H2866 C2878 0.950 . S
H2867 C2879 0.950 . S
C2868 H2860 0.950 . S
C2868 C2869 1.386 . S
C2868 C2870 1.391 . S
C2869 C2868 1.386 . S
C2869 C2873 1.393 . S
C2870 H2862 0.950 . S
C2870 C2868 1.391 . S
C2870 C2871 1.400 . S
C2871 C2870 1.400 . S
C2871 C2872 1.398 . S
C2871 C2877 1.491 . S
C2872 H2863 0.950 . S
C2872 C2871 1.398 . S
C2872 C2873 1.391 . S
C2873 H2861 0.950 . S
C2873 C2869 1.393 . S
C2873 C2872 1.391 . S
C2874 H2864 0.950 . S
C2874 C2875 1.386 . S
C2874 C2876 1.391 . S
C2875 C2874 1.386 . S
C2875 C2879 1.393 . S
C2876 H2865 0.950 . S
C2876 C2874 1.391 . S
C2876 C2877 1.400 . S
C2877 C2871 1.491 . S
C2877 C2876 1.400 . S
C2877 C2878 1.398 . S
C2878 H2866 0.950 . S
C2878 C2877 1.398 . S
C2878 C2879 1.391 . S
C2879 H2867 0.950 . S
C2879 C2875 1.393 . S
C2879 C2878 1.391 . S
H2880 C2888 0.950 . S
H2881 C2893 0.950 . S
H2882 C2890 0.950 . S
H2883 C2892 0.950 . S
H2884 C2894 0.950 . S
H2885 C2896 0.950 . S
H2886 C2898 0.950 . S
H2887 C2899 0.950 . S
C2888 H2880 0.950 . S
C2888 C2889 1.386 . S
C2888 C2890 1.391 . S
C2889 C2888 1.386 . S
C2889 C2893 1.393 . S
C2890 H2882 0.950 . S
C2890 C2888 1.391 . S
C2890 C2891 1.400 . S
C2891 C2890 1.400 . S
C2891 C2892 1.398 . S
C2891 C2897 1.491 . S
C2892 H2883 0.950 . S
C2892 C2891 1.398 . S
C2892 C2893 1.391 . S
C2893 H2881 0.950 . S
C2893 C2889 1.393 . S
C2893 C2892 1.391 . S
C2894 H2884 0.950 . S
C2894 C2895 1.386 . S
C2894 C2896 1.391 . S
C2895 C2894 1.386 . S
C2895 C2899 1.393 . S
C2896 H2885 0.950 . S
C2896 C2894 1.391 . S
C2896 C2897 1.400 . S
C2897 C2891 1.491 . S
C2897 C2896 1.400 . S
C2897 C2898 1.398 . S
C2898 H2886 0.950 . S
C2898 C2897 1.398 . S
C2898 C2899 1.391 . S
C2899 H2887 0.950 . S
C2899 C2895 1.393 . S
C2899 C2898 1.391 . S
H2900 C2908 0.950 . S
H2901 C2913 0.950 . S
H2902 C2910 0.950 . S
H2903 C2912 0.950 . S
H2904 C2914 0.950 . S
H2905 C2916 0.950 . S
H2906 C2918 0.950 . S
H2907 C2919 0.950 . S
C2908 H2900 0.950 . S
C2908 C2909 1.386 . S
C2908 C2910 1.391 . S
C2909 C2908 1.386 . S
C2909 C2913 1.393 . S
C2910 H2902 0.950 . S
C2910 C2908 1.391 . S
C2910 C2911 1.400 . S
C2911 C2910 1.400 . S
C2911 C2912 1.398 . S
C2911 C2917 1.491 . S
C2912 H2903 0.950 . S
C2912 C2911 1.398 . S
C2912 C2913 1.391 . S
C2913 H2901 0.950 . S
C2913 C2909 1.393 . S
C2913 C2912 1.391 . S
C2914 H2904 0.950 . S
C2914 C2915 1.386 . S
C2914 C2916 1.391 . S
C2915 C2914 1.386 . S
C2915 C2919 1.393 . S
C2916 H2905 0.950 . S
C2916 C2914 1.391 . S
C2916 C2917 1.400 . S
C2917 C2911 1.491 . S
C2917 C2916 1.400 . S
C2917 C2918 1.398 . S
C2918 H2906 0.950 . S
C2918 C2917 1.398 . S
C2918 C2919 1.391 . S
C2919 H2907 0.950 . S
C2919 C2915 1.393 . S
C2919 C2918 1.391 . S
H2920 C2928 0.950 . S
H2921 C2933 0.950 . S
H2922 C2930 0.950 . S
H2923 C2932 0.950 . S
H2924 C2934 0.950 . S
H2925 C2936 0.950 . S
H2926 C2938 0.950 . S
H2927 C2939 0.950 . S
C2928 H2920 0.950 . S
C2928 C2929 1.386 . S
C2928 C2930 1.391 . S
C2929 C2928 1.386 . S
C2929 C2933 1.393 . S
C2930 H2922 0.950 . S
C2930 C2928 1.391 . S
C2930 C2931 1.400 . S
C2931 C2930 1.400 . S
C2931 C2932 1.398 . S
C2931 C2937 1.491 . S
C2932 H2923 0.950 . S
C2932 C2931 1.398 . S
C2932 C2933 1.391 . S
C2933 H2921 0.950 . S
C2933 C2929 1.393 . S
C2933 C2932 1.391 . S
C2934 H2924 0.950 . S
C2934 C2935 1.386 . S
C2934 C2936 1.391 . S
C2935 C2934 1.386 . S
C2935 C2939 1.393 . S
C2936 H2925 0.950 . S
C2936 C2934 1.391 . S
C2936 C2937 1.400 . S
C2937 C2931 1.491 . S
C2937 C2936 1.400 . S
C2937 C2938 1.398 . S
C2938 H2926 0.950 . S
C2938 C2937 1.398 . S
C2938 C2939 1.391 . S
C2939 H2927 0.950 . S
C2939 C2935 1.393 . S
C2939 C2938 1.391 . S
H2940 C2948 0.950 . S
H2941 C2953 0.950 . S
H2942 C2950 0.950 . S
H2943 C2952 0.950 . S
H2944 C2954 0.950 . S
H2945 C2956 0.950 . S
H2946 C2958 0.950 . S
H2947 C2959 0.950 . S
C2948 H2940 0.950 . S
C2948 C2949 1.386 . S
C2948 C2950 1.391 . S
C2949 C2948 1.386 . S
C2949 C2953 1.393 . S
C2950 H2942 0.950 . S
C2950 C2948 1.391 . S
C2950 C2951 1.400 . S
C2951 C2950 1.400 . S
C2951 C2952 1.398 . S
C2951 C2957 1.491 . S
C2952 H2943 0.950 . S
C2952 C2951 1.398 . S
C2952 C2953 1.391 . S
C2953 H2941 0.950 . S
C2953 C2949 1.393 . S
C2953 C2952 1.391 . S
C2954 H2944 0.950 . S
C2954 C2955 1.386 . S
C2954 C2956 1.391 . S
C2955 C2954 1.386 . S
C2955 C2959 1.393 . S
C2956 H2945 0.950 . S
C2956 C2954 1.391 . S
C2956 C2957 1.400 . S
C2957 C2951 1.491 . S
C2957 C2956 1.400 . S
C2957 C2958 1.398 . S
C2958 H2946 0.950 . S
C2958 C2957 1.398 . S
C2958 C2959 1.391 . S
C2959 H2947 0.950 . S
C2959 C2955 1.393 . S
C2959 C2958 1.391 . S
H2960 C2968 0.950 . S
H2961 C2973 0.950 . S
H2962 C2970 0.950 . S
H2963 C2972 0.950 . S
H2964 C2974 0.950 . S
H2965 C2976 0.950 . S
H2966 C2978 0.950 . S
H2967 C2979 0.950 . S
C2968 H2960 0.950 . S
C2968 C2969 1.386 . S
C2968 C2970 1.391 . S
C2969 C2968 1.386 . S
C2969 C2973 1.393 . S
C2970 H2962 0.950 . S
C2970 C2968 1.391 . S
C2970 C2971 1.400 . S
C2971 C2970 1.400 . S
C2971 C2972 1.398 . S
C2971 C2977 1.491 . S
C2972 H2963 0.950 . S
C2972 C2971 1.398 . S
C2972 C2973 1.391 . S
C2973 H2961 0.950 . S
C2973 C2969 1.393 . S
C2973 C2972 1.391 . S
C2974 H2964 0.950 . S
C2974 C2975 1.386 . S
C2974 C2976 1.391 . S
C2975 C2974 1.386 . S
C2975 C2979 1.393 . S
C2976 H2965 0.950 . S
C2976 C2974 1.391 . S
C2976 C2977 1.400 . S
C2977 C2971 1.491 . S
C2977 C2976 1.400 . S
C2977 C2978 1.398 . S
C2978 H2966 0.950 . S
C2978 C2977 1.398 . S
C2978 C2979 1.391 . S
C2979 H2967 0.950 . S
C2979 C2975 1.393 . S
C2979 C2978 1.391 . S
H2980 C2988 0.950 . S
H2981 C2993 0.950 . S
H2982 C2990 0.950 . S
H2983 C2992 0.950 . S
H2984 C2994 0.950 . S
H2985 C2996 0.950 . S
H2986 C2998 0.950 . S
H2987 C2999 0.950 . S
C2988 H2980 0.950 . S
C2988 C2989 1.386 . S
C2988 C2990 1.391 . S
C2989 C2988 1.386 . S
C2989 C2993 1.393 . S
C2990 H2982 0.950 . S
C2990 C2988 1.391 . S
C2990 C2991 1.400 . S
C2991 C2990 1.400 . S
C2991 C2992 1.398 . S
C2991 C2997 1.491 . S
C2992 H2983 0.950 . S
C2992 C2991 1.398 . S
C2992 C2993 1.391 . S
C2993 H2981 0.950 . S
C2993 C2989 1.393 . S
C2993 C2992 1.391 . S
C2994 H2984 0.950 . S
C2994 C2995 1.386 . S
C2994 C2996 1.391 . S
C2995 C2994 1.386 . S
C2995 C2999 1.393 . S
C2996 H2985 0.950 . S
C2996 C2994 1.391 . S
C2996 C2997 1.400 . S
C2997 C2991 1.491 . S
C2997 C2996 1.400 . S
C2997 C2998 1.398 . S
C2998 H2986 0.950 . S
C2998 C2997 1.398 . S
C2998 C2999 1.391 . S
C2999 H2987 0.950 . S
C2999 C2995 1.393 . S
C2999 C2998 1.391 . S
H3000 C3008 0.950 . S
H3001 C3013 0.950 . S
H3002 C3010 0.950 . S
H3003 C3012 0.950 . S
H3004 C3014 0.950 . S
H3005 C3016 0.950 . S
H3006 C3018 0.950 . S
H3007 C3019 0.950 . S
C3008 H3000 0.950 . S
C3008 C3009 1.386 . S
C3008 C3010 1.391 . S
C3009 C3008 1.386 . S
C3009 C3013 1.393 . S
C3010 H3002 0.950 . S
C3010 C3008 1.391 . S
C3010 C3011 1.400 . S
C3011 C3010 1.400 . S
C3011 C3012 1.398 . S
C3011 C3017 1.491 . S
C3012 H3003 0.950 . S
C3012 C3011 1.398 . S
C3012 C3013 1.391 . S
C3013 H3001 0.950 . S
C3013 C3009 1.393 . S
C3013 C3012 1.391 . S
C3014 H3004 0.950 . S
C3014 C3015 1.386 . S
C3014 C3016 1.391 . S
C3015 C3014 1.386 . S
C3015 C3019 1.393 . S
C3016 H3005 0.950 . S
C3016 C3014 1.391 . S
C3016 C3017 1.400 . S
C3017 C3011 1.491 . S
C3017 C3016 1.400 . S
C3017 C3018 1.398 . S
C3018 H3006 0.950 . S
C3018 C3017 1.398 . S
C3018 C3019 1.391 . S
C3019 H3007 0.950 . S
C3019 C3015 1.393 . S
C3019 C3018 1.391 . S
H3020 C3028 0.950 . S
H3021 C3033 0.950 . S
H3022 C3030 0.950 . S
H3023 C3032 0.950 . S
H3024 C3034 0.950 . S
H3025 C3036 0.950 . S
H3026 C3038 0.950 . S
H3027 C3039 0.950 . S
C3028 H3020 0.950 . S
C3028 C3029 1.386 . S
C3028 C3030 1.391 . S
C3029 C3028 1.386 . S
C3029 C3033 1.393 . S
C3030 H3022 0.950 . S
C3030 C3028 1.391 . S
C3030 C3031 1.400 . S
C3031 C3030 1.400 . S
C3031 C3032 1.398 . S
C3031 C3037 1.491 . S
C3032 H3023 0.950 . S
C3032 C3031 1.398 . S
C3032 C3033 1.391 . S
C3033 H3021 0.950 . S
C3033 C3029 1.393 . S
C3033 C3032 1.391 . S
C3034 H3024 0.950 . S
C3034 C3035 1.386 . S
C3034 C3036 1.391 . S
C3035 C3034 1.386 . S
C3035 C3039 1.393 . S
C3036 H3025 0.950 . S
C3036 C3034 1.391 . S
C3036 C3037 1.400 . S
C3037 C3031 1.491 . S
C3037 C3036 1.400 . S
C3037 C3038 1.398 . S
C3038 H3026 0.950 . S
C3038 C3037 1.398 . S
C3038 C3039 1.391 . S
C3039 H3027 0.950 . S
C3039 C3035 1.393 . S
C3039 C3038 1.391 . S
H3040 C3048 0.950 . S
H3041 C3053 0.950 . S
H3042 C3050 0.950 . S
H3043 C3052 0.950 . S
H3044 C3054 0.950 . S
H3045 C3056 0.950 . S
H3046 C3058 0.950 . S
H3047 C3059 0.950 . S
C3048 H3040 0.950 . S
C3048 C3049 1.386 . S
C3048 C3050 1.391 . S
C3049 C3048 1.386 . S
C3049 C3053 1.393 . S
C3050 H3042 0.950 . S
C3050 C3048 1.391 . S
C3050 C3051 1.400 . S
C3051 C3050 1.400 . S
C3051 C3052 1.398 . S
C3051 C3057 1.491 . S
C3052 H3043 0.950 . S
C3052 C3051 1.398 . S
C3052 C3053 1.391 . S
C3053 H3041 0.950 . S
C3053 C3049 1.393 . S
C3053 C3052 1.391 . S
C3054 H3044 0.950 . S
C3054 C3055 1.386 . S
C3054 C3056 1.391 . S
C3055 C3054 1.386 . S
C3055 C3059 1.393 . S
C3056 H3045 0.950 . S
C3056 C3054 1.391 . S
C3056 C3057 1.400 . S
C3057 C3051 1.491 . S
C3057 C3056 1.400 . S
C3057 C3058 1.398 . S
C3058 H3046 0.950 . S
C3058 C3057 1.398 . S
C3058 C3059 1.391 . S
C3059 H3047 0.950 . S
C3059 C3055 1.393 . S
C3059 C3058 1.391 . S
H3060 C3068 0.950 . S
H3061 C3073 0.950 . S
H3062 C3070 0.950 . S
H3063 C3072 0.950 . S
H3064 C3074 0.950 . S
H3065 C3076 0.950 . S
H3066 C3078 0.950 . S
H3067 C3079 0.950 . S
C3068 H3060 0.950 . S
C3068 C3069 1.386 . S
C3068 C3070 1.391 . S
C3069 C3068 1.386 . S
C3069 C3073 1.393 . S
C3070 H3062 0.950 . S
C3070 C3068 1.391 . S
C3070 C3071 1.400 . S
C3071 C3070 1.400 . S
C3071 C3072 1.398 . S
C3071 C3077 1.491 . S
C3072 H3063 0.950 . S
C3072 C3071 1.398 . S
C3072 C3073 1.391 . S
C3073 H3061 0.950 . S
C3073 C3069 1.393 . S
C3073 C3072 1.391 . S
C3074 H3064 0.950 . S
C3074 C3075 1.386 . S
C3074 C3076 1.391 . S
C3075 C3074 1.386 . S
C3075 C3079 1.393 . S
C3076 H3065 0.950 . S
C3076 C3074 1.391 . S
C3076 C3077 1.400 . S
C3077 C3071 1.491 . S
C3077 C3076 1.400 . S
C3077 C3078 1.398 . S
C3078 H3066 0.950 . S
C3078 C3077 1.398 . S
C3078 C3079 1.391 . S
C3079 H3067 0.950 . S
C3079 C3075 1.393 . S
C3079 C3078 1.391 . S
H3080 C3088 0.950 . S
H3081 C3093 0.950 . S
H3082 C3090 0.950 . S
H3083 C3092 0.950 . S
H3084 C3094 0.950 . S
H3085 C3096 0.950 . S
H3086 C3098 0.950 . S
H3087 C3099 0.950 . S
C3088 H3080 0.950 . S
C3088 C3089 1.386 . S
C3088 C3090 1.391 . S
C3089 C3088 1.386 . S
C3089 C3093 1.393 . S
C3090 H3082 0.950 . S
C3090 C3088 1.391 . S
C3090 C3091 1.400 . S
C3091 C3090 1.400 . S
C3091 C3092 1.398 . S
C3091 C3097 1.491 . S
C3092 H3083 0.950 . S
C3092 C3091 1.398 . S
C3092 C3093 1.391 . S
C3093 H3081 0.950 . S
C3093 C3089 1.393 . S
C3093 C3092 1.391 . S
C3094 H3084 0.950 . S
C3094 C3095 1.386 . S
C3094 C3096 1.391 . S
C3095 C3094 1.386 . S
C3095 C3099 1.393 . S
C3096 H3085 0.950 . S
C3096 C3094 1.391 . S
C3096 C3097 1.400 . S
C3097 C3091 1.491 . S
C3097 C3096 1.400 . S
C3097 C3098 1.398 . S
C3098 H3086 0.950 . S
C3098 C3097 1.398 . S
C3098 C3099 1.391 . S
C3099 H3087 0.950 . S
C3099 C3095 1.393 . S
C3099 C3098 1.391 . S
H3100 C3108 0.950 . S
H3101 C3113 0.950 . S
H3102 C3110 0.950 . S
H3103 C3112 0.950 . S
H3104 C3114 0.950 . S
H3105 C3116 0.950 . S
H3106 C3118 0.950 . S
H3107 C3119 0.950 . S
C3108 H3100 0.950 . S
C3108 C3109 1.386 . S
C3108 C3110 1.391 . S
C3109 C3108 1.386 . S
C3109 C3113 1.393 . S
C3110 H3102 0.950 . S
C3110 C3108 1.391 . S
C3110 C3111 1.400 . S
C3111 C3110 1.400 . S
C3111 C3112 1.398 . S
C3111 C3117 1.491 . S
C3112 H3103 0.950 . S
C3112 C3111 1.398 . S
C3112 C3113 1.391 . S
C3113 H3101 0.950 . S
C3113 C3109 1.393 . S
C3113 C3112 1.391 . S
C3114 H3104 0.950 . S
C3114 C3115 1.386 . S
C3114 C3116 1.391 . S
C3115 C3114 1.386 . S
C3115 C3119 1.393 . S
C3116 H3105 0.950 . S
C3116 C3114 1.391 . S
C3116 C3117 1.400 . S
C3117 C3111 1.491 . S
C3117 C3116 1.400 . S
C3117 C3118 1.398 . S
C3118 H3106 0.950 . S
C3118 C3117 1.398 . S
C3118 C3119 1.391 . S
C3119 H3107 0.950 . S
C3119 C3115 1.393 . S
C3119 C3118 1.391 . S
H3120 C3128 0.950 . S
H3121 C3133 0.950 . S
H3122 C3130 0.950 . S
H3123 C3132 0.950 . S
H3124 C3134 0.950 . S
H3125 C3136 0.950 . S
H3126 C3138 0.950 . S
H3127 C3139 0.950 . S
C3128 H3120 0.950 . S
C3128 C3129 1.386 . S
C3128 C3130 1.391 . S
C3129 C3128 1.386 . S
C3129 C3133 1.393 . S
C3130 H3122 0.950 . S
C3130 C3128 1.391 . S
C3130 C3131 1.400 . S
C3131 C3130 1.400 . S
C3131 C3132 1.398 . S
C3131 C3137 1.491 . S
C3132 H3123 0.950 . S
C3132 C3131 1.398 . S
C3132 C3133 1.391 . S
C3133 H3121 0.950 . S
C3133 C3129 1.393 . S
C3133 C3132 1.391 . S
C3134 H3124 0.950 . S
C3134 C3135 1.386 . S
C3134 C3136 1.391 . S
C3135 C3134 1.386 . S
C3135 C3139 1.393 . S
C3136 H3125 0.950 . S
C3136 C3134 1.391 . S
C3136 C3137 1.400 . S
C3137 C3131 1.491 . S
C3137 C3136 1.400 . S
C3137 C3138 1.398 . S
C3138 H3126 0.950 . S
C3138 C3137 1.398 . S
C3138 C3139 1.391 . S
C3139 H3127 0.950 . S
C3139 C3135 1.393 . S
C3139 C3138 1.391 . S
H3140 C3148 0.950 . S
H3141 C3153 0.950 . S
H3142 C3150 0.950 . S
H3143 C3152 0.950 . S
H3144 C3154 0.950 . S
H3145 C3156 0.950 . S
H3146 C3158 0.950 . S
H3147 C3159 0.950 . S
C3148 H3140 0.950 . S
C3148 C3149 1.386 . S
C3148 C3150 1.391 . S
C3149 C3148 1.386 . S
C3149 C3153 1.393 . S
C3150 H3142 0.950 . S
C3150 C3148 1.391 . S
C3150 C3151 1.400 . S
C3151 C3150 1.400 . S
C3151 C3152 1.398 . S
C3151 C3157 1.491 . S
C3152 H3143 0.950 . S
C3152 C3151 1.398 . S
C3152 C3153 1.391 . S
C3153 H3141 0.950 . S
C3153 C3149 1.393 . S
C3153 C3152 1.391 . S
C3154 H3144 0.950 . S
C3154 C3155 1.386 . S
C3154 C3156 1.391 . S
C3155 C3154 1.386 . S
C3155 C3159 1.393 . S
C3156 H3145 0.950 . S
C3156 C3154 1.391 . S
C3156 C3157 1.400 . S
C3157 C3151 1.491 . S
C3157 C3156 1.400 . S
C3157 C3158 1.398 . S
C3158 H3146 0.950 . S
C3158 C3157 1.398 . S
C3158 C3159 1.391 . S
C3159 H3147 0.950 . S
C3159 C3155 1.393 . S
C3159 C3158 1.391 . S
H3160 C3168 0.950 . S
H3161 C3173 0.950 . S
H3162 C3170 0.950 . S
H3163 C3172 0.950 . S
H3164 C3174 0.950 . S
H3165 C3176 0.950 . S
H3166 C3178 0.950 . S
H3167 C3179 0.950 . S
C3168 H3160 0.950 . S
C3168 C3169 1.386 . S
C3168 C3170 1.391 . S
C3169 C3168 1.386 . S
C3169 C3173 1.393 . S
C3170 H3162 0.950 . S
C3170 C3168 1.391 . S
C3170 C3171 1.400 . S
C3171 C3170 1.400 . S
C3171 C3172 1.398 . S
C3171 C3177 1.491 . S
C3172 H3163 0.950 . S
C3172 C3171 1.398 . S
C3172 C3173 1.391 . S
C3173 H3161 0.950 . S
C3173 C3169 1.393 . S
C3173 C3172 1.391 . S
C3174 H3164 0.950 . S
C3174 C3175 1.386 . S
C3174 C3176 1.391 . S
C3175 C3174 1.386 . S
C3175 C3179 1.393 . S
C3176 H3165 0.950 . S
C3176 C3174 1.391 . S
C3176 C3177 1.400 . S
C3177 C3171 1.491 . S
C3177 C3176 1.400 . S
C3177 C3178 1.398 . S
C3178 H3166 0.950 . S
C3178 C3177 1.398 . S
C3178 C3179 1.391 . S
C3179 H3167 0.950 . S
C3179 C3175 1.393 . S
C3179 C3178 1.391 . S
H3180 C3188 0.950 . S
H3181 C3193 0.950 . S
H3182 C3190 0.950 . S
H3183 C3192 0.950 . S
H3184 C3194 0.950 . S
H3185 C3196 0.950 . S
H3186 C3198 0.950 . S
H3187 C3199 0.950 . S
C3188 H3180 0.950 . S
C3188 C3189 1.386 . S
C3188 C3190 1.391 . S
C3189 C3188 1.386 . S
C3189 C3193 1.393 . S
C3190 H3182 0.950 . S
C3190 C3188 1.391 . S
C3190 C3191 1.400 . S
C3191 C3190 1.400 . S
C3191 C3192 1.398 . S
C3191 C3197 1.491 . S
C3192 H3183 0.950 . S
C3192 C3191 1.398 . S
C3192 C3193 1.391 . S
C3193 H3181 0.950 . S
C3193 C3189 1.393 . S
C3193 C3192 1.391 . S
C3194 H3184 0.950 . S
C3194 C3195 1.386 . S
C3194 C3196 1.391 . S
C3195 C3194 1.386 . S
C3195 C3199 1.393 . S
C3196 H3185 0.950 . S
C3196 C3194 1.391 . S
C3196 C3197 1.400 . S
C3197 C3191 1.491 . S
C3197 C3196 1.400 . S
C3197 C3198 1.398 . S
C3198 H3186 0.950 . S
C3198 C3197 1.398 . S
C3198 C3199 1.391 . S
C3199 H3187 0.950 . S
C3199 C3195 1.393 . S
C3199 C3198 1.391 . S
C1289 C7 1.072 . S
C1295 C131 1.037 . S
C1309 C11 1.018 . S
C1315 C47 1.076 1_545 S
C1329 C87 1.071 . S
C1335 C51 1.044 . S
C1349 C91 1.012 . S
C1355 C127 1.077 1_565 S
C1369 C211 1.035 . S
C1375 C167 1.073 . S
C1389 C207 1.075 1_545 S
C1395 C251 1.023 . S
C1409 C291 1.051 . S
C1415 C247 1.070 . S
C1429 C171 1.020 . S
C1435 C287 1.075 1_565 S
C1449 C336 1.071 . S
C1455 C442 1.044 . S
C1469 C376 1.077 1_565 S
C1475 C322 1.013 . S
C1489 C416 1.076 . S
C1495 C362 1.015 . S
C1509 C456 1.045 1_545 S
C1515 C402 1.040 . S
C1529 C496 1.073 . S
C1535 C522 1.035 . S
C1549 C536 1.076 1_565 S
C1555 C562 1.019 . S
C1569 C602 1.040 . S
C1575 C576 1.072 . S
C1589 C482 1.013 . S
C1595 C616 1.077 1_545 S
C1609 C647 1.076 . S
C1615 C771 1.016 . S
C1629 C651 1.022 . S
C1635 C687 1.075 . S
C1649 C691 1.023 . S
C1655 C727 1.075 . S
C1669 C767 1.070 . S
C1675 C731 1.052 . S
C1689 C807 1.076 . S
C1695 C851 1.019 . S
C1709 C891 1.022 . S
C1715 C847 1.075 . S
C1729 C887 1.071 . S
C1735 C931 1.044 . S
C1749 C811 1.014 . S
C1755 C927 1.077 . S
C1769 C1082 1.051 . S
C1775 C976 1.070 . S
C1789 C962 1.052 . S
C1795 C1016 1.070 . S
C1809 C1056 1.076 . S
C1815 C1002 1.014 . S
C1829 C1042 1.015 . S
C1835 C1096 1.076 . S
C1849 C1162 1.015 . S
C1855 C1136 1.076 . S
C1869 C1202 1.051 . S
C1875 C1176 1.070 . S
C1889 C1242 1.023 . S
C1895 C1216 1.075 . S
C1909 C1256 1.077 . S
C1915 C1122 1.013 . S
C1929 C1087 1.594 . S
C1935 C10 1.553 . S
C1949 C50 1.532 . S
C1955 C327 1.582 . S
C1969 C90 1.550 . S
C1975 C1007 1.584 . S
C1989 C130 1.555 . S
C1995 C407 1.594 . S
C2009 C170 1.557 . S
C2015 C1167 1.592 . S
C2029 C567 1.589 . S
C2035 C210 1.555 . S
C2049 C1247 1.582 . S
C2055 C250 1.532 . S
C2069 C290 1.553 . S
C2075 C487 1.594 . S
C2089 C339 1.555 . S
C2095 C776 1.588 . S
C2109 C16 1.585 . S
C2115 C379 1.551 . S
C2129 C696 1.584 . S
C2135 C419 1.548 . S
C2149 C96 1.593 . S
C2155 C459 1.548 . S
C2169 C856 1.586 . S
C2175 C499 1.553 . S
C2189 C256 1.582 . S
C2195 C539 1.532 . S
C2209 C579 1.534 . S
C2215 C936 1.579 . S
C2229 C619 1.555 . S
C2235 C176 1.588 . S
C2249 C650 1.555 . S
C2255 C447 1.589 . S
C2269 C690 1.557 . S
C2275 C967 1.591 . S
C2289 C730 1.532 . S
C2295 C367 1.580 . S
C2309 C770 1.543 . S
C2315 C1047 1.581 . S
C2329 C810 1.556 . S
C2335 C527 1.590 . S
C2349 C850 1.532 . S
C2355 C1207 1.581 . S
C2369 C607 1.580 . S
C2375 C890 1.532 . S
C2389 C930 1.540 . S
C2395 C1127 1.589 . S
C2409 C136 1.590 . S
C2415 C979 1.542 . S
C2429 C656 1.594 . S
C2435 C1019 1.554 . S
C2449 C56 1.592 . S
C2455 C1059 1.557 . S
C2469 C736 1.593 . S
C2475 C1099 1.555 . S
C2489 C216 1.582 . S
C2495 C1139 1.532 . S
C2509 C1179 1.556 . S
C2515 C896 1.593 . S
C2529 C1219 1.532 . S
C2535 C296 1.580 . S
C2549 C816 1.583 . S
C2555 C1259 1.548 . S
C2569 C19 0.635 . S
C2575 C179 0.598 . S
C2589 C59 0.635 . S
C2595 C219 0.598 . S
C2609 C99 0.596 . S
C2615 C259 0.626 . S
C2629 C299 0.624 . S
C2635 C139 0.656 . S
C2649 C490 0.598 . S
C2655 C330 0.635 . S
C2669 C530 0.612 . S
C2675 C370 0.599 . S
C2689 C410 0.621 . S
C2695 C570 0.656 . S
C2709 C450 0.606 . S
C2715 C610 0.603 . S
C2729 C659 0.625 . S
C2735 C819 0.596 . S
C2749 C859 0.609 . S
C2755 C699 0.601 . S
C2769 C899 0.655 . S
C2775 C739 0.621 . S
C2789 C939 0.656 . S
C2795 C779 0.633 . S
C2809 C1130 0.653 . S
C2815 C970 0.614 . S
C2829 C1010 0.598 . S
C2835 C1170 0.614 . S
C2849 C1210 0.596 . S
C2855 C1050 0.626 . S
C2869 C1090 0.600 . S
C2875 C1250 0.611 . S
C2889 C282 2.757 . S
C2895 C2 2.758 . S
C2909 C42 2.759 . S
C2915 C162 2.761 . S
C2929 C82 2.758 . S
C2935 C202 2.760 . S
C2949 C242 2.761 . S
C2955 C122 2.760 . S
C2969 C331 2.760 . S
C2975 C611 2.758 . S
C2989 C491 2.758 . S
C2995 C371 2.757 . S
C3009 C531 2.759 . S
C3015 C411 2.761 . S
C3029 C451 2.760 . S
C3035 C571 2.758 . S
C3049 C642 2.757 . S
C3055 C922 2.758 . S
C3069 C802 2.758 . S
C3075 C682 2.759 . S
C3089 C842 2.758 . S
C3095 C722 2.758 . S
C3109 C882 2.759 . S
C3115 C762 2.758 . S
C3129 C971 2.758 . S
C3135 C1251 2.759 . S
C3149 C1131 2.760 . S
C3155 C1011 2.758 . S
C3169 C1051 2.758 . S
C3175 C1171 2.759 . S
C3189 C1211 2.761 . S
C3195 C1091 2.761 . S
