# Generated by pormake.
# Topology bcu-g, (3)-cn, num edge types: 1
# Building blocks:
#     Node 0, Type 0, BuildingBlock: WUSLED_clean_sbu_0, # of connection points: 3
#     Node 1, Type 0, BuildingBlock: WUSLED_clean_sbu_0, # of connection points: 3
#     Node 2, Type 0, BuildingBlock: WUSLED_clean_sbu_0, # of connection points: 3
#     Node 3, Type 0, BuildingBlock: WUSLED_clean_sbu_0, # of connection points: 3
#     Node 4, Type 0, BuildingBlock: WUSLED_clean_sbu_0, # of connection points: 3
#     Node 5, Type 0, BuildingBlock: WUSLED_clean_sbu_0, # of connection points: 3
#     Node 6, Type 0, BuildingBlock: WUSLED_clean_sbu_0, # of connection points: 3
#     Node 7, Type 0, BuildingBlock: WUSLED_clean_sbu_0, # of connection points: 3
#     Node 8, Type 0, BuildingBlock: WUSLED_clean_sbu_0, # of connection points: 3
#     Node 9, Type 0, BuildingBlock: WUSLED_clean_sbu_0, # of connection points: 3
#     Node 10, Type 0, BuildingBlock: WUSLED_clean_sbu_0, # of connection points: 3
#     Node 11, Type 0, BuildingBlock: WUSLED_clean_sbu_0, # of connection points: 3
#     Node 12, Type 0, BuildingBlock: WUSLED_clean_sbu_0, # of connection points: 3
#     Node 13, Type 0, BuildingBlock: WUSLED_clean_sbu_0, # of connection points: 3
#     Node 14, Type 0, BuildingBlock: WUSLED_clean_sbu_0, # of connection points: 3
#     Node 15, Type 0, BuildingBlock: WUSLED_clean_sbu_0, # of connection points: 3
#     Edge 16, Type (0, 0), BuildingBlock: KIFKEQ_clean_linker_1, # of connection points: 2
#     Edge 17, Type (0, 0), BuildingBlock: KIFKEQ_clean_linker_1, # of connection points: 2
#     Edge 18, Type (0, 0), BuildingBlock: KIFKEQ_clean_linker_1, # of connection points: 2
#     Edge 19, Type (0, 0), BuildingBlock: KIFKEQ_clean_linker_1, # of connection points: 2
#     Edge 20, Type (0, 0), BuildingBlock: KIFKEQ_clean_linker_1, # of connection points: 2
#     Edge 21, Type (0, 0), BuildingBlock: KIFKEQ_clean_linker_1, # of connection points: 2
#     Edge 22, Type (0, 0), BuildingBlock: KIFKEQ_clean_linker_1, # of connection points: 2
#     Edge 23, Type (0, 0), BuildingBlock: KIFKEQ_clean_linker_1, # of connection points: 2
#     Edge 24, Type (0, 0), BuildingBlock: KIFKEQ_clean_linker_1, # of connection points: 2
#     Edge 25, Type (0, 0), BuildingBlock: KIFKEQ_clean_linker_1, # of connection points: 2
#     Edge 26, Type (0, 0), BuildingBlock: KIFKEQ_clean_linker_1, # of connection points: 2
#     Edge 27, Type (0, 0), BuildingBlock: KIFKEQ_clean_linker_1, # of connection points: 2
#     Edge 28, Type (0, 0), BuildingBlock: KIFKEQ_clean_linker_1, # of connection points: 2
#     Edge 29, Type (0, 0), BuildingBlock: KIFKEQ_clean_linker_1, # of connection points: 2
#     Edge 30, Type (0, 0), BuildingBlock: KIFKEQ_clean_linker_1, # of connection points: 2
#     Edge 31, Type (0, 0), BuildingBlock: KIFKEQ_clean_linker_1, # of connection points: 2
#     Edge 32, Type (0, 0), BuildingBlock: KIFKEQ_clean_linker_1, # of connection points: 2
#     Edge 33, Type (0, 0), BuildingBlock: KIFKEQ_clean_linker_1, # of connection points: 2
#     Edge 34, Type (0, 0), BuildingBlock: KIFKEQ_clean_linker_1, # of connection points: 2
#     Edge 35, Type (0, 0), BuildingBlock: KIFKEQ_clean_linker_1, # of connection points: 2
#     Edge 36, Type (0, 0), BuildingBlock: KIFKEQ_clean_linker_1, # of connection points: 2
#     Edge 37, Type (0, 0), BuildingBlock: KIFKEQ_clean_linker_1, # of connection points: 2
#     Edge 38, Type (0, 0), BuildingBlock: KIFKEQ_clean_linker_1, # of connection points: 2
#     Edge 39, Type (0, 0), BuildingBlock: KIFKEQ_clean_linker_1, # of connection points: 2
# Relax obj value: 0.203
# Max RMSD: 0.161
# Mean RMSD: 0.115
data_MOF--net-bcu-g--node1-WUSLED_clean_sbu_0--edge1-KIFKEQ_clean_linker_1
_symmetry_space_group_name_H-M    P1
_symmetry_Int_Tables_number       1
_symmetry_cell_setting            triclinic
loop_
_symmetry_equiv_pos_as_xyz
'x, y, z'
_cell_length_a     54.573939
_cell_length_b     54.495528
_cell_length_c     63.782852
_cell_angle_alpha  89.664099
_cell_angle_beta   90.379069
_cell_angle_gamma 90.225443
loop_
_atom_site_label
_atom_site_type_symbol
_atom_site_fract_x
_atom_site_fract_y
_atom_site_fract_z
_atom_type_partial_charge
C0 C 0.58742 0.20102 0.13236 0.0
C1 C 0.57381 0.18006 0.13783 0.0
C2 C 0.55958 0.17587 0.10156 0.0
C3 C 0.55993 0.16766 0.1226 0.0
C4 C 0.57275 0.19737 0.09649 0.0
C5 C 0.58641 0.20979 0.11172 0.0
U6 U 0.61557 0.21231 0.18731 0.0
O7 O 0.65501 0.21223 0.19413 0.0
O8 O 0.63343 0.24573 0.20008 0.0
C9 C 0.65517 0.23538 0.19976 0.0
C10 C 0.60486 0.21253 0.14707 0.0
C11 C 0.67505 0.24394 0.21359 0.0
C12 C 0.71467 0.26427 0.21516 0.0
C13 C 0.69276 0.25937 0.20463 0.0
C14 C 0.70061 0.24024 0.24482 0.0
C15 C 0.71911 0.25417 0.23507 0.0
C16 C 0.67875 0.23478 0.23398 0.0
C17 C 0.58261 0.17528 0.2326 0.0
C18 C 0.5974 0.15363 0.26348 0.0
C19 C 0.55511 0.14896 0.25233 0.0
C20 C 0.55915 0.16559 0.23601 0.0
C21 C 0.57448 0.14193 0.2656 0.0
C22 C 0.60152 0.17012 0.24694 0.0
C23 C 0.58746 0.18599 0.2119 0.0
O24 O 0.59614 0.22879 0.16019 0.0
O25 O 0.62068 0.1975 0.1558 0.0
O26 O 0.60625 0.17704 0.20171 0.0
O27 O 0.58417 0.20967 0.20901 0.0
H28 H 0.57443 0.17293 0.15372 0.0
H29 H 0.54974 0.15148 0.12729 0.0
H30 H 0.57345 0.20416 0.08053 0.0
H31 H 0.59699 0.22579 0.10716 0.0
H32 H 0.72863 0.27513 0.20738 0.0
H33 H 0.69027 0.26652 0.18886 0.0
H34 H 0.70366 0.23252 0.26028 0.0
H35 H 0.66532 0.22271 0.24111 0.0
H36 H 0.61267 0.14853 0.27351 0.0
H37 H 0.53721 0.14048 0.25379 0.0
H38 H 0.54436 0.16936 0.22504 0.0
H39 H 0.61978 0.1774 0.24449 0.0
C40 C 0.66204 0.54301 0.08581 0.0
C41 C 0.66447 0.51745 0.08399 0.0
C42 C 0.6838 0.52286 0.04982 0.0
C43 C 0.6752 0.50741 0.06601 0.0
C44 C 0.6808 0.54833 0.05172 0.0
C45 C 0.67004 0.55824 0.06949 0.0
U46 U 0.63007 0.54592 0.14032 0.0
O47 O 0.64178 0.56919 0.16683 0.0
O48 O 0.60564 0.57542 0.15121 0.0
C49 C 0.62164 0.58225 0.16556 0.0
C50 C 0.65232 0.55486 0.10466 0.0
C51 C 0.61687 0.60268 0.17983 0.0
C52 C 0.6176 0.64634 0.18719 0.0
C53 C 0.62037 0.62697 0.17312 0.0
C54 C 0.60697 0.61732 0.21462 0.0
C55 C 0.61103 0.64169 0.20813 0.0
C56 C 0.61007 0.59794 0.20061 0.0
C57 C 0.60945 0.47939 0.16143 0.0
C58 C 0.58549 0.46028 0.18919 0.0
C59 C 0.6074 0.43509 0.16445 0.0
C60 C 0.61602 0.45609 0.15443 0.0
C61 C 0.59186 0.43678 0.18182 0.0
C62 C 0.59415 0.48156 0.17895 0.0
C63 C 0.61883 0.50034 0.14924 0.0
O64 O 0.62839 0.55529 0.10669 0.0
O65 O 0.66402 0.55049 0.12234 0.0
O66 O 0.6399 0.51032 0.15459 0.0
O67 O 0.60336 0.51546 0.14005 0.0
H68 H 0.65841 0.50538 0.09649 0.0
H69 H 0.67733 0.4877 0.065 0.0
H70 H 0.68679 0.56068 0.0394 0.0
H71 H 0.66825 0.57798 0.07062 0.0
H72 H 0.62062 0.66497 0.18173 0.0
H73 H 0.62571 0.63092 0.15712 0.0
H74 H 0.60207 0.6132 0.23069 0.0
H75 H 0.60744 0.57925 0.20603 0.0
H76 H 0.57358 0.46218 0.20259 0.0
H77 H 0.61324 0.41742 0.15866 0.0
H78 H 0.62789 0.45409 0.141 0.0
H79 H 0.58888 0.49948 0.18458 0.0
C80 C 0.93435 0.16707 0.205 0.0
C81 C 0.92902 0.17744 0.22449 0.0
C82 C 0.88955 0.15618 0.22468 0.0
C83 C 0.90678 0.17186 0.23438 0.0
C84 C 0.89572 0.14494 0.20568 0.0
C85 C 0.9179 0.15034 0.19598 0.0
U86 U 0.99411 0.19936 0.18052 0.0
O87 O 0.98948 0.21268 0.14834 0.0
O88 O 0.0149 0.1824 0.1548 0.0
C89 C 1.00586 0.19767 0.14074 0.0
C90 C 0.95464 0.17568 0.19193 0.0
C91 C 0.02298 0.20888 0.12586 0.0
C92 C 0.03676 0.21155 0.08991 0.0
C93 C 0.02403 0.19921 0.10565 0.0
C94 C 0.0487 0.24298 0.11473 0.0
C95 C 0.0489 0.23385 0.0941 0.0
C96 C 0.03574 0.23062 0.1305 0.0
C97 C 0.02465 0.2392 0.22549 0.0
C98 C 0.05152 0.26669 0.24473 0.0
C99 C 0.00884 0.26287 0.25455 0.0
C100 C 1.00524 0.24535 0.23879 0.0
C101 C 0.03171 0.27459 0.25681 0.0
C102 C 0.04802 0.249 0.22929 0.0
C103 C 0.02052 0.22741 0.20513 0.0
O104 O 0.95448 0.19867 0.18564 0.0
O105 O 0.97659 0.16593 0.19369 0.0
O106 O 0.0246 0.20374 0.20328 0.0
O107 O 1.00186 0.2354 0.19393 0.0
H108 H 0.94148 0.19057 0.23156 0.0
H109 H 0.90249 0.18086 0.24898 0.0
H110 H 0.88305 0.13252 0.19797 0.0
H111 H 0.92167 0.14232 0.18083 0.0
H112 H 0.03605 0.2041 0.07423 0.0
H113 H 0.01403 0.18261 0.10178 0.0
H114 H 0.05815 0.25987 0.11861 0.0
H115 H 0.03499 0.23842 0.14607 0.0
H116 H 0.06931 0.2754 0.24629 0.0
H117 H 0.99331 0.26874 0.26371 0.0
H118 H 0.98704 0.23802 0.23603 0.0
H119 H 0.06318 0.24453 0.21912 0.0
C120 C 0.95241 0.88639 0.08853 0.0
C121 C 0.95185 0.91197 0.08565 0.0
C122 C 0.92851 0.90671 0.05305 0.0
C123 C 0.94003 0.92208 0.06792 0.0
C124 C 0.92976 0.88118 0.056 0.0
C125 C 0.9415 0.87121 0.0735 0.0
U126 U 0.98677 0.87887 0.14295 0.0
O127 O 0.97475 0.85241 0.16717 0.0
O128 O 0.01056 0.84748 0.15146 0.0
C129 C 0.99419 0.83865 0.16457 0.0
C130 C 0.96313 0.8743 0.10713 0.0
C131 C 1.00022 0.81886 0.17954 0.0
C132 C 0.99481 0.7762 0.18997 0.0
C133 C 0.99164 0.7951 0.17531 0.0
C134 C 0.01628 0.80426 0.21303 0.0
C135 C 1.00678 0.78063 0.20916 0.0
C136 C 0.01285 0.82332 0.19836 0.0
C137 C 0.00967 0.94353 0.16724 0.0
C138 C 0.01817 0.96435 0.20014 0.0
C139 C 0.02047 0.98684 0.16732 0.0
C140 C 0.01427 0.96554 0.15646 0.0
C141 C 0.02206 0.98658 0.18926 0.0
C142 C 0.01206 0.94286 0.18917 0.0
C143 C 0.99996 0.92281 0.15498 0.0
O144 O 0.98712 0.87341 0.10871 0.0
O145 O 0.95215 0.8777 0.12512 0.0
O146 O 0.97902 0.91263 0.16035 0.0
O147 O 0.01458 0.9086 0.14417 0.0
H148 H 0.96017 0.92401 0.09714 0.0
H149 H 0.93936 0.94184 0.06613 0.0
H150 H 0.92163 0.86876 0.04471 0.0
H151 H 0.94182 0.85144 0.07542 0.0
H152 H 0.98756 0.75815 0.18643 0.0
H153 H 0.98189 0.79127 0.16083 0.0
H154 H 0.02551 0.80822 0.22771 0.0
H155 H 0.01954 0.84158 0.20189 0.0
H156 H 0.01932 0.96379 0.21709 0.0
H157 H 0.02297 1.00379 0.15863 0.0
H158 H 0.01215 0.96649 0.13957 0.0
H159 H 0.0085 0.92605 0.19778 0.0
C160 C 0.58767 0.20929 0.38799 0.0
C161 C 0.56903 0.2259 0.38265 0.0
C162 C 0.55966 0.23157 0.4198 0.0
C163 C 0.55504 0.23686 0.39844 0.0
C164 C 0.57825 0.21462 0.4248 0.0
C165 C 0.59195 0.20359 0.40909 0.0
U166 U 0.61511 0.20119 0.33229 0.0
O167 O 0.65455 0.20095 0.32613 0.0
O168 O 0.63238 0.16793 0.31912 0.0
C169 C 0.65432 0.17801 0.31991 0.0
C170 C 0.60444 0.19907 0.37238 0.0
C171 C 0.67363 0.17008 0.30553 0.0
C172 C 0.70931 0.14414 0.30117 0.0
C173 C 0.68766 0.14972 0.31159 0.0
C174 C 0.70239 0.17828 0.27744 0.0
C175 C 0.71735 0.15878 0.28436 0.0
C176 C 0.68077 0.18407 0.28807 0.0
C177 C 0.58345 0.23989 0.2871 0.0
C178 C 0.59872 0.26411 0.25788 0.0
C179 C 0.55569 0.26551 0.26685 0.0
C180 C 0.55973 0.2483 0.28275 0.0
C181 C 0.57536 0.27459 0.25499 0.0
C182 C 0.60279 0.24694 0.27395 0.0
C183 C 0.58778 0.22857 0.30773 0.0
O184 O 0.59526 0.18374 0.35853 0.0
O185 O 0.62015 0.21471 0.36434 0.0
O186 O 0.60653 0.23701 0.31858 0.0
O187 O 0.58396 0.20487 0.31009 0.0
H188 H 0.56558 0.23066 0.36638 0.0
H189 H 0.54074 0.24955 0.39388 0.0
H190 H 0.58292 0.2104 0.44093 0.0
H191 H 0.60648 0.19104 0.41351 0.0
H192 H 0.72008 0.12871 0.30666 0.0
H193 H 0.68251 0.1388 0.32513 0.0
H194 H 0.70807 0.18979 0.26448 0.0
H195 H 0.67026 0.19998 0.28325 0.0
H196 H 0.61425 0.27067 0.24894 0.0
H197 H 0.53742 0.27286 0.26472 0.0
H198 H 0.54458 0.24306 0.29275 0.0
H199 H 0.62126 0.24063 0.27708 0.0
C200 C 0.95287 0.5414 0.43045 0.0
C201 C 0.94539 0.51667 0.43086 0.0
C202 C 0.93106 0.52085 0.46704 0.0
C203 C 0.93463 0.5065 0.44894 0.0
C204 C 0.93908 0.54547 0.46652 0.0
C205 C 0.94987 0.55551 0.44854 0.0
U206 U 0.98586 0.53984 0.37709 0.0
O207 O 0.97775 0.55926 0.34739 0.0
O208 O 0.01319 0.5652 0.36334 0.0
C209 C 0.99935 0.57001 0.34688 0.0
C210 C 0.9629 0.55332 0.41131 0.0
C211 C 1.00175 0.59405 0.33611 0.0
C212 C 0.99619 0.63834 0.33296 0.0
C213 C 0.99379 0.61636 0.34459 0.0
C214 C 0.0146 0.61585 0.30458 0.0
C215 C 1.00659 0.63835 0.3127 0.0
C216 C 0.01225 0.59413 0.31613 0.0
C217 C 1.00583 0.47371 0.35982 0.0
C218 C 0.01783 0.45708 0.32607 0.0
C219 C 0.01778 0.43103 0.35696 0.0
C220 C 0.01019 0.45078 0.36902 0.0
C221 C 0.02149 0.43371 0.33526 0.0
C222 C 0.00997 0.47694 0.33827 0.0
C223 C 0.99521 0.49282 0.37318 0.0
O224 O 0.98689 0.55366 0.40957 0.0
O225 O 0.95162 0.54838 0.39354 0.0
O226 O 0.97477 0.50305 0.36663 0.0
O227 O 0.01041 0.50828 0.38224 0.0
H228 H 0.94764 0.50528 0.41714 0.0
H229 H 0.92916 0.48739 0.44871 0.0
H230 H 0.93641 0.55737 0.47983 0.0
H231 H 0.95545 0.57461 0.44862 0.0
H232 H 0.98999 0.6553 0.33986 0.0
H233 H 0.98566 0.61678 0.36002 0.0
H234 H 0.02219 0.61479 0.28897 0.0
H235 H 0.01843 0.57712 0.30923 0.0
H236 H 0.02076 0.45997 0.30947 0.0
H237 H 0.01976 0.41338 0.36463 0.0
H238 H 1.00689 0.44788 0.38559 0.0
H239 H 1.00669 0.49457 0.33085 0.0
C240 C 0.93323 0.24737 0.32061 0.0
C241 C 0.93098 0.23768 0.3004 0.0
C242 C 0.89014 0.25573 0.29696 0.0
C243 C 0.90962 0.24198 0.28858 0.0
C244 C 0.89321 0.26626 0.31687 0.0
C245 C 0.91453 0.26215 0.3285 0.0
U246 U 0.99244 0.21655 0.34675 0.0
O247 O 0.98789 0.20248 0.37865 0.0
O248 O 0.01348 0.23292 0.373 0.0
C249 C 1.00447 0.21722 0.38668 0.0
C250 C 0.95271 0.24002 0.33528 0.0
C251 C 0.02162 0.20548 0.40147 0.0
C252 C 0.03674 0.20277 0.43725 0.0
C253 C 0.02451 0.21568 0.4214 0.0
C254 C 0.04438 0.16958 0.4131 0.0
C255 C 0.04609 0.17914 0.43356 0.0
C256 C 0.03227 0.18266 0.39718 0.0
C257 C 0.02408 0.17753 0.30198 0.0
C258 C 0.04665 0.14544 0.28454 0.0
C259 C 0.0123 0.16482 0.26691 0.0
C260 C 0.00887 0.18007 0.28432 0.0
C261 C 0.03059 0.14649 0.26719 0.0
C262 C 0.04348 0.16088 0.30159 0.0
C263 C 0.01899 0.18919 0.32214 0.0
O264 O 0.95273 0.21705 0.34163 0.0
O265 O 0.97468 0.24991 0.33383 0.0
O266 O 0.02281 0.2129 0.32423 0.0
O267 O 1.0001 0.1808 0.3327 0.0
H268 H 0.94524 0.22612 0.29411 0.0
H269 H 0.90807 0.23393 0.27315 0.0
H270 H 0.87861 0.27659 0.32405 0.0
H271 H 0.91586 0.26953 0.34421 0.0
H272 H 0.03827 0.21111 0.45256 0.0
H273 H 0.01636 0.23325 0.425 0.0
H274 H 0.05121 0.15145 0.4096 0.0
H275 H 0.03014 0.17442 0.38185 0.0
H276 H 0.06072 0.13159 0.28579 0.0
H277 H 0.99999 0.16676 0.25364 0.0
H278 H 0.99386 0.19301 0.28433 0.0
H279 H 0.05538 0.1587 0.31515 0.0
C280 C 0.66197 0.88461 0.43655 0.0
C281 C 0.6657 0.90991 0.43866 0.0
C282 C 0.68483 0.90305 0.47291 0.0
C283 C 0.67698 0.9191 0.45682 0.0
C284 C 0.68077 0.87775 0.47064 0.0
C285 C 0.66943 0.86867 0.45265 0.0
U286 U 0.62956 0.87088 0.38113 0.0
O287 O 0.64471 0.84153 0.3617 0.0
O288 O 0.60934 0.83607 0.37744 0.0
C289 C 0.62616 0.8267 0.36527 0.0
C290 C 0.65162 0.8736 0.41755 0.0
C291 C 0.61792 0.81099 0.34798 0.0
C292 C 0.61117 0.76936 0.3361 0.0
C293 C 0.61605 0.78586 0.35216 0.0
C294 C 0.60875 0.80309 0.31129 0.0
C295 C 0.60766 0.7776 0.31536 0.0
C296 C 0.61398 0.8197 0.3275 0.0
C297 C 0.60461 0.93309 0.35434 0.0
C298 C 0.58681 0.96023 0.32813 0.0
C299 C 0.60314 0.97704 0.36043 0.0
C300 C 0.60951 0.95331 0.36724 0.0
C301 C 0.59177 0.98072 0.34073 0.0
C302 C 0.59316 0.93675 0.33488 0.0
C303 C 0.61133 0.90778 0.35986 0.0
O304 O 0.62773 0.87118 0.41569 0.0
O305 O 0.66318 0.87664 0.3997 0.0
O306 O 0.63429 0.90086 0.35817 0.0
O307 O 0.59873 0.89578 0.37417 0.0
H308 H 0.66017 0.92242 0.42626 0.0
H309 H 0.68003 0.93869 0.45809 0.0
H310 H 0.68625 0.86495 0.48284 0.0
H311 H 0.66672 0.84903 0.4512 0.0
H312 H 0.61119 0.75 0.33997 0.0
H313 H 0.61928 0.77882 0.36786 0.0
H314 H 0.60585 0.81021 0.29559 0.0
H315 H 0.61542 0.83912 0.32399 0.0
H316 H 0.57854 0.96236 0.31274 0.0
H317 H 0.60707 0.99248 0.37054 0.0
H318 H 0.61833 0.95079 0.38236 0.0
H319 H 0.58937 0.92133 0.32469 0.0
C320 C 0.40536 0.02098 0.85673 0.0
C321 C 0.41334 0.01778 0.83602 0.0
C322 C 0.37123 0.00956 0.82426 0.0
C323 C 0.39649 0.01207 0.81998 0.0
C324 C 0.36362 0.01225 0.84521 0.0
C325 C 0.38046 0.01775 0.86117 0.0
U326 U 0.46966 0.02653 0.88149 0.0
O327 O 0.48713 0.05731 0.8983 0.0
O328 O 0.48231 0.02157 0.91423 0.0
C329 C 0.49113 0.04403 0.91524 0.0
C330 C 0.42228 0.0286 0.8738 0.0
C331 C 0.49298 0.0563 0.93577 0.0
C332 C 0.47743 0.08114 0.96441 0.0
C333 C 0.4737 0.0692 0.94508 0.0
C334 C 0.51959 0.06758 0.96487 0.0
C335 C 0.50052 0.08048 0.9746 0.0
C336 C 0.51578 0.05558 0.94589 0.0
C337 C 0.52298 0.99921 0.84872 0.0
C338 C 0.56708 1.00415 0.85322 0.0
C339 C 0.55095 0.97851 0.82542 0.0
C340 C 0.52717 0.98348 0.83189 0.0
C341 C 0.57116 0.98917 0.83568 0.0
C342 C 0.54305 0.00926 0.85967 0.0
C343 C 0.49741 1.00551 0.85337 0.0
O344 O 0.43251 0.01086 0.88478 0.0
O345 O 0.4376 0.04653 0.8693 0.0
O346 O 0.49179 0.02893 0.85289 0.0
O347 O 0.48691 0.99337 0.86874 0.0
H348 H 0.43254 0.01997 0.8322 0.0
H349 H 0.40336 0.00969 0.80425 0.0
H350 H 0.34446 0.01098 0.84933 0.0
H351 H 0.37387 0.02011 0.87701 0.0
H352 H 0.4622 0.09071 0.97139 0.0
H353 H 0.45593 0.07008 0.93746 0.0
H354 H 0.53782 0.06711 0.97162 0.0
H355 H 0.53098 0.04596 0.93886 0.0
H356 H 0.58236 0.01265 0.86137 0.0
H357 H 0.55354 0.96666 0.81204 0.0
H358 H 0.51192 0.97548 0.82333 0.0
H359 H 0.54013 0.02145 0.87276 0.0
C360 C 0.84279 0.34245 0.81643 0.0
C361 C 0.82931 0.33862 0.79789 0.0
C362 C 0.84907 0.29905 0.79366 0.0
C363 C 0.83257 0.31699 0.78645 0.0
C364 C 0.86331 0.30356 0.81158 0.0
C365 C 0.86028 0.32518 0.82281 0.0
U366 U 0.80847 0.40039 0.83603 0.0
O367 O 0.79202 0.40085 0.86719 0.0
O368 O 0.82066 0.42795 0.8593 0.0
C369 C 0.80597 0.41895 0.87373 0.0
C370 C 0.83642 0.36176 0.8313 0.0
C371 C 0.79527 0.43526 0.88936 0.0
C372 C 0.78955 0.44257 0.92643 0.0
C373 C 0.80179 0.43085 0.91029 0.0
C374 C 0.76493 0.4647 0.90088 0.0
C375 C 0.77064 0.45916 0.92193 0.0
C376 C 0.77705 0.45255 0.88458 0.0
C377 C 0.76448 0.42597 0.78942 0.0
C378 C 0.72322 0.43942 0.78114 0.0
C379 C 0.75125 0.4295 0.75316 0.0
C380 C 0.76954 0.42452 0.76796 0.0
C381 C 0.72758 0.43608 0.75961 0.0
C382 C 0.74151 0.43425 0.79595 0.0
C383 C 0.78196 0.41534 0.80443 0.0
O384 O 0.84412 0.38422 0.82746 0.0
O385 O 0.81387 0.36075 0.83825 0.0
O386 O 0.77421 0.39902 0.81814 0.0
O387 O 0.80382 0.42471 0.80812 0.0
H388 H 0.8155 0.35167 0.7929 0.0
H389 H 0.8213 0.31366 0.7727 0.0
H390 H 0.87606 0.28987 0.81737 0.0
H391 H 0.87062 0.32775 0.8372 0.0
H392 H 0.79443 0.43817 0.94251 0.0
H393 H 0.81571 0.41742 0.91424 0.0
H394 H 0.75035 0.47744 0.8971 0.0
H395 H 0.77166 0.45597 0.86846 0.0
H396 H 0.7052 0.44437 0.78667 0.0
H397 H 0.75533 0.42715 0.7367 0.0
H398 H 0.7872 0.41811 0.76267 0.0
H399 H 0.73733 0.43546 0.81249 0.0
C400 C 0.13189 0.34911 0.93123 0.0
C401 C 0.10643 0.3481 0.9341 0.0
C402 C 0.11256 0.32644 0.96741 0.0
C403 C 0.0968 0.33685 0.95217 0.0
C404 C 0.13799 0.32832 0.96452 0.0
C405 C 0.14748 0.33941 0.94663 0.0
U406 U 0.1417 0.38266 0.8764 0.0
O407 O 0.17546 0.40395 0.86975 0.0
O408 O 0.16822 0.36889 0.8536 0.0
C409 C 0.18354 0.38717 0.85682 0.0
C410 C 0.1435 0.35907 0.91232 0.0
C411 C 0.20091 0.39386 0.84017 0.0
C412 C 0.24369 0.39881 0.83062 0.0
C413 C 0.22563 0.39644 0.84588 0.0
C414 C 0.21245 0.39745 0.8035 0.0
C415 C 0.23739 0.3989 0.80925 0.0
C416 C 0.1943 0.39469 0.81888 0.0
C417 C 0.07842 0.4099 0.85169 0.0
C418 C 0.05565 0.42163 0.82039 0.0
C419 C 0.03627 0.42354 0.8544 0.0
C420 C 0.05794 0.4154 0.8639 0.0
C421 C 0.03481 0.4266 0.83253 0.0
C422 C 0.07724 0.41316 0.8299 0.0
C423 C 0.10049 0.39995 0.86188 0.0
O424 O 0.13894 0.34818 0.89439 0.0
O425 O 0.14618 0.38296 0.91076 0.0
O426 O 0.11482 0.41306 0.87417 0.0
O427 O 0.10859 0.37803 0.85701 0.0
H428 H 0.09413 0.35557 0.92232 0.0
H429 H 0.0771 0.33569 0.95391 0.0
H430 H 0.15072 0.32113 0.97609 0.0
H431 H 0.16719 0.34013 0.94468 0.0
H432 H 0.26268 0.40015 0.83554 0.0
H433 H 0.23112 0.39563 0.86224 0.0
H434 H 0.20711 0.39739 0.78712 0.0
H435 H 0.17533 0.39247 0.81415 0.0
H436 H 0.05502 0.42359 0.80348 0.0
H437 H 0.02062 0.42741 0.86419 0.0
H438 H 0.05855 0.41294 0.88076 0.0
H439 H 0.09292 0.40895 0.82025 0.0
C440 C 0.81367 0.9934 0.89049 0.0
C441 C 0.8348 0.97958 0.88681 0.0
C442 C 0.8374 0.96899 0.92413 0.0
C443 C 0.84647 0.96728 0.9035 0.0
C444 C 0.81581 0.98244 0.92739 0.0
C445 C 0.80407 0.99433 0.91076 0.0
U446 U 0.79489 0.03007 0.83796 0.0
O447 O 0.79005 0.06959 0.84185 0.0
O448 O 0.75842 0.04681 0.83309 0.0
C449 C 0.76685 0.0691 0.83641 0.0
C450 C 0.80282 0.00984 0.87468 0.0
C451 C 0.75961 0.08855 0.82163 0.0
C452 C 0.74204 0.12908 0.8174 0.0
C453 C 0.74511 0.10766 0.82917 0.0
C454 C 0.76649 0.11187 0.78955 0.0
C455 C 0.75325 0.13165 0.79778 0.0
C456 C 0.76983 0.09043 0.80151 0.0
C457 C 0.83274 1.00178 0.79096 0.0
C458 C 0.85467 0.99764 0.75829 0.0
C459 C 0.86579 0.9723 0.78818 0.0
C460 C 0.84722 0.9833 0.8 0.0
C461 C 0.87023 0.97992 0.76734 0.0
C462 C 0.83613 0.0083 0.76995 0.0
C463 C 0.81569 0.01681 0.80296 0.0
O464 O 0.81668 0.02734 0.86685 0.0
O465 O 0.7855 1.00194 0.8619 0.0
O466 O 0.82532 0.03301 0.81582 0.0
O467 O 0.79515 1.00689 0.80967 0.0
H468 H 0.84258 0.97884 0.87126 0.0
H469 H 0.86281 0.9568 0.90028 0.0
H470 H 0.80843 0.98477 0.94295 0.0
H471 H 0.78799 1.00527 0.91395 0.0
H472 H 0.7317 0.14408 0.82398 0.0
H473 H 0.73727 0.10658 0.84471 0.0
H474 H 0.77542 0.11358 0.77448 0.0
H475 H 0.78132 0.07591 0.79554 0.0
H476 H 0.85762 1.00448 0.74254 0.0
H477 H 0.87713 0.95843 0.79557 0.0
H478 H 0.84476 0.97803 0.81625 0.0
H479 H 0.82519 0.02269 0.7628 0.0
C480 C 0.40193 0.37724 0.66478 0.0
C481 C 0.41058 0.38521 0.68441 0.0
C482 C 0.36849 0.38861 0.69725 0.0
C483 C 0.39403 0.39089 0.70047 0.0
C484 C 0.36015 0.38078 0.67741 0.0
C485 C 0.37664 0.37531 0.66142 0.0
U486 U 0.46584 0.37427 0.63989 0.0
O487 O 0.48394 0.34422 0.62299 0.0
O488 O 0.47765 0.37974 0.60711 0.0
C489 C 0.48717 0.35766 0.60605 0.0
C490 C 0.41873 0.37022 0.64772 0.0
C491 C 0.48895 0.34548 0.58549 0.0
C492 C 0.47394 0.31914 0.55738 0.0
C493 C 0.47019 0.33105 0.57666 0.0
C494 C 0.51494 0.33612 0.55582 0.0
C495 C 0.49643 0.32158 0.54673 0.0
C496 C 0.5112 0.34789 0.57486 0.0
C497 C 0.51958 0.40322 0.67125 0.0
C498 C 0.56326 0.39589 0.66752 0.0
C499 C 0.54904 0.42793 0.69058 0.0
C500 C 0.52484 0.42225 0.68525 0.0
C501 C 0.5685 0.41455 0.68207 0.0
C502 C 0.53894 0.39033 0.66206 0.0
C503 C 0.49375 0.39644 0.6677 0.0
O504 O 0.42817 0.38836 0.63669 0.0
O505 O 0.43474 0.35301 0.65231 0.0
O506 O 0.48855 0.37288 0.66843 0.0
O507 O 0.48227 0.40816 0.65253 0.0
H508 H 0.43009 0.38692 0.68735 0.0
H509 H 0.40131 0.39714 0.71534 0.0
H510 H 0.34082 0.37818 0.67425 0.0
H511 H 0.36957 0.36914 0.64644 0.0
H512 H 0.45925 0.30816 0.55078 0.0
H513 H 0.45287 0.32887 0.58466 0.0
H514 H 0.53266 0.33803 0.54843 0.0
H515 H 0.526 0.35872 0.58151 0.0
H516 H 0.57793 0.38542 0.6606 0.0
H517 H 0.55246 0.44217 0.70202 0.0
H518 H 0.51012 0.43233 0.69255 0.0
H519 H 0.53524 0.37563 0.6511 0.0
C520 C 0.81683 0.43151 0.629 0.0
C521 C 0.83376 0.45038 0.63293 0.0
C522 C 0.83949 0.45644 0.59513 0.0
C523 C 0.84495 0.46282 0.6161 0.0
C524 C 0.82203 0.43785 0.59153 0.0
C525 C 0.81086 0.42565 0.60823 0.0
U526 U 0.79851 0.39622 0.68255 0.0
O527 O 0.79208 0.35679 0.67901 0.0
O528 O 0.76161 0.38054 0.68792 0.0
C529 C 0.76916 0.35795 0.6849 0.0
C530 C 0.8063 0.4159 0.6456 0.0
C531 C 0.76211 0.3392 0.70042 0.0
C532 C 0.74325 0.29947 0.70676 0.0
C533 C 0.74675 0.32004 0.69397 0.0
C534 C 0.76945 0.3176 0.73332 0.0
C535 C 0.75504 0.29764 0.7264 0.0
C536 C 0.77306 0.33818 0.72038 0.0
C537 C 0.83841 0.42269 0.72999 0.0
C538 C 0.86047 0.42494 0.76302 0.0
C539 C 0.87267 0.45089 0.73389 0.0
C540 C 0.85363 0.441 0.72161 0.0
C541 C 0.87676 0.44237 0.75456 0.0
C542 C 0.84155 0.41528 0.75086 0.0
C543 C 0.82074 0.40873 0.71739 0.0
O544 O 0.81961 0.39794 0.65334 0.0
O545 O 0.78985 0.42458 0.65859 0.0
O546 O 0.8295 0.3924 0.70438 0.0
O547 O 0.80052 0.41943 0.71081 0.0
H548 H 0.83866 0.45513 0.64889 0.0
H549 H 0.85805 0.47724 0.61952 0.0
H550 H 0.81758 0.43199 0.57577 0.0
H551 H 0.79799 0.41096 0.60488 0.0
H552 H 0.73234 0.28446 0.70068 0.0
H553 H 0.73839 0.3204 0.67851 0.0
H554 H 0.77847 0.31708 0.74849 0.0
H555 H 0.78512 0.35279 0.72559 0.0
H556 H 0.86315 0.4175 0.77864 0.0
H557 H 0.88467 0.46453 0.72698 0.0
H558 H 0.85138 0.44694 0.70548 0.0
H559 H 0.83007 0.40098 0.75751 0.0
C560 C 0.13045 0.05588 0.59309 0.0
C561 C 0.10582 0.05179 0.58766 0.0
C562 C 0.11035 0.07854 0.55686 0.0
C563 C 0.09585 0.06299 0.56961 0.0
C564 C 0.13494 0.08251 0.56275 0.0
C565 C 0.14482 0.07119 0.58049 0.0
U566 U 0.13813 0.02073 0.64719 0.0
O567 O 0.17009 0.99719 0.6551 0.0
O568 O 0.16438 0.03253 0.6714 0.0
C569 C 0.17858 0.01346 0.66849 0.0
C570 C 0.14239 0.04489 0.61162 0.0
C571 C 0.19757 1.0074 0.68416 0.0
C572 C 0.24101 1.00582 0.69275 0.0
C573 C 0.22216 0.00823 0.67796 0.0
C574 C 0.21095 1.00039 0.72016 0.0
C575 C 0.23565 1.00222 0.71406 0.0
C576 C 0.192 1.00322 0.70533 0.0
C577 C 0.07302 0.99712 0.67041 0.0
C578 C 0.05098 0.98545 0.70197 0.0
C579 C 0.02957 0.98761 0.66863 0.0
C580 C 0.05136 0.99431 0.65879 0.0
C581 C 0.02898 0.98345 0.69038 0.0
C582 C 0.07286 0.99242 0.69206 0.0
C583 C 0.09475 1.00661 0.65947 0.0
O584 O 0.13895 0.05566 0.62971 0.0
O585 O 0.14327 0.02084 0.61295 0.0
O586 O 0.10891 0.99234 0.64828 0.0
O587 O 0.10451 0.02772 0.66499 0.0
H588 H 0.09441 0.03999 0.59726 0.0
H589 H 0.07692 0.05922 0.56559 0.0
H590 H 0.14666 0.09479 0.55394 0.0
H591 H 0.16385 0.07463 0.5845 0.0
H592 H 0.25983 1.0071 0.68756 0.0
H593 H 0.22682 0.0116 0.6617 0.0
H594 H 0.2063 0.99774 0.7365 0.0
H595 H 0.17311 1.00274 0.71042 0.0
H596 H 0.05108 0.98252 0.71878 0.0
H597 H 0.01309 0.98591 0.65919 0.0
H598 H 0.05115 0.99793 0.64206 0.0
H599 H 0.08944 0.99459 0.70131 0.0
C600 C 0.8441 0.089 0.70335 0.0
C601 C 0.83342 0.09031 0.72326 0.0
C602 C 0.85026 0.13146 0.72787 0.0
C603 C 0.83656 0.11136 0.73547 0.0
C604 C 0.86173 0.12946 0.70826 0.0
C605 C 0.85867 0.10842 0.69615 0.0
U606 U 0.80892 0.03058 0.689 0.0
O607 O 0.78686 0.02633 0.66029 0.0
O608 O 0.81765 1.00076 0.66686 0.0
C609 C 0.80058 0.00826 0.65365 0.0
C610 C 0.83752 0.06939 0.6887 0.0
C611 C 0.79183 0.99271 0.6365 0.0
C612 C 0.78778 0.98777 0.59891 0.0
C613 C 0.79823 0.9996 0.61608 0.0
C614 C 0.76518 0.961 0.62238 0.0
C615 C 0.7707 0.96875 0.60183 0.0
C616 C 0.77558 0.97308 0.63968 0.0
C617 C 0.77034 1.00701 0.73809 0.0
C618 C 0.74009 0.97531 0.74521 0.0
C619 C 0.74695 0.00799 0.77019 0.0
C620 C 0.76504 0.01776 0.75736 0.0
C621 C 0.73378 0.98687 0.76421 0.0
C622 C 0.75817 0.98543 0.73213 0.0
C623 C 0.78756 0.02028 0.7246 0.0
O624 O 0.84561 0.04722 0.69303 0.0
O625 O 0.8145 0.06969 0.68273 0.0
O626 O 0.77836 0.03565 0.71073 0.0
O627 O 0.80778 0.00938 0.71858 0.0
H628 H 0.82192 0.07549 0.72897 0.0
H629 H 0.82776 0.11212 0.75062 0.0
H630 H 0.87208 0.14462 0.70171 0.0
H631 H 0.86675 0.1078 0.6807 0.0
H632 H 0.79267 0.9939 0.58329 0.0
H633 H 0.81072 0.0148 0.61338 0.0
H634 H 0.75202 0.94641 0.62505 0.0
H635 H 0.77036 0.96767 0.6554 0.0
H636 H 0.73072 0.9588 0.74019 0.0
H637 H 0.74254 0.01794 0.78429 0.0
H638 H 0.77431 0.03447 0.76217 0.0
H639 H 0.76219 0.97683 0.71729 0.0
H640 H 0.58885 0.13649 0.30658 0.0
H641 H 0.55488 0.09773 0.25516 0.0
H642 H 0.58953 0.09854 0.32718 0.0
H643 H 0.55626 0.05978 0.27525 0.0
H644 H 0.55049 0.99575 0.31964 0.0
H645 H 0.5426 0.03572 0.30374 0.0
H646 H 0.61246 0.06191 0.32704 0.0
H647 H 0.62006 0.02212 0.34319 0.0
C648 C 0.58137 0.11988 0.29979 0.0
C649 C 0.5719 0.12004 0.2793 0.0
C650 C 0.58188 0.0981 0.31149 0.0
C651 C 0.57328 0.07594 0.30281 0.0
C652 C 0.56279 0.07644 0.28262 0.0
C653 C 0.56202 0.09825 0.27105 0.0
C654 C 0.56408 0.01012 0.32147 0.0
C655 C 0.58593 1.00573 0.3327 0.0
C656 C 0.55959 0.03305 0.31231 0.0
C657 C 0.57688 0.05216 0.31406 0.0
C658 C 0.59846 0.04787 0.3257 0.0
C659 C 0.60288 0.025 0.33497 0.0
H660 H 0.57578 0.39467 0.16304 0.0
H661 H 0.58874 0.42664 0.22393 0.0
H662 H 0.56792 0.35496 0.17945 0.0
H663 H 0.58062 0.38689 0.24039 0.0
H664 H 0.55056 0.31593 0.26552 0.0
H665 H 0.54976 0.35512 0.24709 0.0
H666 H 0.5935 0.32435 0.19762 0.0
H667 H 0.59384 0.2848 0.21592 0.0
C668 C 0.57679 0.39326 0.17996 0.0
C669 C 0.58326 0.41378 0.19217 0.0
C670 C 0.5723 0.37048 0.18934 0.0
C671 C 0.57393 0.36768 0.21118 0.0
C672 C 0.57904 0.38847 0.2235 0.0
C673 C 0.58366 0.41129 0.21409 0.0
C674 C 0.55951 0.3173 0.25045 0.0
C675 C 0.57232 0.29723 0.24217 0.0
C676 C 0.55929 0.33989 0.24002 0.0
C677 C 0.57179 0.34297 0.22103 0.0
C678 C 0.5836 0.32258 0.21221 0.0
C679 C 0.58396 0.29996 0.22273 0.0
H680 H 0.04482 0.31903 0.24169 0.0
H681 H 0.02299 0.28205 0.2986 0.0
H682 H 0.04544 0.35827 0.26005 0.0
H683 H 0.02406 0.32144 0.31722 0.0
H684 H 0.0506 0.39445 0.34616 0.0
H685 H 0.05507 0.35578 0.32759 0.0
H686 H 0.01155 0.38432 0.27637 0.0
H687 H 1.00597 0.42264 0.29525 0.0
C688 C 0.04053 0.31933 0.25825 0.0
C689 C 0.03391 0.29762 0.26881 0.0
C690 C 0.04075 0.34176 0.26869 0.0
C691 C 0.03474 0.3429 0.29001 0.0
C692 C 0.02889 0.32104 0.30078 0.0
C693 C 0.02818 0.29858 0.29019 0.0
C694 C 0.04181 0.39254 0.331 0.0
C695 C 0.02752 0.41169 0.32244 0.0
C696 C 0.04448 0.37036 0.32036 0.0
C697 C 0.03342 0.36697 0.30068 0.0
C698 C 0.02033 0.38649 0.29153 0.0
C699 C 0.01729 0.40854 0.30232 0.0
H700 H 0.07041 0.12011 0.25295 0.0
H701 H 0.9919 0.12683 0.24498 0.0
H702 H 0.06936 0.08163 0.23395 0.0
H703 H 0.99138 0.08965 0.22447 0.0
H704 H 0.99137 1.00696 0.21739 0.0
H705 H 0.99445 0.04735 0.23346 0.0
H706 H 0.0631 0.06007 0.20167 0.0
H707 H 0.05991 0.01934 0.18576 0.0
C708 C 0.05294 0.11369 0.24696 0.0
C709 C 0.03111 0.12647 0.25123 0.0
C710 C 0.05243 0.09168 0.23576 0.0
C711 C 0.03016 0.08212 0.22814 0.0
C712 C 0.00875 0.09602 0.23072 0.0
C713 C 0.00916 0.11776 0.24221 0.0
C714 C 1.00727 0.01829 0.21413 0.0
C715 C 0.0255 0.01003 0.20054 0.0
C716 C 0.00889 0.0416 0.22304 0.0
C717 C 0.02887 0.0572 0.21865 0.0
C718 C 0.04748 0.04859 0.20543 0.0
C719 C 0.04569 0.02531 0.19632 0.0
H720 H 0.69082 0.96582 0.75009 0.0
H721 H 0.72689 0.98994 0.80698 0.0
H722 H 0.65283 0.96125 0.76902 0.0
H723 H 0.68819 0.98808 0.82528 0.0
H724 H 0.61395 0.97623 0.85606 0.0
H725 H 0.65415 0.96927 0.84028 0.0
H726 H 0.62416 0.98927 0.7796 0.0
H727 H 0.58439 0.99504 0.7952 0.0
C728 C 0.69088 0.9699 0.76667 0.0
C729 C 0.71199 0.97908 0.77671 0.0
C730 C 0.6688 0.96777 0.7775 0.0
C731 C 0.66701 0.97536 0.79851 0.0
C732 C 0.68859 0.98234 0.80907 0.0
C733 C 0.71084 0.98382 0.79839 0.0
C734 C 0.61613 0.97902 0.83935 0.0
C735 C 0.59601 0.9859 0.82681 0.0
C736 C 0.63914 0.97506 0.83026 0.0
C737 C 0.6425 0.97825 0.8085 0.0
C738 C 0.62232 0.98566 0.79622 0.0
C739 C 0.59944 0.98926 0.80521 0.0
H740 H 0.60211 0.3806 0.69458 0.0
H741 H 0.59195 0.45867 0.68715 0.0
H742 H 0.64195 0.38781 0.71073 0.0
H743 H 0.63227 0.46603 0.7028 0.0
H744 H 0.68883 0.46809 0.75748 0.0
H745 H 0.65177 0.464 0.73623 0.0
H746 H 0.68273 0.4008 0.70565 0.0
H747 H 0.71906 0.40414 0.72759 0.0
C748 C 0.60869 0.3993 0.69594 0.0
C749 C 0.59392 0.41905 0.6896 0.0
C750 C 0.63159 0.40349 0.70518 0.0
C751 C 0.64043 0.42755 0.70811 0.0
C752 C 0.62593 0.44729 0.70112 0.0
C753 C 0.60289 0.44309 0.69206 0.0
C754 C 0.68773 0.45341 0.74613 0.0
C755 C 0.70683 0.43634 0.74439 0.0
C756 C 0.66657 0.45119 0.73377 0.0
C757 C 0.66406 0.43184 0.71937 0.0
C758 C 0.68377 0.41562 0.71686 0.0
C759 C 0.70484 0.41778 0.72924 0.0
H760 H 0.98901 0.40916 0.84096 0.0
H761 H 0.0276 0.46033 0.80104 0.0
H762 H 0.95075 0.41907 0.82314 0.0
H763 H 0.9891 0.47056 0.78324 0.0
H764 H 0.92312 0.44915 0.73932 0.0
H765 H 0.96113 0.45021 0.75929 0.0
H766 H 0.92015 0.45046 0.81698 0.0
H767 H 0.88198 0.4498 0.79698 0.0
C768 C 0.98923 0.42289 0.82862 0.0
C769 C 0.01134 0.43391 0.82237 0.0
C770 C 0.96725 0.42867 0.81844 0.0
C771 C 0.9668 0.4457 0.80179 0.0
C772 C 0.98884 0.45717 0.79586 0.0
C773 C 0.01089 0.4513 0.80601 0.0
C774 C 0.9221 0.45026 0.75623 0.0
C775 C 0.89941 0.44888 0.7665 0.0
C776 C 0.94399 0.45078 0.76772 0.0
C777 C 0.94372 0.44985 0.78975 0.0
C778 C 0.92102 0.45052 0.80002 0.0
C779 C 0.89913 0.45016 0.78854 0.0
H780 H 0.87512 0.97201 0.72498 0.0
H781 H 0.91611 0.97013 0.78321 0.0
H782 H 0.91318 0.96882 0.70552 0.0
H783 H 0.95395 0.96612 0.7637 0.0
H784 H 0.01897 0.94977 0.72148 0.0
H785 H 0.97986 0.94279 0.73925 0.0
H786 H 0.94637 0.99897 0.70071 0.0
H787 H 0.98515 1.00591 0.68311 0.0
C788 C 0.89215 0.97059 0.73369 0.0
C789 C 0.89246 0.97198 0.75573 0.0
C790 C 0.91398 0.96869 0.7225 0.0
C791 C 0.93663 0.96771 0.73306 0.0
C792 C 0.93681 0.96683 0.75508 0.0
C793 C 0.91499 0.96903 0.76629 0.0
C794 C 1.00322 0.96059 0.71684 0.0
C795 C 1.00519 0.97838 0.70088 0.0
C796 C 0.98083 0.95654 0.72695 0.0
C797 C 0.95996 0.97021 0.72131 0.0
C798 C 0.96191 0.98773 0.70514 0.0
C799 C 0.98421 0.99176 0.69508 0.0
H800 H 0.4808 0.1239 0.98912 0.0
H801 H 0.53123 0.06633 1.00678 0.0
H802 H 0.49115 0.14578 0.02112 0.0
H803 H 0.54337 0.08917 0.03736 0.0
H804 H 0.55386 0.12574 0.09857 0.0
H805 H 0.53572 0.10246 0.07021 0.0
H806 H 0.52034 0.16994 0.0367 0.0
H807 H 0.53624 0.19323 0.06603 0.0
C808 C 0.49404 0.1158 0.99977 0.0
C809 C 0.50534 0.09336 0.99497 0.0
C810 C 0.50036 0.12864 0.01807 0.0
C811 C 0.51842 0.1196 0.032 0.0
C812 C 0.52918 0.09684 0.02741 0.0
C813 C 0.52252 0.08383 1.00943 0.0
C814 C 0.54602 0.13573 0.08545 0.0
C815 C 0.54682 0.16153 0.08471 0.0
C816 C 0.53598 0.12225 0.06883 0.0
C817 C 0.52682 0.13409 0.05071 0.0
C818 C 0.52694 0.15993 0.05029 0.0
C819 C 0.53655 0.17341 0.06708 0.0
H820 H 0.74746 0.43295 0.952 0.0
H821 H 0.76128 0.5072 0.93137 0.0
H822 H 0.72607 0.44817 0.98265 0.0
H823 H 0.73942 0.52271 0.96202 0.0
H824 H 0.72539 0.54 0.03122 0.0
H825 H 0.74499 0.52519 0.99957 0.0
H826 H 0.68973 0.46855 0.994 0.0
H827 H 0.67028 0.48328 0.02593 0.0
C828 C 0.74569 0.45259 0.95402 0.0
C829 C 0.75603 0.46894 0.93943 0.0
C830 C 0.73329 0.46133 0.97148 0.0
C831 C 0.73103 0.48666 0.97486 0.0
C832 C 0.74105 0.50307 0.96001 0.0
C833 C 0.75334 0.49426 0.94238 0.0
C834 C 0.71735 0.52445 0.02318 0.0
C835 C 0.69621 0.51287 0.03104 0.0
C836 C 0.72853 0.51603 1.00497 0.0
C837 C 0.71884 0.4958 0.9941 0.0
C838 C 0.69783 0.48403 1.00208 0.0
C839 C 0.68668 0.49242 0.02039 0.0
H840 H 0.05025 0.2839 0.08826 0.0
H841 H 0.07335 0.2159 0.06011 0.0
H842 H 0.0663 0.30656 0.05835 0.0
H843 H 0.08736 0.23822 0.02958 0.0
H844 H 0.13056 0.28444 0.98504 0.0
H845 H 0.11728 0.26368 0.01656 0.0
H846 H 0.05826 0.31578 0.02292 0.0
H847 H 0.0729 0.33782 0.99199 0.0
C848 C 0.05886 0.27375 0.07579 0.0
C849 C 0.06036 0.24798 0.07664 0.0
C850 C 0.06767 0.28675 0.0584 0.0
C851 C 0.07796 0.27431 0.04134 0.0
C852 C 0.07986 0.24859 0.04243 0.0
C853 C 0.07143 0.23567 0.0599 0.0
C854 C 0.11496 0.29176 0.9933 0.0
C855 C 0.10298 0.31301 0.98604 0.0
C856 C 0.10706 0.27956 0.01129 0.0
C857 C 0.08659 0.2879 0.0224 0.0
C858 C 0.07432 0.30898 0.015 0.0
C859 C 0.08246 0.32143 0.99705 0.0
H860 H 0.88726 0.96468 0.93 0.0
H861 H 0.81821 0.94883 0.96012 0.0
H862 H 0.90903 0.94953 0.96083 0.0
H863 H 0.83989 0.93559 0.9914 0.0
H864 H 0.88473 0.89073 0.03723 0.0
H865 H 0.86363 0.90426 1.00571 0.0
H866 H 0.91911 0.95993 0.99597 0.0
H867 H 0.94105 0.94532 0.02713 0.0
C868 C 0.87665 0.95787 0.94309 0.0
C869 C 0.85087 0.95815 0.94244 0.0
C870 C 0.8892 0.94959 0.96099 0.0
C871 C 0.87632 0.94154 0.97881 0.0
C872 C 0.85055 0.94142 0.978 0.0
C873 C 0.83804 0.94939 0.96005 0.0
C874 C 0.8926 0.90574 0.02829 0.0
C875 C 0.91477 0.91676 0.03464 0.0
C876 C 0.88028 0.91373 1.01028 0.0
C877 C 0.88959 0.93321 0.99813 0.0
C878 C 0.91155 0.94461 1.0047 0.0
C879 C 0.92398 0.93649 0.02275 0.0
H880 H 0.52048 0.33961 0.51239 0.0
H881 H 0.48369 0.27457 0.53519 0.0
H882 H 0.53318 0.31772 0.48136 0.0
H883 H 0.49519 0.25286 0.50339 0.0
H884 H 0.54628 0.21305 0.45832 0.0
H885 H 0.52906 0.23487 0.48769 0.0
H886 H 0.52295 0.30026 0.44937 0.0
H887 H 0.54217 0.27898 0.42049 0.0
C888 C 0.51485 0.32065 0.51067 0.0
C889 C 0.50129 0.30882 0.52649 0.0
C890 C 0.52189 0.30811 0.49264 0.0
C891 C 0.51539 0.28334 0.4897 0.0
C892 C 0.50097 0.27176 0.50517 0.0
C893 C 0.49403 0.28432 0.52332 0.0
C894 C 0.54155 0.23217 0.45614 0.0
C895 C 0.54612 0.24424 0.43696 0.0
C896 C 0.53119 0.24465 0.47299 0.0
C897 C 0.52464 0.26951 0.47113 0.0
C898 C 0.52818 0.28129 0.45165 0.0
C899 C 0.53888 0.2689 0.43487 0.0
H900 H 0.8212 0.46831 0.55604 0.0
H901 H 0.8879 0.47038 0.59281 0.0
H902 H 0.84344 0.48329 0.52563 0.0
H903 H 0.91019 0.48532 0.56239 0.0
H904 H 0.93985 0.5317 0.50862 0.0
H905 H 0.91738 0.51801 0.53924 0.0
H906 H 0.87211 0.47173 0.50005 0.0
H907 H 0.8935 0.48674 0.46917 0.0
C908 C 0.84065 0.47186 0.55767 0.0
C909 C 0.8527 0.4679 0.57699 0.0
C910 C 0.85349 0.48042 0.54012 0.0
C911 C 0.87881 0.48535 0.5413 0.0
C912 C 0.8907 0.48204 0.56078 0.0
C913 C 0.87785 0.47348 0.57835 0.0
C914 C 0.92491 0.51885 0.50638 0.0
C915 C 0.91848 0.51067 0.48615 0.0
C916 C 0.91217 0.51067 0.52412 0.0
C917 C 0.8927 0.49379 0.52231 0.0
C918 C 0.88664 0.48509 0.50216 0.0
C919 C 0.89927 0.49344 0.48437 0.0
H920 H 0.06318 0.09493 0.54963 0.0
H921 H 0.13423 0.09073 0.52031 0.0
H922 H 0.04753 0.11698 0.51938 0.0
H923 H 0.11952 0.11533 0.49142 0.0
H924 H 0.08381 0.14559 0.43313 0.0
H925 H 0.09779 0.11933 0.46154 0.0
H926 H 0.04606 0.15375 0.50318 0.0
H927 H 0.03046 0.17791 0.47431 0.0
C928 C 0.07556 0.09868 0.53682 0.0
C929 C 0.10016 0.09113 0.53779 0.0
C930 C 0.06667 0.11192 0.51951 0.0
C931 C 0.08223 0.11857 0.50283 0.0
C932 C 0.1067 0.11056 0.50365 0.0
C933 C 0.11537 0.09675 0.52064 0.0
C934 C 0.07515 0.14727 0.44827 0.0
C935 C 0.05597 0.16402 0.45127 0.0
C936 C 0.08347 0.13241 0.46479 0.0
C937 C 0.07318 0.13415 0.48496 0.0
C938 C 0.05425 0.15123 0.48795 0.0
C939 C 0.0456 0.16566 0.47135 0.0
H940 H 0.72526 0.88427 0.49275 0.0
H941 H 0.67246 0.94289 0.49631 0.0
H942 H 0.74549 0.89941 0.52435 0.0
H943 H 0.69247 0.95789 0.52804 0.0
H944 H 0.75016 0.99396 0.56939 0.0
H945 H 0.72969 0.97774 0.53848 0.0
H946 H 0.74032 0.90394 0.5619 0.0
H947 H 0.76161 0.92035 0.59274 0.0
C948 C 0.71785 0.90028 0.5004 0.0
C949 C 0.69729 0.91245 0.49201 0.0
C950 C 0.7294 0.9089 0.51855 0.0
C951 C 0.72063 0.92987 0.52874 0.0
C952 C 0.69997 0.94193 0.52039 0.0
C953 C 0.68849 0.93337 0.5022 0.0
C954 C 0.7483 0.97425 0.56788 0.0
C955 C 0.75764 0.9584 0.58341 0.0
C956 C 0.73629 0.96495 0.55026 0.0
C957 C 0.73327 0.93954 0.54771 0.0
C958 C 0.74253 0.92362 0.5633 0.0
C959 C 0.75451 0.93298 0.58104 0.0
H960 H 0.86673 0.2199 0.27455 0.0
H961 H 0.85814 0.29476 0.29521 0.0
H962 H 0.82572 0.22064 0.2597 0.0
H963 H 0.81678 0.29539 0.2804 0.0
H964 H 0.734 0.27521 0.27209 0.0
H965 H 0.77599 0.27727 0.28621 0.0
H966 H 0.80214 0.23858 0.23184 0.0
H967 H 0.76046 0.2365 0.21806 0.0
C968 C 0.85633 0.23672 0.27557 0.0
C969 C 0.86592 0.25727 0.28607 0.0
C970 C 0.83267 0.23711 0.26712 0.0
C971 C 0.81787 0.25806 0.26889 0.0
C972 C 0.82753 0.27881 0.27905 0.0
C973 C 0.85129 0.27845 0.28748 0.0
C974 C 0.74883 0.26714 0.26331 0.0
C975 C 0.74413 0.25562 0.24409 0.0
C976 C 0.77286 0.26849 0.27124 0.0
C977 C 0.79245 0.25797 0.2602 0.0
C978 C 0.78752 0.24658 0.24091 0.0
C979 C 0.76368 0.24549 0.23294 0.0
H980 H 0.62416 0.78037 0.2747 0.0
H981 H 0.58395 0.733 0.31694 0.0
H982 H 0.62264 0.74874 0.24813 0.0
H983 H 0.58472 0.70057 0.2913 0.0
H984 H 0.57419 0.65039 0.2359 0.0
H985 H 0.57075 0.68432 0.26039 0.0
H986 H 0.64102 0.71214 0.23977 0.0
H987 H 0.64361 0.67892 0.21464 0.0
C988 C 0.61486 0.76332 0.27836 0.0
C989 C 0.60449 0.7593 0.29821 0.0
C990 C 0.61443 0.74487 0.26319 0.0
C991 C 0.60401 0.72172 0.26756 0.0
C992 C 0.59282 0.71807 0.28714 0.0
C993 C 0.59277 0.73667 0.30209 0.0
C994 C 0.58882 0.66386 0.23663 0.0
C995 C 0.60905 0.66215 0.22326 0.0
C996 C 0.58696 0.6833 0.25076 0.0
C997 C 0.60553 0.70127 0.25212 0.0
C998 C 0.62596 0.69921 0.23887 0.0
C999 C 0.62758 0.68003 0.22451 0.0
H1000 H 0.84632 0.15669 0.20315 0.0
H1001 H 0.87608 0.14876 0.26551 0.0
H1002 H 0.80573 0.15333 0.21635 0.0
H1003 H 0.83556 0.14668 0.27958 0.0
H1004 H 0.7599 0.14748 0.30497 0.0
H1005 H 0.80001 0.14285 0.29101 0.0
H1006 H 0.77089 0.15827 0.22865 0.0
H1007 H 0.73076 0.16125 0.24309 0.0
C1008 C 0.84404 0.15408 0.21987 0.0
C1009 C 0.86448 0.15309 0.23328 0.0
C1010 C 0.82031 0.15249 0.22778 0.0
C1011 C 0.81597 0.15022 0.24955 0.0
C1012 C 0.83688 0.14856 0.26282 0.0
C1013 C 0.86065 0.14996 0.25479 0.0
C1014 C 0.76215 0.14939 0.28818 0.0
C1015 C 0.74203 0.15483 0.27519 0.0
C1016 C 0.78567 0.14711 0.27992 0.0
C1017 C 0.79015 0.1506 0.25828 0.0
C1018 C 0.76949 0.15542 0.24531 0.0
C1019 C 0.74594 0.15743 0.25362 0.0
H1020 H 0.04671 0.76456 0.23187 0.0
H1021 H 0.96924 0.7521 0.22308 0.0
H1022 H 0.04794 0.73152 0.25818 0.0
H1023 H 0.97037 0.71919 0.24906 0.0
H1024 H 0.97398 0.67674 0.30984 0.0
H1025 H 0.97531 0.71208 0.28629 0.0
H1026 H 0.04402 0.68688 0.26131 0.0
H1027 H 0.0433 0.65212 0.28548 0.0
C1028 C 0.02995 0.75484 0.23565 0.0
C1029 C 0.00789 0.7609 0.22541 0.0
C1030 C 0.03065 0.7358 0.2506 0.0
C1031 C 0.0092 0.72271 0.25589 0.0
C1032 C 0.98717 0.72903 0.24568 0.0
C1033 C 0.98655 0.74776 0.23061 0.0
C1034 C 0.98963 0.6789 0.29965 0.0
C1035 C 0.00839 0.66125 0.29957 0.0
C1036 C 0.99024 0.69907 0.2859 0.0
C1037 C 0.00962 0.70225 0.27166 0.0
C1038 C 0.02883 0.68514 0.27207 0.0
C1039 C 0.02823 0.66497 0.28582 0.0
H1040 H 0.244 0.96833 0.74522 0.0
H1041 H 0.27291 0.03511 0.71845 0.0
H1042 H 0.27787 0.96727 0.77035 0.0
H1043 H 0.30578 0.03527 0.74421 0.0
H1044 H 0.37283 0.02494 0.78289 0.0
H1045 H 0.34186 0.02042 0.75591 0.0
H1046 H 0.29512 0.98225 0.79994 0.0
H1047 H 0.32719 0.98437 0.82614 0.0
C1048 C 0.25752 0.98294 0.7449 0.0
C1049 C 0.25588 1.00172 0.72982 0.0
C1050 C 0.27696 0.98249 0.75942 0.0
C1051 C 0.29499 1.00117 0.75956 0.0
C1052 C 0.29295 0.0201 0.74448 0.0
C1053 C 0.27387 0.0202 0.72973 0.0
C1054 C 0.35626 0.01499 0.78677 0.0
C1055 C 0.3527 1.00535 0.80706 0.0
C1056 C 0.33806 0.01284 0.77126 0.0
C1057 C 0.31538 1.00144 0.77558 0.0
C1058 C 0.31216 0.99109 0.79567 0.0
C1059 C 0.33058 0.99275 0.81102 0.0
H1060 H 0.88896 0.16357 0.73166 0.0
H1061 H 0.81345 0.15325 0.75002 0.0
H1062 H 0.88895 0.20417 0.74754 0.0
H1063 H 0.81377 0.1935 0.76628 0.0
H1064 H 0.83214 0.25701 0.81073 0.0
H1065 H 0.83325 0.21577 0.79588 0.0
H1066 H 0.86855 0.24475 0.74053 0.0
H1067 H 0.86721 0.28616 0.75552 0.0
C1068 C 0.87238 0.16989 0.73908 0.0
C1069 C 0.85118 0.1551 0.73944 0.0
C1070 C 0.8724 0.19316 0.74816 0.0
C1071 C 0.85131 0.20207 0.758 0.0
C1072 C 0.83036 0.18705 0.75895 0.0
C1073 C 0.83025 0.16388 0.74972 0.0
C1074 C 0.84007 0.25445 0.79537 0.0
C1075 C 0.84952 0.27452 0.78414 0.0
C1076 C 0.84066 0.23094 0.78687 0.0
C1077 C 0.851 0.22705 0.76706 0.0
C1078 C 0.86065 0.24721 0.7559 0.0
C1079 C 0.85974 0.27084 0.76433 0.0
H1080 H 0.27789 0.36999 0.80791 0.0
H1081 H 0.24129 0.42838 0.77447 0.0
H1082 H 0.30991 0.36948 0.78171 0.0
H1083 H 0.27408 0.42913 0.7487 0.0
H1084 H 0.32177 0.40733 0.69387 0.0
H1085 H 0.29094 0.41032 0.72069 0.0
H1086 H 0.34391 0.38677 0.76728 0.0
H1087 H 0.37408 0.38134 0.73998 0.0
C1088 C 0.27694 0.38301 0.79504 0.0
C1089 C 0.25705 0.39918 0.79321 0.0
C1090 C 0.29549 0.38291 0.78001 0.0
C1091 C 0.29497 0.39932 0.76286 0.0
C1092 C 0.27511 0.41579 0.76129 0.0
C1093 C 0.25627 0.41552 0.77614 0.0
C1094 C 0.32686 0.40236 0.70976 0.0
C1095 C 0.3505 0.39351 0.71445 0.0
C1096 C 0.30913 0.40457 0.72538 0.0
C1097 C 0.31453 0.39857 0.7464 0.0
C1098 C 0.33859 0.39095 0.75129 0.0
C1099 C 0.35621 0.38826 0.73556 0.0
H1100 H 0.77139 0.17406 0.8132 0.0
H1101 H 0.73519 0.14365 0.75891 0.0
H1102 H 0.77119 0.21466 0.79681 0.0
H1103 H 0.73475 0.1845 0.74236 0.0
H1104 H 0.71589 0.26598 0.7306 0.0
H1105 H 0.71539 0.22572 0.74746 0.0
H1106 H 0.79058 0.23593 0.76702 0.0
H1107 H 0.79146 0.2758 0.74976 0.0
C1108 C 0.76335 0.17618 0.79772 0.0
C1109 C 0.75327 0.15588 0.78727 0.0
C1110 C 0.76332 0.19935 0.78831 0.0
C1111 C 0.75291 0.2028 0.76832 0.0
C1112 C 0.74271 0.18244 0.75787 0.0
C1113 C 0.7431 0.1591 0.7672 0.0
C1114 C 0.7324 0.25964 0.73838 0.0
C1115 C 0.75376 0.27424 0.73865 0.0
C1116 C 0.73207 0.23653 0.74803 0.0
C1117 C 0.753 0.22755 0.75841 0.0
C1118 C 0.7741 0.2424 0.75927 0.0
C1119 C 0.77452 0.26539 0.74947 0.0
loop_
_geom_bond_atom_site_label_1
_geom_bond_atom_site_label_2
_geom_bond_distance
_geom_bond_site_symmetry_2
_ccdc_geom_bond_type
C0 C1 1.264 . S
C0 C5 1.479 . S
C0 C10 1.465 . S
C1 C0 1.264 . S
C1 C3 1.339 . S
C1 H28 0.931 . S
C2 C3 1.395 . S
C2 C4 1.320 . S
C3 C1 1.339 . S
C3 C2 1.395 . S
C3 H29 0.929 . S
C4 C2 1.320 . S
C4 C5 1.405 . S
C4 H30 0.930 . S
C5 C0 1.479 . S
C5 C4 1.405 . S
C5 H31 0.931 . S
U6 O7 2.454 . S
U6 O8 2.458 . S
U6 C9 2.984 . S
U6 C10 2.847 . S
U6 C23 2.882 . S
U6 O24 2.441 . S
U6 O25 2.420 . S
U6 O26 2.455 . S
U6 O27 2.449 . S
O7 U6 2.454 . S
O7 C9 1.353 . S
O8 U6 2.458 . S
O8 C9 1.286 . S
C9 U6 2.984 . S
C9 O7 1.353 . S
C9 O8 1.286 . S
C9 C11 1.363 . S
C10 C0 1.465 . S
C10 U6 2.847 . S
C10 O24 1.249 . S
C10 O25 1.202 . S
C11 C9 1.363 . S
C11 C13 1.408 . S
C11 C16 1.342 . S
C12 C13 1.310 . S
C12 C15 1.461 . S
C12 H32 0.932 . S
C13 C11 1.408 . S
C13 C12 1.310 . S
C13 H33 0.930 . S
C14 C15 1.474 . S
C14 C16 1.285 . S
C14 H34 0.929 . S
C15 C12 1.461 . S
C15 C14 1.474 . S
C16 C11 1.342 . S
C16 C14 1.285 . S
C16 H35 0.930 . S
C17 C20 1.424 . S
C17 C22 1.245 . S
C17 C23 1.428 . S
C18 C21 1.260 . S
C18 C22 1.477 . S
C18 H36 0.932 . S
C19 C20 1.384 . S
C19 C21 1.479 . S
C19 H37 0.929 . S
C20 C17 1.424 . S
C20 C19 1.384 . S
C20 H38 0.928 . S
C21 C18 1.260 . S
C21 C19 1.479 . S
C22 C17 1.245 . S
C22 C18 1.477 . S
C22 H39 0.932 . S
C23 U6 2.882 . S
C23 C17 1.428 . S
C23 O26 1.301 . S
C23 O27 1.282 . S
O24 U6 2.441 . S
O24 C10 1.249 . S
O25 U6 2.420 . S
O25 C10 1.202 . S
O26 U6 2.455 . S
O26 C23 1.301 . S
O27 U6 2.449 . S
O27 C23 1.282 . S
H28 C1 0.931 . S
H29 C3 0.929 . S
H30 C4 0.930 . S
H31 C5 0.931 . S
H32 C12 0.932 . S
H33 C13 0.930 . S
H34 C14 0.929 . S
H35 C16 0.930 . S
H36 C18 0.932 . S
H37 C19 0.929 . S
H38 C20 0.928 . S
H39 C22 0.932 . S
C40 C41 1.264 . S
C40 C45 1.479 . S
C40 C50 1.465 . S
C41 C40 1.264 . S
C41 C43 1.339 . S
C41 H68 0.931 . S
C42 C43 1.395 . S
C42 C44 1.320 . S
C43 C41 1.339 . S
C43 C42 1.395 . S
C43 H69 0.929 . S
C44 C42 1.320 . S
C44 C45 1.405 . S
C44 H70 0.930 . S
C45 C40 1.479 . S
C45 C44 1.405 . S
C45 H71 0.931 . S
U46 O47 2.454 . S
U46 O48 2.458 . S
U46 C49 2.984 . S
U46 C50 2.847 . S
U46 C63 2.882 . S
U46 O64 2.441 . S
U46 O65 2.420 . S
U46 O66 2.455 . S
U46 O67 2.449 . S
O47 U46 2.454 . S
O47 C49 1.353 . S
O48 U46 2.458 . S
O48 C49 1.286 . S
C49 U46 2.984 . S
C49 O47 1.353 . S
C49 O48 1.286 . S
C49 C51 1.363 . S
C50 C40 1.465 . S
C50 U46 2.847 . S
C50 O64 1.249 . S
C50 O65 1.202 . S
C51 C49 1.363 . S
C51 C53 1.408 . S
C51 C56 1.342 . S
C52 C53 1.310 . S
C52 C55 1.461 . S
C52 H72 0.932 . S
C53 C51 1.408 . S
C53 C52 1.310 . S
C53 H73 0.930 . S
C54 C55 1.474 . S
C54 C56 1.285 . S
C54 H74 0.929 . S
C55 C52 1.461 . S
C55 C54 1.474 . S
C56 C51 1.342 . S
C56 C54 1.285 . S
C56 H75 0.930 . S
C57 C60 1.424 . S
C57 C62 1.245 . S
C57 C63 1.428 . S
C58 C61 1.260 . S
C58 C62 1.477 . S
C58 H76 0.932 . S
C59 C60 1.384 . S
C59 C61 1.479 . S
C59 H77 0.929 . S
C60 C57 1.424 . S
C60 C59 1.384 . S
C60 H78 0.928 . S
C61 C58 1.260 . S
C61 C59 1.479 . S
C62 C57 1.245 . S
C62 C58 1.477 . S
C62 H79 0.932 . S
C63 U46 2.882 . S
C63 C57 1.428 . S
C63 O66 1.301 . S
C63 O67 1.282 . S
O64 U46 2.441 . S
O64 C50 1.249 . S
O65 U46 2.420 . S
O65 C50 1.202 . S
O66 U46 2.455 . S
O66 C63 1.301 . S
O67 U46 2.449 . S
O67 C63 1.282 . S
H68 C41 0.931 . S
H69 C43 0.929 . S
H70 C44 0.930 . S
H71 C45 0.931 . S
H72 C52 0.932 . S
H73 C53 0.930 . S
H74 C54 0.929 . S
H75 C56 0.930 . S
H76 C58 0.932 . S
H77 C59 0.929 . S
H78 C60 0.928 . S
H79 C62 0.932 . S
C80 C81 1.264 . S
C80 C85 1.479 . S
C80 C90 1.465 . S
C81 C80 1.264 . S
C81 C83 1.339 . S
C81 H108 0.931 . S
C82 C83 1.395 . S
C82 C84 1.320 . S
C83 C81 1.339 . S
C83 C82 1.395 . S
C83 H109 0.929 . S
C84 C82 1.320 . S
C84 C85 1.405 . S
C84 H110 0.930 . S
C85 C80 1.479 . S
C85 C84 1.405 . S
C85 H111 0.931 . S
U86 O87 2.454 . S
U86 O88 2.458 . S
U86 C89 2.984 . S
U86 C90 2.847 1_455 S
U86 C103 2.882 . S
U86 O104 2.441 1_455 S
U86 O105 2.420 1_455 S
U86 O106 2.455 . S
U86 O107 2.449 . S
O87 U86 2.454 . S
O87 C89 1.353 . S
O88 U86 2.458 . S
O88 C89 1.286 . S
C89 U86 2.984 . S
C89 O87 1.353 . S
C89 O88 1.286 . S
C89 C91 1.363 . S
C90 C80 1.465 . S
C90 U86 2.847 1_655 S
C90 O104 1.249 . S
C90 O105 1.202 . S
C91 C89 1.363 . S
C91 C93 1.408 . S
C91 C96 1.342 . S
C92 C93 1.310 . S
C92 C95 1.461 . S
C92 H112 0.932 . S
C93 C91 1.408 . S
C93 C92 1.310 . S
C93 H113 0.930 . S
C94 C95 1.474 . S
C94 C96 1.285 . S
C94 H114 0.929 . S
C95 C92 1.461 . S
C95 C94 1.474 . S
C96 C91 1.342 . S
C96 C94 1.285 . S
C96 H115 0.930 . S
C97 C100 1.424 . S
C97 C102 1.245 . S
C97 C103 1.428 . S
C98 C101 1.260 . S
C98 C102 1.477 . S
C98 H116 0.932 . S
C99 C100 1.384 . S
C99 C101 1.479 . S
C99 H117 0.929 . S
C100 C97 1.424 . S
C100 C99 1.384 . S
C100 H118 0.928 . S
C101 C98 1.260 . S
C101 C99 1.479 . S
C102 C97 1.245 . S
C102 C98 1.477 . S
C102 H119 0.932 . S
C103 U86 2.882 . S
C103 C97 1.428 . S
C103 O106 1.301 . S
C103 O107 1.282 . S
O104 U86 2.441 1_655 S
O104 C90 1.249 . S
O105 U86 2.420 1_655 S
O105 C90 1.202 . S
O106 U86 2.455 . S
O106 C103 1.301 . S
O107 U86 2.449 . S
O107 C103 1.282 . S
H108 C81 0.931 . S
H109 C83 0.929 . S
H110 C84 0.930 . S
H111 C85 0.931 . S
H112 C92 0.932 . S
H113 C93 0.930 . S
H114 C94 0.929 . S
H115 C96 0.930 . S
H116 C98 0.932 . S
H117 C99 0.929 . S
H118 C100 0.928 . S
H119 C102 0.932 . S
C120 C121 1.264 . S
C120 C125 1.479 . S
C120 C130 1.465 . S
C121 C120 1.264 . S
C121 C123 1.339 . S
C121 H148 0.931 . S
C122 C123 1.395 . S
C122 C124 1.320 . S
C123 C121 1.339 . S
C123 C122 1.395 . S
C123 H149 0.929 . S
C124 C122 1.320 . S
C124 C125 1.405 . S
C124 H150 0.930 . S
C125 C120 1.479 . S
C125 C124 1.405 . S
C125 H151 0.931 . S
U126 O127 2.454 . S
U126 O128 2.458 1_655 S
U126 C129 2.985 1_655 S
U126 C130 2.847 . S
U126 C143 2.882 . S
U126 O144 2.441 . S
U126 O145 2.420 . S
U126 O146 2.455 . S
U126 O147 2.449 . S
O127 U126 2.454 . S
O127 C129 1.354 1_655 S
O128 U126 2.458 1_455 S
O128 C129 1.286 . S
C129 U126 2.985 1_455 S
C129 O127 1.354 1_455 S
C129 O128 1.286 . S
C129 C131 1.363 . S
C130 C120 1.465 . S
C130 U126 2.847 . S
C130 O144 1.249 . S
C130 O145 1.202 . S
C131 C129 1.363 . S
C131 C133 1.408 . S
C131 C136 1.342 . S
C132 C133 1.310 . S
C132 C135 1.461 . S
C132 H152 0.932 . S
C133 C131 1.408 . S
C133 C132 1.310 . S
C133 H153 0.930 1_455 S
C134 C135 1.474 . S
C134 C136 1.285 . S
C134 H154 0.929 . S
C135 C132 1.461 . S
C135 C134 1.474 . S
C136 C131 1.342 . S
C136 C134 1.285 . S
C136 H155 0.930 . S
C137 C140 1.424 . S
C137 C142 1.245 . S
C137 C143 1.428 1_455 S
C138 C141 1.260 . S
C138 C142 1.477 . S
C138 H156 0.932 . S
C139 C140 1.384 . S
C139 C141 1.479 . S
C139 H157 0.929 1_565 S
C140 C137 1.424 . S
C140 C139 1.384 . S
C140 H158 0.926 1_455 S
C141 C138 1.260 . S
C141 C139 1.479 . S
C142 C137 1.245 . S
C142 C138 1.477 . S
C142 H159 0.932 . S
C143 U126 2.882 . S
C143 C137 1.428 1_655 S
C143 O146 1.301 . S
C143 O147 1.282 . S
O144 U126 2.441 . S
O144 C130 1.249 . S
O145 U126 2.420 . S
O145 C130 1.202 . S
O146 U126 2.455 . S
O146 C143 1.301 . S
O147 U126 2.449 . S
O147 C143 1.282 . S
H148 C121 0.931 . S
H149 C123 0.929 . S
H150 C124 0.930 . S
H151 C125 0.931 . S
H152 C132 0.932 . S
H153 C133 0.930 1_655 S
H154 C134 0.929 . S
H155 C136 0.930 . S
H156 C138 0.932 . S
H157 C139 0.929 1_545 S
H158 C140 0.926 1_655 S
H159 C142 0.932 . S
C160 C161 1.264 . S
C160 C165 1.479 . S
C160 C170 1.465 . S
C161 C160 1.264 . S
C161 C163 1.339 . S
C161 H188 0.931 . S
C162 C163 1.395 . S
C162 C164 1.320 . S
C163 C161 1.339 . S
C163 C162 1.395 . S
C163 H189 0.929 . S
C164 C162 1.320 . S
C164 C165 1.405 . S
C164 H190 0.930 . S
C165 C160 1.479 . S
C165 C164 1.405 . S
C165 H191 0.931 . S
U166 O167 2.454 . S
U166 O168 2.458 . S
U166 C169 2.984 . S
U166 C170 2.847 . S
U166 C183 2.882 . S
U166 O184 2.441 . S
U166 O185 2.420 . S
U166 O186 2.455 . S
U166 O187 2.449 . S
O167 U166 2.454 . S
O167 C169 1.353 . S
O168 U166 2.458 . S
O168 C169 1.286 . S
C169 U166 2.984 . S
C169 O167 1.353 . S
C169 O168 1.286 . S
C169 C171 1.363 . S
C170 C160 1.465 . S
C170 U166 2.847 . S
C170 O184 1.249 . S
C170 O185 1.202 . S
C171 C169 1.363 . S
C171 C173 1.408 . S
C171 C176 1.342 . S
C172 C173 1.310 . S
C172 C175 1.461 . S
C172 H192 0.932 . S
C173 C171 1.408 . S
C173 C172 1.310 . S
C173 H193 0.930 . S
C174 C175 1.474 . S
C174 C176 1.285 . S
C174 H194 0.929 . S
C175 C172 1.461 . S
C175 C174 1.474 . S
C176 C171 1.342 . S
C176 C174 1.285 . S
C176 H195 0.930 . S
C177 C180 1.424 . S
C177 C182 1.245 . S
C177 C183 1.428 . S
C178 C181 1.260 . S
C178 C182 1.477 . S
C178 H196 0.932 . S
C179 C180 1.384 . S
C179 C181 1.479 . S
C179 H197 0.929 . S
C180 C177 1.424 . S
C180 C179 1.384 . S
C180 H198 0.928 . S
C181 C178 1.260 . S
C181 C179 1.479 . S
C182 C177 1.245 . S
C182 C178 1.477 . S
C182 H199 0.932 . S
C183 U166 2.882 . S
C183 C177 1.428 . S
C183 O186 1.301 . S
C183 O187 1.282 . S
O184 U166 2.441 . S
O184 C170 1.249 . S
O185 U166 2.420 . S
O185 C170 1.202 . S
O186 U166 2.455 . S
O186 C183 1.301 . S
O187 U166 2.449 . S
O187 C183 1.282 . S
H188 C161 0.931 . S
H189 C163 0.929 . S
H190 C164 0.930 . S
H191 C165 0.931 . S
H192 C172 0.932 . S
H193 C173 0.930 . S
H194 C174 0.929 . S
H195 C176 0.930 . S
H196 C178 0.932 . S
H197 C179 0.929 . S
H198 C180 0.928 . S
H199 C182 0.932 . S
C200 C201 1.264 . S
C200 C205 1.479 . S
C200 C210 1.465 . S
C201 C200 1.264 . S
C201 C203 1.339 . S
C201 H228 0.931 . S
C202 C203 1.395 . S
C202 C204 1.320 . S
C203 C201 1.339 . S
C203 C202 1.395 . S
C203 H229 0.929 . S
C204 C202 1.320 . S
C204 C205 1.405 . S
C204 H230 0.930 . S
C205 C200 1.479 . S
C205 C204 1.405 . S
C205 H231 0.931 . S
U206 O207 2.454 . S
U206 O208 2.458 1_655 S
U206 C209 2.986 1_655 S
U206 C210 2.847 . S
U206 C223 2.882 . S
U206 O224 2.441 . S
U206 O225 2.420 . S
U206 O226 2.455 . S
U206 O227 2.449 . S
O207 U206 2.454 . S
O207 C209 1.355 1_655 S
O208 U206 2.458 1_455 S
O208 C209 1.285 . S
C209 U206 2.986 1_455 S
C209 O207 1.355 1_455 S
C209 O208 1.285 . S
C209 C211 1.362 . S
C210 C200 1.465 . S
C210 U206 2.847 . S
C210 O224 1.249 . S
C210 O225 1.202 . S
C211 C209 1.362 . S
C211 C213 1.408 . S
C211 C216 1.342 . S
C212 C213 1.310 . S
C212 C215 1.461 . S
C212 H232 0.932 . S
C213 C211 1.408 . S
C213 C212 1.310 . S
C213 H233 0.930 1_455 S
C214 C215 1.474 . S
C214 C216 1.285 . S
C214 H234 0.929 . S
C215 C212 1.461 . S
C215 C214 1.474 . S
C216 C211 1.342 . S
C216 C214 1.285 . S
C216 H235 0.930 . S
C217 C220 1.424 . S
C217 C222 1.245 . S
C217 C223 1.428 1_455 S
C218 C221 1.260 . S
C218 C222 1.477 . S
C218 H236 0.932 . S
C219 C220 1.384 . S
C219 C221 1.479 . S
C219 H237 0.929 . S
C220 C217 1.424 . S
C220 C219 1.384 . S
C220 H238 0.923 1_455 S
C221 C218 1.260 . S
C221 C219 1.479 . S
C222 C217 1.245 . S
C222 C218 1.477 . S
C222 H239 0.932 . S
C223 U206 2.882 . S
C223 C217 1.428 1_655 S
C223 O226 1.301 . S
C223 O227 1.282 . S
O224 U206 2.441 . S
O224 C210 1.249 . S
O225 U206 2.420 . S
O225 C210 1.202 . S
O226 U206 2.455 . S
O226 C223 1.301 . S
O227 U206 2.449 . S
O227 C223 1.282 . S
H228 C201 0.931 . S
H229 C203 0.929 . S
H230 C204 0.930 . S
H231 C205 0.931 . S
H232 C212 0.932 . S
H233 C213 0.930 1_655 S
H234 C214 0.929 . S
H235 C216 0.930 . S
H236 C218 0.932 . S
H237 C219 0.929 . S
H238 C220 0.923 1_655 S
H239 C222 0.932 . S
C240 C241 1.264 . S
C240 C245 1.479 . S
C240 C250 1.465 . S
C241 C240 1.264 . S
C241 C243 1.339 . S
C241 H268 0.931 . S
C242 C243 1.395 . S
C242 C244 1.320 . S
C243 C241 1.339 . S
C243 C242 1.395 . S
C243 H269 0.929 . S
C244 C242 1.320 . S
C244 C245 1.405 . S
C244 H270 0.930 . S
C245 C240 1.479 . S
C245 C244 1.405 . S
C245 H271 0.931 . S
U246 O247 2.454 . S
U246 O248 2.458 . S
U246 C249 2.984 . S
U246 C250 2.847 1_455 S
U246 C263 2.882 . S
U246 O264 2.441 1_455 S
U246 O265 2.420 1_455 S
U246 O266 2.455 . S
U246 O267 2.449 . S
O247 U246 2.454 . S
O247 C249 1.353 . S
O248 U246 2.458 . S
O248 C249 1.286 . S
C249 U246 2.984 . S
C249 O247 1.353 . S
C249 O248 1.286 . S
C249 C251 1.363 . S
C250 C240 1.465 . S
C250 U246 2.847 1_655 S
C250 O264 1.249 . S
C250 O265 1.202 . S
C251 C249 1.363 . S
C251 C253 1.408 . S
C251 C256 1.342 . S
C252 C253 1.310 . S
C252 C255 1.461 . S
C252 H272 0.932 . S
C253 C251 1.408 . S
C253 C252 1.310 . S
C253 H273 0.930 . S
C254 C255 1.474 . S
C254 C256 1.285 . S
C254 H274 0.929 . S
C255 C252 1.461 . S
C255 C254 1.474 . S
C256 C251 1.342 . S
C256 C254 1.285 . S
C256 H275 0.930 . S
C257 C260 1.424 . S
C257 C262 1.245 . S
C257 C263 1.428 . S
C258 C261 1.260 . S
C258 C262 1.477 . S
C258 H276 0.932 . S
C259 C260 1.384 . S
C259 C261 1.479 . S
C259 H277 0.929 . S
C260 C257 1.424 . S
C260 C259 1.384 . S
C260 H278 0.928 . S
C261 C258 1.260 . S
C261 C259 1.479 . S
C262 C257 1.245 . S
C262 C258 1.477 . S
C262 H279 0.932 . S
C263 U246 2.882 . S
C263 C257 1.428 . S
C263 O266 1.301 . S
C263 O267 1.282 . S
O264 U246 2.441 1_655 S
O264 C250 1.249 . S
O265 U246 2.420 1_655 S
O265 C250 1.202 . S
O266 U246 2.455 . S
O266 C263 1.301 . S
O267 U246 2.449 . S
O267 C263 1.282 . S
H268 C241 0.931 . S
H269 C243 0.929 . S
H270 C244 0.930 . S
H271 C245 0.931 . S
H272 C252 0.932 . S
H273 C253 0.930 . S
H274 C254 0.929 . S
H275 C256 0.930 . S
H276 C258 0.932 . S
H277 C259 0.929 . S
H278 C260 0.928 . S
H279 C262 0.932 . S
C280 C281 1.264 . S
C280 C285 1.479 . S
C280 C290 1.465 . S
C281 C280 1.264 . S
C281 C283 1.339 . S
C281 H308 0.931 . S
C282 C283 1.395 . S
C282 C284 1.320 . S
C283 C281 1.339 . S
C283 C282 1.395 . S
C283 H309 0.929 . S
C284 C282 1.320 . S
C284 C285 1.405 . S
C284 H310 0.930 . S
C285 C280 1.479 . S
C285 C284 1.405 . S
C285 H311 0.931 . S
U286 O287 2.454 . S
U286 O288 2.458 . S
U286 C289 2.984 . S
U286 C290 2.847 . S
U286 C303 2.882 . S
U286 O304 2.441 . S
U286 O305 2.420 . S
U286 O306 2.455 . S
U286 O307 2.449 . S
O287 U286 2.454 . S
O287 C289 1.353 . S
O288 U286 2.458 . S
O288 C289 1.286 . S
C289 U286 2.984 . S
C289 O287 1.353 . S
C289 O288 1.286 . S
C289 C291 1.363 . S
C290 C280 1.465 . S
C290 U286 2.847 . S
C290 O304 1.249 . S
C290 O305 1.202 . S
C291 C289 1.363 . S
C291 C293 1.408 . S
C291 C296 1.342 . S
C292 C293 1.310 . S
C292 C295 1.461 . S
C292 H312 0.932 . S
C293 C291 1.408 . S
C293 C292 1.310 . S
C293 H313 0.930 . S
C294 C295 1.474 . S
C294 C296 1.285 . S
C294 H314 0.929 . S
C295 C292 1.461 . S
C295 C294 1.474 . S
C296 C291 1.342 . S
C296 C294 1.285 . S
C296 H315 0.930 . S
C297 C300 1.424 . S
C297 C302 1.245 . S
C297 C303 1.428 . S
C298 C301 1.260 . S
C298 C302 1.477 . S
C298 H316 0.932 . S
C299 C300 1.384 . S
C299 C301 1.479 . S
C299 H317 0.938 . S
C300 C297 1.424 . S
C300 C299 1.384 . S
C300 H318 0.928 . S
C301 C298 1.260 . S
C301 C299 1.479 . S
C302 C297 1.245 . S
C302 C298 1.477 . S
C302 H319 0.932 . S
C303 U286 2.882 . S
C303 C297 1.428 . S
C303 O306 1.301 . S
C303 O307 1.282 . S
O304 U286 2.441 . S
O304 C290 1.249 . S
O305 U286 2.420 . S
O305 C290 1.202 . S
O306 U286 2.455 . S
O306 C303 1.301 . S
O307 U286 2.449 . S
O307 C303 1.282 . S
H308 C281 0.931 . S
H309 C283 0.929 . S
H310 C284 0.930 . S
H311 C285 0.931 . S
H312 C292 0.932 . S
H313 C293 0.930 . S
H314 C294 0.929 . S
H315 C296 0.930 . S
H316 C298 0.932 . S
H317 C299 0.938 . S
H318 C300 0.928 . S
H319 C302 0.932 . S
C320 C321 1.264 1_545 S
C320 C325 1.479 . S
C320 C330 1.465 . S
C321 C320 1.264 1_565 S
C321 C323 1.339 . S
C321 H348 0.931 . S
C322 C323 1.395 . S
C322 C324 1.320 . S
C323 C321 1.339 . S
C323 C322 1.395 . S
C323 H349 0.929 . S
C324 C322 1.320 . S
C324 C325 1.405 1_565 S
C324 H350 0.930 . S
C325 C320 1.479 . S
C325 C324 1.405 1_545 S
C325 H351 0.931 . S
U326 O327 2.454 . S
U326 O328 2.458 . S
U326 C329 2.984 . S
U326 C330 2.847 . S
U326 C343 2.882 . S
U326 O344 2.441 . S
U326 O345 2.420 . S
U326 O346 2.455 . S
U326 O347 2.449 . S
O327 U326 2.454 . S
O327 C329 1.353 . S
O328 U326 2.458 . S
O328 C329 1.286 . S
C329 U326 2.984 . S
C329 O327 1.353 . S
C329 O328 1.286 . S
C329 C331 1.363 . S
C330 C320 1.465 . S
C330 U326 2.847 . S
C330 O344 1.249 . S
C330 O345 1.202 . S
C331 C329 1.363 . S
C331 C333 1.408 . S
C331 C336 1.342 . S
C332 C333 1.310 . S
C332 C335 1.461 . S
C332 H352 0.932 . S
C333 C331 1.408 . S
C333 C332 1.310 . S
C333 H353 0.930 . S
C334 C335 1.474 . S
C334 C336 1.285 . S
C334 H354 0.929 . S
C335 C332 1.461 . S
C335 C334 1.474 . S
C336 C331 1.342 . S
C336 C334 1.285 . S
C336 H355 0.930 . S
C337 C340 1.424 . S
C337 C342 1.245 . S
C337 C343 1.428 1_565 S
C338 C341 1.260 . S
C338 C342 1.477 . S
C338 H356 0.932 . S
C339 C340 1.384 . S
C339 C341 1.479 . S
C339 H357 0.929 . S
C340 C337 1.424 . S
C340 C339 1.384 . S
C340 H358 0.928 . S
C341 C338 1.260 . S
C341 C339 1.479 . S
C342 C337 1.245 . S
C342 C338 1.477 . S
C342 H359 0.932 1_565 S
C343 U326 2.882 . S
C343 C337 1.428 1_545 S
C343 O346 1.301 . S
C343 O347 1.282 . S
O344 U326 2.441 . S
O344 C330 1.249 . S
O345 U326 2.420 . S
O345 C330 1.202 . S
O346 U326 2.455 . S
O346 C343 1.301 . S
O347 U326 2.449 . S
O347 C343 1.282 . S
H348 C321 0.931 . S
H349 C323 0.929 . S
H350 C324 0.930 . S
H351 C325 0.931 . S
H352 C332 0.932 . S
H353 C333 0.930 . S
H354 C334 0.929 . S
H355 C336 0.930 . S
H356 C338 0.932 . S
H357 C339 0.929 . S
H358 C340 0.928 . S
H359 C342 0.932 1_545 S
C360 C361 1.264 . S
C360 C365 1.479 . S
C360 C370 1.465 . S
C361 C360 1.264 . S
C361 C363 1.339 . S
C361 H388 0.931 . S
C362 C363 1.395 . S
C362 C364 1.320 . S
C363 C361 1.339 . S
C363 C362 1.395 . S
C363 H389 0.929 . S
C364 C362 1.320 . S
C364 C365 1.405 . S
C364 H390 0.930 . S
C365 C360 1.479 . S
C365 C364 1.405 . S
C365 H391 0.931 . S
U366 O367 2.454 . S
U366 O368 2.458 . S
U366 C369 2.984 . S
U366 C370 2.847 . S
U366 C383 2.882 . S
U366 O384 2.441 . S
U366 O385 2.420 . S
U366 O386 2.455 . S
U366 O387 2.449 . S
O367 U366 2.454 . S
O367 C369 1.353 . S
O368 U366 2.458 . S
O368 C369 1.286 . S
C369 U366 2.984 . S
C369 O367 1.353 . S
C369 O368 1.286 . S
C369 C371 1.363 . S
C370 C360 1.465 . S
C370 U366 2.847 . S
C370 O384 1.249 . S
C370 O385 1.202 . S
C371 C369 1.363 . S
C371 C373 1.408 . S
C371 C376 1.342 . S
C372 C373 1.310 . S
C372 C375 1.461 . S
C372 H392 0.932 . S
C373 C371 1.408 . S
C373 C372 1.310 . S
C373 H393 0.930 . S
C374 C375 1.474 . S
C374 C376 1.285 . S
C374 H394 0.929 . S
C375 C372 1.461 . S
C375 C374 1.474 . S
C376 C371 1.342 . S
C376 C374 1.285 . S
C376 H395 0.930 . S
C377 C380 1.424 . S
C377 C382 1.245 . S
C377 C383 1.428 . S
C378 C381 1.260 . S
C378 C382 1.477 . S
C378 H396 0.932 . S
C379 C380 1.384 . S
C379 C381 1.479 . S
C379 H397 0.929 . S
C380 C377 1.424 . S
C380 C379 1.384 . S
C380 H398 0.928 . S
C381 C378 1.260 . S
C381 C379 1.479 . S
C382 C377 1.245 . S
C382 C378 1.477 . S
C382 H399 0.932 . S
C383 U366 2.882 . S
C383 C377 1.428 . S
C383 O386 1.301 . S
C383 O387 1.282 . S
O384 U366 2.441 . S
O384 C370 1.249 . S
O385 U366 2.420 . S
O385 C370 1.202 . S
O386 U366 2.455 . S
O386 C383 1.301 . S
O387 U366 2.449 . S
O387 C383 1.282 . S
H388 C361 0.931 . S
H389 C363 0.929 . S
H390 C364 0.930 . S
H391 C365 0.931 . S
H392 C372 0.932 . S
H393 C373 0.930 . S
H394 C374 0.929 . S
H395 C376 0.930 . S
H396 C378 0.932 . S
H397 C379 0.929 . S
H398 C380 0.928 . S
H399 C382 0.932 . S
C400 C401 1.264 . S
C400 C405 1.479 . S
C400 C410 1.465 . S
C401 C400 1.264 . S
C401 C403 1.339 . S
C401 H428 0.931 . S
C402 C403 1.395 . S
C402 C404 1.320 . S
C403 C401 1.339 . S
C403 C402 1.395 . S
C403 H429 0.929 . S
C404 C402 1.320 . S
C404 C405 1.405 . S
C404 H430 0.930 . S
C405 C400 1.479 . S
C405 C404 1.405 . S
C405 H431 0.931 . S
U406 O407 2.454 . S
U406 O408 2.458 . S
U406 C409 2.984 . S
U406 C410 2.847 . S
U406 C423 2.882 . S
U406 O424 2.441 . S
U406 O425 2.420 . S
U406 O426 2.455 . S
U406 O427 2.449 . S
O407 U406 2.454 . S
O407 C409 1.353 . S
O408 U406 2.458 . S
O408 C409 1.286 . S
C409 U406 2.984 . S
C409 O407 1.353 . S
C409 O408 1.286 . S
C409 C411 1.363 . S
C410 C400 1.465 . S
C410 U406 2.847 . S
C410 O424 1.249 . S
C410 O425 1.202 . S
C411 C409 1.363 . S
C411 C413 1.408 . S
C411 C416 1.342 . S
C412 C413 1.310 . S
C412 C415 1.461 . S
C412 H432 0.932 . S
C413 C411 1.408 . S
C413 C412 1.310 . S
C413 H433 0.930 . S
C414 C415 1.474 . S
C414 C416 1.285 . S
C414 H434 0.929 . S
C415 C412 1.461 . S
C415 C414 1.474 . S
C416 C411 1.342 . S
C416 C414 1.285 . S
C416 H435 0.930 . S
C417 C420 1.424 . S
C417 C422 1.245 . S
C417 C423 1.428 . S
C418 C421 1.260 . S
C418 C422 1.477 . S
C418 H436 0.932 . S
C419 C420 1.384 . S
C419 C421 1.479 . S
C419 H437 0.970 . S
C420 C417 1.424 . S
C420 C419 1.384 . S
C420 H438 0.928 . S
C421 C418 1.260 . S
C421 C419 1.479 . S
C422 C417 1.245 . S
C422 C418 1.477 . S
C422 H439 0.932 . S
C423 U406 2.882 . S
C423 C417 1.428 . S
C423 O426 1.301 . S
C423 O427 1.282 . S
O424 U406 2.441 . S
O424 C410 1.249 . S
O425 U406 2.420 . S
O425 C410 1.202 . S
O426 U406 2.455 . S
O426 C423 1.301 . S
O427 U406 2.449 . S
O427 C423 1.282 . S
H428 C401 0.931 . S
H429 C403 0.929 . S
H430 C404 0.930 . S
H431 C405 0.931 . S
H432 C412 0.932 . S
H433 C413 0.930 . S
H434 C414 0.929 . S
H435 C416 0.930 . S
H436 C418 0.932 . S
H437 C419 0.970 . S
H438 C420 0.928 . S
H439 C422 0.932 . S
C440 C441 1.264 . S
C440 C445 1.479 . S
C440 C450 1.465 . S
C441 C440 1.264 . S
C441 C443 1.339 . S
C441 H468 0.931 . S
C442 C443 1.395 . S
C442 C444 1.320 . S
C443 C441 1.339 . S
C443 C442 1.395 . S
C443 H469 0.929 . S
C444 C442 1.320 . S
C444 C445 1.405 . S
C444 H470 0.930 . S
C445 C440 1.479 . S
C445 C444 1.405 . S
C445 H471 0.931 . S
U446 O447 2.454 1_565 S
U446 O448 2.458 1_565 S
U446 C449 2.984 1_565 S
U446 C450 2.847 . S
U446 C463 2.882 . S
U446 O464 2.441 . S
U446 O465 2.420 . S
U446 O466 2.455 . S
U446 O467 2.449 . S
O447 U446 2.454 1_545 S
O447 C449 1.353 . S
O448 U446 2.458 1_545 S
O448 C449 1.286 . S
C449 U446 2.984 1_545 S
C449 O447 1.353 . S
C449 O448 1.286 . S
C449 C451 1.363 . S
C450 C440 1.465 . S
C450 U446 2.847 . S
C450 O464 1.249 . S
C450 O465 1.202 . S
C451 C449 1.363 . S
C451 C453 1.408 . S
C451 C456 1.342 . S
C452 C453 1.310 . S
C452 C455 1.461 . S
C452 H472 0.932 . S
C453 C451 1.408 . S
C453 C452 1.310 . S
C453 H473 0.930 . S
C454 C455 1.474 . S
C454 C456 1.285 . S
C454 H474 0.929 . S
C455 C452 1.461 . S
C455 C454 1.474 . S
C456 C451 1.342 . S
C456 C454 1.285 . S
C456 H475 0.930 . S
C457 C460 1.424 . S
C457 C462 1.245 . S
C457 C463 1.428 . S
C458 C461 1.260 . S
C458 C462 1.477 . S
C458 H476 0.932 . S
C459 C460 1.384 . S
C459 C461 1.479 . S
C459 H477 0.929 . S
C460 C457 1.424 . S
C460 C459 1.384 . S
C460 H478 0.928 . S
C461 C458 1.260 . S
C461 C459 1.479 . S
C462 C457 1.245 . S
C462 C458 1.477 . S
C462 H479 0.932 . S
C463 U446 2.882 . S
C463 C457 1.428 . S
C463 O466 1.301 . S
C463 O467 1.282 . S
O464 U446 2.441 . S
O464 C450 1.249 . S
O465 U446 2.420 . S
O465 C450 1.202 . S
O466 U446 2.455 . S
O466 C463 1.301 . S
O467 U446 2.449 . S
O467 C463 1.282 . S
H468 C441 0.931 . S
H469 C443 0.929 . S
H470 C444 0.930 . S
H471 C445 0.931 . S
H472 C452 0.932 . S
H473 C453 0.930 . S
H474 C454 0.929 . S
H475 C456 0.930 . S
H476 C458 0.932 . S
H477 C459 0.929 . S
H478 C460 0.928 . S
H479 C462 0.932 . S
C480 C481 1.264 . S
C480 C485 1.479 . S
C480 C490 1.465 . S
C481 C480 1.264 . S
C481 C483 1.339 . S
C481 H508 0.931 . S
C482 C483 1.395 . S
C482 C484 1.320 . S
C483 C481 1.339 . S
C483 C482 1.395 . S
C483 H509 0.929 . S
C484 C482 1.320 . S
C484 C485 1.405 . S
C484 H510 0.930 . S
C485 C480 1.479 . S
C485 C484 1.405 . S
C485 H511 0.931 . S
U486 O487 2.454 . S
U486 O488 2.458 . S
U486 C489 2.984 . S
U486 C490 2.847 . S
U486 C503 2.882 . S
U486 O504 2.441 . S
U486 O505 2.420 . S
U486 O506 2.455 . S
U486 O507 2.449 . S
O487 U486 2.454 . S
O487 C489 1.353 . S
O488 U486 2.458 . S
O488 C489 1.286 . S
C489 U486 2.984 . S
C489 O487 1.353 . S
C489 O488 1.286 . S
C489 C491 1.363 . S
C490 C480 1.465 . S
C490 U486 2.847 . S
C490 O504 1.249 . S
C490 O505 1.202 . S
C491 C489 1.363 . S
C491 C493 1.408 . S
C491 C496 1.342 . S
C492 C493 1.310 . S
C492 C495 1.461 . S
C492 H512 0.932 . S
C493 C491 1.408 . S
C493 C492 1.310 . S
C493 H513 0.930 . S
C494 C495 1.474 . S
C494 C496 1.285 . S
C494 H514 0.929 . S
C495 C492 1.461 . S
C495 C494 1.474 . S
C496 C491 1.342 . S
C496 C494 1.285 . S
C496 H515 0.930 . S
C497 C500 1.424 . S
C497 C502 1.245 . S
C497 C503 1.428 . S
C498 C501 1.260 . S
C498 C502 1.477 . S
C498 H516 0.932 . S
C499 C500 1.384 . S
C499 C501 1.479 . S
C499 H517 0.929 . S
C500 C497 1.424 . S
C500 C499 1.384 . S
C500 H518 0.928 . S
C501 C498 1.260 . S
C501 C499 1.479 . S
C502 C497 1.245 . S
C502 C498 1.477 . S
C502 H519 0.932 . S
C503 U486 2.882 . S
C503 C497 1.428 . S
C503 O506 1.301 . S
C503 O507 1.282 . S
O504 U486 2.441 . S
O504 C490 1.249 . S
O505 U486 2.420 . S
O505 C490 1.202 . S
O506 U486 2.455 . S
O506 C503 1.301 . S
O507 U486 2.449 . S
O507 C503 1.282 . S
H508 C481 0.931 . S
H509 C483 0.929 . S
H510 C484 0.930 . S
H511 C485 0.931 . S
H512 C492 0.932 . S
H513 C493 0.930 . S
H514 C494 0.929 . S
H515 C496 0.930 . S
H516 C498 0.932 . S
H517 C499 0.929 . S
H518 C500 0.928 . S
H519 C502 0.932 . S
C520 C521 1.264 . S
C520 C525 1.479 . S
C520 C530 1.465 . S
C521 C520 1.264 . S
C521 C523 1.339 . S
C521 H548 0.931 . S
C522 C523 1.395 . S
C522 C524 1.320 . S
C523 C521 1.339 . S
C523 C522 1.395 . S
C523 H549 0.929 . S
C524 C522 1.320 . S
C524 C525 1.405 . S
C524 H550 0.930 . S
C525 C520 1.479 . S
C525 C524 1.405 . S
C525 H551 0.931 . S
U526 O527 2.454 . S
U526 O528 2.458 . S
U526 C529 2.984 . S
U526 C530 2.847 . S
U526 C543 2.882 . S
U526 O544 2.441 . S
U526 O545 2.420 . S
U526 O546 2.455 . S
U526 O547 2.449 . S
O527 U526 2.454 . S
O527 C529 1.353 . S
O528 U526 2.458 . S
O528 C529 1.286 . S
C529 U526 2.984 . S
C529 O527 1.353 . S
C529 O528 1.286 . S
C529 C531 1.363 . S
C530 C520 1.465 . S
C530 U526 2.847 . S
C530 O544 1.249 . S
C530 O545 1.202 . S
C531 C529 1.363 . S
C531 C533 1.408 . S
C531 C536 1.342 . S
C532 C533 1.310 . S
C532 C535 1.461 . S
C532 H552 0.932 . S
C533 C531 1.408 . S
C533 C532 1.310 . S
C533 H553 0.930 . S
C534 C535 1.474 . S
C534 C536 1.285 . S
C534 H554 0.929 . S
C535 C532 1.461 . S
C535 C534 1.474 . S
C536 C531 1.342 . S
C536 C534 1.285 . S
C536 H555 0.930 . S
C537 C540 1.424 . S
C537 C542 1.245 . S
C537 C543 1.428 . S
C538 C541 1.260 . S
C538 C542 1.477 . S
C538 H556 0.932 . S
C539 C540 1.384 . S
C539 C541 1.479 . S
C539 H557 0.929 . S
C540 C537 1.424 . S
C540 C539 1.384 . S
C540 H558 0.928 . S
C541 C538 1.260 . S
C541 C539 1.479 . S
C542 C537 1.245 . S
C542 C538 1.477 . S
C542 H559 0.932 . S
C543 U526 2.882 . S
C543 C537 1.428 . S
C543 O546 1.301 . S
C543 O547 1.282 . S
O544 U526 2.441 . S
O544 C530 1.249 . S
O545 U526 2.420 . S
O545 C530 1.202 . S
O546 U526 2.455 . S
O546 C543 1.301 . S
O547 U526 2.449 . S
O547 C543 1.282 . S
H548 C521 0.931 . S
H549 C523 0.929 . S
H550 C524 0.930 . S
H551 C525 0.931 . S
H552 C532 0.932 . S
H553 C533 0.930 . S
H554 C534 0.929 . S
H555 C536 0.930 . S
H556 C538 0.932 . S
H557 C539 0.929 . S
H558 C540 0.928 . S
H559 C542 0.932 . S
C560 C561 1.264 . S
C560 C565 1.479 . S
C560 C570 1.465 . S
C561 C560 1.264 . S
C561 C563 1.339 . S
C561 H588 0.931 . S
C562 C563 1.395 . S
C562 C564 1.320 . S
C563 C561 1.339 . S
C563 C562 1.395 . S
C563 H589 0.929 . S
C564 C562 1.320 . S
C564 C565 1.405 . S
C564 H590 0.930 . S
C565 C560 1.479 . S
C565 C564 1.405 . S
C565 H591 0.931 . S
U566 O567 2.454 . S
U566 O568 2.458 . S
U566 C569 2.984 . S
U566 C570 2.847 1_565 S
U566 C583 2.882 . S
U566 O584 2.441 1_565 S
U566 O585 2.420 . S
U566 O586 2.455 . S
U566 O587 2.449 . S
O567 U566 2.454 . S
O567 C569 1.353 . S
O568 U566 2.458 . S
O568 C569 1.286 . S
C569 U566 2.984 . S
C569 O567 1.353 . S
C569 O568 1.286 . S
C569 C571 1.363 . S
C570 C560 1.465 . S
C570 U566 2.847 1_545 S
C570 O584 1.249 . S
C570 O585 1.202 1_545 S
C571 C569 1.363 . S
C571 C573 1.408 . S
C571 C576 1.342 . S
C572 C573 1.310 . S
C572 C575 1.461 . S
C572 H592 0.932 . S
C573 C571 1.408 . S
C573 C572 1.310 . S
C573 H593 0.930 . S
C574 C575 1.474 . S
C574 C576 1.285 . S
C574 H594 0.929 . S
C575 C572 1.461 . S
C575 C574 1.474 . S
C576 C571 1.342 . S
C576 C574 1.285 . S
C576 H595 0.930 . S
C577 C580 1.424 . S
C577 C582 1.245 . S
C577 C583 1.428 . S
C578 C581 1.260 . S
C578 C582 1.477 . S
C578 H596 0.932 . S
C579 C580 1.384 . S
C579 C581 1.479 . S
C579 H597 0.929 1_455 S
C580 C577 1.424 . S
C580 C579 1.384 . S
C580 H598 0.928 . S
C581 C578 1.260 . S
C581 C579 1.479 . S
C582 C577 1.245 . S
C582 C578 1.477 . S
C582 H599 0.932 . S
C583 U566 2.882 . S
C583 C577 1.428 . S
C583 O586 1.301 . S
C583 O587 1.282 . S
O584 U566 2.441 1_545 S
O584 C570 1.249 . S
O585 U566 2.420 . S
O585 C570 1.202 1_565 S
O586 U566 2.455 . S
O586 C583 1.301 . S
O587 U566 2.449 . S
O587 C583 1.282 . S
H588 C561 0.931 . S
H589 C563 0.929 . S
H590 C564 0.930 . S
H591 C565 0.931 . S
H592 C572 0.932 . S
H593 C573 0.930 . S
H594 C574 0.929 . S
H595 C576 0.930 . S
H596 C578 0.932 . S
H597 C579 0.929 1_655 S
H598 C580 0.928 . S
H599 C582 0.932 . S
C600 C601 1.264 . S
C600 C605 1.479 . S
C600 C610 1.465 . S
C601 C600 1.264 . S
C601 C603 1.339 . S
C601 H628 0.931 . S
C602 C603 1.395 . S
C602 C604 1.320 . S
C603 C601 1.339 . S
C603 C602 1.395 . S
C603 H629 0.929 . S
C604 C602 1.320 . S
C604 C605 1.405 . S
C604 H630 0.930 . S
C605 C600 1.479 . S
C605 C604 1.405 . S
C605 H631 0.931 . S
U606 O607 2.454 . S
U606 O608 2.458 1_545 S
U606 C609 2.984 1_545 S
U606 C610 2.847 . S
U606 C623 2.882 1_545 S
U606 O624 2.441 . S
U606 O625 2.420 . S
U606 O626 2.455 1_545 S
U606 O627 2.449 . S
O607 U606 2.454 . S
O607 C609 1.353 1_545 S
O608 U606 2.458 1_565 S
O608 C609 1.286 . S
C609 U606 2.984 1_565 S
C609 O607 1.353 1_565 S
C609 O608 1.286 . S
C609 C611 1.363 . S
C610 C600 1.465 . S
C610 U606 2.847 . S
C610 O624 1.249 . S
C610 O625 1.202 . S
C611 C609 1.363 . S
C611 C613 1.408 . S
C611 C616 1.342 . S
C612 C613 1.310 . S
C612 C615 1.461 . S
C612 H632 0.932 . S
C613 C611 1.408 . S
C613 C612 1.310 . S
C613 H633 0.930 . S
C614 C615 1.474 . S
C614 C616 1.285 . S
C614 H634 0.929 . S
C615 C612 1.461 . S
C615 C614 1.474 . S
C616 C611 1.342 . S
C616 C614 1.285 . S
C616 H635 0.930 . S
C617 C620 1.424 . S
C617 C622 1.245 . S
C617 C623 1.428 . S
C618 C621 1.260 . S
C618 C622 1.477 . S
C618 H636 0.932 . S
C619 C620 1.384 . S
C619 C621 1.479 . S
C619 H637 0.929 . S
C620 C617 1.424 . S
C620 C619 1.384 . S
C620 H638 0.928 . S
C621 C618 1.260 . S
C621 C619 1.479 . S
C622 C617 1.245 . S
C622 C618 1.477 . S
C622 H639 0.932 . S
C623 U606 2.882 1_565 S
C623 C617 1.428 . S
C623 O626 1.301 . S
C623 O627 1.282 1_565 S
O624 U606 2.441 . S
O624 C610 1.249 . S
O625 U606 2.420 . S
O625 C610 1.202 . S
O626 U606 2.455 1_565 S
O626 C623 1.301 . S
O627 U606 2.449 . S
O627 C623 1.282 1_545 S
H628 C601 0.931 . S
H629 C603 0.929 . S
H630 C604 0.930 . S
H631 C605 0.931 . S
H632 C612 0.932 . S
H633 C613 0.930 . S
H634 C614 0.929 . S
H635 C616 0.930 . S
H636 C618 0.932 . S
H637 C619 0.929 . S
H638 C620 0.928 . S
H639 C622 0.932 . S
H640 C648 0.950 . S
H641 C653 0.950 . S
H642 C650 0.950 . S
H643 C652 0.950 . S
H644 C654 0.950 1_565 S
H645 C656 0.950 . S
H646 C658 0.950 . S
H647 C659 0.950 . S
C648 H640 0.950 . S
C648 C649 1.386 . S
C648 C650 1.391 . S
C649 C648 1.386 . S
C649 C653 1.393 . S
C650 H642 0.950 . S
C650 C648 1.391 . S
C650 C651 1.400 . S
C651 C650 1.400 . S
C651 C652 1.398 . S
C651 C657 1.491 . S
C652 H643 0.950 . S
C652 C651 1.398 . S
C652 C653 1.391 . S
C653 H641 0.950 . S
C653 C649 1.393 . S
C653 C652 1.391 . S
C654 H644 0.950 1_545 S
C654 C655 1.386 . S
C654 C656 1.391 . S
C655 C654 1.386 . S
C655 C659 1.393 . S
C656 H645 0.950 . S
C656 C654 1.391 . S
C656 C657 1.400 . S
C657 C651 1.491 . S
C657 C656 1.400 . S
C657 C658 1.398 . S
C658 H646 0.950 . S
C658 C657 1.398 . S
C658 C659 1.391 . S
C659 H647 0.950 . S
C659 C655 1.393 . S
C659 C658 1.391 . S
H660 C668 0.950 . S
H661 C673 0.950 . S
H662 C670 0.950 . S
H663 C672 0.950 . S
H664 C674 0.950 . S
H665 C676 0.950 . S
H666 C678 0.950 . S
H667 C679 0.950 . S
C668 H660 0.950 . S
C668 C669 1.386 . S
C668 C670 1.391 . S
C669 C668 1.386 . S
C669 C673 1.393 . S
C670 H662 0.950 . S
C670 C668 1.391 . S
C670 C671 1.400 . S
C671 C670 1.400 . S
C671 C672 1.398 . S
C671 C677 1.491 . S
C672 H663 0.950 . S
C672 C671 1.398 . S
C672 C673 1.391 . S
C673 H661 0.950 . S
C673 C669 1.393 . S
C673 C672 1.391 . S
C674 H664 0.950 . S
C674 C675 1.386 . S
C674 C676 1.391 . S
C675 C674 1.386 . S
C675 C679 1.393 . S
C676 H665 0.950 . S
C676 C674 1.391 . S
C676 C677 1.400 . S
C677 C671 1.491 . S
C677 C676 1.400 . S
C677 C678 1.398 . S
C678 H666 0.950 . S
C678 C677 1.398 . S
C678 C679 1.391 . S
C679 H667 0.950 . S
C679 C675 1.393 . S
C679 C678 1.391 . S
H680 C688 0.950 . S
H681 C693 0.950 . S
H682 C690 0.950 . S
H683 C692 0.950 . S
H684 C694 0.950 . S
H685 C696 0.950 . S
H686 C698 0.950 . S
H687 C699 0.950 . S
C688 H680 0.950 . S
C688 C689 1.386 . S
C688 C690 1.391 . S
C689 C688 1.386 . S
C689 C693 1.393 . S
C690 H682 0.950 . S
C690 C688 1.391 . S
C690 C691 1.400 . S
C691 C690 1.400 . S
C691 C692 1.398 . S
C691 C697 1.491 . S
C692 H683 0.950 . S
C692 C691 1.398 . S
C692 C693 1.391 . S
C693 H681 0.950 . S
C693 C689 1.393 . S
C693 C692 1.391 . S
C694 H684 0.950 . S
C694 C695 1.386 . S
C694 C696 1.391 . S
C695 C694 1.386 . S
C695 C699 1.393 . S
C696 H685 0.950 . S
C696 C694 1.391 . S
C696 C697 1.400 . S
C697 C691 1.491 . S
C697 C696 1.400 . S
C697 C698 1.398 . S
C698 H686 0.950 . S
C698 C697 1.398 . S
C698 C699 1.391 . S
C699 H687 0.950 . S
C699 C695 1.393 . S
C699 C698 1.391 . S
H700 C708 0.950 . S
H701 C713 0.950 . S
H702 C710 0.950 . S
H703 C712 0.950 . S
H704 C714 0.950 1_655 S
H705 C716 0.950 . S
H706 C718 0.950 . S
H707 C719 0.950 . S
C708 H700 0.950 . S
C708 C709 1.386 . S
C708 C710 1.391 . S
C709 C708 1.386 . S
C709 C713 1.393 . S
C710 H702 0.950 . S
C710 C708 1.391 . S
C710 C711 1.400 . S
C711 C710 1.400 . S
C711 C712 1.398 . S
C711 C717 1.491 . S
C712 H703 0.950 . S
C712 C711 1.398 . S
C712 C713 1.391 . S
C713 H701 0.950 . S
C713 C709 1.393 . S
C713 C712 1.391 . S
C714 H704 0.950 1_455 S
C714 C715 1.386 . S
C714 C716 1.391 . S
C715 C714 1.386 . S
C715 C719 1.393 . S
C716 H705 0.950 . S
C716 C714 1.391 . S
C716 C717 1.400 . S
C717 C711 1.491 . S
C717 C716 1.400 . S
C717 C718 1.398 . S
C718 H706 0.950 . S
C718 C717 1.398 . S
C718 C719 1.391 . S
C719 H707 0.950 . S
C719 C715 1.393 . S
C719 C718 1.391 . S
H720 C728 0.950 . S
H721 C733 0.950 . S
H722 C730 0.950 . S
H723 C732 0.950 . S
H724 C734 0.950 . S
H725 C736 0.950 . S
H726 C738 0.950 . S
H727 C739 0.950 . S
C728 H720 0.950 . S
C728 C729 1.386 . S
C728 C730 1.391 . S
C729 C728 1.386 . S
C729 C733 1.393 . S
C730 H722 0.950 . S
C730 C728 1.391 . S
C730 C731 1.400 . S
C731 C730 1.400 . S
C731 C732 1.398 . S
C731 C737 1.491 . S
C732 H723 0.950 . S
C732 C731 1.398 . S
C732 C733 1.391 . S
C733 H721 0.950 . S
C733 C729 1.393 . S
C733 C732 1.391 . S
C734 H724 0.950 . S
C734 C735 1.386 . S
C734 C736 1.391 . S
C735 C734 1.386 . S
C735 C739 1.393 . S
C736 H725 0.950 . S
C736 C734 1.391 . S
C736 C737 1.400 . S
C737 C731 1.491 . S
C737 C736 1.400 . S
C737 C738 1.398 . S
C738 H726 0.950 . S
C738 C737 1.398 . S
C738 C739 1.391 . S
C739 H727 0.950 . S
C739 C735 1.393 . S
C739 C738 1.391 . S
H740 C748 0.950 . S
H741 C753 0.950 . S
H742 C750 0.950 . S
H743 C752 0.950 . S
H744 C754 0.950 . S
H745 C756 0.950 . S
H746 C758 0.950 . S
H747 C759 0.950 . S
C748 H740 0.950 . S
C748 C749 1.386 . S
C748 C750 1.391 . S
C749 C748 1.386 . S
C749 C753 1.393 . S
C750 H742 0.950 . S
C750 C748 1.391 . S
C750 C751 1.400 . S
C751 C750 1.400 . S
C751 C752 1.398 . S
C751 C757 1.491 . S
C752 H743 0.950 . S
C752 C751 1.398 . S
C752 C753 1.391 . S
C753 H741 0.950 . S
C753 C749 1.393 . S
C753 C752 1.391 . S
C754 H744 0.950 . S
C754 C755 1.386 . S
C754 C756 1.391 . S
C755 C754 1.386 . S
C755 C759 1.393 . S
C756 H745 0.950 . S
C756 C754 1.391 . S
C756 C757 1.400 . S
C757 C751 1.491 . S
C757 C756 1.400 . S
C757 C758 1.398 . S
C758 H746 0.950 . S
C758 C757 1.398 . S
C758 C759 1.391 . S
C759 H747 0.950 . S
C759 C755 1.393 . S
C759 C758 1.391 . S
H760 C768 0.950 . S
H761 C773 0.950 1_455 S
H762 C770 0.950 . S
H763 C772 0.950 . S
H764 C774 0.950 . S
H765 C776 0.950 . S
H766 C778 0.950 . S
H767 C779 0.950 . S
C768 H760 0.950 . S
C768 C769 1.386 . S
C768 C770 1.391 . S
C769 C768 1.386 . S
C769 C773 1.393 . S
C770 H762 0.950 . S
C770 C768 1.391 . S
C770 C771 1.400 . S
C771 C770 1.400 . S
C771 C772 1.398 . S
C771 C777 1.491 . S
C772 H763 0.950 . S
C772 C771 1.398 . S
C772 C773 1.391 . S
C773 H761 0.950 1_655 S
C773 C769 1.393 . S
C773 C772 1.391 . S
C774 H764 0.950 . S
C774 C775 1.386 . S
C774 C776 1.391 . S
C775 C774 1.386 . S
C775 C779 1.393 . S
C776 H765 0.950 . S
C776 C774 1.391 . S
C776 C777 1.400 . S
C777 C771 1.491 . S
C777 C776 1.400 . S
C777 C778 1.398 . S
C778 H766 0.950 . S
C778 C777 1.398 . S
C778 C779 1.391 . S
C779 H767 0.950 . S
C779 C775 1.393 . S
C779 C778 1.391 . S
H780 C788 0.950 . S
H781 C793 0.950 . S
H782 C790 0.950 . S
H783 C792 0.950 . S
H784 C794 0.948 1_455 S
H785 C796 0.950 . S
H786 C798 0.950 . S
H787 C799 0.950 . S
C788 H780 0.950 . S
C788 C789 1.386 . S
C788 C790 1.391 . S
C789 C788 1.386 . S
C789 C793 1.393 . S
C790 H782 0.950 . S
C790 C788 1.391 . S
C790 C791 1.400 . S
C791 C790 1.400 . S
C791 C792 1.398 . S
C791 C797 1.491 . S
C792 H783 0.950 . S
C792 C791 1.398 . S
C792 C793 1.391 . S
C793 H781 0.950 . S
C793 C789 1.393 . S
C793 C792 1.391 . S
C794 H784 0.948 1_655 S
C794 C795 1.386 . S
C794 C796 1.391 . S
C795 C794 1.386 . S
C795 C799 1.393 . S
C796 H785 0.950 . S
C796 C794 1.391 . S
C796 C797 1.400 . S
C797 C791 1.491 . S
C797 C796 1.400 . S
C797 C798 1.398 . S
C798 H786 0.950 . S
C798 C797 1.398 . S
C798 C799 1.391 . S
C799 H787 0.950 . S
C799 C795 1.393 . S
C799 C798 1.391 . S
H800 C808 0.980 . S
H801 C813 0.950 . S
H802 C810 0.950 . S
H803 C812 0.950 . S
H804 C814 0.950 . S
H805 C816 0.950 . S
H806 C818 0.950 . S
H807 C819 0.950 . S
C808 H800 0.980 . S
C808 C809 1.378 1_556 S
C808 C810 1.369 1_556 S
C809 C808 1.378 1_554 S
C809 C813 1.393 . S
C810 H802 0.950 . S
C810 C808 1.369 1_554 S
C810 C811 1.400 . S
C811 C810 1.400 . S
C811 C812 1.398 . S
C811 C817 1.491 . S
C812 H803 0.950 . S
C812 C811 1.398 . S
C812 C813 1.391 . S
C813 H801 0.950 . S
C813 C809 1.393 . S
C813 C812 1.391 . S
C814 H804 0.950 . S
C814 C815 1.386 . S
C814 C816 1.391 . S
C815 C814 1.386 . S
C815 C819 1.393 . S
C816 H805 0.950 . S
C816 C814 1.391 . S
C816 C817 1.400 . S
C817 C811 1.491 . S
C817 C816 1.400 . S
C817 C818 1.398 . S
C818 H806 0.950 . S
C818 C817 1.398 . S
C818 C819 1.391 . S
C819 H807 0.950 . S
C819 C815 1.393 . S
C819 C818 1.391 . S
H820 C828 0.950 . S
H821 C833 0.950 . S
H822 C830 0.950 . S
H823 C832 0.950 . S
H824 C834 0.950 . S
H825 C836 0.950 . S
H826 C838 0.950 . S
H827 C839 0.950 . S
C828 H820 0.950 . S
C828 C829 1.386 . S
C828 C830 1.391 . S
C829 C828 1.386 . S
C829 C833 1.393 . S
C830 H822 0.950 . S
C830 C828 1.391 . S
C830 C831 1.400 . S
C831 C830 1.400 . S
C831 C832 1.398 . S
C831 C837 1.491 . S
C832 H823 0.950 . S
C832 C831 1.398 . S
C832 C833 1.391 . S
C833 H821 0.950 . S
C833 C829 1.393 . S
C833 C832 1.391 . S
C834 H824 0.950 . S
C834 C835 1.386 . S
C834 C836 1.391 1_554 S
C835 C834 1.386 . S
C835 C839 1.393 1_554 S
C836 H825 0.950 . S
C836 C834 1.391 1_556 S
C836 C837 1.400 . S
C837 C831 1.491 . S
C837 C836 1.400 . S
C837 C838 1.398 . S
C838 H826 0.950 . S
C838 C837 1.398 . S
C838 C839 1.391 . S
C839 H827 0.950 . S
C839 C835 1.393 1_556 S
C839 C838 1.391 . S
H840 C848 0.950 . S
H841 C853 0.950 . S
H842 C850 0.950 . S
H843 C852 0.950 . S
H844 C854 0.950 . S
H845 C856 0.950 . S
H846 C858 0.950 . S
H847 C859 0.950 . S
C848 H840 0.950 . S
C848 C849 1.386 . S
C848 C850 1.391 . S
C849 C848 1.386 . S
C849 C853 1.393 . S
C850 H842 0.950 . S
C850 C848 1.391 . S
C850 C851 1.400 . S
C851 C850 1.400 . S
C851 C852 1.398 . S
C851 C857 1.491 . S
C852 H843 0.950 . S
C852 C851 1.398 . S
C852 C853 1.391 . S
C853 H841 0.950 . S
C853 C849 1.393 . S
C853 C852 1.391 . S
C854 H844 0.950 . S
C854 C855 1.386 . S
C854 C856 1.391 . S
C855 C854 1.386 . S
C855 C859 1.393 1_556 S
C856 H845 0.950 . S
C856 C854 1.391 . S
C856 C857 1.400 1_556 S
C857 C851 1.491 . S
C857 C856 1.400 1_554 S
C857 C858 1.398 . S
C858 H846 0.950 . S
C858 C857 1.398 . S
C858 C859 1.391 . S
C859 H847 0.950 . S
C859 C855 1.393 1_554 S
C859 C858 1.391 . S
H860 C868 0.950 . S
H861 C873 0.950 . S
H862 C870 0.950 . S
H863 C872 0.950 . S
H864 C874 0.950 . S
H865 C876 0.938 1_554 S
H866 C878 0.950 . S
H867 C879 0.950 . S
C868 H860 0.950 . S
C868 C869 1.386 . S
C868 C870 1.391 . S
C869 C868 1.386 . S
C869 C873 1.393 . S
C870 H862 0.950 . S
C870 C868 1.391 . S
C870 C871 1.400 . S
C871 C870 1.400 . S
C871 C872 1.398 . S
C871 C877 1.491 . S
C872 H863 0.950 . S
C872 C871 1.398 . S
C872 C873 1.391 . S
C873 H861 0.950 . S
C873 C869 1.393 . S
C873 C872 1.391 . S
C874 H864 0.950 . S
C874 C875 1.386 . S
C874 C876 1.369 1_554 S
C875 C874 1.386 . S
C875 C879 1.393 1_554 S
C876 H865 0.938 1_556 S
C876 C874 1.369 1_556 S
C876 C877 1.435 . S
C877 C871 1.491 . S
C877 C876 1.435 . S
C877 C878 1.398 . S
C878 H866 0.950 . S
C878 C877 1.398 . S
C878 C879 1.391 . S
C879 H867 0.950 . S
C879 C875 1.393 1_556 S
C879 C878 1.391 . S
H880 C888 0.950 . S
H881 C893 0.950 . S
H882 C890 0.950 . S
H883 C892 0.950 . S
H884 C894 0.950 . S
H885 C896 0.950 . S
H886 C898 0.950 . S
H887 C899 0.950 . S
C888 H880 0.950 . S
C888 C889 1.386 . S
C888 C890 1.391 . S
C889 C888 1.386 . S
C889 C893 1.393 . S
C890 H882 0.950 . S
C890 C888 1.391 . S
C890 C891 1.400 . S
C891 C890 1.400 . S
C891 C892 1.398 . S
C891 C897 1.491 . S
C892 H883 0.950 . S
C892 C891 1.398 . S
C892 C893 1.391 . S
C893 H881 0.950 . S
C893 C889 1.393 . S
C893 C892 1.391 . S
C894 H884 0.950 . S
C894 C895 1.386 . S
C894 C896 1.391 . S
C895 C894 1.386 . S
C895 C899 1.393 . S
C896 H885 0.950 . S
C896 C894 1.391 . S
C896 C897 1.400 . S
C897 C891 1.491 . S
C897 C896 1.400 . S
C897 C898 1.398 . S
C898 H886 0.950 . S
C898 C897 1.398 . S
C898 C899 1.391 . S
C899 H887 0.950 . S
C899 C895 1.393 . S
C899 C898 1.391 . S
H900 C908 0.950 . S
H901 C913 0.950 . S
H902 C910 0.950 . S
H903 C912 0.950 . S
H904 C914 0.950 . S
H905 C916 0.950 . S
H906 C918 0.950 . S
H907 C919 0.950 . S
C908 H900 0.950 . S
C908 C909 1.386 . S
C908 C910 1.391 . S
C909 C908 1.386 . S
C909 C913 1.393 . S
C910 H902 0.950 . S
C910 C908 1.391 . S
C910 C911 1.400 . S
C911 C910 1.400 . S
C911 C912 1.398 . S
C911 C917 1.491 . S
C912 H903 0.950 . S
C912 C911 1.398 . S
C912 C913 1.391 . S
C913 H901 0.950 . S
C913 C909 1.393 . S
C913 C912 1.391 . S
C914 H904 0.950 . S
C914 C915 1.386 . S
C914 C916 1.391 . S
C915 C914 1.386 . S
C915 C919 1.393 . S
C916 H905 0.950 . S
C916 C914 1.391 . S
C916 C917 1.400 . S
C917 C911 1.491 . S
C917 C916 1.400 . S
C917 C918 1.398 . S
C918 H906 0.950 . S
C918 C917 1.398 . S
C918 C919 1.391 . S
C919 H907 0.950 . S
C919 C915 1.393 . S
C919 C918 1.391 . S
H920 C928 0.950 . S
H921 C933 0.950 . S
H922 C930 0.950 . S
H923 C932 0.950 . S
H924 C934 0.950 . S
H925 C936 0.950 . S
H926 C938 0.950 . S
H927 C939 0.950 . S
C928 H920 0.950 . S
C928 C929 1.386 . S
C928 C930 1.391 . S
C929 C928 1.386 . S
C929 C933 1.393 . S
C930 H922 0.950 . S
C930 C928 1.391 . S
C930 C931 1.400 . S
C931 C930 1.400 . S
C931 C932 1.398 . S
C931 C937 1.491 . S
C932 H923 0.950 . S
C932 C931 1.398 . S
C932 C933 1.391 . S
C933 H921 0.950 . S
C933 C929 1.393 . S
C933 C932 1.391 . S
C934 H924 0.950 . S
C934 C935 1.386 . S
C934 C936 1.391 . S
C935 C934 1.386 . S
C935 C939 1.393 . S
C936 H925 0.950 . S
C936 C934 1.391 . S
C936 C937 1.400 . S
C937 C931 1.491 . S
C937 C936 1.400 . S
C937 C938 1.398 . S
C938 H926 0.950 . S
C938 C937 1.398 . S
C938 C939 1.391 . S
C939 H927 0.950 . S
C939 C935 1.393 . S
C939 C938 1.391 . S
H940 C948 0.950 . S
H941 C953 0.950 . S
H942 C950 0.950 . S
H943 C952 0.950 . S
H944 C954 0.950 . S
H945 C956 0.950 . S
H946 C958 0.950 . S
H947 C959 0.950 . S
C948 H940 0.950 . S
C948 C949 1.386 . S
C948 C950 1.391 . S
C949 C948 1.386 . S
C949 C953 1.393 . S
C950 H942 0.950 . S
C950 C948 1.391 . S
C950 C951 1.400 . S
C951 C950 1.400 . S
C951 C952 1.398 . S
C951 C957 1.491 . S
C952 H943 0.950 . S
C952 C951 1.398 . S
C952 C953 1.391 . S
C953 H941 0.950 . S
C953 C949 1.393 . S
C953 C952 1.391 . S
C954 H944 0.950 . S
C954 C955 1.386 . S
C954 C956 1.391 . S
C955 C954 1.386 . S
C955 C959 1.393 . S
C956 H945 0.950 . S
C956 C954 1.391 . S
C956 C957 1.400 . S
C957 C951 1.491 . S
C957 C956 1.400 . S
C957 C958 1.398 . S
C958 H946 0.950 . S
C958 C957 1.398 . S
C958 C959 1.391 . S
C959 H947 0.950 . S
C959 C955 1.393 . S
C959 C958 1.391 . S
H960 C968 0.950 . S
H961 C973 0.950 . S
H962 C970 0.950 . S
H963 C972 0.950 . S
H964 C974 0.950 . S
H965 C976 0.950 . S
H966 C978 0.950 . S
H967 C979 0.950 . S
C968 H960 0.950 . S
C968 C969 1.386 . S
C968 C970 1.391 . S
C969 C968 1.386 . S
C969 C973 1.393 . S
C970 H962 0.950 . S
C970 C968 1.391 . S
C970 C971 1.400 . S
C971 C970 1.400 . S
C971 C972 1.398 . S
C971 C977 1.491 . S
C972 H963 0.950 . S
C972 C971 1.398 . S
C972 C973 1.391 . S
C973 H961 0.950 . S
C973 C969 1.393 . S
C973 C972 1.391 . S
C974 H964 0.950 . S
C974 C975 1.386 . S
C974 C976 1.391 . S
C975 C974 1.386 . S
C975 C979 1.393 . S
C976 H965 0.950 . S
C976 C974 1.391 . S
C976 C977 1.400 . S
C977 C971 1.491 . S
C977 C976 1.400 . S
C977 C978 1.398 . S
C978 H966 0.950 . S
C978 C977 1.398 . S
C978 C979 1.391 . S
C979 H967 0.950 . S
C979 C975 1.393 . S
C979 C978 1.391 . S
H980 C988 0.950 . S
H981 C993 0.950 . S
H982 C990 0.950 . S
H983 C992 0.950 . S
H984 C994 0.950 . S
H985 C996 0.950 . S
H986 C998 0.950 . S
H987 C999 0.950 . S
C988 H980 0.950 . S
C988 C989 1.386 . S
C988 C990 1.391 . S
C989 C988 1.386 . S
C989 C993 1.393 . S
C990 H982 0.950 . S
C990 C988 1.391 . S
C990 C991 1.400 . S
C991 C990 1.400 . S
C991 C992 1.398 . S
C991 C997 1.491 . S
C992 H983 0.950 . S
C992 C991 1.398 . S
C992 C993 1.391 . S
C993 H981 0.950 . S
C993 C989 1.393 . S
C993 C992 1.391 . S
C994 H984 0.950 . S
C994 C995 1.386 . S
C994 C996 1.391 . S
C995 C994 1.386 . S
C995 C999 1.393 . S
C996 H985 0.950 . S
C996 C994 1.391 . S
C996 C997 1.400 . S
C997 C991 1.491 . S
C997 C996 1.400 . S
C997 C998 1.398 . S
C998 H986 0.950 . S
C998 C997 1.398 . S
C998 C999 1.391 . S
C999 H987 0.950 . S
C999 C995 1.393 . S
C999 C998 1.391 . S
H1000 C1008 0.950 . S
H1001 C1013 0.950 . S
H1002 C1010 0.950 . S
H1003 C1012 0.950 . S
H1004 C1014 0.950 . S
H1005 C1016 0.950 . S
H1006 C1018 0.950 . S
H1007 C1019 0.950 . S
C1008 H1000 0.950 . S
C1008 C1009 1.386 . S
C1008 C1010 1.391 . S
C1009 C1008 1.386 . S
C1009 C1013 1.393 . S
C1010 H1002 0.950 . S
C1010 C1008 1.391 . S
C1010 C1011 1.400 . S
C1011 C1010 1.400 . S
C1011 C1012 1.398 . S
C1011 C1017 1.491 . S
C1012 H1003 0.950 . S
C1012 C1011 1.398 . S
C1012 C1013 1.391 . S
C1013 H1001 0.950 . S
C1013 C1009 1.393 . S
C1013 C1012 1.391 . S
C1014 H1004 0.950 . S
C1014 C1015 1.386 . S
C1014 C1016 1.391 . S
C1015 C1014 1.386 . S
C1015 C1019 1.393 . S
C1016 H1005 0.950 . S
C1016 C1014 1.391 . S
C1016 C1017 1.400 . S
C1017 C1011 1.491 . S
C1017 C1016 1.400 . S
C1017 C1018 1.398 . S
C1018 H1006 0.950 . S
C1018 C1017 1.398 . S
C1018 C1019 1.391 . S
C1019 H1007 0.950 . S
C1019 C1015 1.393 . S
C1019 C1018 1.391 . S
H1020 C1028 0.950 . S
H1021 C1033 0.950 . S
H1022 C1030 0.950 . S
H1023 C1032 0.950 . S
H1024 C1034 0.950 . S
H1025 C1036 0.950 . S
H1026 C1038 0.950 . S
H1027 C1039 0.950 . S
C1028 H1020 0.950 . S
C1028 C1029 1.386 . S
C1028 C1030 1.391 . S
C1029 C1028 1.386 . S
C1029 C1033 1.393 1_455 S
C1030 H1022 0.950 . S
C1030 C1028 1.391 . S
C1030 C1031 1.400 . S
C1031 C1030 1.400 . S
C1031 C1032 1.398 1_455 S
C1031 C1037 1.491 . S
C1032 H1023 0.950 . S
C1032 C1031 1.398 1_655 S
C1032 C1033 1.391 . S
C1033 H1021 0.950 . S
C1033 C1029 1.393 1_655 S
C1033 C1032 1.391 . S
C1034 H1024 0.950 . S
C1034 C1035 1.386 1_655 S
C1034 C1036 1.391 . S
C1035 C1034 1.386 1_455 S
C1035 C1039 1.393 . S
C1036 H1025 0.950 . S
C1036 C1034 1.391 . S
C1036 C1037 1.400 1_655 S
C1037 C1031 1.491 . S
C1037 C1036 1.400 1_455 S
C1037 C1038 1.398 . S
C1038 H1026 0.950 . S
C1038 C1037 1.398 . S
C1038 C1039 1.391 . S
C1039 H1027 0.950 . S
C1039 C1035 1.393 . S
C1039 C1038 1.391 . S
H1040 C1048 0.950 . S
H1041 C1053 0.950 1_545 S
H1042 C1050 0.950 . S
H1043 C1052 0.950 1_545 S
H1044 C1054 0.950 1_545 S
H1045 C1056 0.950 1_545 S
H1046 C1058 0.950 . S
H1047 C1059 0.950 . S
C1048 H1040 0.950 . S
C1048 C1049 1.386 . S
C1048 C1050 1.391 . S
C1049 C1048 1.386 . S
C1049 C1053 1.393 . S
C1050 H1042 0.950 . S
C1050 C1048 1.391 . S
C1050 C1051 1.400 . S
C1051 C1050 1.400 . S
C1051 C1052 1.398 . S
C1051 C1057 1.491 . S
C1052 H1043 0.950 1_565 S
C1052 C1051 1.398 . S
C1052 C1053 1.391 . S
C1053 H1041 0.950 1_565 S
C1053 C1049 1.393 . S
C1053 C1052 1.391 . S
C1054 H1044 0.950 1_565 S
C1054 C1055 1.386 . S
C1054 C1056 1.391 . S
C1055 C1054 1.386 . S
C1055 C1059 1.393 . S
C1056 H1045 0.950 1_565 S
C1056 C1054 1.391 . S
C1056 C1057 1.400 . S
C1057 C1051 1.491 . S
C1057 C1056 1.400 . S
C1057 C1058 1.398 . S
C1058 H1046 0.950 . S
C1058 C1057 1.398 . S
C1058 C1059 1.391 . S
C1059 H1047 0.950 . S
C1059 C1055 1.393 . S
C1059 C1058 1.391 . S
H1060 C1068 0.950 . S
H1061 C1073 0.950 . S
H1062 C1070 0.950 . S
H1063 C1072 0.950 . S
H1064 C1074 0.950 . S
H1065 C1076 0.950 . S
H1066 C1078 0.950 . S
H1067 C1079 0.950 . S
C1068 H1060 0.950 . S
C1068 C1069 1.386 . S
C1068 C1070 1.391 . S
C1069 C1068 1.386 . S
C1069 C1073 1.393 . S
C1070 H1062 0.950 . S
C1070 C1068 1.391 . S
C1070 C1071 1.400 . S
C1071 C1070 1.400 . S
C1071 C1072 1.398 . S
C1071 C1077 1.491 . S
C1072 H1063 0.950 . S
C1072 C1071 1.398 . S
C1072 C1073 1.391 . S
C1073 H1061 0.950 . S
C1073 C1069 1.393 . S
C1073 C1072 1.391 . S
C1074 H1064 0.950 . S
C1074 C1075 1.386 . S
C1074 C1076 1.391 . S
C1075 C1074 1.386 . S
C1075 C1079 1.393 . S
C1076 H1065 0.950 . S
C1076 C1074 1.391 . S
C1076 C1077 1.400 . S
C1077 C1071 1.491 . S
C1077 C1076 1.400 . S
C1077 C1078 1.398 . S
C1078 H1066 0.950 . S
C1078 C1077 1.398 . S
C1078 C1079 1.391 . S
C1079 H1067 0.950 . S
C1079 C1075 1.393 . S
C1079 C1078 1.391 . S
H1080 C1088 0.950 . S
H1081 C1093 0.950 . S
H1082 C1090 0.950 . S
H1083 C1092 0.950 . S
H1084 C1094 0.950 . S
H1085 C1096 0.950 . S
H1086 C1098 0.950 . S
H1087 C1099 0.950 . S
C1088 H1080 0.950 . S
C1088 C1089 1.386 . S
C1088 C1090 1.391 . S
C1089 C1088 1.386 . S
C1089 C1093 1.393 . S
C1090 H1082 0.950 . S
C1090 C1088 1.391 . S
C1090 C1091 1.400 . S
C1091 C1090 1.400 . S
C1091 C1092 1.398 . S
C1091 C1097 1.491 . S
C1092 H1083 0.950 . S
C1092 C1091 1.398 . S
C1092 C1093 1.391 . S
C1093 H1081 0.950 . S
C1093 C1089 1.393 . S
C1093 C1092 1.391 . S
C1094 H1084 0.950 . S
C1094 C1095 1.386 . S
C1094 C1096 1.391 . S
C1095 C1094 1.386 . S
C1095 C1099 1.393 . S
C1096 H1085 0.950 . S
C1096 C1094 1.391 . S
C1096 C1097 1.400 . S
C1097 C1091 1.491 . S
C1097 C1096 1.400 . S
C1097 C1098 1.398 . S
C1098 H1086 0.950 . S
C1098 C1097 1.398 . S
C1098 C1099 1.391 . S
C1099 H1087 0.950 . S
C1099 C1095 1.393 . S
C1099 C1098 1.391 . S
H1100 C1108 0.950 . S
H1101 C1113 0.950 . S
H1102 C1110 0.950 . S
H1103 C1112 0.950 . S
H1104 C1114 0.950 . S
H1105 C1116 0.950 . S
H1106 C1118 0.950 . S
H1107 C1119 0.950 . S
C1108 H1100 0.950 . S
C1108 C1109 1.386 . S
C1108 C1110 1.391 . S
C1109 C1108 1.386 . S
C1109 C1113 1.393 . S
C1110 H1102 0.950 . S
C1110 C1108 1.391 . S
C1110 C1111 1.400 . S
C1111 C1110 1.400 . S
C1111 C1112 1.398 . S
C1111 C1117 1.491 . S
C1112 H1103 0.950 . S
C1112 C1111 1.398 . S
C1112 C1113 1.391 . S
C1113 H1101 0.950 . S
C1113 C1109 1.393 . S
C1113 C1112 1.391 . S
C1114 H1104 0.950 . S
C1114 C1115 1.386 . S
C1114 C1116 1.391 . S
C1115 C1114 1.386 . S
C1115 C1119 1.393 . S
C1116 H1105 0.950 . S
C1116 C1114 1.391 . S
C1116 C1117 1.400 . S
C1117 C1111 1.491 . S
C1117 C1116 1.400 . S
C1117 C1118 1.398 . S
C1118 H1106 0.950 . S
C1118 C1117 1.398 . S
C1118 C1119 1.391 . S
C1119 H1107 0.950 . S
C1119 C1115 1.393 . S
C1119 C1118 1.391 . S
C649 C21 1.034 . S
C655 C301 1.173 1_545 S
C669 C61 1.241 . S
C675 C181 1.091 . S
C689 C101 1.245 . S
C695 C221 1.297 . S
C709 C261 1.167 . S
C715 C141 1.215 1_545 S
C729 C621 1.120 . S
C735 C341 1.259 . S
C749 C501 1.250 . S
C755 C381 1.036 . S
C769 C421 1.145 1_655 S
C775 C541 1.104 . S
C789 C461 1.125 . S
C795 C581 1.162 1_655 S
C809 C335 2.822 1_554 S
C815 C2 2.632 . S
C829 C375 2.646 . S
C835 C42 2.702 . S
C849 C95 2.668 . S
C855 C402 2.846 . S
C869 C442 2.857 . S
C875 C122 2.797 . S
C889 C495 2.713 . S
C895 C162 2.534 . S
C909 C522 2.855 . S
C915 C202 2.794 . S
C929 C562 2.922 . S
C935 C255 2.739 . S
C949 C282 2.682 . S
C955 C615 2.635 . S
C969 C242 2.739 . S
C975 C15 2.656 . S
C989 C295 1.994 . S
C995 C55 1.999 . S
C1009 C82 2.715 . S
C1015 C175 2.619 . S
C1029 C135 2.072 . S
C1035 C215 2.074 . S
C1049 C575 2.073 . S
C1055 C322 2.048 . S
C1069 C602 2.609 . S
C1075 C362 2.602 . S
C1089 C415 1.959 . S
C1095 C482 1.953 . S
C1109 C455 2.684 . S
C1115 C535 2.673 . S
