# Generated by pormake.
# Topology dei, (4)-cn, num edge types: 1
# Building blocks:
#     Node 0, Type 0, BuildingBlock: GALJAG_clean_sbu_0, # of connection points: 4
#     Node 1, Type 0, BuildingBlock: GALJAG_clean_sbu_0, # of connection points: 4
#     Node 2, Type 0, BuildingBlock: GALJAG_clean_sbu_0, # of connection points: 4
#     Node 3, Type 0, BuildingBlock: GALJAG_clean_sbu_0, # of connection points: 4
#     Node 4, Type 0, BuildingBlock: GALJAG_clean_sbu_0, # of connection points: 4
#     Node 5, Type 0, BuildingBlock: GALJAG_clean_sbu_0, # of connection points: 4
#     Node 6, Type 0, BuildingBlock: GALJAG_clean_sbu_0, # of connection points: 4
#     Node 7, Type 0, BuildingBlock: GALJAG_clean_sbu_0, # of connection points: 4
#     Node 8, Type 0, BuildingBlock: GALJAG_clean_sbu_0, # of connection points: 4
#     Node 9, Type 0, BuildingBlock: GALJAG_clean_sbu_0, # of connection points: 4
#     Node 10, Type 0, BuildingBlock: GALJAG_clean_sbu_0, # of connection points: 4
#     Node 11, Type 0, BuildingBlock: GALJAG_clean_sbu_0, # of connection points: 4
#     Node 12, Type 0, BuildingBlock: GALJAG_clean_sbu_0, # of connection points: 4
#     Node 13, Type 0, BuildingBlock: GALJAG_clean_sbu_0, # of connection points: 4
#     Node 14, Type 0, BuildingBlock: GALJAG_clean_sbu_0, # of connection points: 4
#     Node 15, Type 0, BuildingBlock: GALJAG_clean_sbu_0, # of connection points: 4
#     Node 16, Type 0, BuildingBlock: GALJAG_clean_sbu_0, # of connection points: 4
#     Node 17, Type 0, BuildingBlock: GALJAG_clean_sbu_0, # of connection points: 4
#     Node 18, Type 0, BuildingBlock: GALJAG_clean_sbu_0, # of connection points: 4
#     Node 19, Type 0, BuildingBlock: GALJAG_clean_sbu_0, # of connection points: 4
#     Node 20, Type 0, BuildingBlock: GALJAG_clean_sbu_0, # of connection points: 4
#     Node 21, Type 0, BuildingBlock: GALJAG_clean_sbu_0, # of connection points: 4
#     Node 22, Type 0, BuildingBlock: GALJAG_clean_sbu_0, # of connection points: 4
#     Node 23, Type 0, BuildingBlock: GALJAG_clean_sbu_0, # of connection points: 4
#     Node 24, Type 0, BuildingBlock: GALJAG_clean_sbu_0, # of connection points: 4
#     Node 25, Type 0, BuildingBlock: GALJAG_clean_sbu_0, # of connection points: 4
#     Node 26, Type 0, BuildingBlock: GALJAG_clean_sbu_0, # of connection points: 4
#     Node 27, Type 0, BuildingBlock: GALJAG_clean_sbu_0, # of connection points: 4
#     Node 28, Type 0, BuildingBlock: GALJAG_clean_sbu_0, # of connection points: 4
#     Node 29, Type 0, BuildingBlock: GALJAG_clean_sbu_0, # of connection points: 4
#     Node 30, Type 0, BuildingBlock: GALJAG_clean_sbu_0, # of connection points: 4
#     Node 31, Type 0, BuildingBlock: GALJAG_clean_sbu_0, # of connection points: 4
#     Edge 32, Type (0, 0), BuildingBlock: TEMPAE_clean_linker_10, # of connection points: 2
#     Edge 33, Type (0, 0), BuildingBlock: TEMPAE_clean_linker_10, # of connection points: 2
#     Edge 34, Type (0, 0), BuildingBlock: TEMPAE_clean_linker_10, # of connection points: 2
#     Edge 35, Type (0, 0), BuildingBlock: TEMPAE_clean_linker_10, # of connection points: 2
#     Edge 36, Type (0, 0), BuildingBlock: TEMPAE_clean_linker_10, # of connection points: 2
#     Edge 37, Type (0, 0), BuildingBlock: TEMPAE_clean_linker_10, # of connection points: 2
#     Edge 38, Type (0, 0), BuildingBlock: TEMPAE_clean_linker_10, # of connection points: 2
#     Edge 39, Type (0, 0), BuildingBlock: TEMPAE_clean_linker_10, # of connection points: 2
#     Edge 40, Type (0, 0), BuildingBlock: TEMPAE_clean_linker_10, # of connection points: 2
#     Edge 41, Type (0, 0), BuildingBlock: TEMPAE_clean_linker_10, # of connection points: 2
#     Edge 42, Type (0, 0), BuildingBlock: TEMPAE_clean_linker_10, # of connection points: 2
#     Edge 43, Type (0, 0), BuildingBlock: TEMPAE_clean_linker_10, # of connection points: 2
#     Edge 44, Type (0, 0), BuildingBlock: TEMPAE_clean_linker_10, # of connection points: 2
#     Edge 45, Type (0, 0), BuildingBlock: TEMPAE_clean_linker_10, # of connection points: 2
#     Edge 46, Type (0, 0), BuildingBlock: TEMPAE_clean_linker_10, # of connection points: 2
#     Edge 47, Type (0, 0), BuildingBlock: TEMPAE_clean_linker_10, # of connection points: 2
#     Edge 48, Type (0, 0), BuildingBlock: TEMPAE_clean_linker_10, # of connection points: 2
#     Edge 49, Type (0, 0), BuildingBlock: TEMPAE_clean_linker_10, # of connection points: 2
#     Edge 50, Type (0, 0), BuildingBlock: TEMPAE_clean_linker_10, # of connection points: 2
#     Edge 51, Type (0, 0), BuildingBlock: TEMPAE_clean_linker_10, # of connection points: 2
#     Edge 52, Type (0, 0), BuildingBlock: TEMPAE_clean_linker_10, # of connection points: 2
#     Edge 53, Type (0, 0), BuildingBlock: TEMPAE_clean_linker_10, # of connection points: 2
#     Edge 54, Type (0, 0), BuildingBlock: TEMPAE_clean_linker_10, # of connection points: 2
#     Edge 55, Type (0, 0), BuildingBlock: TEMPAE_clean_linker_10, # of connection points: 2
#     Edge 56, Type (0, 0), BuildingBlock: TEMPAE_clean_linker_10, # of connection points: 2
#     Edge 57, Type (0, 0), BuildingBlock: TEMPAE_clean_linker_10, # of connection points: 2
#     Edge 58, Type (0, 0), BuildingBlock: TEMPAE_clean_linker_10, # of connection points: 2
#     Edge 59, Type (0, 0), BuildingBlock: TEMPAE_clean_linker_10, # of connection points: 2
#     Edge 60, Type (0, 0), BuildingBlock: TEMPAE_clean_linker_10, # of connection points: 2
#     Edge 61, Type (0, 0), BuildingBlock: TEMPAE_clean_linker_10, # of connection points: 2
#     Edge 62, Type (0, 0), BuildingBlock: TEMPAE_clean_linker_10, # of connection points: 2
#     Edge 63, Type (0, 0), BuildingBlock: TEMPAE_clean_linker_10, # of connection points: 2
#     Edge 64, Type (0, 0), BuildingBlock: TEMPAE_clean_linker_10, # of connection points: 2
#     Edge 65, Type (0, 0), BuildingBlock: TEMPAE_clean_linker_10, # of connection points: 2
#     Edge 66, Type (0, 0), BuildingBlock: TEMPAE_clean_linker_10, # of connection points: 2
#     Edge 67, Type (0, 0), BuildingBlock: TEMPAE_clean_linker_10, # of connection points: 2
#     Edge 68, Type (0, 0), BuildingBlock: TEMPAE_clean_linker_10, # of connection points: 2
#     Edge 69, Type (0, 0), BuildingBlock: TEMPAE_clean_linker_10, # of connection points: 2
#     Edge 70, Type (0, 0), BuildingBlock: TEMPAE_clean_linker_10, # of connection points: 2
#     Edge 71, Type (0, 0), BuildingBlock: TEMPAE_clean_linker_10, # of connection points: 2
#     Edge 72, Type (0, 0), BuildingBlock: TEMPAE_clean_linker_10, # of connection points: 2
#     Edge 73, Type (0, 0), BuildingBlock: TEMPAE_clean_linker_10, # of connection points: 2
#     Edge 74, Type (0, 0), BuildingBlock: TEMPAE_clean_linker_10, # of connection points: 2
#     Edge 75, Type (0, 0), BuildingBlock: TEMPAE_clean_linker_10, # of connection points: 2
#     Edge 76, Type (0, 0), BuildingBlock: TEMPAE_clean_linker_10, # of connection points: 2
#     Edge 77, Type (0, 0), BuildingBlock: TEMPAE_clean_linker_10, # of connection points: 2
#     Edge 78, Type (0, 0), BuildingBlock: TEMPAE_clean_linker_10, # of connection points: 2
#     Edge 79, Type (0, 0), BuildingBlock: TEMPAE_clean_linker_10, # of connection points: 2
#     Edge 80, Type (0, 0), BuildingBlock: TEMPAE_clean_linker_10, # of connection points: 2
#     Edge 81, Type (0, 0), BuildingBlock: TEMPAE_clean_linker_10, # of connection points: 2
#     Edge 82, Type (0, 0), BuildingBlock: TEMPAE_clean_linker_10, # of connection points: 2
#     Edge 83, Type (0, 0), BuildingBlock: TEMPAE_clean_linker_10, # of connection points: 2
#     Edge 84, Type (0, 0), BuildingBlock: TEMPAE_clean_linker_10, # of connection points: 2
#     Edge 85, Type (0, 0), BuildingBlock: TEMPAE_clean_linker_10, # of connection points: 2
#     Edge 86, Type (0, 0), BuildingBlock: TEMPAE_clean_linker_10, # of connection points: 2
#     Edge 87, Type (0, 0), BuildingBlock: TEMPAE_clean_linker_10, # of connection points: 2
#     Edge 88, Type (0, 0), BuildingBlock: TEMPAE_clean_linker_10, # of connection points: 2
#     Edge 89, Type (0, 0), BuildingBlock: TEMPAE_clean_linker_10, # of connection points: 2
#     Edge 90, Type (0, 0), BuildingBlock: TEMPAE_clean_linker_10, # of connection points: 2
#     Edge 91, Type (0, 0), BuildingBlock: TEMPAE_clean_linker_10, # of connection points: 2
#     Edge 92, Type (0, 0), BuildingBlock: TEMPAE_clean_linker_10, # of connection points: 2
#     Edge 93, Type (0, 0), BuildingBlock: TEMPAE_clean_linker_10, # of connection points: 2
#     Edge 94, Type (0, 0), BuildingBlock: TEMPAE_clean_linker_10, # of connection points: 2
#     Edge 95, Type (0, 0), BuildingBlock: TEMPAE_clean_linker_10, # of connection points: 2
# Relax obj value: 0.292
# Max RMSD: 0.107
# Mean RMSD: 0.106
data_MOF--net-dei--node1-GALJAG_clean_sbu_0--edge1-TEMPAE_clean_linker_10
_symmetry_space_group_name_H-M    P1
_symmetry_Int_Tables_number       1
_symmetry_cell_setting            triclinic
loop_
_symmetry_equiv_pos_as_xyz
'x, y, z'
_cell_length_a     57.917133
_cell_length_b     57.933548
_cell_length_c     82.617273
_cell_angle_alpha  89.983299
_cell_angle_beta   90.017273
_cell_angle_gamma 90.012834
loop_
_atom_site_label
_atom_site_type_symbol
_atom_site_fract_x
_atom_site_fract_y
_atom_site_fract_z
_atom_type_partial_charge
In0 In 0.1302 0.62613 0.03511 0.0
O1 O 0.15473 0.60162 0.02097 0.0
O2 O 0.12178 0.58942 0.02821 0.0
C3 C 0.14513 0.66975 0.02892 0.0
C4 C 0.08523 0.63317 0.02839 0.0
C5 C 0.14102 0.61562 0.066 0.0
O6 O 0.14819 0.65357 0.01885 0.0
O7 O 0.13562 0.66353 0.04189 0.0
O8 O 0.12078 0.61526 0.06046 0.0
O9 O 0.15637 0.62115 0.05582 0.0
C10 C 0.14063 0.58491 0.02135 0.0
O11 O 0.09349 0.63394 0.04249 0.0
O12 O 0.0998 0.62913 0.01736 0.0
In13 In 0.62664 0.88309 0.28103 0.0
O14 O 0.62457 0.87085 0.30704 0.0
O15 O 0.63781 0.90456 0.30313 0.0
C16 C 0.62108 0.83751 0.27595 0.0
C17 C 0.58547 0.90101 0.27081 0.0
C18 C 0.66868 0.89418 0.26851 0.0
O19 O 0.61646 0.84716 0.28926 0.0
O20 O 0.62814 0.85099 0.26497 0.0
O21 O 0.65211 0.90838 0.26843 0.0
O22 O 0.66385 0.87493 0.27465 0.0
C23 C 0.63276 0.88896 0.31322 0.0
O24 O 0.59531 0.90728 0.28365 0.0
O25 O 0.59708 0.88691 0.26256 0.0
In26 In 0.37552 0.37992 0.53252 0.0
O27 O 0.41126 0.36788 0.53997 0.0
O28 O 0.40618 0.37659 0.51522 0.0
C29 C 0.37172 0.39348 0.56366 0.0
C30 C 0.36349 0.42019 0.51785 0.0
C31 C 0.35649 0.33766 0.52666 0.0
O32 O 0.39074 0.39206 0.55632 0.0
O33 O 0.35427 0.38851 0.55516 0.0
O34 O 0.36009 0.35202 0.51544 0.0
O35 O 0.36134 0.34515 0.54053 0.0
C36 C 0.42005 0.36999 0.52608 0.0
O37 O 0.38393 0.4132 0.51936 0.0
O38 O 0.34846 0.40641 0.5233 0.0
In39 In 0.8763 0.1269 0.78253 0.0
O40 O 0.87026 0.14129 0.80767 0.0
O41 O 0.87422 0.10491 0.8056 0.0
C42 C 0.87324 0.17217 0.77516 0.0
C43 C 0.92096 0.11391 0.77731 0.0
C44 C 0.83848 0.10848 0.76769 0.0
O45 O 0.8617 0.16285 0.78634 0.0
O46 O 0.88608 0.1585 0.76737 0.0
O47 O 0.85129 0.1233 0.76107 0.0
O48 O 0.84565 0.10171 0.78127 0.0
C49 C 0.87089 0.12204 0.81479 0.0
O50 O 0.90445 0.10499 0.76948 0.0
O51 O 0.91473 0.12862 0.7876 0.0
In52 In 0.13227 0.38292 0.96444 0.0
O53 O 0.0962 0.36973 0.95877 0.0
O54 O 0.10048 0.38873 0.98051 0.0
C55 C 0.13752 0.38762 0.93226 0.0
C56 C 0.14595 0.42506 0.97533 0.0
C57 C 0.15163 0.34173 0.97299 0.0
O58 O 0.11835 0.38323 0.93885 0.0
O59 O 0.15434 0.38953 0.94196 0.0
O60 O 0.13865 0.35297 0.98236 0.0
O61 O 0.15608 0.35201 0.95994 0.0
C62 C 0.08682 0.37815 0.9712 0.0
O63 O 0.15332 0.40661 0.98169 0.0
O64 O 0.13221 0.42199 0.96375 0.0
In65 In 0.86918 0.88375 0.21433 0.0
O66 O 0.89761 0.90817 0.22462 0.0
O67 O 0.9076 0.87755 0.21251 0.0
C68 C 0.831 0.90358 0.22754 0.0
C69 C 0.86802 0.88837 0.18191 0.0
C70 C 0.86253 0.83937 0.22319 0.0
O71 O 0.84722 0.89571 0.23615 0.0
O72 O 0.83488 0.90281 0.21257 0.0
O73 O 0.85258 0.8485 0.21123 0.0
O74 O 0.87547 0.85283 0.23106 0.0
C75 C 0.91403 0.89551 0.21977 0.0
O76 O 0.86772 0.86909 0.189 0.0
O77 O 0.86904 0.90568 0.19122 0.0
In78 In 0.37733 0.62203 0.46652 0.0
O79 O 0.36587 0.59977 0.48821 0.0
O80 O 0.35835 0.58762 0.46463 0.0
C81 C 0.36564 0.66581 0.47563 0.0
C82 C 0.42286 0.61789 0.47278 0.0
C83 C 0.3729 0.61834 0.43406 0.0
O84 O 0.35056 0.65026 0.47386 0.0
O85 O 0.38594 0.65894 0.47341 0.0
O86 O 0.39004 0.61081 0.44183 0.0
O87 O 0.35746 0.62759 0.44271 0.0
C88 C 0.3577 0.5837 0.47961 0.0
O89 O 0.41494 0.62811 0.46051 0.0
O90 O 0.40773 0.60956 0.48213 0.0
In91 In 0.63343 0.12467 0.71875 0.0
O92 O 0.60249 0.10054 0.71459 0.0
O93 O 0.60464 0.11713 0.73726 0.0
C94 C 0.67221 0.10996 0.73446 0.0
C95 C 0.63645 0.12234 0.6861 0.0
C96 C 0.63217 0.17099 0.7222 0.0
O97 O 0.66218 0.09793 0.72388 0.0
O98 O 0.66191 0.12848 0.73778 0.0
O99 O 0.64796 0.16074 0.7145 0.0
O100 O 0.61701 0.15785 0.72817 0.0
C101 C 0.59295 0.10442 0.72799 0.0
O102 O 0.6237 0.13662 0.69336 0.0
O103 O 0.64763 0.10901 0.69531 0.0
In104 In 0.86778 0.38129 0.96951 0.0
O105 O 0.88597 0.37782 0.94519 0.0
O106 O 0.85139 0.39002 0.94499 0.0
C107 C 0.91367 0.38202 0.9754 0.0
C108 C 0.84817 0.33967 0.97687 0.0
C109 C 0.84962 0.4195 0.98411 0.0
O110 O 0.90301 0.39881 0.96913 0.0
O111 O 0.90115 0.36484 0.97877 0.0
O112 O 0.86473 0.40696 0.99063 0.0
O113 O 0.84246 0.41192 0.97075 0.0
C114 C 0.86916 0.38493 0.93688 0.0
O115 O 0.8582 0.35199 0.9873 0.0
O116 O 0.84677 0.34896 0.96315 0.0
In117 In 0.37746 0.1281 0.71564 0.0
O118 O 0.35836 0.13931 0.69298 0.0
O119 O 0.37734 0.10798 0.69176 0.0
C120 C 0.38058 0.17367 0.72159 0.0
C121 C 0.42187 0.11472 0.72146 0.0
C122 C 0.33941 0.11135 0.73088 0.0
O123 O 0.38111 0.16521 0.70753 0.0
O124 O 0.37849 0.15907 0.73287 0.0
O125 O 0.35032 0.09971 0.72047 0.0
O126 O 0.34862 0.13044 0.73428 0.0
C127 C 0.36483 0.12249 0.68444 0.0
O128 O 0.4052 0.10634 0.7294 0.0
O129 O 0.4159 0.12895 0.71079 0.0
In130 In 0.63909 0.62137 0.46865 0.0
O131 O 0.62438 0.61919 0.44324 0.0
O132 O 0.66057 0.62435 0.44541 0.0
C133 C 0.59492 0.61204 0.4765 0.0
C134 C 0.64842 0.66636 0.47573 0.0
C135 C 0.65979 0.58382 0.48222 0.0
O136 O 0.60471 0.60358 0.46421 0.0
O137 O 0.60761 0.62491 0.48508 0.0
O138 O 0.64875 0.59845 0.49045 0.0
O139 O 0.66183 0.58909 0.46752 0.0
C140 C 0.64345 0.62174 0.43611 0.0
O141 O 0.66359 0.65081 0.47728 0.0
O142 O 0.62915 0.65906 0.47096 0.0
In143 In 0.1272 0.88725 0.21522 0.0
O144 O 0.13192 0.86985 0.19081 0.0
O145 O 0.12711 0.90627 0.19093 0.0
C146 C 0.12547 0.84176 0.22246 0.0
C147 C 0.08579 0.90559 0.22435 0.0
C148 C 0.16766 0.90534 0.22641 0.0
O149 O 0.11213 0.85118 0.21236 0.0
O150 O 0.13964 0.85534 0.22909 0.0
O151 O 0.14977 0.90435 0.23512 0.0
O152 O 0.16469 0.89821 0.2122 0.0
C153 C 0.1304 0.88821 0.18265 0.0
O154 O 0.09612 0.8903 0.2324 0.0
O155 O 0.09706 0.91282 0.21233 0.0
In156 In 0.86688 0.62496 0.0306 0.0
O157 O 0.84436 0.65653 0.03629 0.0
O158 O 0.85646 0.6532 0.01232 0.0
C159 C 0.85065 0.58633 0.01553 0.0
C160 C 0.86787 0.62096 0.06327 0.0
C161 C 0.91269 0.62647 0.02478 0.0
O162 O 0.84018 0.59573 0.02717 0.0
O163 O 0.86821 0.59726 0.01088 0.0
O164 O 0.903 0.60944 0.03148 0.0
O165 O 0.89925 0.64275 0.02101 0.0
C166 C 0.84584 0.6655 0.02245 0.0
O167 O 0.88241 0.63263 0.05539 0.0
O168 O 0.8526 0.61136 0.05469 0.0
In169 In 0.13524 0.1221 0.77586 0.0
O170 O 0.10474 0.09652 0.77763 0.0
O171 O 0.10273 0.12253 0.75987 0.0
C172 C 0.17363 0.10197 0.76301 0.0
C173 C 0.14021 0.12182 0.8084 0.0
C174 C 0.1361 0.16794 0.77002 0.0
O175 O 0.15792 0.11057 0.75432 0.0
O176 O 0.16923 0.10226 0.7779 0.0
O177 O 0.12136 0.15854 0.77916 0.0
O178 O 0.15047 0.15418 0.76378 0.0
C179 C 0.09269 0.10605 0.76685 0.0
O180 O 0.14404 0.13941 0.79984 0.0
O181 O 0.1338 0.10422 0.80057 0.0
In182 In 0.63809 0.3805 0.531 0.0
O183 O 0.62398 0.38943 0.55585 0.0
O184 O 0.66036 0.38601 0.55362 0.0
C185 C 0.59248 0.37847 0.52454 0.0
C186 C 0.65281 0.33626 0.52686 0.0
C187 C 0.65486 0.41774 0.51459 0.0
O188 O 0.60124 0.39323 0.53395 0.0
O189 O 0.60681 0.36483 0.51812 0.0
O190 O 0.66588 0.40815 0.52589 0.0
O191 O 0.63647 0.40751 0.5108 0.0
C192 C 0.64338 0.39011 0.56277 0.0
O193 O 0.65657 0.35167 0.51633 0.0
O194 O 0.64256 0.34347 0.53929 0.0
In195 In 0.36967 0.88018 0.28202 0.0
O196 O 0.39776 0.89927 0.26686 0.0
O197 O 0.40736 0.88267 0.2887 0.0
C198 C 0.32912 0.89282 0.26814 0.0
C199 C 0.35926 0.88867 0.31331 0.0
C200 C 0.37557 0.83576 0.27358 0.0
O201 O 0.34528 0.90724 0.27023 0.0
O202 O 0.33386 0.87262 0.27263 0.0
O203 O 0.3764 0.84278 0.28802 0.0
O204 O 0.37194 0.85129 0.26313 0.0
C205 C 0.41388 0.8939 0.27651 0.0
O206 O 0.35747 0.86908 0.30684 0.0
O207 O 0.36593 0.90447 0.30387 0.0
In208 In 0.63852 0.12216 0.53142 0.0
O209 O 0.60196 0.13508 0.53595 0.0
O210 O 0.60604 0.10584 0.52067 0.0
C211 C 0.64161 0.11971 0.56409 0.0
C212 C 0.6589 0.08445 0.51786 0.0
C213 C 0.65232 0.16421 0.52007 0.0
O214 O 0.62653 0.10904 0.55604 0.0
O215 O 0.65543 0.13152 0.55567 0.0
O216 O 0.66556 0.15122 0.52807 0.0
O217 O 0.63297 0.15537 0.51699 0.0
C218 C 0.59235 0.11992 0.52729 0.0
O219 O 0.64826 0.0994 0.50963 0.0
O220 O 0.66064 0.08938 0.53265 0.0
In221 In 0.14132 0.38567 0.77844 0.0
O222 O 0.15014 0.3718 0.80331 0.0
O223 O 0.13928 0.40679 0.80187 0.0
C224 C 0.14596 0.34065 0.77085 0.0
C225 C 0.0961 0.39643 0.77337 0.0
C226 C 0.17845 0.40593 0.76397 0.0
O227 O 0.15604 0.34993 0.78273 0.0
O228 O 0.13384 0.35427 0.76244 0.0
O229 O 0.16622 0.39084 0.75709 0.0
O230 O 0.17097 0.41204 0.77761 0.0
C231 C 0.14574 0.39026 0.81077 0.0
O232 O 0.11218 0.40806 0.76697 0.0
O233 O 0.103 0.37993 0.782 0.0
In234 In 0.86776 0.88235 0.02786 0.0
O235 O 0.86345 0.90737 0.00656 0.0
O236 O 0.84073 0.91139 0.02634 0.0
C237 C 0.85579 0.83726 0.02369 0.0
C238 C 0.91235 0.88549 0.01887 0.0
C239 C 0.86528 0.88891 0.06017 0.0
O240 O 0.84495 0.85334 0.01663 0.0
O241 O 0.87191 0.84411 0.03267 0.0
O242 O 0.88368 0.89113 0.05218 0.0
O243 O 0.84782 0.88342 0.05184 0.0
C244 C 0.84768 0.91921 0.01297 0.0
O245 O 0.90368 0.89755 0.03005 0.0
O246 O 0.89831 0.87209 0.01187 0.0
In247 In 0.37974 0.62058 0.27961 0.0
O248 O 0.40838 0.59587 0.2699 0.0
O249 O 0.41813 0.6269 0.28156 0.0
C250 C 0.3425 0.59997 0.26568 0.0
C251 C 0.37625 0.61856 0.31217 0.0
C252 C 0.37336 0.66438 0.26962 0.0
O253 O 0.35647 0.61231 0.25779 0.0
O254 O 0.34833 0.5966 0.28017 0.0
O255 O 0.3619 0.65547 0.28102 0.0
O256 O 0.38769 0.65099 0.26296 0.0
C257 C 0.42468 0.60884 0.27452 0.0
O258 O 0.37677 0.63729 0.30441 0.0
O259 O 0.37763 0.60063 0.30352 0.0
In260 In 0.63735 0.88226 0.46637 0.0
O261 O 0.60024 0.89447 0.46379 0.0
O262 O 0.60607 0.86439 0.4779 0.0
C263 C 0.6411 0.89183 0.43448 0.0
C264 C 0.65423 0.91938 0.48293 0.0
C265 C 0.6537 0.83864 0.47091 0.0
O266 O 0.62226 0.89272 0.44209 0.0
O267 O 0.65836 0.88627 0.44299 0.0
O268 O 0.65379 0.85347 0.48214 0.0
O269 O 0.64621 0.84613 0.4576 0.0
C270 C 0.59159 0.87852 0.47223 0.0
O271 O 0.66495 0.91026 0.47131 0.0
O272 O 0.63612 0.9088 0.48686 0.0
In273 In 0.38151 0.39129 0.71705 0.0
O274 O 0.41045 0.41259 0.72977 0.0
O275 O 0.41953 0.38933 0.71107 0.0
C276 C 0.34488 0.41007 0.73291 0.0
C277 C 0.37463 0.39599 0.68489 0.0
C278 C 0.37842 0.34622 0.72485 0.0
O279 O 0.35213 0.41774 0.71957 0.0
O280 O 0.35727 0.39433 0.73886 0.0
O281 O 0.36459 0.35597 0.71521 0.0
O282 O 0.39364 0.35932 0.7308 0.0
C283 C 0.42644 0.40361 0.72145 0.0
O284 O 0.37438 0.37676 0.69204 0.0
O285 O 0.37826 0.41314 0.694 0.0
In286 In 0.86722 0.12246 0.96912 0.0
O287 O 0.90169 0.1038 0.96815 0.0
O288 O 0.89831 0.13141 0.98494 0.0
C289 C 0.86537 0.11826 0.93658 0.0
C290 C 0.84586 0.08593 0.98341 0.0
C291 C 0.85617 0.16763 0.97408 0.0
O292 O 0.88385 0.11673 0.94457 0.0
O293 O 0.84753 0.12186 0.94501 0.0
O294 O 0.8442 0.15151 0.98013 0.0
O295 O 0.87296 0.16078 0.96572 0.0
C296 C 0.91117 0.1161 0.97887 0.0
O297 O 0.86002 0.0987 0.99075 0.0
O298 O 0.84099 0.09272 0.96933 0.0
In299 In 0.13861 0.62323 0.21824 0.0
O300 O 0.10953 0.60631 0.23366 0.0
O301 O 0.10201 0.61624 0.20962 0.0
C302 C 0.17632 0.60671 0.23421 0.0
C303 C 0.14802 0.61823 0.18646 0.0
C304 C 0.13758 0.66904 0.22411 0.0
O305 O 0.16575 0.59507 0.22366 0.0
O306 O 0.16694 0.62574 0.23744 0.0
O307 O 0.15074 0.65987 0.21377 0.0
O308 O 0.12502 0.65498 0.23182 0.0
C309 C 0.09451 0.60781 0.22261 0.0
O310 O 0.14378 0.63744 0.19298 0.0
O311 O 0.14757 0.6012 0.19602 0.0
In312 In 0.37439 0.87831 0.46549 0.0
O313 O 0.38744 0.88298 0.43988 0.0
O314 O 0.35169 0.88897 0.444 0.0
C315 C 0.41908 0.86896 0.47194 0.0
C316 C 0.35451 0.83698 0.47296 0.0
C317 C 0.36432 0.92023 0.47835 0.0
O318 O 0.40985 0.86505 0.45839 0.0
O319 O 0.40558 0.87713 0.48249 0.0
O320 O 0.3496 0.90408 0.47815 0.0
O321 O 0.38361 0.91491 0.47245 0.0
C322 C 0.36813 0.88846 0.43395 0.0
O323 O 0.35521 0.84527 0.4589 0.0
O324 O 0.3626 0.85022 0.48369 0.0
In325 In 0.87883 0.62127 0.21771 0.0
O326 O 0.86395 0.632 0.19337 0.0
O327 O 0.88741 0.60386 0.19346 0.0
C328 C 0.87448 0.66716 0.22227 0.0
C329 C 0.92225 0.60992 0.22793 0.0
C330 C 0.84162 0.60059 0.23174 0.0
O331 O 0.88627 0.65854 0.21094 0.0
O332 O 0.8648 0.65258 0.2314 0.0
O333 O 0.85638 0.61184 0.23972 0.0
O334 O 0.84652 0.59839 0.21697 0.0
C335 C 0.87462 0.61704 0.18521 0.0
O336 O 0.90817 0.59487 0.22296 0.0
O337 O 0.91403 0.62997 0.22839 0.0
In338 In 0.12672 0.12687 0.96222 0.0
O339 O 0.15342 0.15454 0.97068 0.0
O340 O 0.1184 0.16411 0.96806 0.0
C341 C 0.14182 0.08505 0.97269 0.0
C342 C 0.13439 0.12733 0.92996 0.0
C343 C 0.08209 0.12331 0.97094 0.0
O344 O 0.14562 0.10334 0.98064 0.0
O345 O 0.13123 0.0882 0.95956 0.0
O346 O 0.08865 0.12783 0.95674 0.0
O347 O 0.09821 0.12041 0.98107 0.0
C348 C 0.13857 0.17051 0.97137 0.0
O349 O 0.11461 0.12728 0.93625 0.0
O350 O 0.15086 0.12726 0.94001 0.0
In351 In 0.63898 0.38918 0.71627 0.0
O352 O 0.6426 0.37434 0.69105 0.0
O353 O 0.64614 0.41065 0.69336 0.0
C354 C 0.63002 0.34433 0.72215 0.0
C355 C 0.59826 0.4085 0.7258 0.0
C356 C 0.68099 0.40041 0.7288 0.0
O357 O 0.62329 0.35462 0.70953 0.0
O358 O 0.64079 0.3569 0.73213 0.0
O359 O 0.66404 0.4141 0.72964 0.0
O360 O 0.67651 0.38162 0.72189 0.0
C361 C 0.64609 0.39334 0.68407 0.0
O362 O 0.60803 0.41336 0.71262 0.0
O363 O 0.60977 0.39511 0.73472 0.0
In364 In 0.37386 0.12302 0.53151 0.0
O365 O 0.38422 0.13233 0.55712 0.0
O366 O 0.34964 0.12121 0.55343 0.0
C367 C 0.41915 0.11479 0.52663 0.0
C368 C 0.36269 0.16631 0.52133 0.0
C369 C 0.35701 0.08258 0.51968 0.0
O370 O 0.40932 0.1117 0.54007 0.0
O371 O 0.406 0.12164 0.51541 0.0
O372 O 0.35876 0.10038 0.5109 0.0
O373 O 0.36283 0.08567 0.53418 0.0
C374 C 0.36492 0.12766 0.56336 0.0
O375 O 0.34736 0.1513 0.52417 0.0
O376 O 0.38301 0.15906 0.523 0.0
In377 In 0.63809 0.6193 0.28192 0.0
O378 O 0.60993 0.60538 0.26456 0.0
O379 O 0.60427 0.60246 0.28974 0.0
C380 C 0.67628 0.60291 0.26634 0.0
C381 C 0.64521 0.61912 0.31428 0.0
C382 C 0.63414 0.66488 0.27565 0.0
O383 O 0.66487 0.62007 0.26153 0.0
O384 O 0.66759 0.5929 0.27842 0.0
O385 O 0.61823 0.65067 0.27246 0.0
O386 O 0.65196 0.65604 0.2819 0.0
C387 C 0.59629 0.59947 0.27574 0.0
O388 O 0.64063 0.63715 0.30638 0.0
O389 O 0.64634 0.60097 0.30586 0.0
In390 In 0.1292 0.88122 0.0281 0.0
O391 O 0.15642 0.85216 0.02931 0.0
O392 O 0.13152 0.8505 0.0107 0.0
C393 C 0.14122 0.92422 0.01788 0.0
C394 C 0.13237 0.88313 0.06072 0.0
C395 C 0.08438 0.87692 0.02001 0.0
O396 O 0.15156 0.90642 0.01276 0.0
O397 O 0.12565 0.92011 0.02807 0.0
O398 O 0.09294 0.86801 0.0326 0.0
O399 O 0.09861 0.88772 0.01122 0.0
C400 C 0.14808 0.84067 0.01775 0.0
O401 O 0.11389 0.87866 0.05329 0.0
O402 O 0.14965 0.88645 0.05168 0.0
In403 In 0.88263 0.39022 0.78253 0.0
O404 O 0.91302 0.39281 0.76475 0.0
O405 O 0.91359 0.41487 0.78509 0.0
C406 C 0.84224 0.40888 0.77173 0.0
C407 C 0.88004 0.39128 0.81512 0.0
C408 C 0.88353 0.34475 0.77525 0.0
O409 O 0.86022 0.40856 0.76308 0.0
O410 O 0.84511 0.40084 0.78571 0.0
O411 O 0.89728 0.35398 0.78516 0.0
O412 O 0.8694 0.35853 0.76878 0.0
C413 C 0.92411 0.40763 0.77275 0.0
O414 O 0.87806 0.37297 0.80697 0.0
O415 O 0.88357 0.40929 0.80682 0.0
C416 C 0.14938 0.63548 0.15891 0.0
C417 C 0.15184 0.61602 0.16885 0.0
C418 C 0.15069 0.63361 0.14204 0.0
C419 C 0.1548 0.61178 0.13492 0.0
C420 C 0.15854 0.59226 0.14491 0.0
C421 C 0.15687 0.59459 0.16181 0.0
C422 C 0.14642 0.65483 0.13183 0.0
C423 C 0.16331 0.56879 0.13775 0.0
C424 C 0.12727 0.60604 0.09367 0.0
C425 C 0.14568 0.61157 0.08335 0.0
C426 C 0.13035 0.60487 0.11045 0.0
C427 C 0.15245 0.60918 0.1171 0.0
C428 C 0.17143 0.61342 0.1067 0.0
C429 C 0.1678 0.61466 0.08989 0.0
C430 C 0.10961 0.60037 0.12109 0.0
C431 C 0.1953 0.61775 0.11337 0.0
H432 H 0.14562 0.65212 0.16428 0.0
H433 H 0.15898 0.57954 0.16947 0.0
H434 H 0.16051 0.65711 0.12288 0.0
H435 H 0.13009 0.6527 0.12495 0.0
H436 H 0.14511 0.67078 0.13924 0.0
H437 H 0.16899 0.55617 0.14707 0.0
H438 H 0.14742 0.56208 0.13191 0.0
H439 H 0.17679 0.57 0.12825 0.0
H440 H 0.11015 0.60343 0.08868 0.0
H441 H 0.1821 0.6188 0.08194 0.0
H442 H 0.10565 0.61606 0.12828 0.0
H443 H 0.11334 0.58624 0.12977 0.0
H444 H 0.09403 0.59566 0.11397 0.0
H445 H 0.19578 0.6349 0.11932 0.0
H446 H 0.20868 0.61742 0.10374 0.0
H447 H 0.19972 0.60467 0.12268 0.0
C448 C 0.66231 0.88994 0.4081 0.0
C449 C 0.64229 0.8955 0.41679 0.0
C450 C 0.66259 0.89093 0.3911 0.0
C451 C 0.64241 0.89776 0.38267 0.0
C452 C 0.62256 0.90454 0.39145 0.0
C453 C 0.62272 0.90326 0.4084 0.0
C454 C 0.68407 0.88354 0.38216 0.0
C455 C 0.60074 0.91206 0.38294 0.0
C456 C 0.64421 0.912 0.33768 0.0
C457 C 0.63602 0.89137 0.3309 0.0
C458 C 0.64681 0.91428 0.35453 0.0
C459 C 0.64112 0.89549 0.36475 0.0
C460 C 0.63319 0.87454 0.35791 0.0
C461 C 0.63072 0.87276 0.34109 0.0
C462 C 0.65528 0.93688 0.36142 0.0
C463 C 0.62695 0.85407 0.36837 0.0
H464 H 0.67749 0.88398 0.41454 0.0
H465 H 0.60724 0.90776 0.41506 0.0
H466 H 0.68073 0.867 0.3758 0.0
H467 H 0.68875 0.89649 0.37283 0.0
H468 H 0.69901 0.88111 0.39042 0.0
H469 H 0.58764 0.91893 0.39149 0.0
H470 H 0.60466 0.92553 0.3738 0.0
H471 H 0.59311 0.89715 0.37642 0.0
H472 H 0.64838 0.92641 0.32984 0.0
H473 H 0.62447 0.85674 0.33593 0.0
H474 H 0.6706 0.9339 0.36921 0.0
H475 H 0.64169 0.94461 0.36917 0.0
H476 H 0.65994 0.94947 0.35182 0.0
H477 H 0.6418 0.84923 0.37614 0.0
H478 H 0.62181 0.83877 0.36111 0.0
H479 H 0.61243 0.85869 0.37651 0.0
C480 C 0.37013 0.41957 0.65964 0.0
C481 C 0.37171 0.39794 0.66717 0.0
C482 C 0.36837 0.42138 0.64272 0.0
C483 C 0.36849 0.40109 0.63317 0.0
C484 C 0.36963 0.37921 0.64076 0.0
C485 C 0.3711 0.37791 0.65767 0.0
C486 C 0.36688 0.44498 0.63503 0.0
C487 C 0.37002 0.35715 0.63102 0.0
C488 C 0.34915 0.39885 0.58926 0.0
C489 C 0.37043 0.39849 0.58118 0.0
C490 C 0.34813 0.40095 0.60619 0.0
C491 C 0.36889 0.40249 0.61519 0.0
C492 C 0.39035 0.40319 0.60701 0.0
C493 C 0.39084 0.40127 0.5901 0.0
C494 C 0.32492 0.40045 0.61449 0.0
C495 C 0.41289 0.4047 0.61615 0.0
H496 H 0.37047 0.4351 0.66696 0.0
H497 H 0.37231 0.36114 0.66342 0.0
H498 H 0.38263 0.44828 0.62775 0.0
H499 H 0.35192 0.44579 0.62666 0.0
H500 H 0.36514 0.45893 0.64418 0.0
H501 H 0.37018 0.34152 0.63881 0.0
H502 H 0.35472 0.35631 0.62296 0.0
H503 H 0.38558 0.35683 0.62318 0.0
H504 H 0.33332 0.39682 0.5824 0.0
H505 H 0.40735 0.40109 0.58393 0.0
H506 H 0.32363 0.41466 0.62344 0.0
H507 H 0.32297 0.38398 0.6212 0.0
H508 H 0.31042 0.40199 0.60575 0.0
H509 H 0.41254 0.41941 0.62474 0.0
H510 H 0.42794 0.40682 0.60795 0.0
H511 H 0.41541 0.38875 0.62338 0.0
C512 C 0.84407 0.11676 0.91019 0.0
C513 C 0.865 0.11662 0.91871 0.0
C514 C 0.84377 0.1161 0.89318 0.0
C515 C 0.86489 0.11554 0.88456 0.0
C516 C 0.88604 0.11498 0.89314 0.0
C517 C 0.88582 0.11542 0.91011 0.0
C518 C 0.82088 0.11651 0.88444 0.0
C519 C 0.90894 0.11459 0.8844 0.0
C520 C 0.86735 0.09844 0.84012 0.0
C521 C 0.86839 0.12008 0.83255 0.0
C522 C 0.86558 0.09665 0.85705 0.0
C523 C 0.86507 0.11697 0.86657 0.0
C524 C 0.86582 0.13884 0.85895 0.0
C525 C 0.86737 0.14011 0.84204 0.0
C526 C 0.8646 0.07304 0.86475 0.0
C527 C 0.86553 0.16092 0.86867 0.0
H528 H 0.82792 0.11757 0.9168 0.0
H529 H 0.90206 0.1153 0.91663 0.0
H530 H 0.81929 0.13273 0.87738 0.0
H531 H 0.81988 0.10199 0.87571 0.0
H532 H 0.80601 0.11532 0.89289 0.0
H533 H 0.9238 0.11325 0.89286 0.0
H534 H 0.90959 0.09982 0.87587 0.0
H535 H 0.91093 0.13058 0.87714 0.0
H536 H 0.86802 0.08291 0.83282 0.0
H537 H 0.86816 0.1569 0.83627 0.0
H538 H 0.84927 0.07171 0.87275 0.0
H539 H 0.88008 0.07036 0.87244 0.0
H540 H 0.86383 0.05899 0.85562 0.0
H541 H 0.85002 0.16145 0.87653 0.0
H542 H 0.86558 0.17653 0.86087 0.0
H543 H 0.88087 0.16157 0.87671 0.0
C544 C 0.16117 0.3958 0.90754 0.0
C545 C 0.13989 0.39004 0.91454 0.0
C546 C 0.16352 0.39756 0.89065 0.0
C547 C 0.14416 0.39332 0.88061 0.0
C548 C 0.12257 0.38787 0.88766 0.0
C549 C 0.12069 0.38635 0.90453 0.0
C550 C 0.18678 0.40353 0.88355 0.0
C551 C 0.10154 0.38311 0.87736 0.0
C552 C 0.14215 0.4125 0.83664 0.0
C553 C 0.14705 0.39178 0.8286 0.0
C554 C 0.14195 0.41351 0.85363 0.0
C555 C 0.14659 0.39329 0.86271 0.0
C556 C 0.15215 0.3725 0.85461 0.0
C557 C 0.15239 0.37202 0.83766 0.0
C558 C 0.13611 0.43602 0.86187 0.0
C559 C 0.15707 0.35053 0.86385 0.0
H560 H 0.17603 0.39877 0.91524 0.0
H561 H 0.10418 0.38195 0.90988 0.0
H562 H 0.19327 0.38882 0.87626 0.0
H563 H 0.18517 0.41854 0.87528 0.0
H564 H 0.19976 0.40766 0.89302 0.0
H565 H 0.08583 0.37992 0.88475 0.0
H566 H 0.09815 0.39791 0.86917 0.0
H567 H 0.10468 0.36776 0.86964 0.0
H568 H 0.1381 0.42783 0.82967 0.0
H569 H 0.15623 0.35596 0.83151 0.0
H570 H 0.14946 0.44034 0.87102 0.0
H571 H 0.11943 0.43432 0.86836 0.0
H572 H 0.13473 0.45055 0.85315 0.0
H573 H 0.17103 0.35345 0.87282 0.0
H574 H 0.16226 0.33612 0.85576 0.0
H575 H 0.14145 0.34521 0.87067 0.0
C576 C 0.88526 0.89564 0.08648 0.0
C577 C 0.86469 0.89167 0.07795 0.0
C578 C 0.88544 0.89684 0.10342 0.0
C579 C 0.86451 0.89415 0.11205 0.0
C580 C 0.84355 0.89094 0.10349 0.0
C581 C 0.84391 0.88965 0.08651 0.0
C582 C 0.90816 0.90012 0.1121 0.0
C583 C 0.82088 0.88819 0.11229 0.0
C584 C 0.86886 0.87018 0.15463 0.0
C585 C 0.86705 0.89019 0.16408 0.0
C586 C 0.86793 0.87128 0.1377 0.0
C587 C 0.86489 0.8929 0.13002 0.0
C588 C 0.86286 0.91318 0.13949 0.0
C589 C 0.86408 0.9116 0.15645 0.0
C590 C 0.87042 0.84928 0.12804 0.0
C591 C 0.85944 0.9365 0.1317 0.0
H592 H 0.90138 0.89728 0.07992 0.0
H593 H 0.82795 0.8867 0.07996 0.0
H594 H 0.90702 0.91482 0.12065 0.0
H595 H 0.91219 0.88448 0.11933 0.0
H596 H 0.92267 0.90333 0.1036 0.0
H597 H 0.80593 0.88774 0.10386 0.0
H598 H 0.82105 0.87192 0.11938 0.0
H599 H 0.81839 0.90256 0.12099 0.0
H600 H 0.87119 0.85358 0.16046 0.0
H601 H 0.86257 0.92709 0.16373 0.0
H602 H 0.88563 0.85055 0.11992 0.0
H603 H 0.85502 0.84671 0.12026 0.0
H604 H 0.87253 0.83385 0.13588 0.0
H605 H 0.87437 0.9406 0.1238 0.0
H606 H 0.85752 0.95051 0.14078 0.0
H607 H 0.84384 0.93623 0.1239 0.0
C608 C 0.35138 0.62238 0.40786 0.0
C609 C 0.37176 0.61705 0.41621 0.0
C610 C 0.35063 0.62176 0.39085 0.0
C611 C 0.37085 0.61605 0.38206 0.0
C612 C 0.39139 0.61047 0.39047 0.0
C613 C 0.39154 0.61087 0.40743 0.0
C614 C 0.32833 0.62746 0.38229 0.0
C615 C 0.4134 0.60463 0.38156 0.0
C616 C 0.36858 0.59729 0.33799 0.0
C617 C 0.37421 0.61787 0.32999 0.0
C618 C 0.36668 0.59658 0.35494 0.0
C619 C 0.37095 0.61683 0.36406 0.0
C620 C 0.37654 0.63767 0.35601 0.0
C621 C 0.3779 0.63798 0.33906 0.0
C622 C 0.36035 0.57413 0.36309 0.0
C623 C 0.38163 0.65954 0.36531 0.0
H624 H 0.33604 0.62706 0.41462 0.0
H625 H 0.40738 0.6068 0.41382 0.0
H626 H 0.33055 0.64334 0.37495 0.0
H627 H 0.32363 0.61333 0.37384 0.0
H628 H 0.31383 0.63019 0.39088 0.0
H629 H 0.4278 0.60032 0.38991 0.0
H630 H 0.4105 0.58976 0.37336 0.0
H631 H 0.41873 0.61947 0.37393 0.0
H632 H 0.36553 0.58176 0.33099 0.0
H633 H 0.38231 0.65392 0.33292 0.0
H634 H 0.34526 0.57671 0.37116 0.0
H635 H 0.37489 0.56817 0.37076 0.0
H636 H 0.35616 0.56033 0.35423 0.0
H637 H 0.3668 0.664 0.37321 0.0
H638 H 0.38524 0.67441 0.35721 0.0
H639 H 0.39681 0.65683 0.37329 0.0
C640 C 0.65237 0.10519 0.66062 0.0
C641 C 0.63818 0.1215 0.66824 0.0
C642 C 0.65404 0.10428 0.64366 0.0
C643 C 0.64122 0.12007 0.63415 0.0
C644 C 0.62698 0.13666 0.6418 0.0
C645 C 0.62562 0.13716 0.65875 0.0
C646 C 0.66937 0.08633 0.63593 0.0
C647 C 0.61305 0.1538 0.63208 0.0
C648 C 0.65858 0.13217 0.59057 0.0
C649 C 0.64241 0.11895 0.58198 0.0
C650 C 0.65869 0.13237 0.60757 0.0
C651 C 0.64226 0.11902 0.61616 0.0
C652 C 0.6262 0.10531 0.60754 0.0
C653 C 0.62646 0.10546 0.59056 0.0
C654 C 0.67608 0.14722 0.61635 0.0
C655 C 0.60843 0.09082 0.61625 0.0
H656 H 0.66213 0.09306 0.6679 0.0
H657 H 0.61466 0.14984 0.66458 0.0
H658 H 0.65891 0.07485 0.62807 0.0
H659 H 0.6824 0.09483 0.62809 0.0
H660 H 0.67851 0.07557 0.64503 0.0
H661 H 0.60312 0.16584 0.63989 0.0
H662 H 0.62464 0.16405 0.62417 0.0
H663 H 0.60076 0.14451 0.6241 0.0
H664 H 0.67095 0.14263 0.58399 0.0
H665 H 0.61394 0.09517 0.58399 0.0
H666 H 0.68612 0.1366 0.62503 0.0
H667 H 0.66698 0.16067 0.62346 0.0
H668 H 0.68829 0.15584 0.60792 0.0
H669 H 0.61705 0.07896 0.62489 0.0
H670 H 0.59776 0.08042 0.60778 0.0
H671 H 0.59681 0.10214 0.62338 0.0
C672 C 0.87199 0.37107 0.84117 0.0
C673 C 0.87798 0.3914 0.83297 0.0
C674 C 0.86996 0.37066 0.85808 0.0
C675 C 0.87417 0.39106 0.86703 0.0
C676 C 0.88011 0.41169 0.85883 0.0
C677 C 0.88189 0.41164 0.84186 0.0
C678 C 0.86349 0.34834 0.86637 0.0
C679 C 0.88485 0.43374 0.86798 0.0
C680 C 0.85087 0.39338 0.91004 0.0
C681 C 0.87039 0.38711 0.91906 0.0
C682 C 0.8519 0.39508 0.89309 0.0
C683 C 0.87299 0.3905 0.88502 0.0
C684 C 0.89282 0.3845 0.89411 0.0
C685 C 0.89126 0.38282 0.91101 0.0
C686 C 0.83036 0.4014 0.8838 0.0
C687 C 0.91564 0.37957 0.88596 0.0
H688 H 0.86886 0.35539 0.83436 0.0
H689 H 0.88651 0.4274 0.83557 0.0
H690 H 0.87759 0.34288 0.87461 0.0
H691 H 0.84782 0.35089 0.87388 0.0
H692 H 0.86012 0.33418 0.85762 0.0
H693 H 0.8888 0.44842 0.85979 0.0
H694 H 0.8697 0.43836 0.87553 0.0
H695 H 0.89968 0.43119 0.8763 0.0
H696 H 0.83471 0.39674 0.91622 0.0
H697 H 0.90645 0.37806 0.91792 0.0
H698 H 0.82552 0.38704 0.87558 0.0
H699 H 0.83365 0.41678 0.87613 0.0
H700 H 0.81553 0.40512 0.8919 0.0
H701 H 0.91387 0.36442 0.87784 0.0
H702 H 0.92963 0.376 0.89481 0.0
H703 H 0.92084 0.39446 0.87834 0.0
C704 C 0.34815 0.13938 0.65926 0.0
C705 C 0.35999 0.12128 0.6669 0.0
C706 C 0.34606 0.1402 0.64236 0.0
C707 C 0.35597 0.12243 0.63289 0.0
C708 C 0.36678 0.10344 0.64059 0.0
C709 C 0.36871 0.10312 0.65753 0.0
C710 C 0.33443 0.16075 0.63461 0.0
C711 C 0.37737 0.08405 0.63091 0.0
C712 C 0.34184 0.1177 0.58803 0.0
C713 C 0.36137 0.12799 0.58106 0.0
C714 C 0.33961 0.11598 0.60493 0.0
C715 C 0.35726 0.12493 0.61501 0.0
C716 C 0.37664 0.13596 0.608 0.0
C717 C 0.37849 0.13728 0.59113 0.0
C718 C 0.31874 0.10407 0.61199 0.0
C719 C 0.39572 0.14596 0.61833 0.0
H720 H 0.34127 0.15344 0.66645 0.0
H721 H 0.37777 0.08903 0.66339 0.0
H722 H 0.34754 0.17143 0.6283 0.0
H723 H 0.32172 0.15503 0.6254 0.0
H724 H 0.32544 0.17176 0.64364 0.0
H725 H 0.3829 0.06942 0.6387 0.0
H726 H 0.36491 0.07754 0.62178 0.0
H727 H 0.39268 0.09058 0.62425 0.0
H728 H 0.32862 0.11039 0.58028 0.0
H729 H 0.39359 0.14532 0.58579 0.0
H730 H 0.31009 0.11548 0.6209 0.0
H731 H 0.32423 0.08829 0.61857 0.0
H732 H 0.30602 0.09908 0.60255 0.0
H733 H 0.38849 0.1586 0.62704 0.0
H734 H 0.40921 0.1547 0.61099 0.0
H735 H 0.40402 0.13203 0.62548 0.0
C736 C 0.62546 0.61879 0.40878 0.0
C737 C 0.64538 0.62128 0.41826 0.0
C738 C 0.62676 0.61813 0.39185 0.0
C739 C 0.64854 0.61996 0.38418 0.0
C740 C 0.66876 0.6224 0.39368 0.0
C741 C 0.66693 0.62306 0.41064 0.0
C742 C 0.60478 0.6156 0.38215 0.0
C743 C 0.69226 0.62439 0.38592 0.0
C744 C 0.65086 0.59869 0.3407 0.0
C745 C 0.64794 0.61932 0.33208 0.0
C746 C 0.65185 0.59869 0.3577 0.0
C747 C 0.6499 0.61983 0.36621 0.0
C748 C 0.6477 0.64077 0.35751 0.0
C749 C 0.64673 0.64025 0.34056 0.0
C750 C 0.65423 0.57602 0.36656 0.0
C751 C 0.64561 0.66366 0.36614 0.0
H752 H 0.60874 0.61739 0.4146 0.0
H753 H 0.68239 0.62493 0.41793 0.0
H754 H 0.60255 0.63074 0.37408 0.0
H755 H 0.60581 0.60007 0.37433 0.0
H756 H 0.58926 0.61409 0.38998 0.0
H757 H 0.70633 0.62578 0.39501 0.0
H758 H 0.6956 0.60911 0.37817 0.0
H759 H 0.69283 0.63982 0.37797 0.0
H760 H 0.65186 0.58248 0.3342 0.0
H761 H 0.64458 0.65628 0.33395 0.0
H762 H 0.63831 0.57258 0.37363 0.0
H763 H 0.66878 0.57685 0.37527 0.0
H764 H 0.65716 0.56132 0.35817 0.0
H765 H 0.62938 0.66404 0.37327 0.0
H766 H 0.64552 0.67848 0.3576 0.0
H767 H 0.6601 0.66592 0.37477 0.0
C768 C 0.12958 0.90884 0.15601 0.0
C769 C 0.13233 0.88833 0.1648 0.0
C770 C 0.13076 0.90889 0.13903 0.0
C771 C 0.13484 0.88792 0.13068 0.0
C772 C 0.1381 0.86726 0.13953 0.0
C773 C 0.13677 0.86771 0.15648 0.0
C774 C 0.12715 0.93125 0.13 0.0
C775 C 0.1425 0.84456 0.13109 0.0
C776 C 0.11302 0.88162 0.08763 0.0
C777 C 0.13329 0.88459 0.07858 0.0
C778 C 0.11329 0.88295 0.10456 0.0
C779 C 0.13436 0.88728 0.11268 0.0
C780 C 0.1549 0.89039 0.10363 0.0
C781 C 0.15411 0.88903 0.08664 0.0
C782 C 0.09101 0.87954 0.11377 0.0
C783 C 0.17769 0.89497 0.11189 0.0
H784 H 0.1262 0.92483 0.1624 0.0
H785 H 0.13902 0.8518 0.16321 0.0
H786 H 0.14186 0.93451 0.1217 0.0
H787 H 0.11135 0.93002 0.12244 0.0
H788 H 0.12533 0.94624 0.13828 0.0
H789 H 0.14583 0.83028 0.13975 0.0
H790 H 0.12734 0.8399 0.12355 0.0
H791 H 0.15754 0.84614 0.12285 0.0
H792 H 0.09684 0.87824 0.08146 0.0
H793 H 0.16981 0.89137 0.0797 0.0
H794 H 0.0875 0.89481 0.12149 0.0
H795 H 0.09255 0.86439 0.12192 0.0
H796 H 0.07601 0.8768 0.10561 0.0
H797 H 0.17637 0.9106 0.11959 0.0
H798 H 0.192 0.89746 0.10311 0.0
H799 H 0.18211 0.88032 0.11997 0.0
C800 C 0.85262 0.60527 0.08943 0.0
C801 C 0.86876 0.61886 0.08111 0.0
C802 C 0.85321 0.60348 0.10639 0.0
C803 C 0.8703 0.61564 0.11521 0.0
C804 C 0.88678 0.62918 0.10684 0.0
C805 C 0.88582 0.6306 0.0899 0.0
C806 C 0.83539 0.58882 0.11489 0.0
C807 C 0.90522 0.64248 0.1158 0.0
C808 C 0.85914 0.63188 0.15902 0.0
C809 C 0.87273 0.61577 0.16737 0.0
C810 C 0.85787 0.63174 0.14207 0.0
C811 C 0.87046 0.61502 0.13323 0.0
C812 C 0.88386 0.5984 0.14159 0.0
C813 C 0.88487 0.599 0.15859 0.0
C814 C 0.84345 0.6498 0.13361 0.0
C815 C 0.89744 0.58026 0.13258 0.0
H816 H 0.83944 0.59609 0.08269 0.0
H817 H 0.89838 0.6411 0.08354 0.0
H818 H 0.84402 0.57581 0.12267 0.0
H819 H 0.82466 0.59981 0.12291 0.0
H820 H 0.82384 0.57973 0.10625 0.0
H821 H 0.91714 0.65168 0.10747 0.0
H822 H 0.89707 0.65534 0.12394 0.0
H823 H 0.91548 0.63061 0.12349 0.0
H824 H 0.84969 0.64488 0.16573 0.0
H825 H 0.89538 0.58648 0.16499 0.0
H826 H 0.83066 0.64142 0.12552 0.0
H827 H 0.85467 0.66078 0.12591 0.0
H828 H 0.83408 0.6611 0.14226 0.0
H829 H 0.88588 0.57047 0.12436 0.0
H830 H 0.9061 0.56791 0.14088 0.0
H831 H 0.91077 0.58867 0.12495 0.0
C832 C 0.13925 0.10191 0.83527 0.0
C833 C 0.14248 0.12212 0.82622 0.0
C834 C 0.14017 0.10234 0.85225 0.0
C835 C 0.14423 0.12351 0.86034 0.0
C836 C 0.1482 0.14383 0.85123 0.0
C837 C 0.14734 0.14287 0.83428 0.0
C838 C 0.136 0.08029 0.86155 0.0
C839 C 0.1524 0.16676 0.8594 0.0
C840 C 0.11825 0.13002 0.90215 0.0
C841 C 0.13751 0.12701 0.91221 0.0
C842 C 0.12031 0.12908 0.88528 0.0
C843 C 0.14217 0.12484 0.87825 0.0
C844 C 0.16177 0.12191 0.88832 0.0
C845 C 0.15922 0.12313 0.90523 0.0
C846 C 0.09902 0.13253 0.87498 0.0
C847 C 0.18531 0.11723 0.88122 0.0
H848 H 0.13564 0.0858 0.82909 0.0
H849 H 0.14993 0.15854 0.82733 0.0
H850 H 0.14989 0.07757 0.8706 0.0
H851 H 0.11947 0.08159 0.86828 0.0
H852 H 0.13517 0.06496 0.8535 0.0
H853 H 0.15692 0.18056 0.85061 0.0
H854 H 0.13666 0.17211 0.86606 0.0
H855 H 0.16655 0.16523 0.86838 0.0
H856 H 0.10142 0.13311 0.90747 0.0
H857 H 0.17413 0.12072 0.91298 0.0
H858 H 0.09581 0.11693 0.86753 0.0
H859 H 0.10168 0.14719 0.86653 0.0
H860 H 0.08337 0.13605 0.88236 0.0
H861 H 0.18485 0.1011 0.87399 0.0
H862 H 0.19883 0.11552 0.89069 0.0
H863 H 0.19027 0.13141 0.87289 0.0
C864 C 0.66743 0.39406 0.58782 0.0
C865 C 0.64569 0.39421 0.58035 0.0
C866 C 0.66948 0.39614 0.60471 0.0
C867 C 0.64931 0.39829 0.61428 0.0
C868 C 0.6274 0.39933 0.60671 0.0
C869 C 0.62587 0.39732 0.58984 0.0
C870 C 0.69313 0.39512 0.61235 0.0
C871 C 0.60547 0.40153 0.61648 0.0
C872 C 0.64831 0.37467 0.657 0.0
C873 C 0.64883 0.39489 0.66631 0.0
C874 C 0.64922 0.37557 0.64007 0.0
C875 C 0.65074 0.39723 0.63223 0.0
C876 C 0.65205 0.4177 0.64156 0.0
C877 C 0.65104 0.41629 0.65854 0.0
C878 C 0.64775 0.35332 0.63058 0.0
C879 C 0.65381 0.44108 0.6336 0.0
H880 H 0.68281 0.39178 0.58052 0.0
H881 H 0.60903 0.39757 0.58412 0.0
H882 H 0.69542 0.40957 0.62101 0.0
H883 H 0.69492 0.37882 0.6193 0.0
H884 H 0.70715 0.39588 0.6032 0.0
H885 H 0.58998 0.40378 0.6087 0.0
H886 H 0.60304 0.38582 0.62397 0.0
H887 H 0.60666 0.41644 0.62486 0.0
H888 H 0.64671 0.35806 0.66293 0.0
H889 H 0.65151 0.43196 0.6657 0.0
H890 H 0.66244 0.35203 0.62202 0.0
H891 H 0.63165 0.35314 0.62329 0.0
H892 H 0.64784 0.33786 0.63853 0.0
H893 H 0.66816 0.44125 0.62471 0.0
H894 H 0.65668 0.45512 0.64254 0.0
H895 H 0.63767 0.44479 0.62686 0.0
C896 C 0.34985 0.87309 0.34058 0.0
C897 C 0.3559 0.89202 0.33089 0.0
C898 C 0.34962 0.87483 0.35748 0.0
C899 C 0.35544 0.89607 0.36489 0.0
C900 C 0.3602 0.91563 0.35516 0.0
C901 C 0.36047 0.91335 0.33822 0.0
C902 C 0.3445 0.85353 0.36741 0.0
C903 C 0.36619 0.93863 0.36264 0.0
C904 C 0.34352 0.89895 0.41009 0.0
C905 C 0.36507 0.89264 0.41644 0.0
C906 C 0.3403 0.90125 0.3933 0.0
C907 C 0.35901 0.89689 0.3827 0.0
C908 C 0.38097 0.89128 0.38912 0.0
C909 C 0.38374 0.88933 0.4059 0.0
C910 C 0.31672 0.90753 0.38688 0.0
C911 C 0.40134 0.88635 0.37824 0.0
H912 H 0.34616 0.85658 0.33498 0.0
H913 H 0.36505 0.92806 0.33077 0.0
H914 H 0.36035 0.84805 0.37392 0.0
H915 H 0.33116 0.85731 0.37666 0.0
H916 H 0.33844 0.83889 0.35983 0.0
H917 H 0.3663 0.95277 0.35355 0.0
H918 H 0.35373 0.94304 0.37235 0.0
H919 H 0.38355 0.93763 0.36826 0.0
H920 H 0.32907 0.90166 0.4182 0.0
H921 H 0.40046 0.88453 0.41074 0.0
H922 H 0.30912 0.89247 0.38053 0.0
H923 H 0.3181 0.92175 0.37793 0.0
H924 H 0.30474 0.9129 0.39668 0.0
H925 H 0.3978 0.87071 0.37089 0.0
H926 H 0.41753 0.88349 0.38518 0.0
H927 H 0.40411 0.90088 0.36972 0.0
C928 C 0.05047 0.62855 0.01063 0.0
C929 C 0.06016 0.63517 0.02546 0.0
C930 C 0.02638 0.62795 0.00855 0.0
C931 C 0.01182 0.63426 0.02159 0.0
C932 C 0.02162 0.64196 0.03633 0.0
C933 C 0.04565 0.64226 0.03809 0.0
C934 C 0.01653 0.61965 0.99267 0.0
C935 C 0.0067 0.64904 0.05048 0.0
C936 C 0.94819 0.64799 0.01648 0.0
C937 C 0.93793 0.62774 0.02237 0.0
C938 C 0.97229 0.65005 0.01545 0.0
C939 C 0.98639 0.63139 0.02041 0.0
C940 C 0.97607 0.61055 0.02571 0.0
C941 C 0.95195 0.609 0.02665 0.0
C942 C 0.98268 0.67253 0.00974 0.0
C943 C 0.99052 0.59022 0.03104 0.0
H944 H 0.06166 0.62304 0.00085 0.0
H945 H 0.05308 0.64756 0.04955 0.0
H946 H 0.00776 0.60283 0.99451 0.0
H947 H 1.00337 0.63197 0.98813 0.0
H948 H 0.03007 0.61746 0.98327 0.0
H949 H 0.01701 0.65606 0.0607 0.0
H950 H 0.994 0.66229 0.04665 0.0
H951 H 0.9968 0.6339 0.05491 0.0
H952 H 0.9374 0.6625 0.01309 0.0
H953 H 0.94409 0.59325 0.03112 0.0
H954 H 0.99589 0.6693 0.00029 0.0
H955 H 0.99148 0.68119 0.02001 0.0
H956 H 0.96944 0.68447 0.00478 0.0
H957 H 1.00344 0.58586 0.02161 0.0
H958 H 0.97987 0.57467 0.03354 0.0
H959 H 1.00015 0.59477 0.0422 0.0
C960 C 0.64975 0.70489 0.27754 0.0
C961 C 0.63166 0.69003 0.27324 0.0
C962 C 0.64717 0.72891 0.27652 0.0
C963 C 0.62598 0.73828 0.27105 0.0
C964 C 0.60791 0.72336 0.26618 0.0
C965 C 0.61096 0.69936 0.26735 0.0
C966 C 0.66686 0.74425 0.28182 0.0
C967 C 0.58512 0.73274 0.26024 0.0
C968 C 0.61296 0.79825 0.28688 0.0
C969 C 0.62004 0.81218 0.27393 0.0
C970 C 0.61404 0.77413 0.28586 0.0
C971 C 0.62236 0.76368 0.27152 0.0
C972 C 0.62866 0.77762 0.25815 0.0
C973 C 0.62745 0.80176 0.25952 0.0
C974 C 0.60713 0.75986 0.30039 0.0
C975 C 0.6375 0.76708 0.24264 0.0
H976 H 0.66582 0.69777 0.28205 0.0
H977 H 0.59695 0.68793 0.26397 0.0
H978 H 0.6712 0.75675 0.27211 0.0
H979 H 0.66161 0.75436 0.29261 0.0
H980 H 0.68263 0.73424 0.28489 0.0
H981 H 0.57352 0.7189 0.25571 0.0
H982 H 0.57625 0.74194 0.27024 0.0
H983 H 0.58798 0.74544 0.25039 0.0
H984 H 0.60715 0.80621 0.29803 0.0
H985 H 0.6329 0.81247 0.24946 0.0
H986 H 0.62246 0.75065 0.30521 0.0
H987 H 0.59429 0.74659 0.29683 0.0
H988 H 0.59966 0.77056 0.31024 0.0
H989 H 0.65442 0.75868 0.24489 0.0
H990 H 0.63972 0.78013 0.23291 0.0
H991 H 0.62548 0.7535 0.23831 0.0
C992 C 0.45908 0.35785 0.53543 0.0
C993 C 0.44509 0.36732 0.52329 0.0
C994 C 0.4832 0.35799 0.53401 0.0
C995 C 0.49355 0.36808 0.52019 0.0
C996 C 0.47948 0.37666 0.50753 0.0
C997 C 0.45535 0.37607 0.5092 0.0
C998 C 0.49759 0.34839 0.54769 0.0
C999 C 0.48989 0.38762 0.49265 0.0
C1000 C 0.55263 0.3938 0.52807 0.0
C1001 C 0.5673 0.37662 0.52203 0.0
C1002 C 0.52859 0.39158 0.52698 0.0
C1003 C 0.51897 0.37157 0.51981 0.0
C1004 C 0.5337 0.35445 0.51326 0.0
C1005 C 0.55775 0.35723 0.51439 0.0
C1006 C 0.51347 0.41035 0.53396 0.0
C1007 C 0.52406 0.33283 0.50561 0.0
H1008 H 0.4512 0.35091 0.54629 0.0
H1009 H 0.44457 0.38345 0.49979 0.0
H1010 H 0.51084 0.33634 0.54294 0.0
H1011 H 0.50683 0.36269 0.55385 0.0
H1012 H 0.48695 0.33914 0.55681 0.0
H1013 H 0.47673 0.39116 0.48318 0.0
H1014 H 0.49825 0.40417 0.49603 0.0
H1015 H 0.50346 0.37633 0.48745 0.0
H1016 H 0.55995 0.40889 0.5339 0.0
H1017 H 0.56905 0.34389 0.50972 0.0
H1018 H 0.50357 0.40344 0.54439 0.0
H1019 H 0.50077 0.41626 0.5248 0.0
H1020 H 0.52363 0.42548 0.53814 0.0
H1021 H 0.51507 0.32239 0.51495 0.0
H1022 H 0.53774 0.32204 0.5 0.0
H1023 H 0.51112 0.33732 0.49623 0.0
C1024 C 0.86675 0.30978 0.76189 0.0
C1025 C 0.88301 0.31957 0.77243 0.0
C1026 C 0.86483 0.28572 0.76029 0.0
C1027 C 0.87943 0.2712 0.76953 0.0
C1028 C 0.89642 0.28104 0.77974 0.0
C1029 C 0.89803 0.30511 0.78104 0.0
C1030 C 0.84664 0.27583 0.74919 0.0
C1031 C 0.9123 0.26615 0.78982 0.0
C1032 C 0.85961 0.21164 0.78234 0.0
C1033 C 0.873 0.19736 0.77237 0.0
C1034 C 0.86092 0.23572 0.7811 0.0
C1035 C 0.87593 0.24578 0.76956 0.0
C1036 C 0.88875 0.23147 0.75897 0.0
C1037 C 0.88718 0.20737 0.76054 0.0
C1038 C 0.84698 0.25039 0.79262 0.0
C1039 C 0.90478 0.24159 0.74644 0.0
H1040 H 0.85515 0.32091 0.75516 0.0
H1041 H 0.91068 0.31258 0.78917 0.0
H1042 H 0.85437 0.26275 0.74102 0.0
H1043 H 0.8332 0.26698 0.75647 0.0
H1044 H 0.83819 0.28936 0.74172 0.0
H1045 H 0.92546 0.27647 0.7964 0.0
H1046 H 0.90202 0.25629 0.7988 0.0
H1047 H 0.9213 0.25342 0.78203 0.0
H1048 H 0.84856 0.20399 0.79148 0.0
H1049 H 0.89751 0.19639 0.75277 0.0
H1050 H 0.83669 0.2633 0.78581 0.0
H1051 H 0.85879 0.26005 0.80075 0.0
H1052 H 0.83507 0.23993 0.80019 0.0
H1053 H 0.89568 0.25489 0.73919 0.0
H1054 H 0.91174 0.22824 0.73812 0.0
H1055 H 0.91948 0.25023 0.75256 0.0
C1056 C 0.95013 0.36308 0.98474 0.0
C1057 C 0.93903 0.38187 0.97739 0.0
C1058 C 0.97433 0.36194 0.98549 0.0
C1059 C 0.98766 0.37992 0.97861 0.0
C1060 C 0.9765 0.39927 0.97164 0.0
C1061 C 0.95231 0.40005 0.97118 0.0
C1062 C 0.98562 0.34115 0.99316 0.0
C1063 C 0.99011 0.41874 0.96409 0.0
C1064 C 0.05164 0.3869 0.98772 0.0
C1065 C 0.06163 0.37698 0.97392 0.0
C1066 C 0.02754 0.38735 0.98971 0.0
C1067 C 0.0132 0.3778 0.97754 0.0
C1068 C 0.02326 0.36722 0.96381 0.0
C1069 C 0.04735 0.36687 0.9622 0.0
C1070 C 0.01742 0.39858 0.00458 0.0
C1071 C 0.00857 0.35692 0.95053 0.0
H1072 H 0.93991 0.34903 0.98962 0.0
H1073 H 0.94382 0.41463 0.96551 0.0
H1074 H 0.99473 0.33098 0.98375 0.0
H1075 H 0.99872 0.34667 0.00215 0.0
H1076 H 0.97289 0.32973 -0.00074 0.0
H1077 H 0.97886 0.43314 0.96002 0.0
H1078 H 1.0029 0.4256 0.97285 0.0
H1079 H 0.99986 0.41217 0.95349 0.0
H1080 H 0.06262 0.39468 0.99684 0.0
H1081 H 0.05497 0.35916 0.95151 0.0
H1082 H 0.00506 0.38668 0.01056 0.0
H1083 H 0.00765 0.41425 0.00104 0.0
H1084 H 0.0309 0.4036 0.01347 0.0
H1085 H 0.99653 0.34394 0.95565 0.0
H1086 H 0.0191 0.34851 0.94097 0.0
H1087 H 0.99793 0.37063 0.94484 0.0
C1088 C 0.84578 0.8006 0.2175 0.0
C1089 C 0.8611 0.81434 0.22644 0.0
C1090 C 0.84651 0.77647 0.21857 0.0
C1091 C 0.86305 0.76585 0.22874 0.0
C1092 C 0.87766 0.77965 0.2385 0.0
C1093 C 0.87647 0.8038 0.23726 0.0
C1094 C 0.83047 0.76236 0.20808 0.0
C1095 C 0.8955 0.76894 0.24951 0.0
C1096 C 0.85721 0.70135 0.2363 0.0
C1097 C 0.87207 0.69234 0.22448 0.0
C1098 C 0.85433 0.7253 0.23806 0.0
C1099 C 0.86667 0.74049 0.22779 0.0
C1100 C 0.882 0.73144 0.21605 0.0
C1101 C 0.88446 0.70749 0.21451 0.0
C1102 C 0.8378 0.73435 0.25068 0.0
C1103 C 0.89555 0.74707 0.2049 0.0
H1104 H 0.83374 0.80869 0.2092 0.0
H1105 H 0.88832 0.81436 0.24421 0.0
H1106 H 0.84058 0.75358 0.19848 0.0
H1107 H 0.82187 0.74875 0.21536 0.0
H1108 H 0.817 0.77314 0.2022 0.0
H1109 H 0.9036 0.78187 0.25766 0.0
H1110 H 0.88764 0.75513 0.25699 0.0
H1111 H 0.90927 0.76086 0.24209 0.0
H1112 H 0.8476 0.68969 0.24404 0.0
H1113 H 0.89603 0.70061 0.2054 0.0
H1114 H 0.8235 0.74381 0.24469 0.0
H1115 H 0.84674 0.74677 0.25875 0.0
H1116 H 0.83031 0.72031 0.25818 0.0
H1117 H 0.88351 0.75727 0.19728 0.0
H1118 H 0.90735 0.7373 0.19682 0.0
H1119 H 0.90592 0.75949 0.21209 0.0
C1120 C 0.45668 0.60112 0.48767 0.0
C1121 C 0.44793 0.61589 0.4757 0.0
C1122 C 0.48062 0.59862 0.4899 0.0
C1123 C 0.49601 0.61138 0.48002 0.0
C1124 C 0.48718 0.62668 0.46818 0.0
C1125 C 0.46328 0.62864 0.46612 0.0
C1126 C 0.48945 0.58204 0.50255 0.0
C1127 C 0.503 0.64077 0.4575 0.0
C1128 C 0.55851 0.62348 0.49055 0.0
C1129 C 0.56998 0.60908 0.47954 0.0
C1130 C 0.53432 0.62341 0.49161 0.0
C1131 C 0.52141 0.60845 0.48153 0.0
C1132 C 0.53302 0.59272 0.47125 0.0
C1133 C 0.55719 0.59332 0.47032 0.0
C1134 C 0.52258 0.6405 0.50268 0.0
C1135 C 0.51989 0.57628 0.46046 0.0
H1136 H 0.44483 0.59121 0.49508 0.0
H1137 H 0.4566 0.6402 0.45691 0.0
H1138 H 0.49945 0.56805 0.49664 0.0
H1139 H 0.50136 0.59105 0.51096 0.0
H1140 H 0.47525 0.57414 0.50969 0.0
H1141 H 0.49333 0.65251 0.4493 0.0
H1142 H 0.51486 0.65128 0.46504 0.0
H1143 H 0.51379 0.62912 0.45 0.0
H1144 H 0.56835 0.63567 0.49774 0.0
H1145 H 0.56601 0.582 0.4619 0.0
H1146 H 0.50867 0.63198 0.50971 0.0
H1147 H 0.51442 0.65428 0.4953 0.0
H1148 H 0.5349 0.64868 0.51124 0.0
H1149 H 0.5062 0.56727 0.4674 0.0
H1150 H 0.53137 0.56316 0.45486 0.0
H1151 H 0.51131 0.58614 0.45063 0.0
C1152 C 0.64832 0.21011 0.71659 0.0
C1153 C 0.63123 0.19638 0.72376 0.0
C1154 C 0.64729 0.23426 0.71747 0.0
C1155 C 0.62872 0.24492 0.72574 0.0
C1156 C 0.61161 0.23114 0.73324 0.0
C1157 C 0.61306 0.207 0.73215 0.0
C1158 C 0.66587 0.24837 0.70931 0.0
C1159 C 0.59158 0.24191 0.74216 0.0
C1160 C 0.63795 0.30773 0.73723 0.0
C1161 C 0.62738 0.31913 0.72422 0.0
C1162 C 0.63782 0.28352 0.73822 0.0
C1163 C 0.62685 0.27051 0.72591 0.0
C1164 C 0.61531 0.282 0.71313 0.0
C1165 C 0.61573 0.30618 0.71244 0.0
C1166 C 0.65022 0.27187 0.75206 0.0
C1167 C 0.60333 0.26875 0.69982 0.0
H1168 H 0.66242 0.20198 0.71011 0.0
H1169 H 0.59983 0.19644 0.73775 0.0
H1170 H 0.65812 0.25919 0.69965 0.0
H1171 H 0.67403 0.26023 0.71817 0.0
H1172 H 0.67954 0.23742 0.70383 0.0
H1173 H 0.58027 0.22878 0.74793 0.0
H1174 H 0.59803 0.25382 0.75166 0.0
H1175 H 0.58103 0.25231 0.73365 0.0
H1176 H 0.64697 0.31767 0.74637 0.0
H1177 H 0.60747 0.31491 0.70238 0.0
H1178 H 0.66543 0.26235 0.74736 0.0
H1179 H 0.63875 0.25906 0.75797 0.0
H1180 H 0.65623 0.2844 0.76132 0.0
H1181 H 0.61627 0.25882 0.69277 0.0
H1182 H 0.59381 0.28026 0.69138 0.0
H1183 H 0.591 0.25614 0.70504 0.0
C1184 C 0.35882 0.30804 0.72285 0.0
C1185 C 0.37789 0.32112 0.72783 0.0
C1186 C 0.35907 0.28389 0.7239 0.0
C1187 C 0.37902 0.27258 0.72983 0.0
C1188 C 0.39793 0.28575 0.73555 0.0
C1189 C 0.39707 0.30993 0.73458 0.0
C1190 C 0.33842 0.27046 0.71791 0.0
C1191 C 0.41958 0.27431 0.74181 0.0
C1192 C 0.37437 0.20842 0.73906 0.0
C1193 C 0.38164 0.1988 0.72436 0.0
C1194 C 0.37378 0.23248 0.7412 0.0
C1195 C 0.38095 0.24709 0.7284 0.0
C1196 C 0.38907 0.23736 0.71376 0.0
C1197 C 0.38914 0.21335 0.71187 0.0
C1198 C 0.36478 0.24227 0.7569 0.0
C1199 C 0.39721 0.25233 0.69991 0.0
H1200 H 0.34388 0.31666 0.71775 0.0
H1201 H 0.41186 0.32 0.73844 0.0
H1202 H 0.34303 0.26118 0.70661 0.0
H1203 H 0.33322 0.25729 0.72695 0.0
H1204 H 0.32339 0.2818 0.71536 0.0
H1205 H 0.4317 0.2869 0.74736 0.0
H1206 H 0.41525 0.26093 0.75092 0.0
H1207 H 0.42856 0.26551 0.73168 0.0
H1208 H 0.3685 0.19718 0.74871 0.0
H1209 H 0.39494 0.20594 0.70053 0.0
H1210 H 0.34861 0.25201 0.75459 0.0
H1211 H 0.37742 0.2546 0.7621 0.0
H1212 H 0.36115 0.22861 0.76599 0.0
H1213 H 0.38262 0.26283 0.69527 0.0
H1214 H 0.40432 0.24202 0.68973 0.0
H1215 H 0.41073 0.26448 0.70415 0.0
C1216 C 0.12113 0.70419 0.23752 0.0
C1217 C 0.13628 0.69434 0.22623 0.0
C1218 C 0.11882 0.72828 0.23875 0.0
C1219 C 0.13187 0.74274 0.22838 0.0
C1220 C 0.14757 0.73284 0.21725 0.0
C1221 C 0.14963 0.70879 0.21634 0.0
C1222 C 0.10203 0.73824 0.25085 0.0
C1223 C 0.16174 0.74765 0.20593 0.0
C1224 C 0.11066 0.80225 0.21647 0.0
C1225 C 0.1255 0.81657 0.22535 0.0
C1226 C 0.11192 0.77816 0.21786 0.0
C1227 C 0.12836 0.76817 0.22844 0.0
C1228 C 0.1427 0.78257 0.23797 0.0
C1229 C 0.14114 0.80664 0.23627 0.0
C1230 C 0.09637 0.7634 0.20745 0.0
C1231 C 0.1603 0.77254 0.24947 0.0
H1232 H 0.11081 0.69308 0.24521 0.0
H1233 H 0.16138 0.70128 0.2076 0.0
H1234 H 0.11078 0.75131 0.25852 0.0
H1235 H 0.08782 0.74716 0.24436 0.0
H1236 H 0.09443 0.72478 0.2588 0.0
H1237 H 0.1738 0.73729 0.19841 0.0
H1238 H 0.15012 0.75745 0.19775 0.0
H1239 H 0.17192 0.76044 0.21293 0.0
H1240 H 0.09848 0.80983 0.20805 0.0
H1241 H 0.15258 0.81766 0.24322 0.0
H1242 H 0.08715 0.75053 0.215 0.0
H1243 H 0.10693 0.75371 0.19855 0.0
H1244 H 0.0834 0.77382 0.20075 0.0
H1245 H 0.15215 0.75943 0.25741 0.0
H1246 H 0.16846 0.78598 0.25717 0.0
H1247 H 0.17405 0.76369 0.24247 0.0
C1248 C 0.12171 0.20763 0.77584 0.0
C1249 C 0.13721 0.1932 0.76765 0.0
C1250 C 0.12349 0.23171 0.7747 0.0
C1251 C 0.14117 0.24159 0.7651 0.0
C1252 C 0.1564 0.22711 0.75637 0.0
C1253 C 0.15428 0.20304 0.75778 0.0
C1254 C 0.10692 0.24656 0.78423 0.0
C1255 C 0.17537 0.23703 0.74594 0.0
C1256 C 0.13364 0.30533 0.75567 0.0
C1257 C 0.1468 0.31549 0.768 0.0
C1258 C 0.1324 0.28121 0.7541 0.0
C1259 C 0.14453 0.26703 0.76517 0.0
C1260 C 0.15861 0.27725 0.7772 0.0
C1261 C 0.1596 0.30135 0.77845 0.0
C1262 C 0.11736 0.27092 0.74104 0.0
C1263 C 0.17184 0.26273 0.78924 0.0
H1264 H 0.10845 0.20011 0.78345 0.0
H1265 H 0.16626 0.19194 0.75138 0.0
H1266 H 0.11657 0.25655 0.79348 0.0
H1267 H 0.09834 0.25918 0.77612 0.0
H1268 H 0.09343 0.23621 0.79044 0.0
H1269 H 0.18453 0.22352 0.7389 0.0
H1270 H 0.16818 0.24995 0.7374 0.0
H1271 H 0.18812 0.24611 0.75368 0.0
H1272 H 0.12376 0.3162 0.74753 0.0
H1273 H 0.16988 0.3091 0.78798 0.0
H1274 H 0.10226 0.26225 0.74665 0.0
H1275 H 0.12704 0.25761 0.73417 0.0
H1276 H 0.11095 0.28418 0.73242 0.0
H1277 H 0.15954 0.25311 0.79703 0.0
H1278 H 0.18321 0.2733 0.79713 0.0
H1279 H 0.1826 0.24979 0.78284 0.0
C1280 C 0.38956 0.69994 0.25687 0.0
C1281 C 0.3719 0.68919 0.2657 0.0
C1282 C 0.39041 0.72407 0.25543 0.0
C1283 C 0.37305 0.73762 0.26284 0.0
C1284 C 0.35427 0.7267 0.27071 0.0
C1285 C 0.35401 0.70259 0.27214 0.0
C1286 C 0.41076 0.73507 0.24701 0.0
C1287 C 0.3352 0.74052 0.27854 0.0
C1288 C 0.38731 0.7959 0.28083 0.0
C1289 C 0.37728 0.81102 0.26963 0.0
C1290 C 0.38699 0.77202 0.27831 0.0
C1291 C 0.37599 0.763 0.26437 0.0
C1292 C 0.36655 0.77823 0.2527 0.0
C1293 C 0.36747 0.80217 0.25542 0.0
C1294 C 0.39764 0.7564 0.29092 0.0
C1295 C 0.3545 0.76922 0.23778 0.0
H1296 H 0.40342 0.68961 0.25184 0.0
H1297 H 0.34021 0.6943 0.27884 0.0
H1298 H 0.40497 0.74905 0.23879 0.0
H1299 H 0.42232 0.74298 0.25618 0.0
H1300 H 0.42089 0.72232 0.23992 0.0
H1301 H 0.32046 0.72948 0.2823 0.0
H1302 H 0.34204 0.74944 0.28943 0.0
H1303 H 0.32876 0.75399 0.27013 0.0
H1304 H 0.39509 0.80275 0.29176 0.0
H1305 H 0.35961 0.81387 0.24678 0.0
H1306 H 0.40977 0.74408 0.28513 0.0
H1307 H 0.38393 0.7461 0.2969 0.0
H1308 H 0.40713 0.76621 0.30036 0.0
H1309 H 0.36536 0.75617 0.23158 0.0
H1310 H 0.35031 0.78323 0.22908 0.0
H1311 H 0.3382 0.76054 0.24136 0.0
C1312 C 0.45756 0.10264 0.53717 0.0
C1313 C 0.44439 0.11245 0.52471 0.0
C1314 C 0.48174 0.10249 0.53645 0.0
C1315 C 0.49301 0.11261 0.52301 0.0
C1316 C 0.47979 0.12178 0.51009 0.0
C1317 C 0.45558 0.12149 0.51107 0.0
C1318 C 0.49521 0.09231 0.55038 0.0
C1319 C 0.49121 0.13281 0.4956 0.0
C1320 C 0.55291 0.136 0.53164 0.0
C1321 C 0.56702 0.1185 0.52539 0.0
C1322 C 0.52879 0.13456 0.53052 0.0
C1323 C 0.51856 0.11505 0.5231 0.0
C1324 C 0.53273 0.09749 0.51653 0.0
C1325 C 0.55684 0.09948 0.51769 0.0
C1326 C 0.51426 0.15374 0.53756 0.0
C1327 C 0.52242 0.07637 0.50864 0.0
H1328 H 0.44897 0.09551 0.54771 0.0
H1329 H 0.44544 0.12914 0.50142 0.0
H1330 H 0.50813 0.07975 0.54584 0.0
H1331 H 0.50481 0.10619 0.55673 0.0
H1332 H 0.48388 0.08347 0.55929 0.0
H1333 H 0.47857 0.13744 0.48602 0.0
H1334 H 0.50036 0.14872 0.49944 0.0
H1335 H 0.50431 0.12101 0.49037 0.0
H1336 H 0.56071 0.1508 0.53752 0.0
H1337 H 0.56771 0.08591 0.51285 0.0
H1338 H 0.50368 0.14695 0.54769 0.0
H1339 H 0.50217 0.16048 0.52827 0.0
H1340 H 0.52491 0.16828 0.54216 0.0
H1341 H 0.51231 0.06647 0.51769 0.0
H1342 H 0.53581 0.06483 0.50343 0.0
H1343 H 0.51033 0.08152 0.49887 0.0
C1344 C 0.95177 0.90129 0.02349 0.0
C1345 C 0.93736 0.88566 0.01539 0.0
C1346 C 0.97583 0.89991 0.02203 0.0
C1347 C 0.98571 0.88244 0.01227 0.0
C1348 C 0.97122 0.86735 0.00339 0.0
C1349 C 0.94715 0.86915 0.00506 0.0
C1350 C 0.99068 0.91642 0.03162 0.0
C1351 C 0.98114 0.84858 0.99281 0.0
C1352 C 0.04984 0.88932 0.00401 0.0
C1353 C 0.05936 0.87617 0.01661 0.0
C1354 C 0.0258 0.89074 0.00193 0.0
C1355 C 0.01108 0.87871 0.0127 0.0
C1356 C 0.02069 0.86453 0.02493 0.0
C1357 C 0.04471 0.86346 0.02674 0.0
C1358 C 0.01618 0.90595 0.98872 0.0
C1359 C 0.00558 0.85133 0.03661 0.0
H1360 H 0.94428 0.91418 0.03141 0.0
H1361 H 0.93605 0.85706 0.99875 0.0
H1362 H 1.00017 0.90678 0.04114 0.0
H1363 H 1.00371 0.92465 0.02366 0.0
H1364 H 0.98034 0.93019 0.03755 0.0
H1365 H 0.96771 0.84015 0.98524 0.0
H1366 H 0.99474 0.85568 0.98477 0.0
H1367 H 0.98935 0.83522 0.00052 0.0
H1368 H 0.06112 0.89914 0.99612 0.0
H1369 H 0.052 0.85315 0.03643 0.0
H1370 H 0.00778 0.92127 0.9942 0.0
H1371 H 1.00278 0.89658 0.98172 0.0
H1372 H 0.0298 0.91199 0.98025 0.0
H1373 H 0.99584 0.86364 0.04431 0.0
H1374 H 0.01574 0.83973 0.04462 0.0
H1375 H 0.99274 0.84081 0.02991 0.0
C1376 C 0.4579 0.85605 0.46264 0.0
C1377 C 0.44418 0.86639 0.47458 0.0
C1378 C 0.48205 0.85621 0.46382 0.0
C1379 C 0.49272 0.86712 0.4772 0.0
C1380 C 0.47893 0.87653 0.48972 0.0
C1381 C 0.45476 0.87599 0.48828 0.0
C1382 C 0.49614 0.8458 0.45028 0.0
C1383 C 0.48968 0.8883 0.50417 0.0
C1384 C 0.55714 0.85698 0.48265 0.0
C1385 C 0.5664 0.87619 0.47461 0.0
C1386 C 0.53313 0.85403 0.484 0.0
C1387 C 0.51814 0.87071 0.47718 0.0
C1388 C 0.52746 0.89045 0.46947 0.0
C1389 C 0.55147 0.89293 0.46826 0.0
C1390 C 0.5238 0.83278 0.49231 0.0
C1391 C 0.51207 0.90869 0.46209 0.0
H1392 H 0.44979 0.84846 0.45208 0.0
H1393 H 0.44421 0.884 0.49755 0.0
H1394 H 0.50521 0.85972 0.44359 0.0
H1395 H 0.5095 0.83405 0.45524 0.0
H1396 H 0.48529 0.836 0.44157 0.0
H1397 H 0.47674 0.89233 0.51369 0.0
H1398 H 0.50339 0.87732 0.50952 0.0
H1399 H 0.49792 0.90467 0.50026 0.0
H1400 H 0.56864 0.84401 0.48759 0.0
H1401 H 0.55853 0.90786 0.4621 0.0
H1402 H 0.51449 0.82189 0.4834 0.0
H1403 H 0.51119 0.83772 0.5018 0.0
H1404 H 0.53769 0.82227 0.49795 0.0
H1405 H 0.50183 0.90107 0.45207 0.0
H1406 H 0.52204 0.92355 0.45724 0.0
H1407 H 0.49967 0.9152 0.47124 0.0
C1408 C 0.04099 0.13012 0.96401 0.0
C1409 C 0.05735 0.12184 0.97507 0.0
C1410 C 0.01734 0.12841 0.96716 0.0
C1411 C 0.00977 0.11787 0.98168 0.0
C1412 C 0.02618 0.10971 0.99304 0.0
C1413 C 0.04988 0.11192 0.98963 0.0
C1414 C 1.00043 0.13759 0.95479 0.0
C1415 C 0.01869 0.0982 0.00856 0.0
C1416 C 0.9474 0.13233 0.99064 0.0
C1417 C 0.93604 0.11433 0.98257 0.0
C1418 C 0.9716 0.13288 0.99158 0.0
C1419 C 0.98459 0.11489 0.98441 0.0
C1420 C 0.97309 0.09572 0.97749 0.0
C1421 C 0.94892 0.09575 0.97655 0.0
C1422 C 0.98321 0.15365 -0.00098 0.0
C1423 C 0.9863 0.07602 0.96993 0.0
H1424 H 0.04669 0.13797 0.95278 0.0
H1425 H 0.06252 0.10547 0.99819 0.0
H1426 H 0.98973 0.12325 0.95 0.0
H1427 H 0.98856 0.15019 0.96053 0.0
H1428 H 0.0092 0.14618 0.94445 0.0
H1429 H 0.03355 0.09395 0.01652 0.0
H1430 H 0.00663 0.10955 0.0153 0.0
H1431 H 0.00923 0.08204 0.00574 0.0
H1432 H 0.93749 0.1467 0.99537 0.0
H1433 H 0.94016 0.08166 0.97047 0.0
H1434 H 0.99042 0.16467 0.98926 0.0
H1435 H 0.99778 0.14831 0.00689 0.0
H1436 H 0.97098 0.1642 0.00627 0.0
H1437 H 0.99406 0.08186 0.95835 0.0
H1438 H 0.97502 0.06093 0.96739 0.0
H1439 H 1.00062 0.07042 0.97794 0.0
C1440 C 0.16153 0.45212 0.99653 0.0
C1441 C 0.15133 0.44858 0.98134 0.0
C1442 C 0.16355 0.47452 0.00304 0.0
C1443 C 0.15521 0.49372 0.99412 0.0
C1444 C 0.14627 0.49026 0.97836 0.0
C1445 C 0.14441 0.46779 0.9722 0.0
C1446 C 0.17328 0.47747 0.01985 0.0
C1447 C 0.13722 0.51016 0.96838 0.0
C1448 C 0.12847 0.54433 0.01634 0.0
C1449 C 0.14531 0.56159 0.01468 0.0
C1450 C 0.13186 0.5221 0.01012 0.0
C1451 C 0.15267 0.51681 0.00195 0.0
C1452 C 0.17 0.53399 0.00045 0.0
C1453 C 0.16611 0.55623 0.00684 0.0
C1454 C 0.11286 0.50441 0.01198 0.0
C1455 C 0.1924 0.52897 0.99183 0.0
H1456 H 0.16698 0.43736 0.00363 0.0
H1457 H 0.13673 0.46522 0.96037 0.0
H1458 H 0.18576 0.49199 0.02018 0.0
H1459 H 0.15908 0.48171 0.02836 0.0
H1460 H 0.18203 0.46157 0.02421 0.0
H1461 H 0.13337 0.50498 0.95572 0.0
H1462 H 0.12112 0.51686 0.97393 0.0
H1463 H 0.14989 0.52452 0.96817 0.0
H1464 H 0.11238 0.54823 0.02245 0.0
H1465 H 0.17924 0.56945 0.00558 0.0
H1466 H 0.11968 0.48861 0.01786 0.0
H1467 H 0.10626 0.49936 -0.00012 0.0
H1468 H 0.09816 0.51098 0.01929 0.0
H1469 H 0.20063 0.51333 0.99701 0.0
H1470 H 0.20476 0.5436 0.99266 0.0
H1471 H 0.18895 0.52537 0.97887 0.0
C1472 C 0.80346 0.90903 0.25073 0.0
C1473 C 0.80781 0.90935 0.23404 0.0
C1474 C 0.78073 0.91028 0.25672 0.0
C1475 C 0.76193 0.91142 0.24575 0.0
C1476 C 0.76637 0.91317 0.22894 0.0
C1477 C 0.78923 0.91233 0.22332 0.0
C1478 C 0.77679 0.90889 0.27475 0.0
C1479 C 0.74692 0.91407 0.21677 0.0
C1480 C 0.70686 0.88077 0.25844 0.0
C1481 C 0.6921 0.89919 0.26218 0.0
C1482 C 0.72946 0.88462 0.25301 0.0
C1483 C 0.73782 0.9075 0.25157 0.0
C1484 C 0.72303 0.92625 0.25537 0.0
C1485 C 0.70021 0.92187 0.26048 0.0
C1486 C 0.74439 0.8641 0.24877 0.0
C1487 C 0.73144 0.95085 0.25426 0.0
H1488 H 0.81771 0.90685 0.25909 0.0
H1489 H 0.7924 0.91261 0.21039 0.0
H1490 H 0.76378 0.92182 0.27861 0.0
H1491 H 0.76996 0.89157 0.2779 0.0
H1492 H 0.79297 0.91177 0.28169 0.0
H1493 H 0.75319 0.91808 0.20438 0.0
H1494 H 0.73801 0.89711 0.21647 0.0
H1495 H 0.73395 0.92721 0.22031 0.0
H1496 H 0.70065 0.8632 0.25967 0.0
H1497 H 0.68891 0.93615 0.2635 0.0
H1498 H 0.75991 0.86377 0.25663 0.0
H1499 H 0.75045 0.86554 0.23607 0.0
H1500 H 0.73508 0.84745 0.25018 0.0
H1501 H 0.7466 0.95325 0.2623 0.0
H1502 H 0.71789 0.96348 0.25774 0.0
H1503 H 0.73719 0.9547 0.24175 0.0
C1504 C 0.376 0.45611 0.50382 0.0
C1505 C 0.35831 0.44346 0.51129 0.0
C1506 C 0.37257 0.47899 0.49885 0.0
C1507 C 0.35091 0.48969 0.50146 0.0
C1508 C 0.33274 0.47686 0.50863 0.0
C1509 C 0.33663 0.45382 0.51343 0.0
C1510 C 0.39239 0.49189 0.49111 0.0
C1511 C 0.30942 0.48765 0.51159 0.0
C1512 C 0.35605 0.55505 0.50233 0.0
C1513 C 0.35136 0.5607 0.48616 0.0
C1514 C 0.35439 0.53212 0.50782 0.0
C1515 C 0.34783 0.51444 0.49688 0.0
C1516 C 0.34141 0.52036 0.48087 0.0
C1517 C 0.34329 0.54339 0.4757 0.0
C1518 C 0.36127 0.52661 0.52502 0.0
C1519 C 0.33419 0.50214 0.46883 0.0
H1520 H 0.39278 0.44821 0.50207 0.0
H1521 H 0.32294 0.44417 0.51928 0.0
H1522 H 0.38714 0.49857 0.47908 0.0
H1523 H 0.39715 0.50697 0.49869 0.0
H1524 H 0.40794 0.48088 0.48955 0.0
H1525 H 0.29669 0.475 0.51635 0.0
H1526 H 0.31115 0.50194 0.52044 0.0
H1527 H 0.30256 0.4952 0.50023 0.0
H1528 H 0.36226 0.56832 0.5105 0.0
H1529 H 0.33949 0.54763 0.4632 0.0
H1530 H 0.37812 0.51748 0.525 0.0
H1531 H 0.34844 0.51495 0.53071 0.0
H1532 H 0.36295 0.5424 0.53255 0.0
H1533 H 0.34948 0.49176 0.46529 0.0
H1534 H 0.32657 0.50981 0.45772 0.0
H1535 H 0.32144 0.49017 0.4743 0.0
C1536 C 0.80683 0.11328 0.74732 0.0
C1537 C 0.81517 0.10262 0.7614 0.0
C1538 C 0.78351 0.11134 0.74278 0.0
C1539 C 0.76811 0.09838 0.75254 0.0
C1540 C 0.77675 0.0864 0.76621 0.0
C1541 C 0.80016 0.08869 0.77049 0.0
C1542 C 0.7751 0.12432 0.72807 0.0
C1543 C 0.761 0.07225 0.77686 0.0
C1544 C 0.70606 0.11976 0.75191 0.0
C1545 C 0.69565 0.10474 0.74077 0.0
C1546 C 0.72938 0.11733 0.75625 0.0
C1547 C 0.74272 0.09938 0.74932 0.0
C1548 C 0.73205 0.08348 0.73865 0.0
C1549 C 0.70863 0.08636 0.73448 0.0
C1550 C 0.73998 0.13463 0.76774 0.0
C1551 C 0.7456 0.06402 0.73109 0.0
H1552 H 0.81829 0.12407 0.74021 0.0
H1553 H 0.80645 0.08038 0.78139 0.0
H1554 H 0.76494 0.11275 0.72009 0.0
H1555 H 0.76351 0.13855 0.73193 0.0
H1556 H 0.78953 0.13182 0.72095 0.0
H1557 H 0.77079 0.06171 0.78576 0.0
H1558 H 0.74924 0.08392 0.7836 0.0
H1559 H 0.7501 0.06062 0.76943 0.0
H1560 H 0.69617 0.134 0.75684 0.0
H1561 H 0.70074 0.07471 0.72583 0.0
H1562 H 0.75335 0.14483 0.7613 0.0
H1563 H 0.74863 0.1256 0.7779 0.0
H1564 H 0.72698 0.14674 0.77279 0.0
H1565 H 0.75851 0.0712 0.72254 0.0
H1566 H 0.73433 0.0518 0.72439 0.0
H1567 H 0.75522 0.05434 0.74051 0.0
C1568 C 0.85923 0.55261 0.99768 0.0
C1569 C 0.84515 0.56282 0.00949 0.0
C1570 C 0.85687 0.52919 0.9936 0.0
C1571 C 0.8399 0.51557 0.00144 0.0
C1572 C 0.82481 0.52607 0.01275 0.0
C1573 C 0.82765 0.54956 0.01668 0.0
C1574 C 0.87333 0.51877 0.98145 0.0
C1575 C 0.80634 0.51225 0.02124 0.0
C1576 C 0.82887 0.45734 0.98147 0.0
C1577 C 0.84381 0.4429 0.99022 0.0
C1578 C 0.82639 0.48081 0.98552 0.0
C1579 C 0.83927 0.4901 0.99856 0.0
C1580 C 0.85336 0.47528 0.00798 0.0
C1581 C 0.85541 0.45188 0.00373 0.0
C1582 C 0.81096 0.49591 0.97529 0.0
C1583 C 0.86739 0.48441 0.022 0.0
H1584 H 0.8728 0.5627 0.99205 0.0
H1585 H 0.81672 0.5573 0.02584 0.0
H1586 H 0.88444 0.5058 0.98754 0.0
H1587 H 0.8636 0.50969 0.9718 0.0
H1588 H 0.88463 0.53195 0.97573 0.0
H1589 H 0.79439 0.5234 0.02828 0.0
H1590 H 0.79615 0.50214 0.01235 0.0
H1591 H 0.81452 0.49976 0.02966 0.0
H1592 H 0.81982 0.45054 0.97102 0.0
H1593 H 0.86698 0.44087 0.01056 0.0
H1594 H 0.82173 0.50775 0.96791 0.0
H1595 H 0.79972 0.50673 0.98307 0.0
H1596 H 0.79991 0.48563 0.96699 0.0
H1597 H 0.88089 0.49633 0.0174 0.0
H1598 H 0.87596 0.47038 0.02892 0.0
H1599 H 0.85626 0.4944 0.03037 0.0
C1600 C 0.20418 0.10408 0.74164 0.0
C1601 C 0.19693 0.09606 0.75682 0.0
C1602 C 0.22758 0.10313 0.73712 0.0
C1603 C 0.24404 0.09366 0.74796 0.0
C1604 C 0.23647 0.08387 0.76274 0.0
C1605 C 0.21304 0.08534 0.76704 0.0
C1606 C 0.23488 0.11386 0.72128 0.0
C1607 C 0.25332 0.07322 0.77451 0.0
C1608 C 0.30513 0.08468 0.73176 0.0
C1609 C 0.31609 0.10502 0.73688 0.0
C1610 C 0.28187 0.08028 0.73569 0.0
C1611 C 0.26924 0.09674 0.74478 0.0
C1612 C 0.2805 0.11691 0.75041 0.0
C1613 C 0.30376 0.12071 0.74648 0.0
C1614 C 0.27061 0.0584 0.72971 0.0
C1615 C 0.26774 0.13499 0.76009 0.0
H1616 H 0.19185 0.11245 0.73371 0.0
H1617 H 0.20753 0.079 0.77877 0.0
H1618 H 0.24471 0.12994 0.72371 0.0
H1619 H 0.24646 0.10205 0.71454 0.0
H1620 H 0.21987 0.1182 0.71347 0.0
H1621 H 0.24442 0.06329 0.78417 0.0
H1622 H 0.26549 0.06158 0.76811 0.0
H1623 H 0.2637 0.08704 0.7803 0.0
H1624 H 0.31454 0.07249 0.7243 0.0
H1625 H 0.31206 0.13649 0.75047 0.0
H1626 H 0.25731 0.06269 0.72053 0.0
H1627 H 0.26173 0.04943 0.73982 0.0
H1628 H 0.28328 0.04636 0.72418 0.0
H1629 H 0.25336 0.14214 0.75276 0.0
H1630 H 0.27913 0.14944 0.76387 0.0
H1631 H 0.26005 0.12711 0.77107 0.0
C1632 C 0.6801 0.45304 0.51395 0.0
C1633 C 0.66073 0.44099 0.50821 0.0
C1634 C 0.68369 0.47639 0.5099 0.0
C1635 C 0.66739 0.488 0.50003 0.0
C1636 C 0.64834 0.47561 0.49368 0.0
C1637 C 0.64532 0.45228 0.49777 0.0
C1638 C 0.70442 0.48885 0.51668 0.0
C1639 C 0.63048 0.48728 0.48315 0.0
C1640 C 0.65671 0.55262 0.50306 0.0
C1641 C 0.6659 0.56054 0.48838 0.0
C1642 C 0.65816 0.5292 0.50743 0.0
C1643 C 0.66932 0.51336 0.49696 0.0
C1644 C 0.68011 0.5216 0.48271 0.0
C1645 C 0.67815 0.54506 0.47854 0.0
C1646 C 0.64634 0.52118 0.52272 0.0
C1647 C 0.69253 0.50542 0.47134 0.0
H1648 H 0.69207 0.44446 0.52205 0.0
H1649 H 0.63028 0.44314 0.49331 0.0
H1650 H 0.71363 0.49828 0.50693 0.0
H1651 H 0.69868 0.50183 0.52569 0.0
H1652 H 0.71673 0.47687 0.52267 0.0
H1653 H 0.61718 0.47502 0.47867 0.0
H1654 H 0.62173 0.5011 0.49013 0.0
H1655 H 0.6389 0.49555 0.47258 0.0
H1656 H 0.64715 0.56444 0.51071 0.0
H1657 H 0.68538 0.55106 0.46719 0.0
H1658 H 0.65817 0.51032 0.53003 0.0
H1659 H 0.63118 0.51038 0.51952 0.0
H1660 H 0.64033 0.53584 0.53029 0.0
H1661 H 0.70427 0.49384 0.47818 0.0
H1662 H 0.70272 0.51488 0.46209 0.0
H1663 H 0.67974 0.49436 0.46503 0.0
C1664 C 0.19523 0.91307 0.24927 0.0
C1665 C 0.19102 0.91107 0.23262 0.0
C1666 C 0.21797 0.91402 0.25529 0.0
C1667 C 0.23687 0.91291 0.2444 0.0
C1668 C 0.23259 0.91265 0.22753 0.0
C1669 C 0.20976 0.91174 0.22186 0.0
C1670 C 0.22174 0.91449 0.27336 0.0
C1671 C 0.25213 0.91148 0.21546 0.0
C1672 C 0.29893 0.92151 0.25912 0.0
C1673 C 0.30597 0.89861 0.26157 0.0
C1674 C 0.2764 0.9266 0.25368 0.0
C1675 C 0.26069 0.90835 0.25055 0.0
C1676 C 0.26788 0.88523 0.25288 0.0
C1677 C 0.29032 0.88069 0.25837 0.0
C1678 C 0.26933 0.95145 0.25137 0.0
C1679 C 0.25186 0.86518 0.24957 0.0
H1680 H 0.18085 0.91261 0.25765 0.0
H1681 H 0.20666 0.91039 0.20895 0.0
H1682 H 0.22767 0.89725 0.27748 0.0
H1683 H 0.23538 0.92713 0.27659 0.0
H1684 H 0.20569 0.91893 0.28003 0.0
H1685 H 0.24612 0.91462 0.20288 0.0
H1686 H 0.26571 0.92428 0.21846 0.0
H1687 H 0.26019 0.89411 0.21597 0.0
H1688 H 0.31089 0.93544 0.26167 0.0
H1689 H 0.29559 0.86293 0.26021 0.0
H1690 H 0.2542 0.95542 0.25912 0.0
H1691 H 0.26398 0.95438 0.23864 0.0
H1692 H 0.28349 0.96365 0.25439 0.0
H1693 H 0.23613 0.86667 0.25716 0.0
H1694 H 0.26011 0.84823 0.25207 0.0
H1695 H 0.24626 0.86547 0.23673 0.0
C1696 C 0.65584 0.05379 0.49665 0.0
C1697 C 0.66496 0.06129 0.51147 0.0
C1698 C 0.65735 0.03052 0.49194 0.0
C1699 C 0.66855 0.01438 0.50219 0.0
C1700 C 0.67925 0.02221 0.51659 0.0
C1701 C 0.67717 0.04553 0.52112 0.0
C1702 C 0.64556 0.02294 0.47653 0.0
C1703 C 0.69175 0.00573 0.5277 0.0
C1704 C 0.64474 0.95329 0.50034 0.0
C1705 C 0.66008 0.94244 0.48964 0.0
C1706 C 0.64772 0.97646 0.50485 0.0
C1707 C 0.66672 0.98913 0.4987 0.0
C1708 C 0.68298 0.97793 0.48858 0.0
C1709 C 0.67939 0.95475 0.48407 0.0
C1710 C 0.62988 0.98769 0.51561 0.0
C1711 C 0.70368 0.99067 0.48201 0.0
H1712 H 0.64631 0.06583 0.48914 0.0
H1713 H 0.68434 0.05121 0.53258 0.0
H1714 H 0.65747 0.01245 0.46903 0.0
H1715 H 0.63051 0.0119 0.47955 0.0
H1716 H 0.63941 0.03781 0.46921 0.0
H1717 H 0.70192 0.01494 0.5371 0.0
H1718 H 0.67902 0.99442 0.53385 0.0
H1719 H 0.70353 0.99442 0.52069 0.0
H1720 H 0.62974 0.94395 0.50468 0.0
H1721 H 0.69131 0.94649 0.47579 0.0
H1722 H 0.62108 1.00176 0.5089 0.0
H1723 H 0.63831 0.99557 0.52632 0.0
H1724 H 0.61661 0.97524 0.51988 0.0
H1725 H 0.69792 0.00393 0.47321 0.0
H1726 H 0.71602 0.97892 0.47584 0.0
H1727 H 0.71285 0.9998 0.49192 0.0
C1728 C 0.21145 0.40099 0.74478 0.0
C1729 C 0.20162 0.4127 0.75794 0.0
C1730 C 0.23485 0.4039 0.74078 0.0
C1731 C 0.24875 0.4191 0.75004 0.0
C1732 C 0.23855 0.43212 0.76266 0.0
C1733 C 0.21513 0.42865 0.76653 0.0
C1734 C 0.245 0.38961 0.72726 0.0
C1735 C 0.25262 0.44881 0.77263 0.0
C1736 C 0.31209 0.40216 0.75175 0.0
C1737 C 0.3216 0.41565 0.73932 0.0
C1738 C 0.2886 0.40384 0.75581 0.0
C1739 C 0.27427 0.41963 0.7474 0.0
C1740 C 0.28412 0.43441 0.73561 0.0
C1741 C 0.30764 0.43213 0.73162 0.0
C1742 C 0.27885 0.38768 0.76842 0.0
C1743 C 0.26957 0.45178 0.72659 0.0
H1744 H 0.20116 0.3886 0.7381 0.0
H1745 H 0.20766 0.43781 0.7767 0.0
H1746 H 0.25444 0.40081 0.71861 0.0
H1747 H 0.25763 0.37714 0.73233 0.0
H1748 H 0.2316 0.37982 0.72051 0.0
H1749 H 0.2416 0.4598 0.78048 0.0
H1750 H 0.26476 0.43906 0.78045 0.0
H1751 H 0.26311 0.46011 0.76466 0.0
H1752 H 0.32272 0.38934 0.75773 0.0
H1753 H 0.31486 0.44264 0.72201 0.0
H1754 H 0.26658 0.37551 0.76261 0.0
H1755 H 0.2691 0.39751 0.77768 0.0
H1756 H 0.29252 0.37749 0.77459 0.0
H1757 H 0.25778 0.44263 0.71817 0.0
H1758 H 0.28028 0.46402 0.71946 0.0
H1759 H 0.25868 0.46175 0.73514 0.0
C1760 C 0.85425 0.95286 0.99465 0.0
C1761 C 0.84117 0.94244 0.00692 0.0
C1762 C 0.85153 0.97633 0.99086 0.0
C1763 C 0.83502 0.98971 -0.00063 0.0
C1764 C 0.82066 0.97891 0.011 0.0
C1765 C 0.82404 0.95544 0.01475 0.0
C1766 C 0.86733 0.98713 0.97844 0.0
C1767 C 0.80251 0.99239 0.02006 0.0
C1768 C 0.85101 0.05314 0.00271 0.0
C1769 C 0.83934 0.06267 0.98942 0.0
C1770 C 0.84888 0.02961 0.00654 0.0
C1771 C 0.83442 0.01528 0.99702 0.0
C1772 C 0.82127 0.02519 0.98433 0.0
C1773 C 0.82404 0.04873 0.98059 0.0
C1774 C 0.86335 0.01979 0.0201 0.0
C1775 C 0.80525 0.01067 0.97414 0.0
H1776 H 0.86757 0.94297 0.98857 0.0
H1777 H 0.81383 0.9475 0.02423 0.0
H1778 H 0.85712 0.99652 0.96919 0.0
H1779 H 0.87877 0.99991 0.98444 0.0
H1780 H 0.8783 0.97413 0.97223 0.0
H1781 H 0.79068 0.98093 0.02696 0.0
H1782 H 0.811 0.00434 0.02871 0.0
H1783 H 0.79217 1.00304 0.01158 0.0
H1784 H 0.86292 0.06376 0.00957 0.0
H1785 H 0.81492 0.05598 0.97032 0.0
H1786 H 0.87647 0.00785 0.01502 0.0
H1787 H 0.85243 0.00967 0.02854 0.0
H1788 H 0.87242 0.03345 0.02708 0.0
H1789 H 0.81556 0.99928 0.96613 0.0
H1790 H 0.79376 0.02143 0.96645 0.0
H1791 H 0.79444 0.9994 0.98192 0.0
C1792 C 0.31118 0.60315 0.24493 0.0
C1793 C 0.31918 0.59387 0.25957 0.0
C1794 C 0.28772 0.60179 0.24064 0.0
C1795 C 0.2719 0.59074 0.25119 0.0
C1796 C 0.28021 0.57983 0.26539 0.0
C1797 C 0.30373 0.58159 0.26943 0.0
C1798 C 0.27964 0.61364 0.22538 0.0
C1799 C 0.26403 0.56759 0.27685 0.0
C1800 C 0.21128 0.61578 0.2507 0.0
C1801 C 0.19956 0.6005 0.2404 0.0
C1802 C 0.23459 0.61234 0.25468 0.0
C1803 C 0.24654 0.59303 0.24832 0.0
C1804 C 0.2345 0.57689 0.23858 0.0
C1805 C 0.21116 0.58086 0.23468 0.0
C1806 C 0.2467 0.63 0.26512 0.0
C1807 C 0.24652 0.55595 0.23174 0.0
H1808 H 0.32298 0.61267 0.23724 0.0
H1809 H 0.30978 0.5743 0.28075 0.0
H1810 H 0.26847 0.60194 0.21819 0.0
H1811 H 0.26915 0.62899 0.22861 0.0
H1812 H 0.29429 0.61937 0.21767 0.0
H1813 H 0.27349 0.55721 0.28601 0.0
H1814 H 0.25327 0.5805 0.28329 0.0
H1815 H 0.25215 0.55605 0.2701 0.0
H1816 H 0.20248 0.63101 0.25516 0.0
H1817 H 0.20224 0.56899 0.22669 0.0
H1818 H 0.26053 0.63857 0.25803 0.0
H1819 H 0.25503 0.62144 0.27562 0.0
H1820 H 0.23472 0.64347 0.26971 0.0
H1821 H 0.25941 0.56146 0.2226 0.0
H1822 H 0.23423 0.5438 0.2259 0.0
H1823 H 0.256 0.54665 0.24142 0.0
C1824 C 0.3515 0.04037 0.52413 0.0
C1825 C 0.35147 0.05921 0.51344 0.0
C1826 C 0.35024 0.01761 0.51842 0.0
C1827 C 0.3487 0.01349 0.50157 0.0
C1828 C 0.347 0.03246 0.49078 0.0
C1829 C 0.34852 0.05514 0.49684 0.0
C1830 C 0.35226 0.99798 0.53037 0.0
C1831 C 0.34502 0.02881 0.47276 0.0
C1832 C 0.37829 0.95914 0.48653 0.0
C1833 C 0.35975 0.94382 0.48455 0.0
C1834 C 0.3748 0.98182 0.4919 0.0
C1835 C 0.35213 0.98959 0.49525 0.0
C1836 C 0.33325 0.97428 0.49319 0.0
C1837 C 0.3373 0.95147 0.48795 0.0
C1838 C 0.39549 0.99739 0.49414 0.0
C1839 C 0.30883 0.98201 0.49649 0.0
H1840 H 0.35363 0.04334 0.537 0.0
H1841 H 0.34838 0.0696 0.48851 0.0
H1842 H 0.3388 0.98477 0.52807 0.0
H1843 H 0.36929 0.98945 0.5289 0.0
H1844 H 0.3507 0.00395 0.5431 0.0
H1845 H 0.3404 0.04498 0.46629 0.0
H1846 H 0.36175 0.0225 0.46796 0.0
H1847 H 0.33182 0.01548 0.47002 0.0
H1848 H 0.39571 0.95337 0.48395 0.0
H1849 H 0.32289 0.93975 0.48631 0.0
H1850 H 0.39657 1.00313 0.50693 0.0
H1851 H 0.39364 0.01307 0.48655 0.0
H1852 H 0.41197 0.98872 0.49091 0.0
H1853 H 0.30705 0.98715 0.50937 0.0
H1854 H 0.29599 0.96828 0.49383 0.0
H1855 H 0.30471 0.99742 0.48905 0.0
C1856 C 0.71 0.61235 0.24871 0.0
C1857 C 0.69958 0.59743 0.25991 0.0
C1858 C 0.73326 0.60974 0.2443 0.0
C1859 C 0.74646 0.59154 0.25107 0.0
C1860 C 0.73571 0.57568 0.26174 0.0
C1861 C 0.71243 0.5789 0.26613 0.0
C1862 C 0.744 0.62716 0.23296 0.0
C1863 C 0.74903 0.5558 0.26896 0.0
C1864 C 0.80316 0.58116 0.22901 0.0
C1865 C 0.81859 0.59435 0.23829 0.0
C1866 C 0.77989 0.57877 0.2336 0.0
C1867 C 0.77176 0.59019 0.24764 0.0
C1868 C 0.78758 0.60245 0.25752 0.0
C1869 C 0.81083 0.60422 0.25279 0.0
C1870 C 0.76375 0.56513 0.2229 0.0
C1871 C 0.77965 0.61505 0.27252 0.0
H1872 H 0.70023 0.62675 0.24388 0.0
H1873 H 0.70451 0.56729 0.27479 0.0
H1874 H 0.75784 0.63677 0.23936 0.0
H1875 H 0.7521 0.61826 0.22253 0.0
H1876 H 0.73119 0.63979 0.22829 0.0
H1877 H 0.73763 0.54358 0.27557 0.0
H1878 H 0.75837 0.54622 0.25936 0.0
H1879 H 0.76216 0.56251 0.27753 0.0
H1880 H 0.80906 0.57342 0.2178 0.0
H1881 H 0.82261 0.61452 0.25999 0.0
H1882 H 0.75211 0.57713 0.21635 0.0
H1883 H 0.75275 0.55352 0.23029 0.0
H1884 H 0.77325 0.55462 0.21384 0.0
H1885 H 0.76819 0.62955 0.269 0.0
H1886 H 0.79434 0.62212 0.27961 0.0
H1887 H 0.7695 0.60337 0.28042 0.0
C1888 C 0.16438 0.95333 0.00195 0.0
C1889 C 0.1455 0.94801 0.0119 0.0
C1890 C 0.16743 0.97584 0.99579 0.0
C1891 C 0.15096 0.99322 -0.00059 0.0
C1892 C 0.13216 0.98795 0.0097 0.0
C1893 C 0.1298 0.96555 0.01591 0.0
C1894 C 0.18795 0.98091 0.98512 0.0
C1895 C 0.11394 0.00573 0.01368 0.0
C1896 C 0.15925 0.0579 0.99316 0.0
C1897 C 0.14708 0.06148 0.9787 0.0
C1898 C 0.16202 0.03552 -0.00043 0.0
C1899 C 0.15201 0.01638 0.99149 0.0
C1900 C 0.14052 0.01987 0.97656 0.0
C1901 C 0.13838 0.04229 0.97031 0.0
C1902 C 0.17481 0.03247 0.01534 0.0
C1903 C 0.12923 1.00011 0.96763 0.0
H1904 H 0.17664 0.9399 0.99889 0.0
H1905 H 0.11513 0.96162 0.02358 0.0
H1906 H 0.18203 0.9843 0.97257 0.0
H1907 H 0.19699 0.99666 0.98939 0.0
H1908 H 0.20044 0.96635 0.98486 0.0
H1909 H 0.1008 0.99908 0.0223 0.0
H1910 H 0.12204 0.02132 0.01901 0.0
H1911 H 0.10501 0.01119 0.00242 0.0
H1912 H 0.16615 0.07262 -0.00034 0.0
H1913 H 0.12898 0.04485 0.9591 0.0
H1914 H 0.18721 0.01793 0.01446 0.0
H1915 H 0.16236 0.02818 0.0251 0.0
H1916 H 0.18434 0.04833 0.01889 0.0
H1917 H 0.14169 0.98581 0.96584 0.0
H1918 H 0.12242 0.00542 0.95562 0.0
H1919 H 0.1147 0.99324 0.97494 0.0
C1920 C 0.81504 0.41905 0.7491 0.0
C1921 C 0.81891 0.41488 0.76559 0.0
C1922 C 0.79243 0.42052 0.74289 0.0
C1923 C 0.77331 0.41759 0.75343 0.0
C1924 C 0.77721 0.41499 0.77025 0.0
C1925 C 0.79992 0.41375 0.77611 0.0
C1926 C 0.78904 0.42363 0.72492 0.0
C1927 C 0.75743 0.41171 0.78194 0.0
C1928 C 0.71119 0.42784 0.73948 0.0
C1929 C 0.70437 0.40541 0.73523 0.0
C1930 C 0.73375 0.43229 0.7451 0.0
C1931 C 0.74965 0.41381 0.74675 0.0
C1932 C 0.74271 0.39116 0.74255 0.0
C1933 C 0.72029 0.38729 0.73676 0.0
C1934 C 0.74062 0.4567 0.74926 0.0
C1935 C 0.75889 0.37085 0.74434 0.0
H1936 H 0.82962 0.42002 0.7409 0.0
H1937 H 0.80274 0.41069 0.7889 0.0
H1938 H 0.78342 0.40703 0.71949 0.0
H1939 H 0.7753 0.43652 0.72248 0.0
H1940 H 0.80516 0.42924 0.71879 0.0
H1941 H 0.76314 0.41278 0.79475 0.0
H1942 H 0.74384 0.42486 0.77985 0.0
H1943 H 0.74949 0.39451 0.77993 0.0
H1944 H 0.699 0.44192 0.73821 0.0
H1945 H 0.71514 0.36989 0.73355 0.0
H1946 H 0.75602 0.46181 0.74212 0.0
H1947 H 0.74546 0.45781 0.76223 0.0
H1948 H 0.72651 0.46924 0.74685 0.0
H1949 H 0.77466 0.37368 0.73699 0.0
H1950 H 0.75082 0.35434 0.74051 0.0
H1951 H 0.76439 0.36916 0.75716 0.0
C1952 C 0.13875 0.80218 0.00581 0.0
C1953 C 0.15381 0.81601 0.01493 0.0
C1954 C 0.14047 0.77799 0.00609 0.0
C1955 C 0.15798 0.76732 0.01544 0.0
C1956 C 0.17458 0.78128 0.02339 0.0
C1957 C 0.17215 0.80546 0.0232 0.0
C1958 C 0.12218 0.7639 0.99759 0.0
C1959 C 0.1939 0.77067 0.03313 0.0
C1960 C 0.14084 0.71127 0.03598 0.0
C1961 C 0.15015 0.69446 0.02564 0.0
C1962 C 0.14357 0.73488 0.03284 0.0
C1963 C 0.1564 0.7421 0.01916 0.0
C1964 C 0.16654 0.72526 0.00892 0.0
C1965 C 0.16306 0.70159 0.01217 0.0
C1966 C 0.1321 0.7521 0.04398 0.0
C1967 C 0.18078 0.73227 0.99444 0.0
H1968 H 0.12453 0.81016 -0.00063 0.0
H1969 H 0.18396 0.81602 0.03018 0.0
H1970 H 0.1301 0.74953 0.99069 0.0
H1971 H 0.11048 0.75615 0.00674 0.0
H1972 H 0.11166 0.77452 0.98917 0.0
H1973 H 0.20767 0.78342 0.03591 0.0
H1974 H 0.18693 0.76401 0.04474 0.0
H1975 H 0.20165 0.75588 0.02656 0.0
H1976 H 0.13075 0.70597 0.04639 0.0
H1977 H 0.17036 0.68869 0.00416 0.0
H1978 H 0.11968 0.76282 0.03703 0.0
H1979 H 0.14519 0.76391 0.04921 0.0
H1980 H 0.12267 0.74364 0.05408 0.0
H1981 H 0.16962 0.74093 0.98538 0.0
H1982 H 0.18926 0.71725 0.98858 0.0
H1983 H 0.19425 0.74486 0.99811 0.0
C1984 C 0.54839 0.89238 0.2565 0.0
C1985 C 0.56084 0.90618 0.2674 0.0
C1986 C 0.52415 0.89333 0.25583 0.0
C1987 C 0.51205 0.90873 0.26611 0.0
C1988 C 0.52469 0.9242 0.27602 0.0
C1989 C 0.54892 0.92259 0.27666 0.0
C1990 C 0.51147 0.87633 0.24521 0.0
C1991 C 0.51258 0.94123 0.28691 0.0
C1992 C 0.4464 0.91376 0.26152 0.0
C1993 C 0.43877 0.89869 0.27369 0.0
C1994 C 0.47022 0.91761 0.25899 0.0
C1995 C 0.48666 0.90576 0.26865 0.0
C1996 C 0.47891 0.89051 0.28089 0.0
C1997 C 0.45519 0.88735 0.28332 0.0
C1998 C 0.4778 0.9343 0.24602 0.0
C1999 C 0.49571 0.87722 0.29135 0.0
H2000 H 0.55746 0.87964 0.2493 0.0
H2001 H 0.55842 0.93343 0.28503 0.0
H2002 H 0.50377 0.86262 0.25289 0.0
H2003 H 0.49714 0.88491 0.23864 0.0
H2004 H 0.5231 0.86804 0.23625 0.0
H2005 H 0.52458 0.95467 0.29153 0.0
H2006 H 0.49816 0.94979 0.28042 0.0
H2007 H 0.50512 0.93195 0.29743 0.0
H2008 H 0.43381 0.9226 0.25406 0.0
H2009 H 0.4495 0.87555 0.2927 0.0
H2010 H 0.48825 0.92514 0.23679 0.0
H2011 H 0.48897 0.94786 0.25138 0.0
H2012 H 0.46293 0.94271 0.23991 0.0
H2013 H 0.50719 0.86654 0.28364 0.0
H2014 H 0.48685 0.8657 0.30013 0.0
H2015 H 0.50682 0.88937 0.29821 0.0
C2016 C 0.3353 0.19993 0.5184 0.0
C2017 C 0.35786 0.19109 0.51816 0.0
C2018 C 0.33129 0.22392 0.51768 0.0
C2019 C 0.35028 0.23936 0.51695 0.0
C2020 C 0.37296 0.23038 0.51586 0.0
C2021 C 0.37642 0.20644 0.51637 0.0
C2022 C 0.30682 0.23277 0.51849 0.0
C2023 C 0.39377 0.24609 0.51519 0.0
C2024 C 0.34812 0.30394 0.5083 0.0
C2025 C 0.35039 0.31305 0.52396 0.0
C2026 C 0.34625 0.27994 0.50581 0.0
C2027 C 0.34705 0.26475 0.51926 0.0
C2028 C 0.3479 0.27402 0.53511 0.0
C2029 C 0.34939 0.298 0.53725 0.0
C2030 C 0.34479 0.2708 0.48875 0.0
C2031 C 0.34898 0.25858 0.54983 0.0
H2032 H 0.32085 0.18818 0.51971 0.0
H2033 H 0.39392 0.1998 0.51608 0.0
H2034 H 0.30353 0.24015 0.53066 0.0
H2035 H 0.3041 0.24675 0.50951 0.0
H2036 H 0.29401 0.21885 0.51626 0.0
H2037 H 0.41011 0.2364 0.51331 0.0
H2038 H 0.39186 0.25883 0.50526 0.0
H2039 H 0.39517 0.25589 0.52669 0.0
H2040 H 0.34875 0.31546 0.49797 0.0
H2041 H 0.351 0.30486 0.5494 0.0
H2042 H 0.33186 0.25671 0.48793 0.0
H2043 H 0.36174 0.2635 0.48518 0.0
H2044 H 0.34014 0.28456 0.47996 0.0
H2045 H 0.33491 0.24561 0.54948 0.0
H2046 H 0.34762 0.26846 0.56131 0.0
H2047 H 0.36559 0.24903 0.54987 0.0
C2048 C 0.95307 0.09318 0.76255 0.0
C2049 C 0.94579 0.10875 0.77451 0.0
C2050 C 0.97678 0.08939 0.75962 0.0
C2051 C 0.99353 0.10155 0.7688 0.0
C2052 C 0.98617 0.11701 0.78103 0.0
C2053 C 0.96251 0.12034 0.78374 0.0
C2054 C 0.98393 0.07266 0.74656 0.0
C2055 C 1.00332 0.13042 0.79112 0.0
C2056 C 0.05649 0.08474 0.77432 0.0
C2057 C 0.06766 0.10128 0.76469 0.0
C2058 C 0.03223 0.08334 0.77481 0.0
C2059 C 0.01881 0.09896 0.76555 0.0
C2060 C 0.03004 0.11452 0.7549 0.0
C2061 C 0.0543 0.11544 0.75457 0.0
C2062 C 0.02102 0.0663 0.78618 0.0
C2063 C 0.0165 0.13151 0.74481 0.0
H2064 H 0.94026 0.08416 0.75537 0.0
H2065 H 0.95711 0.1324 0.79303 0.0
H2066 H 0.99329 0.08201 0.73685 0.0
H2067 H 0.99597 0.0596 0.75158 0.0
H2068 H 0.96891 0.06362 0.7411 0.0
H2069 H 0.99478 0.14151 0.80031 0.0
H2070 H 0.01517 0.11838 0.79745 0.0
H2071 H 0.01402 0.14156 0.78317 0.0
H2072 H 0.06666 0.07366 0.78213 0.0
H2073 H 0.06276 0.12824 0.74705 0.0
H2074 H 0.00629 0.05753 0.78019 0.0
H2075 H 0.01411 0.07562 0.79686 0.0
H2076 H 0.03342 0.05303 0.79049 0.0
H2077 H 1.002 0.12274 0.73854 0.0
H2078 H 0.02747 0.14022 0.73562 0.0
H2079 H 0.00894 0.1449 0.75282 0.0
C2080 C 0.16606 0.20263 0.97903 0.0
C2081 C 0.14396 0.19521 0.9744 0.0
C2082 C 0.17102 0.22636 0.98084 0.0
C2083 C 0.1536 0.24296 0.97759 0.0
C2084 C 0.13121 0.23542 0.97319 0.0
C2085 C 0.12666 0.21176 0.97181 0.0
C2086 C 0.19493 0.23368 0.98593 0.0
C2087 C 0.11215 0.2524 0.96938 0.0
C2088 C 0.15201 0.30597 0.99019 0.0
C2089 C 0.15732 0.31701 0.97554 0.0
C2090 C 0.15287 0.28176 0.99154 0.0
C2091 C 0.15864 0.26826 0.97781 0.0
C2092 C 0.16562 0.27944 0.96336 0.0
C2093 C 0.1651 0.30365 0.96247 0.0
C2094 C 0.14595 0.2706 0.00731 0.0
C2095 C 0.17158 0.26585 0.94834 0.0
H2096 H 0.17949 0.18994 0.98111 0.0
H2097 H 0.10953 0.20624 0.9682 0.0
H2098 H 0.20364 0.24259 0.97574 0.0
H2099 H 0.19393 0.24613 0.99611 0.0
H2100 H 0.20573 0.21877 0.98969 0.0
H2101 H 0.09565 0.2437 0.96622 0.0
H2102 H 0.10904 0.26384 0.97992 0.0
H2103 H 0.11735 0.26353 0.95907 0.0
H2104 H 0.14614 0.31618 0.00039 0.0
H2105 H 0.16926 0.31201 0.95109 0.0
H2106 H 0.15754 0.25591 0.01021 0.0
H2107 H 0.12815 0.26368 0.00624 0.0
H2108 H 0.14633 0.28308 0.01752 0.0
H2109 H 0.18381 0.25172 0.95124 0.0
H2110 H 0.17932 0.27689 0.93878 0.0
H2111 H 0.15567 0.2578 0.94341 0.0
C2112 C 0.94653 0.92007 0.2308 0.0
C2113 C 0.93894 0.90073 0.22207 0.0
C2114 C 0.97033 0.92451 0.23286 0.0
C2115 C 0.98682 0.9093 0.22598 0.0
C2116 C 0.97914 0.88983 0.21713 0.0
C2117 C 0.95542 0.8858 0.21533 0.0
C2118 C 0.97785 0.94537 0.24243 0.0
C2119 C 0.996 0.87314 0.20952 0.0
C2120 C 0.04884 0.92409 0.21537 0.0
C2121 C 0.06103 0.91121 0.22694 0.0
C2122 C 0.02458 0.92523 0.21565 0.0
C2123 C 0.0122 0.91328 0.22784 0.0
C2124 C 0.02453 0.90194 0.24035 0.0
C2125 C 0.04878 0.90097 0.23972 0.0
C2126 C 0.01221 0.93755 0.20209 0.0
C2127 C 0.0121 0.88918 0.25368 0.0
H2128 H 0.93391 0.93166 0.23606 0.0
H2129 H 0.94978 0.87082 0.20854 0.0
H2130 H 0.98855 0.9399 0.25288 0.0
H2131 H 0.98875 0.95673 0.23478 0.0
H2132 H 0.96295 0.95554 0.24699 0.0
H2133 H 0.9872 0.85894 0.20291 0.0
H2134 H 0.00741 0.88242 0.20091 0.0
H2135 H 0.00719 0.86543 0.21899 0.0
H2136 H 0.05815 0.93212 0.20547 0.0
H2137 H 0.05805 0.89109 0.24877 0.0
H2138 H 0.99778 0.94812 0.20687 0.0
H2139 H 0.0047 0.92462 0.19369 0.0
H2140 H 0.02401 0.94891 0.19509 0.0
H2141 H 0.99766 0.89969 0.25851 0.0
H2142 H 0.02387 0.88458 0.2638 0.0
H2143 H 0.0046 0.87302 0.24874 0.0
C2144 C 0.33796 0.69848 0.48146 0.0
C2145 C 0.36047 0.69059 0.47848 0.0
C2146 C 0.33323 0.72231 0.48273 0.0
C2147 C 0.35133 0.73854 0.4806 0.0
C2148 C 0.37414 0.73053 0.47805 0.0
C2149 C 0.37841 0.70676 0.47718 0.0
C2150 C 0.3088 0.73013 0.48587 0.0
C2151 C 0.39397 0.7471 0.47549 0.0
C2152 C 0.343 0.79815 0.46271 0.0
C2153 C 0.34852 0.8124 0.47589 0.0
C2154 C 0.34215 0.77405 0.46436 0.0
C2155 C 0.34661 0.76386 0.47963 0.0
C2156 C 0.35014 0.77826 0.49328 0.0
C2157 C 0.35124 0.80239 0.49124 0.0
C2158 C 0.3385 0.75947 0.44942 0.0
C2159 C 0.3544 0.76816 0.50985 0.0
H2160 H 0.32403 0.68609 0.48255 0.0
H2161 H 0.39587 0.70087 0.47488 0.0
H2162 H 0.30848 0.74341 0.49554 0.0
H2163 H 0.30162 0.73818 0.47477 0.0
H2164 H 0.29741 0.71558 0.48945 0.0
H2165 H 0.41078 0.73807 0.47409 0.0
H2166 H 0.39082 0.75758 0.46446 0.0
H2167 H 0.3953 0.7592 0.48584 0.0
H2168 H 0.34072 0.80572 0.45082 0.0
H2169 H 0.35537 0.81327 0.50151 0.0
H2170 H 0.32555 0.74578 0.45175 0.0
H2171 H 0.35495 0.75082 0.44616 0.0
H2172 H 0.33268 0.76991 0.4389 0.0
H2173 H 0.34236 0.75365 0.51225 0.0
H2174 H 0.35242 0.78129 0.51955 0.0
H2175 H 0.37222 0.7612 0.51043 0.0
C2176 C 0.46349 0.12259 0.71645 0.0
C2177 C 0.44662 0.10941 0.72441 0.0
C2178 C 0.48709 0.11863 0.71892 0.0
C2179 C 0.49425 0.1008 0.72952 0.0
C2180 C 0.47736 0.08726 0.73756 0.0
C2181 C 0.45368 0.09182 0.73499 0.0
C2182 C 0.50438 0.13369 0.71018 0.0
C2183 C 0.48432 0.06795 0.7488 0.0
C2184 C 0.55621 0.08445 0.72027 0.0
C2185 C 0.56833 0.09871 0.73105 0.0
C2186 C 0.53197 0.08318 0.72066 0.0
C2187 C 0.51951 0.09676 0.73193 0.0
C2188 C 0.53178 0.10966 0.74371 0.0
C2189 C 0.55604 0.11036 0.74319 0.0
C2190 C 0.51967 0.06884 0.70808 0.0
C2191 C 0.51929 0.1245 0.7559 0.0
H2192 H 0.45825 0.1363 0.70831 0.0
H2193 H 0.44074 0.08157 0.74116 0.0
H2194 H 0.51582 0.14239 0.71906 0.0
H2195 H 0.51549 0.12291 0.70227 0.0
H2196 H 0.49596 0.1471 0.70259 0.0
H2197 H 0.46915 0.05888 0.75402 0.0
H2198 H 0.49508 0.05523 0.74218 0.0
H2199 H 0.49499 0.07487 0.75884 0.0
H2200 H 0.56559 0.07526 0.71092 0.0
H2201 H 0.56526 0.12142 0.75157 0.0
H2202 H 0.51257 0.08036 0.69857 0.0
H2203 H 0.50498 0.05935 0.71354 0.0
H2204 H 0.53146 0.05623 0.70221 0.0
H2205 H 0.51217 0.13994 0.7497 0.0
H2206 H 0.53093 0.13042 0.76575 0.0
H2207 H 0.50458 0.11501 0.76133 0.0
C2208 C 0.85061 0.30323 0.9932 0.0
C2209 C 0.84233 0.31498 0.97953 0.0
C2210 C 0.84964 0.27898 0.99414 0.0
C2211 C 0.84004 0.26619 0.98115 0.0
C2212 C 0.82992 0.27814 0.96797 0.0
C2213 C 0.83127 0.30234 0.96729 0.0
C2214 C 0.86063 0.26703 0.00843 0.0
C2215 C 0.81928 0.26529 0.95393 0.0
C2216 C 0.86769 0.20874 0.97054 0.0
C2217 C 0.85166 0.19266 0.97647 0.0
C2218 C 0.86417 0.23255 0.97225 0.0
C2219 C 0.84398 0.24073 0.98001 0.0
C2220 C 0.82773 0.22464 0.98616 0.0
C2221 C 0.83179 0.20074 0.98436 0.0
C2222 C 0.88208 0.24897 0.96556 0.0
C2223 C 0.80597 0.23268 0.99445 0.0
H2224 H 0.85918 0.31284 0.00272 0.0
H2225 H 0.82468 0.31129 0.95672 0.0
H2226 H 0.84953 0.25274 0.01283 0.0
H2227 H 0.87734 0.25938 0.00464 0.0
H2228 H 0.86394 0.27913 0.0186 0.0
H2229 H 0.80909 0.27688 0.94594 0.0
H2230 H 0.83316 0.25724 0.94659 0.0
H2231 H 0.80789 0.25123 0.95832 0.0
H2232 H 0.88316 0.20271 0.9645 0.0
H2233 H 0.81933 0.18842 0.98897 0.0
H2234 H 0.88841 0.26056 0.97529 0.0
H2235 H 0.87423 0.26 0.95606 0.0
H2236 H 0.89712 0.23981 0.96024 0.0
H2237 H 0.81034 0.24419 0.00474 0.0
H2238 H 0.79543 0.21806 -0.00096 0.0
H2239 H 0.79536 0.2429 0.98587 0.0
C2240 C 0.66019 0.79915 0.45977 0.0
C2241 C 0.65923 0.81382 0.47326 0.0
C2242 C 0.66172 0.77511 0.46158 0.0
C2243 C 0.66222 0.76534 0.4773 0.0
C2244 C 0.66267 0.78014 0.49097 0.0
C2245 C 0.66119 0.80423 0.48879 0.0
C2246 C 0.66132 0.7601 0.44664 0.0
C2247 C 0.66328 0.77048 0.50793 0.0
C2248 C 0.63363 0.70646 0.479 0.0
C2249 C 0.65258 0.6914 0.4783 0.0
C2250 C 0.63666 0.73047 0.47952 0.0
C2251 C 0.65923 0.73984 0.47924 0.0
C2252 C 0.67851 0.72473 0.47927 0.0
C2253 C 0.67495 0.70063 0.47885 0.0
C2254 C 0.61557 0.74582 0.47961 0.0
C2255 C 0.70284 0.73401 0.47899 0.0
H2256 H 0.65886 0.80641 0.44771 0.0
H2257 H 0.66045 0.81545 0.49928 0.0
H2258 H 0.67526 0.747 0.44719 0.0
H2259 H 0.64464 0.7507 0.44602 0.0
H2260 H 0.66337 0.77031 0.43534 0.0
H2261 H 0.66701 0.78403 0.51708 0.0
H2262 H 0.64632 0.76259 0.51082 0.0
H2263 H 0.67651 0.7567 0.50893 0.0
H2264 H 0.61627 0.69947 0.47873 0.0
H2265 H 0.68966 0.68909 0.47831 0.0
H2266 H 0.61458 0.75552 0.46805 0.0
H2267 H 0.61678 0.75866 0.48953 0.0
H2268 H 0.59932 0.73586 0.48113 0.0
H2269 H 0.70629 0.7421 0.46706 0.0
H2270 H 0.71586 0.72024 0.48106 0.0
H2271 H 0.70506 0.74758 0.48833 0.0
C2272 C 0.84878 0.70159 0.00587 0.0
C2273 C 0.83992 0.69008 0.01946 0.0
C2274 C 0.84809 0.72582 0.00477 0.0
C2275 C 0.83813 0.73885 0.0175 0.0
C2276 C 0.82734 0.72716 0.03053 0.0
C2277 C 0.82848 0.70294 0.0314 0.0
C2278 C 0.85985 0.7375 0.99067 0.0
C2279 C 0.81625 0.74027 0.04426 0.0
C2280 C 0.86622 0.79607 0.02821 0.0
C2281 C 0.85083 0.81226 0.02164 0.0
C2282 C 0.86233 0.77229 0.02673 0.0
C2283 C 0.84237 0.76427 0.01858 0.0
C2284 C 0.82672 0.78048 0.01184 0.0
C2285 C 0.83119 0.80434 0.01338 0.0
C2286 C 0.87963 0.75572 0.03399 0.0
C2287 C 0.80519 0.77261 0.00318 0.0
H2288 H 0.85767 0.69181 0.99659 0.0
H2289 H 0.82147 0.69418 0.0419 0.0
H2290 H 0.84914 0.75187 0.98595 0.0
H2291 H 0.87649 0.74498 0.99479 0.0
H2292 H 0.86345 0.72525 0.98064 0.0
H2293 H 0.80548 0.72889 0.05202 0.0
H2294 H 0.82989 0.74814 0.05191 0.0
H2295 H 0.80532 0.75449 0.03955 0.0
H2296 H 0.88151 0.80199 0.03453 0.0
H2297 H 0.81923 0.81675 0.00829 0.0
H2298 H 0.88623 0.74385 0.02453 0.0
H2299 H 0.87116 0.74499 0.0434 0.0
H2300 H 0.89455 0.76476 0.03959 0.0
H2301 H 0.80981 0.761 0.99301 0.0
H2302 H 0.79497 0.78731 0.99835 0.0
H2303 H 0.79415 0.76253 0.01159 0.0
C2304 C 0.66755 0.30282 0.51019 0.0
C2305 C 0.65781 0.3113 0.52456 0.0
C2306 C 0.67005 0.27887 0.50762 0.0
C2307 C 0.66238 0.2631 0.51961 0.0
C2308 C 0.65324 0.27169 0.53432 0.0
C2309 C 0.6512 0.29558 0.53663 0.0
C2310 C 0.68021 0.27043 0.49189 0.0
C2311 C 0.64468 0.25561 0.54742 0.0
C2312 C 0.64002 0.20304 0.51013 0.0
C2313 C 0.65722 0.189 0.51694 0.0
C2314 C 0.64219 0.22719 0.50995 0.0
C2315 C 0.66217 0.23765 0.51658 0.0
C2316 C 0.68039 0.22349 0.52231 0.0
C2317 C 0.67765 0.19932 0.52251 0.0
C2318 C 0.62226 0.24153 0.50379 0.0
C2319 C 0.70215 0.23388 0.52921 0.0
H2320 H 0.67273 0.31485 0.50082 0.0
H2321 H 0.6437 0.30192 0.54779 0.0
H2322 H 0.69378 0.25734 0.49423 0.0
H2323 H 0.66656 0.26197 0.48457 0.0
H2324 H 0.68779 0.28472 0.48465 0.0
H2325 H 0.63885 0.26503 0.55839 0.0
H2326 H 0.63001 0.24522 0.54276 0.0
H2327 H 0.65853 0.24339 0.55097 0.0
H2328 H 0.6242 0.19525 0.50574 0.0
H2329 H 0.69106 0.18861 0.52773 0.0
H2330 H 0.6285 0.25509 0.49538 0.0
H2331 H 0.61379 0.25036 0.51412 0.0
H2332 H 0.60912 0.23089 0.49743 0.0
H2333 H 0.70853 0.24806 0.52136 0.0
H2334 H 0.71606 0.22083 0.53062 0.0
H2335 H 0.6984 0.24139 0.54128 0.0
C2336 C 0.96189 0.42517 0.78096 0.0
C2337 C 0.94885 0.41274 0.7696 0.0
C2338 C 0.98613 0.4259 0.78003 0.0
C2339 C 0.99763 0.414 0.7674 0.0
C2340 C 0.98442 0.40306 0.75516 0.0
C2341 C 0.96021 0.40251 0.75643 0.0
C2342 C 0.99946 0.43783 0.79332 0.0
C2343 C 0.99589 0.39033 0.7414 0.0
C2344 C 0.06308 0.42055 0.76268 0.0
C2345 C 0.07108 0.40127 0.77131 0.0
C2346 C 0.03921 0.425 0.76119 0.0
C2347 C 0.02305 0.40979 0.76846 0.0
C2348 C 0.03114 0.39024 0.77705 0.0
C2349 C 0.05493 0.38627 0.77836 0.0
C2350 C 0.03126 0.44599 0.75193 0.0
C2351 C 0.01463 0.37347 0.78496 0.0
H2352 H 0.95326 0.43319 0.79115 0.0
H2353 H 0.95028 0.39297 0.74755 0.0
H2354 H 0.00744 0.42466 0.80131 0.0
H2355 H 0.01362 0.44843 0.78818 0.0
H2356 H 0.98821 0.44907 0.80083 0.0
H2357 H 0.98348 0.38601 0.73161 0.0
H2358 H 0.01016 0.40074 0.73621 0.0
H2359 H 1.00348 0.37402 0.74603 0.0
H2360 H 0.07545 0.43221 0.75721 0.0
H2361 H 0.0609 0.37128 0.78501 0.0
H2362 H 0.02135 0.45757 0.76006 0.0
H2363 H 0.01948 0.44076 0.742 0.0
H2364 H 0.04592 0.45585 0.74669 0.0
H2365 H 1.00387 0.38262 0.79403 0.0
H2366 H 0.02371 0.35904 0.79111 0.0
H2367 H 1.00277 0.36611 0.77576 0.0
C2368 C 0.45767 0.58217 0.26732 0.0
C2369 C 0.44963 0.60395 0.27214 0.0
C2370 C 0.48157 0.57766 0.26613 0.0
C2371 C 0.49767 0.59539 0.26975 0.0
C2372 C 0.4895 0.61756 0.27411 0.0
C2373 C 0.4657 0.62151 0.27529 0.0
C2374 C 0.48959 0.55381 0.26146 0.0
C2375 C 0.50594 0.63708 0.27797 0.0
C2376 C 0.55804 0.58633 0.28619 0.0
C2377 C 0.57172 0.59324 0.27304 0.0
C2378 C 0.5339 0.58503 0.28487 0.0
C2379 C 0.52308 0.59088 0.27005 0.0
C2380 C 0.53693 0.59605 0.25637 0.0
C2381 C 0.56112 0.59715 0.25802 0.0
C2382 C 0.51992 0.57927 0.29976 0.0
C2383 C 0.52616 0.60227 0.24032 0.0
H2384 H 0.44533 0.56854 0.26485 0.0
H2385 H 0.45967 0.63846 0.27887 0.0
H2386 H 0.50234 0.55483 0.25146 0.0
H2387 H 0.49839 0.54561 0.27191 0.0
H2388 H 0.47505 0.54256 0.25762 0.0
H2389 H 0.49679 0.65357 0.2804 0.0
H2390 H 0.51639 0.63259 0.28878 0.0
H2391 H 0.51807 0.63981 0.26777 0.0
H2392 H 0.56611 0.5831 0.29781 0.0
H2393 H 0.57156 0.60247 0.24779 0.0
H2394 H 0.50605 0.56676 0.29679 0.0
H2395 H 0.51151 0.59518 0.30436 0.0
H2396 H 0.53078 0.57194 0.30958 0.0
H2397 H 0.51179 0.59034 0.23736 0.0
H2398 H 0.53897 0.60186 0.23031 0.0
H2399 H 0.51885 0.61995 0.24104 0.0
C2400 C 0.45956 0.42504 0.73457 0.0
C2401 C 0.45147 0.40812 0.72383 0.0
C2402 C 0.48347 0.42863 0.73679 0.0
C2403 C 0.49955 0.41479 0.72822 0.0
C2404 C 0.49135 0.3977 0.7174 0.0
C2405 C 0.46754 0.39469 0.71529 0.0
C2406 C 0.49155 0.44717 0.74829 0.0
C2407 C 0.50776 0.38237 0.70808 0.0
C2408 C 0.56187 0.42946 0.71862 0.0
C2409 C 0.57374 0.41442 0.72901 0.0
C2410 C 0.53768 0.43139 0.71923 0.0
C2411 C 0.52502 0.41772 0.73034 0.0
C2412 C 0.53708 0.4039 0.7417 0.0
C2413 C 0.56131 0.40252 0.74095 0.0
C2414 C 0.52561 0.44665 0.70707 0.0
C2415 C 0.52435 0.38894 0.75371 0.0
H2416 H 0.44725 0.43548 0.7412 0.0
H2417 H 0.4615 0.3815 0.70701 0.0
H2418 H 0.50204 0.43938 0.75811 0.0
H2419 H 0.50281 0.4596 0.74181 0.0
H2420 H 0.47693 0.45676 0.75381 0.0
H2421 H 0.49858 0.36969 0.70031 0.0
H2422 H 0.5191 0.39305 0.70026 0.0
H2423 H 0.51905 0.37278 0.71659 0.0
H2424 H 0.57136 0.43885 0.70942 0.0
H2425 H 0.57034 0.39086 0.74904 0.0
H2426 H 0.51145 0.45649 0.71291 0.0
H2427 H 0.51778 0.43576 0.69748 0.0
H2428 H 0.5377 0.45901 0.70125 0.0
H2429 H 0.51021 0.39874 0.75958 0.0
H2430 H 0.53601 0.38206 0.76323 0.0
H2431 H 0.5164 0.37414 0.74725 0.0
C2432 C 0.95703 0.58376 0.22805 0.0
C2433 C 0.94716 0.60548 0.23097 0.0
C2434 C 0.98118 0.58067 0.2285 0.0
C2435 C 0.99574 0.5998 0.23177 0.0
C2436 C 0.98571 0.6214 0.23563 0.0
C2437 C 0.96162 0.62392 0.23526 0.0
C2438 C 0.99113 0.55726 0.22461 0.0
C2439 C 1.00047 0.64233 0.23911 0.0
C2440 C 0.06056 0.59623 0.23995 0.0
C2441 C 0.06961 0.60245 0.22481 0.0
C2442 C 0.03653 0.594 0.24228 0.0
C2443 C 0.02125 0.59829 0.22919 0.0
C2444 C 0.03045 0.6035 0.21374 0.0
C2445 C 0.05442 0.60542 0.21174 0.0
C2446 C 0.02746 0.58807 0.25888 0.0
C2447 C 0.01491 0.60831 0.19943 0.0
H2448 H 0.94598 0.56939 0.22478 0.0
H2449 H 0.95417 0.64075 0.23762 0.0
H2450 H 0.99889 0.55763 0.21234 0.0
H2451 H 0.00505 0.55276 0.23328 0.0
H2452 H 0.97776 0.54351 0.2249 0.0
H2453 H 0.99007 0.65732 0.24326 0.0
H2454 H 0.01354 0.63829 0.2485 0.0
H2455 H 0.00992 0.64741 0.22798 0.0
H2456 H 0.07218 0.59385 0.25011 0.0
H2457 H 0.06123 0.6101 0.19997 0.0
H2458 H 0.01403 0.57446 0.25805 0.0
H2459 H 0.01926 0.60353 0.26432 0.0
H2460 H 0.04139 0.58205 0.26711 0.0
H2461 H 1.00244 0.59398 0.19775 0.0
H2462 H 0.02476 0.61064 0.18801 0.0
H2463 H 0.00477 0.62423 0.20172 0.0
loop_
_geom_bond_atom_site_label_1
_geom_bond_atom_site_label_2
_geom_bond_distance
_geom_bond_site_symmetry_2
_ccdc_geom_bond_type
In0 O1 2.294 . S
In0 O2 2.326 . S
In0 O6 2.266 . S
In0 O7 2.326 . S
In0 O8 2.266 . S
In0 O9 2.326 . S
In0 O11 2.294 . S
In0 O12 2.326 . S
O1 In0 2.294 . S
O1 C10 1.240 . S
O2 In0 2.326 . S
O2 C10 1.252 . S
C3 O6 1.252 . S
C3 O7 1.260 . S
C4 O11 1.240 . S
C4 O12 1.252 . S
C5 O8 1.252 . S
C5 O9 1.260 . S
O6 In0 2.266 . S
O6 C3 1.252 . S
O7 In0 2.326 . S
O7 C3 1.260 . S
O8 In0 2.266 . S
O8 C5 1.252 . S
O9 In0 2.326 . S
O9 C5 1.260 . S
C10 O1 1.240 . S
C10 O2 1.252 . S
O11 In0 2.294 . S
O11 C4 1.240 . S
O12 In0 2.326 . S
O12 C4 1.252 . S
In13 O14 2.294 . S
In13 O15 2.326 . S
In13 O19 2.266 . S
In13 O20 2.326 . S
In13 O21 2.266 . S
In13 O22 2.326 . S
In13 O24 2.294 . S
In13 O25 2.326 . S
O14 In13 2.294 . S
O14 C23 1.240 . S
O15 In13 2.326 . S
O15 C23 1.252 . S
C16 O19 1.252 . S
C16 O20 1.260 . S
C17 O24 1.240 . S
C17 O25 1.252 . S
C18 O21 1.252 . S
C18 O22 1.260 . S
O19 In13 2.266 . S
O19 C16 1.252 . S
O20 In13 2.326 . S
O20 C16 1.260 . S
O21 In13 2.266 . S
O21 C18 1.252 . S
O22 In13 2.326 . S
O22 C18 1.260 . S
C23 O14 1.240 . S
C23 O15 1.252 . S
O24 In13 2.294 . S
O24 C17 1.240 . S
O25 In13 2.326 . S
O25 C17 1.252 . S
In26 O27 2.294 . S
In26 O28 2.326 . S
In26 O32 2.266 . S
In26 O33 2.326 . S
In26 O34 2.266 . S
In26 O35 2.326 . S
In26 O37 2.294 . S
In26 O38 2.326 . S
O27 In26 2.294 . S
O27 C36 1.240 . S
O28 In26 2.326 . S
O28 C36 1.252 . S
C29 O32 1.252 . S
C29 O33 1.260 . S
C30 O37 1.240 . S
C30 O38 1.252 . S
C31 O34 1.252 . S
C31 O35 1.260 . S
O32 In26 2.266 . S
O32 C29 1.252 . S
O33 In26 2.326 . S
O33 C29 1.260 . S
O34 In26 2.266 . S
O34 C31 1.252 . S
O35 In26 2.326 . S
O35 C31 1.260 . S
C36 O27 1.240 . S
C36 O28 1.252 . S
O37 In26 2.294 . S
O37 C30 1.240 . S
O38 In26 2.326 . S
O38 C30 1.252 . S
In39 O40 2.294 . S
In39 O41 2.326 . S
In39 O45 2.266 . S
In39 O46 2.326 . S
In39 O47 2.266 . S
In39 O48 2.326 . S
In39 O50 2.294 . S
In39 O51 2.326 . S
O40 In39 2.294 . S
O40 C49 1.240 . S
O41 In39 2.326 . S
O41 C49 1.252 . S
C42 O45 1.252 . S
C42 O46 1.260 . S
C43 O50 1.240 . S
C43 O51 1.252 . S
C44 O47 1.252 . S
C44 O48 1.260 . S
O45 In39 2.266 . S
O45 C42 1.252 . S
O46 In39 2.326 . S
O46 C42 1.260 . S
O47 In39 2.266 . S
O47 C44 1.252 . S
O48 In39 2.326 . S
O48 C44 1.260 . S
C49 O40 1.240 . S
C49 O41 1.252 . S
O50 In39 2.294 . S
O50 C43 1.240 . S
O51 In39 2.326 . S
O51 C43 1.252 . S
In52 O53 2.294 . S
In52 O54 2.326 . S
In52 O58 2.266 . S
In52 O59 2.326 . S
In52 O60 2.266 . S
In52 O61 2.326 . S
In52 O63 2.294 . S
In52 O64 2.326 . S
O53 In52 2.294 . S
O53 C62 1.240 . S
O54 In52 2.326 . S
O54 C62 1.252 . S
C55 O58 1.252 . S
C55 O59 1.260 . S
C56 O63 1.240 . S
C56 O64 1.252 . S
C57 O60 1.252 . S
C57 O61 1.260 . S
O58 In52 2.266 . S
O58 C55 1.252 . S
O59 In52 2.326 . S
O59 C55 1.260 . S
O60 In52 2.266 . S
O60 C57 1.252 . S
O61 In52 2.326 . S
O61 C57 1.260 . S
C62 O53 1.240 . S
C62 O54 1.252 . S
O63 In52 2.294 . S
O63 C56 1.240 . S
O64 In52 2.326 . S
O64 C56 1.252 . S
In65 O66 2.294 . S
In65 O67 2.326 . S
In65 O71 2.266 . S
In65 O72 2.326 . S
In65 O73 2.266 . S
In65 O74 2.326 . S
In65 O76 2.294 . S
In65 O77 2.326 . S
O66 In65 2.294 . S
O66 C75 1.240 . S
O67 In65 2.326 . S
O67 C75 1.252 . S
C68 O71 1.252 . S
C68 O72 1.260 . S
C69 O76 1.240 . S
C69 O77 1.252 . S
C70 O73 1.252 . S
C70 O74 1.260 . S
O71 In65 2.266 . S
O71 C68 1.252 . S
O72 In65 2.326 . S
O72 C68 1.260 . S
O73 In65 2.266 . S
O73 C70 1.252 . S
O74 In65 2.326 . S
O74 C70 1.260 . S
C75 O66 1.240 . S
C75 O67 1.252 . S
O76 In65 2.294 . S
O76 C69 1.240 . S
O77 In65 2.326 . S
O77 C69 1.252 . S
In78 O79 2.294 . S
In78 O80 2.326 . S
In78 O84 2.266 . S
In78 O85 2.326 . S
In78 O86 2.266 . S
In78 O87 2.326 . S
In78 O89 2.294 . S
In78 O90 2.326 . S
O79 In78 2.294 . S
O79 C88 1.240 . S
O80 In78 2.326 . S
O80 C88 1.252 . S
C81 O84 1.252 . S
C81 O85 1.260 . S
C82 O89 1.240 . S
C82 O90 1.252 . S
C83 O86 1.252 . S
C83 O87 1.260 . S
O84 In78 2.266 . S
O84 C81 1.252 . S
O85 In78 2.326 . S
O85 C81 1.260 . S
O86 In78 2.266 . S
O86 C83 1.252 . S
O87 In78 2.326 . S
O87 C83 1.260 . S
C88 O79 1.240 . S
C88 O80 1.252 . S
O89 In78 2.294 . S
O89 C82 1.240 . S
O90 In78 2.326 . S
O90 C82 1.252 . S
In91 O92 2.294 . S
In91 O93 2.326 . S
In91 O97 2.266 . S
In91 O98 2.326 . S
In91 O99 2.266 . S
In91 O100 2.326 . S
In91 O102 2.294 . S
In91 O103 2.326 . S
O92 In91 2.294 . S
O92 C101 1.240 . S
O93 In91 2.326 . S
O93 C101 1.252 . S
C94 O97 1.252 . S
C94 O98 1.260 . S
C95 O102 1.240 . S
C95 O103 1.252 . S
C96 O99 1.252 . S
C96 O100 1.260 . S
O97 In91 2.266 . S
O97 C94 1.252 . S
O98 In91 2.326 . S
O98 C94 1.260 . S
O99 In91 2.266 . S
O99 C96 1.252 . S
O100 In91 2.326 . S
O100 C96 1.260 . S
C101 O92 1.240 . S
C101 O93 1.252 . S
O102 In91 2.294 . S
O102 C95 1.240 . S
O103 In91 2.326 . S
O103 C95 1.252 . S
In104 O105 2.294 . S
In104 O106 2.326 . S
In104 O110 2.266 . S
In104 O111 2.326 . S
In104 O112 2.266 . S
In104 O113 2.326 . S
In104 O115 2.294 . S
In104 O116 2.326 . S
O105 In104 2.294 . S
O105 C114 1.240 . S
O106 In104 2.326 . S
O106 C114 1.252 . S
C107 O110 1.252 . S
C107 O111 1.260 . S
C108 O115 1.240 . S
C108 O116 1.252 . S
C109 O112 1.252 . S
C109 O113 1.260 . S
O110 In104 2.266 . S
O110 C107 1.252 . S
O111 In104 2.326 . S
O111 C107 1.260 . S
O112 In104 2.266 . S
O112 C109 1.252 . S
O113 In104 2.326 . S
O113 C109 1.260 . S
C114 O105 1.240 . S
C114 O106 1.252 . S
O115 In104 2.294 . S
O115 C108 1.240 . S
O116 In104 2.326 . S
O116 C108 1.252 . S
In117 O118 2.294 . S
In117 O119 2.326 . S
In117 O123 2.266 . S
In117 O124 2.326 . S
In117 O125 2.266 . S
In117 O126 2.326 . S
In117 O128 2.294 . S
In117 O129 2.326 . S
O118 In117 2.294 . S
O118 C127 1.240 . S
O119 In117 2.326 . S
O119 C127 1.252 . S
C120 O123 1.252 . S
C120 O124 1.260 . S
C121 O128 1.240 . S
C121 O129 1.252 . S
C122 O125 1.252 . S
C122 O126 1.260 . S
O123 In117 2.266 . S
O123 C120 1.252 . S
O124 In117 2.326 . S
O124 C120 1.260 . S
O125 In117 2.266 . S
O125 C122 1.252 . S
O126 In117 2.326 . S
O126 C122 1.260 . S
C127 O118 1.240 . S
C127 O119 1.252 . S
O128 In117 2.294 . S
O128 C121 1.240 . S
O129 In117 2.326 . S
O129 C121 1.252 . S
In130 O131 2.294 . S
In130 O132 2.326 . S
In130 O136 2.266 . S
In130 O137 2.326 . S
In130 O138 2.266 . S
In130 O139 2.326 . S
In130 O141 2.294 . S
In130 O142 2.326 . S
O131 In130 2.294 . S
O131 C140 1.240 . S
O132 In130 2.326 . S
O132 C140 1.252 . S
C133 O136 1.252 . S
C133 O137 1.260 . S
C134 O141 1.240 . S
C134 O142 1.252 . S
C135 O138 1.252 . S
C135 O139 1.260 . S
O136 In130 2.266 . S
O136 C133 1.252 . S
O137 In130 2.326 . S
O137 C133 1.260 . S
O138 In130 2.266 . S
O138 C135 1.252 . S
O139 In130 2.326 . S
O139 C135 1.260 . S
C140 O131 1.240 . S
C140 O132 1.252 . S
O141 In130 2.294 . S
O141 C134 1.240 . S
O142 In130 2.326 . S
O142 C134 1.252 . S
In143 O144 2.294 . S
In143 O145 2.326 . S
In143 O149 2.266 . S
In143 O150 2.326 . S
In143 O151 2.266 . S
In143 O152 2.326 . S
In143 O154 2.294 . S
In143 O155 2.326 . S
O144 In143 2.294 . S
O144 C153 1.240 . S
O145 In143 2.326 . S
O145 C153 1.252 . S
C146 O149 1.252 . S
C146 O150 1.260 . S
C147 O154 1.240 . S
C147 O155 1.252 . S
C148 O151 1.252 . S
C148 O152 1.260 . S
O149 In143 2.266 . S
O149 C146 1.252 . S
O150 In143 2.326 . S
O150 C146 1.260 . S
O151 In143 2.266 . S
O151 C148 1.252 . S
O152 In143 2.326 . S
O152 C148 1.260 . S
C153 O144 1.240 . S
C153 O145 1.252 . S
O154 In143 2.294 . S
O154 C147 1.240 . S
O155 In143 2.326 . S
O155 C147 1.252 . S
In156 O157 2.294 . S
In156 O158 2.326 . S
In156 O162 2.266 . S
In156 O163 2.326 . S
In156 O164 2.266 . S
In156 O165 2.326 . S
In156 O167 2.294 . S
In156 O168 2.326 . S
O157 In156 2.294 . S
O157 C166 1.240 . S
O158 In156 2.326 . S
O158 C166 1.252 . S
C159 O162 1.252 . S
C159 O163 1.260 . S
C160 O167 1.240 . S
C160 O168 1.252 . S
C161 O164 1.252 . S
C161 O165 1.260 . S
O162 In156 2.266 . S
O162 C159 1.252 . S
O163 In156 2.326 . S
O163 C159 1.260 . S
O164 In156 2.266 . S
O164 C161 1.252 . S
O165 In156 2.326 . S
O165 C161 1.260 . S
C166 O157 1.240 . S
C166 O158 1.252 . S
O167 In156 2.294 . S
O167 C160 1.240 . S
O168 In156 2.326 . S
O168 C160 1.252 . S
In169 O170 2.294 . S
In169 O171 2.326 . S
In169 O175 2.266 . S
In169 O176 2.326 . S
In169 O177 2.266 . S
In169 O178 2.326 . S
In169 O180 2.294 . S
In169 O181 2.326 . S
O170 In169 2.294 . S
O170 C179 1.240 . S
O171 In169 2.326 . S
O171 C179 1.252 . S
C172 O175 1.252 . S
C172 O176 1.260 . S
C173 O180 1.240 . S
C173 O181 1.252 . S
C174 O177 1.252 . S
C174 O178 1.260 . S
O175 In169 2.266 . S
O175 C172 1.252 . S
O176 In169 2.326 . S
O176 C172 1.260 . S
O177 In169 2.266 . S
O177 C174 1.252 . S
O178 In169 2.326 . S
O178 C174 1.260 . S
C179 O170 1.240 . S
C179 O171 1.252 . S
O180 In169 2.294 . S
O180 C173 1.240 . S
O181 In169 2.326 . S
O181 C173 1.252 . S
In182 O183 2.294 . S
In182 O184 2.326 . S
In182 O188 2.266 . S
In182 O189 2.326 . S
In182 O190 2.266 . S
In182 O191 2.326 . S
In182 O193 2.294 . S
In182 O194 2.326 . S
O183 In182 2.294 . S
O183 C192 1.240 . S
O184 In182 2.326 . S
O184 C192 1.252 . S
C185 O188 1.252 . S
C185 O189 1.260 . S
C186 O193 1.240 . S
C186 O194 1.252 . S
C187 O190 1.252 . S
C187 O191 1.260 . S
O188 In182 2.266 . S
O188 C185 1.252 . S
O189 In182 2.326 . S
O189 C185 1.260 . S
O190 In182 2.266 . S
O190 C187 1.252 . S
O191 In182 2.326 . S
O191 C187 1.260 . S
C192 O183 1.240 . S
C192 O184 1.252 . S
O193 In182 2.294 . S
O193 C186 1.240 . S
O194 In182 2.326 . S
O194 C186 1.252 . S
In195 O196 2.294 . S
In195 O197 2.326 . S
In195 O201 2.266 . S
In195 O202 2.326 . S
In195 O203 2.266 . S
In195 O204 2.326 . S
In195 O206 2.294 . S
In195 O207 2.326 . S
O196 In195 2.294 . S
O196 C205 1.240 . S
O197 In195 2.326 . S
O197 C205 1.252 . S
C198 O201 1.252 . S
C198 O202 1.260 . S
C199 O206 1.240 . S
C199 O207 1.252 . S
C200 O203 1.252 . S
C200 O204 1.260 . S
O201 In195 2.266 . S
O201 C198 1.252 . S
O202 In195 2.326 . S
O202 C198 1.260 . S
O203 In195 2.266 . S
O203 C200 1.252 . S
O204 In195 2.326 . S
O204 C200 1.260 . S
C205 O196 1.240 . S
C205 O197 1.252 . S
O206 In195 2.294 . S
O206 C199 1.240 . S
O207 In195 2.326 . S
O207 C199 1.252 . S
In208 O209 2.294 . S
In208 O210 2.326 . S
In208 O214 2.266 . S
In208 O215 2.326 . S
In208 O216 2.266 . S
In208 O217 2.326 . S
In208 O219 2.294 . S
In208 O220 2.326 . S
O209 In208 2.294 . S
O209 C218 1.240 . S
O210 In208 2.326 . S
O210 C218 1.252 . S
C211 O214 1.252 . S
C211 O215 1.260 . S
C212 O219 1.240 . S
C212 O220 1.252 . S
C213 O216 1.252 . S
C213 O217 1.260 . S
O214 In208 2.266 . S
O214 C211 1.252 . S
O215 In208 2.326 . S
O215 C211 1.260 . S
O216 In208 2.266 . S
O216 C213 1.252 . S
O217 In208 2.326 . S
O217 C213 1.260 . S
C218 O209 1.240 . S
C218 O210 1.252 . S
O219 In208 2.294 . S
O219 C212 1.240 . S
O220 In208 2.326 . S
O220 C212 1.252 . S
In221 O222 2.294 . S
In221 O223 2.326 . S
In221 O227 2.266 . S
In221 O228 2.326 . S
In221 O229 2.266 . S
In221 O230 2.326 . S
In221 O232 2.294 . S
In221 O233 2.326 . S
O222 In221 2.294 . S
O222 C231 1.240 . S
O223 In221 2.326 . S
O223 C231 1.252 . S
C224 O227 1.252 . S
C224 O228 1.260 . S
C225 O232 1.240 . S
C225 O233 1.252 . S
C226 O229 1.252 . S
C226 O230 1.260 . S
O227 In221 2.266 . S
O227 C224 1.252 . S
O228 In221 2.326 . S
O228 C224 1.260 . S
O229 In221 2.266 . S
O229 C226 1.252 . S
O230 In221 2.326 . S
O230 C226 1.260 . S
C231 O222 1.240 . S
C231 O223 1.252 . S
O232 In221 2.294 . S
O232 C225 1.240 . S
O233 In221 2.326 . S
O233 C225 1.252 . S
In234 O235 2.294 . S
In234 O236 2.326 . S
In234 O240 2.266 . S
In234 O241 2.326 . S
In234 O242 2.266 . S
In234 O243 2.326 . S
In234 O245 2.294 . S
In234 O246 2.326 . S
O235 In234 2.294 . S
O235 C244 1.240 . S
O236 In234 2.326 . S
O236 C244 1.252 . S
C237 O240 1.252 . S
C237 O241 1.260 . S
C238 O245 1.240 . S
C238 O246 1.252 . S
C239 O242 1.252 . S
C239 O243 1.260 . S
O240 In234 2.266 . S
O240 C237 1.252 . S
O241 In234 2.326 . S
O241 C237 1.260 . S
O242 In234 2.266 . S
O242 C239 1.252 . S
O243 In234 2.326 . S
O243 C239 1.260 . S
C244 O235 1.240 . S
C244 O236 1.252 . S
O245 In234 2.294 . S
O245 C238 1.240 . S
O246 In234 2.326 . S
O246 C238 1.252 . S
In247 O248 2.294 . S
In247 O249 2.326 . S
In247 O253 2.266 . S
In247 O254 2.326 . S
In247 O255 2.266 . S
In247 O256 2.326 . S
In247 O258 2.294 . S
In247 O259 2.326 . S
O248 In247 2.294 . S
O248 C257 1.240 . S
O249 In247 2.326 . S
O249 C257 1.252 . S
C250 O253 1.252 . S
C250 O254 1.260 . S
C251 O258 1.240 . S
C251 O259 1.252 . S
C252 O255 1.252 . S
C252 O256 1.260 . S
O253 In247 2.266 . S
O253 C250 1.252 . S
O254 In247 2.326 . S
O254 C250 1.260 . S
O255 In247 2.266 . S
O255 C252 1.252 . S
O256 In247 2.326 . S
O256 C252 1.260 . S
C257 O248 1.240 . S
C257 O249 1.252 . S
O258 In247 2.294 . S
O258 C251 1.240 . S
O259 In247 2.326 . S
O259 C251 1.252 . S
In260 O261 2.294 . S
In260 O262 2.326 . S
In260 O266 2.266 . S
In260 O267 2.326 . S
In260 O268 2.266 . S
In260 O269 2.326 . S
In260 O271 2.294 . S
In260 O272 2.326 . S
O261 In260 2.294 . S
O261 C270 1.240 . S
O262 In260 2.326 . S
O262 C270 1.252 . S
C263 O266 1.252 . S
C263 O267 1.260 . S
C264 O271 1.240 . S
C264 O272 1.252 . S
C265 O268 1.252 . S
C265 O269 1.260 . S
O266 In260 2.266 . S
O266 C263 1.252 . S
O267 In260 2.326 . S
O267 C263 1.260 . S
O268 In260 2.266 . S
O268 C265 1.252 . S
O269 In260 2.326 . S
O269 C265 1.260 . S
C270 O261 1.240 . S
C270 O262 1.252 . S
O271 In260 2.294 . S
O271 C264 1.240 . S
O272 In260 2.326 . S
O272 C264 1.252 . S
In273 O274 2.294 . S
In273 O275 2.326 . S
In273 O279 2.266 . S
In273 O280 2.326 . S
In273 O281 2.266 . S
In273 O282 2.326 . S
In273 O284 2.294 . S
In273 O285 2.326 . S
O274 In273 2.294 . S
O274 C283 1.240 . S
O275 In273 2.326 . S
O275 C283 1.252 . S
C276 O279 1.252 . S
C276 O280 1.260 . S
C277 O284 1.240 . S
C277 O285 1.252 . S
C278 O281 1.252 . S
C278 O282 1.260 . S
O279 In273 2.266 . S
O279 C276 1.252 . S
O280 In273 2.326 . S
O280 C276 1.260 . S
O281 In273 2.266 . S
O281 C278 1.252 . S
O282 In273 2.326 . S
O282 C278 1.260 . S
C283 O274 1.240 . S
C283 O275 1.252 . S
O284 In273 2.294 . S
O284 C277 1.240 . S
O285 In273 2.326 . S
O285 C277 1.252 . S
In286 O287 2.294 . S
In286 O288 2.326 . S
In286 O292 2.266 . S
In286 O293 2.326 . S
In286 O294 2.266 . S
In286 O295 2.326 . S
In286 O297 2.294 . S
In286 O298 2.326 . S
O287 In286 2.294 . S
O287 C296 1.240 . S
O288 In286 2.326 . S
O288 C296 1.252 . S
C289 O292 1.252 . S
C289 O293 1.260 . S
C290 O297 1.240 . S
C290 O298 1.252 . S
C291 O294 1.252 . S
C291 O295 1.260 . S
O292 In286 2.266 . S
O292 C289 1.252 . S
O293 In286 2.326 . S
O293 C289 1.260 . S
O294 In286 2.266 . S
O294 C291 1.252 . S
O295 In286 2.326 . S
O295 C291 1.260 . S
C296 O287 1.240 . S
C296 O288 1.252 . S
O297 In286 2.294 . S
O297 C290 1.240 . S
O298 In286 2.326 . S
O298 C290 1.252 . S
In299 O300 2.294 . S
In299 O301 2.326 . S
In299 O305 2.266 . S
In299 O306 2.326 . S
In299 O307 2.266 . S
In299 O308 2.326 . S
In299 O310 2.294 . S
In299 O311 2.326 . S
O300 In299 2.294 . S
O300 C309 1.240 . S
O301 In299 2.326 . S
O301 C309 1.252 . S
C302 O305 1.252 . S
C302 O306 1.260 . S
C303 O310 1.240 . S
C303 O311 1.252 . S
C304 O307 1.252 . S
C304 O308 1.260 . S
O305 In299 2.266 . S
O305 C302 1.252 . S
O306 In299 2.326 . S
O306 C302 1.260 . S
O307 In299 2.266 . S
O307 C304 1.252 . S
O308 In299 2.326 . S
O308 C304 1.260 . S
C309 O300 1.240 . S
C309 O301 1.252 . S
O310 In299 2.294 . S
O310 C303 1.240 . S
O311 In299 2.326 . S
O311 C303 1.252 . S
In312 O313 2.294 . S
In312 O314 2.326 . S
In312 O318 2.266 . S
In312 O319 2.326 . S
In312 O320 2.266 . S
In312 O321 2.326 . S
In312 O323 2.294 . S
In312 O324 2.326 . S
O313 In312 2.294 . S
O313 C322 1.240 . S
O314 In312 2.326 . S
O314 C322 1.252 . S
C315 O318 1.252 . S
C315 O319 1.260 . S
C316 O323 1.240 . S
C316 O324 1.252 . S
C317 O320 1.252 . S
C317 O321 1.260 . S
O318 In312 2.266 . S
O318 C315 1.252 . S
O319 In312 2.326 . S
O319 C315 1.260 . S
O320 In312 2.266 . S
O320 C317 1.252 . S
O321 In312 2.326 . S
O321 C317 1.260 . S
C322 O313 1.240 . S
C322 O314 1.252 . S
O323 In312 2.294 . S
O323 C316 1.240 . S
O324 In312 2.326 . S
O324 C316 1.252 . S
In325 O326 2.294 . S
In325 O327 2.326 . S
In325 O331 2.266 . S
In325 O332 2.326 . S
In325 O333 2.266 . S
In325 O334 2.326 . S
In325 O336 2.294 . S
In325 O337 2.326 . S
O326 In325 2.294 . S
O326 C335 1.240 . S
O327 In325 2.326 . S
O327 C335 1.252 . S
C328 O331 1.252 . S
C328 O332 1.260 . S
C329 O336 1.240 . S
C329 O337 1.252 . S
C330 O333 1.252 . S
C330 O334 1.260 . S
O331 In325 2.266 . S
O331 C328 1.252 . S
O332 In325 2.326 . S
O332 C328 1.260 . S
O333 In325 2.266 . S
O333 C330 1.252 . S
O334 In325 2.326 . S
O334 C330 1.260 . S
C335 O326 1.240 . S
C335 O327 1.252 . S
O336 In325 2.294 . S
O336 C329 1.240 . S
O337 In325 2.326 . S
O337 C329 1.252 . S
In338 O339 2.294 . S
In338 O340 2.326 . S
In338 O344 2.266 . S
In338 O345 2.326 . S
In338 O346 2.266 . S
In338 O347 2.326 . S
In338 O349 2.294 . S
In338 O350 2.326 . S
O339 In338 2.294 . S
O339 C348 1.240 . S
O340 In338 2.326 . S
O340 C348 1.252 . S
C341 O344 1.252 . S
C341 O345 1.260 . S
C342 O349 1.240 . S
C342 O350 1.252 . S
C343 O346 1.252 . S
C343 O347 1.260 . S
O344 In338 2.266 . S
O344 C341 1.252 . S
O345 In338 2.326 . S
O345 C341 1.260 . S
O346 In338 2.266 . S
O346 C343 1.252 . S
O347 In338 2.326 . S
O347 C343 1.260 . S
C348 O339 1.240 . S
C348 O340 1.252 . S
O349 In338 2.294 . S
O349 C342 1.240 . S
O350 In338 2.326 . S
O350 C342 1.252 . S
In351 O352 2.294 . S
In351 O353 2.326 . S
In351 O357 2.266 . S
In351 O358 2.326 . S
In351 O359 2.266 . S
In351 O360 2.326 . S
In351 O362 2.294 . S
In351 O363 2.326 . S
O352 In351 2.294 . S
O352 C361 1.240 . S
O353 In351 2.326 . S
O353 C361 1.252 . S
C354 O357 1.252 . S
C354 O358 1.260 . S
C355 O362 1.240 . S
C355 O363 1.252 . S
C356 O359 1.252 . S
C356 O360 1.260 . S
O357 In351 2.266 . S
O357 C354 1.252 . S
O358 In351 2.326 . S
O358 C354 1.260 . S
O359 In351 2.266 . S
O359 C356 1.252 . S
O360 In351 2.326 . S
O360 C356 1.260 . S
C361 O352 1.240 . S
C361 O353 1.252 . S
O362 In351 2.294 . S
O362 C355 1.240 . S
O363 In351 2.326 . S
O363 C355 1.252 . S
In364 O365 2.294 . S
In364 O366 2.326 . S
In364 O370 2.266 . S
In364 O371 2.326 . S
In364 O372 2.266 . S
In364 O373 2.326 . S
In364 O375 2.294 . S
In364 O376 2.326 . S
O365 In364 2.294 . S
O365 C374 1.240 . S
O366 In364 2.326 . S
O366 C374 1.252 . S
C367 O370 1.252 . S
C367 O371 1.260 . S
C368 O375 1.240 . S
C368 O376 1.252 . S
C369 O372 1.252 . S
C369 O373 1.260 . S
O370 In364 2.266 . S
O370 C367 1.252 . S
O371 In364 2.326 . S
O371 C367 1.260 . S
O372 In364 2.266 . S
O372 C369 1.252 . S
O373 In364 2.326 . S
O373 C369 1.260 . S
C374 O365 1.240 . S
C374 O366 1.252 . S
O375 In364 2.294 . S
O375 C368 1.240 . S
O376 In364 2.326 . S
O376 C368 1.252 . S
In377 O378 2.294 . S
In377 O379 2.326 . S
In377 O383 2.266 . S
In377 O384 2.326 . S
In377 O385 2.266 . S
In377 O386 2.326 . S
In377 O388 2.294 . S
In377 O389 2.326 . S
O378 In377 2.294 . S
O378 C387 1.240 . S
O379 In377 2.326 . S
O379 C387 1.252 . S
C380 O383 1.252 . S
C380 O384 1.260 . S
C381 O388 1.240 . S
C381 O389 1.252 . S
C382 O385 1.252 . S
C382 O386 1.260 . S
O383 In377 2.266 . S
O383 C380 1.252 . S
O384 In377 2.326 . S
O384 C380 1.260 . S
O385 In377 2.266 . S
O385 C382 1.252 . S
O386 In377 2.326 . S
O386 C382 1.260 . S
C387 O378 1.240 . S
C387 O379 1.252 . S
O388 In377 2.294 . S
O388 C381 1.240 . S
O389 In377 2.326 . S
O389 C381 1.252 . S
In390 O391 2.294 . S
In390 O392 2.326 . S
In390 O396 2.266 . S
In390 O397 2.326 . S
In390 O398 2.266 . S
In390 O399 2.326 . S
In390 O401 2.294 . S
In390 O402 2.326 . S
O391 In390 2.294 . S
O391 C400 1.240 . S
O392 In390 2.326 . S
O392 C400 1.252 . S
C393 O396 1.252 . S
C393 O397 1.260 . S
C394 O401 1.240 . S
C394 O402 1.252 . S
C395 O398 1.252 . S
C395 O399 1.260 . S
O396 In390 2.266 . S
O396 C393 1.252 . S
O397 In390 2.326 . S
O397 C393 1.260 . S
O398 In390 2.266 . S
O398 C395 1.252 . S
O399 In390 2.326 . S
O399 C395 1.260 . S
C400 O391 1.240 . S
C400 O392 1.252 . S
O401 In390 2.294 . S
O401 C394 1.240 . S
O402 In390 2.326 . S
O402 C394 1.252 . S
In403 O404 2.294 . S
In403 O405 2.326 . S
In403 O409 2.266 . S
In403 O410 2.326 . S
In403 O411 2.266 . S
In403 O412 2.326 . S
In403 O414 2.294 . S
In403 O415 2.326 . S
O404 In403 2.294 . S
O404 C413 1.240 . S
O405 In403 2.326 . S
O405 C413 1.252 . S
C406 O409 1.252 . S
C406 O410 1.260 . S
C407 O414 1.240 . S
C407 O415 1.252 . S
C408 O411 1.252 . S
C408 O412 1.260 . S
O409 In403 2.266 . S
O409 C406 1.252 . S
O410 In403 2.326 . S
O410 C406 1.260 . S
O411 In403 2.266 . S
O411 C408 1.252 . S
O412 In403 2.326 . S
O412 C408 1.260 . S
C413 O404 1.240 . S
C413 O405 1.252 . S
O414 In403 2.294 . S
O414 C407 1.240 . S
O415 In403 2.326 . S
O415 C407 1.252 . S
C416 C417 1.391 . S
C416 C418 1.394 . S
C416 H432 0.931 . S
C417 C416 1.391 . S
C417 C421 1.376 . S
C418 C416 1.394 . S
C418 C419 1.369 . S
C418 C422 1.531 . S
C419 C418 1.369 . S
C419 C420 1.410 . S
C419 C427 1.503 . S
C420 C419 1.410 . S
C420 C421 1.392 . S
C420 C423 1.511 . S
C421 C417 1.376 . S
C421 C420 1.392 . S
C421 H433 0.929 . S
C422 C418 1.531 . S
C422 H434 0.960 . S
C422 H435 0.962 . S
C422 H436 0.960 . S
C423 C420 1.511 . S
C423 H437 0.961 . S
C423 H438 0.961 . S
C423 H439 0.961 . S
C424 C425 1.370 . S
C424 C426 1.363 . S
C424 H440 0.931 . S
C425 C424 1.370 . S
C425 C429 1.408 . S
C426 C424 1.363 . S
C426 C427 1.370 . S
C426 C430 1.524 . S
C427 C419 1.503 . S
C427 C426 1.370 . S
C427 C428 1.403 . S
C428 C427 1.403 . S
C428 C429 1.404 . S
C428 C431 1.539 . S
C429 C425 1.408 . S
C429 C428 1.404 . S
C429 H441 0.930 . S
C430 C426 1.524 . S
C430 H442 0.956 . S
C430 H443 0.961 . S
C430 H444 0.961 . S
C431 C428 1.539 . S
C431 H445 0.958 . S
C431 H446 0.961 . S
C431 H447 0.960 . S
H432 C416 0.931 . S
H433 C421 0.929 . S
H434 C422 0.960 . S
H435 C422 0.962 . S
H436 C422 0.960 . S
H437 C423 0.961 . S
H438 C423 0.961 . S
H439 C423 0.961 . S
H440 C424 0.931 . S
H441 C429 0.930 . S
H442 C430 0.956 . S
H443 C430 0.961 . S
H444 C430 0.961 . S
H445 C431 0.958 . S
H446 C431 0.961 . S
H447 C431 0.960 . S
C448 C449 1.391 . S
C448 C450 1.394 . S
C448 H464 0.931 . S
C449 C448 1.391 . S
C449 C453 1.376 . S
C450 C448 1.394 . S
C450 C451 1.369 . S
C450 C454 1.531 . S
C451 C450 1.369 . S
C451 C452 1.410 . S
C451 C459 1.503 . S
C452 C451 1.410 . S
C452 C453 1.392 . S
C452 C455 1.511 . S
C453 C449 1.376 . S
C453 C452 1.392 . S
C453 H465 0.929 . S
C454 C450 1.531 . S
C454 H466 0.960 . S
C454 H467 0.962 . S
C454 H468 0.960 . S
C455 C452 1.511 . S
C455 H469 0.961 . S
C455 H470 0.961 . S
C455 H471 0.961 . S
C456 C457 1.370 . S
C456 C458 1.363 . S
C456 H472 0.931 . S
C457 C456 1.370 . S
C457 C461 1.408 . S
C458 C456 1.363 . S
C458 C459 1.370 . S
C458 C462 1.524 . S
C459 C451 1.503 . S
C459 C458 1.370 . S
C459 C460 1.403 . S
C460 C459 1.403 . S
C460 C461 1.404 . S
C460 C463 1.539 . S
C461 C457 1.408 . S
C461 C460 1.404 . S
C461 H473 0.930 . S
C462 C458 1.524 . S
C462 H474 0.956 . S
C462 H475 0.961 . S
C462 H476 0.961 . S
C463 C460 1.539 . S
C463 H477 0.958 . S
C463 H478 0.961 . S
C463 H479 0.960 . S
H464 C448 0.931 . S
H465 C453 0.929 . S
H466 C454 0.960 . S
H467 C454 0.962 . S
H468 C454 0.960 . S
H469 C455 0.961 . S
H470 C455 0.961 . S
H471 C455 0.961 . S
H472 C456 0.931 . S
H473 C461 0.930 . S
H474 C462 0.956 . S
H475 C462 0.961 . S
H476 C462 0.961 . S
H477 C463 0.958 . S
H478 C463 0.961 . S
H479 C463 0.960 . S
C480 C481 1.391 . S
C480 C482 1.394 . S
C480 H496 0.931 . S
C481 C480 1.391 . S
C481 C485 1.376 . S
C482 C480 1.394 . S
C482 C483 1.369 . S
C482 C486 1.531 . S
C483 C482 1.369 . S
C483 C484 1.410 . S
C483 C491 1.503 . S
C484 C483 1.410 . S
C484 C485 1.392 . S
C484 C487 1.511 . S
C485 C481 1.376 . S
C485 C484 1.392 . S
C485 H497 0.929 . S
C486 C482 1.531 . S
C486 H498 0.960 . S
C486 H499 0.962 . S
C486 H500 0.960 . S
C487 C484 1.511 . S
C487 H501 0.961 . S
C487 H502 0.961 . S
C487 H503 0.961 . S
C488 C489 1.370 . S
C488 C490 1.363 . S
C488 H504 0.931 . S
C489 C488 1.370 . S
C489 C493 1.408 . S
C490 C488 1.363 . S
C490 C491 1.370 . S
C490 C494 1.524 . S
C491 C483 1.503 . S
C491 C490 1.370 . S
C491 C492 1.403 . S
C492 C491 1.403 . S
C492 C493 1.404 . S
C492 C495 1.539 . S
C493 C489 1.408 . S
C493 C492 1.404 . S
C493 H505 0.930 . S
C494 C490 1.524 . S
C494 H506 0.956 . S
C494 H507 0.961 . S
C494 H508 0.961 . S
C495 C492 1.539 . S
C495 H509 0.958 . S
C495 H510 0.961 . S
C495 H511 0.960 . S
H496 C480 0.931 . S
H497 C485 0.929 . S
H498 C486 0.960 . S
H499 C486 0.962 . S
H500 C486 0.960 . S
H501 C487 0.961 . S
H502 C487 0.961 . S
H503 C487 0.961 . S
H504 C488 0.931 . S
H505 C493 0.930 . S
H506 C494 0.956 . S
H507 C494 0.961 . S
H508 C494 0.961 . S
H509 C495 0.958 . S
H510 C495 0.961 . S
H511 C495 0.960 . S
C512 C513 1.391 . S
C512 C514 1.394 . S
C512 H528 0.931 . S
C513 C512 1.391 . S
C513 C517 1.376 . S
C514 C512 1.394 . S
C514 C515 1.369 . S
C514 C518 1.531 . S
C515 C514 1.369 . S
C515 C516 1.410 . S
C515 C523 1.503 . S
C516 C515 1.410 . S
C516 C517 1.392 . S
C516 C519 1.511 . S
C517 C513 1.376 . S
C517 C516 1.392 . S
C517 H529 0.929 . S
C518 C514 1.531 . S
C518 H530 0.960 . S
C518 H531 0.962 . S
C518 H532 0.960 . S
C519 C516 1.511 . S
C519 H533 0.961 . S
C519 H534 0.961 . S
C519 H535 0.961 . S
C520 C521 1.370 . S
C520 C522 1.363 . S
C520 H536 0.931 . S
C521 C520 1.370 . S
C521 C525 1.408 . S
C522 C520 1.363 . S
C522 C523 1.370 . S
C522 C526 1.524 . S
C523 C515 1.503 . S
C523 C522 1.370 . S
C523 C524 1.403 . S
C524 C523 1.403 . S
C524 C525 1.404 . S
C524 C527 1.539 . S
C525 C521 1.408 . S
C525 C524 1.404 . S
C525 H537 0.930 . S
C526 C522 1.524 . S
C526 H538 0.956 . S
C526 H539 0.961 . S
C526 H540 0.961 . S
C527 C524 1.539 . S
C527 H541 0.958 . S
C527 H542 0.961 . S
C527 H543 0.960 . S
H528 C512 0.931 . S
H529 C517 0.929 . S
H530 C518 0.960 . S
H531 C518 0.962 . S
H532 C518 0.960 . S
H533 C519 0.961 . S
H534 C519 0.961 . S
H535 C519 0.961 . S
H536 C520 0.931 . S
H537 C525 0.930 . S
H538 C526 0.956 . S
H539 C526 0.961 . S
H540 C526 0.961 . S
H541 C527 0.958 . S
H542 C527 0.961 . S
H543 C527 0.960 . S
C544 C545 1.391 . S
C544 C546 1.394 . S
C544 H560 0.931 . S
C545 C544 1.391 . S
C545 C549 1.376 . S
C546 C544 1.394 . S
C546 C547 1.369 . S
C546 C550 1.531 . S
C547 C546 1.369 . S
C547 C548 1.410 . S
C547 C555 1.503 . S
C548 C547 1.410 . S
C548 C549 1.392 . S
C548 C551 1.511 . S
C549 C545 1.376 . S
C549 C548 1.392 . S
C549 H561 0.929 . S
C550 C546 1.531 . S
C550 H562 0.960 . S
C550 H563 0.962 . S
C550 H564 0.960 . S
C551 C548 1.511 . S
C551 H565 0.961 . S
C551 H566 0.961 . S
C551 H567 0.961 . S
C552 C553 1.370 . S
C552 C554 1.363 . S
C552 H568 0.931 . S
C553 C552 1.370 . S
C553 C557 1.408 . S
C554 C552 1.363 . S
C554 C555 1.370 . S
C554 C558 1.524 . S
C555 C547 1.503 . S
C555 C554 1.370 . S
C555 C556 1.403 . S
C556 C555 1.403 . S
C556 C557 1.404 . S
C556 C559 1.539 . S
C557 C553 1.408 . S
C557 C556 1.404 . S
C557 H569 0.930 . S
C558 C554 1.524 . S
C558 H570 0.956 . S
C558 H571 0.961 . S
C558 H572 0.961 . S
C559 C556 1.539 . S
C559 H573 0.958 . S
C559 H574 0.961 . S
C559 H575 0.960 . S
H560 C544 0.931 . S
H561 C549 0.929 . S
H562 C550 0.960 . S
H563 C550 0.962 . S
H564 C550 0.960 . S
H565 C551 0.961 . S
H566 C551 0.961 . S
H567 C551 0.961 . S
H568 C552 0.931 . S
H569 C557 0.930 . S
H570 C558 0.956 . S
H571 C558 0.961 . S
H572 C558 0.961 . S
H573 C559 0.958 . S
H574 C559 0.961 . S
H575 C559 0.960 . S
C576 C577 1.391 . S
C576 C578 1.394 . S
C576 H592 0.931 . S
C577 C576 1.391 . S
C577 C581 1.376 . S
C578 C576 1.394 . S
C578 C579 1.369 . S
C578 C582 1.531 . S
C579 C578 1.369 . S
C579 C580 1.410 . S
C579 C587 1.503 . S
C580 C579 1.410 . S
C580 C581 1.392 . S
C580 C583 1.511 . S
C581 C577 1.376 . S
C581 C580 1.392 . S
C581 H593 0.929 . S
C582 C578 1.531 . S
C582 H594 0.960 . S
C582 H595 0.962 . S
C582 H596 0.960 . S
C583 C580 1.511 . S
C583 H597 0.961 . S
C583 H598 0.961 . S
C583 H599 0.961 . S
C584 C585 1.370 . S
C584 C586 1.363 . S
C584 H600 0.931 . S
C585 C584 1.370 . S
C585 C589 1.408 . S
C586 C584 1.363 . S
C586 C587 1.370 . S
C586 C590 1.524 . S
C587 C579 1.503 . S
C587 C586 1.370 . S
C587 C588 1.403 . S
C588 C587 1.403 . S
C588 C589 1.404 . S
C588 C591 1.539 . S
C589 C585 1.408 . S
C589 C588 1.404 . S
C589 H601 0.930 . S
C590 C586 1.524 . S
C590 H602 0.956 . S
C590 H603 0.961 . S
C590 H604 0.961 . S
C591 C588 1.539 . S
C591 H605 0.958 . S
C591 H606 0.961 . S
C591 H607 0.960 . S
H592 C576 0.931 . S
H593 C581 0.929 . S
H594 C582 0.960 . S
H595 C582 0.962 . S
H596 C582 0.960 . S
H597 C583 0.961 . S
H598 C583 0.961 . S
H599 C583 0.961 . S
H600 C584 0.931 . S
H601 C589 0.930 . S
H602 C590 0.956 . S
H603 C590 0.961 . S
H604 C590 0.961 . S
H605 C591 0.958 . S
H606 C591 0.961 . S
H607 C591 0.960 . S
C608 C609 1.391 . S
C608 C610 1.394 . S
C608 H624 0.931 . S
C609 C608 1.391 . S
C609 C613 1.376 . S
C610 C608 1.394 . S
C610 C611 1.369 . S
C610 C614 1.531 . S
C611 C610 1.369 . S
C611 C612 1.410 . S
C611 C619 1.503 . S
C612 C611 1.410 . S
C612 C613 1.392 . S
C612 C615 1.511 . S
C613 C609 1.376 . S
C613 C612 1.392 . S
C613 H625 0.929 . S
C614 C610 1.531 . S
C614 H626 0.960 . S
C614 H627 0.962 . S
C614 H628 0.960 . S
C615 C612 1.511 . S
C615 H629 0.961 . S
C615 H630 0.961 . S
C615 H631 0.961 . S
C616 C617 1.370 . S
C616 C618 1.363 . S
C616 H632 0.931 . S
C617 C616 1.370 . S
C617 C621 1.408 . S
C618 C616 1.363 . S
C618 C619 1.370 . S
C618 C622 1.524 . S
C619 C611 1.503 . S
C619 C618 1.370 . S
C619 C620 1.403 . S
C620 C619 1.403 . S
C620 C621 1.404 . S
C620 C623 1.539 . S
C621 C617 1.408 . S
C621 C620 1.404 . S
C621 H633 0.930 . S
C622 C618 1.524 . S
C622 H634 0.956 . S
C622 H635 0.961 . S
C622 H636 0.961 . S
C623 C620 1.539 . S
C623 H637 0.958 . S
C623 H638 0.961 . S
C623 H639 0.960 . S
H624 C608 0.931 . S
H625 C613 0.929 . S
H626 C614 0.960 . S
H627 C614 0.962 . S
H628 C614 0.960 . S
H629 C615 0.961 . S
H630 C615 0.961 . S
H631 C615 0.961 . S
H632 C616 0.931 . S
H633 C621 0.930 . S
H634 C622 0.956 . S
H635 C622 0.961 . S
H636 C622 0.961 . S
H637 C623 0.958 . S
H638 C623 0.961 . S
H639 C623 0.960 . S
C640 C641 1.391 . S
C640 C642 1.394 . S
C640 H656 0.931 . S
C641 C640 1.391 . S
C641 C645 1.376 . S
C642 C640 1.394 . S
C642 C643 1.369 . S
C642 C646 1.531 . S
C643 C642 1.369 . S
C643 C644 1.410 . S
C643 C651 1.503 . S
C644 C643 1.410 . S
C644 C645 1.392 . S
C644 C647 1.511 . S
C645 C641 1.376 . S
C645 C644 1.392 . S
C645 H657 0.929 . S
C646 C642 1.531 . S
C646 H658 0.960 . S
C646 H659 0.962 . S
C646 H660 0.960 . S
C647 C644 1.511 . S
C647 H661 0.961 . S
C647 H662 0.961 . S
C647 H663 0.961 . S
C648 C649 1.370 . S
C648 C650 1.363 . S
C648 H664 0.931 . S
C649 C648 1.370 . S
C649 C653 1.408 . S
C650 C648 1.363 . S
C650 C651 1.370 . S
C650 C654 1.524 . S
C651 C643 1.503 . S
C651 C650 1.370 . S
C651 C652 1.403 . S
C652 C651 1.403 . S
C652 C653 1.404 . S
C652 C655 1.539 . S
C653 C649 1.408 . S
C653 C652 1.404 . S
C653 H665 0.930 . S
C654 C650 1.524 . S
C654 H666 0.956 . S
C654 H667 0.961 . S
C654 H668 0.961 . S
C655 C652 1.539 . S
C655 H669 0.958 . S
C655 H670 0.961 . S
C655 H671 0.960 . S
H656 C640 0.931 . S
H657 C645 0.929 . S
H658 C646 0.960 . S
H659 C646 0.962 . S
H660 C646 0.960 . S
H661 C647 0.961 . S
H662 C647 0.961 . S
H663 C647 0.961 . S
H664 C648 0.931 . S
H665 C653 0.930 . S
H666 C654 0.956 . S
H667 C654 0.961 . S
H668 C654 0.961 . S
H669 C655 0.958 . S
H670 C655 0.961 . S
H671 C655 0.960 . S
C672 C673 1.391 . S
C672 C674 1.394 . S
C672 H688 0.931 . S
C673 C672 1.391 . S
C673 C677 1.376 . S
C674 C672 1.394 . S
C674 C675 1.369 . S
C674 C678 1.531 . S
C675 C674 1.369 . S
C675 C676 1.410 . S
C675 C683 1.503 . S
C676 C675 1.410 . S
C676 C677 1.392 . S
C676 C679 1.511 . S
C677 C673 1.376 . S
C677 C676 1.392 . S
C677 H689 0.929 . S
C678 C674 1.531 . S
C678 H690 0.960 . S
C678 H691 0.962 . S
C678 H692 0.960 . S
C679 C676 1.511 . S
C679 H693 0.961 . S
C679 H694 0.961 . S
C679 H695 0.961 . S
C680 C681 1.370 . S
C680 C682 1.363 . S
C680 H696 0.931 . S
C681 C680 1.370 . S
C681 C685 1.408 . S
C682 C680 1.363 . S
C682 C683 1.370 . S
C682 C686 1.524 . S
C683 C675 1.503 . S
C683 C682 1.370 . S
C683 C684 1.403 . S
C684 C683 1.403 . S
C684 C685 1.404 . S
C684 C687 1.539 . S
C685 C681 1.408 . S
C685 C684 1.404 . S
C685 H697 0.930 . S
C686 C682 1.524 . S
C686 H698 0.956 . S
C686 H699 0.961 . S
C686 H700 0.961 . S
C687 C684 1.539 . S
C687 H701 0.958 . S
C687 H702 0.961 . S
C687 H703 0.960 . S
H688 C672 0.931 . S
H689 C677 0.929 . S
H690 C678 0.960 . S
H691 C678 0.962 . S
H692 C678 0.960 . S
H693 C679 0.961 . S
H694 C679 0.961 . S
H695 C679 0.961 . S
H696 C680 0.931 . S
H697 C685 0.930 . S
H698 C686 0.956 . S
H699 C686 0.961 . S
H700 C686 0.961 . S
H701 C687 0.958 . S
H702 C687 0.961 . S
H703 C687 0.960 . S
C704 C705 1.391 . S
C704 C706 1.394 . S
C704 H720 0.931 . S
C705 C704 1.391 . S
C705 C709 1.376 . S
C706 C704 1.394 . S
C706 C707 1.369 . S
C706 C710 1.531 . S
C707 C706 1.369 . S
C707 C708 1.410 . S
C707 C715 1.503 . S
C708 C707 1.410 . S
C708 C709 1.392 . S
C708 C711 1.511 . S
C709 C705 1.376 . S
C709 C708 1.392 . S
C709 H721 0.929 . S
C710 C706 1.531 . S
C710 H722 0.960 . S
C710 H723 0.962 . S
C710 H724 0.960 . S
C711 C708 1.511 . S
C711 H725 0.961 . S
C711 H726 0.961 . S
C711 H727 0.961 . S
C712 C713 1.370 . S
C712 C714 1.363 . S
C712 H728 0.931 . S
C713 C712 1.370 . S
C713 C717 1.408 . S
C714 C712 1.363 . S
C714 C715 1.370 . S
C714 C718 1.524 . S
C715 C707 1.503 . S
C715 C714 1.370 . S
C715 C716 1.403 . S
C716 C715 1.403 . S
C716 C717 1.404 . S
C716 C719 1.539 . S
C717 C713 1.408 . S
C717 C716 1.404 . S
C717 H729 0.930 . S
C718 C714 1.524 . S
C718 H730 0.956 . S
C718 H731 0.961 . S
C718 H732 0.961 . S
C719 C716 1.539 . S
C719 H733 0.958 . S
C719 H734 0.961 . S
C719 H735 0.960 . S
H720 C704 0.931 . S
H721 C709 0.929 . S
H722 C710 0.960 . S
H723 C710 0.962 . S
H724 C710 0.960 . S
H725 C711 0.961 . S
H726 C711 0.961 . S
H727 C711 0.961 . S
H728 C712 0.931 . S
H729 C717 0.930 . S
H730 C718 0.956 . S
H731 C718 0.961 . S
H732 C718 0.961 . S
H733 C719 0.958 . S
H734 C719 0.961 . S
H735 C719 0.960 . S
C736 C737 1.391 . S
C736 C738 1.394 . S
C736 H752 0.931 . S
C737 C736 1.391 . S
C737 C741 1.376 . S
C738 C736 1.394 . S
C738 C739 1.369 . S
C738 C742 1.531 . S
C739 C738 1.369 . S
C739 C740 1.410 . S
C739 C747 1.503 . S
C740 C739 1.410 . S
C740 C741 1.392 . S
C740 C743 1.511 . S
C741 C737 1.376 . S
C741 C740 1.392 . S
C741 H753 0.929 . S
C742 C738 1.531 . S
C742 H754 0.960 . S
C742 H755 0.962 . S
C742 H756 0.960 . S
C743 C740 1.511 . S
C743 H757 0.961 . S
C743 H758 0.961 . S
C743 H759 0.961 . S
C744 C745 1.370 . S
C744 C746 1.363 . S
C744 H760 0.931 . S
C745 C744 1.370 . S
C745 C749 1.408 . S
C746 C744 1.363 . S
C746 C747 1.370 . S
C746 C750 1.524 . S
C747 C739 1.503 . S
C747 C746 1.370 . S
C747 C748 1.403 . S
C748 C747 1.403 . S
C748 C749 1.404 . S
C748 C751 1.539 . S
C749 C745 1.408 . S
C749 C748 1.404 . S
C749 H761 0.930 . S
C750 C746 1.524 . S
C750 H762 0.956 . S
C750 H763 0.961 . S
C750 H764 0.961 . S
C751 C748 1.539 . S
C751 H765 0.958 . S
C751 H766 0.961 . S
C751 H767 0.960 . S
H752 C736 0.931 . S
H753 C741 0.929 . S
H754 C742 0.960 . S
H755 C742 0.962 . S
H756 C742 0.960 . S
H757 C743 0.961 . S
H758 C743 0.961 . S
H759 C743 0.961 . S
H760 C744 0.931 . S
H761 C749 0.930 . S
H762 C750 0.956 . S
H763 C750 0.961 . S
H764 C750 0.961 . S
H765 C751 0.958 . S
H766 C751 0.961 . S
H767 C751 0.960 . S
C768 C769 1.391 . S
C768 C770 1.394 . S
C768 H784 0.931 . S
C769 C768 1.391 . S
C769 C773 1.376 . S
C770 C768 1.394 . S
C770 C771 1.369 . S
C770 C774 1.531 . S
C771 C770 1.369 . S
C771 C772 1.410 . S
C771 C779 1.503 . S
C772 C771 1.410 . S
C772 C773 1.392 . S
C772 C775 1.511 . S
C773 C769 1.376 . S
C773 C772 1.392 . S
C773 H785 0.929 . S
C774 C770 1.531 . S
C774 H786 0.960 . S
C774 H787 0.962 . S
C774 H788 0.960 . S
C775 C772 1.511 . S
C775 H789 0.961 . S
C775 H790 0.961 . S
C775 H791 0.961 . S
C776 C777 1.370 . S
C776 C778 1.363 . S
C776 H792 0.931 . S
C777 C776 1.370 . S
C777 C781 1.408 . S
C778 C776 1.363 . S
C778 C779 1.370 . S
C778 C782 1.524 . S
C779 C771 1.503 . S
C779 C778 1.370 . S
C779 C780 1.403 . S
C780 C779 1.403 . S
C780 C781 1.404 . S
C780 C783 1.539 . S
C781 C777 1.408 . S
C781 C780 1.404 . S
C781 H793 0.930 . S
C782 C778 1.524 . S
C782 H794 0.956 . S
C782 H795 0.961 . S
C782 H796 0.961 . S
C783 C780 1.539 . S
C783 H797 0.958 . S
C783 H798 0.961 . S
C783 H799 0.960 . S
H784 C768 0.931 . S
H785 C773 0.929 . S
H786 C774 0.960 . S
H787 C774 0.962 . S
H788 C774 0.960 . S
H789 C775 0.961 . S
H790 C775 0.961 . S
H791 C775 0.961 . S
H792 C776 0.931 . S
H793 C781 0.930 . S
H794 C782 0.956 . S
H795 C782 0.961 . S
H796 C782 0.961 . S
H797 C783 0.958 . S
H798 C783 0.961 . S
H799 C783 0.960 . S
C800 C801 1.391 . S
C800 C802 1.394 . S
C800 H816 0.931 . S
C801 C800 1.391 . S
C801 C805 1.376 . S
C802 C800 1.394 . S
C802 C803 1.369 . S
C802 C806 1.531 . S
C803 C802 1.369 . S
C803 C804 1.410 . S
C803 C811 1.503 . S
C804 C803 1.410 . S
C804 C805 1.392 . S
C804 C807 1.511 . S
C805 C801 1.376 . S
C805 C804 1.392 . S
C805 H817 0.929 . S
C806 C802 1.531 . S
C806 H818 0.960 . S
C806 H819 0.962 . S
C806 H820 0.960 . S
C807 C804 1.511 . S
C807 H821 0.961 . S
C807 H822 0.961 . S
C807 H823 0.961 . S
C808 C809 1.370 . S
C808 C810 1.363 . S
C808 H824 0.931 . S
C809 C808 1.370 . S
C809 C813 1.408 . S
C810 C808 1.363 . S
C810 C811 1.370 . S
C810 C814 1.524 . S
C811 C803 1.503 . S
C811 C810 1.370 . S
C811 C812 1.403 . S
C812 C811 1.403 . S
C812 C813 1.404 . S
C812 C815 1.539 . S
C813 C809 1.408 . S
C813 C812 1.404 . S
C813 H825 0.930 . S
C814 C810 1.524 . S
C814 H826 0.956 . S
C814 H827 0.961 . S
C814 H828 0.961 . S
C815 C812 1.539 . S
C815 H829 0.958 . S
C815 H830 0.961 . S
C815 H831 0.960 . S
H816 C800 0.931 . S
H817 C805 0.929 . S
H818 C806 0.960 . S
H819 C806 0.962 . S
H820 C806 0.960 . S
H821 C807 0.961 . S
H822 C807 0.961 . S
H823 C807 0.961 . S
H824 C808 0.931 . S
H825 C813 0.930 . S
H826 C814 0.956 . S
H827 C814 0.961 . S
H828 C814 0.961 . S
H829 C815 0.958 . S
H830 C815 0.961 . S
H831 C815 0.960 . S
C832 C833 1.391 . S
C832 C834 1.394 . S
C832 H848 0.931 . S
C833 C832 1.391 . S
C833 C837 1.376 . S
C834 C832 1.394 . S
C834 C835 1.369 . S
C834 C838 1.531 . S
C835 C834 1.369 . S
C835 C836 1.410 . S
C835 C843 1.503 . S
C836 C835 1.410 . S
C836 C837 1.392 . S
C836 C839 1.511 . S
C837 C833 1.376 . S
C837 C836 1.392 . S
C837 H849 0.929 . S
C838 C834 1.531 . S
C838 H850 0.960 . S
C838 H851 0.962 . S
C838 H852 0.960 . S
C839 C836 1.511 . S
C839 H853 0.961 . S
C839 H854 0.961 . S
C839 H855 0.961 . S
C840 C841 1.370 . S
C840 C842 1.363 . S
C840 H856 0.931 . S
C841 C840 1.370 . S
C841 C845 1.408 . S
C842 C840 1.363 . S
C842 C843 1.370 . S
C842 C846 1.524 . S
C843 C835 1.503 . S
C843 C842 1.370 . S
C843 C844 1.403 . S
C844 C843 1.403 . S
C844 C845 1.404 . S
C844 C847 1.539 . S
C845 C841 1.408 . S
C845 C844 1.404 . S
C845 H857 0.930 . S
C846 C842 1.524 . S
C846 H858 0.956 . S
C846 H859 0.961 . S
C846 H860 0.961 . S
C847 C844 1.539 . S
C847 H861 0.958 . S
C847 H862 0.961 . S
C847 H863 0.960 . S
H848 C832 0.931 . S
H849 C837 0.929 . S
H850 C838 0.960 . S
H851 C838 0.962 . S
H852 C838 0.960 . S
H853 C839 0.961 . S
H854 C839 0.961 . S
H855 C839 0.961 . S
H856 C840 0.931 . S
H857 C845 0.930 . S
H858 C846 0.956 . S
H859 C846 0.961 . S
H860 C846 0.961 . S
H861 C847 0.958 . S
H862 C847 0.961 . S
H863 C847 0.960 . S
C864 C865 1.391 . S
C864 C866 1.394 . S
C864 H880 0.931 . S
C865 C864 1.391 . S
C865 C869 1.376 . S
C866 C864 1.394 . S
C866 C867 1.369 . S
C866 C870 1.531 . S
C867 C866 1.369 . S
C867 C868 1.410 . S
C867 C875 1.503 . S
C868 C867 1.410 . S
C868 C869 1.392 . S
C868 C871 1.511 . S
C869 C865 1.376 . S
C869 C868 1.392 . S
C869 H881 0.929 . S
C870 C866 1.531 . S
C870 H882 0.960 . S
C870 H883 0.962 . S
C870 H884 0.960 . S
C871 C868 1.511 . S
C871 H885 0.961 . S
C871 H886 0.961 . S
C871 H887 0.961 . S
C872 C873 1.370 . S
C872 C874 1.363 . S
C872 H888 0.931 . S
C873 C872 1.370 . S
C873 C877 1.408 . S
C874 C872 1.363 . S
C874 C875 1.370 . S
C874 C878 1.524 . S
C875 C867 1.503 . S
C875 C874 1.370 . S
C875 C876 1.403 . S
C876 C875 1.403 . S
C876 C877 1.404 . S
C876 C879 1.539 . S
C877 C873 1.408 . S
C877 C876 1.404 . S
C877 H889 0.930 . S
C878 C874 1.524 . S
C878 H890 0.956 . S
C878 H891 0.961 . S
C878 H892 0.961 . S
C879 C876 1.539 . S
C879 H893 0.958 . S
C879 H894 0.961 . S
C879 H895 0.960 . S
H880 C864 0.931 . S
H881 C869 0.929 . S
H882 C870 0.960 . S
H883 C870 0.962 . S
H884 C870 0.960 . S
H885 C871 0.961 . S
H886 C871 0.961 . S
H887 C871 0.961 . S
H888 C872 0.931 . S
H889 C877 0.930 . S
H890 C878 0.956 . S
H891 C878 0.961 . S
H892 C878 0.961 . S
H893 C879 0.958 . S
H894 C879 0.961 . S
H895 C879 0.960 . S
C896 C897 1.391 . S
C896 C898 1.394 . S
C896 H912 0.931 . S
C897 C896 1.391 . S
C897 C901 1.376 . S
C898 C896 1.394 . S
C898 C899 1.369 . S
C898 C902 1.531 . S
C899 C898 1.369 . S
C899 C900 1.410 . S
C899 C907 1.503 . S
C900 C899 1.410 . S
C900 C901 1.392 . S
C900 C903 1.511 . S
C901 C897 1.376 . S
C901 C900 1.392 . S
C901 H913 0.929 . S
C902 C898 1.531 . S
C902 H914 0.960 . S
C902 H915 0.962 . S
C902 H916 0.960 . S
C903 C900 1.511 . S
C903 H917 0.961 . S
C903 H918 0.961 . S
C903 H919 0.961 . S
C904 C905 1.370 . S
C904 C906 1.363 . S
C904 H920 0.931 . S
C905 C904 1.370 . S
C905 C909 1.408 . S
C906 C904 1.363 . S
C906 C907 1.370 . S
C906 C910 1.524 . S
C907 C899 1.503 . S
C907 C906 1.370 . S
C907 C908 1.403 . S
C908 C907 1.403 . S
C908 C909 1.404 . S
C908 C911 1.539 . S
C909 C905 1.408 . S
C909 C908 1.404 . S
C909 H921 0.930 . S
C910 C906 1.524 . S
C910 H922 0.956 . S
C910 H923 0.961 . S
C910 H924 0.961 . S
C911 C908 1.539 . S
C911 H925 0.958 . S
C911 H926 0.961 . S
C911 H927 0.960 . S
H912 C896 0.931 . S
H913 C901 0.929 . S
H914 C902 0.960 . S
H915 C902 0.962 . S
H916 C902 0.960 . S
H917 C903 0.961 . S
H918 C903 0.961 . S
H919 C903 0.961 . S
H920 C904 0.931 . S
H921 C909 0.930 . S
H922 C910 0.956 . S
H923 C910 0.961 . S
H924 C910 0.961 . S
H925 C911 0.958 . S
H926 C911 0.961 . S
H927 C911 0.960 . S
C928 C929 1.391 . S
C928 C930 1.394 . S
C928 H944 0.931 . S
C929 C928 1.391 . S
C929 C933 1.376 . S
C930 C928 1.394 . S
C930 C931 1.369 . S
C930 C934 1.531 . S
C931 C930 1.369 . S
C931 C932 1.410 . S
C931 C939 1.503 1_455 S
C932 C931 1.410 . S
C932 C933 1.392 . S
C932 C935 1.511 . S
C933 C929 1.376 . S
C933 C932 1.392 . S
C933 H945 0.929 . S
C934 C930 1.531 . S
C934 H946 0.960 1_455 S
C934 H947 0.962 1_554 S
C934 H948 0.961 . S
C935 C932 1.511 . S
C935 H949 0.961 . S
C935 H950 0.961 1_455 S
C935 H951 0.961 . S
C936 C937 1.370 . S
C936 C938 1.363 . S
C936 H952 0.931 . S
C937 C936 1.370 . S
C937 C941 1.408 . S
C938 C936 1.363 . S
C938 C939 1.370 . S
C938 C942 1.524 1_554 S
C939 C931 1.503 1_655 S
C939 C938 1.370 . S
C939 C940 1.403 . S
C940 C939 1.403 . S
C940 C941 1.404 . S
C940 C943 1.539 . S
C941 C937 1.408 . S
C941 C940 1.404 . S
C941 H953 0.930 . S
C942 C938 1.524 1_556 S
C942 H954 0.956 . S
C942 H955 0.961 1_656 S
C942 H956 0.961 . S
C943 C940 1.539 . S
C943 H957 0.958 . S
C943 H958 0.961 . S
C943 H959 0.974 . S
H944 C928 0.931 . S
H945 C933 0.929 . S
H946 C934 0.960 1_655 S
H947 C934 0.962 1_556 S
H948 C934 0.961 . S
H949 C935 0.961 . S
H950 C935 0.961 1_655 S
H951 C935 0.961 . S
H952 C936 0.931 . S
H953 C941 0.930 . S
H954 C942 0.956 . S
H955 C942 0.961 1_454 S
H956 C942 0.961 . S
H957 C943 0.958 . S
H958 C943 0.961 . S
H959 C943 0.974 . S
C960 C961 1.391 . S
C960 C962 1.394 . S
C960 H976 0.931 . S
C961 C960 1.391 . S
C961 C965 1.376 . S
C962 C960 1.394 . S
C962 C963 1.369 . S
C962 C966 1.531 . S
C963 C962 1.369 . S
C963 C964 1.410 . S
C963 C971 1.503 . S
C964 C963 1.410 . S
C964 C965 1.392 . S
C964 C967 1.511 . S
C965 C961 1.376 . S
C965 C964 1.392 . S
C965 H977 0.929 . S
C966 C962 1.531 . S
C966 H978 0.960 . S
C966 H979 0.962 . S
C966 H980 0.960 . S
C967 C964 1.511 . S
C967 H981 0.961 . S
C967 H982 0.961 . S
C967 H983 0.961 . S
C968 C969 1.370 . S
C968 C970 1.363 . S
C968 H984 0.931 . S
C969 C968 1.370 . S
C969 C973 1.408 . S
C970 C968 1.363 . S
C970 C971 1.370 . S
C970 C974 1.524 . S
C971 C963 1.503 . S
C971 C970 1.370 . S
C971 C972 1.403 . S
C972 C971 1.403 . S
C972 C973 1.404 . S
C972 C975 1.539 . S
C973 C969 1.408 . S
C973 C972 1.404 . S
C973 H985 0.930 . S
C974 C970 1.524 . S
C974 H986 0.956 . S
C974 H987 0.961 . S
C974 H988 0.961 . S
C975 C972 1.539 . S
C975 H989 0.958 . S
C975 H990 0.961 . S
C975 H991 0.960 . S
H976 C960 0.931 . S
H977 C965 0.929 . S
H978 C966 0.960 . S
H979 C966 0.962 . S
H980 C966 0.960 . S
H981 C967 0.961 . S
H982 C967 0.961 . S
H983 C967 0.961 . S
H984 C968 0.931 . S
H985 C973 0.930 . S
H986 C974 0.956 . S
H987 C974 0.961 . S
H988 C974 0.961 . S
H989 C975 0.958 . S
H990 C975 0.961 . S
H991 C975 0.960 . S
C992 C993 1.391 . S
C992 C994 1.394 . S
C992 H1008 0.931 . S
C993 C992 1.391 . S
C993 C997 1.376 . S
C994 C992 1.394 . S
C994 C995 1.369 . S
C994 C998 1.531 . S
C995 C994 1.369 . S
C995 C996 1.410 . S
C995 C1003 1.503 . S
C996 C995 1.410 . S
C996 C997 1.392 . S
C996 C999 1.511 . S
C997 C993 1.376 . S
C997 C996 1.392 . S
C997 H1009 0.929 . S
C998 C994 1.531 . S
C998 H1010 0.960 . S
C998 H1011 0.962 . S
C998 H1012 0.960 . S
C999 C996 1.511 . S
C999 H1013 0.961 . S
C999 H1014 0.961 . S
C999 H1015 0.961 . S
C1000 C1001 1.370 . S
C1000 C1002 1.363 . S
C1000 H1016 0.931 . S
C1001 C1000 1.370 . S
C1001 C1005 1.408 . S
C1002 C1000 1.363 . S
C1002 C1003 1.370 . S
C1002 C1006 1.524 . S
C1003 C995 1.503 . S
C1003 C1002 1.370 . S
C1003 C1004 1.403 . S
C1004 C1003 1.403 . S
C1004 C1005 1.404 . S
C1004 C1007 1.539 . S
C1005 C1001 1.408 . S
C1005 C1004 1.404 . S
C1005 H1017 0.930 . S
C1006 C1002 1.524 . S
C1006 H1018 0.956 . S
C1006 H1019 0.961 . S
C1006 H1020 0.961 . S
C1007 C1004 1.539 . S
C1007 H1021 0.958 . S
C1007 H1022 0.961 . S
C1007 H1023 0.960 . S
H1008 C992 0.931 . S
H1009 C997 0.929 . S
H1010 C998 0.960 . S
H1011 C998 0.962 . S
H1012 C998 0.960 . S
H1013 C999 0.961 . S
H1014 C999 0.961 . S
H1015 C999 0.961 . S
H1016 C1000 0.931 . S
H1017 C1005 0.930 . S
H1018 C1006 0.956 . S
H1019 C1006 0.961 . S
H1020 C1006 0.961 . S
H1021 C1007 0.958 . S
H1022 C1007 0.961 . S
H1023 C1007 0.960 . S
C1024 C1025 1.391 . S
C1024 C1026 1.394 . S
C1024 H1040 0.931 . S
C1025 C1024 1.391 . S
C1025 C1029 1.376 . S
C1026 C1024 1.394 . S
C1026 C1027 1.369 . S
C1026 C1030 1.531 . S
C1027 C1026 1.369 . S
C1027 C1028 1.410 . S
C1027 C1035 1.503 . S
C1028 C1027 1.410 . S
C1028 C1029 1.392 . S
C1028 C1031 1.511 . S
C1029 C1025 1.376 . S
C1029 C1028 1.392 . S
C1029 H1041 0.929 . S
C1030 C1026 1.531 . S
C1030 H1042 0.960 . S
C1030 H1043 0.962 . S
C1030 H1044 0.960 . S
C1031 C1028 1.511 . S
C1031 H1045 0.961 . S
C1031 H1046 0.961 . S
C1031 H1047 0.961 . S
C1032 C1033 1.370 . S
C1032 C1034 1.363 . S
C1032 H1048 0.931 . S
C1033 C1032 1.370 . S
C1033 C1037 1.408 . S
C1034 C1032 1.363 . S
C1034 C1035 1.370 . S
C1034 C1038 1.524 . S
C1035 C1027 1.503 . S
C1035 C1034 1.370 . S
C1035 C1036 1.403 . S
C1036 C1035 1.403 . S
C1036 C1037 1.404 . S
C1036 C1039 1.539 . S
C1037 C1033 1.408 . S
C1037 C1036 1.404 . S
C1037 H1049 0.930 . S
C1038 C1034 1.524 . S
C1038 H1050 0.956 . S
C1038 H1051 0.961 . S
C1038 H1052 0.961 . S
C1039 C1036 1.539 . S
C1039 H1053 0.958 . S
C1039 H1054 0.961 . S
C1039 H1055 0.960 . S
H1040 C1024 0.931 . S
H1041 C1029 0.929 . S
H1042 C1030 0.960 . S
H1043 C1030 0.962 . S
H1044 C1030 0.960 . S
H1045 C1031 0.961 . S
H1046 C1031 0.961 . S
H1047 C1031 0.961 . S
H1048 C1032 0.931 . S
H1049 C1037 0.930 . S
H1050 C1038 0.956 . S
H1051 C1038 0.961 . S
H1052 C1038 0.961 . S
H1053 C1039 0.958 . S
H1054 C1039 0.961 . S
H1055 C1039 0.960 . S
C1056 C1057 1.391 . S
C1056 C1058 1.394 . S
C1056 H1072 0.931 . S
C1057 C1056 1.391 . S
C1057 C1061 1.376 . S
C1058 C1056 1.394 . S
C1058 C1059 1.369 . S
C1058 C1062 1.531 . S
C1059 C1058 1.369 . S
C1059 C1060 1.410 . S
C1059 C1067 1.503 1_655 S
C1060 C1059 1.410 . S
C1060 C1061 1.392 . S
C1060 C1063 1.511 . S
C1061 C1057 1.376 . S
C1061 C1060 1.392 . S
C1061 H1073 0.929 . S
C1062 C1058 1.531 . S
C1062 H1074 0.960 1_655 S
C1062 H1075 0.962 1_556 S
C1062 H1076 0.956 1_556 S
C1063 C1060 1.511 . S
C1063 H1077 0.961 . S
C1063 H1078 0.961 1_655 S
C1063 H1079 0.961 . S
C1064 C1065 1.370 . S
C1064 C1066 1.363 . S
C1064 H1080 0.931 . S
C1065 C1064 1.370 . S
C1065 C1069 1.408 . S
C1066 C1064 1.363 . S
C1066 C1067 1.370 . S
C1066 C1070 1.524 1_556 S
C1067 C1059 1.503 1_455 S
C1067 C1066 1.370 . S
C1067 C1068 1.403 . S
C1068 C1067 1.403 . S
C1068 C1069 1.404 . S
C1068 C1071 1.539 . S
C1069 C1065 1.408 . S
C1069 C1068 1.404 . S
C1069 H1081 0.930 . S
C1070 C1066 1.524 1_554 S
C1070 H1082 0.978 . S
C1070 H1083 0.961 1_454 S
C1070 H1084 0.961 . S
C1071 C1068 1.539 . S
C1071 H1085 0.958 . S
C1071 H1086 0.961 . S
C1071 H1087 0.961 . S
H1072 C1056 0.931 . S
H1073 C1061 0.929 . S
H1074 C1062 0.960 1_455 S
H1075 C1062 0.962 1_554 S
H1076 C1062 0.956 1_554 S
H1077 C1063 0.961 . S
H1078 C1063 0.961 1_455 S
H1079 C1063 0.961 . S
H1080 C1064 0.931 . S
H1081 C1069 0.930 . S
H1082 C1070 0.978 . S
H1083 C1070 0.961 1_656 S
H1084 C1070 0.961 . S
H1085 C1071 0.958 . S
H1086 C1071 0.961 . S
H1087 C1071 0.961 . S
C1088 C1089 1.391 . S
C1088 C1090 1.394 . S
C1088 H1104 0.931 . S
C1089 C1088 1.391 . S
C1089 C1093 1.376 . S
C1090 C1088 1.394 . S
C1090 C1091 1.369 . S
C1090 C1094 1.531 . S
C1091 C1090 1.369 . S
C1091 C1092 1.410 . S
C1091 C1099 1.503 . S
C1092 C1091 1.410 . S
C1092 C1093 1.392 . S
C1092 C1095 1.511 . S
C1093 C1089 1.376 . S
C1093 C1092 1.392 . S
C1093 H1105 0.929 . S
C1094 C1090 1.531 . S
C1094 H1106 0.960 . S
C1094 H1107 0.962 . S
C1094 H1108 0.960 . S
C1095 C1092 1.511 . S
C1095 H1109 0.961 . S
C1095 H1110 0.961 . S
C1095 H1111 0.961 . S
C1096 C1097 1.370 . S
C1096 C1098 1.363 . S
C1096 H1112 0.931 . S
C1097 C1096 1.370 . S
C1097 C1101 1.408 . S
C1098 C1096 1.363 . S
C1098 C1099 1.370 . S
C1098 C1102 1.524 . S
C1099 C1091 1.503 . S
C1099 C1098 1.370 . S
C1099 C1100 1.403 . S
C1100 C1099 1.403 . S
C1100 C1101 1.404 . S
C1100 C1103 1.539 . S
C1101 C1097 1.408 . S
C1101 C1100 1.404 . S
C1101 H1113 0.930 . S
C1102 C1098 1.524 . S
C1102 H1114 0.956 . S
C1102 H1115 0.961 . S
C1102 H1116 0.961 . S
C1103 C1100 1.539 . S
C1103 H1117 0.958 . S
C1103 H1118 0.961 . S
C1103 H1119 0.960 . S
H1104 C1088 0.931 . S
H1105 C1093 0.929 . S
H1106 C1094 0.960 . S
H1107 C1094 0.962 . S
H1108 C1094 0.960 . S
H1109 C1095 0.961 . S
H1110 C1095 0.961 . S
H1111 C1095 0.961 . S
H1112 C1096 0.931 . S
H1113 C1101 0.930 . S
H1114 C1102 0.956 . S
H1115 C1102 0.961 . S
H1116 C1102 0.961 . S
H1117 C1103 0.958 . S
H1118 C1103 0.961 . S
H1119 C1103 0.960 . S
C1120 C1121 1.391 . S
C1120 C1122 1.394 . S
C1120 H1136 0.931 . S
C1121 C1120 1.391 . S
C1121 C1125 1.376 . S
C1122 C1120 1.394 . S
C1122 C1123 1.369 . S
C1122 C1126 1.531 . S
C1123 C1122 1.369 . S
C1123 C1124 1.410 . S
C1123 C1131 1.503 . S
C1124 C1123 1.410 . S
C1124 C1125 1.392 . S
C1124 C1127 1.511 . S
C1125 C1121 1.376 . S
C1125 C1124 1.392 . S
C1125 H1137 0.929 . S
C1126 C1122 1.531 . S
C1126 H1138 0.960 . S
C1126 H1139 0.962 . S
C1126 H1140 0.960 . S
C1127 C1124 1.511 . S
C1127 H1141 0.961 . S
C1127 H1142 0.961 . S
C1127 H1143 0.961 . S
C1128 C1129 1.370 . S
C1128 C1130 1.363 . S
C1128 H1144 0.931 . S
C1129 C1128 1.370 . S
C1129 C1133 1.408 . S
C1130 C1128 1.363 . S
C1130 C1131 1.370 . S
C1130 C1134 1.524 . S
C1131 C1123 1.503 . S
C1131 C1130 1.370 . S
C1131 C1132 1.403 . S
C1132 C1131 1.403 . S
C1132 C1133 1.404 . S
C1132 C1135 1.539 . S
C1133 C1129 1.408 . S
C1133 C1132 1.404 . S
C1133 H1145 0.930 . S
C1134 C1130 1.524 . S
C1134 H1146 0.956 . S
C1134 H1147 0.961 . S
C1134 H1148 0.961 . S
C1135 C1132 1.539 . S
C1135 H1149 0.958 . S
C1135 H1150 0.961 . S
C1135 H1151 0.960 . S
H1136 C1120 0.931 . S
H1137 C1125 0.929 . S
H1138 C1126 0.960 . S
H1139 C1126 0.962 . S
H1140 C1126 0.960 . S
H1141 C1127 0.961 . S
H1142 C1127 0.961 . S
H1143 C1127 0.961 . S
H1144 C1128 0.931 . S
H1145 C1133 0.930 . S
H1146 C1134 0.956 . S
H1147 C1134 0.961 . S
H1148 C1134 0.961 . S
H1149 C1135 0.958 . S
H1150 C1135 0.961 . S
H1151 C1135 0.960 . S
C1152 C1153 1.391 . S
C1152 C1154 1.394 . S
C1152 H1168 0.931 . S
C1153 C1152 1.391 . S
C1153 C1157 1.376 . S
C1154 C1152 1.394 . S
C1154 C1155 1.369 . S
C1154 C1158 1.531 . S
C1155 C1154 1.369 . S
C1155 C1156 1.410 . S
C1155 C1163 1.503 . S
C1156 C1155 1.410 . S
C1156 C1157 1.392 . S
C1156 C1159 1.511 . S
C1157 C1153 1.376 . S
C1157 C1156 1.392 . S
C1157 H1169 0.929 . S
C1158 C1154 1.531 . S
C1158 H1170 0.960 . S
C1158 H1171 0.962 . S
C1158 H1172 0.960 . S
C1159 C1156 1.511 . S
C1159 H1173 0.961 . S
C1159 H1174 0.961 . S
C1159 H1175 0.961 . S
C1160 C1161 1.370 . S
C1160 C1162 1.363 . S
C1160 H1176 0.931 . S
C1161 C1160 1.370 . S
C1161 C1165 1.408 . S
C1162 C1160 1.363 . S
C1162 C1163 1.370 . S
C1162 C1166 1.524 . S
C1163 C1155 1.503 . S
C1163 C1162 1.370 . S
C1163 C1164 1.403 . S
C1164 C1163 1.403 . S
C1164 C1165 1.404 . S
C1164 C1167 1.539 . S
C1165 C1161 1.408 . S
C1165 C1164 1.404 . S
C1165 H1177 0.930 . S
C1166 C1162 1.524 . S
C1166 H1178 0.956 . S
C1166 H1179 0.961 . S
C1166 H1180 0.961 . S
C1167 C1164 1.539 . S
C1167 H1181 0.958 . S
C1167 H1182 0.961 . S
C1167 H1183 0.960 . S
H1168 C1152 0.931 . S
H1169 C1157 0.929 . S
H1170 C1158 0.960 . S
H1171 C1158 0.962 . S
H1172 C1158 0.960 . S
H1173 C1159 0.961 . S
H1174 C1159 0.961 . S
H1175 C1159 0.961 . S
H1176 C1160 0.931 . S
H1177 C1165 0.930 . S
H1178 C1166 0.956 . S
H1179 C1166 0.961 . S
H1180 C1166 0.961 . S
H1181 C1167 0.958 . S
H1182 C1167 0.961 . S
H1183 C1167 0.960 . S
C1184 C1185 1.391 . S
C1184 C1186 1.394 . S
C1184 H1200 0.931 . S
C1185 C1184 1.391 . S
C1185 C1189 1.376 . S
C1186 C1184 1.394 . S
C1186 C1187 1.369 . S
C1186 C1190 1.531 . S
C1187 C1186 1.369 . S
C1187 C1188 1.410 . S
C1187 C1195 1.503 . S
C1188 C1187 1.410 . S
C1188 C1189 1.392 . S
C1188 C1191 1.511 . S
C1189 C1185 1.376 . S
C1189 C1188 1.392 . S
C1189 H1201 0.929 . S
C1190 C1186 1.531 . S
C1190 H1202 0.960 . S
C1190 H1203 0.962 . S
C1190 H1204 0.960 . S
C1191 C1188 1.511 . S
C1191 H1205 0.961 . S
C1191 H1206 0.961 . S
C1191 H1207 0.961 . S
C1192 C1193 1.370 . S
C1192 C1194 1.363 . S
C1192 H1208 0.931 . S
C1193 C1192 1.370 . S
C1193 C1197 1.408 . S
C1194 C1192 1.363 . S
C1194 C1195 1.370 . S
C1194 C1198 1.524 . S
C1195 C1187 1.503 . S
C1195 C1194 1.370 . S
C1195 C1196 1.403 . S
C1196 C1195 1.403 . S
C1196 C1197 1.404 . S
C1196 C1199 1.539 . S
C1197 C1193 1.408 . S
C1197 C1196 1.404 . S
C1197 H1209 0.930 . S
C1198 C1194 1.524 . S
C1198 H1210 0.956 . S
C1198 H1211 0.961 . S
C1198 H1212 0.961 . S
C1199 C1196 1.539 . S
C1199 H1213 0.958 . S
C1199 H1214 0.961 . S
C1199 H1215 0.960 . S
H1200 C1184 0.931 . S
H1201 C1189 0.929 . S
H1202 C1190 0.960 . S
H1203 C1190 0.962 . S
H1204 C1190 0.960 . S
H1205 C1191 0.961 . S
H1206 C1191 0.961 . S
H1207 C1191 0.961 . S
H1208 C1192 0.931 . S
H1209 C1197 0.930 . S
H1210 C1198 0.956 . S
H1211 C1198 0.961 . S
H1212 C1198 0.961 . S
H1213 C1199 0.958 . S
H1214 C1199 0.961 . S
H1215 C1199 0.960 . S
C1216 C1217 1.391 . S
C1216 C1218 1.394 . S
C1216 H1232 0.931 . S
C1217 C1216 1.391 . S
C1217 C1221 1.376 . S
C1218 C1216 1.394 . S
C1218 C1219 1.369 . S
C1218 C1222 1.531 . S
C1219 C1218 1.369 . S
C1219 C1220 1.410 . S
C1219 C1227 1.503 . S
C1220 C1219 1.410 . S
C1220 C1221 1.392 . S
C1220 C1223 1.511 . S
C1221 C1217 1.376 . S
C1221 C1220 1.392 . S
C1221 H1233 0.929 . S
C1222 C1218 1.531 . S
C1222 H1234 0.960 . S
C1222 H1235 0.962 . S
C1222 H1236 0.960 . S
C1223 C1220 1.511 . S
C1223 H1237 0.961 . S
C1223 H1238 0.961 . S
C1223 H1239 0.961 . S
C1224 C1225 1.370 . S
C1224 C1226 1.363 . S
C1224 H1240 0.931 . S
C1225 C1224 1.370 . S
C1225 C1229 1.408 . S
C1226 C1224 1.363 . S
C1226 C1227 1.370 . S
C1226 C1230 1.524 . S
C1227 C1219 1.503 . S
C1227 C1226 1.370 . S
C1227 C1228 1.403 . S
C1228 C1227 1.403 . S
C1228 C1229 1.404 . S
C1228 C1231 1.539 . S
C1229 C1225 1.408 . S
C1229 C1228 1.404 . S
C1229 H1241 0.930 . S
C1230 C1226 1.524 . S
C1230 H1242 0.956 . S
C1230 H1243 0.961 . S
C1230 H1244 0.961 . S
C1231 C1228 1.539 . S
C1231 H1245 0.958 . S
C1231 H1246 0.961 . S
C1231 H1247 0.960 . S
H1232 C1216 0.931 . S
H1233 C1221 0.929 . S
H1234 C1222 0.960 . S
H1235 C1222 0.962 . S
H1236 C1222 0.960 . S
H1237 C1223 0.961 . S
H1238 C1223 0.961 . S
H1239 C1223 0.961 . S
H1240 C1224 0.931 . S
H1241 C1229 0.930 . S
H1242 C1230 0.956 . S
H1243 C1230 0.961 . S
H1244 C1230 0.961 . S
H1245 C1231 0.958 . S
H1246 C1231 0.961 . S
H1247 C1231 0.960 . S
C1248 C1249 1.391 . S
C1248 C1250 1.394 . S
C1248 H1264 0.931 . S
C1249 C1248 1.391 . S
C1249 C1253 1.376 . S
C1250 C1248 1.394 . S
C1250 C1251 1.369 . S
C1250 C1254 1.531 . S
C1251 C1250 1.369 . S
C1251 C1252 1.410 . S
C1251 C1259 1.503 . S
C1252 C1251 1.410 . S
C1252 C1253 1.392 . S
C1252 C1255 1.511 . S
C1253 C1249 1.376 . S
C1253 C1252 1.392 . S
C1253 H1265 0.929 . S
C1254 C1250 1.531 . S
C1254 H1266 0.960 . S
C1254 H1267 0.962 . S
C1254 H1268 0.960 . S
C1255 C1252 1.511 . S
C1255 H1269 0.961 . S
C1255 H1270 0.961 . S
C1255 H1271 0.961 . S
C1256 C1257 1.370 . S
C1256 C1258 1.363 . S
C1256 H1272 0.931 . S
C1257 C1256 1.370 . S
C1257 C1261 1.408 . S
C1258 C1256 1.363 . S
C1258 C1259 1.370 . S
C1258 C1262 1.524 . S
C1259 C1251 1.503 . S
C1259 C1258 1.370 . S
C1259 C1260 1.403 . S
C1260 C1259 1.403 . S
C1260 C1261 1.404 . S
C1260 C1263 1.539 . S
C1261 C1257 1.408 . S
C1261 C1260 1.404 . S
C1261 H1273 0.930 . S
C1262 C1258 1.524 . S
C1262 H1274 0.956 . S
C1262 H1275 0.961 . S
C1262 H1276 0.961 . S
C1263 C1260 1.539 . S
C1263 H1277 0.958 . S
C1263 H1278 0.961 . S
C1263 H1279 0.960 . S
H1264 C1248 0.931 . S
H1265 C1253 0.929 . S
H1266 C1254 0.960 . S
H1267 C1254 0.962 . S
H1268 C1254 0.960 . S
H1269 C1255 0.961 . S
H1270 C1255 0.961 . S
H1271 C1255 0.961 . S
H1272 C1256 0.931 . S
H1273 C1261 0.930 . S
H1274 C1262 0.956 . S
H1275 C1262 0.961 . S
H1276 C1262 0.961 . S
H1277 C1263 0.958 . S
H1278 C1263 0.961 . S
H1279 C1263 0.960 . S
C1280 C1281 1.391 . S
C1280 C1282 1.394 . S
C1280 H1296 0.931 . S
C1281 C1280 1.391 . S
C1281 C1285 1.376 . S
C1282 C1280 1.394 . S
C1282 C1283 1.369 . S
C1282 C1286 1.531 . S
C1283 C1282 1.369 . S
C1283 C1284 1.410 . S
C1283 C1291 1.503 . S
C1284 C1283 1.410 . S
C1284 C1285 1.392 . S
C1284 C1287 1.511 . S
C1285 C1281 1.376 . S
C1285 C1284 1.392 . S
C1285 H1297 0.929 . S
C1286 C1282 1.531 . S
C1286 H1298 0.960 . S
C1286 H1299 0.962 . S
C1286 H1300 0.960 . S
C1287 C1284 1.511 . S
C1287 H1301 0.961 . S
C1287 H1302 0.961 . S
C1287 H1303 0.961 . S
C1288 C1289 1.370 . S
C1288 C1290 1.363 . S
C1288 H1304 0.931 . S
C1289 C1288 1.370 . S
C1289 C1293 1.408 . S
C1290 C1288 1.363 . S
C1290 C1291 1.370 . S
C1290 C1294 1.524 . S
C1291 C1283 1.503 . S
C1291 C1290 1.370 . S
C1291 C1292 1.403 . S
C1292 C1291 1.403 . S
C1292 C1293 1.404 . S
C1292 C1295 1.539 . S
C1293 C1289 1.408 . S
C1293 C1292 1.404 . S
C1293 H1305 0.930 . S
C1294 C1290 1.524 . S
C1294 H1306 0.956 . S
C1294 H1307 0.961 . S
C1294 H1308 0.961 . S
C1295 C1292 1.539 . S
C1295 H1309 0.958 . S
C1295 H1310 0.961 . S
C1295 H1311 0.960 . S
H1296 C1280 0.931 . S
H1297 C1285 0.929 . S
H1298 C1286 0.960 . S
H1299 C1286 0.962 . S
H1300 C1286 0.960 . S
H1301 C1287 0.961 . S
H1302 C1287 0.961 . S
H1303 C1287 0.961 . S
H1304 C1288 0.931 . S
H1305 C1293 0.930 . S
H1306 C1294 0.956 . S
H1307 C1294 0.961 . S
H1308 C1294 0.961 . S
H1309 C1295 0.958 . S
H1310 C1295 0.961 . S
H1311 C1295 0.960 . S
C1312 C1313 1.391 . S
C1312 C1314 1.394 . S
C1312 H1328 0.931 . S
C1313 C1312 1.391 . S
C1313 C1317 1.376 . S
C1314 C1312 1.394 . S
C1314 C1315 1.369 . S
C1314 C1318 1.531 . S
C1315 C1314 1.369 . S
C1315 C1316 1.410 . S
C1315 C1323 1.503 . S
C1316 C1315 1.410 . S
C1316 C1317 1.392 . S
C1316 C1319 1.511 . S
C1317 C1313 1.376 . S
C1317 C1316 1.392 . S
C1317 H1329 0.929 . S
C1318 C1314 1.531 . S
C1318 H1330 0.960 . S
C1318 H1331 0.962 . S
C1318 H1332 0.960 . S
C1319 C1316 1.511 . S
C1319 H1333 0.961 . S
C1319 H1334 0.961 . S
C1319 H1335 0.961 . S
C1320 C1321 1.370 . S
C1320 C1322 1.363 . S
C1320 H1336 0.931 . S
C1321 C1320 1.370 . S
C1321 C1325 1.408 . S
C1322 C1320 1.363 . S
C1322 C1323 1.370 . S
C1322 C1326 1.524 . S
C1323 C1315 1.503 . S
C1323 C1322 1.370 . S
C1323 C1324 1.403 . S
C1324 C1323 1.403 . S
C1324 C1325 1.404 . S
C1324 C1327 1.539 . S
C1325 C1321 1.408 . S
C1325 C1324 1.404 . S
C1325 H1337 0.930 . S
C1326 C1322 1.524 . S
C1326 H1338 0.956 . S
C1326 H1339 0.961 . S
C1326 H1340 0.961 . S
C1327 C1324 1.539 . S
C1327 H1341 0.958 . S
C1327 H1342 0.961 . S
C1327 H1343 0.960 . S
H1328 C1312 0.931 . S
H1329 C1317 0.929 . S
H1330 C1318 0.960 . S
H1331 C1318 0.962 . S
H1332 C1318 0.960 . S
H1333 C1319 0.961 . S
H1334 C1319 0.961 . S
H1335 C1319 0.961 . S
H1336 C1320 0.931 . S
H1337 C1325 0.930 . S
H1338 C1326 0.956 . S
H1339 C1326 0.961 . S
H1340 C1326 0.961 . S
H1341 C1327 0.958 . S
H1342 C1327 0.961 . S
H1343 C1327 0.960 . S
C1344 C1345 1.391 . S
C1344 C1346 1.394 . S
C1344 H1360 0.931 . S
C1345 C1344 1.391 . S
C1345 C1349 1.376 . S
C1346 C1344 1.394 . S
C1346 C1347 1.369 . S
C1346 C1350 1.531 . S
C1347 C1346 1.369 . S
C1347 C1348 1.410 . S
C1347 C1355 1.503 1_655 S
C1348 C1347 1.410 . S
C1348 C1349 1.392 . S
C1348 C1351 1.511 1_554 S
C1349 C1345 1.376 . S
C1349 C1348 1.392 . S
C1349 H1361 0.929 1_554 S
C1350 C1346 1.531 . S
C1350 H1362 0.960 1_655 S
C1350 H1363 0.962 . S
C1350 H1364 0.960 . S
C1351 C1348 1.511 1_556 S
C1351 H1365 0.961 . S
C1351 H1366 0.961 1_655 S
C1351 H1367 0.961 . S
C1352 C1353 1.370 . S
C1352 C1354 1.363 . S
C1352 H1368 0.931 . S
C1353 C1352 1.370 . S
C1353 C1357 1.408 . S
C1354 C1352 1.363 . S
C1354 C1355 1.370 . S
C1354 C1358 1.524 . S
C1355 C1347 1.503 1_455 S
C1355 C1354 1.370 . S
C1355 C1356 1.403 . S
C1356 C1355 1.403 . S
C1356 C1357 1.404 . S
C1356 C1359 1.539 . S
C1357 C1353 1.408 . S
C1357 C1356 1.404 . S
C1357 H1369 0.930 . S
C1358 C1354 1.524 . S
C1358 H1370 0.956 . S
C1358 H1371 0.961 1_455 S
C1358 H1372 0.961 . S
C1359 C1356 1.539 . S
C1359 H1373 0.958 . S
C1359 H1374 0.961 . S
C1359 H1375 0.983 . S
H1360 C1344 0.931 . S
H1361 C1349 0.929 1_556 S
H1362 C1350 0.960 1_455 S
H1363 C1350 0.962 . S
H1364 C1350 0.960 . S
H1365 C1351 0.961 . S
H1366 C1351 0.961 1_455 S
H1367 C1351 0.961 . S
H1368 C1352 0.931 . S
H1369 C1357 0.930 . S
H1370 C1358 0.956 . S
H1371 C1358 0.961 1_655 S
H1372 C1358 0.961 . S
H1373 C1359 0.958 . S
H1374 C1359 0.961 . S
H1375 C1359 0.983 . S
C1376 C1377 1.391 . S
C1376 C1378 1.394 . S
C1376 H1392 0.931 . S
C1377 C1376 1.391 . S
C1377 C1381 1.376 . S
C1378 C1376 1.394 . S
C1378 C1379 1.369 . S
C1378 C1382 1.531 . S
C1379 C1378 1.369 . S
C1379 C1380 1.410 . S
C1379 C1387 1.503 . S
C1380 C1379 1.410 . S
C1380 C1381 1.392 . S
C1380 C1383 1.511 . S
C1381 C1377 1.376 . S
C1381 C1380 1.392 . S
C1381 H1393 0.929 . S
C1382 C1378 1.531 . S
C1382 H1394 0.960 . S
C1382 H1395 0.962 . S
C1382 H1396 0.960 . S
C1383 C1380 1.511 . S
C1383 H1397 0.961 . S
C1383 H1398 0.961 . S
C1383 H1399 0.961 . S
C1384 C1385 1.370 . S
C1384 C1386 1.363 . S
C1384 H1400 0.931 . S
C1385 C1384 1.370 . S
C1385 C1389 1.408 . S
C1386 C1384 1.363 . S
C1386 C1387 1.370 . S
C1386 C1390 1.524 . S
C1387 C1379 1.503 . S
C1387 C1386 1.370 . S
C1387 C1388 1.403 . S
C1388 C1387 1.403 . S
C1388 C1389 1.404 . S
C1388 C1391 1.539 . S
C1389 C1385 1.408 . S
C1389 C1388 1.404 . S
C1389 H1401 0.930 . S
C1390 C1386 1.524 . S
C1390 H1402 0.956 . S
C1390 H1403 0.961 . S
C1390 H1404 0.961 . S
C1391 C1388 1.539 . S
C1391 H1405 0.958 . S
C1391 H1406 0.961 . S
C1391 H1407 0.960 . S
H1392 C1376 0.931 . S
H1393 C1381 0.929 . S
H1394 C1382 0.960 . S
H1395 C1382 0.962 . S
H1396 C1382 0.960 . S
H1397 C1383 0.961 . S
H1398 C1383 0.961 . S
H1399 C1383 0.961 . S
H1400 C1384 0.931 . S
H1401 C1389 0.930 . S
H1402 C1390 0.956 . S
H1403 C1390 0.961 . S
H1404 C1390 0.961 . S
H1405 C1391 0.958 . S
H1406 C1391 0.961 . S
H1407 C1391 0.960 . S
C1408 C1409 1.391 . S
C1408 C1410 1.394 . S
C1408 H1424 0.931 . S
C1409 C1408 1.391 . S
C1409 C1413 1.376 . S
C1410 C1408 1.394 . S
C1410 C1411 1.369 . S
C1410 C1414 1.531 . S
C1411 C1410 1.369 . S
C1411 C1412 1.410 . S
C1411 C1419 1.503 1_455 S
C1412 C1411 1.410 . S
C1412 C1413 1.392 . S
C1412 C1415 1.511 1_556 S
C1413 C1409 1.376 . S
C1413 C1412 1.392 . S
C1413 H1425 0.929 1_556 S
C1414 C1410 1.531 . S
C1414 H1426 0.960 1_455 S
C1414 H1427 0.962 . S
C1414 H1428 0.960 . S
C1415 C1412 1.511 1_554 S
C1415 H1429 0.961 . S
C1415 H1430 0.961 1_455 S
C1415 H1431 0.961 . S
C1416 C1417 1.370 . S
C1416 C1418 1.363 . S
C1416 H1432 0.931 . S
C1417 C1416 1.370 . S
C1417 C1421 1.408 . S
C1418 C1416 1.363 . S
C1418 C1419 1.370 . S
C1418 C1422 1.524 . S
C1419 C1411 1.503 1_655 S
C1419 C1418 1.370 . S
C1419 C1420 1.403 . S
C1420 C1419 1.403 . S
C1420 C1421 1.404 . S
C1420 C1423 1.539 . S
C1421 C1417 1.408 . S
C1421 C1420 1.404 . S
C1421 H1433 0.930 . S
C1422 C1418 1.524 . S
C1422 H1434 0.976 . S
C1422 H1435 0.961 1_656 S
C1422 H1436 0.966 . S
C1423 C1420 1.539 . S
C1423 H1437 0.958 . S
C1423 H1438 0.961 . S
C1423 H1439 0.967 . S
H1424 C1408 0.931 . S
H1425 C1413 0.929 1_554 S
H1426 C1414 0.960 1_655 S
H1427 C1414 0.962 . S
H1428 C1414 0.960 . S
H1429 C1415 0.961 . S
H1430 C1415 0.961 1_655 S
H1431 C1415 0.961 . S
H1432 C1416 0.931 . S
H1433 C1421 0.930 . S
H1434 C1422 0.976 . S
H1435 C1422 0.961 1_454 S
H1436 C1422 0.966 . S
H1437 C1423 0.958 . S
H1438 C1423 0.961 . S
H1439 C1423 0.967 . S
C1440 C1441 1.387 . S
C1440 C1442 1.395 1_556 S
C1440 H1456 0.933 1_556 S
C1441 C1440 1.387 . S
C1441 C1445 1.376 . S
C1442 C1440 1.395 1_554 S
C1442 C1443 1.369 1_554 S
C1442 C1446 1.531 . S
C1443 C1442 1.369 1_556 S
C1443 C1444 1.410 . S
C1443 C1451 1.503 1_556 S
C1444 C1443 1.410 . S
C1444 C1445 1.392 . S
C1444 C1447 1.511 . S
C1445 C1441 1.376 . S
C1445 C1444 1.392 . S
C1445 H1457 0.929 . S
C1446 C1442 1.531 . S
C1446 H1458 0.960 . S
C1446 H1459 0.962 . S
C1446 H1460 0.960 . S
C1447 C1444 1.511 . S
C1447 H1461 0.961 . S
C1447 H1462 0.961 . S
C1447 H1463 0.961 . S
C1448 C1449 1.370 . S
C1448 C1450 1.363 . S
C1448 H1464 0.931 . S
C1449 C1448 1.370 . S
C1449 C1453 1.408 . S
C1450 C1448 1.363 . S
C1450 C1451 1.370 . S
C1450 C1454 1.524 . S
C1451 C1443 1.503 1_554 S
C1451 C1450 1.370 . S
C1451 C1452 1.403 1_554 S
C1452 C1451 1.403 1_556 S
C1452 C1453 1.404 1_556 S
C1452 C1455 1.539 . S
C1453 C1449 1.408 . S
C1453 C1452 1.404 1_554 S
C1453 H1465 0.930 1_554 S
C1454 C1450 1.524 . S
C1454 H1466 0.956 . S
C1454 H1467 0.961 . S
C1454 H1468 0.961 . S
C1455 C1452 1.539 . S
C1455 H1469 0.958 . S
C1455 H1470 0.961 . S
C1455 H1471 0.960 . S
H1456 C1440 0.933 1_554 S
H1457 C1445 0.929 . S
H1458 C1446 0.960 . S
H1459 C1446 0.962 . S
H1460 C1446 0.960 . S
H1461 C1447 0.961 . S
H1462 C1447 0.961 . S
H1463 C1447 0.961 . S
H1464 C1448 0.931 . S
H1465 C1453 0.930 1_556 S
H1466 C1454 0.956 . S
H1467 C1454 0.961 . S
H1468 C1454 0.961 . S
H1469 C1455 0.958 . S
H1470 C1455 0.961 . S
H1471 C1455 0.960 . S
C1472 C1473 1.391 . S
C1472 C1474 1.394 . S
C1472 H1488 0.931 . S
C1473 C1472 1.391 . S
C1473 C1477 1.376 . S
C1474 C1472 1.394 . S
C1474 C1475 1.369 . S
C1474 C1478 1.531 . S
C1475 C1474 1.369 . S
C1475 C1476 1.410 . S
C1475 C1483 1.503 . S
C1476 C1475 1.410 . S
C1476 C1477 1.392 . S
C1476 C1479 1.511 . S
C1477 C1473 1.376 . S
C1477 C1476 1.392 . S
C1477 H1489 0.929 . S
C1478 C1474 1.531 . S
C1478 H1490 0.960 . S
C1478 H1491 0.962 . S
C1478 H1492 0.960 . S
C1479 C1476 1.511 . S
C1479 H1493 0.961 . S
C1479 H1494 0.961 . S
C1479 H1495 0.961 . S
C1480 C1481 1.370 . S
C1480 C1482 1.363 . S
C1480 H1496 0.931 . S
C1481 C1480 1.370 . S
C1481 C1485 1.408 . S
C1482 C1480 1.363 . S
C1482 C1483 1.370 . S
C1482 C1486 1.524 . S
C1483 C1475 1.503 . S
C1483 C1482 1.370 . S
C1483 C1484 1.403 . S
C1484 C1483 1.403 . S
C1484 C1485 1.404 . S
C1484 C1487 1.539 . S
C1485 C1481 1.408 . S
C1485 C1484 1.404 . S
C1485 H1497 0.930 . S
C1486 C1482 1.524 . S
C1486 H1498 0.956 . S
C1486 H1499 0.961 . S
C1486 H1500 0.961 . S
C1487 C1484 1.539 . S
C1487 H1501 0.958 . S
C1487 H1502 0.961 . S
C1487 H1503 0.960 . S
H1488 C1472 0.931 . S
H1489 C1477 0.929 . S
H1490 C1478 0.960 . S
H1491 C1478 0.962 . S
H1492 C1478 0.960 . S
H1493 C1479 0.961 . S
H1494 C1479 0.961 . S
H1495 C1479 0.961 . S
H1496 C1480 0.931 . S
H1497 C1485 0.930 . S
H1498 C1486 0.956 . S
H1499 C1486 0.961 . S
H1500 C1486 0.961 . S
H1501 C1487 0.958 . S
H1502 C1487 0.961 . S
H1503 C1487 0.960 . S
C1504 C1505 1.391 . S
C1504 C1506 1.394 . S
C1504 H1520 0.931 . S
C1505 C1504 1.391 . S
C1505 C1509 1.376 . S
C1506 C1504 1.394 . S
C1506 C1507 1.369 . S
C1506 C1510 1.531 . S
C1507 C1506 1.369 . S
C1507 C1508 1.410 . S
C1507 C1515 1.503 . S
C1508 C1507 1.410 . S
C1508 C1509 1.392 . S
C1508 C1511 1.511 . S
C1509 C1505 1.376 . S
C1509 C1508 1.392 . S
C1509 H1521 0.929 . S
C1510 C1506 1.531 . S
C1510 H1522 0.960 . S
C1510 H1523 0.962 . S
C1510 H1524 0.960 . S
C1511 C1508 1.511 . S
C1511 H1525 0.961 . S
C1511 H1526 0.961 . S
C1511 H1527 0.961 . S
C1512 C1513 1.370 . S
C1512 C1514 1.363 . S
C1512 H1528 0.931 . S
C1513 C1512 1.370 . S
C1513 C1517 1.408 . S
C1514 C1512 1.363 . S
C1514 C1515 1.370 . S
C1514 C1518 1.524 . S
C1515 C1507 1.503 . S
C1515 C1514 1.370 . S
C1515 C1516 1.403 . S
C1516 C1515 1.403 . S
C1516 C1517 1.404 . S
C1516 C1519 1.539 . S
C1517 C1513 1.408 . S
C1517 C1516 1.404 . S
C1517 H1529 0.930 . S
C1518 C1514 1.524 . S
C1518 H1530 0.956 . S
C1518 H1531 0.961 . S
C1518 H1532 0.961 . S
C1519 C1516 1.539 . S
C1519 H1533 0.958 . S
C1519 H1534 0.961 . S
C1519 H1535 0.960 . S
H1520 C1504 0.931 . S
H1521 C1509 0.929 . S
H1522 C1510 0.960 . S
H1523 C1510 0.962 . S
H1524 C1510 0.960 . S
H1525 C1511 0.961 . S
H1526 C1511 0.961 . S
H1527 C1511 0.961 . S
H1528 C1512 0.931 . S
H1529 C1517 0.930 . S
H1530 C1518 0.956 . S
H1531 C1518 0.961 . S
H1532 C1518 0.961 . S
H1533 C1519 0.958 . S
H1534 C1519 0.961 . S
H1535 C1519 0.960 . S
C1536 C1537 1.391 . S
C1536 C1538 1.394 . S
C1536 H1552 0.931 . S
C1537 C1536 1.391 . S
C1537 C1541 1.376 . S
C1538 C1536 1.394 . S
C1538 C1539 1.369 . S
C1538 C1542 1.531 . S
C1539 C1538 1.369 . S
C1539 C1540 1.410 . S
C1539 C1547 1.503 . S
C1540 C1539 1.410 . S
C1540 C1541 1.392 . S
C1540 C1543 1.511 . S
C1541 C1537 1.376 . S
C1541 C1540 1.392 . S
C1541 H1553 0.929 . S
C1542 C1538 1.531 . S
C1542 H1554 0.960 . S
C1542 H1555 0.962 . S
C1542 H1556 0.960 . S
C1543 C1540 1.511 . S
C1543 H1557 0.961 . S
C1543 H1558 0.961 . S
C1543 H1559 0.961 . S
C1544 C1545 1.370 . S
C1544 C1546 1.363 . S
C1544 H1560 0.931 . S
C1545 C1544 1.370 . S
C1545 C1549 1.408 . S
C1546 C1544 1.363 . S
C1546 C1547 1.370 . S
C1546 C1550 1.524 . S
C1547 C1539 1.503 . S
C1547 C1546 1.370 . S
C1547 C1548 1.403 . S
C1548 C1547 1.403 . S
C1548 C1549 1.404 . S
C1548 C1551 1.539 . S
C1549 C1545 1.408 . S
C1549 C1548 1.404 . S
C1549 H1561 0.930 . S
C1550 C1546 1.524 . S
C1550 H1562 0.956 . S
C1550 H1563 0.961 . S
C1550 H1564 0.961 . S
C1551 C1548 1.539 . S
C1551 H1565 0.958 . S
C1551 H1566 0.961 . S
C1551 H1567 0.960 . S
H1552 C1536 0.931 . S
H1553 C1541 0.929 . S
H1554 C1542 0.960 . S
H1555 C1542 0.962 . S
H1556 C1542 0.960 . S
H1557 C1543 0.961 . S
H1558 C1543 0.961 . S
H1559 C1543 0.961 . S
H1560 C1544 0.931 . S
H1561 C1549 0.930 . S
H1562 C1550 0.956 . S
H1563 C1550 0.961 . S
H1564 C1550 0.961 . S
H1565 C1551 0.958 . S
H1566 C1551 0.961 . S
H1567 C1551 0.960 . S
C1568 C1569 1.391 . S
C1568 C1570 1.394 . S
C1568 H1584 0.931 . S
C1569 C1568 1.391 . S
C1569 C1573 1.376 . S
C1570 C1568 1.394 . S
C1570 C1571 1.369 . S
C1570 C1574 1.531 . S
C1571 C1570 1.369 . S
C1571 C1572 1.410 . S
C1571 C1579 1.503 1_554 S
C1572 C1571 1.410 . S
C1572 C1573 1.392 . S
C1572 C1575 1.511 . S
C1573 C1569 1.376 . S
C1573 C1572 1.392 . S
C1573 H1585 0.929 . S
C1574 C1570 1.531 . S
C1574 H1586 0.960 . S
C1574 H1587 0.962 1_554 S
C1574 H1588 0.960 . S
C1575 C1572 1.511 . S
C1575 H1589 0.961 . S
C1575 H1590 0.961 1_554 S
C1575 H1591 0.961 . S
C1576 C1577 1.370 . S
C1576 C1578 1.363 . S
C1576 H1592 0.931 . S
C1577 C1576 1.370 . S
C1577 C1581 1.408 1_556 S
C1578 C1576 1.363 . S
C1578 C1579 1.370 . S
C1578 C1582 1.524 . S
C1579 C1571 1.503 1_556 S
C1579 C1578 1.370 . S
C1579 C1580 1.403 1_556 S
C1580 C1579 1.403 1_554 S
C1580 C1581 1.404 . S
C1580 C1583 1.539 . S
C1581 C1577 1.408 1_554 S
C1581 C1580 1.404 . S
C1581 H1593 0.930 . S
C1582 C1578 1.524 . S
C1582 H1594 0.956 . S
C1582 H1595 0.961 . S
C1582 H1596 0.961 . S
C1583 C1580 1.539 . S
C1583 H1597 0.958 . S
C1583 H1598 0.961 . S
C1583 H1599 0.960 . S
H1584 C1568 0.931 . S
H1585 C1573 0.929 . S
H1586 C1574 0.960 . S
H1587 C1574 0.962 1_556 S
H1588 C1574 0.960 . S
H1589 C1575 0.961 . S
H1590 C1575 0.961 1_556 S
H1591 C1575 0.961 . S
H1592 C1576 0.931 . S
H1593 C1581 0.930 . S
H1594 C1582 0.956 . S
H1595 C1582 0.961 . S
H1596 C1582 0.961 . S
H1597 C1583 0.958 . S
H1598 C1583 0.961 . S
H1599 C1583 0.960 . S
C1600 C1601 1.391 . S
C1600 C1602 1.394 . S
C1600 H1616 0.931 . S
C1601 C1600 1.391 . S
C1601 C1605 1.376 . S
C1602 C1600 1.394 . S
C1602 C1603 1.369 . S
C1602 C1606 1.531 . S
C1603 C1602 1.369 . S
C1603 C1604 1.410 . S
C1603 C1611 1.503 . S
C1604 C1603 1.410 . S
C1604 C1605 1.392 . S
C1604 C1607 1.511 . S
C1605 C1601 1.376 . S
C1605 C1604 1.392 . S
C1605 H1617 0.929 . S
C1606 C1602 1.531 . S
C1606 H1618 0.960 . S
C1606 H1619 0.962 . S
C1606 H1620 0.960 . S
C1607 C1604 1.511 . S
C1607 H1621 0.961 . S
C1607 H1622 0.961 . S
C1607 H1623 0.961 . S
C1608 C1609 1.370 . S
C1608 C1610 1.363 . S
C1608 H1624 0.931 . S
C1609 C1608 1.370 . S
C1609 C1613 1.408 . S
C1610 C1608 1.363 . S
C1610 C1611 1.370 . S
C1610 C1614 1.524 . S
C1611 C1603 1.503 . S
C1611 C1610 1.370 . S
C1611 C1612 1.403 . S
C1612 C1611 1.403 . S
C1612 C1613 1.404 . S
C1612 C1615 1.539 . S
C1613 C1609 1.408 . S
C1613 C1612 1.404 . S
C1613 H1625 0.930 . S
C1614 C1610 1.524 . S
C1614 H1626 0.956 . S
C1614 H1627 0.961 . S
C1614 H1628 0.961 . S
C1615 C1612 1.539 . S
C1615 H1629 0.958 . S
C1615 H1630 0.961 . S
C1615 H1631 0.960 . S
H1616 C1600 0.931 . S
H1617 C1605 0.929 . S
H1618 C1606 0.960 . S
H1619 C1606 0.962 . S
H1620 C1606 0.960 . S
H1621 C1607 0.961 . S
H1622 C1607 0.961 . S
H1623 C1607 0.961 . S
H1624 C1608 0.931 . S
H1625 C1613 0.930 . S
H1626 C1614 0.956 . S
H1627 C1614 0.961 . S
H1628 C1614 0.961 . S
H1629 C1615 0.958 . S
H1630 C1615 0.961 . S
H1631 C1615 0.960 . S
C1632 C1633 1.391 . S
C1632 C1634 1.394 . S
C1632 H1648 0.931 . S
C1633 C1632 1.391 . S
C1633 C1637 1.376 . S
C1634 C1632 1.394 . S
C1634 C1635 1.369 . S
C1634 C1638 1.531 . S
C1635 C1634 1.369 . S
C1635 C1636 1.410 . S
C1635 C1643 1.503 . S
C1636 C1635 1.410 . S
C1636 C1637 1.392 . S
C1636 C1639 1.511 . S
C1637 C1633 1.376 . S
C1637 C1636 1.392 . S
C1637 H1649 0.929 . S
C1638 C1634 1.531 . S
C1638 H1650 0.960 . S
C1638 H1651 0.962 . S
C1638 H1652 0.960 . S
C1639 C1636 1.511 . S
C1639 H1653 0.961 . S
C1639 H1654 0.961 . S
C1639 H1655 0.961 . S
C1640 C1641 1.370 . S
C1640 C1642 1.363 . S
C1640 H1656 0.931 . S
C1641 C1640 1.370 . S
C1641 C1645 1.408 . S
C1642 C1640 1.363 . S
C1642 C1643 1.370 . S
C1642 C1646 1.524 . S
C1643 C1635 1.503 . S
C1643 C1642 1.370 . S
C1643 C1644 1.403 . S
C1644 C1643 1.403 . S
C1644 C1645 1.404 . S
C1644 C1647 1.539 . S
C1645 C1641 1.408 . S
C1645 C1644 1.404 . S
C1645 H1657 0.930 . S
C1646 C1642 1.524 . S
C1646 H1658 0.956 . S
C1646 H1659 0.961 . S
C1646 H1660 0.961 . S
C1647 C1644 1.539 . S
C1647 H1661 0.958 . S
C1647 H1662 0.961 . S
C1647 H1663 0.960 . S
H1648 C1632 0.931 . S
H1649 C1637 0.929 . S
H1650 C1638 0.960 . S
H1651 C1638 0.962 . S
H1652 C1638 0.960 . S
H1653 C1639 0.961 . S
H1654 C1639 0.961 . S
H1655 C1639 0.961 . S
H1656 C1640 0.931 . S
H1657 C1645 0.930 . S
H1658 C1646 0.956 . S
H1659 C1646 0.961 . S
H1660 C1646 0.961 . S
H1661 C1647 0.958 . S
H1662 C1647 0.961 . S
H1663 C1647 0.960 . S
C1664 C1665 1.391 . S
C1664 C1666 1.394 . S
C1664 H1680 0.931 . S
C1665 C1664 1.391 . S
C1665 C1669 1.376 . S
C1666 C1664 1.394 . S
C1666 C1667 1.369 . S
C1666 C1670 1.531 . S
C1667 C1666 1.369 . S
C1667 C1668 1.410 . S
C1667 C1675 1.503 . S
C1668 C1667 1.410 . S
C1668 C1669 1.392 . S
C1668 C1671 1.511 . S
C1669 C1665 1.376 . S
C1669 C1668 1.392 . S
C1669 H1681 0.929 . S
C1670 C1666 1.531 . S
C1670 H1682 0.960 . S
C1670 H1683 0.962 . S
C1670 H1684 0.960 . S
C1671 C1668 1.511 . S
C1671 H1685 0.961 . S
C1671 H1686 0.961 . S
C1671 H1687 0.961 . S
C1672 C1673 1.370 . S
C1672 C1674 1.363 . S
C1672 H1688 0.931 . S
C1673 C1672 1.370 . S
C1673 C1677 1.408 . S
C1674 C1672 1.363 . S
C1674 C1675 1.370 . S
C1674 C1678 1.524 . S
C1675 C1667 1.503 . S
C1675 C1674 1.370 . S
C1675 C1676 1.403 . S
C1676 C1675 1.403 . S
C1676 C1677 1.404 . S
C1676 C1679 1.539 . S
C1677 C1673 1.408 . S
C1677 C1676 1.404 . S
C1677 H1689 0.930 . S
C1678 C1674 1.524 . S
C1678 H1690 0.956 . S
C1678 H1691 0.961 . S
C1678 H1692 0.961 . S
C1679 C1676 1.539 . S
C1679 H1693 0.958 . S
C1679 H1694 0.961 . S
C1679 H1695 0.960 . S
H1680 C1664 0.931 . S
H1681 C1669 0.929 . S
H1682 C1670 0.960 . S
H1683 C1670 0.962 . S
H1684 C1670 0.960 . S
H1685 C1671 0.961 . S
H1686 C1671 0.961 . S
H1687 C1671 0.961 . S
H1688 C1672 0.931 . S
H1689 C1677 0.930 . S
H1690 C1678 0.956 . S
H1691 C1678 0.961 . S
H1692 C1678 0.961 . S
H1693 C1679 0.958 . S
H1694 C1679 0.961 . S
H1695 C1679 0.960 . S
C1696 C1697 1.391 . S
C1696 C1698 1.394 . S
C1696 H1712 0.931 . S
C1697 C1696 1.391 . S
C1697 C1701 1.376 . S
C1698 C1696 1.394 . S
C1698 C1699 1.369 . S
C1698 C1702 1.531 . S
C1699 C1698 1.369 . S
C1699 C1700 1.410 . S
C1699 C1707 1.503 1_545 S
C1700 C1699 1.410 . S
C1700 C1701 1.392 . S
C1700 C1703 1.499 1_545 S
C1701 C1697 1.376 . S
C1701 C1700 1.392 . S
C1701 H1713 0.929 . S
C1702 C1698 1.531 . S
C1702 H1714 0.960 . S
C1702 H1715 0.962 . S
C1702 H1716 0.960 . S
C1703 C1700 1.499 1_565 S
C1703 H1717 0.956 1_565 S
C1703 H1718 0.976 . S
C1703 H1719 0.963 . S
C1704 C1705 1.370 . S
C1704 C1706 1.363 . S
C1704 H1720 0.931 . S
C1705 C1704 1.370 . S
C1705 C1709 1.408 . S
C1706 C1704 1.363 . S
C1706 C1707 1.370 . S
C1706 C1710 1.524 . S
C1707 C1699 1.503 1_565 S
C1707 C1706 1.370 . S
C1707 C1708 1.403 . S
C1708 C1707 1.403 . S
C1708 C1709 1.404 . S
C1708 C1711 1.539 . S
C1709 C1705 1.408 . S
C1709 C1708 1.404 . S
C1709 H1721 0.930 . S
C1710 C1706 1.524 . S
C1710 H1722 0.959 1_565 S
C1710 H1723 0.961 . S
C1710 H1724 0.961 . S
C1711 C1708 1.539 . S
C1711 H1725 0.958 . S
C1711 H1726 0.961 . S
C1711 H1727 0.933 1_565 S
H1712 C1696 0.931 . S
H1713 C1701 0.929 . S
H1714 C1702 0.960 . S
H1715 C1702 0.962 . S
H1716 C1702 0.960 . S
H1717 C1703 0.956 1_545 S
H1718 C1703 0.976 . S
H1719 C1703 0.963 . S
H1720 C1704 0.931 . S
H1721 C1709 0.930 . S
H1722 C1710 0.959 1_545 S
H1723 C1710 0.961 . S
H1724 C1710 0.961 . S
H1725 C1711 0.958 . S
H1726 C1711 0.961 . S
H1727 C1711 0.933 1_545 S
C1728 C1729 1.391 . S
C1728 C1730 1.394 . S
C1728 H1744 0.931 . S
C1729 C1728 1.391 . S
C1729 C1733 1.376 . S
C1730 C1728 1.394 . S
C1730 C1731 1.369 . S
C1730 C1734 1.531 . S
C1731 C1730 1.369 . S
C1731 C1732 1.410 . S
C1731 C1739 1.503 . S
C1732 C1731 1.410 . S
C1732 C1733 1.392 . S
C1732 C1735 1.511 . S
C1733 C1729 1.376 . S
C1733 C1732 1.392 . S
C1733 H1745 0.929 . S
C1734 C1730 1.531 . S
C1734 H1746 0.960 . S
C1734 H1747 0.962 . S
C1734 H1748 0.960 . S
C1735 C1732 1.511 . S
C1735 H1749 0.961 . S
C1735 H1750 0.961 . S
C1735 H1751 0.961 . S
C1736 C1737 1.370 . S
C1736 C1738 1.363 . S
C1736 H1752 0.931 . S
C1737 C1736 1.370 . S
C1737 C1741 1.408 . S
C1738 C1736 1.363 . S
C1738 C1739 1.370 . S
C1738 C1742 1.524 . S
C1739 C1731 1.503 . S
C1739 C1738 1.370 . S
C1739 C1740 1.403 . S
C1740 C1739 1.403 . S
C1740 C1741 1.404 . S
C1740 C1743 1.539 . S
C1741 C1737 1.408 . S
C1741 C1740 1.404 . S
C1741 H1753 0.930 . S
C1742 C1738 1.524 . S
C1742 H1754 0.956 . S
C1742 H1755 0.961 . S
C1742 H1756 0.961 . S
C1743 C1740 1.539 . S
C1743 H1757 0.958 . S
C1743 H1758 0.961 . S
C1743 H1759 0.960 . S
H1744 C1728 0.931 . S
H1745 C1733 0.929 . S
H1746 C1734 0.960 . S
H1747 C1734 0.962 . S
H1748 C1734 0.960 . S
H1749 C1735 0.961 . S
H1750 C1735 0.961 . S
H1751 C1735 0.961 . S
H1752 C1736 0.931 . S
H1753 C1741 0.930 . S
H1754 C1742 0.956 . S
H1755 C1742 0.961 . S
H1756 C1742 0.961 . S
H1757 C1743 0.958 . S
H1758 C1743 0.961 . S
H1759 C1743 0.960 . S
C1760 C1761 1.380 1_556 S
C1760 C1762 1.399 . S
C1760 H1776 0.936 . S
C1761 C1760 1.380 1_554 S
C1761 C1765 1.376 . S
C1762 C1760 1.399 . S
C1762 C1763 1.374 . S
C1762 C1766 1.531 . S
C1763 C1762 1.374 . S
C1763 C1764 1.400 1_556 S
C1763 C1771 1.507 1_565 S
C1764 C1763 1.400 1_554 S
C1764 C1765 1.392 . S
C1764 C1767 1.511 . S
C1765 C1761 1.376 . S
C1765 C1764 1.392 . S
C1765 H1777 0.929 . S
C1766 C1762 1.531 . S
C1766 H1778 0.960 . S
C1766 H1779 0.962 . S
C1766 H1780 0.960 . S
C1767 C1764 1.511 . S
C1767 H1781 0.961 . S
C1767 H1782 0.961 1_565 S
C1767 H1783 0.961 . S
C1768 C1769 1.385 . S
C1768 C1770 1.358 1_556 S
C1768 H1784 0.921 1_556 S
C1769 C1768 1.385 . S
C1769 C1773 1.408 . S
C1770 C1768 1.358 1_554 S
C1770 C1771 1.370 1_554 S
C1770 C1774 1.524 . S
C1771 C1763 1.507 1_545 S
C1771 C1770 1.370 1_556 S
C1771 C1772 1.403 . S
C1772 C1771 1.403 . S
C1772 C1773 1.404 . S
C1772 C1775 1.539 . S
C1773 C1769 1.408 . S
C1773 C1772 1.404 . S
C1773 H1785 0.930 . S
C1774 C1770 1.524 . S
C1774 H1786 0.956 . S
C1774 H1787 0.961 . S
C1774 H1788 0.961 . S
C1775 C1772 1.539 . S
C1775 H1789 0.958 1_545 S
C1775 H1790 0.961 . S
C1775 H1791 0.960 1_545 S
H1776 C1760 0.936 . S
H1777 C1765 0.929 . S
H1778 C1766 0.960 . S
H1779 C1766 0.962 . S
H1780 C1766 0.960 . S
H1781 C1767 0.961 . S
H1782 C1767 0.961 1_545 S
H1783 C1767 0.961 . S
H1784 C1768 0.921 1_554 S
H1785 C1773 0.930 . S
H1786 C1774 0.956 . S
H1787 C1774 0.961 . S
H1788 C1774 0.961 . S
H1789 C1775 0.958 1_565 S
H1790 C1775 0.961 . S
H1791 C1775 0.960 1_565 S
C1792 C1793 1.391 . S
C1792 C1794 1.394 . S
C1792 H1808 0.931 . S
C1793 C1792 1.391 . S
C1793 C1797 1.376 . S
C1794 C1792 1.394 . S
C1794 C1795 1.369 . S
C1794 C1798 1.531 . S
C1795 C1794 1.369 . S
C1795 C1796 1.410 . S
C1795 C1803 1.503 . S
C1796 C1795 1.410 . S
C1796 C1797 1.392 . S
C1796 C1799 1.511 . S
C1797 C1793 1.376 . S
C1797 C1796 1.392 . S
C1797 H1809 0.929 . S
C1798 C1794 1.531 . S
C1798 H1810 0.960 . S
C1798 H1811 0.962 . S
C1798 H1812 0.960 . S
C1799 C1796 1.511 . S
C1799 H1813 0.961 . S
C1799 H1814 0.961 . S
C1799 H1815 0.961 . S
C1800 C1801 1.370 . S
C1800 C1802 1.363 . S
C1800 H1816 0.931 . S
C1801 C1800 1.370 . S
C1801 C1805 1.408 . S
C1802 C1800 1.363 . S
C1802 C1803 1.370 . S
C1802 C1806 1.524 . S
C1803 C1795 1.503 . S
C1803 C1802 1.370 . S
C1803 C1804 1.403 . S
C1804 C1803 1.403 . S
C1804 C1805 1.404 . S
C1804 C1807 1.539 . S
C1805 C1801 1.408 . S
C1805 C1804 1.404 . S
C1805 H1817 0.930 . S
C1806 C1802 1.524 . S
C1806 H1818 0.956 . S
C1806 H1819 0.961 . S
C1806 H1820 0.961 . S
C1807 C1804 1.539 . S
C1807 H1821 0.958 . S
C1807 H1822 0.961 . S
C1807 H1823 0.960 . S
H1808 C1792 0.931 . S
H1809 C1797 0.929 . S
H1810 C1798 0.960 . S
H1811 C1798 0.962 . S
H1812 C1798 0.960 . S
H1813 C1799 0.961 . S
H1814 C1799 0.961 . S
H1815 C1799 0.961 . S
H1816 C1800 0.931 . S
H1817 C1805 0.930 . S
H1818 C1806 0.956 . S
H1819 C1806 0.961 . S
H1820 C1806 0.961 . S
H1821 C1807 0.958 . S
H1822 C1807 0.961 . S
H1823 C1807 0.960 . S
C1824 C1825 1.391 . S
C1824 C1826 1.394 . S
C1824 H1840 0.931 . S
C1825 C1824 1.391 . S
C1825 C1829 1.376 . S
C1826 C1824 1.394 . S
C1826 C1827 1.369 . S
C1826 C1830 1.531 1_545 S
C1827 C1826 1.369 . S
C1827 C1828 1.410 . S
C1827 C1835 1.503 1_545 S
C1828 C1827 1.410 . S
C1828 C1829 1.392 . S
C1828 C1831 1.511 . S
C1829 C1825 1.376 . S
C1829 C1828 1.392 . S
C1829 H1841 0.929 . S
C1830 C1826 1.531 1_565 S
C1830 H1842 0.960 . S
C1830 H1843 0.962 . S
C1830 H1844 0.960 1_565 S
C1831 C1828 1.511 . S
C1831 H1845 0.961 . S
C1831 H1846 0.961 . S
C1831 H1847 0.961 . S
C1832 C1833 1.370 . S
C1832 C1834 1.363 . S
C1832 H1848 0.931 . S
C1833 C1832 1.370 . S
C1833 C1837 1.408 . S
C1834 C1832 1.363 . S
C1834 C1835 1.370 . S
C1834 C1838 1.524 . S
C1835 C1827 1.503 1_565 S
C1835 C1834 1.370 . S
C1835 C1836 1.403 . S
C1836 C1835 1.403 . S
C1836 C1837 1.404 . S
C1836 C1839 1.539 . S
C1837 C1833 1.408 . S
C1837 C1836 1.404 . S
C1837 H1849 0.930 . S
C1838 C1834 1.524 . S
C1838 H1850 0.956 . S
C1838 H1851 0.961 1_565 S
C1838 H1852 0.961 . S
C1839 C1836 1.539 . S
C1839 H1853 0.958 . S
C1839 H1854 0.961 . S
C1839 H1855 1.006 . S
H1840 C1824 0.931 . S
H1841 C1829 0.929 . S
H1842 C1830 0.960 . S
H1843 C1830 0.962 . S
H1844 C1830 0.960 1_545 S
H1845 C1831 0.961 . S
H1846 C1831 0.961 . S
H1847 C1831 0.961 . S
H1848 C1832 0.931 . S
H1849 C1837 0.930 . S
H1850 C1838 0.956 . S
H1851 C1838 0.961 1_545 S
H1852 C1838 0.961 . S
H1853 C1839 0.958 . S
H1854 C1839 0.961 . S
H1855 C1839 1.006 . S
C1856 C1857 1.391 . S
C1856 C1858 1.394 . S
C1856 H1872 0.931 . S
C1857 C1856 1.391 . S
C1857 C1861 1.376 . S
C1858 C1856 1.394 . S
C1858 C1859 1.369 . S
C1858 C1862 1.531 . S
C1859 C1858 1.369 . S
C1859 C1860 1.410 . S
C1859 C1867 1.503 . S
C1860 C1859 1.410 . S
C1860 C1861 1.392 . S
C1860 C1863 1.511 . S
C1861 C1857 1.376 . S
C1861 C1860 1.392 . S
C1861 H1873 0.929 . S
C1862 C1858 1.531 . S
C1862 H1874 0.960 . S
C1862 H1875 0.962 . S
C1862 H1876 0.960 . S
C1863 C1860 1.511 . S
C1863 H1877 0.961 . S
C1863 H1878 0.961 . S
C1863 H1879 0.961 . S
C1864 C1865 1.370 . S
C1864 C1866 1.363 . S
C1864 H1880 0.931 . S
C1865 C1864 1.370 . S
C1865 C1869 1.408 . S
C1866 C1864 1.363 . S
C1866 C1867 1.370 . S
C1866 C1870 1.524 . S
C1867 C1859 1.503 . S
C1867 C1866 1.370 . S
C1867 C1868 1.403 . S
C1868 C1867 1.403 . S
C1868 C1869 1.404 . S
C1868 C1871 1.539 . S
C1869 C1865 1.408 . S
C1869 C1868 1.404 . S
C1869 H1881 0.930 . S
C1870 C1866 1.524 . S
C1870 H1882 0.956 . S
C1870 H1883 0.961 . S
C1870 H1884 0.961 . S
C1871 C1868 1.539 . S
C1871 H1885 0.958 . S
C1871 H1886 0.961 . S
C1871 H1887 0.960 . S
H1872 C1856 0.931 . S
H1873 C1861 0.929 . S
H1874 C1862 0.960 . S
H1875 C1862 0.962 . S
H1876 C1862 0.960 . S
H1877 C1863 0.961 . S
H1878 C1863 0.961 . S
H1879 C1863 0.961 . S
H1880 C1864 0.931 . S
H1881 C1869 0.930 . S
H1882 C1870 0.956 . S
H1883 C1870 0.961 . S
H1884 C1870 0.961 . S
H1885 C1871 0.958 . S
H1886 C1871 0.961 . S
H1887 C1871 0.960 . S
C1888 C1889 1.391 1_556 S
C1888 C1890 1.394 . S
C1888 H1904 0.931 . S
C1889 C1888 1.391 1_554 S
C1889 C1893 1.376 . S
C1890 C1888 1.394 . S
C1890 C1891 1.367 1_556 S
C1890 C1894 1.531 . S
C1891 C1890 1.367 1_554 S
C1891 C1892 1.413 . S
C1891 C1899 1.502 1_564 S
C1892 C1891 1.413 . S
C1892 C1893 1.392 . S
C1892 C1895 1.511 . S
C1893 C1889 1.376 . S
C1893 C1892 1.392 . S
C1893 H1905 0.929 . S
C1894 C1890 1.531 . S
C1894 H1906 0.960 . S
C1894 H1907 0.962 . S
C1894 H1908 0.960 . S
C1895 C1892 1.511 . S
C1895 H1909 0.961 . S
C1895 H1910 0.961 1_565 S
C1895 H1911 0.961 . S
C1896 C1897 1.370 . S
C1896 C1898 1.363 1_556 S
C1896 H1912 0.931 1_556 S
C1897 C1896 1.370 . S
C1897 C1901 1.408 . S
C1898 C1896 1.363 1_554 S
C1898 C1899 1.370 1_554 S
C1898 C1902 1.524 . S
C1899 C1891 1.502 1_546 S
C1899 C1898 1.370 1_556 S
C1899 C1900 1.403 . S
C1900 C1899 1.403 . S
C1900 C1901 1.404 . S
C1900 C1903 1.539 . S
C1901 C1897 1.408 . S
C1901 C1900 1.404 . S
C1901 H1913 0.930 . S
C1902 C1898 1.524 . S
C1902 H1914 0.956 . S
C1902 H1915 0.961 . S
C1902 H1916 0.961 . S
C1903 C1900 1.539 . S
C1903 H1917 0.958 1_545 S
C1903 H1918 0.961 . S
C1903 H1919 0.960 1_545 S
H1904 C1888 0.931 . S
H1905 C1893 0.929 . S
H1906 C1894 0.960 . S
H1907 C1894 0.962 . S
H1908 C1894 0.960 . S
H1909 C1895 0.961 . S
H1910 C1895 0.961 1_545 S
H1911 C1895 0.961 . S
H1912 C1896 0.931 1_554 S
H1913 C1901 0.930 . S
H1914 C1902 0.956 . S
H1915 C1902 0.961 . S
H1916 C1902 0.961 . S
H1917 C1903 0.958 1_565 S
H1918 C1903 0.961 . S
H1919 C1903 0.960 1_565 S
C1920 C1921 1.391 . S
C1920 C1922 1.394 . S
C1920 H1936 0.931 . S
C1921 C1920 1.391 . S
C1921 C1925 1.376 . S
C1922 C1920 1.394 . S
C1922 C1923 1.369 . S
C1922 C1926 1.531 . S
C1923 C1922 1.369 . S
C1923 C1924 1.410 . S
C1923 C1931 1.503 . S
C1924 C1923 1.410 . S
C1924 C1925 1.392 . S
C1924 C1927 1.511 . S
C1925 C1921 1.376 . S
C1925 C1924 1.392 . S
C1925 H1937 0.929 . S
C1926 C1922 1.531 . S
C1926 H1938 0.960 . S
C1926 H1939 0.962 . S
C1926 H1940 0.960 . S
C1927 C1924 1.511 . S
C1927 H1941 0.961 . S
C1927 H1942 0.961 . S
C1927 H1943 0.961 . S
C1928 C1929 1.370 . S
C1928 C1930 1.363 . S
C1928 H1944 0.931 . S
C1929 C1928 1.370 . S
C1929 C1933 1.408 . S
C1930 C1928 1.363 . S
C1930 C1931 1.370 . S
C1930 C1934 1.524 . S
C1931 C1923 1.503 . S
C1931 C1930 1.370 . S
C1931 C1932 1.403 . S
C1932 C1931 1.403 . S
C1932 C1933 1.404 . S
C1932 C1935 1.539 . S
C1933 C1929 1.408 . S
C1933 C1932 1.404 . S
C1933 H1945 0.930 . S
C1934 C1930 1.524 . S
C1934 H1946 0.956 . S
C1934 H1947 0.961 . S
C1934 H1948 0.961 . S
C1935 C1932 1.539 . S
C1935 H1949 0.958 . S
C1935 H1950 0.961 . S
C1935 H1951 0.960 . S
H1936 C1920 0.931 . S
H1937 C1925 0.929 . S
H1938 C1926 0.960 . S
H1939 C1926 0.962 . S
H1940 C1926 0.960 . S
H1941 C1927 0.961 . S
H1942 C1927 0.961 . S
H1943 C1927 0.961 . S
H1944 C1928 0.931 . S
H1945 C1933 0.930 . S
H1946 C1934 0.956 . S
H1947 C1934 0.961 . S
H1948 C1934 0.961 . S
H1949 C1935 0.958 . S
H1950 C1935 0.961 . S
H1951 C1935 0.960 . S
C1952 C1953 1.391 . S
C1952 C1954 1.394 . S
C1952 H1968 0.931 . S
C1953 C1952 1.391 . S
C1953 C1957 1.376 . S
C1954 C1952 1.394 . S
C1954 C1955 1.369 . S
C1954 C1958 1.531 . S
C1955 C1954 1.369 . S
C1955 C1956 1.410 . S
C1955 C1963 1.503 . S
C1956 C1955 1.410 . S
C1956 C1957 1.392 . S
C1956 C1959 1.511 . S
C1957 C1953 1.376 . S
C1957 C1956 1.392 . S
C1957 H1969 0.929 . S
C1958 C1954 1.531 . S
C1958 H1970 0.960 . S
C1958 H1971 0.962 . S
C1958 H1972 0.960 . S
C1959 C1956 1.511 . S
C1959 H1973 0.961 . S
C1959 H1974 0.961 . S
C1959 H1975 0.961 . S
C1960 C1961 1.370 . S
C1960 C1962 1.363 . S
C1960 H1976 0.931 . S
C1961 C1960 1.370 . S
C1961 C1965 1.408 . S
C1962 C1960 1.363 . S
C1962 C1963 1.370 . S
C1962 C1966 1.524 . S
C1963 C1955 1.503 . S
C1963 C1962 1.370 . S
C1963 C1964 1.403 . S
C1964 C1963 1.403 . S
C1964 C1965 1.404 . S
C1964 C1967 1.539 1_554 S
C1965 C1961 1.408 . S
C1965 C1964 1.404 . S
C1965 H1977 0.930 . S
C1966 C1962 1.524 . S
C1966 H1978 0.956 . S
C1966 H1979 0.961 . S
C1966 H1980 0.961 . S
C1967 C1964 1.539 1_556 S
C1967 H1981 0.958 . S
C1967 H1982 0.961 . S
C1967 H1983 0.957 1_556 S
H1968 C1952 0.931 . S
H1969 C1957 0.929 . S
H1970 C1958 0.960 . S
H1971 C1958 0.962 . S
H1972 C1958 0.960 . S
H1973 C1959 0.961 . S
H1974 C1959 0.961 . S
H1975 C1959 0.961 . S
H1976 C1960 0.931 . S
H1977 C1965 0.930 . S
H1978 C1966 0.956 . S
H1979 C1966 0.961 . S
H1980 C1966 0.961 . S
H1981 C1967 0.958 . S
H1982 C1967 0.961 . S
H1983 C1967 0.957 1_554 S
C1984 C1985 1.391 . S
C1984 C1986 1.394 . S
C1984 H2000 0.931 . S
C1985 C1984 1.391 . S
C1985 C1989 1.376 . S
C1986 C1984 1.394 . S
C1986 C1987 1.369 . S
C1986 C1990 1.531 . S
C1987 C1986 1.369 . S
C1987 C1988 1.410 . S
C1987 C1995 1.503 . S
C1988 C1987 1.410 . S
C1988 C1989 1.392 . S
C1988 C1991 1.511 . S
C1989 C1985 1.376 . S
C1989 C1988 1.392 . S
C1989 H2001 0.929 . S
C1990 C1986 1.531 . S
C1990 H2002 0.960 . S
C1990 H2003 0.962 . S
C1990 H2004 0.960 . S
C1991 C1988 1.511 . S
C1991 H2005 0.961 . S
C1991 H2006 0.961 . S
C1991 H2007 0.961 . S
C1992 C1993 1.370 . S
C1992 C1994 1.363 . S
C1992 H2008 0.931 . S
C1993 C1992 1.370 . S
C1993 C1997 1.408 . S
C1994 C1992 1.363 . S
C1994 C1995 1.370 . S
C1994 C1998 1.524 . S
C1995 C1987 1.503 . S
C1995 C1994 1.370 . S
C1995 C1996 1.403 . S
C1996 C1995 1.403 . S
C1996 C1997 1.404 . S
C1996 C1999 1.539 . S
C1997 C1993 1.408 . S
C1997 C1996 1.404 . S
C1997 H2009 0.930 . S
C1998 C1994 1.524 . S
C1998 H2010 0.956 . S
C1998 H2011 0.961 . S
C1998 H2012 0.961 . S
C1999 C1996 1.539 . S
C1999 H2013 0.958 . S
C1999 H2014 0.961 . S
C1999 H2015 0.960 . S
H2000 C1984 0.931 . S
H2001 C1989 0.929 . S
H2002 C1990 0.960 . S
H2003 C1990 0.962 . S
H2004 C1990 0.960 . S
H2005 C1991 0.961 . S
H2006 C1991 0.961 . S
H2007 C1991 0.961 . S
H2008 C1992 0.931 . S
H2009 C1997 0.930 . S
H2010 C1998 0.956 . S
H2011 C1998 0.961 . S
H2012 C1998 0.961 . S
H2013 C1999 0.958 . S
H2014 C1999 0.961 . S
H2015 C1999 0.960 . S
C2016 C2017 1.391 . S
C2016 C2018 1.394 . S
C2016 H2032 0.931 . S
C2017 C2016 1.391 . S
C2017 C2021 1.376 . S
C2018 C2016 1.394 . S
C2018 C2019 1.369 . S
C2018 C2022 1.531 . S
C2019 C2018 1.369 . S
C2019 C2020 1.410 . S
C2019 C2027 1.503 . S
C2020 C2019 1.410 . S
C2020 C2021 1.392 . S
C2020 C2023 1.511 . S
C2021 C2017 1.376 . S
C2021 C2020 1.392 . S
C2021 H2033 0.929 . S
C2022 C2018 1.531 . S
C2022 H2034 0.960 . S
C2022 H2035 0.962 . S
C2022 H2036 0.960 . S
C2023 C2020 1.511 . S
C2023 H2037 0.961 . S
C2023 H2038 0.961 . S
C2023 H2039 0.961 . S
C2024 C2025 1.370 . S
C2024 C2026 1.363 . S
C2024 H2040 0.931 . S
C2025 C2024 1.370 . S
C2025 C2029 1.408 . S
C2026 C2024 1.363 . S
C2026 C2027 1.370 . S
C2026 C2030 1.524 . S
C2027 C2019 1.503 . S
C2027 C2026 1.370 . S
C2027 C2028 1.403 . S
C2028 C2027 1.403 . S
C2028 C2029 1.404 . S
C2028 C2031 1.539 . S
C2029 C2025 1.408 . S
C2029 C2028 1.404 . S
C2029 H2041 0.930 . S
C2030 C2026 1.524 . S
C2030 H2042 0.956 . S
C2030 H2043 0.961 . S
C2030 H2044 0.961 . S
C2031 C2028 1.539 . S
C2031 H2045 0.958 . S
C2031 H2046 0.961 . S
C2031 H2047 0.960 . S
H2032 C2016 0.931 . S
H2033 C2021 0.929 . S
H2034 C2022 0.960 . S
H2035 C2022 0.962 . S
H2036 C2022 0.960 . S
H2037 C2023 0.961 . S
H2038 C2023 0.961 . S
H2039 C2023 0.961 . S
H2040 C2024 0.931 . S
H2041 C2029 0.930 . S
H2042 C2030 0.956 . S
H2043 C2030 0.961 . S
H2044 C2030 0.961 . S
H2045 C2031 0.958 . S
H2046 C2031 0.961 . S
H2047 C2031 0.960 . S
C2048 C2049 1.391 . S
C2048 C2050 1.394 . S
C2048 H2064 0.931 . S
C2049 C2048 1.391 . S
C2049 C2053 1.376 . S
C2050 C2048 1.394 . S
C2050 C2051 1.369 . S
C2050 C2054 1.531 . S
C2051 C2050 1.369 . S
C2051 C2052 1.410 . S
C2051 C2059 1.503 1_655 S
C2052 C2051 1.410 . S
C2052 C2053 1.392 . S
C2052 C2055 1.511 . S
C2053 C2049 1.376 . S
C2053 C2052 1.392 . S
C2053 H2065 0.929 . S
C2054 C2050 1.531 . S
C2054 H2066 0.960 1_655 S
C2054 H2067 0.962 . S
C2054 H2068 0.960 . S
C2055 C2052 1.511 . S
C2055 H2069 0.961 . S
C2055 H2070 0.961 1_655 S
C2055 H2071 0.961 . S
C2056 C2057 1.370 . S
C2056 C2058 1.363 . S
C2056 H2072 0.931 . S
C2057 C2056 1.370 . S
C2057 C2061 1.408 . S
C2058 C2056 1.363 . S
C2058 C2059 1.370 . S
C2058 C2062 1.524 . S
C2059 C2051 1.503 1_455 S
C2059 C2058 1.370 . S
C2059 C2060 1.403 . S
C2060 C2059 1.403 . S
C2060 C2061 1.404 . S
C2060 C2063 1.539 . S
C2061 C2057 1.408 . S
C2061 C2060 1.404 . S
C2061 H2073 0.930 . S
C2062 C2058 1.524 . S
C2062 H2074 0.979 . S
C2062 H2075 0.961 1_455 S
C2062 H2076 0.961 . S
C2063 C2060 1.539 . S
C2063 H2077 0.958 . S
C2063 H2078 0.961 . S
C2063 H2079 0.972 . S
H2064 C2048 0.931 . S
H2065 C2053 0.929 . S
H2066 C2054 0.960 1_455 S
H2067 C2054 0.962 . S
H2068 C2054 0.960 . S
H2069 C2055 0.961 . S
H2070 C2055 0.961 1_455 S
H2071 C2055 0.961 . S
H2072 C2056 0.931 . S
H2073 C2061 0.930 . S
H2074 C2062 0.979 . S
H2075 C2062 0.961 1_655 S
H2076 C2062 0.961 . S
H2077 C2063 0.958 . S
H2078 C2063 0.961 . S
H2079 C2063 0.972 . S
C2080 C2081 1.391 . S
C2080 C2082 1.394 . S
C2080 H2096 0.931 . S
C2081 C2080 1.391 . S
C2081 C2085 1.376 . S
C2082 C2080 1.394 . S
C2082 C2083 1.369 . S
C2082 C2086 1.531 . S
C2083 C2082 1.369 . S
C2083 C2084 1.410 . S
C2083 C2091 1.503 . S
C2084 C2083 1.410 . S
C2084 C2085 1.392 . S
C2084 C2087 1.511 . S
C2085 C2081 1.376 . S
C2085 C2084 1.392 . S
C2085 H2097 0.929 . S
C2086 C2082 1.531 . S
C2086 H2098 0.960 . S
C2086 H2099 0.962 . S
C2086 H2100 0.960 . S
C2087 C2084 1.511 . S
C2087 H2101 0.961 . S
C2087 H2102 0.961 . S
C2087 H2103 0.961 . S
C2088 C2089 1.370 . S
C2088 C2090 1.363 . S
C2088 H2104 0.931 . S
C2089 C2088 1.370 . S
C2089 C2093 1.408 . S
C2090 C2088 1.363 . S
C2090 C2091 1.370 . S
C2090 C2094 1.576 . S
C2091 C2083 1.503 . S
C2091 C2090 1.370 . S
C2091 C2092 1.403 . S
C2092 C2091 1.403 . S
C2092 C2093 1.404 . S
C2092 C2095 1.539 . S
C2093 C2089 1.408 . S
C2093 C2092 1.404 . S
C2093 H2105 0.930 . S
C2094 C2090 1.576 . S
C2094 H2106 0.946 1_556 S
C2094 H2107 0.970 . S
C2094 H2108 0.914 1_556 S
C2095 C2092 1.539 . S
C2095 H2109 0.958 . S
C2095 H2110 0.961 . S
C2095 H2111 0.960 . S
H2096 C2080 0.931 . S
H2097 C2085 0.929 . S
H2098 C2086 0.960 . S
H2099 C2086 0.962 . S
H2100 C2086 0.960 . S
H2101 C2087 0.961 . S
H2102 C2087 0.961 . S
H2103 C2087 0.961 . S
H2104 C2088 0.931 . S
H2105 C2093 0.930 . S
H2106 C2094 0.946 1_554 S
H2107 C2094 0.970 . S
H2108 C2094 0.914 1_554 S
H2109 C2095 0.958 . S
H2110 C2095 0.961 . S
H2111 C2095 0.960 . S
C2112 C2113 1.391 . S
C2112 C2114 1.394 . S
C2112 H2128 0.931 . S
C2113 C2112 1.391 . S
C2113 C2117 1.376 . S
C2114 C2112 1.394 . S
C2114 C2115 1.369 . S
C2114 C2118 1.531 . S
C2115 C2114 1.369 . S
C2115 C2116 1.410 . S
C2115 C2123 1.503 1_655 S
C2116 C2115 1.410 . S
C2116 C2117 1.392 . S
C2116 C2119 1.511 . S
C2117 C2113 1.376 . S
C2117 C2116 1.392 . S
C2117 H2129 0.929 . S
C2118 C2114 1.531 . S
C2118 H2130 0.960 1_655 S
C2118 H2131 0.962 . S
C2118 H2132 0.960 . S
C2119 C2116 1.511 . S
C2119 H2133 0.961 . S
C2119 H2134 0.961 1_655 S
C2119 H2135 0.961 . S
C2120 C2121 1.370 . S
C2120 C2122 1.363 . S
C2120 H2136 0.931 . S
C2121 C2120 1.370 . S
C2121 C2125 1.408 . S
C2122 C2120 1.363 . S
C2122 C2123 1.370 . S
C2122 C2126 1.524 . S
C2123 C2115 1.503 1_455 S
C2123 C2122 1.370 . S
C2123 C2124 1.403 . S
C2124 C2123 1.403 . S
C2124 C2125 1.404 . S
C2124 C2127 1.539 . S
C2125 C2121 1.408 . S
C2125 C2124 1.404 . S
C2125 H2137 0.930 . S
C2126 C2122 1.524 . S
C2126 H2138 0.982 . S
C2126 H2139 0.961 1_455 S
C2126 H2140 0.961 . S
C2127 C2124 1.539 . S
C2127 H2141 0.958 . S
C2127 H2142 0.961 . S
C2127 H2143 0.966 . S
H2128 C2112 0.931 . S
H2129 C2117 0.929 . S
H2130 C2118 0.960 1_455 S
H2131 C2118 0.962 . S
H2132 C2118 0.960 . S
H2133 C2119 0.961 . S
H2134 C2119 0.961 1_455 S
H2135 C2119 0.961 . S
H2136 C2120 0.931 . S
H2137 C2125 0.930 . S
H2138 C2126 0.982 . S
H2139 C2126 0.961 1_655 S
H2140 C2126 0.961 . S
H2141 C2127 0.958 . S
H2142 C2127 0.961 . S
H2143 C2127 0.966 . S
C2144 C2145 1.391 . S
C2144 C2146 1.394 . S
C2144 H2160 0.931 . S
C2145 C2144 1.391 . S
C2145 C2149 1.376 . S
C2146 C2144 1.394 . S
C2146 C2147 1.369 . S
C2146 C2150 1.531 . S
C2147 C2146 1.369 . S
C2147 C2148 1.410 . S
C2147 C2155 1.503 . S
C2148 C2147 1.410 . S
C2148 C2149 1.392 . S
C2148 C2151 1.511 . S
C2149 C2145 1.376 . S
C2149 C2148 1.392 . S
C2149 H2161 0.929 . S
C2150 C2146 1.531 . S
C2150 H2162 0.960 . S
C2150 H2163 0.962 . S
C2150 H2164 0.960 . S
C2151 C2148 1.511 . S
C2151 H2165 0.961 . S
C2151 H2166 0.961 . S
C2151 H2167 0.961 . S
C2152 C2153 1.370 . S
C2152 C2154 1.363 . S
C2152 H2168 0.931 . S
C2153 C2152 1.370 . S
C2153 C2157 1.408 . S
C2154 C2152 1.363 . S
C2154 C2155 1.370 . S
C2154 C2158 1.524 . S
C2155 C2147 1.503 . S
C2155 C2154 1.370 . S
C2155 C2156 1.403 . S
C2156 C2155 1.403 . S
C2156 C2157 1.404 . S
C2156 C2159 1.539 . S
C2157 C2153 1.408 . S
C2157 C2156 1.404 . S
C2157 H2169 0.930 . S
C2158 C2154 1.524 . S
C2158 H2170 0.956 . S
C2158 H2171 0.961 . S
C2158 H2172 0.961 . S
C2159 C2156 1.539 . S
C2159 H2173 0.958 . S
C2159 H2174 0.961 . S
C2159 H2175 0.960 . S
H2160 C2144 0.931 . S
H2161 C2149 0.929 . S
H2162 C2150 0.960 . S
H2163 C2150 0.962 . S
H2164 C2150 0.960 . S
H2165 C2151 0.961 . S
H2166 C2151 0.961 . S
H2167 C2151 0.961 . S
H2168 C2152 0.931 . S
H2169 C2157 0.930 . S
H2170 C2158 0.956 . S
H2171 C2158 0.961 . S
H2172 C2158 0.961 . S
H2173 C2159 0.958 . S
H2174 C2159 0.961 . S
H2175 C2159 0.960 . S
C2176 C2177 1.391 . S
C2176 C2178 1.394 . S
C2176 H2192 0.931 . S
C2177 C2176 1.391 . S
C2177 C2181 1.376 . S
C2178 C2176 1.394 . S
C2178 C2179 1.369 . S
C2178 C2182 1.531 . S
C2179 C2178 1.369 . S
C2179 C2180 1.410 . S
C2179 C2187 1.503 . S
C2180 C2179 1.410 . S
C2180 C2181 1.392 . S
C2180 C2183 1.511 . S
C2181 C2177 1.376 . S
C2181 C2180 1.392 . S
C2181 H2193 0.929 . S
C2182 C2178 1.531 . S
C2182 H2194 0.960 . S
C2182 H2195 0.962 . S
C2182 H2196 0.960 . S
C2183 C2180 1.511 . S
C2183 H2197 0.961 . S
C2183 H2198 0.961 . S
C2183 H2199 0.961 . S
C2184 C2185 1.370 . S
C2184 C2186 1.363 . S
C2184 H2200 0.931 . S
C2185 C2184 1.370 . S
C2185 C2189 1.408 . S
C2186 C2184 1.363 . S
C2186 C2187 1.370 . S
C2186 C2190 1.524 . S
C2187 C2179 1.503 . S
C2187 C2186 1.370 . S
C2187 C2188 1.403 . S
C2188 C2187 1.403 . S
C2188 C2189 1.404 . S
C2188 C2191 1.539 . S
C2189 C2185 1.408 . S
C2189 C2188 1.404 . S
C2189 H2201 0.930 . S
C2190 C2186 1.524 . S
C2190 H2202 0.956 . S
C2190 H2203 0.961 . S
C2190 H2204 0.961 . S
C2191 C2188 1.539 . S
C2191 H2205 0.958 . S
C2191 H2206 0.961 . S
C2191 H2207 0.960 . S
H2192 C2176 0.931 . S
H2193 C2181 0.929 . S
H2194 C2182 0.960 . S
H2195 C2182 0.962 . S
H2196 C2182 0.960 . S
H2197 C2183 0.961 . S
H2198 C2183 0.961 . S
H2199 C2183 0.961 . S
H2200 C2184 0.931 . S
H2201 C2189 0.930 . S
H2202 C2190 0.956 . S
H2203 C2190 0.961 . S
H2204 C2190 0.961 . S
H2205 C2191 0.958 . S
H2206 C2191 0.961 . S
H2207 C2191 0.960 . S
C2208 C2209 1.391 . S
C2208 C2210 1.394 . S
C2208 H2224 0.931 . S
C2209 C2208 1.391 . S
C2209 C2213 1.376 . S
C2210 C2208 1.394 . S
C2210 C2211 1.369 . S
C2210 C2214 1.531 1_556 S
C2211 C2210 1.369 . S
C2211 C2212 1.410 . S
C2211 C2219 1.503 . S
C2212 C2211 1.410 . S
C2212 C2213 1.392 . S
C2212 C2215 1.511 . S
C2213 C2209 1.376 . S
C2213 C2212 1.392 . S
C2213 H2225 0.929 . S
C2214 C2210 1.531 1_554 S
C2214 H2226 0.960 . S
C2214 H2227 0.962 . S
C2214 H2228 0.960 . S
C2215 C2212 1.511 . S
C2215 H2229 0.961 . S
C2215 H2230 0.961 . S
C2215 H2231 0.961 . S
C2216 C2217 1.370 . S
C2216 C2218 1.363 . S
C2216 H2232 0.931 . S
C2217 C2216 1.370 . S
C2217 C2221 1.408 . S
C2218 C2216 1.363 . S
C2218 C2219 1.370 . S
C2218 C2222 1.524 . S
C2219 C2211 1.503 . S
C2219 C2218 1.370 . S
C2219 C2220 1.403 . S
C2220 C2219 1.403 . S
C2220 C2221 1.404 . S
C2220 C2223 1.539 . S
C2221 C2217 1.408 . S
C2221 C2220 1.404 . S
C2221 H2233 0.930 . S
C2222 C2218 1.524 . S
C2222 H2234 0.956 . S
C2222 H2235 0.961 . S
C2222 H2236 0.961 . S
C2223 C2220 1.539 . S
C2223 H2237 0.958 . S
C2223 H2238 0.961 . S
C2223 H2239 0.960 . S
H2224 C2208 0.931 . S
H2225 C2213 0.929 . S
H2226 C2214 0.960 . S
H2227 C2214 0.962 . S
H2228 C2214 0.960 . S
H2229 C2215 0.961 . S
H2230 C2215 0.961 . S
H2231 C2215 0.961 . S
H2232 C2216 0.931 . S
H2233 C2221 0.930 . S
H2234 C2222 0.956 . S
H2235 C2222 0.961 . S
H2236 C2222 0.961 . S
H2237 C2223 0.958 . S
H2238 C2223 0.961 . S
H2239 C2223 0.960 . S
C2240 C2241 1.391 . S
C2240 C2242 1.394 . S
C2240 H2256 0.931 . S
C2241 C2240 1.391 . S
C2241 C2245 1.376 . S
C2242 C2240 1.394 . S
C2242 C2243 1.369 . S
C2242 C2246 1.531 . S
C2243 C2242 1.369 . S
C2243 C2244 1.410 . S
C2243 C2251 1.503 . S
C2244 C2243 1.410 . S
C2244 C2245 1.392 . S
C2244 C2247 1.511 . S
C2245 C2241 1.376 . S
C2245 C2244 1.392 . S
C2245 H2257 0.929 . S
C2246 C2242 1.531 . S
C2246 H2258 0.960 . S
C2246 H2259 0.962 . S
C2246 H2260 0.960 . S
C2247 C2244 1.511 . S
C2247 H2261 0.961 . S
C2247 H2262 0.961 . S
C2247 H2263 0.961 . S
C2248 C2249 1.370 . S
C2248 C2250 1.363 . S
C2248 H2264 0.931 . S
C2249 C2248 1.370 . S
C2249 C2253 1.408 . S
C2250 C2248 1.363 . S
C2250 C2251 1.370 . S
C2250 C2254 1.524 . S
C2251 C2243 1.503 . S
C2251 C2250 1.370 . S
C2251 C2252 1.403 . S
C2252 C2251 1.403 . S
C2252 C2253 1.404 . S
C2252 C2255 1.539 . S
C2253 C2249 1.408 . S
C2253 C2252 1.404 . S
C2253 H2265 0.930 . S
C2254 C2250 1.524 . S
C2254 H2266 0.956 . S
C2254 H2267 0.961 . S
C2254 H2268 0.961 . S
C2255 C2252 1.539 . S
C2255 H2269 0.958 . S
C2255 H2270 0.961 . S
C2255 H2271 0.960 . S
H2256 C2240 0.931 . S
H2257 C2245 0.929 . S
H2258 C2246 0.960 . S
H2259 C2246 0.962 . S
H2260 C2246 0.960 . S
H2261 C2247 0.961 . S
H2262 C2247 0.961 . S
H2263 C2247 0.961 . S
H2264 C2248 0.931 . S
H2265 C2253 0.930 . S
H2266 C2254 0.956 . S
H2267 C2254 0.961 . S
H2268 C2254 0.961 . S
H2269 C2255 0.958 . S
H2270 C2255 0.961 . S
H2271 C2255 0.960 . S
C2272 C2273 1.391 . S
C2272 C2274 1.394 . S
C2272 H2288 0.931 . S
C2273 C2272 1.391 . S
C2273 C2277 1.376 . S
C2274 C2272 1.394 . S
C2274 C2275 1.369 . S
C2274 C2278 1.531 . S
C2275 C2274 1.369 . S
C2275 C2276 1.410 . S
C2275 C2283 1.503 . S
C2276 C2275 1.410 . S
C2276 C2277 1.392 . S
C2276 C2279 1.511 . S
C2277 C2273 1.376 . S
C2277 C2276 1.392 . S
C2277 H2289 0.929 . S
C2278 C2274 1.531 . S
C2278 H2290 0.960 . S
C2278 H2291 0.962 . S
C2278 H2292 0.960 . S
C2279 C2276 1.511 . S
C2279 H2293 0.961 . S
C2279 H2294 0.961 . S
C2279 H2295 0.961 . S
C2280 C2281 1.370 . S
C2280 C2282 1.363 . S
C2280 H2296 0.931 . S
C2281 C2280 1.370 . S
C2281 C2285 1.408 . S
C2282 C2280 1.363 . S
C2282 C2283 1.370 . S
C2282 C2286 1.524 . S
C2283 C2275 1.503 . S
C2283 C2282 1.370 . S
C2283 C2284 1.403 . S
C2284 C2283 1.403 . S
C2284 C2285 1.404 . S
C2284 C2287 1.539 1_554 S
C2285 C2281 1.408 . S
C2285 C2284 1.404 . S
C2285 H2297 0.930 . S
C2286 C2282 1.524 . S
C2286 H2298 0.956 . S
C2286 H2299 0.961 . S
C2286 H2300 0.961 . S
C2287 C2284 1.539 1_556 S
C2287 H2301 0.958 . S
C2287 H2302 0.961 . S
C2287 H2303 0.960 1_556 S
H2288 C2272 0.931 . S
H2289 C2277 0.929 . S
H2290 C2278 0.960 . S
H2291 C2278 0.962 . S
H2292 C2278 0.960 . S
H2293 C2279 0.961 . S
H2294 C2279 0.961 . S
H2295 C2279 0.961 . S
H2296 C2280 0.931 . S
H2297 C2285 0.930 . S
H2298 C2286 0.956 . S
H2299 C2286 0.961 . S
H2300 C2286 0.961 . S
H2301 C2287 0.958 . S
H2302 C2287 0.961 . S
H2303 C2287 0.960 1_554 S
C2304 C2305 1.391 . S
C2304 C2306 1.394 . S
C2304 H2320 0.931 . S
C2305 C2304 1.391 . S
C2305 C2309 1.376 . S
C2306 C2304 1.394 . S
C2306 C2307 1.369 . S
C2306 C2310 1.531 . S
C2307 C2306 1.369 . S
C2307 C2308 1.410 . S
C2307 C2315 1.503 . S
C2308 C2307 1.410 . S
C2308 C2309 1.392 . S
C2308 C2311 1.511 . S
C2309 C2305 1.376 . S
C2309 C2308 1.392 . S
C2309 H2321 0.929 . S
C2310 C2306 1.531 . S
C2310 H2322 0.960 . S
C2310 H2323 0.962 . S
C2310 H2324 0.960 . S
C2311 C2308 1.511 . S
C2311 H2325 0.961 . S
C2311 H2326 0.961 . S
C2311 H2327 0.961 . S
C2312 C2313 1.370 . S
C2312 C2314 1.363 . S
C2312 H2328 0.931 . S
C2313 C2312 1.370 . S
C2313 C2317 1.408 . S
C2314 C2312 1.363 . S
C2314 C2315 1.370 . S
C2314 C2318 1.524 . S
C2315 C2307 1.503 . S
C2315 C2314 1.370 . S
C2315 C2316 1.403 . S
C2316 C2315 1.403 . S
C2316 C2317 1.404 . S
C2316 C2319 1.539 . S
C2317 C2313 1.408 . S
C2317 C2316 1.404 . S
C2317 H2329 0.930 . S
C2318 C2314 1.524 . S
C2318 H2330 0.956 . S
C2318 H2331 0.961 . S
C2318 H2332 0.961 . S
C2319 C2316 1.539 . S
C2319 H2333 0.958 . S
C2319 H2334 0.961 . S
C2319 H2335 0.960 . S
H2320 C2304 0.931 . S
H2321 C2309 0.929 . S
H2322 C2310 0.960 . S
H2323 C2310 0.962 . S
H2324 C2310 0.960 . S
H2325 C2311 0.961 . S
H2326 C2311 0.961 . S
H2327 C2311 0.961 . S
H2328 C2312 0.931 . S
H2329 C2317 0.930 . S
H2330 C2318 0.956 . S
H2331 C2318 0.961 . S
H2332 C2318 0.961 . S
H2333 C2319 0.958 . S
H2334 C2319 0.961 . S
H2335 C2319 0.960 . S
C2336 C2337 1.391 . S
C2336 C2338 1.394 . S
C2336 H2352 0.931 . S
C2337 C2336 1.391 . S
C2337 C2341 1.376 . S
C2338 C2336 1.394 . S
C2338 C2339 1.369 . S
C2338 C2342 1.531 . S
C2339 C2338 1.369 . S
C2339 C2340 1.410 . S
C2339 C2347 1.503 1_655 S
C2340 C2339 1.410 . S
C2340 C2341 1.392 . S
C2340 C2343 1.511 . S
C2341 C2337 1.376 . S
C2341 C2340 1.392 . S
C2341 H2353 0.929 . S
C2342 C2338 1.531 . S
C2342 H2354 0.960 1_655 S
C2342 H2355 0.962 . S
C2342 H2356 0.960 . S
C2343 C2340 1.511 . S
C2343 H2357 0.961 . S
C2343 H2358 0.961 1_655 S
C2343 H2359 0.961 . S
C2344 C2345 1.370 . S
C2344 C2346 1.363 . S
C2344 H2360 0.931 . S
C2345 C2344 1.370 . S
C2345 C2349 1.408 . S
C2346 C2344 1.363 . S
C2346 C2347 1.370 . S
C2346 C2350 1.524 . S
C2347 C2339 1.503 1_455 S
C2347 C2346 1.370 . S
C2347 C2348 1.403 . S
C2348 C2347 1.403 . S
C2348 C2349 1.404 . S
C2348 C2351 1.539 . S
C2349 C2345 1.408 . S
C2349 C2348 1.404 . S
C2349 H2361 0.930 . S
C2350 C2346 1.524 . S
C2350 H2362 0.956 . S
C2350 H2363 0.961 1_455 S
C2350 H2364 0.961 . S
C2351 C2348 1.539 . S
C2351 H2365 0.958 . S
C2351 H2366 0.961 . S
C2351 H2367 0.971 . S
H2352 C2336 0.931 . S
H2353 C2341 0.929 . S
H2354 C2342 0.960 1_455 S
H2355 C2342 0.962 . S
H2356 C2342 0.960 . S
H2357 C2343 0.961 . S
H2358 C2343 0.961 1_455 S
H2359 C2343 0.961 . S
H2360 C2344 0.931 . S
H2361 C2349 0.930 . S
H2362 C2350 0.956 . S
H2363 C2350 0.961 1_655 S
H2364 C2350 0.961 . S
H2365 C2351 0.958 . S
H2366 C2351 0.961 . S
H2367 C2351 0.971 . S
C2368 C2369 1.391 . S
C2368 C2370 1.394 . S
C2368 H2384 0.931 . S
C2369 C2368 1.391 . S
C2369 C2373 1.376 . S
C2370 C2368 1.394 . S
C2370 C2371 1.369 . S
C2370 C2374 1.531 . S
C2371 C2370 1.369 . S
C2371 C2372 1.410 . S
C2371 C2379 1.503 . S
C2372 C2371 1.410 . S
C2372 C2373 1.392 . S
C2372 C2375 1.511 . S
C2373 C2369 1.376 . S
C2373 C2372 1.392 . S
C2373 H2385 0.929 . S
C2374 C2370 1.531 . S
C2374 H2386 0.960 . S
C2374 H2387 0.962 . S
C2374 H2388 0.960 . S
C2375 C2372 1.511 . S
C2375 H2389 0.961 . S
C2375 H2390 0.961 . S
C2375 H2391 0.961 . S
C2376 C2377 1.370 . S
C2376 C2378 1.363 . S
C2376 H2392 0.931 . S
C2377 C2376 1.370 . S
C2377 C2381 1.408 . S
C2378 C2376 1.363 . S
C2378 C2379 1.370 . S
C2378 C2382 1.524 . S
C2379 C2371 1.503 . S
C2379 C2378 1.370 . S
C2379 C2380 1.403 . S
C2380 C2379 1.403 . S
C2380 C2381 1.404 . S
C2380 C2383 1.539 . S
C2381 C2377 1.408 . S
C2381 C2380 1.404 . S
C2381 H2393 0.930 . S
C2382 C2378 1.524 . S
C2382 H2394 0.956 . S
C2382 H2395 0.961 . S
C2382 H2396 0.961 . S
C2383 C2380 1.539 . S
C2383 H2397 0.958 . S
C2383 H2398 0.961 . S
C2383 H2399 0.960 . S
H2384 C2368 0.931 . S
H2385 C2373 0.929 . S
H2386 C2374 0.960 . S
H2387 C2374 0.962 . S
H2388 C2374 0.960 . S
H2389 C2375 0.961 . S
H2390 C2375 0.961 . S
H2391 C2375 0.961 . S
H2392 C2376 0.931 . S
H2393 C2381 0.930 . S
H2394 C2382 0.956 . S
H2395 C2382 0.961 . S
H2396 C2382 0.961 . S
H2397 C2383 0.958 . S
H2398 C2383 0.961 . S
H2399 C2383 0.960 . S
C2400 C2401 1.391 . S
C2400 C2402 1.394 . S
C2400 H2416 0.931 . S
C2401 C2400 1.391 . S
C2401 C2405 1.376 . S
C2402 C2400 1.394 . S
C2402 C2403 1.369 . S
C2402 C2406 1.531 . S
C2403 C2402 1.369 . S
C2403 C2404 1.410 . S
C2403 C2411 1.503 . S
C2404 C2403 1.410 . S
C2404 C2405 1.392 . S
C2404 C2407 1.511 . S
C2405 C2401 1.376 . S
C2405 C2404 1.392 . S
C2405 H2417 0.929 . S
C2406 C2402 1.531 . S
C2406 H2418 0.960 . S
C2406 H2419 0.962 . S
C2406 H2420 0.960 . S
C2407 C2404 1.511 . S
C2407 H2421 0.961 . S
C2407 H2422 0.961 . S
C2407 H2423 0.961 . S
C2408 C2409 1.370 . S
C2408 C2410 1.363 . S
C2408 H2424 0.931 . S
C2409 C2408 1.370 . S
C2409 C2413 1.408 . S
C2410 C2408 1.363 . S
C2410 C2411 1.370 . S
C2410 C2414 1.524 . S
C2411 C2403 1.503 . S
C2411 C2410 1.370 . S
C2411 C2412 1.403 . S
C2412 C2411 1.403 . S
C2412 C2413 1.404 . S
C2412 C2415 1.539 . S
C2413 C2409 1.408 . S
C2413 C2412 1.404 . S
C2413 H2425 0.930 . S
C2414 C2410 1.524 . S
C2414 H2426 0.956 . S
C2414 H2427 0.961 . S
C2414 H2428 0.961 . S
C2415 C2412 1.539 . S
C2415 H2429 0.958 . S
C2415 H2430 0.961 . S
C2415 H2431 0.960 . S
H2416 C2400 0.931 . S
H2417 C2405 0.929 . S
H2418 C2406 0.960 . S
H2419 C2406 0.962 . S
H2420 C2406 0.960 . S
H2421 C2407 0.961 . S
H2422 C2407 0.961 . S
H2423 C2407 0.961 . S
H2424 C2408 0.931 . S
H2425 C2413 0.930 . S
H2426 C2414 0.956 . S
H2427 C2414 0.961 . S
H2428 C2414 0.961 . S
H2429 C2415 0.958 . S
H2430 C2415 0.961 . S
H2431 C2415 0.960 . S
C2432 C2433 1.391 . S
C2432 C2434 1.394 . S
C2432 H2448 0.931 . S
C2433 C2432 1.391 . S
C2433 C2437 1.376 . S
C2434 C2432 1.394 . S
C2434 C2435 1.369 . S
C2434 C2438 1.531 . S
C2435 C2434 1.369 . S
C2435 C2436 1.410 . S
C2435 C2443 1.503 1_655 S
C2436 C2435 1.410 . S
C2436 C2437 1.392 . S
C2436 C2439 1.511 . S
C2437 C2433 1.376 . S
C2437 C2436 1.392 . S
C2437 H2449 0.929 . S
C2438 C2434 1.531 . S
C2438 H2450 0.960 1_655 S
C2438 H2451 0.962 . S
C2438 H2452 0.960 . S
C2439 C2436 1.511 . S
C2439 H2453 0.961 . S
C2439 H2454 0.961 1_655 S
C2439 H2455 0.961 . S
C2440 C2441 1.370 . S
C2440 C2442 1.363 . S
C2440 H2456 0.931 . S
C2441 C2440 1.370 . S
C2441 C2445 1.408 . S
C2442 C2440 1.363 . S
C2442 C2443 1.370 . S
C2442 C2446 1.524 . S
C2443 C2435 1.503 1_455 S
C2443 C2442 1.370 . S
C2443 C2444 1.403 . S
C2444 C2443 1.403 . S
C2444 C2445 1.404 . S
C2444 C2447 1.539 . S
C2445 C2441 1.408 . S
C2445 C2444 1.404 . S
C2445 H2457 0.930 . S
C2446 C2442 1.524 . S
C2446 H2458 0.956 . S
C2446 H2459 0.961 1_455 S
C2446 H2460 0.961 . S
C2447 C2444 1.539 . S
C2447 H2461 0.958 . S
C2447 H2462 0.961 . S
C2447 H2463 0.970 . S
H2448 C2432 0.931 . S
H2449 C2437 0.929 . S
H2450 C2438 0.960 1_455 S
H2451 C2438 0.962 . S
H2452 C2438 0.960 . S
H2453 C2439 0.961 . S
H2454 C2439 0.961 1_455 S
H2455 C2439 0.961 . S
H2456 C2440 0.931 . S
H2457 C2445 0.930 . S
H2458 C2446 0.956 . S
H2459 C2446 0.961 1_655 S
H2460 C2446 0.961 . S
H2461 C2447 0.958 . S
H2462 C2447 0.961 . S
H2463 C2447 0.970 . S
C417 C303 1.741 . S
C425 C5 1.781 . S
C449 C263 1.755 . S
C457 C23 1.764 . S
C481 C277 1.790 . S
C489 C29 1.767 . S
C513 C289 1.757 . S
C521 C49 1.763 . S
C545 C55 1.785 . S
C553 C231 1.759 . S
C577 C239 1.779 . S
C585 C69 1.778 . S
C609 C83 1.757 . S
C617 C251 1.763 . S
C641 C95 1.792 . S
C649 C211 1.770 . S
C673 C407 1.736 . S
C681 C114 1.750 . S
C705 C127 1.727 . S
C713 C374 1.756 . S
C737 C140 1.770 . S
C745 C381 1.750 . S
C769 C153 1.775 . S
C777 C394 1.765 . S
C801 C160 1.742 . S
C809 C335 1.767 . S
C833 C173 1.757 . S
C841 C342 1.769 . S
C865 C192 1.741 . S
C873 C361 1.767 . S
C897 C199 1.728 . S
C905 C322 1.757 . S
C929 C4 1.171 . S
C937 C161 1.183 . S
C961 C382 1.202 . S
C969 C16 1.194 . S
C993 C36 1.192 . S
C1001 C185 1.192 . S
C1025 C408 1.189 . S
C1033 C42 1.187 . S
C1057 C107 1.165 . S
C1065 C62 1.180 . S
C1089 C70 1.161 . S
C1097 C328 1.177 . S
C1121 C82 1.175 . S
C1129 C133 1.185 . S
C1153 C96 1.174 . S
C1161 C354 1.184 . S
C1185 C278 1.161 . S
C1193 C120 1.177 . S
C1217 C304 1.207 . S
C1225 C146 1.196 . S
C1249 C174 1.180 . S
C1257 C224 1.187 . S
C1281 C252 1.207 . S
C1289 C200 1.196 . S
C1313 C367 1.210 . S
C1321 C218 1.199 . S
C1345 C238 1.176 . S
C1353 C395 1.185 . S
C1377 C315 1.165 . S
C1385 C270 1.180 . S
C1409 C343 1.182 . S
C1417 C296 1.187 . S
C1441 C56 1.169 . S
C1449 C10 1.171 . S
C1473 C68 1.165 . S
C1481 C18 1.175 . S
C1505 C30 1.180 . S
C1513 C88 1.164 . S
C1537 C44 1.178 . S
C1545 C94 1.175 . S
C1569 C159 1.162 . S
C1577 C109 1.185 . S
C1601 C172 1.144 . S
C1609 C122 1.165 . S
C1633 C187 1.181 . S
C1641 C135 1.169 . S
C1665 C148 1.148 . S
C1673 C198 1.162 . S
C1697 C212 1.182 . S
C1705 C264 1.170 . S
C1729 C226 1.186 . S
C1737 C276 1.172 . S
C1761 C244 1.180 . S
C1769 C290 1.165 . S
C1793 C250 1.175 . S
C1801 C302 1.176 . S
C1825 C369 1.191 . S
C1833 C317 1.187 . S
C1857 C380 1.143 . S
C1865 C330 1.167 . S
C1889 C393 1.170 . S
C1897 C341 1.168 . S
C1921 C406 1.146 . S
C1929 C356 1.163 . S
C1953 C400 1.851 . S
C1961 C3 1.845 . S
C1985 C17 1.823 . S
C1993 C205 1.835 . S
C2017 C368 1.829 . S
C2025 C31 1.834 . S
C2049 C43 1.829 . S
C2057 C179 1.837 . S
C2081 C348 1.832 . S
C2089 C57 1.836 . S
C2113 C75 1.842 . S
C2121 C147 1.842 . S
C2145 C81 1.831 . S
C2153 C316 1.842 . S
C2177 C121 1.825 . S
C2185 C101 1.838 . S
C2209 C108 1.852 . S
C2217 C291 1.845 . S
C2241 C265 1.844 . S
C2249 C134 1.847 . S
C2273 C166 1.851 . S
C2281 C237 1.845 . S
C2305 C186 1.839 . S
C2313 C213 1.839 . S
C2337 C413 1.830 . S
C2345 C225 1.840 . S
C2369 C257 1.850 . S
C2377 C387 1.846 . S
C2401 C283 1.833 . S
C2409 C355 1.839 . S
C2433 C329 1.829 . S
C2441 C309 1.838 . S
