# Generated by pormake.
# Topology unp, (4)-cn, num edge types: 1
# Building blocks:
#     Node 0, Type 0, BuildingBlock: NAHDIM_clean_sbu_0, # of connection points: 4
#     Node 1, Type 0, BuildingBlock: NAHDIM_clean_sbu_0, # of connection points: 4
#     Node 2, Type 0, BuildingBlock: NAHDIM_clean_sbu_0, # of connection points: 4
#     Node 3, Type 0, BuildingBlock: NAHDIM_clean_sbu_0, # of connection points: 4
#     Node 4, Type 0, BuildingBlock: NAHDIM_clean_sbu_0, # of connection points: 4
#     Node 5, Type 0, BuildingBlock: NAHDIM_clean_sbu_0, # of connection points: 4
#     Node 6, Type 0, BuildingBlock: NAHDIM_clean_sbu_0, # of connection points: 4
#     Node 7, Type 0, BuildingBlock: NAHDIM_clean_sbu_0, # of connection points: 4
#     Node 8, Type 0, BuildingBlock: NAHDIM_clean_sbu_0, # of connection points: 4
#     Node 9, Type 0, BuildingBlock: NAHDIM_clean_sbu_0, # of connection points: 4
#     Node 10, Type 0, BuildingBlock: NAHDIM_clean_sbu_0, # of connection points: 4
#     Node 11, Type 0, BuildingBlock: NAHDIM_clean_sbu_0, # of connection points: 4
#     Node 12, Type 0, BuildingBlock: NAHDIM_clean_sbu_0, # of connection points: 4
#     Node 13, Type 0, BuildingBlock: NAHDIM_clean_sbu_0, # of connection points: 4
#     Node 14, Type 0, BuildingBlock: NAHDIM_clean_sbu_0, # of connection points: 4
#     Node 15, Type 0, BuildingBlock: NAHDIM_clean_sbu_0, # of connection points: 4
#     Node 16, Type 0, BuildingBlock: NAHDIM_clean_sbu_0, # of connection points: 4
#     Node 17, Type 0, BuildingBlock: NAHDIM_clean_sbu_0, # of connection points: 4
#     Edge 18, Type (0, 0), BuildingBlock: EZIPEK_clean_linker_0, # of connection points: 2
#     Edge 19, Type (0, 0), BuildingBlock: EZIPEK_clean_linker_0, # of connection points: 2
#     Edge 20, Type (0, 0), BuildingBlock: EZIPEK_clean_linker_0, # of connection points: 2
#     Edge 21, Type (0, 0), BuildingBlock: EZIPEK_clean_linker_0, # of connection points: 2
#     Edge 22, Type (0, 0), BuildingBlock: EZIPEK_clean_linker_0, # of connection points: 2
#     Edge 23, Type (0, 0), BuildingBlock: EZIPEK_clean_linker_0, # of connection points: 2
#     Edge 24, Type (0, 0), BuildingBlock: EZIPEK_clean_linker_0, # of connection points: 2
#     Edge 25, Type (0, 0), BuildingBlock: EZIPEK_clean_linker_0, # of connection points: 2
#     Edge 26, Type (0, 0), BuildingBlock: EZIPEK_clean_linker_0, # of connection points: 2
#     Edge 27, Type (0, 0), BuildingBlock: EZIPEK_clean_linker_0, # of connection points: 2
#     Edge 28, Type (0, 0), BuildingBlock: EZIPEK_clean_linker_0, # of connection points: 2
#     Edge 29, Type (0, 0), BuildingBlock: EZIPEK_clean_linker_0, # of connection points: 2
#     Edge 30, Type (0, 0), BuildingBlock: EZIPEK_clean_linker_0, # of connection points: 2
#     Edge 31, Type (0, 0), BuildingBlock: EZIPEK_clean_linker_0, # of connection points: 2
#     Edge 32, Type (0, 0), BuildingBlock: EZIPEK_clean_linker_0, # of connection points: 2
#     Edge 33, Type (0, 0), BuildingBlock: EZIPEK_clean_linker_0, # of connection points: 2
#     Edge 34, Type (0, 0), BuildingBlock: EZIPEK_clean_linker_0, # of connection points: 2
#     Edge 35, Type (0, 0), BuildingBlock: EZIPEK_clean_linker_0, # of connection points: 2
#     Edge 36, Type (0, 0), BuildingBlock: EZIPEK_clean_linker_0, # of connection points: 2
#     Edge 37, Type (0, 0), BuildingBlock: EZIPEK_clean_linker_0, # of connection points: 2
#     Edge 38, Type (0, 0), BuildingBlock: EZIPEK_clean_linker_0, # of connection points: 2
#     Edge 39, Type (0, 0), BuildingBlock: EZIPEK_clean_linker_0, # of connection points: 2
#     Edge 40, Type (0, 0), BuildingBlock: EZIPEK_clean_linker_0, # of connection points: 2
#     Edge 41, Type (0, 0), BuildingBlock: EZIPEK_clean_linker_0, # of connection points: 2
#     Edge 42, Type (0, 0), BuildingBlock: EZIPEK_clean_linker_0, # of connection points: 2
#     Edge 43, Type (0, 0), BuildingBlock: EZIPEK_clean_linker_0, # of connection points: 2
#     Edge 44, Type (0, 0), BuildingBlock: EZIPEK_clean_linker_0, # of connection points: 2
#     Edge 45, Type (0, 0), BuildingBlock: EZIPEK_clean_linker_0, # of connection points: 2
#     Edge 46, Type (0, 0), BuildingBlock: EZIPEK_clean_linker_0, # of connection points: 2
#     Edge 47, Type (0, 0), BuildingBlock: EZIPEK_clean_linker_0, # of connection points: 2
#     Edge 48, Type (0, 0), BuildingBlock: EZIPEK_clean_linker_0, # of connection points: 2
#     Edge 49, Type (0, 0), BuildingBlock: EZIPEK_clean_linker_0, # of connection points: 2
#     Edge 50, Type (0, 0), BuildingBlock: EZIPEK_clean_linker_0, # of connection points: 2
#     Edge 51, Type (0, 0), BuildingBlock: EZIPEK_clean_linker_0, # of connection points: 2
#     Edge 52, Type (0, 0), BuildingBlock: EZIPEK_clean_linker_0, # of connection points: 2
#     Edge 53, Type (0, 0), BuildingBlock: EZIPEK_clean_linker_0, # of connection points: 2
# Relax obj value: 0.390
# Max RMSD: 0.208
# Mean RMSD: 0.206
data_MOF--net-unp--node1-NAHDIM_clean_sbu_0--edge1-EZIPEK_clean_linker_0
_symmetry_space_group_name_H-M    P1
_symmetry_Int_Tables_number       1
_symmetry_cell_setting            triclinic
loop_
_symmetry_equiv_pos_as_xyz
'x, y, z'
_cell_length_a     34.450341
_cell_length_b     34.484139
_cell_length_c     46.267366
_cell_angle_alpha  90.257411
_cell_angle_beta   89.750405
_cell_angle_gamma 120.23931
loop_
_atom_site_label
_atom_site_type_symbol
_atom_site_fract_x
_atom_site_fract_y
_atom_site_fract_z
_atom_type_partial_charge
C0 C 0.24857 0.22244 0.13414 0.0
O1 O 0.24984 0.21155 0.10714 0.0
O2 O 0.13779 0.1045 0.13207 0.0
Zn3 Zn 0.15414 0.16834 0.12489 0.0
O4 O 0.16058 0.17647 0.08175 0.0
C5 C 0.06654 0.15068 0.12263 0.0
O6 O 0.06902 0.12895 0.09998 0.0
O7 O 0.21095 0.20966 0.14634 0.0
C8 C 0.1775 0.21334 0.06816 0.0
O9 O 0.1946 0.2514 0.08248 0.0
C10 C 0.16186 0.08863 0.12308 0.0
O11 O 0.19966 0.1147 0.10943 0.0
O12 O 0.10132 0.17375 0.13796 0.0
C13 C 0.729 0.96863 0.16157 0.0
O14 O 0.71898 0.92664 0.15907 0.0
O15 O 0.86608 0.04006 0.1283 0.0
Zn16 Zn 0.80272 0.99086 0.12104 0.0
O17 O 0.78588 0.99175 0.07929 0.0
C18 C 0.83236 0.9313 0.11236 0.0
O19 O 0.85388 0.96209 0.09263 0.0
O20 O 0.76207 -0.00067 0.1478 0.0
C21 C 0.81604 0.01676 0.06124 0.0
O22 O 0.85716 0.04394 0.07018 0.0
C23 C 0.88054 0.08121 0.13373 0.0
O24 O 0.85256 0.09642 0.13604 0.0
O25 O 0.80392 0.93404 0.12853 0.0
C26 C 0.95676 0.72244 0.11876 0.0
O27 O 0.93128 0.71888 0.09671 0.0
O28 O 0.93848 0.81657 0.11155 0.0
Zn29 Zn 0.99225 0.80948 0.10112 0.0
O30 O 0.98727 0.789 0.05977 0.0
C31 C 0.05591 0.89685 0.12404 0.0
O32 O 0.0259 0.88528 0.14473 0.0
O33 O 0.98913 0.76075 0.12586 0.0
C34 C 0.97316 0.80427 0.04009 0.0
O35 O 0.96158 0.83415 0.04646 0.0
C36 C 0.93877 0.85307 0.10713 0.0
O37 O 0.97419 0.88727 0.09552 0.0
O38 O 0.05084 0.86804 0.10504 0.0
C39 C 0.2368 0.27555 0.86621 0.0
O40 O 0.22577 0.28515 0.89133 0.0
O41 O 0.11276 0.17812 0.87613 0.0
Zn42 Zn 0.17462 0.18853 0.88503 0.0
O43 O 0.18918 0.20771 0.92647 0.0
C44 C 0.14284 0.09892 0.86557 0.0
O45 O 0.11765 0.10803 0.84899 0.0
O46 O 0.22013 0.23486 0.85856 0.0
C47 C 0.15718 0.19311 0.94462 0.0
O48 O 0.11573 0.16639 0.93607 0.0
C49 C 0.10061 0.20611 0.8694 0.0
O50 O 0.13009 0.24915 0.86784 0.0
O51 O 0.17256 0.12949 0.88144 0.0
C52 C 0.77669 0.00754 0.82544 0.0
O53 O 0.81199 0.00478 0.81792 0.0
O54 O 0.83241 0.97584 0.87071 0.0
Zn55 Zn 0.82308 0.02913 0.87793 0.0
O56 O 0.80119 0.02548 0.91886 0.0
C57 C 0.91156 0.0956 0.85609 0.0
O58 O 0.9033 0.06581 0.83573 0.0
O59 O 0.77492 0.02148 0.85057 0.0
C60 C 0.82106 0.01634 0.93842 0.0
O61 O 0.85346 0.00863 0.93138 0.0
C62 C 0.86937 0.97645 0.87364 0.0
O63 O 0.90549 0.0134 0.88189 0.0
O64 O 0.88072 0.08882 0.87397 0.0
C65 C 0.03532 0.7815 0.8494 0.0
O66 O 0.05831 0.80679 0.87136 0.0
O67 O 0.03875 0.8874 0.85872 0.0
Zn68 Zn 0.98884 0.82392 0.86467 0.0
O69 O 0.98713 0.8105 0.90671 0.0
C70 C 0.92938 0.85279 0.87214 0.0
O71 O 0.95577 0.86791 0.89478 0.0
O72 O -4e-05 0.78127 0.84145 0.0
C73 C 0.96271 0.77271 0.91855 0.0
O74 O 0.93677 0.73722 0.90277 0.0
C75 C 0.07005 0.90883 0.87684 0.0
O76 O 0.07436 0.88791 0.89917 0.0
O77 O 0.93361 0.82674 0.85449 0.0
C78 C 0.87809 0.58111 0.49491 0.0
O79 O 0.85945 0.54286 0.50888 0.0
O80 O 0.80878 0.4742 0.46923 0.0
Zn81 Zn 0.80819 0.52906 0.45576 0.0
O82 O 0.81881 0.52933 0.4134 0.0
C83 C 0.71745 0.47873 0.45257 0.0
O84 O 0.73211 0.45826 0.43555 0.0
O85 O 0.85853 0.58527 0.47301 0.0
C86 C 0.83683 0.56314 0.39683 0.0
O87 O 0.84832 0.60318 0.40688 0.0
C88 C 0.83977 0.46555 0.46375 0.0
O89 O 0.87768 0.49637 0.45214 0.0
O90 O 0.74552 0.51616 0.46391 0.0
C91 C 0.39037 0.31711 0.47673 0.0
O92 O 0.41826 0.33981 0.45567 0.0
O93 O 0.50103 0.34004 0.4759 0.0
Zn94 Zn 0.4437 0.28061 0.47104 0.0
O95 O 0.43383 0.27274 0.42832 0.0
C96 C 0.47409 0.23841 0.5109 0.0
O97 O 0.48292 0.27419 0.52605 0.0
O98 O 0.39285 0.28513 0.48836 0.0
C99 C 0.44937 0.25336 0.4127 0.0
O100 O 0.47019 0.23447 0.4247 0.0
C101 C 0.53768 0.3417 0.46938 0.0
O102 O 0.53743 0.30491 0.46168 0.0
O103 O 0.4531 0.23202 0.48723 0.0
C104 C 0.65899 0.1085 0.50604 0.0
O105 O 0.63714 0.12306 0.52179 0.0
O106 O 0.63459 0.19248 0.49476 0.0
Zn107 Zn 0.68388 0.18791 0.47379 0.0
O108 O 0.66936 0.17826 0.43135 0.0
C109 C 0.74195 0.27779 0.46633 0.0
O110 O 0.70705 0.26982 0.45059 0.0
O111 O 0.68545 0.13342 0.48643 0.0
C112 C 0.68297 0.15699 0.41582 0.0
O113 O 0.7083 0.14264 0.4272 0.0
C114 C 0.60312 0.19327 0.48105 0.0
O115 O 0.60156 0.18976 0.45276 0.0
O116 O 0.74197 0.24558 0.47948 0.0
C117 C 0.87477 0.55335 0.17585 0.0
O118 O 0.83399 0.52851 0.16563 0.0
O119 O 0.77643 0.46937 0.20811 0.0
Zn120 Zn 0.83913 0.49139 0.22229 0.0
O121 O 0.83942 0.51449 0.26187 0.0
C122 C 0.82783 0.40784 0.20533 0.0
O123 O 0.81333 0.41767 0.18185 0.0
O124 O 0.88617 0.54173 0.19878 0.0
C125 C 0.86718 0.51979 0.28153 0.0
O126 O 0.89942 0.51094 0.27623 0.0
C127 C 0.75642 0.4916 0.21109 0.0
O128 O 0.77824 0.53261 0.22152 0.0
O129 O 0.84599 0.43722 0.22511 0.0
C130 C 0.41971 0.29442 0.19013 0.0
O131 O 0.4486 0.2879 0.17541 0.0
O132 O 0.50019 0.27118 0.22469 0.0
Zn133 Zn 0.4843 0.31834 0.23532 0.0
O134 O 0.47487 0.3137 0.27808 0.0
C135 C 0.56389 0.38083 0.20571 0.0
O136 O 0.54868 0.34837 0.18649 0.0
O137 O 0.42887 0.30956 0.21572 0.0
C138 C 0.44828 0.27576 0.28923 0.0
O139 O 0.4242 0.24105 0.27244 0.0
C140 C 0.47674 0.23031 0.21703 0.0
O141 O 0.43302 0.2114 0.21422 0.0
O142 O 0.53945 0.37758 0.22726 0.0
C143 C 0.65011 0.05294 0.22549 0.0
O144 O 0.62672 0.0417 0.24958 0.0
O145 O 0.70096 0.19992 0.22129 0.0
Zn146 Zn 0.65555 0.13815 0.23451 0.0
O147 O 0.66553 0.13863 0.2772 0.0
C148 C 0.59029 0.15319 0.20743 0.0
O149 O 0.62221 0.1727 0.18797 0.0
O150 O 0.66491 0.09181 0.21491 0.0
C151 C 0.63379 0.12066 0.29551 0.0
O152 O 0.59189 0.09837 0.28676 0.0
C153 C 0.7432 0.21786 0.22412 0.0
O154 O 0.76032 0.19459 0.23492 0.0
O155 O 0.59484 0.13114 0.22776 0.0
C156 C 0.62143 0.89536 0.75605 0.0
O157 O 0.62804 0.89469 0.72813 0.0
O158 O 0.5249 0.75874 0.75569 0.0
Zn159 Zn 0.53536 0.81875 0.74297 0.0
O160 O 0.55228 0.82585 0.7011 0.0
C161 C 0.45438 0.80451 0.77032 0.0
O162 O 0.47087 0.79426 0.79264 0.0
O163 O 0.58382 0.86714 0.76705 0.0
C164 C 0.52393 0.79781 0.68336 0.0
O165 O 0.48522 0.76534 0.69296 0.0
C166 C 0.55403 0.74668 0.75304 0.0
O167 O 0.5941 0.77488 0.74274 0.0
O168 O 0.47716 0.8181 0.74714 0.0
C169 C 0.13575 0.70973 0.79629 0.0
O170 O 0.16761 0.74004 0.77983 0.0
O171 O 0.24285 0.71204 0.78573 0.0
Zn172 Zn 0.17895 0.66478 0.77684 0.0
O173 O 0.17002 0.66974 0.73475 0.0
C174 C 0.2017 0.60225 0.79992 0.0
O175 O 0.22197 0.63391 0.81942 0.0
O176 O 0.13309 0.67191 0.79948 0.0
C177 C 0.13194 0.65504 0.72299 0.0
O178 O 0.09529 0.63645 0.73885 0.0
C179 C 0.26557 0.74675 0.77031 0.0
O180 O 0.24552 0.75726 0.75033 0.0
O181 O 0.17608 0.60553 0.78165 0.0
C182 C 0.33685 0.4352 0.79944 0.0
O183 O 0.33618 0.46874 0.81246 0.0
O184 O 0.3314 0.52343 0.76849 0.0
Zn185 Zn 0.36645 0.49594 0.75234 0.0
O186 O 0.34662 0.48033 0.7112 0.0
C187 C 0.44873 0.56557 0.77639 0.0
O188 O 0.42202 0.55688 0.79878 0.0
O189 O 0.35198 0.44005 0.77386 0.0
C190 C 0.35675 0.51288 0.69422 0.0
O191 O 0.38192 0.55425 0.70353 0.0
C192 C 0.28876 0.50164 0.77014 0.0
O193 O 0.26636 0.45932 0.7622 0.0
O194 O 0.43203 0.54232 0.75366 0.0
C195 C 0.5641 0.91822 0.50812 0.0
O196 O 0.5373 0.90815 0.53056 0.0
O197 O 0.45111 0.82272 0.50005 0.0
Zn198 Zn 0.51169 0.82735 0.50547 0.0
O199 O 0.521 0.8235 0.54805 0.0
C200 C 0.47924 0.7383 0.4987 0.0
O201 O 0.46118 0.74235 0.52272 0.0
O202 O 0.56043 0.88711 0.49153 0.0
C203 C 0.54731 0.81263 0.55983 0.0
O204 O 0.5732 0.80331 0.54387 0.0
C205 C 0.42705 0.81956 0.52183 0.0
O206 O 0.44369 0.82459 0.54794 0.0
O207 O 0.50728 0.77343 0.48519 0.0
C208 C 0.05808 0.667 0.53379 0.0
O209 O 0.05727 0.64739 0.55823 0.0
O210 O 0.15198 0.63906 0.52804 0.0
Zn211 Zn 0.14853 0.69357 0.54013 0.0
O212 O 0.14212 0.69403 0.58346 0.0
C213 C 0.24014 0.74284 0.53833 0.0
O214 O 0.23134 0.70983 0.5561 0.0
O215 O 0.09549 0.69215 0.52141 0.0
C216 C 0.14508 0.66544 0.5991 0.0
O217 O 0.15324 0.63571 0.58708 0.0
C218 C 0.1215 0.59873 0.5233 0.0
O219 O 0.07889 0.58687 0.52493 0.0
O220 O 0.20783 0.74589 0.52774 0.0
C221 C 0.31174 0.4206 0.50514 0.0
O222 O 0.34551 0.45665 0.51667 0.0
O223 O 0.33218 0.52794 0.49289 0.0
Zn224 Zn 0.28093 0.47724 0.51545 0.0
O225 O 0.29905 0.47982 0.55734 0.0
C226 C 0.22725 0.51836 0.51069 0.0
O227 O 0.26739 0.5541 0.50964 0.0
O228 O 0.27477 0.41955 0.50103 0.0
C229 C 0.29321 0.5011 0.57774 0.0
O230 O 0.2725 0.52358 0.57276 0.0
C231 C 0.35781 0.56443 0.50604 0.0
O232 O 0.34976 0.56905 0.53316 0.0
O233 O 0.22335 0.47974 0.51229 0.0
C234 C 0.33705 0.24017 0.18949 0.0
C235 C 0.3747 0.27928 0.17812 0.0
C236 C 0.32657 0.28603 0.14208 0.0
C237 C 0.29052 0.24384 0.15101 0.0
N238 N 0.26312 0.17693 0.18009 0.0
N239 N 0.40679 0.33888 0.143 0.0
C240 C 0.29592 0.22007 0.17412 0.0
C241 C 0.36988 0.30213 0.15423 0.0
N242 N 0.34052 0.22178 0.21478 0.0
N243 N 0.31897 0.31112 0.12256 0.0
H244 H 0.43856 0.35318 0.1524 0.0
H245 H 0.40654 0.35383 0.12356 0.0
H246 H 0.28741 0.30041 0.11358 0.0
H247 H 0.34267 0.344 0.11715 0.0
H248 H 0.31285 0.19671 0.22578 0.0
H249 H 0.37041 0.23381 0.22617 0.0
H250 H 0.2676 0.15607 0.1942 0.0
H251 H 0.23268 0.16017 0.16908 0.0
C252 C 0.72963 0.01177 0.20485 0.0
C253 C 0.70482 0.98177 0.18218 0.0
C254 C 0.63934 0.98871 0.19452 0.0
C255 C 0.66673 0.02431 0.21357 0.0
N256 N 0.7375 0.07023 0.2377 0.0
N257 N 0.63648 0.94149 0.15459 0.0
C258 C 0.71167 0.03568 0.21922 0.0
C259 C 0.65941 0.96939 0.17711 0.0
N260 N 0.77003 0.01663 0.21286 0.0
N261 N 0.59438 0.97383 0.19295 0.0
H262 H 0.6499 0.92631 0.1416 0.0
H263 H 0.60518 0.93532 0.14762 0.0
H264 H 0.57909 0.98806 0.2051 0.0
H265 H 0.57167 0.94526 0.18155 0.0
H266 H 0.78809 0.03489 0.23087 0.0
H267 H 0.78359 -0.00121 0.20301 0.0
H268 H 0.77206 0.08405 0.23989 0.0
H269 H 0.72471 0.08676 0.24997 0.0
C270 C 0.92278 0.60275 0.1358 0.0
C271 C 0.90391 0.5984 0.16369 0.0
C272 C 0.92647 0.67806 0.16414 0.0
C273 C 0.94491 0.68225 0.13609 0.0
N274 N 0.97036 0.65285 0.09788 0.0
N275 N 0.89539 0.63282 0.20711 0.0
C276 C 0.94616 0.64582 0.12276 0.0
C277 C 0.9087 0.63649 0.17886 0.0
N278 N 0.91733 0.56549 0.12157 0.0
N279 N 0.92282 0.71264 0.17581 0.0
H280 H 0.87925 0.60255 0.21829 0.0
H281 H 0.90317 0.66036 0.22026 0.0
H282 H 0.93565 0.74384 0.16592 0.0
H283 H 0.90437 0.70967 0.19438 0.0
H284 H 0.92549 0.56532 0.0999 0.0
H285 H 0.90257 0.53387 0.13118 0.0
H286 H 0.97607 0.62881 0.08829 0.0
H287 H 0.98822 0.68431 0.08811 0.0
C288 C 0.33328 0.38593 0.84001 0.0
C289 C 0.31553 0.39089 0.81359 0.0
C290 C 0.24813 0.31709 0.81979 0.0
C291 C 0.26577 0.31229 0.84634 0.0
N292 N 0.32859 0.33604 0.87845 0.0
N293 N 0.26098 0.35782 0.77505 0.0
C294 C 0.3095 0.34494 0.85546 0.0
C295 C 0.27478 0.35519 0.80229 0.0
N296 N 0.37255 0.42073 0.85049 0.0
N297 N 0.20472 0.287 0.81223 0.0
H298 H 0.27744 0.38604 0.76197 0.0
H299 H 0.23486 0.33059 0.76437 0.0
H300 H 0.18399 0.25804 0.82391 0.0
H301 H 0.18786 0.29213 0.7954 0.0
H302 H 0.38446 0.42158 0.87126 0.0
H303 H 0.39255 0.44996 0.83873 0.0
H304 H 0.3619 0.3565 0.88468 0.0
H305 H 0.31217 0.3059 0.88986 0.0
C306 C 0.70823 0.93411 0.81584 0.0
C307 C 0.73464 0.98047 0.80937 0.0
C308 C 0.68266 0.97214 0.77076 0.0
C309 C 0.6594 0.92495 0.77503 0.0
N310 N 0.6551 0.86008 0.79816 0.0
N311 N 0.75033 0.04377 0.77957 0.0
C312 C 0.67325 0.90562 0.7968 0.0
C313 C 0.72279 -0.00037 0.78652 0.0
N314 N 0.71649 0.91724 0.84027 0.0
N315 N 0.66555 0.99072 0.7524 0.0
H316 H 0.77907 0.06507 0.79142 0.0
H317 H 0.74631 0.05856 0.76112 0.0
H318 H 0.63586 0.9716 0.74087 0.0
H319 H 0.67849 0.02515 0.75047 0.0
H320 H 0.69502 0.88486 0.84782 0.0
H321 H 0.74263 0.93664 0.8545 0.0
H322 H 0.66765 0.84458 0.81137 0.0
H323 H 0.63034 0.83767 0.78411 0.0
C324 C 0.08207 0.73774 0.79135 0.0
C325 C 0.10219 0.71943 0.80922 0.0
C326 C 0.06352 0.72781 0.8511 0.0
C327 C 0.05182 0.7547 0.83433 0.0
N328 N 0.05425 0.78936 0.78844 0.0
N329 N 0.11536 0.70065 0.85714 0.0
C330 C 0.06156 0.7603 0.80431 0.0
C331 C 0.09332 0.71472 0.83937 0.0
N332 N 0.08203 0.73306 0.762 0.0
N333 N 0.04576 0.7145 0.87815 0.0
H334 H 0.13846 0.69181 0.84973 0.0
H335 H 0.11367 0.70153 0.8796 0.0
H336 H 0.02263 0.72243 0.8869 0.0
H337 H 0.05003 0.69166 0.89042 0.0
H338 H 0.06422 0.74217 0.74814 0.0
H339 H 0.09559 0.7155 0.7518 0.0
H340 H 0.06573 0.79834 0.76729 0.0
H341 H 0.04029 0.80761 0.79697 0.0
C342 C 0.95939 0.61775 0.4819 0.0
C343 C 0.92549 0.61454 0.50098 0.0
C344 C 0.98291 0.66066 0.53653 0.0
C345 C 0.01507 0.65591 0.52004 0.0
N346 N 0.03336 0.62674 0.47764 0.0
N347 N 0.90403 0.63369 0.54601 0.0
C348 C 0.00358 0.63457 0.49255 0.0
C349 C 0.93707 0.6367 0.52808 0.0
N350 N 0.94939 0.60377 0.45382 0.0
N351 N -0.00349 0.68849 0.56006 0.0
H352 H 0.87048 0.61866 0.53964 0.0
H353 H 0.90947 0.64432 0.56747 0.0
H354 H 0.03014 0.70711 0.56631 0.0
H355 H 0.97547 0.69643 0.57167 0.0
H356 H 0.97383 0.61018 0.43825 0.0
H357 H 0.91728 0.58953 0.44514 0.0
H358 H 0.02449 0.60578 0.45962 0.0
H359 H 0.06615 0.63801 0.48429 0.0
C360 C 0.31482 0.36543 0.4708 0.0
C361 C 0.31725 0.38152 0.49935 0.0
C362 C 0.35814 0.34459 0.51531 0.0
C363 C 0.35768 0.33026 0.48644 0.0
N364 N 0.32292 0.31328 0.43951 0.0
N365 N 0.3259 0.37325 0.55011 0.0
C366 C 0.3315 0.33597 0.46514 0.0
C367 C 0.33359 0.36632 0.52208 0.0
N368 N 0.29965 0.38059 0.44881 0.0
N369 N 0.38466 0.34089 0.53572 0.0
H370 H 0.30745 0.38873 0.5555 0.0
H371 H 0.33356 0.35957 0.56771 0.0
H372 H 0.40356 0.3255 0.53192 0.0
H373 H 0.39042 0.35597 0.55602 0.0
H374 H 0.30242 0.37429 0.42708 0.0
H375 H 0.28661 0.40174 0.45209 0.0
H376 H 0.30096 0.31306 0.42403 0.0
H377 H 0.33428 0.29091 0.43515 0.0
C378 C 0.6017 0.03567 0.48467 0.0
C379 C 0.63975 0.05977 0.50283 0.0
C380 C 0.63488 0.98982 0.51842 0.0
C381 C 0.59532 0.9658 0.50168 0.0
N382 N 0.5472 0.96407 0.46358 0.0
N383 N 0.69846 0.06226 0.53212 0.0
C384 C 0.58088 0.98827 0.48293 0.0
C385 C 0.65839 0.03756 0.51812 0.0
N386 N 0.58449 0.05807 0.47003 0.0
N387 N 0.64906 0.96664 0.53499 0.0
H388 H 0.71594 0.09729 0.53237 0.0
H389 H 0.71588 0.04856 0.542 0.0
H390 H 0.63451 0.93185 0.53354 0.0
H391 H 0.67448 0.98132 0.55031 0.0
H392 H 0.55383 0.0423 0.45929 0.0
H393 H 0.59991 0.09298 0.46959 0.0
H394 H 0.53771 0.97839 0.44735 0.0
H395 H 0.53104 0.92917 0.46214 0.0
C396 C 0.00108 0.15985 0.11143 0.0
C397 C 0.02242 0.14484 0.13081 0.0
C398 C 0.95259 0.1038 0.15848 0.0
C399 C 0.9296 0.1114 0.13593 0.0
N400 N 0.93092 0.1473 0.09104 0.0
N401 N 0.01938 0.10252 0.17306 0.0
C402 C 0.95365 0.14052 0.11273 0.0
C403 C -0.00126 0.11767 0.15488 0.0
N404 N 0.02642 0.19247 0.09177 0.0
N405 N 0.92987 0.08291 0.18317 0.0
H406 H 0.05332 0.11245 0.17145 0.0
H407 H 0.00239 0.07812 0.18875 0.0
H408 H 0.89598 0.07265 0.18618 0.0
H409 H 0.9453 0.07961 0.20154 0.0
H410 H 0.0137 0.20776 0.07852 0.0
H411 H 0.06131 0.20719 0.09065 0.0
H412 H 0.9458 0.16341 0.07172 0.0
H413 H 0.89637 0.1348 0.09171 0.0
C414 C 0.83707 0.86508 0.09622 0.0
C415 C 0.84658 0.89816 0.1176 0.0
C416 C 0.90234 0.88322 0.13927 0.0
C417 C 0.8997 0.85794 0.11448 0.0
N418 N 0.8615 0.81888 0.07118 0.0
N419 N 0.88621 0.93792 0.16062 0.0
C420 C 0.86538 0.84624 0.09376 0.0
C421 C 0.87779 0.90616 0.13998 0.0
N422 N 0.80129 0.85245 0.07822 0.0
N423 N 0.92859 0.88526 0.16192 0.0
H424 H 0.86791 0.95442 0.16227 0.0
H425 H 0.91255 0.94944 0.17531 0.0
H426 H 0.94574 0.86749 0.16184 0.0
H427 H 0.92972 0.90041 0.18165 0.0
H428 H 0.79048 0.82668 0.06308 0.0
H429 H 0.78006 0.86575 0.08015 0.0
H430 H 0.84076 0.81278 0.05342 0.0
H431 H 0.88003 0.80258 0.07015 0.0
C432 C 0.14626 0.01551 0.14432 0.0
C433 C 0.14149 0.03948 0.1212 0.0
C434 C 0.09217 0.96913 0.09572 0.0
C435 C 0.09109 0.94486 0.12089 0.0
N436 N 0.11895 0.9439 0.16842 0.0
N437 N 0.10909 0.04066 0.07539 0.0
C438 C 0.11904 0.96783 0.14492 0.0
C439 C 0.11475 0.01673 0.09685 0.0
N440 N 0.17714 0.03847 0.16547 0.0
N441 N 0.07175 0.94721 0.07067 0.0
H442 H 0.12655 0.07565 0.07464 0.0
H443 H 0.0849 0.02608 0.05926 0.0
H444 H 0.05294 0.91259 0.0684 0.0
H445 H 0.07658 0.96344 0.05094 0.0
H446 H 0.18539 0.02322 0.18177 0.0
H447 H 0.19717 0.07339 0.16552 0.0
H448 H 0.13395 0.95833 0.18807 0.0
H449 H 0.10263 0.9089 0.16851 0.0
C450 C 0.12208 0.98106 0.85194 0.0
C451 C 0.09432 0.95836 0.876 0.0
C452 C 0.10678 0.02972 0.89587 0.0
C453 C 0.13006 0.0516 0.87017 0.0
N454 N 0.15835 0.04887 0.82295 0.0
N455 N 0.05443 0.95961 0.91882 0.0
C456 C 0.13743 0.02749 0.84798 0.0
C457 C 0.08561 0.98231 0.89767 0.0
N458 N 0.13441 0.95826 0.83329 0.0
N459 N 0.1041 0.05405 0.91844 0.0
H460 H 0.03749 0.92485 0.92105 0.0
H461 H 0.04227 0.97478 0.93282 0.0
H462 H 0.11591 0.08838 0.9175 0.0
H463 H 0.09294 0.04075 0.93899 0.0
H464 H 0.15791 0.97354 0.81682 0.0
H465 H 0.12381 0.92429 0.8358 0.0
H466 H 0.16017 0.03231 0.80459 0.0
H467 H 0.17205 0.08332 0.81999 0.0
C468 C 0.0323 0.18187 0.83862 0.0
C469 C 0.05212 0.18952 0.86631 0.0
C470 C 0.97904 0.14089 0.88847 0.0
C471 C 0.9585 0.13272 0.86066 0.0
N472 N 0.96388 0.15644 0.81109 0.0
N473 N 0.04345 0.19053 0.91774 0.0
C474 C 0.98466 0.15687 0.83628 0.0
C475 C 0.025 0.17392 0.89128 0.0
N476 N 0.05895 0.19685 0.81458 0.0
N477 N 0.95649 0.11496 0.91181 0.0
H478 H 0.07704 0.21549 0.92009 0.0
H479 H 0.02447 0.18341 0.93663 0.0
H480 H 0.92355 0.08855 0.91133 0.0
H481 H 0.97218 0.11674 0.93138 0.0
H482 H 0.04664 0.18771 0.79364 0.0
H483 H 0.09387 0.21664 0.81575 0.0
H484 H 0.98093 0.1763 0.79334 0.0
H485 H 0.92897 0.13972 0.80907 0.0
C486 C 0.91747 0.90792 0.84436 0.0
C487 C 0.90196 0.87344 0.86542 0.0
C488 C 0.85468 0.89984 0.88751 0.0
C489 C 0.87258 0.93602 0.86764 0.0
N490 N 0.90809 0.96611 0.82188 0.0
N491 N 0.84761 0.8286 0.90148 0.0
C492 C 0.89964 0.93711 0.84422 0.0
C493 C 0.86746 0.86663 0.88504 0.0
N494 N 0.95154 0.91495 0.82594 0.0
N495 N 0.82771 0.89873 0.90962 0.0
H496 H 0.85667 0.80398 0.89973 0.0
H497 H 0.81989 0.81952 0.91476 0.0
H498 H 0.81649 0.92161 0.91137 0.0
H499 H 0.81787 0.87639 0.92683 0.0
H500 H 0.96836 0.94321 0.81288 0.0
H501 H 0.96482 0.89372 0.82474 0.0
H502 H 0.92438 0.966 0.8029 0.0
H503 H 0.89451 0.98714 0.82117 0.0
C504 C 0.65664 0.43186 0.48762 0.0
C505 C 0.66945 0.45461 0.46072 0.0
C506 C 0.59149 0.41235 0.44387 0.0
C507 C 0.58044 0.38485 0.46874 0.0
N508 N 0.60021 0.36819 0.51496 0.0
N509 N 0.65037 0.46967 0.41382 0.0
C510 C 0.61221 0.39505 0.49107 0.0
C511 C 0.63699 0.44627 0.43919 0.0
N512 N 0.68725 0.44495 0.50954 0.0
N513 N 0.55855 0.40539 0.42461 0.0
H514 H 0.68294 0.49647 0.41064 0.0
H515 H 0.63005 0.46208 0.39568 0.0
H516 H 0.52514 0.3801 0.42716 0.0
H517 H 0.56333 0.42626 0.40716 0.0
H518 H 0.67933 0.43244 0.53048 0.0
H519 H 0.72033 0.47106 0.5075 0.0
H520 H 0.62271 0.36986 0.53051 0.0
H521 H 0.56728 0.34266 0.51876 0.0
C522 C 0.48796 0.1749 0.49973 0.0
C523 C 0.50036 0.2151 0.51518 0.0
C524 C 0.57885 0.23442 0.51511 0.0
C525 C 0.56762 0.19731 0.49657 0.0
N526 N 0.51105 0.12435 0.47951 0.0
N527 N 0.55108 0.26518 0.5514 0.0
C528 C 0.52183 0.1648 0.49159 0.0
C529 C 0.54374 0.23909 0.52751 0.0
N530 N 0.44393 0.14711 0.49266 0.0
N531 N 0.62264 0.26679 0.51946 0.0
H532 H 0.52475 0.26506 0.56269 0.0
H533 H 0.58176 0.28134 0.56221 0.0
H534 H 0.64971 0.26571 0.51022 0.0
H535 H 0.63183 0.29673 0.53033 0.0
H536 H 0.4327 0.12006 0.47849 0.0
H537 H 0.41846 0.15177 0.50121 0.0
H538 H 0.47832 0.09792 0.4769 0.0
H539 H 0.53529 0.1158 0.47424 0.0
C540 C 0.82442 0.39296 0.44093 0.0
C541 C 0.8289 0.41843 0.46624 0.0
C542 C 0.78569 0.34946 0.4942 0.0
C543 C 0.77971 0.32428 0.46864 0.0
N544 N 0.8052 0.32029 0.42094 0.0
N545 N 0.82628 0.42199 0.51806 0.0
C546 C 0.80341 0.34561 0.44312 0.0
C547 C 0.81385 0.39686 0.49333 0.0
N548 N 0.8366 0.41324 0.41449 0.0
N549 N 0.76221 0.32852 0.51865 0.0
H550 H 0.84738 0.45678 0.51777 0.0
H551 H 0.81946 0.40818 0.53871 0.0
H552 H 0.74206 0.29374 0.52024 0.0
H553 H 0.7608 0.34567 0.53684 0.0
H554 H 0.82866 0.39544 0.39509 0.0
H555 H 0.8519 0.44776 0.41152 0.0
H556 H 0.82506 0.33399 0.40259 0.0
H557 H 0.79046 0.28548 0.42247 0.0
C558 C 0.80238 0.2873 0.19892 0.0
C559 C 0.77087 0.26716 0.22171 0.0
C560 C 0.77796 0.33933 0.23426 0.0
C561 C 0.81092 0.36017 0.21223 0.0
N562 N 0.86039 0.35631 0.17688 0.0
N563 N 0.73837 0.27539 0.26589 0.0
C564 C 0.82503 0.33481 0.19556 0.0
C565 C 0.76186 0.29372 0.24094 0.0
N566 N 0.80922 0.26088 0.1799 0.0
N567 N 0.75976 0.36206 0.24757 0.0
H568 H 0.72686 0.24215 0.27175 0.0
H569 H 0.73451 0.29424 0.28212 0.0
H570 H 0.76922 0.3952 0.24289 0.0
H571 H 0.73202 0.34669 0.2613 0.0
H572 H 0.82789 0.27287 0.16095 0.0
H573 H 0.79393 0.22615 0.18225 0.0
H574 H 0.87513 0.34043 0.16606 0.0
H575 H 0.8774 0.39103 0.17395 0.0
C576 C 0.68311 0.47322 0.188 0.0
C577 C 0.70688 0.46686 0.21068 0.0
C578 C 0.63725 0.40389 0.22936 0.0
C579 C 0.61284 0.41169 0.20774 0.0
N580 N 0.61069 0.45665 0.16881 0.0
N581 N 0.70608 0.43394 0.25674 0.0
C582 C 0.63525 0.44729 0.18769 0.0
C583 C 0.68374 0.43457 0.23253 0.0
N584 N 0.70637 0.50292 0.16637 0.0
N585 N 0.61659 0.36591 0.24592 0.0
H586 H 0.74019 0.45633 0.26003 0.0
H587 H 0.69002 0.4143 0.27478 0.0
H588 H 0.58264 0.34184 0.24417 0.0
H589 H 0.634 0.35601 0.25955 0.0
H590 H 0.69152 0.5058 0.14758 0.0
H591 H 0.74131 0.52307 0.16646 0.0
H592 H 0.62453 0.48474 0.15548 0.0
H593 H 0.57568 0.43784 0.16794 0.0
C594 C 0.52402 0.20338 0.23964 0.0
C595 C 0.49906 0.20326 0.2154 0.0
C596 C 0.52665 0.1611 0.18778 0.0
C597 C 0.55691 0.16791 0.21057 0.0
N598 N 0.59146 0.20552 0.25557 0.0
N599 N 0.47881 0.18519 0.16526 0.0
C600 C 0.55737 0.19146 0.23593 0.0
C601 C 0.50049 0.18252 0.18916 0.0
N602 N 0.51544 0.21437 0.26637 0.0
N603 N 0.52257 0.13381 0.1651 0.0
H604 H 0.45918 0.20035 0.16553 0.0
H605 H 0.48277 0.17515 0.14473 0.0
H606 H 0.54133 0.11775 0.16355 0.0
H607 H 0.49805 0.12408 0.14921 0.0
H608 H 0.53008 0.2112 0.28521 0.0
H609 H 0.48986 0.22159 0.27002 0.0
H610 H 0.59538 0.22667 0.27286 0.0
H611 H 0.61876 0.20068 0.25289 0.0
C612 C 0.33276 0.75091 0.74689 0.0
C613 C 0.31468 0.76584 0.76902 0.0
C614 C 0.38958 0.81055 0.79039 0.0
C615 C 0.40644 0.7917 0.77006 0.0
N616 N 0.39149 0.73546 0.73363 0.0
N617 N 0.324 0.80606 0.81353 0.0
C618 C 0.37745 0.75982 0.7494 0.0
C619 C 0.34257 0.79458 0.79132 0.0
N620 N 0.30719 0.72764 0.72358 0.0
N621 N 0.41863 0.8446 0.80812 0.0
H622 H 0.29006 0.79658 0.81411 0.0
H623 H 0.34152 0.82268 0.83212 0.0
H624 H 0.45323 0.85714 0.80788 0.0
H625 H 0.40905 0.86281 0.82139 0.0
H626 H 0.32054 0.72096 0.70525 0.0
H627 H 0.27331 0.71757 0.72148 0.0
H628 H 0.37025 0.7085 0.72045 0.0
H629 H 0.42301 0.73861 0.73614 0.0
C630 C 0.23565 0.51284 0.80193 0.0
C631 C 0.2645 0.5256 0.77743 0.0
C632 C 0.25324 0.58914 0.76881 0.0
C633 C 0.22199 0.57476 0.79202 0.0
N634 N 0.17867 0.52032 0.82851 0.0
N635 N 0.29295 0.56968 0.73391 0.0
C636 C 0.21173 0.53575 0.80798 0.0
C637 C 0.27108 0.56199 0.75984 0.0
N638 N 0.2326 0.48017 0.82001 0.0
N639 N 0.26741 0.62975 0.75595 0.0
H640 H 0.3066 0.55063 0.72635 0.0
H641 H 0.29387 0.59218 0.71859 0.0
H642 H 0.25491 0.65074 0.76135 0.0
H643 H 0.29443 0.64442 0.74164 0.0
H644 H 0.21597 0.47253 0.83982 0.0
H645 H 0.24957 0.4627 0.81624 0.0
H646 H 0.16624 0.48959 0.8389 0.0
H647 H 0.16125 0.53693 0.83366 0.0
C648 C 0.52839 0.68711 0.79079 0.0
C649 C 0.542 0.70075 0.76181 0.0
C650 C 0.51587 0.6228 0.74813 0.0
C651 C 0.49236 0.60904 0.7747 0.0
N652 N 0.49786 0.62584 0.82543 0.0
N653 N 0.55333 0.68247 0.71314 0.0
C654 C 0.50542 0.64058 0.79752 0.0
C655 C 0.53834 0.66902 0.7407 0.0
N656 N 0.5361 0.71858 0.81148 0.0
N657 N 0.51809 0.59183 0.7308 0.0
H658 H 0.57128 0.71606 0.70702 0.0
H659 H 0.5461 0.66025 0.69598 0.0
H660 H 0.50516 0.55865 0.73741 0.0
H661 H 0.53734 0.59997 0.71201 0.0
H662 H 0.52232 0.71079 0.83217 0.0
H663 H 0.55556 0.75299 0.80755 0.0
H664 H 0.50876 0.647 0.84336 0.0
H665 H 0.48544 0.59213 0.83047 0.0
C666 C 0.47237 0.66372 0.50195 0.0
C667 C 0.46198 0.69283 0.48689 0.0
C668 C 0.38921 0.63004 0.47246 0.0
C669 C 0.39648 0.60248 0.49172 0.0
N670 N 0.44809 0.58718 0.51683 0.0
N671 N 0.42029 0.70312 0.4494 0.0
C672 C 0.43961 0.61738 0.50348 0.0
C673 C 0.4238 0.67544 0.46888 0.0
N674 N 0.51244 0.68138 0.51612 0.0
N675 N 0.34828 0.61384 0.4596 0.0
H676 H 0.4457 0.73649 0.44693 0.0
H677 H 0.39455 0.69241 0.43433 0.0
H678 H 0.32314 0.58023 0.461 0.0
H679 H 0.33878 0.63361 0.44814 0.0
H680 H 0.52117 0.66332 0.52995 0.0
H681 H 0.53707 0.71515 0.51395 0.0
H682 H 0.47921 0.59497 0.52514 0.0
H683 H 0.42409 0.55303 0.51769 0.0
C684 C 0.31625 0.81204 0.53844 0.0
C685 C 0.2861 0.76932 0.52672 0.0
C686 C 0.34833 0.76351 0.50598 0.0
C687 C 0.379 0.80574 0.51861 0.0
N688 N 0.39245 0.87556 0.53941 0.0
N689 N 0.27125 0.71096 0.49237 0.0
C690 C 0.36293 0.83184 0.53236 0.0
C691 C 0.30156 0.74748 0.50795 0.0
N692 N 0.30046 0.83251 0.55645 0.0
N693 N 0.36331 0.73698 0.49421 0.0
H694 H 0.23669 0.69851 0.49359 0.0
H695 H 0.28042 0.69588 0.47627 0.0
H696 H 0.39708 0.74686 0.49218 0.0
H697 H 0.34211 0.70364 0.48824 0.0
H698 H 0.32116 0.86115 0.5685 0.0
H699 H 0.26622 0.81942 0.56032 0.0
H700 H 0.3826 0.89759 0.54736 0.0
H701 H 0.4267 0.89096 0.53468 0.0
C702 C 0.18354 0.54799 0.48643 0.0
C703 C 0.18781 0.52463 0.51015 0.0
C704 C 0.13263 0.53512 0.53753 0.0
C705 C 0.13554 0.56579 0.51612 0.0
N706 N 0.16029 0.5996 0.46926 0.0
N707 N 0.16522 0.49319 0.55789 0.0
C708 C 0.1594 0.57106 0.49002 0.0
C709 C 0.16103 0.51628 0.53533 0.0
N710 N 0.20275 0.5479 0.46053 0.0
N711 N 0.10362 0.52504 0.56025 0.0
H712 H 0.18409 0.4773 0.5566 0.0
H713 H 0.1515 0.49106 0.5783 0.0
H714 H 0.08341 0.53932 0.56286 0.0
H715 H 0.09681 0.50002 0.57527 0.0
H716 H 0.19835 0.56136 0.44159 0.0
H717 H 0.22005 0.53055 0.45746 0.0
H718 H 0.18148 0.60959 0.45134 0.0
H719 H 0.14058 0.61468 0.47055 0.0
C720 C 0.19436 0.18892 0.02096 0.0
C721 C 0.1766 0.2125 0.03615 0.0
C722 C 0.15423 0.23051 0.9902 0.0
C723 C 0.16667 0.20216 0.97569 0.0
N724 N 0.19292 0.14924 0.97731 0.0
N725 N 0.13283 0.24958 0.03559 0.0
C726 C 0.18541 0.18009 0.99103 0.0
C727 C 0.15501 0.23205 0.02088 0.0
N728 N 0.2209 0.17605 0.03493 0.0
N729 N 0.14238 0.25652 0.97461 0.0
H730 H 0.1314 0.25041 0.05806 0.0
H731 H 0.1123 0.25957 0.02554 0.0
H732 H 0.14195 0.25643 0.95207 0.0
H733 H 0.13728 0.28119 0.98387 0.0
H734 H 0.2386 0.16304 0.02435 0.0
H735 H 0.22884 0.18242 0.05674 0.0
H736 H 0.20128 0.12807 0.98818 0.0
H737 H 0.18728 0.14209 0.95529 0.0
C738 C 0.82223 0.05539 0.98446 0.0
C739 C 0.80902 0.01494 0.96916 0.0
C740 C 0.79296 0.9734 0.01452 0.0
C741 C 0.80651 0.01397 0.02994 0.0
N742 N 0.82209 0.09035 0.03005 0.0
N743 N 0.77012 0.93426 0.96854 0.0
C744 C 0.81717 0.05395 0.01498 0.0
C745 C 0.79039 0.9735 0.98391 0.0
N746 N 0.84194 0.09541 0.97006 0.0
N747 N 0.78562 0.93562 0.02876 0.0
H748 H 0.76733 0.93355 0.94606 0.0
H749 H 0.75221 0.90273 0.97809 0.0
H750 H 0.78702 0.93371 0.05113 0.0
H751 H 0.78131 0.90695 0.01825 0.0
H752 H 0.85732 0.12647 0.98043 0.0
H753 H 0.84549 0.09774 0.94764 0.0
H754 H 0.82589 0.11917 0.02022 0.0
H755 H 0.81796 0.08997 0.05243 0.0
C756 C 0.92366 0.76225 0.96614 0.0
C757 C 0.96248 0.77053 0.95036 0.0
C758 C 0.0081 0.79721 0.99421 0.0
C759 C 0.96914 0.78828 0.01005 0.0
N760 N 0.8884 0.75086 0.01317 0.0
N761 N 0.03834 0.78442 0.95012 0.0
C762 C 0.92639 0.76705 -0.00335 0.0
C763 C 0.00365 0.78417 0.96473 0.0
N764 N 0.88507 0.75265 0.95198 0.0
N765 N 0.04959 0.82051 0.00672 0.0
H766 H 0.03573 0.77457 0.92853 0.0
H767 H 0.06781 0.79003 0.96004 0.0
H768 H 0.05446 0.83103 0.02823 0.0
H769 H 0.0795 0.83253 -0.00479 0.0
H770 H 0.85766 0.75185 0.96219 0.0
H771 H 0.88145 0.74874 0.92963 0.0
H772 H 0.85611 0.7314 0.00486 0.0
H773 H 0.88935 0.75296 0.03568 0.0
C774 C 0.89484 0.57053 0.32499 0.0
C775 C 0.86021 0.53203 0.31095 0.0
C776 C 0.80853 0.5216 0.35044 0.0
C777 C 0.84458 0.55615 0.36628 0.0
N778 N 0.92435 0.60857 0.37056 0.0
N779 N 0.78709 0.46492 0.31342 0.0
C780 C 0.88843 0.57956 0.35408 0.0
C781 C 0.81778 0.50589 0.32448 0.0
N782 N 0.93325 0.59922 0.31036 0.0
N783 N 0.76526 0.50447 0.35983 0.0
H784 H 0.79345 0.45092 0.29526 0.0
H785 H 0.75736 0.44274 0.32405 0.0
H786 H 0.75699 0.51631 0.37829 0.0
H787 H 0.73746 0.48213 0.34765 0.0
H788 H 0.95747 0.63021 0.31862 0.0
H789 H 0.939 0.59402 0.28892 0.0
H790 H 0.95752 0.6225 0.3636 0.0
H791 H 0.92152 0.61572 0.3921 0.0
C792 C 0.48946 0.2822 0.3351 0.0
C793 C 0.44834 0.26954 0.3208 0.0
C794 C 0.40736 0.24022 0.36629 0.0
C795 C 0.44889 0.25742 0.38099 0.0
N796 N 0.52986 0.30375 0.38029 0.0
N797 N 0.36892 0.24338 0.32343 0.0
C798 C 0.49011 0.28084 0.36568 0.0
C799 C 0.40739 0.25028 0.33654 0.0
N800 N 0.52765 0.29384 0.31956 0.0
N801 N 0.36796 0.2133 0.38057 0.0
H802 H 0.36776 0.2512 0.30182 0.0
H803 H 0.33915 0.23387 0.33459 0.0
H804 H 0.3667 0.20494 0.40233 0.0
H805 H 0.33695 0.19599 0.37026 0.0
H806 H 0.55713 0.29847 0.32896 0.0
H807 H 0.52886 0.29449 0.29705 0.0
H808 H 0.56027 0.32553 0.3702 0.0
H809 H 0.53199 0.30472 0.40277 0.0
C810 C 0.68046 0.18341 0.36591 0.0
C811 C 0.66933 0.14741 0.38518 0.0
C812 C 0.63577 0.09344 0.34536 0.0
C813 C 0.64417 0.12924 0.32661 0.0
N814 N 0.66505 0.20678 0.32024 0.0
N815 N 0.62842 0.06776 0.39481 0.0
C816 C 0.6638 0.17383 0.33723 0.0
C817 C 0.64475 0.10223 0.37536 0.0
N818 N 0.70849 0.22672 0.37458 0.0
N819 N 0.62066 0.05137 0.33438 0.0
H820 H 0.63371 0.07279 0.41701 0.0
H821 H 0.60622 0.03445 0.38928 0.0
H822 H 0.61328 0.04357 0.31255 0.0
H823 H 0.6188 0.02506 0.34645 0.0
H824 H 0.72174 0.25393 0.36049 0.0
H825 H 0.7219 0.23521 0.39533 0.0
H826 H 0.67458 0.23883 0.32783 0.0
H827 H 0.65244 0.20088 0.29925 0.0
C828 C 0.53241 0.76789 0.60538 0.0
C829 C 0.54726 0.80978 0.59167 0.0
C830 C 0.54544 0.84349 0.63794 0.0
C831 C 0.53365 0.8025 0.65201 0.0
N832 N 0.52532 0.72869 0.65011 0.0
N833 N 0.57789 0.8897 0.59554 0.0
C834 C 0.52999 0.76556 0.63602 0.0
C835 C 0.55698 0.84832 0.60821 0.0
N836 N 0.51824 0.72986 0.58919 0.0
N837 N 0.54296 0.87687 0.65241 0.0
H838 H 0.58728 0.8944 0.57383 0.0
H839 H 0.58994 0.91955 0.60712 0.0
H840 H 0.5329 0.87425 0.67393 0.0
H841 H 0.54649 0.90539 0.64228 0.0
H842 H 0.50213 0.6977 0.59798 0.0
H843 H 0.51911 0.72999 0.56669 0.0
H844 H 0.52727 0.70285 0.63974 0.0
H845 H 0.52366 0.72581 0.67255 0.0
C846 C 0.16435 0.70293 0.64779 0.0
C847 C 0.13779 0.66428 0.63063 0.0
C848 C 0.10511 0.61928 0.6742 0.0
C849 C 0.12975 0.65848 0.6913 0.0
N850 N 0.17318 0.73926 0.69415 0.0
N851 N 0.07419 0.58908 0.62708 0.0
C852 C 0.15633 0.70089 0.67799 0.0
C853 C 0.1054 0.62347 0.64371 0.0
N854 N 0.19887 0.74077 0.63566 0.0
N855 N 0.08361 0.57781 0.68677 0.0
H856 H 0.07251 0.59137 0.60469 0.0
H857 H 0.04716 0.56022 0.63575 0.0
H858 H 0.08324 0.57287 0.70899 0.0
H859 H 0.06956 0.54804 0.67493 0.0
H860 H 0.22226 0.76804 0.64781 0.0
H861 H 0.20687 0.74346 0.61373 0.0
H862 H 0.18929 0.77128 0.68515 0.0
H863 H 0.16683 0.73897 0.71624 0.0
C864 C 0.35567 0.51715 0.6125 0.0
C865 C 0.30914 0.49991 0.60722 0.0
C866 C 0.29319 0.48778 0.65912 0.0
C867 C 0.33959 0.50471 0.66431 0.0
N868 N 0.41334 0.52616 0.64631 0.0
N869 N 0.23256 0.45902 0.62424 0.0
C870 C 0.37035 0.51663 0.64107 0.0
C871 C 0.27756 0.48239 0.6302 0.0
N872 N 0.38615 0.53572 0.59049 0.0
N873 N 0.26428 0.47834 0.68183 0.0
H874 H 0.21985 0.45366 0.60327 0.0
H875 H 0.2079 0.44134 0.63972 0.0
H876 H 0.27382 0.47965 0.70331 0.0
H877 H 0.23147 0.4718 0.67957 0.0
H878 H 0.42074 0.55432 0.59363 0.0
H879 H 0.37705 0.53496 0.56902 0.0
H880 H 0.43617 0.53032 0.6301 0.0
H881 H 0.42513 0.52596 0.66701 0.0
loop_
_geom_bond_atom_site_label_1
_geom_bond_atom_site_label_2
_geom_bond_distance
_geom_bond_site_symmetry_2
_ccdc_geom_bond_type
C0 O1 1.160 . S
C0 O7 1.185 . S
O1 C0 1.160 . S
O2 Zn3 1.899 . S
O2 C10 1.284 . S
Zn3 O2 1.899 . S
Zn3 O4 2.032 . S
Zn3 O7 2.086 . S
Zn3 O12 1.977 . S
O4 Zn3 2.032 . S
O4 C8 1.278 . S
C5 O6 1.203 . S
C5 O12 1.267 . S
O6 C5 1.203 . S
O7 C0 1.185 . S
O7 Zn3 2.086 . S
C8 O4 1.278 . S
C8 O9 1.211 . S
O9 C8 1.211 . S
C10 O2 1.284 . S
C10 O11 1.273 . S
O11 C10 1.273 . S
O12 Zn3 1.977 . S
O12 C5 1.267 . S
C13 O14 1.160 . S
C13 O20 1.185 1_545 S
O14 C13 1.160 . S
O15 Zn16 1.899 1_545 S
O15 C23 1.284 . S
Zn16 O15 1.899 1_565 S
Zn16 O17 2.032 1_565 S
Zn16 O20 2.086 . S
Zn16 O25 1.977 . S
O17 Zn16 2.032 1_545 S
O17 C21 1.278 1_545 S
C18 O19 1.203 . S
C18 O25 1.267 . S
O19 C18 1.203 . S
O20 C13 1.185 1_565 S
O20 Zn16 2.086 . S
C21 O17 1.278 1_565 S
C21 O22 1.211 . S
O22 C21 1.211 . S
C23 O15 1.284 . S
C23 O24 1.273 . S
O24 C23 1.273 . S
O25 Zn16 1.977 . S
O25 C18 1.267 . S
C26 O27 1.160 . S
C26 O33 1.185 1_655 S
O27 C26 1.160 . S
O28 Zn29 1.899 1_655 S
O28 C36 1.284 . S
Zn29 O28 1.899 1_455 S
Zn29 O30 2.032 1_455 S
Zn29 O33 2.086 . S
Zn29 O38 1.977 . S
O30 Zn29 2.032 1_655 S
O30 C34 1.278 1_655 S
C31 O32 1.203 . S
C31 O38 1.267 . S
O32 C31 1.203 . S
O33 C26 1.185 1_455 S
O33 Zn29 2.086 . S
C34 O30 1.278 1_455 S
C34 O35 1.211 . S
O35 C34 1.211 . S
C36 O28 1.284 . S
C36 O37 1.273 . S
O37 C36 1.273 . S
O38 Zn29 1.977 . S
O38 C31 1.267 . S
C39 O40 1.160 . S
C39 O46 1.185 . S
O40 C39 1.160 . S
O41 Zn42 1.899 . S
O41 C49 1.284 . S
Zn42 O41 1.899 . S
Zn42 O43 2.032 . S
Zn42 O46 2.086 . S
Zn42 O51 1.977 . S
O43 Zn42 2.032 . S
O43 C47 1.278 . S
C44 O45 1.203 . S
C44 O51 1.267 . S
O45 C44 1.203 . S
O46 C39 1.185 . S
O46 Zn42 2.086 . S
C47 O43 1.278 . S
C47 O48 1.211 . S
O48 C47 1.211 . S
C49 O41 1.284 . S
C49 O50 1.273 . S
O50 C49 1.273 . S
O51 Zn42 1.977 . S
O51 C44 1.267 . S
C52 O53 1.160 . S
C52 O59 1.185 1_565 S
O53 C52 1.160 . S
O54 Zn55 1.899 1_565 S
O54 C62 1.284 . S
Zn55 O54 1.899 1_545 S
Zn55 O56 2.032 1_545 S
Zn55 O59 2.086 . S
Zn55 O64 1.977 . S
O56 Zn55 2.032 1_565 S
O56 C60 1.278 1_565 S
C57 O58 1.203 . S
C57 O64 1.267 . S
O58 C57 1.203 . S
O59 C52 1.185 1_545 S
O59 Zn55 2.086 . S
C60 O56 1.278 1_545 S
C60 O61 1.211 . S
O61 C60 1.211 . S
C62 O54 1.284 . S
C62 O63 1.273 . S
O63 C62 1.273 . S
O64 Zn55 1.977 . S
O64 C57 1.267 . S
C65 O66 1.160 . S
C65 O72 1.185 1_455 S
O66 C65 1.160 . S
O67 Zn68 1.899 1_455 S
O67 C75 1.284 . S
Zn68 O67 1.899 1_655 S
Zn68 O69 2.032 1_655 S
Zn68 O72 2.086 . S
Zn68 O77 1.977 . S
O69 Zn68 2.032 1_455 S
O69 C73 1.278 1_455 S
C70 O71 1.203 . S
C70 O77 1.267 . S
O71 C70 1.203 . S
O72 C65 1.185 1_655 S
O72 Zn68 2.086 . S
C73 O69 1.278 1_655 S
C73 O74 1.211 . S
O74 C73 1.211 . S
C75 O67 1.284 . S
C75 O76 1.273 . S
O76 C75 1.273 . S
O77 Zn68 1.977 . S
O77 C70 1.267 . S
C78 O79 1.160 . S
C78 O85 1.185 . S
O79 C78 1.160 . S
O80 Zn81 1.899 . S
O80 C88 1.284 . S
Zn81 O80 1.899 . S
Zn81 O82 2.032 . S
Zn81 O85 2.086 . S
Zn81 O90 1.977 . S
O82 Zn81 2.032 . S
O82 C86 1.278 . S
C83 O84 1.203 . S
C83 O90 1.267 . S
O84 C83 1.203 . S
O85 C78 1.185 . S
O85 Zn81 2.086 . S
C86 O82 1.278 . S
C86 O87 1.211 . S
O87 C86 1.211 . S
C88 O80 1.284 . S
C88 O89 1.273 . S
O89 C88 1.273 . S
O90 Zn81 1.977 . S
O90 C83 1.267 . S
C91 O92 1.160 . S
C91 O98 1.185 . S
O92 C91 1.160 . S
O93 Zn94 1.899 . S
O93 C101 1.284 . S
Zn94 O93 1.899 . S
Zn94 O95 2.032 . S
Zn94 O98 2.086 . S
Zn94 O103 1.977 . S
O95 Zn94 2.032 . S
O95 C99 1.278 . S
C96 O97 1.203 . S
C96 O103 1.267 . S
O97 C96 1.203 . S
O98 C91 1.185 . S
O98 Zn94 2.086 . S
C99 O95 1.278 . S
C99 O100 1.211 . S
O100 C99 1.211 . S
C101 O93 1.284 . S
C101 O102 1.273 . S
O102 C101 1.273 . S
O103 Zn94 1.977 . S
O103 C96 1.267 . S
C104 O105 1.160 . S
C104 O111 1.185 . S
O105 C104 1.160 . S
O106 Zn107 1.899 . S
O106 C114 1.284 . S
Zn107 O106 1.899 . S
Zn107 O108 2.032 . S
Zn107 O111 2.086 . S
Zn107 O116 1.977 . S
O108 Zn107 2.032 . S
O108 C112 1.278 . S
C109 O110 1.203 . S
C109 O116 1.267 . S
O110 C109 1.203 . S
O111 C104 1.185 . S
O111 Zn107 2.086 . S
C112 O108 1.278 . S
C112 O113 1.211 . S
O113 C112 1.211 . S
C114 O106 1.284 . S
C114 O115 1.273 . S
O115 C114 1.273 . S
O116 Zn107 1.977 . S
O116 C109 1.267 . S
C117 O118 1.160 . S
C117 O124 1.185 . S
O118 C117 1.160 . S
O119 Zn120 1.899 . S
O119 C127 1.284 . S
Zn120 O119 1.899 . S
Zn120 O121 2.032 . S
Zn120 O124 2.086 . S
Zn120 O129 1.977 . S
O121 Zn120 2.032 . S
O121 C125 1.278 . S
C122 O123 1.203 . S
C122 O129 1.267 . S
O123 C122 1.203 . S
O124 C117 1.185 . S
O124 Zn120 2.086 . S
C125 O121 1.278 . S
C125 O126 1.211 . S
O126 C125 1.211 . S
C127 O119 1.284 . S
C127 O128 1.273 . S
O128 C127 1.273 . S
O129 Zn120 1.977 . S
O129 C122 1.267 . S
C130 O131 1.160 . S
C130 O137 1.185 . S
O131 C130 1.160 . S
O132 Zn133 1.899 . S
O132 C140 1.284 . S
Zn133 O132 1.899 . S
Zn133 O134 2.032 . S
Zn133 O137 2.086 . S
Zn133 O142 1.977 . S
O134 Zn133 2.032 . S
O134 C138 1.278 . S
C135 O136 1.203 . S
C135 O142 1.267 . S
O136 C135 1.203 . S
O137 C130 1.185 . S
O137 Zn133 2.086 . S
C138 O134 1.278 . S
C138 O139 1.211 . S
O139 C138 1.211 . S
C140 O132 1.284 . S
C140 O141 1.273 . S
O141 C140 1.273 . S
O142 Zn133 1.977 . S
O142 C135 1.267 . S
C143 O144 1.160 . S
C143 O150 1.185 . S
O144 C143 1.160 . S
O145 Zn146 1.899 . S
O145 C153 1.284 . S
Zn146 O145 1.899 . S
Zn146 O147 2.032 . S
Zn146 O150 2.086 . S
Zn146 O155 1.977 . S
O147 Zn146 2.032 . S
O147 C151 1.278 . S
C148 O149 1.203 . S
C148 O155 1.267 . S
O149 C148 1.203 . S
O150 C143 1.185 . S
O150 Zn146 2.086 . S
C151 O147 1.278 . S
C151 O152 1.211 . S
O152 C151 1.211 . S
C153 O145 1.284 . S
C153 O154 1.273 . S
O154 C153 1.273 . S
O155 Zn146 1.977 . S
O155 C148 1.267 . S
C156 O157 1.160 . S
C156 O163 1.185 . S
O157 C156 1.160 . S
O158 Zn159 1.899 . S
O158 C166 1.284 . S
Zn159 O158 1.899 . S
Zn159 O160 2.032 . S
Zn159 O163 2.086 . S
Zn159 O168 1.977 . S
O160 Zn159 2.032 . S
O160 C164 1.278 . S
C161 O162 1.203 . S
C161 O168 1.267 . S
O162 C161 1.203 . S
O163 C156 1.185 . S
O163 Zn159 2.086 . S
C164 O160 1.278 . S
C164 O165 1.211 . S
O165 C164 1.211 . S
C166 O158 1.284 . S
C166 O167 1.273 . S
O167 C166 1.273 . S
O168 Zn159 1.977 . S
O168 C161 1.267 . S
C169 O170 1.160 . S
C169 O176 1.185 . S
O170 C169 1.160 . S
O171 Zn172 1.899 . S
O171 C179 1.284 . S
Zn172 O171 1.899 . S
Zn172 O173 2.032 . S
Zn172 O176 2.086 . S
Zn172 O181 1.977 . S
O173 Zn172 2.032 . S
O173 C177 1.278 . S
C174 O175 1.203 . S
C174 O181 1.267 . S
O175 C174 1.203 . S
O176 C169 1.185 . S
O176 Zn172 2.086 . S
C177 O173 1.278 . S
C177 O178 1.211 . S
O178 C177 1.211 . S
C179 O171 1.284 . S
C179 O180 1.273 . S
O180 C179 1.273 . S
O181 Zn172 1.977 . S
O181 C174 1.267 . S
C182 O183 1.160 . S
C182 O189 1.185 . S
O183 C182 1.160 . S
O184 Zn185 1.899 . S
O184 C192 1.284 . S
Zn185 O184 1.899 . S
Zn185 O186 2.032 . S
Zn185 O189 2.086 . S
Zn185 O194 1.977 . S
O186 Zn185 2.032 . S
O186 C190 1.278 . S
C187 O188 1.203 . S
C187 O194 1.267 . S
O188 C187 1.203 . S
O189 C182 1.185 . S
O189 Zn185 2.086 . S
C190 O186 1.278 . S
C190 O191 1.211 . S
O191 C190 1.211 . S
C192 O184 1.284 . S
C192 O193 1.273 . S
O193 C192 1.273 . S
O194 Zn185 1.977 . S
O194 C187 1.267 . S
C195 O196 1.160 . S
C195 O202 1.185 . S
O196 C195 1.160 . S
O197 Zn198 1.899 . S
O197 C205 1.284 . S
Zn198 O197 1.899 . S
Zn198 O199 2.032 . S
Zn198 O202 2.086 . S
Zn198 O207 1.977 . S
O199 Zn198 2.032 . S
O199 C203 1.278 . S
C200 O201 1.203 . S
C200 O207 1.267 . S
O201 C200 1.203 . S
O202 C195 1.185 . S
O202 Zn198 2.086 . S
C203 O199 1.278 . S
C203 O204 1.211 . S
O204 C203 1.211 . S
C205 O197 1.284 . S
C205 O206 1.273 . S
O206 C205 1.273 . S
O207 Zn198 1.977 . S
O207 C200 1.267 . S
C208 O209 1.160 . S
C208 O215 1.185 . S
O209 C208 1.160 . S
O210 Zn211 1.899 . S
O210 C218 1.284 . S
Zn211 O210 1.899 . S
Zn211 O212 2.032 . S
Zn211 O215 2.086 . S
Zn211 O220 1.977 . S
O212 Zn211 2.032 . S
O212 C216 1.278 . S
C213 O214 1.203 . S
C213 O220 1.267 . S
O214 C213 1.203 . S
O215 C208 1.185 . S
O215 Zn211 2.086 . S
C216 O212 1.278 . S
C216 O217 1.211 . S
O217 C216 1.211 . S
C218 O210 1.284 . S
C218 O219 1.273 . S
O219 C218 1.273 . S
O220 Zn211 1.977 . S
O220 C213 1.267 . S
C221 O222 1.160 . S
C221 O228 1.185 . S
O222 C221 1.160 . S
O223 Zn224 1.899 . S
O223 C231 1.284 . S
Zn224 O223 1.899 . S
Zn224 O225 2.032 . S
Zn224 O228 2.086 . S
Zn224 O233 1.977 . S
O225 Zn224 2.032 . S
O225 C229 1.278 . S
C226 O227 1.203 . S
C226 O233 1.267 . S
O227 C226 1.203 . S
O228 C221 1.185 . S
O228 Zn224 2.086 . S
C229 O225 1.278 . S
C229 O230 1.211 . S
O230 C229 1.211 . S
C231 O223 1.284 . S
C231 O232 1.273 . S
O232 C231 1.273 . S
O233 Zn224 1.977 . S
O233 C226 1.267 . S
C234 C235 1.363 . S
C234 C240 1.379 . S
C234 N242 1.356 . S
C235 C234 1.363 . S
C235 C241 1.363 . S
C236 C237 1.363 . S
C236 C241 1.379 . S
C236 N243 1.356 . S
C237 C236 1.363 . S
C237 C240 1.363 . S
N238 C240 1.356 . S
N238 H250 0.984 . S
N238 H251 0.985 . S
N239 C241 1.356 . S
N239 H244 0.984 . S
N239 H245 0.985 . S
C240 C234 1.379 . S
C240 C237 1.363 . S
C240 N238 1.356 . S
C241 C235 1.363 . S
C241 C236 1.379 . S
C241 N239 1.356 . S
N242 C234 1.356 . S
N242 H248 0.984 . S
N242 H249 0.984 . S
N243 C236 1.356 . S
N243 H246 0.984 . S
N243 H247 0.985 . S
H244 N239 0.984 . S
H245 N239 0.985 . S
H246 N243 0.984 . S
H247 N243 0.985 . S
H248 N242 0.984 . S
H249 N242 0.984 . S
H250 N238 0.984 . S
H251 N238 0.985 . S
C252 C253 1.363 . S
C252 C258 1.379 . S
C252 N260 1.356 . S
C253 C252 1.363 . S
C253 C259 1.363 . S
C254 C255 1.363 . S
C254 C259 1.379 . S
C254 N261 1.356 . S
C255 C254 1.363 . S
C255 C258 1.363 . S
N256 C258 1.356 . S
N256 H268 0.984 . S
N256 H269 0.985 . S
N257 C259 1.356 1_565 S
N257 H262 0.984 . S
N257 H263 0.985 . S
C258 C252 1.379 . S
C258 C255 1.363 . S
C258 N256 1.356 . S
C259 C253 1.363 . S
C259 C254 1.379 . S
C259 N257 1.356 1_545 S
N260 C252 1.356 . S
N260 H266 0.984 . S
N260 H267 0.984 . S
N261 C254 1.356 . S
N261 H264 0.984 . S
N261 H265 0.985 1_545 S
H262 N257 0.984 . S
H263 N257 0.985 . S
H264 N261 0.984 . S
H265 N261 0.985 1_565 S
H266 N260 0.984 . S
H267 N260 0.984 . S
H268 N256 0.984 . S
H269 N256 0.985 . S
C270 C271 1.363 . S
C270 C276 1.379 . S
C270 N278 1.356 . S
C271 C270 1.363 . S
C271 C277 1.363 . S
C272 C273 1.363 . S
C272 C277 1.379 . S
C272 N279 1.356 . S
C273 C272 1.363 . S
C273 C276 1.363 . S
N274 C276 1.356 1_455 S
N274 H286 0.984 . S
N274 H287 0.985 . S
N275 C277 1.356 . S
N275 H280 0.984 . S
N275 H281 0.985 . S
C276 C270 1.379 . S
C276 C273 1.363 . S
C276 N274 1.356 1_655 S
C277 C271 1.363 . S
C277 C272 1.379 . S
C277 N275 1.356 . S
N278 C270 1.356 . S
N278 H284 0.984 . S
N278 H285 0.984 . S
N279 C272 1.356 . S
N279 H282 0.984 . S
N279 H283 0.985 . S
H280 N275 0.984 . S
H281 N275 0.985 . S
H282 N279 0.984 . S
H283 N279 0.985 . S
H284 N278 0.984 . S
H285 N278 0.984 . S
H286 N274 0.984 . S
H287 N274 0.985 . S
C288 C289 1.363 . S
C288 C294 1.379 . S
C288 N296 1.356 . S
C289 C288 1.363 . S
C289 C295 1.363 . S
C290 C291 1.363 . S
C290 C295 1.379 . S
C290 N297 1.356 . S
C291 C290 1.363 . S
C291 C294 1.363 . S
N292 C294 1.356 . S
N292 H304 0.984 . S
N292 H305 0.985 . S
N293 C295 1.356 . S
N293 H298 0.984 . S
N293 H299 0.985 . S
C294 C288 1.379 . S
C294 C291 1.363 . S
C294 N292 1.356 . S
C295 C289 1.363 . S
C295 C290 1.379 . S
C295 N293 1.356 . S
N296 C288 1.356 . S
N296 H302 0.984 . S
N296 H303 0.984 . S
N297 C290 1.356 . S
N297 H300 0.984 . S
N297 H301 0.985 . S
H298 N293 0.984 . S
H299 N293 0.985 . S
H300 N297 0.984 . S
H301 N297 0.985 . S
H302 N296 0.984 . S
H303 N296 0.984 . S
H304 N292 0.984 . S
H305 N292 0.985 . S
C306 C307 1.363 . S
C306 C312 1.379 . S
C306 N314 1.356 . S
C307 C306 1.363 . S
C307 C313 1.363 . S
C308 C309 1.363 . S
C308 C313 1.379 . S
C308 N315 1.356 . S
C309 C308 1.363 . S
C309 C312 1.363 . S
N310 C312 1.356 . S
N310 H322 0.984 . S
N310 H323 0.985 . S
N311 C313 1.356 1_545 S
N311 H316 0.984 . S
N311 H317 0.985 . S
C312 C306 1.379 . S
C312 C309 1.363 . S
C312 N310 1.356 . S
C313 C307 1.363 . S
C313 C308 1.379 . S
C313 N311 1.356 1_565 S
N314 C306 1.356 . S
N314 H320 0.984 . S
N314 H321 0.984 . S
N315 C308 1.356 . S
N315 H318 0.984 . S
N315 H319 0.985 . S
H316 N311 0.984 . S
H317 N311 0.985 . S
H318 N315 0.984 . S
H319 N315 0.985 . S
H320 N314 0.984 . S
H321 N314 0.984 . S
H322 N310 0.984 . S
H323 N310 0.985 . S
C324 C325 1.363 . S
C324 C330 1.379 . S
C324 N332 1.356 . S
C325 C324 1.363 . S
C325 C331 1.363 . S
C326 C327 1.363 . S
C326 C331 1.379 . S
C326 N333 1.356 . S
C327 C326 1.363 . S
C327 C330 1.363 . S
N328 C330 1.356 . S
N328 H340 0.984 . S
N328 H341 0.985 . S
N329 C331 1.356 . S
N329 H334 0.984 . S
N329 H335 0.985 . S
C330 C324 1.379 . S
C330 C327 1.363 . S
C330 N328 1.356 . S
C331 C325 1.363 . S
C331 C326 1.379 . S
C331 N329 1.356 . S
N332 C324 1.356 . S
N332 H338 0.984 . S
N332 H339 0.984 . S
N333 C326 1.356 . S
N333 H336 0.984 . S
N333 H337 0.985 . S
H334 N329 0.984 . S
H335 N329 0.985 . S
H336 N333 0.984 . S
H337 N333 0.985 . S
H338 N332 0.984 . S
H339 N332 0.984 . S
H340 N328 0.984 . S
H341 N328 0.985 . S
C342 C343 1.363 . S
C342 C348 1.379 1_655 S
C342 N350 1.356 . S
C343 C342 1.363 . S
C343 C349 1.363 . S
C344 C345 1.363 . S
C344 C349 1.379 1_455 S
C344 N351 1.356 . S
C345 C344 1.363 . S
C345 C348 1.363 . S
N346 C348 1.356 . S
N346 H358 0.984 . S
N346 H359 0.985 . S
N347 C349 1.356 . S
N347 H352 0.984 . S
N347 H353 0.985 . S
C348 C342 1.379 1_455 S
C348 C345 1.363 . S
C348 N346 1.356 . S
C349 C343 1.363 . S
C349 C344 1.379 1_655 S
C349 N347 1.356 . S
N350 C342 1.356 . S
N350 H356 0.984 . S
N350 H357 0.984 . S
N351 C344 1.356 . S
N351 H354 0.984 . S
N351 H355 0.985 . S
H352 N347 0.984 . S
H353 N347 0.985 . S
H354 N351 0.984 . S
H355 N351 0.985 . S
H356 N350 0.984 . S
H357 N350 0.984 . S
H358 N346 0.984 . S
H359 N346 0.985 . S
C360 C361 1.363 . S
C360 C366 1.379 . S
C360 N368 1.356 . S
C361 C360 1.363 . S
C361 C367 1.363 . S
C362 C363 1.363 . S
C362 C367 1.379 . S
C362 N369 1.356 . S
C363 C362 1.363 . S
C363 C366 1.363 . S
N364 C366 1.356 . S
N364 H376 0.984 . S
N364 H377 0.985 . S
N365 C367 1.356 . S
N365 H370 0.984 . S
N365 H371 0.985 . S
C366 C360 1.379 . S
C366 C363 1.363 . S
C366 N364 1.356 . S
C367 C361 1.363 . S
C367 C362 1.379 . S
C367 N365 1.356 . S
N368 C360 1.356 . S
N368 H374 0.984 . S
N368 H375 0.984 . S
N369 C362 1.356 . S
N369 H372 0.984 . S
N369 H373 0.985 . S
H370 N365 0.984 . S
H371 N365 0.985 . S
H372 N369 0.984 . S
H373 N369 0.985 . S
H374 N368 0.984 . S
H375 N368 0.984 . S
H376 N364 0.984 . S
H377 N364 0.985 . S
C378 C379 1.363 . S
C378 C384 1.379 1_545 S
C378 N386 1.356 . S
C379 C378 1.363 . S
C379 C385 1.363 . S
C380 C381 1.363 . S
C380 C385 1.379 1_565 S
C380 N387 1.356 . S
C381 C380 1.363 . S
C381 C384 1.363 . S
N382 C384 1.356 . S
N382 H394 0.984 . S
N382 H395 0.985 . S
N383 C385 1.356 . S
N383 H388 0.984 . S
N383 H389 0.985 . S
C384 C378 1.379 1_565 S
C384 C381 1.363 . S
C384 N382 1.356 . S
C385 C379 1.363 . S
C385 C380 1.379 1_545 S
C385 N383 1.356 . S
N386 C378 1.356 . S
N386 H392 0.984 . S
N386 H393 0.984 . S
N387 C380 1.356 . S
N387 H390 0.984 . S
N387 H391 0.985 . S
H388 N383 0.984 . S
H389 N383 0.985 . S
H390 N387 0.984 . S
H391 N387 0.985 . S
H392 N386 0.984 . S
H393 N386 0.984 . S
H394 N382 0.984 . S
H395 N382 0.985 . S
C396 C397 1.363 . S
C396 C402 1.379 1_455 S
C396 N404 1.356 . S
C397 C396 1.363 . S
C397 C403 1.363 . S
C398 C399 1.363 . S
C398 C403 1.379 1_655 S
C398 N405 1.356 . S
C399 C398 1.363 . S
C399 C402 1.363 . S
N400 C402 1.356 . S
N400 H412 0.984 . S
N400 H413 0.985 . S
N401 C403 1.356 . S
N401 H406 0.984 . S
N401 H407 0.985 . S
C402 C396 1.379 1_655 S
C402 C399 1.363 . S
C402 N400 1.356 . S
C403 C397 1.363 . S
C403 C398 1.379 1_455 S
C403 N401 1.356 . S
N404 C396 1.356 . S
N404 H410 0.984 . S
N404 H411 0.984 . S
N405 C398 1.356 . S
N405 H408 0.984 . S
N405 H409 0.985 . S
H406 N401 0.984 . S
H407 N401 0.985 . S
H408 N405 0.984 . S
H409 N405 0.985 . S
H410 N404 0.984 . S
H411 N404 0.984 . S
H412 N400 0.984 . S
H413 N400 0.985 . S
C414 C415 1.363 . S
C414 C420 1.379 . S
C414 N422 1.356 . S
C415 C414 1.363 . S
C415 C421 1.363 . S
C416 C417 1.363 . S
C416 C421 1.379 . S
C416 N423 1.356 . S
C417 C416 1.363 . S
C417 C420 1.363 . S
N418 C420 1.356 . S
N418 H430 0.984 . S
N418 H431 0.985 . S
N419 C421 1.356 . S
N419 H424 0.984 . S
N419 H425 0.985 . S
C420 C414 1.379 . S
C420 C417 1.363 . S
C420 N418 1.356 . S
C421 C415 1.363 . S
C421 C416 1.379 . S
C421 N419 1.356 . S
N422 C414 1.356 . S
N422 H428 0.984 . S
N422 H429 0.984 . S
N423 C416 1.356 . S
N423 H426 0.984 . S
N423 H427 0.985 . S
H424 N419 0.984 . S
H425 N419 0.985 . S
H426 N423 0.984 . S
H427 N423 0.985 . S
H428 N422 0.984 . S
H429 N422 0.984 . S
H430 N418 0.984 . S
H431 N418 0.985 . S
C432 C433 1.363 . S
C432 C438 1.379 1_545 S
C432 N440 1.356 . S
C433 C432 1.363 . S
C433 C439 1.363 . S
C434 C435 1.363 . S
C434 C439 1.379 1_565 S
C434 N441 1.356 . S
C435 C434 1.363 . S
C435 C438 1.363 . S
N436 C438 1.356 . S
N436 H448 0.984 . S
N436 H449 0.985 . S
N437 C439 1.356 . S
N437 H442 0.984 . S
N437 H443 0.985 . S
C438 C432 1.379 1_565 S
C438 C435 1.363 . S
C438 N436 1.356 . S
C439 C433 1.363 . S
C439 C434 1.379 1_545 S
C439 N437 1.356 . S
N440 C432 1.356 . S
N440 H446 0.984 . S
N440 H447 0.984 . S
N441 C434 1.356 . S
N441 H444 0.984 . S
N441 H445 0.985 . S
H442 N437 0.984 . S
H443 N437 0.985 . S
H444 N441 0.984 . S
H445 N441 0.985 . S
H446 N440 0.984 . S
H447 N440 0.984 . S
H448 N436 0.984 . S
H449 N436 0.985 . S
C450 C451 1.363 . S
C450 C456 1.379 1_565 S
C450 N458 1.356 . S
C451 C450 1.363 . S
C451 C457 1.363 . S
C452 C453 1.363 . S
C452 C457 1.379 1_545 S
C452 N459 1.356 . S
C453 C452 1.363 . S
C453 C456 1.363 . S
N454 C456 1.356 . S
N454 H466 0.984 . S
N454 H467 0.985 . S
N455 C457 1.356 . S
N455 H460 0.984 . S
N455 H461 0.985 . S
C456 C450 1.379 1_545 S
C456 C453 1.363 . S
C456 N454 1.356 . S
C457 C451 1.363 . S
C457 C452 1.379 1_565 S
C457 N455 1.356 . S
N458 C450 1.356 . S
N458 H464 0.984 . S
N458 H465 0.984 . S
N459 C452 1.356 . S
N459 H462 0.984 . S
N459 H463 0.985 . S
H460 N455 0.984 . S
H461 N455 0.985 . S
H462 N459 0.984 . S
H463 N459 0.985 . S
H464 N458 0.984 . S
H465 N458 0.984 . S
H466 N454 0.984 . S
H467 N454 0.985 . S
C468 C469 1.363 . S
C468 C474 1.379 1_455 S
C468 N476 1.356 . S
C469 C468 1.363 . S
C469 C475 1.363 . S
C470 C471 1.363 . S
C470 C475 1.379 1_655 S
C470 N477 1.356 . S
C471 C470 1.363 . S
C471 C474 1.363 . S
N472 C474 1.356 . S
N472 H484 0.984 . S
N472 H485 0.985 . S
N473 C475 1.356 . S
N473 H478 0.984 . S
N473 H479 0.985 . S
C474 C468 1.379 1_655 S
C474 C471 1.363 . S
C474 N472 1.356 . S
C475 C469 1.363 . S
C475 C470 1.379 1_455 S
C475 N473 1.356 . S
N476 C468 1.356 . S
N476 H482 0.984 . S
N476 H483 0.984 . S
N477 C470 1.356 . S
N477 H480 0.984 . S
N477 H481 0.985 . S
H478 N473 0.984 . S
H479 N473 0.985 . S
H480 N477 0.984 . S
H481 N477 0.985 . S
H482 N476 0.984 . S
H483 N476 0.984 . S
H484 N472 0.984 . S
H485 N472 0.985 . S
C486 C487 1.363 . S
C486 C492 1.379 . S
C486 N494 1.356 . S
C487 C486 1.363 . S
C487 C493 1.363 . S
C488 C489 1.363 . S
C488 C493 1.379 . S
C488 N495 1.356 . S
C489 C488 1.363 . S
C489 C492 1.363 . S
N490 C492 1.356 . S
N490 H502 0.984 . S
N490 H503 0.985 . S
N491 C493 1.356 . S
N491 H496 0.984 . S
N491 H497 0.985 . S
C492 C486 1.379 . S
C492 C489 1.363 . S
C492 N490 1.356 . S
C493 C487 1.363 . S
C493 C488 1.379 . S
C493 N491 1.356 . S
N494 C486 1.356 . S
N494 H500 0.984 . S
N494 H501 0.984 . S
N495 C488 1.356 . S
N495 H498 0.984 . S
N495 H499 0.985 . S
H496 N491 0.984 . S
H497 N491 0.985 . S
H498 N495 0.984 . S
H499 N495 0.985 . S
H500 N494 0.984 . S
H501 N494 0.984 . S
H502 N490 0.984 . S
H503 N490 0.985 . S
C504 C505 1.363 . S
C504 C510 1.379 . S
C504 N512 1.356 . S
C505 C504 1.363 . S
C505 C511 1.363 . S
C506 C507 1.363 . S
C506 C511 1.379 . S
C506 N513 1.356 . S
C507 C506 1.363 . S
C507 C510 1.363 . S
N508 C510 1.356 . S
N508 H520 0.984 . S
N508 H521 0.985 . S
N509 C511 1.356 . S
N509 H514 0.984 . S
N509 H515 0.985 . S
C510 C504 1.379 . S
C510 C507 1.363 . S
C510 N508 1.356 . S
C511 C505 1.363 . S
C511 C506 1.379 . S
C511 N509 1.356 . S
N512 C504 1.356 . S
N512 H518 0.984 . S
N512 H519 0.984 . S
N513 C506 1.356 . S
N513 H516 0.984 . S
N513 H517 0.985 . S
H514 N509 0.984 . S
H515 N509 0.985 . S
H516 N513 0.984 . S
H517 N513 0.985 . S
H518 N512 0.984 . S
H519 N512 0.984 . S
H520 N508 0.984 . S
H521 N508 0.985 . S
C522 C523 1.363 . S
C522 C528 1.379 . S
C522 N530 1.356 . S
C523 C522 1.363 . S
C523 C529 1.363 . S
C524 C525 1.363 . S
C524 C529 1.379 . S
C524 N531 1.356 . S
C525 C524 1.363 . S
C525 C528 1.363 . S
N526 C528 1.356 . S
N526 H538 0.984 . S
N526 H539 0.985 . S
N527 C529 1.356 . S
N527 H532 0.984 . S
N527 H533 0.985 . S
C528 C522 1.379 . S
C528 C525 1.363 . S
C528 N526 1.356 . S
C529 C523 1.363 . S
C529 C524 1.379 . S
C529 N527 1.356 . S
N530 C522 1.356 . S
N530 H536 0.984 . S
N530 H537 0.984 . S
N531 C524 1.356 . S
N531 H534 0.984 . S
N531 H535 0.985 . S
H532 N527 0.984 . S
H533 N527 0.985 . S
H534 N531 0.984 . S
H535 N531 0.985 . S
H536 N530 0.984 . S
H537 N530 0.984 . S
H538 N526 0.984 . S
H539 N526 0.985 . S
C540 C541 1.363 . S
C540 C546 1.379 . S
C540 N548 1.356 . S
C541 C540 1.363 . S
C541 C547 1.363 . S
C542 C543 1.363 . S
C542 C547 1.379 . S
C542 N549 1.356 . S
C543 C542 1.363 . S
C543 C546 1.363 . S
N544 C546 1.356 . S
N544 H556 0.984 . S
N544 H557 0.985 . S
N545 C547 1.356 . S
N545 H550 0.984 . S
N545 H551 0.985 . S
C546 C540 1.379 . S
C546 C543 1.363 . S
C546 N544 1.356 . S
C547 C541 1.363 . S
C547 C542 1.379 . S
C547 N545 1.356 . S
N548 C540 1.356 . S
N548 H554 0.984 . S
N548 H555 0.984 . S
N549 C542 1.356 . S
N549 H552 0.984 . S
N549 H553 0.985 . S
H550 N545 0.984 . S
H551 N545 0.985 . S
H552 N549 0.984 . S
H553 N549 0.985 . S
H554 N548 0.984 . S
H555 N548 0.984 . S
H556 N544 0.984 . S
H557 N544 0.985 . S
C558 C559 1.363 . S
C558 C564 1.379 . S
C558 N566 1.356 . S
C559 C558 1.363 . S
C559 C565 1.363 . S
C560 C561 1.363 . S
C560 C565 1.379 . S
C560 N567 1.356 . S
C561 C560 1.363 . S
C561 C564 1.363 . S
N562 C564 1.356 . S
N562 H574 0.984 . S
N562 H575 0.985 . S
N563 C565 1.356 . S
N563 H568 0.984 . S
N563 H569 0.985 . S
C564 C558 1.379 . S
C564 C561 1.363 . S
C564 N562 1.356 . S
C565 C559 1.363 . S
C565 C560 1.379 . S
C565 N563 1.356 . S
N566 C558 1.356 . S
N566 H572 0.984 . S
N566 H573 0.984 . S
N567 C560 1.356 . S
N567 H570 0.984 . S
N567 H571 0.985 . S
H568 N563 0.984 . S
H569 N563 0.985 . S
H570 N567 0.984 . S
H571 N567 0.985 . S
H572 N566 0.984 . S
H573 N566 0.984 . S
H574 N562 0.984 . S
H575 N562 0.985 . S
C576 C577 1.363 . S
C576 C582 1.379 . S
C576 N584 1.356 . S
C577 C576 1.363 . S
C577 C583 1.363 . S
C578 C579 1.363 . S
C578 C583 1.379 . S
C578 N585 1.356 . S
C579 C578 1.363 . S
C579 C582 1.363 . S
N580 C582 1.356 . S
N580 H592 0.984 . S
N580 H593 0.985 . S
N581 C583 1.356 . S
N581 H586 0.984 . S
N581 H587 0.985 . S
C582 C576 1.379 . S
C582 C579 1.363 . S
C582 N580 1.356 . S
C583 C577 1.363 . S
C583 C578 1.379 . S
C583 N581 1.356 . S
N584 C576 1.356 . S
N584 H590 0.984 . S
N584 H591 0.984 . S
N585 C578 1.356 . S
N585 H588 0.984 . S
N585 H589 0.985 . S
H586 N581 0.984 . S
H587 N581 0.985 . S
H588 N585 0.984 . S
H589 N585 0.985 . S
H590 N584 0.984 . S
H591 N584 0.984 . S
H592 N580 0.984 . S
H593 N580 0.985 . S
C594 C595 1.363 . S
C594 C600 1.379 . S
C594 N602 1.356 . S
C595 C594 1.363 . S
C595 C601 1.363 . S
C596 C597 1.363 . S
C596 C601 1.379 . S
C596 N603 1.356 . S
C597 C596 1.363 . S
C597 C600 1.363 . S
N598 C600 1.356 . S
N598 H610 0.984 . S
N598 H611 0.985 . S
N599 C601 1.356 . S
N599 H604 0.984 . S
N599 H605 0.985 . S
C600 C594 1.379 . S
C600 C597 1.363 . S
C600 N598 1.356 . S
C601 C595 1.363 . S
C601 C596 1.379 . S
C601 N599 1.356 . S
N602 C594 1.356 . S
N602 H608 0.984 . S
N602 H609 0.984 . S
N603 C596 1.356 . S
N603 H606 0.984 . S
N603 H607 0.985 . S
H604 N599 0.984 . S
H605 N599 0.985 . S
H606 N603 0.984 . S
H607 N603 0.985 . S
H608 N602 0.984 . S
H609 N602 0.984 . S
H610 N598 0.984 . S
H611 N598 0.985 . S
C612 C613 1.363 . S
C612 C618 1.379 . S
C612 N620 1.356 . S
C613 C612 1.363 . S
C613 C619 1.363 . S
C614 C615 1.363 . S
C614 C619 1.379 . S
C614 N621 1.356 . S
C615 C614 1.363 . S
C615 C618 1.363 . S
N616 C618 1.356 . S
N616 H628 0.984 . S
N616 H629 0.985 . S
N617 C619 1.356 . S
N617 H622 0.984 . S
N617 H623 0.985 . S
C618 C612 1.379 . S
C618 C615 1.363 . S
C618 N616 1.356 . S
C619 C613 1.363 . S
C619 C614 1.379 . S
C619 N617 1.356 . S
N620 C612 1.356 . S
N620 H626 0.984 . S
N620 H627 0.984 . S
N621 C614 1.356 . S
N621 H624 0.984 . S
N621 H625 0.985 . S
H622 N617 0.984 . S
H623 N617 0.985 . S
H624 N621 0.984 . S
H625 N621 0.985 . S
H626 N620 0.984 . S
H627 N620 0.984 . S
H628 N616 0.984 . S
H629 N616 0.985 . S
C630 C631 1.363 . S
C630 C636 1.379 . S
C630 N638 1.356 . S
C631 C630 1.363 . S
C631 C637 1.363 . S
C632 C633 1.363 . S
C632 C637 1.379 . S
C632 N639 1.356 . S
C633 C632 1.363 . S
C633 C636 1.363 . S
N634 C636 1.356 . S
N634 H646 0.984 . S
N634 H647 0.985 . S
N635 C637 1.356 . S
N635 H640 0.984 . S
N635 H641 0.985 . S
C636 C630 1.379 . S
C636 C633 1.363 . S
C636 N634 1.356 . S
C637 C631 1.363 . S
C637 C632 1.379 . S
C637 N635 1.356 . S
N638 C630 1.356 . S
N638 H644 0.984 . S
N638 H645 0.984 . S
N639 C632 1.356 . S
N639 H642 0.984 . S
N639 H643 0.985 . S
H640 N635 0.984 . S
H641 N635 0.985 . S
H642 N639 0.984 . S
H643 N639 0.985 . S
H644 N638 0.984 . S
H645 N638 0.984 . S
H646 N634 0.984 . S
H647 N634 0.985 . S
C648 C649 1.363 . S
C648 C654 1.379 . S
C648 N656 1.356 . S
C649 C648 1.363 . S
C649 C655 1.363 . S
C650 C651 1.363 . S
C650 C655 1.379 . S
C650 N657 1.356 . S
C651 C650 1.363 . S
C651 C654 1.363 . S
N652 C654 1.356 . S
N652 H664 0.984 . S
N652 H665 0.985 . S
N653 C655 1.356 . S
N653 H658 0.984 . S
N653 H659 0.985 . S
C654 C648 1.379 . S
C654 C651 1.363 . S
C654 N652 1.356 . S
C655 C649 1.363 . S
C655 C650 1.379 . S
C655 N653 1.356 . S
N656 C648 1.356 . S
N656 H662 0.984 . S
N656 H663 0.984 . S
N657 C650 1.356 . S
N657 H660 0.984 . S
N657 H661 0.985 . S
H658 N653 0.984 . S
H659 N653 0.985 . S
H660 N657 0.984 . S
H661 N657 0.985 . S
H662 N656 0.984 . S
H663 N656 0.984 . S
H664 N652 0.984 . S
H665 N652 0.985 . S
C666 C667 1.363 . S
C666 C672 1.379 . S
C666 N674 1.356 . S
C667 C666 1.363 . S
C667 C673 1.363 . S
C668 C669 1.363 . S
C668 C673 1.379 . S
C668 N675 1.356 . S
C669 C668 1.363 . S
C669 C672 1.363 . S
N670 C672 1.356 . S
N670 H682 0.984 . S
N670 H683 0.985 . S
N671 C673 1.356 . S
N671 H676 0.984 . S
N671 H677 0.985 . S
C672 C666 1.379 . S
C672 C669 1.363 . S
C672 N670 1.356 . S
C673 C667 1.363 . S
C673 C668 1.379 . S
C673 N671 1.356 . S
N674 C666 1.356 . S
N674 H680 0.984 . S
N674 H681 0.984 . S
N675 C668 1.356 . S
N675 H678 0.984 . S
N675 H679 0.985 . S
H676 N671 0.984 . S
H677 N671 0.985 . S
H678 N675 0.984 . S
H679 N675 0.985 . S
H680 N674 0.984 . S
H681 N674 0.984 . S
H682 N670 0.984 . S
H683 N670 0.985 . S
C684 C685 1.363 . S
C684 C690 1.379 . S
C684 N692 1.356 . S
C685 C684 1.363 . S
C685 C691 1.363 . S
C686 C687 1.363 . S
C686 C691 1.379 . S
C686 N693 1.356 . S
C687 C686 1.363 . S
C687 C690 1.363 . S
N688 C690 1.356 . S
N688 H700 0.984 . S
N688 H701 0.985 . S
N689 C691 1.356 . S
N689 H694 0.984 . S
N689 H695 0.985 . S
C690 C684 1.379 . S
C690 C687 1.363 . S
C690 N688 1.356 . S
C691 C685 1.363 . S
C691 C686 1.379 . S
C691 N689 1.356 . S
N692 C684 1.356 . S
N692 H698 0.984 . S
N692 H699 0.984 . S
N693 C686 1.356 . S
N693 H696 0.984 . S
N693 H697 0.985 . S
H694 N689 0.984 . S
H695 N689 0.985 . S
H696 N693 0.984 . S
H697 N693 0.985 . S
H698 N692 0.984 . S
H699 N692 0.984 . S
H700 N688 0.984 . S
H701 N688 0.985 . S
C702 C703 1.363 . S
C702 C708 1.379 . S
C702 N710 1.356 . S
C703 C702 1.363 . S
C703 C709 1.363 . S
C704 C705 1.363 . S
C704 C709 1.379 . S
C704 N711 1.356 . S
C705 C704 1.363 . S
C705 C708 1.363 . S
N706 C708 1.356 . S
N706 H718 0.984 . S
N706 H719 0.985 . S
N707 C709 1.356 . S
N707 H712 0.984 . S
N707 H713 0.985 . S
C708 C702 1.379 . S
C708 C705 1.363 . S
C708 N706 1.356 . S
C709 C703 1.363 . S
C709 C704 1.379 . S
C709 N707 1.356 . S
N710 C702 1.356 . S
N710 H716 0.984 . S
N710 H717 0.984 . S
N711 C704 1.356 . S
N711 H714 0.984 . S
N711 H715 0.985 . S
H712 N707 0.984 . S
H713 N707 0.985 . S
H714 N711 0.984 . S
H715 N711 0.985 . S
H716 N710 0.984 . S
H717 N710 0.984 . S
H718 N706 0.984 . S
H719 N706 0.985 . S
C720 C721 1.363 . S
C720 C726 1.379 1_554 S
C720 N728 1.356 . S
C721 C720 1.363 . S
C721 C727 1.363 . S
C722 C723 1.363 . S
C722 C727 1.379 1_556 S
C722 N729 1.356 . S
C723 C722 1.363 . S
C723 C726 1.363 . S
N724 C726 1.356 . S
N724 H736 0.984 . S
N724 H737 0.985 . S
N725 C727 1.356 . S
N725 H730 0.984 . S
N725 H731 0.985 . S
C726 C720 1.379 1_556 S
C726 C723 1.363 . S
C726 N724 1.356 . S
C727 C721 1.363 . S
C727 C722 1.379 1_554 S
C727 N725 1.356 . S
N728 C720 1.356 . S
N728 H734 0.984 . S
N728 H735 0.984 . S
N729 C722 1.356 . S
N729 H732 0.984 . S
N729 H733 0.985 . S
H730 N725 0.984 . S
H731 N725 0.985 . S
H732 N729 0.984 . S
H733 N729 0.985 . S
H734 N728 0.984 . S
H735 N728 0.984 . S
H736 N724 0.984 . S
H737 N724 0.985 . S
C738 C739 1.363 . S
C738 C744 1.379 1_556 S
C738 N746 1.356 . S
C739 C738 1.363 . S
C739 C745 1.363 1_545 S
C740 C741 1.363 . S
C740 C745 1.379 1_554 S
C740 N747 1.356 . S
C741 C740 1.363 . S
C741 C744 1.363 1_565 S
N742 C744 1.356 . S
N742 H754 0.984 . S
N742 H755 0.985 . S
N743 C745 1.356 . S
N743 H748 0.984 . S
N743 H749 0.985 . S
C744 C738 1.379 1_554 S
C744 C741 1.363 1_545 S
C744 N742 1.356 . S
C745 C739 1.363 1_565 S
C745 C740 1.379 1_556 S
C745 N743 1.356 . S
N746 C738 1.356 . S
N746 H752 0.984 . S
N746 H753 0.984 . S
N747 C740 1.356 . S
N747 H750 0.984 . S
N747 H751 0.985 . S
H748 N743 0.984 . S
H749 N743 0.985 . S
H750 N747 0.984 . S
H751 N747 0.985 . S
H752 N746 0.984 . S
H753 N746 0.984 . S
H754 N742 0.984 . S
H755 N742 0.985 . S
C756 C757 1.363 . S
C756 C762 1.379 1_556 S
C756 N764 1.356 . S
C757 C756 1.363 . S
C757 C763 1.363 1_655 S
C758 C759 1.363 . S
C758 C763 1.379 1_554 S
C758 N765 1.356 . S
C759 C758 1.363 . S
C759 C762 1.363 1_455 S
N760 C762 1.356 . S
N760 H772 0.984 . S
N760 H773 0.985 . S
N761 C763 1.356 . S
N761 H766 0.984 . S
N761 H767 0.985 . S
C762 C756 1.379 1_554 S
C762 C759 1.363 1_655 S
C762 N760 1.356 . S
C763 C757 1.363 1_455 S
C763 C758 1.379 1_556 S
C763 N761 1.356 . S
N764 C756 1.356 . S
N764 H770 0.984 . S
N764 H771 0.984 . S
N765 C758 1.356 . S
N765 H768 0.984 . S
N765 H769 0.985 . S
H766 N761 0.984 . S
H767 N761 0.985 . S
H768 N765 0.984 . S
H769 N765 0.985 . S
H770 N764 0.984 . S
H771 N764 0.984 . S
H772 N760 0.984 . S
H773 N760 0.985 . S
C774 C775 1.363 . S
C774 C780 1.379 . S
C774 N782 1.356 . S
C775 C774 1.363 . S
C775 C781 1.363 . S
C776 C777 1.363 . S
C776 C781 1.379 . S
C776 N783 1.356 . S
C777 C776 1.363 . S
C777 C780 1.363 . S
N778 C780 1.356 . S
N778 H790 0.984 . S
N778 H791 0.985 . S
N779 C781 1.356 . S
N779 H784 0.984 . S
N779 H785 0.985 . S
C780 C774 1.379 . S
C780 C777 1.363 . S
C780 N778 1.356 . S
C781 C775 1.363 . S
C781 C776 1.379 . S
C781 N779 1.356 . S
N782 C774 1.356 . S
N782 H788 0.984 . S
N782 H789 0.984 . S
N783 C776 1.356 . S
N783 H786 0.984 . S
N783 H787 0.985 . S
H784 N779 0.984 . S
H785 N779 0.985 . S
H786 N783 0.984 . S
H787 N783 0.985 . S
H788 N782 0.984 . S
H789 N782 0.984 . S
H790 N778 0.984 . S
H791 N778 0.985 . S
C792 C793 1.363 . S
C792 C798 1.379 . S
C792 N800 1.356 . S
C793 C792 1.363 . S
C793 C799 1.363 . S
C794 C795 1.363 . S
C794 C799 1.379 . S
C794 N801 1.356 . S
C795 C794 1.363 . S
C795 C798 1.363 . S
N796 C798 1.356 . S
N796 H808 0.984 . S
N796 H809 0.985 . S
N797 C799 1.356 . S
N797 H802 0.984 . S
N797 H803 0.985 . S
C798 C792 1.379 . S
C798 C795 1.363 . S
C798 N796 1.356 . S
C799 C793 1.363 . S
C799 C794 1.379 . S
C799 N797 1.356 . S
N800 C792 1.356 . S
N800 H806 0.984 . S
N800 H807 0.984 . S
N801 C794 1.356 . S
N801 H804 0.984 . S
N801 H805 0.985 . S
H802 N797 0.984 . S
H803 N797 0.985 . S
H804 N801 0.984 . S
H805 N801 0.985 . S
H806 N800 0.984 . S
H807 N800 0.984 . S
H808 N796 0.984 . S
H809 N796 0.985 . S
C810 C811 1.363 . S
C810 C816 1.379 . S
C810 N818 1.356 . S
C811 C810 1.363 . S
C811 C817 1.363 . S
C812 C813 1.363 . S
C812 C817 1.379 . S
C812 N819 1.356 . S
C813 C812 1.363 . S
C813 C816 1.363 . S
N814 C816 1.356 . S
N814 H826 0.984 . S
N814 H827 0.985 . S
N815 C817 1.356 . S
N815 H820 0.984 . S
N815 H821 0.985 . S
C816 C810 1.379 . S
C816 C813 1.363 . S
C816 N814 1.356 . S
C817 C811 1.363 . S
C817 C812 1.379 . S
C817 N815 1.356 . S
N818 C810 1.356 . S
N818 H824 0.984 . S
N818 H825 0.984 . S
N819 C812 1.356 . S
N819 H822 0.984 . S
N819 H823 0.985 . S
H820 N815 0.984 . S
H821 N815 0.985 . S
H822 N819 0.984 . S
H823 N819 0.985 . S
H824 N818 0.984 . S
H825 N818 0.984 . S
H826 N814 0.984 . S
H827 N814 0.985 . S
C828 C829 1.363 . S
C828 C834 1.379 . S
C828 N836 1.356 . S
C829 C828 1.363 . S
C829 C835 1.363 . S
C830 C831 1.363 . S
C830 C835 1.379 . S
C830 N837 1.356 . S
C831 C830 1.363 . S
C831 C834 1.363 . S
N832 C834 1.356 . S
N832 H844 0.984 . S
N832 H845 0.985 . S
N833 C835 1.356 . S
N833 H838 0.984 . S
N833 H839 0.985 . S
C834 C828 1.379 . S
C834 C831 1.363 . S
C834 N832 1.356 . S
C835 C829 1.363 . S
C835 C830 1.379 . S
C835 N833 1.356 . S
N836 C828 1.356 . S
N836 H842 0.984 . S
N836 H843 0.984 . S
N837 C830 1.356 . S
N837 H840 0.984 . S
N837 H841 0.985 . S
H838 N833 0.984 . S
H839 N833 0.985 . S
H840 N837 0.984 . S
H841 N837 0.985 . S
H842 N836 0.984 . S
H843 N836 0.984 . S
H844 N832 0.984 . S
H845 N832 0.985 . S
C846 C847 1.363 . S
C846 C852 1.379 . S
C846 N854 1.356 . S
C847 C846 1.363 . S
C847 C853 1.363 . S
C848 C849 1.363 . S
C848 C853 1.379 . S
C848 N855 1.356 . S
C849 C848 1.363 . S
C849 C852 1.363 . S
N850 C852 1.356 . S
N850 H862 0.984 . S
N850 H863 0.985 . S
N851 C853 1.356 . S
N851 H856 0.984 . S
N851 H857 0.985 . S
C852 C846 1.379 . S
C852 C849 1.363 . S
C852 N850 1.356 . S
C853 C847 1.363 . S
C853 C848 1.379 . S
C853 N851 1.356 . S
N854 C846 1.356 . S
N854 H860 0.984 . S
N854 H861 0.984 . S
N855 C848 1.356 . S
N855 H858 0.984 . S
N855 H859 0.985 . S
H856 N851 0.984 . S
H857 N851 0.985 . S
H858 N855 0.984 . S
H859 N855 0.985 . S
H860 N854 0.984 . S
H861 N854 0.984 . S
H862 N850 0.984 . S
H863 N850 0.985 . S
C864 C865 1.363 . S
C864 C870 1.379 . S
C864 N872 1.356 . S
C865 C864 1.363 . S
C865 C871 1.363 . S
C866 C867 1.363 . S
C866 C871 1.379 . S
C866 N873 1.356 . S
C867 C866 1.363 . S
C867 C870 1.363 . S
N868 C870 1.356 . S
N868 H880 0.984 . S
N868 H881 0.985 . S
N869 C871 1.356 . S
N869 H874 0.984 . S
N869 H875 0.985 . S
C870 C864 1.379 . S
C870 C867 1.363 . S
C870 N868 1.356 . S
C871 C865 1.363 . S
C871 C866 1.379 . S
C871 N869 1.356 . S
N872 C864 1.356 . S
N872 H878 0.984 . S
N872 H879 0.984 . S
N873 C866 1.356 . S
N873 H876 0.984 . S
N873 H877 0.985 . S
H874 N869 0.984 . S
H875 N869 0.985 . S
H876 N873 0.984 . S
H877 N873 0.985 . S
H878 N872 0.984 . S
H879 N872 0.984 . S
H880 N868 0.984 . S
H881 N868 0.985 . S
C235 C130 1.217 . S
C237 C0 1.214 . S
C253 C13 1.211 . S
C255 C143 1.200 . S
C271 C117 1.203 . S
C273 C26 1.217 . S
C289 C182 1.217 . S
C291 C39 1.214 . S
C307 C52 1.215 . S
C309 C156 1.202 . S
C325 C169 1.203 . S
C327 C65 1.209 . S
C343 C78 1.223 . S
C345 C208 1.228 . S
C361 C221 1.224 . S
C363 C91 1.224 . S
C379 C104 1.228 . S
C381 C195 1.223 . S
C397 C5 1.034 . S
C399 C23 1.249 . S
C415 C18 1.035 . S
C417 C36 1.233 . S
C433 C10 1.260 . S
C435 C31 1.049 . S
C451 C75 1.250 . S
C453 C44 1.035 . S
C469 C49 1.260 . S
C471 C57 1.049 . S
C487 C70 1.035 . S
C489 C62 1.233 . S
C505 C83 1.047 . S
C507 C101 1.270 . S
C523 C96 1.041 . S
C525 C114 1.259 . S
C541 C88 1.257 . S
C543 C109 1.044 . S
C559 C153 1.271 . S
C561 C122 1.050 . S
C577 C127 1.251 . S
C579 C135 1.037 . S
C595 C140 1.258 . S
C597 C148 1.039 . S
C613 C179 1.271 . S
C615 C161 1.050 . S
C631 C192 1.258 . S
C633 C174 1.039 . S
C649 C166 1.251 . S
C651 C187 1.037 . S
C667 C200 1.047 . S
C669 C231 1.270 . S
C685 C213 1.044 . S
C687 C205 1.257 . S
C703 C226 1.041 . S
C705 C218 1.259 . S
C721 C8 1.526 . S
C723 C47 1.526 . S
C739 C60 1.513 . S
C741 C21 1.506 . S
C757 C73 1.508 . S
C759 C34 1.513 . S
C775 C125 1.528 . S
C777 C86 1.529 . S
C793 C138 1.520 . S
C795 C99 1.522 . S
C811 C112 1.529 . S
C813 C151 1.530 . S
C829 C203 1.529 . S
C831 C164 1.528 . S
C847 C216 1.529 . S
C849 C177 1.530 . S
C865 C229 1.522 . S
C867 C190 1.520 . S
