# Generated by pormake.
# Topology nov, (5)-cn, num edge types: 1
# Building blocks:
#     Node 0, Type 0, BuildingBlock: XOMCOT_clean_sbu_1, # of connection points: 5
#     Node 1, Type 0, BuildingBlock: XOMCOT_clean_sbu_1, # of connection points: 5
#     Node 2, Type 0, BuildingBlock: XOMCOT_clean_sbu_1, # of connection points: 5
#     Node 3, Type 0, BuildingBlock: XOMCOT_clean_sbu_1, # of connection points: 5
#     Node 4, Type 0, BuildingBlock: XOMCOT_clean_sbu_1, # of connection points: 5
#     Node 5, Type 0, BuildingBlock: XOMCOT_clean_sbu_1, # of connection points: 5
#     Node 6, Type 0, BuildingBlock: XOMCOT_clean_sbu_1, # of connection points: 5
#     Node 7, Type 0, BuildingBlock: XOMCOT_clean_sbu_1, # of connection points: 5
#     Edge 8, Type (0, 0), BuildingBlock: CIFDUS_clean_linker_0, # of connection points: 2
#     Edge 9, Type (0, 0), BuildingBlock: CIFDUS_clean_linker_0, # of connection points: 2
#     Edge 10, Type (0, 0), BuildingBlock: CIFDUS_clean_linker_0, # of connection points: 2
#     Edge 11, Type (0, 0), BuildingBlock: CIFDUS_clean_linker_0, # of connection points: 2
#     Edge 12, Type (0, 0), BuildingBlock: CIFDUS_clean_linker_0, # of connection points: 2
#     Edge 13, Type (0, 0), BuildingBlock: CIFDUS_clean_linker_0, # of connection points: 2
#     Edge 14, Type (0, 0), BuildingBlock: CIFDUS_clean_linker_0, # of connection points: 2
#     Edge 15, Type (0, 0), BuildingBlock: CIFDUS_clean_linker_0, # of connection points: 2
#     Edge 16, Type (0, 0), BuildingBlock: CIFDUS_clean_linker_0, # of connection points: 2
#     Edge 17, Type (0, 0), BuildingBlock: CIFDUS_clean_linker_0, # of connection points: 2
#     Edge 18, Type (0, 0), BuildingBlock: CIFDUS_clean_linker_0, # of connection points: 2
#     Edge 19, Type (0, 0), BuildingBlock: CIFDUS_clean_linker_0, # of connection points: 2
#     Edge 20, Type (0, 0), BuildingBlock: CIFDUS_clean_linker_0, # of connection points: 2
#     Edge 21, Type (0, 0), BuildingBlock: CIFDUS_clean_linker_0, # of connection points: 2
#     Edge 22, Type (0, 0), BuildingBlock: CIFDUS_clean_linker_0, # of connection points: 2
#     Edge 23, Type (0, 0), BuildingBlock: CIFDUS_clean_linker_0, # of connection points: 2
#     Edge 24, Type (0, 0), BuildingBlock: CIFDUS_clean_linker_0, # of connection points: 2
#     Edge 25, Type (0, 0), BuildingBlock: CIFDUS_clean_linker_0, # of connection points: 2
#     Edge 26, Type (0, 0), BuildingBlock: CIFDUS_clean_linker_0, # of connection points: 2
#     Edge 27, Type (0, 0), BuildingBlock: CIFDUS_clean_linker_0, # of connection points: 2
# Relax obj value: 0.128
# Max RMSD: 0.162
# Mean RMSD: 0.162
data_MOF--net-nov--node1-XOMCOT_clean_sbu_1--edge1-CIFDUS_clean_linker_0
_symmetry_space_group_name_H-M    P1
_symmetry_Int_Tables_number       1
_symmetry_cell_setting            triclinic
loop_
_symmetry_equiv_pos_as_xyz
'x, y, z'
_cell_length_a     23.095015
_cell_length_b     47.320246
_cell_length_c     25.665082
_cell_angle_alpha  89.879511
_cell_angle_beta   89.996891
_cell_angle_gamma 89.927239
loop_
_atom_site_label
_atom_site_type_symbol
_atom_site_fract_x
_atom_site_fract_y
_atom_site_fract_z
_atom_type_partial_charge
C0 C 0.12891 0.14861 0.03825 0.0
C1 C 0.12921 0.12533 0.00653 0.0
N2 N 0.09578 0.10526 0.02845 0.0
N3 N 0.09513 0.14352 0.08008 0.0
C4 C 0.07597 0.11674 0.07342 0.0
H5 H 0.15128 0.16831 0.03104 0.0
Co6 Co 0.08184 0.17082 0.13152 0.0
C7 C 0.95482 0.15538 0.147 0.0
O8 O 0.93739 0.17367 0.11194 0.0
N9 N 0.06992 0.19802 0.18389 0.0
C10 C 1.03103 0.2324 0.2314 0.0
C11 C 1.02006 0.2116 0.19567 0.0
C12 C 0.11051 0.21071 0.21386 0.0
N13 N 0.08779 0.2318 0.24265 0.0
O14 O 0.12641 0.14873 0.18046 0.0
H15 H 0.97884 0.20812 0.1772 0.0
H16 H 0.1562 0.2057 0.21256 0.0
O17 O 1.00921 0.15196 0.15532 0.0
C18 C 0.18058 0.15123 0.17124 0.0
O19 O 0.19672 0.16644 0.13092 0.0
N20 N 1.04522 0.19461 0.08048 0.0
C21 C 1.02598 0.23046 0.99492 0.0
C22 C 1.00613 0.20245 0.99433 0.0
C23 C 1.01637 0.18484 0.03741 0.0
C24 C 0.06337 0.22209 0.08142 0.0
C25 C 0.05195 0.24049 0.04051 0.0
H26 H 1.00402 0.16286 0.03471 0.0
H27 H 0.09085 0.22979 0.1122 0.0
H28 H 0.04742 0.10607 0.10048 0.0
H29 H 0.15305 0.12321 0.97043 0.0
H30 H 1.00005 0.24735 0.247 0.0
H31 H 0.98665 0.19357 0.95967 0.0
H32 H 0.06755 0.26202 0.04325 0.0
C33 C 0.54924 0.89682 0.53115 0.0
C34 C 0.54705 0.92055 0.50068 0.0
N35 N 0.56718 0.94253 0.52857 0.0
N36 N 0.57118 0.90338 0.57825 0.0
C37 C 0.58063 0.9316 0.57599 0.0
H38 H 0.53501 0.87596 0.51981 0.0
Co39 Co 0.57914 0.87557 0.62977 0.0
C40 C 0.69215 0.90911 0.66006 0.0
O41 O 0.70195 0.92601 0.62037 0.0
N42 N 0.58646 0.84732 0.68058 0.0
C43 C 0.6245 0.81269 0.72828 0.0
C44 C 0.63485 0.83192 0.68934 0.0
C45 C 0.54753 0.8374 0.71553 0.0
N46 N 0.56971 0.8162 0.74459 0.0
O47 O 0.5302 0.8968 0.67589 0.0
H48 H 0.6754 0.83462 0.66886 0.0
H49 H 0.50391 0.84544 0.71971 0.0
O50 O 0.64862 0.89245 0.65965 0.0
C51 C 0.47676 0.89545 0.66324 0.0
O52 O 0.46296 0.88259 0.61965 0.0
N53 N 0.62192 0.85354 0.58302 0.0
C54 C 0.66113 0.82165 0.49899 0.0
C55 C 0.69148 0.84581 0.51516 0.0
C56 C 0.67098 0.86159 0.55739 0.0
C57 C 0.59353 0.82947 0.56931 0.0
C58 C 0.61263 0.81309 0.52779 0.0
H59 H 0.69224 0.88113 0.56691 0.0
H60 H 0.55365 0.82388 0.58888 0.0
H61 H 0.5967 0.94383 0.60843 0.0
H62 H 0.53046 0.92156 0.46129 0.0
H63 H 0.65532 0.79785 0.74459 0.0
H64 H 0.72899 0.85321 0.49382 0.0
H65 H 0.58696 0.79505 0.51609 0.0
C66 C 0.13411 0.89981 0.96026 0.0
C67 C 0.13196 0.9241 0.98902 0.0
N68 N 0.09804 0.94282 0.96389 0.0
N69 N 0.10148 0.90288 0.91704 0.0
C70 C 0.08037 0.92958 0.91988 0.0
H71 H 0.15683 0.88064 0.97084 0.0
Co72 Co 0.09061 0.87199 0.8727 0.0
C73 C 0.96541 0.88055 0.84268 0.0
O74 O 0.95032 0.85825 0.86977 0.0
N75 N 0.08168 0.83999 0.82802 0.0
C76 C 0.05445 0.79835 0.79552 0.0
C77 C 1.04216 0.8189 0.83131 0.0
C78 C 0.11728 0.83153 0.78887 0.0
N79 N 0.10173 0.80627 0.76895 0.0
O80 O 0.13619 0.89058 0.81989 0.0
H81 H 1.00831 0.81719 0.85998 0.0
H82 H 0.15528 0.84295 0.77628 0.0
O83 O 1.01847 0.88866 0.84242 0.0
C84 C 0.19029 0.88979 0.83031 0.0
O85 O 0.2069 0.87749 0.87375 0.0
N86 N 0.05253 0.85329 0.92802 0.0
C87 C 1.02158 0.82674 0.02107 0.0
C88 C 0.99585 0.85244 0.00665 0.0
C89 C 1.0123 0.86554 0.96 0.0
C90 C 0.07925 0.82882 0.94279 0.0
C91 C 0.06318 0.81477 0.98817 0.0
H92 H 0.9946 0.8861 0.95059 0.0
H93 H 0.11488 0.82061 0.92002 0.0
H94 H 0.05122 0.93873 0.89144 0.0
H95 H 0.15375 0.92776 0.02574 0.0
H96 H 1.03092 0.7788 0.78992 0.0
H97 H 0.96499 0.86277 0.03208 0.0
H98 H 0.08599 0.79564 -0.00084 0.0
C99 C 0.54396 0.15298 0.46568 0.0
C100 C 0.54265 0.12962 0.49732 0.0
N101 N 0.56206 0.10721 0.47003 0.0
N102 N 0.56459 0.14569 0.41847 0.0
C103 C 0.57424 0.11755 0.42189 0.0
H104 H 0.5301 0.17404 0.47624 0.0
Co105 Co 0.57101 0.17185 0.364 0.0
C106 C 0.68507 0.13816 0.33837 0.0
O107 O 0.69569 0.12378 0.38114 0.0
N108 N 0.57697 0.19823 0.30976 0.0
C109 C 0.61401 0.23075 0.2568 0.0
C110 C 0.62539 0.21287 0.29767 0.0
C111 C 0.53695 0.20718 0.27489 0.0
N112 N 0.55854 0.2271 0.24263 0.0
O113 O 0.52225 0.14876 0.3207 0.0
H114 H 0.66655 0.21065 0.31738 0.0
H115 H 0.49297 0.19939 0.27315 0.0
O116 O 0.6408 0.15435 0.33552 0.0
C117 C 0.46887 0.14947 0.33382 0.0
O118 O 0.45456 0.16296 0.37664 0.0
N119 N 0.61363 0.19589 0.4079 0.0
C120 C 0.65325 0.23198 0.48571 0.0
C121 C 0.68091 0.20604 0.47669 0.0
C122 C 0.66067 0.1883 0.43703 0.0
C123 C 0.58708 0.22127 0.41582 0.0
C124 C 0.60691 0.23987 0.45372 0.0
H125 H 0.67999 0.16775 0.43258 0.0
H126 H 0.54834 0.22656 0.39419 0.0
H127 H 0.58952 0.10497 0.38959 0.0
H128 H 0.52711 0.12924 0.53707 0.0
H129 H 0.64445 0.24483 0.23793 0.0
H130 H 0.71605 0.19905 0.50153 0.0
H131 H 0.58341 0.25935 0.4605 0.0
C132 C 0.64449 0.64122 0.0419 0.0
C133 C 0.64113 0.61545 0.01797 0.0
N134 N 0.61069 0.59787 0.04886 0.0
N135 N 0.61604 0.6402 0.0877 0.0
C136 C 0.5962 0.61337 0.09127 0.0
H137 H 0.66686 0.65962 0.02708 0.0
Co138 Co 0.61193 0.67164 0.13101 0.0
C139 C 0.49151 0.67071 0.17211 0.0
O140 O 0.48435 0.6963 0.15348 0.0
N141 N 0.60975 0.70431 0.17524 0.0
C142 C 0.59617 0.7476 0.20779 0.0
C143 C 0.585 0.72995 0.16681 0.0
C144 C 0.6349 0.70719 0.22276 0.0
N145 N 0.6277 0.73328 0.24289 0.0
O146 O 0.65791 0.65197 0.18203 0.0
H147 H 0.55882 0.73582 0.1337 0.0
H148 H 0.65851 0.6907 0.24267 0.0
O149 O 0.53957 0.65771 0.16446 0.0
C150 C 0.71176 0.65217 0.17059 0.0
O151 O 0.72764 0.66376 0.12629 0.0
N152 N 0.5734 0.69087 0.07694 0.0
C153 C 0.53919 0.71788 0.98544 0.0
C154 C 0.50658 0.69537 0.00552 0.0
C155 C 0.52473 0.68192 0.05148 0.0
C156 C 0.60714 0.71153 0.05572 0.0
C157 C 0.58986 0.72595 0.01112 0.0
H158 H 0.50131 0.66362 0.0653 0.0
H159 H 0.6482 0.71669 0.07362 0.0
H160 H 0.57178 0.60542 0.12416 0.0
H161 H 0.66121 0.60986 0.98129 0.0
H162 H 0.58072 0.76908 0.21216 0.0
H163 H 0.46854 0.68783 0.98518 0.0
H164 H 0.61744 0.74239 0.99534 0.0
C165 C 1.04313 0.39314 0.52582 0.0
C166 C 1.03999 0.41722 0.49593 0.0
N167 N 0.0697 0.43792 0.52014 0.0
N168 N 0.07454 0.39847 0.56889 0.0
C169 C 0.09005 0.42591 0.56451 0.0
H170 H 1.02384 0.37292 0.51676 0.0
Co171 Co 0.09165 0.37175 0.62027 0.0
C172 C 0.18135 0.3992 0.68353 0.0
O173 O 0.14588 0.39769 0.72345 0.0
N174 N 0.10988 0.34485 0.67167 0.0
C175 C 0.1642 0.31613 0.71974 0.0
C176 C 0.16242 0.3324 0.67572 0.0
C177 C 0.08009 0.33549 0.71374 0.0
N178 N 0.11264 0.31818 0.74375 0.0
O179 O 1.04484 0.39249 0.66958 0.0
H180 H 0.19827 0.33588 0.64937 0.0
H181 H 1.03681 0.34237 0.72376 0.0
O182 O 0.1635 0.39156 0.6385 0.0
C183 C 0.99138 0.38755 0.66019 0.0
O184 O 0.97854 0.37117 0.62057 0.0
N185 N 0.13028 0.35007 0.57053 0.0
C186 C 0.1677 0.31507 0.49045 0.0
C187 C 0.193 0.34175 0.4976 0.0
C188 C 0.17395 0.35898 0.53863 0.0
C189 C 0.10528 0.3243 0.56367 0.0
C190 C 0.12417 0.30624 0.52465 0.0
H191 H 0.19205 0.37989 0.54319 0.0
H192 H 0.0692 0.31806 0.58797 0.0
H193 H 0.11641 0.43668 0.59306 0.0
H194 H 1.01674 0.4193 0.45954 0.0
H195 H 0.20122 0.30438 0.73402 0.0
H196 H 0.22574 0.34944 0.47092 0.0
H197 H 0.10242 0.28617 0.51927 0.0
C198 C 0.63397 0.39645 0.95041 0.0
C199 C 0.63356 0.42199 0.97573 0.0
N200 N 0.60731 0.44116 0.9448 0.0
N201 N 0.60796 0.39938 0.9037 0.0
C202 C 0.59241 0.42687 0.90116 0.0
H203 H 0.65203 0.37689 0.96505 0.0
Co204 Co 0.5969 0.36988 0.85678 0.0
C205 C 0.50843 0.39233 0.78473 0.0
O206 O 0.54424 0.38778 0.74585 0.0
N207 N 0.58573 0.34002 0.81014 0.0
C208 C 0.54489 0.30379 0.76933 0.0
C209 C 0.53638 0.32496 0.80495 0.0
C210 C 0.6234 0.32789 0.77656 0.0
N211 N 0.59948 0.30573 0.75159 0.0
O212 O 0.64462 0.38914 0.80604 0.0
H213 H 0.49671 0.32902 0.82608 0.0
H214 H 0.66759 0.33483 0.77096 0.0
O215 O 0.52512 0.38725 0.83135 0.0
C216 C 0.69832 0.38787 0.81812 0.0
O217 O 0.71272 0.37567 0.8623 0.0
N218 N 0.55631 0.35007 0.90833 0.0
C219 C 0.51841 0.32141 0.99679 0.0
C220 C 0.4911 0.34651 0.98086 0.0
C221 C 0.51046 0.36049 0.93591 0.0
C222 C 0.58242 0.32545 0.92283 0.0
C223 C 0.56345 0.31051 0.96632 0.0
H224 H 0.49129 0.38055 0.92532 0.0
H225 H 0.62002 0.31803 0.90176 0.0
H226 H 0.57013 0.43612 0.86818 0.0
H227 H 0.65235 0.42621 0.01355 0.0
H228 H 0.51322 0.28841 0.75669 0.0
H229 H 0.45682 0.35577 0.00405 0.0
H230 H 0.5866 0.29162 0.9781 0.0
C231 C 0.07271 0.64886 0.47718 0.0
C232 C 0.07335 0.62421 0.50518 0.0
N233 N 0.09094 0.6032 0.47363 0.0
N234 N 0.09075 0.64383 0.42808 0.0
C235 C 0.10036 0.61558 0.42669 0.0
H236 H 0.05876 0.66922 0.49158 0.0
Co237 Co 0.0924 0.67241 0.37732 0.0
C238 C 0.21129 0.64424 0.34869 0.0
O239 O 0.22049 0.62697 0.38795 0.0
N240 N 0.09355 0.70113 0.3271 0.0
C241 C 0.12412 0.73771 0.28021 0.0
C242 C 0.13866 0.71868 0.31835 0.0
C243 C 0.05232 0.70962 0.29305 0.0
N244 N 0.06994 0.73195 0.26442 0.0
O245 O 0.04885 0.64912 0.33026 0.0
H246 H 0.1798 0.71766 0.33842 0.0
H247 H 1.01024 0.69983 0.28933 0.0
O248 O 0.16562 0.65953 0.3475 0.0
C249 C 0.99528 0.64774 0.34247 0.0
O250 O 0.97884 0.65863 0.38716 0.0
N251 N 0.12938 0.69661 0.42469 0.0
C252 C 0.16255 0.73393 0.50293 0.0
C253 C 0.19663 0.71013 0.4915 0.0
C254 C 0.1795 0.69173 0.45151 0.0
C255 C 0.09597 0.71959 0.43574 0.0
C256 C 0.11234 0.73879 0.47383 0.0
H257 H 0.20461 0.67292 0.44416 0.0
H258 H 0.05519 0.72258 0.41574 0.0
H259 H 0.11352 0.60434 0.39197 0.0
H260 H 0.05998 0.62183 0.54537 0.0
H261 H 0.15176 0.754 0.2641 0.0
H262 H 0.23502 0.70543 0.51416 0.0
H263 H 0.08402 0.75643 0.48258 0.0
H264 H 0.09011 0.99043 0.90642 0.0
H265 H 0.0771 0.95814 0.06297 0.0
H266 H 0.06993 1.00612 0.09717 0.0
H267 H 0.07743 0.05741 0.08339 0.0
H268 H 0.09261 0.08997 0.92702 0.0
H269 H 0.08865 0.0421 0.89201 0.0
C270 C 0.08445 0.994 0.94781 0.0
C271 C 0.0847 0.97085 0.98215 0.0
C272 C 0.08154 1.02178 0.96737 0.0
C273 C 0.07785 0.9757 0.03587 0.0
C274 C 0.07374 1.00312 0.05546 0.0
C275 C 0.07874 0.05405 0.04165 0.0
C276 C 0.08613 0.07725 0.00803 0.0
C277 C 0.07712 0.02637 0.02174 0.0
C278 C 0.08816 0.07246 0.95392 0.0
C279 C 0.08565 0.04507 0.93378 0.0
H280 H 0.57015 0.05933 0.41247 0.0
H281 H 0.5666 0.08968 0.57104 0.0
H282 H 0.56892 0.04142 0.60335 0.0
H283 H 0.56823 0.99022 0.58698 0.0
H284 H 0.57756 0.96021 0.4285 0.0
H285 H 0.57725 1.00852 0.39631 0.0
C286 C 0.57059 0.05557 0.45408 0.0
C287 C 0.56716 0.07845 0.48891 0.0
C288 C 0.57274 0.02761 0.47274 0.0
C289 C 0.56761 0.07273 0.54287 0.0
C290 C 0.56941 0.04501 0.56163 0.0
C291 C 0.57095 0.9942 0.54548 0.0
C292 C 0.5718 0.97139 0.51041 0.0
C293 C 0.57134 1.02223 0.52694 0.0
C294 C 0.57521 0.97717 0.4566 0.0
C295 C 0.57544 1.00489 0.43799 0.0
H296 H 0.59814 0.57336 0.95518 0.0
H297 H 0.60015 0.55571 0.12004 0.0
H298 H 0.59492 0.50498 0.10216 0.0
H299 H 0.59761 0.4657 0.03936 0.0
H300 H 0.6 0.4838 0.8745 0.0
H301 H 0.59547 0.53433 0.89266 0.0
C302 C 0.59746 0.55842 0.98724 0.0
C303 C 0.60039 0.56831 0.03888 0.0
C304 C 0.59553 0.52937 0.9766 0.0
C305 C 0.59779 0.5487 0.07999 0.0
C306 C 0.59527 0.51968 0.06973 0.0
C307 C 0.59729 0.48068 0.00738 0.0
C308 C 0.59984 0.47088 0.95558 0.0
C309 C 0.59547 0.50978 0.01816 0.0
C310 C 0.59781 0.49063 0.91465 0.0
C311 C 0.59558 0.51958 0.92504 0.0
H312 H 0.09714 0.48359 0.57852 0.0
H313 H 0.05865 0.45782 0.42104 0.0
H314 H 0.06428 0.50673 0.39189 0.0
H315 H 0.07573 0.55747 0.41175 0.0
H316 H 0.11728 0.58254 0.56881 0.0
H317 H 0.11571 0.53341 0.59701 0.0
C318 C 0.09079 0.48846 0.53768 0.0
C319 C 0.07677 0.46679 0.50241 0.0
C320 C 0.09452 0.51672 0.52092 0.0
C321 C 0.06823 0.47392 0.4496 0.0
C322 C 0.07184 0.50198 0.43266 0.0
C323 C 0.0853 0.55212 0.45191 0.0
C324 C 0.09578 0.57378 0.48817 0.0
C325 C 0.08428 0.52364 0.46807 0.0
C326 C 0.10781 0.56641 0.54023 0.0
C327 C 0.10717 0.53826 0.55644 0.0
H328 H 0.35552 0.14096 0.35687 0.0
H329 H 0.47683 0.13947 0.22898 0.0
H330 H 0.39662 0.13568 0.1672 0.0
H331 H 0.29243 0.13982 0.1493 0.0
H332 H 0.17082 0.14281 0.2767 0.0
H333 H 0.25075 0.13849 0.33907 0.0
C334 C 0.36449 0.13924 0.31551 0.0
C335 C 0.42215 0.14085 0.29752 0.0
C336 C 0.31806 0.13756 0.2802 0.0
C337 C 0.43302 0.13827 0.2439 0.0
C338 C 0.38709 0.13632 0.20853 0.0
C339 C 0.2833 0.13893 0.19074 0.0
C340 C 0.22583 0.14191 0.20844 0.0
C341 C 0.32949 0.13699 0.22618 0.0
C342 C 0.21457 0.14044 0.26211 0.0
C343 C 0.26036 0.13824 0.29775 0.0
H344 H 0.36235 0.90137 0.642 0.0
H345 H 0.48559 0.90488 0.76824 0.0
H346 H 0.40615 0.90695 0.83114 0.0
H347 H 0.30259 0.9015 0.85041 0.0
H348 H 0.17925 0.89653 0.72453 0.0
H349 H 0.2579 0.90166 0.66116 0.0
C350 C 0.37189 0.90309 0.68326 0.0
C351 C 0.42991 0.90265 0.70044 0.0
C352 C 0.32598 0.90375 0.71919 0.0
C353 C 0.44147 0.90521 0.75394 0.0
C354 C 0.396 0.90617 0.78994 0.0
C355 C 0.29276 0.90197 0.80909 0.0
C356 C 0.2352 0.89829 0.79214 0.0
C357 C 0.33823 0.9045 0.77305 0.0
C358 C 0.22309 0.89934 0.73857 0.0
C359 C 0.26814 0.90207 0.70236 0.0
H360 H 0.84965 0.87376 0.84943 0.0
H361 H 0.98023 0.91637 0.75849 0.0
H362 H 0.90599 0.93117 0.69551 0.0
H363 H 0.80495 0.9279 0.66227 0.0
H364 H 0.67718 0.88338 0.75381 0.0
H365 H 0.74944 0.87339 0.8203 0.0
C366 C 0.86208 0.88653 0.81612 0.0
C367 C 0.92069 0.89369 0.80854 0.0
C368 C 0.81957 0.89438 0.77978 0.0
C369 C 0.93554 0.91056 0.76542 0.0
C370 C 0.89308 0.91885 0.72919 0.0
C371 C 0.79277 0.91636 0.6971 0.0
C372 C 0.73558 0.90619 0.7026 0.0
C373 C 0.83509 0.91029 0.73532 0.0
C374 C 0.72077 0.89122 0.74807 0.0
C375 C 0.76214 0.8855 0.78628 0.0
H376 H 0.79861 0.12058 0.33942 0.0
H377 H 0.66762 0.15672 0.23927 0.0
H378 H 0.73838 0.1619 0.16961 0.0
H379 H 0.8382 0.15994 0.13927 0.0
H380 H 0.97196 0.12651 0.2394 0.0
H381 H 0.89925 0.11592 0.30625 0.0
C382 C 0.7854 0.12923 0.30212 0.0
C383 C 0.72773 0.1384 0.29488 0.0
C384 C 0.82687 0.13268 0.26213 0.0
C385 C 0.71161 0.14969 0.24626 0.0
C386 C 0.75211 0.15265 0.20626 0.0
C387 C 0.85169 0.15001 0.17542 0.0
C388 C 0.9108 0.14425 0.18423 0.0
C389 C 0.81002 0.14477 0.21411 0.0
C390 C 0.92692 0.13118 0.23134 0.0
C391 C 0.88531 0.1253 0.26979 0.0
H392 H 0.8813 0.638 0.36058 0.0
H393 H 1.00742 0.64216 0.2367 0.0
H394 H 0.92968 0.64057 0.17209 0.0
H395 H 0.82607 0.64423 0.15142 0.0
H396 H 0.69977 0.64159 0.27529 0.0
H397 H 0.7775 0.63607 0.33933 0.0
C398 C 0.89191 0.63803 0.31941 0.0
C399 C 0.95018 0.64048 0.30354 0.0
C400 C 0.84691 0.6377 0.28254 0.0
C401 C 0.96311 0.64022 0.25006 0.0
C402 C 0.91857 0.63955 0.21308 0.0
C403 C 0.81538 0.64205 0.19238 0.0
C404 C 0.75712 0.64376 0.20859 0.0
C405 C 0.86032 0.63927 0.22896 0.0
C406 C 0.74413 0.64048 0.26172 0.0
C407 C 0.78863 0.63745 0.29838 0.0
H408 H 0.8785 0.39399 0.63528 0.0
H409 H 0.99706 0.39959 0.76468 0.0
H410 H 0.91512 0.40373 0.82499 0.0
H411 H 0.81029 0.39933 0.84134 0.0
H412 H 0.69203 0.39276 0.7118 0.0
H413 H 0.77344 0.39581 0.65088 0.0
C414 C 0.88647 0.39663 0.67664 0.0
C415 C 0.94382 0.39619 0.6956 0.0
C416 C 0.83919 0.39857 0.71094 0.0
C417 C 0.95346 0.39996 0.74912 0.0
C418 C 0.90655 0.40207 0.78359 0.0
C419 C 0.8022 0.39906 0.79971 0.0
C420 C 0.74515 0.39551 0.7811 0.0
C421 C 0.8493 0.40045 0.76505 0.0
C422 C 0.73536 0.39553 0.72713 0.0
C423 C 0.78199 0.39706 0.69233 0.0
H424 H 0.45502 0.39717 0.68997 0.0
H425 H 0.42148 0.40184 0.85521 0.0
H426 H 0.31803 0.40707 0.8381 0.0
H427 H 0.23625 0.40641 0.77681 0.0
H428 H 0.26928 0.40033 0.61166 0.0
H429 H 0.37346 0.39993 0.62824 0.0
C430 C 0.42526 0.39969 0.72231 0.0
C431 C 0.44638 0.3989 0.77391 0.0
C432 C 0.36546 0.40233 0.71221 0.0
C433 C 0.4068 0.40222 0.81514 0.0
C434 C 0.34744 0.40517 0.80538 0.0
C435 C 0.26611 0.40544 0.74426 0.0
C436 C 0.24453 0.40329 0.69297 0.0
C437 C 0.32614 0.40469 0.75414 0.0
C438 C 0.28431 0.40198 0.65151 0.0
C439 C 0.34405 0.40163 0.66099 0.0
H440 H 0.32114 0.62136 0.34321 0.0
H441 H 0.20297 0.67648 0.26097 0.0
H442 H 0.27789 0.68774 0.19789 0.0
H443 H 0.37828 0.68472 0.16886 0.0
H444 H 0.4981 0.62952 0.24812 0.0
H445 H 0.42114 0.61511 0.3087 0.0
C446 C 0.31162 0.63563 0.31123 0.0
C447 C 0.25641 0.64845 0.30776 0.0
C448 C 0.35528 0.64201 0.27439 0.0
C449 C 0.24503 0.66668 0.26558 0.0
C450 C 0.28793 0.6731 0.22917 0.0
C451 C 0.3876 0.66931 0.19908 0.0
C452 C 0.44409 0.65842 0.2042 0.0
C453 C 0.34341 0.66134 0.23372 0.0
C454 C 0.45503 0.63819 0.24318 0.0
C455 C 0.41106 0.63012 0.27806 0.0
H456 H 1.01471 0.29171 0.77448 0.0
H457 H 0.18253 0.31963 0.82651 0.0
H458 H 0.16873 0.29582 0.90976 0.0
H459 H 0.11386 0.26403 0.96398 0.0
H460 H 0.94496 0.23523 0.91584 0.0
H461 H 0.95467 0.26189 0.8341 0.0
C462 C 0.04752 0.29284 0.8046 0.0
C463 C 0.09982 0.30705 0.79449 0.0
C464 C 1.03956 0.27864 0.85241 0.0
C465 C 0.14241 0.30841 0.8334 0.0
C466 C 0.13453 0.29483 0.88089 0.0
C467 C 0.07814 0.26411 0.93656 0.0
C468 C 1.02839 0.24788 0.94655 0.0
C469 C 0.08393 0.27943 0.89031 0.0
C470 C 0.98385 0.24747 0.90916 0.0
C471 C 0.9893 0.2628 0.86253 0.0
H472 H 0.66112 0.76525 0.47676 0.0
H473 H 0.68722 0.84731 0.40684 0.0
H474 H 0.68605 0.82619 0.3204 0.0
H475 H 0.66353 0.7857 0.26454 0.0
H476 H 0.63316 0.70395 0.33336 0.0
H477 H 0.65018 0.72352 0.42029 0.0
C478 C 0.66742 0.77842 0.44259 0.0
C479 C 0.67361 0.80786 0.4483 0.0
C480 C 0.66503 0.76624 0.39279 0.0
C481 C 0.6828 0.82459 0.40373 0.0
C482 C 0.68143 0.81258 0.35416 0.0
C483 C 0.66119 0.77219 0.29863 0.0
C484 C 0.64612 0.74362 0.29285 0.0
C485 C 0.67032 0.78366 0.34824 0.0
C486 C 0.64459 0.72604 0.33699 0.0
C487 C 0.65399 0.73727 0.38664 0.0
H488 H 0.99429 0.77238 0.04475 0.0
H489 H 1.03156 0.85323 0.11417 0.0
H490 H 1.04219 0.83086 0.19951 0.0
H491 H 0.05716 0.7874 0.25061 0.0
H492 H 1.01972 0.70653 0.18232 0.0
H493 H 0.99196 0.72963 0.10026 0.0
C494 C 1.00318 0.7851 0.07894 0.0
C495 C 1.0127 0.8143 0.07335 0.0
C496 C 1.00989 0.77202 0.12774 0.0
C497 C 1.02381 0.83073 0.11771 0.0
C498 C 1.03045 0.81791 0.16637 0.0
C499 C 1.04143 0.77505 0.21801 0.0
C500 C 1.04098 0.74547 0.22172 0.0
C501 C 1.02602 0.78848 0.17131 0.0
C502 C 1.02019 0.72938 0.1799 0.0
C503 C 1.00485 0.74257 0.13305 0.0
H504 H 0.64785 0.32308 0.66228 0.0
H505 H 0.60414 0.24926 0.75199 0.0
H506 H 0.62901 0.21873 0.67834 0.0
H507 H 0.64809 0.21385 0.58489 0.0
H508 H 0.68063 0.28798 0.49182 0.0
H509 H 0.67642 0.31769 0.56988 0.0
C510 C 0.6455 0.30026 0.66575 0.0
C511 C 0.62449 0.28821 0.71204 0.0
C512 C 0.65735 0.28304 0.62243 0.0
C513 C 0.62031 0.25873 0.71641 0.0
C514 C 0.6343 0.24139 0.67436 0.0
C515 C 0.65617 0.23639 0.58212 0.0
C516 C 0.66504 0.24878 0.53303 0.0
C517 C 0.65079 0.25337 0.62662 0.0
C518 C 0.67406 0.27808 0.52945 0.0
C519 C 0.67123 0.29504 0.57396 0.0
H520 H 0.5584 0.76052 0.75643 0.0
H521 H 0.5263 0.84035 0.83082 0.0
H522 H 0.50498 0.81611 0.91332 0.0
H523 H 0.51131 0.77252 0.96648 0.0
H524 H 0.54111 0.69259 0.89105 0.0
H525 H 0.54635 0.71623 0.80622 0.0
C526 C 0.54507 0.77237 0.79051 0.0
C527 C 0.54418 0.802 0.78826 0.0
C528 C 0.53297 0.75826 0.83739 0.0
C529 C 0.52687 0.81747 0.83211 0.0
C530 C 0.51521 0.80363 0.87917 0.0
C531 C 0.51702 0.76031 0.93112 0.0
C532 C 0.52597 0.73098 0.93458 0.0
C533 C 0.5203 0.77409 0.88268 0.0
C534 C 0.53366 0.71518 0.88893 0.0
C535 C 0.53723 0.72872 0.84061 0.0
H536 H 0.14891 0.33041 0.39115 0.0
H537 H 0.20642 0.26072 0.4861 0.0
H538 H 0.19615 0.22846 0.41212 0.0
H539 H 0.15335 0.21898 0.32547 0.0
H540 H 0.0854 0.28815 0.23525 0.0
H541 H 0.1176 0.32187 0.30136 0.0
C542 C 0.16129 0.30836 0.39486 0.0
C543 C 0.17872 0.29787 0.44354 0.0
C544 C 0.1522 0.2898 0.35309 0.0
C545 C 0.19335 0.26917 0.44863 0.0
C546 C 0.18691 0.25072 0.40654 0.0
C547 C 0.14736 0.24153 0.31999 0.0
C548 C 0.11712 0.25131 0.27611 0.0
C549 C 0.16377 0.26058 0.35931 0.0
C550 C 0.10849 0.28042 0.26914 0.0
C551 C 0.12672 0.29959 0.3069 0.0
H552 H 0.49361 0.26652 0.0194 0.0
H553 H 0.52152 0.3479 0.09019 0.0
H554 H 0.52937 0.32568 0.17594 0.0
H555 H 0.54438 0.28238 0.2279 0.0
H556 H 0.51476 0.20108 0.15849 0.0
H557 H 0.49079 0.22374 0.07499 0.0
C558 C 0.49975 0.27937 0.05391 0.0
C559 C 0.5074 0.30873 0.04864 0.0
C560 C 0.50465 0.26639 0.10304 0.0
C561 C 0.51514 0.32529 0.09344 0.0
C562 C 0.52022 0.31256 0.14237 0.0
C563 C 0.53096 0.26985 0.1947 0.0
C564 C 0.53146 0.24029 0.19862 0.0
C565 C 0.5174 0.28307 0.14724 0.0
C566 C 0.51419 0.22393 0.1559 0.0
C567 C 0.50103 0.23688 0.10827 0.0
H568 H 0.16905 0.71663 0.60275 0.0
H569 H 0.1754 0.79115 0.50635 0.0
H570 H 0.16602 0.82122 0.5835 0.0
H571 H 0.13958 0.8257 0.67657 0.0
H572 H 0.12413 0.75063 0.77053 0.0
H573 H 0.15403 0.72136 0.6969 0.0
C574 C 0.17045 0.73947 0.599 0.0
C575 C 0.17317 0.75174 0.54926 0.0
C576 C 0.16223 0.75648 0.64317 0.0
C577 C 0.17363 0.78134 0.5445 0.0
C578 C 0.16777 0.79848 0.58851 0.0
C579 C 0.14432 0.80302 0.68095 0.0
C580 C 0.12927 0.7902 0.72845 0.0
C581 C 0.15955 0.78625 0.6378 0.0
C582 C 0.13491 0.76079 0.73394 0.0
C583 C 0.15196 0.74409 0.69192 0.0
loop_
_geom_bond_atom_site_label_1
_geom_bond_atom_site_label_2
_geom_bond_distance
_geom_bond_site_symmetry_2
_ccdc_geom_bond_type
C0 C1 1.351 . S
C0 N3 1.368 . S
C0 H5 0.931 . S
C1 C0 1.351 . S
C1 N2 1.373 . S
C1 H29 0.930 . S
N2 C1 1.373 . S
N2 C4 1.340 . S
N3 C0 1.368 . S
N3 C4 1.321 . S
N3 Co6 2.135 . S
C4 N2 1.340 . S
C4 N3 1.321 . S
C4 H28 0.930 1_455 S
H5 C0 0.931 . S
Co6 N3 2.135 . S
Co6 N9 2.121 . S
Co6 O14 2.055 . S
Co6 O17 2.039 1_455 S
Co6 N20 2.140 . S
C7 O8 1.227 . S
C7 O17 1.265 . S
O8 C7 1.227 . S
N9 Co6 2.121 . S
N9 C11 1.375 1_455 S
N9 C12 1.313 . S
C10 C11 1.338 . S
C10 N13 1.377 1_655 S
C10 H30 0.930 . S
C11 N9 1.375 1_655 S
C11 C10 1.338 . S
C11 H15 0.931 . S
C12 N9 1.313 . S
C12 N13 1.344 . S
C12 H16 0.930 . S
N13 C10 1.377 1_455 S
N13 C12 1.344 . S
O14 Co6 2.055 . S
O14 C18 1.253 . S
H15 C11 0.931 . S
H16 C12 0.930 . S
O17 Co6 2.039 1_655 S
O17 C7 1.265 . S
C18 O14 1.253 . S
C18 O19 1.227 . S
O19 C18 1.227 . S
N20 Co6 2.140 . S
N20 C23 1.346 . S
N20 C24 1.345 . S
C21 C22 1.387 . S
C21 C25 1.391 . S
C22 C21 1.387 . S
C22 C23 1.369 . S
C22 H31 0.929 1_454 S
C23 N20 1.346 . S
C23 C22 1.369 . S
C23 H26 0.928 1_455 S
C24 N20 1.345 . S
C24 C25 1.371 . S
C24 H27 0.931 . S
C25 C21 1.391 . S
C25 C24 1.371 . S
C25 H32 0.930 . S
H26 C23 0.928 1_655 S
H27 C24 0.931 . S
H28 C4 0.930 1_655 S
H29 C1 0.930 . S
H30 C10 0.930 . S
H31 C22 0.929 1_656 S
H32 C25 0.930 . S
C33 C34 1.351 . S
C33 N36 1.368 . S
C33 H38 0.931 . S
C34 C33 1.351 . S
C34 N35 1.373 . S
C34 H62 0.930 . S
N35 C34 1.373 . S
N35 C37 1.340 . S
N36 C33 1.368 . S
N36 C37 1.321 . S
N36 Co39 2.135 . S
C37 N35 1.340 . S
C37 N36 1.321 . S
C37 H61 0.930 . S
H38 C33 0.931 . S
Co39 N36 2.135 . S
Co39 N42 2.121 . S
Co39 O47 2.055 . S
Co39 O50 2.039 . S
Co39 N53 2.140 . S
C40 O41 1.227 . S
C40 O50 1.265 . S
O41 C40 1.227 . S
N42 Co39 2.121 . S
N42 C44 1.375 . S
N42 C45 1.313 . S
C43 C44 1.338 . S
C43 N46 1.377 . S
C43 H63 0.930 . S
C44 N42 1.375 . S
C44 C43 1.338 . S
C44 H48 0.931 . S
C45 N42 1.313 . S
C45 N46 1.344 . S
C45 H49 0.930 . S
N46 C43 1.377 . S
N46 C45 1.344 . S
O47 Co39 2.055 . S
O47 C51 1.253 . S
H48 C44 0.931 . S
H49 C45 0.930 . S
O50 Co39 2.039 . S
O50 C40 1.265 . S
C51 O47 1.253 . S
C51 O52 1.227 . S
O52 C51 1.227 . S
N53 Co39 2.140 . S
N53 C56 1.346 . S
N53 C57 1.345 . S
C54 C55 1.387 . S
C54 C58 1.391 . S
C55 C54 1.387 . S
C55 C56 1.369 . S
C55 H64 0.929 . S
C56 N53 1.346 . S
C56 C55 1.369 . S
C56 H59 0.928 . S
C57 N53 1.345 . S
C57 C58 1.371 . S
C57 H60 0.931 . S
C58 C54 1.391 . S
C58 C57 1.371 . S
C58 H65 0.930 . S
H59 C56 0.928 . S
H60 C57 0.931 . S
H61 C37 0.930 . S
H62 C34 0.930 . S
H63 C43 0.930 . S
H64 C55 0.929 . S
H65 C58 0.930 . S
C66 C67 1.351 . S
C66 N69 1.368 . S
C66 H71 0.931 . S
C67 C66 1.351 . S
C67 N68 1.373 . S
C67 H95 0.930 . S
N68 C67 1.373 . S
N68 C70 1.340 . S
N69 C66 1.368 . S
N69 C70 1.321 . S
N69 Co72 2.135 . S
C70 N68 1.340 . S
C70 N69 1.321 . S
C70 H94 0.930 1_455 S
H71 C66 0.931 . S
Co72 N69 2.135 . S
Co72 N75 2.121 . S
Co72 O80 2.055 . S
Co72 O83 2.039 1_455 S
Co72 N86 2.140 . S
C73 O74 1.227 . S
C73 O83 1.265 . S
O74 C73 1.227 . S
N75 Co72 2.121 . S
N75 C77 1.375 1_455 S
N75 C78 1.313 . S
C76 C77 1.338 . S
C76 N79 1.377 1_655 S
C76 H96 0.930 . S
C77 N75 1.375 1_655 S
C77 C76 1.338 . S
C77 H81 0.931 . S
C78 N75 1.313 . S
C78 N79 1.344 . S
C78 H82 0.930 . S
N79 C76 1.377 1_455 S
N79 C78 1.344 . S
O80 Co72 2.055 . S
O80 C84 1.253 . S
H81 C77 0.931 . S
H82 C78 0.930 . S
O83 Co72 2.039 1_655 S
O83 C73 1.265 . S
C84 O80 1.253 . S
C84 O85 1.227 . S
O85 C84 1.227 . S
N86 Co72 2.140 . S
N86 C89 1.346 . S
N86 C90 1.345 . S
C87 C88 1.387 . S
C87 C91 1.391 . S
C88 C87 1.387 . S
C88 C89 1.369 . S
C88 H97 0.929 1_456 S
C89 N86 1.346 . S
C89 C88 1.369 . S
C89 H92 0.928 1_455 S
C90 N86 1.345 . S
C90 C91 1.371 . S
C90 H93 0.931 . S
C91 C87 1.391 . S
C91 C90 1.371 . S
C91 H98 0.930 . S
H92 C89 0.928 1_655 S
H93 C90 0.931 . S
H94 C70 0.930 1_655 S
H95 C67 0.930 . S
H96 C76 0.930 . S
H97 C88 0.929 1_654 S
H98 C91 0.930 . S
C99 C100 1.351 . S
C99 N102 1.368 . S
C99 H104 0.931 . S
C100 C99 1.351 . S
C100 N101 1.373 . S
C100 H128 0.930 . S
N101 C100 1.373 . S
N101 C103 1.340 . S
N102 C99 1.368 . S
N102 C103 1.321 . S
N102 Co105 2.135 . S
C103 N101 1.340 . S
C103 N102 1.321 . S
C103 H127 0.930 . S
H104 C99 0.931 . S
Co105 N102 2.135 . S
Co105 N108 2.121 . S
Co105 O113 2.055 . S
Co105 O116 2.039 . S
Co105 N119 2.140 . S
C106 O107 1.227 . S
C106 O116 1.265 . S
O107 C106 1.227 . S
N108 Co105 2.121 . S
N108 C110 1.375 . S
N108 C111 1.313 . S
C109 C110 1.338 . S
C109 N112 1.377 . S
C109 H129 0.930 . S
C110 N108 1.375 . S
C110 C109 1.338 . S
C110 H114 0.931 . S
C111 N108 1.313 . S
C111 N112 1.344 . S
C111 H115 0.930 . S
N112 C109 1.377 . S
N112 C111 1.344 . S
O113 Co105 2.055 . S
O113 C117 1.253 . S
H114 C110 0.931 . S
H115 C111 0.930 . S
O116 Co105 2.039 . S
O116 C106 1.265 . S
C117 O113 1.253 . S
C117 O118 1.227 . S
O118 C117 1.227 . S
N119 Co105 2.140 . S
N119 C122 1.346 . S
N119 C123 1.345 . S
C120 C121 1.387 . S
C120 C124 1.391 . S
C121 C120 1.387 . S
C121 C122 1.369 . S
C121 H130 0.929 . S
C122 N119 1.346 . S
C122 C121 1.369 . S
C122 H125 0.928 . S
C123 N119 1.345 . S
C123 C124 1.371 . S
C123 H126 0.931 . S
C124 C120 1.391 . S
C124 C123 1.371 . S
C124 H131 0.930 . S
H125 C122 0.928 . S
H126 C123 0.931 . S
H127 C103 0.930 . S
H128 C100 0.930 . S
H129 C109 0.930 . S
H130 C121 0.929 . S
H131 C124 0.930 . S
C132 C133 1.351 . S
C132 N135 1.368 . S
C132 H137 0.931 . S
C133 C132 1.351 . S
C133 N134 1.373 . S
C133 H161 0.930 . S
N134 C133 1.373 . S
N134 C136 1.340 . S
N135 C132 1.368 . S
N135 C136 1.321 . S
N135 Co138 2.135 . S
C136 N134 1.340 . S
C136 N135 1.321 . S
C136 H160 0.930 . S
H137 C132 0.931 . S
Co138 N135 2.135 . S
Co138 N141 2.121 . S
Co138 O146 2.055 . S
Co138 O149 2.039 . S
Co138 N152 2.140 . S
C139 O140 1.227 . S
C139 O149 1.265 . S
O140 C139 1.227 . S
N141 Co138 2.121 . S
N141 C143 1.375 . S
N141 C144 1.313 . S
C142 C143 1.338 . S
C142 N145 1.377 . S
C142 H162 0.930 . S
C143 N141 1.375 . S
C143 C142 1.338 . S
C143 H147 0.931 . S
C144 N141 1.313 . S
C144 N145 1.344 . S
C144 H148 0.930 . S
N145 C142 1.377 . S
N145 C144 1.344 . S
O146 Co138 2.055 . S
O146 C150 1.253 . S
H147 C143 0.931 . S
H148 C144 0.930 . S
O149 Co138 2.039 . S
O149 C139 1.265 . S
C150 O146 1.253 . S
C150 O151 1.227 . S
O151 C150 1.227 . S
N152 Co138 2.140 . S
N152 C155 1.346 . S
N152 C156 1.345 . S
C153 C154 1.387 . S
C153 C157 1.391 . S
C154 C153 1.387 . S
C154 C155 1.369 . S
C154 H163 0.929 1_554 S
C155 N152 1.346 . S
C155 C154 1.369 . S
C155 H158 0.928 . S
C156 N152 1.345 . S
C156 C157 1.371 . S
C156 H159 0.931 . S
C157 C153 1.391 . S
C157 C156 1.371 . S
C157 H164 0.930 . S
H158 C155 0.928 . S
H159 C156 0.931 . S
H160 C136 0.930 . S
H161 C133 0.930 . S
H162 C142 0.930 . S
H163 C154 0.929 1_556 S
H164 C157 0.930 . S
C165 C166 1.352 . S
C165 N168 1.368 1_655 S
C165 H170 0.931 . S
C166 C165 1.352 . S
C166 N167 1.367 1_655 S
C166 H194 0.934 . S
N167 C166 1.367 1_455 S
N167 C169 1.340 . S
N168 C165 1.368 1_455 S
N168 C169 1.321 . S
N168 Co171 2.135 . S
C169 N167 1.340 . S
C169 N168 1.321 . S
C169 H193 0.930 . S
H170 C165 0.931 . S
Co171 N168 2.135 . S
Co171 N174 2.121 . S
Co171 O179 2.055 1_455 S
Co171 O182 2.039 . S
Co171 N185 2.140 . S
C172 O173 1.227 . S
C172 O182 1.265 . S
O173 C172 1.227 . S
N174 Co171 2.121 . S
N174 C176 1.375 . S
N174 C177 1.313 . S
C175 C176 1.338 . S
C175 N178 1.377 . S
C175 H195 0.930 . S
C176 N174 1.375 . S
C176 C175 1.338 . S
C176 H180 0.931 . S
C177 N174 1.313 . S
C177 N178 1.344 . S
C177 H181 0.930 1_455 S
N178 C175 1.377 . S
N178 C177 1.344 . S
O179 Co171 2.055 1_655 S
O179 C183 1.253 . S
H180 C176 0.931 . S
H181 C177 0.930 1_655 S
O182 Co171 2.039 . S
O182 C172 1.265 . S
C183 O179 1.253 . S
C183 O184 1.227 . S
O184 C183 1.227 . S
N185 Co171 2.140 . S
N185 C188 1.346 . S
N185 C189 1.345 . S
C186 C187 1.387 . S
C186 C190 1.391 . S
C187 C186 1.387 . S
C187 C188 1.369 . S
C187 H196 0.929 . S
C188 N185 1.346 . S
C188 C187 1.369 . S
C188 H191 0.928 . S
C189 N185 1.345 . S
C189 C190 1.371 . S
C189 H192 0.931 . S
C190 C186 1.391 . S
C190 C189 1.371 . S
C190 H197 0.930 . S
H191 C188 0.928 . S
H192 C189 0.931 . S
H193 C169 0.930 . S
H194 C166 0.934 . S
H195 C175 0.930 . S
H196 C187 0.929 . S
H197 C190 0.930 . S
C198 C199 1.351 . S
C198 N201 1.368 . S
C198 H203 0.931 . S
C199 C198 1.351 . S
C199 N200 1.373 . S
C199 H227 0.930 . S
N200 C199 1.373 . S
N200 C202 1.340 . S
N201 C198 1.368 . S
N201 C202 1.321 . S
N201 Co204 2.135 . S
C202 N200 1.340 . S
C202 N201 1.321 . S
C202 H226 0.930 . S
H203 C198 0.931 . S
Co204 N201 2.135 . S
Co204 N207 2.121 . S
Co204 O212 2.055 . S
Co204 O215 2.039 . S
Co204 N218 2.140 . S
C205 O206 1.227 . S
C205 O215 1.265 . S
O206 C205 1.227 . S
N207 Co204 2.121 . S
N207 C209 1.375 . S
N207 C210 1.313 . S
C208 C209 1.338 . S
C208 N211 1.377 . S
C208 H228 0.930 . S
C209 N207 1.375 . S
C209 C208 1.338 . S
C209 H213 0.931 . S
C210 N207 1.313 . S
C210 N211 1.344 . S
C210 H214 0.930 . S
N211 C208 1.377 . S
N211 C210 1.344 . S
O212 Co204 2.055 . S
O212 C216 1.253 . S
H213 C209 0.931 . S
H214 C210 0.930 . S
O215 Co204 2.039 . S
O215 C205 1.265 . S
C216 O212 1.253 . S
C216 O217 1.227 . S
O217 C216 1.227 . S
N218 Co204 2.140 . S
N218 C221 1.346 . S
N218 C222 1.345 . S
C219 C220 1.387 . S
C219 C223 1.391 . S
C220 C219 1.387 . S
C220 C221 1.369 . S
C220 H229 0.929 1_556 S
C221 N218 1.346 . S
C221 C220 1.369 . S
C221 H224 0.928 . S
C222 N218 1.345 . S
C222 C223 1.371 . S
C222 H225 0.931 . S
C223 C219 1.391 . S
C223 C222 1.371 . S
C223 H230 0.930 . S
H224 C221 0.928 . S
H225 C222 0.931 . S
H226 C202 0.930 . S
H227 C199 0.930 . S
H228 C208 0.930 . S
H229 C220 0.929 1_554 S
H230 C223 0.930 . S
C231 C232 1.352 . S
C231 N234 1.368 1_655 S
C231 H236 0.931 . S
C232 C231 1.352 . S
C232 N233 1.367 1_655 S
C232 H260 0.934 . S
N233 C232 1.367 1_455 S
N233 C235 1.340 . S
N234 C231 1.368 1_455 S
N234 C235 1.321 . S
N234 Co237 2.135 . S
C235 N233 1.340 . S
C235 N234 1.321 . S
C235 H259 0.930 . S
H236 C231 0.931 . S
Co237 N234 2.135 . S
Co237 N240 2.121 . S
Co237 O245 2.055 1_455 S
Co237 O248 2.039 . S
Co237 N251 2.140 . S
C238 O239 1.227 . S
C238 O248 1.265 . S
O239 C238 1.227 . S
N240 Co237 2.121 . S
N240 C242 1.375 . S
N240 C243 1.313 . S
C241 C242 1.338 . S
C241 N244 1.377 . S
C241 H261 0.930 . S
C242 N240 1.375 . S
C242 C241 1.338 . S
C242 H246 0.931 . S
C243 N240 1.313 . S
C243 N244 1.344 . S
C243 H247 0.930 1_455 S
N244 C241 1.377 . S
N244 C243 1.344 . S
O245 Co237 2.055 1_655 S
O245 C249 1.253 . S
H246 C242 0.931 . S
H247 C243 0.930 1_655 S
O248 Co237 2.039 . S
O248 C238 1.265 . S
C249 O245 1.253 . S
C249 O250 1.227 . S
O250 C249 1.227 . S
N251 Co237 2.140 . S
N251 C254 1.346 . S
N251 C255 1.345 . S
C252 C253 1.387 . S
C252 C256 1.391 . S
C253 C252 1.387 . S
C253 C254 1.369 . S
C253 H262 0.929 . S
C254 N251 1.346 . S
C254 C253 1.369 . S
C254 H257 0.928 . S
C255 N251 1.345 . S
C255 C256 1.371 . S
C255 H258 0.931 . S
C256 C252 1.391 . S
C256 C255 1.371 . S
C256 H263 0.930 . S
H257 C254 0.928 . S
H258 C255 0.931 . S
H259 C235 0.930 . S
H260 C232 0.934 . S
H261 C241 0.930 . S
H262 C253 0.929 . S
H263 C256 0.930 . S
H264 C270 0.930 . S
H265 C273 0.930 . S
H266 C274 0.930 . S
H267 C275 0.930 . S
H268 C278 0.930 . S
H269 C279 0.930 . S
C270 H264 0.930 . S
C270 C271 1.355 . S
C270 C272 1.415 1_565 S
C271 C270 1.355 . S
C271 C273 1.419 1_556 S
C272 C270 1.415 1_545 S
C272 C277 1.425 1_546 S
C272 C279 1.409 . S
C273 H265 0.930 . S
C273 C271 1.419 1_554 S
C273 C274 1.362 . S
C274 H266 0.930 . S
C274 C273 1.362 . S
C274 C277 1.409 . S
C275 H267 0.930 . S
C275 C276 1.355 . S
C275 C277 1.415 1_545 S
C276 C275 1.355 . S
C276 C278 1.419 1_554 S
C277 C272 1.425 1_564 S
C277 C274 1.409 . S
C277 C275 1.415 1_565 S
C278 H268 0.930 . S
C278 C276 1.419 1_556 S
C278 C279 1.362 . S
C279 H269 0.930 . S
C279 C272 1.409 . S
C279 C278 1.362 . S
H280 C286 0.930 . S
H281 C289 0.930 . S
H282 C290 0.930 . S
H283 C291 0.930 . S
H284 C294 0.930 . S
H285 C295 0.930 . S
C286 H280 0.930 . S
C286 C287 1.355 . S
C286 C288 1.410 1_545 S
C287 C286 1.355 . S
C287 C289 1.419 . S
C288 C286 1.410 1_565 S
C288 C293 1.425 1_565 S
C288 C295 1.414 . S
C289 H281 0.930 . S
C289 C287 1.419 . S
C289 C290 1.362 . S
C290 H282 0.930 . S
C290 C289 1.362 . S
C290 C293 1.414 . S
C291 H283 0.930 . S
C291 C292 1.355 . S
C291 C293 1.410 1_565 S
C292 C291 1.355 . S
C292 C294 1.419 . S
C293 C288 1.425 1_545 S
C293 C290 1.414 . S
C293 C291 1.410 1_545 S
C294 H284 0.930 . S
C294 C292 1.419 . S
C294 C295 1.362 . S
C295 H285 0.930 . S
C295 C288 1.414 . S
C295 C294 1.362 . S
H296 C302 0.930 . S
H297 C305 0.930 . S
H298 C306 0.930 . S
H299 C307 0.930 . S
H300 C310 0.930 . S
H301 C311 0.930 . S
C302 H296 0.930 . S
C302 C303 1.355 . S
C302 C304 1.415 . S
C303 C302 1.355 . S
C303 C305 1.419 . S
C304 C302 1.415 . S
C304 C309 1.425 1_554 S
C304 C311 1.409 1_554 S
C305 H297 0.930 . S
C305 C303 1.419 . S
C305 C306 1.362 . S
C306 H298 0.930 . S
C306 C305 1.362 . S
C306 C309 1.409 1_554 S
C307 H299 0.930 . S
C307 C308 1.355 . S
C307 C309 1.415 . S
C308 C307 1.355 . S
C308 C310 1.419 . S
C309 C304 1.425 1_556 S
C309 C306 1.409 1_556 S
C309 C307 1.415 . S
C310 H300 0.930 . S
C310 C308 1.419 . S
C310 C311 1.362 . S
C311 H301 0.930 . S
C311 C304 1.409 1_556 S
C311 C310 1.362 . S
H312 C318 0.930 . S
H313 C321 0.930 1_655 S
H314 C322 0.930 1_655 S
H315 C323 0.930 . S
H316 C326 0.930 . S
H317 C327 0.930 . S
C318 H312 0.930 . S
C318 C319 1.355 . S
C318 C320 1.415 . S
C319 C318 1.355 . S
C319 C321 1.419 . S
C320 C318 1.415 . S
C320 C325 1.425 . S
C320 C327 1.409 . S
C321 H313 0.930 1_455 S
C321 C319 1.419 . S
C321 C322 1.362 . S
C322 H314 0.930 1_455 S
C322 C321 1.362 . S
C322 C325 1.409 . S
C323 H315 0.930 . S
C323 C324 1.355 . S
C323 C325 1.415 . S
C324 C323 1.355 . S
C324 C326 1.419 . S
C325 C320 1.425 . S
C325 C322 1.409 . S
C325 C323 1.415 . S
C326 H316 0.930 . S
C326 C324 1.419 . S
C326 C327 1.362 . S
C327 H317 0.930 . S
C327 C320 1.409 . S
C327 C326 1.362 . S
H328 C334 0.930 . S
H329 C337 0.930 . S
H330 C338 0.930 . S
H331 C339 0.930 . S
H332 C342 0.930 . S
H333 C343 0.930 . S
C334 H328 0.930 . S
C334 C335 1.355 . S
C334 C336 1.415 . S
C335 C334 1.355 . S
C335 C337 1.419 . S
C336 C334 1.415 . S
C336 C341 1.425 . S
C336 C343 1.409 . S
C337 H329 0.930 . S
C337 C335 1.419 . S
C337 C338 1.362 . S
C338 H330 0.930 . S
C338 C337 1.362 . S
C338 C341 1.409 . S
C339 H331 0.930 . S
C339 C340 1.355 . S
C339 C341 1.415 . S
C340 C339 1.355 . S
C340 C342 1.419 . S
C341 C336 1.425 . S
C341 C338 1.409 . S
C341 C339 1.415 . S
C342 H332 0.930 . S
C342 C340 1.419 . S
C342 C343 1.362 . S
C343 H333 0.930 . S
C343 C336 1.409 . S
C343 C342 1.362 . S
H344 C350 0.930 . S
H345 C353 0.930 . S
H346 C354 0.930 . S
H347 C355 0.930 . S
H348 C358 0.930 . S
H349 C359 0.930 . S
C350 H344 0.930 . S
C350 C351 1.355 . S
C350 C352 1.415 . S
C351 C350 1.355 . S
C351 C353 1.419 . S
C352 C350 1.415 . S
C352 C357 1.425 . S
C352 C359 1.409 . S
C353 H345 0.930 . S
C353 C351 1.419 . S
C353 C354 1.362 . S
C354 H346 0.930 . S
C354 C353 1.362 . S
C354 C357 1.409 . S
C355 H347 0.930 . S
C355 C356 1.355 . S
C355 C357 1.415 . S
C356 C355 1.355 . S
C356 C358 1.419 . S
C357 C352 1.425 . S
C357 C354 1.409 . S
C357 C355 1.415 . S
C358 H348 0.930 . S
C358 C356 1.419 . S
C358 C359 1.362 . S
C359 H349 0.930 . S
C359 C352 1.409 . S
C359 C358 1.362 . S
H360 C366 0.930 . S
H361 C369 0.930 . S
H362 C370 0.930 . S
H363 C371 0.930 . S
H364 C374 0.930 . S
H365 C375 0.930 . S
C366 H360 0.930 . S
C366 C367 1.355 . S
C366 C368 1.415 . S
C367 C366 1.355 . S
C367 C369 1.419 . S
C368 C366 1.415 . S
C368 C373 1.425 . S
C368 C375 1.409 . S
C369 H361 0.930 . S
C369 C367 1.419 . S
C369 C370 1.362 . S
C370 H362 0.930 . S
C370 C369 1.362 . S
C370 C373 1.409 . S
C371 H363 0.930 . S
C371 C372 1.355 . S
C371 C373 1.415 . S
C372 C371 1.355 . S
C372 C374 1.419 . S
C373 C368 1.425 . S
C373 C370 1.409 . S
C373 C371 1.415 . S
C374 H364 0.930 . S
C374 C372 1.419 . S
C374 C375 1.362 . S
C375 H365 0.930 . S
C375 C368 1.409 . S
C375 C374 1.362 . S
H376 C382 0.930 . S
H377 C385 0.930 . S
H378 C386 0.930 . S
H379 C387 0.930 . S
H380 C390 0.930 . S
H381 C391 0.930 . S
C382 H376 0.930 . S
C382 C383 1.355 . S
C382 C384 1.415 . S
C383 C382 1.355 . S
C383 C385 1.419 . S
C384 C382 1.415 . S
C384 C389 1.425 . S
C384 C391 1.409 . S
C385 H377 0.930 . S
C385 C383 1.419 . S
C385 C386 1.362 . S
C386 H378 0.930 . S
C386 C385 1.362 . S
C386 C389 1.409 . S
C387 H379 0.930 . S
C387 C388 1.355 . S
C387 C389 1.415 . S
C388 C387 1.355 . S
C388 C390 1.419 . S
C389 C384 1.425 . S
C389 C386 1.409 . S
C389 C387 1.415 . S
C390 H380 0.930 . S
C390 C388 1.419 . S
C390 C391 1.362 . S
C391 H381 0.930 . S
C391 C384 1.409 . S
C391 C390 1.362 . S
H392 C398 0.930 . S
H393 C401 0.930 . S
H394 C402 0.930 . S
H395 C403 0.930 . S
H396 C406 0.930 . S
H397 C407 0.930 . S
C398 H392 0.930 . S
C398 C399 1.355 . S
C398 C400 1.415 . S
C399 C398 1.355 . S
C399 C401 1.419 . S
C400 C398 1.415 . S
C400 C405 1.425 . S
C400 C407 1.409 . S
C401 H393 0.930 . S
C401 C399 1.419 . S
C401 C402 1.362 . S
C402 H394 0.930 . S
C402 C401 1.362 . S
C402 C405 1.409 . S
C403 H395 0.930 . S
C403 C404 1.355 . S
C403 C405 1.415 . S
C404 C403 1.355 . S
C404 C406 1.419 . S
C405 C400 1.425 . S
C405 C402 1.409 . S
C405 C403 1.415 . S
C406 H396 0.930 . S
C406 C404 1.419 . S
C406 C407 1.362 . S
C407 H397 0.930 . S
C407 C400 1.409 . S
C407 C406 1.362 . S
H408 C414 0.930 . S
H409 C417 0.930 . S
H410 C418 0.930 . S
H411 C419 0.930 . S
H412 C422 0.930 . S
H413 C423 0.930 . S
C414 H408 0.930 . S
C414 C415 1.355 . S
C414 C416 1.415 . S
C415 C414 1.355 . S
C415 C417 1.419 . S
C416 C414 1.415 . S
C416 C421 1.425 . S
C416 C423 1.409 . S
C417 H409 0.930 . S
C417 C415 1.419 . S
C417 C418 1.362 . S
C418 H410 0.930 . S
C418 C417 1.362 . S
C418 C421 1.409 . S
C419 H411 0.930 . S
C419 C420 1.355 . S
C419 C421 1.415 . S
C420 C419 1.355 . S
C420 C422 1.419 . S
C421 C416 1.425 . S
C421 C418 1.409 . S
C421 C419 1.415 . S
C422 H412 0.930 . S
C422 C420 1.419 . S
C422 C423 1.362 . S
C423 H413 0.930 . S
C423 C416 1.409 . S
C423 C422 1.362 . S
H424 C430 0.930 . S
H425 C433 0.930 . S
H426 C434 0.930 . S
H427 C435 0.930 . S
H428 C438 0.930 . S
H429 C439 0.930 . S
C430 H424 0.930 . S
C430 C431 1.355 . S
C430 C432 1.415 . S
C431 C430 1.355 . S
C431 C433 1.419 . S
C432 C430 1.415 . S
C432 C437 1.425 . S
C432 C439 1.409 . S
C433 H425 0.930 . S
C433 C431 1.419 . S
C433 C434 1.362 . S
C434 H426 0.930 . S
C434 C433 1.362 . S
C434 C437 1.409 . S
C435 H427 0.930 . S
C435 C436 1.355 . S
C435 C437 1.415 . S
C436 C435 1.355 . S
C436 C438 1.419 . S
C437 C432 1.425 . S
C437 C434 1.409 . S
C437 C435 1.415 . S
C438 H428 0.930 . S
C438 C436 1.419 . S
C438 C439 1.362 . S
C439 H429 0.930 . S
C439 C432 1.409 . S
C439 C438 1.362 . S
H440 C446 0.930 . S
H441 C449 0.930 . S
H442 C450 0.930 . S
H443 C451 0.930 . S
H444 C454 0.930 . S
H445 C455 0.930 . S
C446 H440 0.930 . S
C446 C447 1.355 . S
C446 C448 1.415 . S
C447 C446 1.355 . S
C447 C449 1.419 . S
C448 C446 1.415 . S
C448 C453 1.425 . S
C448 C455 1.409 . S
C449 H441 0.930 . S
C449 C447 1.419 . S
C449 C450 1.362 . S
C450 H442 0.930 . S
C450 C449 1.362 . S
C450 C453 1.409 . S
C451 H443 0.930 . S
C451 C452 1.355 . S
C451 C453 1.415 . S
C452 C451 1.355 . S
C452 C454 1.419 . S
C453 C448 1.425 . S
C453 C450 1.409 . S
C453 C451 1.415 . S
C454 H444 0.930 . S
C454 C452 1.419 . S
C454 C455 1.362 . S
C455 H445 0.930 . S
C455 C448 1.409 . S
C455 C454 1.362 . S
H456 C462 0.930 1_655 S
H457 C465 0.930 . S
H458 C466 0.930 . S
H459 C467 0.930 . S
H460 C470 0.930 . S
H461 C471 0.930 . S
C462 H456 0.930 1_455 S
C462 C463 1.355 . S
C462 C464 1.415 . S
C463 C462 1.355 . S
C463 C465 1.419 . S
C464 C462 1.415 . S
C464 C469 1.425 . S
C464 C471 1.409 1_455 S
C465 H457 0.930 . S
C465 C463 1.419 . S
C465 C466 1.362 . S
C466 H458 0.930 . S
C466 C465 1.362 . S
C466 C469 1.409 . S
C467 H459 0.930 . S
C467 C468 1.355 . S
C467 C469 1.415 . S
C468 C467 1.355 . S
C468 C470 1.419 1_455 S
C469 C464 1.425 . S
C469 C466 1.409 . S
C469 C467 1.415 . S
C470 H460 0.930 . S
C470 C468 1.419 1_655 S
C470 C471 1.362 . S
C471 H461 0.930 . S
C471 C464 1.409 1_655 S
C471 C470 1.362 . S
H472 C478 0.930 . S
H473 C481 0.930 . S
H474 C482 0.930 . S
H475 C483 0.930 . S
H476 C486 0.930 . S
H477 C487 0.930 . S
C478 H472 0.930 . S
C478 C479 1.355 . S
C478 C480 1.415 . S
C479 C478 1.355 . S
C479 C481 1.419 . S
C480 C478 1.415 . S
C480 C485 1.425 . S
C480 C487 1.409 . S
C481 H473 0.930 . S
C481 C479 1.419 . S
C481 C482 1.362 . S
C482 H474 0.930 . S
C482 C481 1.362 . S
C482 C485 1.409 . S
C483 H475 0.930 . S
C483 C484 1.355 . S
C483 C485 1.415 . S
C484 C483 1.355 . S
C484 C486 1.419 . S
C485 C480 1.425 . S
C485 C482 1.409 . S
C485 C483 1.415 . S
C486 H476 0.930 . S
C486 C484 1.419 . S
C486 C487 1.362 . S
C487 H477 0.930 . S
C487 C480 1.409 . S
C487 C486 1.362 . S
H488 C494 0.930 . S
H489 C497 0.930 . S
H490 C498 0.930 . S
H491 C499 0.930 . S
H492 C502 0.930 . S
H493 C503 0.930 . S
C494 H488 0.930 . S
C494 C495 1.355 1_655 S
C494 C496 1.415 1_655 S
C495 C494 1.355 1_455 S
C495 C497 1.419 . S
C496 C494 1.415 1_455 S
C496 C501 1.425 . S
C496 C503 1.409 1_455 S
C497 H489 0.930 . S
C497 C495 1.419 . S
C497 C498 1.362 . S
C498 H490 0.930 . S
C498 C497 1.362 . S
C498 C501 1.409 . S
C499 H491 0.930 . S
C499 C500 1.355 . S
C499 C501 1.415 . S
C500 C499 1.355 . S
C500 C502 1.419 1_455 S
C501 C496 1.425 . S
C501 C498 1.409 . S
C501 C499 1.415 . S
C502 H492 0.930 . S
C502 C500 1.419 1_655 S
C502 C503 1.362 . S
C503 H493 0.930 . S
C503 C496 1.409 1_655 S
C503 C502 1.362 . S
H504 C510 0.930 . S
H505 C513 0.930 . S
H506 C514 0.930 . S
H507 C515 0.930 . S
H508 C518 0.930 . S
H509 C519 0.930 . S
C510 H504 0.930 . S
C510 C511 1.355 . S
C510 C512 1.415 . S
C511 C510 1.355 . S
C511 C513 1.419 . S
C512 C510 1.415 . S
C512 C517 1.425 . S
C512 C519 1.409 . S
C513 H505 0.930 . S
C513 C511 1.419 . S
C513 C514 1.362 . S
C514 H506 0.930 . S
C514 C513 1.362 . S
C514 C517 1.409 . S
C515 H507 0.930 . S
C515 C516 1.355 . S
C515 C517 1.415 . S
C516 C515 1.355 . S
C516 C518 1.419 . S
C517 C512 1.425 . S
C517 C514 1.409 . S
C517 C515 1.415 . S
C518 H508 0.930 . S
C518 C516 1.419 . S
C518 C519 1.362 . S
C519 H509 0.930 . S
C519 C512 1.409 . S
C519 C518 1.362 . S
H520 C526 0.930 . S
H521 C529 0.930 . S
H522 C530 0.930 . S
H523 C531 0.930 . S
H524 C534 0.930 1_554 S
H525 C535 0.930 . S
C526 H520 0.930 . S
C526 C527 1.355 . S
C526 C528 1.415 . S
C527 C526 1.355 . S
C527 C529 1.419 . S
C528 C526 1.415 . S
C528 C533 1.425 . S
C528 C535 1.409 . S
C529 H521 0.930 . S
C529 C527 1.419 . S
C529 C530 1.362 . S
C530 H522 0.930 . S
C530 C529 1.362 . S
C530 C533 1.409 . S
C531 H523 0.930 . S
C531 C532 1.355 . S
C531 C533 1.415 . S
C532 C531 1.355 . S
C532 C534 1.419 . S
C533 C528 1.425 . S
C533 C530 1.409 . S
C533 C531 1.415 . S
C534 H524 0.930 1_556 S
C534 C532 1.419 . S
C534 C535 1.362 . S
C535 H525 0.930 . S
C535 C528 1.409 . S
C535 C534 1.362 . S
H536 C542 0.930 . S
H537 C545 0.930 . S
H538 C546 0.930 . S
H539 C547 0.930 . S
H540 C550 0.930 . S
H541 C551 0.930 . S
C542 H536 0.930 . S
C542 C543 1.355 . S
C542 C544 1.415 . S
C543 C542 1.355 . S
C543 C545 1.419 . S
C544 C542 1.415 . S
C544 C549 1.425 . S
C544 C551 1.409 . S
C545 H537 0.930 . S
C545 C543 1.419 . S
C545 C546 1.362 . S
C546 H538 0.930 . S
C546 C545 1.362 . S
C546 C549 1.409 . S
C547 H539 0.930 . S
C547 C548 1.355 . S
C547 C549 1.415 . S
C548 C547 1.355 . S
C548 C550 1.419 . S
C549 C544 1.425 . S
C549 C546 1.409 . S
C549 C547 1.415 . S
C550 H540 0.930 . S
C550 C548 1.419 . S
C550 C551 1.362 . S
C551 H541 0.930 . S
C551 C544 1.409 . S
C551 C550 1.362 . S
H552 C558 0.934 . S
H553 C561 0.930 . S
H554 C562 0.930 . S
H555 C563 0.930 . S
H556 C566 0.930 . S
H557 C567 0.930 . S
C558 H552 0.934 . S
C558 C559 1.355 . S
C558 C560 1.415 . S
C559 C558 1.355 . S
C559 C561 1.419 . S
C560 C558 1.415 . S
C560 C565 1.425 . S
C560 C567 1.409 . S
C561 H553 0.930 . S
C561 C559 1.419 . S
C561 C562 1.362 . S
C562 H554 0.930 . S
C562 C561 1.362 . S
C562 C565 1.409 . S
C563 H555 0.930 . S
C563 C564 1.355 . S
C563 C565 1.415 . S
C564 C563 1.355 . S
C564 C566 1.419 . S
C565 C560 1.425 . S
C565 C562 1.409 . S
C565 C563 1.415 . S
C566 H556 0.930 . S
C566 C564 1.419 . S
C566 C567 1.362 . S
C567 H557 0.930 . S
C567 C560 1.409 . S
C567 C566 1.362 . S
H568 C574 0.930 1_655 S
H569 C577 0.930 . S
H570 C578 0.930 . S
H571 C579 0.930 . S
H572 C582 0.930 1_655 S
H573 C583 0.930 1_655 S
C574 H568 0.930 1_455 S
C574 C575 1.355 . S
C574 C576 1.415 . S
C575 C574 1.355 . S
C575 C577 1.419 . S
C576 C574 1.415 . S
C576 C581 1.425 . S
C576 C583 1.409 . S
C577 H569 0.930 . S
C577 C575 1.419 . S
C577 C578 1.362 . S
C578 H570 0.930 . S
C578 C577 1.362 . S
C578 C581 1.409 . S
C579 H571 0.930 . S
C579 C580 1.355 . S
C579 C581 1.415 . S
C580 C579 1.355 . S
C580 C582 1.419 . S
C581 C576 1.425 . S
C581 C578 1.409 . S
C581 C579 1.415 . S
C582 H572 0.930 1_455 S
C582 C580 1.419 . S
C582 C583 1.362 . S
C583 H573 0.930 1_455 S
C583 C576 1.409 . S
C583 C582 1.362 . S
C271 N68 1.396 . S
C276 N2 1.425 . S
C287 N101 1.370 . S
C292 N35 1.435 . S
C303 N134 1.357 . S
C308 N200 1.423 . S
C319 N167 1.368 . S
C324 N233 1.435 . S
C335 C117 1.494 . S
C340 C18 1.522 . S
C351 C51 1.495 . S
C356 C84 1.522 . S
C367 C73 1.300 . S
C372 C40 1.277 . S
C383 C106 1.267 . S
C388 C7 1.302 . S
C399 C249 1.522 . S
C404 C150 1.499 . S
C415 C183 1.504 . S
C420 C216 1.521 . S
C431 C205 1.285 . S
C436 C172 1.262 . S
C447 C238 1.272 . S
C452 C139 1.302 . S
C463 N178 1.465 . S
C468 C21 1.546 1_556 S
C479 C54 1.546 . S
C484 N145 1.477 . S
C495 C87 1.543 1_554 S
C500 N244 1.514 . S
C511 N211 1.509 . S
C516 C120 1.541 . S
C527 N46 1.511 . S
C532 C153 1.541 1_556 S
C543 C186 1.541 . S
C548 N13 1.500 . S
C559 C219 1.546 1_554 S
C564 N112 1.466 . S
C575 C252 1.543 . S
C580 N79 1.479 . S
