# Generated by pormake.
# Topology rob, (6)-cn, num edge types: 1
# Building blocks:
#     Node 0, Type 0, BuildingBlock: INOVEN_clean_sbu_0, # of connection points: 6
#     Node 1, Type 0, BuildingBlock: INOVEN_clean_sbu_0, # of connection points: 6
#     Node 2, Type 0, BuildingBlock: INOVEN_clean_sbu_0, # of connection points: 6
#     Node 3, Type 0, BuildingBlock: INOVEN_clean_sbu_0, # of connection points: 6
#     Edge 4, Type (0, 0), BuildingBlock: OJICUG_clean_linker_0, # of connection points: 2
#     Edge 5, Type (0, 0), BuildingBlock: OJICUG_clean_linker_0, # of connection points: 2
#     Edge 6, Type (0, 0), BuildingBlock: OJICUG_clean_linker_0, # of connection points: 2
#     Edge 7, Type (0, 0), BuildingBlock: OJICUG_clean_linker_0, # of connection points: 2
#     Edge 8, Type (0, 0), BuildingBlock: OJICUG_clean_linker_0, # of connection points: 2
#     Edge 9, Type (0, 0), BuildingBlock: OJICUG_clean_linker_0, # of connection points: 2
#     Edge 10, Type (0, 0), BuildingBlock: OJICUG_clean_linker_0, # of connection points: 2
#     Edge 11, Type (0, 0), BuildingBlock: OJICUG_clean_linker_0, # of connection points: 2
#     Edge 12, Type (0, 0), BuildingBlock: OJICUG_clean_linker_0, # of connection points: 2
#     Edge 13, Type (0, 0), BuildingBlock: OJICUG_clean_linker_0, # of connection points: 2
#     Edge 14, Type (0, 0), BuildingBlock: OJICUG_clean_linker_0, # of connection points: 2
#     Edge 15, Type (0, 0), BuildingBlock: OJICUG_clean_linker_0, # of connection points: 2
# Relax obj value: 0.213
# Max RMSD: 0.236
# Mean RMSD: 0.236
data_MOF--net-rob--node1-INOVEN_clean_sbu_0--edge1-OJICUG_clean_linker_0
_symmetry_space_group_name_H-M    P1
_symmetry_Int_Tables_number       1
_symmetry_cell_setting            triclinic
loop_
_symmetry_equiv_pos_as_xyz
'x, y, z'
_cell_length_a     13.937051
_cell_length_b     14.788023
_cell_length_c     29.213045
_cell_angle_alpha  90.144508
_cell_angle_beta   130.85461
_cell_angle_gamma 90.304502
loop_
_atom_site_label
_atom_site_type_symbol
_atom_site_fract_x
_atom_site_fract_y
_atom_site_fract_z
_atom_type_partial_charge
Gd0 Gd 0.16997 0.32502 0.99081 0.0
Gd1 Gd 0.3863 0.22336 0.01408 0.0
C2 C 0.41091 0.25623 0.12662 0.0
C3 C 1.00228 0.37416 0.99764 0.0
C4 C 0.9939 0.36495 0.04535 0.0
C5 C 0.98257 0.44333 0.06825 0.0
C6 C 1.00887 0.28145 0.07233 0.0
C7 C 1.0072 0.3573 0.14623 0.0
C8 C 1.01516 0.27767 0.12227 0.0
C9 C 0.98861 0.43982 0.11771 0.0
C10 C 0.3408 0.43056 0.99972 0.0
C11 C 0.14249 0.29074 0.87711 0.0
C12 C 0.55535 0.17148 0.00872 0.0
C13 C 0.55434 0.16527 0.9578 0.0
C14 C 0.45746 0.11758 0.90444 0.0
C15 C 0.64693 0.21133 0.96094 0.0
C16 C 0.54497 0.16287 0.85817 0.0
C17 C 0.64186 0.21068 0.91144 0.0
C18 C 0.45361 0.11574 0.85546 0.0
C19 C 0.20972 0.1194 0.00177 0.0
O20 O 0.2886 0.27381 0.08634 0.0
O21 O 0.47997 0.24597 0.11086 0.0
O22 O 0.09328 0.42752 0.01156 0.0
O23 O 0.99038 0.30053 0.96925 0.0
O24 O 0.2199 0.44619 0.96309 0.0
O25 O 0.36663 0.363 0.03252 0.0
O26 O 0.26291 0.26669 0.91639 0.0
O27 O 0.07594 0.30706 0.89372 0.0
O28 O 0.48021 0.11572 0.00726 0.0
O29 O 0.55382 0.25325 0.0254 0.0
O30 O 0.33033 0.10186 0.03984 0.0
O31 O 0.18941 0.18745 0.97076 0.0
H32 H 0.97321 0.50812 0.04898 0.0
H33 H 1.0196 0.21961 0.05616 0.0
H34 H 0.03074 0.21292 0.1433 0.0
H35 H 0.98003 0.50248 0.13396 0.0
H36 H 0.38344 0.08243 0.90009 0.0
H37 H 0.72204 0.24898 0.00138 0.0
H38 H 0.71413 0.24703 0.91492 0.0
H39 H 0.37712 0.07918 0.81479 0.0
Gd40 Gd 0.65516 0.8445 0.98765 0.0
Gd41 Gd 0.87131 0.74269 0.01091 0.0
C42 C 0.89908 0.77738 0.12466 0.0
C43 C 0.48604 0.89627 0.99299 0.0
C44 C 0.48708 0.90262 0.04391 0.0
C45 C 0.58399 0.95035 0.09724 0.0
C46 C 0.39452 0.85662 0.04081 0.0
C47 C 0.49657 0.90518 0.14357 0.0
C48 C 0.39964 0.85735 0.09033 0.0
C49 C 0.5879 0.95228 0.14624 0.0
C50 C 0.83155 0.94859 0.99999 0.0
C51 C 0.63064 0.81171 0.87515 0.0
C52 C 0.03871 0.69307 0.004 0.0
C53 C 0.04693 0.70205 0.95622 0.0
C54 C 0.05698 0.6235 0.93297 0.0
C55 C 0.03328 0.7856 0.92959 0.0
C56 C 0.03413 0.70957 0.85546 0.0
C57 C 0.02718 0.78932 0.8797 0.0
C58 C 0.05131 0.62695 0.88361 0.0
C59 C 0.70013 0.63755 0.00209 0.0
O60 O 0.77867 0.80144 0.08539 0.0
O61 O 0.96553 0.76089 0.10801 0.0
O62 O 0.56098 0.95209 0.99433 0.0
O63 O 0.48782 0.81446 0.97645 0.0
O64 O 0.71094 0.96611 0.96198 0.0
O65 O 0.85222 0.88036 0.03097 0.0
O66 O 0.75292 0.79409 0.91544 0.0
O67 O 0.56153 0.82195 0.89087 0.0
O68 O 0.9477 0.63986 0.9902 0.0
O69 O 0.05087 0.7668 0.03238 0.0
O70 O 0.82104 0.62188 0.03882 0.0
O71 O 0.67471 0.70482 0.96918 0.0
H72 H 0.65799 0.98545 0.10155 0.0
H73 H 0.3194 0.81892 1.0004 0.0
H74 H 0.32739 0.82102 0.08688 0.0
H75 H 0.66442 0.98885 0.18689 0.0
H76 H 0.06517 0.55866 0.9519 0.0
H77 H 0.02352 0.84759 0.94601 0.0
H78 H 1.01264 0.85416 0.85896 0.0
H79 H 0.05919 0.56417 0.8672 0.0
Gd80 Gd 0.37882 0.84054 0.51183 0.0
Gd81 Gd 0.1668 0.73234 0.49088 0.0
C82 C 0.13331 0.76838 0.37591 0.0
C83 C 0.54131 0.89909 0.50309 0.0
C84 C 0.54112 0.90277 0.45222 0.0
C85 C 0.46217 0.96334 0.40406 0.0
C86 C 0.61749 0.84377 0.45047 0.0
C87 C 0.53388 0.90463 0.35315 0.0
C88 C 0.6132 0.84419 0.40119 0.0
C89 C 0.45952 0.96475 0.35544 0.0
C90 C 0.20544 0.94067 0.50254 0.0
C91 C 0.40711 0.80883 0.62549 0.0
C92 C 1.00709 0.67405 0.50135 0.0
C93 C 1.00078 0.68283 0.54999 0.0
C94 C 0.0356 0.60941 0.58844 0.0
C95 C 0.96614 0.76444 0.56058 0.0
C96 C 1.00219 0.69834 0.64706 0.0
C97 C 0.96752 0.77221 0.60887 0.0
C98 C 0.03569 0.61687 0.63609 0.0
C99 C 0.33943 0.63223 0.49934 0.0
O100 O 0.25422 0.79266 0.41478 0.0
O101 O 0.0682 0.75104 0.39324 0.0
O102 O 0.46048 0.95115 0.49902 0.0
O103 O 0.54842 0.81885 0.52386 0.0
O104 O 0.32554 0.96093 0.53867 0.0
O105 O 0.18236 0.87181 0.47097 0.0
O106 O 0.28527 0.78799 0.58568 0.0
O107 O 0.47515 0.82108 0.60922 0.0
O108 O 0.10046 0.62538 0.51467 0.0
O109 O 0.98771 0.74693 0.47095 0.0
O110 O 0.21919 0.61258 0.46337 0.0
O111 O 0.36338 0.70066 0.53148 0.0
H112 H 0.40114 1.00936 0.40341 0.0
H113 H 0.67931 0.79647 0.48686 0.0
H114 H 0.67254 0.79772 0.40082 0.0
H115 H 0.39693 1.01162 0.31885 0.0
H116 H 0.06496 0.54621 0.5824 0.0
H117 H 0.93911 0.8226 0.53202 0.0
H118 H 0.94028 0.83566 0.61597 0.0
H119 H 0.06432 0.55905 0.66512 0.0
Gd120 Gd 0.87529 0.33547 0.51099 0.0
Gd121 Gd 0.66316 0.22735 0.49003 0.0
C122 C 0.63476 0.25918 0.37633 0.0
C123 C 0.03532 0.39334 0.50062 0.0
C124 C 0.04174 0.38448 0.45201 0.0
C125 C 1.00712 0.45788 0.4136 0.0
C126 C 0.07626 0.30279 0.44144 0.0
C127 C 0.04041 0.36879 0.35498 0.0
C128 C 0.07494 0.29494 0.39317 0.0
C129 C 1.00704 0.45034 0.36596 0.0
C130 C 0.70287 0.43592 0.50239 0.0
C131 C 0.90849 0.29977 0.62591 0.0
C132 C 0.50078 0.16866 0.49879 0.0
C133 C 0.50095 0.1651 0.54967 0.0
C134 C 0.57983 0.10454 0.59784 0.0
C135 C 0.42464 0.22419 0.5514 0.0
C136 C 0.50813 0.1634 0.64873 0.0
C137 C 0.42891 0.22386 0.60068 0.0
C138 C 0.58246 0.1032 0.64645 0.0
C139 C 0.83676 0.12741 0.49928 0.0
O140 O 0.75661 0.28005 0.41612 0.0
O141 O 0.56679 0.24685 0.39263 0.0
O142 O 0.94209 0.44221 0.4873 0.0
O143 O 0.05436 0.32046 0.53094 0.0
O144 O 0.82311 0.45552 0.5383 0.0
O145 O 0.67857 0.36722 0.47037 0.0
O146 O 0.78758 0.27552 0.58702 0.0
O147 O 0.97371 0.31696 0.60861 0.0
O148 O 0.5818 0.11669 0.50297 0.0
O149 O 0.49338 0.24885 0.47788 0.0
O150 O 0.71666 0.10711 0.4631 0.0
O151 O 0.85948 0.19606 0.5309 0.0
H152 H 0.97788 0.52114 0.41964 0.0
H153 H 0.10316 0.24464 0.46998 0.0
H154 H 0.10209 0.23144 0.38608 0.0
H155 H 0.97848 0.50814 0.33692 0.0
H156 H 0.64082 0.05844 0.5985 0.0
H157 H 0.36289 0.2715 0.51501 0.0
H158 H 0.3696 0.27038 0.60103 0.0
H159 H 0.64498 0.05632 0.68304 0.0
C160 C 0.65042 0.51997 0.046 0.0
C161 C 0.60754 0.58471 0.00104 0.0
H162 H 0.60061 0.42116 0.08133 0.0
C163 C 0.47639 0.59825 0.95587 0.0
H164 H 0.75082 0.50832 0.08175 0.0
C165 C 0.39031 0.54829 0.95574 0.0
C166 C 0.43322 0.48353 1.0007 0.0
H167 H 0.44016 0.64706 0.92038 0.0
H168 H 0.2899 0.55993 0.92001 0.0
C169 C 0.56436 0.47 0.04586 0.0
C170 C 0.39326 0.50915 0.46059 0.0
C171 C 0.43327 0.58165 0.50095 0.0
H172 H 0.44572 0.40801 0.42786 0.0
C173 C 0.56247 0.60563 0.54167 0.0
H174 H 0.29467 0.48835 0.42929 0.0
C175 C 0.64919 0.55909 0.54121 0.0
C176 C 0.60916 0.48658 0.50085 0.0
H177 H 0.59672 0.66015 0.57399 0.0
H178 H 0.74777 0.57989 0.57248 0.0
C179 C 0.47998 0.46258 0.46015 0.0
C180 C 0.14959 1.01838 0.04857 0.0
C181 C 0.11292 0.07471 0.0009 0.0
H182 H 0.08945 0.93551 0.08611 0.0
C183 C 0.98293 0.08986 0.95315 0.0
H184 H 0.24898 1.00633 0.08632 0.0
C185 C 0.89157 0.04972 0.95316 0.0
C186 C 0.92824 0.9934 1.00083 0.0
H187 H 0.95173 0.13252 0.91558 0.0
H188 H 0.79217 0.06174 0.9154 0.0
C189 C 0.05823 0.97822 0.04857 0.0
C190 C 0.89219 1.01273 0.45681 0.0
C191 C 0.93147 0.07943 0.50052 0.0
H192 H 0.94777 0.91729 0.42266 0.0
C193 C 0.06137 0.10027 0.54472 0.0
H194 H 0.79265 0.99564 0.42199 0.0
C195 C 0.15015 0.05546 0.54506 0.0
C196 C 0.11086 0.98876 0.50134 0.0
H197 H 0.09454 0.15084 0.57925 0.0
H198 H 0.2497 0.07253 0.57989 0.0
C199 C 0.98096 0.96791 0.45717 0.0
C200 C 0.44477 0.24461 0.26595 0.0
C201 C 0.57671 0.25021 0.31243 0.0
H202 H 0.28906 0.2415 0.17065 0.0
C203 C 0.65436 0.25121 0.29736 0.0
H204 H 0.38261 0.24308 0.27607 0.0
C205 C 0.601 0.25032 0.23701 0.0
C206 C 0.46893 0.2488 0.19051 0.0
H207 H 0.75678 0.25441 0.33216 0.0
H208 H 0.66317 0.25339 0.22692 0.0
C209 C 0.3914 0.24408 0.20555 0.0
C210 C 0.52483 0.98614 0.22734 0.0
C211 C 0.50443 0.90502 0.19678 0.0
H212 H 0.55054 0.04935 0.3009 0.0
C213 C 0.49512 0.82357 0.21841 0.0
H214 H 0.53189 0.04985 0.21151 0.0
C215 C 0.50704 0.8232 0.26985 0.0
C216 C 0.52648 0.90444 0.30009 0.0
H217 H 0.48055 0.75998 0.19605 0.0
H218 H 0.49907 0.75955 0.28547 0.0
C219 C 0.53494 0.98592 0.27823 0.0
C220 C 0.65033 0.82387 0.79627 0.0
C221 C 0.57272 0.81921 0.81127 0.0
H222 H 0.65924 0.82484 0.72579 0.0
C223 C 0.44066 0.81776 0.76474 0.0
H224 H 0.75267 0.82638 0.83119 0.0
C225 C 0.38737 0.8169 0.70441 0.0
C226 C 0.46509 0.81783 0.68938 0.0
H227 H 0.37843 0.81474 0.7748 0.0
H228 H 0.28495 0.81375 0.66958 0.0
C229 C 0.59703 0.82336 0.73588 0.0
C230 C 0.50687 0.08214 0.72359 0.0
C231 C 0.51543 0.16361 0.70175 0.0
H232 H 0.50975 1.01821 0.79026 0.0
C233 C 0.53484 0.24485 0.73198 0.0
H234 H 0.49129 1.0187 0.70092 0.0
C235 C 0.54663 0.24448 0.7834 0.0
C236 C 0.53723 0.16304 0.80499 0.0
H237 H 0.54287 0.30849 0.71639 0.0
H238 H 0.56118 0.30807 0.80575 0.0
C239 C 0.51687 0.08192 0.77444 0.0
C240 C 0.09082 0.76275 0.23424 0.0
C241 C 0.95872 0.7689 0.18876 0.0
H242 H 0.24937 0.75758 0.32906 0.0
C243 C 0.88342 0.76907 0.20511 0.0
H244 H 0.1513 0.76216 0.22314 0.0
C245 C 0.93945 0.76557 0.26588 0.0
C246 C 0.07183 0.76292 0.31142 0.0
H247 H 0.781 0.77294 0.17101 0.0
H248 H 0.87934 0.76778 0.27718 0.0
C249 C 0.14684 0.76028 0.29496 0.0
C250 C 0.09016 0.43186 0.29306 0.0
C251 C 0.0384 0.36185 0.30358 0.0
H252 H 0.12639 0.48338 0.23757 0.0
C253 C 0.98055 0.28771 0.26333 0.0
H254 H 0.13571 0.48979 0.32319 0.0
C255 C 0.97155 0.28514 0.21261 0.0
C256 C 0.02163 0.35619 0.20158 0.0
H257 H 0.93844 0.23325 0.26991 0.0
H258 H 0.92221 0.2288 0.18124 0.0
C259 C 0.08336 0.42855 0.24331 0.0
C260 C 0.89485 0.30798 0.70682 0.0
C261 C 0.96991 0.30532 0.69039 0.0
H262 H 0.89029 0.30609 0.77861 0.0
C263 C 0.10229 0.30267 0.73594 0.0
H264 H 0.79233 0.31069 0.6727 0.0
C265 C 0.15827 0.29917 0.79671 0.0
C266 C 0.08291 0.29932 0.81303 0.0
H267 H 0.16244 0.30044 0.72467 0.0
H268 H 0.26068 0.29527 0.83082 0.0
C269 C 0.95082 0.30551 0.76753 0.0
C270 C 0.06217 0.77911 0.73881 0.0
C271 C 1.00406 0.70516 0.69841 0.0
H272 H 0.12047 0.83779 0.82094 0.0
C273 C 0.95182 0.63525 0.70872 0.0
H274 H 0.10467 0.83349 0.7324 0.0
C275 C 0.95823 0.63852 0.75836 0.0
C276 C 1.02018 0.7107 0.80024 0.0
H277 H 0.90612 0.57743 0.67849 0.0
H278 H 0.91469 0.58381 0.76387 0.0
C279 C 0.0709 0.78161 0.78945 0.0
loop_
_geom_bond_atom_site_label_1
_geom_bond_atom_site_label_2
_geom_bond_distance
_geom_bond_site_symmetry_2
_ccdc_geom_bond_type
Gd0 C3 2.818 1_556 S
Gd0 O20 2.377 1_556 S
Gd0 O22 2.448 1_556 S
Gd0 O23 2.506 1_556 S
Gd0 O24 2.435 1_556 S
Gd0 O25 2.717 1_556 S
Gd0 O27 2.395 . S
Gd0 O31 2.327 . S
Gd1 C12 2.818 1_554 S
Gd1 O21 2.395 . S
Gd1 O25 2.327 . S
Gd1 O26 2.377 1_554 S
Gd1 O28 2.448 1_554 S
Gd1 O29 2.506 1_554 S
Gd1 O30 2.435 1_554 S
Gd1 O31 2.717 1_554 S
C2 O20 1.240 . S
C2 O21 1.240 . S
C3 Gd0 2.818 1_554 S
C3 C4 1.510 . S
C3 O22 1.249 . S
C3 O23 1.252 . S
C4 C3 1.510 . S
C4 C5 1.404 . S
C4 C6 1.352 . S
C5 C4 1.404 . S
C5 C9 1.389 . S
C5 H32 0.930 . S
C6 C4 1.352 . S
C6 C8 1.374 . S
C6 H33 0.931 . S
C7 C8 1.359 . S
C7 C9 1.364 . S
C8 C6 1.374 . S
C8 C7 1.359 . S
C8 H34 0.931 . S
C9 C5 1.389 . S
C9 C7 1.364 . S
C9 H35 0.931 . S
C10 O24 1.256 . S
C10 O25 1.257 . S
C11 O26 1.240 . S
C11 O27 1.240 . S
C12 Gd1 2.818 1_556 S
C12 C13 1.510 . S
C12 O28 1.249 . S
C12 O29 1.252 . S
C13 C12 1.510 . S
C13 C14 1.404 . S
C13 C15 1.352 . S
C14 C13 1.404 . S
C14 C18 1.389 . S
C14 H36 0.935 . S
C15 C13 1.352 . S
C15 C17 1.374 . S
C15 H37 0.931 . S
C16 C17 1.359 . S
C16 C18 1.364 . S
C17 C15 1.374 . S
C17 C16 1.359 . S
C17 H38 0.931 . S
C18 C14 1.389 . S
C18 C16 1.364 . S
C18 H39 0.931 1_545 S
C19 O30 1.256 . S
C19 O31 1.257 . S
O20 Gd0 2.377 1_554 S
O20 C2 1.240 . S
O21 Gd1 2.395 . S
O21 C2 1.240 . S
O22 Gd0 2.448 1_554 S
O22 C3 1.249 . S
O23 Gd0 2.506 1_554 S
O23 C3 1.252 . S
O24 Gd0 2.435 1_554 S
O24 C10 1.256 . S
O25 Gd0 2.717 1_554 S
O25 Gd1 2.327 . S
O25 C10 1.257 . S
O26 Gd1 2.377 1_556 S
O26 C11 1.240 . S
O27 Gd0 2.395 . S
O27 C11 1.240 . S
O28 Gd1 2.448 1_556 S
O28 C12 1.249 . S
O29 Gd1 2.506 1_556 S
O29 C12 1.252 . S
O30 Gd1 2.435 1_556 S
O30 C19 1.256 . S
O31 Gd0 2.327 . S
O31 Gd1 2.717 1_556 S
O31 C19 1.257 . S
H32 C5 0.930 . S
H33 C6 0.931 . S
H34 C8 0.931 . S
H35 C9 0.931 . S
H36 C14 0.935 . S
H37 C15 0.931 . S
H38 C17 0.931 . S
H39 C18 0.931 1_565 S
Gd40 C43 2.818 1_556 S
Gd40 O60 2.377 1_556 S
Gd40 O62 2.448 1_556 S
Gd40 O63 2.506 1_556 S
Gd40 O64 2.435 1_556 S
Gd40 O65 2.717 1_556 S
Gd40 O67 2.395 . S
Gd40 O71 2.327 . S
Gd41 C52 2.818 1_554 S
Gd41 O61 2.395 . S
Gd41 O65 2.327 . S
Gd41 O66 2.377 1_554 S
Gd41 O68 2.448 1_554 S
Gd41 O69 2.506 1_554 S
Gd41 O70 2.435 1_554 S
Gd41 O71 2.717 1_554 S
C42 O60 1.240 . S
C42 O61 1.240 . S
C43 Gd40 2.818 1_554 S
C43 C44 1.510 . S
C43 O62 1.249 . S
C43 O63 1.252 . S
C44 C43 1.510 . S
C44 C45 1.404 . S
C44 C46 1.352 . S
C45 C44 1.404 . S
C45 C49 1.389 . S
C45 H72 0.935 . S
C46 C44 1.352 . S
C46 C48 1.374 . S
C46 H73 0.931 . S
C47 C48 1.359 . S
C47 C49 1.364 . S
C48 C46 1.374 . S
C48 C47 1.359 . S
C48 H74 0.931 . S
C49 C45 1.389 . S
C49 C47 1.364 . S
C49 H75 0.931 1_565 S
C50 O64 1.256 . S
C50 O65 1.257 . S
C51 O66 1.240 . S
C51 O67 1.240 . S
C52 Gd41 2.818 1_556 S
C52 C53 1.510 . S
C52 O68 1.249 . S
C52 O69 1.252 . S
C53 C52 1.510 . S
C53 C54 1.404 . S
C53 C55 1.352 . S
C54 C53 1.404 . S
C54 C58 1.389 . S
C54 H76 0.930 . S
C55 C53 1.352 . S
C55 C57 1.374 . S
C55 H77 0.931 . S
C56 C57 1.359 . S
C56 C58 1.364 . S
C57 C55 1.374 . S
C57 C56 1.359 . S
C57 H78 0.931 . S
C58 C54 1.389 . S
C58 C56 1.364 . S
C58 H79 0.931 . S
C59 O70 1.256 . S
C59 O71 1.257 . S
O60 Gd40 2.377 1_554 S
O60 C42 1.240 . S
O61 Gd41 2.395 . S
O61 C42 1.240 . S
O62 Gd40 2.448 1_554 S
O62 C43 1.249 . S
O63 Gd40 2.506 1_554 S
O63 C43 1.252 . S
O64 Gd40 2.435 1_554 S
O64 C50 1.256 . S
O65 Gd40 2.717 1_554 S
O65 Gd41 2.327 . S
O65 C50 1.257 . S
O66 Gd41 2.377 1_556 S
O66 C51 1.240 . S
O67 Gd40 2.395 . S
O67 C51 1.240 . S
O68 Gd41 2.448 1_556 S
O68 C52 1.249 . S
O69 Gd41 2.506 1_556 S
O69 C52 1.252 . S
O70 Gd41 2.435 1_556 S
O70 C59 1.256 . S
O71 Gd40 2.327 . S
O71 Gd41 2.717 1_556 S
O71 C59 1.257 . S
H72 C45 0.935 . S
H73 C46 0.931 . S
H74 C48 0.931 . S
H75 C49 0.931 1_545 S
H76 C54 0.930 . S
H77 C55 0.931 . S
H78 C57 0.931 . S
H79 C58 0.931 . S
Gd80 C83 2.818 . S
Gd80 O100 2.377 . S
Gd80 O102 2.448 . S
Gd80 O103 2.506 . S
Gd80 O104 2.435 . S
Gd80 O105 2.717 . S
Gd80 O107 2.395 . S
Gd80 O111 2.327 . S
Gd81 C92 2.818 . S
Gd81 O101 2.395 . S
Gd81 O105 2.327 . S
Gd81 O106 2.377 . S
Gd81 O108 2.448 . S
Gd81 O109 2.506 . S
Gd81 O110 2.435 . S
Gd81 O111 2.717 . S
C82 O100 1.240 . S
C82 O101 1.240 . S
C83 Gd80 2.818 . S
C83 C84 1.510 . S
C83 O102 1.249 . S
C83 O103 1.252 . S
C84 C83 1.510 . S
C84 C85 1.404 . S
C84 C86 1.352 . S
C85 C84 1.404 . S
C85 C89 1.389 . S
C85 H112 0.935 . S
C86 C84 1.352 . S
C86 C88 1.374 . S
C86 H113 0.931 . S
C87 C88 1.359 . S
C87 C89 1.364 . S
C88 C86 1.374 . S
C88 C87 1.359 . S
C88 H114 0.931 . S
C89 C85 1.389 . S
C89 C87 1.364 . S
C89 H115 0.931 1_565 S
C90 O104 1.256 . S
C90 O105 1.257 . S
C91 O106 1.240 . S
C91 O107 1.240 . S
C92 Gd81 2.818 . S
C92 C93 1.510 . S
C92 O108 1.249 . S
C92 O109 1.252 . S
C93 C92 1.510 . S
C93 C94 1.404 . S
C93 C95 1.352 . S
C94 C93 1.404 . S
C94 C98 1.389 . S
C94 H116 0.930 . S
C95 C93 1.352 . S
C95 C97 1.374 . S
C95 H117 0.931 . S
C96 C97 1.359 . S
C96 C98 1.364 . S
C97 C95 1.374 . S
C97 C96 1.359 . S
C97 H118 0.931 . S
C98 C94 1.389 . S
C98 C96 1.364 . S
C98 H119 0.931 . S
C99 O110 1.256 . S
C99 O111 1.257 . S
O100 Gd80 2.377 . S
O100 C82 1.240 . S
O101 Gd81 2.395 . S
O101 C82 1.240 . S
O102 Gd80 2.448 . S
O102 C83 1.249 . S
O103 Gd80 2.506 . S
O103 C83 1.252 . S
O104 Gd80 2.435 . S
O104 C90 1.256 . S
O105 Gd80 2.717 . S
O105 Gd81 2.327 . S
O105 C90 1.257 . S
O106 Gd81 2.377 . S
O106 C91 1.240 . S
O107 Gd80 2.395 . S
O107 C91 1.240 . S
O108 Gd81 2.448 . S
O108 C92 1.249 . S
O109 Gd81 2.506 . S
O109 C92 1.252 . S
O110 Gd81 2.435 . S
O110 C99 1.256 . S
O111 Gd80 2.327 . S
O111 Gd81 2.717 . S
O111 C99 1.257 . S
H112 C85 0.935 . S
H113 C86 0.931 . S
H114 C88 0.931 . S
H115 C89 0.931 1_545 S
H116 C94 0.930 . S
H117 C95 0.931 . S
H118 C97 0.931 . S
H119 C98 0.931 . S
Gd120 C123 2.818 . S
Gd120 O140 2.377 . S
Gd120 O142 2.448 . S
Gd120 O143 2.506 . S
Gd120 O144 2.435 . S
Gd120 O145 2.717 . S
Gd120 O147 2.395 . S
Gd120 O151 2.327 . S
Gd121 C132 2.818 . S
Gd121 O141 2.395 . S
Gd121 O145 2.327 . S
Gd121 O146 2.377 . S
Gd121 O148 2.448 . S
Gd121 O149 2.506 . S
Gd121 O150 2.435 . S
Gd121 O151 2.717 . S
C122 O140 1.240 . S
C122 O141 1.240 . S
C123 Gd120 2.818 . S
C123 C124 1.510 . S
C123 O142 1.249 . S
C123 O143 1.252 . S
C124 C123 1.510 . S
C124 C125 1.404 . S
C124 C126 1.352 . S
C125 C124 1.404 . S
C125 C129 1.389 . S
C125 H152 0.930 . S
C126 C124 1.352 . S
C126 C128 1.374 . S
C126 H153 0.931 . S
C127 C128 1.359 . S
C127 C129 1.364 . S
C128 C126 1.374 . S
C128 C127 1.359 . S
C128 H154 0.931 . S
C129 C125 1.389 . S
C129 C127 1.364 . S
C129 H155 0.931 . S
C130 O144 1.256 . S
C130 O145 1.257 . S
C131 O146 1.240 . S
C131 O147 1.240 . S
C132 Gd121 2.818 . S
C132 C133 1.510 . S
C132 O148 1.249 . S
C132 O149 1.252 . S
C133 C132 1.510 . S
C133 C134 1.404 . S
C133 C135 1.352 . S
C134 C133 1.404 . S
C134 C138 1.389 . S
C134 H156 0.935 . S
C135 C133 1.352 . S
C135 C137 1.374 . S
C135 H157 0.931 . S
C136 C137 1.359 . S
C136 C138 1.364 . S
C137 C135 1.374 . S
C137 C136 1.359 . S
C137 H158 0.931 . S
C138 C134 1.389 . S
C138 C136 1.364 . S
C138 H159 0.931 1_545 S
C139 O150 1.256 . S
C139 O151 1.257 . S
O140 Gd120 2.377 . S
O140 C122 1.240 . S
O141 Gd121 2.395 . S
O141 C122 1.240 . S
O142 Gd120 2.448 . S
O142 C123 1.249 . S
O143 Gd120 2.506 . S
O143 C123 1.252 . S
O144 Gd120 2.435 . S
O144 C130 1.256 . S
O145 Gd120 2.717 . S
O145 Gd121 2.327 . S
O145 C130 1.257 . S
O146 Gd121 2.377 . S
O146 C131 1.240 . S
O147 Gd120 2.395 . S
O147 C131 1.240 . S
O148 Gd121 2.448 . S
O148 C132 1.249 . S
O149 Gd121 2.506 . S
O149 C132 1.252 . S
O150 Gd121 2.435 . S
O150 C139 1.256 . S
O151 Gd120 2.327 . S
O151 Gd121 2.717 . S
O151 C139 1.257 . S
H152 C125 0.930 . S
H153 C126 0.931 . S
H154 C128 0.931 . S
H155 C129 0.931 . S
H156 C134 0.935 . S
H157 C135 0.931 . S
H158 C137 0.931 . S
H159 C138 0.931 1_565 S
C160 C161 1.387 . S
C160 H164 0.950 . S
C160 C169 1.390 . S
C161 C160 1.387 . S
C161 C163 1.387 1_556 S
H162 C169 0.950 . S
C163 C161 1.387 1_554 S
C163 C165 1.390 . S
C163 H167 0.950 . S
H164 C160 0.950 . S
C165 C163 1.390 . S
C165 C166 1.387 . S
C165 H168 0.950 . S
C166 C165 1.387 . S
C166 C169 1.387 1_554 S
H167 C163 0.950 . S
H168 C165 0.950 . S
C169 C160 1.390 . S
C169 H162 0.950 . S
C169 C166 1.387 1_556 S
C170 C171 1.387 . S
C170 H174 0.950 . S
C170 C179 1.390 . S
C171 C170 1.387 . S
C171 C173 1.387 . S
H172 C179 0.950 . S
C173 C171 1.387 . S
C173 C175 1.390 . S
C173 H177 0.950 . S
H174 C170 0.950 . S
C175 C173 1.390 . S
C175 C176 1.387 . S
C175 H178 0.950 . S
C176 C175 1.387 . S
C176 C179 1.387 . S
H177 C173 0.950 . S
H178 C175 0.950 . S
C179 C170 1.390 . S
C179 H172 0.950 . S
C179 C176 1.387 . S
C180 C181 1.387 1_565 S
C180 H184 0.950 . S
C180 C189 1.390 1_556 S
C181 C180 1.387 1_545 S
C181 C183 1.406 1_455 S
H182 C189 0.950 . S
C183 C181 1.406 1_655 S
C183 C185 1.372 1_556 S
C183 H187 0.950 . S
H184 C180 0.950 . S
C185 C183 1.372 1_554 S
C185 C186 1.387 1_545 S
C185 H188 0.950 . S
C186 C185 1.387 1_565 S
C186 C189 1.387 1_655 S
H187 C183 0.950 . S
H188 C185 0.950 . S
C189 C180 1.390 1_554 S
C189 H182 0.950 . S
C189 C186 1.387 1_455 S
C190 C191 1.387 1_565 S
C190 H194 0.950 . S
C190 C199 1.390 1_655 S
C191 C190 1.387 1_545 S
C191 C193 1.387 . S
H192 C199 0.950 . S
C193 C191 1.387 . S
C193 C195 1.390 1_655 S
C193 H197 0.950 . S
H194 C190 0.950 . S
C195 C193 1.390 1_455 S
C195 C196 1.387 1_545 S
C195 H198 0.950 . S
C196 C195 1.387 1_565 S
C196 C199 1.387 . S
H197 C193 0.950 . S
H198 C195 0.950 . S
C199 C190 1.390 1_455 S
C199 H192 0.950 . S
C199 C196 1.387 . S
C200 C201 1.387 . S
C200 H204 0.950 . S
C200 C209 1.390 . S
C201 C200 1.387 . S
C201 C203 1.387 . S
H202 C209 0.950 . S
C203 C201 1.387 . S
C203 C205 1.390 . S
C203 H207 0.950 . S
H204 C200 0.950 . S
C205 C203 1.390 . S
C205 C206 1.387 . S
C205 H208 0.950 . S
C206 C205 1.387 . S
C206 C209 1.387 . S
H207 C203 0.950 . S
H208 C205 0.950 . S
C209 C200 1.390 . S
C209 H202 0.950 . S
C209 C206 1.387 . S
C210 C211 1.387 . S
C210 H214 0.950 1_565 S
C210 C219 1.390 . S
C211 C210 1.387 . S
C211 C213 1.387 . S
H212 C219 0.950 1_545 S
C213 C211 1.387 . S
C213 C215 1.390 . S
C213 H217 0.950 . S
H214 C210 0.950 1_545 S
C215 C213 1.390 . S
C215 C216 1.387 . S
C215 H218 0.950 . S
C216 C215 1.387 . S
C216 C219 1.387 . S
H217 C213 0.950 . S
H218 C215 0.950 . S
C219 C210 1.390 . S
C219 H212 0.950 1_565 S
C219 C216 1.387 . S
C220 C221 1.387 . S
C220 H224 0.950 . S
C220 C229 1.390 . S
C221 C220 1.387 . S
C221 C223 1.387 . S
H222 C229 0.950 . S
C223 C221 1.387 . S
C223 C225 1.390 . S
C223 H227 0.950 . S
H224 C220 0.950 . S
C225 C223 1.390 . S
C225 C226 1.387 . S
C225 H228 0.950 . S
C226 C225 1.387 . S
C226 C229 1.387 . S
H227 C223 0.950 . S
H228 C225 0.950 . S
C229 C220 1.390 . S
C229 H222 0.950 . S
C229 C226 1.387 . S
C230 C231 1.387 . S
C230 H234 0.950 1_545 S
C230 C239 1.390 . S
C231 C230 1.387 . S
C231 C233 1.387 . S
H232 C239 0.950 1_565 S
C233 C231 1.387 . S
C233 C235 1.390 . S
C233 H237 0.950 . S
H234 C230 0.950 1_565 S
C235 C233 1.390 . S
C235 C236 1.387 . S
C235 H238 0.950 . S
C236 C235 1.387 . S
C236 C239 1.387 . S
H237 C233 0.950 . S
H238 C235 0.950 . S
C239 C230 1.390 . S
C239 H232 0.950 1_545 S
C239 C236 1.387 . S
C240 C241 1.387 . S
C240 H244 0.950 . S
C240 C249 1.390 1_655 S
C241 C240 1.387 . S
C241 C243 1.387 . S
H242 C249 0.950 . S
C243 C241 1.387 . S
C243 C245 1.390 1_655 S
C243 H247 0.950 . S
H244 C240 0.950 . S
C245 C243 1.390 1_455 S
C245 C246 1.387 . S
C245 H248 0.950 . S
C246 C245 1.387 . S
C246 C249 1.387 . S
H247 C243 0.950 . S
H248 C245 0.950 . S
C249 C240 1.390 1_455 S
C249 H242 0.950 . S
C249 C246 1.387 . S
C250 C251 1.387 . S
C250 H254 0.950 . S
C250 C259 1.390 1_455 S
C251 C250 1.387 . S
C251 C253 1.387 . S
H252 C259 0.950 . S
C253 C251 1.387 . S
C253 C255 1.390 1_455 S
C253 H257 0.950 . S
H254 C250 0.950 . S
C255 C253 1.390 1_655 S
C255 C256 1.387 . S
C255 H258 0.950 . S
C256 C255 1.387 . S
C256 C259 1.387 . S
H257 C253 0.950 . S
H258 C255 0.950 . S
C259 C250 1.390 1_655 S
C259 H252 0.950 . S
C259 C256 1.387 . S
C260 C261 1.387 . S
C260 H264 0.950 . S
C260 C269 1.390 1_655 S
C261 C260 1.387 . S
C261 C263 1.387 . S
H262 C269 0.950 . S
C263 C261 1.387 . S
C263 C265 1.390 1_655 S
C263 H267 0.950 . S
H264 C260 0.950 . S
C265 C263 1.390 1_455 S
C265 C266 1.387 . S
C265 H268 0.950 . S
C266 C265 1.387 . S
C266 C269 1.387 . S
H267 C263 0.950 . S
H268 C265 0.950 . S
C269 C260 1.390 1_455 S
C269 H262 0.950 . S
C269 C266 1.387 . S
C270 C271 1.387 . S
C270 H274 0.950 . S
C270 C279 1.390 1_655 S
C271 C270 1.387 . S
C271 C273 1.387 . S
H272 C279 0.950 . S
C273 C271 1.387 . S
C273 C275 1.390 1_655 S
C273 H277 0.950 . S
H274 C270 0.950 . S
C275 C273 1.390 1_455 S
C275 C276 1.387 . S
C275 H278 0.950 . S
C276 C275 1.387 . S
C276 C279 1.387 . S
H277 C273 0.950 . S
H278 C275 0.950 . S
C279 C270 1.390 1_455 S
C279 H272 0.950 . S
C279 C276 1.387 . S
C161 C59 1.710 . S
C166 C10 1.710 . S
C171 C99 1.710 . S
C176 C130 1.710 . S
C181 C19 1.710 . S
C186 C50 1.710 . S
C191 C139 1.710 . S
C196 C90 1.710 . S
C201 C122 1.819 . S
C206 C2 1.818 . S
C211 C47 1.204 . S
C216 C87 1.203 . S
C221 C51 1.820 . S
C226 C91 1.821 . S
C231 C136 1.206 . S
C236 C16 1.206 . S
C241 C42 1.819 . S
C246 C82 1.819 . S
C251 C127 1.204 1_455 S
C256 C7 1.203 1_655 S
C261 C131 1.819 . S
C266 C11 1.820 . S
C271 C96 1.204 1_655 S
C276 C56 1.205 1_455 S
