# Generated by pormake.
# Topology wne, (6)-cn, num edge types: 1
# Building blocks:
#     Node 0, Type 0, BuildingBlock: FUNLAD_clean_sbu_0, # of connection points: 6
#     Node 1, Type 0, BuildingBlock: FUNLAD_clean_sbu_0, # of connection points: 6
#     Node 2, Type 0, BuildingBlock: FUNLAD_clean_sbu_0, # of connection points: 6
#     Node 3, Type 0, BuildingBlock: FUNLAD_clean_sbu_0, # of connection points: 6
#     Node 4, Type 0, BuildingBlock: FUNLAD_clean_sbu_0, # of connection points: 6
#     Node 5, Type 0, BuildingBlock: FUNLAD_clean_sbu_0, # of connection points: 6
#     Node 6, Type 0, BuildingBlock: FUNLAD_clean_sbu_0, # of connection points: 6
#     Node 7, Type 0, BuildingBlock: FUNLAD_clean_sbu_0, # of connection points: 6
#     Node 8, Type 0, BuildingBlock: FUNLAD_clean_sbu_0, # of connection points: 6
#     Node 9, Type 0, BuildingBlock: FUNLAD_clean_sbu_0, # of connection points: 6
#     Node 10, Type 0, BuildingBlock: FUNLAD_clean_sbu_0, # of connection points: 6
#     Node 11, Type 0, BuildingBlock: FUNLAD_clean_sbu_0, # of connection points: 6
#     Node 12, Type 0, BuildingBlock: FUNLAD_clean_sbu_0, # of connection points: 6
#     Node 13, Type 0, BuildingBlock: FUNLAD_clean_sbu_0, # of connection points: 6
#     Node 14, Type 0, BuildingBlock: FUNLAD_clean_sbu_0, # of connection points: 6
#     Node 15, Type 0, BuildingBlock: FUNLAD_clean_sbu_0, # of connection points: 6
#     Node 16, Type 0, BuildingBlock: FUNLAD_clean_sbu_0, # of connection points: 6
#     Node 17, Type 0, BuildingBlock: FUNLAD_clean_sbu_0, # of connection points: 6
#     Node 18, Type 0, BuildingBlock: FUNLAD_clean_sbu_0, # of connection points: 6
#     Node 19, Type 0, BuildingBlock: FUNLAD_clean_sbu_0, # of connection points: 6
#     Node 20, Type 0, BuildingBlock: FUNLAD_clean_sbu_0, # of connection points: 6
#     Node 21, Type 0, BuildingBlock: FUNLAD_clean_sbu_0, # of connection points: 6
#     Node 22, Type 0, BuildingBlock: FUNLAD_clean_sbu_0, # of connection points: 6
#     Node 23, Type 0, BuildingBlock: FUNLAD_clean_sbu_0, # of connection points: 6
#     Node 24, Type 0, BuildingBlock: FUNLAD_clean_sbu_0, # of connection points: 6
#     Node 25, Type 0, BuildingBlock: FUNLAD_clean_sbu_0, # of connection points: 6
#     Node 26, Type 0, BuildingBlock: FUNLAD_clean_sbu_0, # of connection points: 6
#     Node 27, Type 0, BuildingBlock: FUNLAD_clean_sbu_0, # of connection points: 6
#     Node 28, Type 0, BuildingBlock: FUNLAD_clean_sbu_0, # of connection points: 6
#     Node 29, Type 0, BuildingBlock: FUNLAD_clean_sbu_0, # of connection points: 6
#     Node 30, Type 0, BuildingBlock: FUNLAD_clean_sbu_0, # of connection points: 6
#     Node 31, Type 0, BuildingBlock: FUNLAD_clean_sbu_0, # of connection points: 6
#     Node 32, Type 0, BuildingBlock: FUNLAD_clean_sbu_0, # of connection points: 6
#     Node 33, Type 0, BuildingBlock: FUNLAD_clean_sbu_0, # of connection points: 6
#     Node 34, Type 0, BuildingBlock: FUNLAD_clean_sbu_0, # of connection points: 6
#     Node 35, Type 0, BuildingBlock: FUNLAD_clean_sbu_0, # of connection points: 6
#     Edge 36, Type (0, 0), BuildingBlock: XIVTED_clean_linker_0, # of connection points: 2
#     Edge 37, Type (0, 0), BuildingBlock: XIVTED_clean_linker_0, # of connection points: 2
#     Edge 38, Type (0, 0), BuildingBlock: XIVTED_clean_linker_0, # of connection points: 2
#     Edge 39, Type (0, 0), BuildingBlock: XIVTED_clean_linker_0, # of connection points: 2
#     Edge 40, Type (0, 0), BuildingBlock: XIVTED_clean_linker_0, # of connection points: 2
#     Edge 41, Type (0, 0), BuildingBlock: XIVTED_clean_linker_0, # of connection points: 2
#     Edge 42, Type (0, 0), BuildingBlock: XIVTED_clean_linker_0, # of connection points: 2
#     Edge 43, Type (0, 0), BuildingBlock: XIVTED_clean_linker_0, # of connection points: 2
#     Edge 44, Type (0, 0), BuildingBlock: XIVTED_clean_linker_0, # of connection points: 2
#     Edge 45, Type (0, 0), BuildingBlock: XIVTED_clean_linker_0, # of connection points: 2
#     Edge 46, Type (0, 0), BuildingBlock: XIVTED_clean_linker_0, # of connection points: 2
#     Edge 47, Type (0, 0), BuildingBlock: XIVTED_clean_linker_0, # of connection points: 2
#     Edge 48, Type (0, 0), BuildingBlock: XIVTED_clean_linker_0, # of connection points: 2
#     Edge 49, Type (0, 0), BuildingBlock: XIVTED_clean_linker_0, # of connection points: 2
#     Edge 50, Type (0, 0), BuildingBlock: XIVTED_clean_linker_0, # of connection points: 2
#     Edge 51, Type (0, 0), BuildingBlock: XIVTED_clean_linker_0, # of connection points: 2
#     Edge 52, Type (0, 0), BuildingBlock: XIVTED_clean_linker_0, # of connection points: 2
#     Edge 53, Type (0, 0), BuildingBlock: XIVTED_clean_linker_0, # of connection points: 2
#     Edge 54, Type (0, 0), BuildingBlock: XIVTED_clean_linker_0, # of connection points: 2
#     Edge 55, Type (0, 0), BuildingBlock: XIVTED_clean_linker_0, # of connection points: 2
#     Edge 56, Type (0, 0), BuildingBlock: XIVTED_clean_linker_0, # of connection points: 2
#     Edge 57, Type (0, 0), BuildingBlock: XIVTED_clean_linker_0, # of connection points: 2
#     Edge 58, Type (0, 0), BuildingBlock: XIVTED_clean_linker_0, # of connection points: 2
#     Edge 59, Type (0, 0), BuildingBlock: XIVTED_clean_linker_0, # of connection points: 2
#     Edge 60, Type (0, 0), BuildingBlock: XIVTED_clean_linker_0, # of connection points: 2
#     Edge 61, Type (0, 0), BuildingBlock: XIVTED_clean_linker_0, # of connection points: 2
#     Edge 62, Type (0, 0), BuildingBlock: XIVTED_clean_linker_0, # of connection points: 2
#     Edge 63, Type (0, 0), BuildingBlock: XIVTED_clean_linker_0, # of connection points: 2
#     Edge 64, Type (0, 0), BuildingBlock: XIVTED_clean_linker_0, # of connection points: 2
#     Edge 65, Type (0, 0), BuildingBlock: XIVTED_clean_linker_0, # of connection points: 2
#     Edge 66, Type (0, 0), BuildingBlock: XIVTED_clean_linker_0, # of connection points: 2
#     Edge 67, Type (0, 0), BuildingBlock: XIVTED_clean_linker_0, # of connection points: 2
#     Edge 68, Type (0, 0), BuildingBlock: XIVTED_clean_linker_0, # of connection points: 2
#     Edge 69, Type (0, 0), BuildingBlock: XIVTED_clean_linker_0, # of connection points: 2
#     Edge 70, Type (0, 0), BuildingBlock: XIVTED_clean_linker_0, # of connection points: 2
#     Edge 71, Type (0, 0), BuildingBlock: XIVTED_clean_linker_0, # of connection points: 2
#     Edge 72, Type (0, 0), BuildingBlock: XIVTED_clean_linker_0, # of connection points: 2
#     Edge 73, Type (0, 0), BuildingBlock: XIVTED_clean_linker_0, # of connection points: 2
#     Edge 74, Type (0, 0), BuildingBlock: XIVTED_clean_linker_0, # of connection points: 2
#     Edge 75, Type (0, 0), BuildingBlock: XIVTED_clean_linker_0, # of connection points: 2
#     Edge 76, Type (0, 0), BuildingBlock: XIVTED_clean_linker_0, # of connection points: 2
#     Edge 77, Type (0, 0), BuildingBlock: XIVTED_clean_linker_0, # of connection points: 2
#     Edge 78, Type (0, 0), BuildingBlock: XIVTED_clean_linker_0, # of connection points: 2
#     Edge 79, Type (0, 0), BuildingBlock: XIVTED_clean_linker_0, # of connection points: 2
#     Edge 80, Type (0, 0), BuildingBlock: XIVTED_clean_linker_0, # of connection points: 2
#     Edge 81, Type (0, 0), BuildingBlock: XIVTED_clean_linker_0, # of connection points: 2
#     Edge 82, Type (0, 0), BuildingBlock: XIVTED_clean_linker_0, # of connection points: 2
#     Edge 83, Type (0, 0), BuildingBlock: XIVTED_clean_linker_0, # of connection points: 2
#     Edge 84, Type (0, 0), BuildingBlock: XIVTED_clean_linker_0, # of connection points: 2
#     Edge 85, Type (0, 0), BuildingBlock: XIVTED_clean_linker_0, # of connection points: 2
#     Edge 86, Type (0, 0), BuildingBlock: XIVTED_clean_linker_0, # of connection points: 2
#     Edge 87, Type (0, 0), BuildingBlock: XIVTED_clean_linker_0, # of connection points: 2
#     Edge 88, Type (0, 0), BuildingBlock: XIVTED_clean_linker_0, # of connection points: 2
#     Edge 89, Type (0, 0), BuildingBlock: XIVTED_clean_linker_0, # of connection points: 2
#     Edge 90, Type (0, 0), BuildingBlock: XIVTED_clean_linker_0, # of connection points: 2
#     Edge 91, Type (0, 0), BuildingBlock: XIVTED_clean_linker_0, # of connection points: 2
#     Edge 92, Type (0, 0), BuildingBlock: XIVTED_clean_linker_0, # of connection points: 2
#     Edge 93, Type (0, 0), BuildingBlock: XIVTED_clean_linker_0, # of connection points: 2
#     Edge 94, Type (0, 0), BuildingBlock: XIVTED_clean_linker_0, # of connection points: 2
#     Edge 95, Type (0, 0), BuildingBlock: XIVTED_clean_linker_0, # of connection points: 2
#     Edge 96, Type (0, 0), BuildingBlock: XIVTED_clean_linker_0, # of connection points: 2
#     Edge 97, Type (0, 0), BuildingBlock: XIVTED_clean_linker_0, # of connection points: 2
#     Edge 98, Type (0, 0), BuildingBlock: XIVTED_clean_linker_0, # of connection points: 2
#     Edge 99, Type (0, 0), BuildingBlock: XIVTED_clean_linker_0, # of connection points: 2
#     Edge 100, Type (0, 0), BuildingBlock: XIVTED_clean_linker_0, # of connection points: 2
#     Edge 101, Type (0, 0), BuildingBlock: XIVTED_clean_linker_0, # of connection points: 2
#     Edge 102, Type (0, 0), BuildingBlock: XIVTED_clean_linker_0, # of connection points: 2
#     Edge 103, Type (0, 0), BuildingBlock: XIVTED_clean_linker_0, # of connection points: 2
#     Edge 104, Type (0, 0), BuildingBlock: XIVTED_clean_linker_0, # of connection points: 2
#     Edge 105, Type (0, 0), BuildingBlock: XIVTED_clean_linker_0, # of connection points: 2
#     Edge 106, Type (0, 0), BuildingBlock: XIVTED_clean_linker_0, # of connection points: 2
#     Edge 107, Type (0, 0), BuildingBlock: XIVTED_clean_linker_0, # of connection points: 2
#     Edge 108, Type (0, 0), BuildingBlock: XIVTED_clean_linker_0, # of connection points: 2
#     Edge 109, Type (0, 0), BuildingBlock: XIVTED_clean_linker_0, # of connection points: 2
#     Edge 110, Type (0, 0), BuildingBlock: XIVTED_clean_linker_0, # of connection points: 2
#     Edge 111, Type (0, 0), BuildingBlock: XIVTED_clean_linker_0, # of connection points: 2
#     Edge 112, Type (0, 0), BuildingBlock: XIVTED_clean_linker_0, # of connection points: 2
#     Edge 113, Type (0, 0), BuildingBlock: XIVTED_clean_linker_0, # of connection points: 2
#     Edge 114, Type (0, 0), BuildingBlock: XIVTED_clean_linker_0, # of connection points: 2
#     Edge 115, Type (0, 0), BuildingBlock: XIVTED_clean_linker_0, # of connection points: 2
#     Edge 116, Type (0, 0), BuildingBlock: XIVTED_clean_linker_0, # of connection points: 2
#     Edge 117, Type (0, 0), BuildingBlock: XIVTED_clean_linker_0, # of connection points: 2
#     Edge 118, Type (0, 0), BuildingBlock: XIVTED_clean_linker_0, # of connection points: 2
#     Edge 119, Type (0, 0), BuildingBlock: XIVTED_clean_linker_0, # of connection points: 2
#     Edge 120, Type (0, 0), BuildingBlock: XIVTED_clean_linker_0, # of connection points: 2
#     Edge 121, Type (0, 0), BuildingBlock: XIVTED_clean_linker_0, # of connection points: 2
#     Edge 122, Type (0, 0), BuildingBlock: XIVTED_clean_linker_0, # of connection points: 2
#     Edge 123, Type (0, 0), BuildingBlock: XIVTED_clean_linker_0, # of connection points: 2
#     Edge 124, Type (0, 0), BuildingBlock: XIVTED_clean_linker_0, # of connection points: 2
#     Edge 125, Type (0, 0), BuildingBlock: XIVTED_clean_linker_0, # of connection points: 2
#     Edge 126, Type (0, 0), BuildingBlock: XIVTED_clean_linker_0, # of connection points: 2
#     Edge 127, Type (0, 0), BuildingBlock: XIVTED_clean_linker_0, # of connection points: 2
#     Edge 128, Type (0, 0), BuildingBlock: XIVTED_clean_linker_0, # of connection points: 2
#     Edge 129, Type (0, 0), BuildingBlock: XIVTED_clean_linker_0, # of connection points: 2
#     Edge 130, Type (0, 0), BuildingBlock: XIVTED_clean_linker_0, # of connection points: 2
#     Edge 131, Type (0, 0), BuildingBlock: XIVTED_clean_linker_0, # of connection points: 2
#     Edge 132, Type (0, 0), BuildingBlock: XIVTED_clean_linker_0, # of connection points: 2
#     Edge 133, Type (0, 0), BuildingBlock: XIVTED_clean_linker_0, # of connection points: 2
#     Edge 134, Type (0, 0), BuildingBlock: XIVTED_clean_linker_0, # of connection points: 2
#     Edge 135, Type (0, 0), BuildingBlock: XIVTED_clean_linker_0, # of connection points: 2
#     Edge 136, Type (0, 0), BuildingBlock: XIVTED_clean_linker_0, # of connection points: 2
#     Edge 137, Type (0, 0), BuildingBlock: XIVTED_clean_linker_0, # of connection points: 2
#     Edge 138, Type (0, 0), BuildingBlock: XIVTED_clean_linker_0, # of connection points: 2
#     Edge 139, Type (0, 0), BuildingBlock: XIVTED_clean_linker_0, # of connection points: 2
#     Edge 140, Type (0, 0), BuildingBlock: XIVTED_clean_linker_0, # of connection points: 2
#     Edge 141, Type (0, 0), BuildingBlock: XIVTED_clean_linker_0, # of connection points: 2
#     Edge 142, Type (0, 0), BuildingBlock: XIVTED_clean_linker_0, # of connection points: 2
#     Edge 143, Type (0, 0), BuildingBlock: XIVTED_clean_linker_0, # of connection points: 2
# Relax obj value: 0.358
# Max RMSD: 0.196
# Mean RMSD: 0.195
data_MOF--net-wne--node1-FUNLAD_clean_sbu_0--edge1-XIVTED_clean_linker_0
_symmetry_space_group_name_H-M    P1
_symmetry_Int_Tables_number       1
_symmetry_cell_setting            triclinic
loop_
_symmetry_equiv_pos_as_xyz
'x, y, z'
_cell_length_a     67.048192
_cell_length_b     67.110988
_cell_length_c     47.198897
_cell_angle_alpha  90.016232
_cell_angle_beta   89.97152
_cell_angle_gamma 119.98283
loop_
_atom_site_label
_atom_site_type_symbol
_atom_site_fract_x
_atom_site_fract_y
_atom_site_fract_z
_atom_type_partial_charge
C0 C 0.23443 0.1966 0.08779 0.0
N1 N 0.29059 0.24212 0.13459 0.0
C2 C 0.28197 0.22666 0.15618 0.0
C3 C 0.29583 0.22002 0.17019 0.0
C4 C 0.31859 0.2287 0.16121 0.0
C5 C 0.32779 0.2462 0.14074 0.0
C6 C 0.31335 0.2529 0.12774 0.0
Zn7 Zn 0.26711 0.24329 0.10865 0.0
C8 C 0.28178 0.24857 0.04803 0.0
N9 N 0.21611 0.24261 0.0545 0.0
C10 C 0.19388 0.22708 0.06099 0.0
C11 C 0.2215 0.25587 0.03084 0.0
C12 C 0.2041 0.25361 0.01251 0.0
C13 C 0.18091 0.23776 0.01881 0.0
C14 C 0.176 0.22458 0.04364 0.0
Zn15 Zn 0.24094 0.24357 0.08039 0.0
O16 O 0.2516 0.20765 0.10392 0.0
C17 C 0.22616 0.23612 0.14159 0.0
O18 O 0.22579 0.20729 0.07526 0.0
H19 H 0.23931 0.26797 0.02594 0.0
H20 H 0.26379 0.21763 0.16085 0.0
H21 H 0.18992 0.21637 0.07959 0.0
O22 O 0.24611 0.23867 0.14362 0.0
O23 O 0.21909 0.23824 0.11738 0.0
H24 H 0.31989 0.26522 0.11058 0.0
O25 O 0.25749 0.28046 0.08502 0.0
O26 O 0.28285 0.2788 0.11298 0.0
O27 O 0.26269 0.24802 0.0443 0.0
O28 O 0.28793 0.24729 0.07307 0.0
C29 C 0.27557 0.29062 0.1003 0.0
H30 H 0.28793 0.20615 0.18547 0.0
H31 H 0.34532 0.2532 0.1333 0.0
H32 H 0.20886 0.26395 0.99345 0.0
H33 H 0.15848 0.21252 0.04991 0.0
C34 C 0.81579 0.04395 0.08874 0.0
N35 N 0.76808 0.05146 0.13528 0.0
C36 C 0.78299 0.05882 0.15749 0.0
C37 C 0.78814 0.0789 0.17161 0.0
C38 C 0.77862 0.09209 0.16205 0.0
C39 C 0.76166 0.08316 0.14089 0.0
C40 C 0.7564 0.06241 0.12785 0.0
Zn41 Zn 0.76877 0.02751 0.10972 0.0
C42 C 0.76249 0.03559 0.04875 0.0
N43 N 0.77231 0.97827 0.05671 0.0
C44 C 0.79108 0.97598 0.06141 0.0
C45 C 0.75642 0.96545 0.03672 0.0
C46 C 0.759 0.94928 0.02082 0.0
C47 C 0.77819 0.94647 0.02549 0.0
C48 C 0.79447 0.96035 0.04585 0.0
Zn49 Zn 0.76963 1.00163 0.08154 0.0
O50 O 0.80438 0.04934 0.1053 0.0
C51 C 0.77808 0.99546 0.14283 0.0
O52 O 0.8056 0.02469 0.07612 0.0
H53 H 0.74163 0.96758 0.03337 0.0
H54 H 0.79274 0.05053 0.16267 0.0
H55 H 0.80349 0.98622 0.07746 0.0
O56 O 0.77433 0.01209 0.14495 0.0
O57 O 0.77653 0.98652 0.11858 0.0
H58 H 0.7445 0.05619 0.11024 0.0
O59 O 0.73296 0.9795 0.08644 0.0
O60 O 0.73335 0.0062 0.1138 0.0
O61 O 0.76364 0.01737 0.04511 0.0
O62 O 0.76384 0.04321 0.07372 0.0
C63 C 0.72217 0.98686 0.10147 0.0
H64 H 0.80165 0.08541 0.18743 0.0
H65 H 0.75407 0.09302 0.13296 0.0
H66 H 0.74587 0.93876 1.00555 0.0
H67 H 0.80976 0.95917 0.04984 0.0
C68 C 0.96943 0.77347 0.08928 0.0
N69 N 0.96256 0.71792 0.13377 0.0
C70 C 0.9554 0.72526 0.15639 0.0
C71 C 0.93479 0.71058 0.16971 0.0
C72 C 0.92091 0.68836 0.15899 0.0
C73 C 0.92966 0.68033 0.13758 0.0
C74 C 0.95091 0.69552 0.12533 0.0
Zn75 Zn 0.98662 0.7429 0.10849 0.0
C76 C 0.97804 0.72958 0.04716 0.0
N77 N 0.03501 0.7966 0.05569 0.0
C78 C 0.03727 0.81764 0.06031 0.0
C79 C 0.04747 0.79341 0.03528 0.0
C80 C 0.06316 0.81198 0.01875 0.0
C81 C 0.06585 0.83394 0.02317 0.0
C82 C 0.05242 0.83649 0.04411 0.0
Zn83 Zn 0.01185 0.77041 0.08052 0.0
O84 O 0.96495 0.75665 0.10533 0.0
C85 C 0.01848 0.78403 0.14224 0.0
O86 O 0.9884 0.78317 0.0759 0.0
H87 H 0.04534 0.77651 0.03195 0.0
H88 H 0.96421 0.74314 0.16238 0.0
H89 H 0.02726 0.81987 0.07667 0.0
O90 O 1.00236 0.76336 0.14405 0.0
O91 O 0.02694 0.79207 0.11796 0.0
H92 H 0.95696 0.68995 0.10743 0.0
O93 O 0.03429 0.75592 0.08466 0.0
O94 O 0.00779 0.72882 0.11148 0.0
O95 O 0.99611 0.7491 0.04383 0.0
O96 O 0.9706 0.72281 0.07209 0.0
C97 C 0.02717 0.73751 0.09909 0.0
H98 H 0.92853 0.71762 0.1858 0.0
H99 H 0.91934 0.66323 0.12882 0.0
H100 H 0.07334 0.80922 1.0031 0.0
H101 H 0.0535 0.8529 0.04798 0.0
C102 C 0.21956 0.26434 0.43615 0.0
N103 N 0.16217 0.21903 0.38821 0.0
C104 C 0.17606 0.2347 0.36848 0.0
C105 C 0.17407 0.22922 0.33997 0.0
C106 C 0.15796 0.20714 0.331 0.0
C107 C 0.14417 0.19069 0.35143 0.0
C108 C 0.14637 0.19716 0.38025 0.0
Zn109 Zn 0.16826 0.23427 0.42814 0.0
C110 C 0.17512 0.21018 0.47528 0.0
N111 N 0.18798 0.27678 0.50288 0.0
C112 C 0.20507 0.29906 0.50007 0.0
C113 C 0.18079 0.26725 0.529 0.0
C114 C 0.19156 0.28001 0.55348 0.0
C115 C 0.21012 0.30273 0.5511 0.0
C116 C 0.21642 0.31227 0.52381 0.0
Zn117 Zn 0.17776 0.2574 0.46613 0.0
O118 O 0.20479 0.24908 0.41981 0.0
C119 C 0.17193 0.28123 0.41691 0.0
O120 O 0.2126 0.27122 0.45683 0.0
H121 H 0.16733 0.24947 0.53087 0.0
H122 H 0.18876 0.25195 0.37459 0.0
H123 H 0.21089 0.30631 0.47921 0.0
O124 O 0.16711 0.26171 0.40741 0.0
O125 O 0.17744 0.28557 0.44294 0.0
H126 H 0.13545 0.18485 0.39605 0.0
O127 O 0.14219 0.24303 0.47548 0.0
O128 O 0.13191 0.21924 0.43904 0.0
O129 O 0.17857 0.22864 0.48761 0.0
O130 O 0.1696 0.20727 0.44913 0.0
C131 C 0.12642 0.22695 0.46074 0.0
H132 H 0.18535 0.24221 0.32495 0.0
H133 H 0.13174 0.1733 0.34516 0.0
H134 H 0.18571 0.27193 0.57397 0.0
H135 H 0.2308 0.32944 0.52052 0.0
C136 C 0.74863 0.95752 0.43173 0.0
N137 N 0.79427 0.94445 0.38628 0.0
C138 C 0.77878 0.94227 0.36606 0.0
C139 C 0.7848 0.94598 0.33771 0.0
C140 C 0.80725 0.95268 0.32949 0.0
C141 C 0.82346 0.95563 0.35042 0.0
C142 C 0.81644 0.95107 0.37903 0.0
Zn143 Zn 0.7788 0.93614 0.42604 0.0
C144 C 0.803 0.96888 0.47193 0.0
N145 N 0.73651 0.91634 0.50084 0.0
C146 C 0.71346 0.90786 0.49765 0.0
C147 C 0.74662 0.92314 0.52673 0.0
C148 C 0.73367 0.92274 0.55027 0.0
C149 C 0.71001 0.91508 0.54725 0.0
C150 C 0.69987 0.90684 0.52062 0.0
Zn151 Zn 0.75593 0.92411 0.46425 0.0
O152 O 0.76455 0.95819 0.41647 0.0
C153 C 0.73189 0.89262 0.41635 0.0
O154 O 0.74115 0.94371 0.45241 0.0
H155 H 0.76496 0.93005 0.52891 0.0
H156 H 0.76138 0.93758 0.3717 0.0
H157 H 0.70566 0.903 0.47693 0.0
O158 O 0.75101 0.90744 0.40596 0.0
O159 O 0.72822 0.89417 0.4425 0.0
H160 H 0.82862 0.95292 0.39528 0.0
O161 O 0.7714 0.90463 0.4765 0.0
O162 O 0.79305 0.91421 0.43809 0.0
O163 O 0.7841 0.9548 0.48419 0.0
O164 O 0.80634 0.96491 0.44645 0.0
C165 C 0.78653 0.90322 0.46161 0.0
H166 H 0.772 0.9441 0.32228 0.0
H167 H 0.84113 0.96122 0.34472 0.0
H168 H 0.74242 0.92947 0.57023 0.0
H169 H 0.68166 0.90024 0.51721 0.0
C170 C 0.05458 0.79252 0.43363 0.0
N171 N 0.06717 0.85071 0.38736 0.0
C172 C 0.06918 0.83712 0.36739 0.0
C173 C 0.06539 0.83911 0.33898 0.0
C174 C 0.05881 0.85484 0.33039 0.0
C175 C 0.05605 0.86842 0.35105 0.0
C176 C 0.06065 0.86625 0.37976 0.0
Zn177 Zn 0.07594 0.84405 0.42724 0.0
C178 C 0.04368 0.83584 0.4738 0.0
N179 N 0.09691 0.82248 0.50202 0.0
C180 C 0.10238 0.80559 0.49902 0.0
C181 C 0.09413 0.82923 0.52821 0.0
C182 C 0.09597 0.81824 0.55255 0.0
C183 C 0.10042 0.79988 0.54997 0.0
C184 C 0.10408 0.794 0.52263 0.0
Zn185 Zn 0.08835 0.83339 0.46535 0.0
O186 O 0.05394 0.80764 0.41814 0.0
C187 C 0.11931 0.84053 0.41669 0.0
O188 O 0.06839 0.79898 0.45431 0.0
H189 H 0.08964 0.84257 0.53022 0.0
H190 H 0.07391 0.82449 0.37325 0.0
H191 H 0.10426 0.80018 0.47809 0.0
O192 O 0.10451 0.84508 0.40684 0.0
O193 O 0.11792 0.83505 0.44277 0.0
H194 H 0.05899 0.87686 0.39577 0.0
O195 O 0.10812 0.86845 0.47674 0.0
O196 O 0.09778 0.88033 0.43883 0.0
O197 O 0.05799 0.83132 0.48607 0.0
O198 O 0.04733 0.84274 0.44813 0.0
C199 C 0.10915 0.88489 0.46205 0.0
H200 H 0.06718 0.82799 0.32375 0.0
H201 H 0.05059 0.88053 0.34508 0.0
H202 H 0.09344 0.8238 0.57309 0.0
H203 H 0.10714 0.77981 0.51917 0.0
C204 C 0.73814 0.71696 0.92272 0.0
N205 N 0.79825 0.76546 0.96647 0.0
C206 C 0.79395 0.75159 0.98934 0.0
C207 C 0.81206 0.7537 1.00606 0.0
C208 C 0.83492 0.76994 0.99889 0.0
C209 C 0.83879 0.78366 0.97473 0.0
C210 C 0.82015 0.7813 0.95897 0.0
Zn211 Zn 0.77159 0.76428 0.94445 0.0
C212 C 0.7829 0.77455 0.88202 0.0
N213 N 0.71677 0.76305 0.89851 0.0
C214 C 0.7137 0.75944 0.87006 0.0
C215 C 0.70479 0.7709 0.91359 0.0
C216 C 0.6903 0.77692 0.89999 0.0
C217 C 0.6888 0.77584 0.87042 0.0
C218 C 0.69987 0.76609 0.85536 0.0
Zn219 Zn 0.74315 0.76274 0.9193 0.0
O220 O 0.75576 0.72753 0.93864 0.0
C221 C 0.73176 0.75436 0.98124 0.0
O222 O 0.73004 0.7282 0.9104 0.0
H223 H 0.70793 0.77463 0.93588 0.0
H224 H 0.77642 0.73915 0.99498 0.0
H225 H 0.72334 0.75315 0.85844 0.0
O226 O 0.75247 0.75877 0.98338 0.0
O227 O 0.72361 0.75352 0.95681 0.0
H228 H 0.8232 0.79236 0.94091 0.0
O229 O 0.75619 0.79754 0.92842 0.0
O230 O 0.78609 0.80031 0.95072 0.0
O231 O 0.76298 0.77232 0.88224 0.0
O232 O 0.79072 0.7708 0.9048 0.0
C233 C 0.77481 0.80963 0.94179 0.0
H234 H 0.80807 0.74297 0.02469 0.0
H235 H 0.85602 0.79608 0.9679 0.0
H236 H 0.68253 0.7849 0.91232 0.0
H237 H 0.69919 0.76521 0.83244 0.0
C238 C 0.29337 0.02438 0.9231 0.0
N239 N 0.24246 0.033 0.96662 0.0
C240 C 0.25758 0.0454 0.98752 0.0
C241 C 0.25437 0.06121 1.00339 0.0
C242 C 0.23535 0.0641 0.99772 0.0
C243 C 0.21992 0.05072 0.97634 0.0
C244 C 0.22392 0.03545 0.96089 0.0
Zn245 Zn 0.24551 0.00961 0.94213 0.0
C246 C 0.23782 0.01571 0.88062 0.0
N247 N 0.24777 0.95962 0.88921 0.0
C248 C 0.25948 0.94869 0.89668 0.0
C249 C 0.2328 0.95213 0.86706 0.0
C250 C 0.22768 0.93205 0.85299 0.0
C251 C 0.23732 0.91894 0.86248 0.0
C252 C 0.25427 0.92794 0.88365 0.0
Zn253 Zn 0.24701 0.98371 0.91453 0.0
O254 O 0.28243 0.0315 0.93827 0.0
C255 C 0.25268 0.97587 0.97572 0.0
O256 O 0.28231 0.00524 0.91028 0.0
H257 H 0.22297 0.96034 0.86186 0.0
H258 H 0.2722 0.04315 0.99171 0.0
H259 H 0.27141 0.95497 0.91426 0.0
O260 O 0.2504 0.99349 0.97897 0.0
O261 O 0.25246 0.96853 0.95085 0.0
H262 H 0.21209 0.02552 0.94418 0.0
O263 O 0.21146 0.96161 0.91919 0.0
O264 O 0.20942 0.98683 0.94649 0.0
O265 O 0.24112 0.99876 0.87898 0.0
O266 O 0.23959 0.02502 0.90466 0.0
C267 C 0.19962 0.96724 0.93461 0.0
H268 H 0.26686 0.07134 0.01949 0.0
H269 H 0.20477 0.05193 0.97154 0.0
H270 H 0.21415 0.92552 0.83719 0.0
H271 H 0.26197 0.91817 0.89155 0.0
C272 C 0.98848 0.27236 0.92271 0.0
N273 N 0.9813 0.21342 0.96601 0.0
C274 C 0.96875 0.21647 0.98642 0.0
C275 C 0.95294 0.19777 1.00271 0.0
C276 C 0.95023 0.17583 0.99802 0.0
C277 C 0.96384 0.17345 0.97719 0.0
C278 C 0.9791 0.19242 0.96124 0.0
Zn279 Zn 1.00419 0.23965 0.94095 0.0
C280 C 0.99664 0.22583 0.87931 0.0
N281 N 0.05269 0.29203 0.8869 0.0
C282 C 0.06457 0.31438 0.89547 0.0
C283 C 0.05957 0.28467 0.86401 0.0
C284 C 0.08025 0.29921 0.85072 0.0
C285 C 0.09444 0.32128 0.86175 0.0
C286 C 0.08586 0.32942 0.88322 0.0
Zn287 Zn 0.02901 0.26711 0.91257 0.0
O288 O 0.98161 0.25409 0.93736 0.0
C289 C 0.03825 0.28056 0.97391 0.0
O290 O 0.00771 0.28104 0.90999 0.0
H291 H 0.0505 0.26683 0.85779 0.0
H292 H 0.97081 0.23333 0.98986 0.0
H293 H 0.05871 0.31997 0.91352 0.0
O294 O 0.02027 0.261 0.97742 0.0
O295 O 0.04541 0.28736 0.94889 0.0
H296 H 0.98915 0.19029 0.94486 0.0
O297 O 0.05092 0.25358 0.91529 0.0
O298 O 0.0278 0.22698 0.94488 0.0
O299 O 0.01277 0.24647 0.87716 0.0
O300 O 0.98869 0.21793 0.90381 0.0
C301 C 0.04669 0.2368 0.9313 0.0
H302 H 0.94263 0.2004 0.0183 0.0
H303 H 0.96275 0.15705 0.97314 0.0
H304 H 0.08632 0.2921 0.8345 0.0
H305 H 0.09637 0.34643 0.89214 0.0
C306 C 0.8877 0.78352 0.56153 0.0
N307 N 0.82526 0.73313 0.5208 0.0
C308 C 0.82941 0.74319 0.49477 0.0
C309 C 0.81765 0.73023 0.47083 0.0
C310 C 0.80146 0.70663 0.47361 0.0
C311 C 0.7986 0.69655 0.50049 0.0
C312 C 0.8105 0.71012 0.5238 0.0
Zn313 Zn 0.83604 0.7525 0.55769 0.0
C314 C 0.84335 0.72879 0.60638 0.0
N315 N 0.85231 0.79066 0.63605 0.0
C316 C 0.86654 0.81304 0.64367 0.0
C317 C 0.83881 0.7748 0.65586 0.0
C318 C 0.83959 0.78068 0.68411 0.0
C319 C 0.8539 0.80335 0.69267 0.0
C320 C 0.86743 0.81989 0.67218 0.0
Zn321 Zn 0.84648 0.77541 0.59604 0.0
O322 O 0.87135 0.76821 0.5466 0.0
C323 C 0.83825 0.79944 0.54958 0.0
O324 O 0.88296 0.79014 0.58481 0.0
H325 H 0.82694 0.75724 0.64993 0.0
H326 H 0.84097 0.76151 0.49271 0.0
H327 H 0.87694 0.82556 0.62776 0.0
O328 O 0.83379 0.78069 0.53723 0.0
O329 O 0.84509 0.80263 0.57526 0.0
H330 H 0.80692 0.70235 0.54458 0.0
O331 O 0.80996 0.76065 0.60462 0.0
O332 O 0.80141 0.73764 0.56836 0.0
O333 O 0.84771 0.74802 0.61637 0.0
O334 O 0.83799 0.72478 0.58026 0.0
C335 C 0.79486 0.74499 0.58898 0.0
H336 H 0.82041 0.7389 0.45066 0.0
H337 H 0.78678 0.67839 0.50376 0.0
H338 H 0.82854 0.76759 0.69917 0.0
H339 H 0.87846 0.83771 0.67813 0.0
C340 C 0.22824 0.10662 0.56054 0.0
N341 N 0.27868 0.09482 0.52023 0.0
C342 C 0.26919 0.09221 0.49404 0.0
C343 C 0.28209 0.09425 0.46968 0.0
C344 C 0.30494 0.09875 0.47224 0.0
C345 C 0.31442 0.10225 0.49959 0.0
C346 C 0.30105 0.10033 0.52322 0.0
Zn347 Zn 0.2591 0.08585 0.55683 0.0
C348 C 0.28245 0.11619 0.60582 0.0
N349 N 0.22022 0.0638 0.6345 0.0
C350 C 0.19814 0.05714 0.64225 0.0
C351 C 0.23586 0.06565 0.65433 0.0
C352 C 0.23011 0.06159 0.68273 0.0
C353 C 0.20778 0.0549 0.69147 0.0
C354 C 0.1914 0.05226 0.67094 0.0
Zn355 Zn 0.23569 0.073 0.59464 0.0
O356 O 0.24382 0.10579 0.54594 0.0
C357 C 0.21204 0.04139 0.54771 0.0
O358 O 0.22117 0.0949 0.5835 0.0
H359 H 0.25323 0.07048 0.64837 0.0
H360 H 0.25133 0.08768 0.49204 0.0
H361 H 0.18582 0.05559 0.62635 0.0
O362 O 0.23094 0.05585 0.53572 0.0
O363 O 0.20858 0.04466 0.57344 0.0
H364 H 0.3083 0.10205 0.54415 0.0
O365 O 0.25021 0.05097 0.60326 0.0
O366 O 0.27354 0.06569 0.56731 0.0
O367 O 0.263 0.10133 0.61531 0.0
O368 O 0.28689 0.11506 0.57981 0.0
C369 C 0.26603 0.05167 0.58775 0.0
H370 H 0.27404 0.09182 0.44913 0.0
H371 H 0.33169 0.10533 0.50302 0.0
H372 H 0.24306 0.06329 0.69782 0.0
H373 H 0.17382 0.04675 0.67703 0.0
C374 C 0.90568 0.12452 0.56029 0.0
N375 N 0.91685 0.18694 0.52108 0.0
C376 C 0.92224 0.18221 0.49505 0.0
C377 C 0.92082 0.19364 0.47095 0.0
C378 C 0.91372 0.21007 0.47356 0.0
C379 C 0.90701 0.21354 0.50049 0.0
C380 C 0.90886 0.20191 0.52399 0.0
Zn381 Zn 0.92584 0.17627 0.55759 0.0
C382 C 0.89585 0.16875 0.60655 0.0
N383 N 0.94901 0.1591 0.63374 0.0
C384 C 0.95453 0.14285 0.64153 0.0
C385 C 0.9484 0.17366 0.65346 0.0
C386 C 0.95298 0.17223 0.68174 0.0
C387 C 0.95859 0.15582 0.69048 0.0
C388 C 0.9596 0.14099 0.67015 0.0
Zn389 Zn 0.93935 0.16527 0.59415 0.0
O390 O 0.90678 0.14104 0.54569 0.0
C391 C 0.97068 0.17428 0.54703 0.0
O392 O 0.917 0.12899 0.58354 0.0
H393 H 0.944 0.18651 0.64754 0.0
H394 H 0.92876 0.17043 0.49311 0.0
H395 H 0.95489 0.13133 0.62576 0.0
O396 O 0.95642 0.17975 0.5368 0.0
O397 O 0.96735 0.16579 0.57193 0.0
H398 H 0.90498 0.2058 0.5448 0.0
O399 O 0.9619 0.20181 0.60201 0.0
O400 O 0.94497 0.21076 0.569 0.0
O401 O 0.91135 0.16498 0.61593 0.0
O402 O 0.89619 0.17343 0.58035 0.0
C403 C 0.96015 0.21707 0.58811 0.0
H404 H 0.92635 0.19042 0.45075 0.0
H405 H 0.90093 0.2256 0.50361 0.0
H406 H 0.95225 0.18405 0.69679 0.0
H407 H 0.96409 0.12819 0.6763 0.0
C408 C 0.90493 0.53049 0.42167 0.0
N409 N 0.96052 0.57877 0.4672 0.0
C410 C 0.95302 0.56384 0.48939 0.0
C411 C 0.96805 0.55892 0.50369 0.0
C412 C 0.99085 0.56869 0.49437 0.0
C413 C 0.99879 0.58556 0.47311 0.0
C414 C 0.98319 0.59061 0.45988 0.0
Zn415 Zn 0.93574 0.57791 0.44162 0.0
C416 C 0.94944 0.58356 0.38068 0.0
N417 N 0.88214 0.57332 0.38913 0.0
C418 C 0.86096 0.55478 0.39391 0.0
C419 C 0.88555 0.58883 0.36846 0.0
C420 C 0.86705 0.58604 0.35182 0.0
C421 C 0.84495 0.56701 0.35641 0.0
C422 C 0.84218 0.55117 0.37762 0.0
Zn423 Zn 0.90817 0.57614 0.41413 0.0
O424 O 0.92245 0.54244 0.43697 0.0
C425 C 0.8942 0.5684 0.47538 0.0
O426 O 0.89498 0.54014 0.40979 0.0
H427 H 0.90256 0.60342 0.36501 0.0
H428 H 0.93495 0.55392 0.49445 0.0
H429 H 0.85855 0.54266 0.41047 0.0
O430 O 0.91454 0.5719 0.47694 0.0
O431 O 0.88654 0.57006 0.45136 0.0
H432 H 0.98885 0.6025 0.44228 0.0
O433 O 0.92299 0.61294 0.41802 0.0
O434 O 0.94932 0.61311 0.44591 0.0
O435 O 0.92948 0.58114 0.37748 0.0
O436 O 0.95663 0.58346 0.40554 0.0
C437 C 0.94104 0.62399 0.43313 0.0
H438 H 0.9611 0.54544 0.51954 0.0
H439 H 0.0163 0.59332 0.46532 0.0
H440 H 0.86998 0.59886 0.33594 0.0
H441 H 0.82565 0.53601 0.38162 0.0
C442 C 0.48267 0.3761 0.42133 0.0
N443 N 0.43554 0.3849 0.46701 0.0
C444 C 0.45015 0.39182 0.48952 0.0
C445 C 0.45637 0.41244 0.50299 0.0
C446 C 0.44824 0.42656 0.49249 0.0
C447 C 0.43141 0.41811 0.47116 0.0
C448 C 0.42504 0.39684 0.45878 0.0
Zn449 Zn 0.43568 0.36046 0.44171 0.0
C450 C 0.43014 0.36866 0.38043 0.0
N451 N 0.43858 0.31062 0.38901 0.0
C452 C 0.45713 0.30801 0.39386 0.0
C453 C 0.42294 0.29828 0.36855 0.0
C454 C 0.42564 0.28239 0.35218 0.0
C455 C 0.4447 0.27936 0.35685 0.0
C456 C 0.46065 0.29266 0.37785 0.0
Zn457 Zn 0.43621 0.33425 0.41376 0.0
O458 O 0.47133 0.3816 0.43785 0.0
C459 C 0.44389 0.32781 0.4753 0.0
O460 O 0.47234 0.35692 0.40852 0.0
H461 H 0.40833 0.30068 0.36505 0.0
H462 H 0.45901 0.38276 0.49537 0.0
H463 H 0.46937 0.31791 0.41024 0.0
O464 O 0.44037 0.34461 0.47727 0.0
O465 O 0.44257 0.31897 0.45104 0.0
H466 H 0.41334 0.39098 0.44097 0.0
O467 O 0.39944 0.31264 0.41851 0.0
O468 O 0.40015 0.33981 0.44528 0.0
O469 O 0.43074 0.35012 0.37713 0.0
O470 O 0.43161 0.37652 0.40529 0.0
C471 C 0.3888 0.3204 0.43314 0.0
H472 H 0.46971 0.4185 0.51901 0.0
H473 H 0.42482 0.42865 0.46256 0.0
H474 H 0.41275 0.27233 0.33644 0.0
H475 H 0.47585 0.29135 0.38189 0.0
C476 C 0.63481 0.10582 0.42256 0.0
N477 N 0.62876 0.0499 0.46568 0.0
C478 C 0.62159 0.05685 0.48869 0.0
C479 C 0.6014 0.04172 0.50249 0.0
C480 C 0.58782 0.01944 0.49182 0.0
C481 C 0.59649 0.01189 0.46977 0.0
C482 C 0.6174 0.02753 0.45709 0.0
Zn483 Zn 0.65263 0.07535 0.4406 0.0
C484 C 0.64453 0.06308 0.37914 0.0
N485 N 0.70075 0.13058 0.38913 0.0
C486 C 0.70303 0.15152 0.39456 0.0
C487 C 0.71328 0.12782 0.36842 0.0
C488 C 0.7291 0.14674 0.35247 0.0
C489 C 0.73187 0.16863 0.3578 0.0
C490 C 0.71833 0.17074 0.37897 0.0
Zn491 Zn 0.67772 0.10389 0.41352 0.0
O492 O 0.63018 0.0882 0.43712 0.0
C493 C 0.68409 0.11654 0.47523 0.0
O494 O 0.65421 0.11665 0.41025 0.0
H495 H 0.71116 0.11099 0.36446 0.0
H496 H 0.63005 0.07469 0.4948 0.0
H497 H 0.69299 0.15342 0.41115 0.0
O498 O 0.66778 0.09592 0.47646 0.0
O499 O 0.69297 0.12487 0.45123 0.0
H500 H 0.62341 0.02225 0.43888 0.0
O501 O 0.70031 0.08935 0.41649 0.0
O502 O 0.6745 0.06217 0.44387 0.0
O503 O 0.66175 0.08329 0.37642 0.0
O504 O 0.63746 0.05521 0.40385 0.0
C505 C 0.6937 0.07108 0.43107 0.0
H506 H 0.59511 0.04839 0.51902 0.0
H507 H 0.58634 0.99478 0.46097 0.0
H508 H 0.73936 0.14431 0.3366 0.0
H509 H 0.71948 0.18709 0.38353 0.0
C510 C 0.88564 0.59769 0.76768 0.0
N511 N 0.82774 0.55196 0.72093 0.0
C512 C 0.8415 0.56758 0.70108 0.0
C513 C 0.83967 0.56186 0.67265 0.0
C514 C 0.8239 0.53959 0.66393 0.0
C515 C 0.81017 0.52324 0.68448 0.0
C516 C 0.8122 0.52995 0.7132 0.0
Zn517 Zn 0.83407 0.56727 0.76085 0.0
C518 C 0.84228 0.54339 0.80738 0.0
N519 N 0.85525 0.6097 0.83579 0.0
C520 C 0.87017 0.63267 0.8329 0.0
C521 C 0.85084 0.59955 0.86179 0.0
C522 C 0.8625 0.6124 0.88583 0.0
C523 C 0.87884 0.63596 0.88318 0.0
C524 C 0.88198 0.64614 0.85632 0.0
Zn525 Zn 0.84448 0.59036 0.79895 0.0
O526 O 0.87055 0.58183 0.75223 0.0
C527 C 0.83731 0.61398 0.75025 0.0
O528 O 0.8791 0.6052 0.78813 0.0
H529 H 0.83914 0.58125 0.86374 0.0
H530 H 0.85411 0.58491 0.70704 0.0
H531 H 0.87391 0.64049 0.81213 0.0
O532 O 0.83307 0.59476 0.74035 0.0
O533 O 0.84252 0.61802 0.7764 0.0
H534 H 0.80143 0.51766 0.72912 0.0
O535 O 0.80922 0.57472 0.81019 0.0
O536 O 0.7977 0.55273 0.77205 0.0
O537 O 0.84675 0.56225 0.81946 0.0
O538 O 0.83535 0.53997 0.78173 0.0
C539 C 0.79291 0.55937 0.79526 0.0
H540 H 0.8509 0.57478 0.65752 0.0
H541 H 0.79801 0.50571 0.6784 0.0
H542 H 0.85953 0.60365 0.90597 0.0
H543 H 0.89394 0.66428 0.85316 0.0
C544 C 0.41295 0.28824 0.76747 0.0
N545 N 0.45938 0.27697 0.72094 0.0
C546 C 0.44369 0.2748 0.701 0.0
C547 C 0.44955 0.27903 0.67264 0.0
C548 C 0.47205 0.28627 0.66408 0.0
C549 C 0.48846 0.28924 0.68474 0.0
C550 C 0.48161 0.28414 0.71337 0.0
Zn551 Zn 0.44395 0.2677 0.76079 0.0
C552 C 0.46748 0.29965 0.80734 0.0
N553 N 0.40115 0.24597 0.83551 0.0
C554 C 0.37812 0.23768 0.83247 0.0
C555 C 0.41119 0.2519 0.86155 0.0
C556 C 0.39819 0.25071 0.88546 0.0
C557 C 0.37457 0.2433 0.88263 0.0
C558 C 0.36451 0.23602 0.85575 0.0
Zn559 Zn 0.42064 0.25472 0.79872 0.0
O560 O 0.42905 0.28933 0.75216 0.0
C561 C 0.39754 0.22401 0.74991 0.0
O562 O 0.40549 0.27414 0.78785 0.0
H563 H 0.42953 0.2587 0.86364 0.0
H564 H 0.42622 0.26966 0.70687 0.0
H565 H 0.37038 0.23346 0.81167 0.0
O566 O 0.41678 0.23917 0.74026 0.0
O567 O 0.3932 0.225 0.776 0.0
H568 H 0.49397 0.28598 0.72937 0.0
O569 O 0.43658 0.23542 0.80998 0.0
O570 O 0.45878 0.24616 0.77198 0.0
O571 O 0.44859 0.28522 0.81936 0.0
O572 O 0.471 0.29623 0.78171 0.0
C573 C 0.45209 0.23466 0.79513 0.0
H574 H 0.43657 0.2771 0.65746 0.0
H575 H 0.50617 0.29521 0.67881 0.0
H576 H 0.40685 0.25667 0.90563 0.0
H577 H 0.34633 0.22968 0.85245 0.0
C578 C 0.72245 0.12654 0.76814 0.0
N579 N 0.73477 0.18413 0.72083 0.0
C580 C 0.73696 0.17041 0.70121 0.0
C581 C 0.73304 0.17193 0.67272 0.0
C582 C 0.72608 0.18728 0.66364 0.0
C583 C 0.72304 0.2009 0.68399 0.0
C584 C 0.72784 0.19926 0.71278 0.0
Zn585 Zn 0.74364 0.17804 0.76098 0.0
C586 C 0.71115 0.16978 0.80708 0.0
N587 N 0.76447 0.15687 0.83629 0.0
C588 C 0.77283 0.14219 0.83339 0.0
C589 C 0.75829 0.1609 0.86223 0.0
C590 C 0.7593 0.14905 0.88618 0.0
C591 C 0.76681 0.13292 0.88346 0.0
C592 C 0.77434 0.13023 0.8567 0.0
Zn593 Zn 0.75608 0.16764 0.79932 0.0
O594 O 0.72179 0.1416 0.75254 0.0
C595 C 0.78724 0.17481 0.75096 0.0
O596 O 0.73648 0.13309 0.78861 0.0
H597 H 0.75144 0.1724 0.86419 0.0
H598 H 0.74187 0.15799 0.70744 0.0
H599 H 0.77722 0.13871 0.81266 0.0
O600 O 0.77227 0.17902 0.74088 0.0
O601 O 0.78595 0.16966 0.77713 0.0
H602 H 0.72597 0.20994 0.72851 0.0
O603 O 0.7755 0.20284 0.8105 0.0
O604 O 0.76536 0.21439 0.77211 0.0
O605 O 0.72543 0.16529 0.81944 0.0
O606 O 0.71493 0.17679 0.78147 0.0
C607 C 0.77659 0.21914 0.79547 0.0
H608 H 0.73494 0.16066 0.65788 0.0
H609 H 0.71727 0.2127 0.67769 0.0
H610 H 0.75316 0.15167 0.90626 0.0
H611 H 0.78076 0.11845 0.85352 0.0
C612 C 0.40641 0.05221 0.25668 0.0
N613 N 0.46568 0.10169 0.3011 0.0
C614 C 0.46045 0.08853 0.32484 0.0
C615 C 0.47794 0.09087 0.34301 0.0
C616 C 0.50109 0.10665 0.33645 0.0
C617 C 0.50586 0.1198 0.3116 0.0
C618 C 0.48786 0.11722 0.29439 0.0
Zn619 Zn 0.4404 0.09996 0.27556 0.0
C620 C 0.4542 0.10722 0.21438 0.0
N621 N 0.38873 0.09862 0.22275 0.0
C622 C 0.36592 0.08619 0.2292 0.0
C623 C 0.39655 0.11422 0.2013 0.0
C624 C 0.38159 0.11915 0.18684 0.0
C625 C 0.35849 0.10858 0.19521 0.0
C626 C 0.35034 0.09112 0.21574 0.0
Zn627 Zn 0.41298 0.0987 0.24836 0.0
O628 O 0.42439 0.06297 0.27198 0.0
C629 C 0.39929 0.09358 0.30899 0.0
O630 O 0.39863 0.06344 0.24365 0.0
H631 H 0.41474 0.12446 0.19693 0.0
H632 H 0.44269 0.07639 0.32988 0.0
H633 H 0.36007 0.07378 0.24625 0.0
O634 O 0.41923 0.09595 0.31204 0.0
O635 O 0.39192 0.09337 0.28417 0.0
H636 H 0.49167 0.12779 0.27568 0.0
O637 O 0.42715 0.13424 0.25357 0.0
O638 O 0.45503 0.13619 0.27968 0.0
O639 O 0.43415 0.10451 0.21309 0.0
O640 O 0.46173 0.10503 0.23824 0.0
C641 C 0.44507 0.14605 0.26833 0.0
H642 H 0.47328 0.08058 0.3621 0.0
H643 H 0.52334 0.13182 0.30518 0.0
H644 H 0.38867 0.13308 0.17158 0.0
H645 H 0.33259 0.08274 0.22279 0.0
C646 C 0.96034 0.35608 0.25538 0.0
N647 N 0.91104 0.36614 0.3 0.0
C648 C 0.92685 0.3784 0.32033 0.0
C649 C 0.92433 0.3943 0.33692 0.0
C650 C 0.90525 0.39737 0.33262 0.0
C651 C 0.88912 0.38414 0.31176 0.0
C652 C 0.89249 0.36881 0.29549 0.0
Zn653 Zn 0.9131 0.34247 0.27509 0.0
C654 C 0.90502 0.34884 0.21376 0.0
N655 N 0.9133 0.29177 0.22174 0.0
C656 C 0.9244 0.28026 0.22933 0.0
C657 C 0.89844 0.28472 0.19949 0.0
C658 C 0.8927 0.26442 0.18552 0.0
C659 C 0.90159 0.25073 0.19524 0.0
C660 C 0.91855 0.25931 0.21641 0.0
Zn661 Zn 0.91329 0.31612 0.24719 0.0
O662 O 0.94986 0.36396 0.27009 0.0
C663 C 0.91919 0.30801 0.30828 0.0
O664 O 0.94883 0.33666 0.24329 0.0
H665 H 0.88914 0.29347 0.19418 0.0
H666 H 0.94145 0.37594 0.32356 0.0
H667 H 0.93627 0.28624 0.24697 0.0
O668 O 0.91868 0.3266 0.31154 0.0
O669 O 0.91754 0.30003 0.28345 0.0
H670 H 0.88012 0.35897 0.27921 0.0
O671 O 0.8776 0.29505 0.2514 0.0
O672 O 0.87697 0.31997 0.28065 0.0
O673 O 0.90841 0.33196 0.21174 0.0
O674 O 0.9066 0.35781 0.23801 0.0
C675 C 0.86644 0.30074 0.26797 0.0
H676 H 0.93735 0.40431 0.35255 0.0
H677 H 0.87391 0.38548 0.30801 0.0
H678 H 0.87921 0.25822 0.16967 0.0
H679 H 0.92568 0.24907 0.22445 0.0
C680 C 0.65665 0.60643 0.25463 0.0
N681 N 0.64687 0.54696 0.29871 0.0
C682 C 0.63442 0.55006 0.31924 0.0
C683 C 0.61838 0.53129 0.33528 0.0
C684 C 0.61533 0.50926 0.33017 0.0
C685 C 0.62877 0.50683 0.30917 0.0
C686 C 0.64426 0.52585 0.29352 0.0
Zn687 Zn 0.67058 0.57303 0.27411 0.0
C688 C 0.66447 0.55896 0.21253 0.0
N689 N 0.72135 0.62434 0.22103 0.0
C690 C 0.73272 0.64694 0.22864 0.0
C691 C 0.72863 0.61661 0.19892 0.0
C692 C 0.749 0.63124 0.18509 0.0
C693 C 0.76253 0.65386 0.19478 0.0
C694 C 0.75372 0.66213 0.21583 0.0
Zn695 Zn 0.69691 0.5998 0.24631 0.0
O696 O 0.64897 0.58813 0.26939 0.0
C697 C 0.70494 0.61369 0.30746 0.0
O698 O 0.67606 0.61448 0.24241 0.0
H699 H 0.72001 0.59858 0.19363 0.0
H700 H 0.63681 0.56701 0.32302 0.0
H701 H 0.72658 0.65276 0.24619 0.0
O702 O 0.68651 0.59444 0.31086 0.0
O703 O 0.71272 0.62006 0.28256 0.0
H704 H 0.65424 0.52366 0.27709 0.0
O705 O 0.71823 0.58545 0.25058 0.0
O706 O 0.69314 0.55951 0.27933 0.0
O707 O 0.68137 0.57922 0.21078 0.0
O708 O 0.65534 0.55141 0.23667 0.0
C709 C 0.71248 0.56843 0.26685 0.0
H710 H 0.60822 0.53394 0.35107 0.0
H711 H 0.62744 0.49037 0.30482 0.0
H712 H 0.75535 0.62402 0.16936 0.0
H713 H 0.76381 0.67951 0.22384 0.0
C714 C 0.55467 0.11563 0.89403 0.0
N715 N 0.49225 0.06563 0.85366 0.0
C716 C 0.49907 0.07521 0.8275 0.0
C717 C 0.48808 0.06244 0.80313 0.0
C718 C 0.46966 0.03965 0.80564 0.0
C719 C 0.46374 0.03008 0.83296 0.0
C720 C 0.47532 0.0433 0.8566 0.0
Zn721 Zn 0.50307 0.08499 0.89039 0.0
C722 C 0.50998 0.06115 0.93899 0.0
N723 N 0.5201 0.12329 0.96847 0.0
C724 C 0.53573 0.14527 0.97624 0.0
C725 C 0.50633 0.10766 0.98832 0.0
C726 C 0.50826 0.11332 0.01677 0.0
C727 C 0.52412 0.13555 0.02553 0.0
C728 C 0.53785 0.15192 1.00499 0.0
Zn729 Zn 0.51358 0.10802 0.92851 0.0
O730 O 0.53831 0.10027 0.87919 0.0
C731 C 0.50569 0.13213 0.88206 0.0
O732 O 0.54993 0.12239 0.91718 0.0
H733 H 0.49365 0.09038 0.98232 0.0
H734 H 0.51244 0.09302 0.82555 0.0
H735 H 0.54649 0.15756 0.96033 0.0
O736 O 0.50118 0.11333 0.86976 0.0
O737 O 0.51249 0.13535 0.90776 0.0
H738 H 0.46986 0.03599 0.8775 0.0
O739 O 0.4771 0.09372 0.93736 0.0
O740 O 0.46848 0.07059 0.90123 0.0
O741 O 0.51444 0.08047 0.94879 0.0
O742 O 0.50457 0.057 0.9129 0.0
C743 C 0.46197 0.07802 0.92179 0.0
H744 H 0.49367 0.07055 0.78261 0.0
H745 H 0.4495 0.01285 0.83637 0.0
H746 H 0.49703 0.10039 0.03189 0.0
H747 H 0.55008 0.16942 1.01111 0.0
C748 C 0.8957 0.4404 0.89371 0.0
N749 N 0.94591 0.42776 0.85403 0.0
C750 C 0.93578 0.42229 0.82802 0.0
C751 C 0.94861 0.42353 0.80392 0.0
C752 C 0.97215 0.43053 0.80654 0.0
C753 C 0.9823 0.43723 0.83346 0.0
C754 C 0.96885 0.43555 0.85692 0.0
Zn755 Zn 0.92655 0.41954 0.89084 0.0
C756 C 0.95023 0.45079 0.93919 0.0
N757 N 0.88797 0.39876 0.96881 0.0
C758 C 0.86575 0.39165 0.97634 0.0
C759 C 0.90367 0.40107 0.98882 0.0
C760 C 0.89782 0.39704 0.0172 0.0
C761 C 0.87532 0.38983 0.02571 0.0
C762 C 0.8589 0.38674 1.00499 0.0
Zn763 Zn 0.90337 0.40747 0.92891 0.0
O764 O 0.91112 0.43922 0.87915 0.0
C765 C 0.8794 0.37498 0.88277 0.0
O766 O 0.88887 0.42921 0.91706 0.0
H767 H 0.92111 0.40607 0.983 0.0
H768 H 0.9175 0.41591 0.82607 0.0
H769 H 0.85338 0.38966 0.96028 0.0
O770 O 0.89829 0.38911 0.87053 0.0
O771 O 0.87606 0.37879 0.90832 0.0
H772 H 0.97664 0.43944 0.87771 0.0
O773 O 0.91785 0.38557 0.9382 0.0
O774 O 0.94114 0.39967 0.90208 0.0
O775 O 0.93086 0.43612 0.94908 0.0
O776 O 0.95438 0.44922 0.91318 0.0
C777 C 0.93359 0.38593 0.92284 0.0
H778 H 0.93989 0.41802 0.78373 0.0
H779 H 1.00043 0.44322 0.8366 0.0
H780 H 0.9108 0.39903 0.03242 0.0
H781 H 0.84119 0.38077 1.01089 0.0
C782 C 0.57096 0.45612 0.89247 0.0
N783 N 0.58297 0.51831 0.85182 0.0
C784 C 0.58934 0.51431 0.82599 0.0
C785 C 0.58847 0.52613 0.80194 0.0
C786 C 0.58087 0.5422 0.80442 0.0
C787 C 0.5731 0.54484 0.83105 0.0
C788 C 0.57449 0.53291 0.85448 0.0
Zn789 Zn 0.59119 0.50755 0.88891 0.0
C790 C 0.55976 0.50005 0.93698 0.0
N791 N 0.61226 0.4909 0.96744 0.0
C792 C 0.6194 0.4759 0.9753 0.0
C793 C 0.60983 0.50437 0.98722 0.0
C794 C 0.61376 0.50274 0.01568 0.0
C795 C 0.62099 0.48755 0.02452 0.0
C796 C 0.62421 0.47415 1.00404 0.0
Zn797 Zn 0.60354 0.49712 0.92729 0.0
O798 O 0.57206 0.47247 0.87753 0.0
C799 C 0.63631 0.50568 0.8815 0.0
O800 O 0.58204 0.46078 0.91593 0.0
H801 H 0.60476 0.5167 0.98113 0.0
H802 H 0.59626 0.50285 0.82422 0.0
H803 H 0.62146 0.46543 0.95943 0.0
O804 O 0.62205 0.51017 0.86906 0.0
O805 O 0.63242 0.4986 0.90708 0.0
H806 H 0.56991 0.53635 0.87512 0.0
O807 O 0.62512 0.53357 0.93605 0.0
O808 O 0.61044 0.542 0.89988 0.0
O809 O 0.57473 0.49588 0.94712 0.0
O810 O 0.56113 0.5053 0.91083 0.0
C811 C 0.62428 0.54858 0.92053 0.0
H812 H 0.59479 0.52353 0.78198 0.0
H813 H 0.56659 0.55656 0.83404 0.0
H814 H 0.61166 0.51377 0.03072 0.0
H815 H 0.63018 0.46247 1.0102 0.0
C816 C 0.5753 0.86631 0.74805 0.0
N817 N 0.63252 0.9138 0.79175 0.0
C818 C 0.64498 0.90669 0.77637 0.0
C819 C 0.65984 0.90101 0.78969 0.0
C820 C 0.66124 0.9017 0.81928 0.0
C821 C 0.64982 0.91095 0.83464 0.0
C822 C 0.63558 0.91722 0.82023 0.0
Zn823 Zn 0.60543 0.91305 0.77145 0.0
C824 C 0.61663 0.92275 0.70936 0.0
N825 N 0.54925 0.90873 0.72515 0.0
C826 C 0.52829 0.89007 0.73057 0.0
C827 C 0.55192 0.92445 0.70515 0.0
C828 C 0.53298 0.92154 0.68945 0.0
C829 C 0.51116 0.90219 0.69429 0.0
C830 C 0.509 0.88639 0.71526 0.0
Zn831 Zn 0.57674 0.91113 0.74641 0.0
O832 O 0.59362 0.87848 0.76192 0.0
C833 C 0.56555 0.8997 0.8089 0.0
O834 O 0.56378 0.87538 0.73921 0.0
H835 H 0.56878 0.93911 0.70116 0.0
H836 H 0.64191 0.90317 0.75402 0.0
H837 H 0.52657 0.87773 0.74648 0.0
O838 O 0.58576 0.90262 0.80869 0.0
O839 O 0.55752 0.90324 0.78617 0.0
H840 H 0.62558 0.92296 0.83208 0.0
O841 O 0.5912 0.94762 0.75311 0.0
O842 O 0.61743 0.94739 0.78083 0.0
O843 O 0.59582 0.91807 0.70727 0.0
O844 O 0.62469 0.92312 0.73372 0.0
C845 C 0.60878 0.95834 0.76905 0.0
H846 H 0.66792 0.89348 0.7771 0.0
H847 H 0.65047 0.91158 0.85757 0.0
H848 H 0.5354 0.93437 0.67381 0.0
H849 H 0.49266 0.87105 0.71948 0.0
C850 C 0.14845 0.70971 0.75502 0.0
N851 N 0.10132 0.719 0.80016 0.0
C852 C 0.11622 0.72625 0.82239 0.0
C853 C 0.12253 0.74698 0.83557 0.0
C854 C 0.11422 0.76095 0.82508 0.0
C855 C 0.09724 0.75228 0.80392 0.0
C856 C 0.09076 0.73087 0.79184 0.0
Zn857 Zn 0.10123 0.69413 0.77539 0.0
C858 C 0.09543 0.70125 0.71402 0.0
N859 N 0.10469 0.64375 0.7243 0.0
C860 C 0.12309 0.64099 0.72975 0.0
C861 C 0.08924 0.63135 0.70369 0.0
C862 C 0.09198 0.61527 0.68778 0.0
C863 C 0.11087 0.6121 0.6931 0.0
C864 C 0.12662 0.62543 0.71424 0.0
Zn865 Zn 0.10237 0.6677 0.7484 0.0
O866 O 0.13679 0.71559 0.77041 0.0
C867 C 0.11019 0.66224 0.80998 0.0
O868 O 0.13846 0.69005 0.74333 0.0
H869 H 0.07476 0.63386 0.69971 0.0
H870 H 0.12524 0.71734 0.82825 0.0
H871 H 0.13519 0.65095 0.74622 0.0
O872 O 0.10685 0.67917 0.81124 0.0
O873 O 0.10848 0.65273 0.7861 0.0
H874 H 0.07887 0.7248 0.77423 0.0
O875 O 0.06545 0.64626 0.75301 0.0
O876 O 0.06592 0.67321 0.78004 0.0
O877 O 0.09731 0.68337 0.71129 0.0
O878 O 0.09599 0.7091 0.73868 0.0
C879 C 0.05471 0.65381 0.76785 0.0
H880 H 0.13601 0.7532 0.85142 0.0
H881 H 0.09052 0.7627 0.7953 0.0
H882 H 0.07925 0.60518 0.67189 0.0
H883 H 0.14169 0.624 0.71876 0.0
C884 C 0.30349 0.44167 0.75548 0.0
N885 N 0.29389 0.38511 0.80095 0.0
C886 C 0.28634 0.39316 0.82243 0.0
C887 C 0.26609 0.37859 0.83652 0.0
C888 C 0.25296 0.35566 0.82774 0.0
C889 C 0.26202 0.34718 0.80728 0.0
C890 C 0.28289 0.36235 0.79419 0.0
Zn891 Zn 0.31841 0.40923 0.77548 0.0
C892 C 0.30986 0.39578 0.71474 0.0
N893 N 0.36852 0.46187 0.72288 0.0
C894 C 0.37529 0.48405 0.72964 0.0
C895 C 0.37649 0.45661 0.69918 0.0
C896 C 0.39178 0.47408 0.68108 0.0
C897 C 0.39926 0.49723 0.68768 0.0
C898 C 0.39086 0.50202 0.71251 0.0
Zn899 Zn 0.3447 0.43664 0.74831 0.0
O900 O 0.29738 0.42383 0.77037 0.0
C901 C 0.35119 0.45024 0.80962 0.0
O902 O 0.32327 0.45149 0.74398 0.0
H903 H 0.37077 0.43884 0.69409 0.0
H904 H 0.29471 0.41131 0.82702 0.0
H905 H 0.3685 0.48789 0.74832 0.0
O906 O 0.3339 0.43017 0.81085 0.0
O907 O 0.36086 0.45786 0.78575 0.0
H908 H 0.28925 0.35629 0.77711 0.0
O909 O 0.36544 0.4203 0.75206 0.0
O910 O 0.33895 0.39443 0.78005 0.0
O911 O 0.3276 0.4156 0.71175 0.0
O912 O 0.30258 0.38843 0.73954 0.0
C913 C 0.35801 0.40217 0.76711 0.0
H914 H 0.25951 0.38596 0.85174 0.0
H915 H 0.25223 0.32955 0.79994 0.0
H916 H 0.39743 0.4694 0.66201 0.0
H917 H 0.39638 0.5195 0.71896 0.0
C918 C 0.55299 0.93006 0.10031 0.0
N919 N 0.49542 0.8832 0.05454 0.0
C920 C 0.50935 0.8988 0.03474 0.0
C921 C 0.50883 0.89267 1.00663 0.0
C922 C 0.49427 0.87003 0.99817 0.0
C923 C 0.48022 0.85376 0.01863 0.0
C924 C 0.48092 0.86084 0.04702 0.0
Zn925 Zn 0.50111 0.89906 0.09421 0.0
C926 C 0.50997 0.87676 0.14164 0.0
N927 N 0.52277 0.94344 0.16731 0.0
C928 C 0.53947 0.96585 0.16424 0.0
C929 C 0.51609 0.93394 0.19352 0.0
C930 C 0.52706 0.94684 0.21782 0.0
C931 C 0.54532 0.96969 0.21519 0.0
C932 C 0.55103 0.97922 0.18783 0.0
Zn933 Zn 0.51215 0.92358 0.13091 0.0
O934 O 0.53774 0.91333 0.08606 0.0
C935 C 0.50444 0.94589 0.08182 0.0
O936 O 0.54665 0.9386 0.11977 0.0
H937 H 0.5029 0.91606 0.19559 0.0
H938 H 0.52133 0.91635 0.04054 0.0
H939 H 0.5448 0.9731 0.14329 0.0
O940 O 0.50032 0.92648 0.07264 0.0
O941 O 0.50969 0.95054 0.10787 0.0
H942 H 0.47013 0.84853 0.06289 0.0
O943 O 0.47684 0.90763 0.14243 0.0
O944 O 0.46468 0.88485 0.10501 0.0
O945 O 0.51526 0.89636 0.15214 0.0
O946 O 0.50193 0.87188 0.11652 0.0
C947 C 0.46026 0.89202 0.12808 0.0
H948 H 0.52021 0.90558 0.99158 0.0
H949 H 0.46895 0.83596 0.01276 0.0
H950 H 0.52161 0.93875 0.23838 0.0
H951 H 0.56512 0.99652 0.18434 0.0
C952 C 0.08172 0.62359 0.10034 0.0
N953 N 0.12738 0.61095 0.05428 0.0
C954 C 0.11176 0.60877 0.03422 0.0
C955 C 0.11772 0.61296 1.00589 0.0
C956 C 0.14024 0.62017 0.99748 0.0
C957 C 0.15657 0.62308 0.01823 0.0
C958 C 0.14962 0.61804 0.04684 0.0
Zn959 Zn 0.11185 0.60208 0.09408 0.0
C960 C 0.13579 0.63434 0.14059 0.0
N961 N 0.06912 0.58127 0.16881 0.0
C962 C 0.0467 0.57556 0.16552 0.0
C963 C 0.07851 0.58426 0.19512 0.0
C964 C 0.06543 0.58233 0.21928 0.0
C965 C 0.0425 0.57752 0.21639 0.0
C966 C 0.03316 0.57371 0.18894 0.0
Zn967 Zn 0.08874 0.58981 0.13221 0.0
O968 O 0.09742 0.62406 0.08483 0.0
C969 C 0.06502 0.55886 0.08358 0.0
O970 O 0.07436 0.60988 0.12111 0.0
H971 H 0.09639 0.58896 0.19736 0.0
H972 H 0.0943 0.60375 0.03997 0.0
H973 H 0.03954 0.57359 0.14451 0.0
O974 O 0.08441 0.57353 0.07371 0.0
O975 O 0.06088 0.56036 0.10961 0.0
H976 H 0.16192 0.61991 0.06293 0.0
O977 O 0.10401 0.56992 0.14362 0.0
O978 O 0.1263 0.58025 0.10574 0.0
O979 O 0.11698 0.62007 0.15293 0.0
O980 O 0.13904 0.63064 0.11494 0.0
C981 C 0.11942 0.56884 0.12893 0.0
H982 H 0.10481 0.61107 0.99062 0.0
H983 H 0.17429 0.62904 0.01239 0.0
H984 H 0.07338 0.58503 0.23993 0.0
H985 H 0.01584 0.57041 0.18526 0.0
C986 C 0.38837 0.45985 0.10207 0.0
N987 N 0.3997 0.51742 0.05521 0.0
C988 C 0.40083 0.50307 0.03562 0.0
C989 C 0.3969 0.50471 1.00717 0.0
C990 C 0.39121 0.52099 0.99811 0.0
C991 C 0.38933 0.53538 0.01837 0.0
C992 C 0.39397 0.53347 0.04715 0.0
Zn993 Zn 0.4093 0.51147 0.09499 0.0
C994 C 0.37877 0.50371 0.14242 0.0
N995 N 0.43267 0.49062 0.16831 0.0
C996 C 0.44037 0.47541 0.16531 0.0
C997 C 0.42752 0.49547 0.19441 0.0
C998 C 0.42889 0.48395 0.21848 0.0
C999 C 0.4357 0.46729 0.21576 0.0
C1000 C 0.44219 0.46371 0.18876 0.0
Zn1001 Zn 0.42347 0.50108 0.13169 0.0
O1002 O 0.38706 0.47493 0.08723 0.0
C1003 C 0.45265 0.50755 0.08236 0.0
O1004 O 0.40318 0.46638 0.12166 0.0
H1005 H 0.42118 0.50739 0.19645 0.0
H1006 H 0.40522 0.49025 0.04177 0.0
H1007 H 0.44398 0.47132 0.14447 0.0
O1008 O 0.43753 0.51201 0.07334 0.0
O1009 O 0.45215 0.5024 0.1084 0.0
H1010 H 0.39315 0.5448 0.06282 0.0
O1011 O 0.44415 0.53673 0.14182 0.0
O1012 O 0.43112 0.54769 0.10552 0.0
O1013 O 0.39351 0.49907 0.15312 0.0
O1014 O 0.38135 0.51085 0.11691 0.0
C1015 C 0.44413 0.55278 0.12734 0.0
H1016 H 0.39809 0.49306 0.99225 0.0
H1017 H 0.38465 0.548 0.01201 0.0
H1018 H 0.42354 0.48727 0.23874 0.0
H1019 H 0.44804 0.45149 0.18553 0.0
C1020 C 0.07321 0.38603 0.58839 0.0
N1021 N 0.13288 0.43546 0.63274 0.0
C1022 C 0.1298 0.41983 0.65311 0.0
C1023 C 0.14859 0.42255 0.66913 0.0
C1024 C 0.17062 0.44159 0.66417 0.0
C1025 C 0.17304 0.45752 0.6433 0.0
C1026 C 0.154 0.45401 0.62766 0.0
Zn1027 Zn 0.10679 0.43321 0.60823 0.0
C1028 C 0.12095 0.44128 0.54668 0.0
N1029 N 0.05558 0.43315 0.55524 0.0
C1030 C 0.03311 0.42275 0.56343 0.0
C1031 C 0.06335 0.44781 0.53277 0.0
C1032 C 0.04901 0.45407 0.51922 0.0
C1033 C 0.0267 0.44594 0.52957 0.0
C1034 C 0.01827 0.42918 0.55097 0.0
Zn1035 Zn 0.0801 0.43299 0.5804 0.0
O1036 O 0.09158 0.39649 0.6031 0.0
C1037 C 0.06628 0.42698 0.64169 0.0
O1038 O 0.06521 0.39752 0.57644 0.0
H1039 H 0.08129 0.45664 0.52698 0.0
H1040 H 0.11285 0.40522 0.6568 0.0
H1041 H 0.0272 0.41104 0.58122 0.0
O1042 O 0.08542 0.42753 0.64493 0.0
O1043 O 0.05996 0.42868 0.61688 0.0
H1044 H 0.15617 0.46624 0.61137 0.0
O1045 O 0.09465 0.46858 0.58465 0.0
O1046 O 0.12026 0.46929 0.61387 0.0
O1047 O 0.10066 0.43787 0.54479 0.0
O1048 O 0.12843 0.43975 0.57087 0.0
C1049 C 0.11146 0.47975 0.60123 0.0
H1050 H 0.14594 0.40968 0.68481 0.0
H1051 H 0.1895 0.47271 0.63905 0.0
H1052 H 0.05634 0.46738 0.50317 0.0
H1053 H 1.0011 0.42263 0.55949 0.0
C1054 C 0.62621 0.68968 0.58713 0.0
N1055 N 0.57487 0.69617 0.63224 0.0
C1056 C 0.591 0.70903 0.65197 0.0
C1057 C 0.5886 0.72519 0.66812 0.0
C1058 C 0.56933 0.72796 0.664 0.0
C1059 C 0.55272 0.71395 0.644 0.0
C1060 C 0.55595 0.69832 0.62815 0.0
Zn1061 Zn 0.57804 0.67342 0.60679 0.0
C1062 C 0.57007 0.68041 0.54574 0.0
N1063 N 0.58191 0.62536 0.55194 0.0
C1064 C 0.59383 0.61462 0.55923 0.0
C1065 C 0.56718 0.61806 0.52955 0.0
C1066 C 0.56239 0.59818 0.51516 0.0
C1067 C 0.57208 0.58512 0.52462 0.0
C1068 C 0.58894 0.59408 0.5459 0.0
Zn1069 Zn 0.58049 0.64866 0.57808 0.0
O1070 O 0.61486 0.69617 0.60254 0.0
C1071 C 0.58622 0.63983 0.63894 0.0
O1072 O 0.61563 0.67061 0.57412 0.0
H1073 H 0.55725 0.62618 0.52443 0.0
H1074 H 0.60591 0.70703 0.65485 0.0
H1075 H 0.60561 0.62079 0.57695 0.0
O1076 O 0.584 0.65742 0.64281 0.0
O1077 O 0.58584 0.63285 0.61383 0.0
H1078 H 0.54337 0.68805 0.61227 0.0
O1079 O 0.54523 0.62615 0.58228 0.0
O1080 O 0.5419 0.64965 0.61141 0.0
O1081 O 0.57442 0.66419 0.5432 0.0
O1082 O 0.57115 0.68884 0.5702 0.0
C1083 C 0.53281 0.63052 0.59841 0.0
H1084 H 0.602 0.7358 0.68306 0.0
H1085 H 0.53738 0.7151 0.64044 0.0
H1086 H 0.54896 0.59167 0.49923 0.0
H1087 H 0.59668 0.58434 0.55375 0.0
C1088 C 0.32339 0.93965 0.58777 0.0
N1089 N 0.31256 0.87982 0.63215 0.0
C1090 C 0.30047 0.8834 0.65271 0.0
C1091 C 0.28445 0.86496 0.66917 0.0
C1092 C 0.28105 0.84275 0.66447 0.0
C1093 C 0.29404 0.83979 0.6433 0.0
C1094 C 0.30952 0.85852 0.62721 0.0
Zn1095 Zn 0.3367 0.90562 0.60771 0.0
C1096 C 0.33119 0.89186 0.54639 0.0
N1097 N 0.38854 0.95719 0.55565 0.0
C1098 C 0.40061 0.97973 0.56344 0.0
C1099 C 0.39549 0.94913 0.53352 0.0
C1100 C 0.41598 0.96332 0.51969 0.0
C1101 C 0.43008 0.9858 0.52946 0.0
C1102 C 0.42184 0.99443 0.55074 0.0
Zn1103 Zn 0.36347 0.93288 0.58074 0.0
O1104 O 0.31563 0.92139 0.60265 0.0
C1105 C 0.37063 0.94625 0.64179 0.0
O1106 O 0.34283 0.94763 0.57566 0.0
H1107 H 0.38649 0.93113 0.52815 0.0
H1108 H 0.30322 0.90051 0.6563 0.0
H1109 H 0.39481 0.98587 0.58102 0.0
O1110 O 0.35258 0.92662 0.64459 0.0
O1111 O 0.37861 0.95335 0.61714 0.0
H1112 H 0.31926 0.85597 0.61078 0.0
O1113 O 0.3846 0.91839 0.58627 0.0
O1114 O 0.35865 0.89151 0.61333 0.0
O1115 O 0.34831 0.91203 0.54514 0.0
O1116 O 0.3215 0.88423 0.57023 0.0
C1117 C 0.37841 0.90092 0.60187 0.0
H1118 H 0.27463 0.86802 0.68505 0.0
H1119 H 0.29244 0.82318 0.63923 0.0
H1120 H 0.42195 0.95583 0.50383 0.0
H1121 H 0.43244 0.01171 0.55888 0.0
C1122 C 0.22272 0.44968 0.22819 0.0
N1123 N 0.1612 0.39953 0.18571 0.0
C1124 C 0.16591 0.40975 0.15974 0.0
C1125 C 0.15439 0.39702 0.13556 0.0
C1126 C 0.13789 0.37349 0.13804 0.0
C1127 C 0.13451 0.36321 0.16487 0.0
C1128 C 0.14617 0.37656 0.18842 0.0
Zn1129 Zn 0.17135 0.41878 0.2227 0.0
C1130 C 0.17771 0.39522 0.27188 0.0
N1131 N 0.18653 0.45716 0.30059 0.0
C1132 C 0.20165 0.47931 0.30826 0.0
C1133 C 0.17294 0.44143 0.32045 0.0
C1134 C 0.17457 0.4472 0.34885 0.0
C1135 C 0.18993 0.46961 0.35751 0.0
C1136 C 0.20343 0.48606 0.33693 0.0
Zn1137 Zn 0.18075 0.4419 0.26074 0.0
O1138 O 0.20702 0.43366 0.2133 0.0
C1139 C 0.17339 0.46582 0.21385 0.0
O1140 O 0.21715 0.45724 0.24997 0.0
H1141 H 0.16063 0.424 0.31449 0.0
H1142 H 0.17768 0.42804 0.1579 0.0
H1143 H 0.21226 0.49167 0.29233 0.0
O1144 O 0.16998 0.44738 0.20151 0.0
O1145 O 0.17912 0.4688 0.23991 0.0
H1146 H 0.14214 0.36868 0.20915 0.0
O1147 O 0.14418 0.42668 0.26892 0.0
O1148 O 0.13645 0.40437 0.23205 0.0
O1149 O 0.18222 0.41463 0.28144 0.0
O1150 O 0.17228 0.39089 0.24583 0.0
C1151 C 0.12945 0.41126 0.2527 0.0
H1152 H 0.15756 0.40584 0.11545 0.0
H1153 H 0.12243 0.34508 0.16791 0.0
H1154 H 0.16349 0.43419 0.36398 0.0
H1155 H 0.21526 0.50369 0.34296 0.0
C1156 C 0.56172 0.77358 0.22964 0.0
N1157 N 0.61268 0.76197 0.18991 0.0
C1158 C 0.60287 0.75595 0.16377 0.0
C1159 C 0.61601 0.75678 0.14023 0.0
C1160 C 0.63957 0.76408 0.14351 0.0
C1161 C 0.64945 0.77164 0.17041 0.0
C1162 C 0.63566 0.77021 0.19336 0.0
Zn1163 Zn 0.59267 0.75293 0.22607 0.0
C1164 C 0.61522 0.78238 0.27522 0.0
N1165 N 0.55201 0.72924 0.30197 0.0
C1166 C 0.52995 0.72305 0.30927 0.0
C1167 C 0.56722 0.73052 0.32206 0.0
C1168 C 0.56105 0.72628 0.35032 0.0
C1169 C 0.53874 0.72008 0.35861 0.0
C1170 C 0.52279 0.71805 0.33781 0.0
Zn1171 Zn 0.56808 0.73887 0.26262 0.0
O1172 O 0.57772 0.7734 0.21521 0.0
C1173 C 0.54561 0.70816 0.21514 0.0
O1174 O 0.55379 0.76077 0.25161 0.0
H1175 H 0.58459 0.7351 0.31642 0.0
H1176 H 0.58457 0.74924 0.16136 0.0
H1177 H 0.51801 0.72203 0.29316 0.0
O1178 O 0.56507 0.72285 0.2046 0.0
O1179 O 0.54084 0.71087 0.24049 0.0
H1180 H 0.64322 0.77447 0.21425 0.0
O1181 O 0.58231 0.71658 0.27093 0.0
O1182 O 0.60721 0.73293 0.23676 0.0
O1183 O 0.59577 0.76721 0.28456 0.0
O1184 O 0.61966 0.78175 0.24915 0.0
C1185 C 0.59889 0.71807 0.25628 0.0
H1186 H 0.60745 0.75059 0.12006 0.0
H1187 H 0.66758 0.77795 0.17402 0.0
H1188 H 0.57366 0.72754 0.36566 0.0
H1189 H 0.50524 0.71293 0.34357 0.0
C1190 C 0.23838 0.79081 0.22675 0.0
N1191 N 0.25017 0.85318 0.1866 0.0
C1192 C 0.25327 0.84695 0.16023 0.0
C1193 C 0.2513 0.85814 0.13616 0.0
C1194 C 0.24633 0.87613 0.1392 0.0
C1195 C 0.24238 0.88146 0.1667 0.0
C1196 C 0.24428 0.86973 0.19002 0.0
Zn1197 Zn 0.25903 0.84229 0.22309 0.0
C1198 C 0.22839 0.83524 0.27215 0.0
N1199 N 0.28093 0.82549 0.30093 0.0
C1200 C 0.28753 0.81 0.3085 0.0
C1201 C 0.27903 0.83915 0.32091 0.0
C1202 C 0.28303 0.83729 0.34929 0.0
C1203 C 0.28967 0.82159 0.35783 0.0
C1204 C 0.29232 0.80795 0.33716 0.0
Zn1205 Zn 0.27182 0.83195 0.26116 0.0
O1206 O 0.23922 0.80709 0.21189 0.0
C1207 C 0.30375 0.84005 0.21416 0.0
O1208 O 0.24998 0.79563 0.24982 0.0
H1209 H 0.27423 0.85172 0.31509 0.0
H1210 H 0.25814 0.8339 0.15788 0.0
H1211 H 0.28909 0.79932 0.29249 0.0
O1212 O 0.28926 0.84439 0.20205 0.0
O1213 O 0.30036 0.83332 0.2399 0.0
H1214 H 0.24224 0.87481 0.21107 0.0
O1215 O 0.29375 0.86836 0.27003 0.0
O1216 O 0.27903 0.87682 0.23397 0.0
O1217 O 0.24333 0.83087 0.28192 0.0
O1218 O 0.22957 0.84055 0.24603 0.0
C1219 C 0.29296 0.8834 0.25453 0.0
H1220 H 0.25411 0.85304 0.11547 0.0
H1221 H 0.23895 0.89537 0.1705 0.0
H1222 H 0.2813 0.84844 0.36451 0.0
H1223 H 0.2978 0.79585 0.34311 0.0
H1224 H 0.2463 0.1678 0.1142 0.0
H1225 H 0.21923 0.0914 0.97658 0.0
H1226 H 0.20761 0.17136 0.04322 0.0
H1227 H 0.24324 0.07627 0.05414 0.0
H1228 H 0.21314 0.11941 1.00187 0.0
H1229 H 0.2428 0.13252 0.09461 0.0
C1230 C 0.23662 0.16088 0.0948 0.0
C1231 C 0.22751 0.17271 0.08007 0.0
C1232 C 0.21952 0.10982 0.01348 0.0
C1233 C 0.22386 0.13263 0.05732 0.0
C1234 C 0.22297 0.09372 0.99904 0.0
C1235 C 0.23171 0.08131 0.01322 0.0
C1236 C 0.22516 0.11393 0.0423 0.0
C1237 C 0.23678 0.08563 0.04221 0.0
C1238 C 0.23471 0.14077 0.08359 0.0
C1239 C 0.21503 0.16289 0.05517 0.0
N1240 N 0.23358 0.10171 0.05576 0.0
N1241 N 0.21393 0.14363 0.0443 0.0
H1242 H 0.92339 0.1319 0.97812 0.0
H1243 H 0.84317 0.08603 0.11319 0.0
H1244 H 0.93705 0.1728 0.05396 0.0
H1245 H 0.84226 0.04189 0.04601 0.0
H1246 H 0.87877 0.11752 0.09369 0.0
H1247 H 0.89456 0.09853 1.00376 0.0
C1248 C 0.9206 0.13387 1.0003 0.0
C1249 C 0.93282 0.15531 0.01386 0.0
C1250 C 0.87099 0.10084 0.0835 0.0
C1251 C 0.89921 0.11699 0.04329 0.0
C1252 C 0.85069 0.08283 0.09465 0.0
C1253 C 0.83955 0.06138 0.08096 0.0
C1254 C 0.88003 0.09743 0.05832 0.0
C1255 C 0.85014 0.05818 0.05713 0.0
C1256 C 0.90401 0.11473 0.01493 0.0
C1257 C 0.92786 0.15675 0.04247 0.0
N1258 N 0.86959 0.07613 0.0463 0.0
N1259 N 0.9113 0.13788 0.05618 0.0
H1260 H 0.83847 0.73632 0.02784 0.0
H1261 H 0.92766 0.75583 0.11518 0.0
H1262 H 0.87654 0.80921 1.00958 0.0
H1263 H 0.96884 0.80259 0.04866 0.0
H1264 H 0.89414 0.75699 0.09735 0.0
H1265 H 0.87088 0.74053 0.05553 0.0
C1266 C 0.8534 0.75331 0.02999 0.0
C1267 C 0.85455 0.77244 0.01633 0.0
C1268 C 0.91057 0.76712 0.08684 0.0
C1269 C 0.89199 0.77725 0.04787 0.0
C1270 C 0.92978 0.76667 0.0971 0.0
C1271 C 0.95098 0.77872 0.08294 0.0
C1272 C 0.91258 0.77972 0.06228 0.0
C1273 C 0.95274 0.79278 0.05995 0.0
C1274 C 0.87194 0.75567 0.04586 0.0
C1275 C 0.8749 0.79385 0.01926 0.0
N1276 N 0.93363 0.79269 0.05006 0.0
N1277 N 0.89296 0.79562 0.0344 0.0
H1278 H 0.99278 0.20811 0.5076 0.0
H1279 H 0.09182 0.18166 0.4643 0.0
H1280 H 0.99771 0.15393 0.55031 0.0
H1281 H 0.10576 0.25095 0.47794 0.0
H1282 H 0.05272 0.16709 0.48387 0.0
H1283 H 0.02972 0.21984 0.48428 0.0
C1284 C 1.00144 0.19843 0.51176 0.0
C1285 C 0.99209 0.17999 0.53103 0.0
C1286 C 0.06435 0.18546 0.48228 0.0
C1287 C 0.03428 0.19319 0.50391 0.0
C1288 C 0.08652 0.19377 0.47093 0.0
C1289 C 0.10201 0.21755 0.46944 0.0
C1290 C 0.05744 0.20107 0.4913 0.0
C1291 C 0.09437 0.2325 0.47871 0.0
C1292 C 0.02257 0.20524 0.49854 0.0
C1293 C 1.0043 0.16827 0.53572 0.0
N1294 N 0.07262 0.22404 0.48897 0.0
N1295 N 0.02469 0.17496 0.52213 0.0
H1296 H 0.80708 0.8823 0.43219 0.0
H1297 H 0.8372 0.83613 0.5733 0.0
H1298 H 0.78868 0.89212 0.51651 0.0
H1299 H 0.82851 0.80191 0.49306 0.0
H1300 H 0.82653 0.86223 0.55085 0.0
H1301 H 0.82154 0.85788 0.45225 0.0
C1302 C 0.80623 0.87949 0.45486 0.0
C1303 C 0.79653 0.88923 0.47264 0.0
C1304 C 0.82707 0.8491 0.53807 0.0
C1305 C 0.8133 0.86165 0.4957 0.0
C1306 C 0.8333 0.83421 0.55086 0.0
C1307 C 0.83372 0.81663 0.53515 0.0
C1308 C 0.82143 0.84678 0.50913 0.0
C1309 C 0.82836 0.81512 0.50608 0.0
C1310 C 0.81437 0.86548 0.46626 0.0
C1311 C 0.79582 0.88489 0.50188 0.0
N1312 N 0.82246 0.82997 0.494 0.0
N1313 N 0.80414 0.87161 0.51241 0.0
H1314 H 0.11988 0.89772 0.51701 0.0
H1315 H 0.21036 0.02989 0.49105 0.0
H1316 H 0.12996 0.92663 0.43309 0.0
H1317 H 0.17524 1.00323 0.57057 0.0
H1318 H 0.18407 0.99262 0.46869 0.0
H1319 H 0.1433 0.93625 0.53636 0.0
C1320 C 0.12703 0.91221 0.50257 0.0
C1321 C 0.1229 0.90882 0.47329 0.0
C1322 C 0.18203 0.99508 0.49095 0.0
C1323 C 0.15021 0.9534 0.49556 0.0
C1324 C 0.19704 0.01634 0.50377 0.0
C1325 C 0.1951 0.01981 0.53284 0.0
C1326 C 0.16525 0.977 0.50741 0.0
C1327 C 0.17748 1.00152 0.54816 0.0
C1328 C 0.14036 0.93429 0.51372 0.0
C1329 C 0.13261 0.92841 0.45578 0.0
N1330 N 0.1635 0.98096 0.53539 0.0
N1331 N 0.14603 0.94987 0.46713 0.0
H1332 H 0.76788 0.9328 0.96984 0.0
H1333 H 0.80454 0.83656 0.98343 0.0
H1334 H 0.79493 0.91953 0.04614 0.0
H1335 H 0.75969 0.8366 0.91785 0.0
H1336 H 0.80917 0.8729 1.00125 0.0
H1337 H 0.77167 0.90251 0.94586 0.0
C1338 C 0.77461 0.92357 0.98156 0.0
C1339 C 0.78101 0.92872 1.01011 0.0
C1340 C 0.79857 0.86508 0.98272 0.0
C1341 C 0.78583 0.89445 0.98263 0.0
C1342 C 0.79607 0.84445 0.97243 0.0
C1343 C 0.78146 0.83344 0.9494 0.0
C1344 C 0.78649 0.87472 0.96974 0.0
C1345 C 0.77087 0.8444 0.93593 0.0
C1346 C 0.77694 0.90644 0.96779 0.0
C1347 C 0.79007 0.91647 0.02402 0.0
N1348 N 0.77342 0.86435 0.94647 0.0
N1349 N 0.79214 0.89989 1.01018 0.0
H1350 H 0.17222 0.97 0.97556 0.0
H1351 H 0.07825 0.83621 0.96704 0.0
H1352 H 0.17299 0.9246 0.91125 0.0
H1353 H 0.09265 0.87822 0.04199 0.0
H1354 H 0.10753 0.86996 0.94145 0.0
H1355 H 0.13652 0.93815 0.99426 0.0
C1356 C 0.16464 0.95347 0.965 0.0
C1357 C 0.17579 0.94984 0.9421 0.0
C1358 C 0.10405 0.87173 0.96344 0.0
C1359 C 0.13513 0.91333 0.96358 0.0
C1360 C 0.0875 0.85246 0.97814 0.0
C1361 C 0.08295 0.85427 1.0068 0.0
C1362 C 0.11602 0.89298 0.97743 0.0
C1363 C 0.09521 0.87595 0.01985 0.0
C1364 C 0.14435 0.93526 0.97581 0.0
C1365 C 0.16512 0.92807 0.92919 0.0
N1366 N 0.11117 0.89439 1.0051 0.0
N1367 N 0.14549 0.91053 0.94032 0.0
H1368 H 0.17872 0.2711 0.98724 0.0
H1369 H 0.04543 0.20328 0.96609 0.0
H1370 H 0.1393 0.1987 1.00776 0.0
H1371 H 0.0905 0.25901 0.91067 0.0
H1372 H 0.07879 0.20081 0.98269 0.0
H1373 H 0.14614 0.26726 0.96009 0.0
C1374 C 0.16343 0.25431 0.98577 0.0
C1375 C 0.16184 0.23527 1.00022 0.0
C1376 C 0.08121 0.21325 0.96649 0.0
C1377 C 0.12413 0.23098 0.96969 0.0
C1378 C 0.0622 0.21465 0.957 0.0
C1379 C 0.06522 0.23157 0.93727 0.0
C1380 C 0.1033 0.22915 0.95652 0.0
C1381 C 0.08736 0.24585 0.92615 0.0
C1382 C 0.14476 0.25217 0.97031 0.0
C1383 C 0.14121 0.21406 0.99777 0.0
N1384 N 0.10561 0.24461 0.93634 0.0
N1385 N 0.12304 0.21257 0.9832 0.0
H1386 H 1.00592 0.83489 0.45022 0.0
H1387 H 0.92914 0.80418 0.59116 0.0
H1388 H 0.03137 0.82589 0.53034 0.0
H1389 H 0.90124 0.78588 0.50672 0.0
H1390 H 0.96814 0.81877 0.57123 0.0
H1391 H 0.96908 0.8241 0.47267 0.0
C1392 C 1.00391 0.8309 0.47263 0.0
C1393 C 0.02192 0.83127 0.4883 0.0
C1394 C 0.95341 0.8116 0.55717 0.0
C1395 C 0.97937 0.81883 0.51434 0.0
C1396 C 0.93119 0.80338 0.5685 0.0
C1397 C 0.91179 0.79366 0.55065 0.0
C1398 C 0.95628 0.8106 0.52773 0.0
C1399 C 0.91555 0.79302 0.52141 0.0
C1400 C 0.98275 0.8246 0.48543 0.0
C1401 C 0.01802 0.82579 0.51735 0.0
N1402 N 0.93721 0.80143 0.51096 0.0
N1403 N 0.99721 0.81982 0.52943 0.0
H1404 H 0.22688 0.11823 0.50579 0.0
H1405 H 0.18402 0.20785 0.53224 0.0
H1406 H 0.20677 0.12693 0.58964 0.0
H1407 H 0.17707 0.17377 0.4523 0.0
H1408 H 0.19491 0.18144 0.55459 0.0
H1409 H 0.21193 0.14184 0.48666 0.0
C1410 C 0.21931 0.12512 0.52027 0.0
C1411 C 0.21816 0.12053 0.54946 0.0
C1412 C 0.19075 0.17966 0.53223 0.0
C1413 C 0.20102 0.14808 0.52743 0.0
C1414 C 0.18455 0.19473 0.51943 0.0
C1415 C 0.17961 0.19314 0.49024 0.0
C1416 C 0.19247 0.16316 0.51565 0.0
C1417 C 0.18067 0.17577 0.4748 0.0
C1418 C 0.21065 0.13857 0.50925 0.0
C1419 C 0.20796 0.12993 0.56701 0.0
N1420 N 0.18719 0.16175 0.48757 0.0
N1421 N 0.2 0.14347 0.55578 0.0
H1422 H 0.88552 0.08293 0.58937 0.0
H1423 H 0.83937 0.00689 0.44806 0.0
H1424 H 0.89403 0.11144 0.50541 0.0
H1425 H 0.80551 0.98101 0.52844 0.0
H1426 H 0.86519 0.04379 0.47054 0.0
H1427 H 0.86141 0.04409 0.56911 0.0
C1428 C 0.88248 0.08105 0.56674 0.0
C1429 C 0.89176 0.10056 0.54913 0.0
C1430 C 0.85221 0.03 0.48334 0.0
C1431 C 0.86457 0.05624 0.52583 0.0
C1432 C 0.83749 0.00882 0.47053 0.0
C1433 C 0.82009 0.99069 0.48628 0.0
C1434 C 0.8499 0.03323 0.51232 0.0
C1435 C 0.81858 0.99446 0.51539 0.0
C1436 C 0.86865 0.05891 0.55522 0.0
C1437 C 0.88715 0.09702 0.51992 0.0
N1438 N 0.83328 0.01526 0.52747 0.0
N1439 N 0.87407 0.07543 0.50926 0.0
H1440 H 0.87465 0.50285 0.38105 0.0
H1441 H 0.91544 0.40958 0.3888 0.0
H1442 H 0.92141 0.50421 0.44494 0.0
H1443 H 0.88831 0.42464 0.31389 0.0
H1444 H 0.91082 0.4387 0.41465 0.0
H1445 H 0.87115 0.46734 0.3623 0.0
C1446 C 0.8838 0.49544 0.39152 0.0
C1447 C 0.89865 0.50671 0.41428 0.0
C1448 C 0.90571 0.43538 0.39261 0.0
C1449 C 0.89493 0.46629 0.39273 0.0
C1450 C 0.90853 0.41894 0.37777 0.0
C1451 C 0.90228 0.41459 0.34906 0.0
C1452 C 0.89643 0.4474 0.37871 0.0
C1453 C 0.893 0.427 0.33607 0.0
C1454 C 0.88193 0.47526 0.38067 0.0
C1455 C 0.91001 0.49624 0.42709 0.0
N1456 N 0.89039 0.44282 0.35097 0.0
N1457 N 0.90813 0.47672 0.41591 0.0
H1458 H 0.58792 0.46568 0.30966 0.0
H1459 H 0.51035 0.41771 0.4466 0.0
H1460 H 0.60272 0.50575 0.38639 0.0
H1461 H 0.50874 0.37457 0.37772 0.0
H1462 H 0.54547 0.44963 0.42679 0.0
H1463 H 0.55969 0.43195 0.3353 0.0
C1464 C 0.58548 0.46738 0.33202 0.0
C1465 C 0.59789 0.48868 0.34587 0.0
C1466 C 0.53767 0.43307 0.4163 0.0
C1467 C 0.56501 0.44994 0.37534 0.0
C1468 C 0.51765 0.41481 0.42763 0.0
C1469 C 0.50642 0.39353 0.41354 0.0
C1470 C 0.54631 0.43009 0.39054 0.0
C1471 C 0.51671 0.39071 0.38916 0.0
C1472 C 0.56925 0.44805 0.34666 0.0
C1473 C 0.59338 0.48981 0.37472 0.0
N1474 N 0.53587 0.40892 0.37817 0.0
N1475 N 0.57718 0.47073 0.38847 0.0
H1476 H 0.5031 0.07304 0.36753 0.0
H1477 H 0.63645 0.14012 0.38895 0.0
H1478 H 0.543 0.14545 0.34723 0.0
H1479 H 0.59088 0.08336 0.44277 0.0
H1480 H 0.60328 0.1431 0.37272 0.0
H1481 H 0.53555 0.07647 0.39445 0.0
C1482 C 0.51848 0.08976 0.36902 0.0
C1483 C 0.52021 0.10893 0.35474 0.0
C1484 C 0.60071 0.13032 0.38849 0.0
C1485 C 0.55781 0.11274 0.38501 0.0
C1486 C 0.6196 0.12862 0.39777 0.0
C1487 C 0.61638 0.11124 0.41689 0.0
C1488 C 0.57854 0.11429 0.39809 0.0
C1489 C 0.59417 0.09683 0.42771 0.0
C1490 C 0.53709 0.09167 0.38434 0.0
C1491 C 0.54097 0.13002 0.35715 0.0
N1492 N 0.57604 0.0984 0.41776 0.0
N1493 N 0.55908 0.13129 0.37162 0.0
H1494 H 0.75163 0.53819 0.76545 0.0
H1495 H 0.67414 0.50718 0.90567 0.0
H1496 H 0.77919 0.55737 0.84994 0.0
H1497 H 0.64888 0.51564 0.82511 0.0
H1498 H 0.71123 0.51839 0.88362 0.0
H1499 H 0.71251 0.52327 0.78509 0.0
C1500 C 0.74948 0.53913 0.78806 0.0
C1501 C 0.7688 0.54918 0.80602 0.0
C1502 C 0.69755 0.51767 0.87068 0.0
C1503 C 0.72419 0.53186 0.8286 0.0
C1504 C 0.67625 0.51114 0.88324 0.0
C1505 C 0.65823 0.5105 0.86732 0.0
C1506 C 0.70102 0.5234 0.84177 0.0
C1507 C 0.66224 0.51595 0.83828 0.0
C1508 C 0.72719 0.53071 0.79922 0.0
C1509 C 0.76493 0.54997 0.83518 0.0
N1510 N 0.68317 0.52214 0.82643 0.0
N1511 N 0.7432 0.54137 0.84548 0.0
H1512 H 0.50476 0.16887 0.90575 0.0
H1513 H 0.47328 0.21454 0.76533 0.0
H1514 H 0.49566 0.13444 0.82558 0.0
H1515 H 0.45439 0.22332 0.84984 0.0
H1516 H 0.48832 0.19049 0.78505 0.0
H1517 H 0.4937 0.19473 0.88346 0.0
C1518 C 0.5007 0.16687 0.88336 0.0
C1519 C 0.5011 0.14928 0.86763 0.0
C1520 C 0.48092 0.19779 0.79917 0.0
C1521 C 0.48836 0.17915 0.8418 0.0
C1522 C 0.47244 0.21158 0.78797 0.0
C1523 C 0.46243 0.2209 0.80591 0.0
C1524 C 0.47987 0.19379 0.82856 0.0
C1525 C 0.46175 0.2164 0.8351 0.0
C1526 C 0.49425 0.18162 0.87066 0.0
C1527 C 0.49554 0.14765 0.83861 0.0
N1528 N 0.47041 0.20335 0.84543 0.0
N1529 N 0.48941 0.16237 0.82663 0.0
H1530 H 0.79732 0.26043 0.76571 0.0
H1531 H 0.84247 0.3374 0.9064 0.0
H1532 H 0.7874 0.2327 0.85028 0.0
H1533 H 0.87728 0.36258 0.82639 0.0
H1534 H 0.81652 0.30055 0.88403 0.0
H1535 H 0.82143 0.29943 0.78557 0.0
C1536 C 0.80004 0.26252 0.78839 0.0
C1537 C 0.79038 0.24319 0.80631 0.0
C1538 C 0.82974 0.31417 0.87128 0.0
C1539 C 0.81758 0.28766 0.82912 0.0
C1540 C 0.84454 0.33533 0.88403 0.0
C1541 C 0.86225 0.35324 0.86836 0.0
C1542 C 0.83229 0.31073 0.84244 0.0
C1543 C 0.86397 0.34929 0.83937 0.0
C1544 C 0.81387 0.28474 0.79967 0.0
C1545 C 0.79459 0.24699 0.83555 0.0
N1546 N 0.8492 0.32849 0.82734 0.0
N1547 N 0.80769 0.26864 0.84596 0.0
H1548 H 0.47467 0.17298 0.30998 0.0
H1549 H 0.43509 0.26718 0.3006 0.0
H1550 H 0.42996 0.17318 0.2443 0.0
H1551 H 0.46153 0.25211 0.37612 0.0
H1552 H 0.43993 0.23809 0.27508 0.0
H1553 H 0.47827 0.20854 0.32883 0.0
C1554 C 0.46604 0.18077 0.29913 0.0
C1555 C 0.4517 0.16992 0.27582 0.0
C1556 C 0.44484 0.24137 0.29719 0.0
C1557 C 0.4555 0.21036 0.29748 0.0
C1558 C 0.44189 0.25781 0.31184 0.0
C1559 C 0.44786 0.26215 0.34062 0.0
C1560 C 0.45396 0.22931 0.31136 0.0
C1561 C 0.45703 0.24973 0.35388 0.0
C1562 C 0.46794 0.20095 0.31005 0.0
C1563 C 0.44094 0.18082 0.26258 0.0
N1564 N 0.45974 0.23389 0.33917 0.0
N1565 N 0.44284 0.20032 0.2738 0.0
H1566 H 0.75891 0.2123 0.37842 0.0
H1567 H 0.83822 0.25931 0.24263 0.0
H1568 H 0.74468 0.17235 0.30166 0.0
H1569 H 0.84063 0.30274 0.31161 0.0
H1570 H 0.80252 0.22791 0.26202 0.0
H1571 H 0.78773 0.24595 0.35314 0.0
C1572 C 0.76157 0.21061 0.35613 0.0
C1573 C 0.74922 0.18933 0.3422 0.0
C1574 C 0.81064 0.24443 0.27264 0.0
C1575 C 0.78279 0.22796 0.31317 0.0
C1576 C 0.831 0.26239 0.26155 0.0
C1577 C 0.84259 0.28359 0.27576 0.0
C1578 C 0.802 0.24761 0.29828 0.0
C1579 C 0.83238 0.28664 0.30007 0.0
C1580 C 0.77815 0.2299 0.3417 0.0
C1581 C 0.75399 0.18824 0.31343 0.0
N1582 N 0.81286 0.26872 0.31083 0.0
N1583 N 0.77053 0.20725 0.29992 0.0
H1584 H 0.70936 0.53875 0.3086 0.0
H1585 H 0.84277 0.57656 0.30004 0.0
H1586 H 0.75487 0.58324 0.24317 0.0
H1587 H 0.80076 0.55034 0.37525 0.0
H1588 H 0.80912 0.57218 0.27425 0.0
H1589 H 0.74093 0.53456 0.32758 0.0
C1590 C 0.72584 0.54725 0.29786 0.0
C1591 C 0.7296 0.56168 0.27456 0.0
C1592 C 0.80732 0.5672 0.29634 0.0
C1593 C 0.76582 0.55717 0.29637 0.0
C1594 C 0.82654 0.56988 0.31115 0.0
C1595 C 0.82469 0.56388 0.33994 0.0
C1596 C 0.78609 0.55832 0.31036 0.0
C1597 C 0.80304 0.55487 0.35301 0.0
C1598 C 0.7439 0.54499 0.30884 0.0
C1599 C 0.75131 0.57219 0.26142 0.0
N1600 N 0.78466 0.55243 0.33816 0.0
N1601 N 0.76872 0.56996 0.27273 0.0
H1602 H 0.67315 0.16805 0.78309 0.0
H1603 H 0.59606 0.13716 0.92363 0.0
H1604 H 0.69881 0.16 0.86357 0.0
H1605 H 0.56824 0.11727 0.83935 0.0
H1606 H 0.63514 0.15221 0.90383 0.0
H1607 H 0.63608 0.15667 0.80531 0.0
C1608 C 0.67114 0.16416 0.80553 0.0
C1609 C 0.68926 0.16495 0.82138 0.0
C1610 C 0.62041 0.14457 0.88977 0.0
C1611 C 0.64649 0.15186 0.84713 0.0
C1612 C 0.59814 0.13608 0.90103 0.0
C1613 C 0.57875 0.1258 0.88319 0.0
C1614 C 0.62333 0.14328 0.86041 0.0
C1615 C 0.58255 0.12484 0.85403 0.0
C1616 C 0.64985 0.15752 0.81819 0.0
C1617 C 0.68537 0.15957 0.85045 0.0
N1618 N 0.60426 0.13353 0.84363 0.0
N1619 N 0.66445 0.15328 0.86239 0.0
H1620 H 0.85169 0.5414 0.86406 0.0
H1621 H 0.89389 0.45111 0.83862 0.0
H1622 H 0.84421 0.50693 0.7843 0.0
H1623 H 0.87461 0.46126 0.92228 0.0
H1624 H 0.87888 0.47456 0.81896 0.0
H1625 H 0.86265 0.51511 0.88644 0.0
C1626 C 0.85215 0.52822 0.85128 0.0
C1627 C 0.84699 0.52646 0.82215 0.0
C1628 C 0.87779 0.47163 0.84161 0.0
C1629 C 0.85994 0.49658 0.84763 0.0
C1630 C 0.88648 0.45829 0.85294 0.0
C1631 C 0.88559 0.45417 0.88224 0.0
C1632 C 0.86842 0.4815 0.85961 0.0
C1633 C 0.8756 0.46389 0.89958 0.0
C1634 C 0.85838 0.51321 0.86412 0.0
C1635 C 0.84795 0.50901 0.80676 0.0
N1636 N 0.86763 0.47732 0.88806 0.0
N1637 N 0.85452 0.49502 0.81957 0.0
H1638 H 0.56135 0.44308 0.83745 0.0
H1639 H 0.46887 0.3115 0.86381 0.0
H1640 H 0.54928 0.41457 0.92175 0.0
H1641 H 0.50466 0.33748 0.78451 0.0
H1642 H 0.49539 0.34873 0.88607 0.0
H1643 H 0.53776 0.40453 0.81823 0.0
C1644 C 0.55374 0.42866 0.852 0.0
C1645 C 0.55734 0.43217 0.88134 0.0
C1646 C 0.49752 0.34613 0.86388 0.0
C1647 C 0.52983 0.38758 0.85923 0.0
C1648 C 0.48237 0.3249 0.85112 0.0
C1649 C 0.48443 0.32125 0.82214 0.0
C1650 C 0.51459 0.36401 0.84746 0.0
C1651 C 0.50231 0.33934 0.80685 0.0
C1652 C 0.5403 0.40658 0.84094 0.0
C1653 C 0.54706 0.41268 0.89901 0.0
N1654 N 0.51643 0.35988 0.81957 0.0
N1655 N 0.53355 0.39122 0.88772 0.0
H1656 H 0.5449 0.83905 0.70716 0.0
H1657 H 0.58104 0.74235 0.71924 0.0
H1658 H 0.59187 0.83997 0.77039 0.0
H1659 H 0.55217 0.75473 0.64398 0.0
H1660 H 0.57847 0.77336 0.7431 0.0
H1661 H 0.53988 0.80258 0.68927 0.0
C1662 C 0.55383 0.83138 0.71759 0.0
C1663 C 0.56905 0.84266 0.74004 0.0
C1664 C 0.57253 0.76909 0.72143 0.0
C1665 C 0.5635 0.80116 0.71964 0.0
C1666 C 0.57414 0.75152 0.70772 0.0
C1667 C 0.56691 0.74592 0.67947 0.0
C1668 C 0.56351 0.78106 0.70686 0.0
C1669 C 0.55766 0.75813 0.66586 0.0
C1670 C 0.55107 0.81067 0.70727 0.0
C1671 C 0.58018 0.83196 0.75279 0.0
N1672 N 0.5563 0.77514 0.67964 0.0
N1673 N 0.57733 0.81188 0.74227 0.0
H1674 H 0.17523 0.70688 0.71328 0.0
H1675 H 0.26953 0.8406 0.72093 0.0
H1676 H 0.17555 0.7522 0.77848 0.0
H1677 H 0.25317 0.79871 0.64558 0.0
H1678 H 0.2406 0.80689 0.74696 0.0
H1679 H 0.2106 0.73876 0.69393 0.0
C1680 C 0.183 0.72339 0.72391 0.0
C1681 C 0.17223 0.727 0.74723 0.0
C1682 C 0.24357 0.80514 0.72478 0.0
C1683 C 0.21247 0.76355 0.72501 0.0
C1684 C 0.25991 0.8244 0.70983 0.0
C1685 C 0.26384 0.82257 0.68095 0.0
C1686 C 0.23124 0.78392 0.71079 0.0
C1687 C 0.25111 0.80096 0.66788 0.0
C1688 C 0.20308 0.74162 0.71272 0.0
C1689 C 0.18313 0.74875 0.76021 0.0
N1690 N 0.23541 0.78254 0.68287 0.0
N1691 N 0.20253 0.76632 0.74871 0.0
H1692 H 0.21441 0.45816 0.64392 0.0
H1693 H 0.26176 0.42757 0.7805 0.0
H1694 H 0.17395 0.43221 0.72031 0.0
H1695 H 0.30541 0.46985 0.71241 0.0
H1696 H 0.22994 0.43096 0.7607 0.0
H1697 H 0.24811 0.46366 0.6697 0.0
C1698 C 0.21261 0.45387 0.66623 0.0
C1699 C 0.19121 0.44478 0.67994 0.0
C1700 C 0.24659 0.43984 0.75039 0.0
C1701 C 0.22992 0.45064 0.70956 0.0
C1702 C 0.26479 0.43799 0.76171 0.0
C1703 C 0.28619 0.4482 0.74784 0.0
C1704 C 0.24973 0.45173 0.72483 0.0
C1705 C 0.28918 0.46158 0.7237 0.0
C1706 C 0.23194 0.45698 0.68095 0.0
C1707 C 0.18997 0.43897 0.70873 0.0
N1708 N 0.27102 0.46262 0.71267 0.0
N1709 N 0.20904 0.44185 0.72255 0.0
H1710 H 0.31522 0.84918 0.15737 0.0
H1711 H 0.44766 0.89081 0.18304 0.0
H1712 H 0.34215 0.84203 0.23732 0.0
H1713 H 0.41828 0.87084 0.09948 0.0
H1714 H 0.4092 0.87626 0.20259 0.0
H1715 H 0.35246 0.85982 0.13501 0.0
C1716 C 0.32883 0.84965 0.1702 0.0
C1717 C 0.32541 0.84466 0.19937 0.0
C1718 C 0.41105 0.87492 0.17998 0.0
C1719 C 0.36824 0.85724 0.17393 0.0
C1720 C 0.43309 0.88334 0.16871 0.0
C1721 C 0.43635 0.88211 0.13948 0.0
C1722 C 0.39181 0.86549 0.16198 0.0
C1723 C 0.41663 0.87207 0.12214 0.0
C1724 C 0.35008 0.8557 0.15738 0.0
C1725 C 0.3438 0.84563 0.21482 0.0
N1726 N 0.39522 0.86437 0.13359 0.0
N1727 N 0.36435 0.85201 0.20204 0.0
H1728 H 0.12071 0.55716 0.18373 0.0
H1729 H 0.16432 0.46811 0.15696 0.0
H1730 H 0.1409 0.54858 0.09987 0.0
H1731 H 0.171 0.50193 0.23704 0.0
H1732 H 0.1531 0.49432 0.13476 0.0
H1733 H 0.13578 0.53362 0.20283 0.0
C1734 C 0.12833 0.55031 0.16924 0.0
C1735 C 0.12947 0.55492 0.14006 0.0
C1736 C 0.15726 0.49608 0.15712 0.0
C1737 C 0.14673 0.52746 0.16205 0.0
C1738 C 0.16365 0.48112 0.16984 0.0
C1739 C 0.16864 0.48271 0.19901 0.0
C1740 C 0.1554 0.51246 0.17378 0.0
C1741 C 0.16739 0.49995 0.21454 0.0
C1742 C 0.13705 0.5369 0.18025 0.0
C1743 C 0.13972 0.54557 0.12249 0.0
N1744 N 0.16069 0.51387 0.20185 0.0
N1745 N 0.14774 0.53208 0.13371 0.0
H1746 H 0.49838 0.68129 0.21929 0.0
H1747 H 0.48898 0.5729 0.14361 0.0
H1748 H 0.55681 0.68621 0.17468 0.0
H1749 H 0.43382 0.58758 0.13262 0.0
H1750 H 0.51346 0.61196 0.16217 0.0
H1751 H 0.47334 0.64462 0.19478 0.0
C1752 C 0.50591 0.67477 0.20421 0.0
C1753 C 0.52975 0.68695 0.19895 0.0
C1754 C 0.49606 0.6067 0.15549 0.0
C1755 C 0.5013 0.64474 0.17155 0.0
C1756 C 0.48208 0.58443 0.14494 0.0
C1757 C 0.4594 0.57706 0.13632 0.0
C1758 C 0.4871 0.62154 0.15848 0.0
C1759 C 0.4513 0.59268 0.1387 0.0
C1760 C 0.49161 0.65391 0.19021 0.0
C1761 C 0.53855 0.67757 0.17925 0.0
N1762 N 0.46499 0.61407 0.15001 0.0
N1763 N 0.52444 0.65691 0.16668 0.0
H1764 H 0.12682 0.58448 0.71365 0.0
H1765 H 0.09795 0.50779 0.57604 0.0
H1766 H 0.10219 0.59985 0.63677 0.0
H1767 H 0.13872 0.50533 0.64529 0.0
H1768 H 0.10119 0.54284 0.5961 0.0
H1769 H 0.13238 0.5563 0.68793 0.0
C1770 C 0.12282 0.58217 0.69125 0.0
C1771 C 0.11409 0.59472 0.67738 0.0
C1772 C 0.10977 0.53486 0.60662 0.0
C1773 C 0.12002 0.56191 0.64782 0.0
C1774 C 0.108 0.51489 0.59515 0.0
C1775 C 0.11782 0.50345 0.60926 0.0
C1776 C 0.12119 0.54325 0.63254 0.0
C1777 C 0.13074 0.51348 0.63382 0.0
C1778 C 0.12597 0.56598 0.67657 0.0
C1779 C 0.10866 0.59039 0.64846 0.0
N1780 N 0.13171 0.53261 0.64495 0.0
N1781 N 0.11158 0.57423 0.63467 0.0
H1782 H 0.50086 0.6323 0.63333 0.0
H1783 H 0.43481 0.4991 0.65642 0.0
H1784 H 0.51117 0.58636 0.5791 0.0
H1785 H 0.4025 0.5392 0.67699 0.0
H1786 H 0.46372 0.53142 0.62918 0.0
H1787 H 0.46514 0.59926 0.65075 0.0
C1788 C 0.49542 0.61539 0.6247 0.0
C1789 C 0.50918 0.61205 0.60503 0.0
C1790 C 0.45014 0.53302 0.63944 0.0
C1791 C 0.4688 0.57435 0.6252 0.0
C1792 C 0.43349 0.5145 0.65495 0.0
C1793 C 0.41613 0.51631 0.66936 0.0
C1794 C 0.44979 0.55375 0.63871 0.0
C1795 C 0.41584 0.53709 0.66697 0.0
C1796 C 0.47507 0.59657 0.63465 0.0
C1797 C 0.50126 0.58975 0.59449 0.0
N1798 N 0.43261 0.55511 0.6523 0.0
N1799 N 0.48183 0.5717 0.6051 0.0
H1800 H 0.50889 0.91108 0.63785 0.0
H1801 H 0.3751 0.87188 0.64462 0.0
H1802 H 0.46669 0.88451 0.71285 0.0
H1803 H 0.42084 0.91534 0.57869 0.0
H1804 H 0.4067 0.8682 0.66466 0.0
H1805 H 0.47514 0.90579 0.61163 0.0
C1806 C 0.49259 0.90418 0.64885 0.0
C1807 C 0.49073 0.89842 0.67772 0.0
C1808 C 0.40971 0.87827 0.64557 0.0
C1809 C 0.45197 0.89183 0.64761 0.0
C1810 C 0.39163 0.88022 0.63398 0.0
C1811 C 0.39546 0.89424 0.61021 0.0
C1812 C 0.43168 0.89032 0.63322 0.0
C1813 C 0.41723 0.90461 0.59727 0.0
C1814 C 0.4733 0.90097 0.63378 0.0
C1815 C 0.46897 0.88899 0.6906 0.0
N1816 N 0.43462 0.90266 0.60915 0.0
N1817 N 0.45049 0.88609 0.67549 0.0
H1818 H 0.24371 0.42531 0.21438 0.0
H1819 H 0.35162 0.52368 0.13722 0.0
H1820 H 0.25701 0.49488 0.22188 0.0
H1821 H 0.35715 0.47141 0.18385 0.0
H1822 H 0.31485 0.51216 0.16147 0.0
H1823 H 0.28304 0.44009 0.19655 0.0
C1824 C 0.25501 0.44373 0.21247 0.0
C1825 C 0.24718 0.45891 0.21987 0.0
C1826 C 0.3243 0.50343 0.16655 0.0
C1827 C 0.29196 0.47589 0.19852 0.0
C1828 C 0.34523 0.50993 0.15271 0.0
C1829 C 0.35759 0.49857 0.15858 0.0
C1830 C 0.31526 0.48493 0.1857 0.0
C1831 C 0.34837 0.48079 0.17879 0.0
C1832 C 0.27743 0.45213 0.20233 0.0
C1833 C 0.26249 0.48263 0.21675 0.0
N1834 N 0.32763 0.47427 0.19122 0.0
N1835 N 0.28404 0.4904 0.20585 0.0
H1836 H 0.58696 0.81832 0.21348 0.0
H1837 H 0.48887 0.8295 0.13768 0.0
H1838 H 0.51676 0.76388 0.22408 0.0
H1839 H 0.54336 0.88751 0.18161 0.0
H1840 H 0.49995 0.80404 0.1622 0.0
H1841 H 0.57295 0.84322 0.19476 0.0
C1842 C 0.56857 0.81167 0.21203 0.0
C1843 C 0.55299 0.78907 0.22058 0.0
C1844 C 0.50928 0.82232 0.16661 0.0
C1845 C 0.53686 0.81726 0.19824 0.0
C1846 C 0.50304 0.83686 0.15259 0.0
C1847 C 0.51514 0.8607 0.15766 0.0
C1848 C 0.52824 0.83176 0.18511 0.0
C1849 C 0.53342 0.86926 0.17718 0.0
C1850 C 0.56061 0.82589 0.20138 0.0
C1851 C 0.52933 0.78129 0.21804 0.0
N1852 N 0.53963 0.8549 0.18979 0.0
N1853 N 0.52196 0.79523 0.20666 0.0
H1854 H 0.21854 0.7496 0.25663 0.0
H1855 H 0.17227 0.67209 0.11661 0.0
H1856 H 0.22641 0.77705 0.17215 0.0
H1857 H 0.13824 0.64683 0.19704 0.0
H1858 H 0.19803 0.70912 0.13868 0.0
H1859 H 0.19442 0.71048 0.2371 0.0
C1860 C 0.21535 0.74742 0.23404 0.0
C1861 C 0.22446 0.76671 0.21606 0.0
C1862 C 0.18503 0.69545 0.15159 0.0
C1863 C 0.19727 0.7221 0.1936 0.0
C1864 C 0.17033 0.67418 0.13902 0.0
C1865 C 0.15289 0.65618 0.15488 0.0
C1866 C 0.18266 0.69893 0.18047 0.0
C1867 C 0.15134 0.66018 0.1839 0.0
C1868 C 0.20152 0.72513 0.22294 0.0
C1869 C 0.21967 0.76281 0.18693 0.0
N1870 N 0.16602 0.68109 0.19577 0.0
N1871 N 0.20661 0.74108 0.17669 0.0
H1872 H 0.32317 0.21312 0.21296 0.0
H1873 H 0.35255 0.12248 0.14299 0.0
H1874 H 0.33734 0.21197 0.12398 0.0
H1875 H 0.33694 0.12282 0.23161 0.0
H1876 H 0.34457 0.15379 0.13488 0.0
H1877 H 0.32925 0.18053 0.22052 0.0
C1878 C 0.32824 0.2064 0.19521 0.0
C1879 C 0.32972 0.21514 0.16784 0.0
C1880 C 0.3425 0.14674 0.15602 0.0
C1881 C 0.33588 0.17753 0.17602 0.0
C1882 C 0.34668 0.12866 0.16052 0.0
C1883 C 0.34556 0.12027 0.188 0.0
C1884 C 0.33729 0.15643 0.17923 0.0
C1885 C 0.33791 0.12877 0.21006 0.0
C1886 C 0.33134 0.18761 0.19941 0.0
C1887 C 0.33625 0.20586 0.14547 0.0
N1888 N 0.33445 0.14672 0.20529 0.0
N1889 N 0.3388 0.18732 0.15 0.0
H1890 H 0.79217 0.11263 0.21397 0.0
H1891 H 0.88747 0.23018 0.14339 0.0
H1892 H 0.79529 0.12732 0.12458 0.0
H1893 H 0.88422 0.21555 0.23282 0.0
H1894 H 0.85454 0.19172 0.13568 0.0
H1895 H 0.82474 0.15128 0.22178 0.0
C1896 C 0.79924 0.12431 0.19617 0.0
C1897 C 0.79121 0.11682 0.16862 0.0
C1898 C 0.86126 0.1968 0.15694 0.0
C1899 C 0.82882 0.16049 0.1771 0.0
C1900 C 0.88026 0.21855 0.16123 0.0
C1901 C 0.88842 0.226 0.18876 0.0
C1902 C 0.85042 0.18255 0.18038 0.0
C1903 C 0.87854 0.2104 0.21123 0.0
C1904 C 0.81805 0.14618 0.20052 0.0
C1905 C 0.80091 0.13249 0.14619 0.0
N1906 N 0.85978 0.18949 0.2066 0.0
N1907 N 0.81951 0.15351 0.15086 0.0
H1908 H 0.7979 0.673 0.23219 0.0
H1909 H 0.88624 0.67131 0.12051 0.0
H1910 H 0.78315 0.65977 0.14297 0.0
H1911 H 0.89945 0.68154 0.21033 0.0
H1912 H 0.84793 0.66582 0.12837 0.0
H1913 H 0.83639 0.67912 0.22385 0.0
C1914 C 0.80307 0.67224 0.21064 0.0
C1915 C 0.78731 0.6657 0.18822 0.0
C1916 C 0.85905 0.66891 0.14644 0.0
C1917 C 0.83087 0.6716 0.17877 0.0
C1918 C 0.88075 0.67154 0.14204 0.0
C1919 C 0.89603 0.67699 0.16484 0.0
C1920 C 0.85269 0.67182 0.17378 0.0
C1921 C 0.88818 0.67752 0.1922 0.0
C1922 C 0.82488 0.67522 0.206 0.0
C1923 C 0.7948 0.66459 0.16083 0.0
N1924 N 0.86712 0.67533 0.19589 0.0
N1925 N 0.81598 0.66714 0.15691 0.0
H1926 H 0.16431 0.34926 0.26307 0.0
H1927 H 0.18558 0.32726 0.42566 0.0
H1928 H 0.19086 0.40201 0.32742 0.0
H1929 H 0.15891 0.2745 0.36132 0.0
H1930 H 0.18746 0.35495 0.39008 0.0
H1931 H 0.16256 0.32162 0.29862 0.0
C1932 C 0.16993 0.35509 0.28452 0.0
C1933 C 0.17776 0.37807 0.29208 0.0
C1934 C 0.18113 0.33727 0.38381 0.0
C1935 C 0.17562 0.34646 0.3331 0.0
C1936 C 0.17998 0.32144 0.40421 0.0
C1937 C 0.17206 0.29844 0.39666 0.0
C1938 C 0.17434 0.3301 0.35561 0.0
C1939 C 0.16516 0.292 0.36832 0.0
C1940 C 0.16884 0.33929 0.3049 0.0
C1941 C 0.18468 0.38453 0.32041 0.0
N1942 N 0.16649 0.30765 0.34898 0.0
N1943 N 0.18341 0.36889 0.33975 0.0
H1944 H 0.66045 0.8158 0.26524 0.0
H1945 H 0.68629 0.85981 0.42727 0.0
H1946 H 0.60947 0.78764 0.33167 0.0
H1947 H 0.73718 0.88552 0.3606 0.0
H1948 H 0.65773 0.8332 0.39294 0.0
H1949 H 0.6886 0.84194 0.29999 0.0
C1950 C 0.65511 0.81519 0.28704 0.0
C1951 C 0.63248 0.79946 0.29538 0.0
C1952 C 0.6752 0.84464 0.38591 0.0
C1953 C 0.66475 0.82931 0.33554 0.0
C1954 C 0.69153 0.85977 0.40557 0.0
C1955 C 0.71426 0.87499 0.39698 0.0
C1956 C 0.68159 0.84474 0.35742 0.0
C1957 C 0.71993 0.87419 0.3684 0.0
C1958 C 0.67122 0.83008 0.30696 0.0
C1959 C 0.62667 0.79945 0.32411 0.0
N1960 N 0.7038 0.85947 0.34979 0.0
N1961 N 0.64263 0.81405 0.34304 0.0
H1962 H 0.19598 0.84894 0.26331 0.0
H1963 H 0.15153 0.82656 0.42557 0.0
H1964 H 0.22156 0.82165 0.32752 0.0
H1965 H 0.12642 0.85437 0.36143 0.0
H1966 H 0.17756 0.82483 0.3901 0.0
H1967 H 0.16998 0.85066 0.29882 0.0
C1968 C 0.19604 0.84315 0.28471 0.0
C1969 C 0.21105 0.83513 0.29224 0.0
C1970 C 0.16638 0.83138 0.38386 0.0
C1971 C 0.18145 0.83724 0.33323 0.0
C1972 C 0.15158 0.83246 0.4042 0.0
C1973 C 0.13669 0.84064 0.39667 0.0
C1974 C 0.16631 0.83849 0.35574 0.0
C1975 C 0.1375 0.8479 0.36843 0.0
C1976 C 0.18126 0.84422 0.30507 0.0
C1977 C 0.21038 0.82799 0.32053 0.0
N1978 N 0.15191 0.84662 0.34914 0.0
N1979 N 0.19596 0.82926 0.33984 0.0
H1980 H 0.64883 0.77638 0.87936 0.0
H1981 H 0.70109 0.90098 0.80955 0.0
H1982 H 0.71207 0.80915 0.83143 0.0
H1983 H 0.63826 0.86833 0.85831 0.0
H1984 H 0.70637 0.8681 0.81894 0.0
H1985 H 0.64353 0.8092 0.86961 0.0
C1986 C 0.66117 0.79017 0.86597 0.0
C1987 C 0.68094 0.7902 0.85628 0.0
C1988 C 0.69162 0.8683 0.82797 0.0
C1989 C 0.67556 0.82802 0.84598 0.0
C1990 C 0.68884 0.88721 0.82301 0.0
C1991 C 0.66918 0.88725 0.83306 0.0
C1992 C 0.67457 0.84937 0.843 0.0
C1993 C 0.65374 0.86903 0.85033 0.0
C1994 C 0.65838 0.80905 0.86083 0.0
C1995 C 0.69651 0.80843 0.83914 0.0
N1996 N 0.65657 0.85061 0.85439 0.0
N1997 N 0.69368 0.82684 0.8349 0.0
H1998 H 0.13213 0.79573 0.78681 0.0
H1999 H 0.22152 0.88334 0.89944 0.0
H2000 H 0.12874 0.78208 0.87654 0.0
H2001 H 0.22346 0.8987 0.81038 0.0
H2002 H 0.18948 0.84482 0.89061 0.0
H2003 H 0.16508 0.8339 0.79497 0.0
C2004 C 0.13779 0.8011 0.80838 0.0
C2005 C 0.12781 0.78576 0.83107 0.0
C2006 C 0.19713 0.85646 0.87289 0.0
C2007 C 0.16609 0.82889 0.84036 0.0
C2008 C 0.21578 0.8783 0.87782 0.0
C2009 C 0.22497 0.89424 0.8556 0.0
C2010 C 0.18767 0.85064 0.84558 0.0
C2011 C 0.21664 0.8869 0.82809 0.0
C2012 C 0.15693 0.82271 0.81295 0.0
C2013 C 0.13611 0.79343 0.8585 0.0
N2014 N 0.19814 0.8657 0.82389 0.0
N2015 N 0.15503 0.81439 0.86236 0.0
H2016 H 0.12875 0.33781 0.90073 0.0
H2017 H 0.21747 0.335 0.79069 0.0
H2018 H 0.11633 0.32761 0.81075 0.0
H2019 H 0.23249 0.35047 0.8795 0.0
H2020 H 0.1788 0.32845 0.79872 0.0
H2021 H 0.16695 0.34286 0.89356 0.0
C2022 C 0.13438 0.33748 0.8793 0.0
C2023 C 0.11935 0.33219 0.85626 0.0
C2024 C 0.19041 0.33293 0.81657 0.0
C2025 C 0.16258 0.33687 0.84813 0.0
C2026 C 0.21233 0.33615 0.81212 0.0
C2027 C 0.22821 0.34348 0.83447 0.0
C2028 C 0.18443 0.33708 0.84353 0.0
C2029 C 0.22075 0.34504 0.8617 0.0
C2030 C 0.15602 0.33986 0.87531 0.0
C2031 C 0.12739 0.3315 0.82906 0.0
N2032 N 0.19945 0.34226 0.86542 0.0
N2033 N 0.14839 0.33346 0.82578 0.0
H2034 H 0.82935 0.68269 0.5972 0.0
H2035 H 0.8511 0.66002 0.75936 0.0
H2036 H 0.85718 0.73537 0.66161 0.0
H2037 H 0.82378 0.60738 0.69488 0.0
H2038 H 0.85305 0.68787 0.72399 0.0
H2039 H 0.82742 0.65479 0.63253 0.0
C2040 C 0.83523 0.68846 0.6186 0.0
C2041 C 0.84345 0.71148 0.62626 0.0
C2042 C 0.84655 0.67018 0.71764 0.0
C2043 C 0.84107 0.67959 0.66702 0.0
C2044 C 0.84534 0.65425 0.73793 0.0
C2045 C 0.83725 0.63125 0.73027 0.0
C2046 C 0.83964 0.6631 0.68944 0.0
C2047 C 0.83017 0.62489 0.70196 0.0
C2048 C 0.83402 0.67251 0.63886 0.0
C2049 C 0.85068 0.71785 0.65453 0.0
N2050 N 0.83157 0.64064 0.68272 0.0
N2051 N 0.84927 0.70208 0.67374 0.0
H2052 H 0.27447 0.12381 0.6603 0.0
H2053 H 0.4056 0.21626 0.69553 0.0
H2054 H 0.3292 0.14724 0.59866 0.0
H2055 H 0.35089 0.19268 0.75721 0.0
H2056 H 0.37809 0.19096 0.66034 0.0
H2057 H 0.30201 0.14898 0.69554 0.0
C2058 C 0.29231 0.13437 0.654 0.0
C2059 C 0.29943 0.1333 0.62621 0.0
C2060 C 0.37203 0.19117 0.68154 0.0
C2061 C 0.33138 0.16233 0.66716 0.0
C2062 C 0.38777 0.20563 0.70185 0.0
C2063 C 0.38064 0.20671 0.72963 0.0
C2064 C 0.34873 0.17752 0.68875 0.0
C2065 C 0.35726 0.19241 0.73623 0.0
C2066 C 0.30808 0.14874 0.67434 0.0
C2067 C 0.32283 0.1475 0.61966 0.0
N2068 N 0.34216 0.1785 0.71593 0.0
N2069 N 0.33795 0.16135 0.63998 0.0
H2070 H 0.86229 0.1807 0.59757 0.0
H2071 H 0.82001 0.16166 0.76054 0.0
H2072 H 0.89078 0.15715 0.66271 0.0
H2073 H 0.79389 0.18766 0.6954 0.0
H2074 H 0.84608 0.15971 0.72528 0.0
H2075 H 0.8365 0.18258 0.63312 0.0
C2076 C 0.86304 0.17577 0.61922 0.0
C2077 C 0.87878 0.16873 0.62698 0.0
C2078 C 0.83467 0.16591 0.7188 0.0
C2079 C 0.84938 0.17103 0.66804 0.0
C2080 C 0.81985 0.16712 0.739 0.0
C2081 C 0.80466 0.17485 0.73111 0.0
C2082 C 0.83429 0.17243 0.69046 0.0
C2083 C 0.8052 0.18155 0.70267 0.0
C2084 C 0.84837 0.17694 0.6396 0.0
C2085 C 0.87898 0.16269 0.65557 0.0
N2086 N 0.81961 0.18014 0.68354 0.0
N2087 N 0.86462 0.164 0.67493 0.0
H2088 H 0.9979 0.55577 0.54667 0.0
H2089 H 0.01992 0.45977 0.47774 0.0
H2090 H 0.01006 0.55219 0.45755 0.0
H2091 H 0.0103 0.46464 0.56734 0.0
H2092 H 0.0147 0.49284 0.46967 0.0
H2093 H 1.00446 0.52358 0.55523 0.0
C2094 C 1.00275 0.54869 0.52909 0.0
C2095 C 1.0033 0.55646 0.50138 0.0
C2096 C 0.0134 0.48647 0.49106 0.0
C2097 C 0.00991 0.51928 0.51072 0.0
C2098 C 0.01598 0.46739 0.49557 0.0
C2099 C 0.0156 0.45959 0.52321 0.0
C2100 C 0.01048 0.49775 0.51439 0.0
C2101 C 0.01053 0.47002 0.54566 0.0
C2102 C 1.0061 0.53011 0.53387 0.0
C2103 C 0.00958 0.54676 0.47926 0.0
N2104 N 0.00849 0.48883 0.5408 0.0
N2105 N 0.01225 0.52836 0.48434 0.0
H2106 H 0.55852 0.56462 0.47263 0.0
H2107 H 0.46264 0.44774 0.54394 0.0
H2108 H 0.55577 0.54981 0.56195 0.0
H2109 H 0.46667 0.4612 0.45413 0.0
H2110 H 0.49596 0.48602 0.55122 0.0
H2111 H 0.52602 0.5259 0.46485 0.0
C2112 C 0.55155 0.5529 0.49041 0.0
C2113 C 0.55965 0.56039 0.51796 0.0
C2114 C 0.48935 0.48072 0.52996 0.0
C2115 C 0.52213 0.51665 0.50951 0.0
C2116 C 0.47013 0.45908 0.5259 0.0
C2117 C 0.46202 0.45135 0.49843 0.0
C2118 C 0.50046 0.49461 0.50634 0.0
C2119 C 0.47229 0.46658 0.47569 0.0
C2120 C 0.53279 0.53099 0.48608 0.0
C2121 C 0.5501 0.54466 0.54035 0.0
N2122 N 0.49124 0.48741 0.48011 0.0
N2123 N 0.53153 0.52362 0.53571 0.0
H2124 H 0.56746 0.01105 0.54402 0.0
H2125 H 0.44996 0.99255 0.47717 0.0
H2126 H 0.55241 1.00275 0.45453 0.0
H2127 H 0.46568 1.00232 0.56643 0.0
H2128 H 0.48808 0.9975 0.46812 0.0
H2129 H 0.52906 0.00539 0.55303 0.0
C2130 C 0.55574 0.00724 0.5264 0.0
C2131 C 0.56308 0.00749 0.49852 0.0
C2132 C 0.48333 0.99892 0.48964 0.0
C2133 C 0.51968 1.0019 0.50843 0.0
C2134 C 0.46178 0.99651 0.49471 0.0
C2135 C 0.45475 0.99698 0.52255 0.0
C2136 C 0.4978 1.00172 0.51263 0.0
C2137 C 0.47054 1.00202 0.54462 0.0
C2138 C 0.53402 1.00442 0.53146 0.0
C2139 C 0.54736 1.00255 0.47637 0.0
N2140 N 0.49125 1.00385 0.53924 0.0
N2141 N 0.52649 1.00034 0.48176 0.0
H2142 H 0.49075 0.93821 0.02645 0.0
H2143 H 0.52455 0.06846 0.99387 0.0
H2144 H 0.51775 0.99193 0.08955 0.0
H2145 H 0.49566 0.01476 0.93078 0.0
H2146 H 0.52271 0.0408 0.02848 0.0
H2147 H 0.49245 0.96569 0.99143 0.0
C2148 C 0.49694 0.95579 0.0331 0.0
C2149 C 0.5041 0.96266 0.06125 0.0
C2150 C 0.51681 0.03497 1.00711 0.0
C2151 C 0.50624 0.99452 0.02064 0.0
C2152 C 0.5179 0.05082 0.98712 0.0
C2153 C 0.51024 0.04405 0.9591 0.0
C2154 C 0.50797 0.01191 0.99936 0.0
C2155 C 0.50185 0.02087 0.95198 0.0
C2156 C 0.49793 0.97152 0.01291 0.0
C2157 C 0.51195 0.98575 0.06827 0.0
N2158 N 0.50089 0.00565 0.97198 0.0
N2159 N 0.51287 1.00081 0.04812 0.0
H2160 H 0.99666 0.4821 0.93051 0.0
H2161 H 0.01859 0.52755 0.09224 0.0
H2162 H 0.94331 0.45872 0.99403 0.0
H2163 H 0.07191 0.55106 0.02866 0.0
H2164 H 0.99072 0.50184 0.05672 0.0
H2165 H 0.02452 0.50785 0.96601 0.0
C2166 C 0.99074 0.4825 0.95174 0.0
C2167 C 0.96753 0.46816 0.95911 0.0
C2168 C 0.00857 0.5126 0.05061 0.0
C2169 C 0.99938 0.49742 1.00008 0.0
C2170 C 0.0245 0.52719 0.07099 0.0
C2171 C 0.0477 0.54155 0.06361 0.0
C2172 C 0.01585 0.51233 0.02262 0.0
C2173 C 0.05425 0.54039 0.03552 0.0
C2174 C 1.00667 0.49711 0.9721 0.0
C2175 C 0.96098 0.46937 0.98718 0.0
N2176 N 0.03849 0.52618 0.01619 0.0
N2177 N 0.97673 0.4836 1.00651 0.0
H2178 H 0.48532 0.49435 0.09068 0.0
H2179 H 0.52768 0.51417 0.92775 0.0
H2180 H 0.45787 0.51966 0.02635 0.0
H2181 H 0.55241 0.48619 0.99214 0.0
H2182 H 0.50187 0.51639 0.96321 0.0
H2183 H 0.51059 0.49196 0.05479 0.0
C2184 C 0.4847 0.49956 0.06913 0.0
C2185 C 0.46941 0.50725 0.0617 0.0
C2186 C 0.51291 0.50968 0.96947 0.0
C2187 C 0.4982 0.50438 0.02025 0.0
C2188 C 0.52756 0.50831 0.94916 0.0
C2189 C 0.54231 0.49998 0.95679 0.0
C2190 C 0.51302 0.50272 0.99766 0.0
C2191 C 0.54146 0.49279 0.98506 0.0
C2192 C 0.49906 0.4981 0.04855 0.0
C2193 C 0.46934 0.51363 0.03324 0.0
N2194 N 0.52723 0.49439 1.00431 0.0
N2195 N 0.48341 0.51203 0.01367 0.0
H2196 H 0.32123 0.24605 0.04958 0.0
H2197 H 0.34018 0.25438 0.88164 0.0
H2198 H 0.27528 0.25236 0.99098 0.0
H2199 H 0.37751 0.23502 0.93944 0.0
H2200 H 0.31786 0.25613 0.92137 0.0
H2201 H 0.34382 0.24501 1.00968 0.0
C2202 C 0.31593 0.24736 0.02831 0.0
C2203 C 0.29624 0.24929 0.02371 0.0
C2204 C 0.33089 0.25144 0.92536 0.0
C2205 C 0.3222 0.24804 0.97769 0.0
C2206 C 0.34359 0.25024 0.9026 0.0
C2207 C 0.36075 0.24431 0.90695 0.0
C2208 C 0.3354 0.2469 0.95291 0.0
C2209 C 0.36468 0.23986 0.9349 0.0
C2210 C 0.32884 0.24667 1.0055 0.0
C2211 C 0.29029 0.25086 0.99559 0.0
N2212 N 0.35213 0.24125 0.95674 0.0
N2213 N 0.30321 0.25021 0.97368 0.0
H2214 H 0.76342 0.07675 0.05027 0.0
H2215 H 0.75584 0.08754 0.88236 0.0
H2216 H 0.75904 0.02529 0.99169 0.0
H2217 H 0.77465 0.144 0.94032 0.0
H2218 H 0.75404 0.06346 0.92207 0.0
H2219 H 0.76399 0.10008 1.01038 0.0
C2220 C 0.76242 0.07023 0.02901 0.0
C2221 C 0.7612 0.04895 0.0244 0.0
C2222 C 0.75862 0.08113 0.92609 0.0
C2223 C 0.76193 0.07584 0.97841 0.0
C2224 C 0.75984 0.09503 0.90336 0.0
C2225 C 0.76566 0.11807 0.90777 0.0
C2226 C 0.76301 0.09013 0.95367 0.0
C2227 C 0.76992 0.12638 0.93574 0.0
C2228 C 0.76285 0.08367 1.0062 0.0
C2229 C 0.75999 0.04155 0.99629 0.0
N2230 N 0.76851 0.11245 0.95755 0.0
N2231 N 0.7604 0.05497 0.97437 0.0
H2232 H 0.8669 0.63278 0.93972 0.0
H2233 H 0.98881 0.73701 0.99032 0.0
H2234 H 0.92436 0.67026 0.88296 0.0
H2235 H 0.93637 0.6898 0.04785 0.0
H2236 H 0.9649 0.71414 0.95038 0.0
H2237 H 0.89148 0.65488 0.97936 0.0
C2238 C 0.88465 0.64556 0.93551 0.0
C2239 C 0.8934 0.64961 0.90774 0.0
C2240 C 0.95871 0.70875 0.97177 0.0
C2241 C 0.92169 0.67529 0.95324 0.0
C2242 C 0.97237 0.72179 0.99458 0.0
C2243 C 0.96466 0.71535 0.02254 0.0
C2244 C 0.93706 0.68924 0.9769 0.0
C2245 C 0.94312 0.69546 0.02672 0.0
C2246 C 0.89869 0.65827 0.95821 0.0
C2247 C 0.91657 0.66675 0.90378 0.0
N2248 N 0.93008 0.68324 1.00421 0.0
N2249 N 0.92983 0.67894 0.92619 0.0
H2250 H 0.21994 0.28637 0.59975 0.0
H2251 H 0.31114 0.4102 0.65997 0.0
H2252 H 0.23216 0.34967 0.5605 0.0
H2253 H 0.27811 0.34983 0.71301 0.0
H2254 H 0.28649 0.38748 0.62043 0.0
H2255 H 0.24448 0.30866 0.63926 0.0
C2256 C 0.22748 0.30488 0.59944 0.0
C2257 C 0.22383 0.316 0.57642 0.0
C2258 C 0.28473 0.37922 0.64071 0.0
C2259 C 0.25273 0.34174 0.62147 0.0
C2260 C 0.29891 0.39213 0.66322 0.0
C2261 C 0.29669 0.38192 0.68986 0.0
C2262 C 0.26844 0.35585 0.64473 0.0
C2263 C 0.28039 0.35844 0.69287 0.0
C2264 C 0.24171 0.31762 0.62198 0.0
C2265 C 0.23471 0.3402 0.57728 0.0
N2266 N 0.26696 0.3462 0.6706 0.0
N2267 N 0.24874 0.3522 0.59924 0.0
H2268 H 0.60528 0.91965 0.65251 0.0
H2269 H 0.71406 0.90967 0.60453 0.0
H2270 H 0.6605 0.93035 0.70887 0.0
H2271 H 0.67446 0.92459 0.54475 0.0
H2272 H 0.69209 0.91371 0.64307 0.0
H2273 H 0.62817 0.91856 0.61239 0.0
C2274 C 0.62226 0.92205 0.65644 0.0
C2275 C 0.63089 0.92501 0.68416 0.0
C2276 C 0.68824 0.91611 0.62148 0.0
C2277 C 0.65686 0.92328 0.63859 0.0
C2278 C 0.70086 0.91388 0.5994 0.0
C2279 C 0.69623 0.91675 0.57113 0.0
C2280 C 0.67061 0.92101 0.61542 0.0
C2281 C 0.67846 0.92174 0.56604 0.0
C2282 C 0.63527 0.92134 0.63357 0.0
C2283 C 0.65301 0.92793 0.68796 0.0
N2284 N 0.66627 0.92362 0.58792 0.0
N2285 N 0.66505 0.92675 0.66555 0.0
H2286 H 0.07397 0.78956 0.59851 0.0
H2287 H 0.10805 0.69947 0.65908 0.0
H2288 H 0.12557 0.77801 0.55922 0.0
H2289 H 0.0807 0.73257 0.71206 0.0
H2290 H 0.10939 0.72366 0.61927 0.0
H2291 H 0.07197 0.76511 0.63797 0.0
C2292 C 0.08509 0.78218 0.59816 0.0
C2293 C 0.09997 0.78603 0.57517 0.0
C2294 C 0.103 0.72552 0.6396 0.0
C2295 C 0.09708 0.75721 0.62019 0.0
C2296 C 0.10205 0.7116 0.66226 0.0
C2297 C 0.09426 0.714 0.68896 0.0
C2298 C 0.09575 0.7417 0.64354 0.0
C2299 C 0.08689 0.73017 0.69188 0.0
C2300 C 0.08374 0.768 0.62068 0.0
C2301 C 0.11347 0.77532 0.57598 0.0
N2302 N 0.08776 0.74334 0.66947 0.0
N2303 N 0.11158 0.76133 0.59794 0.0
H2304 H 0.63627 0.77073 0.08639 0.0
H2305 H 0.74296 0.75712 0.03807 0.0
H2306 H 0.6745 0.7537 0.14579 0.0
H2307 H 0.68866 0.74884 0.98163 0.0
H2308 H 0.72054 0.75906 0.0782 0.0
H2309 H 0.65807 0.76654 0.04773 0.0
C2310 C 0.64915 0.76604 0.09141 0.0
C2311 C 0.65342 0.76258 0.11961 0.0
C2312 C 0.71354 0.75664 0.05699 0.0
C2313 C 0.67883 0.75813 0.0752 0.0
C2314 C 0.72628 0.75545 0.03412 0.0
C2315 C 0.71775 0.75286 1.00639 0.0
C2316 C 0.69234 0.75556 0.05197 0.0
C2317 C 0.69604 0.75091 1.00255 0.0
C2318 C 0.66167 0.76373 0.06927 0.0
C2319 C 0.67079 0.757 0.12457 0.0
N2320 N 0.68425 0.75252 0.02498 0.0
N2321 N 0.68287 0.75502 0.10264 0.0
H2322 H 0.26883 0.9457 0.97678 0.0
H2323 H 0.22005 0.89683 0.13051 0.0
H2324 H 0.23867 0.97561 0.03056 0.0
H2325 H 0.27325 0.88798 0.09093 0.0
H2326 H 0.22309 0.92233 0.09186 0.0
H2327 H 0.26741 0.9214 0.01628 0.0
C2328 C 0.26207 0.94729 0.99698 0.0
C2329 C 0.25391 0.96279 1.00037 0.0
C2330 C 0.23409 0.9148 0.09169 0.0
C2331 C 0.25181 0.93461 0.04555 0.0
C2332 C 0.23245 0.90022 0.11385 0.0
C2333 C 0.24655 0.89019 0.11438 0.0
C2334 C 0.24967 0.91921 0.06948 0.0
C2335 C 0.26175 0.89492 0.09149 0.0
C2336 C 0.26126 0.93339 0.0195 0.0
C2337 C 0.2453 0.96404 0.02704 0.0
N2338 N 0.26287 0.90901 0.07003 0.0
N2339 N 0.24425 0.94997 0.04851 0.0
H2340 H 0.14993 0.37674 0.08148 0.0
H2341 H 0.02762 0.27324 0.03075 0.0
H2342 H 0.09226 0.33951 0.13803 0.0
H2343 H 0.08013 0.32017 0.97309 0.0
H2344 H 0.05167 0.29597 0.07062 0.0
H2345 H 0.1253 0.35487 0.04172 0.0
C2346 C 0.13212 0.36406 0.08563 0.0
C2347 C 0.12333 0.36 0.11338 0.0
C2348 C 0.05787 0.30134 0.04922 0.0
C2349 C 0.095 0.3346 0.06775 0.0
C2350 C 0.04412 0.28837 0.02644 0.0
C2351 C 0.05179 0.29477 0.99846 0.0
C2352 C 0.07958 0.32075 0.04406 0.0
C2353 C 0.07341 0.31456 0.99425 0.0
C2354 C 0.11806 0.35149 0.06286 0.0
C2355 C 0.10009 0.34302 0.11724 0.0
N2356 N 0.08655 0.32672 0.01673 0.0
N2357 N 0.08682 0.33097 0.09478 0.0
H2358 H 0.75605 0.67206 0.47436 0.0
H2359 H 0.74643 0.65361 0.30638 0.0
H2360 H 0.81292 0.70972 0.41686 0.0
H2361 H 0.69428 0.60677 0.36449 0.0
H2362 H 0.76958 0.67621 0.34647 0.0
H2363 H 0.73225 0.64968 0.4345 0.0
C2364 C 0.76369 0.67554 0.45344 0.0
C2365 C 0.78676 0.69281 0.44921 0.0
C2366 C 0.75306 0.66103 0.35051 0.0
C2367 C 0.75913 0.66738 0.40312 0.0
C2368 C 0.73972 0.6481 0.32758 0.0
C2369 C 0.71828 0.62816 0.33198 0.0
C2370 C 0.74498 0.65416 0.37824 0.0
C2371 C 0.71066 0.62198 0.36003 0.0
C2372 C 0.74994 0.6628 0.43061 0.0
C2373 C 0.79526 0.69681 0.42131 0.0
N2374 N 0.72398 0.63493 0.38208 0.0
N2375 N 0.78148 0.68423 0.39942 0.0
H2376 H 0.28899 0.0724 0.42366 0.0
H2377 H 0.41353 0.10684 0.36378 0.0
H2378 H 0.35193 0.12414 0.46303 0.0
H2379 H 0.35316 0.07876 0.3106 0.0
H2380 H 0.39049 0.10836 0.40327 0.0
H2381 H 0.31161 0.07051 0.38427 0.0
C2382 C 0.30748 0.08359 0.42402 0.0
C2383 C 0.31841 0.09845 0.44703 0.0
C2384 C 0.3823 0.10179 0.38297 0.0
C2385 C 0.34453 0.09571 0.40211 0.0
C2386 C 0.39539 0.10074 0.36049 0.0
C2387 C 0.38527 0.09267 0.33383 0.0
C2388 C 0.35884 0.09437 0.3789 0.0
C2389 C 0.3617 0.08517 0.33076 0.0
C2390 C 0.32041 0.08231 0.40155 0.0
C2391 C 0.34261 0.11205 0.44625 0.0
N2392 N 0.34929 0.08613 0.353 0.0
N2393 N 0.3548 0.11022 0.42434 0.0
H2394 H 0.90411 0.19747 0.41733 0.0
H2395 H 0.92399 0.31973 0.36485 0.0
H2396 H 0.9254 0.25568 0.4731 0.0
H2397 H 0.91597 0.26574 0.30812 0.0
H2398 H 0.92291 0.29611 0.4051 0.0
H2399 H 0.90658 0.22171 0.37732 0.0
C2400 C 0.90937 0.21532 0.42125 0.0
C2401 C 0.91446 0.22439 0.44884 0.0
C2402 C 0.9215 0.2895 0.38382 0.0
C2403 C 0.91709 0.25231 0.40292 0.0
C2404 C 0.92214 0.303 0.36082 0.0
C2405 C 0.92009 0.29476 0.333 0.0
C2406 C 0.91857 0.2675 0.37902 0.0
C2407 C 0.91766 0.27288 0.32914 0.0
C2408 C 0.9107 0.22917 0.39834 0.0
C2409 C 0.92084 0.24767 0.45243 0.0
N2410 N 0.91686 0.26001 0.35183 0.0
N2411 N 0.92193 0.26075 0.42981 0.0
H2412 H 0.99554 0.55136 0.22523 0.0
H2413 H 0.99578 0.59957 0.37946 0.0
H2414 H 0.05771 0.60419 0.26481 0.0
H2415 H 0.93563 0.56973 0.32585 0.0
H2416 H 0.0186 0.59821 0.33978 0.0
H2417 H 0.97316 0.55429 0.26414 0.0
C2418 C 1.00458 0.56365 0.24195 0.0
C2419 C 0.02872 0.57768 0.24134 0.0
C2420 C 1.00045 0.59212 0.33664 0.0
C2421 C 1.00295 0.58069 0.28652 0.0
C2422 C 0.9874 0.59289 0.35926 0.0
C2423 C 0.96374 0.58481 0.35597 0.0
C2424 C 0.98974 0.58278 0.31059 0.0
C2425 C 0.95382 0.57629 0.3293 0.0
C2426 C 0.99171 0.56523 0.26425 0.0
C2427 C 0.03927 0.59276 0.2643 0.0
N2428 N 0.96681 0.57528 0.30773 0.0
N2429 N 0.02635 0.59382 0.2859 0.0
H2430 H 0.42547 0.3572 0.32374 0.0
H2431 H 0.44546 0.47971 0.27205 0.0
H2432 H 0.43339 0.41094 0.38083 0.0
H2433 H 0.42366 0.42157 0.21602 0.0
H2434 H 0.44301 0.45531 0.31189 0.0
H2435 H 0.42655 0.38098 0.28365 0.0
C2436 C 0.4273 0.37391 0.32788 0.0
C2437 C 0.42931 0.38202 0.35576 0.0
C2438 C 0.43878 0.44791 0.29085 0.0
C2439 C 0.43083 0.40947 0.30993 0.0
C2440 C 0.44009 0.46184 0.26804 0.0
C2441 C 0.43487 0.45285 0.24041 0.0
C2442 C 0.43228 0.42475 0.28614 0.0
C2443 C 0.42834 0.42954 0.23671 0.0
C2444 C 0.42794 0.3875 0.30498 0.0
C2445 C 0.43172 0.40389 0.35976 0.0
N2446 N 0.42728 0.41637 0.25923 0.0
N2447 N 0.43253 0.41684 0.33717 0.0
H2448 H 0.64524 0.07789 0.32467 0.0
H2449 H 0.5561 0.95362 0.26335 0.0
H2450 H 0.61392 0.01684 0.37665 0.0
H2451 H 0.56695 0.01664 0.22467 0.0
H2452 H 0.58064 0.97604 0.30276 0.0
H2453 H 0.62091 0.05515 0.28491 0.0
C2454 C 0.63347 0.05967 0.32764 0.0
C2455 C 0.63163 0.04927 0.35406 0.0
C2456 C 0.57757 0.98491 0.28563 0.0
C2457 C 0.60374 0.02318 0.30867 0.0
C2458 C 0.56334 0.9721 0.26314 0.0
C2459 C 0.55925 0.98309 0.24033 0.0
C2460 C 0.58817 0.009 0.28532 0.0
C2461 C 0.5698 0.00726 0.2413 0.0
C2462 C 0.61946 0.04675 0.30501 0.0
C2463 C 0.61589 0.0256 0.3567 0.0
N2464 N 0.58383 0.01936 0.26325 0.0
N2465 N 0.60263 0.01337 0.33432 0.0
H2466 H 0.36867 0.93197 0.69678 0.0
H2467 H 0.45938 0.05588 0.75722 0.0
H2468 H 0.4022 0.99222 0.6436 0.0
H2469 H 0.44771 0.99269 0.79627 0.0
H2470 H 0.43481 0.03352 0.71777 0.0
H2471 H 0.39297 0.9548 0.73653 0.0
C2472 C 0.38091 0.95005 0.69355 0.0
C2473 C 0.38341 0.96019 0.66681 0.0
C2474 C 0.4377 0.02461 0.735 0.0
C2475 C 0.41124 0.98636 0.71215 0.0
C2476 C 0.45195 0.03739 0.75751 0.0
C2477 C 0.45579 0.02632 0.78044 0.0
C2478 C 0.42684 1.0005 0.73546 0.0
C2479 C 0.44503 1.00213 0.77956 0.0
C2480 C 0.3949 0.96301 0.71617 0.0
C2481 C 0.39973 0.98367 0.66382 0.0
N2482 N 0.43097 0.99008 0.75763 0.0
N2483 N 0.41296 0.99596 0.68619 0.0
H2484 H 0.07295 0.42193 0.69832 0.0
H2485 H 0.96929 0.44023 0.7503 0.0
H2486 H 0.02704 0.4299 0.6414 0.0
H2487 H 1.00616 0.4189 0.80614 0.0
H2488 H 0.99149 0.43824 0.71042 0.0
H2489 H 0.04992 0.42242 0.73845 0.0
C2490 C 0.05799 0.42365 0.69422 0.0
C2491 C 0.05196 0.42585 0.66638 0.0
C2492 C 0.99472 0.434 0.73142 0.0
C2493 C 0.02565 0.42668 0.71225 0.0
C2494 C 0.98195 0.43505 0.75425 0.0
C2495 C 0.98581 0.42983 0.78184 0.0
C2496 C 0.01161 0.42778 0.73606 0.0
C2497 C 1.0028 0.42355 0.78547 0.0
C2498 C 0.04485 0.42396 0.71714 0.0
C2499 C 0.03238 0.4281 0.66243 0.0
N2500 N 0.01505 0.42276 0.76294 0.0
N2501 N 0.02005 0.42857 0.68504 0.0
H2502 H 0.58616 0.59905 0.63729 0.0
H2503 H 0.59162 0.58751 0.80541 0.0
H2504 H 0.58874 0.64963 0.696 0.0
H2505 H 0.57371 0.53123 0.74745 0.0
H2506 H 0.59375 0.61162 0.7656 0.0
H2507 H 0.58538 0.57558 0.67723 0.0
C2508 C 0.58675 0.60535 0.65859 0.0
C2509 C 0.5875 0.62642 0.66323 0.0
C2510 C 0.5893 0.59398 0.7616 0.0
C2511 C 0.58652 0.59941 0.70922 0.0
C2512 C 0.58788 0.58006 0.78439 0.0
C2513 C 0.58221 0.55706 0.78002 0.0
C2514 C 0.58527 0.58506 0.73399 0.0
C2515 C 0.57831 0.54882 0.752 0.0
C2516 C 0.58619 0.59184 0.68141 0.0
C2517 C 0.58815 0.63355 0.69136 0.0
N2518 N 0.57991 0.56278 0.73013 0.0
N2519 N 0.58764 0.62008 0.71327 0.0
H2520 H 0.17098 0.17912 0.30526 0.0
H2521 H 0.18743 0.23959 0.15353 0.0
H2522 H 0.14599 0.22574 0.28753 0.0
H2523 H 0.23011 0.21393 0.18726 0.0
H2524 H 0.16393 0.22649 0.19716 0.0
H2525 H 0.18311 0.18209 0.25567 0.0
C2526 C 0.16717 0.18919 0.29061 0.0
C2527 C 0.15742 0.20213 0.30036 0.0
C2528 C 0.17837 0.22363 0.19474 0.0
C2529 C 0.17189 0.20628 0.24396 0.0
C2530 C 0.19178 0.23115 0.16995 0.0
C2531 C 0.21102 0.22826 0.16695 0.0
C2532 C 0.18398 0.21267 0.21619 0.0
C2533 C 0.21575 0.21698 0.18879 0.0
C2534 C 0.1744 0.1912 0.26243 0.0
C2535 C 0.15336 0.21541 0.28066 0.0
N2536 N 0.20239 0.20965 0.21234 0.0
N2537 N 0.1609 0.21742 0.25346 0.0
H2538 H 0.79833 0.02147 0.18931 0.0
H2539 H 0.79159 0.92291 0.28499 0.0
H2540 H 0.77778 0.95466 0.15387 0.0
H2541 H 0.83348 0.99475 0.30547 0.0
H2542 H 0.7887 0.93331 0.23595 0.0
H2543 H 0.81226 0.01146 0.23127 0.0
C2544 C 0.79665 0.00458 0.19037 0.0
C2545 C 0.78651 0.98874 0.16811 0.0
C2546 C 0.79916 0.94678 0.25089 0.0
C2547 C 0.80267 0.97712 0.21659 0.0
C2548 C 0.80103 0.94085 0.27877 0.0
C2549 C 0.81295 0.95804 0.29916 0.0
C2550 C 0.80883 0.97008 0.24361 0.0
C2551 C 0.82438 0.98101 0.2903 0.0
C2552 C 0.80489 0.99897 0.21432 0.0
C2553 C 0.78528 0.9673 0.17063 0.0
N2554 N 0.82163 0.98639 0.26333 0.0
N2555 N 0.79295 0.96195 0.19468 0.0
H2556 H 0.99296 0.77595 0.18985 0.0
H2557 H 0.08892 0.86978 0.28615 0.0
H2558 H 0.05817 0.82568 0.15342 0.0
H2559 H 0.0167 0.83762 0.30593 0.0
H2560 H 0.07914 0.85646 0.23699 0.0
H2561 H 1.00224 0.79921 0.2323 0.0
C2562 C 0.00936 0.79178 0.19077 0.0
C2563 C 0.02494 0.79867 0.16802 0.0
C2564 C 0.06544 0.85297 0.25181 0.0
C2565 C 0.03571 0.8257 0.21715 0.0
C2566 C 0.07101 0.86078 0.27976 0.0
C2567 C 0.05355 0.85497 0.29997 0.0
C2568 C 0.04226 0.83876 0.2443 0.0
C2569 C 0.03063 0.84273 0.29089 0.0
C2570 C 0.01453 0.80523 0.21504 0.0
C2571 C 0.04574 0.81962 0.17051 0.0
N2572 N 0.02564 0.83462 0.26388 0.0
N2573 N 0.0507 0.83226 0.19486 0.0
H2574 H 0.86989 0.79101 0.73847 0.0
H2575 H 0.77462 0.79314 0.83534 0.0
H2576 H 0.83262 0.82529 0.71489 0.0
H2577 H 0.82331 0.77492 0.86869 0.0
H2578 H 0.79705 0.80635 0.7919 0.0
H2579 H 0.85583 0.78764 0.78721 0.0
C2580 C 0.85951 0.79868 0.74392 0.0
C2581 C 0.85266 0.80876 0.72281 0.0
C2582 C 0.80299 0.79962 0.80872 0.0
C2583 C 0.83558 0.80396 0.77809 0.0
C2584 C 0.79005 0.79186 0.83354 0.0
C2585 C 0.79692 0.78263 0.8557 0.0
C2586 C 0.8229 0.79792 0.80559 0.0
C2587 C 0.81728 0.78176 0.85212 0.0
C2588 C 0.85125 0.7965 0.77163 0.0
C2589 C 0.83862 0.81779 0.73067 0.0
N2590 N 0.82941 0.78905 0.82741 0.0
N2591 N 0.83021 0.81482 0.75755 0.0
H2592 H 0.23859 0.05665 0.86927 0.0
H2593 H 0.18171 0.01287 0.71576 0.0
H2594 H 0.21805 0.98986 0.83376 0.0
H2595 H 0.22406 0.08473 0.73591 0.0
H2596 H 0.18504 1.00326 0.76502 0.0
H2597 H 0.22508 0.06643 0.8256 0.0
C2598 C 0.2312 0.04406 0.85242 0.0
C2599 C 0.22982 0.02256 0.85501 0.0
C2600 C 0.1931 0.02118 0.75887 0.0
C2601 C 0.21378 0.03331 0.80564 0.0
C2602 C 0.19086 0.02664 0.73089 0.0
C2603 C 0.20248 0.04959 0.72192 0.0
C2604 C 0.2071 0.03882 0.77794 0.0
C2605 C 0.21468 0.06682 0.74219 0.0
C2606 C 0.22345 0.04961 0.82761 0.0
C2607 C 0.21988 0.0068 0.8326 0.0
N2608 N 0.21695 0.0611 0.76919 0.0
N2609 N 0.21227 0.01247 0.809 0.0
H2610 H 0.92845 0.13628 0.73416 0.0
H2611 H 0.96045 0.18114 0.87269 0.0
H2612 H 1.00062 0.17816 0.71527 0.0
H2613 H 0.01664 0.23662 0.82722 0.0
H2614 H 0.95059 0.15739 0.82959 0.0
H2615 H 0.93629 0.14915 0.78357 0.0
C2616 C 0.94612 0.14726 0.74085 0.0
C2617 C 0.96401 0.1558 0.72083 0.0
C2618 C 0.96494 0.17483 0.82906 0.0
C2619 C 0.97309 0.17135 0.777 0.0
C2620 C 0.97057 0.18839 0.85366 0.0
C2621 C 0.9892 0.21106 0.85356 0.0
C2622 C 0.97825 0.18398 0.80435 0.0
C2623 C 1.00195 0.2194 0.82838 0.0
C2624 C 0.95059 0.15479 0.76903 0.0
C2625 C 0.98646 0.17078 0.73021 0.0
N2626 N 0.9963 0.20588 0.805 0.0
N2627 N 0.99029 0.17844 0.75744 0.0
H2628 H 0.80985 0.55563 0.61977 0.0
H2629 H 0.90051 0.54826 0.52161 0.0
H2630 H 0.8402 0.51391 0.6393 0.0
H2631 H 0.85407 0.56921 0.48767 0.0
H2632 H 0.87729 0.53482 0.56423 0.0
H2633 H 0.8229 0.55872 0.57055 0.0
C2634 C 0.81842 0.5463 0.61332 0.0
C2635 C 0.82378 0.53429 0.63347 0.0
C2636 C 0.87198 0.54218 0.54748 0.0
C2637 C 0.83968 0.53863 0.57769 0.0
C2638 C 0.88541 0.55013 0.52313 0.0
C2639 C 0.87945 0.56023 0.50107 0.0
C2640 C 0.85251 0.54464 0.55035 0.0
C2641 C 0.8594 0.56172 0.50422 0.0
C2642 C 0.82608 0.54827 0.58533 0.0
C2643 C 0.83544 0.52303 0.62432 0.0
N2644 N 0.8468 0.55432 0.52863 0.0
N2645 N 0.8434 0.52585 0.59724 0.0
H2646 H 0.44309 0.28677 0.48594 0.0
H2647 H 0.49842 0.32857 0.64053 0.0
H2648 H 0.46312 0.35303 0.52273 0.0
H2649 H 0.45595 0.25697 0.6191 0.0
H2650 H 0.49562 0.33877 0.59136 0.0
H2651 H 0.45614 0.27641 0.52957 0.0
C2652 C 0.45027 0.29912 0.50306 0.0
C2653 C 0.45164 0.32064 0.50084 0.0
C2654 C 0.48741 0.32078 0.59722 0.0
C2655 C 0.46717 0.30925 0.55015 0.0
C2656 C 0.48935 0.31498 0.62515 0.0
C2657 C 0.47752 0.29193 0.63373 0.0
C2658 C 0.47354 0.30338 0.57782 0.0
C2659 C 0.46545 0.27495 0.61314 0.0
C2660 C 0.45777 0.29326 0.52784 0.0
C2661 C 0.46131 0.33609 0.52359 0.0
N2662 N 0.4635 0.281 0.58619 0.0
N2663 N 0.46868 0.33012 0.54715 0.0
H2664 H 0.65931 0.10692 0.52385 0.0
H2665 H 0.6847 0.17591 0.63959 0.0
H2666 H 0.72304 0.15874 0.48634 0.0
H2667 H 0.75483 0.19607 0.61864 0.0
H2668 H 0.67341 0.16251 0.59072 0.0
H2669 H 0.66852 0.12976 0.56666 0.0
C2670 C 0.67529 0.1232 0.52453 0.0
C2671 C 0.69048 0.13081 0.50135 0.0
C2672 C 0.69134 0.17018 0.5967 0.0
C2673 C 0.70095 0.15757 0.55068 0.0
C2674 C 0.69783 0.17825 0.62442 0.0
C2675 C 0.72066 0.18693 0.63312 0.0
C2676 C 0.70781 0.17066 0.57773 0.0
C2677 C 0.737 0.18934 0.61268 0.0
C2678 C 0.68034 0.13647 0.54896 0.0
C2679 C 0.71086 0.15217 0.50368 0.0
N2680 N 0.73022 0.18092 0.58602 0.0
N2681 N 0.7157 0.16467 0.52814 0.0
H2682 H 0.44813 0.12761 0.16824 0.0
H2683 H 0.53793 0.11912 0.06954 0.0
H2684 H 0.49388 0.10561 0.20175 0.0
H2685 H 0.50825 0.16151 0.05039 0.0
H2686 H 0.52495 0.11603 0.11878 0.0
H2687 H 0.47127 0.14084 0.12556 0.0
C2688 C 0.46306 0.12546 0.16662 0.0
C2689 C 0.46885 0.11514 0.18858 0.0
C2690 C 0.5219 0.12661 0.10409 0.0
C2691 C 0.49571 0.1305 0.13921 0.0
C2692 C 0.52953 0.12859 0.07608 0.0
C2693 C 0.52432 0.14079 0.05602 0.0
C2694 C 0.5085 0.13645 0.11185 0.0
C2695 C 0.51288 0.15223 0.0653 0.0
C2696 C 0.47645 0.13329 0.14222 0.0
C2697 C 0.48868 0.11328 0.18527 0.0
N2698 N 0.50495 0.1494 0.09239 0.0
N2699 N 0.50124 0.12058 0.16082 0.0
H2700 H 0.9055 0.38976 0.20336 0.0
H2701 H 0.84914 0.34756 0.04935 0.0
H2702 H 0.88561 0.32358 0.16641 0.0
H2703 H 0.89129 0.41923 0.07061 0.0
H2704 H 0.8523 0.33747 0.09843 0.0
H2705 H 0.89196 0.39994 0.16003 0.0
C2706 C 0.89825 0.37739 0.18627 0.0
C2707 C 0.89706 0.35595 0.18835 0.0
C2708 C 0.86035 0.35545 0.09257 0.0
C2709 C 0.88096 0.36713 0.13939 0.0
C2710 C 0.8582 0.36118 0.06469 0.0
C2711 C 0.86985 0.38422 0.05607 0.0
C2712 C 0.87428 0.3729 0.11188 0.0
C2713 C 0.88192 0.40125 0.07661 0.0
C2714 C 0.89047 0.38315 0.16165 0.0
C2715 C 0.88728 0.34046 0.16565 0.0
N2716 N 0.8841 0.39527 0.1035 0.0
N2717 N 0.87964 0.34634 0.14226 0.0
H2718 H 0.6904 0.56507 0.16578 0.0
H2719 H 0.59133 0.4742 0.06917 0.0
H2720 H 0.62337 0.51889 0.20086 0.0
H2721 H 0.66321 0.50398 0.0486 0.0
H2722 H 0.60179 0.48758 0.11818 0.0
H2723 H 0.68015 0.54171 0.12327 0.0
C2724 C 0.67341 0.55 0.16454 0.0
C2725 C 0.6576 0.54415 0.18689 0.0
C2726 C 0.61526 0.49058 0.10322 0.0
C2727 C 0.6457 0.51704 0.13774 0.0
C2728 C 0.60929 0.48273 0.07535 0.0
C2729 C 0.62646 0.48784 0.05495 0.0
C2730 C 0.63859 0.50409 0.11052 0.0
C2731 C 0.64947 0.49944 0.06377 0.0
C2732 C 0.66766 0.53648 0.14025 0.0
C2733 C 0.63601 0.52414 0.18408 0.0
N2734 N 0.65489 0.50757 0.09074 0.0
N2735 N 0.63054 0.51145 0.15973 0.0
H2736 H 0.57455 0.88178 0.85575 0.0
H2737 H 0.4773 0.88089 0.95203 0.0
H2738 H 0.52448 0.89796 0.8221 0.0
H2739 H 0.51696 0.84935 0.97655 0.0
H2740 H 0.49156 0.88442 0.90336 0.0
H2741 H 0.55222 0.86828 0.89926 0.0
C2742 C 0.55882 0.88253 0.85748 0.0
C2743 C 0.55154 0.89128 0.83522 0.0
C2744 C 0.49664 0.8761 0.91913 0.0
C2745 C 0.52568 0.87568 0.88542 0.0
C2746 C 0.48825 0.8738 0.94681 0.0
C2747 C 0.49567 0.86443 0.96816 0.0
C2748 C 0.513 0.86948 0.91294 0.0
C2749 C 0.51048 0.85624 0.96058 0.0
C2750 C 0.54595 0.87462 0.88236 0.0
C2751 C 0.53084 0.8915 0.83874 0.0
N2752 N 0.51896 0.8593 0.93373 0.0
N2753 N 0.51877 0.88407 0.86348 0.0
H2754 H 0.12597 0.59081 0.95256 0.0
H2755 H 0.12811 0.68785 0.8575 0.0
H2756 H 0.16453 0.66271 0.97405 0.0
H2757 H 0.11134 0.62222 0.82134 0.0
H2758 H 0.142 0.67832 0.89989 0.0
H2759 H 0.12243 0.60115 0.9037 0.0
C2760 C 0.13457 0.60881 0.94659 0.0
C2761 C 0.14579 0.62598 0.9672 0.0
C2762 C 0.13545 0.66599 0.8827 0.0
C2763 C 0.14085 0.6379 0.91187 0.0
C2764 C 0.12724 0.67131 0.85847 0.0
C2765 C 0.11823 0.65569 0.83582 0.0
C2766 C 0.13436 0.64463 0.88483 0.0
C2767 C 0.11796 0.6347 0.83835 0.0
C2768 C 0.13231 0.61469 0.91882 0.0
C2769 C 0.15606 0.649 0.95869 0.0
N2770 N 0.12562 0.62962 0.86262 0.0
N2771 N 0.15295 0.65429 0.93183 0.0
H2772 H 0.42172 0.53516 0.95436 0.0
H2773 H 0.32482 0.44351 0.85612 0.0
H2774 H 0.34943 0.50447 0.97295 0.0
H2775 H 0.39202 0.49048 0.82202 0.0
H2776 H 0.33429 0.46675 0.89861 0.0
H2777 H 0.41224 0.5218 0.90518 0.0
C2778 C 0.40387 0.52648 0.94768 0.0
C2779 C 0.3863 0.52113 0.96757 0.0
C2780 C 0.347 0.47217 0.88186 0.0
C2781 C 0.3753 0.50484 0.91187 0.0
C2782 C 0.3417 0.45872 0.85757 0.0
C2783 C 0.35777 0.46484 0.83546 0.0
C2784 C 0.36876 0.49184 0.88465 0.0
C2785 C 0.37919 0.48502 0.8386 0.0
C2786 C 0.39846 0.51863 0.91973 0.0
C2787 C 0.36346 0.50926 0.95816 0.0
N2788 N 0.38421 0.49766 0.86296 0.0
N2789 N 0.3586 0.50112 0.93115 0.0
H2790 H 0.16091 0.43999 0.53557 0.0
H2791 H 0.17457 0.4963 0.38162 0.0
H2792 H 0.11526 0.46122 0.49976 0.0
H2793 H 0.20297 0.45299 0.4021 0.0
H2794 H 0.16189 0.49354 0.43095 0.0
H2795 H 0.18424 0.45308 0.49187 0.0
C2796 C 0.15586 0.44745 0.51866 0.0
C2797 C 0.13588 0.44913 0.52115 0.0
C2798 C 0.17145 0.48513 0.42484 0.0
C2799 C 0.16272 0.4647 0.47177 0.0
C2800 C 0.17899 0.48703 0.39682 0.0
C2801 C 0.1899 0.47496 0.38793 0.0
C2802 C 0.17484 0.47103 0.44402 0.0
C2803 C 0.19471 0.46266 0.4083 0.0
C2804 C 0.16918 0.45497 0.49383 0.0
C2805 C 0.13025 0.45916 0.49867 0.0
N2806 N 0.18689 0.46075 0.43534 0.0
N2807 N 0.14355 0.46653 0.47506 0.0
H2808 H 0.51246 0.67795 0.3824 0.0
H2809 H 0.56953 0.72087 0.53587 0.0
H2810 H 0.55432 0.74974 0.40323 0.0
H2811 H 0.5504 0.65497 0.49864 0.0
H2812 H 0.55524 0.7307 0.4929 0.0
H2813 H 0.51575 0.66811 0.43155 0.0
C2814 C 0.52145 0.69164 0.39768 0.0
C2815 C 0.533 0.71465 0.38892 0.0
C2816 C 0.55407 0.71404 0.4944 0.0
C2817 C 0.5376 0.70362 0.44477 0.0
C2818 C 0.56228 0.70848 0.5188 0.0
C2819 C 0.56155 0.68724 0.52065 0.0
C2820 C 0.54459 0.698 0.47215 0.0
C2821 C 0.55175 0.67172 0.49801 0.0
C2822 C 0.52367 0.68606 0.42559 0.0
C2823 C 0.545 0.73179 0.40936 0.0
N2824 N 0.54368 0.67739 0.47483 0.0
N2825 N 0.5473 0.72594 0.43628 0.0
H2826 H 0.35753 0.8985 0.49986 0.0
H2827 H 0.25969 0.80718 0.40217 0.0
H2828 H 0.29034 0.85171 0.53409 0.0
H2829 H 0.33179 0.83829 0.38218 0.0
H2830 H 0.2697 0.82035 0.45132 0.0
H2831 H 0.34784 0.87535 0.45723 0.0
C2832 C 0.34063 0.88334 0.49841 0.0
C2833 C 0.32461 0.87725 0.52057 0.0
C2834 C 0.28333 0.82367 0.43646 0.0
C2835 C 0.31334 0.85038 0.47126 0.0
C2836 C 0.27762 0.81593 0.40851 0.0
C2837 C 0.29498 0.82147 0.38824 0.0
C2838 C 0.30657 0.83752 0.44395 0.0
C2839 C 0.31793 0.83339 0.39725 0.0
C2840 C 0.33519 0.86995 0.47405 0.0
C2841 C 0.30314 0.85714 0.51746 0.0
N2842 N 0.32308 0.84141 0.4243 0.0
N2843 N 0.29798 0.84457 0.49304 0.0
H2844 H 0.30911 0.31583 0.13838 0.0
H2845 H 0.35012 0.4386 0.06733 0.0
H2846 H 0.27439 0.32324 0.06558 0.0
H2847 H 0.38822 0.4244 0.13009 0.0
H2848 H 0.3208 0.39746 0.06703 0.0
H2849 H 0.33593 0.35687 0.13762 0.0
C2850 C 0.30699 0.32615 0.12231 0.0
C2851 C 0.28954 0.31601 0.10188 0.0
C2852 C 0.33568 0.40344 0.08071 0.0
C2853 C 0.32066 0.36338 0.10064 0.0
C2854 C 0.35245 0.42685 0.08079 0.0
C2855 C 0.37165 0.435 0.09882 0.0
C2856 C 0.33813 0.38822 0.0989 0.0
C2857 C 0.37373 0.41903 0.1159 0.0
C2858 C 0.32245 0.34966 0.12179 0.0
C2859 C 0.28759 0.33038 0.08175 0.0
N2860 N 0.35718 0.39655 0.11559 0.0
N2861 N 0.30311 0.35339 0.08149 0.0
H2862 H 0.57412 0.912 0.06697 0.0
H2863 H 0.696 0.9931 0.14022 0.0
H2864 H 0.58859 0.96632 0.12673 0.0
H2865 H 0.69042 0.95349 0.06556 0.0
H2866 H 0.65486 0.97855 0.13855 0.0
H2867 H 0.61527 0.92353 0.06745 0.0
C2868 C 0.58593 0.92647 0.07988 0.0
C2869 C 0.57785 0.93815 0.09693 0.0
C2870 C 0.6625 0.97289 0.12252 0.0
C2871 C 0.62456 0.95101 0.09799 0.0
C2872 C 0.68604 0.9811 0.12358 0.0
C2873 C 0.69673 0.97467 0.10285 0.0
C2874 C 0.64931 0.95811 0.10051 0.0
C2875 C 0.68283 0.95886 0.08197 0.0
C2876 C 0.60933 0.93293 0.08026 0.0
C2877 C 0.59389 0.95669 0.11335 0.0
N2878 N 0.65977 0.95122 0.08116 0.0
N2879 N 0.61632 0.96239 0.11358 0.0
H2880 H 0.0597 0.73894 0.06167 0.0
H2881 H 0.04527 0.62266 0.12649 0.0
H2882 H 0.02232 0.70584 0.13801 0.0
H2883 H 0.09939 0.66241 0.0664 0.0
H2884 H 0.03439 0.65204 0.1261 0.0
H2885 H 0.07387 0.71136 0.05988 0.0
C2886 C 0.05487 0.72623 0.0783 0.0
C2887 C 0.03965 0.72454 0.09989 0.0
C2888 C 0.04866 0.65446 0.11292 0.0
C2889 C 0.05525 0.69289 0.0976 0.0
C2890 C 0.0548 0.63754 0.11298 0.0
C2891 C 0.07341 0.64012 0.09662 0.0
C2892 C 0.06111 0.6743 0.09635 0.0
C2893 C 0.08493 0.65976 0.07936 0.0
C2894 C 0.06279 0.71042 0.07713 0.0
C2895 C 0.03378 0.70765 0.12077 0.0
N2896 N 0.07866 0.67623 0.07975 0.0
N2897 N 0.04139 0.69244 0.11894 0.0
H2898 H 0.35685 0.2862 0.39823 0.0
H2899 H 0.25437 0.29951 0.46496 0.0
H2900 H 0.36281 0.32812 0.47067 0.0
H2901 H 0.24167 0.24837 0.40117 0.0
H2902 H 0.29484 0.3111 0.46452 0.0
H2903 H 0.31507 0.27181 0.39743 0.0
C2904 C 0.34935 0.29207 0.4142 0.0
C2905 C 0.36336 0.3085 0.43444 0.0
C2906 C 0.28333 0.29734 0.45053 0.0
C2907 C 0.31595 0.29252 0.43332 0.0
C2908 C 0.26012 0.29077 0.45066 0.0
C2909 C 0.24452 0.27285 0.43316 0.0
C2910 C 0.29126 0.28598 0.43276 0.0
C2911 C 0.25313 0.2623 0.41499 0.0
C2912 C 0.32559 0.284 0.4136 0.0
C2913 C 0.35279 0.31564 0.4545 0.0
N2914 N 0.27598 0.26898 0.41531 0.0
N2915 N 0.32986 0.30775 0.45329 0.0
H2916 H 0.71232 0.95675 0.45811 0.0
H2917 H 0.72526 0.07203 0.39237 0.0
H2918 H 0.76609 0.99618 0.39749 0.0
H2919 H 0.69062 0.04067 0.47076 0.0
H2920 H 0.73961 0.04457 0.39035 0.0
H2921 H 0.70153 0.98621 0.45776 0.0
C2922 C 0.72179 0.97156 0.44448 0.0
C2923 C 0.74028 0.97404 0.42797 0.0
C2924 C 0.72911 0.044 0.40811 0.0
C2925 C 0.72809 0.00829 0.42775 0.0
C2926 C 0.7211 0.05975 0.4094 0.0
C2927 C 0.70656 0.05847 0.43164 0.0
C2928 C 0.72231 0.02694 0.4291 0.0
C2929 C 0.70152 0.04213 0.45302 0.0
C2930 C 0.7157 0.98853 0.44446 0.0
C2931 C 0.75173 0.9936 0.41057 0.0
N2932 N 0.70917 0.02695 0.45105 0.0
N2933 N 0.7455 0.01011 0.41098 0.0
H2934 H 0.05614 0.75725 0.45942 0.0
H2935 H 0.93905 0.65512 0.39644 0.0
H2936 H 0.01541 0.77108 0.40032 0.0
H2937 H 0.97363 0.65077 0.47132 0.0
H2938 H 0.96657 0.69682 0.39449 0.0
H2939 H 0.02695 0.71693 0.4593 0.0
C2940 C 0.04109 0.75177 0.44618 0.0
C2941 C 0.03817 0.76765 0.43002 0.0
C2942 C 0.96787 0.68667 0.41146 0.0
C2943 C 1.00423 0.72113 0.43007 0.0
C2944 C 0.9521 0.66296 0.41273 0.0
C2945 C 0.95418 0.64942 0.43395 0.0
C2946 C 0.98577 0.69666 0.43146 0.0
C2947 C 0.97148 0.66042 0.45438 0.0
C2948 C 0.02428 0.72868 0.44628 0.0
C2949 C 0.01832 0.75939 0.41311 0.0
N2950 N 0.98665 0.68324 0.45246 0.0
N2951 N 1.00197 0.73662 0.41365 0.0
H2952 H 0.6232 0.58378 0.89372 0.0
H2953 H 0.74016 0.68523 0.95805 0.0
H2954 H 0.66305 0.57008 0.95438 0.0
H2955 H 0.70553 0.69089 0.88402 0.0
H2956 H 0.71258 0.6436 0.9592 0.0
H2957 H 0.65256 0.62407 0.8937 0.0
C2958 C 0.63808 0.58928 0.90728 0.0
C2959 C 0.6407 0.57345 0.92396 0.0
C2960 C 0.71127 0.654 0.94257 0.0
C2961 C 0.67481 0.6199 0.92375 0.0
C2962 C 0.72709 0.67768 0.94175 0.0
C2963 C 0.72502 0.69157 0.92103 0.0
C2964 C 0.69332 0.64436 0.92262 0.0
C2965 C 0.70767 0.68094 0.90056 0.0
C2966 C 0.65499 0.61235 0.9071 0.0
C2967 C 0.66035 0.58173 0.94122 0.0
N2968 N 0.69244 0.6581 0.90205 0.0
N2969 N 0.67677 0.60445 0.9406 0.0
H2970 H 0.32488 0.05718 0.95983 0.0
H2971 H 0.42656 0.04213 0.89469 0.0
H2972 H 0.31986 0.0184 0.88455 0.0
H2973 H 0.44059 0.09537 0.95593 0.0
H2974 H 0.38629 0.03136 0.89491 0.0
H2975 H 0.36657 0.07103 0.9614 0.0
C2976 C 0.33257 0.05194 0.94338 0.0
C2977 C 0.31884 0.03647 0.92214 0.0
C2978 C 0.39807 0.04541 0.90838 0.0
C2979 C 0.36609 0.05175 0.92418 0.0
C2980 C 0.42114 0.05149 0.90841 0.0
C2981 C 0.43708 0.0698 0.92519 0.0
C2982 C 0.39058 0.05762 0.92528 0.0
C2983 C 0.42887 0.08113 0.94267 0.0
C2984 C 0.35628 0.05969 0.94443 0.0
C2985 C 0.32966 0.0301 0.9015 0.0
N2986 N 0.40613 0.07492 0.9422 0.0
N2987 N 0.35248 0.03759 0.9032 0.0
H2988 H 0.91705 0.34871 0.95937 0.0
H2989 H 0.99055 0.30106 0.88129 0.0
H2990 H 0.96773 0.38422 0.89398 0.0
H2991 H 0.9582 0.27328 0.96192 0.0
H2992 H 0.97624 0.32783 0.88282 0.0
H2993 H 0.92768 0.31844 0.95947 0.0
C2994 C 0.93056 0.35031 0.94533 0.0
C2995 C 0.94144 0.369 0.92654 0.0
C2996 C 0.9721 0.31586 0.9002 0.0
C2997 C 0.95319 0.33438 0.92615 0.0
C2998 C 0.98014 0.30041 0.89923 0.0
C2999 C 0.97575 0.28506 0.92164 0.0
C3000 C 0.95958 0.3162 0.92384 0.0
C3001 C 0.96194 0.28485 0.94419 0.0
C3002 C 0.93649 0.33299 0.9453 0.0
C3003 C 0.95873 0.37013 0.90873 0.0
N3004 N 0.95449 0.30043 0.9449 0.0
N3005 N 0.9639 0.35304 0.90887 0.0
H3006 H 0.77354 0.7609 0.62543 0.0
H3007 H 0.65302 0.68749 0.54585 0.0
H3008 H 0.7595 0.71133 0.559 0.0
H3009 H 0.65724 0.72014 0.62614 0.0
H3010 H 0.69415 0.70189 0.54761 0.0
H3011 H 0.73261 0.75018 0.62486 0.0
C3012 C 0.76187 0.74761 0.61102 0.0
C3013 C 0.77001 0.73706 0.59216 0.0
C3014 C 0.68622 0.70609 0.56485 0.0
C3015 C 0.72358 0.7252 0.59101 0.0
C3016 C 0.66271 0.698 0.56375 0.0
C3017 C 0.65164 0.70245 0.58601 0.0
C3018 C 0.69899 0.71871 0.58847 0.0
C3019 C 0.66515 0.71636 0.60852 0.0
C3020 C 0.7386 0.74164 0.6106 0.0
C3021 C 0.75415 0.72005 0.57385 0.0
N3022 N 0.68819 0.72385 0.60936 0.0
N3023 N 0.73185 0.71483 0.57363 0.0
H3024 H 0.33059 0.97262 0.5494 0.0
H3025 H 0.2492 0.0134 0.62251 0.0
H3026 H 0.28965 0.93804 0.62305 0.0
H3027 H 0.30153 0.05182 0.5599 0.0
H3028 H 0.26105 0.98405 0.62233 0.0
H3029 H 0.31607 0.99922 0.55073 0.0
C3030 C 0.31831 0.97047 0.56576 0.0
C3031 C 0.31146 0.95316 0.58627 0.0
C3032 C 0.26995 0.99901 0.60881 0.0
C3033 C 0.29491 0.98404 0.58823 0.0
C3034 C 0.26331 0.01581 0.60902 0.0
C3035 C 0.27432 0.03507 0.59111 0.0
C3036 C 0.28758 1.00153 0.59044 0.0
C3037 C 0.29241 0.03725 0.57396 0.0
C3038 C 0.31011 0.9858 0.56662 0.0
C3039 C 0.29535 0.95114 0.60679 0.0
N3040 N 0.29832 0.02069 0.57397 0.0
N3041 N 0.28772 0.96656 0.60742 0.0
H3042 H 0.04006 0.36048 0.55012 0.0
H3043 H 0.99928 0.23796 0.62144 0.0
H3044 H 0.07478 0.35374 0.62334 0.0
H3045 H 0.95963 0.2528 0.56176 0.0
H3046 H 0.02889 0.27903 0.62129 0.0
H3047 H 0.01323 0.31944 0.55137 0.0
C3048 C 0.0422 0.35029 0.56636 0.0
C3049 C 0.05961 0.36063 0.58681 0.0
C3050 C 0.01361 0.2732 0.60842 0.0
C3051 C 0.02847 0.31329 0.58864 0.0
C3052 C 0.99666 0.24984 0.6086 0.0
C3053 C 0.97696 0.24189 0.59151 0.0
C3054 C 0.01081 0.28854 0.59086 0.0
C3055 C 0.97452 0.25801 0.5752 0.0
C3056 C 0.02673 0.3268 0.56718 0.0
C3057 C 0.0616 0.34643 0.60716 0.0
N3058 N 0.99125 0.28042 0.57517 0.0
N3059 N 0.04606 0.32342 0.60773 0.0
H3060 H 0.90696 0.58114 0.73226 0.0
H3061 H 0.02875 0.65959 0.80733 0.0
H3062 H 0.92106 0.63255 0.79622 0.0
H3063 H 0.02281 0.62115 0.73141 0.0
H3064 H 0.98765 0.6453 0.80598 0.0
H3065 H 0.94805 0.5925 0.73249 0.0
C3066 C 0.91868 0.59496 0.74606 0.0
C3067 C 0.91052 0.60585 0.76433 0.0
C3068 C 0.99519 0.63983 0.7896 0.0
C3069 C 0.95717 0.61851 0.76506 0.0
C3070 C 0.01871 0.64789 0.79047 0.0
C3071 C 0.02928 0.64171 0.76932 0.0
C3072 C 0.98191 0.62547 0.76733 0.0
C3073 C 0.01531 0.62631 0.74816 0.0
C3074 C 0.94205 0.60131 0.74629 0.0
C3075 C 0.92644 0.62354 0.78186 0.0
N3076 N 0.99227 0.61883 0.74753 0.0
N3077 N 0.94886 0.62917 0.78188 0.0
H3078 H 0.37596 0.28644 0.79342 0.0
H3079 H 0.39192 0.40443 0.73153 0.0
H3080 H 0.43044 0.32743 0.73432 0.0
H3081 H 0.35011 0.36794 0.80384 0.0
H3082 H 0.40584 0.3767 0.72956 0.0
H3083 H 0.36448 0.3154 0.79326 0.0
C3084 C 0.38544 0.30149 0.78017 0.0
C3085 C 0.40431 0.30454 0.76399 0.0
C3086 C 0.39378 0.37499 0.74595 0.0
C3087 C 0.39132 0.33822 0.76399 0.0
C3088 C 0.38598 0.39088 0.74723 0.0
C3089 C 0.36971 0.38841 0.76777 0.0
C3090 C 0.38511 0.35657 0.76526 0.0
C3091 C 0.36247 0.37045 0.78745 0.0
C3092 C 0.37894 0.31817 0.78023 0.0
C3093 C 0.41578 0.3244 0.7471 0.0
N3094 N 0.37006 0.35521 0.78555 0.0
N3095 N 0.40917 0.34061 0.74763 0.0
H3096 H 0.68483 0.10537 0.73243 0.0
H3097 H 0.63873 0.98423 0.81023 0.0
H3098 H 0.7209 0.09121 0.79804 0.0
H3099 H 0.60827 0.9901 0.73243 0.0
H3100 H 0.66556 0.02537 0.8091 0.0
H3101 H 0.65443 0.06462 0.73347 0.0
C3102 C 0.68651 0.0937 0.74675 0.0
C3103 C 0.70543 0.10175 0.76521 0.0
C3104 C 0.65294 0.01779 0.79232 0.0
C3105 C 0.67064 0.0555 0.76694 0.0
C3106 C 0.63746 0.99428 0.79309 0.0
C3107 C 0.62136 0.98369 0.77127 0.0
C3108 C 0.65252 0.03097 0.76947 0.0
C3109 C 0.62041 0.99762 0.7497 0.0
C3110 C 0.66911 0.07053 0.74747 0.0
C3111 C 0.70666 0.0859 0.78347 0.0
N3112 N 0.63601 0.0206 0.74914 0.0
N3113 N 0.68948 0.06367 0.78396 0.0
H3114 H 0.40835 0.0206 0.29256 0.0
H3115 H 0.29156 0.91858 0.22816 0.0
H3116 H 0.373 0.0259 0.21904 0.0
H3117 H 0.33179 0.905 0.28836 0.0
H3118 H 0.3205 0.95899 0.22872 0.0
H3119 H 0.3808 0.97891 0.29399 0.0
C3120 C 0.3951 0.01298 0.27649 0.0
C3121 C 0.39287 0.02678 0.25577 0.0
C3122 C 0.32311 0.94728 0.24189 0.0
C3123 C 0.36125 0.97951 0.25763 0.0
C3124 C 0.30645 0.92413 0.24172 0.0
C3125 C 0.30929 0.90829 0.2581 0.0
C3126 C 0.34294 0.95494 0.25858 0.0
C3127 C 0.32893 0.91665 0.2754 0.0
C3128 C 0.37931 0.98926 0.27745 0.0
C3129 C 0.3753 0.01605 0.23558 0.0
N3130 N 0.34514 0.93946 0.27511 0.0
N3131 N 0.36015 0.9932 0.23718 0.0
H3132 H 0.99248 0.39036 0.29001 0.0
H3133 H 0.0946 0.37606 0.22387 0.0
H3134 H 0.98614 0.34779 0.21812 0.0
H3135 H 0.10736 0.42725 0.28762 0.0
H3136 H 0.05414 0.36461 0.2242 0.0
H3137 H 0.03418 0.40441 0.29091 0.0
C3138 C 0.99988 0.38428 0.27417 0.0
C3139 C 0.98578 0.36778 0.25406 0.0
C3140 C 0.06567 0.37834 0.23822 0.0
C3141 C 0.03312 0.38337 0.25529 0.0
C3142 C 0.08886 0.38482 0.23816 0.0
C3143 C 0.10448 0.40273 0.25568 0.0
C3144 C 0.05777 0.38977 0.25593 0.0
C3145 C 0.09589 0.41333 0.2738 0.0
C3146 C 0.02361 0.39215 0.27483 0.0
C3147 C 0.99623 0.36035 0.23418 0.0
N3148 N 0.07307 0.40674 0.27339 0.0
N3149 N 0.01913 0.36807 0.23544 0.0
H3150 H 0.58125 0.67894 0.28956 0.0
H3151 H 0.66402 0.63982 0.21684 0.0
H3152 H 0.63515 0.71902 0.22935 0.0
H3153 H 0.62259 0.60426 0.28978 0.0
H3154 H 0.64934 0.66628 0.21856 0.0
H3155 H 0.59321 0.64967 0.28894 0.0
C3156 C 0.59572 0.68172 0.27651 0.0
C3157 C 0.60716 0.70144 0.2594 0.0
C3158 C 0.64332 0.65268 0.2342 0.0
C3159 C 0.62052 0.668 0.25822 0.0
C3160 C 0.65161 0.63743 0.23312 0.0
C3161 C 0.64467 0.61989 0.25334 0.0
C3162 C 0.62793 0.65059 0.25573 0.0
C3163 C 0.62837 0.61755 0.27377 0.0
C3164 C 0.60242 0.66498 0.27605 0.0
C3165 C 0.6257 0.7041 0.2428 0.0
N3166 N 0.62064 0.6329 0.2746 0.0
N3167 N 0.63165 0.68757 0.24252 0.0
loop_
_geom_bond_atom_site_label_1
_geom_bond_atom_site_label_2
_geom_bond_distance
_geom_bond_site_symmetry_2
_ccdc_geom_bond_type
C0 O16 1.251 . S
C0 O18 1.254 . S
N1 C2 1.333 . S
N1 C6 1.307 . S
N1 Zn7 2.020 . S
C2 N1 1.333 . S
C2 C3 1.379 . S
C2 H20 0.952 . S
C3 C2 1.379 . S
C3 C4 1.390 . S
C3 H30 0.949 . S
C4 C3 1.390 . S
C4 C5 1.357 . S
C5 C4 1.357 . S
C5 C6 1.370 . S
C5 H31 0.950 . S
C6 N1 1.307 . S
C6 C5 1.370 . S
C6 H24 0.948 . S
Zn7 N1 2.020 . S
Zn7 O16 2.039 . S
Zn7 O22 2.034 . S
Zn7 O26 2.025 . S
Zn7 O28 2.024 . S
C8 O27 1.246 . S
C8 O28 1.249 . S
N9 C10 1.307 . S
N9 C11 1.333 . S
N9 Zn15 2.020 . S
C10 N9 1.307 . S
C10 C14 1.370 . S
C10 H21 0.948 . S
C11 N9 1.333 . S
C11 C12 1.379 . S
C11 H19 0.952 . S
C12 C11 1.379 . S
C12 C13 1.390 . S
C12 H32 0.949 . S
C13 C12 1.390 . S
C13 C14 1.357 . S
C14 C10 1.370 . S
C14 C13 1.357 . S
C14 H33 0.950 . S
Zn15 N9 2.020 . S
Zn15 O18 2.025 . S
Zn15 O23 2.024 . S
Zn15 O25 2.039 . S
Zn15 O27 2.034 . S
O16 C0 1.251 . S
O16 Zn7 2.039 . S
C17 O22 1.246 . S
C17 O23 1.249 . S
O18 C0 1.254 . S
O18 Zn15 2.025 . S
H19 C11 0.952 . S
H20 C2 0.952 . S
H21 C10 0.948 . S
O22 Zn7 2.034 . S
O22 C17 1.246 . S
O23 Zn15 2.024 . S
O23 C17 1.249 . S
H24 C6 0.948 . S
O25 Zn15 2.039 . S
O25 C29 1.251 . S
O26 Zn7 2.025 . S
O26 C29 1.254 . S
O27 C8 1.246 . S
O27 Zn15 2.034 . S
O28 Zn7 2.024 . S
O28 C8 1.249 . S
C29 O25 1.251 . S
C29 O26 1.254 . S
H30 C3 0.949 . S
H31 C5 0.950 . S
H32 C12 0.949 . S
H33 C14 0.950 . S
C34 O50 1.251 . S
C34 O52 1.254 . S
N35 C36 1.333 . S
N35 C40 1.307 . S
N35 Zn41 2.020 . S
C36 N35 1.333 . S
C36 C37 1.379 . S
C36 H54 0.952 . S
C37 C36 1.379 . S
C37 C38 1.390 . S
C37 H64 0.949 . S
C38 C37 1.390 . S
C38 C39 1.357 . S
C39 C38 1.357 . S
C39 C40 1.370 . S
C39 H65 0.950 . S
C40 N35 1.307 . S
C40 C39 1.370 . S
C40 H58 0.948 . S
Zn41 N35 2.020 . S
Zn41 O50 2.039 . S
Zn41 O56 2.034 . S
Zn41 O60 2.025 . S
Zn41 O62 2.024 . S
C42 O61 1.246 . S
C42 O62 1.249 . S
N43 C44 1.307 . S
N43 C45 1.333 . S
N43 Zn49 2.020 1_565 S
C44 N43 1.307 . S
C44 C48 1.370 . S
C44 H55 0.948 . S
C45 N43 1.333 . S
C45 C46 1.379 . S
C45 H53 0.952 . S
C46 C45 1.379 . S
C46 C47 1.390 . S
C46 H66 0.949 . S
C47 C46 1.390 . S
C47 C48 1.357 . S
C48 C44 1.370 . S
C48 C47 1.357 . S
C48 H67 0.950 . S
Zn49 N43 2.020 1_545 S
Zn49 O52 2.025 . S
Zn49 O57 2.024 1_545 S
Zn49 O59 2.039 1_545 S
Zn49 O61 2.034 . S
O50 C34 1.251 . S
O50 Zn41 2.039 . S
C51 O56 1.246 . S
C51 O57 1.249 1_545 S
O52 C34 1.254 . S
O52 Zn49 2.025 . S
H53 C45 0.952 . S
H54 C36 0.952 . S
H55 C44 0.948 . S
O56 Zn41 2.034 . S
O56 C51 1.246 . S
O57 Zn49 2.024 1_565 S
O57 C51 1.249 1_565 S
H58 C40 0.948 . S
O59 Zn49 2.039 1_565 S
O59 C63 1.252 . S
O60 Zn41 2.025 . S
O60 C63 1.252 1_545 S
O61 C42 1.246 . S
O61 Zn49 2.034 . S
O62 Zn41 2.024 . S
O62 C42 1.249 . S
C63 O59 1.252 . S
C63 O60 1.252 1_565 S
H64 C37 0.949 . S
H65 C39 0.950 . S
H66 C46 0.949 . S
H67 C48 0.950 . S
C68 O84 1.251 . S
C68 O86 1.254 . S
N69 C70 1.333 . S
N69 C74 1.307 . S
N69 Zn75 2.020 . S
C70 N69 1.333 . S
C70 C71 1.379 . S
C70 H88 0.952 . S
C71 C70 1.379 . S
C71 C72 1.390 . S
C71 H98 0.949 . S
C72 C71 1.390 . S
C72 C73 1.357 . S
C73 C72 1.357 . S
C73 C74 1.370 . S
C73 H99 0.950 . S
C74 N69 1.307 . S
C74 C73 1.370 . S
C74 H92 0.948 . S
Zn75 N69 2.020 . S
Zn75 O84 2.039 . S
Zn75 O90 2.034 . S
Zn75 O94 2.025 . S
Zn75 O96 2.024 . S
C76 O95 1.246 . S
C76 O96 1.249 . S
N77 C78 1.307 . S
N77 C79 1.333 . S
N77 Zn83 2.020 1_455 S
C78 N77 1.307 . S
C78 C82 1.370 . S
C78 H89 0.948 . S
C79 N77 1.333 . S
C79 C80 1.379 . S
C79 H87 0.952 . S
C80 C79 1.379 . S
C80 C81 1.390 . S
C80 H100 0.949 . S
C81 C80 1.390 . S
C81 C82 1.357 . S
C82 C78 1.370 . S
C82 C81 1.357 . S
C82 H101 0.950 . S
Zn83 N77 2.020 1_655 S
Zn83 O86 2.025 . S
Zn83 O91 2.024 1_655 S
Zn83 O93 2.039 1_655 S
Zn83 O95 2.034 . S
O84 C68 1.251 . S
O84 Zn75 2.039 . S
C85 O90 1.246 . S
C85 O91 1.249 1_655 S
O86 C68 1.254 . S
O86 Zn83 2.025 . S
H87 C79 0.952 . S
H88 C70 0.952 . S
H89 C78 0.948 . S
O90 Zn75 2.034 . S
O90 C85 1.246 . S
O91 Zn83 2.024 1_455 S
O91 C85 1.249 1_455 S
H92 C74 0.948 . S
O93 Zn83 2.039 1_455 S
O93 C97 1.251 . S
O94 Zn75 2.025 . S
O94 C97 1.252 1_655 S
O95 C76 1.246 . S
O95 Zn83 2.034 . S
O96 Zn75 2.024 . S
O96 C76 1.249 . S
C97 O93 1.251 . S
C97 O94 1.252 1_455 S
H98 C71 0.949 . S
H99 C73 0.950 . S
H100 C80 0.949 . S
H101 C82 0.950 . S
C102 O118 1.251 . S
C102 O120 1.254 . S
N103 C104 1.333 . S
N103 C108 1.307 . S
N103 Zn109 2.020 . S
C104 N103 1.333 . S
C104 C105 1.379 . S
C104 H122 0.952 . S
C105 C104 1.379 . S
C105 C106 1.390 . S
C105 H132 0.949 . S
C106 C105 1.390 . S
C106 C107 1.357 . S
C107 C106 1.357 . S
C107 C108 1.370 . S
C107 H133 0.950 . S
C108 N103 1.307 . S
C108 C107 1.370 . S
C108 H126 0.948 . S
Zn109 N103 2.020 . S
Zn109 O118 2.039 . S
Zn109 O124 2.034 . S
Zn109 O128 2.025 . S
Zn109 O130 2.024 . S
C110 O129 1.246 . S
C110 O130 1.249 . S
N111 C112 1.307 . S
N111 C113 1.333 . S
N111 Zn117 2.020 . S
C112 N111 1.307 . S
C112 C116 1.370 . S
C112 H123 0.948 . S
C113 N111 1.333 . S
C113 C114 1.379 . S
C113 H121 0.952 . S
C114 C113 1.379 . S
C114 C115 1.390 . S
C114 H134 0.949 . S
C115 C114 1.390 . S
C115 C116 1.357 . S
C116 C112 1.370 . S
C116 C115 1.357 . S
C116 H135 0.950 . S
Zn117 N111 2.020 . S
Zn117 O120 2.025 . S
Zn117 O125 2.024 . S
Zn117 O127 2.039 . S
Zn117 O129 2.034 . S
O118 C102 1.251 . S
O118 Zn109 2.039 . S
C119 O124 1.246 . S
C119 O125 1.249 . S
O120 C102 1.254 . S
O120 Zn117 2.025 . S
H121 C113 0.952 . S
H122 C104 0.952 . S
H123 C112 0.948 . S
O124 Zn109 2.034 . S
O124 C119 1.246 . S
O125 Zn117 2.024 . S
O125 C119 1.249 . S
H126 C108 0.948 . S
O127 Zn117 2.039 . S
O127 C131 1.251 . S
O128 Zn109 2.025 . S
O128 C131 1.254 . S
O129 C110 1.246 . S
O129 Zn117 2.034 . S
O130 Zn109 2.024 . S
O130 C110 1.249 . S
C131 O127 1.251 . S
C131 O128 1.254 . S
H132 C105 0.949 . S
H133 C107 0.950 . S
H134 C114 0.949 . S
H135 C116 0.950 . S
C136 O152 1.251 . S
C136 O154 1.254 . S
N137 C138 1.333 . S
N137 C142 1.307 . S
N137 Zn143 2.020 . S
C138 N137 1.333 . S
C138 C139 1.379 . S
C138 H156 0.952 . S
C139 C138 1.379 . S
C139 C140 1.390 . S
C139 H166 0.949 . S
C140 C139 1.390 . S
C140 C141 1.357 . S
C141 C140 1.357 . S
C141 C142 1.370 . S
C141 H167 0.950 . S
C142 N137 1.307 . S
C142 C141 1.370 . S
C142 H160 0.948 . S
Zn143 N137 2.020 . S
Zn143 O152 2.039 . S
Zn143 O158 2.034 . S
Zn143 O162 2.025 . S
Zn143 O164 2.024 . S
C144 O163 1.246 . S
C144 O164 1.249 . S
N145 C146 1.307 . S
N145 C147 1.333 . S
N145 Zn151 2.020 . S
C146 N145 1.307 . S
C146 C150 1.370 . S
C146 H157 0.948 . S
C147 N145 1.333 . S
C147 C148 1.379 . S
C147 H155 0.952 . S
C148 C147 1.379 . S
C148 C149 1.390 . S
C148 H168 0.949 . S
C149 C148 1.390 . S
C149 C150 1.357 . S
C150 C146 1.370 . S
C150 C149 1.357 . S
C150 H169 0.950 . S
Zn151 N145 2.020 . S
Zn151 O154 2.025 . S
Zn151 O159 2.024 . S
Zn151 O161 2.039 . S
Zn151 O163 2.034 . S
O152 C136 1.251 . S
O152 Zn143 2.039 . S
C153 O158 1.246 . S
C153 O159 1.249 . S
O154 C136 1.254 . S
O154 Zn151 2.025 . S
H155 C147 0.952 . S
H156 C138 0.952 . S
H157 C146 0.948 . S
O158 Zn143 2.034 . S
O158 C153 1.246 . S
O159 Zn151 2.024 . S
O159 C153 1.249 . S
H160 C142 0.948 . S
O161 Zn151 2.039 . S
O161 C165 1.251 . S
O162 Zn143 2.025 . S
O162 C165 1.254 . S
O163 C144 1.246 . S
O163 Zn151 2.034 . S
O164 Zn143 2.024 . S
O164 C144 1.249 . S
C165 O161 1.251 . S
C165 O162 1.254 . S
H166 C139 0.949 . S
H167 C141 0.950 . S
H168 C148 0.949 . S
H169 C150 0.950 . S
C170 O186 1.251 . S
C170 O188 1.254 . S
N171 C172 1.333 . S
N171 C176 1.307 . S
N171 Zn177 2.020 . S
C172 N171 1.333 . S
C172 C173 1.379 . S
C172 H190 0.952 . S
C173 C172 1.379 . S
C173 C174 1.390 . S
C173 H200 0.949 . S
C174 C173 1.390 . S
C174 C175 1.357 . S
C175 C174 1.357 . S
C175 C176 1.370 . S
C175 H201 0.950 . S
C176 N171 1.307 . S
C176 C175 1.370 . S
C176 H194 0.948 . S
Zn177 N171 2.020 . S
Zn177 O186 2.039 . S
Zn177 O192 2.034 . S
Zn177 O196 2.025 . S
Zn177 O198 2.024 . S
C178 O197 1.246 . S
C178 O198 1.249 . S
N179 C180 1.307 . S
N179 C181 1.333 . S
N179 Zn185 2.020 . S
C180 N179 1.307 . S
C180 C184 1.370 . S
C180 H191 0.948 . S
C181 N179 1.333 . S
C181 C182 1.379 . S
C181 H189 0.952 . S
C182 C181 1.379 . S
C182 C183 1.390 . S
C182 H202 0.949 . S
C183 C182 1.390 . S
C183 C184 1.357 . S
C184 C180 1.370 . S
C184 C183 1.357 . S
C184 H203 0.950 . S
Zn185 N179 2.020 . S
Zn185 O188 2.025 . S
Zn185 O193 2.024 . S
Zn185 O195 2.039 . S
Zn185 O197 2.034 . S
O186 C170 1.251 . S
O186 Zn177 2.039 . S
C187 O192 1.246 . S
C187 O193 1.249 . S
O188 C170 1.254 . S
O188 Zn185 2.025 . S
H189 C181 0.952 . S
H190 C172 0.952 . S
H191 C180 0.948 . S
O192 Zn177 2.034 . S
O192 C187 1.246 . S
O193 Zn185 2.024 . S
O193 C187 1.249 . S
H194 C176 0.948 . S
O195 Zn185 2.039 . S
O195 C199 1.251 . S
O196 Zn177 2.025 . S
O196 C199 1.254 . S
O197 C178 1.246 . S
O197 Zn185 2.034 . S
O198 Zn177 2.024 . S
O198 C178 1.249 . S
C199 O195 1.251 . S
C199 O196 1.254 . S
H200 C173 0.949 . S
H201 C175 0.950 . S
H202 C182 0.949 . S
H203 C184 0.950 . S
C204 O220 1.251 . S
C204 O222 1.254 . S
N205 C206 1.333 . S
N205 C210 1.307 . S
N205 Zn211 2.020 . S
C206 N205 1.333 . S
C206 C207 1.379 . S
C206 H224 0.952 . S
C207 C206 1.379 . S
C207 C208 1.390 . S
C207 H234 0.949 . S
C208 C207 1.390 . S
C208 C209 1.357 . S
C209 C208 1.357 . S
C209 C210 1.370 . S
C209 H235 0.950 . S
C210 N205 1.307 . S
C210 C209 1.370 . S
C210 H228 0.948 . S
Zn211 N205 2.020 . S
Zn211 O220 2.039 . S
Zn211 O226 2.034 . S
Zn211 O230 2.025 . S
Zn211 O232 2.024 . S
C212 O231 1.246 . S
C212 O232 1.249 . S
N213 C214 1.307 . S
N213 C215 1.333 . S
N213 Zn219 2.020 . S
C214 N213 1.307 . S
C214 C218 1.370 . S
C214 H225 0.948 . S
C215 N213 1.333 . S
C215 C216 1.379 . S
C215 H223 0.952 . S
C216 C215 1.379 . S
C216 C217 1.390 . S
C216 H236 0.949 . S
C217 C216 1.390 . S
C217 C218 1.357 . S
C218 C214 1.370 . S
C218 C217 1.357 . S
C218 H237 0.950 . S
Zn219 N213 2.020 . S
Zn219 O222 2.025 . S
Zn219 O227 2.024 . S
Zn219 O229 2.039 . S
Zn219 O231 2.034 . S
O220 C204 1.251 . S
O220 Zn211 2.039 . S
C221 O226 1.246 . S
C221 O227 1.249 . S
O222 C204 1.254 . S
O222 Zn219 2.025 . S
H223 C215 0.952 . S
H224 C206 0.952 . S
H225 C214 0.948 . S
O226 Zn211 2.034 . S
O226 C221 1.246 . S
O227 Zn219 2.024 . S
O227 C221 1.249 . S
H228 C210 0.948 . S
O229 Zn219 2.039 . S
O229 C233 1.251 . S
O230 Zn211 2.025 . S
O230 C233 1.254 . S
O231 C212 1.246 . S
O231 Zn219 2.034 . S
O232 Zn211 2.024 . S
O232 C212 1.249 . S
C233 O229 1.251 . S
C233 O230 1.254 . S
H234 C207 0.949 . S
H235 C209 0.950 . S
H236 C216 0.949 . S
H237 C218 0.950 . S
C238 O254 1.252 . S
C238 O256 1.252 1_545 S
N239 C240 1.333 . S
N239 C244 1.307 . S
N239 Zn245 2.020 1_545 S
C240 N239 1.333 . S
C240 C241 1.379 . S
C240 H258 0.952 . S
C241 C240 1.379 . S
C241 C242 1.390 . S
C241 H268 0.949 . S
C242 C241 1.390 . S
C242 C243 1.357 . S
C243 C242 1.357 . S
C243 C244 1.370 . S
C243 H269 0.950 . S
C244 N239 1.307 . S
C244 C243 1.370 . S
C244 H262 0.948 . S
Zn245 N239 2.020 1_565 S
Zn245 O254 2.039 1_565 S
Zn245 O260 2.034 . S
Zn245 O264 2.025 . S
Zn245 O266 2.024 1_565 S
C246 O265 1.246 . S
C246 O266 1.249 1_565 S
N247 C248 1.307 . S
N247 C249 1.333 . S
N247 Zn253 2.020 . S
C248 N247 1.307 . S
C248 C252 1.370 . S
C248 H259 0.948 . S
C249 N247 1.333 . S
C249 C250 1.379 . S
C249 H257 0.952 . S
C250 C249 1.379 . S
C250 C251 1.390 . S
C250 H270 0.949 . S
C251 C250 1.390 . S
C251 C252 1.357 . S
C252 C248 1.370 . S
C252 C251 1.357 . S
C252 H271 0.950 . S
Zn253 N247 2.020 . S
Zn253 O256 2.025 . S
Zn253 O261 2.024 . S
Zn253 O263 2.039 . S
Zn253 O265 2.034 . S
O254 C238 1.252 . S
O254 Zn245 2.039 1_545 S
C255 O260 1.246 . S
C255 O261 1.249 . S
O256 C238 1.252 1_565 S
O256 Zn253 2.025 . S
H257 C249 0.952 . S
H258 C240 0.952 . S
H259 C248 0.948 . S
O260 Zn245 2.034 . S
O260 C255 1.246 . S
O261 Zn253 2.024 . S
O261 C255 1.249 . S
H262 C244 0.948 . S
O263 Zn253 2.039 . S
O263 C267 1.251 . S
O264 Zn245 2.025 . S
O264 C267 1.254 . S
O265 C246 1.246 . S
O265 Zn253 2.034 . S
O266 Zn245 2.024 1_545 S
O266 C246 1.249 1_545 S
C267 O263 1.251 . S
C267 O264 1.254 . S
H268 C241 0.949 . S
H269 C243 0.950 . S
H270 C250 0.949 . S
H271 C252 0.950 . S
C272 O288 1.251 . S
C272 O290 1.252 1_655 S
N273 C274 1.333 . S
N273 C278 1.307 . S
N273 Zn279 2.020 1_655 S
C274 N273 1.333 . S
C274 C275 1.379 . S
C274 H292 0.952 . S
C275 C274 1.379 . S
C275 C276 1.390 . S
C275 H302 0.949 . S
C276 C275 1.390 . S
C276 C277 1.357 . S
C277 C276 1.357 . S
C277 C278 1.370 . S
C277 H303 0.950 . S
C278 N273 1.307 . S
C278 C277 1.370 . S
C278 H296 0.948 . S
Zn279 N273 2.020 1_455 S
Zn279 O288 2.039 1_455 S
Zn279 O294 2.034 . S
Zn279 O298 2.025 . S
Zn279 O300 2.024 1_455 S
C280 O299 1.246 . S
C280 O300 1.249 1_455 S
N281 C282 1.307 . S
N281 C283 1.333 . S
N281 Zn287 2.020 . S
C282 N281 1.307 . S
C282 C286 1.370 . S
C282 H293 0.948 . S
C283 N281 1.333 . S
C283 C284 1.379 . S
C283 H291 0.952 . S
C284 C283 1.379 . S
C284 C285 1.390 . S
C284 H304 0.949 . S
C285 C284 1.390 . S
C285 C286 1.357 . S
C286 C282 1.370 . S
C286 C285 1.357 . S
C286 H305 0.950 . S
Zn287 N281 2.020 . S
Zn287 O290 2.025 . S
Zn287 O295 2.024 . S
Zn287 O297 2.039 . S
Zn287 O299 2.034 . S
O288 C272 1.251 . S
O288 Zn279 2.039 1_655 S
C289 O294 1.246 . S
C289 O295 1.249 . S
O290 C272 1.252 1_455 S
O290 Zn287 2.025 . S
H291 C283 0.952 . S
H292 C274 0.952 . S
H293 C282 0.948 . S
O294 Zn279 2.034 . S
O294 C289 1.246 . S
O295 Zn287 2.024 . S
O295 C289 1.249 . S
H296 C278 0.948 . S
O297 Zn287 2.039 . S
O297 C301 1.251 . S
O298 Zn279 2.025 . S
O298 C301 1.254 . S
O299 C280 1.246 . S
O299 Zn287 2.034 . S
O300 Zn279 2.024 1_655 S
O300 C280 1.249 1_655 S
C301 O297 1.251 . S
C301 O298 1.254 . S
H302 C275 0.949 . S
H303 C277 0.950 . S
H304 C284 0.949 . S
H305 C286 0.950 . S
C306 O322 1.251 . S
C306 O324 1.254 . S
N307 C308 1.333 . S
N307 C312 1.307 . S
N307 Zn313 2.020 . S
C308 N307 1.333 . S
C308 C309 1.379 . S
C308 H326 0.952 . S
C309 C308 1.379 . S
C309 C310 1.390 . S
C309 H336 0.949 . S
C310 C309 1.390 . S
C310 C311 1.357 . S
C311 C310 1.357 . S
C311 C312 1.370 . S
C311 H337 0.950 . S
C312 N307 1.307 . S
C312 C311 1.370 . S
C312 H330 0.948 . S
Zn313 N307 2.020 . S
Zn313 O322 2.039 . S
Zn313 O328 2.034 . S
Zn313 O332 2.025 . S
Zn313 O334 2.024 . S
C314 O333 1.246 . S
C314 O334 1.249 . S
N315 C316 1.307 . S
N315 C317 1.333 . S
N315 Zn321 2.020 . S
C316 N315 1.307 . S
C316 C320 1.370 . S
C316 H327 0.948 . S
C317 N315 1.333 . S
C317 C318 1.379 . S
C317 H325 0.952 . S
C318 C317 1.379 . S
C318 C319 1.390 . S
C318 H338 0.949 . S
C319 C318 1.390 . S
C319 C320 1.357 . S
C320 C316 1.370 . S
C320 C319 1.357 . S
C320 H339 0.950 . S
Zn321 N315 2.020 . S
Zn321 O324 2.025 . S
Zn321 O329 2.024 . S
Zn321 O331 2.039 . S
Zn321 O333 2.034 . S
O322 C306 1.251 . S
O322 Zn313 2.039 . S
C323 O328 1.246 . S
C323 O329 1.249 . S
O324 C306 1.254 . S
O324 Zn321 2.025 . S
H325 C317 0.952 . S
H326 C308 0.952 . S
H327 C316 0.948 . S
O328 Zn313 2.034 . S
O328 C323 1.246 . S
O329 Zn321 2.024 . S
O329 C323 1.249 . S
H330 C312 0.948 . S
O331 Zn321 2.039 . S
O331 C335 1.251 . S
O332 Zn313 2.025 . S
O332 C335 1.254 . S
O333 C314 1.246 . S
O333 Zn321 2.034 . S
O334 Zn313 2.024 . S
O334 C314 1.249 . S
C335 O331 1.251 . S
C335 O332 1.254 . S
H336 C309 0.949 . S
H337 C311 0.950 . S
H338 C318 0.949 . S
H339 C320 0.950 . S
C340 O356 1.251 . S
C340 O358 1.254 . S
N341 C342 1.333 . S
N341 C346 1.307 . S
N341 Zn347 2.020 . S
C342 N341 1.333 . S
C342 C343 1.379 . S
C342 H360 0.952 . S
C343 C342 1.379 . S
C343 C344 1.390 . S
C343 H370 0.949 . S
C344 C343 1.390 . S
C344 C345 1.357 . S
C345 C344 1.357 . S
C345 C346 1.370 . S
C345 H371 0.950 . S
C346 N341 1.307 . S
C346 C345 1.370 . S
C346 H364 0.948 . S
Zn347 N341 2.020 . S
Zn347 O356 2.039 . S
Zn347 O362 2.034 . S
Zn347 O366 2.025 . S
Zn347 O368 2.024 . S
C348 O367 1.246 . S
C348 O368 1.249 . S
N349 C350 1.307 . S
N349 C351 1.333 . S
N349 Zn355 2.020 . S
C350 N349 1.307 . S
C350 C354 1.370 . S
C350 H361 0.948 . S
C351 N349 1.333 . S
C351 C352 1.379 . S
C351 H359 0.952 . S
C352 C351 1.379 . S
C352 C353 1.390 . S
C352 H372 0.949 . S
C353 C352 1.390 . S
C353 C354 1.357 . S
C354 C350 1.370 . S
C354 C353 1.357 . S
C354 H373 0.950 . S
Zn355 N349 2.020 . S
Zn355 O358 2.025 . S
Zn355 O363 2.024 . S
Zn355 O365 2.039 . S
Zn355 O367 2.034 . S
O356 C340 1.251 . S
O356 Zn347 2.039 . S
C357 O362 1.246 . S
C357 O363 1.249 . S
O358 C340 1.254 . S
O358 Zn355 2.025 . S
H359 C351 0.952 . S
H360 C342 0.952 . S
H361 C350 0.948 . S
O362 Zn347 2.034 . S
O362 C357 1.246 . S
O363 Zn355 2.024 . S
O363 C357 1.249 . S
H364 C346 0.948 . S
O365 Zn355 2.039 . S
O365 C369 1.251 . S
O366 Zn347 2.025 . S
O366 C369 1.254 . S
O367 C348 1.246 . S
O367 Zn355 2.034 . S
O368 Zn347 2.024 . S
O368 C348 1.249 . S
C369 O365 1.251 . S
C369 O366 1.254 . S
H370 C343 0.949 . S
H371 C345 0.950 . S
H372 C352 0.949 . S
H373 C354 0.950 . S
C374 O390 1.251 . S
C374 O392 1.254 . S
N375 C376 1.333 . S
N375 C380 1.307 . S
N375 Zn381 2.020 . S
C376 N375 1.333 . S
C376 C377 1.379 . S
C376 H394 0.952 . S
C377 C376 1.379 . S
C377 C378 1.390 . S
C377 H404 0.949 . S
C378 C377 1.390 . S
C378 C379 1.357 . S
C379 C378 1.357 . S
C379 C380 1.370 . S
C379 H405 0.950 . S
C380 N375 1.307 . S
C380 C379 1.370 . S
C380 H398 0.948 . S
Zn381 N375 2.020 . S
Zn381 O390 2.039 . S
Zn381 O396 2.034 . S
Zn381 O400 2.025 . S
Zn381 O402 2.024 . S
C382 O401 1.246 . S
C382 O402 1.249 . S
N383 C384 1.307 . S
N383 C385 1.333 . S
N383 Zn389 2.020 . S
C384 N383 1.307 . S
C384 C388 1.370 . S
C384 H395 0.948 . S
C385 N383 1.333 . S
C385 C386 1.379 . S
C385 H393 0.952 . S
C386 C385 1.379 . S
C386 C387 1.390 . S
C386 H406 0.949 . S
C387 C386 1.390 . S
C387 C388 1.357 . S
C388 C384 1.370 . S
C388 C387 1.357 . S
C388 H407 0.950 . S
Zn389 N383 2.020 . S
Zn389 O392 2.025 . S
Zn389 O397 2.024 . S
Zn389 O399 2.039 . S
Zn389 O401 2.034 . S
O390 C374 1.251 . S
O390 Zn381 2.039 . S
C391 O396 1.246 . S
C391 O397 1.249 . S
O392 C374 1.254 . S
O392 Zn389 2.025 . S
H393 C385 0.952 . S
H394 C376 0.952 . S
H395 C384 0.948 . S
O396 Zn381 2.034 . S
O396 C391 1.246 . S
O397 Zn389 2.024 . S
O397 C391 1.249 . S
H398 C380 0.948 . S
O399 Zn389 2.039 . S
O399 C403 1.251 . S
O400 Zn381 2.025 . S
O400 C403 1.254 . S
O401 C382 1.246 . S
O401 Zn389 2.034 . S
O402 Zn381 2.024 . S
O402 C382 1.249 . S
C403 O399 1.251 . S
C403 O400 1.254 . S
H404 C377 0.949 . S
H405 C379 0.950 . S
H406 C386 0.949 . S
H407 C388 0.950 . S
C408 O424 1.251 . S
C408 O426 1.254 . S
N409 C410 1.333 . S
N409 C414 1.307 . S
N409 Zn415 2.020 . S
C410 N409 1.333 . S
C410 C411 1.379 . S
C410 H428 0.952 . S
C411 C410 1.379 . S
C411 C412 1.390 . S
C411 H438 0.949 . S
C412 C411 1.390 . S
C412 C413 1.357 . S
C413 C412 1.357 . S
C413 C414 1.370 . S
C413 H439 0.955 1_655 S
C414 N409 1.307 . S
C414 C413 1.370 . S
C414 H432 0.948 . S
Zn415 N409 2.020 . S
Zn415 O424 2.039 . S
Zn415 O430 2.034 . S
Zn415 O434 2.025 . S
Zn415 O436 2.024 . S
C416 O435 1.246 . S
C416 O436 1.249 . S
N417 C418 1.307 . S
N417 C419 1.333 . S
N417 Zn423 2.020 . S
C418 N417 1.307 . S
C418 C422 1.370 . S
C418 H429 0.948 . S
C419 N417 1.333 . S
C419 C420 1.379 . S
C419 H427 0.952 . S
C420 C419 1.379 . S
C420 C421 1.390 . S
C420 H440 0.949 . S
C421 C420 1.390 . S
C421 C422 1.357 . S
C422 C418 1.370 . S
C422 C421 1.357 . S
C422 H441 0.950 . S
Zn423 N417 2.020 . S
Zn423 O426 2.025 . S
Zn423 O431 2.024 . S
Zn423 O433 2.039 . S
Zn423 O435 2.034 . S
O424 C408 1.251 . S
O424 Zn415 2.039 . S
C425 O430 1.246 . S
C425 O431 1.249 . S
O426 C408 1.254 . S
O426 Zn423 2.025 . S
H427 C419 0.952 . S
H428 C410 0.952 . S
H429 C418 0.948 . S
O430 Zn415 2.034 . S
O430 C425 1.246 . S
O431 Zn423 2.024 . S
O431 C425 1.249 . S
H432 C414 0.948 . S
O433 Zn423 2.039 . S
O433 C437 1.251 . S
O434 Zn415 2.025 . S
O434 C437 1.254 . S
O435 C416 1.246 . S
O435 Zn423 2.034 . S
O436 Zn415 2.024 . S
O436 C416 1.249 . S
C437 O433 1.251 . S
C437 O434 1.254 . S
H438 C411 0.949 . S
H439 C413 0.955 1_455 S
H440 C420 0.949 . S
H441 C422 0.950 . S
C442 O458 1.251 . S
C442 O460 1.254 . S
N443 C444 1.333 . S
N443 C448 1.307 . S
N443 Zn449 2.020 . S
C444 N443 1.333 . S
C444 C445 1.379 . S
C444 H462 0.952 . S
C445 C444 1.379 . S
C445 C446 1.390 . S
C445 H472 0.949 . S
C446 C445 1.390 . S
C446 C447 1.357 . S
C447 C446 1.357 . S
C447 C448 1.370 . S
C447 H473 0.950 . S
C448 N443 1.307 . S
C448 C447 1.370 . S
C448 H466 0.948 . S
Zn449 N443 2.020 . S
Zn449 O458 2.039 . S
Zn449 O464 2.034 . S
Zn449 O468 2.025 . S
Zn449 O470 2.024 . S
C450 O469 1.246 . S
C450 O470 1.249 . S
N451 C452 1.307 . S
N451 C453 1.333 . S
N451 Zn457 2.020 . S
C452 N451 1.307 . S
C452 C456 1.370 . S
C452 H463 0.948 . S
C453 N451 1.333 . S
C453 C454 1.379 . S
C453 H461 0.952 . S
C454 C453 1.379 . S
C454 C455 1.390 . S
C454 H474 0.949 . S
C455 C454 1.390 . S
C455 C456 1.357 . S
C456 C452 1.370 . S
C456 C455 1.357 . S
C456 H475 0.950 . S
Zn457 N451 2.020 . S
Zn457 O460 2.025 . S
Zn457 O465 2.024 . S
Zn457 O467 2.039 . S
Zn457 O469 2.034 . S
O458 C442 1.251 . S
O458 Zn449 2.039 . S
C459 O464 1.246 . S
C459 O465 1.249 . S
O460 C442 1.254 . S
O460 Zn457 2.025 . S
H461 C453 0.952 . S
H462 C444 0.952 . S
H463 C452 0.948 . S
O464 Zn449 2.034 . S
O464 C459 1.246 . S
O465 Zn457 2.024 . S
O465 C459 1.249 . S
H466 C448 0.948 . S
O467 Zn457 2.039 . S
O467 C471 1.251 . S
O468 Zn449 2.025 . S
O468 C471 1.254 . S
O469 C450 1.246 . S
O469 Zn457 2.034 . S
O470 Zn449 2.024 . S
O470 C450 1.249 . S
C471 O467 1.251 . S
C471 O468 1.254 . S
H472 C445 0.949 . S
H473 C447 0.950 . S
H474 C454 0.949 . S
H475 C456 0.950 . S
C476 O492 1.251 . S
C476 O494 1.254 . S
N477 C478 1.333 . S
N477 C482 1.307 . S
N477 Zn483 2.020 . S
C478 N477 1.333 . S
C478 C479 1.379 . S
C478 H496 0.952 . S
C479 C478 1.379 . S
C479 C480 1.390 . S
C479 H506 0.949 . S
C480 C479 1.390 . S
C480 C481 1.357 . S
C481 C480 1.357 . S
C481 C482 1.370 . S
C481 H507 0.944 . S
C482 N477 1.307 . S
C482 C481 1.370 . S
C482 H500 0.948 . S
Zn483 N477 2.020 . S
Zn483 O492 2.039 . S
Zn483 O498 2.034 . S
Zn483 O502 2.025 . S
Zn483 O504 2.024 . S
C484 O503 1.246 . S
C484 O504 1.249 . S
N485 C486 1.307 . S
N485 C487 1.333 . S
N485 Zn491 2.020 . S
C486 N485 1.307 . S
C486 C490 1.370 . S
C486 H497 0.948 . S
C487 N485 1.333 . S
C487 C488 1.379 . S
C487 H495 0.952 . S
C488 C487 1.379 . S
C488 C489 1.390 . S
C488 H508 0.949 . S
C489 C488 1.390 . S
C489 C490 1.357 . S
C490 C486 1.370 . S
C490 C489 1.357 . S
C490 H509 0.950 . S
Zn491 N485 2.020 . S
Zn491 O494 2.025 . S
Zn491 O499 2.024 . S
Zn491 O501 2.039 . S
Zn491 O503 2.034 . S
O492 C476 1.251 . S
O492 Zn483 2.039 . S
C493 O498 1.246 . S
C493 O499 1.249 . S
O494 C476 1.254 . S
O494 Zn491 2.025 . S
H495 C487 0.952 . S
H496 C478 0.952 . S
H497 C486 0.948 . S
O498 Zn483 2.034 . S
O498 C493 1.246 . S
O499 Zn491 2.024 . S
O499 C493 1.249 . S
H500 C482 0.948 . S
O501 Zn491 2.039 . S
O501 C505 1.251 . S
O502 Zn483 2.025 . S
O502 C505 1.254 . S
O503 C484 1.246 . S
O503 Zn491 2.034 . S
O504 Zn483 2.024 . S
O504 C484 1.249 . S
C505 O501 1.251 . S
C505 O502 1.254 . S
H506 C479 0.949 . S
H507 C481 0.944 . S
H508 C488 0.949 . S
H509 C490 0.950 . S
C510 O526 1.251 . S
C510 O528 1.254 . S
N511 C512 1.333 . S
N511 C516 1.307 . S
N511 Zn517 2.020 . S
C512 N511 1.333 . S
C512 C513 1.379 . S
C512 H530 0.952 . S
C513 C512 1.379 . S
C513 C514 1.390 . S
C513 H540 0.949 . S
C514 C513 1.390 . S
C514 C515 1.357 . S
C515 C514 1.357 . S
C515 C516 1.370 . S
C515 H541 0.950 . S
C516 N511 1.307 . S
C516 C515 1.370 . S
C516 H534 0.948 . S
Zn517 N511 2.020 . S
Zn517 O526 2.039 . S
Zn517 O532 2.034 . S
Zn517 O536 2.025 . S
Zn517 O538 2.024 . S
C518 O537 1.246 . S
C518 O538 1.249 . S
N519 C520 1.307 . S
N519 C521 1.333 . S
N519 Zn525 2.020 . S
C520 N519 1.307 . S
C520 C524 1.370 . S
C520 H531 0.948 . S
C521 N519 1.333 . S
C521 C522 1.379 . S
C521 H529 0.952 . S
C522 C521 1.379 . S
C522 C523 1.390 . S
C522 H542 0.949 . S
C523 C522 1.390 . S
C523 C524 1.357 . S
C524 C520 1.370 . S
C524 C523 1.357 . S
C524 H543 0.950 . S
Zn525 N519 2.020 . S
Zn525 O528 2.025 . S
Zn525 O533 2.024 . S
Zn525 O535 2.039 . S
Zn525 O537 2.034 . S
O526 C510 1.251 . S
O526 Zn517 2.039 . S
C527 O532 1.246 . S
C527 O533 1.249 . S
O528 C510 1.254 . S
O528 Zn525 2.025 . S
H529 C521 0.952 . S
H530 C512 0.952 . S
H531 C520 0.948 . S
O532 Zn517 2.034 . S
O532 C527 1.246 . S
O533 Zn525 2.024 . S
O533 C527 1.249 . S
H534 C516 0.948 . S
O535 Zn525 2.039 . S
O535 C539 1.251 . S
O536 Zn517 2.025 . S
O536 C539 1.254 . S
O537 C518 1.246 . S
O537 Zn525 2.034 . S
O538 Zn517 2.024 . S
O538 C518 1.249 . S
C539 O535 1.251 . S
C539 O536 1.254 . S
H540 C513 0.949 . S
H541 C515 0.950 . S
H542 C522 0.949 . S
H543 C524 0.950 . S
C544 O560 1.251 . S
C544 O562 1.254 . S
N545 C546 1.333 . S
N545 C550 1.307 . S
N545 Zn551 2.020 . S
C546 N545 1.333 . S
C546 C547 1.379 . S
C546 H564 0.952 . S
C547 C546 1.379 . S
C547 C548 1.390 . S
C547 H574 0.949 . S
C548 C547 1.390 . S
C548 C549 1.357 . S
C549 C548 1.357 . S
C549 C550 1.370 . S
C549 H575 0.950 . S
C550 N545 1.307 . S
C550 C549 1.370 . S
C550 H568 0.948 . S
Zn551 N545 2.020 . S
Zn551 O560 2.039 . S
Zn551 O566 2.034 . S
Zn551 O570 2.025 . S
Zn551 O572 2.024 . S
C552 O571 1.246 . S
C552 O572 1.249 . S
N553 C554 1.307 . S
N553 C555 1.333 . S
N553 Zn559 2.020 . S
C554 N553 1.307 . S
C554 C558 1.370 . S
C554 H565 0.948 . S
C555 N553 1.333 . S
C555 C556 1.379 . S
C555 H563 0.952 . S
C556 C555 1.379 . S
C556 C557 1.390 . S
C556 H576 0.949 . S
C557 C556 1.390 . S
C557 C558 1.357 . S
C558 C554 1.370 . S
C558 C557 1.357 . S
C558 H577 0.950 . S
Zn559 N553 2.020 . S
Zn559 O562 2.025 . S
Zn559 O567 2.024 . S
Zn559 O569 2.039 . S
Zn559 O571 2.034 . S
O560 C544 1.251 . S
O560 Zn551 2.039 . S
C561 O566 1.246 . S
C561 O567 1.249 . S
O562 C544 1.254 . S
O562 Zn559 2.025 . S
H563 C555 0.952 . S
H564 C546 0.952 . S
H565 C554 0.948 . S
O566 Zn551 2.034 . S
O566 C561 1.246 . S
O567 Zn559 2.024 . S
O567 C561 1.249 . S
H568 C550 0.948 . S
O569 Zn559 2.039 . S
O569 C573 1.251 . S
O570 Zn551 2.025 . S
O570 C573 1.254 . S
O571 C552 1.246 . S
O571 Zn559 2.034 . S
O572 Zn551 2.024 . S
O572 C552 1.249 . S
C573 O569 1.251 . S
C573 O570 1.254 . S
H574 C547 0.949 . S
H575 C549 0.950 . S
H576 C556 0.949 . S
H577 C558 0.950 . S
C578 O594 1.251 . S
C578 O596 1.254 . S
N579 C580 1.333 . S
N579 C584 1.307 . S
N579 Zn585 2.020 . S
C580 N579 1.333 . S
C580 C581 1.379 . S
C580 H598 0.952 . S
C581 C580 1.379 . S
C581 C582 1.390 . S
C581 H608 0.949 . S
C582 C581 1.390 . S
C582 C583 1.357 . S
C583 C582 1.357 . S
C583 C584 1.370 . S
C583 H609 0.950 . S
C584 N579 1.307 . S
C584 C583 1.370 . S
C584 H602 0.948 . S
Zn585 N579 2.020 . S
Zn585 O594 2.039 . S
Zn585 O600 2.034 . S
Zn585 O604 2.025 . S
Zn585 O606 2.024 . S
C586 O605 1.246 . S
C586 O606 1.249 . S
N587 C588 1.307 . S
N587 C589 1.333 . S
N587 Zn593 2.020 . S
C588 N587 1.307 . S
C588 C592 1.370 . S
C588 H599 0.948 . S
C589 N587 1.333 . S
C589 C590 1.379 . S
C589 H597 0.952 . S
C590 C589 1.379 . S
C590 C591 1.390 . S
C590 H610 0.949 . S
C591 C590 1.390 . S
C591 C592 1.357 . S
C592 C588 1.370 . S
C592 C591 1.357 . S
C592 H611 0.950 . S
Zn593 N587 2.020 . S
Zn593 O596 2.025 . S
Zn593 O601 2.024 . S
Zn593 O603 2.039 . S
Zn593 O605 2.034 . S
O594 C578 1.251 . S
O594 Zn585 2.039 . S
C595 O600 1.246 . S
C595 O601 1.249 . S
O596 C578 1.254 . S
O596 Zn593 2.025 . S
H597 C589 0.952 . S
H598 C580 0.952 . S
H599 C588 0.948 . S
O600 Zn585 2.034 . S
O600 C595 1.246 . S
O601 Zn593 2.024 . S
O601 C595 1.249 . S
H602 C584 0.948 . S
O603 Zn593 2.039 . S
O603 C607 1.251 . S
O604 Zn585 2.025 . S
O604 C607 1.254 . S
O605 C586 1.246 . S
O605 Zn593 2.034 . S
O606 Zn585 2.024 . S
O606 C586 1.249 . S
C607 O603 1.251 . S
C607 O604 1.254 . S
H608 C581 0.949 . S
H609 C583 0.950 . S
H610 C590 0.949 . S
H611 C592 0.950 . S
C612 O628 1.251 . S
C612 O630 1.254 . S
N613 C614 1.333 . S
N613 C618 1.307 . S
N613 Zn619 2.020 . S
C614 N613 1.333 . S
C614 C615 1.379 . S
C614 H632 0.952 . S
C615 C614 1.379 . S
C615 C616 1.390 . S
C615 H642 0.949 . S
C616 C615 1.390 . S
C616 C617 1.357 . S
C617 C616 1.357 . S
C617 C618 1.370 . S
C617 H643 0.950 . S
C618 N613 1.307 . S
C618 C617 1.370 . S
C618 H636 0.948 . S
Zn619 N613 2.020 . S
Zn619 O628 2.039 . S
Zn619 O634 2.034 . S
Zn619 O638 2.025 . S
Zn619 O640 2.024 . S
C620 O639 1.246 . S
C620 O640 1.249 . S
N621 C622 1.307 . S
N621 C623 1.333 . S
N621 Zn627 2.020 . S
C622 N621 1.307 . S
C622 C626 1.370 . S
C622 H633 0.948 . S
C623 N621 1.333 . S
C623 C624 1.379 . S
C623 H631 0.952 . S
C624 C623 1.379 . S
C624 C625 1.390 . S
C624 H644 0.949 . S
C625 C624 1.390 . S
C625 C626 1.357 . S
C626 C622 1.370 . S
C626 C625 1.357 . S
C626 H645 0.950 . S
Zn627 N621 2.020 . S
Zn627 O630 2.025 . S
Zn627 O635 2.024 . S
Zn627 O637 2.039 . S
Zn627 O639 2.034 . S
O628 C612 1.251 . S
O628 Zn619 2.039 . S
C629 O634 1.246 . S
C629 O635 1.249 . S
O630 C612 1.254 . S
O630 Zn627 2.025 . S
H631 C623 0.952 . S
H632 C614 0.952 . S
H633 C622 0.948 . S
O634 Zn619 2.034 . S
O634 C629 1.246 . S
O635 Zn627 2.024 . S
O635 C629 1.249 . S
H636 C618 0.948 . S
O637 Zn627 2.039 . S
O637 C641 1.251 . S
O638 Zn619 2.025 . S
O638 C641 1.254 . S
O639 C620 1.246 . S
O639 Zn627 2.034 . S
O640 Zn619 2.024 . S
O640 C620 1.249 . S
C641 O637 1.251 . S
C641 O638 1.254 . S
H642 C615 0.949 . S
H643 C617 0.950 . S
H644 C624 0.949 . S
H645 C626 0.950 . S
C646 O662 1.251 . S
C646 O664 1.254 . S
N647 C648 1.333 . S
N647 C652 1.307 . S
N647 Zn653 2.020 . S
C648 N647 1.333 . S
C648 C649 1.379 . S
C648 H666 0.952 . S
C649 C648 1.379 . S
C649 C650 1.390 . S
C649 H676 0.949 . S
C650 C649 1.390 . S
C650 C651 1.357 . S
C651 C650 1.357 . S
C651 C652 1.370 . S
C651 H677 0.950 . S
C652 N647 1.307 . S
C652 C651 1.370 . S
C652 H670 0.948 . S
Zn653 N647 2.020 . S
Zn653 O662 2.039 . S
Zn653 O668 2.034 . S
Zn653 O672 2.025 . S
Zn653 O674 2.024 . S
C654 O673 1.246 . S
C654 O674 1.249 . S
N655 C656 1.307 . S
N655 C657 1.333 . S
N655 Zn661 2.020 . S
C656 N655 1.307 . S
C656 C660 1.370 . S
C656 H667 0.948 . S
C657 N655 1.333 . S
C657 C658 1.379 . S
C657 H665 0.952 . S
C658 C657 1.379 . S
C658 C659 1.390 . S
C658 H678 0.949 . S
C659 C658 1.390 . S
C659 C660 1.357 . S
C660 C656 1.370 . S
C660 C659 1.357 . S
C660 H679 0.950 . S
Zn661 N655 2.020 . S
Zn661 O664 2.025 . S
Zn661 O669 2.024 . S
Zn661 O671 2.039 . S
Zn661 O673 2.034 . S
O662 C646 1.251 . S
O662 Zn653 2.039 . S
C663 O668 1.246 . S
C663 O669 1.249 . S
O664 C646 1.254 . S
O664 Zn661 2.025 . S
H665 C657 0.952 . S
H666 C648 0.952 . S
H667 C656 0.948 . S
O668 Zn653 2.034 . S
O668 C663 1.246 . S
O669 Zn661 2.024 . S
O669 C663 1.249 . S
H670 C652 0.948 . S
O671 Zn661 2.039 . S
O671 C675 1.251 . S
O672 Zn653 2.025 . S
O672 C675 1.254 . S
O673 C654 1.246 . S
O673 Zn661 2.034 . S
O674 Zn653 2.024 . S
O674 C654 1.249 . S
C675 O671 1.251 . S
C675 O672 1.254 . S
H676 C649 0.949 . S
H677 C651 0.950 . S
H678 C658 0.949 . S
H679 C660 0.950 . S
C680 O696 1.251 . S
C680 O698 1.254 . S
N681 C682 1.333 . S
N681 C686 1.307 . S
N681 Zn687 2.020 . S
C682 N681 1.333 . S
C682 C683 1.379 . S
C682 H700 0.952 . S
C683 C682 1.379 . S
C683 C684 1.390 . S
C683 H710 0.949 . S
C684 C683 1.390 . S
C684 C685 1.357 . S
C685 C684 1.357 . S
C685 C686 1.370 . S
C685 H711 0.950 . S
C686 N681 1.307 . S
C686 C685 1.370 . S
C686 H704 0.948 . S
Zn687 N681 2.020 . S
Zn687 O696 2.039 . S
Zn687 O702 2.034 . S
Zn687 O706 2.025 . S
Zn687 O708 2.024 . S
C688 O707 1.246 . S
C688 O708 1.249 . S
N689 C690 1.307 . S
N689 C691 1.333 . S
N689 Zn695 2.020 . S
C690 N689 1.307 . S
C690 C694 1.370 . S
C690 H701 0.948 . S
C691 N689 1.333 . S
C691 C692 1.379 . S
C691 H699 0.952 . S
C692 C691 1.379 . S
C692 C693 1.390 . S
C692 H712 0.949 . S
C693 C692 1.390 . S
C693 C694 1.357 . S
C694 C690 1.370 . S
C694 C693 1.357 . S
C694 H713 0.950 . S
Zn695 N689 2.020 . S
Zn695 O698 2.025 . S
Zn695 O703 2.024 . S
Zn695 O705 2.039 . S
Zn695 O707 2.034 . S
O696 C680 1.251 . S
O696 Zn687 2.039 . S
C697 O702 1.246 . S
C697 O703 1.249 . S
O698 C680 1.254 . S
O698 Zn695 2.025 . S
H699 C691 0.952 . S
H700 C682 0.952 . S
H701 C690 0.948 . S
O702 Zn687 2.034 . S
O702 C697 1.246 . S
O703 Zn695 2.024 . S
O703 C697 1.249 . S
H704 C686 0.948 . S
O705 Zn695 2.039 . S
O705 C709 1.251 . S
O706 Zn687 2.025 . S
O706 C709 1.254 . S
O707 C688 1.246 . S
O707 Zn695 2.034 . S
O708 Zn687 2.024 . S
O708 C688 1.249 . S
C709 O705 1.251 . S
C709 O706 1.254 . S
H710 C683 0.949 . S
H711 C685 0.950 . S
H712 C692 0.949 . S
H713 C694 0.950 . S
C714 O730 1.251 . S
C714 O732 1.254 . S
N715 C716 1.333 . S
N715 C720 1.307 . S
N715 Zn721 2.020 . S
C716 N715 1.333 . S
C716 C717 1.379 . S
C716 H734 0.952 . S
C717 C716 1.379 . S
C717 C718 1.390 . S
C717 H744 0.949 . S
C718 C717 1.390 . S
C718 C719 1.357 . S
C719 C718 1.357 . S
C719 C720 1.370 . S
C719 H745 0.950 . S
C720 N715 1.307 . S
C720 C719 1.370 . S
C720 H738 0.948 . S
Zn721 N715 2.020 . S
Zn721 O730 2.039 . S
Zn721 O736 2.034 . S
Zn721 O740 2.025 . S
Zn721 O742 2.024 . S
C722 O741 1.246 . S
C722 O742 1.249 . S
N723 C724 1.307 . S
N723 C725 1.333 . S
N723 Zn729 2.020 . S
C724 N723 1.307 . S
C724 C728 1.370 . S
C724 H735 0.948 . S
C725 N723 1.333 . S
C725 C726 1.379 1_556 S
C725 H733 0.952 . S
C726 C725 1.379 1_554 S
C726 C727 1.390 . S
C726 H746 0.949 . S
C727 C726 1.390 . S
C727 C728 1.357 1_554 S
C728 C724 1.370 . S
C728 C727 1.357 1_556 S
C728 H747 0.950 . S
Zn729 N723 2.020 . S
Zn729 O732 2.025 . S
Zn729 O737 2.024 . S
Zn729 O739 2.039 . S
Zn729 O741 2.034 . S
O730 C714 1.251 . S
O730 Zn721 2.039 . S
C731 O736 1.246 . S
C731 O737 1.249 . S
O732 C714 1.254 . S
O732 Zn729 2.025 . S
H733 C725 0.952 . S
H734 C716 0.952 . S
H735 C724 0.948 . S
O736 Zn721 2.034 . S
O736 C731 1.246 . S
O737 Zn729 2.024 . S
O737 C731 1.249 . S
H738 C720 0.948 . S
O739 Zn729 2.039 . S
O739 C743 1.251 . S
O740 Zn721 2.025 . S
O740 C743 1.254 . S
O741 C722 1.246 . S
O741 Zn729 2.034 . S
O742 Zn721 2.024 . S
O742 C722 1.249 . S
C743 O739 1.251 . S
C743 O740 1.254 . S
H744 C717 0.949 . S
H745 C719 0.950 . S
H746 C726 0.949 . S
H747 C728 0.950 . S
C748 O764 1.251 . S
C748 O766 1.254 . S
N749 C750 1.333 . S
N749 C754 1.307 . S
N749 Zn755 2.020 . S
C750 N749 1.333 . S
C750 C751 1.379 . S
C750 H768 0.952 . S
C751 C750 1.379 . S
C751 C752 1.390 . S
C751 H778 0.949 . S
C752 C751 1.390 . S
C752 C753 1.357 . S
C753 C752 1.357 . S
C753 C754 1.370 . S
C753 H779 0.950 . S
C754 N749 1.307 . S
C754 C753 1.370 . S
C754 H772 0.948 . S
Zn755 N749 2.020 . S
Zn755 O764 2.039 . S
Zn755 O770 2.034 . S
Zn755 O774 2.025 . S
Zn755 O776 2.024 . S
C756 O775 1.246 . S
C756 O776 1.249 . S
N757 C758 1.307 . S
N757 C759 1.333 . S
N757 Zn763 2.020 . S
C758 N757 1.307 . S
C758 C762 1.370 . S
C758 H769 0.948 . S
C759 N757 1.333 . S
C759 C760 1.379 1_556 S
C759 H767 0.952 . S
C760 C759 1.379 1_554 S
C760 C761 1.390 . S
C760 H780 0.949 . S
C761 C760 1.390 . S
C761 C762 1.357 1_554 S
C762 C758 1.370 . S
C762 C761 1.357 1_556 S
C762 H781 0.950 . S
Zn763 N757 2.020 . S
Zn763 O766 2.025 . S
Zn763 O771 2.024 . S
Zn763 O773 2.039 . S
Zn763 O775 2.034 . S
O764 C748 1.251 . S
O764 Zn755 2.039 . S
C765 O770 1.246 . S
C765 O771 1.249 . S
O766 C748 1.254 . S
O766 Zn763 2.025 . S
H767 C759 0.952 . S
H768 C750 0.952 . S
H769 C758 0.948 . S
O770 Zn755 2.034 . S
O770 C765 1.246 . S
O771 Zn763 2.024 . S
O771 C765 1.249 . S
H772 C754 0.948 . S
O773 Zn763 2.039 . S
O773 C777 1.251 . S
O774 Zn755 2.025 . S
O774 C777 1.254 . S
O775 C756 1.246 . S
O775 Zn763 2.034 . S
O776 Zn755 2.024 . S
O776 C756 1.249 . S
C777 O773 1.251 . S
C777 O774 1.254 . S
H778 C751 0.949 . S
H779 C753 0.950 . S
H780 C760 0.949 . S
H781 C762 0.950 . S
C782 O798 1.251 . S
C782 O800 1.254 . S
N783 C784 1.333 . S
N783 C788 1.307 . S
N783 Zn789 2.020 . S
C784 N783 1.333 . S
C784 C785 1.379 . S
C784 H802 0.952 . S
C785 C784 1.379 . S
C785 C786 1.390 . S
C785 H812 0.949 . S
C786 C785 1.390 . S
C786 C787 1.357 . S
C787 C786 1.357 . S
C787 C788 1.370 . S
C787 H813 0.950 . S
C788 N783 1.307 . S
C788 C787 1.370 . S
C788 H806 0.948 . S
Zn789 N783 2.020 . S
Zn789 O798 2.039 . S
Zn789 O804 2.034 . S
Zn789 O808 2.025 . S
Zn789 O810 2.024 . S
C790 O809 1.246 . S
C790 O810 1.249 . S
N791 C792 1.307 . S
N791 C793 1.333 . S
N791 Zn797 2.020 . S
C792 N791 1.307 . S
C792 C796 1.370 . S
C792 H803 0.948 . S
C793 N791 1.333 . S
C793 C794 1.379 1_556 S
C793 H801 0.952 . S
C794 C793 1.379 1_554 S
C794 C795 1.390 . S
C794 H814 0.949 . S
C795 C794 1.390 . S
C795 C796 1.357 1_554 S
C796 C792 1.370 . S
C796 C795 1.357 1_556 S
C796 H815 0.950 . S
Zn797 N791 2.020 . S
Zn797 O800 2.025 . S
Zn797 O805 2.024 . S
Zn797 O807 2.039 . S
Zn797 O809 2.034 . S
O798 C782 1.251 . S
O798 Zn789 2.039 . S
C799 O804 1.246 . S
C799 O805 1.249 . S
O800 C782 1.254 . S
O800 Zn797 2.025 . S
H801 C793 0.952 . S
H802 C784 0.952 . S
H803 C792 0.948 . S
O804 Zn789 2.034 . S
O804 C799 1.246 . S
O805 Zn797 2.024 . S
O805 C799 1.249 . S
H806 C788 0.948 . S
O807 Zn797 2.039 . S
O807 C811 1.251 . S
O808 Zn789 2.025 . S
O808 C811 1.254 . S
O809 C790 1.246 . S
O809 Zn797 2.034 . S
O810 Zn789 2.024 . S
O810 C790 1.249 . S
C811 O807 1.251 . S
C811 O808 1.254 . S
H812 C785 0.949 . S
H813 C787 0.950 . S
H814 C794 0.949 . S
H815 C796 0.950 . S
C816 O832 1.251 . S
C816 O834 1.254 . S
N817 C818 1.333 . S
N817 C822 1.307 . S
N817 Zn823 2.020 . S
C818 N817 1.333 . S
C818 C819 1.379 . S
C818 H836 0.952 . S
C819 C818 1.379 . S
C819 C820 1.390 . S
C819 H846 0.949 . S
C820 C819 1.390 . S
C820 C821 1.357 . S
C821 C820 1.357 . S
C821 C822 1.370 . S
C821 H847 0.950 . S
C822 N817 1.307 . S
C822 C821 1.370 . S
C822 H840 0.948 . S
Zn823 N817 2.020 . S
Zn823 O832 2.039 . S
Zn823 O838 2.034 . S
Zn823 O842 2.025 . S
Zn823 O844 2.024 . S
C824 O843 1.246 . S
C824 O844 1.249 . S
N825 C826 1.307 . S
N825 C827 1.333 . S
N825 Zn831 2.020 . S
C826 N825 1.307 . S
C826 C830 1.370 . S
C826 H837 0.948 . S
C827 N825 1.333 . S
C827 C828 1.379 . S
C827 H835 0.952 . S
C828 C827 1.379 . S
C828 C829 1.390 . S
C828 H848 0.949 . S
C829 C828 1.390 . S
C829 C830 1.357 . S
C830 C826 1.370 . S
C830 C829 1.357 . S
C830 H849 0.950 . S
Zn831 N825 2.020 . S
Zn831 O834 2.025 . S
Zn831 O839 2.024 . S
Zn831 O841 2.039 . S
Zn831 O843 2.034 . S
O832 C816 1.251 . S
O832 Zn823 2.039 . S
C833 O838 1.246 . S
C833 O839 1.249 . S
O834 C816 1.254 . S
O834 Zn831 2.025 . S
H835 C827 0.952 . S
H836 C818 0.952 . S
H837 C826 0.948 . S
O838 Zn823 2.034 . S
O838 C833 1.246 . S
O839 Zn831 2.024 . S
O839 C833 1.249 . S
H840 C822 0.948 . S
O841 Zn831 2.039 . S
O841 C845 1.251 . S
O842 Zn823 2.025 . S
O842 C845 1.254 . S
O843 C824 1.246 . S
O843 Zn831 2.034 . S
O844 Zn823 2.024 . S
O844 C824 1.249 . S
C845 O841 1.251 . S
C845 O842 1.254 . S
H846 C819 0.949 . S
H847 C821 0.950 . S
H848 C828 0.949 . S
H849 C830 0.950 . S
C850 O866 1.251 . S
C850 O868 1.254 . S
N851 C852 1.333 . S
N851 C856 1.307 . S
N851 Zn857 2.020 . S
C852 N851 1.333 . S
C852 C853 1.379 . S
C852 H870 0.952 . S
C853 C852 1.379 . S
C853 C854 1.390 . S
C853 H880 0.949 . S
C854 C853 1.390 . S
C854 C855 1.357 . S
C855 C854 1.357 . S
C855 C856 1.370 . S
C855 H881 0.950 . S
C856 N851 1.307 . S
C856 C855 1.370 . S
C856 H874 0.948 . S
Zn857 N851 2.020 . S
Zn857 O866 2.039 . S
Zn857 O872 2.034 . S
Zn857 O876 2.025 . S
Zn857 O878 2.024 . S
C858 O877 1.246 . S
C858 O878 1.249 . S
N859 C860 1.307 . S
N859 C861 1.333 . S
N859 Zn865 2.020 . S
C860 N859 1.307 . S
C860 C864 1.370 . S
C860 H871 0.948 . S
C861 N859 1.333 . S
C861 C862 1.379 . S
C861 H869 0.952 . S
C862 C861 1.379 . S
C862 C863 1.390 . S
C862 H882 0.949 . S
C863 C862 1.390 . S
C863 C864 1.357 . S
C864 C860 1.370 . S
C864 C863 1.357 . S
C864 H883 0.950 . S
Zn865 N859 2.020 . S
Zn865 O868 2.025 . S
Zn865 O873 2.024 . S
Zn865 O875 2.039 . S
Zn865 O877 2.034 . S
O866 C850 1.251 . S
O866 Zn857 2.039 . S
C867 O872 1.246 . S
C867 O873 1.249 . S
O868 C850 1.254 . S
O868 Zn865 2.025 . S
H869 C861 0.952 . S
H870 C852 0.952 . S
H871 C860 0.948 . S
O872 Zn857 2.034 . S
O872 C867 1.246 . S
O873 Zn865 2.024 . S
O873 C867 1.249 . S
H874 C856 0.948 . S
O875 Zn865 2.039 . S
O875 C879 1.251 . S
O876 Zn857 2.025 . S
O876 C879 1.254 . S
O877 C858 1.246 . S
O877 Zn865 2.034 . S
O878 Zn857 2.024 . S
O878 C858 1.249 . S
C879 O875 1.251 . S
C879 O876 1.254 . S
H880 C853 0.949 . S
H881 C855 0.950 . S
H882 C862 0.949 . S
H883 C864 0.950 . S
C884 O900 1.251 . S
C884 O902 1.254 . S
N885 C886 1.333 . S
N885 C890 1.307 . S
N885 Zn891 2.020 . S
C886 N885 1.333 . S
C886 C887 1.379 . S
C886 H904 0.952 . S
C887 C886 1.379 . S
C887 C888 1.390 . S
C887 H914 0.949 . S
C888 C887 1.390 . S
C888 C889 1.357 . S
C889 C888 1.357 . S
C889 C890 1.370 . S
C889 H915 0.950 . S
C890 N885 1.307 . S
C890 C889 1.370 . S
C890 H908 0.948 . S
Zn891 N885 2.020 . S
Zn891 O900 2.039 . S
Zn891 O906 2.034 . S
Zn891 O910 2.025 . S
Zn891 O912 2.024 . S
C892 O911 1.246 . S
C892 O912 1.249 . S
N893 C894 1.307 . S
N893 C895 1.333 . S
N893 Zn899 2.020 . S
C894 N893 1.307 . S
C894 C898 1.370 . S
C894 H905 0.948 . S
C895 N893 1.333 . S
C895 C896 1.379 . S
C895 H903 0.952 . S
C896 C895 1.379 . S
C896 C897 1.390 . S
C896 H916 0.949 . S
C897 C896 1.390 . S
C897 C898 1.357 . S
C898 C894 1.370 . S
C898 C897 1.357 . S
C898 H917 0.950 . S
Zn899 N893 2.020 . S
Zn899 O902 2.025 . S
Zn899 O907 2.024 . S
Zn899 O909 2.039 . S
Zn899 O911 2.034 . S
O900 C884 1.251 . S
O900 Zn891 2.039 . S
C901 O906 1.246 . S
C901 O907 1.249 . S
O902 C884 1.254 . S
O902 Zn899 2.025 . S
H903 C895 0.952 . S
H904 C886 0.952 . S
H905 C894 0.948 . S
O906 Zn891 2.034 . S
O906 C901 1.246 . S
O907 Zn899 2.024 . S
O907 C901 1.249 . S
H908 C890 0.948 . S
O909 Zn899 2.039 . S
O909 C913 1.251 . S
O910 Zn891 2.025 . S
O910 C913 1.254 . S
O911 C892 1.246 . S
O911 Zn899 2.034 . S
O912 Zn891 2.024 . S
O912 C892 1.249 . S
C913 O909 1.251 . S
C913 O910 1.254 . S
H914 C887 0.949 . S
H915 C889 0.950 . S
H916 C896 0.949 . S
H917 C898 0.950 . S
C918 O934 1.251 . S
C918 O936 1.254 . S
N919 C920 1.333 . S
N919 C924 1.307 . S
N919 Zn925 2.020 . S
C920 N919 1.333 . S
C920 C921 1.379 1_554 S
C920 H938 0.952 . S
C921 C920 1.379 1_556 S
C921 C922 1.390 . S
C921 H948 0.949 . S
C922 C921 1.390 . S
C922 C923 1.357 1_556 S
C923 C922 1.357 1_554 S
C923 C924 1.370 . S
C923 H949 0.950 . S
C924 N919 1.307 . S
C924 C923 1.370 . S
C924 H942 0.948 . S
Zn925 N919 2.020 . S
Zn925 O934 2.039 . S
Zn925 O940 2.034 . S
Zn925 O944 2.025 . S
Zn925 O946 2.024 . S
C926 O945 1.246 . S
C926 O946 1.249 . S
N927 C928 1.307 . S
N927 C929 1.333 . S
N927 Zn933 2.020 . S
C928 N927 1.307 . S
C928 C932 1.370 . S
C928 H939 0.948 . S
C929 N927 1.333 . S
C929 C930 1.379 . S
C929 H937 0.952 . S
C930 C929 1.379 . S
C930 C931 1.390 . S
C930 H950 0.949 . S
C931 C930 1.390 . S
C931 C932 1.357 . S
C932 C928 1.370 . S
C932 C931 1.357 . S
C932 H951 0.950 . S
Zn933 N927 2.020 . S
Zn933 O936 2.025 . S
Zn933 O941 2.024 . S
Zn933 O943 2.039 . S
Zn933 O945 2.034 . S
O934 C918 1.251 . S
O934 Zn925 2.039 . S
C935 O940 1.246 . S
C935 O941 1.249 . S
O936 C918 1.254 . S
O936 Zn933 2.025 . S
H937 C929 0.952 . S
H938 C920 0.952 . S
H939 C928 0.948 . S
O940 Zn925 2.034 . S
O940 C935 1.246 . S
O941 Zn933 2.024 . S
O941 C935 1.249 . S
H942 C924 0.948 . S
O943 Zn933 2.039 . S
O943 C947 1.251 . S
O944 Zn925 2.025 . S
O944 C947 1.254 . S
O945 C926 1.246 . S
O945 Zn933 2.034 . S
O946 Zn925 2.024 . S
O946 C926 1.249 . S
C947 O943 1.251 . S
C947 O944 1.254 . S
H948 C921 0.949 . S
H949 C923 0.950 . S
H950 C930 0.949 . S
H951 C932 0.950 . S
C952 O968 1.251 . S
C952 O970 1.254 . S
N953 C954 1.333 . S
N953 C958 1.307 . S
N953 Zn959 2.020 . S
C954 N953 1.333 . S
C954 C955 1.379 1_554 S
C954 H972 0.952 . S
C955 C954 1.379 1_556 S
C955 C956 1.390 . S
C955 H982 0.949 . S
C956 C955 1.390 . S
C956 C957 1.357 1_556 S
C957 C956 1.357 1_554 S
C957 C958 1.370 . S
C957 H983 0.950 . S
C958 N953 1.307 . S
C958 C957 1.370 . S
C958 H976 0.948 . S
Zn959 N953 2.020 . S
Zn959 O968 2.039 . S
Zn959 O974 2.034 . S
Zn959 O978 2.025 . S
Zn959 O980 2.024 . S
C960 O979 1.246 . S
C960 O980 1.249 . S
N961 C962 1.307 . S
N961 C963 1.333 . S
N961 Zn967 2.020 . S
C962 N961 1.307 . S
C962 C966 1.370 . S
C962 H973 0.948 . S
C963 N961 1.333 . S
C963 C964 1.379 . S
C963 H971 0.952 . S
C964 C963 1.379 . S
C964 C965 1.390 . S
C964 H984 0.949 . S
C965 C964 1.390 . S
C965 C966 1.357 . S
C966 C962 1.370 . S
C966 C965 1.357 . S
C966 H985 0.950 . S
Zn967 N961 2.020 . S
Zn967 O970 2.025 . S
Zn967 O975 2.024 . S
Zn967 O977 2.039 . S
Zn967 O979 2.034 . S
O968 C952 1.251 . S
O968 Zn959 2.039 . S
C969 O974 1.246 . S
C969 O975 1.249 . S
O970 C952 1.254 . S
O970 Zn967 2.025 . S
H971 C963 0.952 . S
H972 C954 0.952 . S
H973 C962 0.948 . S
O974 Zn959 2.034 . S
O974 C969 1.246 . S
O975 Zn967 2.024 . S
O975 C969 1.249 . S
H976 C958 0.948 . S
O977 Zn967 2.039 . S
O977 C981 1.251 . S
O978 Zn959 2.025 . S
O978 C981 1.254 . S
O979 C960 1.246 . S
O979 Zn967 2.034 . S
O980 Zn959 2.024 . S
O980 C960 1.249 . S
C981 O977 1.251 . S
C981 O978 1.254 . S
H982 C955 0.949 . S
H983 C957 0.950 . S
H984 C964 0.949 . S
H985 C966 0.950 . S
C986 O1002 1.251 . S
C986 O1004 1.254 . S
N987 C988 1.333 . S
N987 C992 1.307 . S
N987 Zn993 2.020 . S
C988 N987 1.333 . S
C988 C989 1.379 1_554 S
C988 H1006 0.952 . S
C989 C988 1.379 1_556 S
C989 C990 1.390 . S
C989 H1016 0.949 . S
C990 C989 1.390 . S
C990 C991 1.357 1_556 S
C991 C990 1.357 1_554 S
C991 C992 1.370 . S
C991 H1017 0.950 . S
C992 N987 1.307 . S
C992 C991 1.370 . S
C992 H1010 0.948 . S
Zn993 N987 2.020 . S
Zn993 O1002 2.039 . S
Zn993 O1008 2.034 . S
Zn993 O1012 2.025 . S
Zn993 O1014 2.024 . S
C994 O1013 1.246 . S
C994 O1014 1.249 . S
N995 C996 1.307 . S
N995 C997 1.333 . S
N995 Zn1001 2.020 . S
C996 N995 1.307 . S
C996 C1000 1.370 . S
C996 H1007 0.948 . S
C997 N995 1.333 . S
C997 C998 1.379 . S
C997 H1005 0.952 . S
C998 C997 1.379 . S
C998 C999 1.390 . S
C998 H1018 0.949 . S
C999 C998 1.390 . S
C999 C1000 1.357 . S
C1000 C996 1.370 . S
C1000 C999 1.357 . S
C1000 H1019 0.950 . S
Zn1001 N995 2.020 . S
Zn1001 O1004 2.025 . S
Zn1001 O1009 2.024 . S
Zn1001 O1011 2.039 . S
Zn1001 O1013 2.034 . S
O1002 C986 1.251 . S
O1002 Zn993 2.039 . S
C1003 O1008 1.246 . S
C1003 O1009 1.249 . S
O1004 C986 1.254 . S
O1004 Zn1001 2.025 . S
H1005 C997 0.952 . S
H1006 C988 0.952 . S
H1007 C996 0.948 . S
O1008 Zn993 2.034 . S
O1008 C1003 1.246 . S
O1009 Zn1001 2.024 . S
O1009 C1003 1.249 . S
H1010 C992 0.948 . S
O1011 Zn1001 2.039 . S
O1011 C1015 1.251 . S
O1012 Zn993 2.025 . S
O1012 C1015 1.254 . S
O1013 C994 1.246 . S
O1013 Zn1001 2.034 . S
O1014 Zn993 2.024 . S
O1014 C994 1.249 . S
C1015 O1011 1.251 . S
C1015 O1012 1.254 . S
H1016 C989 0.949 . S
H1017 C991 0.950 . S
H1018 C998 0.949 . S
H1019 C1000 0.950 . S
C1020 O1036 1.251 . S
C1020 O1038 1.254 . S
N1021 C1022 1.333 . S
N1021 C1026 1.307 . S
N1021 Zn1027 2.020 . S
C1022 N1021 1.333 . S
C1022 C1023 1.379 . S
C1022 H1040 0.952 . S
C1023 C1022 1.379 . S
C1023 C1024 1.390 . S
C1023 H1050 0.949 . S
C1024 C1023 1.390 . S
C1024 C1025 1.357 . S
C1025 C1024 1.357 . S
C1025 C1026 1.370 . S
C1025 H1051 0.950 . S
C1026 N1021 1.307 . S
C1026 C1025 1.370 . S
C1026 H1044 0.948 . S
Zn1027 N1021 2.020 . S
Zn1027 O1036 2.039 . S
Zn1027 O1042 2.034 . S
Zn1027 O1046 2.025 . S
Zn1027 O1048 2.024 . S
C1028 O1047 1.246 . S
C1028 O1048 1.249 . S
N1029 C1030 1.307 . S
N1029 C1031 1.333 . S
N1029 Zn1035 2.020 . S
C1030 N1029 1.307 . S
C1030 C1034 1.370 . S
C1030 H1041 0.948 . S
C1031 N1029 1.333 . S
C1031 C1032 1.379 . S
C1031 H1039 0.952 . S
C1032 C1031 1.379 . S
C1032 C1033 1.390 . S
C1032 H1052 0.949 . S
C1033 C1032 1.390 . S
C1033 C1034 1.357 . S
C1034 C1030 1.370 . S
C1034 C1033 1.357 . S
C1034 H1053 0.955 1_455 S
Zn1035 N1029 2.020 . S
Zn1035 O1038 2.025 . S
Zn1035 O1043 2.024 . S
Zn1035 O1045 2.039 . S
Zn1035 O1047 2.034 . S
O1036 C1020 1.251 . S
O1036 Zn1027 2.039 . S
C1037 O1042 1.246 . S
C1037 O1043 1.249 . S
O1038 C1020 1.254 . S
O1038 Zn1035 2.025 . S
H1039 C1031 0.952 . S
H1040 C1022 0.952 . S
H1041 C1030 0.948 . S
O1042 Zn1027 2.034 . S
O1042 C1037 1.246 . S
O1043 Zn1035 2.024 . S
O1043 C1037 1.249 . S
H1044 C1026 0.948 . S
O1045 Zn1035 2.039 . S
O1045 C1049 1.251 . S
O1046 Zn1027 2.025 . S
O1046 C1049 1.254 . S
O1047 C1028 1.246 . S
O1047 Zn1035 2.034 . S
O1048 Zn1027 2.024 . S
O1048 C1028 1.249 . S
C1049 O1045 1.251 . S
C1049 O1046 1.254 . S
H1050 C1023 0.949 . S
H1051 C1025 0.950 . S
H1052 C1032 0.949 . S
H1053 C1034 0.955 1_655 S
C1054 O1070 1.251 . S
C1054 O1072 1.254 . S
N1055 C1056 1.333 . S
N1055 C1060 1.307 . S
N1055 Zn1061 2.020 . S
C1056 N1055 1.333 . S
C1056 C1057 1.379 . S
C1056 H1074 0.952 . S
C1057 C1056 1.379 . S
C1057 C1058 1.390 . S
C1057 H1084 0.949 . S
C1058 C1057 1.390 . S
C1058 C1059 1.357 . S
C1059 C1058 1.357 . S
C1059 C1060 1.370 . S
C1059 H1085 0.950 . S
C1060 N1055 1.307 . S
C1060 C1059 1.370 . S
C1060 H1078 0.948 . S
Zn1061 N1055 2.020 . S
Zn1061 O1070 2.039 . S
Zn1061 O1076 2.034 . S
Zn1061 O1080 2.025 . S
Zn1061 O1082 2.024 . S
C1062 O1081 1.246 . S
C1062 O1082 1.249 . S
N1063 C1064 1.307 . S
N1063 C1065 1.333 . S
N1063 Zn1069 2.020 . S
C1064 N1063 1.307 . S
C1064 C1068 1.370 . S
C1064 H1075 0.948 . S
C1065 N1063 1.333 . S
C1065 C1066 1.379 . S
C1065 H1073 0.952 . S
C1066 C1065 1.379 . S
C1066 C1067 1.390 . S
C1066 H1086 0.949 . S
C1067 C1066 1.390 . S
C1067 C1068 1.357 . S
C1068 C1064 1.370 . S
C1068 C1067 1.357 . S
C1068 H1087 0.950 . S
Zn1069 N1063 2.020 . S
Zn1069 O1072 2.025 . S
Zn1069 O1077 2.024 . S
Zn1069 O1079 2.039 . S
Zn1069 O1081 2.034 . S
O1070 C1054 1.251 . S
O1070 Zn1061 2.039 . S
C1071 O1076 1.246 . S
C1071 O1077 1.249 . S
O1072 C1054 1.254 . S
O1072 Zn1069 2.025 . S
H1073 C1065 0.952 . S
H1074 C1056 0.952 . S
H1075 C1064 0.948 . S
O1076 Zn1061 2.034 . S
O1076 C1071 1.246 . S
O1077 Zn1069 2.024 . S
O1077 C1071 1.249 . S
H1078 C1060 0.948 . S
O1079 Zn1069 2.039 . S
O1079 C1083 1.251 . S
O1080 Zn1061 2.025 . S
O1080 C1083 1.254 . S
O1081 C1062 1.246 . S
O1081 Zn1069 2.034 . S
O1082 Zn1061 2.024 . S
O1082 C1062 1.249 . S
C1083 O1079 1.251 . S
C1083 O1080 1.254 . S
H1084 C1057 0.949 . S
H1085 C1059 0.950 . S
H1086 C1066 0.949 . S
H1087 C1068 0.950 . S
C1088 O1104 1.251 . S
C1088 O1106 1.254 . S
N1089 C1090 1.333 . S
N1089 C1094 1.307 . S
N1089 Zn1095 2.020 . S
C1090 N1089 1.333 . S
C1090 C1091 1.379 . S
C1090 H1108 0.952 . S
C1091 C1090 1.379 . S
C1091 C1092 1.390 . S
C1091 H1118 0.949 . S
C1092 C1091 1.390 . S
C1092 C1093 1.357 . S
C1093 C1092 1.357 . S
C1093 C1094 1.370 . S
C1093 H1119 0.950 . S
C1094 N1089 1.307 . S
C1094 C1093 1.370 . S
C1094 H1112 0.948 . S
Zn1095 N1089 2.020 . S
Zn1095 O1104 2.039 . S
Zn1095 O1110 2.034 . S
Zn1095 O1114 2.025 . S
Zn1095 O1116 2.024 . S
C1096 O1115 1.246 . S
C1096 O1116 1.249 . S
N1097 C1098 1.307 . S
N1097 C1099 1.333 . S
N1097 Zn1103 2.020 . S
C1098 N1097 1.307 . S
C1098 C1102 1.370 . S
C1098 H1109 0.948 . S
C1099 N1097 1.333 . S
C1099 C1100 1.379 . S
C1099 H1107 0.952 . S
C1100 C1099 1.379 . S
C1100 C1101 1.390 . S
C1100 H1120 0.949 . S
C1101 C1100 1.390 . S
C1101 C1102 1.357 . S
C1102 C1098 1.370 . S
C1102 C1101 1.357 . S
C1102 H1121 0.944 . S
Zn1103 N1097 2.020 . S
Zn1103 O1106 2.025 . S
Zn1103 O1111 2.024 . S
Zn1103 O1113 2.039 . S
Zn1103 O1115 2.034 . S
O1104 C1088 1.251 . S
O1104 Zn1095 2.039 . S
C1105 O1110 1.246 . S
C1105 O1111 1.249 . S
O1106 C1088 1.254 . S
O1106 Zn1103 2.025 . S
H1107 C1099 0.952 . S
H1108 C1090 0.952 . S
H1109 C1098 0.948 . S
O1110 Zn1095 2.034 . S
O1110 C1105 1.246 . S
O1111 Zn1103 2.024 . S
O1111 C1105 1.249 . S
H1112 C1094 0.948 . S
O1113 Zn1103 2.039 . S
O1113 C1117 1.251 . S
O1114 Zn1095 2.025 . S
O1114 C1117 1.254 . S
O1115 C1096 1.246 . S
O1115 Zn1103 2.034 . S
O1116 Zn1095 2.024 . S
O1116 C1096 1.249 . S
C1117 O1113 1.251 . S
C1117 O1114 1.254 . S
H1118 C1091 0.949 . S
H1119 C1093 0.950 . S
H1120 C1100 0.949 . S
H1121 C1102 0.944 . S
C1122 O1138 1.251 . S
C1122 O1140 1.254 . S
N1123 C1124 1.333 . S
N1123 C1128 1.307 . S
N1123 Zn1129 2.020 . S
C1124 N1123 1.333 . S
C1124 C1125 1.379 . S
C1124 H1142 0.952 . S
C1125 C1124 1.379 . S
C1125 C1126 1.390 . S
C1125 H1152 0.949 . S
C1126 C1125 1.390 . S
C1126 C1127 1.357 . S
C1127 C1126 1.357 . S
C1127 C1128 1.370 . S
C1127 H1153 0.950 . S
C1128 N1123 1.307 . S
C1128 C1127 1.370 . S
C1128 H1146 0.948 . S
Zn1129 N1123 2.020 . S
Zn1129 O1138 2.039 . S
Zn1129 O1144 2.034 . S
Zn1129 O1148 2.025 . S
Zn1129 O1150 2.024 . S
C1130 O1149 1.246 . S
C1130 O1150 1.249 . S
N1131 C1132 1.307 . S
N1131 C1133 1.333 . S
N1131 Zn1137 2.020 . S
C1132 N1131 1.307 . S
C1132 C1136 1.370 . S
C1132 H1143 0.948 . S
C1133 N1131 1.333 . S
C1133 C1134 1.379 . S
C1133 H1141 0.952 . S
C1134 C1133 1.379 . S
C1134 C1135 1.390 . S
C1134 H1154 0.949 . S
C1135 C1134 1.390 . S
C1135 C1136 1.357 . S
C1136 C1132 1.370 . S
C1136 C1135 1.357 . S
C1136 H1155 0.950 . S
Zn1137 N1131 2.020 . S
Zn1137 O1140 2.025 . S
Zn1137 O1145 2.024 . S
Zn1137 O1147 2.039 . S
Zn1137 O1149 2.034 . S
O1138 C1122 1.251 . S
O1138 Zn1129 2.039 . S
C1139 O1144 1.246 . S
C1139 O1145 1.249 . S
O1140 C1122 1.254 . S
O1140 Zn1137 2.025 . S
H1141 C1133 0.952 . S
H1142 C1124 0.952 . S
H1143 C1132 0.948 . S
O1144 Zn1129 2.034 . S
O1144 C1139 1.246 . S
O1145 Zn1137 2.024 . S
O1145 C1139 1.249 . S
H1146 C1128 0.948 . S
O1147 Zn1137 2.039 . S
O1147 C1151 1.251 . S
O1148 Zn1129 2.025 . S
O1148 C1151 1.254 . S
O1149 C1130 1.246 . S
O1149 Zn1137 2.034 . S
O1150 Zn1129 2.024 . S
O1150 C1130 1.249 . S
C1151 O1147 1.251 . S
C1151 O1148 1.254 . S
H1152 C1125 0.949 . S
H1153 C1127 0.950 . S
H1154 C1134 0.949 . S
H1155 C1136 0.950 . S
C1156 O1172 1.251 . S
C1156 O1174 1.254 . S
N1157 C1158 1.333 . S
N1157 C1162 1.307 . S
N1157 Zn1163 2.020 . S
C1158 N1157 1.333 . S
C1158 C1159 1.379 . S
C1158 H1176 0.952 . S
C1159 C1158 1.379 . S
C1159 C1160 1.390 . S
C1159 H1186 0.949 . S
C1160 C1159 1.390 . S
C1160 C1161 1.357 . S
C1161 C1160 1.357 . S
C1161 C1162 1.370 . S
C1161 H1187 0.950 . S
C1162 N1157 1.307 . S
C1162 C1161 1.370 . S
C1162 H1180 0.948 . S
Zn1163 N1157 2.020 . S
Zn1163 O1172 2.039 . S
Zn1163 O1178 2.034 . S
Zn1163 O1182 2.025 . S
Zn1163 O1184 2.024 . S
C1164 O1183 1.246 . S
C1164 O1184 1.249 . S
N1165 C1166 1.307 . S
N1165 C1167 1.333 . S
N1165 Zn1171 2.020 . S
C1166 N1165 1.307 . S
C1166 C1170 1.370 . S
C1166 H1177 0.948 . S
C1167 N1165 1.333 . S
C1167 C1168 1.379 . S
C1167 H1175 0.952 . S
C1168 C1167 1.379 . S
C1168 C1169 1.390 . S
C1168 H1188 0.949 . S
C1169 C1168 1.390 . S
C1169 C1170 1.357 . S
C1170 C1166 1.370 . S
C1170 C1169 1.357 . S
C1170 H1189 0.950 . S
Zn1171 N1165 2.020 . S
Zn1171 O1174 2.025 . S
Zn1171 O1179 2.024 . S
Zn1171 O1181 2.039 . S
Zn1171 O1183 2.034 . S
O1172 C1156 1.251 . S
O1172 Zn1163 2.039 . S
C1173 O1178 1.246 . S
C1173 O1179 1.249 . S
O1174 C1156 1.254 . S
O1174 Zn1171 2.025 . S
H1175 C1167 0.952 . S
H1176 C1158 0.952 . S
H1177 C1166 0.948 . S
O1178 Zn1163 2.034 . S
O1178 C1173 1.246 . S
O1179 Zn1171 2.024 . S
O1179 C1173 1.249 . S
H1180 C1162 0.948 . S
O1181 Zn1171 2.039 . S
O1181 C1185 1.251 . S
O1182 Zn1163 2.025 . S
O1182 C1185 1.254 . S
O1183 C1164 1.246 . S
O1183 Zn1171 2.034 . S
O1184 Zn1163 2.024 . S
O1184 C1164 1.249 . S
C1185 O1181 1.251 . S
C1185 O1182 1.254 . S
H1186 C1159 0.949 . S
H1187 C1161 0.950 . S
H1188 C1168 0.949 . S
H1189 C1170 0.950 . S
C1190 O1206 1.251 . S
C1190 O1208 1.254 . S
N1191 C1192 1.333 . S
N1191 C1196 1.307 . S
N1191 Zn1197 2.020 . S
C1192 N1191 1.333 . S
C1192 C1193 1.379 . S
C1192 H1210 0.952 . S
C1193 C1192 1.379 . S
C1193 C1194 1.390 . S
C1193 H1220 0.949 . S
C1194 C1193 1.390 . S
C1194 C1195 1.357 . S
C1195 C1194 1.357 . S
C1195 C1196 1.370 . S
C1195 H1221 0.950 . S
C1196 N1191 1.307 . S
C1196 C1195 1.370 . S
C1196 H1214 0.948 . S
Zn1197 N1191 2.020 . S
Zn1197 O1206 2.039 . S
Zn1197 O1212 2.034 . S
Zn1197 O1216 2.025 . S
Zn1197 O1218 2.024 . S
C1198 O1217 1.246 . S
C1198 O1218 1.249 . S
N1199 C1200 1.307 . S
N1199 C1201 1.333 . S
N1199 Zn1205 2.020 . S
C1200 N1199 1.307 . S
C1200 C1204 1.370 . S
C1200 H1211 0.948 . S
C1201 N1199 1.333 . S
C1201 C1202 1.379 . S
C1201 H1209 0.952 . S
C1202 C1201 1.379 . S
C1202 C1203 1.390 . S
C1202 H1222 0.949 . S
C1203 C1202 1.390 . S
C1203 C1204 1.357 . S
C1204 C1200 1.370 . S
C1204 C1203 1.357 . S
C1204 H1223 0.950 . S
Zn1205 N1199 2.020 . S
Zn1205 O1208 2.025 . S
Zn1205 O1213 2.024 . S
Zn1205 O1215 2.039 . S
Zn1205 O1217 2.034 . S
O1206 C1190 1.251 . S
O1206 Zn1197 2.039 . S
C1207 O1212 1.246 . S
C1207 O1213 1.249 . S
O1208 C1190 1.254 . S
O1208 Zn1205 2.025 . S
H1209 C1201 0.952 . S
H1210 C1192 0.952 . S
H1211 C1200 0.948 . S
O1212 Zn1197 2.034 . S
O1212 C1207 1.246 . S
O1213 Zn1205 2.024 . S
O1213 C1207 1.249 . S
H1214 C1196 0.948 . S
O1215 Zn1205 2.039 . S
O1215 C1219 1.251 . S
O1216 Zn1197 2.025 . S
O1216 C1219 1.254 . S
O1217 C1198 1.246 . S
O1217 Zn1205 2.034 . S
O1218 Zn1197 2.024 . S
O1218 C1198 1.249 . S
C1219 O1215 1.251 . S
C1219 O1216 1.254 . S
H1220 C1193 0.949 . S
H1221 C1195 0.950 . S
H1222 C1202 0.949 . S
H1223 C1204 0.950 . S
H1224 C1230 0.930 . S
H1225 C1234 0.930 . S
H1226 C1239 0.929 . S
H1227 C1237 0.929 . S
H1228 C1232 0.929 . S
H1229 C1238 0.929 . S
C1230 H1224 0.930 . S
C1230 C1231 1.367 . S
C1230 C1238 1.378 . S
C1231 C1230 1.367 . S
C1231 C1239 1.433 . S
C1232 H1228 0.929 . S
C1232 C1234 1.378 . S
C1232 C1236 1.350 1_556 S
C1233 C1236 1.463 . S
C1233 C1238 1.350 . S
C1233 N1241 1.427 . S
C1234 H1225 0.930 . S
C1234 C1232 1.378 . S
C1234 C1235 1.367 . S
C1235 C1234 1.367 . S
C1235 C1237 1.433 1_556 S
C1236 C1232 1.350 1_554 S
C1236 C1233 1.463 . S
C1236 N1240 1.427 . S
C1237 H1227 0.929 . S
C1237 C1235 1.433 1_554 S
C1237 N1240 1.384 . S
C1238 H1229 0.929 . S
C1238 C1230 1.378 . S
C1238 C1233 1.350 . S
C1239 H1226 0.929 . S
C1239 C1231 1.433 . S
C1239 N1241 1.384 . S
N1240 C1236 1.427 . S
N1240 C1237 1.384 . S
N1241 C1233 1.427 . S
N1241 C1239 1.384 . S
H1242 C1248 0.930 . S
H1243 C1252 0.930 . S
H1244 C1257 0.929 . S
H1245 C1255 0.929 . S
H1246 C1250 0.929 . S
H1247 C1256 0.928 1_556 S
C1248 H1242 0.930 . S
C1248 C1249 1.367 . S
C1248 C1256 1.378 1_556 S
C1249 C1248 1.367 . S
C1249 C1257 1.433 1_556 S
C1250 H1246 0.929 . S
C1250 C1252 1.378 . S
C1250 C1254 1.350 . S
C1251 C1254 1.463 . S
C1251 C1256 1.350 . S
C1251 N1259 1.427 . S
C1252 H1243 0.930 . S
C1252 C1250 1.378 . S
C1252 C1253 1.367 . S
C1253 C1252 1.367 . S
C1253 C1255 1.433 . S
C1254 C1250 1.350 . S
C1254 C1251 1.463 . S
C1254 N1258 1.427 . S
C1255 H1245 0.929 . S
C1255 C1253 1.433 . S
C1255 N1258 1.384 . S
C1256 H1247 0.928 1_554 S
C1256 C1248 1.378 1_554 S
C1256 C1251 1.350 . S
C1257 H1244 0.929 . S
C1257 C1249 1.433 1_554 S
C1257 N1259 1.384 . S
N1258 C1254 1.427 . S
N1258 C1255 1.384 . S
N1259 C1251 1.427 . S
N1259 C1257 1.384 . S
H1260 C1266 0.930 . S
H1261 C1270 0.930 . S
H1262 C1275 0.929 . S
H1263 C1273 0.929 . S
H1264 C1268 0.929 . S
H1265 C1274 0.929 . S
C1266 H1260 0.930 . S
C1266 C1267 1.367 . S
C1266 C1274 1.378 1_556 S
C1267 C1266 1.367 . S
C1267 C1275 1.433 1_556 S
C1268 H1264 0.929 . S
C1268 C1270 1.378 . S
C1268 C1272 1.350 . S
C1269 C1272 1.463 . S
C1269 C1274 1.350 . S
C1269 N1277 1.427 . S
C1270 H1261 0.930 . S
C1270 C1268 1.378 . S
C1270 C1271 1.367 . S
C1271 C1270 1.367 . S
C1271 C1273 1.433 . S
C1272 C1268 1.350 . S
C1272 C1269 1.463 . S
C1272 N1276 1.427 . S
C1273 H1263 0.929 . S
C1273 C1271 1.433 . S
C1273 N1276 1.384 . S
C1274 H1265 0.929 . S
C1274 C1266 1.378 1_554 S
C1274 C1269 1.350 . S
C1275 H1262 0.929 . S
C1275 C1267 1.433 1_554 S
C1275 N1277 1.384 . S
N1276 C1272 1.427 . S
N1276 C1273 1.384 . S
N1277 C1269 1.427 . S
N1277 C1275 1.384 . S
H1278 C1284 0.930 . S
H1279 C1288 0.930 . S
H1280 C1293 0.929 . S
H1281 C1291 0.929 . S
H1282 C1286 0.929 . S
H1283 C1292 0.929 . S
C1284 H1278 0.930 . S
C1284 C1285 1.367 . S
C1284 C1292 1.378 . S
C1285 C1284 1.367 . S
C1285 C1293 1.433 . S
C1286 H1282 0.929 . S
C1286 C1288 1.378 . S
C1286 C1290 1.350 . S
C1287 C1290 1.463 . S
C1287 C1292 1.350 . S
C1287 N1295 1.427 . S
C1288 H1279 0.930 . S
C1288 C1286 1.378 . S
C1288 C1289 1.367 . S
C1289 C1288 1.367 . S
C1289 C1291 1.433 . S
C1290 C1286 1.350 . S
C1290 C1287 1.463 . S
C1290 N1294 1.427 . S
C1291 H1281 0.929 . S
C1291 C1289 1.433 . S
C1291 N1294 1.384 . S
C1292 H1283 0.929 . S
C1292 C1284 1.378 . S
C1292 C1287 1.350 . S
C1293 H1280 0.929 . S
C1293 C1285 1.433 . S
C1293 N1295 1.384 . S
N1294 C1290 1.427 . S
N1294 C1291 1.384 . S
N1295 C1287 1.427 . S
N1295 C1293 1.384 . S
H1296 C1302 0.930 . S
H1297 C1306 0.930 . S
H1298 C1311 0.929 . S
H1299 C1309 0.929 . S
H1300 C1304 0.929 . S
H1301 C1310 0.929 . S
C1302 H1296 0.930 . S
C1302 C1303 1.367 . S
C1302 C1310 1.378 . S
C1303 C1302 1.367 . S
C1303 C1311 1.433 . S
C1304 H1300 0.929 . S
C1304 C1306 1.378 . S
C1304 C1308 1.350 . S
C1305 C1308 1.463 . S
C1305 C1310 1.350 . S
C1305 N1313 1.427 . S
C1306 H1297 0.930 . S
C1306 C1304 1.378 . S
C1306 C1307 1.367 . S
C1307 C1306 1.367 . S
C1307 C1309 1.433 . S
C1308 C1304 1.350 . S
C1308 C1305 1.463 . S
C1308 N1312 1.427 . S
C1309 H1299 0.929 . S
C1309 C1307 1.433 . S
C1309 N1312 1.384 . S
C1310 H1301 0.929 . S
C1310 C1302 1.378 . S
C1310 C1305 1.350 . S
C1311 H1298 0.929 . S
C1311 C1303 1.433 . S
C1311 N1313 1.384 . S
N1312 C1308 1.427 . S
N1312 C1309 1.384 . S
N1313 C1305 1.427 . S
N1313 C1311 1.384 . S
H1314 C1320 0.930 . S
H1315 C1324 0.930 1_545 S
H1316 C1329 0.929 . S
H1317 C1327 0.929 . S
H1318 C1322 0.929 . S
H1319 C1328 0.929 . S
C1320 H1314 0.930 . S
C1320 C1321 1.367 . S
C1320 C1328 1.378 . S
C1321 C1320 1.367 . S
C1321 C1329 1.433 . S
C1322 H1318 0.929 . S
C1322 C1324 1.378 . S
C1322 C1326 1.350 . S
C1323 C1326 1.463 . S
C1323 C1328 1.350 . S
C1323 N1331 1.427 . S
C1324 H1315 0.930 1_565 S
C1324 C1322 1.378 . S
C1324 C1325 1.367 . S
C1325 C1324 1.367 . S
C1325 C1327 1.433 . S
C1326 C1322 1.350 . S
C1326 C1323 1.463 . S
C1326 N1330 1.427 . S
C1327 H1317 0.929 . S
C1327 C1325 1.433 . S
C1327 N1330 1.384 . S
C1328 H1319 0.929 . S
C1328 C1320 1.378 . S
C1328 C1323 1.350 . S
C1329 H1316 0.929 . S
C1329 C1321 1.433 . S
C1329 N1331 1.384 . S
N1330 C1326 1.427 . S
N1330 C1327 1.384 . S
N1331 C1323 1.427 . S
N1331 C1329 1.384 . S
H1332 C1338 0.930 . S
H1333 C1342 0.930 . S
H1334 C1347 0.929 . S
H1335 C1345 0.929 . S
H1336 C1340 0.929 . S
H1337 C1346 0.929 . S
C1338 H1332 0.930 . S
C1338 C1339 1.367 1_556 S
C1338 C1346 1.378 . S
C1339 C1338 1.367 1_554 S
C1339 C1347 1.433 . S
C1340 H1336 0.929 . S
C1340 C1342 1.378 . S
C1340 C1344 1.350 . S
C1341 C1344 1.463 . S
C1341 C1346 1.350 . S
C1341 N1349 1.427 . S
C1342 H1333 0.930 . S
C1342 C1340 1.378 . S
C1342 C1343 1.367 . S
C1343 C1342 1.367 . S
C1343 C1345 1.433 . S
C1344 C1340 1.350 . S
C1344 C1341 1.463 . S
C1344 N1348 1.427 . S
C1345 H1335 0.929 . S
C1345 C1343 1.433 . S
C1345 N1348 1.384 . S
C1346 H1337 0.929 . S
C1346 C1338 1.378 . S
C1346 C1341 1.350 . S
C1347 H1334 0.929 . S
C1347 C1339 1.433 . S
C1347 N1349 1.384 1_554 S
N1348 C1344 1.427 . S
N1348 C1345 1.384 . S
N1349 C1341 1.427 . S
N1349 C1347 1.384 1_556 S
H1350 C1356 0.930 . S
H1351 C1360 0.930 . S
H1352 C1365 0.929 . S
H1353 C1363 0.929 . S
H1354 C1358 0.929 . S
H1355 C1364 0.929 . S
C1356 H1350 0.930 . S
C1356 C1357 1.367 . S
C1356 C1364 1.378 . S
C1357 C1356 1.367 . S
C1357 C1365 1.433 . S
C1358 H1354 0.929 . S
C1358 C1360 1.378 . S
C1358 C1362 1.350 . S
C1359 C1362 1.463 . S
C1359 C1364 1.350 . S
C1359 N1367 1.427 . S
C1360 H1351 0.930 . S
C1360 C1358 1.378 . S
C1360 C1361 1.367 1_556 S
C1361 C1360 1.367 1_554 S
C1361 C1363 1.433 . S
C1362 C1358 1.350 . S
C1362 C1359 1.463 . S
C1362 N1366 1.427 . S
C1363 H1353 0.929 . S
C1363 C1361 1.433 . S
C1363 N1366 1.384 1_554 S
C1364 H1355 0.929 . S
C1364 C1356 1.378 . S
C1364 C1359 1.350 . S
C1365 H1352 0.929 . S
C1365 C1357 1.433 . S
C1365 N1367 1.384 . S
N1366 C1362 1.427 . S
N1366 C1363 1.384 1_556 S
N1367 C1359 1.427 . S
N1367 C1365 1.384 . S
H1368 C1374 0.930 1_554 S
H1369 C1378 0.930 . S
H1370 C1383 0.928 . S
H1371 C1381 0.929 . S
H1372 C1376 0.929 . S
H1373 C1382 0.929 . S
C1374 H1368 0.930 1_556 S
C1374 C1375 1.367 1_556 S
C1374 C1382 1.378 . S
C1375 C1374 1.367 1_554 S
C1375 C1383 1.433 1_554 S
C1376 H1372 0.929 . S
C1376 C1378 1.378 . S
C1376 C1380 1.350 . S
C1377 C1380 1.463 . S
C1377 C1382 1.350 . S
C1377 N1385 1.427 . S
C1378 H1369 0.930 . S
C1378 C1376 1.378 . S
C1378 C1379 1.367 . S
C1379 C1378 1.367 . S
C1379 C1381 1.433 . S
C1380 C1376 1.350 . S
C1380 C1377 1.463 . S
C1380 N1384 1.427 . S
C1381 H1371 0.929 . S
C1381 C1379 1.433 . S
C1381 N1384 1.384 . S
C1382 H1373 0.929 . S
C1382 C1374 1.378 . S
C1382 C1377 1.350 . S
C1383 H1370 0.928 . S
C1383 C1375 1.433 1_556 S
C1383 N1385 1.384 . S
N1384 C1380 1.427 . S
N1384 C1381 1.384 . S
N1385 C1377 1.427 . S
N1385 C1383 1.384 . S
H1386 C1392 0.930 . S
H1387 C1396 0.930 . S
H1388 C1401 0.929 . S
H1389 C1399 0.929 . S
H1390 C1394 0.929 . S
H1391 C1400 0.929 . S
C1392 H1386 0.930 . S
C1392 C1393 1.367 . S
C1392 C1400 1.378 . S
C1393 C1392 1.367 . S
C1393 C1401 1.433 . S
C1394 H1390 0.929 . S
C1394 C1396 1.378 . S
C1394 C1398 1.350 . S
C1395 C1398 1.463 . S
C1395 C1400 1.350 . S
C1395 N1403 1.427 . S
C1396 H1387 0.930 . S
C1396 C1394 1.378 . S
C1396 C1397 1.367 . S
C1397 C1396 1.367 . S
C1397 C1399 1.433 . S
C1398 C1394 1.350 . S
C1398 C1395 1.463 . S
C1398 N1402 1.427 . S
C1399 H1389 0.929 . S
C1399 C1397 1.433 . S
C1399 N1402 1.384 . S
C1400 H1391 0.929 . S
C1400 C1392 1.378 . S
C1400 C1395 1.350 . S
C1401 H1388 0.929 . S
C1401 C1393 1.433 . S
C1401 N1403 1.384 . S
N1402 C1398 1.427 . S
N1402 C1399 1.384 . S
N1403 C1395 1.427 . S
N1403 C1401 1.384 . S
H1404 C1410 0.930 . S
H1405 C1414 0.930 . S
H1406 C1419 0.929 . S
H1407 C1417 0.929 . S
H1408 C1412 0.929 . S
H1409 C1418 0.929 . S
C1410 H1404 0.930 . S
C1410 C1411 1.367 . S
C1410 C1418 1.378 . S
C1411 C1410 1.367 . S
C1411 C1419 1.433 . S
C1412 H1408 0.929 . S
C1412 C1414 1.378 . S
C1412 C1416 1.350 . S
C1413 C1416 1.463 . S
C1413 C1418 1.350 . S
C1413 N1421 1.427 . S
C1414 H1405 0.930 . S
C1414 C1412 1.378 . S
C1414 C1415 1.367 . S
C1415 C1414 1.367 . S
C1415 C1417 1.433 . S
C1416 C1412 1.350 . S
C1416 C1413 1.463 . S
C1416 N1420 1.427 . S
C1417 H1407 0.929 . S
C1417 C1415 1.433 . S
C1417 N1420 1.384 . S
C1418 H1409 0.929 . S
C1418 C1410 1.378 . S
C1418 C1413 1.350 . S
C1419 H1406 0.929 . S
C1419 C1411 1.433 . S
C1419 N1421 1.384 . S
N1420 C1416 1.427 . S
N1420 C1417 1.384 . S
N1421 C1413 1.427 . S
N1421 C1419 1.384 . S
H1422 C1428 0.930 . S
H1423 C1432 0.930 . S
H1424 C1437 0.929 . S
H1425 C1435 0.929 . S
H1426 C1430 0.929 . S
H1427 C1436 0.929 . S
C1428 H1422 0.930 . S
C1428 C1429 1.367 . S
C1428 C1436 1.378 . S
C1429 C1428 1.367 . S
C1429 C1437 1.433 . S
C1430 H1426 0.929 . S
C1430 C1432 1.378 . S
C1430 C1434 1.350 . S
C1431 C1434 1.463 . S
C1431 C1436 1.350 . S
C1431 N1439 1.427 . S
C1432 H1423 0.930 . S
C1432 C1430 1.378 . S
C1432 C1433 1.367 . S
C1433 C1432 1.367 . S
C1433 C1435 1.433 . S
C1434 C1430 1.350 . S
C1434 C1431 1.463 . S
C1434 N1438 1.427 . S
C1435 H1425 0.929 . S
C1435 C1433 1.433 . S
C1435 N1438 1.384 . S
C1436 H1427 0.929 . S
C1436 C1428 1.378 . S
C1436 C1431 1.350 . S
C1437 H1424 0.929 . S
C1437 C1429 1.433 . S
C1437 N1439 1.384 . S
N1438 C1434 1.427 . S
N1438 C1435 1.384 . S
N1439 C1431 1.427 . S
N1439 C1437 1.384 . S
H1440 C1446 0.930 . S
H1441 C1450 0.930 . S
H1442 C1455 0.929 . S
H1443 C1453 0.929 . S
H1444 C1448 0.929 . S
H1445 C1454 0.929 . S
C1446 H1440 0.930 . S
C1446 C1447 1.367 . S
C1446 C1454 1.378 . S
C1447 C1446 1.367 . S
C1447 C1455 1.433 . S
C1448 H1444 0.929 . S
C1448 C1450 1.378 . S
C1448 C1452 1.350 . S
C1449 C1452 1.463 . S
C1449 C1454 1.350 . S
C1449 N1457 1.427 . S
C1450 H1441 0.930 . S
C1450 C1448 1.378 . S
C1450 C1451 1.367 . S
C1451 C1450 1.367 . S
C1451 C1453 1.433 . S
C1452 C1448 1.350 . S
C1452 C1449 1.463 . S
C1452 N1456 1.427 . S
C1453 H1443 0.929 . S
C1453 C1451 1.433 . S
C1453 N1456 1.384 . S
C1454 H1445 0.929 . S
C1454 C1446 1.378 . S
C1454 C1449 1.350 . S
C1455 H1442 0.929 . S
C1455 C1447 1.433 . S
C1455 N1457 1.384 . S
N1456 C1452 1.427 . S
N1456 C1453 1.384 . S
N1457 C1449 1.427 . S
N1457 C1455 1.384 . S
H1458 C1464 0.930 . S
H1459 C1468 0.930 . S
H1460 C1473 0.929 . S
H1461 C1471 0.929 . S
H1462 C1466 0.929 . S
H1463 C1472 0.929 . S
C1464 H1458 0.930 . S
C1464 C1465 1.367 . S
C1464 C1472 1.378 . S
C1465 C1464 1.367 . S
C1465 C1473 1.433 . S
C1466 H1462 0.929 . S
C1466 C1468 1.378 . S
C1466 C1470 1.350 . S
C1467 C1470 1.463 . S
C1467 C1472 1.350 . S
C1467 N1475 1.427 . S
C1468 H1459 0.930 . S
C1468 C1466 1.378 . S
C1468 C1469 1.367 . S
C1469 C1468 1.367 . S
C1469 C1471 1.433 . S
C1470 C1466 1.350 . S
C1470 C1467 1.463 . S
C1470 N1474 1.427 . S
C1471 H1461 0.929 . S
C1471 C1469 1.433 . S
C1471 N1474 1.384 . S
C1472 H1463 0.929 . S
C1472 C1464 1.378 . S
C1472 C1467 1.350 . S
C1473 H1460 0.929 . S
C1473 C1465 1.433 . S
C1473 N1475 1.384 . S
N1474 C1470 1.427 . S
N1474 C1471 1.384 . S
N1475 C1467 1.427 . S
N1475 C1473 1.384 . S
H1476 C1482 0.930 . S
H1477 C1486 0.930 . S
H1478 C1491 0.929 . S
H1479 C1489 0.929 . S
H1480 C1484 0.929 . S
H1481 C1490 0.929 . S
C1482 H1476 0.930 . S
C1482 C1483 1.367 . S
C1482 C1490 1.378 . S
C1483 C1482 1.367 . S
C1483 C1491 1.433 . S
C1484 H1480 0.929 . S
C1484 C1486 1.378 . S
C1484 C1488 1.350 . S
C1485 C1488 1.463 . S
C1485 C1490 1.350 . S
C1485 N1493 1.427 . S
C1486 H1477 0.930 . S
C1486 C1484 1.378 . S
C1486 C1487 1.367 . S
C1487 C1486 1.367 . S
C1487 C1489 1.433 . S
C1488 C1484 1.350 . S
C1488 C1485 1.463 . S
C1488 N1492 1.427 . S
C1489 H1479 0.929 . S
C1489 C1487 1.433 . S
C1489 N1492 1.384 . S
C1490 H1481 0.929 . S
C1490 C1482 1.378 . S
C1490 C1485 1.350 . S
C1491 H1478 0.929 . S
C1491 C1483 1.433 . S
C1491 N1493 1.384 . S
N1492 C1488 1.427 . S
N1492 C1489 1.384 . S
N1493 C1485 1.427 . S
N1493 C1491 1.384 . S
H1494 C1500 0.930 . S
H1495 C1504 0.930 . S
H1496 C1509 0.929 . S
H1497 C1507 0.929 . S
H1498 C1502 0.929 . S
H1499 C1508 0.929 . S
C1500 H1494 0.930 . S
C1500 C1501 1.367 . S
C1500 C1508 1.378 . S
C1501 C1500 1.367 . S
C1501 C1509 1.433 . S
C1502 H1498 0.929 . S
C1502 C1504 1.378 . S
C1502 C1506 1.350 . S
C1503 C1506 1.463 . S
C1503 C1508 1.350 . S
C1503 N1511 1.427 . S
C1504 H1495 0.930 . S
C1504 C1502 1.378 . S
C1504 C1505 1.367 . S
C1505 C1504 1.367 . S
C1505 C1507 1.433 . S
C1506 C1502 1.350 . S
C1506 C1503 1.463 . S
C1506 N1510 1.427 . S
C1507 H1497 0.929 . S
C1507 C1505 1.433 . S
C1507 N1510 1.384 . S
C1508 H1499 0.929 . S
C1508 C1500 1.378 . S
C1508 C1503 1.350 . S
C1509 H1496 0.929 . S
C1509 C1501 1.433 . S
C1509 N1511 1.384 . S
N1510 C1506 1.427 . S
N1510 C1507 1.384 . S
N1511 C1503 1.427 . S
N1511 C1509 1.384 . S
H1512 C1518 0.930 . S
H1513 C1522 0.930 . S
H1514 C1527 0.929 . S
H1515 C1525 0.929 . S
H1516 C1520 0.929 . S
H1517 C1526 0.929 . S
C1518 H1512 0.930 . S
C1518 C1519 1.367 . S
C1518 C1526 1.378 . S
C1519 C1518 1.367 . S
C1519 C1527 1.433 . S
C1520 H1516 0.929 . S
C1520 C1522 1.378 . S
C1520 C1524 1.350 . S
C1521 C1524 1.463 . S
C1521 C1526 1.350 . S
C1521 N1529 1.427 . S
C1522 H1513 0.930 . S
C1522 C1520 1.378 . S
C1522 C1523 1.367 . S
C1523 C1522 1.367 . S
C1523 C1525 1.433 . S
C1524 C1520 1.350 . S
C1524 C1521 1.463 . S
C1524 N1528 1.427 . S
C1525 H1515 0.929 . S
C1525 C1523 1.433 . S
C1525 N1528 1.384 . S
C1526 H1517 0.929 . S
C1526 C1518 1.378 . S
C1526 C1521 1.350 . S
C1527 H1514 0.929 . S
C1527 C1519 1.433 . S
C1527 N1529 1.384 . S
N1528 C1524 1.427 . S
N1528 C1525 1.384 . S
N1529 C1521 1.427 . S
N1529 C1527 1.384 . S
H1530 C1536 0.930 . S
H1531 C1540 0.930 . S
H1532 C1545 0.929 . S
H1533 C1543 0.929 . S
H1534 C1538 0.929 . S
H1535 C1544 0.929 . S
C1536 H1530 0.930 . S
C1536 C1537 1.367 . S
C1536 C1544 1.378 . S
C1537 C1536 1.367 . S
C1537 C1545 1.433 . S
C1538 H1534 0.929 . S
C1538 C1540 1.378 . S
C1538 C1542 1.350 . S
C1539 C1542 1.463 . S
C1539 C1544 1.350 . S
C1539 N1547 1.427 . S
C1540 H1531 0.930 . S
C1540 C1538 1.378 . S
C1540 C1541 1.367 . S
C1541 C1540 1.367 . S
C1541 C1543 1.433 . S
C1542 C1538 1.350 . S
C1542 C1539 1.463 . S
C1542 N1546 1.427 . S
C1543 H1533 0.929 . S
C1543 C1541 1.433 . S
C1543 N1546 1.384 . S
C1544 H1535 0.929 . S
C1544 C1536 1.378 . S
C1544 C1539 1.350 . S
C1545 H1532 0.929 . S
C1545 C1537 1.433 . S
C1545 N1547 1.384 . S
N1546 C1542 1.427 . S
N1546 C1543 1.384 . S
N1547 C1539 1.427 . S
N1547 C1545 1.384 . S
H1548 C1554 0.930 . S
H1549 C1558 0.930 . S
H1550 C1563 0.929 . S
H1551 C1561 0.929 . S
H1552 C1556 0.929 . S
H1553 C1562 0.929 . S
C1554 H1548 0.930 . S
C1554 C1555 1.367 . S
C1554 C1562 1.378 . S
C1555 C1554 1.367 . S
C1555 C1563 1.433 . S
C1556 H1552 0.929 . S
C1556 C1558 1.378 . S
C1556 C1560 1.350 . S
C1557 C1560 1.463 . S
C1557 C1562 1.350 . S
C1557 N1565 1.427 . S
C1558 H1549 0.930 . S
C1558 C1556 1.378 . S
C1558 C1559 1.367 . S
C1559 C1558 1.367 . S
C1559 C1561 1.433 . S
C1560 C1556 1.350 . S
C1560 C1557 1.463 . S
C1560 N1564 1.427 . S
C1561 H1551 0.929 . S
C1561 C1559 1.433 . S
C1561 N1564 1.384 . S
C1562 H1553 0.929 . S
C1562 C1554 1.378 . S
C1562 C1557 1.350 . S
C1563 H1550 0.929 . S
C1563 C1555 1.433 . S
C1563 N1565 1.384 . S
N1564 C1560 1.427 . S
N1564 C1561 1.384 . S
N1565 C1557 1.427 . S
N1565 C1563 1.384 . S
H1566 C1572 0.930 . S
H1567 C1576 0.930 . S
H1568 C1581 0.929 . S
H1569 C1579 0.929 . S
H1570 C1574 0.929 . S
H1571 C1580 0.929 . S
C1572 H1566 0.930 . S
C1572 C1573 1.367 . S
C1572 C1580 1.378 . S
C1573 C1572 1.367 . S
C1573 C1581 1.433 . S
C1574 H1570 0.929 . S
C1574 C1576 1.378 . S
C1574 C1578 1.350 . S
C1575 C1578 1.463 . S
C1575 C1580 1.350 . S
C1575 N1583 1.427 . S
C1576 H1567 0.930 . S
C1576 C1574 1.378 . S
C1576 C1577 1.367 . S
C1577 C1576 1.367 . S
C1577 C1579 1.433 . S
C1578 C1574 1.350 . S
C1578 C1575 1.463 . S
C1578 N1582 1.427 . S
C1579 H1569 0.929 . S
C1579 C1577 1.433 . S
C1579 N1582 1.384 . S
C1580 H1571 0.929 . S
C1580 C1572 1.378 . S
C1580 C1575 1.350 . S
C1581 H1568 0.929 . S
C1581 C1573 1.433 . S
C1581 N1583 1.384 . S
N1582 C1578 1.427 . S
N1582 C1579 1.384 . S
N1583 C1575 1.427 . S
N1583 C1581 1.384 . S
H1584 C1590 0.930 . S
H1585 C1594 0.930 . S
H1586 C1599 0.929 . S
H1587 C1597 0.929 . S
H1588 C1592 0.929 . S
H1589 C1598 0.929 . S
C1590 H1584 0.930 . S
C1590 C1591 1.367 . S
C1590 C1598 1.378 . S
C1591 C1590 1.367 . S
C1591 C1599 1.433 . S
C1592 H1588 0.929 . S
C1592 C1594 1.378 . S
C1592 C1596 1.350 . S
C1593 C1596 1.463 . S
C1593 C1598 1.350 . S
C1593 N1601 1.427 . S
C1594 H1585 0.930 . S
C1594 C1592 1.378 . S
C1594 C1595 1.367 . S
C1595 C1594 1.367 . S
C1595 C1597 1.433 . S
C1596 C1592 1.350 . S
C1596 C1593 1.463 . S
C1596 N1600 1.427 . S
C1597 H1587 0.929 . S
C1597 C1595 1.433 . S
C1597 N1600 1.384 . S
C1598 H1589 0.929 . S
C1598 C1590 1.378 . S
C1598 C1593 1.350 . S
C1599 H1586 0.929 . S
C1599 C1591 1.433 . S
C1599 N1601 1.384 . S
N1600 C1596 1.427 . S
N1600 C1597 1.384 . S
N1601 C1593 1.427 . S
N1601 C1599 1.384 . S
H1602 C1608 0.930 . S
H1603 C1612 0.930 . S
H1604 C1617 0.929 . S
H1605 C1615 0.929 . S
H1606 C1610 0.929 . S
H1607 C1616 0.929 . S
C1608 H1602 0.930 . S
C1608 C1609 1.367 . S
C1608 C1616 1.378 . S
C1609 C1608 1.367 . S
C1609 C1617 1.433 . S
C1610 H1606 0.929 . S
C1610 C1612 1.378 . S
C1610 C1614 1.350 . S
C1611 C1614 1.463 . S
C1611 C1616 1.350 . S
C1611 N1619 1.427 . S
C1612 H1603 0.930 . S
C1612 C1610 1.378 . S
C1612 C1613 1.367 . S
C1613 C1612 1.367 . S
C1613 C1615 1.433 . S
C1614 C1610 1.350 . S
C1614 C1611 1.463 . S
C1614 N1618 1.427 . S
C1615 H1605 0.929 . S
C1615 C1613 1.433 . S
C1615 N1618 1.384 . S
C1616 H1607 0.929 . S
C1616 C1608 1.378 . S
C1616 C1611 1.350 . S
C1617 H1604 0.929 . S
C1617 C1609 1.433 . S
C1617 N1619 1.384 . S
N1618 C1614 1.427 . S
N1618 C1615 1.384 . S
N1619 C1611 1.427 . S
N1619 C1617 1.384 . S
H1620 C1626 0.930 . S
H1621 C1630 0.930 . S
H1622 C1635 0.929 . S
H1623 C1633 0.929 . S
H1624 C1628 0.929 . S
H1625 C1634 0.929 . S
C1626 H1620 0.930 . S
C1626 C1627 1.367 . S
C1626 C1634 1.378 . S
C1627 C1626 1.367 . S
C1627 C1635 1.433 . S
C1628 H1624 0.929 . S
C1628 C1630 1.378 . S
C1628 C1632 1.350 . S
C1629 C1632 1.463 . S
C1629 C1634 1.350 . S
C1629 N1637 1.427 . S
C1630 H1621 0.930 . S
C1630 C1628 1.378 . S
C1630 C1631 1.367 . S
C1631 C1630 1.367 . S
C1631 C1633 1.433 . S
C1632 C1628 1.350 . S
C1632 C1629 1.463 . S
C1632 N1636 1.427 . S
C1633 H1623 0.929 . S
C1633 C1631 1.433 . S
C1633 N1636 1.384 . S
C1634 H1625 0.929 . S
C1634 C1626 1.378 . S
C1634 C1629 1.350 . S
C1635 H1622 0.929 . S
C1635 C1627 1.433 . S
C1635 N1637 1.384 . S
N1636 C1632 1.427 . S
N1636 C1633 1.384 . S
N1637 C1629 1.427 . S
N1637 C1635 1.384 . S
H1638 C1644 0.930 . S
H1639 C1648 0.930 . S
H1640 C1653 0.929 . S
H1641 C1651 0.929 . S
H1642 C1646 0.929 . S
H1643 C1652 0.929 . S
C1644 H1638 0.930 . S
C1644 C1645 1.367 . S
C1644 C1652 1.378 . S
C1645 C1644 1.367 . S
C1645 C1653 1.433 . S
C1646 H1642 0.929 . S
C1646 C1648 1.378 . S
C1646 C1650 1.350 . S
C1647 C1650 1.463 . S
C1647 C1652 1.350 . S
C1647 N1655 1.427 . S
C1648 H1639 0.930 . S
C1648 C1646 1.378 . S
C1648 C1649 1.367 . S
C1649 C1648 1.367 . S
C1649 C1651 1.433 . S
C1650 C1646 1.350 . S
C1650 C1647 1.463 . S
C1650 N1654 1.427 . S
C1651 H1641 0.929 . S
C1651 C1649 1.433 . S
C1651 N1654 1.384 . S
C1652 H1643 0.929 . S
C1652 C1644 1.378 . S
C1652 C1647 1.350 . S
C1653 H1640 0.929 . S
C1653 C1645 1.433 . S
C1653 N1655 1.384 . S
N1654 C1650 1.427 . S
N1654 C1651 1.384 . S
N1655 C1647 1.427 . S
N1655 C1653 1.384 . S
H1656 C1662 0.930 . S
H1657 C1666 0.930 . S
H1658 C1671 0.929 . S
H1659 C1669 0.929 . S
H1660 C1664 0.929 . S
H1661 C1670 0.929 . S
C1662 H1656 0.930 . S
C1662 C1663 1.367 . S
C1662 C1670 1.378 . S
C1663 C1662 1.367 . S
C1663 C1671 1.433 . S
C1664 H1660 0.929 . S
C1664 C1666 1.378 . S
C1664 C1668 1.350 . S
C1665 C1668 1.463 . S
C1665 C1670 1.350 . S
C1665 N1673 1.427 . S
C1666 H1657 0.930 . S
C1666 C1664 1.378 . S
C1666 C1667 1.367 . S
C1667 C1666 1.367 . S
C1667 C1669 1.433 . S
C1668 C1664 1.350 . S
C1668 C1665 1.463 . S
C1668 N1672 1.427 . S
C1669 H1659 0.929 . S
C1669 C1667 1.433 . S
C1669 N1672 1.384 . S
C1670 H1661 0.929 . S
C1670 C1662 1.378 . S
C1670 C1665 1.350 . S
C1671 H1658 0.929 . S
C1671 C1663 1.433 . S
C1671 N1673 1.384 . S
N1672 C1668 1.427 . S
N1672 C1669 1.384 . S
N1673 C1665 1.427 . S
N1673 C1671 1.384 . S
H1674 C1680 0.930 . S
H1675 C1684 0.930 . S
H1676 C1689 0.929 . S
H1677 C1687 0.929 . S
H1678 C1682 0.929 . S
H1679 C1688 0.929 . S
C1680 H1674 0.930 . S
C1680 C1681 1.367 . S
C1680 C1688 1.378 . S
C1681 C1680 1.367 . S
C1681 C1689 1.433 . S
C1682 H1678 0.929 . S
C1682 C1684 1.378 . S
C1682 C1686 1.350 . S
C1683 C1686 1.463 . S
C1683 C1688 1.350 . S
C1683 N1691 1.427 . S
C1684 H1675 0.930 . S
C1684 C1682 1.378 . S
C1684 C1685 1.367 . S
C1685 C1684 1.367 . S
C1685 C1687 1.433 . S
C1686 C1682 1.350 . S
C1686 C1683 1.463 . S
C1686 N1690 1.427 . S
C1687 H1677 0.929 . S
C1687 C1685 1.433 . S
C1687 N1690 1.384 . S
C1688 H1679 0.929 . S
C1688 C1680 1.378 . S
C1688 C1683 1.350 . S
C1689 H1676 0.929 . S
C1689 C1681 1.433 . S
C1689 N1691 1.384 . S
N1690 C1686 1.427 . S
N1690 C1687 1.384 . S
N1691 C1683 1.427 . S
N1691 C1689 1.384 . S
H1692 C1698 0.930 . S
H1693 C1702 0.930 . S
H1694 C1707 0.929 . S
H1695 C1705 0.929 . S
H1696 C1700 0.929 . S
H1697 C1706 0.929 . S
C1698 H1692 0.930 . S
C1698 C1699 1.367 . S
C1698 C1706 1.378 . S
C1699 C1698 1.367 . S
C1699 C1707 1.433 . S
C1700 H1696 0.929 . S
C1700 C1702 1.378 . S
C1700 C1704 1.350 . S
C1701 C1704 1.463 . S
C1701 C1706 1.350 . S
C1701 N1709 1.427 . S
C1702 H1693 0.930 . S
C1702 C1700 1.378 . S
C1702 C1703 1.367 . S
C1703 C1702 1.367 . S
C1703 C1705 1.433 . S
C1704 C1700 1.350 . S
C1704 C1701 1.463 . S
C1704 N1708 1.427 . S
C1705 H1695 0.929 . S
C1705 C1703 1.433 . S
C1705 N1708 1.384 . S
C1706 H1697 0.929 . S
C1706 C1698 1.378 . S
C1706 C1701 1.350 . S
C1707 H1694 0.929 . S
C1707 C1699 1.433 . S
C1707 N1709 1.384 . S
N1708 C1704 1.427 . S
N1708 C1705 1.384 . S
N1709 C1701 1.427 . S
N1709 C1707 1.384 . S
H1710 C1716 0.930 . S
H1711 C1720 0.930 . S
H1712 C1725 0.929 . S
H1713 C1723 0.929 . S
H1714 C1718 0.929 . S
H1715 C1724 0.929 . S
C1716 H1710 0.930 . S
C1716 C1717 1.367 . S
C1716 C1724 1.378 . S
C1717 C1716 1.367 . S
C1717 C1725 1.433 . S
C1718 H1714 0.929 . S
C1718 C1720 1.378 . S
C1718 C1722 1.350 . S
C1719 C1722 1.463 . S
C1719 C1724 1.350 . S
C1719 N1727 1.427 . S
C1720 H1711 0.930 . S
C1720 C1718 1.378 . S
C1720 C1721 1.367 . S
C1721 C1720 1.367 . S
C1721 C1723 1.433 . S
C1722 C1718 1.350 . S
C1722 C1719 1.463 . S
C1722 N1726 1.427 . S
C1723 H1713 0.929 . S
C1723 C1721 1.433 . S
C1723 N1726 1.384 . S
C1724 H1715 0.929 . S
C1724 C1716 1.378 . S
C1724 C1719 1.350 . S
C1725 H1712 0.929 . S
C1725 C1717 1.433 . S
C1725 N1727 1.384 . S
N1726 C1722 1.427 . S
N1726 C1723 1.384 . S
N1727 C1719 1.427 . S
N1727 C1725 1.384 . S
H1728 C1734 0.930 . S
H1729 C1738 0.930 . S
H1730 C1743 0.929 . S
H1731 C1741 0.929 . S
H1732 C1736 0.929 . S
H1733 C1742 0.929 . S
C1734 H1728 0.930 . S
C1734 C1735 1.367 . S
C1734 C1742 1.378 . S
C1735 C1734 1.367 . S
C1735 C1743 1.433 . S
C1736 H1732 0.929 . S
C1736 C1738 1.378 . S
C1736 C1740 1.350 . S
C1737 C1740 1.463 . S
C1737 C1742 1.350 . S
C1737 N1745 1.427 . S
C1738 H1729 0.930 . S
C1738 C1736 1.378 . S
C1738 C1739 1.367 . S
C1739 C1738 1.367 . S
C1739 C1741 1.433 . S
C1740 C1736 1.350 . S
C1740 C1737 1.463 . S
C1740 N1744 1.427 . S
C1741 H1731 0.929 . S
C1741 C1739 1.433 . S
C1741 N1744 1.384 . S
C1742 H1733 0.929 . S
C1742 C1734 1.378 . S
C1742 C1737 1.350 . S
C1743 H1730 0.929 . S
C1743 C1735 1.433 . S
C1743 N1745 1.384 . S
N1744 C1740 1.427 . S
N1744 C1741 1.384 . S
N1745 C1737 1.427 . S
N1745 C1743 1.384 . S
H1746 C1752 0.930 . S
H1747 C1756 0.930 . S
H1748 C1761 0.929 . S
H1749 C1759 0.929 . S
H1750 C1754 0.929 . S
H1751 C1760 0.929 . S
C1752 H1746 0.930 . S
C1752 C1753 1.367 . S
C1752 C1760 1.378 . S
C1753 C1752 1.367 . S
C1753 C1761 1.433 . S
C1754 H1750 0.929 . S
C1754 C1756 1.378 . S
C1754 C1758 1.350 . S
C1755 C1758 1.463 . S
C1755 C1760 1.350 . S
C1755 N1763 1.427 . S
C1756 H1747 0.930 . S
C1756 C1754 1.378 . S
C1756 C1757 1.367 . S
C1757 C1756 1.367 . S
C1757 C1759 1.433 . S
C1758 C1754 1.350 . S
C1758 C1755 1.463 . S
C1758 N1762 1.427 . S
C1759 H1749 0.929 . S
C1759 C1757 1.433 . S
C1759 N1762 1.384 . S
C1760 H1751 0.929 . S
C1760 C1752 1.378 . S
C1760 C1755 1.350 . S
C1761 H1748 0.929 . S
C1761 C1753 1.433 . S
C1761 N1763 1.384 . S
N1762 C1758 1.427 . S
N1762 C1759 1.384 . S
N1763 C1755 1.427 . S
N1763 C1761 1.384 . S
H1764 C1770 0.930 . S
H1765 C1774 0.930 . S
H1766 C1779 0.929 . S
H1767 C1777 0.929 . S
H1768 C1772 0.929 . S
H1769 C1778 0.929 . S
C1770 H1764 0.930 . S
C1770 C1771 1.367 . S
C1770 C1778 1.378 . S
C1771 C1770 1.367 . S
C1771 C1779 1.433 . S
C1772 H1768 0.929 . S
C1772 C1774 1.378 . S
C1772 C1776 1.350 . S
C1773 C1776 1.463 . S
C1773 C1778 1.350 . S
C1773 N1781 1.427 . S
C1774 H1765 0.930 . S
C1774 C1772 1.378 . S
C1774 C1775 1.367 . S
C1775 C1774 1.367 . S
C1775 C1777 1.433 . S
C1776 C1772 1.350 . S
C1776 C1773 1.463 . S
C1776 N1780 1.427 . S
C1777 H1767 0.929 . S
C1777 C1775 1.433 . S
C1777 N1780 1.384 . S
C1778 H1769 0.929 . S
C1778 C1770 1.378 . S
C1778 C1773 1.350 . S
C1779 H1766 0.929 . S
C1779 C1771 1.433 . S
C1779 N1781 1.384 . S
N1780 C1776 1.427 . S
N1780 C1777 1.384 . S
N1781 C1773 1.427 . S
N1781 C1779 1.384 . S
H1782 C1788 0.930 . S
H1783 C1792 0.930 . S
H1784 C1797 0.929 . S
H1785 C1795 0.929 . S
H1786 C1790 0.929 . S
H1787 C1796 0.929 . S
C1788 H1782 0.930 . S
C1788 C1789 1.367 . S
C1788 C1796 1.378 . S
C1789 C1788 1.367 . S
C1789 C1797 1.433 . S
C1790 H1786 0.929 . S
C1790 C1792 1.378 . S
C1790 C1794 1.350 . S
C1791 C1794 1.463 . S
C1791 C1796 1.350 . S
C1791 N1799 1.427 . S
C1792 H1783 0.930 . S
C1792 C1790 1.378 . S
C1792 C1793 1.367 . S
C1793 C1792 1.367 . S
C1793 C1795 1.433 . S
C1794 C1790 1.350 . S
C1794 C1791 1.463 . S
C1794 N1798 1.427 . S
C1795 H1785 0.929 . S
C1795 C1793 1.433 . S
C1795 N1798 1.384 . S
C1796 H1787 0.929 . S
C1796 C1788 1.378 . S
C1796 C1791 1.350 . S
C1797 H1784 0.929 . S
C1797 C1789 1.433 . S
C1797 N1799 1.384 . S
N1798 C1794 1.427 . S
N1798 C1795 1.384 . S
N1799 C1791 1.427 . S
N1799 C1797 1.384 . S
H1800 C1806 0.930 . S
H1801 C1810 0.930 . S
H1802 C1815 0.929 . S
H1803 C1813 0.929 . S
H1804 C1808 0.929 . S
H1805 C1814 0.929 . S
C1806 H1800 0.930 . S
C1806 C1807 1.367 . S
C1806 C1814 1.378 . S
C1807 C1806 1.367 . S
C1807 C1815 1.433 . S
C1808 H1804 0.929 . S
C1808 C1810 1.378 . S
C1808 C1812 1.350 . S
C1809 C1812 1.463 . S
C1809 C1814 1.350 . S
C1809 N1817 1.427 . S
C1810 H1801 0.930 . S
C1810 C1808 1.378 . S
C1810 C1811 1.367 . S
C1811 C1810 1.367 . S
C1811 C1813 1.433 . S
C1812 C1808 1.350 . S
C1812 C1809 1.463 . S
C1812 N1816 1.427 . S
C1813 H1803 0.929 . S
C1813 C1811 1.433 . S
C1813 N1816 1.384 . S
C1814 H1805 0.929 . S
C1814 C1806 1.378 . S
C1814 C1809 1.350 . S
C1815 H1802 0.929 . S
C1815 C1807 1.433 . S
C1815 N1817 1.384 . S
N1816 C1812 1.427 . S
N1816 C1813 1.384 . S
N1817 C1809 1.427 . S
N1817 C1815 1.384 . S
H1818 C1824 0.930 . S
H1819 C1828 0.930 . S
H1820 C1833 0.929 . S
H1821 C1831 0.929 . S
H1822 C1826 0.929 . S
H1823 C1832 0.929 . S
C1824 H1818 0.930 . S
C1824 C1825 1.367 . S
C1824 C1832 1.378 . S
C1825 C1824 1.367 . S
C1825 C1833 1.433 . S
C1826 H1822 0.929 . S
C1826 C1828 1.378 . S
C1826 C1830 1.350 . S
C1827 C1830 1.463 . S
C1827 C1832 1.350 . S
C1827 N1835 1.427 . S
C1828 H1819 0.930 . S
C1828 C1826 1.378 . S
C1828 C1829 1.367 . S
C1829 C1828 1.367 . S
C1829 C1831 1.433 . S
C1830 C1826 1.350 . S
C1830 C1827 1.463 . S
C1830 N1834 1.427 . S
C1831 H1821 0.929 . S
C1831 C1829 1.433 . S
C1831 N1834 1.384 . S
C1832 H1823 0.929 . S
C1832 C1824 1.378 . S
C1832 C1827 1.350 . S
C1833 H1820 0.929 . S
C1833 C1825 1.433 . S
C1833 N1835 1.384 . S
N1834 C1830 1.427 . S
N1834 C1831 1.384 . S
N1835 C1827 1.427 . S
N1835 C1833 1.384 . S
H1836 C1842 0.930 . S
H1837 C1846 0.930 . S
H1838 C1851 0.929 . S
H1839 C1849 0.929 . S
H1840 C1844 0.929 . S
H1841 C1850 0.929 . S
C1842 H1836 0.930 . S
C1842 C1843 1.367 . S
C1842 C1850 1.378 . S
C1843 C1842 1.367 . S
C1843 C1851 1.433 . S
C1844 H1840 0.929 . S
C1844 C1846 1.378 . S
C1844 C1848 1.350 . S
C1845 C1848 1.463 . S
C1845 C1850 1.350 . S
C1845 N1853 1.427 . S
C1846 H1837 0.930 . S
C1846 C1844 1.378 . S
C1846 C1847 1.367 . S
C1847 C1846 1.367 . S
C1847 C1849 1.433 . S
C1848 C1844 1.350 . S
C1848 C1845 1.463 . S
C1848 N1852 1.427 . S
C1849 H1839 0.929 . S
C1849 C1847 1.433 . S
C1849 N1852 1.384 . S
C1850 H1841 0.929 . S
C1850 C1842 1.378 . S
C1850 C1845 1.350 . S
C1851 H1838 0.929 . S
C1851 C1843 1.433 . S
C1851 N1853 1.384 . S
N1852 C1848 1.427 . S
N1852 C1849 1.384 . S
N1853 C1845 1.427 . S
N1853 C1851 1.384 . S
H1854 C1860 0.930 . S
H1855 C1864 0.930 . S
H1856 C1869 0.929 . S
H1857 C1867 0.929 . S
H1858 C1862 0.929 . S
H1859 C1868 0.929 . S
C1860 H1854 0.930 . S
C1860 C1861 1.367 . S
C1860 C1868 1.378 . S
C1861 C1860 1.367 . S
C1861 C1869 1.433 . S
C1862 H1858 0.929 . S
C1862 C1864 1.378 . S
C1862 C1866 1.350 . S
C1863 C1866 1.463 . S
C1863 C1868 1.350 . S
C1863 N1871 1.427 . S
C1864 H1855 0.930 . S
C1864 C1862 1.378 . S
C1864 C1865 1.367 . S
C1865 C1864 1.367 . S
C1865 C1867 1.433 . S
C1866 C1862 1.350 . S
C1866 C1863 1.463 . S
C1866 N1870 1.427 . S
C1867 H1857 0.929 . S
C1867 C1865 1.433 . S
C1867 N1870 1.384 . S
C1868 H1859 0.929 . S
C1868 C1860 1.378 . S
C1868 C1863 1.350 . S
C1869 H1856 0.929 . S
C1869 C1861 1.433 . S
C1869 N1871 1.384 . S
N1870 C1866 1.427 . S
N1870 C1867 1.384 . S
N1871 C1863 1.427 . S
N1871 C1869 1.384 . S
H1872 C1878 0.930 . S
H1873 C1882 0.930 . S
H1874 C1887 0.929 . S
H1875 C1885 0.929 . S
H1876 C1880 0.929 . S
H1877 C1886 0.929 . S
C1878 H1872 0.930 . S
C1878 C1879 1.367 . S
C1878 C1886 1.378 . S
C1879 C1878 1.367 . S
C1879 C1887 1.433 . S
C1880 H1876 0.929 . S
C1880 C1882 1.378 . S
C1880 C1884 1.350 . S
C1881 C1884 1.463 . S
C1881 C1886 1.350 . S
C1881 N1889 1.427 . S
C1882 H1873 0.930 . S
C1882 C1880 1.378 . S
C1882 C1883 1.367 . S
C1883 C1882 1.367 . S
C1883 C1885 1.433 . S
C1884 C1880 1.350 . S
C1884 C1881 1.463 . S
C1884 N1888 1.427 . S
C1885 H1875 0.929 . S
C1885 C1883 1.433 . S
C1885 N1888 1.384 . S
C1886 H1877 0.929 . S
C1886 C1878 1.378 . S
C1886 C1881 1.350 . S
C1887 H1874 0.929 . S
C1887 C1879 1.433 . S
C1887 N1889 1.384 . S
N1888 C1884 1.427 . S
N1888 C1885 1.384 . S
N1889 C1881 1.427 . S
N1889 C1887 1.384 . S
H1890 C1896 0.930 . S
H1891 C1900 0.930 . S
H1892 C1905 0.929 . S
H1893 C1903 0.929 . S
H1894 C1898 0.929 . S
H1895 C1904 0.929 . S
C1896 H1890 0.930 . S
C1896 C1897 1.367 . S
C1896 C1904 1.378 . S
C1897 C1896 1.367 . S
C1897 C1905 1.433 . S
C1898 H1894 0.929 . S
C1898 C1900 1.378 . S
C1898 C1902 1.350 . S
C1899 C1902 1.463 . S
C1899 C1904 1.350 . S
C1899 N1907 1.427 . S
C1900 H1891 0.930 . S
C1900 C1898 1.378 . S
C1900 C1901 1.367 . S
C1901 C1900 1.367 . S
C1901 C1903 1.433 . S
C1902 C1898 1.350 . S
C1902 C1899 1.463 . S
C1902 N1906 1.427 . S
C1903 H1893 0.929 . S
C1903 C1901 1.433 . S
C1903 N1906 1.384 . S
C1904 H1895 0.929 . S
C1904 C1896 1.378 . S
C1904 C1899 1.350 . S
C1905 H1892 0.929 . S
C1905 C1897 1.433 . S
C1905 N1907 1.384 . S
N1906 C1902 1.427 . S
N1906 C1903 1.384 . S
N1907 C1899 1.427 . S
N1907 C1905 1.384 . S
H1908 C1914 0.930 . S
H1909 C1918 0.930 . S
H1910 C1923 0.929 . S
H1911 C1921 0.929 . S
H1912 C1916 0.929 . S
H1913 C1922 0.929 . S
C1914 H1908 0.930 . S
C1914 C1915 1.367 . S
C1914 C1922 1.378 . S
C1915 C1914 1.367 . S
C1915 C1923 1.433 . S
C1916 H1912 0.929 . S
C1916 C1918 1.378 . S
C1916 C1920 1.350 . S
C1917 C1920 1.463 . S
C1917 C1922 1.350 . S
C1917 N1925 1.427 . S
C1918 H1909 0.930 . S
C1918 C1916 1.378 . S
C1918 C1919 1.367 . S
C1919 C1918 1.367 . S
C1919 C1921 1.433 . S
C1920 C1916 1.350 . S
C1920 C1917 1.463 . S
C1920 N1924 1.427 . S
C1921 H1911 0.929 . S
C1921 C1919 1.433 . S
C1921 N1924 1.384 . S
C1922 H1913 0.929 . S
C1922 C1914 1.378 . S
C1922 C1917 1.350 . S
C1923 H1910 0.929 . S
C1923 C1915 1.433 . S
C1923 N1925 1.384 . S
N1924 C1920 1.427 . S
N1924 C1921 1.384 . S
N1925 C1917 1.427 . S
N1925 C1923 1.384 . S
H1926 C1932 0.930 . S
H1927 C1936 0.930 . S
H1928 C1941 0.929 . S
H1929 C1939 0.929 . S
H1930 C1934 0.929 . S
H1931 C1940 0.929 . S
C1932 H1926 0.930 . S
C1932 C1933 1.367 . S
C1932 C1940 1.378 . S
C1933 C1932 1.367 . S
C1933 C1941 1.433 . S
C1934 H1930 0.929 . S
C1934 C1936 1.378 . S
C1934 C1938 1.350 . S
C1935 C1938 1.463 . S
C1935 C1940 1.350 . S
C1935 N1943 1.427 . S
C1936 H1927 0.930 . S
C1936 C1934 1.378 . S
C1936 C1937 1.367 . S
C1937 C1936 1.367 . S
C1937 C1939 1.433 . S
C1938 C1934 1.350 . S
C1938 C1935 1.463 . S
C1938 N1942 1.427 . S
C1939 H1929 0.929 . S
C1939 C1937 1.433 . S
C1939 N1942 1.384 . S
C1940 H1931 0.929 . S
C1940 C1932 1.378 . S
C1940 C1935 1.350 . S
C1941 H1928 0.929 . S
C1941 C1933 1.433 . S
C1941 N1943 1.384 . S
N1942 C1938 1.427 . S
N1942 C1939 1.384 . S
N1943 C1935 1.427 . S
N1943 C1941 1.384 . S
H1944 C1950 0.930 . S
H1945 C1954 0.930 . S
H1946 C1959 0.929 . S
H1947 C1957 0.929 . S
H1948 C1952 0.929 . S
H1949 C1958 0.929 . S
C1950 H1944 0.930 . S
C1950 C1951 1.367 . S
C1950 C1958 1.378 . S
C1951 C1950 1.367 . S
C1951 C1959 1.433 . S
C1952 H1948 0.929 . S
C1952 C1954 1.378 . S
C1952 C1956 1.350 . S
C1953 C1956 1.463 . S
C1953 C1958 1.350 . S
C1953 N1961 1.427 . S
C1954 H1945 0.930 . S
C1954 C1952 1.378 . S
C1954 C1955 1.367 . S
C1955 C1954 1.367 . S
C1955 C1957 1.433 . S
C1956 C1952 1.350 . S
C1956 C1953 1.463 . S
C1956 N1960 1.427 . S
C1957 H1947 0.929 . S
C1957 C1955 1.433 . S
C1957 N1960 1.384 . S
C1958 H1949 0.929 . S
C1958 C1950 1.378 . S
C1958 C1953 1.350 . S
C1959 H1946 0.929 . S
C1959 C1951 1.433 . S
C1959 N1961 1.384 . S
N1960 C1956 1.427 . S
N1960 C1957 1.384 . S
N1961 C1953 1.427 . S
N1961 C1959 1.384 . S
H1962 C1968 0.930 . S
H1963 C1972 0.930 . S
H1964 C1977 0.929 . S
H1965 C1975 0.929 . S
H1966 C1970 0.929 . S
H1967 C1976 0.929 . S
C1968 H1962 0.930 . S
C1968 C1969 1.367 . S
C1968 C1976 1.378 . S
C1969 C1968 1.367 . S
C1969 C1977 1.433 . S
C1970 H1966 0.929 . S
C1970 C1972 1.378 . S
C1970 C1974 1.350 . S
C1971 C1974 1.463 . S
C1971 C1976 1.350 . S
C1971 N1979 1.427 . S
C1972 H1963 0.930 . S
C1972 C1970 1.378 . S
C1972 C1973 1.367 . S
C1973 C1972 1.367 . S
C1973 C1975 1.433 . S
C1974 C1970 1.350 . S
C1974 C1971 1.463 . S
C1974 N1978 1.427 . S
C1975 H1965 0.929 . S
C1975 C1973 1.433 . S
C1975 N1978 1.384 . S
C1976 H1967 0.929 . S
C1976 C1968 1.378 . S
C1976 C1971 1.350 . S
C1977 H1964 0.929 . S
C1977 C1969 1.433 . S
C1977 N1979 1.384 . S
N1978 C1974 1.427 . S
N1978 C1975 1.384 . S
N1979 C1971 1.427 . S
N1979 C1977 1.384 . S
H1980 C1986 0.930 . S
H1981 C1990 0.930 . S
H1982 C1995 0.929 . S
H1983 C1993 0.929 . S
H1984 C1988 0.929 . S
H1985 C1994 0.929 . S
C1986 H1980 0.930 . S
C1986 C1987 1.367 . S
C1986 C1994 1.378 . S
C1987 C1986 1.367 . S
C1987 C1995 1.433 . S
C1988 H1984 0.929 . S
C1988 C1990 1.378 . S
C1988 C1992 1.350 . S
C1989 C1992 1.463 . S
C1989 C1994 1.350 . S
C1989 N1997 1.427 . S
C1990 H1981 0.930 . S
C1990 C1988 1.378 . S
C1990 C1991 1.367 . S
C1991 C1990 1.367 . S
C1991 C1993 1.433 . S
C1992 C1988 1.350 . S
C1992 C1989 1.463 . S
C1992 N1996 1.427 . S
C1993 H1983 0.929 . S
C1993 C1991 1.433 . S
C1993 N1996 1.384 . S
C1994 H1985 0.929 . S
C1994 C1986 1.378 . S
C1994 C1989 1.350 . S
C1995 H1982 0.929 . S
C1995 C1987 1.433 . S
C1995 N1997 1.384 . S
N1996 C1992 1.427 . S
N1996 C1993 1.384 . S
N1997 C1989 1.427 . S
N1997 C1995 1.384 . S
H1998 C2004 0.930 . S
H1999 C2008 0.930 . S
H2000 C2013 0.929 . S
H2001 C2011 0.929 . S
H2002 C2006 0.929 . S
H2003 C2012 0.929 . S
C2004 H1998 0.930 . S
C2004 C2005 1.367 . S
C2004 C2012 1.378 . S
C2005 C2004 1.367 . S
C2005 C2013 1.433 . S
C2006 H2002 0.929 . S
C2006 C2008 1.378 . S
C2006 C2010 1.350 . S
C2007 C2010 1.463 . S
C2007 C2012 1.350 . S
C2007 N2015 1.427 . S
C2008 H1999 0.930 . S
C2008 C2006 1.378 . S
C2008 C2009 1.367 . S
C2009 C2008 1.367 . S
C2009 C2011 1.433 . S
C2010 C2006 1.350 . S
C2010 C2007 1.463 . S
C2010 N2014 1.427 . S
C2011 H2001 0.929 . S
C2011 C2009 1.433 . S
C2011 N2014 1.384 . S
C2012 H2003 0.929 . S
C2012 C2004 1.378 . S
C2012 C2007 1.350 . S
C2013 H2000 0.929 . S
C2013 C2005 1.433 . S
C2013 N2015 1.384 . S
N2014 C2010 1.427 . S
N2014 C2011 1.384 . S
N2015 C2007 1.427 . S
N2015 C2013 1.384 . S
H2016 C2022 0.930 . S
H2017 C2026 0.930 . S
H2018 C2031 0.929 . S
H2019 C2029 0.929 . S
H2020 C2024 0.929 . S
H2021 C2030 0.929 . S
C2022 H2016 0.930 . S
C2022 C2023 1.367 . S
C2022 C2030 1.378 . S
C2023 C2022 1.367 . S
C2023 C2031 1.433 . S
C2024 H2020 0.929 . S
C2024 C2026 1.378 . S
C2024 C2028 1.350 . S
C2025 C2028 1.463 . S
C2025 C2030 1.350 . S
C2025 N2033 1.427 . S
C2026 H2017 0.930 . S
C2026 C2024 1.378 . S
C2026 C2027 1.367 . S
C2027 C2026 1.367 . S
C2027 C2029 1.433 . S
C2028 C2024 1.350 . S
C2028 C2025 1.463 . S
C2028 N2032 1.427 . S
C2029 H2019 0.929 . S
C2029 C2027 1.433 . S
C2029 N2032 1.384 . S
C2030 H2021 0.929 . S
C2030 C2022 1.378 . S
C2030 C2025 1.350 . S
C2031 H2018 0.929 . S
C2031 C2023 1.433 . S
C2031 N2033 1.384 . S
N2032 C2028 1.427 . S
N2032 C2029 1.384 . S
N2033 C2025 1.427 . S
N2033 C2031 1.384 . S
H2034 C2040 0.930 . S
H2035 C2044 0.930 . S
H2036 C2049 0.929 . S
H2037 C2047 0.929 . S
H2038 C2042 0.929 . S
H2039 C2048 0.929 . S
C2040 H2034 0.930 . S
C2040 C2041 1.367 . S
C2040 C2048 1.378 . S
C2041 C2040 1.367 . S
C2041 C2049 1.433 . S
C2042 H2038 0.929 . S
C2042 C2044 1.378 . S
C2042 C2046 1.350 . S
C2043 C2046 1.463 . S
C2043 C2048 1.350 . S
C2043 N2051 1.427 . S
C2044 H2035 0.930 . S
C2044 C2042 1.378 . S
C2044 C2045 1.367 . S
C2045 C2044 1.367 . S
C2045 C2047 1.433 . S
C2046 C2042 1.350 . S
C2046 C2043 1.463 . S
C2046 N2050 1.427 . S
C2047 H2037 0.929 . S
C2047 C2045 1.433 . S
C2047 N2050 1.384 . S
C2048 H2039 0.929 . S
C2048 C2040 1.378 . S
C2048 C2043 1.350 . S
C2049 H2036 0.929 . S
C2049 C2041 1.433 . S
C2049 N2051 1.384 . S
N2050 C2046 1.427 . S
N2050 C2047 1.384 . S
N2051 C2043 1.427 . S
N2051 C2049 1.384 . S
H2052 C2058 0.930 . S
H2053 C2062 0.930 . S
H2054 C2067 0.929 . S
H2055 C2065 0.929 . S
H2056 C2060 0.929 . S
H2057 C2066 0.929 . S
C2058 H2052 0.930 . S
C2058 C2059 1.367 . S
C2058 C2066 1.378 . S
C2059 C2058 1.367 . S
C2059 C2067 1.433 . S
C2060 H2056 0.929 . S
C2060 C2062 1.378 . S
C2060 C2064 1.350 . S
C2061 C2064 1.463 . S
C2061 C2066 1.350 . S
C2061 N2069 1.427 . S
C2062 H2053 0.930 . S
C2062 C2060 1.378 . S
C2062 C2063 1.367 . S
C2063 C2062 1.367 . S
C2063 C2065 1.433 . S
C2064 C2060 1.350 . S
C2064 C2061 1.463 . S
C2064 N2068 1.427 . S
C2065 H2055 0.929 . S
C2065 C2063 1.433 . S
C2065 N2068 1.384 . S
C2066 H2057 0.929 . S
C2066 C2058 1.378 . S
C2066 C2061 1.350 . S
C2067 H2054 0.929 . S
C2067 C2059 1.433 . S
C2067 N2069 1.384 . S
N2068 C2064 1.427 . S
N2068 C2065 1.384 . S
N2069 C2061 1.427 . S
N2069 C2067 1.384 . S
H2070 C2076 0.930 . S
H2071 C2080 0.930 . S
H2072 C2085 0.929 . S
H2073 C2083 0.929 . S
H2074 C2078 0.929 . S
H2075 C2084 0.929 . S
C2076 H2070 0.930 . S
C2076 C2077 1.367 . S
C2076 C2084 1.378 . S
C2077 C2076 1.367 . S
C2077 C2085 1.433 . S
C2078 H2074 0.929 . S
C2078 C2080 1.378 . S
C2078 C2082 1.350 . S
C2079 C2082 1.463 . S
C2079 C2084 1.350 . S
C2079 N2087 1.427 . S
C2080 H2071 0.930 . S
C2080 C2078 1.378 . S
C2080 C2081 1.367 . S
C2081 C2080 1.367 . S
C2081 C2083 1.433 . S
C2082 C2078 1.350 . S
C2082 C2079 1.463 . S
C2082 N2086 1.427 . S
C2083 H2073 0.929 . S
C2083 C2081 1.433 . S
C2083 N2086 1.384 . S
C2084 H2075 0.929 . S
C2084 C2076 1.378 . S
C2084 C2079 1.350 . S
C2085 H2072 0.929 . S
C2085 C2077 1.433 . S
C2085 N2087 1.384 . S
N2086 C2082 1.427 . S
N2086 C2083 1.384 . S
N2087 C2079 1.427 . S
N2087 C2085 1.384 . S
H2088 C2094 0.930 . S
H2089 C2098 0.930 . S
H2090 C2103 0.929 1_455 S
H2091 C2101 0.929 1_655 S
H2092 C2096 0.929 . S
H2093 C2102 0.929 . S
C2094 H2088 0.930 . S
C2094 C2095 1.367 . S
C2094 C2102 1.378 . S
C2095 C2094 1.367 . S
C2095 C2103 1.433 . S
C2096 H2092 0.929 . S
C2096 C2098 1.378 . S
C2096 C2100 1.350 . S
C2097 C2100 1.463 1_655 S
C2097 C2102 1.350 . S
C2097 N2105 1.427 1_655 S
C2098 H2089 0.930 . S
C2098 C2096 1.378 . S
C2098 C2099 1.367 . S
C2099 C2098 1.367 . S
C2099 C2101 1.433 . S
C2100 C2096 1.350 . S
C2100 C2097 1.463 1_455 S
C2100 N2104 1.427 1_455 S
C2101 H2091 0.929 1_455 S
C2101 C2099 1.433 . S
C2101 N2104 1.384 1_455 S
C2102 H2093 0.929 . S
C2102 C2094 1.378 . S
C2102 C2097 1.350 . S
C2103 H2090 0.929 1_655 S
C2103 C2095 1.433 . S
C2103 N2105 1.384 1_655 S
N2104 C2100 1.427 1_655 S
N2104 C2101 1.384 1_655 S
N2105 C2097 1.427 1_455 S
N2105 C2103 1.384 1_455 S
H2106 C2112 0.930 . S
H2107 C2116 0.930 . S
H2108 C2121 0.929 . S
H2109 C2119 0.929 . S
H2110 C2114 0.929 . S
H2111 C2120 0.929 . S
C2112 H2106 0.930 . S
C2112 C2113 1.367 . S
C2112 C2120 1.378 . S
C2113 C2112 1.367 . S
C2113 C2121 1.433 . S
C2114 H2110 0.929 . S
C2114 C2116 1.378 . S
C2114 C2118 1.350 . S
C2115 C2118 1.463 . S
C2115 C2120 1.350 . S
C2115 N2123 1.427 . S
C2116 H2107 0.930 . S
C2116 C2114 1.378 . S
C2116 C2117 1.367 . S
C2117 C2116 1.367 . S
C2117 C2119 1.433 . S
C2118 C2114 1.350 . S
C2118 C2115 1.463 . S
C2118 N2122 1.427 . S
C2119 H2109 0.929 . S
C2119 C2117 1.433 . S
C2119 N2122 1.384 . S
C2120 H2111 0.929 . S
C2120 C2112 1.378 . S
C2120 C2115 1.350 . S
C2121 H2108 0.929 . S
C2121 C2113 1.433 . S
C2121 N2123 1.384 . S
N2122 C2118 1.427 . S
N2122 C2119 1.384 . S
N2123 C2115 1.427 . S
N2123 C2121 1.384 . S
H2124 C2130 0.930 . S
H2125 C2134 0.930 . S
H2126 C2139 0.929 . S
H2127 C2137 0.929 . S
H2128 C2132 0.929 . S
H2129 C2138 0.929 . S
C2130 H2124 0.930 . S
C2130 C2131 1.367 . S
C2130 C2138 1.378 . S
C2131 C2130 1.367 . S
C2131 C2139 1.433 1_545 S
C2132 H2128 0.929 . S
C2132 C2134 1.378 . S
C2132 C2136 1.350 . S
C2133 C2136 1.463 1_545 S
C2133 C2138 1.350 . S
C2133 N2141 1.427 1_545 S
C2134 H2125 0.930 . S
C2134 C2132 1.378 . S
C2134 C2135 1.367 . S
C2135 C2134 1.367 . S
C2135 C2137 1.433 1_565 S
C2136 C2132 1.350 . S
C2136 C2133 1.463 1_565 S
C2136 N2140 1.427 1_565 S
C2137 H2127 0.929 . S
C2137 C2135 1.433 1_545 S
C2137 N2140 1.384 . S
C2138 H2129 0.929 . S
C2138 C2130 1.378 . S
C2138 C2133 1.350 . S
C2139 H2126 0.929 . S
C2139 C2131 1.433 1_565 S
C2139 N2141 1.384 . S
N2140 C2136 1.427 1_545 S
N2140 C2137 1.384 . S
N2141 C2133 1.427 1_565 S
N2141 C2139 1.384 . S
H2142 C2148 0.930 . S
H2143 C2152 0.930 . S
H2144 C2157 0.929 . S
H2145 C2155 0.929 . S
H2146 C2150 0.929 . S
H2147 C2156 0.929 . S
C2148 H2142 0.930 . S
C2148 C2149 1.367 . S
C2148 C2156 1.378 . S
C2149 C2148 1.367 . S
C2149 C2157 1.433 . S
C2150 H2146 0.929 . S
C2150 C2152 1.378 . S
C2150 C2154 1.350 . S
C2151 C2154 1.463 1_564 S
C2151 C2156 1.350 . S
C2151 N2159 1.414 . S
C2152 H2143 0.930 . S
C2152 C2150 1.378 . S
C2152 C2153 1.367 . S
C2153 C2152 1.367 . S
C2153 C2155 1.433 . S
C2154 C2150 1.350 . S
C2154 C2151 1.463 1_546 S
C2154 N2158 1.414 . S
C2155 H2145 0.929 . S
C2155 C2153 1.433 . S
C2155 N2158 1.427 . S
C2156 H2147 0.929 . S
C2156 C2148 1.378 . S
C2156 C2151 1.350 . S
C2157 H2144 0.929 . S
C2157 C2149 1.433 . S
C2157 N2159 1.427 . S
N2158 C2154 1.414 . S
N2158 C2155 1.427 . S
N2159 C2151 1.414 . S
N2159 C2157 1.427 . S
H2160 C2166 0.930 . S
H2161 C2170 0.930 . S
H2162 C2175 0.929 . S
H2163 C2173 0.929 . S
H2164 C2168 0.929 . S
H2165 C2174 0.929 . S
C2166 H2160 0.930 . S
C2166 C2167 1.367 . S
C2166 C2174 1.378 1_655 S
C2167 C2166 1.367 . S
C2167 C2175 1.433 . S
C2168 H2164 0.929 . S
C2168 C2170 1.378 1_655 S
C2168 C2172 1.350 1_655 S
C2169 C2172 1.463 1_656 S
C2169 C2174 1.350 1_655 S
C2169 N2177 1.427 . S
C2170 H2161 0.930 . S
C2170 C2168 1.378 1_455 S
C2170 C2171 1.367 . S
C2171 C2170 1.367 . S
C2171 C2173 1.433 . S
C2172 C2168 1.350 1_455 S
C2172 C2169 1.463 1_454 S
C2172 N2176 1.427 . S
C2173 H2163 0.929 . S
C2173 C2171 1.433 . S
C2173 N2176 1.384 . S
C2174 H2165 0.929 . S
C2174 C2166 1.378 1_455 S
C2174 C2169 1.350 1_455 S
C2175 H2162 0.929 . S
C2175 C2167 1.433 . S
C2175 N2177 1.384 . S
N2176 C2172 1.427 . S
N2176 C2173 1.384 . S
N2177 C2169 1.427 . S
N2177 C2175 1.384 . S
H2178 C2184 0.930 . S
H2179 C2188 0.930 . S
H2180 C2193 0.929 . S
H2181 C2191 0.929 . S
H2182 C2186 0.929 . S
H2183 C2192 0.929 . S
C2184 H2178 0.930 . S
C2184 C2185 1.367 . S
C2184 C2192 1.378 . S
C2185 C2184 1.367 . S
C2185 C2193 1.433 . S
C2186 H2182 0.929 . S
C2186 C2188 1.378 . S
C2186 C2190 1.350 . S
C2187 C2190 1.463 1_554 S
C2187 C2192 1.350 . S
C2187 N2195 1.427 . S
C2188 H2179 0.930 . S
C2188 C2186 1.378 . S
C2188 C2189 1.367 . S
C2189 C2188 1.367 . S
C2189 C2191 1.433 . S
C2190 C2186 1.350 . S
C2190 C2187 1.463 1_556 S
C2190 N2194 1.427 . S
C2191 H2181 0.929 . S
C2191 C2189 1.433 . S
C2191 N2194 1.384 . S
C2192 H2183 0.929 . S
C2192 C2184 1.378 . S
C2192 C2187 1.350 . S
C2193 H2180 0.929 . S
C2193 C2185 1.433 . S
C2193 N2195 1.384 . S
N2194 C2190 1.427 . S
N2194 C2191 1.384 . S
N2195 C2187 1.427 . S
N2195 C2193 1.384 . S
H2196 C2202 0.956 . S
H2197 C2206 0.930 . S
H2198 C2211 0.929 . S
H2199 C2209 0.929 . S
H2200 C2204 0.929 . S
H2201 C2210 0.929 . S
C2202 H2196 0.956 . S
C2202 C2203 1.361 1_554 S
C2202 C2210 1.358 1_554 S
C2203 C2202 1.361 1_556 S
C2203 C2211 1.433 . S
C2204 H2200 0.929 . S
C2204 C2206 1.378 . S
C2204 C2208 1.350 . S
C2205 C2208 1.463 . S
C2205 C2210 1.350 . S
C2205 N2213 1.427 . S
C2206 H2197 0.930 . S
C2206 C2204 1.378 . S
C2206 C2207 1.367 . S
C2207 C2206 1.367 . S
C2207 C2209 1.433 . S
C2208 C2204 1.350 . S
C2208 C2205 1.463 . S
C2208 N2212 1.427 . S
C2209 H2199 0.929 . S
C2209 C2207 1.433 . S
C2209 N2212 1.384 . S
C2210 H2201 0.929 . S
C2210 C2202 1.358 1_556 S
C2210 C2205 1.350 . S
C2211 H2198 0.929 . S
C2211 C2203 1.433 . S
C2211 N2213 1.384 . S
N2212 C2208 1.427 . S
N2212 C2209 1.384 . S
N2213 C2205 1.427 . S
N2213 C2211 1.384 . S
H2214 C2220 0.930 . S
H2215 C2224 0.930 . S
H2216 C2229 0.929 . S
H2217 C2227 0.929 . S
H2218 C2222 0.929 . S
H2219 C2228 0.929 . S
C2220 H2214 0.930 . S
C2220 C2221 1.367 1_554 S
C2220 C2228 1.378 1_554 S
C2221 C2220 1.367 1_556 S
C2221 C2229 1.433 . S
C2222 H2218 0.929 . S
C2222 C2224 1.378 . S
C2222 C2226 1.350 . S
C2223 C2226 1.463 . S
C2223 C2228 1.350 . S
C2223 N2231 1.427 . S
C2224 H2215 0.930 . S
C2224 C2222 1.378 . S
C2224 C2225 1.367 . S
C2225 C2224 1.367 . S
C2225 C2227 1.433 . S
C2226 C2222 1.350 . S
C2226 C2223 1.463 . S
C2226 N2230 1.427 . S
C2227 H2217 0.929 . S
C2227 C2225 1.433 . S
C2227 N2230 1.384 . S
C2228 H2219 0.929 . S
C2228 C2220 1.378 1_556 S
C2228 C2223 1.350 . S
C2229 H2216 0.929 . S
C2229 C2221 1.433 . S
C2229 N2231 1.384 . S
N2230 C2226 1.427 . S
N2230 C2227 1.384 . S
N2231 C2223 1.427 . S
N2231 C2229 1.384 . S
H2232 C2238 0.930 . S
H2233 C2242 0.930 . S
H2234 C2247 0.929 . S
H2235 C2245 0.929 . S
H2236 C2240 0.929 . S
H2237 C2246 0.929 . S
C2238 H2232 0.930 . S
C2238 C2239 1.367 . S
C2238 C2246 1.378 . S
C2239 C2238 1.367 . S
C2239 C2247 1.433 . S
C2240 H2236 0.929 . S
C2240 C2242 1.378 . S
C2240 C2244 1.350 . S
C2241 C2244 1.463 . S
C2241 C2246 1.350 . S
C2241 N2249 1.427 . S
C2242 H2233 0.930 . S
C2242 C2240 1.378 . S
C2242 C2243 1.367 . S
C2243 C2242 1.367 . S
C2243 C2245 1.433 . S
C2244 C2240 1.350 . S
C2244 C2241 1.463 . S
C2244 N2248 1.427 . S
C2245 H2235 0.929 . S
C2245 C2243 1.433 . S
C2245 N2248 1.384 . S
C2246 H2237 0.929 . S
C2246 C2238 1.378 . S
C2246 C2241 1.350 . S
C2247 H2234 0.929 . S
C2247 C2239 1.433 . S
C2247 N2249 1.384 . S
N2248 C2244 1.427 . S
N2248 C2245 1.384 . S
N2249 C2241 1.427 . S
N2249 C2247 1.384 . S
H2250 C2256 0.930 . S
H2251 C2260 0.930 . S
H2252 C2265 0.929 . S
H2253 C2263 0.929 . S
H2254 C2258 0.929 . S
H2255 C2264 0.929 . S
C2256 H2250 0.930 . S
C2256 C2257 1.367 . S
C2256 C2264 1.378 . S
C2257 C2256 1.367 . S
C2257 C2265 1.433 . S
C2258 H2254 0.929 . S
C2258 C2260 1.378 . S
C2258 C2262 1.350 . S
C2259 C2262 1.463 . S
C2259 C2264 1.350 . S
C2259 N2267 1.427 . S
C2260 H2251 0.930 . S
C2260 C2258 1.378 . S
C2260 C2261 1.367 . S
C2261 C2260 1.367 . S
C2261 C2263 1.433 . S
C2262 C2258 1.350 . S
C2262 C2259 1.463 . S
C2262 N2266 1.427 . S
C2263 H2253 0.929 . S
C2263 C2261 1.433 . S
C2263 N2266 1.384 . S
C2264 H2255 0.929 . S
C2264 C2256 1.378 . S
C2264 C2259 1.350 . S
C2265 H2252 0.929 . S
C2265 C2257 1.433 . S
C2265 N2267 1.384 . S
N2266 C2262 1.427 . S
N2266 C2263 1.384 . S
N2267 C2259 1.427 . S
N2267 C2265 1.384 . S
H2268 C2274 0.930 . S
H2269 C2278 0.930 . S
H2270 C2283 0.929 . S
H2271 C2281 0.929 . S
H2272 C2276 0.929 . S
H2273 C2282 0.929 . S
C2274 H2268 0.930 . S
C2274 C2275 1.367 . S
C2274 C2282 1.378 . S
C2275 C2274 1.367 . S
C2275 C2283 1.433 . S
C2276 H2272 0.929 . S
C2276 C2278 1.378 . S
C2276 C2280 1.350 . S
C2277 C2280 1.463 . S
C2277 C2282 1.350 . S
C2277 N2285 1.427 . S
C2278 H2269 0.930 . S
C2278 C2276 1.378 . S
C2278 C2279 1.367 . S
C2279 C2278 1.367 . S
C2279 C2281 1.433 . S
C2280 C2276 1.350 . S
C2280 C2277 1.463 . S
C2280 N2284 1.427 . S
C2281 H2271 0.929 . S
C2281 C2279 1.433 . S
C2281 N2284 1.384 . S
C2282 H2273 0.929 . S
C2282 C2274 1.378 . S
C2282 C2277 1.350 . S
C2283 H2270 0.929 . S
C2283 C2275 1.433 . S
C2283 N2285 1.384 . S
N2284 C2280 1.427 . S
N2284 C2281 1.384 . S
N2285 C2277 1.427 . S
N2285 C2283 1.384 . S
H2286 C2292 0.930 . S
H2287 C2296 0.930 . S
H2288 C2301 0.929 . S
H2289 C2299 0.929 . S
H2290 C2294 0.929 . S
H2291 C2300 0.929 . S
C2292 H2286 0.930 . S
C2292 C2293 1.367 . S
C2292 C2300 1.378 . S
C2293 C2292 1.367 . S
C2293 C2301 1.433 . S
C2294 H2290 0.929 . S
C2294 C2296 1.378 . S
C2294 C2298 1.350 . S
C2295 C2298 1.463 . S
C2295 C2300 1.350 . S
C2295 N2303 1.427 . S
C2296 H2287 0.930 . S
C2296 C2294 1.378 . S
C2296 C2297 1.367 . S
C2297 C2296 1.367 . S
C2297 C2299 1.433 . S
C2298 C2294 1.350 . S
C2298 C2295 1.463 . S
C2298 N2302 1.427 . S
C2299 H2289 0.929 . S
C2299 C2297 1.433 . S
C2299 N2302 1.384 . S
C2300 H2291 0.929 . S
C2300 C2292 1.378 . S
C2300 C2295 1.350 . S
C2301 H2288 0.929 . S
C2301 C2293 1.433 . S
C2301 N2303 1.384 . S
N2302 C2298 1.427 . S
N2302 C2299 1.384 . S
N2303 C2295 1.427 . S
N2303 C2301 1.384 . S
H2304 C2310 0.930 . S
H2305 C2314 0.930 . S
H2306 C2319 0.929 . S
H2307 C2317 0.921 1_556 S
H2308 C2312 0.929 . S
H2309 C2318 0.929 . S
C2310 H2304 0.930 . S
C2310 C2311 1.367 . S
C2310 C2318 1.378 . S
C2311 C2310 1.367 . S
C2311 C2319 1.433 . S
C2312 H2308 0.929 . S
C2312 C2314 1.378 . S
C2312 C2316 1.350 . S
C2313 C2316 1.463 . S
C2313 C2318 1.350 . S
C2313 N2321 1.427 . S
C2314 H2305 0.930 . S
C2314 C2312 1.378 . S
C2314 C2315 1.367 . S
C2315 C2314 1.367 . S
C2315 C2317 1.435 . S
C2316 C2312 1.350 . S
C2316 C2313 1.463 . S
C2316 N2320 1.427 . S
C2317 H2307 0.921 1_554 S
C2317 C2315 1.435 . S
C2317 N2320 1.390 . S
C2318 H2309 0.929 . S
C2318 C2310 1.378 . S
C2318 C2313 1.350 . S
C2319 H2306 0.929 . S
C2319 C2311 1.433 . S
C2319 N2321 1.384 . S
N2320 C2316 1.427 . S
N2320 C2317 1.390 . S
N2321 C2313 1.427 . S
N2321 C2319 1.384 . S
H2322 C2328 0.930 . S
H2323 C2332 0.930 . S
H2324 C2337 0.929 . S
H2325 C2335 0.929 . S
H2326 C2330 0.929 . S
H2327 C2336 0.929 . S
C2328 H2322 0.930 . S
C2328 C2329 1.367 1_556 S
C2328 C2336 1.378 1_556 S
C2329 C2328 1.367 1_554 S
C2329 C2337 1.433 . S
C2330 H2326 0.929 . S
C2330 C2332 1.378 . S
C2330 C2334 1.350 . S
C2331 C2334 1.463 . S
C2331 C2336 1.350 . S
C2331 N2339 1.427 . S
C2332 H2323 0.930 . S
C2332 C2330 1.378 . S
C2332 C2333 1.367 . S
C2333 C2332 1.367 . S
C2333 C2335 1.433 . S
C2334 C2330 1.350 . S
C2334 C2331 1.463 . S
C2334 N2338 1.427 . S
C2335 H2325 0.929 . S
C2335 C2333 1.433 . S
C2335 N2338 1.384 . S
C2336 H2327 0.929 . S
C2336 C2328 1.378 1_554 S
C2336 C2331 1.350 . S
C2337 H2324 0.929 . S
C2337 C2329 1.433 . S
C2337 N2339 1.384 . S
N2338 C2334 1.427 . S
N2338 C2335 1.384 . S
N2339 C2331 1.427 . S
N2339 C2337 1.384 . S
H2340 C2346 0.930 . S
H2341 C2350 0.930 . S
H2342 C2355 0.929 . S
H2343 C2353 0.929 1_556 S
H2344 C2348 0.929 . S
H2345 C2354 0.929 . S
C2346 H2340 0.930 . S
C2346 C2347 1.367 . S
C2346 C2354 1.378 . S
C2347 C2346 1.367 . S
C2347 C2355 1.433 . S
C2348 H2344 0.929 . S
C2348 C2350 1.378 . S
C2348 C2352 1.350 . S
C2349 C2352 1.463 . S
C2349 C2354 1.350 . S
C2349 N2357 1.427 . S
C2350 H2341 0.930 . S
C2350 C2348 1.378 . S
C2350 C2351 1.367 . S
C2351 C2350 1.367 . S
C2351 C2353 1.433 . S
C2352 C2348 1.350 . S
C2352 C2349 1.463 . S
C2352 N2356 1.427 . S
C2353 H2343 0.929 1_554 S
C2353 C2351 1.433 . S
C2353 N2356 1.384 . S
C2354 H2345 0.929 . S
C2354 C2346 1.378 . S
C2354 C2349 1.350 . S
C2355 H2342 0.929 . S
C2355 C2347 1.433 . S
C2355 N2357 1.384 . S
N2356 C2352 1.427 . S
N2356 C2353 1.384 . S
N2357 C2349 1.427 . S
N2357 C2355 1.384 . S
H2358 C2364 0.930 . S
H2359 C2368 0.930 . S
H2360 C2373 0.929 . S
H2361 C2371 0.929 . S
H2362 C2366 0.929 . S
H2363 C2372 0.929 . S
C2364 H2358 0.930 . S
C2364 C2365 1.367 . S
C2364 C2372 1.378 . S
C2365 C2364 1.367 . S
C2365 C2373 1.433 . S
C2366 H2362 0.929 . S
C2366 C2368 1.378 . S
C2366 C2370 1.350 . S
C2367 C2370 1.463 . S
C2367 C2372 1.350 . S
C2367 N2375 1.427 . S
C2368 H2359 0.930 . S
C2368 C2366 1.378 . S
C2368 C2369 1.367 . S
C2369 C2368 1.367 . S
C2369 C2371 1.433 . S
C2370 C2366 1.350 . S
C2370 C2367 1.463 . S
C2370 N2374 1.427 . S
C2371 H2361 0.929 . S
C2371 C2369 1.433 . S
C2371 N2374 1.384 . S
C2372 H2363 0.929 . S
C2372 C2364 1.378 . S
C2372 C2367 1.350 . S
C2373 H2360 0.929 . S
C2373 C2365 1.433 . S
C2373 N2375 1.384 . S
N2374 C2370 1.427 . S
N2374 C2371 1.384 . S
N2375 C2367 1.427 . S
N2375 C2373 1.384 . S
H2376 C2382 0.930 . S
H2377 C2386 0.930 . S
H2378 C2391 0.929 . S
H2379 C2389 0.929 . S
H2380 C2384 0.929 . S
H2381 C2390 0.929 . S
C2382 H2376 0.930 . S
C2382 C2383 1.367 . S
C2382 C2390 1.378 . S
C2383 C2382 1.367 . S
C2383 C2391 1.433 . S
C2384 H2380 0.929 . S
C2384 C2386 1.378 . S
C2384 C2388 1.350 . S
C2385 C2388 1.463 . S
C2385 C2390 1.350 . S
C2385 N2393 1.427 . S
C2386 H2377 0.930 . S
C2386 C2384 1.378 . S
C2386 C2387 1.367 . S
C2387 C2386 1.367 . S
C2387 C2389 1.433 . S
C2388 C2384 1.350 . S
C2388 C2385 1.463 . S
C2388 N2392 1.427 . S
C2389 H2379 0.929 . S
C2389 C2387 1.433 . S
C2389 N2392 1.384 . S
C2390 H2381 0.929 . S
C2390 C2382 1.378 . S
C2390 C2385 1.350 . S
C2391 H2378 0.929 . S
C2391 C2383 1.433 . S
C2391 N2393 1.384 . S
N2392 C2388 1.427 . S
N2392 C2389 1.384 . S
N2393 C2385 1.427 . S
N2393 C2391 1.384 . S
H2394 C2400 0.930 . S
H2395 C2404 0.930 . S
H2396 C2409 0.929 . S
H2397 C2407 0.929 . S
H2398 C2402 0.929 . S
H2399 C2408 0.929 . S
C2400 H2394 0.930 . S
C2400 C2401 1.367 . S
C2400 C2408 1.378 . S
C2401 C2400 1.367 . S
C2401 C2409 1.433 . S
C2402 H2398 0.929 . S
C2402 C2404 1.378 . S
C2402 C2406 1.350 . S
C2403 C2406 1.463 . S
C2403 C2408 1.350 . S
C2403 N2411 1.427 . S
C2404 H2395 0.930 . S
C2404 C2402 1.378 . S
C2404 C2405 1.367 . S
C2405 C2404 1.367 . S
C2405 C2407 1.433 . S
C2406 C2402 1.350 . S
C2406 C2403 1.463 . S
C2406 N2410 1.427 . S
C2407 H2397 0.929 . S
C2407 C2405 1.433 . S
C2407 N2410 1.384 . S
C2408 H2399 0.929 . S
C2408 C2400 1.378 . S
C2408 C2403 1.350 . S
C2409 H2396 0.929 . S
C2409 C2401 1.433 . S
C2409 N2411 1.384 . S
N2410 C2406 1.427 . S
N2410 C2407 1.384 . S
N2411 C2403 1.427 . S
N2411 C2409 1.384 . S
H2412 C2418 0.930 . S
H2413 C2422 0.930 . S
H2414 C2427 0.929 . S
H2415 C2425 0.929 . S
H2416 C2420 0.929 . S
H2417 C2426 0.929 . S
C2418 H2412 0.930 . S
C2418 C2419 1.367 . S
C2418 C2426 1.378 1_455 S
C2419 C2418 1.367 . S
C2419 C2427 1.433 . S
C2420 H2416 0.929 . S
C2420 C2422 1.378 . S
C2420 C2424 1.350 . S
C2421 C2424 1.463 . S
C2421 C2426 1.350 . S
C2421 N2429 1.427 1_655 S
C2422 H2413 0.930 . S
C2422 C2420 1.378 . S
C2422 C2423 1.367 . S
C2423 C2422 1.367 . S
C2423 C2425 1.433 . S
C2424 C2420 1.350 . S
C2424 C2421 1.463 . S
C2424 N2428 1.427 . S
C2425 H2415 0.929 . S
C2425 C2423 1.433 . S
C2425 N2428 1.384 . S
C2426 H2417 0.929 . S
C2426 C2418 1.378 1_655 S
C2426 C2421 1.350 . S
C2427 H2414 0.929 . S
C2427 C2419 1.433 . S
C2427 N2429 1.384 . S
N2428 C2424 1.427 . S
N2428 C2425 1.384 . S
N2429 C2421 1.427 1_455 S
N2429 C2427 1.384 . S
H2430 C2436 0.930 . S
H2431 C2440 0.930 . S
H2432 C2445 0.929 . S
H2433 C2443 0.929 . S
H2434 C2438 0.929 . S
H2435 C2444 0.929 . S
C2436 H2430 0.930 . S
C2436 C2437 1.367 . S
C2436 C2444 1.378 . S
C2437 C2436 1.367 . S
C2437 C2445 1.433 . S
C2438 H2434 0.929 . S
C2438 C2440 1.378 . S
C2438 C2442 1.350 . S
C2439 C2442 1.463 . S
C2439 C2444 1.350 . S
C2439 N2447 1.427 . S
C2440 H2431 0.930 . S
C2440 C2438 1.378 . S
C2440 C2441 1.367 . S
C2441 C2440 1.367 . S
C2441 C2443 1.433 . S
C2442 C2438 1.350 . S
C2442 C2439 1.463 . S
C2442 N2446 1.427 . S
C2443 H2433 0.929 . S
C2443 C2441 1.433 . S
C2443 N2446 1.384 . S
C2444 H2435 0.929 . S
C2444 C2436 1.378 . S
C2444 C2439 1.350 . S
C2445 H2432 0.929 . S
C2445 C2437 1.433 . S
C2445 N2447 1.384 . S
N2446 C2442 1.427 . S
N2446 C2443 1.384 . S
N2447 C2439 1.427 . S
N2447 C2445 1.384 . S
H2448 C2454 0.930 . S
H2449 C2458 0.930 . S
H2450 C2463 0.929 . S
H2451 C2461 0.929 . S
H2452 C2456 0.929 . S
H2453 C2462 0.929 . S
C2454 H2448 0.930 . S
C2454 C2455 1.367 . S
C2454 C2462 1.378 . S
C2455 C2454 1.367 . S
C2455 C2463 1.433 . S
C2456 H2452 0.929 . S
C2456 C2458 1.378 . S
C2456 C2460 1.350 1_565 S
C2457 C2460 1.463 . S
C2457 C2462 1.350 . S
C2457 N2465 1.427 . S
C2458 H2449 0.930 . S
C2458 C2456 1.378 . S
C2458 C2459 1.367 . S
C2459 C2458 1.367 . S
C2459 C2461 1.433 . S
C2460 C2456 1.350 1_545 S
C2460 C2457 1.463 . S
C2460 N2464 1.427 . S
C2461 H2451 0.929 . S
C2461 C2459 1.433 . S
C2461 N2464 1.384 1_565 S
C2462 H2453 0.929 . S
C2462 C2454 1.378 . S
C2462 C2457 1.350 . S
C2463 H2450 0.929 . S
C2463 C2455 1.433 . S
C2463 N2465 1.384 . S
N2464 C2460 1.427 . S
N2464 C2461 1.384 1_545 S
N2465 C2457 1.427 . S
N2465 C2463 1.384 . S
H2466 C2472 0.930 . S
H2467 C2476 0.930 . S
H2468 C2481 0.929 . S
H2469 C2479 0.928 1_565 S
H2470 C2474 0.929 . S
H2471 C2480 0.929 . S
C2472 H2466 0.930 . S
C2472 C2473 1.367 . S
C2472 C2480 1.378 . S
C2473 C2472 1.367 . S
C2473 C2481 1.433 . S
C2474 H2470 0.929 . S
C2474 C2476 1.378 . S
C2474 C2478 1.350 1_545 S
C2475 C2478 1.463 . S
C2475 C2480 1.350 . S
C2475 N2483 1.427 . S
C2476 H2467 0.930 . S
C2476 C2474 1.378 . S
C2476 C2477 1.367 . S
C2477 C2476 1.367 . S
C2477 C2479 1.433 . S
C2478 C2474 1.350 1_565 S
C2478 C2475 1.463 . S
C2478 N2482 1.427 . S
C2479 H2469 0.928 1_545 S
C2479 C2477 1.433 . S
C2479 N2482 1.384 1_545 S
C2480 H2471 0.929 . S
C2480 C2472 1.378 . S
C2480 C2475 1.350 . S
C2481 H2468 0.929 . S
C2481 C2473 1.433 . S
C2481 N2483 1.384 . S
N2482 C2478 1.427 . S
N2482 C2479 1.384 1_565 S
N2483 C2475 1.427 . S
N2483 C2481 1.384 . S
H2484 C2490 0.930 . S
H2485 C2494 0.930 . S
H2486 C2499 0.929 . S
H2487 C2497 0.929 . S
H2488 C2492 0.929 . S
H2489 C2498 0.929 . S
C2490 H2484 0.930 . S
C2490 C2491 1.367 . S
C2490 C2498 1.378 . S
C2491 C2490 1.367 . S
C2491 C2499 1.433 . S
C2492 H2488 0.929 . S
C2492 C2494 1.378 . S
C2492 C2496 1.350 1_655 S
C2493 C2496 1.463 . S
C2493 C2498 1.350 . S
C2493 N2501 1.427 . S
C2494 H2485 0.930 . S
C2494 C2492 1.378 . S
C2494 C2495 1.367 . S
C2495 C2494 1.367 . S
C2495 C2497 1.433 . S
C2496 C2492 1.350 1_455 S
C2496 C2493 1.463 . S
C2496 N2500 1.427 . S
C2497 H2487 0.929 . S
C2497 C2495 1.433 . S
C2497 N2500 1.384 1_655 S
C2498 H2489 0.929 . S
C2498 C2490 1.378 . S
C2498 C2493 1.350 . S
C2499 H2486 0.929 . S
C2499 C2491 1.433 . S
C2499 N2501 1.384 . S
N2500 C2496 1.427 . S
N2500 C2497 1.384 1_455 S
N2501 C2493 1.427 . S
N2501 C2499 1.384 . S
H2502 C2508 0.930 . S
H2503 C2512 0.930 . S
H2504 C2517 0.929 . S
H2505 C2515 0.929 . S
H2506 C2510 0.929 . S
H2507 C2516 0.929 . S
C2508 H2502 0.930 . S
C2508 C2509 1.367 . S
C2508 C2516 1.378 . S
C2509 C2508 1.367 . S
C2509 C2517 1.433 . S
C2510 H2506 0.929 . S
C2510 C2512 1.378 . S
C2510 C2514 1.350 . S
C2511 C2514 1.463 . S
C2511 C2516 1.350 . S
C2511 N2519 1.427 . S
C2512 H2503 0.930 . S
C2512 C2510 1.378 . S
C2512 C2513 1.367 . S
C2513 C2512 1.367 . S
C2513 C2515 1.433 . S
C2514 C2510 1.350 . S
C2514 C2511 1.463 . S
C2514 N2518 1.427 . S
C2515 H2505 0.929 . S
C2515 C2513 1.433 . S
C2515 N2518 1.384 . S
C2516 H2507 0.929 . S
C2516 C2508 1.378 . S
C2516 C2511 1.350 . S
C2517 H2504 0.929 . S
C2517 C2509 1.433 . S
C2517 N2519 1.384 . S
N2518 C2514 1.427 . S
N2518 C2515 1.384 . S
N2519 C2511 1.427 . S
N2519 C2517 1.384 . S
H2520 C2526 0.930 . S
H2521 C2530 0.930 . S
H2522 C2535 0.929 . S
H2523 C2533 0.929 . S
H2524 C2528 0.929 . S
H2525 C2534 0.929 . S
C2526 H2520 0.930 . S
C2526 C2527 1.367 . S
C2526 C2534 1.378 . S
C2527 C2526 1.367 . S
C2527 C2535 1.433 . S
C2528 H2524 0.929 . S
C2528 C2530 1.378 . S
C2528 C2532 1.350 . S
C2529 C2532 1.463 . S
C2529 C2534 1.350 . S
C2529 N2537 1.427 . S
C2530 H2521 0.930 . S
C2530 C2528 1.378 . S
C2530 C2531 1.367 . S
C2531 C2530 1.367 . S
C2531 C2533 1.433 . S
C2532 C2528 1.350 . S
C2532 C2529 1.463 . S
C2532 N2536 1.427 . S
C2533 H2523 0.929 . S
C2533 C2531 1.433 . S
C2533 N2536 1.384 . S
C2534 H2525 0.929 . S
C2534 C2526 1.378 . S
C2534 C2529 1.350 . S
C2535 H2522 0.929 . S
C2535 C2527 1.433 . S
C2535 N2537 1.384 . S
N2536 C2532 1.427 . S
N2536 C2533 1.384 . S
N2537 C2529 1.427 . S
N2537 C2535 1.384 . S
H2538 C2544 0.930 . S
H2539 C2548 0.930 . S
H2540 C2553 0.929 . S
H2541 C2551 0.929 . S
H2542 C2546 0.929 . S
H2543 C2552 0.929 . S
C2544 H2538 0.930 . S
C2544 C2545 1.367 . S
C2544 C2552 1.378 . S
C2545 C2544 1.367 . S
C2545 C2553 1.433 1_545 S
C2546 H2542 0.929 . S
C2546 C2548 1.378 . S
C2546 C2550 1.350 . S
C2547 C2550 1.463 . S
C2547 C2552 1.350 1_565 S
C2547 N2555 1.427 . S
C2548 H2539 0.930 . S
C2548 C2546 1.378 . S
C2548 C2549 1.367 . S
C2549 C2548 1.367 . S
C2549 C2551 1.433 1_565 S
C2550 C2546 1.350 . S
C2550 C2547 1.463 . S
C2550 N2554 1.427 1_565 S
C2551 H2541 0.929 . S
C2551 C2549 1.433 1_545 S
C2551 N2554 1.384 . S
C2552 H2543 0.929 . S
C2552 C2544 1.378 . S
C2552 C2547 1.350 1_545 S
C2553 H2540 0.929 . S
C2553 C2545 1.433 1_565 S
C2553 N2555 1.384 . S
N2554 C2550 1.427 1_545 S
N2554 C2551 1.384 . S
N2555 C2547 1.427 . S
N2555 C2553 1.384 . S
H2556 C2562 0.930 . S
H2557 C2566 0.930 . S
H2558 C2571 0.929 . S
H2559 C2569 0.929 . S
H2560 C2564 0.929 . S
H2561 C2570 0.939 1_655 S
C2562 H2556 0.930 . S
C2562 C2563 1.367 . S
C2562 C2570 1.377 1_655 S
C2563 C2562 1.367 . S
C2563 C2571 1.433 1_655 S
C2564 H2560 0.929 . S
C2564 C2566 1.378 . S
C2564 C2568 1.350 . S
C2565 C2568 1.463 . S
C2565 C2570 1.341 . S
C2565 N2573 1.427 . S
C2566 H2557 0.930 . S
C2566 C2564 1.378 . S
C2566 C2567 1.367 . S
C2567 C2566 1.367 . S
C2567 C2569 1.433 . S
C2568 C2564 1.350 . S
C2568 C2565 1.463 . S
C2568 N2572 1.427 . S
C2569 H2559 0.929 . S
C2569 C2567 1.433 . S
C2569 N2572 1.384 . S
C2570 H2561 0.939 1_455 S
C2570 C2562 1.377 1_455 S
C2570 C2565 1.341 . S
C2571 H2558 0.929 . S
C2571 C2563 1.433 1_455 S
C2571 N2573 1.384 . S
N2572 C2568 1.427 . S
N2572 C2569 1.384 . S
N2573 C2565 1.427 . S
N2573 C2571 1.384 . S
H2574 C2580 0.930 . S
H2575 C2584 0.930 . S
H2576 C2589 0.929 . S
H2577 C2587 0.929 . S
H2578 C2582 0.929 . S
H2579 C2588 0.929 . S
C2580 H2574 0.930 . S
C2580 C2581 1.367 . S
C2580 C2588 1.378 . S
C2581 C2580 1.367 . S
C2581 C2589 1.433 . S
C2582 H2578 0.929 . S
C2582 C2584 1.378 . S
C2582 C2586 1.350 . S
C2583 C2586 1.463 . S
C2583 C2588 1.350 . S
C2583 N2591 1.427 . S
C2584 H2575 0.930 . S
C2584 C2582 1.378 . S
C2584 C2585 1.367 . S
C2585 C2584 1.367 . S
C2585 C2587 1.433 . S
C2586 C2582 1.350 . S
C2586 C2583 1.463 . S
C2586 N2590 1.427 . S
C2587 H2577 0.929 . S
C2587 C2585 1.433 . S
C2587 N2590 1.384 . S
C2588 H2579 0.929 . S
C2588 C2580 1.378 . S
C2588 C2583 1.350 . S
C2589 H2576 0.929 . S
C2589 C2581 1.433 . S
C2589 N2591 1.384 . S
N2590 C2586 1.427 . S
N2590 C2587 1.384 . S
N2591 C2583 1.427 . S
N2591 C2589 1.384 . S
H2592 C2598 0.930 . S
H2593 C2602 0.911 1_565 S
H2594 C2607 0.929 . S
H2595 C2605 0.929 . S
H2596 C2600 0.929 . S
H2597 C2606 0.929 . S
C2598 H2592 0.930 . S
C2598 C2599 1.367 1_545 S
C2598 C2606 1.378 . S
C2599 C2598 1.367 1_565 S
C2599 C2607 1.433 . S
C2600 H2596 0.929 . S
C2600 C2602 1.370 1_565 S
C2600 C2604 1.350 1_565 S
C2601 C2604 1.463 . S
C2601 C2606 1.350 . S
C2601 N2609 1.427 1_545 S
C2602 H2593 0.911 1_545 S
C2602 C2600 1.370 1_545 S
C2602 C2603 1.395 . S
C2603 C2602 1.395 . S
C2603 C2605 1.433 . S
C2604 C2600 1.350 1_545 S
C2604 C2601 1.463 . S
C2604 N2608 1.427 . S
C2605 H2595 0.929 . S
C2605 C2603 1.433 . S
C2605 N2608 1.384 . S
C2606 H2597 0.929 . S
C2606 C2598 1.378 . S
C2606 C2601 1.350 . S
C2607 H2594 0.929 . S
C2607 C2599 1.433 . S
C2607 N2609 1.384 . S
N2608 C2604 1.427 . S
N2608 C2605 1.384 . S
N2609 C2601 1.427 1_565 S
N2609 C2607 1.384 . S
H2610 C2616 0.930 . S
H2611 C2620 0.930 . S
H2612 C2625 0.929 . S
H2613 C2623 0.929 . S
H2614 C2618 0.929 . S
H2615 C2624 0.929 . S
C2616 H2610 0.930 . S
C2616 C2617 1.367 . S
C2616 C2624 1.378 . S
C2617 C2616 1.367 . S
C2617 C2625 1.433 . S
C2618 H2614 0.929 . S
C2618 C2620 1.378 1_655 S
C2618 C2622 1.350 . S
C2619 C2622 1.463 . S
C2619 C2624 1.350 . S
C2619 N2627 1.427 . S
C2620 H2611 0.930 . S
C2620 C2618 1.378 1_455 S
C2620 C2621 1.367 . S
C2621 C2620 1.367 . S
C2621 C2623 1.433 1_455 S
C2622 C2618 1.350 . S
C2622 C2619 1.463 . S
C2622 N2626 1.427 . S
C2623 H2613 0.929 . S
C2623 C2621 1.433 1_655 S
C2623 N2626 1.384 . S
C2624 H2615 0.929 . S
C2624 C2616 1.378 . S
C2624 C2619 1.350 . S
C2625 H2612 0.929 . S
C2625 C2617 1.433 . S
C2625 N2627 1.384 . S
N2626 C2622 1.427 . S
N2626 C2623 1.384 . S
N2627 C2619 1.427 . S
N2627 C2625 1.384 . S
H2628 C2634 0.930 . S
H2629 C2638 0.930 . S
H2630 C2643 0.929 . S
H2631 C2641 0.929 . S
H2632 C2636 0.929 . S
H2633 C2642 0.929 . S
C2634 H2628 0.930 . S
C2634 C2635 1.367 . S
C2634 C2642 1.378 . S
C2635 C2634 1.367 . S
C2635 C2643 1.433 . S
C2636 H2632 0.929 . S
C2636 C2638 1.378 . S
C2636 C2640 1.350 . S
C2637 C2640 1.463 . S
C2637 C2642 1.350 . S
C2637 N2645 1.427 . S
C2638 H2629 0.930 . S
C2638 C2636 1.378 . S
C2638 C2639 1.367 . S
C2639 C2638 1.367 . S
C2639 C2641 1.433 . S
C2640 C2636 1.350 . S
C2640 C2637 1.463 . S
C2640 N2644 1.427 . S
C2641 H2631 0.929 . S
C2641 C2639 1.433 . S
C2641 N2644 1.384 . S
C2642 H2633 0.929 . S
C2642 C2634 1.378 . S
C2642 C2637 1.350 . S
C2643 H2630 0.929 . S
C2643 C2635 1.433 . S
C2643 N2645 1.384 . S
N2644 C2640 1.427 . S
N2644 C2641 1.384 . S
N2645 C2637 1.427 . S
N2645 C2643 1.384 . S
H2646 C2652 0.930 . S
H2647 C2656 0.930 . S
H2648 C2661 0.929 . S
H2649 C2659 0.929 . S
H2650 C2654 0.929 . S
H2651 C2660 0.929 . S
C2652 H2646 0.930 . S
C2652 C2653 1.367 . S
C2652 C2660 1.378 . S
C2653 C2652 1.367 . S
C2653 C2661 1.433 . S
C2654 H2650 0.929 . S
C2654 C2656 1.378 . S
C2654 C2658 1.350 . S
C2655 C2658 1.463 . S
C2655 C2660 1.350 . S
C2655 N2663 1.427 . S
C2656 H2647 0.930 . S
C2656 C2654 1.378 . S
C2656 C2657 1.367 . S
C2657 C2656 1.367 . S
C2657 C2659 1.433 . S
C2658 C2654 1.350 . S
C2658 C2655 1.463 . S
C2658 N2662 1.427 . S
C2659 H2649 0.929 . S
C2659 C2657 1.433 . S
C2659 N2662 1.384 . S
C2660 H2651 0.929 . S
C2660 C2652 1.378 . S
C2660 C2655 1.350 . S
C2661 H2648 0.929 . S
C2661 C2653 1.433 . S
C2661 N2663 1.384 . S
N2662 C2658 1.427 . S
N2662 C2659 1.384 . S
N2663 C2655 1.427 . S
N2663 C2661 1.384 . S
H2664 C2670 0.930 . S
H2665 C2674 0.930 . S
H2666 C2679 0.929 . S
H2667 C2677 0.929 . S
H2668 C2672 0.929 . S
H2669 C2678 0.929 . S
C2670 H2664 0.930 . S
C2670 C2671 1.367 . S
C2670 C2678 1.378 . S
C2671 C2670 1.367 . S
C2671 C2679 1.433 . S
C2672 H2668 0.929 . S
C2672 C2674 1.378 . S
C2672 C2676 1.350 . S
C2673 C2676 1.463 . S
C2673 C2678 1.350 . S
C2673 N2681 1.427 . S
C2674 H2665 0.930 . S
C2674 C2672 1.378 . S
C2674 C2675 1.367 . S
C2675 C2674 1.367 . S
C2675 C2677 1.433 . S
C2676 C2672 1.350 . S
C2676 C2673 1.463 . S
C2676 N2680 1.427 . S
C2677 H2667 0.929 . S
C2677 C2675 1.433 . S
C2677 N2680 1.384 . S
C2678 H2669 0.929 . S
C2678 C2670 1.378 . S
C2678 C2673 1.350 . S
C2679 H2666 0.929 . S
C2679 C2671 1.433 . S
C2679 N2681 1.384 . S
N2680 C2676 1.427 . S
N2680 C2677 1.384 . S
N2681 C2673 1.427 . S
N2681 C2679 1.384 . S
H2682 C2688 0.930 . S
H2683 C2692 0.930 . S
H2684 C2697 0.929 . S
H2685 C2695 0.929 . S
H2686 C2690 0.929 . S
H2687 C2696 0.929 . S
C2688 H2682 0.930 . S
C2688 C2689 1.367 . S
C2688 C2696 1.378 . S
C2689 C2688 1.367 . S
C2689 C2697 1.433 . S
C2690 H2686 0.929 . S
C2690 C2692 1.378 . S
C2690 C2694 1.350 . S
C2691 C2694 1.463 . S
C2691 C2696 1.350 . S
C2691 N2699 1.427 . S
C2692 H2683 0.930 . S
C2692 C2690 1.378 . S
C2692 C2693 1.367 . S
C2693 C2692 1.367 . S
C2693 C2695 1.433 . S
C2694 C2690 1.350 . S
C2694 C2691 1.463 . S
C2694 N2698 1.427 . S
C2695 H2685 0.929 . S
C2695 C2693 1.433 . S
C2695 N2698 1.384 . S
C2696 H2687 0.929 . S
C2696 C2688 1.378 . S
C2696 C2691 1.350 . S
C2697 H2684 0.929 . S
C2697 C2689 1.433 . S
C2697 N2699 1.384 . S
N2698 C2694 1.427 . S
N2698 C2695 1.384 . S
N2699 C2691 1.427 . S
N2699 C2697 1.384 . S
H2700 C2706 0.930 . S
H2701 C2710 0.930 . S
H2702 C2715 0.929 . S
H2703 C2713 0.929 . S
H2704 C2708 0.929 . S
H2705 C2714 0.929 . S
C2706 H2700 0.930 . S
C2706 C2707 1.367 . S
C2706 C2714 1.378 . S
C2707 C2706 1.367 . S
C2707 C2715 1.433 . S
C2708 H2704 0.929 . S
C2708 C2710 1.378 . S
C2708 C2712 1.350 . S
C2709 C2712 1.463 . S
C2709 C2714 1.350 . S
C2709 N2717 1.427 . S
C2710 H2701 0.930 . S
C2710 C2708 1.378 . S
C2710 C2711 1.367 . S
C2711 C2710 1.367 . S
C2711 C2713 1.433 . S
C2712 C2708 1.350 . S
C2712 C2709 1.463 . S
C2712 N2716 1.427 . S
C2713 H2703 0.929 . S
C2713 C2711 1.433 . S
C2713 N2716 1.384 . S
C2714 H2705 0.929 . S
C2714 C2706 1.378 . S
C2714 C2709 1.350 . S
C2715 H2702 0.929 . S
C2715 C2707 1.433 . S
C2715 N2717 1.384 . S
N2716 C2712 1.427 . S
N2716 C2713 1.384 . S
N2717 C2709 1.427 . S
N2717 C2715 1.384 . S
H2718 C2724 0.930 . S
H2719 C2728 0.930 . S
H2720 C2733 0.929 . S
H2721 C2731 0.929 . S
H2722 C2726 0.929 . S
H2723 C2732 0.929 . S
C2724 H2718 0.930 . S
C2724 C2725 1.367 . S
C2724 C2732 1.378 . S
C2725 C2724 1.367 . S
C2725 C2733 1.433 . S
C2726 H2722 0.929 . S
C2726 C2728 1.378 . S
C2726 C2730 1.350 . S
C2727 C2730 1.463 . S
C2727 C2732 1.350 . S
C2727 N2735 1.427 . S
C2728 H2719 0.930 . S
C2728 C2726 1.378 . S
C2728 C2729 1.367 . S
C2729 C2728 1.367 . S
C2729 C2731 1.433 . S
C2730 C2726 1.350 . S
C2730 C2727 1.463 . S
C2730 N2734 1.427 . S
C2731 H2721 0.929 . S
C2731 C2729 1.433 . S
C2731 N2734 1.384 . S
C2732 H2723 0.929 . S
C2732 C2724 1.378 . S
C2732 C2727 1.350 . S
C2733 H2720 0.929 . S
C2733 C2725 1.433 . S
C2733 N2735 1.384 . S
N2734 C2730 1.427 . S
N2734 C2731 1.384 . S
N2735 C2727 1.427 . S
N2735 C2733 1.384 . S
H2736 C2742 0.930 . S
H2737 C2746 0.930 . S
H2738 C2751 0.929 . S
H2739 C2749 0.929 . S
H2740 C2744 0.929 . S
H2741 C2750 0.929 . S
C2742 H2736 0.930 . S
C2742 C2743 1.367 . S
C2742 C2750 1.378 . S
C2743 C2742 1.367 . S
C2743 C2751 1.433 . S
C2744 H2740 0.929 . S
C2744 C2746 1.378 . S
C2744 C2748 1.350 . S
C2745 C2748 1.463 . S
C2745 C2750 1.350 . S
C2745 N2753 1.427 . S
C2746 H2737 0.930 . S
C2746 C2744 1.378 . S
C2746 C2747 1.367 . S
C2747 C2746 1.367 . S
C2747 C2749 1.433 . S
C2748 C2744 1.350 . S
C2748 C2745 1.463 . S
C2748 N2752 1.427 . S
C2749 H2739 0.929 . S
C2749 C2747 1.433 . S
C2749 N2752 1.384 . S
C2750 H2741 0.929 . S
C2750 C2742 1.378 . S
C2750 C2745 1.350 . S
C2751 H2738 0.929 . S
C2751 C2743 1.433 . S
C2751 N2753 1.384 . S
N2752 C2748 1.427 . S
N2752 C2749 1.384 . S
N2753 C2745 1.427 . S
N2753 C2751 1.384 . S
H2754 C2760 0.930 . S
H2755 C2764 0.930 . S
H2756 C2769 0.929 . S
H2757 C2767 0.929 . S
H2758 C2762 0.929 . S
H2759 C2768 0.929 . S
C2760 H2754 0.930 . S
C2760 C2761 1.367 . S
C2760 C2768 1.378 . S
C2761 C2760 1.367 . S
C2761 C2769 1.433 . S
C2762 H2758 0.929 . S
C2762 C2764 1.378 . S
C2762 C2766 1.350 . S
C2763 C2766 1.463 . S
C2763 C2768 1.350 . S
C2763 N2771 1.427 . S
C2764 H2755 0.930 . S
C2764 C2762 1.378 . S
C2764 C2765 1.367 . S
C2765 C2764 1.367 . S
C2765 C2767 1.433 . S
C2766 C2762 1.350 . S
C2766 C2763 1.463 . S
C2766 N2770 1.427 . S
C2767 H2757 0.929 . S
C2767 C2765 1.433 . S
C2767 N2770 1.384 . S
C2768 H2759 0.929 . S
C2768 C2760 1.378 . S
C2768 C2763 1.350 . S
C2769 H2756 0.929 . S
C2769 C2761 1.433 . S
C2769 N2771 1.384 . S
N2770 C2766 1.427 . S
N2770 C2767 1.384 . S
N2771 C2763 1.427 . S
N2771 C2769 1.384 . S
H2772 C2778 0.930 . S
H2773 C2782 0.930 . S
H2774 C2787 0.929 . S
H2775 C2785 0.929 . S
H2776 C2780 0.929 . S
H2777 C2786 0.929 . S
C2778 H2772 0.930 . S
C2778 C2779 1.367 . S
C2778 C2786 1.378 . S
C2779 C2778 1.367 . S
C2779 C2787 1.433 . S
C2780 H2776 0.929 . S
C2780 C2782 1.378 . S
C2780 C2784 1.350 . S
C2781 C2784 1.463 . S
C2781 C2786 1.350 . S
C2781 N2789 1.427 . S
C2782 H2773 0.930 . S
C2782 C2780 1.378 . S
C2782 C2783 1.367 . S
C2783 C2782 1.367 . S
C2783 C2785 1.433 . S
C2784 C2780 1.350 . S
C2784 C2781 1.463 . S
C2784 N2788 1.427 . S
C2785 H2775 0.929 . S
C2785 C2783 1.433 . S
C2785 N2788 1.384 . S
C2786 H2777 0.929 . S
C2786 C2778 1.378 . S
C2786 C2781 1.350 . S
C2787 H2774 0.929 . S
C2787 C2779 1.433 . S
C2787 N2789 1.384 . S
N2788 C2784 1.427 . S
N2788 C2785 1.384 . S
N2789 C2781 1.427 . S
N2789 C2787 1.384 . S
H2790 C2796 0.930 . S
H2791 C2800 0.930 . S
H2792 C2805 0.929 . S
H2793 C2803 0.929 . S
H2794 C2798 0.929 . S
H2795 C2804 0.929 . S
C2796 H2790 0.930 . S
C2796 C2797 1.367 . S
C2796 C2804 1.378 . S
C2797 C2796 1.367 . S
C2797 C2805 1.433 . S
C2798 H2794 0.929 . S
C2798 C2800 1.378 . S
C2798 C2802 1.350 . S
C2799 C2802 1.463 . S
C2799 C2804 1.350 . S
C2799 N2807 1.427 . S
C2800 H2791 0.930 . S
C2800 C2798 1.378 . S
C2800 C2801 1.367 . S
C2801 C2800 1.367 . S
C2801 C2803 1.433 . S
C2802 C2798 1.350 . S
C2802 C2799 1.463 . S
C2802 N2806 1.427 . S
C2803 H2793 0.929 . S
C2803 C2801 1.433 . S
C2803 N2806 1.384 . S
C2804 H2795 0.929 . S
C2804 C2796 1.378 . S
C2804 C2799 1.350 . S
C2805 H2792 0.929 . S
C2805 C2797 1.433 . S
C2805 N2807 1.384 . S
N2806 C2802 1.427 . S
N2806 C2803 1.384 . S
N2807 C2799 1.427 . S
N2807 C2805 1.384 . S
H2808 C2814 0.930 . S
H2809 C2818 0.930 . S
H2810 C2823 0.929 . S
H2811 C2821 0.929 . S
H2812 C2816 0.929 . S
H2813 C2822 0.929 . S
C2814 H2808 0.930 . S
C2814 C2815 1.367 . S
C2814 C2822 1.378 . S
C2815 C2814 1.367 . S
C2815 C2823 1.433 . S
C2816 H2812 0.929 . S
C2816 C2818 1.378 . S
C2816 C2820 1.350 . S
C2817 C2820 1.463 . S
C2817 C2822 1.350 . S
C2817 N2825 1.427 . S
C2818 H2809 0.930 . S
C2818 C2816 1.378 . S
C2818 C2819 1.367 . S
C2819 C2818 1.367 . S
C2819 C2821 1.433 . S
C2820 C2816 1.350 . S
C2820 C2817 1.463 . S
C2820 N2824 1.427 . S
C2821 H2811 0.929 . S
C2821 C2819 1.433 . S
C2821 N2824 1.384 . S
C2822 H2813 0.929 . S
C2822 C2814 1.378 . S
C2822 C2817 1.350 . S
C2823 H2810 0.929 . S
C2823 C2815 1.433 . S
C2823 N2825 1.384 . S
N2824 C2820 1.427 . S
N2824 C2821 1.384 . S
N2825 C2817 1.427 . S
N2825 C2823 1.384 . S
H2826 C2832 0.930 . S
H2827 C2836 0.930 . S
H2828 C2841 0.929 . S
H2829 C2839 0.929 . S
H2830 C2834 0.929 . S
H2831 C2840 0.929 . S
C2832 H2826 0.930 . S
C2832 C2833 1.367 . S
C2832 C2840 1.378 . S
C2833 C2832 1.367 . S
C2833 C2841 1.433 . S
C2834 H2830 0.929 . S
C2834 C2836 1.378 . S
C2834 C2838 1.350 . S
C2835 C2838 1.463 . S
C2835 C2840 1.350 . S
C2835 N2843 1.427 . S
C2836 H2827 0.930 . S
C2836 C2834 1.378 . S
C2836 C2837 1.367 . S
C2837 C2836 1.367 . S
C2837 C2839 1.433 . S
C2838 C2834 1.350 . S
C2838 C2835 1.463 . S
C2838 N2842 1.427 . S
C2839 H2829 0.929 . S
C2839 C2837 1.433 . S
C2839 N2842 1.384 . S
C2840 H2831 0.929 . S
C2840 C2832 1.378 . S
C2840 C2835 1.350 . S
C2841 H2828 0.929 . S
C2841 C2833 1.433 . S
C2841 N2843 1.384 . S
N2842 C2838 1.427 . S
N2842 C2839 1.384 . S
N2843 C2835 1.427 . S
N2843 C2841 1.384 . S
H2844 C2850 0.930 . S
H2845 C2854 0.930 . S
H2846 C2859 0.929 . S
H2847 C2857 0.929 . S
H2848 C2852 0.929 . S
H2849 C2858 0.929 . S
C2850 H2844 0.930 . S
C2850 C2851 1.367 . S
C2850 C2858 1.378 . S
C2851 C2850 1.367 . S
C2851 C2859 1.433 . S
C2852 H2848 0.929 . S
C2852 C2854 1.378 . S
C2852 C2856 1.350 . S
C2853 C2856 1.463 . S
C2853 C2858 1.350 . S
C2853 N2861 1.427 . S
C2854 H2845 0.930 . S
C2854 C2852 1.378 . S
C2854 C2855 1.367 . S
C2855 C2854 1.367 . S
C2855 C2857 1.433 . S
C2856 C2852 1.350 . S
C2856 C2853 1.463 . S
C2856 N2860 1.427 . S
C2857 H2847 0.929 . S
C2857 C2855 1.433 . S
C2857 N2860 1.384 . S
C2858 H2849 0.929 . S
C2858 C2850 1.378 . S
C2858 C2853 1.350 . S
C2859 H2846 0.929 . S
C2859 C2851 1.433 . S
C2859 N2861 1.384 . S
N2860 C2856 1.427 . S
N2860 C2857 1.384 . S
N2861 C2853 1.427 . S
N2861 C2859 1.384 . S
H2862 C2868 0.930 . S
H2863 C2872 0.930 1_545 S
H2864 C2877 0.929 . S
H2865 C2875 0.929 . S
H2866 C2870 0.929 . S
H2867 C2876 0.929 . S
C2868 H2862 0.930 . S
C2868 C2869 1.367 . S
C2868 C2876 1.378 . S
C2869 C2868 1.367 . S
C2869 C2877 1.433 . S
C2870 H2866 0.929 . S
C2870 C2872 1.378 . S
C2870 C2874 1.350 . S
C2871 C2874 1.463 . S
C2871 C2876 1.350 . S
C2871 N2879 1.427 . S
C2872 H2863 0.930 1_565 S
C2872 C2870 1.378 . S
C2872 C2873 1.367 . S
C2873 C2872 1.367 . S
C2873 C2875 1.433 . S
C2874 C2870 1.350 . S
C2874 C2871 1.463 . S
C2874 N2878 1.427 . S
C2875 H2865 0.929 . S
C2875 C2873 1.433 . S
C2875 N2878 1.384 . S
C2876 H2867 0.929 . S
C2876 C2868 1.378 . S
C2876 C2871 1.350 . S
C2877 H2864 0.929 . S
C2877 C2869 1.433 . S
C2877 N2879 1.384 . S
N2878 C2874 1.427 . S
N2878 C2875 1.384 . S
N2879 C2871 1.427 . S
N2879 C2877 1.384 . S
H2880 C2886 0.930 1_655 S
H2881 C2890 0.930 . S
H2882 C2895 0.929 . S
H2883 C2893 0.929 . S
H2884 C2888 0.929 . S
H2885 C2894 0.929 . S
C2886 H2880 0.930 1_455 S
C2886 C2887 1.367 . S
C2886 C2894 1.378 . S
C2887 C2886 1.367 . S
C2887 C2895 1.433 . S
C2888 H2884 0.929 . S
C2888 C2890 1.378 . S
C2888 C2892 1.350 . S
C2889 C2892 1.463 . S
C2889 C2894 1.350 . S
C2889 N2897 1.427 . S
C2890 H2881 0.930 . S
C2890 C2888 1.378 . S
C2890 C2891 1.367 . S
C2891 C2890 1.367 . S
C2891 C2893 1.433 . S
C2892 C2888 1.350 . S
C2892 C2889 1.463 . S
C2892 N2896 1.427 . S
C2893 H2883 0.929 . S
C2893 C2891 1.433 . S
C2893 N2896 1.384 . S
C2894 H2885 0.929 . S
C2894 C2886 1.378 . S
C2894 C2889 1.350 . S
C2895 H2882 0.929 . S
C2895 C2887 1.433 . S
C2895 N2897 1.384 . S
N2896 C2892 1.427 . S
N2896 C2893 1.384 . S
N2897 C2889 1.427 . S
N2897 C2895 1.384 . S
H2898 C2904 0.930 . S
H2899 C2908 0.930 . S
H2900 C2913 0.929 . S
H2901 C2911 0.929 . S
H2902 C2906 0.929 . S
H2903 C2912 0.929 . S
C2904 H2898 0.930 . S
C2904 C2905 1.367 . S
C2904 C2912 1.378 . S
C2905 C2904 1.367 . S
C2905 C2913 1.433 . S
C2906 H2902 0.929 . S
C2906 C2908 1.378 . S
C2906 C2910 1.350 . S
C2907 C2910 1.463 . S
C2907 C2912 1.350 . S
C2907 N2915 1.427 . S
C2908 H2899 0.930 . S
C2908 C2906 1.378 . S
C2908 C2909 1.367 . S
C2909 C2908 1.367 . S
C2909 C2911 1.433 . S
C2910 C2906 1.350 . S
C2910 C2907 1.463 . S
C2910 N2914 1.427 . S
C2911 H2901 0.929 . S
C2911 C2909 1.433 . S
C2911 N2914 1.384 . S
C2912 H2903 0.929 . S
C2912 C2904 1.378 . S
C2912 C2907 1.350 . S
C2913 H2900 0.929 . S
C2913 C2905 1.433 . S
C2913 N2915 1.384 . S
N2914 C2910 1.427 . S
N2914 C2911 1.384 . S
N2915 C2907 1.427 . S
N2915 C2913 1.384 . S
H2916 C2922 0.930 . S
H2917 C2926 0.930 . S
H2918 C2931 0.929 . S
H2919 C2929 0.929 . S
H2920 C2924 0.929 . S
H2921 C2930 0.929 . S
C2922 H2916 0.930 . S
C2922 C2923 1.367 . S
C2922 C2930 1.378 . S
C2923 C2922 1.367 . S
C2923 C2931 1.433 1_565 S
C2924 H2920 0.929 . S
C2924 C2926 1.378 . S
C2924 C2928 1.350 . S
C2925 C2928 1.463 . S
C2925 C2930 1.350 1_545 S
C2925 N2933 1.427 . S
C2926 H2917 0.930 . S
C2926 C2924 1.378 . S
C2926 C2927 1.367 . S
C2927 C2926 1.367 . S
C2927 C2929 1.433 . S
C2928 C2924 1.350 . S
C2928 C2925 1.463 . S
C2928 N2932 1.427 . S
C2929 H2919 0.929 . S
C2929 C2927 1.433 . S
C2929 N2932 1.384 . S
C2930 H2921 0.929 . S
C2930 C2922 1.378 . S
C2930 C2925 1.350 1_565 S
C2931 H2918 0.929 . S
C2931 C2923 1.433 1_545 S
C2931 N2933 1.384 . S
N2932 C2928 1.427 . S
N2932 C2929 1.384 . S
N2933 C2925 1.427 . S
N2933 C2931 1.384 . S
H2934 C2940 0.929 . S
H2935 C2944 0.930 . S
H2936 C2949 0.929 . S
H2937 C2947 0.929 . S
H2938 C2942 0.929 . S
H2939 C2948 0.929 . S
C2940 H2934 0.929 . S
C2940 C2941 1.369 . S
C2940 C2948 1.376 1_455 S
C2941 C2940 1.369 . S
C2941 C2949 1.433 . S
C2942 H2938 0.929 . S
C2942 C2944 1.378 . S
C2942 C2946 1.350 . S
C2943 C2946 1.463 . S
C2943 C2948 1.350 . S
C2943 N2951 1.427 . S
C2944 H2935 0.930 . S
C2944 C2942 1.378 . S
C2944 C2945 1.367 . S
C2945 C2944 1.367 . S
C2945 C2947 1.433 . S
C2946 C2942 1.350 . S
C2946 C2943 1.463 . S
C2946 N2950 1.427 . S
C2947 H2937 0.929 . S
C2947 C2945 1.433 . S
C2947 N2950 1.384 . S
C2948 H2939 0.929 . S
C2948 C2940 1.376 1_655 S
C2948 C2943 1.350 . S
C2949 H2936 0.929 . S
C2949 C2941 1.433 . S
C2949 N2951 1.384 1_455 S
N2950 C2946 1.427 . S
N2950 C2947 1.384 . S
N2951 C2943 1.427 . S
N2951 C2949 1.384 1_655 S
H2952 C2958 0.930 . S
H2953 C2962 0.930 . S
H2954 C2967 0.929 . S
H2955 C2965 0.929 . S
H2956 C2960 0.929 . S
H2957 C2966 0.929 . S
C2958 H2952 0.930 . S
C2958 C2959 1.367 . S
C2958 C2966 1.378 . S
C2959 C2958 1.367 . S
C2959 C2967 1.433 . S
C2960 H2956 0.929 . S
C2960 C2962 1.378 . S
C2960 C2964 1.350 . S
C2961 C2964 1.463 . S
C2961 C2966 1.350 . S
C2961 N2969 1.427 . S
C2962 H2953 0.930 . S
C2962 C2960 1.378 . S
C2962 C2963 1.367 . S
C2963 C2962 1.367 . S
C2963 C2965 1.433 . S
C2964 C2960 1.350 . S
C2964 C2961 1.463 . S
C2964 N2968 1.427 . S
C2965 H2955 0.929 . S
C2965 C2963 1.433 . S
C2965 N2968 1.384 . S
C2966 H2957 0.929 . S
C2966 C2958 1.378 . S
C2966 C2961 1.350 . S
C2967 H2954 0.929 . S
C2967 C2959 1.433 . S
C2967 N2969 1.384 . S
N2968 C2964 1.427 . S
N2968 C2965 1.384 . S
N2969 C2961 1.427 . S
N2969 C2967 1.384 . S
H2970 C2976 0.930 1_565 S
H2971 C2980 0.930 . S
H2972 C2985 0.929 . S
H2973 C2983 0.929 . S
H2974 C2978 0.929 . S
H2975 C2984 0.929 . S
C2976 H2970 0.930 1_545 S
C2976 C2977 1.367 . S
C2976 C2984 1.378 . S
C2977 C2976 1.367 . S
C2977 C2985 1.433 . S
C2978 H2974 0.929 . S
C2978 C2980 1.378 . S
C2978 C2982 1.350 . S
C2979 C2982 1.463 . S
C2979 C2984 1.350 . S
C2979 N2987 1.427 . S
C2980 H2971 0.930 . S
C2980 C2978 1.378 . S
C2980 C2981 1.367 . S
C2981 C2980 1.367 . S
C2981 C2983 1.433 . S
C2982 C2978 1.350 . S
C2982 C2979 1.463 . S
C2982 N2986 1.427 . S
C2983 H2973 0.929 . S
C2983 C2981 1.433 . S
C2983 N2986 1.384 . S
C2984 H2975 0.929 . S
C2984 C2976 1.378 . S
C2984 C2979 1.350 . S
C2985 H2972 0.929 . S
C2985 C2977 1.433 . S
C2985 N2987 1.384 . S
N2986 C2982 1.427 . S
N2986 C2983 1.384 . S
N2987 C2979 1.427 . S
N2987 C2985 1.384 . S
H2988 C2994 0.930 . S
H2989 C2998 0.930 1_455 S
H2990 C3003 0.929 . S
H2991 C3001 0.929 . S
H2992 C2996 0.929 . S
H2993 C3002 0.929 . S
C2994 H2988 0.930 . S
C2994 C2995 1.367 . S
C2994 C3002 1.378 . S
C2995 C2994 1.367 . S
C2995 C3003 1.433 . S
C2996 H2992 0.929 . S
C2996 C2998 1.378 . S
C2996 C3000 1.350 . S
C2997 C3000 1.463 . S
C2997 C3002 1.350 . S
C2997 N3005 1.427 . S
C2998 H2989 0.930 1_655 S
C2998 C2996 1.378 . S
C2998 C2999 1.367 . S
C2999 C2998 1.367 . S
C2999 C3001 1.433 . S
C3000 C2996 1.350 . S
C3000 C2997 1.463 . S
C3000 N3004 1.427 . S
C3001 H2991 0.929 . S
C3001 C2999 1.433 . S
C3001 N3004 1.384 . S
C3002 H2993 0.929 . S
C3002 C2994 1.378 . S
C3002 C2997 1.350 . S
C3003 H2990 0.929 . S
C3003 C2995 1.433 . S
C3003 N3005 1.384 . S
N3004 C3000 1.427 . S
N3004 C3001 1.384 . S
N3005 C2997 1.427 . S
N3005 C3003 1.384 . S
H3006 C3012 0.930 . S
H3007 C3016 0.930 . S
H3008 C3021 0.929 . S
H3009 C3019 0.929 . S
H3010 C3014 0.929 . S
H3011 C3020 0.929 . S
C3012 H3006 0.930 . S
C3012 C3013 1.367 . S
C3012 C3020 1.378 . S
C3013 C3012 1.367 . S
C3013 C3021 1.433 . S
C3014 H3010 0.929 . S
C3014 C3016 1.378 . S
C3014 C3018 1.350 . S
C3015 C3018 1.463 . S
C3015 C3020 1.350 . S
C3015 N3023 1.427 . S
C3016 H3007 0.930 . S
C3016 C3014 1.378 . S
C3016 C3017 1.367 . S
C3017 C3016 1.367 . S
C3017 C3019 1.433 . S
C3018 C3014 1.350 . S
C3018 C3015 1.463 . S
C3018 N3022 1.427 . S
C3019 H3009 0.929 . S
C3019 C3017 1.433 . S
C3019 N3022 1.384 . S
C3020 H3011 0.929 . S
C3020 C3012 1.378 . S
C3020 C3015 1.350 . S
C3021 H3008 0.929 . S
C3021 C3013 1.433 . S
C3021 N3023 1.384 . S
N3022 C3018 1.427 . S
N3022 C3019 1.384 . S
N3023 C3015 1.427 . S
N3023 C3021 1.384 . S
H3024 C3030 0.930 . S
H3025 C3034 0.930 . S
H3026 C3039 0.929 . S
H3027 C3037 0.929 . S
H3028 C3032 0.929 . S
H3029 C3038 0.929 . S
C3030 H3024 0.930 . S
C3030 C3031 1.367 . S
C3030 C3038 1.378 . S
C3031 C3030 1.367 . S
C3031 C3039 1.433 . S
C3032 H3028 0.929 . S
C3032 C3034 1.378 1_565 S
C3032 C3036 1.350 . S
C3033 C3036 1.463 . S
C3033 C3038 1.350 . S
C3033 N3041 1.427 . S
C3034 H3025 0.930 . S
C3034 C3032 1.378 1_545 S
C3034 C3035 1.367 . S
C3035 C3034 1.367 . S
C3035 C3037 1.433 1_545 S
C3036 C3032 1.350 . S
C3036 C3033 1.463 . S
C3036 N3040 1.427 . S
C3037 H3027 0.929 . S
C3037 C3035 1.433 1_565 S
C3037 N3040 1.384 . S
C3038 H3029 0.929 . S
C3038 C3030 1.378 . S
C3038 C3033 1.350 . S
C3039 H3026 0.929 . S
C3039 C3031 1.433 . S
C3039 N3041 1.384 . S
N3040 C3036 1.427 . S
N3040 C3037 1.384 . S
N3041 C3033 1.427 . S
N3041 C3039 1.384 . S
H3042 C3048 0.930 . S
H3043 C3052 0.930 . S
H3044 C3057 0.929 . S
H3045 C3055 0.929 . S
H3046 C3050 0.929 . S
H3047 C3056 0.929 . S
C3048 H3042 0.930 . S
C3048 C3049 1.367 . S
C3048 C3056 1.378 . S
C3049 C3048 1.367 . S
C3049 C3057 1.433 . S
C3050 H3046 0.929 . S
C3050 C3052 1.378 1_455 S
C3050 C3054 1.350 . S
C3051 C3054 1.463 . S
C3051 C3056 1.350 . S
C3051 N3059 1.427 . S
C3052 H3043 0.930 . S
C3052 C3050 1.378 1_655 S
C3052 C3053 1.367 . S
C3053 C3052 1.367 . S
C3053 C3055 1.433 1_655 S
C3054 C3050 1.350 . S
C3054 C3051 1.463 . S
C3054 N3058 1.427 . S
C3055 H3045 0.929 . S
C3055 C3053 1.433 1_455 S
C3055 N3058 1.384 . S
C3056 H3047 0.929 . S
C3056 C3048 1.378 . S
C3056 C3051 1.350 . S
C3057 H3044 0.929 . S
C3057 C3049 1.433 . S
C3057 N3059 1.384 . S
N3058 C3054 1.427 . S
N3058 C3055 1.384 . S
N3059 C3051 1.427 . S
N3059 C3057 1.384 . S
H3060 C3066 0.930 . S
H3061 C3070 0.930 . S
H3062 C3075 0.929 . S
H3063 C3073 0.929 . S
H3064 C3068 0.929 . S
H3065 C3074 0.929 . S
C3066 H3060 0.930 . S
C3066 C3067 1.367 . S
C3066 C3074 1.378 . S
C3067 C3066 1.367 . S
C3067 C3075 1.433 . S
C3068 H3064 0.929 . S
C3068 C3070 1.378 . S
C3068 C3072 1.346 1_455 S
C3069 C3072 1.471 . S
C3069 C3074 1.350 . S
C3069 N3077 1.427 . S
C3070 H3061 0.930 . S
C3070 C3068 1.378 . S
C3070 C3071 1.367 . S
C3071 C3070 1.367 . S
C3071 C3073 1.433 . S
C3072 C3068 1.346 1_655 S
C3072 C3069 1.471 . S
C3072 N3076 1.423 1_655 S
C3073 H3063 0.929 . S
C3073 C3071 1.433 . S
C3073 N3076 1.384 . S
C3074 H3065 0.929 . S
C3074 C3066 1.378 . S
C3074 C3069 1.350 . S
C3075 H3062 0.929 . S
C3075 C3067 1.433 . S
C3075 N3077 1.384 . S
N3076 C3072 1.423 1_455 S
N3076 C3073 1.384 . S
N3077 C3069 1.427 . S
N3077 C3075 1.384 . S
H3078 C3084 0.930 . S
H3079 C3088 0.930 . S
H3080 C3093 0.929 . S
H3081 C3091 0.929 . S
H3082 C3086 0.929 . S
H3083 C3092 0.929 . S
C3084 H3078 0.930 . S
C3084 C3085 1.367 . S
C3084 C3092 1.378 . S
C3085 C3084 1.367 . S
C3085 C3093 1.433 . S
C3086 H3082 0.929 . S
C3086 C3088 1.378 . S
C3086 C3090 1.350 . S
C3087 C3090 1.463 . S
C3087 C3092 1.350 . S
C3087 N3095 1.427 . S
C3088 H3079 0.930 . S
C3088 C3086 1.378 . S
C3088 C3089 1.367 . S
C3089 C3088 1.367 . S
C3089 C3091 1.433 . S
C3090 C3086 1.350 . S
C3090 C3087 1.463 . S
C3090 N3094 1.427 . S
C3091 H3081 0.929 . S
C3091 C3089 1.433 . S
C3091 N3094 1.384 . S
C3092 H3083 0.929 . S
C3092 C3084 1.378 . S
C3092 C3087 1.350 . S
C3093 H3080 0.929 . S
C3093 C3085 1.433 . S
C3093 N3095 1.384 . S
N3094 C3090 1.427 . S
N3094 C3091 1.384 . S
N3095 C3087 1.427 . S
N3095 C3093 1.384 . S
H3096 C3102 0.930 . S
H3097 C3106 0.930 . S
H3098 C3111 0.929 . S
H3099 C3109 0.929 . S
H3100 C3104 0.929 . S
H3101 C3110 0.929 . S
C3102 H3096 0.930 . S
C3102 C3103 1.367 . S
C3102 C3110 1.378 . S
C3103 C3102 1.367 . S
C3103 C3111 1.433 . S
C3104 H3100 0.929 . S
C3104 C3106 1.378 . S
C3104 C3108 1.346 1_565 S
C3105 C3108 1.466 . S
C3105 C3110 1.350 . S
C3105 N3113 1.427 . S
C3106 H3097 0.930 . S
C3106 C3104 1.378 . S
C3106 C3107 1.367 . S
C3107 C3106 1.367 . S
C3107 C3109 1.433 . S
C3108 C3104 1.346 1_545 S
C3108 C3105 1.466 . S
C3108 N3112 1.428 1_545 S
C3109 H3099 0.929 . S
C3109 C3107 1.433 . S
C3109 N3112 1.384 . S
C3110 H3101 0.929 . S
C3110 C3102 1.378 . S
C3110 C3105 1.350 . S
C3111 H3098 0.929 . S
C3111 C3103 1.433 . S
C3111 N3113 1.384 . S
N3112 C3108 1.428 1_565 S
N3112 C3109 1.384 . S
N3113 C3105 1.427 . S
N3113 C3111 1.384 . S
H3114 C3120 0.930 . S
H3115 C3124 0.930 . S
H3116 C3129 0.929 . S
H3117 C3127 0.929 . S
H3118 C3122 0.929 . S
H3119 C3128 0.929 . S
C3120 H3114 0.930 . S
C3120 C3121 1.367 . S
C3120 C3128 1.378 . S
C3121 C3120 1.367 . S
C3121 C3129 1.433 . S
C3122 H3118 0.929 . S
C3122 C3124 1.378 . S
C3122 C3126 1.350 . S
C3123 C3126 1.469 . S
C3123 C3128 1.345 1_565 S
C3123 N3131 1.426 1_565 S
C3124 H3115 0.930 . S
C3124 C3122 1.378 . S
C3124 C3125 1.367 . S
C3125 C3124 1.367 . S
C3125 C3127 1.433 . S
C3126 C3122 1.350 . S
C3126 C3123 1.469 . S
C3126 N3130 1.427 . S
C3127 H3117 0.929 . S
C3127 C3125 1.433 . S
C3127 N3130 1.384 . S
C3128 H3119 0.929 . S
C3128 C3120 1.378 . S
C3128 C3123 1.345 1_545 S
C3129 H3116 0.929 . S
C3129 C3121 1.433 . S
C3129 N3131 1.384 . S
N3130 C3126 1.427 . S
N3130 C3127 1.384 . S
N3131 C3123 1.426 1_545 S
N3131 C3129 1.384 . S
H3132 C3138 0.930 . S
H3133 C3142 0.930 . S
H3134 C3147 0.929 . S
H3135 C3145 0.929 . S
H3136 C3140 0.929 . S
H3137 C3146 0.929 . S
C3138 H3132 0.930 . S
C3138 C3139 1.367 . S
C3138 C3146 1.378 . S
C3139 C3138 1.367 . S
C3139 C3147 1.433 . S
C3140 H3136 0.929 . S
C3140 C3142 1.378 . S
C3140 C3144 1.350 . S
C3141 C3144 1.470 . S
C3141 C3146 1.347 1_455 S
C3141 N3149 1.423 1_455 S
C3142 H3133 0.930 . S
C3142 C3140 1.378 . S
C3142 C3143 1.367 . S
C3143 C3142 1.367 . S
C3143 C3145 1.433 . S
C3144 C3140 1.350 . S
C3144 C3141 1.470 . S
C3144 N3148 1.427 . S
C3145 H3135 0.929 . S
C3145 C3143 1.433 . S
C3145 N3148 1.384 . S
C3146 H3137 0.929 . S
C3146 C3138 1.378 . S
C3146 C3141 1.347 1_655 S
C3147 H3134 0.929 . S
C3147 C3139 1.433 . S
C3147 N3149 1.384 . S
N3148 C3144 1.427 . S
N3148 C3145 1.384 . S
N3149 C3141 1.423 1_655 S
N3149 C3147 1.384 . S
H3150 C3156 0.930 . S
H3151 C3160 0.930 . S
H3152 C3165 0.929 . S
H3153 C3163 0.929 . S
H3154 C3158 0.929 . S
H3155 C3164 0.929 . S
C3156 H3150 0.930 . S
C3156 C3157 1.367 . S
C3156 C3164 1.378 . S
C3157 C3156 1.367 . S
C3157 C3165 1.433 . S
C3158 H3154 0.929 . S
C3158 C3160 1.378 . S
C3158 C3162 1.350 . S
C3159 C3162 1.463 . S
C3159 C3164 1.350 . S
C3159 N3167 1.427 . S
C3160 H3151 0.930 . S
C3160 C3158 1.378 . S
C3160 C3161 1.367 . S
C3161 C3160 1.367 . S
C3161 C3163 1.433 . S
C3162 C3158 1.350 . S
C3162 C3159 1.463 . S
C3162 N3166 1.427 . S
C3163 H3153 0.929 . S
C3163 C3161 1.433 . S
C3163 N3166 1.384 . S
C3164 H3155 0.929 . S
C3164 C3156 1.378 . S
C3164 C3159 1.350 . S
C3165 H3152 0.929 . S
C3165 C3157 1.433 . S
C3165 N3167 1.384 . S
N3166 C3162 1.427 . S
N3166 C3163 1.384 . S
N3167 C3159 1.427 . S
N3167 C3165 1.384 . S
C1231 C0 0.683 . S
C1235 C242 0.664 . S
C1249 C276 0.647 . S
C1253 C34 0.657 . S
C1267 C208 0.667 . S
C1271 C68 0.685 . S
C1285 C391 2.262 1_455 S
C1289 C131 2.239 . S
C1303 C165 2.237 . S
C1307 C323 2.262 . S
C1321 C199 2.235 . S
C1325 C357 2.262 1_565 S
C1339 C47 0.648 . S
C1343 C233 0.652 . S
C1357 C267 0.683 . S
C1361 C81 0.668 . S
C1375 C13 0.668 . S
C1379 C301 0.685 . S
C1393 C178 2.261 1_655 S
C1397 C306 2.237 . S
C1411 C340 2.236 . S
C1415 C110 2.262 . S
C1429 C374 2.238 . S
C1433 C144 2.262 1_545 S
C1447 C408 0.682 . S
C1451 C650 0.667 . S
C1465 C684 0.647 . S
C1469 C442 0.654 . S
C1483 C616 0.668 . S
C1487 C476 0.685 . S
C1501 C539 2.237 . S
C1505 C799 2.261 . S
C1519 C731 2.261 . S
C1523 C573 2.238 . S
C1537 C607 2.241 . S
C1541 C765 2.262 . S
C1555 C641 0.663 . S
C1559 C455 0.657 . S
C1573 C489 0.647 . S
C1577 C675 0.657 . S
C1591 C709 0.652 . S
C1595 C421 0.649 . S
C1609 C586 2.261 . S
C1613 C714 2.238 . S
C1627 C518 2.262 . S
C1631 C748 2.235 . S
C1645 C782 2.237 . S
C1649 C552 2.262 . S
C1663 C816 0.657 . S
C1667 C1058 0.653 . S
C1681 C850 0.673 . S
C1685 C1092 0.663 . S
C1699 C1024 0.647 . S
C1703 C884 0.656 . S
C1717 C1207 2.262 . S
C1721 C947 2.236 . S
C1735 C981 2.235 . S
C1739 C1139 2.262 . S
C1753 C1173 2.261 . S
C1757 C1015 2.236 . S
C1771 C863 0.664 . S
C1775 C1049 0.683 . S
C1789 C1083 0.686 . S
C1793 C897 0.668 . S
C1807 C829 0.663 . S
C1811 C1117 0.673 . S
C1825 C1122 2.236 . S
C1829 C994 2.261 . S
C1843 C1156 2.235 . S
C1847 C926 2.261 . S
C1861 C1190 2.239 . S
C1865 C960 2.262 . S
C1879 C4 0.536 . S
C1883 C625 0.536 . S
C1897 C38 0.524 . S
C1901 C659 0.524 . S
C1915 C693 0.537 . S
C1919 C72 0.537 . S
C1933 C1130 2.424 . S
C1937 C119 2.424 . S
C1951 C1164 2.423 . S
C1955 C153 2.423 . S
C1969 C1198 2.422 . S
C1973 C187 2.422 . S
C1987 C217 0.558 . S
C1991 C820 0.558 . S
C2005 C854 0.542 . S
C2009 C251 0.542 . S
C2023 C285 0.556 . S
C2027 C888 0.556 . S
C2041 C314 2.424 . S
C2045 C527 2.424 . S
C2059 C348 2.423 . S
C2063 C561 2.423 . S
C2077 C382 2.424 . S
C2081 C595 2.424 . S
C2095 C412 0.532 . S
C2099 C1033 0.532 . S
C2113 C1067 0.541 . S
C2117 C446 0.541 . S
C2131 C480 0.523 . S
C2135 C1101 0.523 . S
C2149 C935 2.423 . S
C2153 C722 2.423 . S
C2167 C756 2.424 . S
C2171 C969 2.424 . S
C2185 C1003 2.423 . S
C2189 C790 2.423 . S
C2203 C8 1.547 1_556 S
C2207 C557 1.526 . S
C2221 C42 1.546 1_556 S
C2225 C591 1.526 . S
C2239 C523 1.536 . S
C2243 C76 1.550 1_556 S
C2257 C115 1.537 . S
C2261 C892 1.557 . S
C2275 C824 1.553 . S
C2279 C149 1.538 . S
C2293 C183 1.540 . S
C2297 C858 1.557 . S
C2311 C1160 1.540 . S
C2315 C221 1.555 1_554 S
C2329 C255 1.546 1_554 S
C2333 C1194 1.530 . S
C2347 C1126 1.540 . S
C2351 C289 1.555 1_554 S
C2365 C310 1.526 . S
C2369 C697 1.546 . S
C2383 C344 1.531 . S
C2387 C629 1.554 . S
C2401 C378 1.540 . S
C2405 C663 1.555 . S
C2419 C965 1.527 . S
C2423 C416 1.545 . S
C2437 C450 1.557 . S
C2441 C999 1.540 . S
C2455 C484 1.557 . S
C2459 C931 1.540 . S
C2473 C1105 1.558 . S
C2477 C718 1.539 . S
C2491 C1037 1.555 . S
C2495 C752 1.540 . S
C2509 C1071 1.548 . S
C2513 C786 1.526 . S
C2527 C106 1.642 . S
C2531 C17 1.708 . S
C2545 C51 1.705 . S
C2549 C140 1.647 . S
C2563 C85 1.706 . S
C2567 C174 1.652 . S
C2581 C319 1.643 . S
C2585 C212 1.705 . S
C2599 C246 1.708 . S
C2603 C353 1.645 . S
C2617 C387 1.640 . S
C2621 C280 1.706 . S
C2635 C514 1.640 . S
C2639 C425 1.705 . S
C2653 C459 1.708 . S
C2657 C548 1.642 . S
C2671 C493 1.707 . S
C2675 C582 1.653 . S
C2689 C620 1.705 . S
C2693 C727 1.640 . S
C2707 C654 1.707 . S
C2711 C761 1.641 . S
C2725 C688 1.706 . S
C2729 C795 1.640 . S
C2743 C833 1.705 . S
C2747 C922 1.643 . S
C2761 C956 1.651 . S
C2765 C867 1.706 . S
C2779 C990 1.645 . S
C2783 C901 1.705 . S
C2797 C1028 1.707 . S
C2801 C1135 1.640 . S
C2815 C1169 1.645 . S
C2819 C1062 1.708 . S
C2833 C1096 1.705 . S
C2837 C1203 1.648 . S
C2851 C29 1.893 . S
C2855 C986 1.906 . S
C2869 C918 1.906 . S
C2873 C63 1.892 . S
C2887 C97 1.891 . S
C2891 C952 1.903 . S
C2905 C471 1.896 . S
C2909 C102 1.906 . S
C2923 C136 1.904 . S
C2927 C505 1.894 . S
C2941 C170 1.902 . S
C2945 C437 1.890 . S
C2959 C811 1.905 . S
C2963 C204 1.895 . S
C2977 C238 1.889 . S
C2981 C743 1.903 . S
C2995 C777 1.903 . S
C2999 C272 1.891 . S
C3013 C335 1.907 . S
C3017 C1054 1.893 . S
C3031 C1088 1.896 . S
C3035 C369 1.907 . S
C3049 C1020 1.896 . S
C3053 C403 1.907 . S
C3067 C510 1.907 . S
C3071 C879 1.895 . S
C3085 C544 1.903 . S
C3089 C913 1.889 . S
C3103 C578 1.905 . S
C3107 C845 1.891 . S
C3121 C612 1.889 . S
C3125 C1219 1.902 . S
C3139 C646 1.889 . S
C3143 C1151 1.902 . S
C3157 C1185 1.905 . S
C3161 C680 1.890 . S
