# Generated by pormake.
# Topology wjs, (5)-cn, num edge types: 1
# Building blocks:
#     Node 0, Type 0, BuildingBlock: BEQFEK_clean_sbu_0, # of connection points: 5
#     Node 1, Type 0, BuildingBlock: BEQFEK_clean_sbu_0, # of connection points: 5
#     Node 2, Type 0, BuildingBlock: BEQFEK_clean_sbu_0, # of connection points: 5
#     Node 3, Type 0, BuildingBlock: BEQFEK_clean_sbu_0, # of connection points: 5
#     Node 4, Type 0, BuildingBlock: BEQFEK_clean_sbu_0, # of connection points: 5
#     Node 5, Type 0, BuildingBlock: BEQFEK_clean_sbu_0, # of connection points: 5
#     Node 6, Type 0, BuildingBlock: BEQFEK_clean_sbu_0, # of connection points: 5
#     Node 7, Type 0, BuildingBlock: BEQFEK_clean_sbu_0, # of connection points: 5
#     Node 8, Type 0, BuildingBlock: BEQFEK_clean_sbu_0, # of connection points: 5
#     Node 9, Type 0, BuildingBlock: BEQFEK_clean_sbu_0, # of connection points: 5
#     Node 10, Type 0, BuildingBlock: BEQFEK_clean_sbu_0, # of connection points: 5
#     Node 11, Type 0, BuildingBlock: BEQFEK_clean_sbu_0, # of connection points: 5
#     Edge 12, Type (0, 0), BuildingBlock: CIFDUS_clean_linker_0, # of connection points: 2
#     Edge 13, Type (0, 0), BuildingBlock: CIFDUS_clean_linker_0, # of connection points: 2
#     Edge 14, Type (0, 0), BuildingBlock: CIFDUS_clean_linker_0, # of connection points: 2
#     Edge 15, Type (0, 0), BuildingBlock: CIFDUS_clean_linker_0, # of connection points: 2
#     Edge 16, Type (0, 0), BuildingBlock: CIFDUS_clean_linker_0, # of connection points: 2
#     Edge 17, Type (0, 0), BuildingBlock: CIFDUS_clean_linker_0, # of connection points: 2
#     Edge 18, Type (0, 0), BuildingBlock: CIFDUS_clean_linker_0, # of connection points: 2
#     Edge 19, Type (0, 0), BuildingBlock: CIFDUS_clean_linker_0, # of connection points: 2
#     Edge 20, Type (0, 0), BuildingBlock: CIFDUS_clean_linker_0, # of connection points: 2
#     Edge 21, Type (0, 0), BuildingBlock: CIFDUS_clean_linker_0, # of connection points: 2
#     Edge 22, Type (0, 0), BuildingBlock: CIFDUS_clean_linker_0, # of connection points: 2
#     Edge 23, Type (0, 0), BuildingBlock: CIFDUS_clean_linker_0, # of connection points: 2
#     Edge 24, Type (0, 0), BuildingBlock: CIFDUS_clean_linker_0, # of connection points: 2
#     Edge 25, Type (0, 0), BuildingBlock: CIFDUS_clean_linker_0, # of connection points: 2
#     Edge 26, Type (0, 0), BuildingBlock: CIFDUS_clean_linker_0, # of connection points: 2
#     Edge 27, Type (0, 0), BuildingBlock: CIFDUS_clean_linker_0, # of connection points: 2
#     Edge 28, Type (0, 0), BuildingBlock: CIFDUS_clean_linker_0, # of connection points: 2
#     Edge 29, Type (0, 0), BuildingBlock: CIFDUS_clean_linker_0, # of connection points: 2
#     Edge 30, Type (0, 0), BuildingBlock: CIFDUS_clean_linker_0, # of connection points: 2
#     Edge 31, Type (0, 0), BuildingBlock: CIFDUS_clean_linker_0, # of connection points: 2
#     Edge 32, Type (0, 0), BuildingBlock: CIFDUS_clean_linker_0, # of connection points: 2
#     Edge 33, Type (0, 0), BuildingBlock: CIFDUS_clean_linker_0, # of connection points: 2
#     Edge 34, Type (0, 0), BuildingBlock: CIFDUS_clean_linker_0, # of connection points: 2
#     Edge 35, Type (0, 0), BuildingBlock: CIFDUS_clean_linker_0, # of connection points: 2
#     Edge 36, Type (0, 0), BuildingBlock: CIFDUS_clean_linker_0, # of connection points: 2
#     Edge 37, Type (0, 0), BuildingBlock: CIFDUS_clean_linker_0, # of connection points: 2
#     Edge 38, Type (0, 0), BuildingBlock: CIFDUS_clean_linker_0, # of connection points: 2
#     Edge 39, Type (0, 0), BuildingBlock: CIFDUS_clean_linker_0, # of connection points: 2
#     Edge 40, Type (0, 0), BuildingBlock: CIFDUS_clean_linker_0, # of connection points: 2
#     Edge 41, Type (0, 0), BuildingBlock: CIFDUS_clean_linker_0, # of connection points: 2
# Relax obj value: 0.272
# Max RMSD: 0.224
# Mean RMSD: 0.224
data_MOF--net-wjs--node1-BEQFEK_clean_sbu_0--edge1-CIFDUS_clean_linker_0
_symmetry_space_group_name_H-M    P1
_symmetry_Int_Tables_number       1
_symmetry_cell_setting            triclinic
loop_
_symmetry_equiv_pos_as_xyz
'x, y, z'
_cell_length_a     26.920669
_cell_length_b     26.974799
_cell_length_c     66.6719
_cell_angle_alpha  89.992421
_cell_angle_beta   89.988336
_cell_angle_gamma 120.08156
loop_
_atom_site_label
_atom_site_type_symbol
_atom_site_fract_x
_atom_site_fract_y
_atom_site_fract_z
_atom_type_partial_charge
Co0 Co 0.23136 0.30158 0.01564 0.0
Co1 Co 0.23025 0.41132 0.00166 0.0
C2 C 0.23145 0.32421 0.97276 0.0
O3 O 0.23069 0.2919 0.98677 0.0
O4 O 0.22989 0.36985 0.9764 0.0
C5 C 0.20041 0.18409 0.02599 0.0
O6 O 0.16601 0.16599 0.01038 0.0
C7 C 0.15875 0.45608 0.98665 0.0
C8 C 0.21604 0.54974 0.98833 0.0
C9 C 0.16076 0.50772 0.98319 0.0
N10 N 0.21011 0.46703 0.99372 0.0
N11 N 0.24427 0.52314 0.99465 0.0
C12 C 0.11008 0.39721 0.98221 0.0
H13 H 0.12561 0.36616 0.98125 0.0
H14 H 0.07775 0.38327 0.99438 0.0
H15 H 0.08874 0.39733 0.96798 0.0
C16 C 0.13159 0.28442 0.03903 0.0
N17 N 0.17198 0.31285 0.02499 0.0
N18 N 0.17527 0.36223 0.02127 0.0
C19 C 0.13858 0.3679 0.03366 0.0
C20 C 0.10951 0.31852 0.04526 0.0
C21 C 0.11477 0.2257 0.04647 0.0
H22 H 0.14944 0.22792 0.05609 0.0
H23 H 0.10839 0.19752 0.0335 0.0
H24 H 0.07415 0.20646 0.05514 0.0
O25 O 0.30624 0.36739 0.02272 0.0
O26 O 0.31087 0.44814 0.01271 0.0
H27 H 0.17886 0.45981 0.03177 0.0
H28 H 0.13013 0.42785 0.05267 0.0
C29 C 0.13773 0.42249 0.03666 0.0
H30 H 0.10215 0.42103 0.02782 0.0
H31 H 0.28667 0.54323 -0.00032 0.0
O32 O 0.22971 0.23724 0.02976 0.0
C33 C 0.33378 0.42163 0.02092 0.0
Co34 Co 0.94612 0.26314 0.19358 0.0
Co35 Co 0.84058 0.24764 0.16868 0.0
C36 C 0.94153 0.24664 0.1494 0.0
O37 O 0.96595 0.25158 0.16624 0.0
O38 O 0.89307 0.24421 0.14823 0.0
C39 C 0.02723 0.23872 0.21361 0.0
O40 O 0.00826 0.19407 0.2017 0.0
C41 C 0.73532 0.17704 0.14566 0.0
C42 C 0.68922 0.22494 0.14921 0.0
C43 C 0.68372 0.17475 0.14146 0.0
N44 N 0.76913 0.22575 0.15578 0.0
N45 N 0.74168 0.25464 0.15755 0.0
C46 C 0.75333 0.13481 0.13976 0.0
H47 H 0.78598 0.1367 0.15038 0.0
H48 H 0.71616 0.09066 0.13895 0.0
H49 H 0.77318 0.14638 0.12464 0.0
C50 C 0.85573 0.16454 0.2159 0.0
N51 N 0.87265 0.20435 0.20134 0.0
N52 N 0.82748 0.19702 0.19119 0.0
C53 C 0.7801 0.15174 0.19919 0.0
C54 C 0.79686 0.12906 0.21477 0.0
C55 C 0.89454 0.16243 0.23154 0.0
H56 H 0.91703 0.14098 0.22525 0.0
H57 H 0.87 0.13809 0.24496 0.0
H58 H 0.92663 0.2064 0.23629 0.0
O59 O 0.95085 0.33751 0.19415 0.0
O60 O 0.87741 0.33072 0.17687 0.0
H61 H 0.71338 0.16496 0.18744 0.0
H62 H 0.68776 0.10264 0.20316 0.0
C63 C 0.72012 0.12913 0.19175 0.0
H64 H 0.71299 0.10138 0.17859 0.0
H65 H 0.75785 0.29354 0.16514 0.0
O66 O 0.00633 0.27158 0.21238 0.0
C67 C 0.9231 0.36018 0.1871 0.0
Co68 Co 0.73676 0.90995 0.33582 0.0
Co69 Co 0.61688 0.80494 0.32515 0.0
C70 C 0.70498 0.8866 0.29411 0.0
O71 O 0.74429 0.91464 0.30688 0.0
O72 O 0.6555 0.84578 0.29927 0.0
C73 C 0.81545 0.02115 0.34927 0.0
O74 O 0.78661 0.03494 0.33676 0.0
C75 C 0.56029 0.68564 0.31184 0.0
C76 C 0.46871 0.65538 0.31742 0.0
C77 C 0.50603 0.63701 0.31113 0.0
N78 N 0.55514 0.72997 0.31854 0.0
N79 N 0.50019 0.71167 0.32169 0.0
C80 C 0.61623 0.69099 0.30567 0.0
H81 H 0.64731 0.73593 0.30143 0.0
H82 H 0.63466 0.67915 0.31841 0.0
H83 H 0.60984 0.66188 0.29293 0.0
C84 C 0.74861 0.82443 0.35826 0.0
N85 N 0.71955 0.83827 0.34524 0.0
N86 N 0.66699 0.79527 0.34325 0.0
C87 C 0.65994 0.75319 0.35601 0.0
C88 C 0.71171 0.77029 0.36594 0.0
C89 C 0.81024 0.86368 0.36364 0.0
H90 H 0.81298 0.89427 0.3753 0.0
H91 H 0.83433 0.8887 0.35027 0.0
H92 H 0.8302 0.83921 0.36949 0.0
O93 O 0.67575 0.9269 0.34326 0.0
O94 O 0.58834 0.85385 0.33752 0.0
H95 H 0.56751 0.70975 0.35679 0.0
H96 H 0.60013 0.69254 0.37732 0.0
C97 C 0.60296 0.70216 0.36104 0.0
H98 H 0.598 0.66422 0.3528 0.0
H99 H 0.48434 0.73723 0.32724 0.0
O100 O 0.80474 0.96967 0.34987 0.0
C101 C 0.62148 0.9049 0.3437 0.0
Co102 Co 0.74968 0.69074 0.51703 0.0
Co103 Co 0.76259 0.58948 0.50057 0.0
C104 C 0.76947 0.68575 0.47417 0.0
O105 O 0.76343 0.71184 0.48903 0.0
O106 O 0.76955 0.63862 0.47634 0.0
C107 C 0.70944 0.7649 0.53253 0.0
O108 O 0.67081 0.74521 0.51818 0.0
C109 C 0.84085 0.5511 0.48684 0.0
C110 C 0.7945 0.45986 0.49544 0.0
C111 C 0.84671 0.50304 0.48823 0.0
N112 N 0.7878 0.53712 0.49307 0.0
N113 N 0.75981 0.48208 0.49771 0.0
C114 C 0.88734 0.61085 0.48221 0.0
H115 H 0.87366 0.64226 0.48603 0.0
H116 H 0.92709 0.62108 0.49052 0.0
H117 H 0.89745 0.614 0.46596 0.0
C118 C 0.84911 0.7123 0.54057 0.0
N119 N 0.80848 0.68096 0.52704 0.0
N120 N 0.81093 0.63499 0.52241 0.0
C121 C 0.8516 0.63388 0.53408 0.0
C122 C 0.87738 0.68323 0.54588 0.0
C123 C 0.86286 0.7709 0.54718 0.0
H124 H 0.85537 0.79356 0.5347 0.0
H125 H 0.90821 0.7967 0.55212 0.0
H126 H 0.83449 0.76695 0.55987 0.0
O127 O 0.67401 0.62145 0.51984 0.0
O128 O 0.67898 0.54677 0.50854 0.0
H129 H 0.82227 0.54389 0.5313 0.0
H130 H 0.87335 0.57977 0.55123 0.0
C131 C 0.86141 0.58411 0.53566 0.0
H132 H 0.89737 0.59128 0.5257 0.0
H133 H 0.71863 0.46078 0.50386 0.0
O134 O 0.74632 0.7489 0.53356 0.0
C135 C 0.65027 0.56815 0.51612 0.0
Co136 Co 0.06512 0.75963 0.68858 0.0
Co137 Co 0.17076 0.77763 0.66328 0.0
C138 C 0.07023 0.77841 0.64434 0.0
O139 O 0.04619 0.77151 0.66133 0.0
O140 O 0.1192 0.78223 0.64266 0.0
C141 C 0.98659 0.79021 0.7049 0.0
O142 O 0.00582 0.82813 0.69033 0.0
C143 C 0.27654 0.84932 0.64075 0.0
C144 C 0.32278 0.80146 0.64393 0.0
C145 C 0.32817 0.85185 0.63642 0.0
N146 N 0.24274 0.80022 0.65068 0.0
N147 N 0.27031 0.7714 0.65226 0.0
C148 C 0.25837 0.89156 0.63504 0.0
H149 H 0.22525 0.88892 0.64561 0.0
H150 H 0.29537 0.93585 0.63456 0.0
H151 H 0.23912 0.88072 0.61983 0.0
C152 C 0.15411 0.85409 0.71211 0.0
N153 N 0.13796 0.81758 0.69655 0.0
N154 N 0.18341 0.82675 0.68619 0.0
C155 C 0.23045 0.87039 0.695 0.0
C156 C 0.21303 0.88965 0.71148 0.0
C157 C 0.11448 0.85148 0.7284 0.0
H158 H 0.09091 0.87301 0.72319 0.0
H159 H 0.13824 0.87295 0.74228 0.0
H160 H 0.08317 0.80627 0.73207 0.0
O161 O 0.05977 0.685 0.68929 0.0
O162 O 0.13281 0.69386 0.67106 0.0
H163 H 0.29836 0.85871 0.68352 0.0
H164 H 0.32282 0.92172 0.69894 0.0
C165 C 0.2907 0.89411 0.68765 0.0
H166 H 0.29712 0.92091 0.67426 0.0
H167 H 0.25412 0.73219 0.65965 0.0
O168 O 0.00586 0.75607 0.70668 0.0
C169 C 0.08773 0.66337 0.68153 0.0
Co170 Co 0.29553 0.08559 0.84491 0.0
Co171 Co 0.40611 0.19338 0.82869 0.0
C172 C 0.31027 0.10522 0.80182 0.0
O173 O 0.27778 0.07604 0.81624 0.0
O174 O 0.35943 0.14933 0.80476 0.0
C175 C 0.22119 0.97508 0.86223 0.0
O176 O 0.24815 0.95768 0.85025 0.0
C177 C 0.45304 0.30884 0.81258 0.0
C178 C 0.54659 0.34379 0.81462 0.0
C179 C 0.50551 0.35826 0.80944 0.0
N180 N 0.46277 0.26769 0.81959 0.0
N181 N 0.5188 0.28868 0.82062 0.0
C182 C 0.39441 0.29971 0.80836 0.0
H183 H 0.36374 0.25367 0.80558 0.0
H184 H 0.37886 0.31313 0.82152 0.0
H185 H 0.39557 0.32562 0.79524 0.0
C186 C 0.28708 0.17298 0.86832 0.0
N187 N 0.31212 0.15818 0.8539 0.0
N188 N 0.36162 0.20287 0.84903 0.0
C189 C 0.37113 0.24691 0.86118 0.0
C190 C 0.32348 0.22966 0.87346 0.0
C191 C 0.23364 0.13139 0.87922 0.0
H192 H 0.24463 0.1078 0.89032 0.0
H193 H 0.20178 0.1003 0.86849 0.0
H194 H 0.21446 0.15369 0.88731 0.0
O195 O 0.36136 0.07303 0.84912 0.0
O196 O 0.44208 0.14925 0.83896 0.0
H197 H 0.46317 0.29487 0.85828 0.0
H198 H 0.43484 0.31792 0.87859 0.0
C199 C 0.42743 0.30153 0.86298 0.0
H200 H 0.42704 0.33463 0.85325 0.0
H201 H 0.53803 0.26582 0.82583 0.0
O202 O 0.23265 0.02678 0.86135 0.0
C203 C 0.4155 0.09893 0.84644 0.0
Co204 Co 0.69758 0.7849 0.80994 0.0
Co205 Co 0.59143 0.7864 0.8282 0.0
C206 C 0.6858 0.78882 0.85374 0.0
O207 O 0.71368 0.78824 0.83844 0.0
O208 O 0.63932 0.79033 0.85208 0.0
C209 C 0.77469 0.75068 0.79475 0.0
O210 O 0.74686 0.70682 0.80688 0.0
C211 C 0.54258 0.85333 0.84457 0.0
C212 C 0.44942 0.79412 0.84139 0.0
C213 C 0.4895 0.84946 0.84717 0.0
N214 N 0.53407 0.80313 0.83727 0.0
N215 N 0.47825 0.76772 0.8356 0.0
C216 C 0.60057 0.9029 0.84951 0.0
H217 H 0.63097 0.88759 0.85293 0.0
H218 H 0.61766 0.93211 0.83644 0.0
H219 H 0.59783 0.92732 0.86245 0.0
C220 C 0.7065 0.88059 0.78662 0.0
N221 N 0.68277 0.84248 0.80163 0.0
N222 N 0.63478 0.83974 0.80736 0.0
C223 C 0.62493 0.8742 0.79527 0.0
C224 C 0.67083 0.90217 0.78205 0.0
C225 C 0.7572 0.88888 0.77468 0.0
H226 H 0.79184 0.89397 0.78496 0.0
H227 H 0.77384 0.927 0.76479 0.0
H228 H 0.74425 0.85043 0.76524 0.0
O229 O 0.63173 0.70813 0.80483 0.0
O230 O 0.55482 0.70531 0.8182 0.0
H231 H 0.56136 0.88487 0.77904 0.0
H232 H 0.5711 0.90713 0.8047 0.0
C233 C 0.56932 0.87418 0.79433 0.0
H234 H 0.5332 0.83175 0.79881 0.0
H235 H 0.45991 0.72608 0.83 0.0
O236 O 0.76175 0.78988 0.79441 0.0
C237 C 0.57848 0.68082 0.80909 0.0
Co238 Co 0.9441 0.70898 0.97382 0.0
Co239 Co 0.83101 0.61161 0.99351 0.0
C240 C 0.9303 0.70444 0.01755 0.0
O241 O 0.96024 0.72917 0.00209 0.0
O242 O 0.88005 0.66074 0.01625 0.0
C243 C 0.03478 0.81863 0.95929 0.0
O244 O 0.02479 0.84042 0.97538 0.0
C245 C 0.71849 0.58326 0.009 0.0
C246 C 0.67197 0.48887 0.01041 0.0
C247 C 0.66504 0.53609 0.01302 0.0
N248 N 0.75487 0.56478 0.00388 0.0
N249 N 0.72698 0.50827 0.00502 0.0
C250 C 0.7354 0.64514 0.01049 0.0
H251 H 0.72416 0.65915 0.99644 0.0
H252 H 0.71203 0.65164 0.023 0.0
H253 H 0.78242 0.67204 0.01278 0.0
C254 C 0.86102 0.72592 0.95059 0.0
N255 N 0.87358 0.70033 0.96549 0.0
N256 N 0.82619 0.65502 0.97166 0.0
C257 C 0.78233 0.64858 0.95994 0.0
C258 C 0.80278 0.69446 0.94675 0.0
C259 C 0.90475 0.77533 0.93848 0.0
H260 H 0.93219 0.76221 0.93031 0.0
H261 H 0.93221 0.8112 0.94867 0.0
H262 H 0.88436 0.79042 0.92745 0.0
O263 O 0.94518 0.6371 0.97086 0.0
O264 O 0.86736 0.56546 0.98489 0.0
H265 H 0.72556 0.55875 0.96597 0.0
H266 H 0.71044 0.58466 0.94312 0.0
C267 C 0.72455 0.59545 0.95895 0.0
H268 H 0.6925 0.60298 0.96668 0.0
H269 H 0.74487 0.48288 0.00142 0.0
O270 O 0.00624 0.76491 0.95644 0.0
C271 C 0.91549 0.5846 0.97586 0.0
Co272 Co 0.26227 0.94777 0.13757 0.0
Co273 Co 0.25222 0.83912 0.15799 0.0
C274 C 0.24448 0.93193 0.18111 0.0
O275 O 0.24758 0.95953 0.16528 0.0
O276 O 0.2463 0.88567 0.18037 0.0
C277 C 0.22773 0.02419 0.12126 0.0
O278 O 0.18174 0.99591 0.13246 0.0
C279 C 0.17548 0.72866 0.17628 0.0
C280 C 0.22831 0.68726 0.1777 0.0
C281 C 0.17386 0.67834 0.18173 0.0
N282 N 0.22812 0.76533 0.16909 0.0
N283 N 0.25969 0.74051 0.17011 0.0
C284 C 0.12877 0.74293 0.17877 0.0
H285 H 0.14524 0.78912 0.17597 0.0
H286 H 0.09338 0.71768 0.16812 0.0
H287 H 0.11072 0.73142 0.19415 0.0
C288 C 0.1701 0.86069 0.11194 0.0
N289 N 0.20625 0.87586 0.12766 0.0
N290 N 0.20356 0.82971 0.13543 0.0
C291 C 0.16633 0.78374 0.12442 0.0
C292 C 0.14272 0.80199 0.1097 0.0
C293 C 0.16688 0.90166 0.09758 0.0
H294 H 0.21046 0.93781 0.09441 0.0
H295 H 0.14031 0.91801 0.10433 0.0
H296 H 0.14677 0.88074 0.08315 0.0
O297 O 0.33881 0.95567 0.13597 0.0
O298 O 0.33531 0.87903 0.1498 0.0
H299 H 0.19697 0.7264 0.13239 0.0
H300 H 0.1467 0.70227 0.11177 0.0
C301 C 0.1577 0.72465 0.12644 0.0
H302 H 0.12141 0.69922 0.13676 0.0
H303 H 0.30227 0.75953 0.16533 0.0
O304 O 0.26641 0.01047 0.12143 0.0
C305 C 0.36321 0.92754 0.14101 0.0
Co306 Co 0.30427 0.20538 0.31962 0.0
Co307 Co 0.41856 0.20672 0.32998 0.0
C308 C 0.33429 0.20557 0.36135 0.0
O309 O 0.29627 0.19887 0.34862 0.0
O310 O 0.382 0.21023 0.35601 0.0
C311 C 0.22997 0.24022 0.30081 0.0
O312 O 0.27065 0.29257 0.30508 0.0
C313 C 0.45947 0.12974 0.34155 0.0
C314 C 0.55303 0.18042 0.33681 0.0
C315 C 0.50902 0.12596 0.34182 0.0
N316 N 0.4733 0.18329 0.33623 0.0
N317 N 0.52947 0.21368 0.33365 0.0
C318 C 0.39973 0.08358 0.34659 0.0
H319 H 0.37373 0.10266 0.35168 0.0
H320 H 0.37886 0.05735 0.33309 0.0
H321 H 0.40057 0.05495 0.35838 0.0
C322 C 0.28483 0.10749 0.29534 0.0
N323 N 0.3159 0.14819 0.30891 0.0
N324 N 0.36642 0.15265 0.31092 0.0
C325 C 0.37036 0.11684 0.29764 0.0
C326 C 0.31841 0.08661 0.28744 0.0
C327 C 0.22427 0.08976 0.28984 0.0
H328 H 0.20057 0.09062 0.30333 0.0
H329 H 0.20183 0.04601 0.28333 0.0
H330 H 0.22451 0.1203 0.27864 0.0
O331 O 0.37045 0.28316 0.31339 0.0
O332 O 0.45346 0.28618 0.31902 0.0
H333 H 0.42766 0.11248 0.27608 0.0
H334 H 0.42635 0.08229 0.30014 0.0
C335 C 0.42513 0.11812 0.29247 0.0
H336 H 0.46277 0.15921 0.29719 0.0
H337 H 0.55142 0.25638 0.32902 0.0
O338 O 0.23474 0.19816 0.30682 0.0
C339 C 0.42528 0.31048 0.31354 0.0
Co340 Co 0.05518 0.30318 0.46351 0.0
Co341 Co 0.1622 0.38421 0.48979 0.0
C342 C 0.05929 0.29079 0.50892 0.0
O343 O 0.0352 0.27729 0.49175 0.0
O344 O 0.11106 0.33136 0.51099 0.0
C345 C 0.97532 0.19246 0.44822 0.0
O346 O 0.99116 0.17452 0.46398 0.0
C347 C 0.27273 0.43055 0.5122 0.0
C348 C 0.31818 0.51924 0.50068 0.0
C349 C 0.32515 0.48125 0.51264 0.0
N350 N 0.2367 0.43805 0.50018 0.0
N351 N 0.2641 0.4915 0.49364 0.0
C352 C 0.25685 0.37671 0.52349 0.0
H353 H 0.21559 0.34075 0.51795 0.0
H354 H 0.29133 0.36577 0.52223 0.0
H355 H 0.25225 0.38376 0.53962 0.0
C356 C 0.13975 0.28567 0.44204 0.0
N357 N 0.1265 0.31212 0.45638 0.0
N358 N 0.1714 0.34213 0.46793 0.0
C359 C 0.21442 0.33358 0.46154 0.0
C360 C 0.19513 0.29658 0.44514 0.0
C361 C 0.10126 0.25295 0.42488 0.0
H362 H 0.07414 0.27144 0.42061 0.0
H363 H 0.07341 0.20755 0.4293 0.0
H364 H 0.1268 0.25417 0.41162 0.0
O365 O 0.05443 0.37428 0.46037 0.0
O366 O 0.12387 0.42992 0.48157 0.0
H367 H 0.29153 0.40309 0.47366 0.0
H368 H 0.30034 0.34573 0.46375 0.0
C369 C 0.27086 0.35601 0.47194 0.0
H370 H 0.26335 0.33606 0.48693 0.0
H371 H 0.24652 0.50844 0.48369 0.0
O372 O 0.99569 0.24588 0.44573 0.0
C373 C 0.08309 0.42132 0.46966 0.0
Co374 Co 0.74008 0.0612 0.63797 0.0
Co375 Co 0.75984 0.17825 0.65405 0.0
C376 C 0.7506 0.08331 0.68133 0.0
O377 O 0.7434 0.04991 0.66675 0.0
O378 O 0.75904 0.13378 0.67849 0.0
C379 C 0.74394 0.95828 0.6274 0.0
O380 O 0.76599 0.96077 0.6452 0.0
C381 C 0.83966 0.29236 0.66978 0.0
C382 C 0.7879 0.335 0.66892 0.0
C383 C 0.84171 0.34368 0.67384 0.0
N384 N 0.7872 0.25515 0.66258 0.0
N385 N 0.75642 0.28089 0.66214 0.0
C386 C 0.88533 0.2776 0.67394 0.0
H387 H 0.86971 0.23181 0.6706 0.0
H388 H 0.92384 0.30479 0.66472 0.0
H389 H 0.89842 0.28662 0.68991 0.0
C390 C 0.84315 0.13584 0.61467 0.0
N391 N 0.80397 0.12844 0.62862 0.0
N392 N 0.80948 0.17819 0.63338 0.0
C393 C 0.8512 0.219 0.62176 0.0
C394 C 0.87417 0.19343 0.60959 0.0
C395 C 0.851 0.08834 0.60668 0.0
H396 H 0.81704 0.06342 0.59546 0.0
H397 H 0.84697 0.05923 0.6191 0.0
H398 H 0.89371 0.10502 0.59956 0.0
O399 O 0.66896 0.06185 0.63282 0.0
O400 O 0.67789 0.14276 0.64461 0.0
H401 H 0.82626 0.2829 0.6254 0.0
H402 H 0.87437 0.29528 0.60465 0.0
C403 C 0.86367 0.27956 0.62032 0.0
H404 H 0.90129 0.30742 0.62981 0.0
H405 H 0.71399 0.26155 0.65718 0.0
O406 O 0.73131 0.9959 0.62232 0.0
C407 C 0.64807 0.09411 0.63613 0.0
H408 H 0.28379 0.20136 0.05194 0.0
H409 H 0.10956 0.07886 0.0354 0.0
H410 H 0.10071 0.02071 0.06489 0.0
H411 H 0.14226 0.00665 0.09585 0.0
H412 H 0.31891 0.12561 0.1106 0.0
H413 H 0.32677 0.18475 0.0816 0.0
C414 C 0.24407 0.16159 0.0547 0.0
C415 C 0.19741 0.14422 0.04161 0.0
C416 C 0.23943 0.12875 0.07156 0.0
C417 C 0.14626 0.09259 0.04519 0.0
C418 C 0.14099 0.05981 0.06215 0.0
C419 C 0.18215 0.04588 0.09278 0.0
C420 C 0.22972 0.06266 0.10538 0.0
C421 C 0.18708 0.07794 0.07558 0.0
C422 C 0.28168 0.11267 0.10113 0.0
C423 C 0.28627 0.14606 0.08452 0.0
H424 H 0.21339 0.3201 0.28188 0.0
H425 H 0.14342 0.13743 0.28714 0.0
H426 H 0.07637 0.12095 0.25998 0.0
H427 H 0.03957 0.15849 0.23386 0.0
H428 H 0.10557 0.34053 0.22985 0.0
H429 H 0.17235 0.3572 0.2573 0.0
C430 C 0.18311 0.27665 0.27724 0.0
C431 C 0.18417 0.2302 0.28635 0.0
C432 C 0.14434 0.26736 0.26166 0.0
C433 C 0.14421 0.17412 0.28023 0.0
C434 C 0.10582 0.16457 0.26465 0.0
C435 C 0.06895 0.20176 0.23893 0.0
C436 C 0.06846 0.24828 0.22972 0.0
C437 C 0.10615 0.2109 0.25503 0.0
C438 C 0.1056 0.3041 0.23668 0.0
C439 C 0.14363 0.31364 0.25239 0.0
H440 H 0.94716 0.21863 0.41219 0.0
H441 H 0.93165 0.07663 0.4471 0.0
H442 H 0.8846 0.01197 0.41892 0.0
H443 H 0.84759 0.9958 0.38458 0.0
H444 H 0.8607 0.13707 0.34994 0.0
H445 H 0.91012 0.2024 0.37781 0.0
C446 C 0.93317 0.17347 0.41372 0.0
C447 C 0.94273 0.15248 0.43178 0.0
C448 C 0.90649 0.13663 0.39745 0.0
C449 C 0.92458 0.09389 0.43342 0.0
C450 C 0.89796 0.05693 0.41728 0.0
C451 C 0.86193 0.041 0.38299 0.0
C452 C 0.85087 0.06166 0.36515 0.0
C453 C 0.88897 0.07792 0.39921 0.0
C454 C 0.86892 0.12019 0.36349 0.0
C455 C 0.89689 0.15747 0.37944 0.0
H456 H 0.75557 0.78042 0.56951 0.0
H457 H 0.65942 0.83161 0.53147 0.0
H458 H 0.65988 0.8946 0.55802 0.0
H459 H 0.69024 0.93676 0.59146 0.0
H460 H 0.78583 0.88465 0.62951 0.0
H461 H 0.7828 0.81974 0.60334 0.0
C462 C 0.7351 0.8057 0.56693 0.0
C463 C 0.70829 0.80218 0.54845 0.0
C464 C 0.73528 0.84126 0.58223 0.0
C465 C 0.68057 0.83391 0.54554 0.0
C466 C 0.68088 0.86986 0.56069 0.0
C467 C 0.71026 0.91106 0.5941 0.0
C468 C 0.73856 0.91575 0.61237 0.0
C469 C 0.70845 0.87409 0.57902 0.0
C470 C 0.76379 0.8818 0.6156 0.0
C471 C 0.76225 0.84488 0.60062 0.0
H472 H 0.94067 0.71817 0.73661 0.0
H473 H 0.94398 0.86296 0.70758 0.0
H474 H 0.8807 0.86483 0.73342 0.0
H475 H 0.82421 0.82507 0.76393 0.0
H476 H 0.8187 0.67886 0.79262 0.0
H477 H 0.88393 0.6783 0.76723 0.0
C478 C 0.92749 0.7501 0.73589 0.0
C479 C 0.94691 0.7903 0.72016 0.0
C480 C 0.89111 0.7509 0.75076 0.0
C481 C 0.92949 0.8314 0.71948 0.0
C482 C 0.89345 0.83262 0.73428 0.0
C483 C 0.83742 0.7932 0.76474 0.0
C484 C 0.81664 0.75207 0.78017 0.0
C485 C 0.87407 0.79259 0.74996 0.0
C486 C 0.83408 0.71099 0.7809 0.0
C487 C 0.87124 0.71056 0.76637 0.0
H488 H 0.18631 0.00667 0.89556 0.0
H489 H 0.17233 0.85881 0.86529 0.0
H490 H 0.1142 0.79746 0.89294 0.0
H491 H 0.06835 0.78631 0.92573 0.0
H492 H 0.08562 0.93512 0.95644 0.0
H493 H 0.14247 0.99599 0.92859 0.0
C494 C 0.1703 0.96102 0.89491 0.0
C495 C 0.18335 0.93731 0.87832 0.0
C496 C 0.13811 0.92636 0.91101 0.0
C497 C 0.16276 0.87809 0.87786 0.0
C498 C 0.12969 0.84305 0.89368 0.0
C499 C 0.08473 0.83211 0.9264 0.0
C500 C 0.07272 0.85613 0.94316 0.0
C501 C 0.1174 0.86682 0.91036 0.0
C502 C 0.09443 0.91554 0.94378 0.0
C503 C 0.12669 0.95034 0.92782 0.0
H504 H 0.58121 0.46968 0.03918 0.0
H505 H 0.62271 0.59504 0.99256 0.0
H506 H 0.52467 0.57795 0.99317 0.0
H507 H 0.42326 0.51669 0.00358 0.0
H508 H 0.38283 0.39083 0.05008 0.0
H509 H 0.48385 0.41962 0.05323 0.0
C510 C 0.56898 0.49408 0.02948 0.0
C511 C 0.60919 0.53357 0.0159 0.0
C512 C 0.51234 0.4837 0.02982 0.0
C513 C 0.59294 0.56501 0.00339 0.0
C514 C 0.53657 0.55485 0.0036 0.0
C515 C 0.43688 0.497 0.01485 0.0
C516 C 0.39545 0.45123 0.0264 0.0
C517 C 0.49534 0.51298 0.01633 0.0
C518 C 0.41379 0.42582 0.04086 0.0
C519 C 0.47158 0.44198 0.0426 0.0
H520 H 0.0076 0.42991 0.21246 0.0
H521 H 0.90442 0.43312 0.16351 0.0
H522 H 0.97047 0.53607 0.15926 0.0
H523 H 0.06632 0.62033 0.16563 0.0
H524 H 0.1723 0.61296 0.21266 0.0
H525 H 0.09684 0.516 0.22129 0.0
C526 C 0.99873 0.45326 0.20111 0.0
C527 C 0.95156 0.42358 0.18812 0.0
C528 C 0.0382 0.5115 0.19815 0.0
C529 C 0.94036 0.45476 0.17371 0.0
C530 C 0.97857 0.51355 0.17112 0.0
C531 C 0.072 0.59821 0.1782 0.0
C532 C 0.12451 0.62382 0.18867 0.0
C533 C 0.02895 0.54174 0.18267 0.0
C534 C 0.13218 0.59396 0.20445 0.0
C535 C 0.08909 0.53861 0.20937 0.0
H536 H 0.59232 0.11735 0.36138 0.0
H537 H 0.44001 0.01918 0.32581 0.0
H538 H 0.45643 0.93808 0.32564 0.0
H539 H 0.52051 0.89884 0.33241 0.0
H540 H 0.67382 0.99879 0.36751 0.0
H541 H 0.65019 0.07434 0.37129 0.0
C542 C 0.56228 0.07782 0.35387 0.0
C543 C 0.51478 0.07425 0.34382 0.0
C544 C 0.57234 0.03145 0.35366 0.0
C545 C 0.47623 0.02282 0.33409 0.0
C546 C 0.48593 0.97645 0.33381 0.0
C547 C 0.54784 0.93644 0.34133 0.0
C548 C 0.59909 0.9432 0.34951 0.0
C549 C 0.53456 0.98065 0.34318 0.0
C550 C 0.63431 0.99256 0.3609 0.0
C551 C 0.62102 0.03605 0.36302 0.0
H552 H 0.38292 0.42584 0.50296 0.0
H553 H 0.39414 0.56472 0.53836 0.0
H554 H 0.49531 0.59849 0.54533 0.0
H555 H 0.58263 0.59656 0.53742 0.0
H556 H 0.57491 0.46268 0.49982 0.0
H557 H 0.47014 0.41787 0.49808 0.0
C558 C 0.40718 0.46222 0.51278 0.0
C559 C 0.38118 0.49241 0.52043 0.0
C560 C 0.46605 0.48263 0.51609 0.0
C561 C 0.41329 0.54061 0.53256 0.0
C562 C 0.47114 0.56007 0.53642 0.0
C563 C 0.55811 0.55698 0.5291 0.0
C564 C 0.58685 0.53351 0.51852 0.0
C565 C 0.49838 0.53265 0.52766 0.0
C566 C 0.55408 0.4818 0.50807 0.0
C567 C 0.49413 0.4564 0.50695 0.0
H568 H 0.94988 0.40355 0.65843 0.0
H569 H 0.84058 0.4064 0.70513 0.0
H570 H 0.91431 0.50341 0.71445 0.0
H571 H 0.00275 0.59091 0.70628 0.0
H572 H 0.10903 0.59301 0.65745 0.0
H573 H 0.04502 0.48992 0.65255 0.0
C574 C 0.94315 0.42491 0.67103 0.0
C575 C 0.89021 0.39802 0.68122 0.0
C576 C 0.98511 0.48158 0.67584 0.0
C577 C 0.88109 0.4265 0.69713 0.0
C578 C 0.92318 0.48187 0.70244 0.0
C579 C 0.01275 0.56876 0.69479 0.0
C580 C 0.06019 0.59996 0.68204 0.0
C581 C 0.97441 0.51044 0.69145 0.0
C582 C 0.07281 0.5702 0.66746 0.0
C583 C 0.03579 0.51132 0.66451 0.0
H584 H 0.54797 0.96355 0.83714 0.0
H585 H 0.39779 0.83564 0.86844 0.0
H586 H 0.36541 0.90462 0.87337 0.0
H587 H 0.37456 0.99733 0.86577 0.0
H588 H 0.52297 0.12502 0.83357 0.0
H589 H 0.56243 0.06071 0.83275 0.0
C590 C 0.50926 0.95125 0.84565 0.0
C591 C 0.47565 0.89452 0.8526 0.0
C592 C 0.49044 0.99106 0.8482 0.0
C593 C 0.42442 0.87897 0.86295 0.0
C594 C 0.40587 0.91839 0.86577 0.0
C595 C 0.41605 0.01166 0.85884 0.0
C596 C 0.44538 0.06581 0.84954 0.0
C597 C 0.43775 0.97403 0.858 0.0
C598 C 0.49935 0.08364 0.84084 0.0
C599 C 0.52175 0.04665 0.84022 0.0
H600 H 0.44849 0.41402 0.82092 0.0
H601 H 0.5925 0.43438 0.78602 0.0
H602 H 0.62272 0.53493 0.78016 0.0
H603 H 0.61435 0.61866 0.78799 0.0
H604 H 0.47338 0.60055 0.82429 0.0
H605 H 0.43436 0.49686 0.82581 0.0
C606 C 0.48531 0.43985 0.81147 0.0
C607 C 0.51791 0.4165 0.80373 0.0
C608 C 0.50305 0.49808 0.80846 0.0
C609 C 0.56675 0.45134 0.79213 0.0
C610 C 0.58402 0.50882 0.78877 0.0
C611 C 0.57446 0.59208 0.79596 0.0
C612 C 0.54728 0.61767 0.80622 0.0
C613 C 0.55339 0.53295 0.79731 0.0
C614 C 0.49533 0.58222 0.81627 0.0
C615 C 0.47326 0.52289 0.8173 0.0
H616 H 0.00886 0.60876 0.9536 0.0
H617 H 0.88839 0.48373 0.99522 0.0
H618 H 0.95179 0.44366 -0.00061 0.0
H619 H 0.04849 0.45487 0.99531 0.0
H620 H 0.17085 0.58617 0.95589 0.0
H621 H 0.10009 0.61382 0.94703 0.0
C622 C 0.99571 0.57197 0.96332 0.0
C623 C 0.94416 0.54984 0.97428 0.0
C624 C 0.03347 0.55111 0.96635 0.0
C625 C 0.92771 0.50169 0.98657 0.0
C626 C 0.96436 0.47921 0.98915 0.0
C627 C 0.059 0.48837 0.98436 0.0
C628 C 0.11473 0.5183 0.97615 0.0
C629 C 0.01841 0.50512 0.97974 0.0
C630 C 0.12831 0.56272 0.96242 0.0
C631 C 0.08786 0.57846 0.95734 0.0
H632 H 0.4289 0.0151 0.11599 0.0
H633 H 0.43994 0.90686 0.16132 0.0
H634 H 0.54408 0.97085 0.1632 0.0
H635 H 0.62835 0.06591 0.1561 0.0
H636 H 0.61455 0.17616 0.11241 0.0
H637 H 0.51486 0.10314 0.10578 0.0
C638 C 0.45416 0.00478 0.12603 0.0
C639 C 0.42651 0.95672 0.13874 0.0
C640 C 0.51344 0.04263 0.12748 0.0
C641 C 0.46004 0.94358 0.1514 0.0
C642 C 0.51955 0.98049 0.15261 0.0
C643 C 0.60419 0.07293 0.14457 0.0
C644 C 0.62887 0.12593 0.13449 0.0
C645 C 0.54631 0.03134 0.1413 0.0
C646 C 0.59644 0.13544 0.12016 0.0
C647 C 0.53945 0.09384 0.11646 0.0
H648 H 0.56394 0.57957 0.31976 0.0
H649 H 0.40805 0.55752 0.29313 0.0
H650 H 0.37239 0.4552 0.28915 0.0
H651 H 0.38162 0.37119 0.29593 0.0
H652 H 0.53588 0.39172 0.32344 0.0
H653 H 0.57714 0.49583 0.32352 0.0
C654 C 0.52307 0.55292 0.31247 0.0
C655 C 0.48903 0.57658 0.30653 0.0
C656 C 0.50246 0.49373 0.31041 0.0
C657 C 0.43511 0.54054 0.29783 0.0
C658 C 0.41469 0.48198 0.29553 0.0
C659 C 0.42458 0.39833 0.30174 0.0
C660 C 0.45521 0.37337 0.3099 0.0
C661 C 0.4474 0.45793 0.30218 0.0
C662 C 0.51122 0.40954 0.31705 0.0
C663 C 0.53467 0.46916 0.31726 0.0
H664 H 0.91306 0.51154 0.45617 0.0
H665 H 0.89976 0.48952 0.52029 0.0
H666 H 0.98286 0.47562 0.52061 0.0
H667 H 0.04994 0.45592 0.50215 0.0
H668 H 0.05532 0.46533 0.43767 0.0
H669 H 0.9865 0.49962 0.43784 0.0
C670 C 0.92921 0.5046 0.47017 0.0
C671 C 0.90052 0.50109 0.48816 0.0
C672 C 0.97586 0.49466 0.47012 0.0
C673 C 0.9212 0.49184 0.50627 0.0
C674 C 0.96869 0.48403 0.50645 0.0
C675 C 0.03777 0.46781 0.48823 0.0
C676 C 0.05837 0.45928 0.46995 0.0
C677 C 0.99533 0.48366 0.48841 0.0
C678 C 0.04073 0.47268 0.45192 0.0
C679 C 1.00078 0.49147 0.45202 0.0
H680 H 0.38405 0.96099 0.65081 0.0
H681 H 0.39603 0.8501 0.60694 0.0
H682 H 0.49544 0.92295 0.59982 0.0
H683 H 0.58211 0.01027 0.61004 0.0
H684 H 0.57314 0.11872 0.6557 0.0
H685 H 0.46875 0.05617 0.65752 0.0
C686 C 0.40773 0.95385 0.63911 0.0
C687 C 0.38267 0.90064 0.62917 0.0
C688 C 0.46549 0.99537 0.63555 0.0
C689 C 0.41447 0.89095 0.61462 0.0
C690 C 0.47128 0.93247 0.61062 0.0
C691 C 0.55716 0.02112 0.62003 0.0
C692 C 0.58545 0.0686 0.63293 0.0
C693 C 0.4978 0.98379 0.62156 0.0
C694 C 0.55249 0.08248 0.6456 0.0
C695 C 0.49284 0.04626 0.64682 0.0
H696 H 0.25791 0.27758 0.88149 0.0
H697 H 0.37858 0.23596 0.90783 0.0
H698 H 0.36 0.26146 0.94108 0.0
H699 H 0.30503 0.28925 0.96273 0.0
H700 H 0.18731 0.33598 0.93705 0.0
H701 H 0.20875 0.31475 0.9033 0.0
C702 C 0.28093 0.27557 0.89452 0.0
C703 C 0.32 0.25577 0.89241 0.0
C704 C 0.26974 0.2901 0.91359 0.0
C705 C 0.34912 0.25212 0.90925 0.0
C706 C 0.33806 0.26609 0.92821 0.0
C707 C 0.28389 0.29457 0.94973 0.0
C708 C 0.2437 0.31276 0.95228 0.0
C709 C 0.29761 0.2839 0.93058 0.0
C710 C 0.21787 0.32127 0.93536 0.0
C711 C 0.23024 0.30929 0.91613 0.0
H712 H 0.12115 0.28474 0.08218 0.0
H713 H 0.01446 0.33026 0.04778 0.0
H714 H 0.95005 0.30816 0.07668 0.0
H715 H 0.92484 0.27595 0.11183 0.0
H716 H 0.03245 0.22952 0.14557 0.0
H717 H 0.09454 0.24964 0.11648 0.0
C718 C 0.08333 0.28907 0.08093 0.0
C719 C 0.07192 0.30823 0.06285 0.0
C720 C 0.04632 0.2753 0.09737 0.0
C721 C 0.02393 0.3155 0.06159 0.0
C722 C 0.98699 0.30246 0.07803 0.0
C723 C 0.96132 0.26932 0.11271 0.0
C724 C 0.97385 0.25109 0.13087 0.0
C725 C 0.99762 0.28199 0.09598 0.0
C726 C 0.02178 0.24348 0.13181 0.0
C727 C 0.05753 0.25527 0.11522 0.0
H728 H 0.65446 0.94252 0.27973 0.0
H729 H 0.77886 0.89237 0.26514 0.0
H730 H 0.81247 0.95867 0.23659 0.0
H731 H 0.81607 0.04094 0.21933 0.0
H732 H 0.7021 0.10128 0.2377 0.0
H733 H 0.65378 0.02065 0.26095 0.0
C734 C 0.68739 0.9447 0.26976 0.0
C735 C 0.71343 0.91198 0.27407 0.0
C736 C 0.70881 0.9855 0.2543 0.0
C737 C 0.75758 0.91641 0.2617 0.0
C738 C 0.77714 0.95475 0.24559 0.0
C739 C 0.78002 0.03573 0.22824 0.0
C740 C 0.76213 0.07642 0.2267 0.0
C741 C 0.75464 0.99112 0.24228 0.0
C742 C 0.71565 0.06968 0.23829 0.0
C743 C 0.68851 0.02397 0.25174 0.0
H744 H 0.76106 0.82413 0.40049 0.0
H745 H 0.6825 0.65819 0.37231 0.0
H746 H 0.69807 0.61694 0.40293 0.0
H747 H 0.73111 0.62863 0.43842 0.0
H748 H 0.81197 0.79721 0.46504 0.0
H749 H 0.80128 0.83759 0.43385 0.0
C750 C 0.74892 0.7793 0.40073 0.0
C751 C 0.72164 0.74448 0.38405 0.0
C752 C 0.759 0.75655 0.41807 0.0
C753 C 0.70362 0.68583 0.38502 0.0
C754 C 0.71285 0.66241 0.40246 0.0
C755 C 0.74749 0.67433 0.43718 0.0
C756 C 0.77206 0.70985 0.45405 0.0
C757 C 0.74031 0.6974 0.41916 0.0
C758 C 0.79257 0.76892 0.45233 0.0
C759 C 0.78625 0.79206 0.43453 0.0
H760 H 0.87519 0.72469 0.58243 0.0
H761 H 0.9767 0.67789 0.54553 0.0
H762 H 0.04901 0.70817 0.57221 0.0
H763 H 0.08167 0.74623 0.6065 0.0
H764 H 0.98009 0.79661 0.64203 0.0
H765 H 0.91102 0.76975 0.61484 0.0
C766 C 0.91373 0.72227 0.57998 0.0
C767 C 0.92085 0.69958 0.56198 0.0
C768 C 0.95554 0.74136 0.59501 0.0
C769 C 0.97001 0.69473 0.55937 0.0
C770 C 0.01159 0.71262 0.57452 0.0
C771 C 0.04513 0.75255 0.60809 0.0
C772 C 0.03598 0.77323 0.62631 0.0
C773 C 0.00479 0.73607 0.59244 0.0
C774 C 0.98806 0.78059 0.62821 0.0
C775 C 0.94828 0.76488 0.61273 0.0
H776 H 0.19484 0.97559 0.72212 0.0
H777 H 0.30576 0.90636 0.73353 0.0
H778 H 0.35258 0.97532 0.76071 0.0
H779 H 0.35288 0.04621 0.78399 0.0
H780 H 0.23252 0.10536 0.77569 0.0
H781 H 0.19778 0.04937 0.7446 0.0
C782 C 0.22992 0.97638 0.7304 0.0
C783 C 0.24752 0.93668 0.7257 0.0
C784 C 0.25417 0.01382 0.7467 0.0
C785 C 0.29262 0.93757 0.73653 0.0
C786 C 0.31877 0.97642 0.75225 0.0
C787 C 0.31999 0.04769 0.77503 0.0
C788 C 0.29559 0.08009 0.78171 0.0
C789 C 0.29877 0.01355 0.75781 0.0
C790 C 0.2521 0.08105 0.77051 0.0
C791 C 0.23219 0.0489 0.75287 0.0
H792 H 0.72684 0.71849 0.86043 0.0
H793 H 0.68035 0.83027 0.89095 0.0
H794 H 0.70948 0.80801 0.92316 0.0
H795 H 0.75223 0.75898 0.9422 0.0
H796 H 0.7937 0.64452 0.91103 0.0
H797 H 0.7616 0.66479 0.87933 0.0
C798 C 0.72344 0.73835 0.87413 0.0
C799 C 0.70287 0.77699 0.87337 0.0
C800 C 0.73866 0.7242 0.89239 0.0
C801 C 0.69683 0.80097 0.89123 0.0
C802 C 0.7133 0.78811 0.90958 0.0
C803 C 0.75297 0.73784 0.92846 0.0
C804 C 0.77452 0.69998 0.92872 0.0
C805 C 0.7346 0.74997 0.91031 0.0
C806 C 0.77643 0.67318 0.91099 0.0
C807 C 0.75859 0.68514 0.89294 0.0
H808 H 0.0297 0.71011 0.02601 0.0
H809 H 0.8946 0.72931 0.05273 0.0
H810 H 0.94668 0.75598 0.08485 0.0
H811 H 0.03444 0.78007 0.10434 0.0
H812 H 0.16669 0.75643 0.07754 0.0
H813 H 0.11137 0.72364 0.04637 0.0
C814 C 0.01182 0.72026 0.03891 0.0
C815 C 0.95942 0.71938 0.03708 0.0
C816 C 0.04107 0.73377 0.05724 0.0
C817 C 0.93543 0.73072 0.05389 0.0
C818 C 0.96507 0.7457 0.07217 0.0
C819 C 0.05004 0.76606 0.0918 0.0
C820 C 0.10383 0.7696 0.09312 0.0
C821 C 0.01824 0.74796 0.07393 0.0
C822 C 0.12473 0.75267 0.07684 0.0
C823 C 0.09351 0.73475 0.059 0.0
H824 H 0.28002 0.91319 0.21725 0.0
H825 H 0.21415 0.01212 0.18861 0.0
H826 H 0.23132 0.06828 0.21905 0.0
H827 H 0.27205 0.09457 0.25258 0.0
H828 H 0.33692 0.99649 0.28212 0.0
H829 H 0.31503 0.93577 0.25224 0.0
C830 C 0.26836 0.94626 0.21783 0.0
C831 C 0.24594 0.95852 0.20066 0.0
C832 C 0.27941 0.97932 0.23533 0.0
C833 C 0.23165 0.00195 0.20157 0.0
C834 C 0.24171 0.03431 0.21894 0.0
C835 C 0.28013 0.05905 0.2527 0.0
C836 C 0.30529 0.04943 0.26958 0.0
C837 C 0.26666 0.02416 0.23571 0.0
C838 C 0.31766 0.0047 0.26922 0.0
C839 C 0.30479 0.96983 0.25222 0.0
H840 H 0.30251 0.34496 0.4285 0.0
H841 H 0.14791 0.18298 0.43811 0.0
H842 H 0.18082 0.13658 0.4145 0.0
H843 H 0.24673 0.1461 0.38721 0.0
H844 H 0.40557 0.30512 0.37987 0.0
H845 H 0.37931 0.34817 0.40718 0.0
C846 C 0.27713 0.29913 0.42604 0.0
C847 C 0.22223 0.26774 0.43461 0.0
C848 C 0.29712 0.27221 0.41286 0.0
C849 C 0.18959 0.2084 0.43116 0.0
C850 C 0.20848 0.18171 0.41775 0.0
C851 C 0.27648 0.18936 0.39221 0.0
C852 C 0.32779 0.22252 0.38167 0.0
C853 C 0.26113 0.2137 0.40792 0.0
C854 C 0.36608 0.27868 0.38804 0.0
C855 C 0.35071 0.30355 0.40344 0.0
H856 H 0.86452 0.15247 0.57198 0.0
H857 H 0.97792 0.29314 0.61007 0.0
H858 H 0.04796 0.33429 0.58266 0.0
H859 H 0.07573 0.3304 0.54752 0.0
H860 H 0.96109 0.18758 0.51017 0.0
H861 H 0.89382 0.14584 0.53794 0.0
C862 C 0.90501 0.19161 0.57441 0.0
C863 C 0.91638 0.21945 0.59305 0.0
C864 C 0.94512 0.21421 0.55878 0.0
C865 C 0.96817 0.27112 0.59579 0.0
C866 C 0.00834 0.29434 0.58018 0.0
C867 C 0.03652 0.28965 0.54559 0.0
C868 C 0.02353 0.26217 0.52677 0.0
C869 C 0.99727 0.26618 0.56159 0.0
C870 C 0.97214 0.20972 0.52445 0.0
C871 C 0.93346 0.1859 0.5403 0.0
H872 H 0.67642 0.97533 0.69259 0.0
H873 H 0.80329 0.13957 0.7161 0.0
H874 H 0.78698 0.09879 0.75004 0.0
H875 H 0.73889 0.01439 0.77268 0.0
H876 H 0.60925 0.85228 0.74877 0.0
H877 H 0.62349 0.89429 0.71525 0.0
C878 C 0.70073 0.00216 0.70514 0.0
C879 C 0.74183 0.05999 0.70188 0.0
C880 C 0.68997 0.97888 0.7245 0.0
C881 C 0.77187 0.09474 0.71829 0.0
C882 C 0.76243 0.07147 0.73765 0.0
C883 C 0.71305 0.98896 0.76014 0.0
C884 C 0.67258 0.93076 0.76302 0.0
C885 C 0.72176 0.01347 0.74091 0.0
C886 C 0.63983 0.89746 0.74678 0.0
C887 C 0.64841 0.92129 0.72765 0.0
loop_
_geom_bond_atom_site_label_1
_geom_bond_atom_site_label_2
_geom_bond_distance
_geom_bond_site_symmetry_2
_ccdc_geom_bond_type
Co0 O3 1.970 . S
Co0 N17 1.989 . S
Co0 O25 1.967 . S
Co0 O32 1.920 . S
Co1 O4 1.966 1_554 S
Co1 N10 2.022 . S
Co1 N18 1.993 . S
Co1 O26 1.941 . S
C2 O3 1.258 1_556 S
C2 O4 1.263 . S
O3 Co0 1.970 . S
O3 C2 1.258 1_554 S
O4 Co1 1.966 1_556 S
O4 C2 1.263 . S
C5 O6 1.235 . S
C5 O32 1.289 . S
O6 C5 1.235 . S
C7 C9 1.400 . S
C7 N10 1.351 1_556 S
C7 C12 1.501 . S
C8 C9 1.387 1_554 S
C8 N11 1.341 . S
C9 C7 1.400 . S
C9 C8 1.387 1_556 S
N10 Co1 2.022 . S
N10 C7 1.351 1_554 S
N10 N11 1.365 . S
N11 C8 1.341 . S
N11 N10 1.365 . S
N11 H31 0.862 . S
C12 C7 1.501 . S
C12 H13 0.961 . S
C12 H14 0.961 . S
C12 H15 0.960 . S
H13 C12 0.961 . S
H14 C12 0.961 . S
H15 C12 0.960 . S
C16 N17 1.342 . S
C16 C20 1.401 . S
C16 C21 1.499 . S
N17 Co0 1.989 . S
N17 C16 1.342 . S
N17 N18 1.388 . S
N18 Co1 1.993 . S
N18 N17 1.388 . S
N18 C19 1.346 . S
C19 N18 1.346 . S
C19 C20 1.396 . S
C19 C29 1.510 . S
C20 C16 1.401 . S
C20 C19 1.396 . S
C21 C16 1.499 . S
C21 H22 0.959 . S
C21 H23 0.960 . S
C21 H24 0.961 . S
H22 C21 0.959 . S
H23 C21 0.960 . S
H24 C21 0.961 . S
O25 Co0 1.967 . S
O25 C33 1.258 . S
O26 Co1 1.941 . S
O26 C33 1.266 . S
H27 C29 0.959 . S
H28 C29 0.961 . S
C29 C19 1.510 . S
C29 H27 0.959 . S
C29 H28 0.961 . S
C29 H30 0.960 . S
H30 C29 0.960 . S
H31 N11 0.862 . S
O32 Co0 1.920 . S
O32 C5 1.289 . S
C33 O25 1.258 . S
C33 O26 1.266 . S
Co34 O37 1.970 . S
Co34 N51 1.989 . S
Co34 O59 1.967 . S
Co34 O66 1.920 . S
Co35 O38 1.966 . S
Co35 N44 2.022 . S
Co35 N52 1.993 . S
Co35 O60 1.941 . S
C36 O37 1.258 . S
C36 O38 1.263 . S
O37 Co34 1.970 . S
O37 C36 1.258 . S
O38 Co35 1.966 . S
O38 C36 1.263 . S
C39 O40 1.235 1_455 S
C39 O66 1.289 1_455 S
O40 C39 1.235 1_655 S
C41 C43 1.400 . S
C41 N44 1.351 . S
C41 C46 1.501 . S
C42 C43 1.387 . S
C42 N45 1.341 . S
C43 C41 1.400 . S
C43 C42 1.387 . S
N44 Co35 2.022 . S
N44 C41 1.351 . S
N44 N45 1.365 . S
N45 C42 1.341 . S
N45 N44 1.365 . S
N45 H65 0.862 . S
C46 C41 1.501 . S
C46 H47 0.961 . S
C46 H48 0.961 . S
C46 H49 0.960 . S
H47 C46 0.961 . S
H48 C46 0.961 . S
H49 C46 0.960 . S
C50 N51 1.342 . S
C50 C54 1.401 . S
C50 C55 1.499 . S
N51 Co34 1.989 . S
N51 C50 1.342 . S
N51 N52 1.388 . S
N52 Co35 1.993 . S
N52 N51 1.388 . S
N52 C53 1.346 . S
C53 N52 1.346 . S
C53 C54 1.396 . S
C53 C63 1.510 . S
C54 C50 1.401 . S
C54 C53 1.396 . S
C55 C50 1.499 . S
C55 H56 0.959 . S
C55 H57 0.960 . S
C55 H58 0.961 . S
H56 C55 0.959 . S
H57 C55 0.960 . S
H58 C55 0.961 . S
O59 Co34 1.967 . S
O59 C67 1.258 . S
O60 Co35 1.941 . S
O60 C67 1.266 . S
H61 C63 0.959 . S
H62 C63 0.961 . S
C63 C53 1.510 . S
C63 H61 0.959 . S
C63 H62 0.961 . S
C63 H64 0.960 . S
H64 C63 0.960 . S
H65 N45 0.862 . S
O66 Co34 1.920 . S
O66 C39 1.289 1_655 S
C67 O59 1.258 . S
C67 O60 1.266 . S
Co68 O71 1.970 . S
Co68 N85 1.989 . S
Co68 O93 1.967 . S
Co68 O100 1.920 . S
Co69 O72 1.966 . S
Co69 N78 2.022 . S
Co69 N86 1.993 . S
Co69 O94 1.941 . S
C70 O71 1.258 . S
C70 O72 1.263 . S
O71 Co68 1.970 . S
O71 C70 1.258 . S
O72 Co69 1.966 . S
O72 C70 1.263 . S
C73 O74 1.235 1_545 S
C73 O100 1.289 1_545 S
O74 C73 1.235 1_565 S
C75 C77 1.400 . S
C75 N78 1.351 . S
C75 C80 1.501 . S
C76 C77 1.387 . S
C76 N79 1.341 . S
C77 C75 1.400 . S
C77 C76 1.387 . S
N78 Co69 2.022 . S
N78 C75 1.351 . S
N78 N79 1.365 . S
N79 C76 1.341 . S
N79 N78 1.365 . S
N79 H99 0.862 . S
C80 C75 1.501 . S
C80 H81 0.961 . S
C80 H82 0.961 . S
C80 H83 0.960 . S
H81 C80 0.961 . S
H82 C80 0.961 . S
H83 C80 0.960 . S
C84 N85 1.342 . S
C84 C88 1.401 . S
C84 C89 1.499 . S
N85 Co68 1.989 . S
N85 C84 1.342 . S
N85 N86 1.388 . S
N86 Co69 1.993 . S
N86 N85 1.388 . S
N86 C87 1.346 . S
C87 N86 1.346 . S
C87 C88 1.396 . S
C87 C97 1.510 . S
C88 C84 1.401 . S
C88 C87 1.396 . S
C89 C84 1.499 . S
C89 H90 0.959 . S
C89 H91 0.960 . S
C89 H92 0.961 . S
H90 C89 0.959 . S
H91 C89 0.960 . S
H92 C89 0.961 . S
O93 Co68 1.967 . S
O93 C101 1.258 . S
O94 Co69 1.941 . S
O94 C101 1.266 . S
H95 C97 0.959 . S
H96 C97 0.961 . S
C97 C87 1.510 . S
C97 H95 0.959 . S
C97 H96 0.961 . S
C97 H98 0.960 . S
H98 C97 0.960 . S
H99 N79 0.862 . S
O100 Co68 1.920 . S
O100 C73 1.289 1_565 S
C101 O93 1.258 . S
C101 O94 1.266 . S
Co102 O105 1.970 . S
Co102 N119 1.989 . S
Co102 O127 1.967 . S
Co102 O134 1.920 . S
Co103 O106 1.966 . S
Co103 N112 2.022 . S
Co103 N120 1.993 . S
Co103 O128 1.941 . S
C104 O105 1.258 . S
C104 O106 1.263 . S
O105 Co102 1.970 . S
O105 C104 1.258 . S
O106 Co103 1.966 . S
O106 C104 1.263 . S
C107 O108 1.235 . S
C107 O134 1.289 . S
O108 C107 1.235 . S
C109 C111 1.400 . S
C109 N112 1.351 . S
C109 C114 1.501 . S
C110 C111 1.387 . S
C110 N113 1.341 . S
C111 C109 1.400 . S
C111 C110 1.387 . S
N112 Co103 2.022 . S
N112 C109 1.351 . S
N112 N113 1.365 . S
N113 C110 1.341 . S
N113 N112 1.365 . S
N113 H133 0.862 . S
C114 C109 1.501 . S
C114 H115 0.961 . S
C114 H116 0.961 . S
C114 H117 0.960 . S
H115 C114 0.961 . S
H116 C114 0.961 . S
H117 C114 0.960 . S
C118 N119 1.342 . S
C118 C122 1.401 . S
C118 C123 1.499 . S
N119 Co102 1.989 . S
N119 C118 1.342 . S
N119 N120 1.388 . S
N120 Co103 1.993 . S
N120 N119 1.388 . S
N120 C121 1.346 . S
C121 N120 1.346 . S
C121 C122 1.396 . S
C121 C131 1.510 . S
C122 C118 1.401 . S
C122 C121 1.396 . S
C123 C118 1.499 . S
C123 H124 0.959 . S
C123 H125 0.960 . S
C123 H126 0.961 . S
H124 C123 0.959 . S
H125 C123 0.960 . S
H126 C123 0.961 . S
O127 Co102 1.967 . S
O127 C135 1.258 . S
O128 Co103 1.941 . S
O128 C135 1.266 . S
H129 C131 0.959 . S
H130 C131 0.961 . S
C131 C121 1.510 . S
C131 H129 0.959 . S
C131 H130 0.961 . S
C131 H132 0.960 . S
H132 C131 0.960 . S
H133 N113 0.862 . S
O134 Co102 1.920 . S
O134 C107 1.289 . S
C135 O127 1.258 . S
C135 O128 1.266 . S
Co136 O139 1.970 . S
Co136 N153 1.989 . S
Co136 O161 1.967 . S
Co136 O168 1.920 . S
Co137 O140 1.966 . S
Co137 N146 2.022 . S
Co137 N154 1.993 . S
Co137 O162 1.941 . S
C138 O139 1.258 . S
C138 O140 1.263 . S
O139 Co136 1.970 . S
O139 C138 1.258 . S
O140 Co137 1.966 . S
O140 C138 1.263 . S
C141 O142 1.235 1_655 S
C141 O168 1.289 1_655 S
O142 C141 1.235 1_455 S
C143 C145 1.400 . S
C143 N146 1.351 . S
C143 C148 1.501 . S
C144 C145 1.387 . S
C144 N147 1.341 . S
C145 C143 1.400 . S
C145 C144 1.387 . S
N146 Co137 2.022 . S
N146 C143 1.351 . S
N146 N147 1.365 . S
N147 C144 1.341 . S
N147 N146 1.365 . S
N147 H167 0.862 . S
C148 C143 1.501 . S
C148 H149 0.961 . S
C148 H150 0.961 . S
C148 H151 0.960 . S
H149 C148 0.961 . S
H150 C148 0.961 . S
H151 C148 0.960 . S
C152 N153 1.342 . S
C152 C156 1.401 . S
C152 C157 1.499 . S
N153 Co136 1.989 . S
N153 C152 1.342 . S
N153 N154 1.388 . S
N154 Co137 1.993 . S
N154 N153 1.388 . S
N154 C155 1.346 . S
C155 N154 1.346 . S
C155 C156 1.396 . S
C155 C165 1.510 . S
C156 C152 1.401 . S
C156 C155 1.396 . S
C157 C152 1.499 . S
C157 H158 0.959 . S
C157 H159 0.960 . S
C157 H160 0.961 . S
H158 C157 0.959 . S
H159 C157 0.960 . S
H160 C157 0.961 . S
O161 Co136 1.967 . S
O161 C169 1.258 . S
O162 Co137 1.941 . S
O162 C169 1.266 . S
H163 C165 0.959 . S
H164 C165 0.961 . S
C165 C155 1.510 . S
C165 H163 0.959 . S
C165 H164 0.961 . S
C165 H166 0.960 . S
H166 C165 0.960 . S
H167 N147 0.862 . S
O168 Co136 1.920 . S
O168 C141 1.289 1_455 S
C169 O161 1.258 . S
C169 O162 1.266 . S
Co170 O173 1.970 . S
Co170 N187 1.989 . S
Co170 O195 1.967 . S
Co170 O202 1.920 . S
Co171 O174 1.966 . S
Co171 N180 2.022 . S
Co171 N188 1.993 . S
Co171 O196 1.941 . S
C172 O173 1.258 . S
C172 O174 1.263 . S
O173 Co170 1.970 . S
O173 C172 1.258 . S
O174 Co171 1.966 . S
O174 C172 1.263 . S
C175 O176 1.235 1_565 S
C175 O202 1.289 1_565 S
O176 C175 1.235 1_545 S
C177 C179 1.400 . S
C177 N180 1.351 . S
C177 C182 1.501 . S
C178 C179 1.387 . S
C178 N181 1.341 . S
C179 C177 1.400 . S
C179 C178 1.387 . S
N180 Co171 2.022 . S
N180 C177 1.351 . S
N180 N181 1.365 . S
N181 C178 1.341 . S
N181 N180 1.365 . S
N181 H201 0.862 . S
C182 C177 1.501 . S
C182 H183 0.961 . S
C182 H184 0.961 . S
C182 H185 0.960 . S
H183 C182 0.961 . S
H184 C182 0.961 . S
H185 C182 0.960 . S
C186 N187 1.342 . S
C186 C190 1.401 . S
C186 C191 1.499 . S
N187 Co170 1.989 . S
N187 C186 1.342 . S
N187 N188 1.388 . S
N188 Co171 1.993 . S
N188 N187 1.388 . S
N188 C189 1.346 . S
C189 N188 1.346 . S
C189 C190 1.396 . S
C189 C199 1.510 . S
C190 C186 1.401 . S
C190 C189 1.396 . S
C191 C186 1.499 . S
C191 H192 0.959 . S
C191 H193 0.960 . S
C191 H194 0.961 . S
H192 C191 0.959 . S
H193 C191 0.960 . S
H194 C191 0.961 . S
O195 Co170 1.967 . S
O195 C203 1.258 . S
O196 Co171 1.941 . S
O196 C203 1.266 . S
H197 C199 0.959 . S
H198 C199 0.961 . S
C199 C189 1.510 . S
C199 H197 0.959 . S
C199 H198 0.961 . S
C199 H200 0.960 . S
H200 C199 0.960 . S
H201 N181 0.862 . S
O202 Co170 1.920 . S
O202 C175 1.289 1_545 S
C203 O195 1.258 . S
C203 O196 1.266 . S
Co204 O207 1.970 . S
Co204 N221 1.989 . S
Co204 O229 1.967 . S
Co204 O236 1.920 . S
Co205 O208 1.966 . S
Co205 N214 2.022 . S
Co205 N222 1.993 . S
Co205 O230 1.941 . S
C206 O207 1.258 . S
C206 O208 1.263 . S
O207 Co204 1.970 . S
O207 C206 1.258 . S
O208 Co205 1.966 . S
O208 C206 1.263 . S
C209 O210 1.235 . S
C209 O236 1.289 . S
O210 C209 1.235 . S
C211 C213 1.400 . S
C211 N214 1.351 . S
C211 C216 1.501 . S
C212 C213 1.387 . S
C212 N215 1.341 . S
C213 C211 1.400 . S
C213 C212 1.387 . S
N214 Co205 2.022 . S
N214 C211 1.351 . S
N214 N215 1.365 . S
N215 C212 1.341 . S
N215 N214 1.365 . S
N215 H235 0.862 . S
C216 C211 1.501 . S
C216 H217 0.961 . S
C216 H218 0.961 . S
C216 H219 0.960 . S
H217 C216 0.961 . S
H218 C216 0.961 . S
H219 C216 0.960 . S
C220 N221 1.342 . S
C220 C224 1.401 . S
C220 C225 1.499 . S
N221 Co204 1.989 . S
N221 C220 1.342 . S
N221 N222 1.388 . S
N222 Co205 1.993 . S
N222 N221 1.388 . S
N222 C223 1.346 . S
C223 N222 1.346 . S
C223 C224 1.396 . S
C223 C233 1.510 . S
C224 C220 1.401 . S
C224 C223 1.396 . S
C225 C220 1.499 . S
C225 H226 0.959 . S
C225 H227 0.960 . S
C225 H228 0.961 . S
H226 C225 0.959 . S
H227 C225 0.960 . S
H228 C225 0.961 . S
O229 Co204 1.967 . S
O229 C237 1.258 . S
O230 Co205 1.941 . S
O230 C237 1.266 . S
H231 C233 0.959 . S
H232 C233 0.961 . S
C233 C223 1.510 . S
C233 H231 0.959 . S
C233 H232 0.961 . S
C233 H234 0.960 . S
H234 C233 0.960 . S
H235 N215 0.862 . S
O236 Co204 1.920 . S
O236 C209 1.289 . S
C237 O229 1.258 . S
C237 O230 1.266 . S
Co238 O241 1.970 . S
Co238 N255 1.989 . S
Co238 O263 1.967 . S
Co238 O270 1.920 . S
Co239 O242 1.966 1_556 S
Co239 N248 2.022 . S
Co239 N256 1.993 . S
Co239 O264 1.941 . S
C240 O241 1.258 1_554 S
C240 O242 1.263 . S
O241 Co238 1.970 . S
O241 C240 1.258 1_556 S
O242 Co239 1.966 1_554 S
O242 C240 1.263 . S
C243 O244 1.235 1_455 S
C243 O270 1.289 1_455 S
O244 C243 1.235 1_655 S
C245 C247 1.400 . S
C245 N248 1.351 1_554 S
C245 C250 1.501 . S
C246 C247 1.387 1_556 S
C246 N249 1.341 . S
C247 C245 1.400 . S
C247 C246 1.387 1_554 S
N248 Co239 2.022 . S
N248 C245 1.351 1_556 S
N248 N249 1.365 . S
N249 C246 1.341 . S
N249 N248 1.365 . S
N249 H269 0.862 . S
C250 C245 1.501 . S
C250 H251 0.961 . S
C250 H252 0.961 . S
C250 H253 0.960 . S
H251 C250 0.961 . S
H252 C250 0.961 . S
H253 C250 0.960 . S
C254 N255 1.342 . S
C254 C258 1.401 . S
C254 C259 1.499 . S
N255 Co238 1.989 . S
N255 C254 1.342 . S
N255 N256 1.388 . S
N256 Co239 1.993 . S
N256 N255 1.388 . S
N256 C257 1.346 . S
C257 N256 1.346 . S
C257 C258 1.396 . S
C257 C267 1.510 . S
C258 C254 1.401 . S
C258 C257 1.396 . S
C259 C254 1.499 . S
C259 H260 0.959 . S
C259 H261 0.960 . S
C259 H262 0.961 . S
H260 C259 0.959 . S
H261 C259 0.960 . S
H262 C259 0.961 . S
O263 Co238 1.967 . S
O263 C271 1.258 . S
O264 Co239 1.941 . S
O264 C271 1.266 . S
H265 C267 0.959 . S
H266 C267 0.961 . S
C267 C257 1.510 . S
C267 H265 0.959 . S
C267 H266 0.961 . S
C267 H268 0.960 . S
H268 C267 0.960 . S
H269 N249 0.862 . S
O270 Co238 1.920 . S
O270 C243 1.289 1_655 S
C271 O263 1.258 . S
C271 O264 1.266 . S
Co272 O275 1.970 . S
Co272 N289 1.989 . S
Co272 O297 1.967 . S
Co272 O304 1.920 . S
Co273 O276 1.966 . S
Co273 N282 2.022 . S
Co273 N290 1.993 . S
Co273 O298 1.941 . S
C274 O275 1.258 . S
C274 O276 1.263 . S
O275 Co272 1.970 . S
O275 C274 1.258 . S
O276 Co273 1.966 . S
O276 C274 1.263 . S
C277 O278 1.235 1_545 S
C277 O304 1.289 1_545 S
O278 C277 1.235 1_565 S
C279 C281 1.400 . S
C279 N282 1.351 . S
C279 C284 1.501 . S
C280 C281 1.387 . S
C280 N283 1.341 . S
C281 C279 1.400 . S
C281 C280 1.387 . S
N282 Co273 2.022 . S
N282 C279 1.351 . S
N282 N283 1.365 . S
N283 C280 1.341 . S
N283 N282 1.365 . S
N283 H303 0.862 . S
C284 C279 1.501 . S
C284 H285 0.961 . S
C284 H286 0.961 . S
C284 H287 0.960 . S
H285 C284 0.961 . S
H286 C284 0.961 . S
H287 C284 0.960 . S
C288 N289 1.342 . S
C288 C292 1.401 . S
C288 C293 1.499 . S
N289 Co272 1.989 . S
N289 C288 1.342 . S
N289 N290 1.388 . S
N290 Co273 1.993 . S
N290 N289 1.388 . S
N290 C291 1.346 . S
C291 N290 1.346 . S
C291 C292 1.396 . S
C291 C301 1.510 . S
C292 C288 1.401 . S
C292 C291 1.396 . S
C293 C288 1.499 . S
C293 H294 0.959 . S
C293 H295 0.960 . S
C293 H296 0.961 . S
H294 C293 0.959 . S
H295 C293 0.960 . S
H296 C293 0.961 . S
O297 Co272 1.967 . S
O297 C305 1.258 . S
O298 Co273 1.941 . S
O298 C305 1.266 . S
H299 C301 0.959 . S
H300 C301 0.961 . S
C301 C291 1.510 . S
C301 H299 0.959 . S
C301 H300 0.961 . S
C301 H302 0.960 . S
H302 C301 0.960 . S
H303 N283 0.862 . S
O304 Co272 1.920 . S
O304 C277 1.289 1_565 S
C305 O297 1.258 . S
C305 O298 1.266 . S
Co306 O309 1.970 . S
Co306 N323 1.989 . S
Co306 O331 1.967 . S
Co306 O338 1.920 . S
Co307 O310 1.966 . S
Co307 N316 2.022 . S
Co307 N324 1.993 . S
Co307 O332 1.941 . S
C308 O309 1.258 . S
C308 O310 1.263 . S
O309 Co306 1.970 . S
O309 C308 1.258 . S
O310 Co307 1.966 . S
O310 C308 1.263 . S
C311 O312 1.235 . S
C311 O338 1.289 . S
O312 C311 1.235 . S
C313 C315 1.400 . S
C313 N316 1.351 . S
C313 C318 1.501 . S
C314 C315 1.387 . S
C314 N317 1.341 . S
C315 C313 1.400 . S
C315 C314 1.387 . S
N316 Co307 2.022 . S
N316 C313 1.351 . S
N316 N317 1.365 . S
N317 C314 1.341 . S
N317 N316 1.365 . S
N317 H337 0.862 . S
C318 C313 1.501 . S
C318 H319 0.961 . S
C318 H320 0.961 . S
C318 H321 0.960 . S
H319 C318 0.961 . S
H320 C318 0.961 . S
H321 C318 0.960 . S
C322 N323 1.342 . S
C322 C326 1.401 . S
C322 C327 1.499 . S
N323 Co306 1.989 . S
N323 C322 1.342 . S
N323 N324 1.388 . S
N324 Co307 1.993 . S
N324 N323 1.388 . S
N324 C325 1.346 . S
C325 N324 1.346 . S
C325 C326 1.396 . S
C325 C335 1.510 . S
C326 C322 1.401 . S
C326 C325 1.396 . S
C327 C322 1.499 . S
C327 H328 0.959 . S
C327 H329 0.960 . S
C327 H330 0.961 . S
H328 C327 0.959 . S
H329 C327 0.960 . S
H330 C327 0.961 . S
O331 Co306 1.967 . S
O331 C339 1.258 . S
O332 Co307 1.941 . S
O332 C339 1.266 . S
H333 C335 0.959 . S
H334 C335 0.961 . S
C335 C325 1.510 . S
C335 H333 0.959 . S
C335 H334 0.961 . S
C335 H336 0.960 . S
H336 C335 0.960 . S
H337 N317 0.862 . S
O338 Co306 1.920 . S
O338 C311 1.289 . S
C339 O331 1.258 . S
C339 O332 1.266 . S
Co340 O343 1.970 . S
Co340 N357 1.989 . S
Co340 O365 1.967 . S
Co340 O372 1.920 . S
Co341 O344 1.966 . S
Co341 N350 2.022 . S
Co341 N358 1.993 . S
Co341 O366 1.941 . S
C342 O343 1.258 . S
C342 O344 1.263 . S
O343 Co340 1.970 . S
O343 C342 1.258 . S
O344 Co341 1.966 . S
O344 C342 1.263 . S
C345 O346 1.235 1_655 S
C345 O372 1.289 1_655 S
O346 C345 1.235 1_455 S
C347 C349 1.400 . S
C347 N350 1.351 . S
C347 C352 1.501 . S
C348 C349 1.387 . S
C348 N351 1.341 . S
C349 C347 1.400 . S
C349 C348 1.387 . S
N350 Co341 2.022 . S
N350 C347 1.351 . S
N350 N351 1.365 . S
N351 C348 1.341 . S
N351 N350 1.365 . S
N351 H371 0.862 . S
C352 C347 1.501 . S
C352 H353 0.961 . S
C352 H354 0.961 . S
C352 H355 0.960 . S
H353 C352 0.961 . S
H354 C352 0.961 . S
H355 C352 0.960 . S
C356 N357 1.342 . S
C356 C360 1.401 . S
C356 C361 1.499 . S
N357 Co340 1.989 . S
N357 C356 1.342 . S
N357 N358 1.388 . S
N358 Co341 1.993 . S
N358 N357 1.388 . S
N358 C359 1.346 . S
C359 N358 1.346 . S
C359 C360 1.396 . S
C359 C369 1.510 . S
C360 C356 1.401 . S
C360 C359 1.396 . S
C361 C356 1.499 . S
C361 H362 0.959 . S
C361 H363 0.960 . S
C361 H364 0.961 . S
H362 C361 0.959 . S
H363 C361 0.960 . S
H364 C361 0.961 . S
O365 Co340 1.967 . S
O365 C373 1.258 . S
O366 Co341 1.941 . S
O366 C373 1.266 . S
H367 C369 0.959 . S
H368 C369 0.961 . S
C369 C359 1.510 . S
C369 H367 0.959 . S
C369 H368 0.961 . S
C369 H370 0.960 . S
H370 C369 0.960 . S
H371 N351 0.862 . S
O372 Co340 1.920 . S
O372 C345 1.289 1_455 S
C373 O365 1.258 . S
C373 O366 1.266 . S
Co374 O377 1.970 . S
Co374 N391 1.989 . S
Co374 O399 1.967 . S
Co374 O406 1.920 . S
Co375 O378 1.966 . S
Co375 N384 2.022 . S
Co375 N392 1.993 . S
Co375 O400 1.941 . S
C376 O377 1.258 . S
C376 O378 1.263 . S
O377 Co374 1.970 . S
O377 C376 1.258 . S
O378 Co375 1.966 . S
O378 C376 1.263 . S
C379 O380 1.235 1_565 S
C379 O406 1.289 1_565 S
O380 C379 1.235 1_545 S
C381 C383 1.400 . S
C381 N384 1.351 . S
C381 C386 1.501 . S
C382 C383 1.387 . S
C382 N385 1.341 . S
C383 C381 1.400 . S
C383 C382 1.387 . S
N384 Co375 2.022 . S
N384 C381 1.351 . S
N384 N385 1.365 . S
N385 C382 1.341 . S
N385 N384 1.365 . S
N385 H405 0.862 . S
C386 C381 1.501 . S
C386 H387 0.961 . S
C386 H388 0.961 . S
C386 H389 0.960 . S
H387 C386 0.961 . S
H388 C386 0.961 . S
H389 C386 0.960 . S
C390 N391 1.342 . S
C390 C394 1.401 . S
C390 C395 1.499 . S
N391 Co374 1.989 . S
N391 C390 1.342 . S
N391 N392 1.388 . S
N392 Co375 1.993 . S
N392 N391 1.388 . S
N392 C393 1.346 . S
C393 N392 1.346 . S
C393 C394 1.396 . S
C393 C403 1.510 . S
C394 C390 1.401 . S
C394 C393 1.396 . S
C395 C390 1.499 . S
C395 H396 0.959 . S
C395 H397 0.960 . S
C395 H398 0.961 . S
H396 C395 0.959 . S
H397 C395 0.960 . S
H398 C395 0.961 . S
O399 Co374 1.967 . S
O399 C407 1.258 . S
O400 Co375 1.941 . S
O400 C407 1.266 . S
H401 C403 0.959 . S
H402 C403 0.961 . S
C403 C393 1.510 . S
C403 H401 0.959 . S
C403 H402 0.961 . S
C403 H404 0.960 . S
H404 C403 0.960 . S
H405 N385 0.862 . S
O406 Co374 1.920 . S
O406 C379 1.289 1_545 S
C407 O399 1.258 . S
C407 O400 1.266 . S
H408 C414 0.930 . S
H409 C417 0.930 . S
H410 C418 0.930 . S
H411 C419 0.930 . S
H412 C422 0.930 . S
H413 C423 0.930 . S
C414 H408 0.930 . S
C414 C415 1.355 . S
C414 C416 1.415 . S
C415 C414 1.355 . S
C415 C417 1.419 . S
C416 C414 1.415 . S
C416 C421 1.425 . S
C416 C423 1.409 . S
C417 H409 0.930 . S
C417 C415 1.419 . S
C417 C418 1.362 . S
C418 H410 0.930 . S
C418 C417 1.362 . S
C418 C421 1.409 . S
C419 H411 0.930 . S
C419 C420 1.355 . S
C419 C421 1.415 . S
C420 C419 1.355 . S
C420 C422 1.419 . S
C421 C416 1.425 . S
C421 C418 1.409 . S
C421 C419 1.415 . S
C422 H412 0.930 . S
C422 C420 1.419 . S
C422 C423 1.362 . S
C423 H413 0.930 . S
C423 C416 1.409 . S
C423 C422 1.362 . S
H424 C430 0.930 . S
H425 C433 0.930 . S
H426 C434 0.930 . S
H427 C435 0.930 . S
H428 C438 0.930 1_655 S
H429 C439 0.930 . S
C430 H424 0.930 . S
C430 C431 1.355 . S
C430 C432 1.415 . S
C431 C430 1.355 . S
C431 C433 1.419 . S
C432 C430 1.415 . S
C432 C437 1.425 . S
C432 C439 1.409 . S
C433 H425 0.930 . S
C433 C431 1.419 . S
C433 C434 1.362 . S
C434 H426 0.930 . S
C434 C433 1.362 . S
C434 C437 1.409 . S
C435 H427 0.930 . S
C435 C436 1.355 . S
C435 C437 1.415 . S
C436 C435 1.355 . S
C436 C438 1.419 . S
C437 C432 1.425 . S
C437 C434 1.409 . S
C437 C435 1.415 . S
C438 H428 0.930 1_455 S
C438 C436 1.419 . S
C438 C439 1.362 . S
C439 H429 0.930 . S
C439 C432 1.409 . S
C439 C438 1.362 . S
H440 C446 0.930 . S
H441 C449 0.930 1_455 S
H442 C450 0.930 . S
H443 C451 0.930 . S
H444 C454 0.930 . S
H445 C455 0.930 . S
C446 H440 0.930 . S
C446 C447 1.355 . S
C446 C448 1.415 . S
C447 C446 1.355 . S
C447 C449 1.419 . S
C448 C446 1.415 . S
C448 C453 1.425 . S
C448 C455 1.409 . S
C449 H441 0.930 1_655 S
C449 C447 1.419 . S
C449 C450 1.362 . S
C450 H442 0.930 . S
C450 C449 1.362 . S
C450 C453 1.409 . S
C451 H443 0.930 . S
C451 C452 1.355 . S
C451 C453 1.415 . S
C452 C451 1.355 . S
C452 C454 1.419 . S
C453 C448 1.425 . S
C453 C450 1.409 . S
C453 C451 1.415 . S
C454 H444 0.930 . S
C454 C452 1.419 . S
C454 C455 1.362 . S
C455 H445 0.930 . S
C455 C448 1.409 . S
C455 C454 1.362 . S
H456 C462 0.930 . S
H457 C465 0.930 . S
H458 C466 0.930 . S
H459 C467 0.930 . S
H460 C470 0.933 . S
H461 C471 0.930 . S
C462 H456 0.930 . S
C462 C463 1.355 . S
C462 C464 1.415 . S
C463 C462 1.355 . S
C463 C465 1.419 . S
C464 C462 1.415 . S
C464 C469 1.425 . S
C464 C471 1.409 . S
C465 H457 0.930 . S
C465 C463 1.419 . S
C465 C466 1.362 . S
C466 H458 0.930 . S
C466 C465 1.362 . S
C466 C469 1.409 . S
C467 H459 0.930 . S
C467 C468 1.355 . S
C467 C469 1.415 . S
C468 C467 1.355 . S
C468 C470 1.419 . S
C469 C464 1.425 . S
C469 C466 1.409 . S
C469 C467 1.415 . S
C470 H460 0.933 . S
C470 C468 1.419 . S
C470 C471 1.362 . S
C471 H461 0.930 . S
C471 C464 1.409 . S
C471 C470 1.362 . S
H472 C478 0.930 . S
H473 C481 0.930 . S
H474 C482 0.930 . S
H475 C483 0.930 . S
H476 C486 0.930 . S
H477 C487 0.930 . S
C478 H472 0.930 . S
C478 C479 1.355 . S
C478 C480 1.415 . S
C479 C478 1.355 . S
C479 C481 1.419 . S
C480 C478 1.415 . S
C480 C485 1.425 . S
C480 C487 1.409 . S
C481 H473 0.930 . S
C481 C479 1.419 . S
C481 C482 1.362 . S
C482 H474 0.930 . S
C482 C481 1.362 . S
C482 C485 1.409 . S
C483 H475 0.930 . S
C483 C484 1.355 . S
C483 C485 1.415 . S
C484 C483 1.355 . S
C484 C486 1.419 . S
C485 C480 1.425 . S
C485 C482 1.409 . S
C485 C483 1.415 . S
C486 H476 0.930 . S
C486 C484 1.419 . S
C486 C487 1.362 . S
C487 H477 0.930 . S
C487 C480 1.409 . S
C487 C486 1.362 . S
H488 C494 0.930 1_545 S
H489 C497 0.930 . S
H490 C498 0.930 . S
H491 C499 0.930 . S
H492 C502 0.930 . S
H493 C503 0.930 . S
C494 H488 0.930 1_565 S
C494 C495 1.355 . S
C494 C496 1.415 . S
C495 C494 1.355 . S
C495 C497 1.419 . S
C496 C494 1.415 . S
C496 C501 1.425 . S
C496 C503 1.409 . S
C497 H489 0.930 . S
C497 C495 1.419 . S
C497 C498 1.362 . S
C498 H490 0.930 . S
C498 C497 1.362 . S
C498 C501 1.409 . S
C499 H491 0.930 . S
C499 C500 1.355 . S
C499 C501 1.415 . S
C500 C499 1.355 . S
C500 C502 1.419 . S
C501 C496 1.425 . S
C501 C498 1.409 . S
C501 C499 1.415 . S
C502 H492 0.930 . S
C502 C500 1.419 . S
C502 C503 1.362 . S
C503 H493 0.930 . S
C503 C496 1.409 . S
C503 C502 1.362 . S
H504 C510 0.932 . S
H505 C513 0.930 . S
H506 C514 0.930 . S
H507 C515 0.930 . S
H508 C518 0.930 . S
H509 C519 0.930 . S
C510 H504 0.932 . S
C510 C511 1.355 . S
C510 C512 1.415 . S
C511 C510 1.355 . S
C511 C513 1.419 . S
C512 C510 1.415 . S
C512 C517 1.425 . S
C512 C519 1.409 . S
C513 H505 0.930 . S
C513 C511 1.419 . S
C513 C514 1.362 . S
C514 H506 0.930 . S
C514 C513 1.362 . S
C514 C517 1.409 . S
C515 H507 0.930 . S
C515 C516 1.355 . S
C515 C517 1.415 . S
C516 C515 1.355 . S
C516 C518 1.419 . S
C517 C512 1.425 . S
C517 C514 1.409 . S
C517 C515 1.415 . S
C518 H508 0.930 . S
C518 C516 1.419 . S
C518 C519 1.362 . S
C519 H509 0.930 . S
C519 C512 1.409 . S
C519 C518 1.362 . S
H520 C526 0.930 . S
H521 C529 0.930 . S
H522 C530 0.930 . S
H523 C531 0.930 . S
H524 C534 0.930 . S
H525 C535 0.930 . S
C526 H520 0.930 . S
C526 C527 1.355 . S
C526 C528 1.415 . S
C527 C526 1.355 . S
C527 C529 1.419 . S
C528 C526 1.415 . S
C528 C533 1.425 . S
C528 C535 1.409 1_655 S
C529 H521 0.930 . S
C529 C527 1.419 . S
C529 C530 1.362 . S
C530 H522 0.930 . S
C530 C529 1.362 . S
C530 C533 1.409 . S
C531 H523 0.930 . S
C531 C532 1.355 1_655 S
C531 C533 1.415 . S
C532 C531 1.355 1_455 S
C532 C534 1.419 . S
C533 C528 1.425 . S
C533 C530 1.409 . S
C533 C531 1.415 . S
C534 H524 0.930 . S
C534 C532 1.419 . S
C534 C535 1.362 . S
C535 H525 0.930 . S
C535 C528 1.409 1_455 S
C535 C534 1.362 . S
H536 C542 0.930 . S
H537 C545 0.930 . S
H538 C546 0.930 . S
H539 C547 0.930 . S
H540 C550 0.930 . S
H541 C551 0.930 . S
C542 H536 0.930 . S
C542 C543 1.355 . S
C542 C544 1.415 . S
C543 C542 1.355 . S
C543 C545 1.419 1_545 S
C544 C542 1.415 . S
C544 C549 1.425 1_545 S
C544 C551 1.409 . S
C545 H537 0.930 . S
C545 C543 1.419 1_565 S
C545 C546 1.362 . S
C546 H538 0.930 . S
C546 C545 1.362 . S
C546 C549 1.409 . S
C547 H539 0.930 . S
C547 C548 1.355 . S
C547 C549 1.415 . S
C548 C547 1.355 . S
C548 C550 1.419 . S
C549 C544 1.425 1_565 S
C549 C546 1.409 . S
C549 C547 1.415 . S
C550 H540 0.930 . S
C550 C548 1.419 . S
C550 C551 1.362 1_565 S
C551 H541 0.930 . S
C551 C544 1.409 . S
C551 C550 1.362 1_545 S
H552 C558 0.930 . S
H553 C561 0.930 . S
H554 C562 0.930 . S
H555 C563 0.930 . S
H556 C566 0.930 . S
H557 C567 0.930 . S
C558 H552 0.930 . S
C558 C559 1.355 . S
C558 C560 1.415 . S
C559 C558 1.355 . S
C559 C561 1.419 . S
C560 C558 1.415 . S
C560 C565 1.425 . S
C560 C567 1.409 . S
C561 H553 0.930 . S
C561 C559 1.419 . S
C561 C562 1.362 . S
C562 H554 0.930 . S
C562 C561 1.362 . S
C562 C565 1.409 . S
C563 H555 0.930 . S
C563 C564 1.355 . S
C563 C565 1.415 . S
C564 C563 1.355 . S
C564 C566 1.419 . S
C565 C560 1.425 . S
C565 C562 1.409 . S
C565 C563 1.415 . S
C566 H556 0.930 . S
C566 C564 1.419 . S
C566 C567 1.362 . S
C567 H557 0.930 . S
C567 C560 1.409 . S
C567 C566 1.362 . S
H568 C574 0.930 . S
H569 C577 0.930 . S
H570 C578 0.930 . S
H571 C579 0.930 . S
H572 C582 0.930 . S
H573 C583 0.930 . S
C574 H568 0.930 . S
C574 C575 1.355 . S
C574 C576 1.415 1_655 S
C575 C574 1.355 . S
C575 C577 1.419 . S
C576 C574 1.415 1_455 S
C576 C581 1.425 . S
C576 C583 1.409 . S
C577 H569 0.930 . S
C577 C575 1.419 . S
C577 C578 1.362 1_655 S
C578 H570 0.930 . S
C578 C577 1.362 1_455 S
C578 C581 1.409 . S
C579 H571 0.930 . S
C579 C580 1.355 . S
C579 C581 1.415 . S
C580 C579 1.355 . S
C580 C582 1.419 . S
C581 C576 1.425 . S
C581 C578 1.409 . S
C581 C579 1.415 . S
C582 H572 0.930 . S
C582 C580 1.419 . S
C582 C583 1.362 . S
C583 H573 0.930 . S
C583 C576 1.409 . S
C583 C582 1.362 . S
H584 C590 0.930 . S
H585 C593 0.930 . S
H586 C594 0.930 . S
H587 C595 0.930 . S
H588 C598 0.930 . S
H589 C599 0.930 . S
C590 H584 0.930 . S
C590 C591 1.355 1_545 S
C590 C592 1.415 . S
C591 C590 1.355 1_565 S
C591 C593 1.419 . S
C592 C590 1.415 . S
C592 C597 1.425 . S
C592 C599 1.409 . S
C593 H585 0.930 . S
C593 C591 1.419 . S
C593 C594 1.362 . S
C594 H586 0.930 . S
C594 C593 1.362 . S
C594 C597 1.409 1_565 S
C595 H587 0.930 . S
C595 C596 1.355 . S
C595 C597 1.415 . S
C596 C595 1.355 . S
C596 C598 1.419 . S
C597 C592 1.425 . S
C597 C594 1.409 1_545 S
C597 C595 1.415 . S
C598 H588 0.930 . S
C598 C596 1.419 . S
C598 C599 1.362 . S
C599 H589 0.930 . S
C599 C592 1.409 . S
C599 C598 1.362 . S
H600 C606 0.930 . S
H601 C609 0.930 . S
H602 C610 0.930 . S
H603 C611 0.930 . S
H604 C614 0.930 . S
H605 C615 0.930 . S
C606 H600 0.930 . S
C606 C607 1.355 . S
C606 C608 1.415 . S
C607 C606 1.355 . S
C607 C609 1.419 . S
C608 C606 1.415 . S
C608 C613 1.425 . S
C608 C615 1.409 . S
C609 H601 0.930 . S
C609 C607 1.419 . S
C609 C610 1.362 . S
C610 H602 0.930 . S
C610 C609 1.362 . S
C610 C613 1.409 . S
C611 H603 0.930 . S
C611 C612 1.355 . S
C611 C613 1.415 . S
C612 C611 1.355 . S
C612 C614 1.419 . S
C613 C608 1.425 . S
C613 C610 1.409 . S
C613 C611 1.415 . S
C614 H604 0.930 . S
C614 C612 1.419 . S
C614 C615 1.362 . S
C615 H605 0.930 . S
C615 C608 1.409 . S
C615 C614 1.362 . S
H616 C622 0.930 . S
H617 C625 0.930 . S
H618 C626 0.930 . S
H619 C627 0.930 . S
H620 C630 0.930 . S
H621 C631 0.930 . S
C622 H616 0.930 . S
C622 C623 1.355 . S
C622 C624 1.415 . S
C623 C622 1.355 . S
C623 C625 1.419 . S
C624 C622 1.415 . S
C624 C629 1.425 1_655 S
C624 C631 1.409 . S
C625 H617 0.930 . S
C625 C623 1.419 . S
C625 C626 1.362 1_655 S
C626 H618 0.930 . S
C626 C625 1.362 1_455 S
C626 C629 1.409 . S
C627 H619 0.930 . S
C627 C628 1.355 . S
C627 C629 1.415 . S
C628 C627 1.355 . S
C628 C630 1.419 1_455 S
C629 C624 1.425 1_455 S
C629 C626 1.409 . S
C629 C627 1.415 . S
C630 H620 0.930 . S
C630 C628 1.419 1_655 S
C630 C631 1.362 . S
C631 H621 0.930 . S
C631 C624 1.409 . S
C631 C630 1.362 . S
H632 C638 0.930 . S
H633 C641 0.930 . S
H634 C642 0.930 1_545 S
H635 C643 0.930 . S
H636 C646 0.930 . S
H637 C647 0.930 . S
C638 H632 0.930 . S
C638 C639 1.355 . S
C638 C640 1.415 . S
C639 C638 1.355 . S
C639 C641 1.419 . S
C640 C638 1.415 . S
C640 C645 1.425 . S
C640 C647 1.409 . S
C641 H633 0.930 . S
C641 C639 1.419 . S
C641 C642 1.362 . S
C642 H634 0.930 1_565 S
C642 C641 1.362 . S
C642 C645 1.409 . S
C643 H635 0.930 . S
C643 C644 1.355 . S
C643 C645 1.415 1_545 S
C644 C643 1.355 . S
C644 C646 1.419 . S
C645 C640 1.425 . S
C645 C642 1.409 . S
C645 C643 1.415 1_565 S
C646 H636 0.930 . S
C646 C644 1.419 . S
C646 C647 1.362 1_545 S
C647 H637 0.930 . S
C647 C640 1.409 . S
C647 C646 1.362 1_565 S
H648 C654 0.930 . S
H649 C657 0.930 . S
H650 C658 0.930 . S
H651 C659 0.930 . S
H652 C662 0.930 . S
H653 C663 0.930 . S
C654 H648 0.930 . S
C654 C655 1.355 . S
C654 C656 1.415 . S
C655 C654 1.355 . S
C655 C657 1.419 . S
C656 C654 1.415 . S
C656 C661 1.425 . S
C656 C663 1.409 . S
C657 H649 0.930 . S
C657 C655 1.419 . S
C657 C658 1.362 . S
C658 H650 0.930 . S
C658 C657 1.362 . S
C658 C661 1.409 . S
C659 H651 0.930 . S
C659 C660 1.355 . S
C659 C661 1.415 . S
C660 C659 1.355 . S
C660 C662 1.419 . S
C661 C656 1.425 . S
C661 C658 1.409 . S
C661 C659 1.415 . S
C662 H652 0.930 . S
C662 C660 1.419 . S
C662 C663 1.362 . S
C663 H653 0.930 . S
C663 C656 1.409 . S
C663 C662 1.362 . S
H664 C670 0.930 . S
H665 C673 0.930 . S
H666 C674 0.930 . S
H667 C675 0.930 . S
H668 C678 0.930 . S
H669 C679 0.930 1_655 S
C670 H664 0.930 . S
C670 C671 1.355 . S
C670 C672 1.415 1_655 S
C671 C670 1.355 . S
C671 C673 1.419 . S
C672 C670 1.415 1_455 S
C672 C677 1.425 . S
C672 C679 1.409 . S
C673 H665 0.930 . S
C673 C671 1.419 . S
C673 C674 1.362 1_655 S
C674 H666 0.930 . S
C674 C673 1.362 1_455 S
C674 C677 1.409 . S
C675 H667 0.930 . S
C675 C676 1.355 . S
C675 C677 1.415 . S
C676 C675 1.355 . S
C676 C678 1.419 . S
C677 C672 1.425 . S
C677 C674 1.409 . S
C677 C675 1.415 . S
C678 H668 0.930 . S
C678 C676 1.419 . S
C678 C679 1.362 . S
C679 H669 0.930 1_455 S
C679 C672 1.409 . S
C679 C678 1.362 . S
H680 C686 0.930 . S
H681 C689 0.930 . S
H682 C690 0.930 . S
H683 C691 0.930 . S
H684 C694 0.930 . S
H685 C695 0.930 . S
C686 H680 0.930 . S
C686 C687 1.355 1_545 S
C686 C688 1.415 . S
C687 C686 1.355 1_565 S
C687 C689 1.419 . S
C688 C686 1.415 . S
C688 C693 1.425 . S
C688 C695 1.409 . S
C689 H681 0.930 . S
C689 C687 1.419 . S
C689 C690 1.362 . S
C690 H682 0.930 . S
C690 C689 1.362 . S
C690 C693 1.409 1_565 S
C691 H683 0.930 . S
C691 C692 1.355 . S
C691 C693 1.415 . S
C692 C691 1.355 . S
C692 C694 1.419 . S
C693 C688 1.425 . S
C693 C690 1.409 1_545 S
C693 C691 1.415 . S
C694 H684 0.930 . S
C694 C692 1.419 . S
C694 C695 1.362 . S
C695 H685 0.930 . S
C695 C688 1.409 . S
C695 C694 1.362 . S
H696 C702 0.930 . S
H697 C705 0.930 . S
H698 C706 0.930 . S
H699 C707 0.930 . S
H700 C710 0.930 . S
H701 C711 0.930 . S
C702 H696 0.930 . S
C702 C703 1.355 . S
C702 C704 1.415 . S
C703 C702 1.355 . S
C703 C705 1.419 . S
C704 C702 1.415 . S
C704 C709 1.425 . S
C704 C711 1.409 . S
C705 H697 0.930 . S
C705 C703 1.419 . S
C705 C706 1.362 . S
C706 H698 0.930 . S
C706 C705 1.362 . S
C706 C709 1.409 . S
C707 H699 0.930 . S
C707 C708 1.355 . S
C707 C709 1.415 . S
C708 C707 1.355 . S
C708 C710 1.419 . S
C709 C704 1.425 . S
C709 C706 1.409 . S
C709 C707 1.415 . S
C710 H700 0.930 . S
C710 C708 1.419 . S
C710 C711 1.362 . S
C711 H701 0.930 . S
C711 C704 1.409 . S
C711 C710 1.362 . S
H712 C718 0.930 . S
H713 C721 0.930 . S
H714 C722 0.930 . S
H715 C723 0.930 . S
H716 C726 0.930 . S
H717 C727 0.930 1_455 S
C718 H712 0.930 . S
C718 C719 1.355 . S
C718 C720 1.425 . S
C719 C718 1.355 . S
C719 C721 1.419 . S
C720 C718 1.425 . S
C720 C725 1.420 1_455 S
C720 C727 1.405 1_455 S
C721 H713 0.930 . S
C721 C719 1.419 . S
C721 C722 1.362 1_455 S
C722 H714 0.930 . S
C722 C721 1.362 1_655 S
C722 C725 1.409 . S
C723 H715 0.930 . S
C723 C724 1.355 . S
C723 C725 1.415 . S
C724 C723 1.355 . S
C724 C726 1.419 . S
C725 C720 1.420 1_655 S
C725 C722 1.409 . S
C725 C723 1.415 . S
C726 H716 0.930 . S
C726 C724 1.419 . S
C726 C727 1.362 . S
C727 H717 0.930 1_655 S
C727 C720 1.405 1_655 S
C727 C726 1.362 . S
H728 C734 0.930 . S
H729 C737 0.930 . S
H730 C738 0.930 . S
H731 C739 0.930 . S
H732 C742 0.930 . S
H733 C743 0.930 . S
C734 H728 0.930 . S
C734 C735 1.355 . S
C734 C736 1.415 . S
C735 C734 1.355 . S
C735 C737 1.419 . S
C736 C734 1.415 . S
C736 C741 1.425 . S
C736 C743 1.409 1_565 S
C737 H729 0.930 . S
C737 C735 1.419 . S
C737 C738 1.362 . S
C738 H730 0.930 . S
C738 C737 1.362 . S
C738 C741 1.409 . S
C739 H731 0.930 . S
C739 C740 1.355 1_565 S
C739 C741 1.415 . S
C740 C739 1.355 1_545 S
C740 C742 1.419 . S
C741 C736 1.425 . S
C741 C738 1.409 . S
C741 C739 1.415 . S
C742 H732 0.930 . S
C742 C740 1.419 . S
C742 C743 1.362 . S
C743 H733 0.930 . S
C743 C736 1.409 1_545 S
C743 C742 1.362 . S
H744 C750 0.930 . S
H745 C753 0.930 . S
H746 C754 0.930 . S
H747 C755 0.930 . S
H748 C758 0.930 . S
H749 C759 0.930 . S
C750 H744 0.930 . S
C750 C751 1.355 . S
C750 C752 1.415 . S
C751 C750 1.355 . S
C751 C753 1.419 . S
C752 C750 1.415 . S
C752 C757 1.425 . S
C752 C759 1.409 . S
C753 H745 0.930 . S
C753 C751 1.419 . S
C753 C754 1.362 . S
C754 H746 0.930 . S
C754 C753 1.362 . S
C754 C757 1.409 . S
C755 H747 0.930 . S
C755 C756 1.355 . S
C755 C757 1.415 . S
C756 C755 1.355 . S
C756 C758 1.419 . S
C757 C752 1.425 . S
C757 C754 1.409 . S
C757 C755 1.415 . S
C758 H748 0.930 . S
C758 C756 1.419 . S
C758 C759 1.362 . S
C759 H749 0.930 . S
C759 C752 1.409 . S
C759 C758 1.362 . S
H760 C766 0.930 . S
H761 C769 0.930 . S
H762 C770 0.930 . S
H763 C771 0.930 . S
H764 C774 0.930 . S
H765 C775 0.930 . S
C766 H760 0.930 . S
C766 C767 1.355 . S
C766 C768 1.415 . S
C767 C766 1.355 . S
C767 C769 1.419 1_655 S
C768 C766 1.415 . S
C768 C773 1.425 1_655 S
C768 C775 1.409 . S
C769 H761 0.930 . S
C769 C767 1.419 1_455 S
C769 C770 1.362 . S
C770 H762 0.930 . S
C770 C769 1.362 . S
C770 C773 1.409 . S
C771 H763 0.930 . S
C771 C772 1.355 . S
C771 C773 1.415 . S
C772 C771 1.355 . S
C772 C774 1.419 . S
C773 C768 1.425 1_455 S
C773 C770 1.409 . S
C773 C771 1.415 . S
C774 H764 0.930 . S
C774 C772 1.419 . S
C774 C775 1.362 1_455 S
C775 H765 0.930 . S
C775 C768 1.409 . S
C775 C774 1.362 1_655 S
H776 C782 0.930 . S
H777 C785 0.930 . S
H778 C786 0.930 . S
H779 C787 0.930 . S
H780 C790 0.930 . S
H781 C791 0.930 . S
C782 H776 0.930 . S
C782 C783 1.355 1_545 S
C782 C784 1.415 . S
C783 C782 1.355 1_565 S
C783 C785 1.419 . S
C784 C782 1.415 . S
C784 C789 1.425 . S
C784 C791 1.409 . S
C785 H777 0.930 . S
C785 C783 1.419 . S
C785 C786 1.362 . S
C786 H778 0.930 . S
C786 C785 1.362 . S
C786 C789 1.409 1_565 S
C787 H779 0.930 . S
C787 C788 1.355 . S
C787 C789 1.415 . S
C788 C787 1.355 . S
C788 C790 1.419 . S
C789 C784 1.425 . S
C789 C786 1.409 1_545 S
C789 C787 1.415 . S
C790 H780 0.930 . S
C790 C788 1.419 . S
C790 C791 1.362 . S
C791 H781 0.930 . S
C791 C784 1.409 . S
C791 C790 1.362 . S
H792 C798 0.930 . S
H793 C801 0.930 . S
H794 C802 0.930 . S
H795 C803 0.930 . S
H796 C806 0.930 . S
H797 C807 0.930 . S
C798 H792 0.930 . S
C798 C799 1.355 . S
C798 C800 1.415 . S
C799 C798 1.355 . S
C799 C801 1.419 . S
C800 C798 1.415 . S
C800 C805 1.425 . S
C800 C807 1.409 . S
C801 H793 0.930 . S
C801 C799 1.419 . S
C801 C802 1.362 . S
C802 H794 0.930 . S
C802 C801 1.362 . S
C802 C805 1.409 . S
C803 H795 0.930 . S
C803 C804 1.355 . S
C803 C805 1.415 . S
C804 C803 1.355 . S
C804 C806 1.419 . S
C805 C800 1.425 . S
C805 C802 1.409 . S
C805 C803 1.415 . S
C806 H796 0.930 . S
C806 C804 1.419 . S
C806 C807 1.362 . S
C807 H797 0.930 . S
C807 C800 1.409 . S
C807 C806 1.362 . S
H808 C814 0.930 . S
H809 C817 0.930 . S
H810 C818 0.930 . S
H811 C819 0.930 1_655 S
H812 C822 0.930 . S
H813 C823 0.930 . S
C814 H808 0.930 . S
C814 C815 1.355 . S
C814 C816 1.415 . S
C815 C814 1.355 . S
C815 C817 1.419 . S
C816 C814 1.415 . S
C816 C821 1.425 . S
C816 C823 1.409 1_655 S
C817 H809 0.930 . S
C817 C815 1.419 . S
C817 C818 1.362 . S
C818 H810 0.930 . S
C818 C817 1.362 . S
C818 C821 1.409 . S
C819 H811 0.930 1_455 S
C819 C820 1.355 . S
C819 C821 1.415 1_455 S
C820 C819 1.355 . S
C820 C822 1.419 . S
C821 C816 1.425 . S
C821 C818 1.409 . S
C821 C819 1.415 1_655 S
C822 H812 0.930 . S
C822 C820 1.419 . S
C822 C823 1.362 . S
C823 H813 0.930 . S
C823 C816 1.409 1_455 S
C823 C822 1.362 . S
H824 C830 0.930 . S
H825 C833 0.930 . S
H826 C834 0.930 1_545 S
H827 C835 0.930 . S
H828 C838 0.930 . S
H829 C839 0.930 . S
C830 H824 0.930 . S
C830 C831 1.355 . S
C830 C832 1.415 . S
C831 C830 1.355 . S
C831 C833 1.419 . S
C832 C830 1.415 . S
C832 C837 1.425 . S
C832 C839 1.409 . S
C833 H825 0.930 . S
C833 C831 1.419 . S
C833 C834 1.362 . S
C834 H826 0.930 1_565 S
C834 C833 1.362 . S
C834 C837 1.409 . S
C835 H827 0.930 . S
C835 C836 1.355 . S
C835 C837 1.415 1_545 S
C836 C835 1.355 . S
C836 C838 1.419 . S
C837 C832 1.425 . S
C837 C834 1.409 . S
C837 C835 1.415 1_565 S
C838 H828 0.930 . S
C838 C836 1.419 . S
C838 C839 1.362 1_545 S
C839 H829 0.930 . S
C839 C832 1.409 . S
C839 C838 1.362 1_565 S
H840 C846 0.930 . S
H841 C849 0.930 . S
H842 C850 0.930 . S
H843 C851 0.930 . S
H844 C854 0.930 . S
H845 C855 0.930 . S
C846 H840 0.930 . S
C846 C847 1.355 . S
C846 C848 1.415 . S
C847 C846 1.355 . S
C847 C849 1.419 . S
C848 C846 1.415 . S
C848 C853 1.425 . S
C848 C855 1.409 . S
C849 H841 0.930 . S
C849 C847 1.419 . S
C849 C850 1.362 . S
C850 H842 0.930 . S
C850 C849 1.362 . S
C850 C853 1.409 . S
C851 H843 0.930 . S
C851 C852 1.355 . S
C851 C853 1.415 . S
C852 C851 1.355 . S
C852 C854 1.419 . S
C853 C848 1.425 . S
C853 C850 1.409 . S
C853 C851 1.415 . S
C854 H844 0.930 . S
C854 C852 1.419 . S
C854 C855 1.362 . S
C855 H845 0.930 . S
C855 C848 1.409 . S
C855 C854 1.362 . S
H856 C862 0.930 . S
H857 C865 0.930 . S
H858 C866 0.930 . S
H859 C867 0.930 . S
H860 C870 0.930 . S
H861 C871 0.930 1_655 S
C862 H856 0.930 . S
C862 C863 1.355 . S
C862 C864 1.408 1_655 S
C863 C862 1.355 . S
C863 C865 1.419 . S
C864 C862 1.408 1_455 S
C864 C869 1.433 . S
C864 C871 1.408 . S
C865 H857 0.930 . S
C865 C863 1.419 . S
C865 C866 1.362 1_655 S
C866 H858 0.930 . S
C866 C865 1.362 1_455 S
C866 C869 1.409 . S
C867 H859 0.930 . S
C867 C868 1.355 . S
C867 C869 1.415 . S
C868 C867 1.355 . S
C868 C870 1.419 . S
C869 C864 1.433 . S
C869 C866 1.409 . S
C869 C867 1.415 . S
C870 H860 0.930 . S
C870 C868 1.419 . S
C870 C871 1.362 . S
C871 H861 0.930 1_455 S
C871 C864 1.408 . S
C871 C870 1.362 . S
H872 C878 0.930 . S
H873 C881 0.930 . S
H874 C882 0.930 . S
H875 C883 0.930 1_545 S
H876 C886 0.930 . S
H877 C887 0.930 . S
C878 H872 0.930 . S
C878 C879 1.355 . S
C878 C880 1.415 . S
C879 C878 1.355 . S
C879 C881 1.419 . S
C880 C878 1.415 . S
C880 C885 1.425 . S
C880 C887 1.409 1_545 S
C881 H873 0.930 . S
C881 C879 1.419 . S
C881 C882 1.362 . S
C882 H874 0.930 . S
C882 C881 1.362 . S
C882 C885 1.409 . S
C883 H875 0.930 1_565 S
C883 C884 1.355 . S
C883 C885 1.415 1_565 S
C884 C883 1.355 . S
C884 C886 1.419 . S
C885 C880 1.425 . S
C885 C882 1.409 . S
C885 C883 1.415 1_545 S
C886 H876 0.930 . S
C886 C884 1.419 . S
C886 C887 1.362 . S
C887 H877 0.930 . S
C887 C880 1.409 1_565 S
C887 C886 1.362 . S
C415 C5 0.872 . S
C420 C277 0.940 . S
C431 C311 0.875 . S
C436 C39 0.915 . S
C447 C345 0.907 . S
C452 C73 0.979 . S
C463 C107 0.963 . S
C468 C379 0.881 . S
C479 C141 0.973 . S
C484 C209 0.949 . S
C495 C175 0.980 . S
C500 C243 0.916 . S
C511 C247 1.552 . S
C516 C33 1.541 . S
C527 C67 1.582 . S
C532 C281 1.496 . S
C543 C315 1.516 . S
C548 C101 1.565 . S
C559 C349 1.549 . S
C564 C135 1.549 . S
C575 C383 1.564 . S
C580 C169 1.536 . S
C591 C213 1.540 . S
C596 C203 1.556 . S
C607 C179 1.506 . S
C612 C237 1.579 . S
C623 C271 1.535 . S
C628 C9 1.564 . S
C639 C305 1.539 . S
C644 C43 1.561 . S
C655 C77 1.513 . S
C660 C339 1.575 . S
C671 C111 1.505 . S
C676 C373 1.573 . S
C687 C145 1.540 . S
C692 C407 1.556 . S
C703 C190 1.370 . S
C708 C2 1.363 . S
C719 C20 1.300 . S
C724 C36 1.276 . S
C735 C70 1.333 . S
C740 C54 1.332 . S
C751 C88 1.307 . S
C756 C104 1.275 . S
C767 C122 1.324 . S
C772 C138 1.286 . S
C783 C156 1.369 . S
C788 C172 1.363 . S
C799 C206 1.358 . S
C804 C258 1.359 . S
C815 C240 1.352 . S
C820 C292 1.351 . S
C831 C274 1.351 . S
C836 C326 1.373 . S
C847 C360 1.308 . S
C852 C308 1.302 . S
C863 C394 1.300 . S
C868 C342 1.277 . S
C879 C376 1.294 . S
C884 C224 1.304 . S
