# Generated by pormake.
# Topology vbm, (6)-cn, num edge types: 1
# Building blocks:
#     Node 0, Type 0, BuildingBlock: KUMBOL_clean_sbu_0, # of connection points: 6
#     Node 1, Type 0, BuildingBlock: KUMBOL_clean_sbu_0, # of connection points: 6
#     Node 2, Type 0, BuildingBlock: KUMBOL_clean_sbu_0, # of connection points: 6
#     Node 3, Type 0, BuildingBlock: KUMBOL_clean_sbu_0, # of connection points: 6
#     Node 4, Type 0, BuildingBlock: KUMBOL_clean_sbu_0, # of connection points: 6
#     Node 5, Type 0, BuildingBlock: KUMBOL_clean_sbu_0, # of connection points: 6
#     Node 6, Type 0, BuildingBlock: KUMBOL_clean_sbu_0, # of connection points: 6
#     Node 7, Type 0, BuildingBlock: KUMBOL_clean_sbu_0, # of connection points: 6
#     Node 8, Type 0, BuildingBlock: KUMBOL_clean_sbu_0, # of connection points: 6
#     Node 9, Type 0, BuildingBlock: KUMBOL_clean_sbu_0, # of connection points: 6
#     Node 10, Type 0, BuildingBlock: KUMBOL_clean_sbu_0, # of connection points: 6
#     Node 11, Type 0, BuildingBlock: KUMBOL_clean_sbu_0, # of connection points: 6
#     Node 12, Type 0, BuildingBlock: KUMBOL_clean_sbu_0, # of connection points: 6
#     Node 13, Type 0, BuildingBlock: KUMBOL_clean_sbu_0, # of connection points: 6
#     Node 14, Type 0, BuildingBlock: KUMBOL_clean_sbu_0, # of connection points: 6
#     Node 15, Type 0, BuildingBlock: KUMBOL_clean_sbu_0, # of connection points: 6
#     Edge 16, Type (0, 0), BuildingBlock: KIFKEQ_clean_linker_1, # of connection points: 2
#     Edge 17, Type (0, 0), BuildingBlock: KIFKEQ_clean_linker_1, # of connection points: 2
#     Edge 18, Type (0, 0), BuildingBlock: KIFKEQ_clean_linker_1, # of connection points: 2
#     Edge 19, Type (0, 0), BuildingBlock: KIFKEQ_clean_linker_1, # of connection points: 2
#     Edge 20, Type (0, 0), BuildingBlock: KIFKEQ_clean_linker_1, # of connection points: 2
#     Edge 21, Type (0, 0), BuildingBlock: KIFKEQ_clean_linker_1, # of connection points: 2
#     Edge 22, Type (0, 0), BuildingBlock: KIFKEQ_clean_linker_1, # of connection points: 2
#     Edge 23, Type (0, 0), BuildingBlock: KIFKEQ_clean_linker_1, # of connection points: 2
#     Edge 24, Type (0, 0), BuildingBlock: KIFKEQ_clean_linker_1, # of connection points: 2
#     Edge 25, Type (0, 0), BuildingBlock: KIFKEQ_clean_linker_1, # of connection points: 2
#     Edge 26, Type (0, 0), BuildingBlock: KIFKEQ_clean_linker_1, # of connection points: 2
#     Edge 27, Type (0, 0), BuildingBlock: KIFKEQ_clean_linker_1, # of connection points: 2
#     Edge 28, Type (0, 0), BuildingBlock: KIFKEQ_clean_linker_1, # of connection points: 2
#     Edge 29, Type (0, 0), BuildingBlock: KIFKEQ_clean_linker_1, # of connection points: 2
#     Edge 30, Type (0, 0), BuildingBlock: KIFKEQ_clean_linker_1, # of connection points: 2
#     Edge 31, Type (0, 0), BuildingBlock: KIFKEQ_clean_linker_1, # of connection points: 2
#     Edge 32, Type (0, 0), BuildingBlock: KIFKEQ_clean_linker_1, # of connection points: 2
#     Edge 33, Type (0, 0), BuildingBlock: KIFKEQ_clean_linker_1, # of connection points: 2
#     Edge 34, Type (0, 0), BuildingBlock: KIFKEQ_clean_linker_1, # of connection points: 2
#     Edge 35, Type (0, 0), BuildingBlock: KIFKEQ_clean_linker_1, # of connection points: 2
#     Edge 36, Type (0, 0), BuildingBlock: KIFKEQ_clean_linker_1, # of connection points: 2
#     Edge 37, Type (0, 0), BuildingBlock: KIFKEQ_clean_linker_1, # of connection points: 2
#     Edge 38, Type (0, 0), BuildingBlock: KIFKEQ_clean_linker_1, # of connection points: 2
#     Edge 39, Type (0, 0), BuildingBlock: KIFKEQ_clean_linker_1, # of connection points: 2
#     Edge 40, Type (0, 0), BuildingBlock: KIFKEQ_clean_linker_1, # of connection points: 2
#     Edge 41, Type (0, 0), BuildingBlock: KIFKEQ_clean_linker_1, # of connection points: 2
#     Edge 42, Type (0, 0), BuildingBlock: KIFKEQ_clean_linker_1, # of connection points: 2
#     Edge 43, Type (0, 0), BuildingBlock: KIFKEQ_clean_linker_1, # of connection points: 2
#     Edge 44, Type (0, 0), BuildingBlock: KIFKEQ_clean_linker_1, # of connection points: 2
#     Edge 45, Type (0, 0), BuildingBlock: KIFKEQ_clean_linker_1, # of connection points: 2
#     Edge 46, Type (0, 0), BuildingBlock: KIFKEQ_clean_linker_1, # of connection points: 2
#     Edge 47, Type (0, 0), BuildingBlock: KIFKEQ_clean_linker_1, # of connection points: 2
#     Edge 48, Type (0, 0), BuildingBlock: KIFKEQ_clean_linker_1, # of connection points: 2
#     Edge 49, Type (0, 0), BuildingBlock: KIFKEQ_clean_linker_1, # of connection points: 2
#     Edge 50, Type (0, 0), BuildingBlock: KIFKEQ_clean_linker_1, # of connection points: 2
#     Edge 51, Type (0, 0), BuildingBlock: KIFKEQ_clean_linker_1, # of connection points: 2
#     Edge 52, Type (0, 0), BuildingBlock: KIFKEQ_clean_linker_1, # of connection points: 2
#     Edge 53, Type (0, 0), BuildingBlock: KIFKEQ_clean_linker_1, # of connection points: 2
#     Edge 54, Type (0, 0), BuildingBlock: KIFKEQ_clean_linker_1, # of connection points: 2
#     Edge 55, Type (0, 0), BuildingBlock: KIFKEQ_clean_linker_1, # of connection points: 2
#     Edge 56, Type (0, 0), BuildingBlock: KIFKEQ_clean_linker_1, # of connection points: 2
#     Edge 57, Type (0, 0), BuildingBlock: KIFKEQ_clean_linker_1, # of connection points: 2
#     Edge 58, Type (0, 0), BuildingBlock: KIFKEQ_clean_linker_1, # of connection points: 2
#     Edge 59, Type (0, 0), BuildingBlock: KIFKEQ_clean_linker_1, # of connection points: 2
#     Edge 60, Type (0, 0), BuildingBlock: KIFKEQ_clean_linker_1, # of connection points: 2
#     Edge 61, Type (0, 0), BuildingBlock: KIFKEQ_clean_linker_1, # of connection points: 2
#     Edge 62, Type (0, 0), BuildingBlock: KIFKEQ_clean_linker_1, # of connection points: 2
#     Edge 63, Type (0, 0), BuildingBlock: KIFKEQ_clean_linker_1, # of connection points: 2
# Relax obj value: 0.083
# Max RMSD: 0.146
# Mean RMSD: 0.146
data_MOF--net-vbm--node1-KUMBOL_clean_sbu_0--edge1-KIFKEQ_clean_linker_1
_symmetry_space_group_name_H-M    P1
_symmetry_Int_Tables_number       1
_symmetry_cell_setting            triclinic
loop_
_symmetry_equiv_pos_as_xyz
'x, y, z'
_cell_length_a     52.643575
_cell_length_b     24.691275
_cell_length_c     59.59959
_cell_angle_alpha  90.011603
_cell_angle_beta   89.998042
_cell_angle_gamma 89.916292
loop_
_atom_site_label
_atom_site_type_symbol
_atom_site_fract_x
_atom_site_fract_y
_atom_site_fract_z
_atom_type_partial_charge
Gd0 Gd 0.12576 0.19772 0.1352 0.0
Gd1 Gd 0.16263 0.07514 0.12377 0.0
C2 C 0.24843 0.08432 0.11352 0.0
C3 C 0.25285 0.05675 0.07456 0.0
C4 C 0.2111 0.06055 0.09193 0.0
C5 C 0.22186 0.07828 0.11178 0.0
C6 C 0.22652 0.04818 0.07328 0.0
C7 C 0.26378 0.07487 0.09464 0.0
C8 C 0.25883 0.0978 0.13439 0.0
C9 C 0.24293 0.10267 0.15303 0.0
N10 N 0.20652 0.08597 0.12981 0.0
C11 C 0.21671 0.09567 0.1505 0.0
H12 H 0.20466 0.09962 0.16504 0.0
C13 C 0.17461 0.02757 0.07326 0.0
N14 N 0.18566 0.05215 0.09135 0.0
C15 C 0.1891 1.01474 0.05431 0.0
C16 C 0.21511 0.02583 0.05418 0.0
H17 H 0.15448 1.01919 0.07325 0.0
H18 H 0.2842 0.07985 0.0956 0.0
H19 H 0.08516 0.17697 0.09195 0.0
H20 H 0.27914 0.10302 0.13642 0.0
H21 H 0.25083 0.11192 0.16935 0.0
H22 H 0.265 0.04803 0.06033 0.0
H23 H 0.13178 0.25005 0.18646 0.0
H24 H 1.00933 0.18206 0.1171 0.0
H25 H 0.03931 0.17027 0.08555 0.0
H26 H 0.02019 0.23198 0.19416 0.0
H27 H 0.18018 0.99648 0.0398 0.0
H28 H 0.2263 1.01574 0.0395 0.0
H29 H 1.0024 0.20423 0.15775 0.0
H30 H 0.10475 0.27291 0.21903 0.0
N31 N 0.08188 0.191 0.12716 0.0
C32 C 0.02959 0.1851 0.12008 0.0
C33 C 0.04644 0.17854 0.10224 0.0
C34 C 0.03905 0.19696 0.14144 0.0
C35 C 0.06561 0.20014 0.14443 0.0
C36 C 0.0726 0.18244 0.10601 0.0
N37 N 0.10105 0.22122 0.16664 0.0
C38 C 0.07554 0.21563 0.16485 0.0
C39 C 0.09628 0.25652 0.20394 0.0
C40 C 0.07009 0.24819 0.2028 0.0
C41 C 0.11151 0.2436 0.18547 0.0
C42 C 0.05933 0.22845 0.18294 0.0
H43 H 0.05829 0.2585 0.21708 0.0
O44 O 0.13677 0.28122 0.1419 0.0
O45 O 0.16484 0.16508 0.12845 0.0
O46 O 0.15868 0.08903 0.16125 0.0
O47 O 0.12372 0.14602 0.16668 0.0
O48 O 0.16122 0.21963 0.15436 0.0
O49 O 0.11809 0.26072 0.11072 0.0
O50 O 0.15019 0.99198 0.11897 0.0
O51 O 0.12383 0.10832 0.1308 0.0
O52 O 0.12948 0.18096 0.09747 0.0
O53 O 0.16524 0.1265 0.09282 0.0
O54 O 0.12644 0.05147 0.10567 0.0
O55 O 0.17572 1.01153 0.14622 0.0
C56 C 0.17738 0.19201 0.14285 0.0
C57 C 0.03295 0.22285 0.1804 0.0
C58 C 0.02282 0.20709 0.15967 0.0
C59 C 0.12664 0.29955 0.12349 0.0
C60 C 0.11059 0.34831 0.12562 0.0
C61 C 0.08405 0.34398 0.1269 0.0
C62 C 0.1219 0.39996 0.12599 0.0
C63 C 0.10677 0.44707 0.12712 0.0
C64 C 0.069 0.39044 0.12827 0.0
C65 C 0.08022 0.44166 0.12824 0.0
C66 C 0.14049 0.10989 0.17397 0.0
C67 C 0.11079 0.0809 0.11699 0.0
C68 C 0.16435 0.97305 0.13507 0.0
C69 C 0.17951 0.92453 0.12951 0.0
C70 C 0.2045 0.92956 0.12167 0.0
C71 C 0.16859 0.87266 0.13132 0.0
C72 C 0.18239 0.82586 0.12503 0.0
C73 C 0.21824 0.88378 0.11531 0.0
C74 C 0.2073 0.83244 0.1168 0.0
C75 C 0.14769 0.15954 0.08481 0.0
H76 H 0.07492 0.3048 0.12666 0.0
H77 H 0.14239 0.4035 0.12489 0.0
H78 H 0.04854 0.38674 0.12922 0.0
H79 H 0.06813 0.47711 0.12932 0.0
H80 H 0.21338 0.9688 0.12037 0.0
H81 H 0.14942 0.86901 0.13776 0.0
H82 H 0.23742 0.88814 0.10902 0.0
H83 H 0.21834 0.79802 0.11117 0.0
Gd84 Gd 0.90765 0.84963 0.13889 0.0
Gd85 Gd 0.87172 0.96709 0.12004 0.0
C86 C 0.78642 0.94987 0.10924 0.0
C87 C 0.78304 0.95432 0.06858 0.0
C88 C 0.82426 0.96225 0.08666 0.0
C89 C 0.81297 0.95599 0.1075 0.0
C90 C 0.80936 0.96277 0.06701 0.0
C91 C 0.77159 0.94788 0.08965 0.0
C92 C 0.77551 0.94707 0.13062 0.0
C93 C 0.79093 0.95193 0.14958 0.0
N94 N 0.82782 0.95838 0.12611 0.0
C95 C 0.81718 0.95827 0.147 0.0
H96 H 0.82893 0.9617 0.16177 0.0
C97 C 0.86112 0.98507 0.06598 0.0
N98 N 0.84967 0.97121 0.08576 0.0
C99 C 0.8472 0.98532 0.04599 0.0
C100 C 0.82126 0.97343 0.04646 0.0
H101 H 0.88122 0.99393 0.06558 0.0
H102 H 0.75119 0.94263 0.09065 0.0
H103 H 0.95064 0.85236 0.09488 0.0
H104 H 0.75519 0.94216 0.13268 0.0
H105 H 0.78264 0.95058 0.16618 0.0
H106 H 0.77129 0.95407 0.05366 0.0
H107 H 0.9012 0.81123 0.19293 0.0
H108 H 0.02458 0.86751 0.12264 0.0
H109 H 0.99612 0.86236 0.08983 0.0
H110 H 1.01159 0.84596 0.20135 0.0
H111 H 0.85648 0.99461 0.03025 0.0
H112 H 0.8105 0.97398 0.03097 0.0
H113 H 0.03008 0.8623 0.16414 0.0
H114 H 0.92782 0.80215 0.22667 0.0
N115 N 0.95175 0.85542 0.13083 0.0
C116 C 1.00428 0.86353 0.12514 0.0
C117 C 0.98828 0.86068 0.1066 0.0
C118 C 0.99401 0.85912 0.14667 0.0
C119 C 0.96737 0.85436 0.14908 0.0
C120 C 0.96208 0.85551 0.10971 0.0
N121 N 0.93153 0.83733 0.17195 0.0
C122 C 0.95696 0.84538 0.17018 0.0
C123 C 0.93626 0.81458 0.21094 0.0
C124 C 0.96212 0.82627 0.20976 0.0
C125 C 0.92127 0.81928 0.1917 0.0
C126 C 0.97289 0.84073 0.18916 0.0
H127 H 0.97373 0.82235 0.22469 0.0
O128 O 0.88867 0.78001 0.12363 0.0
O129 O 0.86885 0.88047 0.13081 0.0
O130 O 0.87551 0.97178 0.15792 0.0
O131 O 0.90407 0.90442 0.16929 0.0
O132 O 0.87245 0.83645 0.15998 0.0
O133 O 0.92264 0.76801 0.14284 0.0
O134 O 0.88228 0.04687 0.10796 0.0
O135 O 0.91035 0.93752 0.13042 0.0
O136 O 0.90824 0.85954 0.10075 0.0
O137 O 0.8696 0.90116 0.09416 0.0
O138 O 0.90883 0.98553 0.10222 0.0
O139 O 0.85764 0.03929 0.13693 0.0
C140 C 0.85624 0.85964 0.1468 0.0
C141 C 0.99915 0.84864 0.1869 0.0
C142 C 1.00968 0.85787 0.16571 0.0
C143 C 0.9039 0.74467 0.13254 0.0
C144 C 0.89204 0.69864 0.14439 0.0
C145 C 0.88179 0.70585 0.16593 0.0
C146 C 0.89173 0.64664 0.13465 0.0
C147 C 0.88187 0.6023 0.14673 0.0
C148 C 0.8718 0.66217 0.17778 0.0
C149 C 0.87199 0.61059 0.16834 0.0
C150 C 0.88985 0.94771 0.17323 0.0
C151 C 0.92398 0.96085 0.1158 0.0
C152 C 0.86834 0.07232 0.12267 0.0
C153 C 0.85258 0.11691 0.11386 0.0
C154 C 0.83057 0.10604 0.10147 0.0
C155 C 0.86009 0.17098 0.11722 0.0
C156 C 0.8459 0.21414 0.10791 0.0
C157 C 0.81659 0.14818 0.09201 0.0
C158 C 0.82424 0.20174 0.09501 0.0
C159 C 0.88909 0.87208 0.0873 0.0
H160 H 0.88168 0.745 0.17379 0.0
H161 H 0.89957 0.64048 0.11803 0.0
H162 H 0.86402 0.66828 0.1944 0.0
H163 H 0.86416 0.57711 0.17783 0.0
H164 H 0.82423 0.06512 0.09898 0.0
H165 H 0.8768 0.17916 0.12726 0.0
H166 H 0.7998 0.13926 0.0822 0.0
H167 H 0.81322 0.23336 0.08702 0.0
Gd168 Gd 0.12448 0.85611 0.36624 0.0
Gd169 Gd 0.16109 0.97417 0.38278 0.0
C170 C 0.24612 0.95547 0.39545 0.0
C171 C 0.24897 0.97028 0.43571 0.0
C172 C 0.20808 0.97501 0.41685 0.0
C173 C 0.21958 0.96279 0.3966 0.0
C174 C 0.22272 0.98043 0.43652 0.0
C175 C 0.26064 0.95774 0.41521 0.0
C176 C 0.25738 0.94812 0.37439 0.0
C177 C 0.24235 0.95045 0.35511 0.0
N178 N 0.20506 0.96219 0.37777 0.0
C179 C 0.21613 0.95848 0.3571 0.0
H180 H 0.2047 0.96021 0.34208 0.0
C181 C 0.17119 1.00534 0.43578 0.0
N182 N 0.18276 0.98543 0.41696 0.0
C183 C 0.18489 1.01113 0.45574 0.0
C184 C 0.2107 0.99784 0.45621 0.0
H185 H 0.15121 1.01534 0.43551 0.0
H186 H 0.28102 0.95162 0.4147 0.0
H187 H 0.08203 0.8686 0.41022 0.0
H188 H 0.27769 0.94217 0.3728 0.0
H189 H 0.25093 0.946 0.33871 0.0
H190 H 0.26051 0.97364 0.45069 0.0
H191 H 0.13173 0.81834 0.31206 0.0
H192 H 1.00761 0.8704 0.38273 0.0
H193 H 0.03638 0.87497 0.41534 0.0
H194 H 0.02037 0.83704 0.30471 0.0
H195 H 0.17553 0.02562 0.47076 0.0
H196 H 0.22128 1.00251 0.47168 0.0
H197 H 1.0019 0.85712 0.3416 0.0
H198 H 0.10489 0.80134 0.27909 0.0
N199 N 0.08052 0.86189 0.37441 0.0
C200 C 0.02795 0.86745 0.3802 0.0
C201 C 0.04412 0.86997 0.39864 0.0
C202 C 0.03814 0.85978 0.35879 0.0
C203 C 0.06483 0.85657 0.35632 0.0
C204 C 0.07037 0.86625 0.39551 0.0
N205 N 0.10088 0.84031 0.33336 0.0
C206 C 0.07526 0.84564 0.33532 0.0
C207 C 0.09631 0.81382 0.29477 0.0
C208 C 0.07015 0.82183 0.29615 0.0
C209 C 0.11145 0.82281 0.31364 0.0
C210 C 0.05926 0.83722 0.3166 0.0
H211 H 0.05847 0.81494 0.28146 0.0
O212 O 0.14417 0.78694 0.38123 0.0
O213 O 0.16359 0.88634 0.3735 0.0
O214 O 0.15799 0.97185 0.34481 0.0
O215 O 0.12494 0.91263 0.33613 0.0
O216 O 0.15906 0.84165 0.34459 0.0
O217 O 0.10889 0.77468 0.36404 0.0
O218 O 0.1504 0.05662 0.39145 0.0
O219 O 0.12226 0.94418 0.3737 0.0
O220 O 0.12477 0.86704 0.40437 0.0
O221 O 0.16236 0.9136 0.41083 0.0
O222 O 0.12422 0.99636 0.40044 0.0
O223 O 0.17596 0.0421 0.36365 0.0
C224 C 0.1757 0.86427 0.35746 0.0
C225 C 0.03287 0.84277 0.31896 0.0
C226 C 0.02236 0.85412 0.33997 0.0
C227 C 0.12825 0.75147 0.3735 0.0
C228 C 0.13914 0.70468 0.36139 0.0
C229 C 0.14863 0.71115 0.33955 0.0
C230 C 0.13934 0.65279 0.37121 0.0
C231 C 0.14831 0.6079 0.35892 0.0
C232 C 0.1577 0.66688 0.32746 0.0
C233 C 0.15739 0.61544 0.33699 0.0
C234 C 0.14094 0.952 0.3307 0.0
C235 C 0.10882 0.96952 0.38786 0.0
C236 C 0.1653 0.07836 0.37652 0.0
C237 C 0.18158 0.1228 0.38466 0.0
C238 C 0.2051 0.11166 0.39465 0.0
C239 C 0.1732 0.1768 0.38311 0.0
C240 C 0.18805 0.21953 0.39187 0.0
C241 C 0.21967 0.15328 0.40371 0.0
C242 C 0.21118 0.20671 0.40255 0.0
C243 C 0.14359 0.88237 0.41777 0.0
H244 H 0.1489 0.7502 0.33166 0.0
H245 H 0.13215 0.64718 0.3881 0.0
H246 H 0.16489 0.67246 0.3106 0.0
H247 H 0.16455 0.58148 0.32735 0.0
H248 H 0.21222 0.07089 0.39552 0.0
H249 H 0.15533 0.1853 0.37481 0.0
H250 H 0.23762 0.14408 0.41171 0.0
H251 H 0.22279 0.23791 0.41012 0.0
Gd252 Gd 0.90661 0.20234 0.36571 0.0
Gd253 Gd 0.86952 0.08249 0.38073 0.0
C254 C 0.78389 0.0905 0.39236 0.0
C255 C 0.78077 0.07315 0.43242 0.0
C256 C 0.82199 0.07348 0.41403 0.0
C257 C 0.81055 0.0856 0.39376 0.0
C258 C 0.80723 0.06637 0.43354 0.0
C259 C 0.76912 0.08515 0.41186 0.0
C260 C 0.77286 0.09953 0.37134 0.0
C261 C 0.78828 0.10188 0.35231 0.0
N262 N 0.82539 0.09042 0.37524 0.0
C263 C 0.81461 0.0965 0.35454 0.0
H264 H 0.82623 0.09856 0.33967 0.0
C265 C 0.85949 0.05002 0.43365 0.0
N266 N 0.84756 0.06697 0.4145 0.0
C267 C 0.8457 0.043 0.45349 0.0
C268 C 0.81948 0.0517 0.4535 0.0
H269 H 0.87979 0.04362 0.43376 0.0
H270 H 0.74864 0.08925 0.41115 0.0
H271 H 0.95059 0.18835 0.40642 0.0
H272 H 0.75247 0.1037 0.36956 0.0
H273 H 0.7799 0.10801 0.33592 0.0
H274 H 0.7691 0.06821 0.44726 0.0
H275 H 0.89601 0.24802 0.3137 0.0
H276 H 0.02411 0.18753 0.37611 0.0
H277 H 0.99698 0.18148 0.40989 0.0
H278 H 1.00654 0.22608 0.29888 0.0
H279 H 0.8553 0.03096 0.46876 0.0
H280 H 0.80883 0.04605 0.46887 0.0
H281 H 0.02746 0.20317 0.33457 0.0
H282 H 0.92015 0.26609 0.27901 0.0
N283 N 0.95097 0.19639 0.37082 0.0
C284 C 1.00366 0.19047 0.37445 0.0
C285 C 0.98842 0.18717 0.39355 0.0
C286 C 0.99236 0.19906 0.35351 0.0
C287 C 0.96563 0.20229 0.35226 0.0
C288 C 0.96201 0.19102 0.39147 0.0
N289 N 0.92833 0.22117 0.33207 0.0
C290 C 0.95392 0.21502 0.33221 0.0
C291 C 0.92987 0.25143 0.29381 0.0
C292 C 0.95607 0.24252 0.29335 0.0
C293 C 0.91626 0.2412 0.31351 0.0
C294 C 0.9685 0.22502 0.3128 0.0
H295 H 0.96659 0.25068 0.27809 0.0
O296 O 0.89287 0.28429 0.35994 0.0
O297 O 0.8677 0.17131 0.37407 0.0
O298 O 0.87188 0.09387 0.34292 0.0
O299 O 0.90809 0.14534 0.33581 0.0
O300 O 0.87039 0.22328 0.34727 0.0
O301 O 0.9186 0.26856 0.38739 0.0
O302 O 0.87935 0.99912 0.38894 0.0
O303 O 0.90824 0.11373 0.37246 0.0
O304 O 0.9051 0.18755 0.40374 0.0
O305 O 0.86703 0.14196 0.40913 0.0
O306 O 0.90615 0.05933 0.39844 0.0
O307 O 0.85892 1.01724 0.35825 0.0
C308 C 0.85464 0.19666 0.35956 0.0
C309 C 0.99502 0.21914 0.31366 0.0
C310 C 1.00693 0.20614 0.33399 0.0
C311 C 0.9065 0.3054 0.37589 0.0
C312 C 0.92069 0.35476 0.36984 0.0
C313 C 0.94469 0.35091 0.35981 0.0
C314 C 0.9097 0.40621 0.37322 0.0
C315 C 0.92248 0.4538 0.36637 0.0
C316 C 0.95741 0.39746 0.35289 0.0
C317 C 0.94641 0.44838 0.35597 0.0
C318 C 0.8903 0.11053 0.3294 0.0
C319 C 0.92159 0.08734 0.38639 0.0
C320 C 0.86791 0.97941 0.37135 0.0
C321 C 0.85173 0.93148 0.375 0.0
C322 C 0.82549 0.93702 0.37844 0.0
C323 C 0.86259 0.87932 0.3745 0.0
C324 C 0.84728 0.83286 0.3769 0.0
C325 C 0.81026 0.8912 0.38104 0.0
C326 C 0.821 0.83946 0.38015 0.0
C327 C 0.88604 0.17153 0.41672 0.0
H328 H 0.95353 0.31198 0.35716 0.0
H329 H 0.8913 0.40891 0.38128 0.0
H330 H 0.97582 0.39402 0.34491 0.0
H331 H 0.95658 0.48344 0.34983 0.0
H332 H 0.81672 0.97663 0.37891 0.0
H333 H 0.88285 0.8749 0.37171 0.0
H334 H 0.79002 0.89579 0.38364 0.0
H335 H 0.80878 0.80454 0.38221 0.0
Gd336 Gd 0.8688 0.97411 0.88224 0.0
Gd337 Gd 0.90533 0.85308 0.86726 0.0
C338 C 0.99133 0.85316 0.85648 0.0
C339 C 0.99466 0.83473 0.81654 0.0
C340 C 0.95322 0.83962 0.83448 0.0
C341 C 0.96461 0.85096 0.85481 0.0
C342 C 0.9681 0.83043 0.81517 0.0
C343 C 1.00625 0.84606 0.83717 0.0
C344 C 1.00226 0.86129 0.8776 0.0
C345 C 0.98666 0.86547 0.89644 0.0
N346 N 0.9496 0.85753 0.87313 0.0
C347 C 0.96027 0.86277 0.89394 0.0
H348 H 0.94862 0.86627 0.9087 0.0
C349 C 0.91563 0.81857 0.81464 0.0
N350 N 0.92758 0.83534 0.8338 0.0
C351 C 0.92954 0.80945 0.795 0.0
C352 C 0.95588 0.81597 0.7952 0.0
H353 H 0.89525 0.81371 0.81435 0.0
H354 H 0.02678 0.84815 0.83809 0.0
H355 H 0.82351 0.95768 0.84319 0.0
H356 H 0.0227 0.86345 0.87959 0.0
H357 H 0.99493 0.87099 0.9129 0.0
H358 H 1.00641 0.82824 0.80185 0.0
H359 H 0.88096 0.02334 0.93349 0.0
H360 H 0.75148 0.94895 0.8762 0.0
H361 H 0.77705 0.94628 0.84139 0.0
H362 H 0.77176 0.99179 0.95255 0.0
H363 H 0.91993 0.79741 0.77974 0.0
H364 H 0.96663 0.80866 0.77999 0.0
H365 H 0.74973 0.96529 0.91781 0.0
H366 H 0.85809 0.04044 0.96899 0.0
N367 N 0.82448 0.96484 0.87876 0.0
C368 C 0.7719 0.9538 0.87711 0.0
C369 C 0.78626 0.95249 0.85742 0.0
C370 C 0.78397 0.96372 0.89761 0.0
C371 C 0.81062 0.9696 0.89785 0.0
C372 C 0.81263 0.95894 0.85853 0.0
N373 N 0.84835 0.99334 0.91646 0.0
C374 C 0.82293 0.98473 0.91733 0.0
C375 C 0.84799 0.02457 0.95461 0.0
C376 C 0.82204 1.0134 0.95609 0.0
C377 C 0.86087 1.01492 0.93447 0.0
C378 C 0.80908 0.99406 0.93721 0.0
H379 H 0.81209 1.02103 0.97169 0.0
O380 O 0.88155 0.05698 0.88718 0.0
O381 O 0.90727 0.94154 0.8737 0.0
O382 O 0.90359 0.86622 0.90539 0.0
O383 O 0.8674 0.91826 0.91188 0.0
O384 O 0.90579 0.99689 0.89938 0.0
O385 O 0.85485 0.03872 0.86067 0.0
O386 O 0.8945 0.77028 0.85913 0.0
O387 O 0.86668 0.8851 0.87565 0.0
O388 O 0.87025 0.96052 0.84449 0.0
O389 O 0.90739 0.91183 0.83805 0.0
O390 O 0.86886 0.8326 0.849 0.0
O391 O 0.91392 0.78763 0.89035 0.0
C392 C 0.9209 0.96777 0.88741 0.0
C393 C 0.78272 0.98538 0.93739 0.0
C394 C 0.77018 0.97021 0.91762 0.0
C395 C 0.86682 0.07664 0.87164 0.0
C396 C 0.8521 0.12517 0.87793 0.0
C397 C 0.82805 0.12018 0.88779 0.0
C398 C 0.86262 0.17704 0.87484 0.0
C399 C 0.84938 0.22399 0.88182 0.0
C400 C 0.81481 0.16615 0.89475 0.0
C401 C 0.82537 0.21755 0.89195 0.0
C402 C 0.88554 0.88533 0.91886 0.0
C403 C 0.85339 0.86005 0.86126 0.0
C404 C 0.90498 0.75014 0.87708 0.0
C405 C 0.92081 0.70139 0.87397 0.0
C406 C 0.94716 0.7057 0.87093 0.0
C407 C 0.90951 0.64974 0.87453 0.0
C408 C 0.92451 0.6026 0.87257 0.0
C409 C 0.96206 0.65921 0.86874 0.0
C410 C 0.95089 0.60799 0.86968 0.0
C411 C 0.88913 0.94499 0.83122 0.0
H412 H 0.81957 0.08083 0.89025 0.0
H413 H 0.88105 0.18057 0.8669 0.0
H414 H 0.79635 0.16189 0.90256 0.0
H415 H 0.81482 0.25214 0.89812 0.0
H416 H 0.95626 0.74487 0.87046 0.0
H417 H 0.88917 0.64624 0.87701 0.0
H418 H 0.98238 0.66288 0.86644 0.0
H419 H 0.96286 0.57252 0.86794 0.0
Gd420 Gd 0.1599 0.07685 0.87891 0.0
Gd421 Gd 0.12288 0.19804 0.865 0.0
C422 C 0.03649 0.1968 0.85601 0.0
C423 C 0.03199 0.2196 0.81656 0.0
C424 C 0.07391 0.21374 0.83355 0.0
C425 C 0.06315 0.19975 0.85382 0.0
C426 C 0.05846 0.22515 0.8148 0.0
C427 C 0.02102 0.20541 0.83715 0.0
C428 C 0.02616 0.18692 0.87723 0.0
C429 C 0.04229 0.18223 0.8957 0.0
N430 N 0.0787 0.19226 0.87172 0.0
C431 C 0.06858 0.18588 0.89269 0.0
H432 H 0.08059 0.18216 0.90721 0.0
C433 C 0.1107 0.24042 0.81379 0.0
N434 N 0.09947 0.21939 0.83254 0.0
C435 C 0.09624 0.25197 0.79469 0.0
C436 C 0.07002 0.24355 0.79508 0.0
H437 H 0.13099 0.24685 0.81336 0.0
H438 H 1.00053 0.2027 0.83846 0.0
H439 H 0.20175 0.09516 0.83698 0.0
H440 H 1.0058 0.18415 0.87962 0.0
H441 H 0.03449 0.17566 0.91228 0.0
H442 H 0.01981 0.22765 0.80229 0.0
H443 H 0.15143 0.03485 0.93178 0.0
H444 H 0.27632 0.10232 0.86531 0.0
H445 H 0.24794 0.10638 0.83227 0.0
H446 H 0.26213 0.06433 0.94319 0.0
H447 H 0.10532 0.26732 0.7797 0.0
H448 H 0.05883 0.25277 0.78031 0.0
H449 H 0.2814 0.08717 0.90677 0.0
H450 H 0.17701 1.02185 0.96618 0.0
N451 N 0.20374 0.08603 0.87245 0.0
C452 C 0.25603 0.0973 0.86749 0.0
C453 C 0.24008 0.09951 0.8488 0.0
C454 C 0.24565 0.0874 0.88872 0.0
C455 C 0.2191 0.08148 0.89065 0.0
C456 C 0.21386 0.09307 0.85155 0.0
N457 N 0.18281 0.06106 0.91213 0.0
C458 C 0.2083 0.06867 0.91114 0.0
C459 C 0.18603 0.03518 0.95083 0.0
C460 C 0.21213 0.04531 0.95037 0.0
C461 C 0.17163 0.0424 0.93134 0.0
C462 C 0.22367 0.06142 0.93028 0.0
H463 H 0.22327 0.03948 0.96547 0.0
O464 O 0.14799 0.99463 0.8864 0.0
O465 O 0.12112 0.109 0.87097 0.0
O466 O 0.12528 0.18231 0.90293 0.0
O467 O 0.16298 0.13475 0.90778 0.0
O468 O 0.12362 0.0549 0.8972 0.0
O469 O 0.17275 1.0099 0.85806 0.0
O470 O 0.13411 0.28129 0.8581 0.0
O471 O 0.16165 0.16568 0.87238 0.0
O472 O 0.15574 0.08573 0.84113 0.0
O473 O 0.12128 0.14348 0.83435 0.0
O474 O 0.15902 0.21943 0.84634 0.0
O475 O 0.11465 0.26179 0.88902 0.0
C476 C 0.10805 0.08284 0.88516 0.0
C477 C 0.25002 0.06927 0.92863 0.0
C478 C 0.26099 0.08225 0.90789 0.0
C479 C 0.16153 0.97329 0.87037 0.0
C480 C 0.17651 0.92506 0.87656 0.0
C481 C 0.20084 0.93038 0.8858 0.0
C482 C 0.16593 0.8731 0.87396 0.0
C483 C 0.17939 0.82639 0.88086 0.0
C484 C 0.21429 0.88466 0.89271 0.0
C485 C 0.20367 0.83316 0.89042 0.0
C486 C 0.1444 0.16521 0.91562 0.0
C487 C 0.1748 0.19161 0.85817 0.0
C488 C 0.12362 0.30019 0.87626 0.0
C489 C 0.10775 0.34906 0.87366 0.0
C490 C 0.08135 0.34484 0.87097 0.0
C491 C 0.11908 0.40066 0.87428 0.0
C492 C 0.10407 0.44785 0.87272 0.0
C493 C 0.06642 0.3914 0.8692 0.0
C494 C 0.07763 0.44258 0.87019 0.0
C495 C 0.13782 0.10593 0.8279 0.0
H496 H 0.20939 0.96979 0.8878 0.0
H497 H 0.14727 0.86932 0.86646 0.0
H498 H 0.23297 0.88917 0.90006 0.0
H499 H 0.21441 0.79876 0.89651 0.0
H500 H 0.07222 0.30568 0.87043 0.0
H501 H 0.13946 0.40407 0.87646 0.0
H502 H 0.04606 0.38781 0.86716 0.0
H503 H 0.06564 0.47811 0.86877 0.0
Gd504 Gd 0.86702 0.06791 0.62237 0.0
Gd505 Gd 0.90356 0.18901 0.63688 0.0
C506 C 0.98949 0.18651 0.64772 0.0
C507 C 0.99286 0.20425 0.68771 0.0
C508 C 0.95142 0.20069 0.66975 0.0
C509 C 0.96279 0.18934 0.64939 0.0
C510 C 0.96634 0.20942 0.68907 0.0
C511 C 1.00442 0.19281 0.66707 0.0
C512 C 1.00041 0.17869 0.62656 0.0
C513 C 0.9848 0.17548 0.60769 0.0
N514 N 0.94779 0.18382 0.63101 0.0
C515 C 0.95843 0.17884 0.61018 0.0
H516 H 0.94671 0.17609 0.59542 0.0
C517 C 0.91398 0.22389 0.68947 0.0
N518 N 0.9258 0.2061 0.6704 0.0
C519 C 0.92792 0.23252 0.70912 0.0
C520 C 0.95419 0.22462 0.709 0.0
H521 H 0.89366 0.2299 0.6897 0.0
H522 H 0.02495 0.19017 0.66615 0.0
H523 H 0.82291 0.08397 0.66259 0.0
H524 H 0.02083 0.17606 0.62457 0.0
H525 H 0.99306 0.17022 0.5912 0.0
H526 H 1.00464 0.21032 0.70241 0.0
H527 H 0.87785 1.01981 0.57077 0.0
H528 H 0.74973 0.0896 0.63156 0.0
H529 H 0.7765 0.0938 0.66562 0.0
H530 H 0.76771 0.04652 0.55477 0.0
H531 H 0.9184 0.2453 0.72432 0.0
H532 H 0.96497 0.23163 0.72421 0.0
H533 H 0.74667 0.07254 0.59006 0.0
H534 H 0.85392 1.00157 0.53594 0.0
N535 N 0.82276 0.07624 0.62702 0.0
C536 C 0.77016 0.08543 0.6301 0.0
C537 C 0.78519 0.08763 0.64937 0.0
C538 C 0.78159 0.07555 0.60931 0.0
C539 C 0.80826 0.07056 0.60835 0.0
C540 C 0.81156 0.08207 0.64755 0.0
N541 N 0.84552 0.04805 0.58875 0.0
C542 C 0.82001 0.05562 0.58858 0.0
C543 C 0.84415 1.01692 0.5506 0.0
C544 C 0.81804 0.0269 0.54986 0.0
C545 C 0.85764 0.02718 0.57037 0.0
C546 C 0.80557 0.04573 0.56909 0.0
H547 H 0.80763 1.01885 0.53453 0.0
O548 O 0.87764 0.98403 0.61598 0.0
O549 O 0.90558 0.10058 0.63014 0.0
O550 O 0.90121 0.1761 0.59877 0.0
O551 O 0.86496 0.12404 0.59282 0.0
O552 O 0.90367 0.04476 0.60471 0.0
O553 O 0.85629 1.00482 0.64585 0.0
O554 O 0.89042 0.27078 0.64391 0.0
O555 O 0.86486 0.15697 0.62868 0.0
O556 O 0.86911 0.08182 0.66008 0.0
O557 O 0.90624 0.1306 0.66613 0.0
O558 O 0.86726 0.20916 0.65549 0.0
O559 O 0.9148 0.25602 0.61535 0.0
C560 C 0.91899 0.07414 0.61629 0.0
C561 C 0.77913 0.05342 0.56962 0.0
C562 C 0.76716 0.06832 0.58971 0.0
C563 C 0.86563 0.96588 0.63354 0.0
C564 C 0.84943 0.91789 0.63011 0.0
C565 C 0.82314 0.92334 0.62691 0.0
C566 C 0.86034 0.8658 0.63053 0.0
C567 C 0.84502 0.81933 0.62829 0.0
C568 C 0.80791 0.87747 0.6245 0.0
C569 C 0.81869 0.82579 0.62533 0.0
C570 C 0.88298 0.15687 0.58554 0.0
C571 C 0.85171 0.18185 0.64327 0.0
C572 C 0.90335 0.29242 0.62761 0.0
C573 C 0.91794 0.3414 0.63344 0.0
C574 C 0.94227 0.33704 0.64278 0.0
C575 C 0.90703 0.39303 0.63046 0.0
C576 C 0.92021 0.4403 0.63707 0.0
C577 C 0.95541 0.38329 0.64943 0.0
C578 C 0.94448 0.43443 0.64678 0.0
C579 C 0.88816 0.09733 0.67313 0.0
H580 H 0.81433 0.96292 0.62647 0.0
H581 H 0.88063 0.86143 0.63309 0.0
H582 H 0.78763 0.88199 0.6221 0.0
H583 H 0.80649 0.7908 0.62342 0.0
H584 H 0.95106 0.29796 0.64509 0.0
H585 H 0.88838 0.39611 0.62289 0.0
H586 H 0.97408 0.37947 0.65688 0.0
H587 H 0.95499 0.46926 0.65269 0.0
Gd588 Gd 0.15811 0.96179 0.62178 0.0
Gd589 Gd 0.12095 0.84255 0.63761 0.0
C590 C 0.0353 0.84588 0.6503 0.0
C591 C 0.03294 0.82654 0.69022 0.0
C592 C 0.07391 0.83044 0.67142 0.0
C593 C 0.06204 0.8427 0.6514 0.0
C594 C 0.05948 0.82081 0.69095 0.0
C595 C 0.02087 0.83911 0.66992 0.0
C596 C 0.02383 0.85417 0.6294 0.0
C597 C 0.03893 0.85724 0.61021 0.0
N598 N 0.07656 0.8483 0.63273 0.0
C599 C 0.06536 0.85342 0.61214 0.0
H600 H 0.07666 0.8559 0.59711 0.0
C601 C 0.11175 0.80514 0.69004 0.0
N602 N 0.09951 0.8245 0.67145 0.0
C603 C 0.09828 0.79523 0.70985 0.0
C604 C 0.07207 0.80388 0.71041 0.0
H605 H 0.13201 0.79852 0.68979 0.0
H606 H 1.00034 0.84202 0.66945 0.0
H607 H 0.20106 0.9467 0.66316 0.0
H608 H 1.00337 0.85707 0.62785 0.0
H609 H 0.03024 0.8627 0.59391 0.0
H610 H 0.02154 0.81986 0.7051 0.0
H611 H 0.14821 0.99862 0.56847 0.0
H612 H 0.27506 0.9406 0.63373 0.0
H613 H 0.24736 0.9373 0.66723 0.0
H614 H 0.25899 0.9735 0.55574 0.0
H615 H 0.10814 0.78104 0.72467 0.0
H616 H 0.06167 0.796 0.72575 0.0
H617 H 0.27919 0.95371 0.59208 0.0
H618 H 0.17295 1.01 0.53352 0.0
N619 N 0.20219 0.95384 0.62756 0.0
C620 C 0.25468 0.94475 0.63181 0.0
C621 C 0.23912 0.94296 0.65076 0.0
C622 C 0.2438 0.95315 0.61067 0.0
C623 C 0.21716 0.95804 0.6091 0.0
C624 C 0.2128 0.94831 0.64835 0.0
N625 N 0.1803 0.9759 0.58803 0.0
C626 C 0.20586 0.9694 0.58869 0.0
C627 C 0.18244 0.99848 0.54891 0.0
C628 C 0.20867 0.98978 0.54911 0.0
C629 C 0.16851 0.99219 0.56872 0.0
C630 C 0.22076 0.97582 0.56922 0.0
H631 H 0.21943 0.99488 0.53376 0.0
O632 O 0.14833 0.04481 0.61294 0.0
O633 O 0.11942 0.93091 0.63029 0.0
O634 O 0.12213 0.85628 0.59954 0.0
O635 O 0.16023 0.90144 0.59363 0.0
O636 O 0.12149 0.98453 0.60399 0.0
O637 O 0.16872 0.02796 0.64378 0.0
O638 O 0.13475 0.76076 0.64363 0.0
O639 O 0.15982 0.87324 0.62897 0.0
O640 O 0.15538 0.95232 0.65971 0.0
O641 O 0.11919 0.90092 0.66702 0.0
O642 O 0.15723 0.82245 0.65612 0.0
O643 O 0.10886 0.77584 0.61624 0.0
C644 C 0.10608 0.95696 0.61626 0.0
C645 C 0.24722 0.96909 0.57054 0.0
C646 C 0.25872 0.95781 0.59123 0.0
C647 C 0.15968 0.06525 0.63043 0.0
C648 C 0.17578 0.11318 0.62655 0.0
C649 C 0.20193 0.10767 0.62266 0.0
C650 C 0.16493 0.16533 0.62735 0.0
C651 C 0.18019 0.21182 0.62478 0.0
C652 C 0.2171 0.15351 0.61989 0.0
C653 C 0.20639 0.20525 0.62107 0.0
C654 C 0.14111 0.87171 0.58637 0.0
C655 C 0.17296 0.84848 0.64358 0.0
C656 C 0.12109 0.73929 0.62779 0.0
C657 C 0.10702 0.68989 0.63401 0.0
C658 C 0.08324 0.69368 0.64444 0.0
C659 C 0.11791 0.63846 0.63035 0.0
C660 C 0.10526 0.59082 0.63733 0.0
C661 C 0.07064 0.64709 0.65147 0.0
C662 C 0.08155 0.59617 0.64812 0.0
C663 C 0.13675 0.93649 0.6732 0.0
H664 H 0.21067 0.06805 0.62198 0.0
H665 H 0.14474 0.16973 0.63049 0.0
H666 H 0.23728 0.14895 0.61694 0.0
H667 H 0.21857 0.24019 0.61887 0.0
H668 H 0.07447 0.73261 0.6473 0.0
H669 H 0.13614 0.63581 0.62199 0.0
H670 H 0.0524 0.65047 0.65975 0.0
H671 H 0.07149 0.56107 0.65436 0.0
Gd672 Gd 0.62462 0.70307 0.13877 0.0
Gd673 Gd 0.66156 0.58212 0.12437 0.0
C674 C 0.74785 0.58938 0.11774 0.0
C675 C 0.75393 0.57185 0.07796 0.0
C676 C 0.7114 0.57319 0.09388 0.0
C677 C 0.72134 0.58507 0.11478 0.0
C678 C 0.72759 0.56548 0.0753 0.0
C679 C 0.76404 0.58377 0.09914 0.0
C680 C 0.75733 0.59795 0.13938 0.0
C681 C 0.74053 0.60034 0.15748 0.0
N682 N 0.70518 0.58995 0.13242 0.0
C683 C 0.7144 0.59547 0.15372 0.0
H684 H 0.7017 0.59756 0.16788 0.0
C685 C 0.67547 0.54913 0.07224 0.0
N686 N 0.68592 0.56683 0.09192 0.0
C687 C 0.6907 0.54151 0.05328 0.0
C688 C 0.71686 0.55029 0.05474 0.0
H689 H 0.65521 0.5426 0.07105 0.0
H690 H 0.78444 0.58743 0.10105 0.0
H691 H 0.58126 0.68805 0.09759 0.0
H692 H 0.77756 0.60168 0.14235 0.0
H693 H 0.74769 0.60608 0.17433 0.0
H694 H 0.76667 0.5665 0.06385 0.0
H695 H 0.63386 0.75369 0.19014 0.0
H696 H 0.50726 0.68678 0.12692 0.0
H697 H 0.53498 0.68046 0.09352 0.0
H698 H 0.52337 0.72878 0.20408 0.0
H699 H 0.68227 0.5289 0.03757 0.0
H700 H 0.72865 0.5441 0.04006 0.0
H701 H 0.50315 0.70371 0.16832 0.0
H702 H 0.60911 0.77302 0.22439 0.0
N703 N 0.5803 0.69674 0.13312 0.0
C704 C 0.52767 0.69003 0.12884 0.0
C705 C 0.54324 0.68661 0.10995 0.0
C706 C 0.53859 0.69937 0.14987 0.0
C707 C 0.56528 0.703 0.15145 0.0
C708 C 0.5696 0.6909 0.11237 0.0
N709 N 0.60211 0.72391 0.17184 0.0
C710 C 0.57658 0.71698 0.1715 0.0
C711 C 0.59973 0.75691 0.20968 0.0
C712 C 0.57363 0.74695 0.21001 0.0
C713 C 0.61369 0.74594 0.19023 0.0
C714 C 0.56163 0.72781 0.19062 0.0
H715 H 0.56283 0.75578 0.22505 0.0
O716 O 0.63852 0.78503 0.14409 0.0
O717 O 0.66366 0.67094 0.13116 0.0
O718 O 0.65635 0.5892 0.16214 0.0
O719 O 0.6224 0.64824 0.16915 0.0
O720 O 0.66045 0.72289 0.15795 0.0
O721 O 0.61303 0.7686 0.11658 0.0
O722 O 0.65212 0.49947 0.11478 0.0
O723 O 0.62282 0.61431 0.13195 0.0
O724 O 0.62665 0.6879 0.10091 0.0
O725 O 0.66428 0.64048 0.0955 0.0
O726 O 0.62537 0.56018 0.10582 0.0
O727 O 0.67105 0.51532 0.14644 0.0
C728 C 0.67642 0.69584 0.14601 0.0
C729 C 0.53516 0.72125 0.1895 0.0
C730 C 0.52365 0.70701 0.16915 0.0
C731 C 0.62499 0.80571 0.12797 0.0
C732 C 0.6106 0.8551 0.13373 0.0
C733 C 0.58635 0.85136 0.14328 0.0
C734 C 0.62158 0.90647 0.13043 0.0
C735 C 0.60857 0.95411 0.13694 0.0
C736 C 0.57339 0.89798 0.14985 0.0
C737 C 0.58439 0.94887 0.14688 0.0
C738 C 0.63852 0.60975 0.17538 0.0
C739 C 0.60973 0.58819 0.11775 0.0
C740 C 0.6627 0.4785 0.13255 0.0
C741 C 0.67908 0.43079 0.12898 0.0
C742 C 0.70538 0.43649 0.12605 0.0
C743 C 0.66832 0.37863 0.12914 0.0
C744 C 0.6838 0.3323 0.12691 0.0
C745 C 0.72077 0.39079 0.12357 0.0
C746 C 0.71013 0.339 0.12414 0.0
C747 C 0.64548 0.6708 0.0879 0.0
H748 H 0.57748 0.81247 0.1458 0.0
H749 H 0.64016 0.90907 0.1227 0.0
H750 H 0.55479 0.89464 0.15747 0.0
H751 H 0.57402 0.98401 0.15273 0.0
H752 H 0.71407 0.4761 0.12592 0.0
H753 H 0.64803 0.37407 0.13158 0.0
H754 H 0.74106 0.3955 0.12137 0.0
H755 H 0.72247 0.30414 0.12222 0.0
Gd756 Gd 0.408 0.35353 0.13509 0.0
Gd757 Gd 0.37082 0.47491 0.12224 0.0
C758 C 0.28507 0.4702 0.11058 0.0
C759 C 0.28177 0.49775 0.07154 0.0
C760 C 0.3231 0.49183 0.08961 0.0
C761 C 0.31173 0.47487 0.10926 0.0
C762 C 0.30824 0.50459 0.07064 0.0
C763 C 0.27021 0.48053 0.09147 0.0
C764 C 0.27409 0.45696 0.13123 0.0
C765 C 0.28956 0.45079 0.15007 0.0
N766 N 0.32664 0.466 0.12747 0.0
C767 C 0.3159 0.45638 0.14795 0.0
H768 H 0.32752 0.45151 0.1627 0.0
C769 C 0.36045 0.52097 0.07123 0.0
N770 N 0.34865 0.49838 0.08939 0.0
C771 C 0.34655 0.53413 0.05198 0.0
C772 C 0.32036 0.52526 0.05158 0.0
H773 H 0.38072 0.5276 0.07139 0.0
H774 H 0.24972 0.4767 0.0921 0.0
H775 H 0.45027 0.36955 0.09307 0.0
H776 H 0.25369 0.45281 0.13293 0.0
H777 H 0.28124 0.44167 0.16623 0.0
H778 H 0.27004 0.5069 0.05708 0.0
H779 H 0.39931 0.31022 0.18772 0.0
H780 H 0.52494 0.36927 0.1211 0.0
H781 H 0.49649 0.37652 0.08822 0.0
H782 H 0.51046 0.33071 0.19884 0.0
H783 H 0.35605 0.5509 0.03747 0.0
H784 H 0.30962 0.53556 0.03666 0.0
H785 H 0.52994 0.35297 0.16246 0.0
H786 H 0.42483 0.29355 0.22182 0.0
N787 N 0.45207 0.35975 0.12855 0.0
C788 C 0.50457 0.36613 0.12337 0.0
C789 C 0.48858 0.37014 0.10477 0.0
C790 C 0.49411 0.35692 0.1446 0.0
C791 C 0.46745 0.3535 0.14665 0.0
C792 C 0.46228 0.36615 0.10763 0.0
N793 N 0.43096 0.33534 0.16813 0.0
C794 C 0.45654 0.34104 0.1671 0.0
C795 C 0.43398 0.30715 0.20658 0.0
C796 C 0.46021 0.31539 0.2061 0.0
C797 C 0.4196 0.31651 0.18723 0.0
C798 C 0.47189 0.33165 0.1861 0.0
H799 H 0.47133 0.30784 0.22107 0.0
O800 O 0.39524 0.2714 0.1418 0.0
O801 O 0.36886 0.38498 0.12726 0.0
O802 O 0.37308 0.45751 0.15954 0.0
O803 O 0.41081 0.41056 0.16488 0.0
O804 O 0.37219 0.332 0.15381 0.0
O805 O 0.4194 0.28718 0.11321 0.0
O806 O 0.38152 0.5592 0.11705 0.0
O807 O 0.40954 0.44224 0.12934 0.0
O808 O 0.40499 0.36828 0.09715 0.0
O809 O 0.36895 0.42177 0.09179 0.0
O810 O 0.40733 0.49961 0.10462 0.0
O811 O 0.36026 0.53619 0.14664 0.0
C812 C 0.35616 0.35851 0.14172 0.0
C813 C 0.49836 0.33728 0.18438 0.0
C814 C 0.50945 0.34991 0.16367 0.0
C815 C 0.40815 0.25031 0.12535 0.0
C816 C 0.4229 0.20123 0.13091 0.0
C817 C 0.44764 0.2055 0.13937 0.0
C818 C 0.41177 0.14963 0.1286 0.0
C819 C 0.42516 0.10233 0.13498 0.0
C820 C 0.46098 0.15926 0.1458 0.0
C821 C 0.44986 0.1082 0.1438 0.0
C822 C 0.39252 0.44291 0.17226 0.0
C823 C 0.42284 0.46967 0.1158 0.0
C824 C 0.36959 0.57606 0.13487 0.0
C825 C 0.35346 0.6246 0.13217 0.0
C826 C 0.327 0.6199 0.13004 0.0
C827 C 0.36461 0.67646 0.13219 0.0
C828 C 0.34939 0.7234 0.13061 0.0
C829 C 0.31187 0.66619 0.12829 0.0
C830 C 0.32292 0.71758 0.12871 0.0
C831 C 0.38685 0.38896 0.08417 0.0
H832 H 0.4566 0.24453 0.14116 0.0
H833 H 0.39277 0.14657 0.12174 0.0
H834 H 0.47997 0.16303 0.15257 0.0
H835 H 0.46058 0.07341 0.14952 0.0
H836 H 0.31799 0.58056 0.12992 0.0
H837 H 0.38503 0.68029 0.13391 0.0
H838 H 0.29148 0.66222 0.12671 0.0
H839 H 0.31076 0.75287 0.1273 0.0
Gd840 Gd 0.62306 0.35262 0.36734 0.0
Gd841 Gd 0.65981 0.47399 0.38074 0.0
C842 C 0.74562 0.46852 0.39183 0.0
C843 C 0.74917 0.49334 0.43117 0.0
C844 C 0.70772 0.48877 0.41327 0.0
C845 C 0.71896 0.47312 0.39335 0.0
C846 C 0.7227 0.50016 0.4323 0.0
C847 C 0.7606 0.47751 0.41097 0.0
C848 C 0.75646 0.45663 0.37096 0.0
C849 C 0.74085 0.45164 0.35215 0.0
N850 N 0.70393 0.4654 0.37513 0.0
C851 C 0.71453 0.45706 0.35448 0.0
H852 H 0.70278 0.45312 0.33976 0.0
C853 C 0.67046 0.51664 0.43222 0.0
N854 N 0.68216 0.4953 0.41373 0.0
C855 C 0.68449 0.52837 0.45155 0.0
C856 C 0.7107 0.51944 0.45169 0.0
H857 H 0.65018 0.52326 0.43225 0.0
H858 H 0.78109 0.47368 0.41017 0.0
H859 H 0.58042 0.36854 0.40904 0.0
H860 H 0.77685 0.45258 0.3691 0.0
H861 H 0.74907 0.44355 0.33585 0.0
H862 H 0.76099 0.50143 0.44566 0.0
H863 H 0.6322 0.30624 0.31526 0.0
H864 H 0.50594 0.36704 0.3806 0.0
H865 H 0.53412 0.37497 0.41362 0.0
H866 H 0.52114 0.32585 0.30319 0.0
H867 H 0.67508 0.54408 0.46633 0.0
H868 H 0.72153 0.52863 0.46667 0.0
H869 H 0.50131 0.34965 0.33927 0.0
H870 H 0.60699 0.28687 0.28125 0.0
N871 N 0.57891 0.35863 0.37355 0.0
C872 C 0.52634 0.36422 0.37844 0.0
C873 C 0.54218 0.36859 0.39712 0.0
C874 C 0.53699 0.35483 0.35729 0.0
C875 C 0.56368 0.35184 0.35539 0.0
C876 C 0.56852 0.36492 0.39441 0.0
N877 N 0.60038 0.3329 0.33432 0.0
C878 C 0.57478 0.33862 0.33511 0.0
C879 C 0.5977 0.3017 0.29625 0.0
C880 C 0.57146 0.3101 0.29643 0.0
C881 C 0.61191 0.31266 0.31554 0.0
C882 C 0.55961 0.32787 0.31613 0.0
H883 H 0.56047 0.30137 0.28149 0.0
O884 O 0.63629 0.27048 0.36112 0.0
O885 O 0.66206 0.38442 0.37515 0.0
O886 O 0.65714 0.45933 0.3432 0.0
O887 O 0.62044 0.40896 0.33727 0.0
O888 O 0.6589 0.3318 0.34849 0.0
O889 O 0.61179 0.28673 0.38944 0.0
O890 O 0.64924 0.55799 0.38702 0.0
O891 O 0.62119 0.44132 0.37334 0.0
O892 O 0.62586 0.36716 0.40532 0.0
O893 O 0.66221 0.41925 0.41067 0.0
O894 O 0.62324 0.49779 0.39848 0.0
O895 O 0.6704 0.53677 0.35711 0.0
C896 C 0.67484 0.35853 0.36056 0.0
C897 C 0.5331 0.33339 0.31764 0.0
C898 C 0.52181 0.3469 0.33819 0.0
C899 C 0.62324 0.24967 0.37753 0.0
C900 C 0.60859 0.20055 0.37199 0.0
C901 C 0.58395 0.20473 0.36328 0.0
C902 C 0.61968 0.14897 0.37464 0.0
C903 C 0.60638 0.10162 0.3683 0.0
C904 C 0.57071 0.15843 0.35686 0.0
C905 C 0.58182 0.10738 0.35917 0.0
C906 C 0.6381 0.44336 0.33027 0.0
C907 C 0.60782 0.46828 0.38704 0.0
C908 C 0.66115 0.57591 0.36937 0.0
C909 C 0.67741 0.62393 0.3726 0.0
C910 C 0.7038 0.61854 0.37513 0.0
C911 C 0.66646 0.67601 0.37263 0.0
C912 C 0.68183 0.7225 0.37463 0.0
C913 C 0.71907 0.6644 0.37734 0.0
C914 C 0.70823 0.71606 0.37696 0.0
C915 C 0.64425 0.38673 0.41828 0.0
H916 H 0.57498 0.24373 0.36129 0.0
H917 H 0.63858 0.14599 0.38173 0.0
H918 H 0.55181 0.16214 0.34988 0.0
H919 H 0.5712 0.07251 0.35346 0.0
H920 H 0.71267 0.57902 0.37516 0.0
H921 H 0.6461 0.68037 0.37056 0.0
H922 H 0.73941 0.6599 0.37924 0.0
H923 H 0.72048 0.75104 0.3787 0.0
Gd924 Gd 0.40513 0.69581 0.36493 0.0
Gd925 Gd 0.36804 0.5749 0.37854 0.0
C926 C 0.28216 0.5795 0.38942 0.0
C927 C 0.27853 0.55518 0.4288 0.0
C928 C 0.32004 0.56009 0.41101 0.0
C929 C 0.30883 0.57529 0.39103 0.0
C930 C 0.30502 0.54885 0.43003 0.0
C931 C 0.26712 0.57049 0.40852 0.0
C932 C 0.27137 0.59108 0.36851 0.0
C933 C 0.28705 0.59623 0.34974 0.0
N934 N 0.32391 0.58303 0.37284 0.0
C935 C 0.31338 0.59119 0.35216 0.0
H936 H 0.32518 0.59525 0.33749 0.0
C937 C 0.35732 0.53337 0.43018 0.0
N938 N 0.34562 0.55397 0.41155 0.0
C939 C 0.34327 0.52188 0.44951 0.0
C940 C 0.31702 0.53027 0.44954 0.0
H941 H 0.37763 0.52712 0.43031 0.0
H942 H 0.24662 0.57398 0.40766 0.0
H943 H 0.4473 0.68279 0.40715 0.0
H944 H 0.25097 0.59482 0.36657 0.0
H945 H 0.27887 0.60414 0.33341 0.0
H946 H 0.26668 0.54715 0.44328 0.0
H947 H 0.39639 0.73611 0.31187 0.0
H948 H 0.52208 0.68293 0.37933 0.0
H949 H 0.49355 0.67699 0.41219 0.0
H950 H 0.50767 0.71689 0.3012 0.0
H951 H 0.35269 0.50675 0.46439 0.0
H952 H 0.30617 0.52125 0.46452 0.0
H953 H 0.52714 0.69698 0.33783 0.0
H954 H 0.42193 0.75133 0.27768 0.0
N955 N 0.4492 0.69063 0.3716 0.0
C956 C 0.50171 0.68555 0.37698 0.0
C957 C 0.48567 0.68228 0.39557 0.0
C958 C 0.49128 0.69335 0.35563 0.0
C959 C 0.46461 0.69616 0.35348 0.0
C960 C 0.45936 0.68559 0.3926 0.0
N961 N 0.4281 0.71266 0.33178 0.0
C962 C 0.45371 0.70738 0.3329 0.0
C963 C 0.4311 0.73874 0.29308 0.0
C964 C 0.45738 0.73098 0.29369 0.0
C965 C 0.41671 0.73021 0.31247 0.0
C966 C 0.46907 0.716 0.31385 0.0
H967 H 0.4685 0.7379 0.27867 0.0
O968 O 0.39238 0.77776 0.3577 0.0
O969 O 0.366 0.66437 0.37253 0.0
O970 O 0.37092 0.59006 0.34108 0.0
O971 O 0.40861 0.63706 0.33581 0.0
O972 O 0.3694 0.71654 0.34578 0.0
O973 O 0.41599 0.76262 0.38673 0.0
O974 O 0.37862 0.49094 0.3848 0.0
O975 O 0.40675 0.6075 0.37163 0.0
O976 O 0.40186 0.68231 0.40291 0.0
O977 O 0.36534 0.63057 0.40814 0.0
O978 O 0.4044 0.55105 0.39669 0.0
O979 O 0.35786 0.51222 0.35467 0.0
C980 C 0.35333 0.69011 0.35783 0.0
C981 C 0.49556 0.7109 0.31569 0.0
C982 C 0.50665 0.6996 0.33655 0.0
C983 C 0.40491 0.7992 0.3743 0.0
C984 C 0.41968 0.84819 0.36884 0.0
C985 C 0.44426 0.84384 0.36002 0.0
C986 C 0.40871 0.89983 0.37163 0.0
C987 C 0.42207 0.94714 0.36535 0.0
C988 C 0.4576 0.89011 0.35371 0.0
C989 C 0.44661 0.94126 0.35618 0.0
C990 C 0.39058 0.60406 0.32851 0.0
C991 C 0.41996 0.58073 0.38549 0.0
C992 C 0.36699 0.47306 0.36699 0.0
C993 C 0.35079 0.42488 0.37001 0.0
C994 C 0.32438 0.43005 0.37247 0.0
C995 C 0.36183 0.37288 0.36998 0.0
C996 C 0.34654 0.32625 0.37188 0.0
C997 C 0.30918 0.38406 0.37459 0.0
C998 C 0.32011 0.33248 0.37416 0.0
C999 C 0.38328 0.66314 0.41577 0.0
H1000 H 0.4531 0.80475 0.35786 0.0
H1001 H 0.38984 0.9029 0.37878 0.0
H1002 H 0.47647 0.8863 0.34667 0.0
H1003 H 0.45729 0.97609 0.35052 0.0
H1004 H 0.31546 0.46952 0.37257 0.0
H1005 H 0.38221 0.36869 0.36798 0.0
H1006 H 0.28883 0.38838 0.37644 0.0
H1007 H 0.30792 0.2974 0.37582 0.0
Gd1008 Gd 0.37163 0.47436 0.87772 0.0
Gd1009 Gd 0.4038 0.34864 0.86409 0.0
C1010 C 0.47683 0.28528 0.89647 0.0
C1011 C 0.50947 0.33328 0.87568 0.0
C1012 C 0.46479 0.34738 0.86687 0.0
C1013 C 0.45801 0.31197 0.88373 0.0
C1014 C 0.49066 0.35788 0.86243 0.0
C1015 C 0.50257 0.29698 0.89266 0.0
C1016 C 0.46925 0.24642 0.91218 0.0
C1017 C 0.44355 0.2336 0.91429 0.0
N1018 N 0.43301 0.30158 0.88696 0.0
C1019 C 0.42564 0.26086 0.90114 0.0
H1020 H 0.40574 0.25078 0.90277 0.0
C1021 C 0.45219 0.40325 0.83671 0.0
N1022 N 0.44611 0.37063 0.85446 0.0
C1023 C 0.47756 0.41461 0.83159 0.0
C1024 C 0.49689 0.3923 0.84464 0.0
H1025 H 0.43771 0.42194 0.82661 0.0
H1026 H 0.51729 0.27731 0.90242 0.0
H1027 H 0.33046 0.45137 0.83432 0.0
H1028 H 0.48313 0.22503 0.92229 0.0
H1029 H 0.43752 0.20259 0.92595 0.0
H1030 H 0.52941 0.34131 0.87266 0.0
H1031 H 0.37775 0.51617 0.93154 0.0
H1032 H 0.25588 0.44084 0.86161 0.0
H1033 H 0.28491 0.43813 0.8291 0.0
H1034 H 0.26742 0.4787 0.93955 0.0
H1035 H 0.48215 0.44114 0.81772 0.0
H1036 H 0.51651 0.40155 0.84075 0.0
H1037 H 0.24964 0.455 0.90274 0.0
H1038 H 0.35057 0.52797 0.96488 0.0
N1039 N 0.32811 0.46209 0.86987 0.0
C1040 C 0.27604 0.44728 0.86412 0.0
C1041 C 0.29236 0.44584 0.84572 0.0
C1042 C 0.28584 0.45786 0.88547 0.0
C1043 C 0.31229 0.46564 0.88791 0.0
C1044 C 0.31841 0.45366 0.84885 0.0
N1045 N 0.34771 0.48806 0.91068 0.0
C1046 C 0.32235 0.4787 0.90883 0.0
C1047 C 0.3424 0.51405 0.94925 0.0
C1048 C 0.3166 0.50166 0.94799 0.0
C1049 C 0.35767 0.50804 0.93024 0.0
C1050 C 0.30618 0.48465 0.92757 0.0
H1051 H 0.30479 0.50651 0.96275 0.0
O1052 O 0.39068 0.54534 0.86371 0.0
O1053 O 0.40923 0.43743 0.86932 0.0
O1054 O 0.40684 0.36024 0.90187 0.0
O1055 O 0.37449 0.42267 0.90897 0.0
O1056 O 0.40794 0.4885 0.8971 0.0
O1057 O 0.3543 0.55475 0.87905 0.0
O1058 O 0.41033 0.30679 0.83256 0.0
O1059 O 0.3654 0.38999 0.86472 0.0
O1060 O 0.3732 0.47059 0.84035 0.0
O1061 O 0.39554 0.39189 0.83116 0.0
O1062 O 0.36872 0.31584 0.88075 0.0
O1063 O 0.39217 0.26437 0.85968 0.0
C1064 C 0.4227 0.45939 0.88459 0.0
C1065 C 0.28005 0.47487 0.92528 0.0
C1066 C 0.26992 0.46147 0.90431 0.0
C1067 C 0.37349 0.57962 0.87012 0.0
C1068 C 0.38263 0.62875 0.8819 0.0
C1069 C 0.3922 0.6244 0.90377 0.0
C1070 C 0.38171 0.68031 0.87156 0.0
C1071 C 0.38953 0.72701 0.88346 0.0
C1072 C 0.39984 0.67034 0.91555 0.0
C1073 C 0.39834 0.72131 0.90558 0.0
C1074 C 0.39091 0.38538 0.91554 0.0
C1075 C 0.35307 0.35368 0.87539 0.0
C1076 C 0.40241 0.26013 0.83996 0.0
C1077 C 0.41874 0.21194 0.83573 0.0
C1078 C 0.44205 0.21784 0.82452 0.0
C1079 C 0.41072 0.15937 0.8421 0.0
C1080 C 0.4257 0.11313 0.83708 0.0
C1081 C 0.45675 0.17265 0.81931 0.0
C1082 C 0.44862 0.12092 0.82527 0.0
C1083 C 0.38421 0.43805 0.82576 0.0
H1084 H 0.39383 0.58543 0.91176 0.0
H1085 H 0.37475 0.68415 0.85452 0.0
H1086 H 0.40707 0.66639 0.93248 0.0
H1087 H 0.40462 0.75635 0.91501 0.0
H1088 H 0.44887 0.25737 0.81947 0.0
H1089 H 0.39295 0.15478 0.85106 0.0
H1090 H 0.47448 0.1777 0.81036 0.0
H1091 H 0.46033 0.08693 0.82028 0.0
Gd1092 Gd 0.66043 0.56816 0.8827 0.0
Gd1093 Gd 0.62649 0.69293 0.86768 0.0
C1094 C 0.53946 0.68505 0.8686 0.0
C1095 C 0.52897 0.69976 0.8294 0.0
C1096 C 0.57306 0.7006 0.84168 0.0
C1097 C 0.56554 0.68954 0.86336 0.0
C1098 C 0.55481 0.7076 0.82457 0.0
C1099 C 0.5213 0.68848 0.8514 0.0
C1100 C 0.53235 0.67893 0.89105 0.0
C1101 C 0.55098 0.67942 0.90766 0.0
N1102 N 0.58362 0.68656 0.87956 0.0
C1103 C 0.57657 0.68379 0.90164 0.0
H1104 H 0.59043 0.68349 0.91487 0.0
C1105 C 0.60588 0.72948 0.81751 0.0
N1106 N 0.59808 0.70883 0.8377 0.0
C1107 C 0.5886 0.73637 0.79993 0.0
C1108 C 0.56298 0.72446 0.80335 0.0
H1109 H 0.62573 0.73855 0.81476 0.0
H1110 H 0.50124 0.68421 0.85507 0.0
H1111 H 0.68831 0.56192 0.83107 0.0
H1112 H 0.51255 0.67524 0.89576 0.0
H1113 H 0.54567 0.67589 0.92515 0.0
H1114 H 0.51471 0.70419 0.81642 0.0
H1115 H 0.67343 0.54382 0.93771 0.0
H1116 H 0.76729 0.5938 0.83822 0.0
H1117 H 0.73015 0.57347 0.81435 0.0
H1118 H 0.77912 0.60544 0.91755 0.0
H1119 H 0.59504 0.75095 0.78378 0.0
H1120 H 0.54957 0.73024 0.78977 0.0
H1121 H 0.78515 0.60805 0.87667 0.0
H1122 H 0.70882 0.55583 0.9641 0.0
N1123 N 0.70057 0.57646 0.86476 0.0
C1124 C 0.74876 0.58864 0.84584 0.0
C1125 C 0.72785 0.57722 0.83233 0.0
C1126 C 0.7456 0.59208 0.86906 0.0
C1127 C 0.72105 0.58477 0.87817 0.0
C1128 C 0.70387 0.57107 0.84207 0.0
N1129 N 0.6942 0.572 0.90918 0.0
C1130 C 0.71766 0.5835 0.9011 0.0
C1131 C 0.71152 0.56463 0.94647 0.0
C1132 C 0.73517 0.58134 0.93862 0.0
C1133 C 0.6914 0.55856 0.93138 0.0
C1134 C 0.73872 0.58924 0.91561 0.0
H1135 H 0.75084 0.58543 0.95029 0.0
O1136 O 0.65883 0.49119 0.90008 0.0
O1137 O 0.62258 0.60417 0.87413 0.0
O1138 O 0.63353 0.69193 0.9054 0.0
O1139 O 0.65105 0.60833 0.91523 0.0
O1140 O 0.6233 0.54836 0.89991 0.0
O1141 O 0.66354 0.49268 0.86404 0.0
O1142 O 0.6367 0.77326 0.8556 0.0
O1143 O 0.66459 0.65775 0.87679 0.0
O1144 O 0.64791 0.5631 0.84632 0.0
O1145 O 0.62732 0.64305 0.83578 0.0
O1146 O 0.66271 0.70658 0.84854 0.0
O1147 O 0.62131 0.76317 0.88898 0.0
C1148 C 0.60863 0.57863 0.88794 0.0
C1149 C 0.76284 0.60008 0.90666 0.0
C1150 C 0.76629 0.60138 0.8834 0.0
C1151 C 0.66217 0.46273 0.88197 0.0
C1152 C 0.67989 0.41705 0.88366 0.0
C1153 C 0.70551 0.42474 0.8891 0.0
C1154 C 0.67043 0.36448 0.88085 0.0
C1155 C 0.68612 0.31888 0.88418 0.0
C1156 C 0.72142 0.37995 0.892 0.0
C1157 C 0.71183 0.32739 0.88975 0.0
C1158 C 0.64183 0.65627 0.92026 0.0
C1159 C 0.67787 0.68058 0.86167 0.0
C1160 C 0.62876 0.79734 0.8737 0.0
C1161 C 0.6129 0.84572 0.87064 0.0
C1162 C 0.5865 0.84149 0.86795 0.0
C1163 C 0.62425 0.89706 0.87151 0.0
C1164 C 0.60926 0.9441 0.87037 0.0
C1165 C 0.57157 0.88817 0.86651 0.0
C1166 C 0.58282 0.93928 0.86792 0.0
C1167 C 0.63665 0.59446 0.83127 0.0
H1168 H 0.71308 0.46511 0.89135 0.0
H1169 H 0.65069 0.35943 0.87617 0.0
H1170 H 0.74117 0.38594 0.89638 0.0
H1171 H 0.72447 0.2936 0.89283 0.0
H1172 H 0.57742 0.80229 0.86732 0.0
H1173 H 0.64463 0.90044 0.87379 0.0
H1174 H 0.55119 0.88471 0.86456 0.0
H1175 H 0.57093 0.97507 0.86703 0.0
Gd1176 Gd 0.36771 0.57376 0.61795 0.0
Gd1177 Gd 0.40456 0.69214 0.63552 0.0
C1178 C 0.49011 0.68803 0.64866 0.0
C1179 C 0.49215 0.7039 0.68886 0.0
C1180 C 0.45133 0.70165 0.66977 0.0
C1181 C 0.46337 0.69121 0.64965 0.0
C1182 C 0.46561 0.70945 0.68953 0.0
C1183 C 0.50438 0.69316 0.66846 0.0
C1184 C 0.50172 0.68116 0.62774 0.0
C1185 C 0.48676 0.67932 0.60843 0.0
N1186 N 0.44899 0.68694 0.63083 0.0
C1187 C 0.46032 0.68303 0.61026 0.0
H1188 H 0.44911 0.68146 0.59516 0.0
C1189 C 0.41331 0.72464 0.6886 0.0
N1190 N 0.42572 0.70739 0.66975 0.0
C1191 C 0.42661 0.73264 0.70865 0.0
C1192 C 0.45284 0.72427 0.7092 0.0
H1193 H 0.39303 0.73102 0.68837 0.0
H1194 H 0.52492 0.69025 0.66807 0.0
H1195 H 0.32352 0.58481 0.65843 0.0
H1196 H 0.5222 0.6783 0.62628 0.0
H1197 H 0.49556 0.67487 0.59213 0.0
H1198 H 0.50343 0.7092 0.70391 0.0
H1199 H 0.37943 0.54143 0.56438 0.0
H1200 H 0.25039 0.59183 0.62735 0.0
H1201 H 0.27705 0.59302 0.66153 0.0
H1202 H 0.26896 0.56537 0.54936 0.0
H1203 H 0.41661 0.74513 0.72365 0.0
H1204 H 0.46311 0.73065 0.72473 0.0
H1205 H 0.24757 0.58192 0.58545 0.0
H1206 H 0.35583 0.53246 0.52872 0.0
N1207 N 0.32346 0.58045 0.62275 0.0
C1208 C 0.27083 0.58822 0.62587 0.0
C1209 C 0.28581 0.58881 0.64519 0.0
C1210 C 0.28238 0.58169 0.60489 0.0
C1211 C 0.30908 0.5774 0.60389 0.0
C1212 C 0.31222 0.58416 0.64334 0.0
N1213 N 0.34664 0.56171 0.58351 0.0
C1214 C 0.32104 0.56772 0.58363 0.0
C1215 C 0.34581 0.54244 0.54404 0.0
C1216 C 0.31955 0.55057 0.54373 0.0
C1217 C 0.3591 0.54736 0.56426 0.0
C1218 C 0.30677 0.56263 0.56372 0.0
H1219 H 0.30929 0.54656 0.52805 0.0
O1220 O 0.37764 0.49112 0.60864 0.0
O1221 O 0.40623 0.60443 0.62711 0.0
O1222 O 0.40354 0.68098 0.59735 0.0
O1223 O 0.36536 0.6367 0.59089 0.0
O1224 O 0.40471 0.55217 0.60041 0.0
O1225 O 0.35691 0.50673 0.63942 0.0
O1226 O 0.39064 0.77339 0.64245 0.0
O1227 O 0.36575 0.66171 0.62648 0.0
O1228 O 0.36956 0.58161 0.65589 0.0
O1229 O 0.40611 0.63113 0.66391 0.0
O1230 O 0.36824 0.71087 0.65418 0.0
O1231 O 0.41671 0.76033 0.61499 0.0
C1232 C 0.4199 0.57923 0.61308 0.0
C1233 C 0.28026 0.5688 0.56449 0.0
C1234 C 0.26808 0.57826 0.58504 0.0
C1235 C 0.3662 0.46999 0.62595 0.0
C1236 C 0.3503 0.42194 0.62172 0.0
C1237 C 0.32436 0.42732 0.61682 0.0
C1238 C 0.3611 0.36984 0.62322 0.0
C1239 C 0.34597 0.32325 0.62034 0.0
C1240 C 0.30933 0.38138 0.61375 0.0
C1241 C 0.31997 0.32969 0.61562 0.0
C1242 C 0.38447 0.66694 0.58403 0.0
C1243 C 0.35257 0.68536 0.64141 0.0
C1244 C 0.4043 0.79599 0.62687 0.0
C1245 C 0.41815 0.84524 0.63363 0.0
C1246 C 0.44134 0.84124 0.64503 0.0
C1247 C 0.40757 0.89675 0.62951 0.0
C1248 C 0.41992 0.94429 0.637 0.0
C1249 C 0.45365 0.88776 0.65255 0.0
C1250 C 0.44303 0.93877 0.64875 0.0
C1251 C 0.38828 0.5957 0.66957 0.0
H1252 H 0.31568 0.46691 0.61558 0.0
H1253 H 0.38111 0.36557 0.62715 0.0
H1254 H 0.28931 0.38584 0.61002 0.0
H1255 H 0.3079 0.29468 0.61316 0.0
H1256 H 0.44984 0.80223 0.64827 0.0
H1257 H 0.3898 0.89952 0.62041 0.0
H1258 H 0.47142 0.88424 0.66158 0.0
H1259 H 0.45282 0.9738 0.65538 0.0
Gd1260 Gd 0.65879 0.46605 0.62244 0.0
Gd1261 Gd 0.62215 0.34597 0.63815 0.0
C1262 C 0.53621 0.34536 0.64956 0.0
C1263 C 0.5333 0.3258 0.68943 0.0
C1264 C 0.57455 0.33151 0.67122 0.0
C1265 C 0.56295 0.34339 0.65105 0.0
C1266 C 0.55987 0.32144 0.69057 0.0
C1267 C 0.52149 0.33776 0.66896 0.0
C1268 C 0.52507 0.35339 0.62852 0.0
C1269 C 0.54049 0.3574 0.60957 0.0
N1270 N 0.57778 0.35003 0.63263 0.0
C1271 C 0.56691 0.35481 0.61189 0.0
H1272 H 0.57841 0.35794 0.59702 0.0
C1273 C 0.61234 0.30929 0.69055 0.0
N1274 N 0.6002 0.32712 0.67165 0.0
C1275 C 0.59864 0.29901 0.71019 0.0
C1276 C 0.5723 0.30578 0.71029 0.0
H1277 H 0.63271 0.30428 0.69066 0.0
H1278 H 0.50094 0.3397 0.66818 0.0
H1279 H 0.70278 0.45556 0.663 0.0
H1280 H 0.50461 0.35535 0.62667 0.0
H1281 H 0.53206 0.36262 0.59315 0.0
H1282 H 0.5217 0.31869 0.70416 0.0
H1283 H 0.64802 0.50467 0.56934 0.0
H1284 H 0.77581 0.44151 0.63202 0.0
H1285 H 0.7492 0.44457 0.6662 0.0
H1286 H 0.75776 0.46906 0.554 0.0
H1287 H 0.6084 0.28601 0.72524 0.0
H1288 H 0.56171 0.29767 0.72551 0.0
H1289 H 0.77878 0.44995 0.59005 0.0
H1290 H 0.67184 0.51311 0.53378 0.0
N1291 N 0.70296 0.45769 0.62731 0.0
C1292 C 0.75543 0.44644 0.6305 0.0
C1293 C 0.74048 0.44834 0.64983 0.0
C1294 C 0.74398 0.45287 0.60947 0.0
C1295 C 0.71738 0.45904 0.60844 0.0
C1296 C 0.71415 0.45461 0.64794 0.0
N1297 N 0.68019 0.47903 0.58817 0.0
C1298 C 0.70563 0.47024 0.58822 0.0
C1299 C 0.68157 0.50092 0.54896 0.0
C1300 C 0.70757 0.48956 0.54851 0.0
C1301 C 0.66815 0.49631 0.56913 0.0
C1302 C 0.72002 0.47491 0.56837 0.0
H1303 H 0.71793 0.49338 0.53289 0.0
O1304 O 0.6468 0.5482 0.61479 0.0
O1305 O 0.62012 0.43445 0.63097 0.0
O1306 O 0.62345 0.3598 0.60011 0.0
O1307 O 0.66142 0.40544 0.59445 0.0
O1308 O 0.6222 0.48767 0.60448 0.0
O1309 O 0.67193 0.53337 0.64291 0.0
O1310 O 0.63365 0.26317 0.64567 0.0
O1311 O 0.66075 0.37801 0.63013 0.0
O1312 O 0.656 0.45679 0.66043 0.0
O1313 O 0.61989 0.40471 0.66731 0.0
O1314 O 0.65862 0.3259 0.65674 0.0
O1315 O 0.6137 0.28099 0.61479 0.0
C1316 C 0.6068 0.45999 0.61673 0.0
C1317 C 0.74638 0.46613 0.5691 0.0
C1318 C 0.75834 0.45517 0.58963 0.0
C1319 C 0.66057 0.5698 0.63059 0.0
C1320 C 0.67552 0.61766 0.62402 0.0
C1321 C 0.6993 0.61175 0.61376 0.0
C1322 C 0.66538 0.66987 0.62724 0.0
C1323 C 0.67871 0.71631 0.61995 0.0
C1324 C 0.71268 0.65725 0.60656 0.0
C1325 C 0.70248 0.70904 0.60946 0.0
C1326 C 0.64251 0.37539 0.58706 0.0
C1327 C 0.6741 0.35368 0.64466 0.0
C1328 C 0.62303 0.24332 0.62774 0.0
C1329 C 0.60747 0.19429 0.63083 0.0
C1330 C 0.58121 0.19825 0.63452 0.0
C1331 C 0.61892 0.14279 0.62964 0.0
C1332 C 0.60413 0.09546 0.63162 0.0
C1333 C 0.56652 0.15155 0.63673 0.0
C1334 C 0.57782 0.10049 0.63517 0.0
C1335 C 0.63738 0.44012 0.67378 0.0
H1336 H 0.70745 0.57207 0.61117 0.0
H1337 H 0.64714 0.67403 0.63549 0.0
H1338 H 0.73094 0.65233 0.59844 0.0
H1339 H 0.71309 0.74325 0.60309 0.0
H1340 H 0.57201 0.23732 0.63551 0.0
H1341 H 0.63918 0.13957 0.62667 0.0
H1342 H 0.54627 0.15495 0.63955 0.0
H1343 H 0.56602 0.06484 0.63694 0.0
H1344 H 0.20454 0.23971 0.17554 0.0
H1345 H 0.2105 0.19505 0.10588 0.0
H1346 H 0.24558 0.28325 0.17384 0.0
H1347 H 0.25313 0.23609 0.10434 0.0
H1348 H 0.32919 0.31211 0.1748 0.0
H1349 H 0.28804 0.26913 0.17365 0.0
H1350 H 0.27968 0.31538 0.10411 0.0
H1351 H 0.32245 0.35594 0.10511 0.0
C1352 C 0.21496 0.2381 0.15987 0.0
C1353 C 0.20425 0.21252 0.14104 0.0
C1354 C 0.23886 0.26299 0.15889 0.0
C1355 C 0.25348 0.26301 0.13904 0.0
C1356 C 0.24271 0.23752 0.11998 0.0
C1357 C 0.21836 0.21302 0.12092 0.0
C1358 C 0.31858 0.31365 0.15923 0.0
C1359 C 0.32915 0.3387 0.14022 0.0
C1360 C 0.2946 0.28909 0.15857 0.0
C1361 C 0.27973 0.28891 0.13888 0.0
C1362 C 0.2903 0.31405 0.11965 0.0
C1363 C 0.31475 0.33825 0.12026 0.0
H1364 H 0.828 0.81903 0.1808 0.0
H1365 H 0.82506 0.84422 0.10941 0.0
H1366 H 0.78704 0.77504 0.17972 0.0
H1367 H 0.7824 0.80487 0.10832 0.0
H1368 H 0.71017 0.69882 0.10957 0.0
H1369 H 0.75344 0.73569 0.10898 0.0
H1370 H 0.74526 0.78109 0.17872 0.0
H1371 H 0.70376 0.74003 0.17952 0.0
C1372 C 0.81818 0.81658 0.16485 0.0
C1373 C 0.82965 0.83729 0.14537 0.0
C1374 C 0.79424 0.79153 0.16418 0.0
C1375 C 0.78027 0.78683 0.144 0.0
C1376 C 0.79203 0.807 0.12432 0.0
C1377 C 0.81647 0.83093 0.12495 0.0
C1378 C 0.71809 0.71514 0.1249 0.0
C1379 C 0.70363 0.71457 0.1448 0.0
C1380 C 0.74289 0.73752 0.12453 0.0
C1381 C 0.75377 0.76158 0.14389 0.0
C1382 C 0.73872 0.76172 0.16353 0.0
C1383 C 0.71444 0.73838 0.16399 0.0
H1384 H 0.31941 0.6924 0.39419 0.0
H1385 H 0.32639 0.73627 0.32455 0.0
H1386 H 0.27653 0.732 0.395 0.0
H1387 H 0.28521 0.77917 0.32555 0.0
H1388 H 0.20262 0.81862 0.32369 0.0
H1389 H 0.24302 0.77185 0.32481 0.0
H1390 H 0.24938 0.80665 0.39569 0.0
H1391 H 0.20734 0.8496 0.39465 0.0
C1392 C 0.31171 0.7099 0.37898 0.0
C1393 C 0.32624 0.70963 0.35911 0.0
C1394 C 0.28717 0.73369 0.37949 0.0
C1395 C 0.27662 0.75904 0.36026 0.0
C1396 C 0.29162 0.75901 0.34063 0.0
C1397 C 0.31568 0.73456 0.34005 0.0
C1398 C 0.21267 0.81666 0.33953 0.0
C1399 C 0.2019 0.83975 0.35888 0.0
C1400 C 0.23624 0.78997 0.34021 0.0
C1401 C 0.25047 0.78583 0.36026 0.0
C1402 C 0.23942 0.80833 0.37983 0.0
C1403 C 0.21538 0.83416 0.3792 0.0
H1404 H 0.82206 0.20144 0.39681 0.0
H1405 H 0.82655 0.24005 0.32646 0.0
H1406 H 0.77906 0.24061 0.39825 0.0
H1407 H 0.78525 0.28247 0.32804 0.0
H1408 H 0.70189 0.3122 0.32749 0.0
H1409 H 0.74314 0.26966 0.32864 0.0
H1410 H 0.75147 0.31673 0.39812 0.0
H1411 H 0.70847 0.35612 0.39719 0.0
C1412 C 0.81378 0.21759 0.38159 0.0
C1413 C 0.82758 0.21584 0.36132 0.0
C1414 C 0.7892 0.24116 0.38246 0.0
C1415 C 0.77794 0.26471 0.36319 0.0
C1416 C 0.79228 0.26355 0.34318 0.0
C1417 C 0.81636 0.23935 0.34226 0.0
C1418 C 0.71252 0.31397 0.34304 0.0
C1419 C 0.70188 0.33895 0.36205 0.0
C1420 C 0.73658 0.28972 0.34371 0.0
C1421 C 0.75153 0.29001 0.36336 0.0
C1422 C 0.74085 0.31503 0.38259 0.0
C1423 C 0.71627 0.33865 0.38201 0.0
H1424 H 0.70385 0.71563 0.89961 0.0
H1425 H 0.71184 0.69456 0.82834 0.0
H1426 H 0.74462 0.76292 0.90085 0.0
H1427 H 0.75331 0.73544 0.82945 0.0
H1428 H 0.81962 0.84501 0.82789 0.0
H1429 H 0.77809 0.80433 0.82913 0.0
H1430 H 0.78589 0.78226 0.90093 0.0
H1431 H 0.82675 0.82915 0.89946 0.0
C1432 C 0.71474 0.71968 0.88428 0.0
C1433 C 0.70466 0.70055 0.86389 0.0
C1434 C 0.73837 0.74706 0.88489 0.0
C1435 C 0.75296 0.7554 0.86515 0.0
C1436 C 0.74297 0.73342 0.84506 0.0
C1437 C 0.7191 0.70825 0.84438 0.0
C1438 C 0.81218 0.83238 0.84402 0.0
C1439 C 0.82645 0.84119 0.86355 0.0
C1440 C 0.78825 0.80745 0.8448 0.0
C1441 C 0.77801 0.78699 0.86507 0.0
C1442 C 0.79235 0.79685 0.88483 0.0
C1443 C 0.81603 0.82402 0.8841 0.0
H1444 H 0.32896 0.32333 0.83689 0.0
H1445 H 0.31647 0.34399 0.90766 0.0
H1446 H 0.28738 0.28132 0.83305 0.0
H1447 H 0.27391 0.30564 0.90397 0.0
H1448 H 0.2055 0.1937 0.89634 0.0
H1449 H 0.24782 0.23309 0.90022 0.0
H1450 H 0.24503 0.28365 0.83077 0.0
H1451 H 0.20408 0.24004 0.82673 0.0
C1452 C 0.31681 0.3207 0.85152 0.0
C1453 C 0.32572 0.3389 0.87242 0.0
C1454 C 0.29273 0.29639 0.84941 0.0
C1455 C 0.27647 0.28954 0.86815 0.0
C1456 C 0.28551 0.30868 0.88905 0.0
C1457 C 0.30988 0.33186 0.89119 0.0
C1458 C 0.21434 0.21174 0.88176 0.0
C1459 C 0.20157 0.2119 0.86101 0.0
C1460 C 0.23859 0.23571 0.88405 0.0
C1461 C 0.2506 0.26231 0.86583 0.0
C1462 C 0.23738 0.26281 0.84521 0.0
C1463 C 0.21352 0.2379 0.84286 0.0
H1464 H 0.70084 0.32299 0.60654 0.0
H1465 H 0.70807 0.33984 0.67805 0.0
H1466 H 0.74206 0.27781 0.60497 0.0
H1467 H 0.74993 0.30076 0.67676 0.0
H1468 H 0.81876 0.19739 0.67725 0.0
H1469 H 0.77693 0.23655 0.67667 0.0
H1470 H 0.78257 0.25604 0.60454 0.0
H1471 H 0.82381 0.21068 0.60547 0.0
C1472 C 0.71165 0.31839 0.62189 0.0
C1473 C 0.70116 0.33542 0.64243 0.0
C1474 C 0.73558 0.29215 0.6211 0.0
C1475 C 0.75015 0.28304 0.64081 0.0
C1476 C 0.73975 0.30327 0.66109 0.0
C1477 C 0.71557 0.32729 0.66193 0.0
C1478 C 0.81078 0.20919 0.66121 0.0
C1479 C 0.82459 0.20007 0.64144 0.0
C1480 C 0.78662 0.23327 0.66078 0.0
C1481 C 0.7756 0.25256 0.64061 0.0
C1482 C 0.78955 0.24244 0.62062 0.0
C1483 C 0.81348 0.2161 0.62103 0.0
H1484 H 0.20085 0.80309 0.67635 0.0
H1485 H 0.20542 0.84387 0.60623 0.0
H1486 H 0.24182 0.75974 0.67449 0.0
H1487 H 0.24833 0.80461 0.60458 0.0
H1488 H 0.31969 0.69296 0.6044 0.0
H1489 H 0.27665 0.73179 0.60379 0.0
H1490 H 0.28359 0.7687 0.67446 0.0
H1491 H 0.3247 0.72586 0.67521 0.0
C1492 C 0.21103 0.8042 0.66055 0.0
C1493 C 0.19991 0.8286 0.64165 0.0
C1494 C 0.23499 0.77951 0.65947 0.0
C1495 C 0.24941 0.77901 0.63949 0.0
C1496 C 0.2382 0.80347 0.62037 0.0
C1497 C 0.21367 0.8272 0.62137 0.0
C1498 C 0.31151 0.70776 0.61989 0.0
C1499 C 0.32545 0.70438 0.64004 0.0
C1500 C 0.28689 0.73124 0.61952 0.0
C1501 C 0.27579 0.7534 0.63916 0.0
C1502 C 0.29035 0.75075 0.65903 0.0
C1503 C 0.31438 0.72634 0.65947 0.0
H1504 H 0.16978 0.03466 0.31345 0.0
H1505 H 0.10866 0.92596 0.29593 0.0
H1506 H 0.16763 0.07476 0.27605 0.0
H1507 H 0.10754 0.96442 0.25821 0.0
H1508 H 0.14346 1.00497 0.18677 0.0
H1509 H 0.14199 0.96777 0.2248 0.0
H1510 H 0.13249 0.12886 0.25158 0.0
H1511 H 0.13349 0.16605 0.21337 0.0
C1512 C 0.15602 1.01882 0.30166 0.0
C1513 C 0.13975 0.97593 0.30772 0.0
C1514 C 0.15474 0.04212 0.28025 0.0
C1515 C 0.1375 1.02256 0.26422 0.0
C1516 C 0.12119 0.97994 0.27019 0.0
C1517 C 0.12204 0.95749 0.29178 0.0
C1518 C 0.14086 0.03242 0.20077 0.0
C1519 C 0.1384 0.08843 0.1971 0.0
C1520 C 0.1399 1.01108 0.2225 0.0
C1521 C 0.13711 0.04541 0.24112 0.0
C1522 C 0.13467 0.1015 0.2375 0.0
C1523 C 0.13501 0.12276 0.21565 0.0
H1524 H 0.92324 0.13425 0.29466 0.0
H1525 H 0.85855 0.03442 0.31134 0.0
H1526 H 0.92329 0.09634 0.25667 0.0
H1527 H 0.8594 0.99545 0.27387 0.0
H1528 H 0.89049 0.89525 0.21369 0.0
H1529 H 0.89154 0.93548 0.2512 0.0
H1530 H 0.89124 0.0952 0.22186 0.0
H1531 H 0.88996 0.05481 0.18426 0.0
C1532 C 0.90893 0.10474 0.29028 0.0
C1533 C 0.89069 0.08818 0.30613 0.0
C1534 C 0.90905 0.08283 0.26853 0.0
C1535 C 0.89137 0.04285 0.26233 0.0
C1536 C 0.87336 0.0259 0.2782 0.0
C1537 C 0.87288 0.04853 0.29971 0.0
C1538 C 0.89095 0.93885 0.21522 0.0
C1539 C 0.89035 0.9718 0.19603 0.0
C1540 C 0.89133 0.96192 0.2367 0.0
C1541 C 0.89159 1.01851 0.23946 0.0
C1542 C 0.89127 0.0515 0.22025 0.0
C1543 C 0.89035 0.02839 0.19876 0.0
H1544 H 0.85086 0.0425 0.69538 0.0
H1545 H 0.92726 0.10304 0.70379 0.0
H1546 H 0.852 1.00506 0.73305 0.0
H1547 H 0.92821 0.06583 0.74188 0.0
H1548 H 0.92781 0.93904 0.80017 0.0
H1549 H 0.9283 0.97643 0.7621 0.0
H1550 H 0.85227 0.03796 0.77176 0.0
H1551 H 0.85158 1.00035 0.80942 0.0
C1552 C 0.86791 0.04812 0.70528 0.0
C1553 C 0.88892 0.07616 0.6965 0.0
C1554 C 0.8685 0.02677 0.72698 0.0
C1555 C 0.89016 0.03252 0.74056 0.0
C1556 C 0.91129 0.0603 0.73181 0.0
C1557 C 0.91065 0.08208 0.71004 0.0
C1558 C 0.91114 0.96023 0.7941 0.0
C1559 C 0.8896 0.9663 0.80788 0.0
C1560 C 0.91153 0.9821 0.77236 0.0
C1561 C 0.89031 1.01013 0.76384 0.0
C1562 C 0.86883 1.01607 0.77764 0.0
C1563 C 0.8685 0.99461 0.79934 0.0
H1564 H 0.13069 0.15796 0.78764 0.0
H1565 H 0.14045 0.99956 0.81688 0.0
H1566 H 0.12895 0.11705 0.75014 0.0
H1567 H 0.13824 0.95857 0.77949 0.0
H1568 H 0.10446 0.9119 0.70825 0.0
H1569 H 0.10346 0.95263 0.74572 0.0
H1570 H 0.1642 0.06041 0.72693 0.0
H1571 H 0.16616 1.01845 0.68999 0.0
C1572 C 0.13201 0.11446 0.78609 0.0
C1573 C 0.13559 0.08201 0.80518 0.0
C1574 C 0.13121 0.09105 0.76465 0.0
C1575 C 0.13337 0.0346 0.76194 0.0
C1576 C 0.13633 1.00209 0.78109 0.0
C1577 C 0.13775 0.02561 0.80244 0.0
C1578 C 0.11788 0.9436 0.71216 0.0
C1579 C 0.13567 0.96099 0.69607 0.0
C1580 C 0.11717 0.96719 0.73359 0.0
C1581 C 0.1337 1.0098 0.73918 0.0
C1582 C 0.15111 0.02791 0.72303 0.0
C1583 C 0.15226 1.00353 0.70185 0.0
H1584 H 0.6686 0.52122 0.31199 0.0
H1585 H 0.60428 0.4194 0.29621 0.0
H1586 H 0.66612 0.5619 0.27494 0.0
H1587 H 0.60271 0.45897 0.25848 0.0
H1588 H 0.639 0.50302 0.18611 0.0
H1589 H 0.63658 0.46198 0.22351 0.0
H1590 H 0.63094 0.62102 0.2531 0.0
H1591 H 0.63297 0.66193 0.21567 0.0
C1592 C 0.65398 0.50708 0.30065 0.0
C1593 C 0.63675 0.4664 0.30719 0.0
C1594 C 0.65256 0.53073 0.2794 0.0
C1595 C 0.63422 0.5137 0.26389 0.0
C1596 C 0.61712 0.47268 0.27015 0.0
C1597 C 0.61813 0.4498 0.2917 0.0
C1598 C 0.63703 0.52914 0.20062 0.0
C1599 C 0.63602 0.58571 0.19801 0.0
C1600 C 0.63546 0.50564 0.22196 0.0
C1601 C 0.63349 0.53833 0.24115 0.0
C1602 C 0.63237 0.59491 0.23854 0.0
C1603 C 0.63335 0.61834 0.21714 0.0
H1604 H 0.4302 0.60914 0.29822 0.0
H1605 H 0.35433 0.54556 0.30675 0.0
H1606 H 0.43198 0.56872 0.26063 0.0
H1607 H 0.35638 0.50487 0.26984 0.0
H1608 H 0.35518 0.4979 0.19419 0.0
H1609 H 0.35629 0.53738 0.23133 0.0
H1610 H 0.43266 0.47757 0.24078 0.0
H1611 H 0.4318 0.43826 0.20294 0.0
C1612 C 0.41391 0.58682 0.29211 0.0
C1613 C 0.39203 0.58114 0.30549 0.0
C1614 C 0.41505 0.56319 0.27068 0.0
C1615 C 0.39427 0.53376 0.26219 0.0
C1616 C 0.37258 0.5279 0.27569 0.0
C1617 C 0.37146 0.55121 0.29698 0.0
C1618 C 0.37228 0.49281 0.20407 0.0
C1619 C 0.39337 0.46448 0.19552 0.0
C1620 C 0.37285 0.51541 0.2255 0.0
C1621 C 0.3945 0.51044 0.23911 0.0
C1622 C 0.41574 0.48238 0.23064 0.0
C1623 C 0.41515 0.45942 0.20906 0.0
H1624 H 0.38353 0.54244 0.81187 0.0
H1625 H 0.38809 0.37858 0.78668 0.0
H1626 H 0.38645 0.57733 0.7738 0.0
H1627 H 0.39039 0.41417 0.74812 0.0
H1628 H 0.35696 0.51656 0.68598 0.0
H1629 H 0.35778 0.47437 0.72293 0.0
H1630 H 0.4217 0.57379 0.7415 0.0
H1631 H 0.42172 0.61475 0.70416 0.0
C1632 C 0.38493 0.51374 0.79817 0.0
C1633 C 0.38534 0.45761 0.80228 0.0
C1634 C 0.38684 0.53389 0.77638 0.0
C1635 C 0.38874 0.49848 0.75809 0.0
C1636 C 0.38894 0.44226 0.76202 0.0
C1637 C 0.38762 0.42196 0.78401 0.0
C1638 C 0.37135 0.5294 0.6978 0.0
C1639 C 0.38903 0.56999 0.69212 0.0
C1640 C 0.37187 0.50482 0.71893 0.0
C1641 C 0.38976 0.52087 0.73502 0.0
C1642 C 0.40761 0.56092 0.72938 0.0
C1643 C 0.40746 0.58471 0.70805 0.0
H1644 H 0.63573 0.65104 0.79172 0.0
H1645 H 0.6328 0.48869 0.81845 0.0
H1646 H 0.63475 0.61433 0.75353 0.0
H1647 H 0.63153 0.45215 0.78031 0.0
H1648 H 0.60308 0.41702 0.70734 0.0
H1649 H 0.60162 0.45431 0.7453 0.0
H1650 H 0.66622 0.55524 0.73028 0.0
H1651 H 0.66838 0.51681 0.69264 0.0
C1652 C 0.63446 0.60764 0.78946 0.0
C1653 C 0.63424 0.57283 0.80812 0.0
C1654 C 0.63412 0.5866 0.7676 0.0
C1655 C 0.63308 0.53035 0.76393 0.0
C1656 C 0.63217 0.49565 0.7826 0.0
C1657 C 0.63302 0.51661 0.80443 0.0
C1658 C 0.61724 0.44646 0.71217 0.0
C1659 C 0.63613 0.46298 0.69692 0.0
C1660 C 0.61629 0.46807 0.73392 0.0
C1661 C 0.63379 0.50774 0.74076 0.0
C1662 C 0.65236 0.52504 0.72544 0.0
C1663 C 0.65364 0.50269 0.70387 0.0
H1664 H 0.10361 0.17156 0.94401 0.0
H1665 H 0.18533 0.18218 0.9423 0.0
H1666 H 0.1045 0.17624 0.98491 0.0
H1667 H 0.1864 0.19065 0.98288 0.0
H1668 H 0.18455 0.13306 0.0545 0.0
H1669 H 0.18291 0.1389 0.01416 0.0
H1670 H 0.11061 0.22183 0.01851 0.0
H1671 H 0.11133 0.21121 0.0592 0.0
C1672 C 0.12171 0.17648 0.95239 0.0
C1673 C 0.14439 0.17632 0.94001 0.0
C1674 C 0.12229 0.17932 0.9759 0.0
C1675 C 0.14557 0.18313 0.98754 0.0
C1676 C 0.16811 0.186 0.97482 0.0
C1677 C 0.16754 0.18184 0.95145 0.0
C1678 C 0.16806 0.15175 0.04693 0.0
C1679 C 0.14773 0.17004 0.06021 0.0
C1680 C 0.16734 0.15624 0.02359 0.0
C1681 C 0.14658 0.18087 0.01269 0.0
C1682 C 0.1267 0.2015 0.02608 0.0
C1683 C 0.12721 0.19593 0.04953 0.0
H1684 H 0.84819 0.90253 0.94973 0.0
H1685 H 0.92415 0.83811 0.94342 0.0
H1686 H 0.85036 0.89273 0.98996 0.0
H1687 H 0.92573 0.82428 0.98402 0.0
H1688 H 0.93022 0.87612 0.05924 0.0
H1689 H 0.92975 0.87168 0.01828 0.0
H1690 H 0.84952 0.83424 0.02001 0.0
H1691 H 0.84999 0.84161 0.0607 0.0
C1692 C 0.86538 0.88585 0.95691 0.0
C1693 C 0.88622 0.87239 0.94325 0.0
C1694 C 0.86647 0.87923 0.98014 0.0
C1695 C 0.88823 0.8575 0.99053 0.0
C1696 C 0.90879 0.84195 0.97677 0.0
C1697 C 0.90781 0.84939 0.95341 0.0
C1698 C 0.91269 0.86565 0.05081 0.0
C1699 C 0.89016 0.85905 0.06311 0.0
C1700 C 0.91235 0.86317 0.02728 0.0
C1701 C 0.88951 0.85337 0.01559 0.0
C1702 C 0.86736 0.84341 0.0282 0.0
C1703 C 0.86763 0.84689 0.0516 0.0
H1704 H 0.10436 0.83908 0.44294 0.0
H1705 H 0.18229 0.89174 0.44776 0.0
H1706 H 0.10328 0.8257 0.4835 0.0
H1707 H 0.18063 0.88395 0.48795 0.0
H1708 H 0.18054 0.84311 0.5597 0.0
H1709 H 0.1808 0.83315 0.51916 0.0
H1710 H 0.10037 0.86989 0.51746 0.0
H1711 H 0.10006 0.87519 0.55836 0.0
C1712 C 0.12122 0.84811 0.4526 0.0
C1713 C 0.14317 0.86811 0.44204 0.0
C1714 C 0.12055 0.84103 0.476 0.0
C1715 C 0.14175 0.85427 0.48943 0.0
C1716 C 0.16393 0.8723 0.47856 0.0
C1717 C 0.16474 0.87802 0.45529 0.0
C1718 C 0.16285 0.84786 0.5506 0.0
C1719 C 0.14028 0.8597 0.5621 0.0
C1720 C 0.16298 0.84295 0.52725 0.0
C1721 C 0.1407 0.85184 0.51461 0.0
C1722 C 0.1179 0.86201 0.52636 0.0
C1723 C 0.11767 0.86528 0.54986 0.0
H1724 H 0.84567 0.13707 0.55493 0.0
H1725 H 0.92064 0.20633 0.56067 0.0
H1726 H 0.8475 0.14576 0.51472 0.0
H1727 H 0.92168 0.21989 0.52006 0.0
H1728 H 0.92717 0.1727 0.44482 0.0
H1729 H 0.92661 0.17587 0.48579 0.0
H1730 H 0.84521 0.20045 0.48424 0.0
H1731 H 0.84584 0.19332 0.44361 0.0
C1732 C 0.86257 0.15459 0.54762 0.0
C1733 C 0.88328 0.16955 0.56112 0.0
C1734 C 0.86344 0.16069 0.52436 0.0
C1735 C 0.88476 0.18373 0.51377 0.0
C1736 C 0.90511 0.20101 0.5274 0.0
C1737 C 0.90442 0.1938 0.55079 0.0
C1738 C 0.90928 0.17959 0.45334 0.0
C1739 C 0.88655 0.18259 0.44109 0.0
C1740 C 0.9089 0.18155 0.47688 0.0
C1741 C 0.8858 0.18759 0.48865 0.0
C1742 C 0.86331 0.19392 0.47606 0.0
C1743 C 0.86365 0.19059 0.45267 0.0
H1744 H 0.60314 0.68636 0.06213 0.0
H1745 H 0.68491 0.67575 0.05818 0.0
H1746 H 0.60076 0.69087 0.02118 0.0
H1747 H 0.68246 0.68136 0.0172 0.0
H1748 H 0.66405 0.73901 0.94351 0.0
H1749 H 0.66452 0.75097 0.98459 0.0
H1750 H 0.61521 0.61261 0.99181 0.0
H1751 H 0.61548 0.59975 0.95105 0.0
C1752 C 0.62062 0.68626 0.05259 0.0
C1753 C 0.6442 0.68063 0.0634 0.0
C1754 C 0.61923 0.6886 0.02915 0.0
C1755 C 0.64143 0.68662 0.01609 0.0
C1756 C 0.66508 0.68351 0.02691 0.0
C1757 C 0.66645 0.68005 0.05033 0.0
C1758 C 0.65303 0.7119 0.95396 0.0
C1759 C 0.63959 0.66873 0.94432 0.0
C1760 C 0.65341 0.71848 0.97736 0.0
C1761 C 0.63981 0.6828 0.99129 0.0
C1762 C 0.62564 0.64094 0.98144 0.0
C1763 C 0.62581 0.63355 0.9582 0.0
H1764 H 0.35014 0.36829 0.9419 0.0
H1765 H 0.43193 0.37452 0.94344 0.0
H1766 H 0.34902 0.35753 0.98234 0.0
H1767 H 0.43108 0.36857 0.98442 0.0
H1768 H 0.42354 0.33662 0.05908 0.0
H1769 H 0.42465 0.32519 0.01838 0.0
H1770 H 0.35257 0.40886 0.01332 0.0
H1771 H 0.35044 0.415 0.05351 0.0
C1772 C 0.36793 0.3673 0.95105 0.0
C1773 C 0.3911 0.37246 0.93968 0.0
C1774 C 0.36736 0.36191 0.97434 0.0
C1775 C 0.38993 0.36368 0.98705 0.0
C1776 C 0.41326 0.36663 0.97542 0.0
C1777 C 0.41383 0.3703 0.95191 0.0
C1778 C 0.40777 0.3517 0.04921 0.0
C1779 C 0.38715 0.37782 0.05964 0.0
C1780 C 0.40852 0.34571 0.02578 0.0
C1781 C 0.38879 0.36625 0.01219 0.0
C1782 C 0.36799 0.3913 0.02287 0.0
C1783 C 0.36699 0.39602 0.04616 0.0
H1784 H 0.68169 0.40829 0.44859 0.0
H1785 H 0.60707 0.33694 0.44355 0.0
H1786 H 0.68024 0.40016 0.48884 0.0
H1787 H 0.60644 0.32406 0.48418 0.0
H1788 H 0.60124 0.37318 0.55919 0.0
H1789 H 0.60155 0.36917 0.51825 0.0
H1790 H 0.68302 0.34562 0.51946 0.0
H1791 H 0.68263 0.35343 0.56009 0.0
C1792 C 0.66495 0.39045 0.45606 0.0
C1793 C 0.64421 0.37469 0.44274 0.0
C1794 C 0.66431 0.38469 0.47934 0.0
C1795 C 0.64321 0.36128 0.49012 0.0
C1796 C 0.62285 0.34325 0.47668 0.0
C1797 C 0.62329 0.35009 0.45328 0.0
C1798 C 0.6191 0.36628 0.55061 0.0
C1799 C 0.64191 0.36377 0.56275 0.0
C1800 C 0.61933 0.36386 0.52708 0.0
C1801 C 0.64237 0.35786 0.51523 0.0
C1802 C 0.66496 0.35203 0.52772 0.0
C1803 C 0.66476 0.35578 0.5511 0.0
H1804 H 0.42582 0.66983 0.55635 0.0
H1805 H 0.34464 0.69306 0.55744 0.0
H1806 H 0.42562 0.67681 0.51548 0.0
H1807 H 0.34439 0.70397 0.51693 0.0
H1808 H 0.34544 0.64268 0.44576 0.0
H1809 H 0.34676 0.65007 0.48603 0.0
H1810 H 0.42104 0.72426 0.48187 0.0
H1811 H 0.42051 0.71216 0.44119 0.0
C1812 C 0.40806 0.67817 0.54784 0.0
C1813 C 0.38524 0.68068 0.55996 0.0
C1814 C 0.40788 0.68234 0.52438 0.0
C1815 C 0.38491 0.69015 0.51262 0.0
C1816 C 0.36237 0.69619 0.52513 0.0
C1817 C 0.36249 0.69065 0.54843 0.0
C1818 C 0.36223 0.66004 0.45335 0.0
C1819 C 0.38315 0.67536 0.44017 0.0
C1820 C 0.36281 0.66536 0.47662 0.0
C1821 C 0.38403 0.68787 0.48753 0.0
C1822 C 0.40454 0.70574 0.47423 0.0
C1823 C 0.40415 0.69934 0.45083 0.0
H1824 H 0.95445 0.99417 0.08209 0.0
H1825 H 0.95517 0.96845 0.1535 0.0
H1826 H 0.9978 0.02643 0.08343 0.0
H1827 H 0.99983 0.99673 0.15492 0.0
H1828 H 0.07705 0.08699 0.15314 0.0
H1829 H 0.03221 0.05982 0.15386 0.0
H1830 H 0.0389 1.00509 0.08517 0.0
H1831 H 0.08238 0.03636 0.08419 0.0
C1832 C 0.96416 0.99428 0.09812 0.0
C1833 C 0.95145 0.97681 0.11753 0.0
C1834 C 0.98941 1.0124 0.09893 0.0
C1835 C 1.0033 1.01332 0.11921 0.0
C1836 C 0.99025 0.99706 0.13887 0.0
C1837 C 0.96463 0.97974 0.13806 0.0
C1838 C 0.06859 0.07046 0.13807 0.0
C1839 C 0.08314 0.06598 0.11832 0.0
C1840 C 0.04285 0.0538 0.13854 0.0
C1841 C 0.03107 0.03074 0.11942 0.0
C1842 C 0.04629 0.02445 0.10007 0.0
C1843 C 0.07163 0.04198 0.09952 0.0
H1844 H 0.95441 0.08704 0.34956 0.0
H1845 H 0.95095 0.04978 0.42004 0.0
H1846 H 0.9993 0.06003 0.34884 0.0
H1847 H 0.99453 1.01874 0.41924 0.0
H1848 H 0.07908 1.00909 0.42095 0.0
H1849 H 0.03558 0.04057 0.41944 0.0
H1850 H 0.03187 0.99728 0.3492 0.0
H1851 H 0.07669 0.96998 0.35061 0.0
C1852 C 0.96331 0.07355 0.36496 0.0
C1853 C 0.94927 0.0728 0.38508 0.0
C1854 C 0.98907 0.05695 0.36452 0.0
C1855 C 1.00141 0.03773 0.3841 0.0
C1856 C 0.9867 0.03513 0.4039 0.0
C1857 C 0.96132 0.05254 0.40438 0.0
C1858 C 0.06897 1.00607 0.40516 0.0
C1859 C 0.08128 0.98513 0.38612 0.0
C1860 C 0.04364 0.02371 0.40428 0.0
C1861 C 0.02923 1.02061 0.38432 0.0
C1862 C 0.04186 1.00078 0.36499 0.0
C1863 C 0.06758 0.98402 0.36583 0.0
H1864 H 0.07928 0.04302 0.91875 0.0
H1865 H 0.07478 0.08457 0.8487 0.0
H1866 H 0.03571 1.01199 0.91809 0.0
H1867 H 0.02992 0.05734 0.84819 0.0
H1868 H 0.95299 0.96583 0.85013 0.0
H1869 H 0.99788 0.99234 0.84853 0.0
H1870 H 0.99463 0.03625 0.91871 0.0
H1871 H 0.95098 1.00587 0.92041 0.0
C1872 C 0.06871 0.04662 0.90322 0.0
C1873 C 0.08044 0.06803 0.884 0.0
C1874 C 0.04337 0.02921 0.90284 0.0
C1875 C 0.02842 0.03295 0.88322 0.0
C1876 C 0.04041 0.05336 0.86371 0.0
C1877 C 0.06613 0.07002 0.86404 0.0
C1878 C 0.96221 0.97976 0.8653 0.0
C1879 C 0.94859 0.98156 0.88563 0.0
C1880 C 0.98795 0.99607 0.86434 0.0
C1881 C 1.00066 1.01598 0.88359 0.0
C1882 C 0.98641 1.01942 0.90362 0.0
C1883 C 0.96104 1.00235 0.90461 0.0
H1884 H 0.95159 0.07497 0.65322 0.0
H1885 H 0.94853 0.03627 0.58286 0.0
H1886 H 0.99646 0.04815 0.65423 0.0
H1887 H 0.99208 1.00517 0.58397 0.0
H1888 H 0.07659 0.99489 0.58277 0.0
H1889 H 0.03313 0.02661 0.5839 0.0
H1890 H 0.02886 0.98524 0.65432 0.0
H1891 H 0.07365 0.95778 0.65329 0.0
C1892 C 0.96059 0.06129 0.6379 0.0
C1893 C 0.94669 0.06008 0.61772 0.0
C1894 C 0.98633 0.04473 0.63851 0.0
C1895 C 0.99875 0.02498 0.61907 0.0
C1896 C 0.98418 1.02197 0.59921 0.0
C1897 C 0.95882 0.03944 0.59855 0.0
C1898 C 0.06635 0.99228 0.59851 0.0
C1899 C 0.07849 0.97189 0.61772 0.0
C1900 C 0.04104 1.01008 0.59917 0.0
C1901 C 0.02652 1.00764 0.61908 0.0
C1902 C 0.03896 0.98824 0.63857 0.0
C1903 C 0.06465 0.97134 0.63795 0.0
H1904 H 0.45528 0.46734 0.15283 0.0
H1905 H 0.45246 0.50984 0.08284 0.0
H1906 H 0.50004 0.4947 0.15431 0.0
H1907 H 0.496 0.54107 0.08444 0.0
H1908 H 0.58072 0.55021 0.08393 0.0
H1909 H 0.53723 0.51856 0.08456 0.0
H1910 H 0.532 0.55931 0.15498 0.0
H1911 H 0.57675 0.58722 0.15443 0.0
C1912 C 0.4643 0.48198 0.13768 0.0
C1913 C 0.45049 0.48414 0.11746 0.0
C1914 C 0.48998 0.49881 0.13858 0.0
C1915 C 0.50246 0.51965 0.11939 0.0
C1916 C 0.488 0.52352 0.09948 0.0
C1917 C 0.46268 0.50595 0.09854 0.0
C1918 C 0.57027 0.5527 0.09957 0.0
C1919 C 0.58213 0.57307 0.11893 0.0
C1920 C 0.54497 0.53491 0.09994 0.0
C1921 C 0.53019 0.53714 0.1197 0.0
C1922 C 0.54233 0.55648 0.13934 0.0
C1923 C 0.568 0.57356 0.139 0.0
H1924 H 0.44935 0.54372 0.41929 0.0
H1925 H 0.45295 0.58156 0.34888 0.0
H1926 H 0.49321 0.51398 0.41861 0.0
H1927 H 0.49795 0.55569 0.34826 0.0
H1928 H 0.5754 0.46624 0.35002 0.0
H1929 H 0.53045 0.49246 0.3487 0.0
H1930 H 0.53429 0.53776 0.41871 0.0
H1931 H 0.57807 0.50768 0.42014 0.0
C1932 C 0.45979 0.54689 0.40368 0.0
C1933 C 0.44774 0.56701 0.38437 0.0
C1934 C 0.48529 0.53019 0.40327 0.0
C1935 C 0.50004 0.53324 0.3835 0.0
C1936 C 0.48768 0.55228 0.36392 0.0
C1937 C 0.46185 0.56825 0.3643 0.0
C1938 C 0.56632 0.4805 0.36522 0.0
C1939 C 0.58014 0.48262 0.38543 0.0
C1940 C 0.54052 0.49664 0.36442 0.0
C1941 C 0.52792 0.51673 0.38371 0.0
C1942 C 0.5424 0.52073 0.4036 0.0
C1943 C 0.56785 0.50385 0.40443 0.0
H1944 H 0.46115 0.42554 0.91198 0.0
H1945 H 0.44615 0.52676 0.85473 0.0
H1946 H 0.50566 0.45353 0.91158 0.0
H1947 H 0.4904 0.55743 0.85477 0.0
H1948 H 0.57812 0.57113 0.84993 0.0
H1949 H 0.53385 0.54001 0.84799 0.0
H1950 H 0.53279 0.52364 0.92019 0.0
H1951 H 0.57686 0.55257 0.92175 0.0
C1952 C 0.46749 0.45365 0.8992 0.0
C1953 C 0.45032 0.47258 0.88298 0.0
C1954 C 0.49303 0.47048 0.89909 0.0
C1955 C 0.5021 0.50836 0.88318 0.0
C1956 C 0.48463 0.52762 0.86706 0.0
C1957 C 0.45915 0.51012 0.86703 0.0
C1958 C 0.56823 0.56141 0.86534 0.0
C1959 C 0.58091 0.5655 0.88606 0.0
C1960 C 0.54276 0.54341 0.8643 0.0
C1961 C 0.5293 0.5286 0.88393 0.0
C1962 C 0.54224 0.53316 0.90456 0.0
C1963 C 0.5676 0.55051 0.90554 0.0
H1964 H 0.45025 0.54165 0.58007 0.0
H1965 H 0.45129 0.57684 0.6508 0.0
H1966 H 0.49353 0.50913 0.58203 0.0
H1967 H 0.49594 0.54878 0.6527 0.0
H1968 H 0.57322 0.45909 0.65306 0.0
H1969 H 0.52834 0.48614 0.65317 0.0
H1970 H 0.53459 0.52902 0.58301 0.0
H1971 H 0.57805 0.49757 0.58274 0.0
C1972 C 0.46004 0.54372 0.59604 0.0
C1973 C 0.44742 0.56383 0.61506 0.0
C1974 C 0.48526 0.52545 0.5972 0.0
C1975 C 0.49924 0.52716 0.61743 0.0
C1976 C 0.4863 0.54632 0.63671 0.0
C1977 C 0.46068 0.5636 0.63559 0.0
C1978 C 0.56463 0.47282 0.63756 0.0
C1979 C 0.57906 0.47402 0.61767 0.0
C1980 C 0.53887 0.4895 0.63765 0.0
C1981 C 0.52697 0.50937 0.61797 0.0
C1982 C 0.54205 0.51218 0.5984 0.0
C1983 C 0.56738 0.49453 0.59825 0.0
H1984 H 0.2062 0.72972 0.13542 0.0
H1985 H 0.13255 0.79542 0.11831 0.0
H1986 H 0.18859 0.63914 0.13525 0.0
H1987 H 0.11444 0.70514 0.12011 0.0
H1988 H 0.09369 0.53316 0.10089 0.0
H1989 H 0.11186 0.62376 0.1008 0.0
H1990 H 0.16352 0.57629 0.15374 0.0
H1991 H 0.14596 0.48489 0.1529 0.0
C1992 C 0.1862 0.72507 0.13168 0.0
C1993 C 0.17096 0.77042 0.12661 0.0
C1994 C 0.17594 0.67282 0.13198 0.0
C1995 C 0.14999 0.66417 0.1276 0.0
C1996 C 0.1346 0.70967 0.12313 0.0
C1997 C 0.14495 0.7619 0.12249 0.0
C1998 C 0.10896 0.54222 0.11247 0.0
C1999 C 0.11841 0.50195 0.12689 0.0
C2000 C 0.1193 0.59438 0.11258 0.0
C2001 C 0.13915 0.60806 0.12738 0.0
C2002 C 0.14859 0.56746 0.14181 0.0
C2003 C 0.13848 0.51497 0.14142 0.0
H2004 H 0.8146 0.30234 0.11315 0.0
H2005 H 0.89407 0.2576 0.11144 0.0
H2006 H 0.82638 0.39647 0.11878 0.0
H2007 H 0.90564 0.35204 0.11825 0.0
H2008 H 0.90485 0.51247 0.16342 0.0
H2009 H 0.89841 0.41848 0.15162 0.0
H2010 H 0.85007 0.47336 0.09768 0.0
H2011 H 0.85691 0.56763 0.10936 0.0
C2012 C 0.83459 0.3124 0.11368 0.0
C2013 C 0.85334 0.27188 0.11167 0.0
C2014 C 0.84131 0.36653 0.11698 0.0
C2015 C 0.86691 0.3816 0.11877 0.0
C2016 C 0.88573 0.34144 0.11696 0.0
C2017 C 0.87904 0.28725 0.11326 0.0
C2018 C 0.89336 0.50434 0.14871 0.0
C2019 C 0.88142 0.54699 0.13721 0.0
C2020 C 0.88971 0.4507 0.14195 0.0
C2021 C 0.87364 0.43868 0.12382 0.0
C2022 C 0.86245 0.48156 0.11179 0.0
C2023 C 0.86649 0.53536 0.11832 0.0
H2024 H 0.13945 0.262 0.39306 0.0
H2025 H 0.21815 0.30883 0.38534 0.0
H2026 H 0.1267 0.35662 0.38836 0.0
H2027 H 0.20532 0.40292 0.38189 0.0
H2028 H 0.17584 0.57259 0.39469 0.0
H2029 H 0.18344 0.47805 0.4056 0.0
H2030 H 0.1304 0.42485 0.35496 0.0
H2031 H 0.12319 0.51915 0.34391 0.0
C2032 C 0.15406 0.29215 0.39041 0.0
C2033 C 0.1799 0.27731 0.38966 0.0
C2034 C 0.14671 0.3464 0.38793 0.0
C2035 C 0.16505 0.38709 0.38506 0.0
C2036 C 0.19081 0.37253 0.38458 0.0
C2037 C 0.19813 0.3184 0.38663 0.0
C2038 C 0.16535 0.54064 0.38638 0.0
C2039 C 0.14891 0.55279 0.36855 0.0
C2040 C 0.16981 0.4867 0.39246 0.0
C2041 C 0.15757 0.44421 0.38104 0.0
C2042 C 0.13992 0.45678 0.36416 0.0
C2043 C 0.13582 0.51058 0.35782 0.0
H2044 H 0.94685 0.54969 0.37577 0.0
H2045 H 0.87195 0.48373 0.36434 0.0
H2046 H 0.929 0.63994 0.37782 0.0
H2047 H 0.85378 0.5737 0.36842 0.0
H2048 H 0.83084 0.74691 0.35204 0.0
H2049 H 0.84868 0.65597 0.35023 0.0
H2050 H 0.90607 0.70202 0.39853 0.0
H2051 H 0.88878 0.79371 0.39934 0.0
C2052 C 0.92652 0.5542 0.37377 0.0
C2053 C 0.91099 0.50889 0.36956 0.0
C2054 C 0.91616 0.60628 0.37537 0.0
C2055 C 0.88983 0.61483 0.37324 0.0
C2056 C 0.87418 0.56931 0.36971 0.0
C2057 C 0.88461 0.51723 0.36776 0.0
C2058 C 0.84729 0.73745 0.36225 0.0
C2059 C 0.85845 0.77748 0.37579 0.0
C2060 C 0.85746 0.68507 0.36137 0.0
C2061 C 0.87888 0.67092 0.3743 0.0
C2062 C 0.88991 0.7112 0.38797 0.0
C2063 C 0.87996 0.76387 0.38854 0.0
H2064 H 0.82461 0.31983 0.87269 0.0
H2065 H 0.89964 0.25462 0.88468 0.0
H2066 H 0.84216 0.41043 0.87109 0.0
H2067 H 0.91749 0.34479 0.88111 0.0
H2068 H 0.93991 0.51707 0.89813 0.0
H2069 H 0.92178 0.42655 0.89988 0.0
H2070 H 0.86548 0.47287 0.85058 0.0
H2071 H 0.8831 0.56424 0.84978 0.0
C2072 C 0.84489 0.32458 0.87492 0.0
C2073 C 0.86057 0.27938 0.87908 0.0
C2074 C 0.85508 0.37683 0.8736 0.0
C2075 C 0.88134 0.38558 0.87604 0.0
C2076 C 0.89711 0.3402 0.87959 0.0
C2077 C 0.88688 0.28801 0.88124 0.0
C2078 C 0.92364 0.50779 0.8877 0.0
C2079 C 0.91293 0.54773 0.87382 0.0
C2080 C 0.9133 0.45565 0.88854 0.0
C2081 C 0.89218 0.44167 0.87525 0.0
C2082 C 0.88146 0.48195 0.86137 0.0
C2083 C 0.89159 0.53442 0.86081 0.0
H2084 H 0.14497 0.48641 0.84933 0.0
H2085 H 0.08928 0.53301 0.89879 0.0
H2086 H 0.16265 0.57773 0.85006 0.0
H2087 H 0.10749 0.62349 0.90045 0.0
H2088 H 0.12924 0.79564 0.88489 0.0
H2089 H 0.11135 0.70543 0.88172 0.0
H2090 H 0.18644 0.63987 0.87031 0.0
H2091 H 0.20399 0.73051 0.87152 0.0
C2092 C 0.13675 0.5161 0.86059 0.0
C2093 C 0.1157 0.50265 0.87393 0.0
C2094 C 0.14692 0.56852 0.86111 0.0
C2095 C 0.13653 0.60862 0.87527 0.0
C2096 C 0.1157 0.59451 0.8889 0.0
C2097 C 0.10533 0.54241 0.88811 0.0
C2098 C 0.14193 0.76225 0.88124 0.0
C2099 C 0.16818 0.77092 0.87854 0.0
C2100 C 0.13168 0.71005 0.87981 0.0
C2101 C 0.14737 0.6647 0.87596 0.0
C2102 C 0.17358 0.67346 0.87306 0.0
C2103 C 0.18377 0.72572 0.87414 0.0
H2104 H 0.8294 0.7338 0.65373 0.0
H2105 H 0.88584 0.78016 0.60497 0.0
H2106 H 0.84735 0.64292 0.65529 0.0
H2107 H 0.90318 0.68851 0.6055 0.0
H2108 H 0.94449 0.53606 0.62725 0.0
H2109 H 0.92673 0.62646 0.62572 0.0
H2110 H 0.85172 0.56071 0.63695 0.0
H2111 H 0.86986 0.47065 0.64053 0.0
C2112 C 0.84554 0.72423 0.64316 0.0
C2113 C 0.85626 0.76407 0.62926 0.0
C2114 C 0.85576 0.67191 0.64389 0.0
C2115 C 0.87675 0.65766 0.63044 0.0
C2116 C 0.88736 0.69778 0.61645 0.0
C2117 C 0.87738 0.75041 0.61603 0.0
C2118 C 0.92424 0.54073 0.62977 0.0
C2119 C 0.90877 0.49553 0.63431 0.0
C2120 C 0.91391 0.59288 0.62848 0.0
C2121 C 0.88767 0.60157 0.63126 0.0
C2122 C 0.87207 0.55618 0.63516 0.0
C2123 C 0.88247 0.50405 0.63682 0.0
H2124 H 0.19717 0.29748 0.64953 0.0
H2125 H 0.1382 0.25124 0.60315 0.0
H2126 H 0.17937 0.38838 0.65184 0.0
H2127 H 0.12092 0.34291 0.60446 0.0
H2128 H 0.08067 0.49502 0.62818 0.0
H2129 H 0.09845 0.40478 0.62567 0.0
H2130 H 0.17388 0.47086 0.63392 0.0
H2131 H 0.15582 0.5608 0.63847 0.0
C2132 C 0.1805 0.30706 0.63963 0.0
C2133 C 0.16905 0.26719 0.6262 0.0
C2134 C 0.17035 0.35942 0.6408 0.0
C2135 C 0.14865 0.37373 0.62827 0.0
C2136 C 0.13731 0.33361 0.61472 0.0
C2137 C 0.14725 0.28095 0.61386 0.0
C2138 C 0.10104 0.49047 0.62984 0.0
C2139 C 0.11666 0.53574 0.63385 0.0
C2140 C 0.11136 0.4384 0.62797 0.0
C2141 C 0.13773 0.42981 0.62963 0.0
C2142 C 0.15345 0.47528 0.63298 0.0
C2143 C 0.14307 0.52735 0.63521 0.0
H2144 H 0.58437 0.04988 0.1268 0.0
H2145 H 0.65898 0.9838 0.13992 0.0
H2146 H 0.60226 0.14001 0.12479 0.0
H2147 H 0.67724 0.07354 0.13587 0.0
H2148 H 0.69963 0.2468 0.1523 0.0
H2149 H 0.68175 0.15601 0.154 0.0
H2150 H 0.6258 0.20136 0.10424 0.0
H2151 H 0.6431 0.29296 0.10354 0.0
C2152 C 0.60464 0.05435 0.12918 0.0
C2153 C 0.62008 1.00907 0.13384 0.0
C2154 C 0.61503 0.10632 0.12761 0.0
C2155 C 0.64131 0.11472 0.13021 0.0
C2156 C 0.65687 0.06923 0.1342 0.0
C2157 C 0.6464 1.01728 0.13614 0.0
C2158 C 0.6835 0.23719 0.14174 0.0
C2159 C 0.67273 0.27697 0.12782 0.0
C2160 C 0.67331 0.18492 0.14256 0.0
C2161 C 0.65228 0.17066 0.12919 0.0
C2162 C 0.64165 0.21067 0.11513 0.0
C2163 C 0.65161 0.26326 0.11462 0.0
H2164 H 0.38935 0.76152 0.10587 0.0
H2165 H 0.33514 0.80976 0.15632 0.0
H2166 H 0.40675 0.85302 0.1054 0.0
H2167 H 0.35316 0.90053 0.15682 0.0
H2168 H 0.37499 0.07239 0.14036 0.0
H2169 H 0.35672 0.98227 0.13797 0.0
H2170 H 0.43114 0.91574 0.12434 0.0
H2171 H 0.44893 1.00607 0.12474 0.0
C2172 C 0.38141 0.79162 0.1171 0.0
C2173 C 0.36087 0.77849 0.13109 0.0
C2174 C 0.39143 0.8442 0.11693 0.0
C2175 C 0.38145 0.88487 0.13106 0.0
C2176 C 0.36108 0.87113 0.14529 0.0
C2177 C 0.35082 0.81885 0.14517 0.0
C2178 C 0.38742 0.03878 0.13638 0.0
C2179 C 0.41357 0.04709 0.13289 0.0
C2180 C 0.37696 0.98662 0.1354 0.0
C2181 C 0.39237 0.94098 0.13118 0.0
C2182 C 0.41846 0.94947 0.12739 0.0
C2183 C 0.42882 1.00162 0.12803 0.0
H2184 H 0.58248 1.00577 0.37864 0.0
H2185 H 0.65664 0.07143 0.36368 0.0
H2186 H 0.6003 0.91541 0.37962 0.0
H2187 H 0.67492 0.98135 0.36671 0.0
H2188 H 0.6967 0.80839 0.34907 0.0
H2189 H 0.67877 0.89932 0.34816 0.0
H2190 H 0.62441 0.85308 0.3991 0.0
H2191 H 0.64171 0.76137 0.39899 0.0
C2192 C 0.60264 1.00117 0.37562 0.0
C2193 C 0.61795 0.04643 0.37077 0.0
C2194 C 0.61302 0.94902 0.3766 0.0
C2195 C 0.63916 0.94038 0.37319 0.0
C2196 C 0.65463 0.98583 0.36899 0.0
C2197 C 0.64416 0.03797 0.36765 0.0
C2198 C 0.68089 0.81781 0.36003 0.0
C2199 C 0.67056 0.77777 0.37406 0.0
C2200 C 0.67068 0.87018 0.35968 0.0
C2201 C 0.6501 0.88427 0.37364 0.0
C2202 C 0.63989 0.84394 0.38776 0.0
C2203 C 0.64985 0.79128 0.38781 0.0
H2204 H 0.44606 0.04296 0.37569 0.0
H2205 H 0.37183 0.97749 0.36081 0.0
H2206 H 0.42827 0.13339 0.37672 0.0
H2207 H 0.35361 0.06758 0.36388 0.0
H2208 H 0.33178 0.24036 0.34625 0.0
H2209 H 0.34979 0.14952 0.3453 0.0
H2210 H 0.40416 0.19586 0.39621 0.0
H2211 H 0.38676 0.28751 0.39617 0.0
C2212 C 0.42589 0.04762 0.3727 0.0
C2213 C 0.41055 1.00238 0.36786 0.0
C2214 C 0.41554 0.09979 0.37371 0.0
C2215 C 0.38939 0.10849 0.37032 0.0
C2216 C 0.3739 0.06306 0.36614 0.0
C2217 C 0.38434 1.0109 0.36477 0.0
C2218 C 0.34761 0.23099 0.3572 0.0
C2219 C 0.35789 0.27105 0.37125 0.0
C2220 C 0.35787 0.17867 0.35682 0.0
C2221 C 0.37846 0.16461 0.37077 0.0
C2222 C 0.38865 0.20496 0.3849 0.0
C2223 C 0.37864 0.2576 0.38498 0.0
H2224 H 0.41606 0.76118 0.84674 0.0
H2225 H 0.36447 0.81729 0.89791 0.0
H2226 H 0.42285 0.85508 0.83455 0.0
H2227 H 0.37077 0.91101 0.88544 0.0
H2228 H 0.37721 0.06948 0.84053 0.0
H2229 H 0.36546 0.97611 0.84984 0.0
H2230 H 0.44459 0.93458 0.85705 0.0
H2231 H 0.45641 0.02762 0.84924 0.0
C2232 C 0.40561 0.79346 0.85492 0.0
C2233 C 0.38965 0.78197 0.87317 0.0
C2234 C 0.40964 0.84719 0.84809 0.0
C2235 C 0.39742 0.89047 0.85912 0.0
C2236 C 0.38033 0.87861 0.87654 0.0
C2237 C 0.37672 0.82501 0.88366 0.0
C2238 C 0.39215 0.04085 0.84443 0.0
C2239 C 0.41788 0.05671 0.84373 0.0
C2240 C 0.38537 0.98714 0.84957 0.0
C2241 C 0.40414 0.94774 0.85373 0.0
C2242 C 0.42971 0.96362 0.85337 0.0
C2243 C 0.43645 1.01725 0.84875 0.0
H2244 H 0.63817 0.28438 0.89545 0.0
H2245 H 0.70964 0.22581 0.86906 0.0
H2246 H 0.62001 0.19533 0.89107 0.0
H2247 H 0.69216 0.13499 0.86689 0.0
H2248 H 0.64644 0.988 0.84429 0.0
H2249 H 0.66514 0.07816 0.84735 0.0
H2250 H 0.61843 0.10976 0.90571 0.0
H2251 H 0.59878 1.02115 0.90147 0.0
C2252 C 0.65012 0.25261 0.8887 0.0
C2253 C 0.67541 0.263 0.88238 0.0
C2254 C 0.63977 0.20084 0.88663 0.0
C2255 C 0.65454 0.15729 0.87873 0.0
C2256 C 0.67997 0.1674 0.87272 0.0
C2257 C 0.69019 0.21958 0.87434 0.0
C2258 C 0.64023 1.01461 0.85767 0.0
C2259 C 0.62109 0.99813 0.87253 0.0
C2260 C 0.65106 0.06614 0.8596 0.0
C2261 C 0.64334 0.10187 0.87676 0.0
C2262 C 0.62448 0.08437 0.8919 0.0
C2263 C 0.61329 0.0334 0.88963 0.0
H2264 H 0.44509 0.03993 0.62886 0.0
H2265 H 0.3694 0.9746 0.63609 0.0
H2266 H 0.42755 0.13024 0.62545 0.0
H2267 H 0.3517 0.06456 0.63066 0.0
H2268 H 0.32771 0.23821 0.64474 0.0
H2269 H 0.34535 0.14738 0.64815 0.0
H2270 H 0.40627 0.19173 0.60307 0.0
H2271 H 0.38908 0.28333 0.60067 0.0
C2272 C 0.42466 0.04459 0.62965 0.0
C2273 C 0.40879 0.99943 0.63306 0.0
C2274 C 0.41451 0.09669 0.62727 0.0
C2275 C 0.38809 0.1054 0.6278 0.0
C2276 C 0.37215 0.06004 0.63058 0.0
C2277 C 0.38234 1.00795 0.63331 0.0
C2278 C 0.34488 0.22841 0.63559 0.0
C2279 C 0.35703 0.26794 0.62247 0.0
C2280 C 0.35496 0.17608 0.63738 0.0
C2281 C 0.3773 0.16148 0.62582 0.0
C2282 C 0.38935 0.20127 0.6126 0.0
C2283 C 0.37947 0.2539 0.61111 0.0
H2284 H 0.70402 0.81177 0.62844 0.0
H2285 H 0.62853 0.74801 0.61782 0.0
H2286 H 0.68673 0.90274 0.63042 0.0
H2287 H 0.61102 0.83843 0.62177 0.0
H2288 H 0.5883 1.01087 0.6058 0.0
H2289 H 0.60648 0.92041 0.60321 0.0
H2290 H 0.66396 0.9652 0.65162 0.0
H2291 H 0.64625 0.05656 0.65327 0.0
C2292 C 0.6837 0.81692 0.62659 0.0
C2293 C 0.6678 0.77201 0.62275 0.0
C2294 C 0.67368 0.86935 0.62812 0.0
C2295 C 0.64738 0.87856 0.6262 0.0
C2296 C 0.63142 0.83349 0.6229 0.0
C2297 C 0.64147 0.78114 0.62104 0.0
C2298 C 0.60485 1.00127 0.61585 0.0
C2299 C 0.61583 0.04076 0.62975 0.0
C2300 C 0.61522 0.94918 0.61452 0.0
C2301 C 0.63666 0.93477 0.62735 0.0
C2302 C 0.64771 0.97463 0.6412 0.0
C2303 C 0.63753 0.02708 0.64224 0.0
loop_
_geom_bond_atom_site_label_1
_geom_bond_atom_site_label_2
_geom_bond_distance
_geom_bond_site_symmetry_2
_ccdc_geom_bond_type
Gd0 N31 2.661 . S
Gd0 N37 2.601 . S
Gd0 O44 2.545 . S
Gd0 O45 2.606 . S
Gd0 O47 2.429 . S
Gd0 O48 2.545 . S
Gd0 O49 2.412 . S
Gd0 O51 2.362 . S
Gd0 O52 2.324 . S
Gd0 C59 2.828 . S
Gd1 N10 2.661 . S
Gd1 N14 2.601 . S
Gd1 O45 2.362 . S
Gd1 O46 2.324 . S
Gd1 O50 2.545 1_545 S
Gd1 O51 2.606 . S
Gd1 O53 2.429 . S
Gd1 O54 2.545 . S
Gd1 O55 2.412 1_545 S
Gd1 C68 2.828 1_545 S
C2 C5 1.417 . S
C2 C7 1.431 . S
C2 C8 1.412 . S
C3 C6 1.437 . S
C3 C7 1.317 . S
C3 H22 0.929 . S
C4 C5 1.426 . S
C4 C6 1.413 . S
C4 N14 1.359 . S
C5 C2 1.417 . S
C5 C4 1.426 . S
C5 N10 1.350 . S
C6 C3 1.437 . S
C6 C4 1.413 . S
C6 C16 1.391 . S
C7 C2 1.431 . S
C7 C3 1.317 . S
C7 H18 0.930 . S
C8 C2 1.412 . S
C8 C9 1.355 . S
C8 H20 0.930 . S
C9 C8 1.355 . S
C9 C11 1.402 . S
C9 H21 0.930 . S
N10 Gd1 2.661 . S
N10 C5 1.350 . S
N10 C11 1.307 . S
C11 C9 1.402 . S
C11 N10 1.307 . S
C11 H12 0.930 . S
H12 C11 0.930 . S
C13 N14 1.334 . S
C13 C15 1.394 . S
C13 H17 0.930 . S
N14 Gd1 2.601 . S
N14 C4 1.359 . S
N14 C13 1.334 . S
C15 C13 1.394 . S
C15 C16 1.359 . S
C15 H27 0.930 . S
C16 C6 1.391 . S
C16 C15 1.359 . S
C16 H28 0.929 . S
H17 C13 0.930 . S
H18 C7 0.930 . S
H19 C36 0.930 . S
H20 C8 0.930 . S
H21 C9 0.930 . S
H22 C3 0.929 . S
H23 C41 0.930 . S
H24 C32 0.901 1_655 S
H25 C33 0.930 . S
H26 C57 0.929 1_655 S
H27 C15 0.930 . S
H28 C16 0.929 . S
H29 C58 0.930 1_655 S
H30 C39 0.930 . S
N31 Gd0 2.661 . S
N31 C35 1.350 . S
N31 C36 1.307 . S
C32 H24 0.901 1_455 S
C32 C33 1.355 . S
C32 C34 1.412 . S
C33 H25 0.930 . S
C33 C32 1.355 . S
C33 C36 1.402 . S
C34 C32 1.412 . S
C34 C35 1.417 . S
C34 C58 1.431 . S
C35 N31 1.350 . S
C35 C34 1.417 . S
C35 C38 1.426 . S
C36 H19 0.930 . S
C36 N31 1.307 . S
C36 C33 1.402 . S
N37 Gd0 2.601 . S
N37 C38 1.359 . S
N37 C41 1.334 . S
C38 C35 1.426 . S
C38 N37 1.359 . S
C38 C42 1.413 . S
C39 H30 0.930 . S
C39 C40 1.359 . S
C39 C41 1.394 . S
C40 C39 1.359 . S
C40 C42 1.391 . S
C40 H43 0.929 . S
C41 H23 0.930 . S
C41 N37 1.334 . S
C41 C39 1.394 . S
C42 C38 1.413 . S
C42 C40 1.391 . S
C42 C57 1.437 . S
H43 C40 0.929 . S
O44 Gd0 2.545 . S
O44 C59 1.258 . S
O45 Gd0 2.606 . S
O45 Gd1 2.362 . S
O45 C56 1.284 . S
O46 Gd1 2.324 . S
O46 C66 1.254 . S
O47 Gd0 2.429 . S
O47 C66 1.268 . S
O48 Gd0 2.545 . S
O48 C56 1.250 . S
O49 Gd0 2.412 . S
O49 C59 1.252 . S
O50 Gd1 2.545 1_565 S
O50 C68 1.258 . S
O51 Gd0 2.362 . S
O51 Gd1 2.606 . S
O51 C67 1.284 . S
O52 Gd0 2.324 . S
O52 C75 1.254 . S
O53 Gd1 2.429 . S
O53 C75 1.268 . S
O54 Gd1 2.545 . S
O54 C67 1.250 . S
O55 Gd1 2.412 1_565 S
O55 C68 1.252 . S
C56 O45 1.284 . S
C56 O48 1.250 . S
C57 H26 0.929 1_455 S
C57 C42 1.437 . S
C57 C58 1.317 . S
C58 H29 0.930 1_455 S
C58 C34 1.431 . S
C58 C57 1.317 . S
C59 Gd0 2.828 . S
C59 O44 1.258 . S
C59 O49 1.252 . S
C59 C60 1.497 . S
C60 C59 1.497 . S
C60 C61 1.395 . S
C60 C62 1.380 . S
C61 C60 1.395 . S
C61 C64 1.398 . S
C61 H76 0.930 . S
C62 C60 1.380 . S
C62 C63 1.391 . S
C62 H77 0.930 . S
C63 C62 1.391 . S
C63 C65 1.387 . S
C64 C61 1.398 . S
C64 C65 1.380 . S
C64 H78 0.930 . S
C65 C63 1.387 . S
C65 C64 1.380 . S
C65 H79 0.930 . S
C66 O46 1.254 . S
C66 O47 1.268 . S
C67 O51 1.284 . S
C67 O54 1.250 . S
C68 Gd1 2.828 1_565 S
C68 O50 1.258 . S
C68 O55 1.252 . S
C68 C69 1.497 . S
C69 C68 1.497 . S
C69 C70 1.395 . S
C69 C71 1.380 . S
C70 C69 1.395 . S
C70 C73 1.398 . S
C70 H80 0.930 . S
C71 C69 1.380 . S
C71 C72 1.391 . S
C71 H81 0.930 . S
C72 C71 1.391 . S
C72 C74 1.387 . S
C73 C70 1.398 . S
C73 C74 1.380 . S
C73 H82 0.930 . S
C74 C72 1.387 . S
C74 C73 1.380 . S
C74 H83 0.930 . S
C75 O52 1.254 . S
C75 O53 1.268 . S
H76 C61 0.930 . S
H77 C62 0.930 . S
H78 C64 0.930 . S
H79 C65 0.930 . S
H80 C70 0.930 . S
H81 C71 0.930 . S
H82 C73 0.930 . S
H83 C74 0.930 . S
Gd84 N115 2.661 . S
Gd84 N121 2.601 . S
Gd84 O128 2.545 . S
Gd84 O129 2.606 . S
Gd84 O131 2.429 . S
Gd84 O132 2.545 . S
Gd84 O133 2.412 . S
Gd84 O135 2.362 . S
Gd84 O136 2.324 . S
Gd84 C143 2.828 . S
Gd85 N94 2.661 . S
Gd85 N98 2.601 . S
Gd85 O129 2.362 . S
Gd85 O130 2.324 . S
Gd85 O134 2.545 1_565 S
Gd85 O135 2.606 . S
Gd85 O137 2.429 . S
Gd85 O138 2.545 . S
Gd85 O139 2.412 1_565 S
Gd85 C152 2.828 1_565 S
C86 C89 1.417 . S
C86 C91 1.431 . S
C86 C92 1.412 . S
C87 C90 1.437 . S
C87 C91 1.317 . S
C87 H106 0.929 . S
C88 C89 1.426 . S
C88 C90 1.413 . S
C88 N98 1.359 . S
C89 C86 1.417 . S
C89 C88 1.426 . S
C89 N94 1.350 . S
C90 C87 1.437 . S
C90 C88 1.413 . S
C90 C100 1.391 . S
C91 C86 1.431 . S
C91 C87 1.317 . S
C91 H102 0.930 . S
C92 C86 1.412 . S
C92 C93 1.355 . S
C92 H104 0.930 . S
C93 C92 1.355 . S
C93 C95 1.402 . S
C93 H105 0.930 . S
N94 Gd85 2.661 . S
N94 C89 1.350 . S
N94 C95 1.307 . S
C95 C93 1.402 . S
C95 N94 1.307 . S
C95 H96 0.930 . S
H96 C95 0.930 . S
C97 N98 1.334 . S
C97 C99 1.394 . S
C97 H101 0.930 . S
N98 Gd85 2.601 . S
N98 C88 1.359 . S
N98 C97 1.334 . S
C99 C97 1.394 . S
C99 C100 1.359 . S
C99 H111 0.930 . S
C100 C90 1.391 . S
C100 C99 1.359 . S
C100 H112 0.929 . S
H101 C97 0.930 . S
H102 C91 0.930 . S
H103 C120 0.930 . S
H104 C92 0.930 . S
H105 C93 0.930 . S
H106 C87 0.929 . S
H107 C125 0.930 . S
H108 C116 0.901 1_455 S
H109 C117 0.930 . S
H110 C141 0.929 1_455 S
H111 C99 0.930 . S
H112 C100 0.929 . S
H113 C142 0.930 1_455 S
H114 C123 0.930 . S
N115 Gd84 2.661 . S
N115 C119 1.350 . S
N115 C120 1.307 . S
C116 H108 0.901 1_655 S
C116 C117 1.355 . S
C116 C118 1.412 . S
C117 H109 0.930 . S
C117 C116 1.355 . S
C117 C120 1.402 . S
C118 C116 1.412 . S
C118 C119 1.417 . S
C118 C142 1.431 . S
C119 N115 1.350 . S
C119 C118 1.417 . S
C119 C122 1.426 . S
C120 H103 0.930 . S
C120 N115 1.307 . S
C120 C117 1.402 . S
N121 Gd84 2.601 . S
N121 C122 1.359 . S
N121 C125 1.334 . S
C122 C119 1.426 . S
C122 N121 1.359 . S
C122 C126 1.413 . S
C123 H114 0.930 . S
C123 C124 1.359 . S
C123 C125 1.394 . S
C124 C123 1.359 . S
C124 C126 1.391 . S
C124 H127 0.929 . S
C125 H107 0.930 . S
C125 N121 1.334 . S
C125 C123 1.394 . S
C126 C122 1.413 . S
C126 C124 1.391 . S
C126 C141 1.437 . S
H127 C124 0.929 . S
O128 Gd84 2.545 . S
O128 C143 1.258 . S
O129 Gd84 2.606 . S
O129 Gd85 2.362 . S
O129 C140 1.284 . S
O130 Gd85 2.324 . S
O130 C150 1.254 . S
O131 Gd84 2.429 . S
O131 C150 1.268 . S
O132 Gd84 2.545 . S
O132 C140 1.250 . S
O133 Gd84 2.412 . S
O133 C143 1.252 . S
O134 Gd85 2.545 1_545 S
O134 C152 1.258 . S
O135 Gd84 2.362 . S
O135 Gd85 2.606 . S
O135 C151 1.284 . S
O136 Gd84 2.324 . S
O136 C159 1.254 . S
O137 Gd85 2.429 . S
O137 C159 1.268 . S
O138 Gd85 2.545 . S
O138 C151 1.250 . S
O139 Gd85 2.412 1_545 S
O139 C152 1.252 . S
C140 O129 1.284 . S
C140 O132 1.250 . S
C141 H110 0.929 1_655 S
C141 C126 1.437 . S
C141 C142 1.317 . S
C142 H113 0.930 1_655 S
C142 C118 1.431 . S
C142 C141 1.317 . S
C143 Gd84 2.828 . S
C143 O128 1.258 . S
C143 O133 1.252 . S
C143 C144 1.497 . S
C144 C143 1.497 . S
C144 C145 1.395 . S
C144 C146 1.380 . S
C145 C144 1.395 . S
C145 C148 1.398 . S
C145 H160 0.930 . S
C146 C144 1.380 . S
C146 C147 1.391 . S
C146 H161 0.930 . S
C147 C146 1.391 . S
C147 C149 1.387 . S
C148 C145 1.398 . S
C148 C149 1.380 . S
C148 H162 0.930 . S
C149 C147 1.387 . S
C149 C148 1.380 . S
C149 H163 0.930 . S
C150 O130 1.254 . S
C150 O131 1.268 . S
C151 O135 1.284 . S
C151 O138 1.250 . S
C152 Gd85 2.828 1_545 S
C152 O134 1.258 . S
C152 O139 1.252 . S
C152 C153 1.497 . S
C153 C152 1.497 . S
C153 C154 1.395 . S
C153 C155 1.380 . S
C154 C153 1.395 . S
C154 C157 1.398 . S
C154 H164 0.930 . S
C155 C153 1.380 . S
C155 C156 1.391 . S
C155 H165 0.930 . S
C156 C155 1.391 . S
C156 C158 1.387 . S
C157 C154 1.398 . S
C157 C158 1.380 . S
C157 H166 0.930 . S
C158 C156 1.387 . S
C158 C157 1.380 . S
C158 H167 0.930 . S
C159 O136 1.254 . S
C159 O137 1.268 . S
H160 C145 0.930 . S
H161 C146 0.930 . S
H162 C148 0.930 . S
H163 C149 0.930 . S
H164 C154 0.930 . S
H165 C155 0.930 . S
H166 C157 0.930 . S
H167 C158 0.930 . S
Gd168 N199 2.661 . S
Gd168 N205 2.601 . S
Gd168 O212 2.545 . S
Gd168 O213 2.606 . S
Gd168 O215 2.429 . S
Gd168 O216 2.545 . S
Gd168 O217 2.412 . S
Gd168 O219 2.362 . S
Gd168 O220 2.324 . S
Gd168 C227 2.828 . S
Gd169 N178 2.661 . S
Gd169 N182 2.601 . S
Gd169 O213 2.362 . S
Gd169 O214 2.324 . S
Gd169 O218 2.545 1_565 S
Gd169 O219 2.606 . S
Gd169 O221 2.429 . S
Gd169 O222 2.545 . S
Gd169 O223 2.412 1_565 S
Gd169 C236 2.828 1_565 S
C170 C173 1.417 . S
C170 C175 1.431 . S
C170 C176 1.412 . S
C171 C174 1.437 . S
C171 C175 1.317 . S
C171 H190 0.929 . S
C172 C173 1.426 . S
C172 C174 1.413 . S
C172 N182 1.359 . S
C173 C170 1.417 . S
C173 C172 1.426 . S
C173 N178 1.350 . S
C174 C171 1.437 . S
C174 C172 1.413 . S
C174 C184 1.391 . S
C175 C170 1.431 . S
C175 C171 1.317 . S
C175 H186 0.930 . S
C176 C170 1.412 . S
C176 C177 1.355 . S
C176 H188 0.930 . S
C177 C176 1.355 . S
C177 C179 1.402 . S
C177 H189 0.930 . S
N178 Gd169 2.661 . S
N178 C173 1.350 . S
N178 C179 1.307 . S
C179 C177 1.402 . S
C179 N178 1.307 . S
C179 H180 0.930 . S
H180 C179 0.930 . S
C181 N182 1.334 . S
C181 C183 1.394 . S
C181 H185 0.930 . S
N182 Gd169 2.601 . S
N182 C172 1.359 . S
N182 C181 1.334 . S
C183 C181 1.394 . S
C183 C184 1.359 . S
C183 H195 0.930 . S
C184 C174 1.391 . S
C184 C183 1.359 . S
C184 H196 0.929 . S
H185 C181 0.930 . S
H186 C175 0.930 . S
H187 C204 0.930 . S
H188 C176 0.930 . S
H189 C177 0.930 . S
H190 C171 0.929 . S
H191 C209 0.930 . S
H192 C200 0.901 1_655 S
H193 C201 0.930 . S
H194 C225 0.929 1_655 S
H195 C183 0.930 . S
H196 C184 0.929 . S
H197 C226 0.930 1_655 S
H198 C207 0.930 . S
N199 Gd168 2.661 . S
N199 C203 1.350 . S
N199 C204 1.307 . S
C200 H192 0.901 1_455 S
C200 C201 1.355 . S
C200 C202 1.412 . S
C201 H193 0.930 . S
C201 C200 1.355 . S
C201 C204 1.402 . S
C202 C200 1.412 . S
C202 C203 1.417 . S
C202 C226 1.431 . S
C203 N199 1.350 . S
C203 C202 1.417 . S
C203 C206 1.426 . S
C204 H187 0.930 . S
C204 N199 1.307 . S
C204 C201 1.402 . S
N205 Gd168 2.601 . S
N205 C206 1.359 . S
N205 C209 1.334 . S
C206 C203 1.426 . S
C206 N205 1.359 . S
C206 C210 1.413 . S
C207 H198 0.930 . S
C207 C208 1.359 . S
C207 C209 1.394 . S
C208 C207 1.359 . S
C208 C210 1.391 . S
C208 H211 0.929 . S
C209 H191 0.930 . S
C209 N205 1.334 . S
C209 C207 1.394 . S
C210 C206 1.413 . S
C210 C208 1.391 . S
C210 C225 1.437 . S
H211 C208 0.929 . S
O212 Gd168 2.545 . S
O212 C227 1.258 . S
O213 Gd168 2.606 . S
O213 Gd169 2.362 . S
O213 C224 1.284 . S
O214 Gd169 2.324 . S
O214 C234 1.254 . S
O215 Gd168 2.429 . S
O215 C234 1.268 . S
O216 Gd168 2.545 . S
O216 C224 1.250 . S
O217 Gd168 2.412 . S
O217 C227 1.252 . S
O218 Gd169 2.545 1_545 S
O218 C236 1.258 . S
O219 Gd168 2.362 . S
O219 Gd169 2.606 . S
O219 C235 1.284 . S
O220 Gd168 2.324 . S
O220 C243 1.254 . S
O221 Gd169 2.429 . S
O221 C243 1.268 . S
O222 Gd169 2.545 . S
O222 C235 1.250 . S
O223 Gd169 2.412 1_545 S
O223 C236 1.252 . S
C224 O213 1.284 . S
C224 O216 1.250 . S
C225 H194 0.929 1_455 S
C225 C210 1.437 . S
C225 C226 1.317 . S
C226 H197 0.930 1_455 S
C226 C202 1.431 . S
C226 C225 1.317 . S
C227 Gd168 2.828 . S
C227 O212 1.258 . S
C227 O217 1.252 . S
C227 C228 1.497 . S
C228 C227 1.497 . S
C228 C229 1.395 . S
C228 C230 1.380 . S
C229 C228 1.395 . S
C229 C232 1.398 . S
C229 H244 0.930 . S
C230 C228 1.380 . S
C230 C231 1.391 . S
C230 H245 0.930 . S
C231 C230 1.391 . S
C231 C233 1.387 . S
C232 C229 1.398 . S
C232 C233 1.380 . S
C232 H246 0.930 . S
C233 C231 1.387 . S
C233 C232 1.380 . S
C233 H247 0.930 . S
C234 O214 1.254 . S
C234 O215 1.268 . S
C235 O219 1.284 . S
C235 O222 1.250 . S
C236 Gd169 2.828 1_545 S
C236 O218 1.258 . S
C236 O223 1.252 . S
C236 C237 1.497 . S
C237 C236 1.497 . S
C237 C238 1.395 . S
C237 C239 1.380 . S
C238 C237 1.395 . S
C238 C241 1.398 . S
C238 H248 0.930 . S
C239 C237 1.380 . S
C239 C240 1.391 . S
C239 H249 0.930 . S
C240 C239 1.391 . S
C240 C242 1.387 . S
C241 C238 1.398 . S
C241 C242 1.380 . S
C241 H250 0.930 . S
C242 C240 1.387 . S
C242 C241 1.380 . S
C242 H251 0.930 . S
C243 O220 1.254 . S
C243 O221 1.268 . S
H244 C229 0.930 . S
H245 C230 0.930 . S
H246 C232 0.930 . S
H247 C233 0.930 . S
H248 C238 0.930 . S
H249 C239 0.930 . S
H250 C241 0.930 . S
H251 C242 0.930 . S
Gd252 N283 2.661 . S
Gd252 N289 2.601 . S
Gd252 O296 2.545 . S
Gd252 O297 2.606 . S
Gd252 O299 2.429 . S
Gd252 O300 2.545 . S
Gd252 O301 2.412 . S
Gd252 O303 2.362 . S
Gd252 O304 2.324 . S
Gd252 C311 2.828 . S
Gd253 N262 2.661 . S
Gd253 N266 2.601 . S
Gd253 O297 2.362 . S
Gd253 O298 2.324 . S
Gd253 O302 2.545 1_545 S
Gd253 O303 2.606 . S
Gd253 O305 2.429 . S
Gd253 O306 2.545 . S
Gd253 O307 2.412 1_545 S
Gd253 C320 2.828 1_545 S
C254 C257 1.417 . S
C254 C259 1.431 . S
C254 C260 1.412 . S
C255 C258 1.437 . S
C255 C259 1.317 . S
C255 H274 0.929 . S
C256 C257 1.426 . S
C256 C258 1.413 . S
C256 N266 1.359 . S
C257 C254 1.417 . S
C257 C256 1.426 . S
C257 N262 1.350 . S
C258 C255 1.437 . S
C258 C256 1.413 . S
C258 C268 1.391 . S
C259 C254 1.431 . S
C259 C255 1.317 . S
C259 H270 0.930 . S
C260 C254 1.412 . S
C260 C261 1.355 . S
C260 H272 0.930 . S
C261 C260 1.355 . S
C261 C263 1.402 . S
C261 H273 0.930 . S
N262 Gd253 2.661 . S
N262 C257 1.350 . S
N262 C263 1.307 . S
C263 C261 1.402 . S
C263 N262 1.307 . S
C263 H264 0.930 . S
H264 C263 0.930 . S
C265 N266 1.334 . S
C265 C267 1.394 . S
C265 H269 0.930 . S
N266 Gd253 2.601 . S
N266 C256 1.359 . S
N266 C265 1.334 . S
C267 C265 1.394 . S
C267 C268 1.359 . S
C267 H279 0.930 . S
C268 C258 1.391 . S
C268 C267 1.359 . S
C268 H280 0.929 . S
H269 C265 0.930 . S
H270 C259 0.930 . S
H271 C288 0.930 . S
H272 C260 0.930 . S
H273 C261 0.930 . S
H274 C255 0.929 . S
H275 C293 0.930 . S
H276 C284 0.901 1_455 S
H277 C285 0.930 . S
H278 C309 0.929 1_455 S
H279 C267 0.930 . S
H280 C268 0.929 . S
H281 C310 0.930 1_455 S
H282 C291 0.930 . S
N283 Gd252 2.661 . S
N283 C287 1.350 . S
N283 C288 1.307 . S
C284 H276 0.901 1_655 S
C284 C285 1.355 . S
C284 C286 1.412 . S
C285 H277 0.930 . S
C285 C284 1.355 . S
C285 C288 1.402 . S
C286 C284 1.412 . S
C286 C287 1.417 . S
C286 C310 1.431 . S
C287 N283 1.350 . S
C287 C286 1.417 . S
C287 C290 1.426 . S
C288 H271 0.930 . S
C288 N283 1.307 . S
C288 C285 1.402 . S
N289 Gd252 2.601 . S
N289 C290 1.359 . S
N289 C293 1.334 . S
C290 C287 1.426 . S
C290 N289 1.359 . S
C290 C294 1.413 . S
C291 H282 0.930 . S
C291 C292 1.359 . S
C291 C293 1.394 . S
C292 C291 1.359 . S
C292 C294 1.391 . S
C292 H295 0.929 . S
C293 H275 0.930 . S
C293 N289 1.334 . S
C293 C291 1.394 . S
C294 C290 1.413 . S
C294 C292 1.391 . S
C294 C309 1.437 . S
H295 C292 0.929 . S
O296 Gd252 2.545 . S
O296 C311 1.258 . S
O297 Gd252 2.606 . S
O297 Gd253 2.362 . S
O297 C308 1.284 . S
O298 Gd253 2.324 . S
O298 C318 1.254 . S
O299 Gd252 2.429 . S
O299 C318 1.268 . S
O300 Gd252 2.545 . S
O300 C308 1.250 . S
O301 Gd252 2.412 . S
O301 C311 1.252 . S
O302 Gd253 2.545 1_565 S
O302 C320 1.258 . S
O303 Gd252 2.362 . S
O303 Gd253 2.606 . S
O303 C319 1.284 . S
O304 Gd252 2.324 . S
O304 C327 1.254 . S
O305 Gd253 2.429 . S
O305 C327 1.268 . S
O306 Gd253 2.545 . S
O306 C319 1.250 . S
O307 Gd253 2.412 1_565 S
O307 C320 1.252 . S
C308 O297 1.284 . S
C308 O300 1.250 . S
C309 H278 0.929 1_655 S
C309 C294 1.437 . S
C309 C310 1.317 . S
C310 H281 0.930 1_655 S
C310 C286 1.431 . S
C310 C309 1.317 . S
C311 Gd252 2.828 . S
C311 O296 1.258 . S
C311 O301 1.252 . S
C311 C312 1.497 . S
C312 C311 1.497 . S
C312 C313 1.395 . S
C312 C314 1.380 . S
C313 C312 1.395 . S
C313 C316 1.398 . S
C313 H328 0.930 . S
C314 C312 1.380 . S
C314 C315 1.391 . S
C314 H329 0.930 . S
C315 C314 1.391 . S
C315 C317 1.387 . S
C316 C313 1.398 . S
C316 C317 1.380 . S
C316 H330 0.930 . S
C317 C315 1.387 . S
C317 C316 1.380 . S
C317 H331 0.930 . S
C318 O298 1.254 . S
C318 O299 1.268 . S
C319 O303 1.284 . S
C319 O306 1.250 . S
C320 Gd253 2.828 1_565 S
C320 O302 1.258 . S
C320 O307 1.252 . S
C320 C321 1.497 . S
C321 C320 1.497 . S
C321 C322 1.395 . S
C321 C323 1.380 . S
C322 C321 1.395 . S
C322 C325 1.398 . S
C322 H332 0.930 . S
C323 C321 1.380 . S
C323 C324 1.391 . S
C323 H333 0.930 . S
C324 C323 1.391 . S
C324 C326 1.387 . S
C325 C322 1.398 . S
C325 C326 1.380 . S
C325 H334 0.930 . S
C326 C324 1.387 . S
C326 C325 1.380 . S
C326 H335 0.930 . S
C327 O304 1.254 . S
C327 O305 1.268 . S
H328 C313 0.930 . S
H329 C314 0.930 . S
H330 C316 0.930 . S
H331 C317 0.930 . S
H332 C322 0.930 . S
H333 C323 0.930 . S
H334 C325 0.930 . S
H335 C326 0.930 . S
Gd336 N367 2.661 . S
Gd336 N373 2.601 . S
Gd336 O380 2.545 1_565 S
Gd336 O381 2.606 . S
Gd336 O383 2.429 . S
Gd336 O384 2.545 . S
Gd336 O385 2.412 1_565 S
Gd336 O387 2.362 . S
Gd336 O388 2.324 . S
Gd336 C395 2.828 1_565 S
Gd337 N346 2.661 . S
Gd337 N350 2.601 . S
Gd337 O381 2.362 . S
Gd337 O382 2.324 . S
Gd337 O386 2.545 . S
Gd337 O387 2.606 . S
Gd337 O389 2.429 . S
Gd337 O390 2.545 . S
Gd337 O391 2.412 . S
Gd337 C404 2.828 . S
C338 C341 1.417 . S
C338 C343 1.431 . S
C338 C344 1.412 . S
C339 C342 1.437 . S
C339 C343 1.317 . S
C339 H358 0.929 1_655 S
C340 C341 1.426 . S
C340 C342 1.413 . S
C340 N350 1.359 . S
C341 C338 1.417 . S
C341 C340 1.426 . S
C341 N346 1.350 . S
C342 C339 1.437 . S
C342 C340 1.413 . S
C342 C352 1.391 . S
C343 C338 1.431 . S
C343 C339 1.317 . S
C343 H354 0.930 1_655 S
C344 C338 1.412 . S
C344 C345 1.355 . S
C344 H356 0.901 1_655 S
C345 C344 1.355 . S
C345 C347 1.402 . S
C345 H357 0.930 . S
N346 Gd337 2.661 . S
N346 C341 1.350 . S
N346 C347 1.307 . S
C347 C345 1.402 . S
C347 N346 1.307 . S
C347 H348 0.930 . S
H348 C347 0.930 . S
C349 N350 1.334 . S
C349 C351 1.394 . S
C349 H353 0.930 . S
N350 Gd337 2.601 . S
N350 C340 1.359 . S
N350 C349 1.334 . S
C351 C349 1.394 . S
C351 C352 1.359 . S
C351 H363 0.930 . S
C352 C342 1.391 . S
C352 C351 1.359 . S
C352 H364 0.929 . S
H353 C349 0.930 . S
H354 C343 0.930 1_455 S
H355 C372 0.930 . S
H356 C344 0.901 1_455 S
H357 C345 0.930 . S
H358 C339 0.929 1_455 S
H359 C377 0.930 . S
H360 C368 0.930 . S
H361 C369 0.930 . S
H362 C393 0.929 . S
H363 C351 0.930 . S
H364 C352 0.929 . S
H365 C394 0.930 . S
H366 C375 0.930 . S
N367 Gd336 2.661 . S
N367 C371 1.350 . S
N367 C372 1.307 . S
C368 H360 0.930 . S
C368 C369 1.355 . S
C368 C370 1.412 . S
C369 H361 0.930 . S
C369 C368 1.355 . S
C369 C372 1.402 . S
C370 C368 1.412 . S
C370 C371 1.417 . S
C370 C394 1.431 . S
C371 N367 1.350 . S
C371 C370 1.417 . S
C371 C374 1.426 . S
C372 H355 0.930 . S
C372 N367 1.307 . S
C372 C369 1.402 . S
N373 Gd336 2.601 . S
N373 C374 1.359 . S
N373 C377 1.334 . S
C374 C371 1.426 . S
C374 N373 1.359 . S
C374 C378 1.413 . S
C375 H366 0.930 . S
C375 C376 1.359 . S
C375 C377 1.394 . S
C376 C375 1.359 . S
C376 C378 1.391 . S
C376 H379 0.929 . S
C377 H359 0.930 . S
C377 N373 1.334 . S
C377 C375 1.394 . S
C378 C374 1.413 . S
C378 C376 1.391 . S
C378 C393 1.437 . S
H379 C376 0.929 . S
O380 Gd336 2.545 1_545 S
O380 C395 1.258 . S
O381 Gd336 2.606 . S
O381 Gd337 2.362 . S
O381 C392 1.284 . S
O382 Gd337 2.324 . S
O382 C402 1.254 . S
O383 Gd336 2.429 . S
O383 C402 1.268 . S
O384 Gd336 2.545 . S
O384 C392 1.250 . S
O385 Gd336 2.412 1_545 S
O385 C395 1.252 . S
O386 Gd337 2.545 . S
O386 C404 1.258 . S
O387 Gd336 2.362 . S
O387 Gd337 2.606 . S
O387 C403 1.284 . S
O388 Gd336 2.324 . S
O388 C411 1.254 . S
O389 Gd337 2.429 . S
O389 C411 1.268 . S
O390 Gd337 2.545 . S
O390 C403 1.250 . S
O391 Gd337 2.412 . S
O391 C404 1.252 . S
C392 O381 1.284 . S
C392 O384 1.250 . S
C393 H362 0.929 . S
C393 C378 1.437 . S
C393 C394 1.317 . S
C394 H365 0.930 . S
C394 C370 1.431 . S
C394 C393 1.317 . S
C395 Gd336 2.828 1_545 S
C395 O380 1.258 . S
C395 O385 1.252 . S
C395 C396 1.497 . S
C396 C395 1.497 . S
C396 C397 1.395 . S
C396 C398 1.380 . S
C397 C396 1.395 . S
C397 C400 1.398 . S
C397 H412 0.930 . S
C398 C396 1.380 . S
C398 C399 1.391 . S
C398 H413 0.930 . S
C399 C398 1.391 . S
C399 C401 1.387 . S
C400 C397 1.398 . S
C400 C401 1.380 . S
C400 H414 0.930 . S
C401 C399 1.387 . S
C401 C400 1.380 . S
C401 H415 0.930 . S
C402 O382 1.254 . S
C402 O383 1.268 . S
C403 O387 1.284 . S
C403 O390 1.250 . S
C404 Gd337 2.828 . S
C404 O386 1.258 . S
C404 O391 1.252 . S
C404 C405 1.497 . S
C405 C404 1.497 . S
C405 C406 1.395 . S
C405 C407 1.380 . S
C406 C405 1.395 . S
C406 C409 1.398 . S
C406 H416 0.930 . S
C407 C405 1.380 . S
C407 C408 1.391 . S
C407 H417 0.930 . S
C408 C407 1.391 . S
C408 C410 1.387 . S
C409 C406 1.398 . S
C409 C410 1.380 . S
C409 H418 0.930 . S
C410 C408 1.387 . S
C410 C409 1.380 . S
C410 H419 0.930 . S
C411 O388 1.254 . S
C411 O389 1.268 . S
H412 C397 0.930 . S
H413 C398 0.930 . S
H414 C400 0.930 . S
H415 C401 0.930 . S
H416 C406 0.930 . S
H417 C407 0.930 . S
H418 C409 0.930 . S
H419 C410 0.930 . S
Gd420 N451 2.661 . S
Gd420 N457 2.601 . S
Gd420 O464 2.545 1_545 S
Gd420 O465 2.606 . S
Gd420 O467 2.429 . S
Gd420 O468 2.545 . S
Gd420 O469 2.412 1_545 S
Gd420 O471 2.362 . S
Gd420 O472 2.324 . S
Gd420 C479 2.828 1_545 S
Gd421 N430 2.661 . S
Gd421 N434 2.601 . S
Gd421 O465 2.362 . S
Gd421 O466 2.324 . S
Gd421 O470 2.545 . S
Gd421 O471 2.606 . S
Gd421 O473 2.429 . S
Gd421 O474 2.545 . S
Gd421 O475 2.412 . S
Gd421 C488 2.828 . S
C422 C425 1.417 . S
C422 C427 1.431 . S
C422 C428 1.412 . S
C423 C426 1.437 . S
C423 C427 1.317 . S
C423 H442 0.929 1_455 S
C424 C425 1.426 . S
C424 C426 1.413 . S
C424 N434 1.359 . S
C425 C422 1.417 . S
C425 C424 1.426 . S
C425 N430 1.350 . S
C426 C423 1.437 . S
C426 C424 1.413 . S
C426 C436 1.391 . S
C427 C422 1.431 . S
C427 C423 1.317 . S
C427 H438 0.930 1_455 S
C428 C422 1.412 . S
C428 C429 1.355 . S
C428 H440 0.901 1_455 S
C429 C428 1.355 . S
C429 C431 1.402 . S
C429 H441 0.930 . S
N430 Gd421 2.661 . S
N430 C425 1.350 . S
N430 C431 1.307 . S
C431 C429 1.402 . S
C431 N430 1.307 . S
C431 H432 0.930 . S
H432 C431 0.930 . S
C433 N434 1.334 . S
C433 C435 1.394 . S
C433 H437 0.930 . S
N434 Gd421 2.601 . S
N434 C424 1.359 . S
N434 C433 1.334 . S
C435 C433 1.394 . S
C435 C436 1.359 . S
C435 H447 0.930 . S
C436 C426 1.391 . S
C436 C435 1.359 . S
C436 H448 0.929 . S
H437 C433 0.930 . S
H438 C427 0.930 1_655 S
H439 C456 0.930 . S
H440 C428 0.901 1_655 S
H441 C429 0.930 . S
H442 C423 0.929 1_655 S
H443 C461 0.930 . S
H444 C452 0.930 . S
H445 C453 0.930 . S
H446 C477 0.929 . S
H447 C435 0.930 . S
H448 C436 0.929 . S
H449 C478 0.930 . S
H450 C459 0.930 . S
N451 Gd420 2.661 . S
N451 C455 1.350 . S
N451 C456 1.307 . S
C452 H444 0.930 . S
C452 C453 1.355 . S
C452 C454 1.412 . S
C453 H445 0.930 . S
C453 C452 1.355 . S
C453 C456 1.402 . S
C454 C452 1.412 . S
C454 C455 1.417 . S
C454 C478 1.431 . S
C455 N451 1.350 . S
C455 C454 1.417 . S
C455 C458 1.426 . S
C456 H439 0.930 . S
C456 N451 1.307 . S
C456 C453 1.402 . S
N457 Gd420 2.601 . S
N457 C458 1.359 . S
N457 C461 1.334 . S
C458 C455 1.426 . S
C458 N457 1.359 . S
C458 C462 1.413 . S
C459 H450 0.930 . S
C459 C460 1.359 . S
C459 C461 1.394 . S
C460 C459 1.359 . S
C460 C462 1.391 . S
C460 H463 0.929 . S
C461 H443 0.930 . S
C461 N457 1.334 . S
C461 C459 1.394 . S
C462 C458 1.413 . S
C462 C460 1.391 . S
C462 C477 1.437 . S
H463 C460 0.929 . S
O464 Gd420 2.545 1_565 S
O464 C479 1.258 . S
O465 Gd420 2.606 . S
O465 Gd421 2.362 . S
O465 C476 1.284 . S
O466 Gd421 2.324 . S
O466 C486 1.254 . S
O467 Gd420 2.429 . S
O467 C486 1.268 . S
O468 Gd420 2.545 . S
O468 C476 1.250 . S
O469 Gd420 2.412 1_565 S
O469 C479 1.252 . S
O470 Gd421 2.545 . S
O470 C488 1.258 . S
O471 Gd420 2.362 . S
O471 Gd421 2.606 . S
O471 C487 1.284 . S
O472 Gd420 2.324 . S
O472 C495 1.254 . S
O473 Gd421 2.429 . S
O473 C495 1.268 . S
O474 Gd421 2.545 . S
O474 C487 1.250 . S
O475 Gd421 2.412 . S
O475 C488 1.252 . S
C476 O465 1.284 . S
C476 O468 1.250 . S
C477 H446 0.929 . S
C477 C462 1.437 . S
C477 C478 1.317 . S
C478 H449 0.930 . S
C478 C454 1.431 . S
C478 C477 1.317 . S
C479 Gd420 2.828 1_565 S
C479 O464 1.258 . S
C479 O469 1.252 . S
C479 C480 1.497 . S
C480 C479 1.497 . S
C480 C481 1.395 . S
C480 C482 1.380 . S
C481 C480 1.395 . S
C481 C484 1.398 . S
C481 H496 0.930 . S
C482 C480 1.380 . S
C482 C483 1.391 . S
C482 H497 0.930 . S
C483 C482 1.391 . S
C483 C485 1.387 . S
C484 C481 1.398 . S
C484 C485 1.380 . S
C484 H498 0.930 . S
C485 C483 1.387 . S
C485 C484 1.380 . S
C485 H499 0.930 . S
C486 O466 1.254 . S
C486 O467 1.268 . S
C487 O471 1.284 . S
C487 O474 1.250 . S
C488 Gd421 2.828 . S
C488 O470 1.258 . S
C488 O475 1.252 . S
C488 C489 1.497 . S
C489 C488 1.497 . S
C489 C490 1.395 . S
C489 C491 1.380 . S
C490 C489 1.395 . S
C490 C493 1.398 . S
C490 H500 0.930 . S
C491 C489 1.380 . S
C491 C492 1.391 . S
C491 H501 0.930 . S
C492 C491 1.391 . S
C492 C494 1.387 . S
C493 C490 1.398 . S
C493 C494 1.380 . S
C493 H502 0.930 . S
C494 C492 1.387 . S
C494 C493 1.380 . S
C494 H503 0.930 . S
C495 O472 1.254 . S
C495 O473 1.268 . S
H496 C481 0.930 . S
H497 C482 0.930 . S
H498 C484 0.930 . S
H499 C485 0.930 . S
H500 C490 0.930 . S
H501 C491 0.930 . S
H502 C493 0.930 . S
H503 C494 0.930 . S
Gd504 N535 2.661 . S
Gd504 N541 2.601 . S
Gd504 O548 2.545 1_545 S
Gd504 O549 2.606 . S
Gd504 O551 2.429 . S
Gd504 O552 2.545 . S
Gd504 O553 2.412 1_545 S
Gd504 O555 2.362 . S
Gd504 O556 2.324 . S
Gd504 C563 2.828 1_545 S
Gd505 N514 2.661 . S
Gd505 N518 2.601 . S
Gd505 O549 2.362 . S
Gd505 O550 2.324 . S
Gd505 O554 2.545 . S
Gd505 O555 2.606 . S
Gd505 O557 2.429 . S
Gd505 O558 2.545 . S
Gd505 O559 2.412 . S
Gd505 C572 2.828 . S
C506 C509 1.417 . S
C506 C511 1.431 . S
C506 C512 1.412 . S
C507 C510 1.437 . S
C507 C511 1.317 . S
C507 H526 0.929 1_655 S
C508 C509 1.426 . S
C508 C510 1.413 . S
C508 N518 1.359 . S
C509 C506 1.417 . S
C509 C508 1.426 . S
C509 N514 1.350 . S
C510 C507 1.437 . S
C510 C508 1.413 . S
C510 C520 1.391 . S
C511 C506 1.431 . S
C511 C507 1.317 . S
C511 H522 0.930 1_655 S
C512 C506 1.412 . S
C512 C513 1.355 . S
C512 H524 0.901 1_655 S
C513 C512 1.355 . S
C513 C515 1.402 . S
C513 H525 0.930 . S
N514 Gd505 2.661 . S
N514 C509 1.350 . S
N514 C515 1.307 . S
C515 C513 1.402 . S
C515 N514 1.307 . S
C515 H516 0.930 . S
H516 C515 0.930 . S
C517 N518 1.334 . S
C517 C519 1.394 . S
C517 H521 0.930 . S
N518 Gd505 2.601 . S
N518 C508 1.359 . S
N518 C517 1.334 . S
C519 C517 1.394 . S
C519 C520 1.359 . S
C519 H531 0.930 . S
C520 C510 1.391 . S
C520 C519 1.359 . S
C520 H532 0.929 . S
H521 C517 0.930 . S
H522 C511 0.930 1_455 S
H523 C540 0.930 . S
H524 C512 0.901 1_455 S
H525 C513 0.930 . S
H526 C507 0.929 1_455 S
H527 C545 0.930 . S
H528 C536 0.930 . S
H529 C537 0.930 . S
H530 C561 0.929 . S
H531 C519 0.930 . S
H532 C520 0.929 . S
H533 C562 0.930 . S
H534 C543 0.930 . S
N535 Gd504 2.661 . S
N535 C539 1.350 . S
N535 C540 1.307 . S
C536 H528 0.930 . S
C536 C537 1.355 . S
C536 C538 1.412 . S
C537 H529 0.930 . S
C537 C536 1.355 . S
C537 C540 1.402 . S
C538 C536 1.412 . S
C538 C539 1.417 . S
C538 C562 1.431 . S
C539 N535 1.350 . S
C539 C538 1.417 . S
C539 C542 1.426 . S
C540 H523 0.930 . S
C540 N535 1.307 . S
C540 C537 1.402 . S
N541 Gd504 2.601 . S
N541 C542 1.359 . S
N541 C545 1.334 . S
C542 C539 1.426 . S
C542 N541 1.359 . S
C542 C546 1.413 . S
C543 H534 0.930 . S
C543 C544 1.359 . S
C543 C545 1.394 . S
C544 C543 1.359 . S
C544 C546 1.391 . S
C544 H547 0.929 . S
C545 H527 0.930 . S
C545 N541 1.334 . S
C545 C543 1.394 . S
C546 C542 1.413 . S
C546 C544 1.391 . S
C546 C561 1.437 . S
H547 C544 0.929 . S
O548 Gd504 2.545 1_565 S
O548 C563 1.258 . S
O549 Gd504 2.606 . S
O549 Gd505 2.362 . S
O549 C560 1.284 . S
O550 Gd505 2.324 . S
O550 C570 1.254 . S
O551 Gd504 2.429 . S
O551 C570 1.268 . S
O552 Gd504 2.545 . S
O552 C560 1.250 . S
O553 Gd504 2.412 1_565 S
O553 C563 1.252 . S
O554 Gd505 2.545 . S
O554 C572 1.258 . S
O555 Gd504 2.362 . S
O555 Gd505 2.606 . S
O555 C571 1.284 . S
O556 Gd504 2.324 . S
O556 C579 1.254 . S
O557 Gd505 2.429 . S
O557 C579 1.268 . S
O558 Gd505 2.545 . S
O558 C571 1.250 . S
O559 Gd505 2.412 . S
O559 C572 1.252 . S
C560 O549 1.284 . S
C560 O552 1.250 . S
C561 H530 0.929 . S
C561 C546 1.437 . S
C561 C562 1.317 . S
C562 H533 0.930 . S
C562 C538 1.431 . S
C562 C561 1.317 . S
C563 Gd504 2.828 1_565 S
C563 O548 1.258 . S
C563 O553 1.252 . S
C563 C564 1.497 . S
C564 C563 1.497 . S
C564 C565 1.395 . S
C564 C566 1.380 . S
C565 C564 1.395 . S
C565 C568 1.398 . S
C565 H580 0.930 . S
C566 C564 1.380 . S
C566 C567 1.391 . S
C566 H581 0.930 . S
C567 C566 1.391 . S
C567 C569 1.387 . S
C568 C565 1.398 . S
C568 C569 1.380 . S
C568 H582 0.930 . S
C569 C567 1.387 . S
C569 C568 1.380 . S
C569 H583 0.930 . S
C570 O550 1.254 . S
C570 O551 1.268 . S
C571 O555 1.284 . S
C571 O558 1.250 . S
C572 Gd505 2.828 . S
C572 O554 1.258 . S
C572 O559 1.252 . S
C572 C573 1.497 . S
C573 C572 1.497 . S
C573 C574 1.395 . S
C573 C575 1.380 . S
C574 C573 1.395 . S
C574 C577 1.398 . S
C574 H584 0.930 . S
C575 C573 1.380 . S
C575 C576 1.391 . S
C575 H585 0.930 . S
C576 C575 1.391 . S
C576 C578 1.387 . S
C577 C574 1.398 . S
C577 C578 1.380 . S
C577 H586 0.930 . S
C578 C576 1.387 . S
C578 C577 1.380 . S
C578 H587 0.930 . S
C579 O556 1.254 . S
C579 O557 1.268 . S
H580 C565 0.930 . S
H581 C566 0.930 . S
H582 C568 0.930 . S
H583 C569 0.930 . S
H584 C574 0.930 . S
H585 C575 0.930 . S
H586 C577 0.930 . S
H587 C578 0.930 . S
Gd588 N619 2.661 . S
Gd588 N625 2.601 . S
Gd588 O632 2.545 1_565 S
Gd588 O633 2.606 . S
Gd588 O635 2.429 . S
Gd588 O636 2.545 . S
Gd588 O637 2.412 1_565 S
Gd588 O639 2.362 . S
Gd588 O640 2.324 . S
Gd588 C647 2.828 1_565 S
Gd589 N598 2.661 . S
Gd589 N602 2.601 . S
Gd589 O633 2.362 . S
Gd589 O634 2.324 . S
Gd589 O638 2.545 . S
Gd589 O639 2.606 . S
Gd589 O641 2.429 . S
Gd589 O642 2.545 . S
Gd589 O643 2.412 . S
Gd589 C656 2.828 . S
C590 C593 1.417 . S
C590 C595 1.431 . S
C590 C596 1.412 . S
C591 C594 1.437 . S
C591 C595 1.317 . S
C591 H610 0.929 1_455 S
C592 C593 1.426 . S
C592 C594 1.413 . S
C592 N602 1.359 . S
C593 C590 1.417 . S
C593 C592 1.426 . S
C593 N598 1.350 . S
C594 C591 1.437 . S
C594 C592 1.413 . S
C594 C604 1.391 . S
C595 C590 1.431 . S
C595 C591 1.317 . S
C595 H606 0.930 1_455 S
C596 C590 1.412 . S
C596 C597 1.355 . S
C596 H608 0.901 1_455 S
C597 C596 1.355 . S
C597 C599 1.402 . S
C597 H609 0.930 . S
N598 Gd589 2.661 . S
N598 C593 1.350 . S
N598 C599 1.307 . S
C599 C597 1.402 . S
C599 N598 1.307 . S
C599 H600 0.930 . S
H600 C599 0.930 . S
C601 N602 1.334 . S
C601 C603 1.394 . S
C601 H605 0.930 . S
N602 Gd589 2.601 . S
N602 C592 1.359 . S
N602 C601 1.334 . S
C603 C601 1.394 . S
C603 C604 1.359 . S
C603 H615 0.930 . S
C604 C594 1.391 . S
C604 C603 1.359 . S
C604 H616 0.929 . S
H605 C601 0.930 . S
H606 C595 0.930 1_655 S
H607 C624 0.930 . S
H608 C596 0.901 1_655 S
H609 C597 0.930 . S
H610 C591 0.929 1_655 S
H611 C629 0.930 . S
H612 C620 0.930 . S
H613 C621 0.930 . S
H614 C645 0.929 . S
H615 C603 0.930 . S
H616 C604 0.929 . S
H617 C646 0.930 . S
H618 C627 0.930 . S
N619 Gd588 2.661 . S
N619 C623 1.350 . S
N619 C624 1.307 . S
C620 H612 0.930 . S
C620 C621 1.355 . S
C620 C622 1.412 . S
C621 H613 0.930 . S
C621 C620 1.355 . S
C621 C624 1.402 . S
C622 C620 1.412 . S
C622 C623 1.417 . S
C622 C646 1.431 . S
C623 N619 1.350 . S
C623 C622 1.417 . S
C623 C626 1.426 . S
C624 H607 0.930 . S
C624 N619 1.307 . S
C624 C621 1.402 . S
N625 Gd588 2.601 . S
N625 C626 1.359 . S
N625 C629 1.334 . S
C626 C623 1.426 . S
C626 N625 1.359 . S
C626 C630 1.413 . S
C627 H618 0.930 . S
C627 C628 1.359 . S
C627 C629 1.394 . S
C628 C627 1.359 . S
C628 C630 1.391 . S
C628 H631 0.929 . S
C629 H611 0.930 . S
C629 N625 1.334 . S
C629 C627 1.394 . S
C630 C626 1.413 . S
C630 C628 1.391 . S
C630 C645 1.437 . S
H631 C628 0.929 . S
O632 Gd588 2.545 1_545 S
O632 C647 1.258 . S
O633 Gd588 2.606 . S
O633 Gd589 2.362 . S
O633 C644 1.284 . S
O634 Gd589 2.324 . S
O634 C654 1.254 . S
O635 Gd588 2.429 . S
O635 C654 1.268 . S
O636 Gd588 2.545 . S
O636 C644 1.250 . S
O637 Gd588 2.412 1_545 S
O637 C647 1.252 . S
O638 Gd589 2.545 . S
O638 C656 1.258 . S
O639 Gd588 2.362 . S
O639 Gd589 2.606 . S
O639 C655 1.284 . S
O640 Gd588 2.324 . S
O640 C663 1.254 . S
O641 Gd589 2.429 . S
O641 C663 1.268 . S
O642 Gd589 2.545 . S
O642 C655 1.250 . S
O643 Gd589 2.412 . S
O643 C656 1.252 . S
C644 O633 1.284 . S
C644 O636 1.250 . S
C645 H614 0.929 . S
C645 C630 1.437 . S
C645 C646 1.317 . S
C646 H617 0.930 . S
C646 C622 1.431 . S
C646 C645 1.317 . S
C647 Gd588 2.828 1_545 S
C647 O632 1.258 . S
C647 O637 1.252 . S
C647 C648 1.497 . S
C648 C647 1.497 . S
C648 C649 1.395 . S
C648 C650 1.380 . S
C649 C648 1.395 . S
C649 C652 1.398 . S
C649 H664 0.930 . S
C650 C648 1.380 . S
C650 C651 1.391 . S
C650 H665 0.930 . S
C651 C650 1.391 . S
C651 C653 1.387 . S
C652 C649 1.398 . S
C652 C653 1.380 . S
C652 H666 0.930 . S
C653 C651 1.387 . S
C653 C652 1.380 . S
C653 H667 0.930 . S
C654 O634 1.254 . S
C654 O635 1.268 . S
C655 O639 1.284 . S
C655 O642 1.250 . S
C656 Gd589 2.828 . S
C656 O638 1.258 . S
C656 O643 1.252 . S
C656 C657 1.497 . S
C657 C656 1.497 . S
C657 C658 1.395 . S
C657 C659 1.380 . S
C658 C657 1.395 . S
C658 C661 1.398 . S
C658 H668 0.930 . S
C659 C657 1.380 . S
C659 C660 1.391 . S
C659 H669 0.930 . S
C660 C659 1.391 . S
C660 C662 1.387 . S
C661 C658 1.398 . S
C661 C662 1.380 . S
C661 H670 0.930 . S
C662 C660 1.387 . S
C662 C661 1.380 . S
C662 H671 0.930 . S
C663 O640 1.254 . S
C663 O641 1.268 . S
H664 C649 0.930 . S
H665 C650 0.930 . S
H666 C652 0.930 . S
H667 C653 0.930 . S
H668 C658 0.930 . S
H669 C659 0.930 . S
H670 C661 0.930 . S
H671 C662 0.930 . S
Gd672 N703 2.661 . S
Gd672 N709 2.601 . S
Gd672 O716 2.545 . S
Gd672 O717 2.606 . S
Gd672 O719 2.429 . S
Gd672 O720 2.545 . S
Gd672 O721 2.412 . S
Gd672 O723 2.362 . S
Gd672 O724 2.324 . S
Gd672 C731 2.828 . S
Gd673 N682 2.661 . S
Gd673 N686 2.601 . S
Gd673 O717 2.362 . S
Gd673 O718 2.324 . S
Gd673 O722 2.545 . S
Gd673 O723 2.606 . S
Gd673 O725 2.429 . S
Gd673 O726 2.545 . S
Gd673 O727 2.412 . S
Gd673 C740 2.828 . S
C674 C677 1.417 . S
C674 C679 1.431 . S
C674 C680 1.412 . S
C675 C678 1.437 . S
C675 C679 1.317 . S
C675 H694 0.929 . S
C676 C677 1.426 . S
C676 C678 1.413 . S
C676 N686 1.359 . S
C677 C674 1.417 . S
C677 C676 1.426 . S
C677 N682 1.350 . S
C678 C675 1.437 . S
C678 C676 1.413 . S
C678 C688 1.391 . S
C679 C674 1.431 . S
C679 C675 1.317 . S
C679 H690 0.930 . S
C680 C674 1.412 . S
C680 C681 1.355 . S
C680 H692 0.930 . S
C681 C680 1.355 . S
C681 C683 1.402 . S
C681 H693 0.930 . S
N682 Gd673 2.661 . S
N682 C677 1.350 . S
N682 C683 1.307 . S
C683 C681 1.402 . S
C683 N682 1.307 . S
C683 H684 0.930 . S
H684 C683 0.930 . S
C685 N686 1.334 . S
C685 C687 1.394 . S
C685 H689 0.930 . S
N686 Gd673 2.601 . S
N686 C676 1.359 . S
N686 C685 1.334 . S
C687 C685 1.394 . S
C687 C688 1.359 . S
C687 H699 0.930 . S
C688 C678 1.391 . S
C688 C687 1.359 . S
C688 H700 0.929 . S
H689 C685 0.930 . S
H690 C679 0.930 . S
H691 C708 0.930 . S
H692 C680 0.930 . S
H693 C681 0.930 . S
H694 C675 0.929 . S
H695 C713 0.930 . S
H696 C704 0.930 . S
H697 C705 0.930 . S
H698 C729 0.929 . S
H699 C687 0.930 . S
H700 C688 0.929 . S
H701 C730 0.930 . S
H702 C711 0.930 . S
N703 Gd672 2.661 . S
N703 C707 1.350 . S
N703 C708 1.307 . S
C704 H696 0.930 . S
C704 C705 1.355 . S
C704 C706 1.412 . S
C705 H697 0.930 . S
C705 C704 1.355 . S
C705 C708 1.402 . S
C706 C704 1.412 . S
C706 C707 1.417 . S
C706 C730 1.431 . S
C707 N703 1.350 . S
C707 C706 1.417 . S
C707 C710 1.426 . S
C708 H691 0.930 . S
C708 N703 1.307 . S
C708 C705 1.402 . S
N709 Gd672 2.601 . S
N709 C710 1.359 . S
N709 C713 1.334 . S
C710 C707 1.426 . S
C710 N709 1.359 . S
C710 C714 1.413 . S
C711 H702 0.930 . S
C711 C712 1.359 . S
C711 C713 1.394 . S
C712 C711 1.359 . S
C712 C714 1.391 . S
C712 H715 0.929 . S
C713 H695 0.930 . S
C713 N709 1.334 . S
C713 C711 1.394 . S
C714 C710 1.413 . S
C714 C712 1.391 . S
C714 C729 1.437 . S
H715 C712 0.929 . S
O716 Gd672 2.545 . S
O716 C731 1.258 . S
O717 Gd672 2.606 . S
O717 Gd673 2.362 . S
O717 C728 1.284 . S
O718 Gd673 2.324 . S
O718 C738 1.254 . S
O719 Gd672 2.429 . S
O719 C738 1.268 . S
O720 Gd672 2.545 . S
O720 C728 1.250 . S
O721 Gd672 2.412 . S
O721 C731 1.252 . S
O722 Gd673 2.545 . S
O722 C740 1.258 . S
O723 Gd672 2.362 . S
O723 Gd673 2.606 . S
O723 C739 1.284 . S
O724 Gd672 2.324 . S
O724 C747 1.254 . S
O725 Gd673 2.429 . S
O725 C747 1.268 . S
O726 Gd673 2.545 . S
O726 C739 1.250 . S
O727 Gd673 2.412 . S
O727 C740 1.252 . S
C728 O717 1.284 . S
C728 O720 1.250 . S
C729 H698 0.929 . S
C729 C714 1.437 . S
C729 C730 1.317 . S
C730 H701 0.930 . S
C730 C706 1.431 . S
C730 C729 1.317 . S
C731 Gd672 2.828 . S
C731 O716 1.258 . S
C731 O721 1.252 . S
C731 C732 1.497 . S
C732 C731 1.497 . S
C732 C733 1.395 . S
C732 C734 1.380 . S
C733 C732 1.395 . S
C733 C736 1.398 . S
C733 H748 0.930 . S
C734 C732 1.380 . S
C734 C735 1.391 . S
C734 H749 0.930 . S
C735 C734 1.391 . S
C735 C737 1.387 . S
C736 C733 1.398 . S
C736 C737 1.380 . S
C736 H750 0.930 . S
C737 C735 1.387 . S
C737 C736 1.380 . S
C737 H751 0.930 1_565 S
C738 O718 1.254 . S
C738 O719 1.268 . S
C739 O723 1.284 . S
C739 O726 1.250 . S
C740 Gd673 2.828 . S
C740 O722 1.258 . S
C740 O727 1.252 . S
C740 C741 1.497 . S
C741 C740 1.497 . S
C741 C742 1.395 . S
C741 C743 1.380 . S
C742 C741 1.395 . S
C742 C745 1.398 . S
C742 H752 0.930 . S
C743 C741 1.380 . S
C743 C744 1.391 . S
C743 H753 0.930 . S
C744 C743 1.391 . S
C744 C746 1.387 . S
C745 C742 1.398 . S
C745 C746 1.380 . S
C745 H754 0.930 . S
C746 C744 1.387 . S
C746 C745 1.380 . S
C746 H755 0.930 . S
C747 O724 1.254 . S
C747 O725 1.268 . S
H748 C733 0.930 . S
H749 C734 0.930 . S
H750 C736 0.930 . S
H751 C737 0.930 1_545 S
H752 C742 0.930 . S
H753 C743 0.930 . S
H754 C745 0.930 . S
H755 C746 0.930 . S
Gd756 N787 2.661 . S
Gd756 N793 2.601 . S
Gd756 O800 2.545 . S
Gd756 O801 2.606 . S
Gd756 O803 2.429 . S
Gd756 O804 2.545 . S
Gd756 O805 2.412 . S
Gd756 O807 2.362 . S
Gd756 O808 2.324 . S
Gd756 C815 2.828 . S
Gd757 N766 2.661 . S
Gd757 N770 2.601 . S
Gd757 O801 2.362 . S
Gd757 O802 2.324 . S
Gd757 O806 2.545 . S
Gd757 O807 2.606 . S
Gd757 O809 2.429 . S
Gd757 O810 2.545 . S
Gd757 O811 2.412 . S
Gd757 C824 2.828 . S
C758 C761 1.417 . S
C758 C763 1.431 . S
C758 C764 1.412 . S
C759 C762 1.437 . S
C759 C763 1.317 . S
C759 H778 0.929 . S
C760 C761 1.426 . S
C760 C762 1.413 . S
C760 N770 1.359 . S
C761 C758 1.417 . S
C761 C760 1.426 . S
C761 N766 1.350 . S
C762 C759 1.437 . S
C762 C760 1.413 . S
C762 C772 1.391 . S
C763 C758 1.431 . S
C763 C759 1.317 . S
C763 H774 0.930 . S
C764 C758 1.412 . S
C764 C765 1.355 . S
C764 H776 0.930 . S
C765 C764 1.355 . S
C765 C767 1.402 . S
C765 H777 0.930 . S
N766 Gd757 2.661 . S
N766 C761 1.350 . S
N766 C767 1.307 . S
C767 C765 1.402 . S
C767 N766 1.307 . S
C767 H768 0.930 . S
H768 C767 0.930 . S
C769 N770 1.334 . S
C769 C771 1.394 . S
C769 H773 0.930 . S
N770 Gd757 2.601 . S
N770 C760 1.359 . S
N770 C769 1.334 . S
C771 C769 1.394 . S
C771 C772 1.359 . S
C771 H783 0.930 . S
C772 C762 1.391 . S
C772 C771 1.359 . S
C772 H784 0.929 . S
H773 C769 0.930 . S
H774 C763 0.930 . S
H775 C792 0.930 . S
H776 C764 0.930 . S
H777 C765 0.930 . S
H778 C759 0.929 . S
H779 C797 0.930 . S
H780 C788 0.930 . S
H781 C789 0.930 . S
H782 C813 0.929 . S
H783 C771 0.930 . S
H784 C772 0.929 . S
H785 C814 0.930 . S
H786 C795 0.930 . S
N787 Gd756 2.661 . S
N787 C791 1.350 . S
N787 C792 1.307 . S
C788 H780 0.930 . S
C788 C789 1.355 . S
C788 C790 1.412 . S
C789 H781 0.930 . S
C789 C788 1.355 . S
C789 C792 1.402 . S
C790 C788 1.412 . S
C790 C791 1.417 . S
C790 C814 1.431 . S
C791 N787 1.350 . S
C791 C790 1.417 . S
C791 C794 1.426 . S
C792 H775 0.930 . S
C792 N787 1.307 . S
C792 C789 1.402 . S
N793 Gd756 2.601 . S
N793 C794 1.359 . S
N793 C797 1.334 . S
C794 C791 1.426 . S
C794 N793 1.359 . S
C794 C798 1.413 . S
C795 H786 0.930 . S
C795 C796 1.359 . S
C795 C797 1.394 . S
C796 C795 1.359 . S
C796 C798 1.391 . S
C796 H799 0.929 . S
C797 H779 0.930 . S
C797 N793 1.334 . S
C797 C795 1.394 . S
C798 C794 1.413 . S
C798 C796 1.391 . S
C798 C813 1.437 . S
H799 C796 0.929 . S
O800 Gd756 2.545 . S
O800 C815 1.258 . S
O801 Gd756 2.606 . S
O801 Gd757 2.362 . S
O801 C812 1.284 . S
O802 Gd757 2.324 . S
O802 C822 1.254 . S
O803 Gd756 2.429 . S
O803 C822 1.268 . S
O804 Gd756 2.545 . S
O804 C812 1.250 . S
O805 Gd756 2.412 . S
O805 C815 1.252 . S
O806 Gd757 2.545 . S
O806 C824 1.258 . S
O807 Gd756 2.362 . S
O807 Gd757 2.606 . S
O807 C823 1.284 . S
O808 Gd756 2.324 . S
O808 C831 1.254 . S
O809 Gd757 2.429 . S
O809 C831 1.268 . S
O810 Gd757 2.545 . S
O810 C823 1.250 . S
O811 Gd757 2.412 . S
O811 C824 1.252 . S
C812 O801 1.284 . S
C812 O804 1.250 . S
C813 H782 0.929 . S
C813 C798 1.437 . S
C813 C814 1.317 . S
C814 H785 0.930 . S
C814 C790 1.431 . S
C814 C813 1.317 . S
C815 Gd756 2.828 . S
C815 O800 1.258 . S
C815 O805 1.252 . S
C815 C816 1.497 . S
C816 C815 1.497 . S
C816 C817 1.395 . S
C816 C818 1.380 . S
C817 C816 1.395 . S
C817 C820 1.398 . S
C817 H832 0.930 . S
C818 C816 1.380 . S
C818 C819 1.391 . S
C818 H833 0.930 . S
C819 C818 1.391 . S
C819 C821 1.387 . S
C820 C817 1.398 . S
C820 C821 1.380 . S
C820 H834 0.930 . S
C821 C819 1.387 . S
C821 C820 1.380 . S
C821 H835 0.930 1_545 S
C822 O802 1.254 . S
C822 O803 1.268 . S
C823 O807 1.284 . S
C823 O810 1.250 . S
C824 Gd757 2.828 . S
C824 O806 1.258 . S
C824 O811 1.252 . S
C824 C825 1.497 . S
C825 C824 1.497 . S
C825 C826 1.395 . S
C825 C827 1.380 . S
C826 C825 1.395 . S
C826 C829 1.398 . S
C826 H836 0.930 . S
C827 C825 1.380 . S
C827 C828 1.391 . S
C827 H837 0.930 . S
C828 C827 1.391 . S
C828 C830 1.387 . S
C829 C826 1.398 . S
C829 C830 1.380 . S
C829 H838 0.930 . S
C830 C828 1.387 . S
C830 C829 1.380 . S
C830 H839 0.930 . S
C831 O808 1.254 . S
C831 O809 1.268 . S
H832 C817 0.930 . S
H833 C818 0.930 . S
H834 C820 0.930 . S
H835 C821 0.930 1_565 S
H836 C826 0.930 . S
H837 C827 0.930 . S
H838 C829 0.930 . S
H839 C830 0.930 . S
Gd840 N871 2.661 . S
Gd840 N877 2.601 . S
Gd840 O884 2.545 . S
Gd840 O885 2.606 . S
Gd840 O887 2.429 . S
Gd840 O888 2.545 . S
Gd840 O889 2.412 . S
Gd840 O891 2.362 . S
Gd840 O892 2.324 . S
Gd840 C899 2.828 . S
Gd841 N850 2.661 . S
Gd841 N854 2.601 . S
Gd841 O885 2.362 . S
Gd841 O886 2.324 . S
Gd841 O890 2.545 . S
Gd841 O891 2.606 . S
Gd841 O893 2.429 . S
Gd841 O894 2.545 . S
Gd841 O895 2.412 . S
Gd841 C908 2.828 . S
C842 C845 1.417 . S
C842 C847 1.431 . S
C842 C848 1.412 . S
C843 C846 1.437 . S
C843 C847 1.317 . S
C843 H862 0.929 . S
C844 C845 1.426 . S
C844 C846 1.413 . S
C844 N854 1.359 . S
C845 C842 1.417 . S
C845 C844 1.426 . S
C845 N850 1.350 . S
C846 C843 1.437 . S
C846 C844 1.413 . S
C846 C856 1.391 . S
C847 C842 1.431 . S
C847 C843 1.317 . S
C847 H858 0.930 . S
C848 C842 1.412 . S
C848 C849 1.355 . S
C848 H860 0.930 . S
C849 C848 1.355 . S
C849 C851 1.402 . S
C849 H861 0.930 . S
N850 Gd841 2.661 . S
N850 C845 1.350 . S
N850 C851 1.307 . S
C851 C849 1.402 . S
C851 N850 1.307 . S
C851 H852 0.930 . S
H852 C851 0.930 . S
C853 N854 1.334 . S
C853 C855 1.394 . S
C853 H857 0.930 . S
N854 Gd841 2.601 . S
N854 C844 1.359 . S
N854 C853 1.334 . S
C855 C853 1.394 . S
C855 C856 1.359 . S
C855 H867 0.930 . S
C856 C846 1.391 . S
C856 C855 1.359 . S
C856 H868 0.929 . S
H857 C853 0.930 . S
H858 C847 0.930 . S
H859 C876 0.930 . S
H860 C848 0.930 . S
H861 C849 0.930 . S
H862 C843 0.929 . S
H863 C881 0.930 . S
H864 C872 0.930 . S
H865 C873 0.930 . S
H866 C897 0.929 . S
H867 C855 0.930 . S
H868 C856 0.929 . S
H869 C898 0.930 . S
H870 C879 0.930 . S
N871 Gd840 2.661 . S
N871 C875 1.350 . S
N871 C876 1.307 . S
C872 H864 0.930 . S
C872 C873 1.355 . S
C872 C874 1.412 . S
C873 H865 0.930 . S
C873 C872 1.355 . S
C873 C876 1.402 . S
C874 C872 1.412 . S
C874 C875 1.417 . S
C874 C898 1.431 . S
C875 N871 1.350 . S
C875 C874 1.417 . S
C875 C878 1.426 . S
C876 H859 0.930 . S
C876 N871 1.307 . S
C876 C873 1.402 . S
N877 Gd840 2.601 . S
N877 C878 1.359 . S
N877 C881 1.334 . S
C878 C875 1.426 . S
C878 N877 1.359 . S
C878 C882 1.413 . S
C879 H870 0.930 . S
C879 C880 1.359 . S
C879 C881 1.394 . S
C880 C879 1.359 . S
C880 C882 1.391 . S
C880 H883 0.929 . S
C881 H863 0.930 . S
C881 N877 1.334 . S
C881 C879 1.394 . S
C882 C878 1.413 . S
C882 C880 1.391 . S
C882 C897 1.437 . S
H883 C880 0.929 . S
O884 Gd840 2.545 . S
O884 C899 1.258 . S
O885 Gd840 2.606 . S
O885 Gd841 2.362 . S
O885 C896 1.284 . S
O886 Gd841 2.324 . S
O886 C906 1.254 . S
O887 Gd840 2.429 . S
O887 C906 1.268 . S
O888 Gd840 2.545 . S
O888 C896 1.250 . S
O889 Gd840 2.412 . S
O889 C899 1.252 . S
O890 Gd841 2.545 . S
O890 C908 1.258 . S
O891 Gd840 2.362 . S
O891 Gd841 2.606 . S
O891 C907 1.284 . S
O892 Gd840 2.324 . S
O892 C915 1.254 . S
O893 Gd841 2.429 . S
O893 C915 1.268 . S
O894 Gd841 2.545 . S
O894 C907 1.250 . S
O895 Gd841 2.412 . S
O895 C908 1.252 . S
C896 O885 1.284 . S
C896 O888 1.250 . S
C897 H866 0.929 . S
C897 C882 1.437 . S
C897 C898 1.317 . S
C898 H869 0.930 . S
C898 C874 1.431 . S
C898 C897 1.317 . S
C899 Gd840 2.828 . S
C899 O884 1.258 . S
C899 O889 1.252 . S
C899 C900 1.497 . S
C900 C899 1.497 . S
C900 C901 1.395 . S
C900 C902 1.380 . S
C901 C900 1.395 . S
C901 C904 1.398 . S
C901 H916 0.930 . S
C902 C900 1.380 . S
C902 C903 1.391 . S
C902 H917 0.930 . S
C903 C902 1.391 . S
C903 C905 1.387 . S
C904 C901 1.398 . S
C904 C905 1.380 . S
C904 H918 0.930 . S
C905 C903 1.387 . S
C905 C904 1.380 . S
C905 H919 0.930 1_545 S
C906 O886 1.254 . S
C906 O887 1.268 . S
C907 O891 1.284 . S
C907 O894 1.250 . S
C908 Gd841 2.828 . S
C908 O890 1.258 . S
C908 O895 1.252 . S
C908 C909 1.497 . S
C909 C908 1.497 . S
C909 C910 1.395 . S
C909 C911 1.380 . S
C910 C909 1.395 . S
C910 C913 1.398 . S
C910 H920 0.930 . S
C911 C909 1.380 . S
C911 C912 1.391 . S
C911 H921 0.930 . S
C912 C911 1.391 . S
C912 C914 1.387 . S
C913 C910 1.398 . S
C913 C914 1.380 . S
C913 H922 0.930 . S
C914 C912 1.387 . S
C914 C913 1.380 . S
C914 H923 0.930 . S
C915 O892 1.254 . S
C915 O893 1.268 . S
H916 C901 0.930 . S
H917 C902 0.930 . S
H918 C904 0.930 . S
H919 C905 0.930 1_565 S
H920 C910 0.930 . S
H921 C911 0.930 . S
H922 C913 0.930 . S
H923 C914 0.930 . S
Gd924 N955 2.661 . S
Gd924 N961 2.601 . S
Gd924 O968 2.545 . S
Gd924 O969 2.606 . S
Gd924 O971 2.429 . S
Gd924 O972 2.545 . S
Gd924 O973 2.412 . S
Gd924 O975 2.362 . S
Gd924 O976 2.324 . S
Gd924 C983 2.828 . S
Gd925 N934 2.661 . S
Gd925 N938 2.601 . S
Gd925 O969 2.362 . S
Gd925 O970 2.324 . S
Gd925 O974 2.545 . S
Gd925 O975 2.606 . S
Gd925 O977 2.429 . S
Gd925 O978 2.545 . S
Gd925 O979 2.412 . S
Gd925 C992 2.828 . S
C926 C929 1.417 . S
C926 C931 1.431 . S
C926 C932 1.412 . S
C927 C930 1.437 . S
C927 C931 1.317 . S
C927 H946 0.929 . S
C928 C929 1.426 . S
C928 C930 1.413 . S
C928 N938 1.359 . S
C929 C926 1.417 . S
C929 C928 1.426 . S
C929 N934 1.350 . S
C930 C927 1.437 . S
C930 C928 1.413 . S
C930 C940 1.391 . S
C931 C926 1.431 . S
C931 C927 1.317 . S
C931 H942 0.930 . S
C932 C926 1.412 . S
C932 C933 1.355 . S
C932 H944 0.930 . S
C933 C932 1.355 . S
C933 C935 1.402 . S
C933 H945 0.930 . S
N934 Gd925 2.661 . S
N934 C929 1.350 . S
N934 C935 1.307 . S
C935 C933 1.402 . S
C935 N934 1.307 . S
C935 H936 0.930 . S
H936 C935 0.930 . S
C937 N938 1.334 . S
C937 C939 1.394 . S
C937 H941 0.930 . S
N938 Gd925 2.601 . S
N938 C928 1.359 . S
N938 C937 1.334 . S
C939 C937 1.394 . S
C939 C940 1.359 . S
C939 H951 0.930 . S
C940 C930 1.391 . S
C940 C939 1.359 . S
C940 H952 0.929 . S
H941 C937 0.930 . S
H942 C931 0.930 . S
H943 C960 0.930 . S
H944 C932 0.930 . S
H945 C933 0.930 . S
H946 C927 0.929 . S
H947 C965 0.930 . S
H948 C956 0.930 . S
H949 C957 0.930 . S
H950 C981 0.929 . S
H951 C939 0.930 . S
H952 C940 0.929 . S
H953 C982 0.930 . S
H954 C963 0.930 . S
N955 Gd924 2.661 . S
N955 C959 1.350 . S
N955 C960 1.307 . S
C956 H948 0.930 . S
C956 C957 1.355 . S
C956 C958 1.412 . S
C957 H949 0.930 . S
C957 C956 1.355 . S
C957 C960 1.402 . S
C958 C956 1.412 . S
C958 C959 1.417 . S
C958 C982 1.431 . S
C959 N955 1.350 . S
C959 C958 1.417 . S
C959 C962 1.426 . S
C960 H943 0.930 . S
C960 N955 1.307 . S
C960 C957 1.402 . S
N961 Gd924 2.601 . S
N961 C962 1.359 . S
N961 C965 1.334 . S
C962 C959 1.426 . S
C962 N961 1.359 . S
C962 C966 1.413 . S
C963 H954 0.930 . S
C963 C964 1.359 . S
C963 C965 1.394 . S
C964 C963 1.359 . S
C964 C966 1.391 . S
C964 H967 0.929 . S
C965 H947 0.930 . S
C965 N961 1.334 . S
C965 C963 1.394 . S
C966 C962 1.413 . S
C966 C964 1.391 . S
C966 C981 1.437 . S
H967 C964 0.929 . S
O968 Gd924 2.545 . S
O968 C983 1.258 . S
O969 Gd924 2.606 . S
O969 Gd925 2.362 . S
O969 C980 1.284 . S
O970 Gd925 2.324 . S
O970 C990 1.254 . S
O971 Gd924 2.429 . S
O971 C990 1.268 . S
O972 Gd924 2.545 . S
O972 C980 1.250 . S
O973 Gd924 2.412 . S
O973 C983 1.252 . S
O974 Gd925 2.545 . S
O974 C992 1.258 . S
O975 Gd924 2.362 . S
O975 Gd925 2.606 . S
O975 C991 1.284 . S
O976 Gd924 2.324 . S
O976 C999 1.254 . S
O977 Gd925 2.429 . S
O977 C999 1.268 . S
O978 Gd925 2.545 . S
O978 C991 1.250 . S
O979 Gd925 2.412 . S
O979 C992 1.252 . S
C980 O969 1.284 . S
C980 O972 1.250 . S
C981 H950 0.929 . S
C981 C966 1.437 . S
C981 C982 1.317 . S
C982 H953 0.930 . S
C982 C958 1.431 . S
C982 C981 1.317 . S
C983 Gd924 2.828 . S
C983 O968 1.258 . S
C983 O973 1.252 . S
C983 C984 1.497 . S
C984 C983 1.497 . S
C984 C985 1.395 . S
C984 C986 1.380 . S
C985 C984 1.395 . S
C985 C988 1.398 . S
C985 H1000 0.930 . S
C986 C984 1.380 . S
C986 C987 1.391 . S
C986 H1001 0.930 . S
C987 C986 1.391 . S
C987 C989 1.387 . S
C988 C985 1.398 . S
C988 C989 1.380 . S
C988 H1002 0.930 . S
C989 C987 1.387 . S
C989 C988 1.380 . S
C989 H1003 0.930 1_565 S
C990 O970 1.254 . S
C990 O971 1.268 . S
C991 O975 1.284 . S
C991 O978 1.250 . S
C992 Gd925 2.828 . S
C992 O974 1.258 . S
C992 O979 1.252 . S
C992 C993 1.497 . S
C993 C992 1.497 . S
C993 C994 1.395 . S
C993 C995 1.380 . S
C994 C993 1.395 . S
C994 C997 1.398 . S
C994 H1004 0.930 . S
C995 C993 1.380 . S
C995 C996 1.391 . S
C995 H1005 0.930 . S
C996 C995 1.391 . S
C996 C998 1.387 . S
C997 C994 1.398 . S
C997 C998 1.380 . S
C997 H1006 0.930 . S
C998 C996 1.387 . S
C998 C997 1.380 . S
C998 H1007 0.930 . S
C999 O976 1.254 . S
C999 O977 1.268 . S
H1000 C985 0.930 . S
H1001 C986 0.930 . S
H1002 C988 0.930 . S
H1003 C989 0.930 1_545 S
H1004 C994 0.930 . S
H1005 C995 0.930 . S
H1006 C997 0.930 . S
H1007 C998 0.930 . S
Gd1008 N1039 2.661 . S
Gd1008 N1045 2.601 . S
Gd1008 O1052 2.545 . S
Gd1008 O1053 2.606 . S
Gd1008 O1055 2.429 . S
Gd1008 O1056 2.545 . S
Gd1008 O1057 2.412 . S
Gd1008 O1059 2.362 . S
Gd1008 O1060 2.324 . S
Gd1008 C1067 2.828 . S
Gd1009 N1018 2.661 . S
Gd1009 N1022 2.601 . S
Gd1009 O1053 2.362 . S
Gd1009 O1054 2.324 . S
Gd1009 O1058 2.545 . S
Gd1009 O1059 2.606 . S
Gd1009 O1061 2.429 . S
Gd1009 O1062 2.545 . S
Gd1009 O1063 2.412 . S
Gd1009 C1076 2.828 . S
C1010 C1013 1.417 . S
C1010 C1015 1.431 . S
C1010 C1016 1.412 . S
C1011 C1014 1.437 . S
C1011 C1015 1.317 . S
C1011 H1030 0.929 . S
C1012 C1013 1.426 . S
C1012 C1014 1.413 . S
C1012 N1022 1.359 . S
C1013 C1010 1.417 . S
C1013 C1012 1.426 . S
C1013 N1018 1.350 . S
C1014 C1011 1.437 . S
C1014 C1012 1.413 . S
C1014 C1024 1.391 . S
C1015 C1010 1.431 . S
C1015 C1011 1.317 . S
C1015 H1026 0.930 . S
C1016 C1010 1.412 . S
C1016 C1017 1.355 . S
C1016 H1028 0.930 . S
C1017 C1016 1.355 . S
C1017 C1019 1.402 . S
C1017 H1029 0.930 . S
N1018 Gd1009 2.661 . S
N1018 C1013 1.350 . S
N1018 C1019 1.307 . S
C1019 C1017 1.402 . S
C1019 N1018 1.307 . S
C1019 H1020 0.930 . S
H1020 C1019 0.930 . S
C1021 N1022 1.334 . S
C1021 C1023 1.394 . S
C1021 H1025 0.930 . S
N1022 Gd1009 2.601 . S
N1022 C1012 1.359 . S
N1022 C1021 1.334 . S
C1023 C1021 1.394 . S
C1023 C1024 1.359 . S
C1023 H1035 0.930 . S
C1024 C1014 1.391 . S
C1024 C1023 1.359 . S
C1024 H1036 0.929 . S
H1025 C1021 0.930 . S
H1026 C1015 0.930 . S
H1027 C1044 0.930 . S
H1028 C1016 0.930 . S
H1029 C1017 0.930 . S
H1030 C1011 0.929 . S
H1031 C1049 0.930 . S
H1032 C1040 0.930 . S
H1033 C1041 0.930 . S
H1034 C1065 0.929 . S
H1035 C1023 0.930 . S
H1036 C1024 0.929 . S
H1037 C1066 0.930 . S
H1038 C1047 0.930 . S
N1039 Gd1008 2.661 . S
N1039 C1043 1.350 . S
N1039 C1044 1.307 . S
C1040 H1032 0.930 . S
C1040 C1041 1.355 . S
C1040 C1042 1.412 . S
C1041 H1033 0.930 . S
C1041 C1040 1.355 . S
C1041 C1044 1.402 . S
C1042 C1040 1.412 . S
C1042 C1043 1.417 . S
C1042 C1066 1.431 . S
C1043 N1039 1.350 . S
C1043 C1042 1.417 . S
C1043 C1046 1.426 . S
C1044 H1027 0.930 . S
C1044 N1039 1.307 . S
C1044 C1041 1.402 . S
N1045 Gd1008 2.601 . S
N1045 C1046 1.359 . S
N1045 C1049 1.334 . S
C1046 C1043 1.426 . S
C1046 N1045 1.359 . S
C1046 C1050 1.413 . S
C1047 H1038 0.930 . S
C1047 C1048 1.359 . S
C1047 C1049 1.394 . S
C1048 C1047 1.359 . S
C1048 C1050 1.391 . S
C1048 H1051 0.929 . S
C1049 H1031 0.930 . S
C1049 N1045 1.334 . S
C1049 C1047 1.394 . S
C1050 C1046 1.413 . S
C1050 C1048 1.391 . S
C1050 C1065 1.437 . S
H1051 C1048 0.929 . S
O1052 Gd1008 2.545 . S
O1052 C1067 1.258 . S
O1053 Gd1008 2.606 . S
O1053 Gd1009 2.362 . S
O1053 C1064 1.284 . S
O1054 Gd1009 2.324 . S
O1054 C1074 1.254 . S
O1055 Gd1008 2.429 . S
O1055 C1074 1.268 . S
O1056 Gd1008 2.545 . S
O1056 C1064 1.250 . S
O1057 Gd1008 2.412 . S
O1057 C1067 1.252 . S
O1058 Gd1009 2.545 . S
O1058 C1076 1.258 . S
O1059 Gd1008 2.362 . S
O1059 Gd1009 2.606 . S
O1059 C1075 1.284 . S
O1060 Gd1008 2.324 . S
O1060 C1083 1.254 . S
O1061 Gd1009 2.429 . S
O1061 C1083 1.268 . S
O1062 Gd1009 2.545 . S
O1062 C1075 1.250 . S
O1063 Gd1009 2.412 . S
O1063 C1076 1.252 . S
C1064 O1053 1.284 . S
C1064 O1056 1.250 . S
C1065 H1034 0.929 . S
C1065 C1050 1.437 . S
C1065 C1066 1.317 . S
C1066 H1037 0.930 . S
C1066 C1042 1.431 . S
C1066 C1065 1.317 . S
C1067 Gd1008 2.828 . S
C1067 O1052 1.258 . S
C1067 O1057 1.252 . S
C1067 C1068 1.497 . S
C1068 C1067 1.497 . S
C1068 C1069 1.395 . S
C1068 C1070 1.380 . S
C1069 C1068 1.395 . S
C1069 C1072 1.398 . S
C1069 H1084 0.930 . S
C1070 C1068 1.380 . S
C1070 C1071 1.391 . S
C1070 H1085 0.930 . S
C1071 C1070 1.391 . S
C1071 C1073 1.387 . S
C1072 C1069 1.398 . S
C1072 C1073 1.380 . S
C1072 H1086 0.930 . S
C1073 C1071 1.387 . S
C1073 C1072 1.380 . S
C1073 H1087 0.930 . S
C1074 O1054 1.254 . S
C1074 O1055 1.268 . S
C1075 O1059 1.284 . S
C1075 O1062 1.250 . S
C1076 Gd1009 2.828 . S
C1076 O1058 1.258 . S
C1076 O1063 1.252 . S
C1076 C1077 1.497 . S
C1077 C1076 1.497 . S
C1077 C1078 1.395 . S
C1077 C1079 1.380 . S
C1078 C1077 1.395 . S
C1078 C1081 1.398 . S
C1078 H1088 0.930 . S
C1079 C1077 1.380 . S
C1079 C1080 1.391 . S
C1079 H1089 0.930 . S
C1080 C1079 1.391 . S
C1080 C1082 1.387 . S
C1081 C1078 1.398 . S
C1081 C1082 1.380 . S
C1081 H1090 0.930 . S
C1082 C1080 1.387 . S
C1082 C1081 1.380 . S
C1082 H1091 0.930 1_545 S
C1083 O1060 1.254 . S
C1083 O1061 1.268 . S
H1084 C1069 0.930 . S
H1085 C1070 0.930 . S
H1086 C1072 0.930 . S
H1087 C1073 0.930 . S
H1088 C1078 0.930 . S
H1089 C1079 0.930 . S
H1090 C1081 0.930 . S
H1091 C1082 0.930 1_565 S
Gd1092 N1123 2.661 . S
Gd1092 N1129 2.601 . S
Gd1092 O1136 2.545 . S
Gd1092 O1137 2.606 . S
Gd1092 O1139 2.429 . S
Gd1092 O1140 2.545 . S
Gd1092 O1141 2.412 . S
Gd1092 O1143 2.362 . S
Gd1092 O1144 2.324 . S
Gd1092 C1151 2.828 . S
Gd1093 N1102 2.661 . S
Gd1093 N1106 2.601 . S
Gd1093 O1137 2.362 . S
Gd1093 O1138 2.324 . S
Gd1093 O1142 2.545 . S
Gd1093 O1143 2.606 . S
Gd1093 O1145 2.429 . S
Gd1093 O1146 2.545 . S
Gd1093 O1147 2.412 . S
Gd1093 C1160 2.828 . S
C1094 C1097 1.417 . S
C1094 C1099 1.431 . S
C1094 C1100 1.412 . S
C1095 C1098 1.437 . S
C1095 C1099 1.317 . S
C1095 H1114 0.929 . S
C1096 C1097 1.426 . S
C1096 C1098 1.413 . S
C1096 N1106 1.359 . S
C1097 C1094 1.417 . S
C1097 C1096 1.426 . S
C1097 N1102 1.350 . S
C1098 C1095 1.437 . S
C1098 C1096 1.413 . S
C1098 C1108 1.391 . S
C1099 C1094 1.431 . S
C1099 C1095 1.317 . S
C1099 H1110 0.930 . S
C1100 C1094 1.412 . S
C1100 C1101 1.355 . S
C1100 H1112 0.930 . S
C1101 C1100 1.355 . S
C1101 C1103 1.402 . S
C1101 H1113 0.930 . S
N1102 Gd1093 2.661 . S
N1102 C1097 1.350 . S
N1102 C1103 1.307 . S
C1103 C1101 1.402 . S
C1103 N1102 1.307 . S
C1103 H1104 0.930 . S
H1104 C1103 0.930 . S
C1105 N1106 1.334 . S
C1105 C1107 1.394 . S
C1105 H1109 0.930 . S
N1106 Gd1093 2.601 . S
N1106 C1096 1.359 . S
N1106 C1105 1.334 . S
C1107 C1105 1.394 . S
C1107 C1108 1.359 . S
C1107 H1119 0.930 . S
C1108 C1098 1.391 . S
C1108 C1107 1.359 . S
C1108 H1120 0.929 . S
H1109 C1105 0.930 . S
H1110 C1099 0.930 . S
H1111 C1128 0.930 . S
H1112 C1100 0.930 . S
H1113 C1101 0.930 . S
H1114 C1095 0.929 . S
H1115 C1133 0.930 . S
H1116 C1124 0.930 . S
H1117 C1125 0.930 . S
H1118 C1149 0.929 . S
H1119 C1107 0.930 . S
H1120 C1108 0.929 . S
H1121 C1150 0.930 . S
H1122 C1131 0.930 . S
N1123 Gd1092 2.661 . S
N1123 C1127 1.350 . S
N1123 C1128 1.307 . S
C1124 H1116 0.930 . S
C1124 C1125 1.355 . S
C1124 C1126 1.412 . S
C1125 H1117 0.930 . S
C1125 C1124 1.355 . S
C1125 C1128 1.402 . S
C1126 C1124 1.412 . S
C1126 C1127 1.417 . S
C1126 C1150 1.431 . S
C1127 N1123 1.350 . S
C1127 C1126 1.417 . S
C1127 C1130 1.426 . S
C1128 H1111 0.930 . S
C1128 N1123 1.307 . S
C1128 C1125 1.402 . S
N1129 Gd1092 2.601 . S
N1129 C1130 1.359 . S
N1129 C1133 1.334 . S
C1130 C1127 1.426 . S
C1130 N1129 1.359 . S
C1130 C1134 1.413 . S
C1131 H1122 0.930 . S
C1131 C1132 1.359 . S
C1131 C1133 1.394 . S
C1132 C1131 1.359 . S
C1132 C1134 1.391 . S
C1132 H1135 0.929 . S
C1133 H1115 0.930 . S
C1133 N1129 1.334 . S
C1133 C1131 1.394 . S
C1134 C1130 1.413 . S
C1134 C1132 1.391 . S
C1134 C1149 1.437 . S
H1135 C1132 0.929 . S
O1136 Gd1092 2.545 . S
O1136 C1151 1.258 . S
O1137 Gd1092 2.606 . S
O1137 Gd1093 2.362 . S
O1137 C1148 1.284 . S
O1138 Gd1093 2.324 . S
O1138 C1158 1.254 . S
O1139 Gd1092 2.429 . S
O1139 C1158 1.268 . S
O1140 Gd1092 2.545 . S
O1140 C1148 1.250 . S
O1141 Gd1092 2.412 . S
O1141 C1151 1.252 . S
O1142 Gd1093 2.545 . S
O1142 C1160 1.258 . S
O1143 Gd1092 2.362 . S
O1143 Gd1093 2.606 . S
O1143 C1159 1.284 . S
O1144 Gd1092 2.324 . S
O1144 C1167 1.254 . S
O1145 Gd1093 2.429 . S
O1145 C1167 1.268 . S
O1146 Gd1093 2.545 . S
O1146 C1159 1.250 . S
O1147 Gd1093 2.412 . S
O1147 C1160 1.252 . S
C1148 O1137 1.284 . S
C1148 O1140 1.250 . S
C1149 H1118 0.929 . S
C1149 C1134 1.437 . S
C1149 C1150 1.317 . S
C1150 H1121 0.930 . S
C1150 C1126 1.431 . S
C1150 C1149 1.317 . S
C1151 Gd1092 2.828 . S
C1151 O1136 1.258 . S
C1151 O1141 1.252 . S
C1151 C1152 1.497 . S
C1152 C1151 1.497 . S
C1152 C1153 1.395 . S
C1152 C1154 1.380 . S
C1153 C1152 1.395 . S
C1153 C1156 1.398 . S
C1153 H1168 0.930 . S
C1154 C1152 1.380 . S
C1154 C1155 1.391 . S
C1154 H1169 0.930 . S
C1155 C1154 1.391 . S
C1155 C1157 1.387 . S
C1156 C1153 1.398 . S
C1156 C1157 1.380 . S
C1156 H1170 0.930 . S
C1157 C1155 1.387 . S
C1157 C1156 1.380 . S
C1157 H1171 0.930 . S
C1158 O1138 1.254 . S
C1158 O1139 1.268 . S
C1159 O1143 1.284 . S
C1159 O1146 1.250 . S
C1160 Gd1093 2.828 . S
C1160 O1142 1.258 . S
C1160 O1147 1.252 . S
C1160 C1161 1.497 . S
C1161 C1160 1.497 . S
C1161 C1162 1.395 . S
C1161 C1163 1.380 . S
C1162 C1161 1.395 . S
C1162 C1165 1.398 . S
C1162 H1172 0.930 . S
C1163 C1161 1.380 . S
C1163 C1164 1.391 . S
C1163 H1173 0.930 . S
C1164 C1163 1.391 . S
C1164 C1166 1.387 . S
C1165 C1162 1.398 . S
C1165 C1166 1.380 . S
C1165 H1174 0.930 . S
C1166 C1164 1.387 . S
C1166 C1165 1.380 . S
C1166 H1175 0.930 1_565 S
C1167 O1144 1.254 . S
C1167 O1145 1.268 . S
H1168 C1153 0.930 . S
H1169 C1154 0.930 . S
H1170 C1156 0.930 . S
H1171 C1157 0.930 . S
H1172 C1162 0.930 . S
H1173 C1163 0.930 . S
H1174 C1165 0.930 . S
H1175 C1166 0.930 1_545 S
Gd1176 N1207 2.661 . S
Gd1176 N1213 2.601 . S
Gd1176 O1220 2.545 . S
Gd1176 O1221 2.606 . S
Gd1176 O1223 2.429 . S
Gd1176 O1224 2.545 . S
Gd1176 O1225 2.412 . S
Gd1176 O1227 2.362 . S
Gd1176 O1228 2.324 . S
Gd1176 C1235 2.828 . S
Gd1177 N1186 2.661 . S
Gd1177 N1190 2.601 . S
Gd1177 O1221 2.362 . S
Gd1177 O1222 2.324 . S
Gd1177 O1226 2.545 . S
Gd1177 O1227 2.606 . S
Gd1177 O1229 2.429 . S
Gd1177 O1230 2.545 . S
Gd1177 O1231 2.412 . S
Gd1177 C1244 2.828 . S
C1178 C1181 1.417 . S
C1178 C1183 1.431 . S
C1178 C1184 1.412 . S
C1179 C1182 1.437 . S
C1179 C1183 1.317 . S
C1179 H1198 0.929 . S
C1180 C1181 1.426 . S
C1180 C1182 1.413 . S
C1180 N1190 1.359 . S
C1181 C1178 1.417 . S
C1181 C1180 1.426 . S
C1181 N1186 1.350 . S
C1182 C1179 1.437 . S
C1182 C1180 1.413 . S
C1182 C1192 1.391 . S
C1183 C1178 1.431 . S
C1183 C1179 1.317 . S
C1183 H1194 0.930 . S
C1184 C1178 1.412 . S
C1184 C1185 1.355 . S
C1184 H1196 0.930 . S
C1185 C1184 1.355 . S
C1185 C1187 1.402 . S
C1185 H1197 0.930 . S
N1186 Gd1177 2.661 . S
N1186 C1181 1.350 . S
N1186 C1187 1.307 . S
C1187 C1185 1.402 . S
C1187 N1186 1.307 . S
C1187 H1188 0.930 . S
H1188 C1187 0.930 . S
C1189 N1190 1.334 . S
C1189 C1191 1.394 . S
C1189 H1193 0.930 . S
N1190 Gd1177 2.601 . S
N1190 C1180 1.359 . S
N1190 C1189 1.334 . S
C1191 C1189 1.394 . S
C1191 C1192 1.359 . S
C1191 H1203 0.930 . S
C1192 C1182 1.391 . S
C1192 C1191 1.359 . S
C1192 H1204 0.929 . S
H1193 C1189 0.930 . S
H1194 C1183 0.930 . S
H1195 C1212 0.930 . S
H1196 C1184 0.930 . S
H1197 C1185 0.930 . S
H1198 C1179 0.929 . S
H1199 C1217 0.930 . S
H1200 C1208 0.930 . S
H1201 C1209 0.930 . S
H1202 C1233 0.929 . S
H1203 C1191 0.930 . S
H1204 C1192 0.929 . S
H1205 C1234 0.930 . S
H1206 C1215 0.930 . S
N1207 Gd1176 2.661 . S
N1207 C1211 1.350 . S
N1207 C1212 1.307 . S
C1208 H1200 0.930 . S
C1208 C1209 1.355 . S
C1208 C1210 1.412 . S
C1209 H1201 0.930 . S
C1209 C1208 1.355 . S
C1209 C1212 1.402 . S
C1210 C1208 1.412 . S
C1210 C1211 1.417 . S
C1210 C1234 1.431 . S
C1211 N1207 1.350 . S
C1211 C1210 1.417 . S
C1211 C1214 1.426 . S
C1212 H1195 0.930 . S
C1212 N1207 1.307 . S
C1212 C1209 1.402 . S
N1213 Gd1176 2.601 . S
N1213 C1214 1.359 . S
N1213 C1217 1.334 . S
C1214 C1211 1.426 . S
C1214 N1213 1.359 . S
C1214 C1218 1.413 . S
C1215 H1206 0.930 . S
C1215 C1216 1.359 . S
C1215 C1217 1.394 . S
C1216 C1215 1.359 . S
C1216 C1218 1.391 . S
C1216 H1219 0.929 . S
C1217 H1199 0.930 . S
C1217 N1213 1.334 . S
C1217 C1215 1.394 . S
C1218 C1214 1.413 . S
C1218 C1216 1.391 . S
C1218 C1233 1.437 . S
H1219 C1216 0.929 . S
O1220 Gd1176 2.545 . S
O1220 C1235 1.258 . S
O1221 Gd1176 2.606 . S
O1221 Gd1177 2.362 . S
O1221 C1232 1.284 . S
O1222 Gd1177 2.324 . S
O1222 C1242 1.254 . S
O1223 Gd1176 2.429 . S
O1223 C1242 1.268 . S
O1224 Gd1176 2.545 . S
O1224 C1232 1.250 . S
O1225 Gd1176 2.412 . S
O1225 C1235 1.252 . S
O1226 Gd1177 2.545 . S
O1226 C1244 1.258 . S
O1227 Gd1176 2.362 . S
O1227 Gd1177 2.606 . S
O1227 C1243 1.284 . S
O1228 Gd1176 2.324 . S
O1228 C1251 1.254 . S
O1229 Gd1177 2.429 . S
O1229 C1251 1.268 . S
O1230 Gd1177 2.545 . S
O1230 C1243 1.250 . S
O1231 Gd1177 2.412 . S
O1231 C1244 1.252 . S
C1232 O1221 1.284 . S
C1232 O1224 1.250 . S
C1233 H1202 0.929 . S
C1233 C1218 1.437 . S
C1233 C1234 1.317 . S
C1234 H1205 0.930 . S
C1234 C1210 1.431 . S
C1234 C1233 1.317 . S
C1235 Gd1176 2.828 . S
C1235 O1220 1.258 . S
C1235 O1225 1.252 . S
C1235 C1236 1.497 . S
C1236 C1235 1.497 . S
C1236 C1237 1.395 . S
C1236 C1238 1.380 . S
C1237 C1236 1.395 . S
C1237 C1240 1.398 . S
C1237 H1252 0.930 . S
C1238 C1236 1.380 . S
C1238 C1239 1.391 . S
C1238 H1253 0.930 . S
C1239 C1238 1.391 . S
C1239 C1241 1.387 . S
C1240 C1237 1.398 . S
C1240 C1241 1.380 . S
C1240 H1254 0.930 . S
C1241 C1239 1.387 . S
C1241 C1240 1.380 . S
C1241 H1255 0.930 . S
C1242 O1222 1.254 . S
C1242 O1223 1.268 . S
C1243 O1227 1.284 . S
C1243 O1230 1.250 . S
C1244 Gd1177 2.828 . S
C1244 O1226 1.258 . S
C1244 O1231 1.252 . S
C1244 C1245 1.497 . S
C1245 C1244 1.497 . S
C1245 C1246 1.395 . S
C1245 C1247 1.380 . S
C1246 C1245 1.395 . S
C1246 C1249 1.398 . S
C1246 H1256 0.930 . S
C1247 C1245 1.380 . S
C1247 C1248 1.391 . S
C1247 H1257 0.930 . S
C1248 C1247 1.391 . S
C1248 C1250 1.387 . S
C1249 C1246 1.398 . S
C1249 C1250 1.380 . S
C1249 H1258 0.930 . S
C1250 C1248 1.387 . S
C1250 C1249 1.380 . S
C1250 H1259 0.930 1_565 S
C1251 O1228 1.254 . S
C1251 O1229 1.268 . S
H1252 C1237 0.930 . S
H1253 C1238 0.930 . S
H1254 C1240 0.930 . S
H1255 C1241 0.930 . S
H1256 C1246 0.930 . S
H1257 C1247 0.930 . S
H1258 C1249 0.930 . S
H1259 C1250 0.930 1_545 S
Gd1260 N1291 2.661 . S
Gd1260 N1297 2.601 . S
Gd1260 O1304 2.545 . S
Gd1260 O1305 2.606 . S
Gd1260 O1307 2.429 . S
Gd1260 O1308 2.545 . S
Gd1260 O1309 2.412 . S
Gd1260 O1311 2.362 . S
Gd1260 O1312 2.324 . S
Gd1260 C1319 2.828 . S
Gd1261 N1270 2.661 . S
Gd1261 N1274 2.601 . S
Gd1261 O1305 2.362 . S
Gd1261 O1306 2.324 . S
Gd1261 O1310 2.545 . S
Gd1261 O1311 2.606 . S
Gd1261 O1313 2.429 . S
Gd1261 O1314 2.545 . S
Gd1261 O1315 2.412 . S
Gd1261 C1328 2.828 . S
C1262 C1265 1.417 . S
C1262 C1267 1.431 . S
C1262 C1268 1.412 . S
C1263 C1266 1.437 . S
C1263 C1267 1.317 . S
C1263 H1282 0.929 . S
C1264 C1265 1.426 . S
C1264 C1266 1.413 . S
C1264 N1274 1.359 . S
C1265 C1262 1.417 . S
C1265 C1264 1.426 . S
C1265 N1270 1.350 . S
C1266 C1263 1.437 . S
C1266 C1264 1.413 . S
C1266 C1276 1.391 . S
C1267 C1262 1.431 . S
C1267 C1263 1.317 . S
C1267 H1278 0.930 . S
C1268 C1262 1.412 . S
C1268 C1269 1.355 . S
C1268 H1280 0.930 . S
C1269 C1268 1.355 . S
C1269 C1271 1.402 . S
C1269 H1281 0.930 . S
N1270 Gd1261 2.661 . S
N1270 C1265 1.350 . S
N1270 C1271 1.307 . S
C1271 C1269 1.402 . S
C1271 N1270 1.307 . S
C1271 H1272 0.930 . S
H1272 C1271 0.930 . S
C1273 N1274 1.334 . S
C1273 C1275 1.394 . S
C1273 H1277 0.930 . S
N1274 Gd1261 2.601 . S
N1274 C1264 1.359 . S
N1274 C1273 1.334 . S
C1275 C1273 1.394 . S
C1275 C1276 1.359 . S
C1275 H1287 0.930 . S
C1276 C1266 1.391 . S
C1276 C1275 1.359 . S
C1276 H1288 0.929 . S
H1277 C1273 0.930 . S
H1278 C1267 0.930 . S
H1279 C1296 0.930 . S
H1280 C1268 0.930 . S
H1281 C1269 0.930 . S
H1282 C1263 0.929 . S
H1283 C1301 0.930 . S
H1284 C1292 0.930 . S
H1285 C1293 0.930 . S
H1286 C1317 0.929 . S
H1287 C1275 0.930 . S
H1288 C1276 0.929 . S
H1289 C1318 0.930 . S
H1290 C1299 0.930 . S
N1291 Gd1260 2.661 . S
N1291 C1295 1.350 . S
N1291 C1296 1.307 . S
C1292 H1284 0.930 . S
C1292 C1293 1.355 . S
C1292 C1294 1.412 . S
C1293 H1285 0.930 . S
C1293 C1292 1.355 . S
C1293 C1296 1.402 . S
C1294 C1292 1.412 . S
C1294 C1295 1.417 . S
C1294 C1318 1.431 . S
C1295 N1291 1.350 . S
C1295 C1294 1.417 . S
C1295 C1298 1.426 . S
C1296 H1279 0.930 . S
C1296 N1291 1.307 . S
C1296 C1293 1.402 . S
N1297 Gd1260 2.601 . S
N1297 C1298 1.359 . S
N1297 C1301 1.334 . S
C1298 C1295 1.426 . S
C1298 N1297 1.359 . S
C1298 C1302 1.413 . S
C1299 H1290 0.930 . S
C1299 C1300 1.359 . S
C1299 C1301 1.394 . S
C1300 C1299 1.359 . S
C1300 C1302 1.391 . S
C1300 H1303 0.929 . S
C1301 H1283 0.930 . S
C1301 N1297 1.334 . S
C1301 C1299 1.394 . S
C1302 C1298 1.413 . S
C1302 C1300 1.391 . S
C1302 C1317 1.437 . S
H1303 C1300 0.929 . S
O1304 Gd1260 2.545 . S
O1304 C1319 1.258 . S
O1305 Gd1260 2.606 . S
O1305 Gd1261 2.362 . S
O1305 C1316 1.284 . S
O1306 Gd1261 2.324 . S
O1306 C1326 1.254 . S
O1307 Gd1260 2.429 . S
O1307 C1326 1.268 . S
O1308 Gd1260 2.545 . S
O1308 C1316 1.250 . S
O1309 Gd1260 2.412 . S
O1309 C1319 1.252 . S
O1310 Gd1261 2.545 . S
O1310 C1328 1.258 . S
O1311 Gd1260 2.362 . S
O1311 Gd1261 2.606 . S
O1311 C1327 1.284 . S
O1312 Gd1260 2.324 . S
O1312 C1335 1.254 . S
O1313 Gd1261 2.429 . S
O1313 C1335 1.268 . S
O1314 Gd1261 2.545 . S
O1314 C1327 1.250 . S
O1315 Gd1261 2.412 . S
O1315 C1328 1.252 . S
C1316 O1305 1.284 . S
C1316 O1308 1.250 . S
C1317 H1286 0.929 . S
C1317 C1302 1.437 . S
C1317 C1318 1.317 . S
C1318 H1289 0.930 . S
C1318 C1294 1.431 . S
C1318 C1317 1.317 . S
C1319 Gd1260 2.828 . S
C1319 O1304 1.258 . S
C1319 O1309 1.252 . S
C1319 C1320 1.497 . S
C1320 C1319 1.497 . S
C1320 C1321 1.395 . S
C1320 C1322 1.380 . S
C1321 C1320 1.395 . S
C1321 C1324 1.398 . S
C1321 H1336 0.930 . S
C1322 C1320 1.380 . S
C1322 C1323 1.391 . S
C1322 H1337 0.930 . S
C1323 C1322 1.391 . S
C1323 C1325 1.387 . S
C1324 C1321 1.398 . S
C1324 C1325 1.380 . S
C1324 H1338 0.930 . S
C1325 C1323 1.387 . S
C1325 C1324 1.380 . S
C1325 H1339 0.930 . S
C1326 O1306 1.254 . S
C1326 O1307 1.268 . S
C1327 O1311 1.284 . S
C1327 O1314 1.250 . S
C1328 Gd1261 2.828 . S
C1328 O1310 1.258 . S
C1328 O1315 1.252 . S
C1328 C1329 1.497 . S
C1329 C1328 1.497 . S
C1329 C1330 1.395 . S
C1329 C1331 1.380 . S
C1330 C1329 1.395 . S
C1330 C1333 1.398 . S
C1330 H1340 0.930 . S
C1331 C1329 1.380 . S
C1331 C1332 1.391 . S
C1331 H1341 0.930 . S
C1332 C1331 1.391 . S
C1332 C1334 1.387 . S
C1333 C1330 1.398 . S
C1333 C1334 1.380 . S
C1333 H1342 0.930 . S
C1334 C1332 1.387 . S
C1334 C1333 1.380 . S
C1334 H1343 0.930 1_545 S
C1335 O1312 1.254 . S
C1335 O1313 1.268 . S
H1336 C1321 0.930 . S
H1337 C1322 0.930 . S
H1338 C1324 0.930 . S
H1339 C1325 0.930 . S
H1340 C1330 0.930 . S
H1341 C1331 0.930 . S
H1342 C1333 0.930 . S
H1343 C1334 0.930 1_565 S
H1344 C1352 0.950 . S
H1345 C1357 0.950 . S
H1346 C1354 0.950 . S
H1347 C1356 0.950 . S
H1348 C1358 0.950 . S
H1349 C1360 0.950 . S
H1350 C1362 0.950 . S
H1351 C1363 0.950 . S
C1352 H1344 0.950 . S
C1352 C1353 1.386 . S
C1352 C1354 1.391 . S
C1353 C1352 1.386 . S
C1353 C1357 1.393 . S
C1354 H1346 0.950 . S
C1354 C1352 1.391 . S
C1354 C1355 1.400 . S
C1355 C1354 1.400 . S
C1355 C1356 1.398 . S
C1355 C1361 1.491 . S
C1356 H1347 0.950 . S
C1356 C1355 1.398 . S
C1356 C1357 1.391 . S
C1357 H1345 0.950 . S
C1357 C1353 1.393 . S
C1357 C1356 1.391 . S
C1358 H1348 0.950 . S
C1358 C1359 1.386 . S
C1358 C1360 1.391 . S
C1359 C1358 1.386 . S
C1359 C1363 1.393 . S
C1360 H1349 0.950 . S
C1360 C1358 1.391 . S
C1360 C1361 1.400 . S
C1361 C1355 1.491 . S
C1361 C1360 1.400 . S
C1361 C1362 1.398 . S
C1362 H1350 0.950 . S
C1362 C1361 1.398 . S
C1362 C1363 1.391 . S
C1363 H1351 0.950 . S
C1363 C1359 1.393 . S
C1363 C1362 1.391 . S
H1364 C1372 0.950 . S
H1365 C1377 0.950 . S
H1366 C1374 0.950 . S
H1367 C1376 0.950 . S
H1368 C1378 0.950 . S
H1369 C1380 0.950 . S
H1370 C1382 0.950 . S
H1371 C1383 0.950 . S
C1372 H1364 0.950 . S
C1372 C1373 1.386 . S
C1372 C1374 1.391 . S
C1373 C1372 1.386 . S
C1373 C1377 1.393 . S
C1374 H1366 0.950 . S
C1374 C1372 1.391 . S
C1374 C1375 1.400 . S
C1375 C1374 1.400 . S
C1375 C1376 1.398 . S
C1375 C1381 1.491 . S
C1376 H1367 0.950 . S
C1376 C1375 1.398 . S
C1376 C1377 1.391 . S
C1377 H1365 0.950 . S
C1377 C1373 1.393 . S
C1377 C1376 1.391 . S
C1378 H1368 0.950 . S
C1378 C1379 1.386 . S
C1378 C1380 1.391 . S
C1379 C1378 1.386 . S
C1379 C1383 1.393 . S
C1380 H1369 0.950 . S
C1380 C1378 1.391 . S
C1380 C1381 1.400 . S
C1381 C1375 1.491 . S
C1381 C1380 1.400 . S
C1381 C1382 1.398 . S
C1382 H1370 0.950 . S
C1382 C1381 1.398 . S
C1382 C1383 1.391 . S
C1383 H1371 0.950 . S
C1383 C1379 1.393 . S
C1383 C1382 1.391 . S
H1384 C1392 0.950 . S
H1385 C1397 0.950 . S
H1386 C1394 0.950 . S
H1387 C1396 0.950 . S
H1388 C1398 0.950 . S
H1389 C1400 0.950 . S
H1390 C1402 0.950 . S
H1391 C1403 0.950 . S
C1392 H1384 0.950 . S
C1392 C1393 1.386 . S
C1392 C1394 1.391 . S
C1393 C1392 1.386 . S
C1393 C1397 1.393 . S
C1394 H1386 0.950 . S
C1394 C1392 1.391 . S
C1394 C1395 1.400 . S
C1395 C1394 1.400 . S
C1395 C1396 1.398 . S
C1395 C1401 1.491 . S
C1396 H1387 0.950 . S
C1396 C1395 1.398 . S
C1396 C1397 1.391 . S
C1397 H1385 0.950 . S
C1397 C1393 1.393 . S
C1397 C1396 1.391 . S
C1398 H1388 0.950 . S
C1398 C1399 1.386 . S
C1398 C1400 1.391 . S
C1399 C1398 1.386 . S
C1399 C1403 1.393 . S
C1400 H1389 0.950 . S
C1400 C1398 1.391 . S
C1400 C1401 1.400 . S
C1401 C1395 1.491 . S
C1401 C1400 1.400 . S
C1401 C1402 1.398 . S
C1402 H1390 0.950 . S
C1402 C1401 1.398 . S
C1402 C1403 1.391 . S
C1403 H1391 0.950 . S
C1403 C1399 1.393 . S
C1403 C1402 1.391 . S
H1404 C1412 0.950 . S
H1405 C1417 0.950 . S
H1406 C1414 0.950 . S
H1407 C1416 0.950 . S
H1408 C1418 0.950 . S
H1409 C1420 0.950 . S
H1410 C1422 0.950 . S
H1411 C1423 0.950 . S
C1412 H1404 0.950 . S
C1412 C1413 1.386 . S
C1412 C1414 1.391 . S
C1413 C1412 1.386 . S
C1413 C1417 1.393 . S
C1414 H1406 0.950 . S
C1414 C1412 1.391 . S
C1414 C1415 1.400 . S
C1415 C1414 1.400 . S
C1415 C1416 1.398 . S
C1415 C1421 1.491 . S
C1416 H1407 0.950 . S
C1416 C1415 1.398 . S
C1416 C1417 1.391 . S
C1417 H1405 0.950 . S
C1417 C1413 1.393 . S
C1417 C1416 1.391 . S
C1418 H1408 0.950 . S
C1418 C1419 1.386 . S
C1418 C1420 1.391 . S
C1419 C1418 1.386 . S
C1419 C1423 1.393 . S
C1420 H1409 0.950 . S
C1420 C1418 1.391 . S
C1420 C1421 1.400 . S
C1421 C1415 1.491 . S
C1421 C1420 1.400 . S
C1421 C1422 1.398 . S
C1422 H1410 0.950 . S
C1422 C1421 1.398 . S
C1422 C1423 1.391 . S
C1423 H1411 0.950 . S
C1423 C1419 1.393 . S
C1423 C1422 1.391 . S
H1424 C1432 0.950 . S
H1425 C1437 0.950 . S
H1426 C1434 0.950 . S
H1427 C1436 0.950 . S
H1428 C1438 0.950 . S
H1429 C1440 0.950 . S
H1430 C1442 0.950 . S
H1431 C1443 0.950 . S
C1432 H1424 0.950 . S
C1432 C1433 1.386 . S
C1432 C1434 1.391 . S
C1433 C1432 1.386 . S
C1433 C1437 1.393 . S
C1434 H1426 0.950 . S
C1434 C1432 1.391 . S
C1434 C1435 1.400 . S
C1435 C1434 1.400 . S
C1435 C1436 1.398 . S
C1435 C1441 1.491 . S
C1436 H1427 0.950 . S
C1436 C1435 1.398 . S
C1436 C1437 1.391 . S
C1437 H1425 0.950 . S
C1437 C1433 1.393 . S
C1437 C1436 1.391 . S
C1438 H1428 0.950 . S
C1438 C1439 1.386 . S
C1438 C1440 1.391 . S
C1439 C1438 1.386 . S
C1439 C1443 1.393 . S
C1440 H1429 0.950 . S
C1440 C1438 1.391 . S
C1440 C1441 1.400 . S
C1441 C1435 1.491 . S
C1441 C1440 1.400 . S
C1441 C1442 1.398 . S
C1442 H1430 0.950 . S
C1442 C1441 1.398 . S
C1442 C1443 1.391 . S
C1443 H1431 0.950 . S
C1443 C1439 1.393 . S
C1443 C1442 1.391 . S
H1444 C1452 0.950 . S
H1445 C1457 0.950 . S
H1446 C1454 0.950 . S
H1447 C1456 0.950 . S
H1448 C1458 0.950 . S
H1449 C1460 0.950 . S
H1450 C1462 0.950 . S
H1451 C1463 0.950 . S
C1452 H1444 0.950 . S
C1452 C1453 1.386 . S
C1452 C1454 1.391 . S
C1453 C1452 1.386 . S
C1453 C1457 1.393 . S
C1454 H1446 0.950 . S
C1454 C1452 1.391 . S
C1454 C1455 1.400 . S
C1455 C1454 1.400 . S
C1455 C1456 1.398 . S
C1455 C1461 1.491 . S
C1456 H1447 0.950 . S
C1456 C1455 1.398 . S
C1456 C1457 1.391 . S
C1457 H1445 0.950 . S
C1457 C1453 1.393 . S
C1457 C1456 1.391 . S
C1458 H1448 0.950 . S
C1458 C1459 1.386 . S
C1458 C1460 1.391 . S
C1459 C1458 1.386 . S
C1459 C1463 1.393 . S
C1460 H1449 0.950 . S
C1460 C1458 1.391 . S
C1460 C1461 1.400 . S
C1461 C1455 1.491 . S
C1461 C1460 1.400 . S
C1461 C1462 1.398 . S
C1462 H1450 0.950 . S
C1462 C1461 1.398 . S
C1462 C1463 1.391 . S
C1463 H1451 0.950 . S
C1463 C1459 1.393 . S
C1463 C1462 1.391 . S
H1464 C1472 0.950 . S
H1465 C1477 0.950 . S
H1466 C1474 0.950 . S
H1467 C1476 0.950 . S
H1468 C1478 0.950 . S
H1469 C1480 0.950 . S
H1470 C1482 0.950 . S
H1471 C1483 0.950 . S
C1472 H1464 0.950 . S
C1472 C1473 1.386 . S
C1472 C1474 1.391 . S
C1473 C1472 1.386 . S
C1473 C1477 1.393 . S
C1474 H1466 0.950 . S
C1474 C1472 1.391 . S
C1474 C1475 1.400 . S
C1475 C1474 1.400 . S
C1475 C1476 1.398 . S
C1475 C1481 1.491 . S
C1476 H1467 0.950 . S
C1476 C1475 1.398 . S
C1476 C1477 1.391 . S
C1477 H1465 0.950 . S
C1477 C1473 1.393 . S
C1477 C1476 1.391 . S
C1478 H1468 0.950 . S
C1478 C1479 1.386 . S
C1478 C1480 1.391 . S
C1479 C1478 1.386 . S
C1479 C1483 1.393 . S
C1480 H1469 0.950 . S
C1480 C1478 1.391 . S
C1480 C1481 1.400 . S
C1481 C1475 1.491 . S
C1481 C1480 1.400 . S
C1481 C1482 1.398 . S
C1482 H1470 0.950 . S
C1482 C1481 1.398 . S
C1482 C1483 1.391 . S
C1483 H1471 0.950 . S
C1483 C1479 1.393 . S
C1483 C1482 1.391 . S
H1484 C1492 0.950 . S
H1485 C1497 0.950 . S
H1486 C1494 0.950 . S
H1487 C1496 0.950 . S
H1488 C1498 0.950 . S
H1489 C1500 0.950 . S
H1490 C1502 0.950 . S
H1491 C1503 0.950 . S
C1492 H1484 0.950 . S
C1492 C1493 1.386 . S
C1492 C1494 1.391 . S
C1493 C1492 1.386 . S
C1493 C1497 1.393 . S
C1494 H1486 0.950 . S
C1494 C1492 1.391 . S
C1494 C1495 1.400 . S
C1495 C1494 1.400 . S
C1495 C1496 1.398 . S
C1495 C1501 1.491 . S
C1496 H1487 0.950 . S
C1496 C1495 1.398 . S
C1496 C1497 1.391 . S
C1497 H1485 0.950 . S
C1497 C1493 1.393 . S
C1497 C1496 1.391 . S
C1498 H1488 0.950 . S
C1498 C1499 1.386 . S
C1498 C1500 1.391 . S
C1499 C1498 1.386 . S
C1499 C1503 1.393 . S
C1500 H1489 0.950 . S
C1500 C1498 1.391 . S
C1500 C1501 1.400 . S
C1501 C1495 1.491 . S
C1501 C1500 1.400 . S
C1501 C1502 1.398 . S
C1502 H1490 0.950 . S
C1502 C1501 1.398 . S
C1502 C1503 1.391 . S
C1503 H1491 0.950 . S
C1503 C1499 1.393 . S
C1503 C1502 1.391 . S
H1504 C1512 0.950 . S
H1505 C1517 0.950 . S
H1506 C1514 0.950 . S
H1507 C1516 0.950 . S
H1508 C1518 0.950 . S
H1509 C1520 0.950 . S
H1510 C1522 0.950 . S
H1511 C1523 0.950 . S
C1512 H1504 0.950 . S
C1512 C1513 1.386 . S
C1512 C1514 1.391 1_565 S
C1513 C1512 1.386 . S
C1513 C1517 1.393 . S
C1514 H1506 0.950 . S
C1514 C1512 1.391 1_545 S
C1514 C1515 1.400 1_545 S
C1515 C1514 1.400 1_565 S
C1515 C1516 1.398 . S
C1515 C1521 1.491 1_565 S
C1516 H1507 0.950 . S
C1516 C1515 1.398 . S
C1516 C1517 1.391 . S
C1517 H1505 0.950 . S
C1517 C1513 1.393 . S
C1517 C1516 1.391 . S
C1518 H1508 0.950 . S
C1518 C1519 1.386 . S
C1518 C1520 1.391 1_545 S
C1519 C1518 1.386 . S
C1519 C1523 1.393 . S
C1520 H1509 0.950 . S
C1520 C1518 1.391 1_565 S
C1520 C1521 1.400 1_565 S
C1521 C1515 1.491 1_545 S
C1521 C1520 1.400 1_545 S
C1521 C1522 1.398 . S
C1522 H1510 0.950 . S
C1522 C1521 1.398 . S
C1522 C1523 1.391 . S
C1523 H1511 0.950 . S
C1523 C1519 1.393 . S
C1523 C1522 1.391 . S
H1524 C1532 0.950 . S
H1525 C1537 0.950 . S
H1526 C1534 0.950 . S
H1527 C1536 0.950 . S
H1528 C1538 0.950 . S
H1529 C1540 0.950 . S
H1530 C1542 0.950 . S
H1531 C1543 0.950 . S
C1532 H1524 0.950 . S
C1532 C1533 1.386 . S
C1532 C1534 1.391 . S
C1533 C1532 1.386 . S
C1533 C1537 1.393 . S
C1534 H1526 0.950 . S
C1534 C1532 1.391 . S
C1534 C1535 1.400 . S
C1535 C1534 1.400 . S
C1535 C1536 1.398 1_545 S
C1535 C1541 1.491 1_545 S
C1536 H1527 0.950 . S
C1536 C1535 1.398 1_565 S
C1536 C1537 1.391 1_565 S
C1537 H1525 0.950 . S
C1537 C1533 1.393 . S
C1537 C1536 1.391 1_545 S
C1538 H1528 0.950 . S
C1538 C1539 1.386 . S
C1538 C1540 1.391 . S
C1539 C1538 1.386 . S
C1539 C1543 1.393 . S
C1540 H1529 0.950 . S
C1540 C1538 1.391 . S
C1540 C1541 1.400 . S
C1541 C1535 1.491 1_565 S
C1541 C1540 1.400 . S
C1541 C1542 1.398 1_565 S
C1542 H1530 0.950 . S
C1542 C1541 1.398 1_545 S
C1542 C1543 1.391 1_545 S
C1543 H1531 0.950 . S
C1543 C1539 1.393 . S
C1543 C1542 1.391 1_565 S
H1544 C1552 0.950 . S
H1545 C1557 0.950 . S
H1546 C1554 0.950 . S
H1547 C1556 0.950 . S
H1548 C1558 0.950 . S
H1549 C1560 0.950 . S
H1550 C1562 0.950 . S
H1551 C1563 0.950 . S
C1552 H1544 0.950 . S
C1552 C1553 1.386 . S
C1552 C1554 1.391 . S
C1553 C1552 1.386 . S
C1553 C1557 1.393 . S
C1554 H1546 0.950 . S
C1554 C1552 1.391 . S
C1554 C1555 1.400 . S
C1555 C1554 1.400 . S
C1555 C1556 1.398 1_545 S
C1555 C1561 1.491 1_545 S
C1556 H1547 0.950 . S
C1556 C1555 1.398 1_565 S
C1556 C1557 1.391 1_565 S
C1557 H1545 0.950 . S
C1557 C1553 1.393 . S
C1557 C1556 1.391 1_545 S
C1558 H1548 0.950 . S
C1558 C1559 1.386 . S
C1558 C1560 1.391 . S
C1559 C1558 1.386 . S
C1559 C1563 1.393 . S
C1560 H1549 0.950 . S
C1560 C1558 1.391 . S
C1560 C1561 1.400 . S
C1561 C1555 1.491 1_565 S
C1561 C1560 1.400 . S
C1561 C1562 1.398 1_565 S
C1562 H1550 0.950 . S
C1562 C1561 1.398 1_545 S
C1562 C1563 1.391 1_545 S
C1563 H1551 0.950 . S
C1563 C1559 1.393 . S
C1563 C1562 1.391 1_565 S
H1564 C1572 0.950 . S
H1565 C1577 0.950 . S
H1566 C1574 0.950 . S
H1567 C1576 0.950 . S
H1568 C1578 0.950 . S
H1569 C1580 0.950 . S
H1570 C1582 0.950 . S
H1571 C1583 0.950 . S
C1572 H1564 0.950 . S
C1572 C1573 1.386 . S
C1572 C1574 1.391 . S
C1573 C1572 1.386 . S
C1573 C1577 1.393 . S
C1574 H1566 0.950 . S
C1574 C1572 1.391 . S
C1574 C1575 1.400 . S
C1575 C1574 1.400 . S
C1575 C1576 1.398 1_545 S
C1575 C1581 1.491 1_545 S
C1576 H1567 0.950 . S
C1576 C1575 1.398 1_565 S
C1576 C1577 1.391 1_565 S
C1577 H1565 0.950 . S
C1577 C1573 1.393 . S
C1577 C1576 1.391 1_545 S
C1578 H1568 0.950 . S
C1578 C1579 1.386 . S
C1578 C1580 1.391 . S
C1579 C1578 1.386 . S
C1579 C1583 1.393 . S
C1580 H1569 0.950 . S
C1580 C1578 1.391 . S
C1580 C1581 1.400 . S
C1581 C1575 1.491 1_565 S
C1581 C1580 1.400 . S
C1581 C1582 1.398 1_565 S
C1582 H1570 0.950 . S
C1582 C1581 1.398 1_545 S
C1582 C1583 1.391 1_545 S
C1583 H1571 0.950 . S
C1583 C1579 1.393 . S
C1583 C1582 1.391 1_565 S
H1584 C1592 0.950 . S
H1585 C1597 0.950 . S
H1586 C1594 0.950 . S
H1587 C1596 0.950 . S
H1588 C1598 0.950 . S
H1589 C1600 0.950 . S
H1590 C1602 0.950 . S
H1591 C1603 0.950 . S
C1592 H1584 0.950 . S
C1592 C1593 1.386 . S
C1592 C1594 1.391 . S
C1593 C1592 1.386 . S
C1593 C1597 1.393 . S
C1594 H1586 0.950 . S
C1594 C1592 1.391 . S
C1594 C1595 1.400 . S
C1595 C1594 1.400 . S
C1595 C1596 1.398 . S
C1595 C1601 1.491 . S
C1596 H1587 0.950 . S
C1596 C1595 1.398 . S
C1596 C1597 1.391 . S
C1597 H1585 0.950 . S
C1597 C1593 1.393 . S
C1597 C1596 1.391 . S
C1598 H1588 0.950 . S
C1598 C1599 1.386 . S
C1598 C1600 1.391 . S
C1599 C1598 1.386 . S
C1599 C1603 1.393 . S
C1600 H1589 0.950 . S
C1600 C1598 1.391 . S
C1600 C1601 1.400 . S
C1601 C1595 1.491 . S
C1601 C1600 1.400 . S
C1601 C1602 1.398 . S
C1602 H1590 0.950 . S
C1602 C1601 1.398 . S
C1602 C1603 1.391 . S
C1603 H1591 0.950 . S
C1603 C1599 1.393 . S
C1603 C1602 1.391 . S
H1604 C1612 0.950 . S
H1605 C1617 0.950 . S
H1606 C1614 0.950 . S
H1607 C1616 0.950 . S
H1608 C1618 0.950 . S
H1609 C1620 0.950 . S
H1610 C1622 0.950 . S
H1611 C1623 0.950 . S
C1612 H1604 0.950 . S
C1612 C1613 1.386 . S
C1612 C1614 1.391 . S
C1613 C1612 1.386 . S
C1613 C1617 1.393 . S
C1614 H1606 0.950 . S
C1614 C1612 1.391 . S
C1614 C1615 1.400 . S
C1615 C1614 1.400 . S
C1615 C1616 1.398 . S
C1615 C1621 1.491 . S
C1616 H1607 0.950 . S
C1616 C1615 1.398 . S
C1616 C1617 1.391 . S
C1617 H1605 0.950 . S
C1617 C1613 1.393 . S
C1617 C1616 1.391 . S
C1618 H1608 0.950 . S
C1618 C1619 1.386 . S
C1618 C1620 1.391 . S
C1619 C1618 1.386 . S
C1619 C1623 1.393 . S
C1620 H1609 0.950 . S
C1620 C1618 1.391 . S
C1620 C1621 1.400 . S
C1621 C1615 1.491 . S
C1621 C1620 1.400 . S
C1621 C1622 1.398 . S
C1622 H1610 0.950 . S
C1622 C1621 1.398 . S
C1622 C1623 1.391 . S
C1623 H1611 0.950 . S
C1623 C1619 1.393 . S
C1623 C1622 1.391 . S
H1624 C1632 0.950 . S
H1625 C1637 0.950 . S
H1626 C1634 0.950 . S
H1627 C1636 0.950 . S
H1628 C1638 0.950 . S
H1629 C1640 0.950 . S
H1630 C1642 0.950 . S
H1631 C1643 0.950 . S
C1632 H1624 0.950 . S
C1632 C1633 1.386 . S
C1632 C1634 1.391 . S
C1633 C1632 1.386 . S
C1633 C1637 1.393 . S
C1634 H1626 0.950 . S
C1634 C1632 1.391 . S
C1634 C1635 1.400 . S
C1635 C1634 1.400 . S
C1635 C1636 1.398 . S
C1635 C1641 1.491 . S
C1636 H1627 0.950 . S
C1636 C1635 1.398 . S
C1636 C1637 1.391 . S
C1637 H1625 0.950 . S
C1637 C1633 1.393 . S
C1637 C1636 1.391 . S
C1638 H1628 0.950 . S
C1638 C1639 1.386 . S
C1638 C1640 1.391 . S
C1639 C1638 1.386 . S
C1639 C1643 1.393 . S
C1640 H1629 0.950 . S
C1640 C1638 1.391 . S
C1640 C1641 1.400 . S
C1641 C1635 1.491 . S
C1641 C1640 1.400 . S
C1641 C1642 1.398 . S
C1642 H1630 0.950 . S
C1642 C1641 1.398 . S
C1642 C1643 1.391 . S
C1643 H1631 0.950 . S
C1643 C1639 1.393 . S
C1643 C1642 1.391 . S
H1644 C1652 0.950 . S
H1645 C1657 0.950 . S
H1646 C1654 0.950 . S
H1647 C1656 0.950 . S
H1648 C1658 0.950 . S
H1649 C1660 0.950 . S
H1650 C1662 0.950 . S
H1651 C1663 0.950 . S
C1652 H1644 0.950 . S
C1652 C1653 1.386 . S
C1652 C1654 1.391 . S
C1653 C1652 1.386 . S
C1653 C1657 1.393 . S
C1654 H1646 0.950 . S
C1654 C1652 1.391 . S
C1654 C1655 1.400 . S
C1655 C1654 1.400 . S
C1655 C1656 1.398 . S
C1655 C1661 1.491 . S
C1656 H1647 0.950 . S
C1656 C1655 1.398 . S
C1656 C1657 1.391 . S
C1657 H1645 0.950 . S
C1657 C1653 1.393 . S
C1657 C1656 1.391 . S
C1658 H1648 0.950 . S
C1658 C1659 1.386 . S
C1658 C1660 1.391 . S
C1659 C1658 1.386 . S
C1659 C1663 1.393 . S
C1660 H1649 0.950 . S
C1660 C1658 1.391 . S
C1660 C1661 1.400 . S
C1661 C1655 1.491 . S
C1661 C1660 1.400 . S
C1661 C1662 1.398 . S
C1662 H1650 0.950 . S
C1662 C1661 1.398 . S
C1662 C1663 1.391 . S
C1663 H1651 0.950 . S
C1663 C1659 1.393 . S
C1663 C1662 1.391 . S
H1664 C1672 0.950 . S
H1665 C1677 0.950 . S
H1666 C1674 0.950 . S
H1667 C1676 0.950 . S
H1668 C1678 0.950 . S
H1669 C1680 0.950 . S
H1670 C1682 0.950 . S
H1671 C1683 0.950 . S
C1672 H1664 0.950 . S
C1672 C1673 1.386 . S
C1672 C1674 1.391 . S
C1673 C1672 1.386 . S
C1673 C1677 1.393 . S
C1674 H1666 0.950 . S
C1674 C1672 1.391 . S
C1674 C1675 1.400 . S
C1675 C1674 1.400 . S
C1675 C1676 1.398 . S
C1675 C1681 1.491 1_556 S
C1676 H1667 0.950 . S
C1676 C1675 1.398 . S
C1676 C1677 1.391 . S
C1677 H1665 0.950 . S
C1677 C1673 1.393 . S
C1677 C1676 1.391 . S
C1678 H1668 0.950 . S
C1678 C1679 1.386 . S
C1678 C1680 1.391 . S
C1679 C1678 1.386 . S
C1679 C1683 1.393 . S
C1680 H1669 0.950 . S
C1680 C1678 1.391 . S
C1680 C1681 1.400 . S
C1681 C1675 1.491 1_554 S
C1681 C1680 1.400 . S
C1681 C1682 1.398 . S
C1682 H1670 0.950 . S
C1682 C1681 1.398 . S
C1682 C1683 1.391 . S
C1683 H1671 0.950 . S
C1683 C1679 1.393 . S
C1683 C1682 1.391 . S
H1684 C1692 0.950 . S
H1685 C1697 0.950 . S
H1686 C1694 0.950 . S
H1687 C1696 0.950 . S
H1688 C1698 0.950 . S
H1689 C1700 0.950 . S
H1690 C1702 0.950 . S
H1691 C1703 0.950 . S
C1692 H1684 0.950 . S
C1692 C1693 1.386 . S
C1692 C1694 1.391 . S
C1693 C1692 1.386 . S
C1693 C1697 1.393 . S
C1694 H1686 0.950 . S
C1694 C1692 1.391 . S
C1694 C1695 1.400 . S
C1695 C1694 1.400 . S
C1695 C1696 1.398 . S
C1695 C1701 1.491 1_556 S
C1696 H1687 0.950 . S
C1696 C1695 1.398 . S
C1696 C1697 1.391 . S
C1697 H1685 0.950 . S
C1697 C1693 1.393 . S
C1697 C1696 1.391 . S
C1698 H1688 0.950 . S
C1698 C1699 1.386 . S
C1698 C1700 1.391 . S
C1699 C1698 1.386 . S
C1699 C1703 1.393 . S
C1700 H1689 0.950 . S
C1700 C1698 1.391 . S
C1700 C1701 1.400 . S
C1701 C1695 1.491 1_554 S
C1701 C1700 1.400 . S
C1701 C1702 1.398 . S
C1702 H1690 0.950 . S
C1702 C1701 1.398 . S
C1702 C1703 1.391 . S
C1703 H1691 0.950 . S
C1703 C1699 1.393 . S
C1703 C1702 1.391 . S
H1704 C1712 0.950 . S
H1705 C1717 0.950 . S
H1706 C1714 0.950 . S
H1707 C1716 0.950 . S
H1708 C1718 0.950 . S
H1709 C1720 0.950 . S
H1710 C1722 0.950 . S
H1711 C1723 0.950 . S
C1712 H1704 0.950 . S
C1712 C1713 1.386 . S
C1712 C1714 1.391 . S
C1713 C1712 1.386 . S
C1713 C1717 1.393 . S
C1714 H1706 0.950 . S
C1714 C1712 1.391 . S
C1714 C1715 1.400 . S
C1715 C1714 1.400 . S
C1715 C1716 1.398 . S
C1715 C1721 1.491 . S
C1716 H1707 0.950 . S
C1716 C1715 1.398 . S
C1716 C1717 1.391 . S
C1717 H1705 0.950 . S
C1717 C1713 1.393 . S
C1717 C1716 1.391 . S
C1718 H1708 0.950 . S
C1718 C1719 1.386 . S
C1718 C1720 1.391 . S
C1719 C1718 1.386 . S
C1719 C1723 1.393 . S
C1720 H1709 0.950 . S
C1720 C1718 1.391 . S
C1720 C1721 1.400 . S
C1721 C1715 1.491 . S
C1721 C1720 1.400 . S
C1721 C1722 1.398 . S
C1722 H1710 0.950 . S
C1722 C1721 1.398 . S
C1722 C1723 1.391 . S
C1723 H1711 0.950 . S
C1723 C1719 1.393 . S
C1723 C1722 1.391 . S
H1724 C1732 0.950 . S
H1725 C1737 0.950 . S
H1726 C1734 0.950 . S
H1727 C1736 0.950 . S
H1728 C1738 0.950 . S
H1729 C1740 0.950 . S
H1730 C1742 0.950 . S
H1731 C1743 0.950 . S
C1732 H1724 0.950 . S
C1732 C1733 1.386 . S
C1732 C1734 1.391 . S
C1733 C1732 1.386 . S
C1733 C1737 1.393 . S
C1734 H1726 0.950 . S
C1734 C1732 1.391 . S
C1734 C1735 1.400 . S
C1735 C1734 1.400 . S
C1735 C1736 1.398 . S
C1735 C1741 1.491 . S
C1736 H1727 0.950 . S
C1736 C1735 1.398 . S
C1736 C1737 1.391 . S
C1737 H1725 0.950 . S
C1737 C1733 1.393 . S
C1737 C1736 1.391 . S
C1738 H1728 0.950 . S
C1738 C1739 1.386 . S
C1738 C1740 1.391 . S
C1739 C1738 1.386 . S
C1739 C1743 1.393 . S
C1740 H1729 0.950 . S
C1740 C1738 1.391 . S
C1740 C1741 1.400 . S
C1741 C1735 1.491 . S
C1741 C1740 1.400 . S
C1741 C1742 1.398 . S
C1742 H1730 0.950 . S
C1742 C1741 1.398 . S
C1742 C1743 1.391 . S
C1743 H1731 0.950 . S
C1743 C1739 1.393 . S
C1743 C1742 1.391 . S
H1744 C1752 0.950 . S
H1745 C1757 0.950 . S
H1746 C1754 0.950 . S
H1747 C1756 0.950 . S
H1748 C1758 0.950 . S
H1749 C1760 0.950 . S
H1750 C1762 0.950 . S
H1751 C1763 0.950 . S
C1752 H1744 0.950 . S
C1752 C1753 1.386 . S
C1752 C1754 1.391 . S
C1753 C1752 1.386 . S
C1753 C1757 1.393 . S
C1754 H1746 0.950 . S
C1754 C1752 1.391 . S
C1754 C1755 1.400 . S
C1755 C1754 1.400 . S
C1755 C1756 1.398 . S
C1755 C1761 1.491 1_554 S
C1756 H1747 0.950 . S
C1756 C1755 1.398 . S
C1756 C1757 1.391 . S
C1757 H1745 0.950 . S
C1757 C1753 1.393 . S
C1757 C1756 1.391 . S
C1758 H1748 0.950 . S
C1758 C1759 1.386 . S
C1758 C1760 1.391 . S
C1759 C1758 1.386 . S
C1759 C1763 1.393 . S
C1760 H1749 0.950 . S
C1760 C1758 1.391 . S
C1760 C1761 1.400 . S
C1761 C1755 1.491 1_556 S
C1761 C1760 1.400 . S
C1761 C1762 1.398 . S
C1762 H1750 0.950 . S
C1762 C1761 1.398 . S
C1762 C1763 1.391 . S
C1763 H1751 0.950 . S
C1763 C1759 1.393 . S
C1763 C1762 1.391 . S
H1764 C1772 0.950 . S
H1765 C1777 0.950 . S
H1766 C1774 0.950 . S
H1767 C1776 0.950 . S
H1768 C1778 0.950 . S
H1769 C1780 0.950 . S
H1770 C1782 0.950 . S
H1771 C1783 0.950 . S
C1772 H1764 0.950 . S
C1772 C1773 1.386 . S
C1772 C1774 1.391 . S
C1773 C1772 1.386 . S
C1773 C1777 1.393 . S
C1774 H1766 0.950 . S
C1774 C1772 1.391 . S
C1774 C1775 1.400 . S
C1775 C1774 1.400 . S
C1775 C1776 1.398 . S
C1775 C1781 1.491 1_556 S
C1776 H1767 0.950 . S
C1776 C1775 1.398 . S
C1776 C1777 1.391 . S
C1777 H1765 0.950 . S
C1777 C1773 1.393 . S
C1777 C1776 1.391 . S
C1778 H1768 0.950 . S
C1778 C1779 1.386 . S
C1778 C1780 1.391 . S
C1779 C1778 1.386 . S
C1779 C1783 1.393 . S
C1780 H1769 0.950 . S
C1780 C1778 1.391 . S
C1780 C1781 1.400 . S
C1781 C1775 1.491 1_554 S
C1781 C1780 1.400 . S
C1781 C1782 1.398 . S
C1782 H1770 0.950 . S
C1782 C1781 1.398 . S
C1782 C1783 1.391 . S
C1783 H1771 0.950 . S
C1783 C1779 1.393 . S
C1783 C1782 1.391 . S
H1784 C1792 0.950 . S
H1785 C1797 0.950 . S
H1786 C1794 0.950 . S
H1787 C1796 0.950 . S
H1788 C1798 0.950 . S
H1789 C1800 0.950 . S
H1790 C1802 0.950 . S
H1791 C1803 0.950 . S
C1792 H1784 0.950 . S
C1792 C1793 1.386 . S
C1792 C1794 1.391 . S
C1793 C1792 1.386 . S
C1793 C1797 1.393 . S
C1794 H1786 0.950 . S
C1794 C1792 1.391 . S
C1794 C1795 1.400 . S
C1795 C1794 1.400 . S
C1795 C1796 1.398 . S
C1795 C1801 1.491 . S
C1796 H1787 0.950 . S
C1796 C1795 1.398 . S
C1796 C1797 1.391 . S
C1797 H1785 0.950 . S
C1797 C1793 1.393 . S
C1797 C1796 1.391 . S
C1798 H1788 0.950 . S
C1798 C1799 1.386 . S
C1798 C1800 1.391 . S
C1799 C1798 1.386 . S
C1799 C1803 1.393 . S
C1800 H1789 0.950 . S
C1800 C1798 1.391 . S
C1800 C1801 1.400 . S
C1801 C1795 1.491 . S
C1801 C1800 1.400 . S
C1801 C1802 1.398 . S
C1802 H1790 0.950 . S
C1802 C1801 1.398 . S
C1802 C1803 1.391 . S
C1803 H1791 0.950 . S
C1803 C1799 1.393 . S
C1803 C1802 1.391 . S
H1804 C1812 0.950 . S
H1805 C1817 0.950 . S
H1806 C1814 0.950 . S
H1807 C1816 0.950 . S
H1808 C1818 0.950 . S
H1809 C1820 0.950 . S
H1810 C1822 0.950 . S
H1811 C1823 0.950 . S
C1812 H1804 0.950 . S
C1812 C1813 1.386 . S
C1812 C1814 1.391 . S
C1813 C1812 1.386 . S
C1813 C1817 1.393 . S
C1814 H1806 0.950 . S
C1814 C1812 1.391 . S
C1814 C1815 1.400 . S
C1815 C1814 1.400 . S
C1815 C1816 1.398 . S
C1815 C1821 1.491 . S
C1816 H1807 0.950 . S
C1816 C1815 1.398 . S
C1816 C1817 1.391 . S
C1817 H1805 0.950 . S
C1817 C1813 1.393 . S
C1817 C1816 1.391 . S
C1818 H1808 0.950 . S
C1818 C1819 1.386 . S
C1818 C1820 1.391 . S
C1819 C1818 1.386 . S
C1819 C1823 1.393 . S
C1820 H1809 0.950 . S
C1820 C1818 1.391 . S
C1820 C1821 1.400 . S
C1821 C1815 1.491 . S
C1821 C1820 1.400 . S
C1821 C1822 1.398 . S
C1822 H1810 0.950 . S
C1822 C1821 1.398 . S
C1822 C1823 1.391 . S
C1823 H1811 0.950 . S
C1823 C1819 1.393 . S
C1823 C1822 1.391 . S
H1824 C1832 0.950 . S
H1825 C1837 0.950 . S
H1826 C1834 0.950 . S
H1827 C1836 0.950 . S
H1828 C1838 0.950 . S
H1829 C1840 0.950 . S
H1830 C1842 0.950 . S
H1831 C1843 0.950 . S
C1832 H1824 0.950 . S
C1832 C1833 1.386 . S
C1832 C1834 1.391 1_565 S
C1833 C1832 1.386 . S
C1833 C1837 1.393 . S
C1834 H1826 0.950 . S
C1834 C1832 1.391 1_545 S
C1834 C1835 1.400 1_545 S
C1835 C1834 1.400 1_565 S
C1835 C1836 1.398 . S
C1835 C1841 1.491 1_665 S
C1836 H1827 0.950 . S
C1836 C1835 1.398 . S
C1836 C1837 1.391 . S
C1837 H1825 0.950 . S
C1837 C1833 1.393 . S
C1837 C1836 1.391 . S
C1838 H1828 0.950 . S
C1838 C1839 1.386 . S
C1838 C1840 1.391 1_545 S
C1839 C1838 1.386 . S
C1839 C1843 1.393 . S
C1840 H1829 0.950 . S
C1840 C1838 1.391 1_565 S
C1840 C1841 1.400 1_565 S
C1841 C1835 1.491 1_445 S
C1841 C1840 1.400 1_545 S
C1841 C1842 1.398 . S
C1842 H1830 0.950 . S
C1842 C1841 1.398 . S
C1842 C1843 1.391 . S
C1843 H1831 0.950 . S
C1843 C1839 1.393 . S
C1843 C1842 1.391 . S
H1844 C1852 0.950 1_565 S
H1845 C1857 0.950 . S
H1846 C1854 0.950 . S
H1847 C1856 0.950 . S
H1848 C1858 0.950 1_545 S
H1849 C1860 0.950 . S
H1850 C1862 0.950 . S
H1851 C1863 0.950 . S
C1852 H1844 0.950 1_545 S
C1852 C1853 1.386 . S
C1852 C1854 1.391 1_545 S
C1853 C1852 1.386 . S
C1853 C1857 1.393 . S
C1854 H1846 0.950 . S
C1854 C1852 1.391 1_565 S
C1854 C1855 1.400 1_565 S
C1855 C1854 1.400 1_545 S
C1855 C1856 1.398 . S
C1855 C1861 1.491 1_645 S
C1856 H1847 0.950 . S
C1856 C1855 1.398 . S
C1856 C1857 1.391 . S
C1857 H1845 0.950 . S
C1857 C1853 1.393 . S
C1857 C1856 1.391 . S
C1858 H1848 0.950 1_565 S
C1858 C1859 1.386 . S
C1858 C1860 1.391 1_565 S
C1859 C1858 1.386 . S
C1859 C1863 1.393 . S
C1860 H1849 0.950 . S
C1860 C1858 1.391 1_545 S
C1860 C1861 1.400 1_545 S
C1861 C1855 1.491 1_465 S
C1861 C1860 1.400 1_565 S
C1861 C1862 1.398 . S
C1862 H1850 0.950 . S
C1862 C1861 1.398 . S
C1862 C1863 1.391 . S
C1863 H1851 0.950 . S
C1863 C1859 1.393 . S
C1863 C1862 1.391 . S
H1864 C1872 0.950 . S
H1865 C1877 0.950 . S
H1866 C1874 0.950 . S
H1867 C1876 0.950 . S
H1868 C1878 0.950 . S
H1869 C1880 0.950 . S
H1870 C1882 0.950 . S
H1871 C1883 0.950 . S
C1872 H1864 0.950 . S
C1872 C1873 1.386 . S
C1872 C1874 1.391 1_545 S
C1873 C1872 1.386 . S
C1873 C1877 1.393 . S
C1874 H1866 0.950 . S
C1874 C1872 1.391 1_565 S
C1874 C1875 1.400 1_565 S
C1875 C1874 1.400 1_545 S
C1875 C1876 1.398 . S
C1875 C1881 1.491 1_445 S
C1876 H1867 0.950 . S
C1876 C1875 1.398 . S
C1876 C1877 1.391 . S
C1877 H1865 0.950 . S
C1877 C1873 1.393 . S
C1877 C1876 1.391 . S
C1878 H1868 0.950 . S
C1878 C1879 1.386 . S
C1878 C1880 1.391 1_565 S
C1879 C1878 1.386 . S
C1879 C1883 1.393 . S
C1880 H1869 0.950 . S
C1880 C1878 1.391 1_545 S
C1880 C1881 1.400 1_545 S
C1881 C1875 1.491 1_665 S
C1881 C1880 1.400 1_565 S
C1881 C1882 1.398 . S
C1882 H1870 0.950 . S
C1882 C1881 1.398 . S
C1882 C1883 1.391 . S
C1883 H1871 0.950 . S
C1883 C1879 1.393 . S
C1883 C1882 1.391 . S
H1884 C1892 0.950 1_565 S
H1885 C1897 0.950 . S
H1886 C1894 0.950 . S
H1887 C1896 0.950 . S
H1888 C1898 0.950 1_545 S
H1889 C1900 0.950 . S
H1890 C1902 0.950 . S
H1891 C1903 0.950 . S
C1892 H1884 0.950 1_545 S
C1892 C1893 1.386 . S
C1892 C1894 1.391 1_545 S
C1893 C1892 1.386 . S
C1893 C1897 1.393 . S
C1894 H1886 0.950 . S
C1894 C1892 1.391 1_565 S
C1894 C1895 1.400 1_565 S
C1895 C1894 1.400 1_545 S
C1895 C1896 1.398 . S
C1895 C1901 1.491 1_645 S
C1896 H1887 0.950 . S
C1896 C1895 1.398 . S
C1896 C1897 1.391 . S
C1897 H1885 0.950 . S
C1897 C1893 1.393 . S
C1897 C1896 1.391 . S
C1898 H1888 0.950 1_565 S
C1898 C1899 1.386 . S
C1898 C1900 1.391 1_565 S
C1899 C1898 1.386 . S
C1899 C1903 1.393 . S
C1900 H1889 0.950 . S
C1900 C1898 1.391 1_545 S
C1900 C1901 1.400 1_545 S
C1901 C1895 1.491 1_465 S
C1901 C1900 1.400 1_565 S
C1901 C1902 1.398 . S
C1902 H1890 0.950 . S
C1902 C1901 1.398 . S
C1902 C1903 1.391 . S
C1903 H1891 0.950 . S
C1903 C1899 1.393 . S
C1903 C1902 1.391 . S
H1904 C1912 0.950 . S
H1905 C1917 0.950 . S
H1906 C1914 0.950 . S
H1907 C1916 0.950 . S
H1908 C1918 0.950 . S
H1909 C1920 0.950 . S
H1910 C1922 0.950 . S
H1911 C1923 0.950 . S
C1912 H1904 0.950 . S
C1912 C1913 1.386 . S
C1912 C1914 1.391 . S
C1913 C1912 1.386 . S
C1913 C1917 1.393 . S
C1914 H1906 0.950 . S
C1914 C1912 1.391 . S
C1914 C1915 1.400 . S
C1915 C1914 1.400 . S
C1915 C1916 1.398 . S
C1915 C1921 1.491 . S
C1916 H1907 0.950 . S
C1916 C1915 1.398 . S
C1916 C1917 1.391 . S
C1917 H1905 0.950 . S
C1917 C1913 1.393 . S
C1917 C1916 1.391 . S
C1918 H1908 0.950 . S
C1918 C1919 1.386 . S
C1918 C1920 1.391 . S
C1919 C1918 1.386 . S
C1919 C1923 1.393 . S
C1920 H1909 0.950 . S
C1920 C1918 1.391 . S
C1920 C1921 1.400 . S
C1921 C1915 1.491 . S
C1921 C1920 1.400 . S
C1921 C1922 1.398 . S
C1922 H1910 0.950 . S
C1922 C1921 1.398 . S
C1922 C1923 1.391 . S
C1923 H1911 0.950 . S
C1923 C1919 1.393 . S
C1923 C1922 1.391 . S
H1924 C1932 0.950 . S
H1925 C1937 0.950 . S
H1926 C1934 0.950 . S
H1927 C1936 0.950 . S
H1928 C1938 0.950 . S
H1929 C1940 0.950 . S
H1930 C1942 0.950 . S
H1931 C1943 0.950 . S
C1932 H1924 0.950 . S
C1932 C1933 1.386 . S
C1932 C1934 1.391 . S
C1933 C1932 1.386 . S
C1933 C1937 1.393 . S
C1934 H1926 0.950 . S
C1934 C1932 1.391 . S
C1934 C1935 1.400 . S
C1935 C1934 1.400 . S
C1935 C1936 1.398 . S
C1935 C1941 1.491 . S
C1936 H1927 0.950 . S
C1936 C1935 1.398 . S
C1936 C1937 1.391 . S
C1937 H1925 0.950 . S
C1937 C1933 1.393 . S
C1937 C1936 1.391 . S
C1938 H1928 0.950 . S
C1938 C1939 1.386 . S
C1938 C1940 1.391 . S
C1939 C1938 1.386 . S
C1939 C1943 1.393 . S
C1940 H1929 0.950 . S
C1940 C1938 1.391 . S
C1940 C1941 1.400 . S
C1941 C1935 1.491 . S
C1941 C1940 1.400 . S
C1941 C1942 1.398 . S
C1942 H1930 0.950 . S
C1942 C1941 1.398 . S
C1942 C1943 1.391 . S
C1943 H1931 0.950 . S
C1943 C1939 1.393 . S
C1943 C1942 1.391 . S
H1944 C1952 0.950 . S
H1945 C1957 0.950 . S
H1946 C1954 0.950 . S
H1947 C1956 0.950 . S
H1948 C1958 0.950 . S
H1949 C1960 0.950 . S
H1950 C1962 0.950 . S
H1951 C1963 0.950 . S
C1952 H1944 0.950 . S
C1952 C1953 1.386 . S
C1952 C1954 1.391 . S
C1953 C1952 1.386 . S
C1953 C1957 1.393 . S
C1954 H1946 0.950 . S
C1954 C1952 1.391 . S
C1954 C1955 1.400 . S
C1955 C1954 1.400 . S
C1955 C1956 1.398 . S
C1955 C1961 1.491 . S
C1956 H1947 0.950 . S
C1956 C1955 1.398 . S
C1956 C1957 1.391 . S
C1957 H1945 0.950 . S
C1957 C1953 1.393 . S
C1957 C1956 1.391 . S
C1958 H1948 0.950 . S
C1958 C1959 1.386 . S
C1958 C1960 1.391 . S
C1959 C1958 1.386 . S
C1959 C1963 1.393 . S
C1960 H1949 0.950 . S
C1960 C1958 1.391 . S
C1960 C1961 1.400 . S
C1961 C1955 1.491 . S
C1961 C1960 1.400 . S
C1961 C1962 1.398 . S
C1962 H1950 0.950 . S
C1962 C1961 1.398 . S
C1962 C1963 1.391 . S
C1963 H1951 0.950 . S
C1963 C1959 1.393 . S
C1963 C1962 1.391 . S
H1964 C1972 0.950 . S
H1965 C1977 0.950 . S
H1966 C1974 0.950 . S
H1967 C1976 0.950 . S
H1968 C1978 0.950 . S
H1969 C1980 0.950 . S
H1970 C1982 0.950 . S
H1971 C1983 0.950 . S
C1972 H1964 0.950 . S
C1972 C1973 1.386 . S
C1972 C1974 1.391 . S
C1973 C1972 1.386 . S
C1973 C1977 1.393 . S
C1974 H1966 0.950 . S
C1974 C1972 1.391 . S
C1974 C1975 1.400 . S
C1975 C1974 1.400 . S
C1975 C1976 1.398 . S
C1975 C1981 1.491 . S
C1976 H1967 0.950 . S
C1976 C1975 1.398 . S
C1976 C1977 1.391 . S
C1977 H1965 0.950 . S
C1977 C1973 1.393 . S
C1977 C1976 1.391 . S
C1978 H1968 0.950 . S
C1978 C1979 1.386 . S
C1978 C1980 1.391 . S
C1979 C1978 1.386 . S
C1979 C1983 1.393 . S
C1980 H1969 0.950 . S
C1980 C1978 1.391 . S
C1980 C1981 1.400 . S
C1981 C1975 1.491 . S
C1981 C1980 1.400 . S
C1981 C1982 1.398 . S
C1982 H1970 0.950 . S
C1982 C1981 1.398 . S
C1982 C1983 1.391 . S
C1983 H1971 0.950 . S
C1983 C1979 1.393 . S
C1983 C1982 1.391 . S
H1984 C1992 0.950 . S
H1985 C1997 0.950 . S
H1986 C1994 0.950 . S
H1987 C1996 0.950 . S
H1988 C1998 0.950 . S
H1989 C2000 0.950 . S
H1990 C2002 0.950 . S
H1991 C2003 0.950 . S
C1992 H1984 0.950 . S
C1992 C1993 1.386 . S
C1992 C1994 1.391 . S
C1993 C1992 1.386 . S
C1993 C1997 1.393 . S
C1994 H1986 0.950 . S
C1994 C1992 1.391 . S
C1994 C1995 1.400 . S
C1995 C1994 1.400 . S
C1995 C1996 1.398 . S
C1995 C2001 1.491 . S
C1996 H1987 0.950 . S
C1996 C1995 1.398 . S
C1996 C1997 1.391 . S
C1997 H1985 0.950 . S
C1997 C1993 1.393 . S
C1997 C1996 1.391 . S
C1998 H1988 0.950 . S
C1998 C1999 1.386 . S
C1998 C2000 1.391 . S
C1999 C1998 1.386 . S
C1999 C2003 1.393 . S
C2000 H1989 0.950 . S
C2000 C1998 1.391 . S
C2000 C2001 1.400 . S
C2001 C1995 1.491 . S
C2001 C2000 1.400 . S
C2001 C2002 1.398 . S
C2002 H1990 0.950 . S
C2002 C2001 1.398 . S
C2002 C2003 1.391 . S
C2003 H1991 0.950 . S
C2003 C1999 1.393 . S
C2003 C2002 1.391 . S
H2004 C2012 0.950 . S
H2005 C2017 0.950 . S
H2006 C2014 0.950 . S
H2007 C2016 0.950 . S
H2008 C2018 0.950 . S
H2009 C2020 0.950 . S
H2010 C2022 0.950 . S
H2011 C2023 0.950 . S
C2012 H2004 0.950 . S
C2012 C2013 1.386 . S
C2012 C2014 1.391 . S
C2013 C2012 1.386 . S
C2013 C2017 1.393 . S
C2014 H2006 0.950 . S
C2014 C2012 1.391 . S
C2014 C2015 1.400 . S
C2015 C2014 1.400 . S
C2015 C2016 1.398 . S
C2015 C2021 1.491 . S
C2016 H2007 0.950 . S
C2016 C2015 1.398 . S
C2016 C2017 1.391 . S
C2017 H2005 0.950 . S
C2017 C2013 1.393 . S
C2017 C2016 1.391 . S
C2018 H2008 0.950 . S
C2018 C2019 1.386 . S
C2018 C2020 1.391 . S
C2019 C2018 1.386 . S
C2019 C2023 1.393 . S
C2020 H2009 0.950 . S
C2020 C2018 1.391 . S
C2020 C2021 1.400 . S
C2021 C2015 1.491 . S
C2021 C2020 1.400 . S
C2021 C2022 1.398 . S
C2022 H2010 0.950 . S
C2022 C2021 1.398 . S
C2022 C2023 1.391 . S
C2023 H2011 0.950 . S
C2023 C2019 1.393 . S
C2023 C2022 1.391 . S
H2024 C2032 0.950 . S
H2025 C2037 0.950 . S
H2026 C2034 0.950 . S
H2027 C2036 0.950 . S
H2028 C2038 0.950 . S
H2029 C2040 0.950 . S
H2030 C2042 0.950 . S
H2031 C2043 0.950 . S
C2032 H2024 0.950 . S
C2032 C2033 1.386 . S
C2032 C2034 1.391 . S
C2033 C2032 1.386 . S
C2033 C2037 1.393 . S
C2034 H2026 0.950 . S
C2034 C2032 1.391 . S
C2034 C2035 1.400 . S
C2035 C2034 1.400 . S
C2035 C2036 1.398 . S
C2035 C2041 1.491 . S
C2036 H2027 0.950 . S
C2036 C2035 1.398 . S
C2036 C2037 1.391 . S
C2037 H2025 0.950 . S
C2037 C2033 1.393 . S
C2037 C2036 1.391 . S
C2038 H2028 0.950 . S
C2038 C2039 1.386 . S
C2038 C2040 1.391 . S
C2039 C2038 1.386 . S
C2039 C2043 1.393 . S
C2040 H2029 0.950 . S
C2040 C2038 1.391 . S
C2040 C2041 1.400 . S
C2041 C2035 1.491 . S
C2041 C2040 1.400 . S
C2041 C2042 1.398 . S
C2042 H2030 0.950 . S
C2042 C2041 1.398 . S
C2042 C2043 1.391 . S
C2043 H2031 0.950 . S
C2043 C2039 1.393 . S
C2043 C2042 1.391 . S
H2044 C2052 0.950 . S
H2045 C2057 0.950 . S
H2046 C2054 0.950 . S
H2047 C2056 0.950 . S
H2048 C2058 0.950 . S
H2049 C2060 0.950 . S
H2050 C2062 0.950 . S
H2051 C2063 0.950 . S
C2052 H2044 0.950 . S
C2052 C2053 1.386 . S
C2052 C2054 1.391 . S
C2053 C2052 1.386 . S
C2053 C2057 1.393 . S
C2054 H2046 0.950 . S
C2054 C2052 1.391 . S
C2054 C2055 1.400 . S
C2055 C2054 1.400 . S
C2055 C2056 1.398 . S
C2055 C2061 1.491 . S
C2056 H2047 0.950 . S
C2056 C2055 1.398 . S
C2056 C2057 1.391 . S
C2057 H2045 0.950 . S
C2057 C2053 1.393 . S
C2057 C2056 1.391 . S
C2058 H2048 0.950 . S
C2058 C2059 1.386 . S
C2058 C2060 1.391 . S
C2059 C2058 1.386 . S
C2059 C2063 1.393 . S
C2060 H2049 0.950 . S
C2060 C2058 1.391 . S
C2060 C2061 1.400 . S
C2061 C2055 1.491 . S
C2061 C2060 1.400 . S
C2061 C2062 1.398 . S
C2062 H2050 0.950 . S
C2062 C2061 1.398 . S
C2062 C2063 1.391 . S
C2063 H2051 0.950 . S
C2063 C2059 1.393 . S
C2063 C2062 1.391 . S
H2064 C2072 0.950 . S
H2065 C2077 0.950 . S
H2066 C2074 0.950 . S
H2067 C2076 0.950 . S
H2068 C2078 0.950 . S
H2069 C2080 0.950 . S
H2070 C2082 0.950 . S
H2071 C2083 0.950 . S
C2072 H2064 0.950 . S
C2072 C2073 1.386 . S
C2072 C2074 1.391 . S
C2073 C2072 1.386 . S
C2073 C2077 1.393 . S
C2074 H2066 0.950 . S
C2074 C2072 1.391 . S
C2074 C2075 1.400 . S
C2075 C2074 1.400 . S
C2075 C2076 1.398 . S
C2075 C2081 1.491 . S
C2076 H2067 0.950 . S
C2076 C2075 1.398 . S
C2076 C2077 1.391 . S
C2077 H2065 0.950 . S
C2077 C2073 1.393 . S
C2077 C2076 1.391 . S
C2078 H2068 0.950 . S
C2078 C2079 1.386 . S
C2078 C2080 1.391 . S
C2079 C2078 1.386 . S
C2079 C2083 1.393 . S
C2080 H2069 0.950 . S
C2080 C2078 1.391 . S
C2080 C2081 1.400 . S
C2081 C2075 1.491 . S
C2081 C2080 1.400 . S
C2081 C2082 1.398 . S
C2082 H2070 0.950 . S
C2082 C2081 1.398 . S
C2082 C2083 1.391 . S
C2083 H2071 0.950 . S
C2083 C2079 1.393 . S
C2083 C2082 1.391 . S
H2084 C2092 0.950 . S
H2085 C2097 0.950 . S
H2086 C2094 0.950 . S
H2087 C2096 0.950 . S
H2088 C2098 0.950 . S
H2089 C2100 0.950 . S
H2090 C2102 0.950 . S
H2091 C2103 0.950 . S
C2092 H2084 0.950 . S
C2092 C2093 1.386 . S
C2092 C2094 1.391 . S
C2093 C2092 1.386 . S
C2093 C2097 1.393 . S
C2094 H2086 0.950 . S
C2094 C2092 1.391 . S
C2094 C2095 1.400 . S
C2095 C2094 1.400 . S
C2095 C2096 1.398 . S
C2095 C2101 1.491 . S
C2096 H2087 0.950 . S
C2096 C2095 1.398 . S
C2096 C2097 1.391 . S
C2097 H2085 0.950 . S
C2097 C2093 1.393 . S
C2097 C2096 1.391 . S
C2098 H2088 0.950 . S
C2098 C2099 1.386 . S
C2098 C2100 1.391 . S
C2099 C2098 1.386 . S
C2099 C2103 1.393 . S
C2100 H2089 0.950 . S
C2100 C2098 1.391 . S
C2100 C2101 1.400 . S
C2101 C2095 1.491 . S
C2101 C2100 1.400 . S
C2101 C2102 1.398 . S
C2102 H2090 0.950 . S
C2102 C2101 1.398 . S
C2102 C2103 1.391 . S
C2103 H2091 0.950 . S
C2103 C2099 1.393 . S
C2103 C2102 1.391 . S
H2104 C2112 0.950 . S
H2105 C2117 0.950 . S
H2106 C2114 0.950 . S
H2107 C2116 0.950 . S
H2108 C2118 0.950 . S
H2109 C2120 0.950 . S
H2110 C2122 0.950 . S
H2111 C2123 0.950 . S
C2112 H2104 0.950 . S
C2112 C2113 1.386 . S
C2112 C2114 1.391 . S
C2113 C2112 1.386 . S
C2113 C2117 1.393 . S
C2114 H2106 0.950 . S
C2114 C2112 1.391 . S
C2114 C2115 1.400 . S
C2115 C2114 1.400 . S
C2115 C2116 1.398 . S
C2115 C2121 1.491 . S
C2116 H2107 0.950 . S
C2116 C2115 1.398 . S
C2116 C2117 1.391 . S
C2117 H2105 0.950 . S
C2117 C2113 1.393 . S
C2117 C2116 1.391 . S
C2118 H2108 0.950 . S
C2118 C2119 1.386 . S
C2118 C2120 1.391 . S
C2119 C2118 1.386 . S
C2119 C2123 1.393 . S
C2120 H2109 0.950 . S
C2120 C2118 1.391 . S
C2120 C2121 1.400 . S
C2121 C2115 1.491 . S
C2121 C2120 1.400 . S
C2121 C2122 1.398 . S
C2122 H2110 0.950 . S
C2122 C2121 1.398 . S
C2122 C2123 1.391 . S
C2123 H2111 0.950 . S
C2123 C2119 1.393 . S
C2123 C2122 1.391 . S
H2124 C2132 0.950 . S
H2125 C2137 0.950 . S
H2126 C2134 0.950 . S
H2127 C2136 0.950 . S
H2128 C2138 0.950 . S
H2129 C2140 0.950 . S
H2130 C2142 0.950 . S
H2131 C2143 0.950 . S
C2132 H2124 0.950 . S
C2132 C2133 1.386 . S
C2132 C2134 1.391 . S
C2133 C2132 1.386 . S
C2133 C2137 1.393 . S
C2134 H2126 0.950 . S
C2134 C2132 1.391 . S
C2134 C2135 1.400 . S
C2135 C2134 1.400 . S
C2135 C2136 1.398 . S
C2135 C2141 1.491 . S
C2136 H2127 0.950 . S
C2136 C2135 1.398 . S
C2136 C2137 1.391 . S
C2137 H2125 0.950 . S
C2137 C2133 1.393 . S
C2137 C2136 1.391 . S
C2138 H2128 0.950 . S
C2138 C2139 1.386 . S
C2138 C2140 1.391 . S
C2139 C2138 1.386 . S
C2139 C2143 1.393 . S
C2140 H2129 0.950 . S
C2140 C2138 1.391 . S
C2140 C2141 1.400 . S
C2141 C2135 1.491 . S
C2141 C2140 1.400 . S
C2141 C2142 1.398 . S
C2142 H2130 0.950 . S
C2142 C2141 1.398 . S
C2142 C2143 1.391 . S
C2143 H2131 0.950 . S
C2143 C2139 1.393 . S
C2143 C2142 1.391 . S
H2144 C2152 0.950 1_565 S
H2145 C2157 0.950 . S
H2146 C2154 0.950 . S
H2147 C2156 0.950 . S
H2148 C2158 0.950 . S
H2149 C2160 0.950 . S
H2150 C2162 0.950 . S
H2151 C2163 0.950 . S
C2152 H2144 0.950 1_545 S
C2152 C2153 1.386 1_545 S
C2152 C2154 1.391 . S
C2153 C2152 1.386 1_565 S
C2153 C2157 1.393 1_565 S
C2154 H2146 0.950 . S
C2154 C2152 1.391 . S
C2154 C2155 1.400 . S
C2155 C2154 1.400 . S
C2155 C2156 1.398 . S
C2155 C2161 1.491 . S
C2156 H2147 0.950 . S
C2156 C2155 1.398 . S
C2156 C2157 1.391 . S
C2157 H2145 0.950 . S
C2157 C2153 1.393 1_545 S
C2157 C2156 1.391 . S
C2158 H2148 0.950 . S
C2158 C2159 1.386 . S
C2158 C2160 1.391 . S
C2159 C2158 1.386 . S
C2159 C2163 1.393 . S
C2160 H2149 0.950 . S
C2160 C2158 1.391 . S
C2160 C2161 1.400 . S
C2161 C2155 1.491 . S
C2161 C2160 1.400 . S
C2161 C2162 1.398 . S
C2162 H2150 0.950 . S
C2162 C2161 1.398 . S
C2162 C2163 1.391 . S
C2163 H2151 0.950 . S
C2163 C2159 1.393 . S
C2163 C2162 1.391 . S
H2164 C2172 0.950 . S
H2165 C2177 0.950 . S
H2166 C2174 0.950 . S
H2167 C2176 0.950 . S
H2168 C2178 0.950 1_545 S
H2169 C2180 0.950 . S
H2170 C2182 0.950 . S
H2171 C2183 0.950 . S
C2172 H2164 0.950 . S
C2172 C2173 1.386 . S
C2172 C2174 1.391 . S
C2173 C2172 1.386 . S
C2173 C2177 1.393 . S
C2174 H2166 0.950 . S
C2174 C2172 1.391 . S
C2174 C2175 1.400 . S
C2175 C2174 1.400 . S
C2175 C2176 1.398 . S
C2175 C2181 1.491 . S
C2176 H2167 0.950 . S
C2176 C2175 1.398 . S
C2176 C2177 1.391 . S
C2177 H2165 0.950 . S
C2177 C2173 1.393 . S
C2177 C2176 1.391 . S
C2178 H2168 0.950 1_565 S
C2178 C2179 1.386 1_565 S
C2178 C2180 1.391 . S
C2179 C2178 1.386 1_545 S
C2179 C2183 1.393 1_545 S
C2180 H2169 0.950 . S
C2180 C2178 1.391 . S
C2180 C2181 1.400 . S
C2181 C2175 1.491 . S
C2181 C2180 1.400 . S
C2181 C2182 1.398 . S
C2182 H2170 0.950 . S
C2182 C2181 1.398 . S
C2182 C2183 1.391 . S
C2183 H2171 0.950 . S
C2183 C2179 1.393 1_565 S
C2183 C2182 1.391 . S
H2184 C2192 0.950 1_545 S
H2185 C2197 0.950 . S
H2186 C2194 0.950 . S
H2187 C2196 0.950 . S
H2188 C2198 0.950 . S
H2189 C2200 0.950 . S
H2190 C2202 0.950 . S
H2191 C2203 0.950 . S
C2192 H2184 0.950 1_565 S
C2192 C2193 1.386 1_565 S
C2192 C2194 1.391 . S
C2193 C2192 1.386 1_545 S
C2193 C2197 1.393 1_545 S
C2194 H2186 0.950 . S
C2194 C2192 1.391 . S
C2194 C2195 1.400 . S
C2195 C2194 1.400 . S
C2195 C2196 1.398 . S
C2195 C2201 1.491 . S
C2196 H2187 0.950 . S
C2196 C2195 1.398 . S
C2196 C2197 1.391 . S
C2197 H2185 0.950 . S
C2197 C2193 1.393 1_565 S
C2197 C2196 1.391 . S
C2198 H2188 0.950 . S
C2198 C2199 1.386 . S
C2198 C2200 1.391 . S
C2199 C2198 1.386 . S
C2199 C2203 1.393 . S
C2200 H2189 0.950 . S
C2200 C2198 1.391 . S
C2200 C2201 1.400 . S
C2201 C2195 1.491 . S
C2201 C2200 1.400 . S
C2201 C2202 1.398 . S
C2202 H2190 0.950 . S
C2202 C2201 1.398 . S
C2202 C2203 1.391 . S
C2203 H2191 0.950 . S
C2203 C2199 1.393 . S
C2203 C2202 1.391 . S
H2204 C2212 0.950 . S
H2205 C2217 0.950 1_565 S
H2206 C2214 0.950 . S
H2207 C2216 0.950 . S
H2208 C2218 0.950 . S
H2209 C2220 0.950 . S
H2210 C2222 0.950 . S
H2211 C2223 0.950 . S
C2212 H2204 0.950 . S
C2212 C2213 1.386 1_545 S
C2212 C2214 1.391 . S
C2213 C2212 1.386 1_565 S
C2213 C2217 1.393 1_565 S
C2214 H2206 0.950 . S
C2214 C2212 1.391 . S
C2214 C2215 1.400 . S
C2215 C2214 1.400 . S
C2215 C2216 1.398 . S
C2215 C2221 1.491 . S
C2216 H2207 0.950 . S
C2216 C2215 1.398 . S
C2216 C2217 1.391 . S
C2217 H2205 0.950 1_545 S
C2217 C2213 1.393 1_545 S
C2217 C2216 1.391 . S
C2218 H2208 0.950 . S
C2218 C2219 1.386 . S
C2218 C2220 1.391 . S
C2219 C2218 1.386 . S
C2219 C2223 1.393 . S
C2220 H2209 0.950 . S
C2220 C2218 1.391 . S
C2220 C2221 1.400 . S
C2221 C2215 1.491 . S
C2221 C2220 1.400 . S
C2221 C2222 1.398 . S
C2222 H2210 0.950 . S
C2222 C2221 1.398 . S
C2222 C2223 1.391 . S
C2223 H2211 0.950 . S
C2223 C2219 1.393 . S
C2223 C2222 1.391 . S
H2224 C2232 0.950 . S
H2225 C2237 0.950 . S
H2226 C2234 0.950 . S
H2227 C2236 0.950 . S
H2228 C2238 0.950 . S
H2229 C2240 0.950 . S
H2230 C2242 0.950 . S
H2231 C2243 0.950 1_545 S
C2232 H2224 0.950 . S
C2232 C2233 1.386 . S
C2232 C2234 1.391 . S
C2233 C2232 1.386 . S
C2233 C2237 1.393 . S
C2234 H2226 0.950 . S
C2234 C2232 1.391 . S
C2234 C2235 1.400 . S
C2235 C2234 1.400 . S
C2235 C2236 1.398 . S
C2235 C2241 1.491 . S
C2236 H2227 0.950 . S
C2236 C2235 1.398 . S
C2236 C2237 1.391 . S
C2237 H2225 0.950 . S
C2237 C2233 1.393 . S
C2237 C2236 1.391 . S
C2238 H2228 0.950 . S
C2238 C2239 1.386 1_565 S
C2238 C2240 1.391 . S
C2239 C2238 1.386 1_545 S
C2239 C2243 1.393 1_545 S
C2240 H2229 0.950 . S
C2240 C2238 1.391 . S
C2240 C2241 1.400 . S
C2241 C2235 1.491 . S
C2241 C2240 1.400 . S
C2241 C2242 1.398 . S
C2242 H2230 0.950 . S
C2242 C2241 1.398 . S
C2242 C2243 1.391 . S
C2243 H2231 0.950 1_565 S
C2243 C2239 1.393 1_565 S
C2243 C2242 1.391 . S
H2244 C2252 0.950 . S
H2245 C2257 0.950 . S
H2246 C2254 0.950 . S
H2247 C2256 0.950 . S
H2248 C2258 0.950 1_565 S
H2249 C2260 0.950 . S
H2250 C2262 0.950 . S
H2251 C2263 0.950 . S
C2252 H2244 0.950 . S
C2252 C2253 1.386 . S
C2252 C2254 1.391 . S
C2253 C2252 1.386 . S
C2253 C2257 1.393 . S
C2254 H2246 0.950 . S
C2254 C2252 1.391 . S
C2254 C2255 1.400 . S
C2255 C2254 1.400 . S
C2255 C2256 1.398 . S
C2255 C2261 1.491 . S
C2256 H2247 0.950 . S
C2256 C2255 1.398 . S
C2256 C2257 1.391 . S
C2257 H2245 0.950 . S
C2257 C2253 1.393 . S
C2257 C2256 1.391 . S
C2258 H2248 0.950 1_545 S
C2258 C2259 1.386 1_545 S
C2258 C2260 1.391 . S
C2259 C2258 1.386 1_565 S
C2259 C2263 1.393 1_565 S
C2260 H2249 0.950 . S
C2260 C2258 1.391 . S
C2260 C2261 1.400 . S
C2261 C2255 1.491 . S
C2261 C2260 1.400 . S
C2261 C2262 1.398 . S
C2262 H2250 0.950 . S
C2262 C2261 1.398 . S
C2262 C2263 1.391 . S
C2263 H2251 0.950 . S
C2263 C2259 1.393 1_545 S
C2263 C2262 1.391 . S
H2264 C2272 0.950 1_565 S
H2265 C2277 0.950 . S
H2266 C2274 0.950 . S
H2267 C2276 0.950 . S
H2268 C2278 0.950 . S
H2269 C2280 0.950 . S
H2270 C2282 0.950 . S
H2271 C2283 0.950 . S
C2272 H2264 0.950 1_545 S
C2272 C2273 1.386 1_545 S
C2272 C2274 1.391 . S
C2273 C2272 1.386 1_565 S
C2273 C2277 1.393 1_565 S
C2274 H2266 0.950 . S
C2274 C2272 1.391 . S
C2274 C2275 1.400 . S
C2275 C2274 1.400 . S
C2275 C2276 1.398 . S
C2275 C2281 1.491 . S
C2276 H2267 0.950 . S
C2276 C2275 1.398 . S
C2276 C2277 1.391 . S
C2277 H2265 0.950 . S
C2277 C2273 1.393 1_545 S
C2277 C2276 1.391 . S
C2278 H2268 0.950 . S
C2278 C2279 1.386 . S
C2278 C2280 1.391 . S
C2279 C2278 1.386 . S
C2279 C2283 1.393 . S
C2280 H2269 0.950 . S
C2280 C2278 1.391 . S
C2280 C2281 1.400 . S
C2281 C2275 1.491 . S
C2281 C2280 1.400 . S
C2281 C2282 1.398 . S
C2282 H2270 0.950 . S
C2282 C2281 1.398 . S
C2282 C2283 1.391 . S
C2283 H2271 0.950 . S
C2283 C2279 1.393 . S
C2283 C2282 1.391 . S
H2284 C2292 0.950 . S
H2285 C2297 0.950 . S
H2286 C2294 0.950 . S
H2287 C2296 0.950 . S
H2288 C2298 0.950 . S
H2289 C2300 0.950 . S
H2290 C2302 0.950 . S
H2291 C2303 0.950 1_545 S
C2292 H2284 0.950 . S
C2292 C2293 1.386 . S
C2292 C2294 1.391 . S
C2293 C2292 1.386 . S
C2293 C2297 1.393 . S
C2294 H2286 0.950 . S
C2294 C2292 1.391 . S
C2294 C2295 1.400 . S
C2295 C2294 1.400 . S
C2295 C2296 1.398 . S
C2295 C2301 1.491 . S
C2296 H2287 0.950 . S
C2296 C2295 1.398 . S
C2296 C2297 1.391 . S
C2297 H2285 0.950 . S
C2297 C2293 1.393 . S
C2297 C2296 1.391 . S
C2298 H2288 0.950 . S
C2298 C2299 1.386 1_565 S
C2298 C2300 1.391 . S
C2299 C2298 1.386 1_545 S
C2299 C2303 1.393 1_545 S
C2300 H2289 0.950 . S
C2300 C2298 1.391 . S
C2300 C2301 1.400 . S
C2301 C2295 1.491 . S
C2301 C2300 1.400 . S
C2301 C2302 1.398 . S
C2302 H2290 0.950 . S
C2302 C2301 1.398 . S
C2302 C2303 1.391 . S
C2303 H2291 0.950 1_565 S
C2303 C2299 1.393 1_565 S
C2303 C2302 1.391 . S
C1353 C56 1.451 . S
C1359 C812 1.466 . S
C1373 C140 1.463 . S
C1379 C728 1.470 . S
C1393 C980 1.447 . S
C1399 C224 1.446 . S
C1413 C308 1.455 . S
C1419 C896 1.444 . S
C1433 C1159 1.453 . S
C1439 C403 1.468 . S
C1453 C1075 1.444 . S
C1459 C487 1.454 . S
C1473 C1327 1.469 . S
C1479 C571 1.466 . S
C1493 C655 1.453 . S
C1499 C1243 1.443 . S
C1513 C234 1.622 . S
C1519 C66 1.633 . S
C1533 C318 1.636 . S
C1539 C150 1.625 . S
C1553 C579 1.626 . S
C1559 C411 1.636 . S
C1573 C495 1.625 . S
C1579 C663 1.637 . S
C1593 C906 1.623 . S
C1599 C738 1.632 . S
C1613 C990 1.632 . S
C1619 C822 1.631 . S
C1633 C1083 1.626 . S
C1639 C1251 1.628 . S
C1653 C1167 1.624 . S
C1659 C1335 1.637 . S
C1673 C486 1.704 . S
C1679 C75 1.732 . S
C1693 C402 1.730 . S
C1699 C159 1.706 . S
C1713 C243 1.725 . S
C1719 C654 1.711 . S
C1733 C570 1.725 . S
C1739 C327 1.711 . S
C1753 C747 1.726 . S
C1759 C1158 1.710 . S
C1773 C1074 1.730 . S
C1779 C831 1.706 . S
C1793 C915 1.706 . S
C1799 C1326 1.730 . S
C1813 C1242 1.706 . S
C1819 C999 1.730 . S
C1833 C151 1.447 . S
C1839 C67 1.435 . S
C1853 C319 1.461 . S
C1859 C235 1.448 . S
C1873 C476 1.452 . S
C1879 C392 1.462 . S
C1893 C560 1.437 . S
C1899 C644 1.452 . S
C1913 C823 1.440 . S
C1919 C739 1.456 . S
C1933 C991 1.435 . S
C1939 C907 1.446 . S
C1953 C1064 1.459 . S
C1959 C1148 1.460 . S
C1973 C1232 1.462 . S
C1979 C1316 1.456 . S
C1993 C72 1.415 . S
C1999 C63 1.415 . S
C2013 C156 1.394 . S
C2019 C147 1.394 . S
C2033 C240 1.387 . S
C2039 C231 1.387 . S
C2053 C315 1.370 . S
C2059 C324 1.370 . S
C2073 C399 1.369 . S
C2079 C408 1.369 . S
C2093 C492 1.373 . S
C2099 C483 1.373 . S
C2113 C567 1.365 . S
C2119 C576 1.365 . S
C2133 C651 1.372 . S
C2139 C660 1.372 . S
C2153 C735 1.369 . S
C2159 C744 1.369 . S
C2173 C828 1.366 . S
C2179 C819 1.366 . S
C2193 C903 1.374 . S
C2199 C912 1.374 . S
C2213 C987 1.364 . S
C2219 C996 1.364 . S
C2233 C1071 1.385 . S
C2239 C1080 1.385 . S
C2253 C1155 1.412 . S
C2259 C1164 1.412 . S
C2273 C1248 1.395 . S
C2279 C1239 1.395 . S
C2293 C1323 1.365 . S
C2299 C1332 1.365 . S
