# Generated by pormake.
# Topology lcy-a, (4)-cn, num edge types: 1
# Building blocks:
#     Node 0, Type 0, BuildingBlock: CEKHIL_clean_sbu_0, # of connection points: 4
#     Node 1, Type 0, BuildingBlock: CEKHIL_clean_sbu_0, # of connection points: 4
#     Node 2, Type 0, BuildingBlock: CEKHIL_clean_sbu_0, # of connection points: 4
#     Node 3, Type 0, BuildingBlock: CEKHIL_clean_sbu_0, # of connection points: 4
#     Node 4, Type 0, BuildingBlock: CEKHIL_clean_sbu_0, # of connection points: 4
#     Node 5, Type 0, BuildingBlock: CEKHIL_clean_sbu_0, # of connection points: 4
#     Node 6, Type 0, BuildingBlock: CEKHIL_clean_sbu_0, # of connection points: 4
#     Node 7, Type 0, BuildingBlock: CEKHIL_clean_sbu_0, # of connection points: 4
#     Node 8, Type 0, BuildingBlock: CEKHIL_clean_sbu_0, # of connection points: 4
#     Node 9, Type 0, BuildingBlock: CEKHIL_clean_sbu_0, # of connection points: 4
#     Node 10, Type 0, BuildingBlock: CEKHIL_clean_sbu_0, # of connection points: 4
#     Node 11, Type 0, BuildingBlock: CEKHIL_clean_sbu_0, # of connection points: 4
#     Node 12, Type 0, BuildingBlock: CEKHIL_clean_sbu_0, # of connection points: 4
#     Node 13, Type 0, BuildingBlock: CEKHIL_clean_sbu_0, # of connection points: 4
#     Node 14, Type 0, BuildingBlock: CEKHIL_clean_sbu_0, # of connection points: 4
#     Node 15, Type 0, BuildingBlock: CEKHIL_clean_sbu_0, # of connection points: 4
#     Node 16, Type 0, BuildingBlock: CEKHIL_clean_sbu_0, # of connection points: 4
#     Node 17, Type 0, BuildingBlock: CEKHIL_clean_sbu_0, # of connection points: 4
#     Node 18, Type 0, BuildingBlock: CEKHIL_clean_sbu_0, # of connection points: 4
#     Node 19, Type 0, BuildingBlock: CEKHIL_clean_sbu_0, # of connection points: 4
#     Node 20, Type 0, BuildingBlock: CEKHIL_clean_sbu_0, # of connection points: 4
#     Node 21, Type 0, BuildingBlock: CEKHIL_clean_sbu_0, # of connection points: 4
#     Node 22, Type 0, BuildingBlock: CEKHIL_clean_sbu_0, # of connection points: 4
#     Node 23, Type 0, BuildingBlock: CEKHIL_clean_sbu_0, # of connection points: 4
#     Edge 24, Type (0, 0), None
#     Edge 25, Type (0, 0), None
#     Edge 26, Type (0, 0), None
#     Edge 27, Type (0, 0), None
#     Edge 28, Type (0, 0), None
#     Edge 29, Type (0, 0), None
#     Edge 30, Type (0, 0), None
#     Edge 31, Type (0, 0), None
#     Edge 32, Type (0, 0), None
#     Edge 33, Type (0, 0), None
#     Edge 34, Type (0, 0), None
#     Edge 35, Type (0, 0), None
#     Edge 36, Type (0, 0), None
#     Edge 37, Type (0, 0), None
#     Edge 38, Type (0, 0), None
#     Edge 39, Type (0, 0), None
#     Edge 40, Type (0, 0), None
#     Edge 41, Type (0, 0), None
#     Edge 42, Type (0, 0), None
#     Edge 43, Type (0, 0), None
#     Edge 44, Type (0, 0), None
#     Edge 45, Type (0, 0), None
#     Edge 46, Type (0, 0), None
#     Edge 47, Type (0, 0), None
#     Edge 48, Type (0, 0), None
#     Edge 49, Type (0, 0), None
#     Edge 50, Type (0, 0), None
#     Edge 51, Type (0, 0), None
#     Edge 52, Type (0, 0), None
#     Edge 53, Type (0, 0), None
#     Edge 54, Type (0, 0), None
#     Edge 55, Type (0, 0), None
#     Edge 56, Type (0, 0), None
#     Edge 57, Type (0, 0), None
#     Edge 58, Type (0, 0), None
#     Edge 59, Type (0, 0), None
#     Edge 60, Type (0, 0), None
#     Edge 61, Type (0, 0), None
#     Edge 62, Type (0, 0), None
#     Edge 63, Type (0, 0), None
#     Edge 64, Type (0, 0), None
#     Edge 65, Type (0, 0), None
#     Edge 66, Type (0, 0), None
#     Edge 67, Type (0, 0), None
#     Edge 68, Type (0, 0), None
#     Edge 69, Type (0, 0), None
#     Edge 70, Type (0, 0), None
#     Edge 71, Type (0, 0), None
# Relax obj value: 0.411
# Max RMSD: 0.186
# Mean RMSD: 0.186
data_MOF--net-lcy-a--node1-CEKHIL_clean_sbu_0--edge1-none
_symmetry_space_group_name_H-M    P1
_symmetry_Int_Tables_number       1
_symmetry_cell_setting            triclinic
loop_
_symmetry_equiv_pos_as_xyz
'x, y, z'
_cell_length_a     25.670853
_cell_length_b     25.669735
_cell_length_c     25.773893
_cell_angle_alpha  90.04931
_cell_angle_beta   90.014562
_cell_angle_gamma 90.000509
loop_
_atom_site_label
_atom_site_type_symbol
_atom_site_fract_x
_atom_site_fract_y
_atom_site_fract_z
_atom_type_partial_charge
Co0 Co 0.19431 0.26277 0.40014 0.0
O1 O 0.17742 0.20886 0.44905 0.0
O2 O 0.12005 0.25053 0.39979 0.0
C3 C 0.26599 0.2227 0.36482 0.0
O4 O 0.19576 0.31662 0.33858 0.0
Co5 Co 0.2933 0.32494 0.40409 0.0
O6 O 0.2725 0.35795 0.34071 0.0
C7 C 0.21423 0.35907 0.46313 0.0
C8 C 0.1293 0.21583 0.43526 0.0
C9 C 0.23007 0.34751 0.31821 0.0
O10 O 0.18866 0.31604 0.46087 0.0
O11 O 0.23259 0.37334 0.42046 0.0
O12 O 0.21922 0.21079 0.34896 0.0
O13 O 0.2668 0.25362 0.40437 0.0
Co14 Co 0.9593 0.94444 0.6502 0.0
O15 O 0.01323 0.92752 0.69912 0.0
O16 O 0.9715 0.87018 0.64978 0.0
C17 C -0.00067 0.01613 0.61494 0.0
O18 O 0.90543 0.94589 0.58862 0.0
Co19 Co 0.8971 0.04339 0.65421 0.0
O20 O 0.86406 0.0226 0.5908 0.0
C21 C 0.863 0.96428 0.71315 0.0
C22 C 0.00623 0.8794 0.68527 0.0
C23 C 0.87451 0.98018 0.56826 0.0
O24 O 0.90606 0.93877 0.7109 0.0
O25 O 0.84872 0.98264 0.67048 0.0
O26 O 0.01124 0.96936 0.59906 0.0
O27 O 0.96845 0.01694 0.65449 0.0
Co28 Co 0.27757 0.70922 0.90014 0.0
O29 O 0.29454 0.7632 0.94901 0.0
O30 O 0.3518 0.72144 0.89965 0.0
C31 C 0.20583 0.7492 0.86492 0.0
O32 O 0.27605 0.65529 0.8386 0.0
Co33 Co 0.17867 0.64699 0.90419 0.0
O34 O 0.19933 0.61397 0.84073 0.0
C35 C 0.25783 0.613 0.96317 0.0
C36 C 0.34262 0.75621 0.93512 0.0
C37 C 0.24173 0.62439 0.81822 0.0
O38 O 0.28336 0.65604 0.96087 0.0
O39 O 0.23942 0.59863 0.92052 0.0
O40 O 0.25256 0.7611 0.84899 0.0
O41 O 0.20509 0.71834 0.90447 0.0
Co42 Co 0.51279 0.02758 0.15015 0.0
O43 O 0.4588 0.0445 0.199 0.0
O44 O 0.50049 0.10182 0.14973 0.0
C45 C 0.47284 0.95582 0.11486 0.0
O46 O 0.56671 0.0261 0.08864 0.0
Co47 Co 0.57504 0.92867 0.15414 0.0
O48 O 0.60804 0.94938 0.09073 0.0
C49 C 0.60901 0.00782 0.21325 0.0
C50 C 0.46573 0.09259 0.18515 0.0
C51 C 0.59761 -0.00821 0.06825 0.0
O52 O 0.56598 0.03337 0.21092 0.0
O53 O 0.62338 -0.01057 0.1706 0.0
O54 O 0.4609 0.00255 0.09895 0.0
O55 O 0.50371 0.9551 0.15442 0.0
Co56 Co 0.69585 0.20747 0.5646 0.0
O57 O 0.68172 0.26211 0.51487 0.0
O58 O 0.62402 0.22723 0.5688 0.0
C59 C 0.77464 0.24103 0.59174 0.0
O60 O 0.69294 0.15309 0.62528 0.0
Co61 Co 0.78122 0.13342 0.57081 0.0
O62 O 0.77511 0.14424 0.6448 0.0
C63 C 0.70628 0.11008 0.50106 0.0
C64 C 0.63392 0.25943 0.53136 0.0
C65 C 0.72864 0.14172 0.65872 0.0
O66 O 0.6817 0.15366 0.50618 0.0
O67 O 0.72129 0.09015 0.54319 0.0
O68 O 0.73136 0.25824 0.61218 0.0
O69 O 0.76798 0.20649 0.55627 0.0
Co70 Co 0.01445 0.44597 0.81455 0.0
O71 O 0.95971 0.43177 0.7649 0.0
O72 O -0.00525 0.37415 0.81884 0.0
C73 C 0.98093 0.52476 0.84171 0.0
O74 O 0.06894 0.44312 0.87518 0.0
Co75 Co 0.08848 0.53129 0.8206 0.0
O76 O 0.07794 0.52531 0.89461 0.0
C77 C 0.11173 0.45629 0.7509 0.0
C78 C 0.96245 0.384 0.78144 0.0
C79 C 0.08038 0.47885 0.90858 0.0
O80 O 0.06813 0.43177 0.75605 0.0
O81 O 0.13173 0.47134 0.79301 0.0
O82 O 0.96379 0.48149 0.86218 0.0
O83 O 0.01538 0.51809 0.80619 0.0
Co84 Co 0.77602 0.76439 0.06454 0.0
O85 O 0.79026 0.70967 0.01487 0.0
O86 O 0.84786 0.74477 0.06888 0.0
C87 C 0.69725 0.73081 0.09165 0.0
O88 O 0.77883 0.81887 0.12522 0.0
Co89 Co 0.6906 0.83836 0.07049 0.0
O90 O 0.69662 0.82793 0.14451 0.0
C91 C 0.76566 0.8617 0.001 0.0
C92 C 0.83804 0.71248 0.03143 0.0
C93 C 0.74307 0.83035 0.15854 0.0
O94 O 0.79016 0.81809 0.0061 0.0
O95 O 0.75061 0.88164 0.04313 0.0
O96 O 0.74055 0.7137 0.11212 0.0
O97 O 0.70389 0.76525 0.05612 0.0
Co98 Co 0.45759 0.52601 0.31452 0.0
O99 O 0.51224 0.54017 0.26479 0.0
O100 O 0.4773 0.59786 0.31879 0.0
C101 C 0.49114 0.44723 0.34162 0.0
O102 O 0.4032 0.52892 0.37522 0.0
Co103 Co 0.38355 0.44061 0.32061 0.0
O104 O 0.39422 0.44674 0.39461 0.0
C105 C 0.36019 0.51562 0.25105 0.0
C106 C 0.50951 0.58797 0.28131 0.0
C107 C 0.39175 0.49321 0.40859 0.0
O108 O 0.4038 0.54014 0.25612 0.0
O109 O 0.3403 0.50062 0.2932 0.0
O110 O 0.50834 0.49053 0.36208 0.0
O111 O 0.45664 0.45387 0.30614 0.0
Co112 Co 0.40458 0.19627 0.26403 0.0
O113 O 0.45505 0.18256 0.2101 0.0
O114 O 0.40084 0.12436 0.24395 0.0
C115 C 0.37747 0.27515 0.2305 0.0
O116 O 0.34308 0.19327 0.31763 0.0
Co117 Co 0.3978 0.28133 0.33806 0.0
O118 O 0.32365 0.27549 0.32579 0.0
C119 C 0.46851 0.20685 0.36125 0.0
C120 C 0.43874 0.13467 0.21232 0.0
C121 C 0.30936 0.22911 0.32812 0.0
O122 O 0.4629 0.18203 0.318 0.0
O123 O 0.42645 0.22218 0.38145 0.0
O124 O 0.35718 0.23185 0.2131 0.0
O125 O 0.41274 0.26843 0.26524 0.0
Co126 Co 0.02566 0.15474 0.51421 0.0
O127 O 0.03935 0.20521 0.46029 0.0
O128 O 0.09757 0.15103 0.49414 0.0
C129 C 0.94677 0.12761 0.48062 0.0
O130 O 0.02871 0.09323 0.56778 0.0
Co131 Co 0.94062 0.1479 0.58818 0.0
O132 O 0.9465 0.07374 0.57587 0.0
C133 C 0.01507 0.21864 0.61146 0.0
C134 C 0.08725 0.1889 0.4625 0.0
C135 C -0.00711 0.05949 0.57825 0.0
O136 O 0.03989 0.21306 0.56823 0.0
O137 O -0.0002 0.17655 0.63161 0.0
O138 O -0.00994 0.10734 0.46322 0.0
O139 O 0.95351 0.16288 0.51539 0.0
Co140 Co 0.06719 0.77566 0.76414 0.0
O141 O 0.01675 0.78943 0.7102 0.0
O142 O 0.07099 0.84758 0.74418 0.0
C143 C 0.09426 0.69677 0.7305 0.0
O144 O 0.12872 0.77862 0.81776 0.0
Co145 Co 0.0739 0.69059 0.83802 0.0
O146 O 0.14807 0.69637 0.82594 0.0
C147 C 0.00335 0.76515 0.86137 0.0
C148 C 0.03311 0.83731 0.71249 0.0
C149 C 0.16239 0.74275 0.82828 0.0
O150 O 0.00888 0.78991 0.81812 0.0
O151 O 0.04545 0.74986 0.88149 0.0
O152 O 0.11457 0.74006 0.71318 0.0
O153 O 0.05898 0.70351 0.76521 0.0
Co154 Co 0.44638 0.81721 0.01398 0.0
O155 O 0.43261 0.76678 0.95999 0.0
O156 O 0.37447 0.82101 -0.006 0.0
C157 C 0.52524 0.84432 0.98042 0.0
O158 O 0.44342 0.8787 0.06765 0.0
Co159 Co 0.53145 0.82386 0.08792 0.0
O160 O 0.52567 0.89804 0.07593 0.0
C161 C 0.45691 0.75329 0.11115 0.0
C162 C 0.38473 0.78313 0.96229 0.0
C163 C 0.47929 0.91237 0.07821 0.0
O164 O 0.43215 0.75885 0.06788 0.0
O165 O 0.47222 0.79538 0.13133 0.0
O166 O 0.48195 0.86462 0.96309 0.0
O167 O 0.51854 0.80901 0.01508 0.0
Co168 Co 0.90453 0.27514 0.70692 0.0
O169 O 0.95276 0.29392 0.76058 0.0
O170 O 0.89961 0.3491 0.72069 0.0
C171 C 0.87564 0.19993 0.74547 0.0
O172 O 0.84252 0.27089 0.65336 0.0
Co173 Co 0.91294 0.17887 0.64456 0.0
O174 O 0.85159 0.19825 0.60645 0.0
C175 C 0.97152 0.25774 0.61205 0.0
C176 C 0.93622 0.34125 0.75464 0.0
C177 C 0.8258 0.23838 0.61865 0.0
O178 O 0.96495 0.28492 0.65374 0.0
O179 O 0.93102 0.23672 0.59486 0.0
O180 O 0.85494 0.24453 0.75848 0.0
O181 O 0.91479 0.20394 0.71496 0.0
Co182 Co 0.94691 0.65471 0.95689 0.0
O183 O 0.92812 0.70293 0.01057 0.0
O184 O 0.87298 0.64973 0.97062 0.0
C185 C 0.02216 0.62585 -0.00454 0.0
O186 O 0.95114 0.59267 0.90332 0.0
Co187 Co 0.0431 0.6631 0.89455 0.0
O188 O 0.02375 0.60171 0.85644 0.0
C189 C 0.9642 0.72163 0.86201 0.0
C190 C 0.88081 0.68633 0.0046 0.0
C191 C 0.98363 0.57592 0.86863 0.0
O192 O 0.93709 0.71512 0.90372 0.0
O193 O 0.98518 0.68109 0.84484 0.0
O194 O 0.97758 0.60514 0.00844 0.0
O195 O 0.01811 0.665 0.96495 0.0
Co196 Co 0.56731 0.6968 0.20673 0.0
O197 O 0.51907 0.67804 0.26036 0.0
O198 O 0.57224 0.62284 0.22049 0.0
C199 C 0.59616 0.77207 0.24534 0.0
O200 O 0.62936 0.70101 0.15322 0.0
Co201 Co 0.55894 0.79298 0.1444 0.0
O202 O 0.6203 0.77359 0.10632 0.0
C203 C 0.50038 0.71411 0.11179 0.0
C204 C 0.53565 0.63071 0.25444 0.0
C205 C 0.6461 0.73349 0.11854 0.0
O206 O 0.5069 0.68698 0.15348 0.0
O207 O 0.54093 0.73506 0.09466 0.0
O208 O 0.61687 0.72749 0.25834 0.0
O209 O 0.55703 0.768 0.21479 0.0
Co210 Co 0.52514 0.31734 0.45675 0.0
O211 O 0.54386 0.26911 0.51039 0.0
O212 O 0.5991 0.3222 0.47055 0.0
C213 C 0.44992 0.34629 0.49533 0.0
O214 O 0.52095 0.37936 0.40323 0.0
Co215 Co 0.42888 0.309 0.39439 0.0
O216 O 0.44834 0.37029 0.35629 0.0
C217 C 0.50769 0.25033 0.36184 0.0
C218 C 0.59121 0.28562 0.50449 0.0
C219 C 0.48847 0.39608 0.36852 0.0
O220 O 0.53488 0.2569 0.40351 0.0
O221 O 0.48672 0.29085 0.34467 0.0
O222 O 0.49452 0.36697 0.50835 0.0
O223 O 0.45393 0.30713 0.46478 0.0
Co224 Co 0.26289 0.40612 0.19554 0.0
O225 O 0.20972 0.45517 0.17685 0.0
O226 O 0.2491 0.40119 0.12206 0.0
C227 C 0.22356 0.37763 0.27007 0.0
O228 O 0.31609 0.34342 0.20009 0.0
Co229 Co 0.32527 0.41429 0.29145 0.0
O230 O 0.36278 0.35231 0.27275 0.0
C231 C 0.3589 0.47187 0.21236 0.0
C232 C 0.21559 0.43838 0.12979 0.0
C233 C 0.35058 0.32646 0.23278 0.0
O234 O 0.31692 0.46585 0.1855 0.0
O235 O 0.3754 0.43116 0.23346 0.0
O236 O 0.21042 0.35716 0.22558 0.0
O237 O 0.25462 0.41656 0.2664 0.0
Co238 Co 0.76095 0.06854 0.77262 0.0
O239 O 0.70697 0.01899 0.78917 0.0
O240 O 0.74848 0.06914 0.84603 0.0
C241 C 0.72174 0.10433 0.70129 0.0
O242 O 0.81454 0.13066 0.77199 0.0
Co243 Co 0.82445 0.06504 0.6753 0.0
O244 O 0.85715 0.12876 0.69635 0.0
C245 C 0.85765 0.0054 0.75413 0.0
C246 C 0.71406 0.03319 0.83701 0.0
C247 C 0.84593 0.15132 0.73843 0.0
O248 O 0.81427 0.00774 0.77891 0.0
O249 O 0.87237 0.0482 0.73605 0.0
O250 O 0.70912 0.11984 0.74782 0.0
O251 O 0.75259 0.06454 0.70034 0.0
Co252 Co 0.15352 0.51112 0.0226 0.0
O253 O 0.20302 0.45708 0.03917 0.0
O254 O 0.1529 0.49863 0.096 0.0
C255 C 0.11773 0.47194 0.95121 0.0
O256 O 0.09146 0.56476 0.02196 0.0
Co257 Co 0.15699 0.57462 0.92533 0.0
O258 O 0.09328 0.60733 0.94633 0.0
C259 C 0.21676 0.60775 0.00417 0.0
C260 C 0.18879 0.46416 0.087 0.0
C261 C 0.07077 0.59614 -0.01159 0.0
O262 O 0.21437 0.56439 0.02897 0.0
O263 O 0.17396 0.62253 -0.01391 0.0
O264 O 0.10219 0.45934 -0.00229 0.0
O265 O 0.15753 0.50277 0.95034 0.0
Co266 Co 0.71086 0.90346 0.27262 0.0
O267 O 0.76489 0.95297 0.2892 0.0
O268 O 0.72341 0.90284 0.346 0.0
C269 C 0.74998 0.86769 0.20122 0.0
O270 O 0.65723 0.84139 0.27193 0.0
Co271 Co 0.64728 0.90694 0.17533 0.0
O272 O 0.61466 0.84319 0.19626 0.0
C273 C 0.61423 0.96672 0.25421 0.0
C274 C 0.75787 0.93874 0.33702 0.0
C275 C 0.62587 0.82069 0.23834 0.0
O276 O 0.65759 0.9643 0.27904 0.0
O277 O 0.59942 0.92393 0.23608 0.0
O278 O 0.76263 0.85214 0.24771 0.0
O279 O 0.71914 0.90748 0.20037 0.0
Co280 Co 0.31858 0.46104 0.52254 0.0
O281 O 0.26904 0.51504 0.5391 0.0
O282 O 0.31917 0.47358 0.59594 0.0
C283 C 0.35438 0.50015 0.4512 0.0
O284 O 0.38066 0.40742 0.52189 0.0
Co285 Co 0.31506 0.39743 0.42521 0.0
O286 O 0.37878 0.36478 0.44623 0.0
C287 C 0.25537 0.36437 0.50408 0.0
C288 C 0.28323 0.50798 0.58694 0.0
C289 C 0.40132 0.37602 0.48831 0.0
O290 O 0.25776 0.40776 0.52889 0.0
O291 O 0.29815 0.34958 0.48596 0.0
O292 O 0.3699 0.51282 0.49772 0.0
O293 O 0.31458 0.46931 0.45028 0.0
Co294 Co 0.20888 0.5658 0.69547 0.0
O295 O 0.26208 0.5168 0.67675 0.0
O296 O 0.2227 0.57075 0.62202 0.0
C297 C 0.24822 0.59429 0.77003 0.0
O298 O 0.15566 0.62849 0.70007 0.0
Co299 Co 0.14652 0.55772 0.7913 0.0
O300 O 0.10893 0.61963 0.77266 0.0
C301 C 0.11291 0.49999 0.71222 0.0
C302 C 0.25626 0.53363 0.62972 0.0
C303 C 0.12114 0.64546 0.73274 0.0
O304 O 0.15486 0.50605 0.68533 0.0
O305 O 0.09636 0.54069 0.73335 0.0
O306 O 0.26133 0.61478 0.72559 0.0
O307 O 0.21715 0.55537 0.7663 0.0
Co308 Co 0.6562 0.95894 0.94552 0.0
O309 O 0.70521 0.01214 0.92684 0.0
O310 O 0.65125 0.97273 0.87206 0.0
C311 C 0.62771 -0.00171 0.0201 0.0
O312 O 0.59351 0.90572 0.95006 0.0
Co313 Co 0.66432 0.89659 0.04135 0.0
O314 O 0.60238 0.85902 0.02265 0.0
C315 C 0.72197 0.86295 0.96226 0.0
C316 C 0.68839 0.00629 0.87979 0.0
C317 C 0.57655 0.87122 0.98271 0.0
O318 O 0.71595 0.90492 0.93542 0.0
O319 O 0.68125 0.84643 0.98333 0.0
O320 O 0.60723 0.0114 0.97564 0.0
O321 O 0.66664 0.96723 0.01638 0.0
Co322 Co 0.81586 0.01295 0.44558 0.0
O323 O 0.76685 0.95974 0.42686 0.0
O324 O 0.82078 -0.00087 0.37212 0.0
C325 C 0.84439 0.97365 0.5201 0.0
O326 O 0.87852 0.06619 0.45017 0.0
Co327 Co 0.80772 0.07534 0.5415 0.0
O328 O 0.86964 0.11291 0.52282 0.0
C329 C 0.75002 0.1089 0.46242 0.0
C330 C 0.78363 0.96559 0.37982 0.0
C331 C 0.89547 0.10071 0.48286 0.0
O332 O 0.7561 0.06694 0.4355 0.0
O333 O 0.7907 0.12546 0.48357 0.0
O334 O 0.86486 0.96052 0.47563 0.0
O335 O 0.80546 0.0047 0.51642 0.0
loop_
_geom_bond_atom_site_label_1
_geom_bond_atom_site_label_2
_geom_bond_distance
_geom_bond_site_symmetry_2
_ccdc_geom_bond_type
Co0 O1 2.216 . S
Co0 O2 2.091 . S
Co0 O4 2.004 . S
Co0 O10 2.021 . S
Co0 O12 2.137 . S
Co0 O13 2.244 . S
O1 Co0 2.216 . S
O1 C8 1.247 . S
O2 Co0 2.091 . S
O2 C8 1.261 . S
C3 O12 1.247 . S
C3 O13 1.272 . S
O4 Co0 2.004 . S
O4 C9 1.259 . S
Co5 O6 2.061 . S
Co5 O11 2.052 . S
Co5 O13 2.135 . S
O6 Co5 2.061 . S
O6 C9 1.235 . S
C7 O10 1.238 . S
C7 O11 1.241 . S
C8 O1 1.247 . S
C8 O2 1.261 . S
C9 O4 1.259 . S
C9 O6 1.235 . S
O10 Co0 2.021 . S
O10 C7 1.238 . S
O11 Co5 2.052 . S
O11 C7 1.241 . S
O12 Co0 2.137 . S
O12 C3 1.247 . S
O13 Co0 2.244 . S
O13 C3 1.272 . S
O13 Co5 2.135 . S
Co14 O15 2.216 1_655 S
Co14 O16 2.091 . S
Co14 O18 2.004 . S
Co14 O24 2.021 . S
Co14 O26 2.137 1_655 S
Co14 O27 2.244 1_565 S
O15 Co14 2.216 1_455 S
O15 C22 1.248 . S
O16 Co14 2.091 . S
O16 C22 1.253 1_655 S
C17 O26 1.247 1_545 S
C17 O27 1.272 1_455 S
O18 Co14 2.004 . S
O18 C23 1.259 . S
Co19 O20 2.061 . S
Co19 O25 2.052 . S
Co19 O27 2.135 . S
O20 Co19 2.061 . S
O20 C23 1.235 1_545 S
C21 O24 1.238 . S
C21 O25 1.241 1_565 S
C22 O15 1.248 . S
C22 O16 1.253 1_455 S
C23 O18 1.259 . S
C23 O20 1.235 1_565 S
O24 Co14 2.021 . S
O24 C21 1.238 . S
O25 Co19 2.052 . S
O25 C21 1.241 1_545 S
O26 Co14 2.137 1_455 S
O26 C17 1.247 1_565 S
O27 Co14 2.244 1_545 S
O27 C17 1.272 1_655 S
O27 Co19 2.135 . S
Co28 O29 2.216 . S
Co28 O30 2.091 . S
Co28 O32 2.004 . S
Co28 O38 2.021 . S
Co28 O40 2.137 . S
Co28 O41 2.244 . S
O29 Co28 2.216 . S
O29 C36 1.247 . S
O30 Co28 2.091 . S
O30 C36 1.261 . S
C31 O40 1.247 . S
C31 O41 1.272 . S
O32 Co28 2.004 . S
O32 C37 1.259 . S
Co33 O34 2.061 . S
Co33 O39 2.052 . S
Co33 O41 2.135 . S
O34 Co33 2.061 . S
O34 C37 1.235 . S
C35 O38 1.238 . S
C35 O39 1.241 . S
C36 O29 1.247 . S
C36 O30 1.261 . S
C37 O32 1.259 . S
C37 O34 1.235 . S
O38 Co28 2.021 . S
O38 C35 1.238 . S
O39 Co33 2.052 . S
O39 C35 1.241 . S
O40 Co28 2.137 . S
O40 C31 1.247 . S
O41 Co28 2.244 . S
O41 C31 1.272 . S
O41 Co33 2.135 . S
Co42 O43 2.216 . S
Co42 O44 2.091 . S
Co42 O46 2.004 . S
Co42 O52 2.021 . S
Co42 O54 2.137 . S
Co42 O55 2.244 1_545 S
O43 Co42 2.216 . S
O43 C50 1.247 . S
O44 Co42 2.091 . S
O44 C50 1.261 . S
C45 O54 1.247 1_565 S
C45 O55 1.272 . S
O46 Co42 2.004 . S
O46 C51 1.259 . S
Co47 O48 2.061 . S
Co47 O53 2.052 . S
Co47 O55 2.135 . S
O48 Co47 2.061 . S
O48 C51 1.235 1_565 S
C49 O52 1.238 . S
C49 O53 1.241 1_545 S
C50 O43 1.247 . S
C50 O44 1.261 . S
C51 O46 1.259 . S
C51 O48 1.235 1_545 S
O52 Co42 2.021 . S
O52 C49 1.238 . S
O53 Co47 2.052 . S
O53 C49 1.241 1_565 S
O54 Co42 2.137 . S
O54 C45 1.247 1_545 S
O55 Co42 2.244 1_565 S
O55 C45 1.272 . S
O55 Co47 2.135 . S
Co56 O57 2.216 . S
Co56 O58 2.091 . S
Co56 O60 2.004 . S
Co56 O66 2.021 . S
Co56 O68 2.137 . S
Co56 O69 2.244 . S
O57 Co56 2.216 . S
O57 C64 1.247 . S
O58 Co56 2.091 . S
O58 C64 1.261 . S
C59 O68 1.247 . S
C59 O69 1.272 . S
O60 Co56 2.004 . S
O60 C65 1.259 . S
Co61 O62 2.061 . S
Co61 O67 2.052 . S
Co61 O69 2.135 . S
O62 Co61 2.061 . S
O62 C65 1.235 . S
C63 O66 1.238 . S
C63 O67 1.241 . S
C64 O57 1.247 . S
C64 O58 1.261 . S
C65 O60 1.259 . S
C65 O62 1.235 . S
O66 Co56 2.021 . S
O66 C63 1.238 . S
O67 Co61 2.052 . S
O67 C63 1.241 . S
O68 Co56 2.137 . S
O68 C59 1.247 . S
O69 Co56 2.244 . S
O69 C59 1.272 . S
O69 Co61 2.135 . S
Co70 O71 2.216 1_455 S
Co70 O72 2.091 . S
Co70 O74 2.004 . S
Co70 O80 2.021 . S
Co70 O82 2.137 1_455 S
Co70 O83 2.244 . S
O71 Co70 2.216 1_655 S
O71 C78 1.248 . S
O72 Co70 2.091 . S
O72 C78 1.253 1_455 S
C73 O82 1.247 . S
C73 O83 1.272 1_655 S
O74 Co70 2.004 . S
O74 C79 1.259 . S
Co75 O76 2.061 . S
Co75 O81 2.052 . S
Co75 O83 2.135 . S
O76 Co75 2.061 . S
O76 C79 1.235 . S
C77 O80 1.238 . S
C77 O81 1.241 . S
C78 O71 1.248 . S
C78 O72 1.253 1_655 S
C79 O74 1.259 . S
C79 O76 1.235 . S
O80 Co70 2.021 . S
O80 C77 1.238 . S
O81 Co75 2.052 . S
O81 C77 1.241 . S
O82 Co70 2.137 1_655 S
O82 C73 1.247 . S
O83 Co70 2.244 . S
O83 C73 1.272 1_455 S
O83 Co75 2.135 . S
Co84 O85 2.216 . S
Co84 O86 2.091 . S
Co84 O88 2.004 . S
Co84 O94 2.021 . S
Co84 O96 2.137 . S
Co84 O97 2.244 . S
O85 Co84 2.216 . S
O85 C92 1.247 . S
O86 Co84 2.091 . S
O86 C92 1.261 . S
C87 O96 1.247 . S
C87 O97 1.272 . S
O88 Co84 2.004 . S
O88 C93 1.259 . S
Co89 O90 2.061 . S
Co89 O95 2.052 . S
Co89 O97 2.135 . S
O90 Co89 2.061 . S
O90 C93 1.235 . S
C91 O94 1.238 . S
C91 O95 1.241 . S
C92 O85 1.247 . S
C92 O86 1.261 . S
C93 O88 1.259 . S
C93 O90 1.235 . S
O94 Co84 2.021 . S
O94 C91 1.238 . S
O95 Co89 2.052 . S
O95 C91 1.241 . S
O96 Co84 2.137 . S
O96 C87 1.247 . S
O97 Co84 2.244 . S
O97 C87 1.272 . S
O97 Co89 2.135 . S
Co98 O99 2.216 . S
Co98 O100 2.091 . S
Co98 O102 2.004 . S
Co98 O108 2.021 . S
Co98 O110 2.137 . S
Co98 O111 2.244 . S
O99 Co98 2.216 . S
O99 C106 1.247 . S
O100 Co98 2.091 . S
O100 C106 1.261 . S
C101 O110 1.247 . S
C101 O111 1.272 . S
O102 Co98 2.004 . S
O102 C107 1.259 . S
Co103 O104 2.061 . S
Co103 O109 2.052 . S
Co103 O111 2.135 . S
O104 Co103 2.061 . S
O104 C107 1.235 . S
C105 O108 1.238 . S
C105 O109 1.241 . S
C106 O99 1.247 . S
C106 O100 1.261 . S
C107 O102 1.259 . S
C107 O104 1.235 . S
O108 Co98 2.021 . S
O108 C105 1.238 . S
O109 Co103 2.052 . S
O109 C105 1.241 . S
O110 Co98 2.137 . S
O110 C101 1.247 . S
O111 Co98 2.244 . S
O111 C101 1.272 . S
O111 Co103 2.135 . S
Co112 O113 2.216 . S
Co112 O114 2.091 . S
Co112 O116 2.004 . S
Co112 O122 2.021 . S
Co112 O124 2.137 . S
Co112 O125 2.244 . S
O113 Co112 2.216 . S
O113 C120 1.247 . S
O114 Co112 2.091 . S
O114 C120 1.261 . S
C115 O124 1.247 . S
C115 O125 1.272 . S
O116 Co112 2.004 . S
O116 C121 1.259 . S
Co117 O118 2.061 . S
Co117 O123 2.052 . S
Co117 O125 2.135 . S
O118 Co117 2.061 . S
O118 C121 1.235 . S
C119 O122 1.238 . S
C119 O123 1.241 . S
C120 O113 1.247 . S
C120 O114 1.261 . S
C121 O116 1.259 . S
C121 O118 1.235 . S
O122 Co112 2.021 . S
O122 C119 1.238 . S
O123 Co117 2.052 . S
O123 C119 1.241 . S
O124 Co112 2.137 . S
O124 C115 1.247 . S
O125 Co112 2.244 . S
O125 C115 1.272 . S
O125 Co117 2.135 . S
Co126 O127 2.216 . S
Co126 O128 2.091 . S
Co126 O130 2.004 . S
Co126 O136 2.021 . S
Co126 O138 2.137 . S
Co126 O139 2.244 1_455 S
O127 Co126 2.216 . S
O127 C134 1.247 . S
O128 Co126 2.091 . S
O128 C134 1.261 . S
C129 O138 1.247 1_655 S
C129 O139 1.272 . S
O130 Co126 2.004 . S
O130 C135 1.259 . S
Co131 O132 2.061 . S
Co131 O137 2.052 . S
Co131 O139 2.135 . S
O132 Co131 2.061 . S
O132 C135 1.235 1_655 S
C133 O136 1.238 . S
C133 O137 1.241 1_455 S
C134 O127 1.247 . S
C134 O128 1.261 . S
C135 O130 1.259 . S
C135 O132 1.235 1_455 S
O136 Co126 2.021 . S
O136 C133 1.238 . S
O137 Co131 2.052 . S
O137 C133 1.241 1_655 S
O138 Co126 2.137 . S
O138 C129 1.247 1_455 S
O139 Co126 2.244 1_655 S
O139 C129 1.272 . S
O139 Co131 2.135 . S
Co140 O141 2.216 . S
Co140 O142 2.091 . S
Co140 O144 2.004 . S
Co140 O150 2.021 . S
Co140 O152 2.137 . S
Co140 O153 2.244 . S
O141 Co140 2.216 . S
O141 C148 1.247 . S
O142 Co140 2.091 . S
O142 C148 1.261 . S
C143 O152 1.247 . S
C143 O153 1.272 . S
O144 Co140 2.004 . S
O144 C149 1.259 . S
Co145 O146 2.061 . S
Co145 O151 2.052 . S
Co145 O153 2.135 . S
O146 Co145 2.061 . S
O146 C149 1.235 . S
C147 O150 1.238 . S
C147 O151 1.241 . S
C148 O141 1.247 . S
C148 O142 1.261 . S
C149 O144 1.259 . S
C149 O146 1.235 . S
O150 Co140 2.021 . S
O150 C147 1.238 . S
O151 Co145 2.052 . S
O151 C147 1.241 . S
O152 Co140 2.137 . S
O152 C143 1.247 . S
O153 Co140 2.244 . S
O153 C143 1.272 . S
O153 Co145 2.135 . S
Co154 O155 2.216 1_554 S
Co154 O156 2.091 . S
Co154 O158 2.004 . S
Co154 O164 2.021 . S
Co154 O166 2.137 1_554 S
Co154 O167 2.244 . S
O155 Co154 2.216 1_556 S
O155 C162 1.248 . S
O156 Co154 2.091 . S
O156 C162 1.253 1_554 S
C157 O166 1.247 . S
C157 O167 1.272 1_556 S
O158 Co154 2.004 . S
O158 C163 1.259 . S
Co159 O160 2.061 . S
Co159 O165 2.052 . S
Co159 O167 2.135 . S
O160 Co159 2.061 . S
O160 C163 1.235 . S
C161 O164 1.238 . S
C161 O165 1.241 . S
C162 O155 1.248 . S
C162 O156 1.253 1_556 S
C163 O158 1.259 . S
C163 O160 1.235 . S
O164 Co154 2.021 . S
O164 C161 1.238 . S
O165 Co159 2.052 . S
O165 C161 1.241 . S
O166 Co154 2.137 1_556 S
O166 C157 1.247 . S
O167 Co154 2.244 . S
O167 C157 1.272 1_554 S
O167 Co159 2.135 . S
Co168 O169 2.216 . S
Co168 O170 2.091 . S
Co168 O172 2.004 . S
Co168 O178 2.021 . S
Co168 O180 2.137 . S
Co168 O181 2.244 . S
O169 Co168 2.216 . S
O169 C176 1.247 . S
O170 Co168 2.091 . S
O170 C176 1.261 . S
C171 O180 1.247 . S
C171 O181 1.272 . S
O172 Co168 2.004 . S
O172 C177 1.259 . S
Co173 O174 2.061 . S
Co173 O179 2.052 . S
Co173 O181 2.135 . S
O174 Co173 2.061 . S
O174 C177 1.235 . S
C175 O178 1.238 . S
C175 O179 1.241 . S
C176 O169 1.247 . S
C176 O170 1.261 . S
C177 O172 1.259 . S
C177 O174 1.235 . S
O178 Co168 2.021 . S
O178 C175 1.238 . S
O179 Co173 2.052 . S
O179 C175 1.241 . S
O180 Co168 2.137 . S
O180 C171 1.247 . S
O181 Co168 2.244 . S
O181 C171 1.272 . S
O181 Co173 2.135 . S
Co182 O183 2.216 1_556 S
Co182 O184 2.091 . S
Co182 O186 2.004 . S
Co182 O192 2.021 . S
Co182 O194 2.137 1_556 S
Co182 O195 2.244 1_655 S
O183 Co182 2.216 1_554 S
O183 C190 1.248 . S
O184 Co182 2.091 . S
O184 C190 1.253 1_556 S
C185 O194 1.247 1_455 S
C185 O195 1.272 1_554 S
O186 Co182 2.004 . S
O186 C191 1.259 . S
Co187 O188 2.061 . S
Co187 O193 2.052 . S
Co187 O195 2.135 . S
O188 Co187 2.061 . S
O188 C191 1.235 1_455 S
C189 O192 1.238 . S
C189 O193 1.241 1_655 S
C190 O183 1.248 . S
C190 O184 1.253 1_554 S
C191 O186 1.259 . S
C191 O188 1.235 1_655 S
O192 Co182 2.021 . S
O192 C189 1.238 . S
O193 Co187 2.052 . S
O193 C189 1.241 1_455 S
O194 Co182 2.137 1_554 S
O194 C185 1.247 1_655 S
O195 Co182 2.244 1_455 S
O195 C185 1.272 1_556 S
O195 Co187 2.135 . S
Co196 O197 2.216 . S
Co196 O198 2.091 . S
Co196 O200 2.004 . S
Co196 O206 2.021 . S
Co196 O208 2.137 . S
Co196 O209 2.244 . S
O197 Co196 2.216 . S
O197 C204 1.247 . S
O198 Co196 2.091 . S
O198 C204 1.261 . S
C199 O208 1.247 . S
C199 O209 1.272 . S
O200 Co196 2.004 . S
O200 C205 1.259 . S
Co201 O202 2.061 . S
Co201 O207 2.052 . S
Co201 O209 2.135 . S
O202 Co201 2.061 . S
O202 C205 1.235 . S
C203 O206 1.238 . S
C203 O207 1.241 . S
C204 O197 1.247 . S
C204 O198 1.261 . S
C205 O200 1.259 . S
C205 O202 1.235 . S
O206 Co196 2.021 . S
O206 C203 1.238 . S
O207 Co201 2.052 . S
O207 C203 1.241 . S
O208 Co196 2.137 . S
O208 C199 1.247 . S
O209 Co196 2.244 . S
O209 C199 1.272 . S
O209 Co201 2.135 . S
Co210 O211 2.216 . S
Co210 O212 2.091 . S
Co210 O214 2.004 . S
Co210 O220 2.021 . S
Co210 O222 2.137 . S
Co210 O223 2.244 . S
O211 Co210 2.216 . S
O211 C218 1.247 . S
O212 Co210 2.091 . S
O212 C218 1.261 . S
C213 O222 1.247 . S
C213 O223 1.272 . S
O214 Co210 2.004 . S
O214 C219 1.259 . S
Co215 O216 2.061 . S
Co215 O221 2.052 . S
Co215 O223 2.135 . S
O216 Co215 2.061 . S
O216 C219 1.235 . S
C217 O220 1.238 . S
C217 O221 1.241 . S
C218 O211 1.247 . S
C218 O212 1.261 . S
C219 O214 1.259 . S
C219 O216 1.235 . S
O220 Co210 2.021 . S
O220 C217 1.238 . S
O221 Co215 2.052 . S
O221 C217 1.241 . S
O222 Co210 2.137 . S
O222 C213 1.247 . S
O223 Co210 2.244 . S
O223 C213 1.272 . S
O223 Co215 2.135 . S
Co224 O225 2.216 . S
Co224 O226 2.091 . S
Co224 O228 2.004 . S
Co224 O234 2.021 . S
Co224 O236 2.137 . S
Co224 O237 2.244 . S
O225 Co224 2.216 . S
O225 C232 1.247 . S
O226 Co224 2.091 . S
O226 C232 1.261 . S
C227 O236 1.247 . S
C227 O237 1.272 . S
O228 Co224 2.004 . S
O228 C233 1.259 . S
Co229 O230 2.061 . S
Co229 O235 2.052 . S
Co229 O237 2.135 . S
O230 Co229 2.061 . S
O230 C233 1.235 . S
C231 O234 1.238 . S
C231 O235 1.241 . S
C232 O225 1.247 . S
C232 O226 1.261 . S
C233 O228 1.259 . S
C233 O230 1.235 . S
O234 Co224 2.021 . S
O234 C231 1.238 . S
O235 Co229 2.052 . S
O235 C231 1.241 . S
O236 Co224 2.137 . S
O236 C227 1.247 . S
O237 Co224 2.244 . S
O237 C227 1.272 . S
O237 Co229 2.135 . S
Co238 O239 2.216 . S
Co238 O240 2.091 . S
Co238 O242 2.004 . S
Co238 O248 2.021 . S
Co238 O250 2.137 . S
Co238 O251 2.244 . S
O239 Co238 2.216 . S
O239 C246 1.247 . S
O240 Co238 2.091 . S
O240 C246 1.261 . S
C241 O250 1.247 . S
C241 O251 1.272 . S
O242 Co238 2.004 . S
O242 C247 1.259 . S
Co243 O244 2.061 . S
Co243 O249 2.052 . S
Co243 O251 2.135 . S
O244 Co243 2.061 . S
O244 C247 1.235 . S
C245 O248 1.238 . S
C245 O249 1.241 . S
C246 O239 1.247 . S
C246 O240 1.261 . S
C247 O242 1.259 . S
C247 O244 1.235 . S
O248 Co238 2.021 . S
O248 C245 1.238 . S
O249 Co243 2.052 . S
O249 C245 1.241 . S
O250 Co238 2.137 . S
O250 C241 1.247 . S
O251 Co238 2.244 . S
O251 C241 1.272 . S
O251 Co243 2.135 . S
Co252 O253 2.216 . S
Co252 O254 2.091 . S
Co252 O256 2.004 . S
Co252 O262 2.021 . S
Co252 O264 2.137 . S
Co252 O265 2.244 1_554 S
O253 Co252 2.216 . S
O253 C260 1.247 . S
O254 Co252 2.091 . S
O254 C260 1.261 . S
C255 O264 1.247 1_556 S
C255 O265 1.272 . S
O256 Co252 2.004 . S
O256 C261 1.259 . S
Co257 O258 2.061 . S
Co257 O263 2.052 . S
Co257 O265 2.135 . S
O258 Co257 2.061 . S
O258 C261 1.235 1_556 S
C259 O262 1.238 . S
C259 O263 1.241 1_554 S
C260 O253 1.247 . S
C260 O254 1.261 . S
C261 O256 1.259 . S
C261 O258 1.235 1_554 S
O262 Co252 2.021 . S
O262 C259 1.238 . S
O263 Co257 2.052 . S
O263 C259 1.241 1_556 S
O264 Co252 2.137 . S
O264 C255 1.247 1_554 S
O265 Co252 2.244 1_556 S
O265 C255 1.272 . S
O265 Co257 2.135 . S
Co266 O267 2.216 . S
Co266 O268 2.091 . S
Co266 O270 2.004 . S
Co266 O276 2.021 . S
Co266 O278 2.137 . S
Co266 O279 2.244 . S
O267 Co266 2.216 . S
O267 C274 1.247 . S
O268 Co266 2.091 . S
O268 C274 1.261 . S
C269 O278 1.247 . S
C269 O279 1.272 . S
O270 Co266 2.004 . S
O270 C275 1.259 . S
Co271 O272 2.061 . S
Co271 O277 2.052 . S
Co271 O279 2.135 . S
O272 Co271 2.061 . S
O272 C275 1.235 . S
C273 O276 1.238 . S
C273 O277 1.241 . S
C274 O267 1.247 . S
C274 O268 1.261 . S
C275 O270 1.259 . S
C275 O272 1.235 . S
O276 Co266 2.021 . S
O276 C273 1.238 . S
O277 Co271 2.052 . S
O277 C273 1.241 . S
O278 Co266 2.137 . S
O278 C269 1.247 . S
O279 Co266 2.244 . S
O279 C269 1.272 . S
O279 Co271 2.135 . S
Co280 O281 2.216 . S
Co280 O282 2.091 . S
Co280 O284 2.004 . S
Co280 O290 2.021 . S
Co280 O292 2.137 . S
Co280 O293 2.244 . S
O281 Co280 2.216 . S
O281 C288 1.247 . S
O282 Co280 2.091 . S
O282 C288 1.261 . S
C283 O292 1.247 . S
C283 O293 1.272 . S
O284 Co280 2.004 . S
O284 C289 1.259 . S
Co285 O286 2.061 . S
Co285 O291 2.052 . S
Co285 O293 2.135 . S
O286 Co285 2.061 . S
O286 C289 1.235 . S
C287 O290 1.238 . S
C287 O291 1.241 . S
C288 O281 1.247 . S
C288 O282 1.261 . S
C289 O284 1.259 . S
C289 O286 1.235 . S
O290 Co280 2.021 . S
O290 C287 1.238 . S
O291 Co285 2.052 . S
O291 C287 1.241 . S
O292 Co280 2.137 . S
O292 C283 1.247 . S
O293 Co280 2.244 . S
O293 C283 1.272 . S
O293 Co285 2.135 . S
Co294 O295 2.216 . S
Co294 O296 2.091 . S
Co294 O298 2.004 . S
Co294 O304 2.021 . S
Co294 O306 2.137 . S
Co294 O307 2.244 . S
O295 Co294 2.216 . S
O295 C302 1.247 . S
O296 Co294 2.091 . S
O296 C302 1.261 . S
C297 O306 1.247 . S
C297 O307 1.272 . S
O298 Co294 2.004 . S
O298 C303 1.259 . S
Co299 O300 2.061 . S
Co299 O305 2.052 . S
Co299 O307 2.135 . S
O300 Co299 2.061 . S
O300 C303 1.235 . S
C301 O304 1.238 . S
C301 O305 1.241 . S
C302 O295 1.247 . S
C302 O296 1.261 . S
C303 O298 1.259 . S
C303 O300 1.235 . S
O304 Co294 2.021 . S
O304 C301 1.238 . S
O305 Co299 2.052 . S
O305 C301 1.241 . S
O306 Co294 2.137 . S
O306 C297 1.247 . S
O307 Co294 2.244 . S
O307 C297 1.272 . S
O307 Co299 2.135 . S
Co308 O309 2.216 1_565 S
Co308 O310 2.091 . S
Co308 O312 2.004 . S
Co308 O318 2.021 . S
Co308 O320 2.137 1_565 S
Co308 O321 2.244 1_556 S
O309 Co308 2.216 1_545 S
O309 C316 1.248 . S
O310 Co308 2.091 . S
O310 C316 1.253 1_565 S
C311 O320 1.247 1_554 S
C311 O321 1.272 1_545 S
O312 Co308 2.004 . S
O312 C317 1.259 . S
Co313 O314 2.061 . S
Co313 O319 2.052 . S
Co313 O321 2.135 . S
O314 Co313 2.061 . S
O314 C317 1.235 1_554 S
C315 O318 1.238 . S
C315 O319 1.241 1_556 S
C316 O309 1.248 . S
C316 O310 1.253 1_545 S
C317 O312 1.259 . S
C317 O314 1.235 1_556 S
O318 Co308 2.021 . S
O318 C315 1.238 . S
O319 Co313 2.052 . S
O319 C315 1.241 1_554 S
O320 Co308 2.137 1_545 S
O320 C311 1.247 1_556 S
O321 Co308 2.244 1_554 S
O321 C311 1.272 1_565 S
O321 Co313 2.135 . S
Co322 O323 2.216 1_545 S
Co322 O324 2.091 . S
Co322 O326 2.004 . S
Co322 O332 2.021 . S
Co322 O334 2.137 1_545 S
Co322 O335 2.244 . S
O323 Co322 2.216 1_565 S
O323 C330 1.248 . S
O324 Co322 2.091 . S
O324 C330 1.253 1_545 S
C325 O334 1.247 . S
C325 O335 1.272 1_565 S
O326 Co322 2.004 . S
O326 C331 1.259 . S
Co327 O328 2.061 . S
Co327 O333 2.052 . S
Co327 O335 2.135 . S
O328 Co327 2.061 . S
O328 C331 1.235 . S
C329 O332 1.238 . S
C329 O333 1.241 . S
C330 O323 1.248 . S
C330 O324 1.253 1_565 S
C331 O326 1.259 . S
C331 O328 1.235 . S
O332 Co322 2.021 . S
O332 C329 1.238 . S
O333 Co327 2.052 . S
O333 C329 1.241 . S
O334 Co322 2.137 1_565 S
O334 C325 1.247 . S
O335 Co322 2.244 . S
O335 C325 1.272 1_545 S
O335 Co327 2.135 . S
C134 C8 1.788 . S
C22 C148 1.799 . S
C36 C162 1.799 . S
C50 C120 1.788 . S
C64 C218 1.788 . S
C176 C78 1.799 . S
C92 C190 1.799 . S
C204 C106 1.788 . S
C232 C260 1.788 . S
C316 C246 1.799 . S
C274 C330 1.799 . S
C302 C288 1.788 . S
C287 C7 2.034 . S
C21 C245 2.034 1_565 S
C35 C259 2.034 1_556 S
C49 C273 2.034 1_545 S
C63 C329 2.034 . S
C301 C77 2.034 . S
C315 C91 2.034 1_556 S
C231 C105 2.034 . S
C217 C119 2.034 . S
C133 C175 2.034 1_455 S
C189 C147 2.034 1_655 S
C203 C161 2.034 . S
C9 C227 1.572 . S
C325 C23 1.572 . S
C297 C37 1.572 . S
C51 C311 1.572 . S
C65 C241 1.572 . S
C255 C79 1.572 . S
C269 C93 1.572 . S
C283 C107 1.572 . S
C3 C121 1.572 . S
C17 C135 1.572 . S
C31 C149 1.572 . S
C45 C163 1.572 . S
C59 C177 1.572 . S
C73 C191 1.572 . S
C205 C87 1.572 . S
C101 C219 1.572 . S
C115 C233 1.572 . S
C247 C171 1.572 . S
C185 C261 1.572 . S
C275 C199 1.572 . S
C289 C213 1.572 . S
C303 C143 1.572 . S
C157 C317 1.572 . S
C331 C129 1.572 . S
