# Generated by pormake.
# Topology acs-a, (4)-cn, num edge types: 1
# Building blocks:
#     Node 0, Type 0, BuildingBlock: QUQFOY_clean_sbu_3, # of connection points: 4
#     Node 1, Type 0, BuildingBlock: QUQFOY_clean_sbu_3, # of connection points: 4
#     Node 2, Type 0, BuildingBlock: QUQFOY_clean_sbu_3, # of connection points: 4
#     Node 3, Type 0, BuildingBlock: QUQFOY_clean_sbu_3, # of connection points: 4
#     Node 4, Type 0, BuildingBlock: QUQFOY_clean_sbu_3, # of connection points: 4
#     Node 5, Type 0, BuildingBlock: QUQFOY_clean_sbu_3, # of connection points: 4
#     Node 6, Type 0, BuildingBlock: QUQFOY_clean_sbu_3, # of connection points: 4
#     Node 7, Type 0, BuildingBlock: QUQFOY_clean_sbu_3, # of connection points: 4
#     Node 8, Type 0, BuildingBlock: QUQFOY_clean_sbu_3, # of connection points: 4
#     Node 9, Type 0, BuildingBlock: QUQFOY_clean_sbu_3, # of connection points: 4
#     Node 10, Type 0, BuildingBlock: QUQFOY_clean_sbu_3, # of connection points: 4
#     Node 11, Type 0, BuildingBlock: QUQFOY_clean_sbu_3, # of connection points: 4
#     Edge 12, Type (0, 0), BuildingBlock: KIFKEQ_clean_linker_1, # of connection points: 2
#     Edge 13, Type (0, 0), BuildingBlock: KIFKEQ_clean_linker_1, # of connection points: 2
#     Edge 14, Type (0, 0), BuildingBlock: KIFKEQ_clean_linker_1, # of connection points: 2
#     Edge 15, Type (0, 0), BuildingBlock: KIFKEQ_clean_linker_1, # of connection points: 2
#     Edge 16, Type (0, 0), BuildingBlock: KIFKEQ_clean_linker_1, # of connection points: 2
#     Edge 17, Type (0, 0), BuildingBlock: KIFKEQ_clean_linker_1, # of connection points: 2
#     Edge 18, Type (0, 0), BuildingBlock: KIFKEQ_clean_linker_1, # of connection points: 2
#     Edge 19, Type (0, 0), BuildingBlock: KIFKEQ_clean_linker_1, # of connection points: 2
#     Edge 20, Type (0, 0), BuildingBlock: KIFKEQ_clean_linker_1, # of connection points: 2
#     Edge 21, Type (0, 0), BuildingBlock: KIFKEQ_clean_linker_1, # of connection points: 2
#     Edge 22, Type (0, 0), BuildingBlock: KIFKEQ_clean_linker_1, # of connection points: 2
#     Edge 23, Type (0, 0), BuildingBlock: KIFKEQ_clean_linker_1, # of connection points: 2
#     Edge 24, Type (0, 0), BuildingBlock: KIFKEQ_clean_linker_1, # of connection points: 2
#     Edge 25, Type (0, 0), BuildingBlock: KIFKEQ_clean_linker_1, # of connection points: 2
#     Edge 26, Type (0, 0), BuildingBlock: KIFKEQ_clean_linker_1, # of connection points: 2
#     Edge 27, Type (0, 0), BuildingBlock: KIFKEQ_clean_linker_1, # of connection points: 2
#     Edge 28, Type (0, 0), BuildingBlock: KIFKEQ_clean_linker_1, # of connection points: 2
#     Edge 29, Type (0, 0), BuildingBlock: KIFKEQ_clean_linker_1, # of connection points: 2
#     Edge 30, Type (0, 0), BuildingBlock: KIFKEQ_clean_linker_1, # of connection points: 2
#     Edge 31, Type (0, 0), BuildingBlock: KIFKEQ_clean_linker_1, # of connection points: 2
#     Edge 32, Type (0, 0), BuildingBlock: KIFKEQ_clean_linker_1, # of connection points: 2
#     Edge 33, Type (0, 0), BuildingBlock: KIFKEQ_clean_linker_1, # of connection points: 2
#     Edge 34, Type (0, 0), BuildingBlock: KIFKEQ_clean_linker_1, # of connection points: 2
#     Edge 35, Type (0, 0), BuildingBlock: KIFKEQ_clean_linker_1, # of connection points: 2
# Relax obj value: 0.494
# Max RMSD: 0.250
# Mean RMSD: 0.229
data_MOF--net-acs-a--node1-QUQFOY_clean_sbu_3--edge1-KIFKEQ_clean_linker_1
_symmetry_space_group_name_H-M    P1
_symmetry_Int_Tables_number       1
_symmetry_cell_setting            triclinic
loop_
_symmetry_equiv_pos_as_xyz
'x, y, z'
_cell_length_a     50.909374
_cell_length_b     50.733808
_cell_length_c     40.52854
_cell_angle_alpha  89.920202
_cell_angle_beta   90.174174
_cell_angle_gamma 114.01512
loop_
_atom_site_label
_atom_site_type_symbol
_atom_site_fract_x
_atom_site_fract_y
_atom_site_fract_z
_atom_type_partial_charge
C0 C 0.68405 0.16973 0.04872 0.0
O1 O 0.69309 0.17926 0.07744 0.0
Cd2 Cd 0.67087 0.16354 0.12998 0.0
O3 O 0.66051 0.14757 0.04464 0.0
Cd4 Cd 0.62421 0.1126 0.08236 0.0
C5 C 0.60545 0.1657 0.11208 0.0
O6 O 0.65562 0.11311 0.12794 0.0
O7 O 0.61062 0.08917 0.13627 0.0
O8 O 0.61563 0.0698 0.04805 0.0
C9 C 0.63591 0.09833 0.14768 0.0
O10 O 0.62849 0.17494 0.12923 0.0
C11 C 0.58846 0.06163 0.04911 0.0
O12 O 0.59988 0.14481 0.09198 0.0
O13 O 0.57889 0.07822 0.06321 0.0
C14 C 0.46387 0.67408 0.6288 0.0
O15 O 0.453 0.65835 0.6538 0.0
Cd16 Cd 0.44443 0.60876 0.66028 0.0
O17 O 0.47381 0.66463 0.60486 0.0
Cd18 Cd 0.47975 0.61884 0.59356 0.0
C19 C 0.40867 0.58316 0.58643 0.0
O20 O 0.48689 0.60293 0.6481 0.0
O21 O 0.468 0.56914 0.61251 0.0
O22 O 0.53089 0.6384 0.58036 0.0
C23 C 0.47796 0.57633 0.64139 0.0
O24 O 0.40901 0.58267 0.61788 0.0
C25 C 0.52737 0.62789 0.55146 0.0
O26 O 0.43126 0.59759 0.56994 0.0
O27 O 0.50161 0.61497 0.54133 0.0
C28 C 0.73696 0.42883 0.00517 0.0
O29 O 0.759 0.44798 0.01815 0.0
Cd30 Cd 0.78862 0.42137 0.00481 0.0
O31 O 0.74059 0.40869 0.99032 0.0
Cd32 Cd 0.79491 0.41761 -0.00452 0.0
C33 C 0.76674 0.35864 0.97426 0.0
O34 O 0.81214 0.42584 0.05464 0.0
O35 O 0.81479 0.38895 0.03177 0.0
O36 O 0.83375 0.44615 0.95773 0.0
C37 C 0.81995 0.40529 0.05676 0.0
O38 O 0.75789 0.36803 -0.00112 0.0
C39 C 0.8362 0.47071 0.968 0.0
O40 O 0.78815 0.37652 0.95877 0.0
O41 O 0.81819 0.47097 0.98937 0.0
C42 C 0.30434 0.82726 0.57147 0.0
O43 O 0.30089 0.82735 0.6025 0.0
Cd44 Cd 0.33712 0.8504 0.64307 0.0
O45 O 0.32825 0.84338 0.55823 0.0
Cd46 Cd 0.37484 0.88143 0.57777 0.0
C47 C 0.38829 0.82756 0.61364 0.0
O48 O 0.36049 0.89916 0.62725 0.0
O49 O 0.40557 0.90973 0.62256 0.0
O50 O 0.38072 0.91972 0.53765 0.0
C51 C 0.38546 0.91137 0.63955 0.0
O52 O 0.37054 0.82693 0.6361 0.0
C53 C 0.40505 0.92131 0.5279 0.0
O54 O 0.39288 0.84443 0.58895 0.0
O55 O 0.41346 0.9027 0.53923 0.0
C56 C 0.49244 0.28433 0.14037 0.0
O57 O 0.50207 0.29926 0.16626 0.0
Cd58 Cd 0.50828 0.34787 0.1747 0.0
O59 O 0.48179 0.29376 0.11693 0.0
Cd60 Cd 0.47265 0.33833 0.10817 0.0
C61 C 0.54427 0.37565 0.10204 0.0
O62 O 0.46403 0.35115 0.16354 0.0
O63 O 0.48059 0.38631 0.12907 0.0
O64 O 0.42212 0.31961 0.0915 0.0
C65 C 0.47033 0.37752 0.15745 0.0
O66 O 0.54471 0.37474 0.13348 0.0
C67 C 0.42737 0.33112 0.06306 0.0
O68 O 0.5209 0.36276 0.08615 0.0
O69 O 0.45361 0.34367 0.0548 0.0
C70 C 0.21149 0.54406 0.57517 0.0
O71 O 0.21169 0.55205 0.60485 0.0
Cd72 Cd 0.18318 0.57459 0.62626 0.0
O73 O 0.19278 0.54492 0.5546 0.0
Cd74 Cd 0.14822 0.55511 0.55894 0.0
C75 C 0.19193 0.62517 0.56459 0.0
O76 O 0.13596 0.54041 0.61542 0.0
O77 O 0.11569 0.56687 0.59625 0.0
O78 O 0.11842 0.50971 0.53204 0.0
C79 C 0.11827 0.5517 0.61989 0.0
O80 O 0.19751 0.61886 0.59346 0.0
C81 C 0.10782 0.52108 0.51083 0.0
O82 O 0.17451 0.606 0.54566 0.0
O83 O 0.11704 0.54841 0.51117 0.0
C84 C 0.83296 0.29912 0.37844 0.0
O85 O 0.82195 0.29261 0.34983 0.0
Cd86 Cd 0.82664 0.32617 0.30594 0.0
O87 O 0.85008 0.32497 0.38511 0.0
Cd88 Cd 0.87324 0.37134 0.35496 0.0
C89 C 0.80945 0.37674 0.34768 0.0
O90 O 0.87591 0.35624 0.29781 0.0
O91 O 0.88213 0.4004 0.30577 0.0
O92 O 0.92105 0.37893 0.37457 0.0
C93 C 0.88074 0.38085 0.28556 0.0
O94 O 0.80378 0.35732 0.32556 0.0
C95 C 0.92547 0.40239 0.38945 0.0
O96 O 0.83269 0.38491 0.36439 0.0
O97 O 0.9053 0.41105 0.3887 0.0
C98 C 0.38737 0.75907 0.91766 0.0
O99 O 0.36805 0.75789 0.89716 0.0
Cd100 Cd 0.36125 0.79851 0.87522 0.0
O101 O 0.40361 0.78296 0.93084 0.0
Cd102 Cd 0.3988 0.82987 0.92854 0.0
C103 C 0.32804 0.80542 0.94142 0.0
O104 O 0.40613 0.83917 0.86955 0.0
O105 O 0.38764 0.86472 0.89482 0.0
O106 O 0.44854 0.85575 0.94763 0.0
C107 C 0.39975 0.86081 0.86915 0.0
O108 O 0.32658 0.80642 0.91019 0.0
C109 C 0.44216 0.87115 0.96809 0.0
O110 O 0.35153 0.80862 0.95542 0.0
O111 O 0.41569 0.86566 0.97157 0.0
C112 C 0.66254 0.4604 0.35685 0.0
O113 O 0.64556 0.45006 0.33264 0.0
Cd114 Cd 0.59555 0.43969 0.33232 0.0
O115 O 0.65438 0.46977 0.38235 0.0
Cd116 Cd 0.60969 0.47604 0.39864 0.0
C117 C 0.57984 0.40402 0.40759 0.0
O118 O 0.59005 0.4823 0.34631 0.0
O119 O 0.55899 0.46406 0.38486 0.0
O120 O 0.63154 0.52752 0.41062 0.0
C121 C 0.56427 0.47416 0.35581 0.0
O122 O 0.57702 0.40346 0.37627 0.0
C123 C 0.62231 0.52496 0.44004 0.0
O124 O 0.59258 0.42787 0.4228 0.0
O125 O 0.60912 0.49944 0.45099 0.0
C126 C 0.13708 0.66545 0.95538 0.0
O127 O 0.11894 0.66568 0.93424 0.0
Cd128 Cd 0.10344 0.61428 0.92319 0.0
O129 O 0.13683 0.64107 0.96259 0.0
Cd130 Cd 0.09568 0.60141 0.92852 0.0
C131 C 0.13635 0.57508 0.93993 0.0
O132 O 0.09967 0.61441 0.86703 0.0
O133 O 0.08875 0.56997 0.87919 0.0
O134 O 0.05411 0.61453 0.93179 0.0
C135 C 0.09296 0.5889 0.85697 0.0
O136 O 0.14541 0.60049 0.92851 0.0
C137 C 0.03923 0.59307 0.94955 0.0
O138 O 0.10995 0.563 0.94722 0.0
O139 O 0.05108 0.57663 0.95895 0.0
C140 C 0.60501 0.23174 0.44339 0.0
O141 O 0.62445 0.23987 0.4215 0.0
Cd142 Cd 0.64598 0.21211 0.39499 0.0
O143 O 0.59461 0.20589 0.45425 0.0
Cd144 Cd 0.60532 0.1624 0.44355 0.0
C145 C 0.67466 0.19533 0.46509 0.0
O146 O 0.60911 0.16637 0.38324 0.0
O147 O 0.62293 0.13575 0.40603 0.0
O148 O 0.5537 0.13291 0.4508 0.0
C149 C 0.61789 0.14647 0.37986 0.0
O150 O 0.67711 0.20748 0.43712 0.0
C151 C 0.55758 0.11278 0.46573 0.0
O152 O 0.65025 0.17842 0.47633 0.0
O153 O 0.5833 0.11685 0.47247 0.0
C154 C 0.28088 0.49828 0.88561 0.0
O155 O 0.28784 0.5049 0.85569 0.0
Cd156 Cd 0.33601 0.51731 0.83566 0.0
O157 O 0.29802 0.49348 0.90523 0.0
Cd158 Cd 0.34529 0.4904 0.90314 0.0
C159 C 0.37144 0.56259 0.90034 0.0
O160 O 0.35286 0.48084 0.84572 0.0
O161 O 0.39086 0.5029 0.87541 0.0
O162 O 0.32831 0.44015 0.91942 0.0
C163 C 0.38012 0.49135 0.84804 0.0
O164 O 0.3649 0.55884 0.86979 0.0
C165 C 0.34317 0.44499 0.9457 0.0
O166 O 0.36496 0.54122 0.92003 0.0
O167 O 0.35809 0.47126 0.95315 0.0
H168 H 0.62862 0.17767 0.32298 0.0
H169 H 0.62262 0.09657 0.36343 0.0
H170 H 0.63918 0.16345 0.2687 0.0
H171 H 0.63258 0.08214 0.3088 0.0
H172 H 0.60093 0.06304 0.19434 0.0
H173 H 0.60124 0.07336 0.25324 0.0
H174 H 0.67983 0.14959 0.24099 0.0
H175 H 0.68005 0.13891 0.18219 0.0
C176 C 0.62962 0.15685 0.32024 0.0
C177 C 0.62467 0.13813 0.34726 0.0
C178 C 0.63594 0.14887 0.28934 0.0
C179 C 0.6369 0.12184 0.28483 0.0
C180 C 0.63209 0.10315 0.31184 0.0
C181 C 0.62636 0.11139 0.34294 0.0
C182 C 0.61876 0.08147 0.20444 0.0
C183 C 0.64023 0.10039 0.18369 0.0
C184 C 0.61895 0.08733 0.23808 0.0
C185 C 0.64035 0.11245 0.25132 0.0
C186 C 0.663 0.13021 0.23112 0.0
C187 C 0.66315 0.12402 0.19757 0.0
H188 H 0.50738 0.57458 0.69682 0.0
H189 H 0.42584 0.53169 0.64735 0.0
H190 H 0.48748 0.54659 0.74658 0.0
H191 H 0.40498 0.50568 0.69746 0.0
H192 H 0.36861 0.46079 0.79035 0.0
H193 H 0.39648 0.47372 0.73946 0.0
H194 H 0.45909 0.54935 0.78792 0.0
H195 H 0.43251 0.53497 0.83878 0.0
C196 C 0.48531 0.55879 0.69658 0.0
C197 C 0.46814 0.55526 0.66847 0.0
C198 C 0.47366 0.543 0.72519 0.0
C199 C 0.44424 0.5243 0.72671 0.0
C200 C 0.42772 0.51948 0.69758 0.0
C201 C 0.43967 0.53454 0.6687 0.0
C202 C 0.3887 0.4798 0.79006 0.0
C203 C 0.39831 0.49697 0.81837 0.0
C204 C 0.40462 0.48743 0.76083 0.0
C205 C 0.43004 0.51293 0.75903 0.0
C206 C 0.44009 0.5293 0.78802 0.0
C207 C 0.42463 0.5212 0.81736 0.0
H208 H 0.81261 0.35436 0.08648 0.0
H209 H 0.85907 0.44661 0.09426 0.0
H210 H 0.83138 0.34833 0.14029 0.0
H211 H 0.87977 0.44083 0.1464 0.0
H212 H 0.87547 0.42649 0.25626 0.0
H213 H 0.86411 0.43147 0.19953 0.0
H214 H 0.86826 0.35004 0.17615 0.0
H215 H 0.878 0.34427 0.2343 0.0
C216 C 0.82742 0.37325 0.09944 0.0
C217 C 0.83404 0.40095 0.08675 0.0
C218 C 0.83838 0.36986 0.13016 0.0
C219 C 0.85673 0.39414 0.14825 0.0
C220 C 0.86489 0.42166 0.13399 0.0
C221 C 0.85324 0.42504 0.10395 0.0
C222 C 0.8743 0.40972 0.23905 0.0
C223 C 0.87758 0.38493 0.24985 0.0
C224 C 0.86799 0.41269 0.20619 0.0
C225 C 0.86539 0.39127 0.18284 0.0
C226 C 0.86968 0.36683 0.19342 0.0
C227 C 0.87553 0.36361 0.22667 0.0
H228 H 0.37285 0.89643 0.85447 0.0
H229 H 0.43073 0.86172 0.81451 0.0
H230 H 0.37205 0.91882 0.80107 0.0
H231 H 0.42996 0.88396 0.76156 0.0
H232 H 0.34426 0.90024 0.68708 0.0
H233 H 0.35104 0.89645 0.74619 0.0
H234 H 0.443 0.93082 0.73215 0.0
H235 H 0.43628 0.93439 0.67301 0.0
C236 C 0.38575 0.894 0.83447 0.0
C237 C 0.40163 0.8771 0.83846 0.0
C238 C 0.38525 0.90676 0.80398 0.0
C239 C 0.40099 0.9032 0.77723 0.0
C240 C 0.41795 0.88747 0.78184 0.0
C241 C 0.41817 0.87448 0.81208 0.0
C242 C 0.36597 0.90786 0.69672 0.0
C243 C 0.3897 0.91692 0.67535 0.0
C244 C 0.36986 0.90578 0.73062 0.0
C245 C 0.39752 0.91277 0.7436 0.0
C246 C 0.4214 0.92476 0.72265 0.0
C247 C 0.41753 0.92687 0.68882 0.0
H248 H 0.5613 0.50583 0.30296 0.0
H249 H 0.51632 0.42442 0.35215 0.0
H250 H 0.52971 0.4883 0.25521 0.0
H251 H 0.48655 0.40573 0.30388 0.0
H252 H 0.43944 0.3697 0.21409 0.0
H253 H 0.45358 0.39933 0.26374 0.0
H254 H 0.52878 0.45937 0.21257 0.0
H255 H 0.5131 0.4311 0.16283 0.0
C256 C 0.54425 0.48432 0.30365 0.0
C257 C 0.54128 0.46637 0.33095 0.0
C258 C 0.52635 0.47405 0.27615 0.0
C259 C 0.50599 0.44516 0.27489 0.0
C260 C 0.50163 0.42812 0.30356 0.0
C261 C 0.51887 0.43877 0.33143 0.0
C262 C 0.45847 0.38978 0.21343 0.0
C263 C 0.47536 0.398 0.18488 0.0
C264 C 0.46683 0.40666 0.24196 0.0
C265 C 0.49287 0.43152 0.24284 0.0
C266 C 0.50848 0.4407 0.21325 0.0
C267 C 0.4996 0.42431 0.18453 0.0
H268 H 0.12301 0.52278 0.67441 0.0
H269 H 0.08973 0.58419 0.64109 0.0
H270 H 0.11217 0.53011 0.73103 0.0
H271 H 0.07816 0.59108 0.69808 0.0
H272 H 0.10611 0.62597 0.80467 0.0
H273 H 0.10661 0.61428 0.74643 0.0
H274 H 0.07527 0.52371 0.77101 0.0
H275 H 0.07556 0.5355 0.82932 0.0
C276 C 0.11285 0.53746 0.67914 0.0
C277 C 0.10751 0.55315 0.65334 0.0
C278 C 0.10645 0.54153 0.71164 0.0
C279 C 0.09446 0.56132 0.71912 0.0
C280 C 0.08779 0.57599 0.69313 0.0
C281 C 0.09421 0.5719 0.6605 0.0
C282 C 0.09912 0.60355 0.79758 0.0
C283 C 0.09113 0.58168 0.82155 0.0
C284 C 0.09916 0.59682 0.76418 0.0
C285 C 0.09109 0.56806 0.75408 0.0
C286 C 0.08203 0.54611 0.77803 0.0
C287 C 0.08213 0.55286 0.81142 0.0
H288 H 0.53621 0.03006 0.07427 0.0
H289 H 0.59593 0.02797 1e-05 0.0
H290 H 0.50271 0.98218 0.05853 0.0
H291 H 0.56123 0.9803 0.98222 0.0
H292 H 0.5002 0.88549 0.97265 0.0
H293 H 0.53697 0.93054 -0.00606 0.0
H294 H 0.4706 0.96023 0.0171 0.0
H295 H 0.43432 0.91501 -0.002 0.0
C296 C 0.54191 0.01946 0.05405 0.0
C297 C 0.56841 0.03285 0.03795 0.0
C298 C 0.52262 -0.00802 0.04489 0.0
C299 C 0.5289 0.97742 0.01864 0.0
C300 C 0.55572 -0.00929 0.00274 0.0
C301 C 0.57548 0.0181 0.01261 0.0
C302 C 0.4936 0.90152 0.98297 0.0
C303 C 0.4644 0.89664 0.98396 0.0
C304 C 0.51465 0.92747 -0.00522 0.0
C305 C 0.50687 0.94915 0.00731 0.0
C306 C 0.47754 0.9439 0.00849 0.0
C307 C 0.45661 0.9179 -0.00264 0.0
H308 H 0.57972 0.63433 0.5754 0.0
H309 H 0.52898 0.61626 0.48601 0.0
H310 H 0.61358 0.61814 0.54879 0.0
H311 H 0.56313 0.60067 0.45932 0.0
H312 H 0.63032 0.57767 0.41533 0.0
H313 H 0.6163 0.61325 0.44175 0.0
H314 H 0.59909 0.56416 0.53221 0.0
H315 H 0.61253 0.52831 0.50574 0.0
C316 C 0.57638 0.62796 0.5497 0.0
C317 C 0.55151 0.62617 0.53286 0.0
C318 C 0.59572 0.61862 0.53456 0.0
C319 C 0.59082 0.60799 0.50215 0.0
C320 C 0.56753 0.60897 0.48428 0.0
C321 C 0.54791 0.61777 0.49959 0.0
C322 C 0.6245 0.57498 0.44119 0.0
C323 C 0.62211 0.55 0.45839 0.0
C324 C 0.6164 0.59531 0.45621 0.0
C325 C 0.60642 0.59129 0.48886 0.0
C326 C 0.60689 0.56788 0.50705 0.0
C327 C 0.61446 0.54728 0.49187 0.0
H328 H 0.00254 0.60515 0.90975 0.0
H329 H 0.00636 0.56185 0.00033 0.0
H330 H 0.94987 0.58232 0.91154 0.0
H331 H 0.95378 0.54003 0.00266 0.0
H332 H 0.85777 0.52039 0.00354 0.0
H333 H 0.90629 0.55842 -0.00048 0.0
H334 H 0.92109 0.51884 0.91149 0.0
H335 H 0.87289 0.48009 0.91598 0.0
C336 C -0.00788 0.59165 0.93065 0.0
C337 C 0.00838 0.58507 0.95486 0.0
C338 C 0.96211 0.57861 0.93156 0.0
C339 C 0.94809 0.55963 0.95723 0.0
C340 C 0.9643 0.55488 0.98281 0.0
C341 C -0.00573 0.56725 0.98144 0.0
C342 C 0.871 0.52027 0.9827 0.0
C343 C 0.86173 0.49714 0.96021 0.0
C344 C 0.8987 0.54201 0.98052 0.0
C345 C 0.91713 0.54134 0.95527 0.0
C346 C 0.90699 0.51978 0.93101 0.0
C347 C 0.87953 0.49764 0.93362 0.0
H348 H 0.55879 0.06118 0.45411 0.0
H349 H 0.50296 0.10078 0.48717 0.0
H350 H 0.51999 0.01377 0.45976 0.0
H351 H 0.46443 0.05305 0.49612 0.0
H352 H 0.39406 0.96437 0.49778 0.0
H353 H 0.42967 0.01014 0.47697 0.0
H354 H 0.49707 0.98143 0.49916 0.0
H355 H 0.46166 0.93564 0.51721 0.0
C356 C 0.53822 0.05956 0.46333 0.0
C357 C 0.5339 0.08442 0.47089 0.0
C358 C 0.51591 0.03234 0.46672 0.0
C359 C 0.48898 0.02922 0.47907 0.0
C360 C 0.48462 0.05437 0.48615 0.0
C361 C 0.50677 0.08176 0.48154 0.0
C362 C 0.41646 0.96769 0.49718 0.0
C363 C 0.42505 0.94645 0.50923 0.0
C364 C 0.43697 -0.00591 0.48572 0.0
C365 C 0.46651 -6e-05 0.48672 0.0
C366 C 0.47469 0.97792 0.49728 0.0
C367 C 0.45424 0.95146 0.50792 0.0
H368 H 0.36112 0.44599 0.00938 0.0
H369 H 0.33144 0.39053 0.92415 0.0
H370 H 0.37252 0.40911 0.03719 0.0
H371 H 0.34367 0.35404 0.95173 0.0
H372 H 0.42792 0.3419 -0.00288 0.0
H373 H 0.39836 0.36264 0.96871 0.0
H374 H 0.34811 0.35292 0.05699 0.0
H375 H 0.37708 0.33136 0.08523 0.0
C376 C 0.3565 0.42571 -0.00311 0.0
C377 C 0.34555 0.42117 0.9646 0.0
C378 C 0.36285 0.40457 0.01284 0.0
C379 C 0.3589 0.37881 -0.0035 0.0
C380 C 0.34676 0.3737 0.96479 0.0
C381 C 0.33977 0.39457 0.94912 0.0
C382 C 0.40983 0.3431 0.01002 0.0
C383 C 0.4049 0.33521 0.04339 0.0
C384 C 0.39293 0.35494 -0.00622 0.0
C385 C 0.37123 0.35957 0.01087 0.0
C386 C 0.3648 0.34958 0.0434 0.0
C387 C 0.38127 0.3371 0.05942 0.0
H388 H 0.94103 0.45372 0.42158 0.0
H389 H 0.97229 0.38919 0.3949 0.0
H390 H -0.0132 0.48206 0.44827 0.0
H391 H 0.01834 0.41785 0.42123 0.0
H392 H 0.0814 0.46226 0.50775 0.0
H393 H 0.03806 0.43319 0.47687 0.0
H394 H 0.03708 0.51062 0.4335 0.0
H395 H 0.0801 0.53973 0.46476 0.0
C396 C 0.9577 0.44561 0.42136 0.0
C397 C 0.95305 0.41922 0.40616 0.0
C398 C 0.98401 0.46197 0.43641 0.0
C399 C 0.00625 0.45229 0.43662 0.0
C400 C 0.00154 0.42578 0.42163 0.0
C401 C 0.97521 0.40942 0.40649 0.0
C402 C 0.07215 0.47304 0.49128 0.0
C403 C 0.08403 0.50329 0.48887 0.0
C404 C 0.04737 0.45638 0.47353 0.0
C405 C 0.03399 0.46965 0.45306 0.0
C406 C 0.04661 0.49982 0.44957 0.0
C407 C 0.07138 0.51647 0.46728 0.0
H408 H 0.55621 0.15534 0.0764 0.0
H409 H 0.60783 0.2069 0.15661 0.0
H410 H 0.52245 0.17814 0.08323 0.0
H411 H 0.57446 0.22968 0.16307 0.0
H412 H 0.50206 0.25151 0.18807 0.0
H413 H 0.52517 0.21829 0.18107 0.0
H414 H 0.52188 0.22667 0.07525 0.0
H415 H 0.49821 0.25964 0.08225 0.0
C416 C 0.56035 0.17146 0.0955 0.0
C417 C 0.58477 0.17929 0.11596 0.0
C418 C 0.54103 0.18453 0.09933 0.0
C419 C 0.5456 0.20548 0.12389 0.0
C420 C 0.56996 0.21318 0.14435 0.0
C421 C 0.58928 0.20029 0.14042 0.0
C422 C 0.50554 0.24566 0.16327 0.0
C423 C 0.49868 0.25852 0.13572 0.0
C424 C 0.51899 0.22681 0.15927 0.0
C425 C 0.52605 0.22047 0.12764 0.0
C426 C 0.51679 0.23118 0.09995 0.0
C427 C 0.50314 0.25002 0.10396 0.0
H428 H 0.38382 0.60599 0.54186 0.0
H429 H 0.37076 0.52779 0.59452 0.0
H430 H 0.33282 0.58661 0.52788 0.0
H431 H 0.32014 0.50726 0.57861 0.0
H432 H 0.23781 0.51759 0.61181 0.0
H433 H 0.28508 0.51883 0.6029 0.0
H434 H 0.28739 0.55551 0.50592 0.0
H435 H 0.23966 0.55495 0.5157 0.0
C436 C 0.37018 0.58409 0.54907 0.0
C437 C 0.38084 0.56851 0.56972 0.0
C438 C 0.34093 0.57282 0.54092 0.0
C439 C 0.32206 0.54558 0.55289 0.0
C440 C 0.33379 0.52867 0.56992 0.0
C441 C 0.36279 0.54027 0.57887 0.0
C442 C 0.24802 0.52509 0.58816 0.0
C443 C 0.23536 0.53666 0.56471 0.0
C444 C 0.27519 0.52561 0.58282 0.0
C445 C 0.29049 0.53774 0.55381 0.0
C446 C 0.27648 0.54654 0.5288 0.0
C447 C 0.24903 0.54593 0.5342 0.0
H448 H 0.79384 0.32569 0.95111 0.0
H449 H 0.7111 0.32172 0.98132 0.0
H450 H 0.77491 0.27284 0.95303 0.0
H451 H 0.69212 0.26935 0.98267 0.0
H452 H 0.66003 0.17817 -0.00843 0.0
H453 H 0.68097 0.22071 0.95617 0.0
H454 H 0.76196 0.24567 0.00755 0.0
H455 H 0.74106 0.20349 0.04288 0.0
C456 C 0.77134 0.31347 0.95683 0.0
C457 C 0.75396 0.32761 0.96656 0.0
C458 C 0.76054 0.28329 0.95795 0.0
C459 C 0.73209 0.26698 0.96813 0.0
C460 C 0.71402 0.28122 0.97438 0.0
C461 C 0.72494 0.31125 0.97393 0.0
C462 C 0.68267 0.19201 -0.00579 0.0
C463 C 0.6988 0.18797 0.02039 0.0
C464 C 0.69461 0.21641 0.97402 0.0
C465 C 0.72291 0.23676 0.97952 0.0
C466 C 0.74012 0.2304 0.00263 0.0
C467 C 0.7281 0.20631 0.02306 0.0
H468 H 0.37948 0.78495 0.65891 0.0
H469 H 0.4312 0.82583 0.57395 0.0
H470 H 0.40275 0.75177 0.66223 0.0
H471 H 0.45526 0.79297 0.57791 0.0
H472 H 0.46039 0.70784 0.67916 0.0
H473 H 0.44667 0.74843 0.67573 0.0
H474 H 0.44589 0.743 0.56928 0.0
H475 H 0.46076 0.70299 0.57282 0.0
C476 C 0.39608 0.7871 0.64113 0.0
C477 C 0.4034 0.80806 0.61613 0.0
C478 C 0.40965 0.76817 0.6432 0.0
C479 C 0.43112 0.76979 0.6205 0.0
C480 C 0.43868 0.79095 0.59563 0.0
C481 C 0.42494 0.80985 0.59345 0.0
C482 C 0.4579 0.71573 0.65501 0.0
C483 C 0.46137 0.70206 0.62627 0.0
C484 C 0.44977 0.73884 0.65303 0.0
C485 C 0.44446 0.74857 0.62225 0.0
C486 C 0.44985 0.73615 0.59341 0.0
C487 C 0.45838 0.7132 0.59541 0.0
H488 H 0.59774 0.40671 0.12762 0.0
H489 H 0.55275 0.37722 0.03518 0.0
H490 H 0.64335 0.42508 0.09855 0.0
H491 H 0.59858 0.39612 0.00598 0.0
H492 H 0.72257 0.46708 0.04003 0.0
H493 H 0.67472 0.45996 0.05902 0.0
H494 H 0.63803 0.38043 0.00366 0.0
H495 H 0.68568 0.38779 0.98422 0.0
C496 C 0.59752 0.40458 0.10102 0.0
C497 C 0.57159 0.39014 0.08381 0.0
C498 C 0.6237 0.41536 0.08428 0.0
C499 C 0.6246 0.41196 0.04994 0.0
C500 C 0.59859 0.39878 0.03249 0.0
C501 C 0.57234 0.38804 0.04924 0.0
C502 C 0.7042 0.44844 0.03127 0.0
C503 C 0.70792 0.42778 0.011 0.0
C504 C 0.67682 0.44429 0.04231 0.0
C505 C 0.65265 0.41941 0.03327 0.0
C506 C 0.65616 0.39991 0.01095 0.0
C507 C 0.68353 0.40406 -8e-05 0.0
H508 H 0.2478 0.66049 0.57328 0.0
H509 H 0.16878 0.65729 0.53059 0.0
H510 H 0.27163 0.71165 0.55969 0.0
H511 H 0.19254 0.70927 0.51809 0.0
H512 H 0.24654 0.80138 0.58186 0.0
H513 H 0.2158 0.75169 0.56687 0.0
H514 H 0.28349 0.74794 0.50593 0.0
H515 H 0.31407 0.79789 0.52018 0.0
C516 C 0.23568 0.67075 0.56059 0.0
C517 C 0.20652 0.65516 0.55309 0.0
C518 C 0.24935 0.69989 0.55252 0.0
C519 C 0.23393 0.71421 0.53755 0.0
C520 C 0.20488 0.69852 0.52926 0.0
C521 C 0.19137 0.66897 0.53646 0.0
C522 C 0.25429 0.79046 0.56388 0.0
C523 C 0.28282 0.80329 0.55259 0.0
C524 C 0.23667 0.76205 0.55526 0.0
C525 C 0.24753 0.74602 0.53567 0.0
C526 C 0.27473 0.75997 0.52112 0.0
C527 C 0.29216 0.78859 0.5292 0.0
H528 H 0.75849 0.36427 0.31609 0.0
H529 H 0.81498 0.42172 0.38921 0.0
H530 H 0.72716 0.38952 0.31962 0.0
H531 H 0.7833 0.44734 0.3925 0.0
H532 H 0.69204 0.45465 0.30356 0.0
H533 H 0.73019 0.43745 0.3032 0.0
H534 H 0.73286 0.43972 0.40969 0.0
H535 H 0.69475 0.45749 0.41009 0.0
C536 C 0.76426 0.38227 0.33301 0.0
C537 C 0.78943 0.39104 0.3522 0.0
C538 C 0.74636 0.39694 0.33482 0.0
C539 C 0.75305 0.4208 0.35586 0.0
C540 C 0.77767 0.42909 0.37596 0.0
C541 C 0.79577 0.41441 0.37406 0.0
C542 C 0.70119 0.45213 0.32691 0.0
C543 C 0.69011 0.45706 0.35686 0.0
C544 C 0.72291 0.44207 0.32671 0.0
C545 C 0.73398 0.4365 0.35644 0.0
C546 C 0.72467 0.44372 0.38639 0.0
C547 C 0.7029 0.45397 0.3866 0.0
H548 H 0.31001 0.76084 0.98413 0.0
H549 H 0.28505 0.82422 0.93921 0.0
H550 H 0.26065 0.73221 -0.00071 0.0
H551 H 0.23568 0.79727 0.95736 0.0
H552 H 0.15515 0.71809 0.92663 0.0
H553 H 0.20028 0.75852 0.93566 0.0
H554 H 0.21624 0.71555 0.02101 0.0
H555 H 0.17167 0.67371 0.00971 0.0
C556 C 0.29402 0.76934 0.97907 0.0
C557 C 0.30102 0.79432 0.96004 0.0
C558 C 0.26549 0.75295 0.98791 0.0
C559 C 0.24351 0.76168 0.97858 0.0
C560 C 0.25156 0.78897 0.9636 0.0
C561 C 0.27993 0.80474 0.9536 0.0
C562 C 0.16801 0.71751 0.94775 0.0
C563 C 0.1603 0.69247 0.96692 0.0
C564 C 0.19406 0.74102 0.95326 0.0
C565 C 0.21278 0.74037 0.97867 0.0
C566 C 0.20318 0.71654 0.00034 0.0
C567 C 0.17744 0.69261 -0.00586 0.0
H568 H 0.54933 0.22604 0.44685 0.0
H569 H 0.6371 0.28568 0.46412 0.0
H570 H 0.534 0.26605 0.45022 0.0
H571 H 0.6221 0.3253 0.46785 0.0
H572 H 0.59572 0.39553 0.47004 0.0
H573 H 0.59394 0.35019 0.49255 0.0
H574 H 0.54531 0.30474 0.40752 0.0
H575 H 0.54678 0.34978 0.38521 0.0
C576 C 0.56508 0.24749 0.45277 0.0
C577 C 0.59436 0.25301 0.45502 0.0
C578 C 0.55638 0.27036 0.45452 0.0
C579 C 0.57686 0.29887 0.45906 0.0
C580 C 0.6057 0.30365 0.46468 0.0
C581 C 0.61438 0.28099 0.46236 0.0
C582 C 0.5838 0.37573 0.45669 0.0
C583 C 0.57206 0.37636 0.4254 0.0
C584 C 0.58282 0.34977 0.4696 0.0
C585 C 0.56994 0.32398 0.45154 0.0
C586 C 0.55534 0.32417 0.42212 0.0
C587 C 0.55644 0.35011 0.40915 0.0
H588 H 0.12073 0.51733 0.93197 0.0
H589 H 0.19443 0.59759 0.94817 0.0
H590 H 0.15285 0.49274 0.92307 0.0
H591 H 0.22635 0.57277 0.94045 0.0
H592 H 0.27187 0.51095 0.94873 0.0
H593 H 0.23436 0.52565 0.96801 0.0
H594 H 0.19425 0.50702 0.87199 0.0
H595 H 0.23224 0.49313 0.85219 0.0
C596 C 0.14371 0.52949 0.93461 0.0
C597 C 0.15516 0.55935 0.94072 0.0
C598 C 0.16201 0.51546 0.92937 0.0
C599 C 0.19194 0.53093 0.93116 0.0
C600 C 0.20329 0.56038 0.93922 0.0
C601 C 0.18508 0.57456 0.94357 0.0
C602 C 0.25465 0.50924 0.93194 0.0
C603 C 0.25504 0.50098 0.89887 0.0
C604 C 0.23331 0.51778 0.94299 0.0
C605 C 0.21158 0.51744 0.92144 0.0
C606 C 0.21074 0.50724 0.88909 0.0
C607 C 0.23247 0.49937 0.87778 0.0
H608 H 0.70346 0.16078 0.46824 0.0
H609 H 0.70728 0.24369 0.49797 0.0
H610 H 0.75564 0.1813 0.46263 0.0
H611 H 0.75891 0.26455 0.49161 0.0
H612 H 0.83896 0.30801 0.4454 0.0
H613 H 0.80891 0.27543 0.48765 0.0
H614 H 0.77201 0.20905 0.41369 0.0
H615 H 0.80224 0.24112 0.37215 0.0
C616 C 0.71566 0.18293 0.47584 0.0
C617 C 0.70151 0.2009 0.48278 0.0
C618 C 0.74557 0.19486 0.47213 0.0
C619 C 0.76133 0.22491 0.47483 0.0
C620 C 0.74762 0.24143 0.48866 0.0
C621 C 0.71781 0.22943 0.49255 0.0
C622 C 0.8252 0.28607 0.43848 0.0
C623 C 0.82216 0.27745 0.4052 0.0
C624 C 0.80795 0.26739 0.46274 0.0
C625 C 0.78734 0.23985 0.45407 0.0
C626 C 0.78745 0.23004 0.42158 0.0
C627 C 0.80461 0.24865 0.39744 0.0
H628 H 0.36029 0.58167 0.95934 0.0
H629 H 0.40861 0.6107 0.86927 0.0
H630 H 0.36985 0.63176 0.97331 0.0
H631 H 0.41871 0.66064 0.88362 0.0
H632 H 0.43677 0.75025 0.92386 0.0
H633 H 0.44007 0.70331 0.92877 0.0
H634 H 0.34759 0.66089 0.93567 0.0
H635 H 0.34429 0.70728 0.92968 0.0
C636 C 0.37391 0.59882 0.94324 0.0
C637 C 0.38347 0.5924 0.91307 0.0
C638 C 0.37931 0.6274 0.95119 0.0
C639 C 0.39491 0.64994 0.92946 0.0
C640 C 0.40684 0.64369 0.90092 0.0
C641 C 0.40092 0.61513 0.89262 0.0
C642 C 0.4173 0.73089 0.92717 0.0
C643 C 0.39027 0.73216 0.92613 0.0
C644 C 0.41918 0.70416 0.92997 0.0
C645 C 0.39409 0.67861 0.93282 0.0
C646 C 0.36727 0.68029 0.93399 0.0
C647 C 0.36536 0.70676 0.93028 0.0
loop_
_geom_bond_atom_site_label_1
_geom_bond_atom_site_label_2
_geom_bond_distance
_geom_bond_site_symmetry_2
_ccdc_geom_bond_type
C0 O1 1.306 . S
C0 O3 1.160 . S
O1 C0 1.306 . S
O1 Cd2 2.228 . S
Cd2 O1 2.228 . S
Cd2 O6 2.273 . S
Cd2 O10 2.277 . S
O3 C0 1.160 . S
O3 Cd4 2.203 . S
Cd4 O3 2.203 . S
Cd4 O6 2.411 . S
Cd4 O7 2.333 . S
Cd4 O8 2.352 . S
Cd4 O12 2.277 . S
Cd4 O13 2.356 . S
C5 O10 1.209 . S
C5 O12 1.226 . S
O6 Cd2 2.273 . S
O6 Cd4 2.411 . S
O6 C9 1.320 . S
O7 Cd4 2.333 . S
O7 C9 1.214 . S
O8 Cd4 2.352 . S
O8 C11 1.258 . S
C9 O6 1.320 . S
C9 O7 1.214 . S
O10 Cd2 2.277 . S
O10 C5 1.209 . S
C11 O8 1.258 . S
C11 O13 1.282 . S
O12 Cd4 2.277 . S
O12 C5 1.226 . S
O13 Cd4 2.356 . S
O13 C11 1.282 . S
C14 O15 1.306 . S
C14 O17 1.160 . S
O15 C14 1.306 . S
O15 Cd16 2.228 . S
Cd16 O15 2.228 . S
Cd16 O20 2.273 . S
Cd16 O24 2.277 . S
O17 C14 1.160 . S
O17 Cd18 2.203 . S
Cd18 O17 2.203 . S
Cd18 O20 2.411 . S
Cd18 O21 2.333 . S
Cd18 O22 2.352 . S
Cd18 O26 2.277 . S
Cd18 O27 2.356 . S
C19 O24 1.209 . S
C19 O26 1.226 . S
O20 Cd16 2.273 . S
O20 Cd18 2.411 . S
O20 C23 1.320 . S
O21 Cd18 2.333 . S
O21 C23 1.214 . S
O22 Cd18 2.352 . S
O22 C25 1.258 . S
C23 O20 1.320 . S
C23 O21 1.214 . S
O24 Cd16 2.277 . S
O24 C19 1.209 . S
C25 O22 1.258 . S
C25 O27 1.282 . S
O26 Cd18 2.277 . S
O26 C19 1.226 . S
O27 Cd18 2.356 . S
O27 C25 1.282 . S
C28 O29 1.306 . S
C28 O31 1.160 . S
O29 C28 1.306 . S
O29 Cd30 2.228 . S
Cd30 O29 2.228 . S
Cd30 O34 2.273 . S
Cd30 O38 2.277 . S
O31 C28 1.160 . S
O31 Cd32 2.203 . S
Cd32 O31 2.203 . S
Cd32 O34 2.411 . S
Cd32 O35 2.333 . S
Cd32 O36 2.352 . S
Cd32 O40 2.277 . S
Cd32 O41 2.356 . S
C33 O38 1.209 . S
C33 O40 1.226 . S
O34 Cd30 2.273 . S
O34 Cd32 2.411 . S
O34 C37 1.320 . S
O35 Cd32 2.333 . S
O35 C37 1.214 . S
O36 Cd32 2.352 . S
O36 C39 1.258 . S
C37 O34 1.320 . S
C37 O35 1.214 . S
O38 Cd30 2.277 . S
O38 C33 1.209 . S
C39 O36 1.258 . S
C39 O41 1.282 . S
O40 Cd32 2.277 . S
O40 C33 1.226 . S
O41 Cd32 2.356 . S
O41 C39 1.282 . S
C42 O43 1.306 . S
C42 O45 1.160 . S
O43 C42 1.306 . S
O43 Cd44 2.228 . S
Cd44 O43 2.228 . S
Cd44 O48 2.273 . S
Cd44 O52 2.277 . S
O45 C42 1.160 . S
O45 Cd46 2.203 . S
Cd46 O45 2.203 . S
Cd46 O48 2.411 . S
Cd46 O49 2.333 . S
Cd46 O50 2.352 . S
Cd46 O54 2.277 . S
Cd46 O55 2.356 . S
C47 O52 1.209 . S
C47 O54 1.226 . S
O48 Cd44 2.273 . S
O48 Cd46 2.411 . S
O48 C51 1.320 . S
O49 Cd46 2.333 . S
O49 C51 1.214 . S
O50 Cd46 2.352 . S
O50 C53 1.258 . S
C51 O48 1.320 . S
C51 O49 1.214 . S
O52 Cd44 2.277 . S
O52 C47 1.209 . S
C53 O50 1.258 . S
C53 O55 1.282 . S
O54 Cd46 2.277 . S
O54 C47 1.226 . S
O55 Cd46 2.356 . S
O55 C53 1.282 . S
C56 O57 1.306 . S
C56 O59 1.160 . S
O57 C56 1.306 . S
O57 Cd58 2.228 . S
Cd58 O57 2.228 . S
Cd58 O62 2.273 . S
Cd58 O66 2.277 . S
O59 C56 1.160 . S
O59 Cd60 2.203 . S
Cd60 O59 2.203 . S
Cd60 O62 2.411 . S
Cd60 O63 2.333 . S
Cd60 O64 2.352 . S
Cd60 O68 2.277 . S
Cd60 O69 2.356 . S
C61 O66 1.209 . S
C61 O68 1.226 . S
O62 Cd58 2.273 . S
O62 Cd60 2.411 . S
O62 C65 1.320 . S
O63 Cd60 2.333 . S
O63 C65 1.214 . S
O64 Cd60 2.352 . S
O64 C67 1.258 . S
C65 O62 1.320 . S
C65 O63 1.214 . S
O66 Cd58 2.277 . S
O66 C61 1.209 . S
C67 O64 1.258 . S
C67 O69 1.282 . S
O68 Cd60 2.277 . S
O68 C61 1.226 . S
O69 Cd60 2.356 . S
O69 C67 1.282 . S
C70 O71 1.306 . S
C70 O73 1.160 . S
O71 C70 1.306 . S
O71 Cd72 2.228 . S
Cd72 O71 2.228 . S
Cd72 O76 2.273 . S
Cd72 O80 2.277 . S
O73 C70 1.160 . S
O73 Cd74 2.203 . S
Cd74 O73 2.203 . S
Cd74 O76 2.411 . S
Cd74 O77 2.333 . S
Cd74 O78 2.352 . S
Cd74 O82 2.277 . S
Cd74 O83 2.356 . S
C75 O80 1.209 . S
C75 O82 1.226 . S
O76 Cd72 2.273 . S
O76 Cd74 2.411 . S
O76 C79 1.320 . S
O77 Cd74 2.333 . S
O77 C79 1.214 . S
O78 Cd74 2.352 . S
O78 C81 1.258 . S
C79 O76 1.320 . S
C79 O77 1.214 . S
O80 Cd72 2.277 . S
O80 C75 1.209 . S
C81 O78 1.258 . S
C81 O83 1.282 . S
O82 Cd74 2.277 . S
O82 C75 1.226 . S
O83 Cd74 2.356 . S
O83 C81 1.282 . S
C84 O85 1.306 . S
C84 O87 1.160 . S
O85 C84 1.306 . S
O85 Cd86 2.228 . S
Cd86 O85 2.228 . S
Cd86 O90 2.273 . S
Cd86 O94 2.277 . S
O87 C84 1.160 . S
O87 Cd88 2.203 . S
Cd88 O87 2.203 . S
Cd88 O90 2.411 . S
Cd88 O91 2.333 . S
Cd88 O92 2.352 . S
Cd88 O96 2.277 . S
Cd88 O97 2.356 . S
C89 O94 1.209 . S
C89 O96 1.226 . S
O90 Cd86 2.273 . S
O90 Cd88 2.411 . S
O90 C93 1.320 . S
O91 Cd88 2.333 . S
O91 C93 1.214 . S
O92 Cd88 2.352 . S
O92 C95 1.258 . S
C93 O90 1.320 . S
C93 O91 1.214 . S
O94 Cd86 2.277 . S
O94 C89 1.209 . S
C95 O92 1.258 . S
C95 O97 1.282 . S
O96 Cd88 2.277 . S
O96 C89 1.226 . S
O97 Cd88 2.356 . S
O97 C95 1.282 . S
C98 O99 1.306 . S
C98 O101 1.160 . S
O99 C98 1.306 . S
O99 Cd100 2.228 . S
Cd100 O99 2.228 . S
Cd100 O104 2.273 . S
Cd100 O108 2.277 . S
O101 C98 1.160 . S
O101 Cd102 2.203 . S
Cd102 O101 2.203 . S
Cd102 O104 2.411 . S
Cd102 O105 2.333 . S
Cd102 O106 2.352 . S
Cd102 O110 2.277 . S
Cd102 O111 2.356 . S
C103 O108 1.209 . S
C103 O110 1.226 . S
O104 Cd100 2.273 . S
O104 Cd102 2.411 . S
O104 C107 1.320 . S
O105 Cd102 2.333 . S
O105 C107 1.214 . S
O106 Cd102 2.352 . S
O106 C109 1.258 . S
C107 O104 1.320 . S
C107 O105 1.214 . S
O108 Cd100 2.277 . S
O108 C103 1.209 . S
C109 O106 1.258 . S
C109 O111 1.282 . S
O110 Cd102 2.277 . S
O110 C103 1.226 . S
O111 Cd102 2.356 . S
O111 C109 1.282 . S
C112 O113 1.306 . S
C112 O115 1.160 . S
O113 C112 1.306 . S
O113 Cd114 2.228 . S
Cd114 O113 2.228 . S
Cd114 O118 2.273 . S
Cd114 O122 2.277 . S
O115 C112 1.160 . S
O115 Cd116 2.203 . S
Cd116 O115 2.203 . S
Cd116 O118 2.411 . S
Cd116 O119 2.333 . S
Cd116 O120 2.352 . S
Cd116 O124 2.277 . S
Cd116 O125 2.356 . S
C117 O122 1.209 . S
C117 O124 1.226 . S
O118 Cd114 2.273 . S
O118 Cd116 2.411 . S
O118 C121 1.320 . S
O119 Cd116 2.333 . S
O119 C121 1.214 . S
O120 Cd116 2.352 . S
O120 C123 1.258 . S
C121 O118 1.320 . S
C121 O119 1.214 . S
O122 Cd114 2.277 . S
O122 C117 1.209 . S
C123 O120 1.258 . S
C123 O125 1.282 . S
O124 Cd116 2.277 . S
O124 C117 1.226 . S
O125 Cd116 2.356 . S
O125 C123 1.282 . S
C126 O127 1.306 . S
C126 O129 1.160 . S
O127 C126 1.306 . S
O127 Cd128 2.228 . S
Cd128 O127 2.228 . S
Cd128 O132 2.273 . S
Cd128 O136 2.277 . S
O129 C126 1.160 . S
O129 Cd130 2.203 . S
Cd130 O129 2.203 . S
Cd130 O132 2.411 . S
Cd130 O133 2.333 . S
Cd130 O134 2.352 . S
Cd130 O138 2.277 . S
Cd130 O139 2.356 . S
C131 O136 1.209 . S
C131 O138 1.226 . S
O132 Cd128 2.273 . S
O132 Cd130 2.411 . S
O132 C135 1.320 . S
O133 Cd130 2.333 . S
O133 C135 1.214 . S
O134 Cd130 2.352 . S
O134 C137 1.258 . S
C135 O132 1.320 . S
C135 O133 1.214 . S
O136 Cd128 2.277 . S
O136 C131 1.209 . S
C137 O134 1.258 . S
C137 O139 1.282 . S
O138 Cd130 2.277 . S
O138 C131 1.226 . S
O139 Cd130 2.356 . S
O139 C137 1.282 . S
C140 O141 1.306 . S
C140 O143 1.160 . S
O141 C140 1.306 . S
O141 Cd142 2.228 . S
Cd142 O141 2.228 . S
Cd142 O146 2.273 . S
Cd142 O150 2.277 . S
O143 C140 1.160 . S
O143 Cd144 2.203 . S
Cd144 O143 2.203 . S
Cd144 O146 2.411 . S
Cd144 O147 2.333 . S
Cd144 O148 2.352 . S
Cd144 O152 2.277 . S
Cd144 O153 2.356 . S
C145 O150 1.209 . S
C145 O152 1.226 . S
O146 Cd142 2.273 . S
O146 Cd144 2.411 . S
O146 C149 1.320 . S
O147 Cd144 2.333 . S
O147 C149 1.214 . S
O148 Cd144 2.352 . S
O148 C151 1.258 . S
C149 O146 1.320 . S
C149 O147 1.214 . S
O150 Cd142 2.277 . S
O150 C145 1.209 . S
C151 O148 1.258 . S
C151 O153 1.282 . S
O152 Cd144 2.277 . S
O152 C145 1.226 . S
O153 Cd144 2.356 . S
O153 C151 1.282 . S
C154 O155 1.306 . S
C154 O157 1.160 . S
O155 C154 1.306 . S
O155 Cd156 2.228 . S
Cd156 O155 2.228 . S
Cd156 O160 2.273 . S
Cd156 O164 2.277 . S
O157 C154 1.160 . S
O157 Cd158 2.203 . S
Cd158 O157 2.203 . S
Cd158 O160 2.411 . S
Cd158 O161 2.333 . S
Cd158 O162 2.352 . S
Cd158 O166 2.277 . S
Cd158 O167 2.356 . S
C159 O164 1.209 . S
C159 O166 1.226 . S
O160 Cd156 2.273 . S
O160 Cd158 2.411 . S
O160 C163 1.320 . S
O161 Cd158 2.333 . S
O161 C163 1.214 . S
O162 Cd158 2.352 . S
O162 C165 1.258 . S
C163 O160 1.320 . S
C163 O161 1.214 . S
O164 Cd156 2.277 . S
O164 C159 1.209 . S
C165 O162 1.258 . S
C165 O167 1.282 . S
O166 Cd158 2.277 . S
O166 C159 1.226 . S
O167 Cd158 2.356 . S
O167 C165 1.282 . S
H168 C176 0.950 . S
H169 C181 0.950 . S
H170 C178 0.950 . S
H171 C180 0.950 . S
H172 C182 0.950 . S
H173 C184 0.950 . S
H174 C186 0.950 . S
H175 C187 0.950 . S
C176 H168 0.950 . S
C176 C177 1.386 . S
C176 C178 1.391 . S
C177 C176 1.386 . S
C177 C181 1.393 . S
C178 H170 0.950 . S
C178 C176 1.391 . S
C178 C179 1.400 . S
C179 C178 1.400 . S
C179 C180 1.398 . S
C179 C185 1.491 . S
C180 H171 0.950 . S
C180 C179 1.398 . S
C180 C181 1.391 . S
C181 H169 0.950 . S
C181 C177 1.393 . S
C181 C180 1.391 . S
C182 H172 0.950 . S
C182 C183 1.386 . S
C182 C184 1.391 . S
C183 C182 1.386 . S
C183 C187 1.393 . S
C184 H173 0.950 . S
C184 C182 1.391 . S
C184 C185 1.400 . S
C185 C179 1.491 . S
C185 C184 1.400 . S
C185 C186 1.398 . S
C186 H174 0.950 . S
C186 C185 1.398 . S
C186 C187 1.391 . S
C187 H175 0.950 . S
C187 C183 1.393 . S
C187 C186 1.391 . S
H188 C196 0.950 . S
H189 C201 0.950 . S
H190 C198 0.950 . S
H191 C200 0.950 . S
H192 C202 0.950 . S
H193 C204 0.950 . S
H194 C206 0.950 . S
H195 C207 0.950 . S
C196 H188 0.950 . S
C196 C197 1.386 . S
C196 C198 1.391 . S
C197 C196 1.386 . S
C197 C201 1.393 . S
C198 H190 0.950 . S
C198 C196 1.391 . S
C198 C199 1.400 . S
C199 C198 1.400 . S
C199 C200 1.398 . S
C199 C205 1.491 . S
C200 H191 0.950 . S
C200 C199 1.398 . S
C200 C201 1.391 . S
C201 H189 0.950 . S
C201 C197 1.393 . S
C201 C200 1.391 . S
C202 H192 0.950 . S
C202 C203 1.386 . S
C202 C204 1.391 . S
C203 C202 1.386 . S
C203 C207 1.393 . S
C204 H193 0.950 . S
C204 C202 1.391 . S
C204 C205 1.400 . S
C205 C199 1.491 . S
C205 C204 1.400 . S
C205 C206 1.398 . S
C206 H194 0.950 . S
C206 C205 1.398 . S
C206 C207 1.391 . S
C207 H195 0.950 . S
C207 C203 1.393 . S
C207 C206 1.391 . S
H208 C216 0.950 . S
H209 C221 0.950 . S
H210 C218 0.950 . S
H211 C220 0.950 . S
H212 C222 0.950 . S
H213 C224 0.950 . S
H214 C226 0.950 . S
H215 C227 0.950 . S
C216 H208 0.950 . S
C216 C217 1.386 . S
C216 C218 1.391 . S
C217 C216 1.386 . S
C217 C221 1.393 . S
C218 H210 0.950 . S
C218 C216 1.391 . S
C218 C219 1.400 . S
C219 C218 1.400 . S
C219 C220 1.398 . S
C219 C225 1.491 . S
C220 H211 0.950 . S
C220 C219 1.398 . S
C220 C221 1.391 . S
C221 H209 0.950 . S
C221 C217 1.393 . S
C221 C220 1.391 . S
C222 H212 0.950 . S
C222 C223 1.386 . S
C222 C224 1.391 . S
C223 C222 1.386 . S
C223 C227 1.393 . S
C224 H213 0.950 . S
C224 C222 1.391 . S
C224 C225 1.400 . S
C225 C219 1.491 . S
C225 C224 1.400 . S
C225 C226 1.398 . S
C226 H214 0.950 . S
C226 C225 1.398 . S
C226 C227 1.391 . S
C227 H215 0.950 . S
C227 C223 1.393 . S
C227 C226 1.391 . S
H228 C236 0.950 . S
H229 C241 0.950 . S
H230 C238 0.950 . S
H231 C240 0.950 . S
H232 C242 0.950 . S
H233 C244 0.950 . S
H234 C246 0.950 . S
H235 C247 0.950 . S
C236 H228 0.950 . S
C236 C237 1.386 . S
C236 C238 1.391 . S
C237 C236 1.386 . S
C237 C241 1.393 . S
C238 H230 0.950 . S
C238 C236 1.391 . S
C238 C239 1.400 . S
C239 C238 1.400 . S
C239 C240 1.398 . S
C239 C245 1.491 . S
C240 H231 0.950 . S
C240 C239 1.398 . S
C240 C241 1.391 . S
C241 H229 0.950 . S
C241 C237 1.393 . S
C241 C240 1.391 . S
C242 H232 0.950 . S
C242 C243 1.386 . S
C242 C244 1.391 . S
C243 C242 1.386 . S
C243 C247 1.393 . S
C244 H233 0.950 . S
C244 C242 1.391 . S
C244 C245 1.400 . S
C245 C239 1.491 . S
C245 C244 1.400 . S
C245 C246 1.398 . S
C246 H234 0.950 . S
C246 C245 1.398 . S
C246 C247 1.391 . S
C247 H235 0.950 . S
C247 C243 1.393 . S
C247 C246 1.391 . S
H248 C256 0.950 . S
H249 C261 0.950 . S
H250 C258 0.950 . S
H251 C260 0.950 . S
H252 C262 0.950 . S
H253 C264 0.950 . S
H254 C266 0.950 . S
H255 C267 0.950 . S
C256 H248 0.950 . S
C256 C257 1.386 . S
C256 C258 1.391 . S
C257 C256 1.386 . S
C257 C261 1.393 . S
C258 H250 0.950 . S
C258 C256 1.391 . S
C258 C259 1.400 . S
C259 C258 1.400 . S
C259 C260 1.398 . S
C259 C265 1.491 . S
C260 H251 0.950 . S
C260 C259 1.398 . S
C260 C261 1.391 . S
C261 H249 0.950 . S
C261 C257 1.393 . S
C261 C260 1.391 . S
C262 H252 0.950 . S
C262 C263 1.386 . S
C262 C264 1.391 . S
C263 C262 1.386 . S
C263 C267 1.393 . S
C264 H253 0.950 . S
C264 C262 1.391 . S
C264 C265 1.400 . S
C265 C259 1.491 . S
C265 C264 1.400 . S
C265 C266 1.398 . S
C266 H254 0.950 . S
C266 C265 1.398 . S
C266 C267 1.391 . S
C267 H255 0.950 . S
C267 C263 1.393 . S
C267 C266 1.391 . S
H268 C276 0.950 . S
H269 C281 0.950 . S
H270 C278 0.950 . S
H271 C280 0.950 . S
H272 C282 0.950 . S
H273 C284 0.950 . S
H274 C286 0.950 . S
H275 C287 0.950 . S
C276 H268 0.950 . S
C276 C277 1.386 . S
C276 C278 1.391 . S
C277 C276 1.386 . S
C277 C281 1.393 . S
C278 H270 0.950 . S
C278 C276 1.391 . S
C278 C279 1.400 . S
C279 C278 1.400 . S
C279 C280 1.398 . S
C279 C285 1.491 . S
C280 H271 0.950 . S
C280 C279 1.398 . S
C280 C281 1.391 . S
C281 H269 0.950 . S
C281 C277 1.393 . S
C281 C280 1.391 . S
C282 H272 0.950 . S
C282 C283 1.386 . S
C282 C284 1.391 . S
C283 C282 1.386 . S
C283 C287 1.393 . S
C284 H273 0.950 . S
C284 C282 1.391 . S
C284 C285 1.400 . S
C285 C279 1.491 . S
C285 C284 1.400 . S
C285 C286 1.398 . S
C286 H274 0.950 . S
C286 C285 1.398 . S
C286 C287 1.391 . S
C287 H275 0.950 . S
C287 C283 1.393 . S
C287 C286 1.391 . S
H288 C296 0.950 . S
H289 C301 0.950 . S
H290 C298 0.950 . S
H291 C300 0.950 . S
H292 C302 0.950 . S
H293 C304 0.950 . S
H294 C306 0.950 . S
H295 C307 0.950 . S
C296 H288 0.950 . S
C296 C297 1.386 1_556 S
C296 C298 1.391 . S
C297 C296 1.386 1_554 S
C297 C301 1.393 . S
C298 H290 0.950 . S
C298 C296 1.391 . S
C298 C299 1.400 1_556 S
C299 C298 1.400 1_554 S
C299 C300 1.398 . S
C299 C305 1.491 1_544 S
C300 H291 0.950 . S
C300 C299 1.398 . S
C300 C301 1.391 . S
C301 H289 0.950 . S
C301 C297 1.393 . S
C301 C300 1.391 . S
C302 H292 0.950 . S
C302 C303 1.386 1_554 S
C302 C304 1.391 . S
C303 C302 1.386 1_556 S
C303 C307 1.393 . S
C304 H293 0.950 . S
C304 C302 1.391 . S
C304 C305 1.400 1_554 S
C305 C299 1.491 1_566 S
C305 C304 1.400 1_556 S
C305 C306 1.398 . S
C306 H294 0.950 . S
C306 C305 1.398 . S
C306 C307 1.391 . S
C307 H295 0.950 . S
C307 C303 1.393 . S
C307 C306 1.391 . S
H308 C316 0.950 . S
H309 C321 0.950 . S
H310 C318 0.950 . S
H311 C320 0.950 . S
H312 C322 0.950 . S
H313 C324 0.950 . S
H314 C326 0.950 . S
H315 C327 0.950 . S
C316 H308 0.950 . S
C316 C317 1.386 . S
C316 C318 1.391 . S
C317 C316 1.386 . S
C317 C321 1.393 . S
C318 H310 0.950 . S
C318 C316 1.391 . S
C318 C319 1.400 . S
C319 C318 1.400 . S
C319 C320 1.398 . S
C319 C325 1.491 . S
C320 H311 0.950 . S
C320 C319 1.398 . S
C320 C321 1.391 . S
C321 H309 0.950 . S
C321 C317 1.393 . S
C321 C320 1.391 . S
C322 H312 0.950 . S
C322 C323 1.386 . S
C322 C324 1.391 . S
C323 C322 1.386 . S
C323 C327 1.393 . S
C324 H313 0.950 . S
C324 C322 1.391 . S
C324 C325 1.400 . S
C325 C319 1.491 . S
C325 C324 1.400 . S
C325 C326 1.398 . S
C326 H314 0.950 . S
C326 C325 1.398 . S
C326 C327 1.391 . S
C327 H315 0.950 . S
C327 C323 1.393 . S
C327 C326 1.391 . S
H328 C336 0.950 . S
H329 C341 0.950 . S
H330 C338 0.950 . S
H331 C340 0.950 . S
H332 C342 0.950 . S
H333 C344 0.950 . S
H334 C346 0.950 . S
H335 C347 0.950 . S
C336 H328 0.950 . S
C336 C337 1.386 . S
C336 C338 1.391 . S
C337 C336 1.386 . S
C337 C341 1.393 1_556 S
C338 H330 0.950 . S
C338 C336 1.391 . S
C338 C339 1.400 . S
C339 C338 1.400 . S
C339 C340 1.398 1_556 S
C339 C345 1.491 1_456 S
C340 H331 0.950 . S
C340 C339 1.398 1_554 S
C340 C341 1.391 . S
C341 H329 0.950 . S
C341 C337 1.393 1_554 S
C341 C340 1.391 . S
C342 H332 0.950 . S
C342 C343 1.386 . S
C342 C344 1.391 . S
C343 C342 1.386 . S
C343 C347 1.393 1_554 S
C344 H333 0.950 . S
C344 C342 1.391 . S
C344 C345 1.400 . S
C345 C339 1.491 1_654 S
C345 C344 1.400 . S
C345 C346 1.398 1_554 S
C346 H334 0.950 . S
C346 C345 1.398 1_556 S
C346 C347 1.391 . S
C347 H335 0.950 . S
C347 C343 1.393 1_556 S
C347 C346 1.391 . S
H348 C356 0.950 . S
H349 C361 0.950 . S
H350 C358 0.950 . S
H351 C360 0.950 . S
H352 C362 0.950 . S
H353 C364 0.950 . S
H354 C366 0.950 . S
H355 C367 0.950 . S
C356 H348 0.950 . S
C356 C357 1.386 . S
C356 C358 1.391 . S
C357 C356 1.386 . S
C357 C361 1.393 . S
C358 H350 0.950 . S
C358 C356 1.391 . S
C358 C359 1.400 . S
C359 C358 1.400 . S
C359 C360 1.398 . S
C359 C365 1.491 1_545 S
C360 H351 0.950 . S
C360 C359 1.398 . S
C360 C361 1.391 . S
C361 H349 0.950 . S
C361 C357 1.393 . S
C361 C360 1.391 . S
C362 H352 0.950 . S
C362 C363 1.386 . S
C362 C364 1.391 . S
C363 C362 1.386 . S
C363 C367 1.393 . S
C364 H353 0.950 . S
C364 C362 1.391 . S
C364 C365 1.400 . S
C365 C359 1.491 1_565 S
C365 C364 1.400 . S
C365 C366 1.398 . S
C366 H354 0.950 . S
C366 C365 1.398 . S
C366 C367 1.391 . S
C367 H355 0.950 . S
C367 C363 1.393 . S
C367 C366 1.391 . S
H368 C376 0.950 . S
H369 C381 0.950 . S
H370 C378 0.950 . S
H371 C380 0.950 . S
H372 C382 0.950 . S
H373 C384 0.950 . S
H374 C386 0.950 . S
H375 C387 0.950 . S
C376 H368 0.950 . S
C376 C377 1.386 1_554 S
C376 C378 1.391 . S
C377 C376 1.386 1_556 S
C377 C381 1.393 . S
C378 H370 0.950 . S
C378 C376 1.391 . S
C378 C379 1.400 1_554 S
C379 C378 1.400 1_556 S
C379 C380 1.398 . S
C379 C385 1.491 1_556 S
C380 H371 0.950 . S
C380 C379 1.398 . S
C380 C381 1.391 . S
C381 H369 0.950 . S
C381 C377 1.393 . S
C381 C380 1.391 . S
C382 H372 0.950 . S
C382 C383 1.386 1_556 S
C382 C384 1.391 . S
C383 C382 1.386 1_554 S
C383 C387 1.393 . S
C384 H373 0.950 . S
C384 C382 1.391 . S
C384 C385 1.400 1_556 S
C385 C379 1.491 1_554 S
C385 C384 1.400 1_554 S
C385 C386 1.398 . S
C386 H374 0.950 . S
C386 C385 1.398 . S
C386 C387 1.391 . S
C387 H375 0.950 . S
C387 C383 1.393 . S
C387 C386 1.391 . S
H388 C396 0.950 . S
H389 C401 0.950 . S
H390 C398 0.950 . S
H391 C400 0.950 . S
H392 C402 0.950 . S
H393 C404 0.950 . S
H394 C406 0.950 . S
H395 C407 0.950 . S
C396 H388 0.950 . S
C396 C397 1.386 . S
C396 C398 1.391 . S
C397 C396 1.386 . S
C397 C401 1.393 . S
C398 H390 0.950 . S
C398 C396 1.391 . S
C398 C399 1.400 . S
C399 C398 1.400 . S
C399 C400 1.398 . S
C399 C405 1.491 1_655 S
C400 H391 0.950 . S
C400 C399 1.398 . S
C400 C401 1.391 . S
C401 H389 0.950 . S
C401 C397 1.393 . S
C401 C400 1.391 . S
C402 H392 0.950 . S
C402 C403 1.386 . S
C402 C404 1.391 . S
C403 C402 1.386 . S
C403 C407 1.393 . S
C404 H393 0.950 . S
C404 C402 1.391 . S
C404 C405 1.400 . S
C405 C399 1.491 1_455 S
C405 C404 1.400 . S
C405 C406 1.398 . S
C406 H394 0.950 . S
C406 C405 1.398 . S
C406 C407 1.391 . S
C407 H395 0.950 . S
C407 C403 1.393 . S
C407 C406 1.391 . S
H408 C416 0.950 . S
H409 C421 0.950 . S
H410 C418 0.950 . S
H411 C420 0.950 . S
H412 C422 0.950 . S
H413 C424 0.950 . S
H414 C426 0.937 1_556 S
H415 C427 0.950 1_556 S
C416 H408 0.950 . S
C416 C417 1.386 . S
C416 C418 1.391 . S
C417 C416 1.386 . S
C417 C421 1.393 . S
C418 H410 0.950 . S
C418 C416 1.391 . S
C418 C419 1.400 . S
C419 C418 1.400 . S
C419 C420 1.398 . S
C419 C425 1.491 . S
C420 H411 0.950 . S
C420 C419 1.398 . S
C420 C421 1.391 . S
C421 H409 0.950 . S
C421 C417 1.393 . S
C421 C420 1.391 . S
C422 H412 0.950 . S
C422 C423 1.386 . S
C422 C424 1.391 . S
C423 C422 1.386 . S
C423 C427 1.393 . S
C424 H413 0.950 . S
C424 C422 1.391 . S
C424 C425 1.400 . S
C425 C419 1.491 . S
C425 C424 1.400 . S
C425 C426 1.398 . S
C426 H414 0.937 1_554 S
C426 C425 1.398 . S
C426 C427 1.391 . S
C427 H415 0.950 1_554 S
C427 C423 1.393 . S
C427 C426 1.391 . S
H428 C436 0.950 . S
H429 C441 0.950 . S
H430 C438 0.950 . S
H431 C440 0.950 . S
H432 C442 0.950 . S
H433 C444 0.950 . S
H434 C446 0.950 . S
H435 C447 0.950 . S
C436 H428 0.950 . S
C436 C437 1.386 . S
C436 C438 1.391 . S
C437 C436 1.386 . S
C437 C441 1.393 . S
C438 H430 0.950 . S
C438 C436 1.391 . S
C438 C439 1.400 . S
C439 C438 1.400 . S
C439 C440 1.398 . S
C439 C445 1.491 . S
C440 H431 0.950 . S
C440 C439 1.398 . S
C440 C441 1.391 . S
C441 H429 0.950 . S
C441 C437 1.393 . S
C441 C440 1.391 . S
C442 H432 0.950 . S
C442 C443 1.386 . S
C442 C444 1.391 . S
C443 C442 1.386 . S
C443 C447 1.393 . S
C444 H433 0.950 . S
C444 C442 1.391 . S
C444 C445 1.400 . S
C445 C439 1.491 . S
C445 C444 1.400 . S
C445 C446 1.398 . S
C446 H434 0.950 . S
C446 C445 1.398 . S
C446 C447 1.391 . S
C447 H435 0.950 . S
C447 C443 1.393 . S
C447 C446 1.391 . S
H448 C456 0.950 . S
H449 C461 0.950 . S
H450 C458 0.950 . S
H451 C460 0.950 . S
H452 C462 0.950 . S
H453 C464 0.950 . S
H454 C466 0.950 . S
H455 C467 0.950 1_556 S
C456 H448 0.950 . S
C456 C457 1.386 . S
C456 C458 1.391 . S
C457 C456 1.386 . S
C457 C461 1.393 . S
C458 H450 0.950 . S
C458 C456 1.391 . S
C458 C459 1.400 . S
C459 C458 1.400 . S
C459 C460 1.398 . S
C459 C465 1.491 . S
C460 H451 0.950 . S
C460 C459 1.398 . S
C460 C461 1.391 . S
C461 H449 0.950 . S
C461 C457 1.393 . S
C461 C460 1.391 . S
C462 H452 0.950 . S
C462 C463 1.386 . S
C462 C464 1.391 . S
C463 C462 1.386 . S
C463 C467 1.393 . S
C464 H453 0.950 . S
C464 C462 1.391 . S
C464 C465 1.400 . S
C465 C459 1.491 . S
C465 C464 1.400 . S
C465 C466 1.398 . S
C466 H454 0.950 . S
C466 C465 1.398 . S
C466 C467 1.391 . S
C467 H455 0.950 1_554 S
C467 C463 1.393 . S
C467 C466 1.391 . S
H468 C476 0.950 . S
H469 C481 0.950 . S
H470 C478 0.950 . S
H471 C480 0.950 . S
H472 C482 0.950 . S
H473 C484 0.950 . S
H474 C486 0.950 . S
H475 C487 0.950 . S
C476 H468 0.950 . S
C476 C477 1.386 . S
C476 C478 1.391 . S
C477 C476 1.386 . S
C477 C481 1.393 . S
C478 H470 0.950 . S
C478 C476 1.391 . S
C478 C479 1.400 . S
C479 C478 1.400 . S
C479 C480 1.398 . S
C479 C485 1.491 . S
C480 H471 0.950 . S
C480 C479 1.398 . S
C480 C481 1.391 . S
C481 H469 0.950 . S
C481 C477 1.393 . S
C481 C480 1.391 . S
C482 H472 0.950 . S
C482 C483 1.386 . S
C482 C484 1.391 . S
C483 C482 1.386 . S
C483 C487 1.393 . S
C484 H473 0.950 . S
C484 C482 1.391 . S
C484 C485 1.400 . S
C485 C479 1.491 . S
C485 C484 1.400 . S
C485 C486 1.398 . S
C486 H474 0.950 . S
C486 C485 1.398 . S
C486 C487 1.391 . S
C487 H475 0.950 . S
C487 C483 1.393 . S
C487 C486 1.391 . S
H488 C496 0.950 . S
H489 C501 0.950 . S
H490 C498 0.950 . S
H491 C500 0.964 . S
H492 C502 0.950 1_556 S
H493 C504 0.950 1_556 S
H494 C506 0.950 . S
H495 C507 0.950 . S
C496 H488 0.950 . S
C496 C497 1.386 . S
C496 C498 1.391 . S
C497 C496 1.386 . S
C497 C501 1.393 . S
C498 H490 0.950 . S
C498 C496 1.391 . S
C498 C499 1.400 . S
C499 C498 1.400 . S
C499 C500 1.398 . S
C499 C505 1.491 . S
C500 H491 0.964 . S
C500 C499 1.398 . S
C500 C501 1.391 . S
C501 H489 0.950 . S
C501 C497 1.393 . S
C501 C500 1.391 . S
C502 H492 0.950 1_554 S
C502 C503 1.386 . S
C502 C504 1.391 . S
C503 C502 1.386 . S
C503 C507 1.393 . S
C504 H493 0.950 1_554 S
C504 C502 1.391 . S
C504 C505 1.400 . S
C505 C499 1.491 . S
C505 C504 1.400 . S
C505 C506 1.398 . S
C506 H494 0.950 . S
C506 C505 1.398 . S
C506 C507 1.391 . S
C507 H495 0.950 . S
C507 C503 1.393 . S
C507 C506 1.391 . S
H508 C516 0.950 . S
H509 C521 0.950 . S
H510 C518 0.950 . S
H511 C520 0.950 . S
H512 C522 0.950 . S
H513 C524 0.950 . S
H514 C526 0.950 . S
H515 C527 0.950 . S
C516 H508 0.950 . S
C516 C517 1.386 . S
C516 C518 1.391 . S
C517 C516 1.386 . S
C517 C521 1.393 . S
C518 H510 0.950 . S
C518 C516 1.391 . S
C518 C519 1.400 . S
C519 C518 1.400 . S
C519 C520 1.398 . S
C519 C525 1.491 . S
C520 H511 0.950 . S
C520 C519 1.398 . S
C520 C521 1.391 . S
C521 H509 0.950 . S
C521 C517 1.393 . S
C521 C520 1.391 . S
C522 H512 0.950 . S
C522 C523 1.386 . S
C522 C524 1.391 . S
C523 C522 1.386 . S
C523 C527 1.393 . S
C524 H513 0.950 . S
C524 C522 1.391 . S
C524 C525 1.400 . S
C525 C519 1.491 . S
C525 C524 1.400 . S
C525 C526 1.398 . S
C526 H514 0.950 . S
C526 C525 1.398 . S
C526 C527 1.391 . S
C527 H515 0.950 . S
C527 C523 1.393 . S
C527 C526 1.391 . S
H528 C536 0.950 . S
H529 C541 0.950 . S
H530 C538 0.950 . S
H531 C540 0.950 . S
H532 C542 0.950 . S
H533 C544 0.950 . S
H534 C546 0.950 . S
H535 C547 0.950 . S
C536 H528 0.950 . S
C536 C537 1.386 . S
C536 C538 1.391 . S
C537 C536 1.386 . S
C537 C541 1.393 . S
C538 H530 0.950 . S
C538 C536 1.391 . S
C538 C539 1.400 . S
C539 C538 1.400 . S
C539 C540 1.398 . S
C539 C545 1.491 . S
C540 H531 0.950 . S
C540 C539 1.398 . S
C540 C541 1.391 . S
C541 H529 0.950 . S
C541 C537 1.393 . S
C541 C540 1.391 . S
C542 H532 0.950 . S
C542 C543 1.386 . S
C542 C544 1.391 . S
C543 C542 1.386 . S
C543 C547 1.393 . S
C544 H533 0.950 . S
C544 C542 1.391 . S
C544 C545 1.400 . S
C545 C539 1.491 . S
C545 C544 1.400 . S
C545 C546 1.398 . S
C546 H534 0.950 . S
C546 C545 1.398 . S
C546 C547 1.391 . S
C547 H535 0.950 . S
C547 C543 1.393 . S
C547 C546 1.391 . S
H548 C556 0.950 . S
H549 C561 0.950 . S
H550 C558 0.950 . S
H551 C560 0.950 . S
H552 C562 0.962 . S
H553 C564 0.950 . S
H554 C566 0.950 . S
H555 C567 0.950 . S
C556 H548 0.950 . S
C556 C557 1.386 . S
C556 C558 1.391 . S
C557 C556 1.386 . S
C557 C561 1.393 . S
C558 H550 0.950 . S
C558 C556 1.391 . S
C558 C559 1.400 . S
C559 C558 1.400 . S
C559 C560 1.398 . S
C559 C565 1.491 . S
C560 H551 0.950 . S
C560 C559 1.398 . S
C560 C561 1.391 . S
C561 H549 0.950 . S
C561 C557 1.393 . S
C561 C560 1.391 . S
C562 H552 0.962 . S
C562 C563 1.386 . S
C562 C564 1.391 . S
C563 C562 1.386 . S
C563 C567 1.393 . S
C564 H553 0.950 . S
C564 C562 1.391 . S
C564 C565 1.400 . S
C565 C559 1.491 . S
C565 C564 1.400 . S
C565 C566 1.398 . S
C566 H554 0.950 . S
C566 C565 1.398 . S
C566 C567 1.391 . S
C567 H555 0.950 . S
C567 C563 1.393 . S
C567 C566 1.391 . S
H568 C576 0.950 . S
H569 C581 0.950 . S
H570 C578 0.950 . S
H571 C580 0.950 . S
H572 C582 0.950 . S
H573 C584 0.950 . S
H574 C586 0.950 . S
H575 C587 0.950 . S
C576 H568 0.950 . S
C576 C577 1.386 . S
C576 C578 1.391 . S
C577 C576 1.386 . S
C577 C581 1.393 . S
C578 H570 0.950 . S
C578 C576 1.391 . S
C578 C579 1.400 . S
C579 C578 1.400 . S
C579 C580 1.398 . S
C579 C585 1.491 . S
C580 H571 0.950 . S
C580 C579 1.398 . S
C580 C581 1.391 . S
C581 H569 0.950 . S
C581 C577 1.393 . S
C581 C580 1.391 . S
C582 H572 0.950 . S
C582 C583 1.386 . S
C582 C584 1.391 . S
C583 C582 1.386 . S
C583 C587 1.393 . S
C584 H573 0.950 . S
C584 C582 1.391 . S
C584 C585 1.400 . S
C585 C579 1.491 . S
C585 C584 1.400 . S
C585 C586 1.398 . S
C586 H574 0.950 . S
C586 C585 1.398 . S
C586 C587 1.391 . S
C587 H575 0.950 . S
C587 C583 1.393 . S
C587 C586 1.391 . S
H588 C596 0.950 . S
H589 C601 0.950 . S
H590 C598 0.950 . S
H591 C600 0.950 . S
H592 C602 0.950 . S
H593 C604 0.950 . S
H594 C606 0.950 . S
H595 C607 0.950 . S
C596 H588 0.950 . S
C596 C597 1.386 . S
C596 C598 1.391 . S
C597 C596 1.386 . S
C597 C601 1.393 . S
C598 H590 0.950 . S
C598 C596 1.391 . S
C598 C599 1.400 . S
C599 C598 1.400 . S
C599 C600 1.398 . S
C599 C605 1.491 . S
C600 H591 0.950 . S
C600 C599 1.398 . S
C600 C601 1.391 . S
C601 H589 0.950 . S
C601 C597 1.393 . S
C601 C600 1.391 . S
C602 H592 0.950 . S
C602 C603 1.386 . S
C602 C604 1.391 . S
C603 C602 1.386 . S
C603 C607 1.393 . S
C604 H593 0.950 . S
C604 C602 1.391 . S
C604 C605 1.400 . S
C605 C599 1.491 . S
C605 C604 1.400 . S
C605 C606 1.398 . S
C606 H594 0.950 . S
C606 C605 1.398 . S
C606 C607 1.391 . S
C607 H595 0.950 . S
C607 C603 1.393 . S
C607 C606 1.391 . S
H608 C616 0.950 . S
H609 C621 0.950 . S
H610 C618 0.950 . S
H611 C620 0.950 . S
H612 C622 0.950 . S
H613 C624 0.950 . S
H614 C626 0.950 . S
H615 C627 0.950 . S
C616 H608 0.950 . S
C616 C617 1.386 . S
C616 C618 1.391 . S
C617 C616 1.386 . S
C617 C621 1.393 . S
C618 H610 0.950 . S
C618 C616 1.391 . S
C618 C619 1.400 . S
C619 C618 1.400 . S
C619 C620 1.398 . S
C619 C625 1.491 . S
C620 H611 0.950 . S
C620 C619 1.398 . S
C620 C621 1.391 . S
C621 H609 0.950 . S
C621 C617 1.393 . S
C621 C620 1.391 . S
C622 H612 0.950 . S
C622 C623 1.386 . S
C622 C624 1.391 . S
C623 C622 1.386 . S
C623 C627 1.393 . S
C624 H613 0.950 . S
C624 C622 1.391 . S
C624 C625 1.400 . S
C625 C619 1.491 . S
C625 C624 1.400 . S
C625 C626 1.398 . S
C626 H614 0.950 . S
C626 C625 1.398 . S
C626 C627 1.391 . S
C627 H615 0.950 . S
C627 C623 1.393 . S
C627 C626 1.391 . S
H628 C636 0.950 . S
H629 C641 0.950 . S
H630 C638 0.950 . S
H631 C640 0.950 . S
H632 C642 0.950 . S
H633 C644 0.950 . S
H634 C646 0.950 1_554 S
H635 C647 0.950 1_554 S
C636 H628 0.950 . S
C636 C637 1.386 . S
C636 C638 1.391 . S
C637 C636 1.386 . S
C637 C641 1.393 . S
C638 H630 0.950 . S
C638 C636 1.391 . S
C638 C639 1.400 . S
C639 C638 1.400 . S
C639 C640 1.398 . S
C639 C645 1.491 . S
C640 H631 0.950 . S
C640 C639 1.398 . S
C640 C641 1.391 . S
C641 H629 0.950 . S
C641 C637 1.393 . S
C641 C640 1.391 . S
C642 H632 0.950 . S
C642 C643 1.386 . S
C642 C644 1.391 . S
C643 C642 1.386 . S
C643 C647 1.393 . S
C644 H633 0.950 . S
C644 C642 1.391 . S
C644 C645 1.400 . S
C645 C639 1.491 . S
C645 C644 1.400 . S
C645 C646 1.398 . S
C646 H634 0.950 1_556 S
C646 C645 1.398 . S
C646 C647 1.391 . S
C647 H635 0.950 1_556 S
C647 C643 1.393 . S
C647 C646 1.391 . S
C177 C149 1.620 . S
C183 C9 1.619 . S
C197 C23 1.529 . S
C203 C163 1.534 . S
C217 C37 1.620 . S
C223 C93 1.620 . S
C237 C107 1.610 . S
C243 C51 1.621 . S
C257 C121 1.536 . S
C263 C65 1.538 . S
C277 C79 1.612 . S
C283 C135 1.624 . S
C297 C11 0.964 . S
C303 C109 0.967 . S
C317 C25 0.797 . S
C323 C123 0.817 . S
C337 C137 0.927 . S
C343 C39 0.966 . S
C357 C151 0.974 . S
C363 C53 0.944 . S
C377 C165 0.824 . S
C383 C67 0.803 . S
C397 C95 0.955 . S
C403 C81 0.975 . S
C417 C5 1.042 . S
C423 C56 0.925 . S
C437 C19 0.919 . S
C443 C70 0.870 . S
C457 C33 0.960 . S
C463 C0 0.906 . S
C477 C47 1.034 . S
C483 C14 0.952 . S
C497 C61 0.913 . S
C503 C28 0.887 . S
C517 C75 0.952 . S
C523 C42 0.875 . S
C537 C89 1.037 . S
C543 C112 0.931 . S
C557 C103 0.951 . S
C563 C126 0.877 . S
C577 C140 0.916 . S
C583 C117 0.914 . S
C597 C131 1.038 . S
C603 C154 0.985 . S
C617 C145 0.950 . S
C623 C84 0.923 . S
C637 C159 0.934 . S
C643 C98 0.861 . S
