# Generated by pormake.
# Topology unj, (4)-cn, num edge types: 1
# Building blocks:
#     Node 0, Type 0, BuildingBlock: KUFVIS_clean_sbu_0, # of connection points: 4
#     Node 1, Type 0, BuildingBlock: KUFVIS_clean_sbu_0, # of connection points: 4
#     Node 2, Type 0, BuildingBlock: KUFVIS_clean_sbu_0, # of connection points: 4
#     Node 3, Type 0, BuildingBlock: KUFVIS_clean_sbu_0, # of connection points: 4
#     Node 4, Type 0, BuildingBlock: KUFVIS_clean_sbu_0, # of connection points: 4
#     Node 5, Type 0, BuildingBlock: KUFVIS_clean_sbu_0, # of connection points: 4
#     Edge 6, Type (0, 0), BuildingBlock: UVAHIK_clean_linker_0, # of connection points: 2
#     Edge 7, Type (0, 0), BuildingBlock: UVAHIK_clean_linker_0, # of connection points: 2
#     Edge 8, Type (0, 0), BuildingBlock: UVAHIK_clean_linker_0, # of connection points: 2
#     Edge 9, Type (0, 0), BuildingBlock: UVAHIK_clean_linker_0, # of connection points: 2
#     Edge 10, Type (0, 0), BuildingBlock: UVAHIK_clean_linker_0, # of connection points: 2
#     Edge 11, Type (0, 0), BuildingBlock: UVAHIK_clean_linker_0, # of connection points: 2
#     Edge 12, Type (0, 0), BuildingBlock: UVAHIK_clean_linker_0, # of connection points: 2
#     Edge 13, Type (0, 0), BuildingBlock: UVAHIK_clean_linker_0, # of connection points: 2
#     Edge 14, Type (0, 0), BuildingBlock: UVAHIK_clean_linker_0, # of connection points: 2
#     Edge 15, Type (0, 0), BuildingBlock: UVAHIK_clean_linker_0, # of connection points: 2
#     Edge 16, Type (0, 0), BuildingBlock: UVAHIK_clean_linker_0, # of connection points: 2
#     Edge 17, Type (0, 0), BuildingBlock: UVAHIK_clean_linker_0, # of connection points: 2
# Relax obj value: 0.013
# Max RMSD: 0.054
# Mean RMSD: 0.054
data_MOF--net-unj--node1-KUFVIS_clean_sbu_0--edge1-UVAHIK_clean_linker_0
_symmetry_space_group_name_H-M    P1
_symmetry_Int_Tables_number       1
_symmetry_cell_setting            triclinic
loop_
_symmetry_equiv_pos_as_xyz
'x, y, z'
_cell_length_a     42.874859
_cell_length_b     42.776005
_cell_length_c     45.766212
_cell_angle_alpha  90.003708
_cell_angle_beta   90.016381
_cell_angle_gamma 119.95328
loop_
_atom_site_label
_atom_site_type_symbol
_atom_site_fract_x
_atom_site_fract_y
_atom_site_fract_z
_atom_type_partial_charge
Mn0 Mn 0.49339 0.24349 0.59331 0.0
Mn1 Mn 0.56579 0.23342 0.58207 0.0
C2 C 0.51829 0.22767 0.63159 0.0
C3 C 0.46878 0.27997 0.60484 0.0
C4 C 0.4901 0.17766 0.56344 0.0
O5 O 0.5132 0.26965 0.55455 0.0
O6 O 0.56226 0.26341 0.55059 0.0
C7 C 0.6229 0.30932 0.59113 0.0
N8 N 0.60758 0.27377 0.59833 0.0
C9 C 0.65324 0.28661 0.63446 0.0
C10 C 0.66961 0.32333 0.62731 0.0
C11 C 0.65431 0.33473 0.6056 0.0
C12 C 0.62198 0.26253 0.61927 0.0
H13 H 0.6112 0.31821 0.5745 0.0
C14 C 0.54199 0.2755 0.54152 0.0
O15 O 0.45034 0.24981 0.59073 0.0
O16 O 0.5016 0.28915 0.61175 0.0
N17 N 0.57272 0.20537 0.61125 0.0
C18 C 0.55274 0.16924 0.61645 0.0
C19 C 0.56408 0.15357 0.63786 0.0
C20 C 0.59592 0.17512 0.65357 0.0
C21 C 0.61615 0.2122 0.64772 0.0
C22 C 0.60367 0.22626 0.62596 0.0
H23 H 0.52827 0.15253 0.60443 0.0
O24 O 0.48518 0.22064 0.63305 0.0
O25 O 0.53553 0.24348 0.60789 0.0
O26 O 0.47442 0.19427 0.57318 0.0
O27 O 0.52404 0.19022 0.56534 0.0
C28 C 0.64792 0.23584 0.66291 0.0
C29 C 0.66638 0.27303 0.65636 0.0
H30 H 0.69378 0.34303 0.63848 0.0
H31 H 0.66671 0.36304 0.60005 0.0
H32 H 0.54829 0.12494 0.64229 0.0
H33 H 0.60446 0.16296 0.67018 0.0
H34 H 0.65815 0.22577 0.67994 0.0
H35 H 0.69049 0.29101 0.66848 0.0
Mn36 Mn 0.26275 0.49226 0.7613 0.0
Mn37 Mn 0.34545 0.56519 0.75346 0.0
C38 C 0.30247 0.5138 0.80057 0.0
C39 C 0.20164 0.46744 0.77212 0.0
C40 C 0.3247 0.49086 0.7296 0.0
O41 O 0.25818 0.51523 0.72342 0.0
O42 O 0.31242 0.56623 0.72358 0.0
C43 C 0.32772 0.62147 0.77001 0.0
N44 N 0.348 0.60542 0.77385 0.0
C45 C 0.38216 0.64703 0.81222 0.0
C46 C 0.36216 0.6645 0.80822 0.0
C47 C 0.33467 0.6515 0.78715 0.0
C48 C 0.37405 0.61727 0.79445 0.0
H49 H 0.30619 0.6112 0.75421 0.0
C50 C 0.28074 0.54626 0.71312 0.0
O51 O 0.21333 0.44979 0.75686 0.0
O52 O 0.2253 0.49975 0.78039 0.0
N53 N 0.37988 0.56782 0.78147 0.0
C54 C 0.39477 0.5463 0.78413 0.0
C55 C 0.42175 0.55469 0.80509 0.0
C56 C 0.43331 0.58522 0.82296 0.0
C57 C 0.41771 0.60705 0.81975 0.0
C58 C 0.39108 0.59747 0.79837 0.0
H59 H 0.3861 0.52287 0.77041 0.0
O60 O 0.27595 0.4808 0.80056 0.0
O61 O 0.30469 0.53279 0.77781 0.0
O62 O 0.29291 0.47435 0.74014 0.0
O63 O 0.34589 0.52485 0.73243 0.0
C64 C 0.42714 0.63763 0.83724 0.0
C65 C 0.40922 0.65747 0.8336 0.0
H66 H 0.36731 0.68755 0.82151 0.0
H67 H 0.31875 0.6645 0.78423 0.0
H68 H 0.43359 0.53764 0.80749 0.0
H69 H 0.45396 0.59146 0.83924 0.0
H70 H 0.44774 0.64578 0.85387 0.0
H71 H 0.41616 0.68044 0.84762 0.0
Mn72 Mn 0.78 0.25783 0.92501 0.0
Mn73 Mn 0.79139 0.34104 0.91372 0.0
C74 C 0.79428 0.29798 0.96354 0.0
C75 C 0.7437 0.19662 0.93617 0.0
C76 C 0.84709 0.32041 0.89674 0.0
O77 O 0.75519 0.25223 0.88567 0.0
O78 O 0.76304 0.30829 0.88129 0.0
C79 C 0.71555 0.32343 0.91963 0.0
N80 N 0.75058 0.34296 0.92823 0.0
C81 C 0.73632 0.37571 0.96347 0.0
C82 C 0.70013 0.35609 0.95487 0.0
C83 C 0.68971 0.32979 0.93289 0.0
C84 C 0.76091 0.36834 0.94935 0.0
H85 H 0.7074 0.30312 0.90281 0.0
C86 C 0.75074 0.27588 0.87214 0.0
O87 O 0.77407 0.20858 0.92248 0.0
O88 O 0.73397 0.22005 0.94264 0.0
N89 N 0.81794 0.37515 0.94385 0.0
C90 C 0.85343 0.39004 0.95091 0.0
C91 C 0.86794 0.41602 0.97321 0.0
C92 C 0.8459 0.42655 0.9879 0.0
C93 C 0.80953 0.41105 0.9801 0.0
C94 C 0.79663 0.38549 0.95755 0.0
H95 H 0.87046 0.38195 0.93977 0.0
O96 O 0.80147 0.27194 0.96519 0.0
O97 O 0.77952 0.29996 0.93939 0.0
O98 O 0.82967 0.2879 0.90586 0.0
O99 O 0.83512 0.34232 0.89861 0.0
C100 C 0.78539 0.41939 0.99424 0.0
C101 C 0.74882 0.40172 0.98594 0.0
H102 H 0.68007 0.36075 0.96517 0.0
H103 H 0.6618 0.31442 0.92624 0.0
H104 H 0.89601 0.42778 0.97916 0.0
H105 H 0.85709 0.4463 1.0053 0.0
H106 H 0.79456 0.43891 0.01185 0.0
H107 H 0.73041 0.40794 0.99729 0.0
Mn108 Mn 0.53472 0.77607 0.09308 0.0
Mn109 Mn 0.46265 0.78685 0.08234 0.0
C110 C 0.51065 0.79264 0.13149 0.0
C111 C 0.55907 0.73933 0.10451 0.0
C112 C 0.53824 0.84189 0.06298 0.0
O113 O 0.5142 0.7496 0.05451 0.0
O114 O 0.46548 0.75645 0.05086 0.0
C115 C 0.40524 0.71121 0.09194 0.0
N116 N 0.4209 0.74684 0.09896 0.0
C117 C 0.37578 0.73469 0.1354 0.0
C118 C 0.35906 0.69789 0.12845 0.0
C119 C 0.37392 0.6861 0.10668 0.0
C120 C 0.40693 0.75845 0.11997 0.0
H121 H 0.41661 0.70202 0.07526 0.0
C122 C 0.48539 0.744 0.04166 0.0
O123 O 0.57747 0.7693 0.09018 0.0
O124 O 0.52642 0.73047 0.11171 0.0
N125 N 0.45638 0.81534 0.1115 0.0
C126 C 0.47664 0.8515 0.11646 0.0
C127 C 0.46573 0.86755 0.13789 0.0
C128 C 0.43404 0.84633 0.15385 0.0
C129 C 0.41352 0.80921 0.14824 0.0
C130 C 0.42556 0.79478 0.12645 0.0
H131 H 0.50098 0.86797 0.10423 0.0
O132 O 0.54367 0.79937 0.13269 0.0
O133 O 0.49301 0.77668 0.10796 0.0
O134 O 0.55377 0.8251 0.07264 0.0
O135 O 0.50439 0.82969 0.06521 0.0
C136 C 0.38186 0.7859 0.16368 0.0
C137 C 0.36308 0.74864 0.15735 0.0
H138 H 0.33496 0.67841 0.13983 0.0
H139 H 0.36127 0.65772 0.10128 0.0
H140 H 0.48175 0.89621 0.14212 0.0
H141 H 0.42584 0.85879 0.17046 0.0
H142 H 0.37197 0.79627 0.18074 0.0
H143 H 0.33907 0.73092 0.16966 0.0
Mn144 Mn 0.76378 0.52659 0.26214 0.0
Mn145 Mn 0.68096 0.4538 0.25436 0.0
C146 C 0.72346 0.50614 0.30102 0.0
C147 C 0.82461 0.55139 0.27404 0.0
C148 C 0.70228 0.52767 0.2292 0.0
O149 O 0.76882 0.50256 0.22512 0.0
O150 O 0.71412 0.45216 0.22493 0.0
C151 C 0.69853 0.39779 0.27217 0.0
N152 N 0.67825 0.41392 0.27544 0.0
C153 C 0.64389 0.37305 0.31413 0.0
C154 C 0.66388 0.35549 0.31071 0.0
C155 C 0.69148 0.36808 0.28977 0.0
C156 C 0.65211 0.40249 0.29592 0.0
H157 H 0.72015 0.40776 0.25647 0.0
C158 C 0.74606 0.47161 0.21483 0.0
O159 O 0.81351 0.56864 0.2576 0.0
O160 O 0.80059 0.51944 0.28273 0.0
N161 N 0.64638 0.4517 0.28196 0.0
C162 C 0.63152 0.4733 0.28404 0.0
C163 C 0.60445 0.46533 0.30481 0.0
C164 C 0.59277 0.43513 0.32308 0.0
C165 C 0.60835 0.4132 0.32046 0.0
C166 C 0.63508 0.42237 0.29926 0.0
H167 H 0.6403 0.49649 0.27002 0.0
O168 O 0.75 0.53915 0.3007 0.0
O169 O 0.72149 0.48663 0.27872 0.0
O170 O 0.73415 0.54415 0.23961 0.0
O171 O 0.68075 0.49384 0.23266 0.0
C172 C 0.59878 0.38293 0.33836 0.0
C173 C 0.61671 0.36301 0.33533 0.0
H174 H 0.65865 0.33269 0.32435 0.0
H175 H 0.7074 0.35502 0.28729 0.0
H176 H 0.59264 0.48244 0.30676 0.0
H177 H 0.57206 0.42921 0.3392 0.0
H178 H 0.57808 0.37507 0.35484 0.0
H179 H 0.60968 0.34029 0.34966 0.0
Mn180 Mn 0.24781 0.76157 0.42416 0.0
Mn181 Mn 0.23548 0.67848 0.4104 0.0
C182 C 0.23288 0.71999 0.46164 0.0
C183 C 0.2847 0.82233 0.43651 0.0
C184 C 0.18105 0.70112 0.39404 0.0
O185 O 0.27261 0.76808 0.38457 0.0
O186 O 0.26553 0.71238 0.37926 0.0
C187 C 0.31039 0.69367 0.4177 0.0
N188 N 0.27502 0.67461 0.42541 0.0
C189 C 0.28674 0.63947 0.46014 0.0
C190 C 0.32326 0.65859 0.45245 0.0
C191 C 0.33513 0.68584 0.43118 0.0
C192 C 0.26329 0.64829 0.44582 0.0
H193 H 0.31965 0.71471 0.40142 0.0
C194 C 0.27773 0.74501 0.37075 0.0
O195 O 0.25438 0.81112 0.4229 0.0
O196 O 0.29408 0.79843 0.44218 0.0
N197 N 0.20718 0.64341 0.43937 0.0
C198 C 0.1716 0.6293 0.44573 0.0
C199 C 0.15575 0.60263 0.46739 0.0
C200 C 0.17656 0.59065 0.48218 0.0
C201 C 0.21307 0.60541 0.47513 0.0
C202 C 0.22733 0.63172 0.45319 0.0
H203 H 0.15551 0.63848 0.43448 0.0
O204 O 0.22632 0.74638 0.46422 0.0
O205 O 0.24752 0.71863 0.43722 0.0
O206 O 0.198 0.73267 0.40511 0.0
O207 O 0.19301 0.67913 0.39441 0.0
C208 C 0.23604 0.59563 0.48945 0.0
C209 C 0.27284 0.61264 0.48196 0.0
H210 H 0.34248 0.65283 0.46295 0.0
H211 H 0.36331 0.70084 0.42523 0.0
H212 H 0.12758 0.59144 0.47277 0.0
H213 H 0.16433 0.57036 0.49909 0.0
H214 H 0.2258 0.57549 0.50659 0.0
H215 H 0.29035 0.60531 0.49345 0.0
C216 C 0.48316 0.11949 0.54447 0.0
C217 C 0.46809 0.14164 0.54963 0.0
C218 C 0.46271 0.08542 0.53183 0.0
C219 C 0.38411 0.03096 0.48542 0.0
H220 H 0.38814 0.95017 0.5197 0.0
C221 C 0.29243 0.88355 0.44614 0.0
C222 C 0.30653 0.86012 0.44672 0.0
C223 C 0.31192 0.91833 0.45794 0.0
C224 C 0.38709 0.97246 0.5095 0.0
H225 H 0.41957 0.14519 0.54511 0.0
H226 H 0.38394 0.08561 0.52265 0.0
H227 H 0.42201 1.00967 0.54184 0.0
H228 H 0.3527 0.85527 0.45919 0.0
H229 H 0.38717 0.91615 0.47885 0.0
H230 H 0.34977 0.99398 0.45271 0.0
C231 C 0.41167 0.09483 0.52853 0.0
C232 C 0.4064 1.00658 0.52233 0.0
C233 C 0.43204 0.12886 0.54153 0.0
C234 C 0.34097 0.87258 0.45858 0.0
C235 C 0.3606 0.90744 0.47011 0.0
C236 C 0.36503 0.99685 0.47237 0.0
C237 C 0.42675 0.07266 0.52371 0.0
C238 C 0.40525 0.03625 0.5104 0.0
C239 C 0.34615 0.93064 0.47038 0.0
C240 C 0.36636 0.96712 0.48417 0.0
H241 H 0.51079 0.12831 0.55038 0.0
H242 H 0.47523 0.06916 0.52812 0.0
H243 H 0.38299 0.0534 0.47556 0.0
H244 H 0.26587 0.8747 0.4373 0.0
H245 H 0.29965 0.93514 0.45802 0.0
C246 C 0.47491 0.33721 0.62496 0.0
C247 C 0.45288 0.3023 0.61376 0.0
C248 C 0.45988 0.35774 0.63484 0.0
C249 C 0.37674 0.34869 0.66499 0.0
H250 H 0.41964 0.45022 0.64594 0.0
C251 C 0.31439 0.43368 0.70531 0.0
C252 C 0.33813 0.46948 0.71389 0.0
C253 C 0.32725 0.41334 0.69116 0.0
C254 C 0.40754 0.42202 0.65181 0.0
H255 H 0.39782 0.2617 0.60385 0.0
H256 H 0.3715 0.29748 0.62149 0.0
H257 H 0.44429 0.41484 0.62474 0.0
H258 H 0.39418 0.51185 0.71425 0.0
H259 H 0.41663 0.4762 0.69046 0.0
H260 H 0.34071 0.35589 0.69277 0.0
C261 C 0.40042 0.30891 0.62257 0.0
C262 C 0.42162 0.40172 0.63953 0.0
C263 C 0.41551 0.28853 0.61232 0.0
C264 C 0.37502 0.48446 0.70781 0.0
C265 C 0.38792 0.46401 0.69395 0.0
C266 C 0.36288 0.36906 0.67754 0.0
C267 C 0.42245 0.34368 0.63408 0.0
C268 C 0.40649 0.36488 0.64609 0.0
C269 C 0.36424 0.42811 0.68546 0.0
C270 C 0.37822 0.40608 0.67127 0.0
H271 H 0.5038 0.34861 0.62635 0.0
H272 H 0.47753 0.3843 0.64382 0.0
H273 H 0.36479 0.32045 0.67076 0.0
H274 H 0.28577 0.42133 0.70942 0.0
H275 H 0.30806 0.38605 0.68453 0.0
C276 C 0.90606 0.37092 0.87876 0.0
C277 C 0.88298 0.33373 0.8831 0.0
C278 C 0.9395 0.38376 0.8653 0.0
C279 C 1.00766 0.35783 0.84547 0.0
H280 H 0.04294 0.44162 0.79505 0.0
C281 C 0.13994 0.41363 0.77855 0.0
C282 C 0.16347 0.451 0.78111 0.0
C283 C 0.10464 0.3979 0.78916 0.0
C284 C 0.0335 0.41828 0.80915 0.0
H285 H 0.8772 0.28086 0.87663 0.0
H286 H 0.93526 0.30321 0.85249 0.0
H287 H 0.98349 0.41643 0.81708 0.0
H288 H 0.16818 0.50128 0.79608 0.0
H289 H 0.10652 0.47393 0.81413 0.0
H290 H 0.05777 0.35968 0.83713 0.0
C291 C 0.92776 0.32255 0.86002 0.0
C292 C 0.99947 0.4039 0.82193 0.0
C293 C 0.89436 0.30969 0.87378 0.0
C294 C 0.15071 0.47241 0.79377 0.0
C295 C 0.11534 0.45677 0.80401 0.0
C296 C 0.04159 0.37204 0.83241 0.0
C297 C 0.95073 0.35978 0.85547 0.0
C298 C 0.98626 0.37379 0.84063 0.0
C299 C 0.09204 0.4193 0.80214 0.0
C300 C 0.05507 0.40271 0.81443 0.0
H301 H 0.89843 0.39031 0.8859 0.0
H302 H 0.9567 0.41263 0.86287 0.0
H303 H 0.99867 0.33494 0.85998 0.0
H304 H 0.14902 0.3964 0.76897 0.0
H305 H 0.08719 0.36898 0.78722 0.0
C306 C 0.54548 0.89981 0.04312 0.0
C307 C 0.56027 0.8775 0.04857 0.0
C308 C 0.56577 0.93324 0.02946 0.0
C309 C 0.65976 1.00314 0.01143 0.0
H310 H 0.61175 0.03675 0.95885 0.0
C311 C 0.73657 0.13536 0.94432 0.0
C312 C 0.72208 0.15846 0.94551 0.0
C313 C 0.71711 0.10011 0.95518 0.0
C314 C 0.6255 0.0278 0.97358 0.0
H315 H 0.60825 0.87309 0.04369 0.0
H316 H 0.64344 0.93111 0.01918 0.0
H317 H 0.5778 0.9771 0.98086 0.0
H318 H 0.67547 0.16237 0.95835 0.0
H319 H 0.64136 0.10073 0.97688 0.0
H320 H 0.70758 0.05392 1.00375 0.0
C321 C 0.61627 0.92301 0.02602 0.0
C322 C 0.60602 0.99364 0.98634 0.0
C323 C 0.59601 0.8896 0.03998 0.0
C324 C 0.68738 0.14525 0.9571 0.0
C325 C 0.66777 0.10989 0.96761 0.0
C326 C 0.67932 0.0372 0.99842 0.0
C327 C 0.60138 0.94527 0.02053 0.0
C328 C 0.62274 0.98098 0.00576 0.0
C329 C 0.68257 0.08705 0.96709 0.0
C330 C 0.6623 0.05008 0.97962 0.0
H331 H 0.51817 0.89163 0.04964 0.0
H332 H 0.55357 0.94986 0.02626 0.0
H333 H 0.67351 0.99463 0.02653 0.0
H334 H 0.76327 0.14475 0.93559 0.0
H335 H 0.72909 0.08303 0.95425 0.0
C336 C 0.65214 0.53419 0.20714 0.0
C337 C 0.68905 0.54896 0.21308 0.0
C338 C 0.63938 0.55468 0.19315 0.0
C339 C 0.66499 0.64967 0.17633 0.0
H340 H 0.58272 0.60392 0.12432 0.0
C341 C 0.61217 0.73037 0.11155 0.0
C342 C 0.57487 0.71686 0.11335 0.0
C343 C 0.6272 0.70989 0.12168 0.0
C344 C 0.60564 0.61703 0.13888 0.0
H345 H 0.74157 0.59679 0.20817 0.0
H346 H 0.71949 0.63212 0.18305 0.0
H347 H 0.60732 0.56837 0.14531 0.0
H348 H 0.52399 0.6709 0.12648 0.0
H349 H 0.55016 0.63502 0.14374 0.0
H350 H 0.66339 0.69843 0.16953 0.0
C351 C 0.70021 0.60496 0.18989 0.0
C352 C 0.61969 0.59664 0.15105 0.0
C353 C 0.71294 0.58458 0.20416 0.0
C354 C 0.55283 0.6821 0.1248 0.0
C355 C 0.56779 0.66146 0.13457 0.0
C356 C 0.65117 0.67013 0.16389 0.0
C357 C 0.66319 0.59042 0.1844 0.0
C358 C 0.64932 0.61256 0.17023 0.0
C359 C 0.60518 0.67527 0.13343 0.0
C360 C 0.6211 0.65395 0.14529 0.0
H361 H 0.63286 0.50694 0.21382 0.0
H362 H 0.61065 0.54265 0.18983 0.0
H363 H 0.6874 0.66284 0.19134 0.0
H364 H 0.62987 0.75708 0.10288 0.0
H365 H 0.65608 0.72112 0.12031 0.0
C366 C 0.13178 0.66057 0.35969 0.0
C367 C 0.1456 0.689 0.38006 0.0
C368 C 0.09814 0.64853 0.34677 0.0
C369 C 1.0111 0.64099 0.35981 0.0
H370 H 0.99675 0.62453 0.27625 0.0
C371 C 0.87127 0.55291 0.30768 0.0
C372 C 0.86243 0.56804 0.28406 0.0
C373 C 0.90639 0.56959 0.31858 0.0
C374 C 1.00043 0.62918 0.29958 0.0
H375 H 0.13478 0.72707 0.40281 0.0
H376 H 0.07544 0.70533 0.38066 0.0
H377 H 0.05757 0.65103 0.29677 0.0
H378 H 0.88368 0.61207 0.2529 0.0
H379 H 0.94553 0.64078 0.27158 0.0
H380 H 0.95391 0.61829 0.36274 0.0
C381 C 0.09097 0.69268 0.37458 0.0
C382 C 0.03512 0.64413 0.31133 0.0
C383 C 0.12497 0.70519 0.38715 0.0
C384 C 0.88969 0.5998 0.27113 0.0
C385 C 0.92504 0.61617 0.28175 0.0
C386 C 0.97637 0.62548 0.34814 0.0
C387 C 0.07725 0.66423 0.35427 0.0
C388 C 0.04077 0.65004 0.34157 0.0
C389 C 0.9336 0.60145 0.30584 0.0
C390 C 0.97067 0.61924 0.31793 0.0
H391 H 0.14702 0.64759 0.35364 0.0
H392 H 0.08808 0.62636 0.33137 0.0
H393 H 0.01465 0.64503 0.38321 0.0
H394 H 0.85089 0.52853 0.31819 0.0
H395 H 0.91233 0.55746 0.33697 0.0
C396 C 0.54458 0.32577 0.51091 0.0
C397 C 0.55475 0.29958 0.51568 0.0
C398 C 0.56143 0.35197 0.48905 0.0
C399 C 0.6471 0.39646 0.44853 0.0
H400 H 0.5988 0.42731 0.39382 0.0
C401 C 0.70951 0.46079 0.33955 0.0
C402 C 0.70554 0.48919 0.32864 0.0
C403 C 0.6919 0.44293 0.365 0.0
C404 C 0.61269 0.41938 0.40929 0.0
H405 H 0.58854 0.27874 0.49983 0.0
H406 H 0.61714 0.32361 0.46173 0.0
H407 H 0.56393 0.38367 0.4322 0.0
H408 H 0.6821 0.52299 0.33637 0.0
H409 H 0.65023 0.49098 0.38122 0.0
H410 H 0.69552 0.43103 0.42529 0.0
C411 C 0.59706 0.32475 0.47534 0.0
C412 C 0.59274 0.39437 0.4312 0.0
C413 C 0.58045 0.29885 0.49709 0.0
C414 C 0.68501 0.50074 0.34432 0.0
C415 C 0.6668 0.48242 0.36979 0.0
C416 C 0.66687 0.42115 0.42669 0.0
C417 C 0.58865 0.35232 0.47165 0.0
C418 C 0.60963 0.38181 0.45045 0.0
C419 C 0.66995 0.45315 0.38024 0.0
C420 C 0.64975 0.43199 0.40623 0.0
H421 H 0.52492 0.3271 0.52493 0.0
H422 H 0.5543 0.37281 0.48662 0.0
H423 H 0.66111 0.38817 0.46359 0.0
H424 H 0.72579 0.45191 0.32803 0.0
H425 H 0.69455 0.42025 0.37222 0.0
C426 C 0.26651 0.70134 0.49436 0.0
C427 C 0.23432 0.70073 0.48776 0.0
C428 C 0.26886 0.68312 0.51871 0.0
C429 C 0.21362 0.61283 0.57369 0.0
H430 H 0.30553 0.65502 0.61355 0.0
C431 C 0.24577 0.53942 0.66682 0.0
C432 C 0.27008 0.5614 0.6885 0.0
C433 C 0.23859 0.55503 0.64258 0.0
C434 C 0.27941 0.64295 0.6031 0.0
H435 H 0.18011 0.68321 0.50238 0.0
H436 H 0.18426 0.65171 0.54583 0.0
H437 H 0.29826 0.68609 0.57252 0.0
H438 H 0.30402 0.61677 0.70269 0.0
H439 H 0.29004 0.64351 0.66205 0.0
H440 H 0.19446 0.57044 0.60556 0.0
C441 C 0.20731 0.66504 0.53147 0.0
C442 C 0.27543 0.66056 0.57903 0.0
C443 C 0.20496 0.68325 0.50682 0.0
C444 C 0.28558 0.599 0.68622 0.0
C445 C 0.2778 0.61442 0.6626 0.0
C446 C 0.21745 0.59538 0.59826 0.0
C447 C 0.23932 0.66461 0.53763 0.0
C448 C 0.24261 0.64576 0.56384 0.0
C449 C 0.25512 0.59285 0.63994 0.0
C450 C 0.25042 0.61036 0.61338 0.0
H451 H 0.28986 0.71559 0.48038 0.0
H452 H 0.2938 0.68308 0.52232 0.0
H453 H 0.18809 0.60034 0.56228 0.0
H454 H 0.2334 0.51034 0.66804 0.0
H455 H 0.22106 0.53751 0.62554 0.0
C456 C 0.73133 0.29248 0.82621 0.0
C457 C 0.72812 0.26547 0.84549 0.0
C458 C 0.70666 0.28434 0.80363 0.0
C459 C 0.63543 0.21167 0.75941 0.0
H460 H 0.60383 0.28185 0.75109 0.0
C461 C 0.52652 0.1971 0.67531 0.0
C462 C 0.53758 0.22815 0.65828 0.0
C463 C 0.54651 0.19832 0.7 0.0
C464 C 0.6124 0.26203 0.75308 0.0
H465 H 0.69756 0.20825 0.85516 0.0
H466 H 0.65399 0.19398 0.81548 0.0
H467 H 0.64646 0.28959 0.78934 0.0
H468 H 0.57576 0.28525 0.65465 0.0
H469 H 0.61043 0.2876 0.69757 0.0
H470 H 0.60129 0.18434 0.72276 0.0
C471 C 0.67582 0.22147 0.81793 0.0
C472 C 0.63696 0.26652 0.77492 0.0
C473 C 0.70079 0.22963 0.8406 0.0
C474 C 0.56728 0.2608 0.66717 0.0
C475 C 0.58687 0.26217 0.69189 0.0
C476 C 0.61063 0.20709 0.73748 0.0
C477 C 0.6779 0.24902 0.79981 0.0
C478 C 0.64949 0.24195 0.7779 0.0
C479 C 0.57707 0.2309 0.70837 0.0
C480 C 0.59958 0.23276 0.73369 0.0
H481 H 0.75239 0.32027 0.82906 0.0
H482 H 0.70966 0.30601 0.78952 0.0
H483 H 0.64456 0.19227 0.76118 0.0
H484 H 0.50322 0.17179 0.669 0.0
H485 H 0.53815 0.1739 0.71248 0.0
C486 C 0.31696 0.55996 0.83857 0.0
C487 C 0.3206 0.53121 0.82802 0.0
C488 C 0.33469 0.57806 0.86394 0.0
C489 C 0.4136 0.60116 0.90863 0.0
H490 H 0.36561 0.63314 0.96265 0.0
C491 C 0.48199 0.69354 0.01078 0.0
C492 C 0.47227 0.72002 0.01576 0.0
C493 C 0.46495 0.66762 0.98874 0.0
C494 C 0.37952 0.62466 0.94767 0.0
H495 H 0.34349 0.49704 0.83632 0.0
H496 H 0.37554 0.52946 0.88099 0.0
H497 H 0.33113 0.5907 0.92412 0.0
H498 H 0.43906 0.74165 1.00013 0.0
H499 H 0.41016 0.6973 0.96171 0.0
H500 H 0.46234 0.63622 0.93186 0.0
C501 C 0.35918 0.53813 0.86934 0.0
C502 C 0.3597 0.6002 0.92568 0.0
C503 C 0.34088 0.51958 0.84397 0.0
C504 C 0.44679 0.7213 0.99723 0.0
C505 C 0.43001 0.69569 0.9753 0.0
C506 C 0.43361 0.62593 0.93067 0.0
C507 C 0.35639 0.56773 0.87943 0.0
C508 C 0.37666 0.58901 0.90537 0.0
C509 C 0.43799 0.66786 0.97135 0.0
C510 C 0.41689 0.63874 0.94987 0.0
H511 H 0.30085 0.56889 0.82684 0.0
H512 H 0.33229 0.60097 0.8709 0.0
H513 H 0.42738 0.59298 0.89325 0.0
H514 H 0.50147 0.6918 0.02474 0.0
H515 H 0.47175 0.64657 0.98614 0.0
C516 C 0.7602 0.31509 0.99715 0.0
C517 C 0.79252 0.31617 0.99024 0.0
C518 C 0.75771 0.33274 0.02184 0.0
C519 C 0.81309 0.40301 0.07673 0.0
H520 H 0.72129 0.36104 0.11667 0.0
C521 C 0.78122 0.47758 0.16889 0.0
C522 C 0.75674 0.45598 0.1906 0.0
C523 C 0.78836 0.46156 0.14493 0.0
C524 C 0.7474 0.37305 0.10622 0.0
H525 H 0.84681 0.33371 1.00471 0.0
H526 H 0.84246 0.36425 0.04872 0.0
H527 H 0.72852 0.32966 0.07585 0.0
H528 H 0.72244 0.40086 0.20517 0.0
H529 H 0.73641 0.37338 0.16505 0.0
H530 H 0.8323 0.44568 0.10835 0.0
C531 C 0.81938 0.35099 0.03436 0.0
C532 C 0.75135 0.35524 0.08227 0.0
C533 C 0.82185 0.33333 0.00939 0.0
C534 C 0.74103 0.41834 0.18866 0.0
C535 C 0.7488 0.40249 0.16534 0.0
C536 C 0.80931 0.42064 0.10118 0.0
C537 C 0.7873 0.35117 0.04075 0.0
C538 C 0.78411 0.37 0.06702 0.0
C539 C 0.77166 0.42368 0.14262 0.0
C540 C 0.77637 0.40578 0.11632 0.0
H541 H 0.73688 0.30106 0.98309 0.0
H542 H 0.73271 0.33256 0.02564 0.0
H543 H 0.83858 0.41548 0.06527 0.0
H544 H 0.79372 0.50669 0.16984 0.0
H545 H 0.806 0.47881 0.12784 0.0
C546 C 0.32869 0.79205 0.34043 0.0
C547 C 0.30084 0.75623 0.34439 0.0
C548 C 0.35414 0.80062 0.31807 0.0
C549 C 0.39318 0.75591 0.27515 0.0
H550 H 0.42973 0.83813 0.22299 0.0
C551 C 0.46206 0.76023 0.16751 0.0
C552 C 0.49183 0.79264 0.15832 0.0
C553 C 0.44284 0.75931 0.19232 0.0
C554 C 0.42017 0.81538 0.23773 0.0
H555 H 0.27612 0.70202 0.32659 0.0
H556 H 0.31975 0.71699 0.28769 0.0
H557 H 0.38638 0.83057 0.26123 0.0
H558 H 0.52669 0.84905 0.16863 0.0
H559 H 0.49241 0.84775 0.21229 0.0
H560 H 0.42612 0.74017 0.25155 0.0
C561 C 0.32273 0.73829 0.30225 0.0
C562 C 0.39533 0.81102 0.25955 0.0
C563 C 0.29758 0.72976 0.32447 0.0
C564 C 0.50334 0.82392 0.17516 0.0
C565 C 0.48372 0.82316 0.19996 0.0
C566 C 0.4178 0.7602 0.25346 0.0
C567 C 0.35201 0.77348 0.2994 0.0
C568 C 0.38087 0.78067 0.27796 0.0
C569 C 0.45309 0.79082 0.20863 0.0
C570 C 0.43088 0.78943 0.23402 0.0
H571 H 0.33194 0.81301 0.35549 0.0
H572 H 0.37636 0.82801 0.31631 0.0
H573 H 0.38332 0.73276 0.28952 0.0
H574 H 0.45323 0.73561 0.15513 0.0
H575 H 0.41921 0.73406 0.1982 0.0
loop_
_geom_bond_atom_site_label_1
_geom_bond_atom_site_label_2
_geom_bond_distance
_geom_bond_site_symmetry_2
_ccdc_geom_bond_type
Mn0 O5 2.095 . S
Mn0 O15 2.162 . S
Mn0 O16 2.297 . S
Mn0 O24 2.385 . S
Mn0 O25 2.209 . S
Mn0 O26 2.094 . S
Mn1 O6 2.121 . S
Mn1 N8 2.257 . S
Mn1 N17 2.282 . S
Mn1 O25 2.215 . S
Mn1 O27 2.117 . S
C2 O24 1.234 . S
C2 O25 1.283 . S
C3 O15 1.281 . S
C3 O16 1.236 . S
C4 O26 1.240 . S
C4 O27 1.264 . S
O5 Mn0 2.095 . S
O5 C14 1.250 . S
O6 Mn1 2.121 . S
O6 C14 1.258 . S
C7 N8 1.326 . S
C7 C11 1.460 . S
C7 H13 0.929 . S
N8 Mn1 2.257 . S
N8 C7 1.326 . S
N8 C12 1.362 . S
C9 C10 1.258 . S
C9 C12 1.431 . S
C9 C29 1.449 . S
C10 C9 1.258 . S
C10 C11 1.477 . S
C10 H30 0.931 . S
C11 C7 1.460 . S
C11 C10 1.477 . S
C11 H31 0.930 . S
C12 N8 1.362 . S
C12 C9 1.431 . S
C12 C22 1.476 . S
H13 C7 0.929 . S
C14 O5 1.250 . S
C14 O6 1.258 . S
O15 Mn0 2.162 . S
O15 C3 1.281 . S
O16 Mn0 2.297 . S
O16 C3 1.236 . S
N17 Mn1 2.282 . S
N17 C18 1.328 . S
N17 C22 1.318 . S
C18 N17 1.328 . S
C18 C19 1.457 . S
C18 H23 0.929 . S
C19 C18 1.457 . S
C19 C20 1.291 . S
C19 H32 0.931 . S
C20 C19 1.291 . S
C20 C21 1.373 . S
C20 H33 0.929 . S
C21 C20 1.373 . S
C21 C22 1.396 . S
C21 C28 1.403 . S
C22 C12 1.476 . S
C22 N17 1.318 . S
C22 C21 1.396 . S
H23 C18 0.929 . S
O24 Mn0 2.385 . S
O24 C2 1.234 . S
O25 Mn0 2.209 . S
O25 Mn1 2.215 . S
O25 C2 1.283 . S
O26 Mn0 2.094 . S
O26 C4 1.240 . S
O27 Mn1 2.117 . S
O27 C4 1.264 . S
C28 C21 1.403 . S
C28 C29 1.399 . S
C28 H34 0.929 . S
C29 C9 1.449 . S
C29 C28 1.399 . S
C29 H35 0.930 . S
H30 C10 0.931 . S
H31 C11 0.930 . S
H32 C19 0.931 . S
H33 C20 0.929 . S
H34 C28 0.929 . S
H35 C29 0.930 . S
Mn36 O41 2.095 . S
Mn36 O51 2.162 . S
Mn36 O52 2.297 . S
Mn36 O60 2.385 . S
Mn36 O61 2.209 . S
Mn36 O62 2.094 . S
Mn37 O42 2.121 . S
Mn37 N44 2.257 . S
Mn37 N53 2.282 . S
Mn37 O61 2.215 . S
Mn37 O63 2.117 . S
C38 O60 1.234 . S
C38 O61 1.283 . S
C39 O51 1.281 . S
C39 O52 1.236 . S
C40 O62 1.240 . S
C40 O63 1.264 . S
O41 Mn36 2.095 . S
O41 C50 1.250 . S
O42 Mn37 2.121 . S
O42 C50 1.258 . S
C43 N44 1.326 . S
C43 C47 1.460 . S
C43 H49 0.929 . S
N44 Mn37 2.257 . S
N44 C43 1.326 . S
N44 C48 1.362 . S
C45 C46 1.258 . S
C45 C48 1.431 . S
C45 C65 1.449 . S
C46 C45 1.258 . S
C46 C47 1.477 . S
C46 H66 0.931 . S
C47 C43 1.460 . S
C47 C46 1.477 . S
C47 H67 0.930 . S
C48 N44 1.362 . S
C48 C45 1.431 . S
C48 C58 1.476 . S
H49 C43 0.929 . S
C50 O41 1.250 . S
C50 O42 1.258 . S
O51 Mn36 2.162 . S
O51 C39 1.281 . S
O52 Mn36 2.297 . S
O52 C39 1.236 . S
N53 Mn37 2.282 . S
N53 C54 1.328 . S
N53 C58 1.318 . S
C54 N53 1.328 . S
C54 C55 1.457 . S
C54 H59 0.929 . S
C55 C54 1.457 . S
C55 C56 1.291 . S
C55 H68 0.931 . S
C56 C55 1.291 . S
C56 C57 1.373 . S
C56 H69 0.929 . S
C57 C56 1.373 . S
C57 C58 1.396 . S
C57 C64 1.403 . S
C58 C48 1.476 . S
C58 N53 1.318 . S
C58 C57 1.396 . S
H59 C54 0.929 . S
O60 Mn36 2.385 . S
O60 C38 1.234 . S
O61 Mn36 2.209 . S
O61 Mn37 2.215 . S
O61 C38 1.283 . S
O62 Mn36 2.094 . S
O62 C40 1.240 . S
O63 Mn37 2.117 . S
O63 C40 1.264 . S
C64 C57 1.403 . S
C64 C65 1.399 . S
C64 H70 0.929 . S
C65 C45 1.449 . S
C65 C64 1.399 . S
C65 H71 0.930 . S
H66 C46 0.931 . S
H67 C47 0.930 . S
H68 C55 0.931 . S
H69 C56 0.929 . S
H70 C64 0.929 . S
H71 C65 0.930 . S
Mn72 O77 2.095 . S
Mn72 O87 2.162 . S
Mn72 O88 2.297 . S
Mn72 O96 2.385 . S
Mn72 O97 2.209 . S
Mn72 O98 2.094 . S
Mn73 O78 2.121 . S
Mn73 N80 2.257 . S
Mn73 N89 2.282 . S
Mn73 O97 2.215 . S
Mn73 O99 2.117 . S
C74 O96 1.234 . S
C74 O97 1.283 . S
C75 O87 1.281 . S
C75 O88 1.236 . S
C76 O98 1.240 . S
C76 O99 1.264 . S
O77 Mn72 2.095 . S
O77 C86 1.250 . S
O78 Mn73 2.121 . S
O78 C86 1.258 . S
C79 N80 1.326 . S
C79 C83 1.460 . S
C79 H85 0.929 . S
N80 Mn73 2.257 . S
N80 C79 1.326 . S
N80 C84 1.362 . S
C81 C82 1.258 . S
C81 C84 1.431 . S
C81 C101 1.449 . S
C82 C81 1.258 . S
C82 C83 1.477 . S
C82 H102 0.931 . S
C83 C79 1.460 . S
C83 C82 1.477 . S
C83 H103 0.930 . S
C84 N80 1.362 . S
C84 C81 1.431 . S
C84 C94 1.476 . S
H85 C79 0.929 . S
C86 O77 1.250 . S
C86 O78 1.258 . S
O87 Mn72 2.162 . S
O87 C75 1.281 . S
O88 Mn72 2.297 . S
O88 C75 1.236 . S
N89 Mn73 2.282 . S
N89 C90 1.328 . S
N89 C94 1.318 . S
C90 N89 1.328 . S
C90 C91 1.457 . S
C90 H95 0.929 . S
C91 C90 1.457 . S
C91 C92 1.291 . S
C91 H104 0.931 . S
C92 C91 1.291 . S
C92 C93 1.373 . S
C92 H105 0.929 . S
C93 C92 1.373 . S
C93 C94 1.396 . S
C93 C100 1.403 . S
C94 C84 1.476 . S
C94 N89 1.318 . S
C94 C93 1.396 . S
H95 C90 0.929 . S
O96 Mn72 2.385 . S
O96 C74 1.234 . S
O97 Mn72 2.209 . S
O97 Mn73 2.215 . S
O97 C74 1.283 . S
O98 Mn72 2.094 . S
O98 C76 1.240 . S
O99 Mn73 2.117 . S
O99 C76 1.264 . S
C100 C93 1.403 . S
C100 C101 1.399 . S
C100 H106 0.929 . S
C101 C81 1.449 . S
C101 C100 1.399 . S
C101 H107 0.930 . S
H102 C82 0.931 . S
H103 C83 0.930 . S
H104 C91 0.931 . S
H105 C92 0.929 . S
H106 C100 0.929 . S
H107 C101 0.930 . S
Mn108 O113 2.095 . S
Mn108 O123 2.162 . S
Mn108 O124 2.297 . S
Mn108 O132 2.385 . S
Mn108 O133 2.209 . S
Mn108 O134 2.094 . S
Mn109 O114 2.121 . S
Mn109 N116 2.257 . S
Mn109 N125 2.282 . S
Mn109 O133 2.215 . S
Mn109 O135 2.117 . S
C110 O132 1.234 . S
C110 O133 1.283 . S
C111 O123 1.281 . S
C111 O124 1.236 . S
C112 O134 1.240 . S
C112 O135 1.264 . S
O113 Mn108 2.095 . S
O113 C122 1.250 . S
O114 Mn109 2.121 . S
O114 C122 1.258 . S
C115 N116 1.326 . S
C115 C119 1.460 . S
C115 H121 0.929 . S
N116 Mn109 2.257 . S
N116 C115 1.326 . S
N116 C120 1.362 . S
C117 C118 1.258 . S
C117 C120 1.431 . S
C117 C137 1.449 . S
C118 C117 1.258 . S
C118 C119 1.477 . S
C118 H138 0.931 . S
C119 C115 1.460 . S
C119 C118 1.477 . S
C119 H139 0.930 . S
C120 N116 1.362 . S
C120 C117 1.431 . S
C120 C130 1.476 . S
H121 C115 0.929 . S
C122 O113 1.250 . S
C122 O114 1.258 . S
O123 Mn108 2.162 . S
O123 C111 1.281 . S
O124 Mn108 2.297 . S
O124 C111 1.236 . S
N125 Mn109 2.282 . S
N125 C126 1.328 . S
N125 C130 1.318 . S
C126 N125 1.328 . S
C126 C127 1.457 . S
C126 H131 0.929 . S
C127 C126 1.457 . S
C127 C128 1.291 . S
C127 H140 0.931 . S
C128 C127 1.291 . S
C128 C129 1.373 . S
C128 H141 0.929 . S
C129 C128 1.373 . S
C129 C130 1.396 . S
C129 C136 1.403 . S
C130 C120 1.476 . S
C130 N125 1.318 . S
C130 C129 1.396 . S
H131 C126 0.929 . S
O132 Mn108 2.385 . S
O132 C110 1.234 . S
O133 Mn108 2.209 . S
O133 Mn109 2.215 . S
O133 C110 1.283 . S
O134 Mn108 2.094 . S
O134 C112 1.240 . S
O135 Mn109 2.117 . S
O135 C112 1.264 . S
C136 C129 1.403 . S
C136 C137 1.399 . S
C136 H142 0.929 . S
C137 C117 1.449 . S
C137 C136 1.399 . S
C137 H143 0.930 . S
H138 C118 0.931 . S
H139 C119 0.930 . S
H140 C127 0.931 . S
H141 C128 0.929 . S
H142 C136 0.929 . S
H143 C137 0.930 . S
Mn144 O149 2.095 . S
Mn144 O159 2.162 . S
Mn144 O160 2.297 . S
Mn144 O168 2.385 . S
Mn144 O169 2.209 . S
Mn144 O170 2.094 . S
Mn145 O150 2.121 . S
Mn145 N152 2.257 . S
Mn145 N161 2.282 . S
Mn145 O169 2.215 . S
Mn145 O171 2.117 . S
C146 O168 1.234 . S
C146 O169 1.283 . S
C147 O159 1.281 . S
C147 O160 1.236 . S
C148 O170 1.240 . S
C148 O171 1.264 . S
O149 Mn144 2.095 . S
O149 C158 1.250 . S
O150 Mn145 2.121 . S
O150 C158 1.258 . S
C151 N152 1.326 . S
C151 C155 1.460 . S
C151 H157 0.929 . S
N152 Mn145 2.257 . S
N152 C151 1.326 . S
N152 C156 1.362 . S
C153 C154 1.258 . S
C153 C156 1.431 . S
C153 C173 1.449 . S
C154 C153 1.258 . S
C154 C155 1.477 . S
C154 H174 0.931 . S
C155 C151 1.460 . S
C155 C154 1.477 . S
C155 H175 0.930 . S
C156 N152 1.362 . S
C156 C153 1.431 . S
C156 C166 1.476 . S
H157 C151 0.929 . S
C158 O149 1.250 . S
C158 O150 1.258 . S
O159 Mn144 2.162 . S
O159 C147 1.281 . S
O160 Mn144 2.297 . S
O160 C147 1.236 . S
N161 Mn145 2.282 . S
N161 C162 1.328 . S
N161 C166 1.318 . S
C162 N161 1.328 . S
C162 C163 1.457 . S
C162 H167 0.929 . S
C163 C162 1.457 . S
C163 C164 1.291 . S
C163 H176 0.931 . S
C164 C163 1.291 . S
C164 C165 1.373 . S
C164 H177 0.929 . S
C165 C164 1.373 . S
C165 C166 1.396 . S
C165 C172 1.403 . S
C166 C156 1.476 . S
C166 N161 1.318 . S
C166 C165 1.396 . S
H167 C162 0.929 . S
O168 Mn144 2.385 . S
O168 C146 1.234 . S
O169 Mn144 2.209 . S
O169 Mn145 2.215 . S
O169 C146 1.283 . S
O170 Mn144 2.094 . S
O170 C148 1.240 . S
O171 Mn145 2.117 . S
O171 C148 1.264 . S
C172 C165 1.403 . S
C172 C173 1.399 . S
C172 H178 0.929 . S
C173 C153 1.449 . S
C173 C172 1.399 . S
C173 H179 0.930 . S
H174 C154 0.931 . S
H175 C155 0.930 . S
H176 C163 0.931 . S
H177 C164 0.929 . S
H178 C172 0.929 . S
H179 C173 0.930 . S
Mn180 O185 2.095 . S
Mn180 O195 2.162 . S
Mn180 O196 2.297 . S
Mn180 O204 2.385 . S
Mn180 O205 2.209 . S
Mn180 O206 2.094 . S
Mn181 O186 2.121 . S
Mn181 N188 2.257 . S
Mn181 N197 2.282 . S
Mn181 O205 2.215 . S
Mn181 O207 2.117 . S
C182 O204 1.234 . S
C182 O205 1.283 . S
C183 O195 1.281 . S
C183 O196 1.236 . S
C184 O206 1.240 . S
C184 O207 1.264 . S
O185 Mn180 2.095 . S
O185 C194 1.250 . S
O186 Mn181 2.121 . S
O186 C194 1.258 . S
C187 N188 1.326 . S
C187 C191 1.460 . S
C187 H193 0.929 . S
N188 Mn181 2.257 . S
N188 C187 1.326 . S
N188 C192 1.362 . S
C189 C190 1.258 . S
C189 C192 1.431 . S
C189 C209 1.449 . S
C190 C189 1.258 . S
C190 C191 1.477 . S
C190 H210 0.931 . S
C191 C187 1.460 . S
C191 C190 1.477 . S
C191 H211 0.930 . S
C192 N188 1.362 . S
C192 C189 1.431 . S
C192 C202 1.476 . S
H193 C187 0.929 . S
C194 O185 1.250 . S
C194 O186 1.258 . S
O195 Mn180 2.162 . S
O195 C183 1.281 . S
O196 Mn180 2.297 . S
O196 C183 1.236 . S
N197 Mn181 2.282 . S
N197 C198 1.328 . S
N197 C202 1.318 . S
C198 N197 1.328 . S
C198 C199 1.457 . S
C198 H203 0.929 . S
C199 C198 1.457 . S
C199 C200 1.291 . S
C199 H212 0.931 . S
C200 C199 1.291 . S
C200 C201 1.373 . S
C200 H213 0.929 . S
C201 C200 1.373 . S
C201 C202 1.396 . S
C201 C208 1.403 . S
C202 C192 1.476 . S
C202 N197 1.318 . S
C202 C201 1.396 . S
H203 C198 0.929 . S
O204 Mn180 2.385 . S
O204 C182 1.234 . S
O205 Mn180 2.209 . S
O205 Mn181 2.215 . S
O205 C182 1.283 . S
O206 Mn180 2.094 . S
O206 C184 1.240 . S
O207 Mn181 2.117 . S
O207 C184 1.264 . S
C208 C201 1.403 . S
C208 C209 1.399 . S
C208 H214 0.929 . S
C209 C189 1.449 . S
C209 C208 1.399 . S
C209 H215 0.930 . S
H210 C190 0.931 . S
H211 C191 0.930 . S
H212 C199 0.931 . S
H213 C200 0.929 . S
H214 C208 0.929 . S
H215 C209 0.930 . S
C216 C217 1.349 . S
C216 C218 1.327 . S
C216 H241 0.950 . S
C217 C216 1.349 . S
C217 C233 1.349 . S
C218 C216 1.327 . S
C218 C237 1.429 . S
C218 H242 0.950 . S
C219 C236 1.574 1_545 S
C219 C238 1.368 . S
C219 H243 0.949 . S
H220 C224 0.949 . S
C221 C222 1.349 . S
C221 C223 1.327 . S
C221 H244 0.950 . S
C222 C221 1.349 . S
C222 C234 1.349 . S
C223 C221 1.327 . S
C223 C239 1.429 . S
C223 H245 0.950 . S
C224 H220 0.949 . S
C224 C232 1.574 1_565 S
C224 C240 1.368 . S
H225 C233 0.950 . S
H226 C231 0.950 . S
H227 C232 0.949 . S
H228 C234 0.950 . S
H229 C235 0.950 . S
H230 C236 0.949 . S
C231 H226 0.950 . S
C231 C233 1.327 . S
C231 C237 1.429 . S
C232 C224 1.574 1_545 S
C232 H227 0.949 . S
C232 C238 1.368 . S
C233 C217 1.349 . S
C233 H225 0.950 . S
C233 C231 1.327 . S
C234 C222 1.349 . S
C234 H228 0.950 . S
C234 C235 1.327 . S
C235 H229 0.950 . S
C235 C234 1.327 . S
C235 C239 1.429 . S
C236 C219 1.574 1_565 S
C236 H230 0.949 . S
C236 C240 1.368 . S
C237 C218 1.429 . S
C237 C231 1.429 . S
C237 C238 1.523 . S
C238 C219 1.368 . S
C238 C232 1.368 . S
C238 C237 1.523 . S
C239 C223 1.429 . S
C239 C235 1.429 . S
C239 C240 1.523 . S
C240 C224 1.368 . S
C240 C236 1.368 . S
C240 C239 1.523 . S
H241 C216 0.950 . S
H242 C218 0.950 . S
H243 C219 0.949 . S
H244 C221 0.950 . S
H245 C223 0.950 . S
C246 C247 1.349 . S
C246 C248 1.327 . S
C246 H271 0.950 . S
C247 C246 1.349 . S
C247 C263 1.349 . S
C248 C246 1.327 . S
C248 C267 1.429 . S
C248 H272 0.950 . S
C249 C266 1.574 . S
C249 C268 1.368 . S
C249 H273 0.949 . S
H250 C254 0.949 . S
C251 C252 1.349 . S
C251 C253 1.327 . S
C251 H274 0.950 . S
C252 C251 1.349 . S
C252 C264 1.349 . S
C253 C251 1.327 . S
C253 C269 1.429 . S
C253 H275 0.950 . S
C254 H250 0.949 . S
C254 C262 1.574 . S
C254 C270 1.368 . S
H255 C263 0.950 . S
H256 C261 0.950 . S
H257 C262 0.949 . S
H258 C264 0.950 . S
H259 C265 0.950 . S
H260 C266 0.949 . S
C261 H256 0.950 . S
C261 C263 1.327 . S
C261 C267 1.429 . S
C262 C254 1.574 . S
C262 H257 0.949 . S
C262 C268 1.368 . S
C263 C247 1.349 . S
C263 H255 0.950 . S
C263 C261 1.327 . S
C264 C252 1.349 . S
C264 H258 0.950 . S
C264 C265 1.327 . S
C265 H259 0.950 . S
C265 C264 1.327 . S
C265 C269 1.429 . S
C266 C249 1.574 . S
C266 H260 0.949 . S
C266 C270 1.368 . S
C267 C248 1.429 . S
C267 C261 1.429 . S
C267 C268 1.523 . S
C268 C249 1.368 . S
C268 C262 1.368 . S
C268 C267 1.523 . S
C269 C253 1.429 . S
C269 C265 1.429 . S
C269 C270 1.523 . S
C270 C254 1.368 . S
C270 C266 1.368 . S
C270 C269 1.523 . S
H271 C246 0.950 . S
H272 C248 0.950 . S
H273 C249 0.949 . S
H274 C251 0.950 . S
H275 C253 0.950 . S
C276 C277 1.349 . S
C276 C278 1.327 . S
C276 H301 0.950 . S
C277 C276 1.349 . S
C277 C293 1.349 . S
C278 C276 1.327 . S
C278 C297 1.429 . S
C278 H302 0.950 . S
C279 C296 1.574 1_655 S
C279 C298 1.368 . S
C279 H303 0.949 . S
H280 C284 0.949 . S
C281 C282 1.349 . S
C281 C283 1.327 . S
C281 H304 0.950 . S
C282 C281 1.349 . S
C282 C294 1.349 . S
C283 C281 1.327 . S
C283 C299 1.429 . S
C283 H305 0.950 . S
C284 H280 0.949 . S
C284 C292 1.574 1_455 S
C284 C300 1.368 . S
H285 C293 0.950 . S
H286 C291 0.950 . S
H287 C292 0.949 . S
H288 C294 0.950 . S
H289 C295 0.950 . S
H290 C296 0.949 . S
C291 H286 0.950 . S
C291 C293 1.327 . S
C291 C297 1.429 . S
C292 C284 1.574 1_655 S
C292 H287 0.949 . S
C292 C298 1.368 . S
C293 C277 1.349 . S
C293 H285 0.950 . S
C293 C291 1.327 . S
C294 C282 1.349 . S
C294 H288 0.950 . S
C294 C295 1.327 . S
C295 H289 0.950 . S
C295 C294 1.327 . S
C295 C299 1.429 . S
C296 C279 1.574 1_455 S
C296 H290 0.949 . S
C296 C300 1.368 . S
C297 C278 1.429 . S
C297 C291 1.429 . S
C297 C298 1.523 . S
C298 C279 1.368 . S
C298 C292 1.368 . S
C298 C297 1.523 . S
C299 C283 1.429 . S
C299 C295 1.429 . S
C299 C300 1.523 . S
C300 C284 1.368 . S
C300 C296 1.368 . S
C300 C299 1.523 . S
H301 C276 0.950 . S
H302 C278 0.950 . S
H303 C279 0.949 . S
H304 C281 0.950 . S
H305 C283 0.950 . S
C306 C307 1.349 . S
C306 C308 1.327 . S
C306 H331 0.950 . S
C307 C306 1.349 . S
C307 C323 1.349 . S
C308 C306 1.327 . S
C308 C327 1.429 . S
C308 H332 0.950 1_554 S
C309 C326 1.574 1_565 S
C309 C328 1.368 . S
C309 H333 0.949 . S
H310 C314 0.949 . S
C311 C312 1.349 . S
C311 C313 1.327 . S
C311 H334 0.950 . S
C312 C311 1.349 . S
C312 C324 1.349 . S
C313 C311 1.327 . S
C313 C329 1.429 . S
C313 H335 0.950 1_556 S
C314 H310 0.949 . S
C314 C322 1.574 1_545 S
C314 C330 1.368 . S
H315 C323 0.950 . S
H316 C321 0.950 . S
H317 C322 0.949 . S
H318 C324 0.950 . S
H319 C325 0.950 . S
H320 C326 0.949 . S
C321 H316 0.950 . S
C321 C323 1.327 . S
C321 C327 1.429 . S
C322 C314 1.574 1_565 S
C322 H317 0.949 . S
C322 C328 1.368 1_556 S
C323 C307 1.349 . S
C323 H315 0.950 . S
C323 C321 1.327 . S
C324 C312 1.349 . S
C324 H318 0.950 . S
C324 C325 1.327 . S
C325 H319 0.950 . S
C325 C324 1.327 . S
C325 C329 1.429 . S
C326 C309 1.574 1_545 S
C326 H320 0.949 . S
C326 C330 1.368 1_554 S
C327 C308 1.429 . S
C327 C321 1.429 . S
C327 C328 1.523 . S
C328 C309 1.368 . S
C328 C322 1.368 1_554 S
C328 C327 1.523 . S
C329 C313 1.429 . S
C329 C325 1.429 . S
C329 C330 1.523 . S
C330 C314 1.368 . S
C330 C326 1.368 1_556 S
C330 C329 1.523 . S
H331 C306 0.950 . S
H332 C308 0.950 1_556 S
H333 C309 0.949 . S
H334 C311 0.950 . S
H335 C313 0.950 1_554 S
C336 C337 1.349 . S
C336 C338 1.327 . S
C336 H361 0.950 . S
C337 C336 1.349 . S
C337 C353 1.349 . S
C338 C336 1.327 . S
C338 C357 1.429 . S
C338 H362 0.950 . S
C339 C356 1.574 . S
C339 C358 1.368 . S
C339 H363 0.949 . S
H340 C344 0.949 . S
C341 C342 1.349 . S
C341 C343 1.327 . S
C341 H364 0.950 . S
C342 C341 1.349 . S
C342 C354 1.349 . S
C343 C341 1.327 . S
C343 C359 1.429 . S
C343 H365 0.950 . S
C344 H340 0.949 . S
C344 C352 1.574 . S
C344 C360 1.368 . S
H345 C353 0.950 . S
H346 C351 0.950 . S
H347 C352 0.949 . S
H348 C354 0.950 . S
H349 C355 0.950 . S
H350 C356 0.949 . S
C351 H346 0.950 . S
C351 C353 1.327 . S
C351 C357 1.429 . S
C352 C344 1.574 . S
C352 H347 0.949 . S
C352 C358 1.368 . S
C353 C337 1.349 . S
C353 H345 0.950 . S
C353 C351 1.327 . S
C354 C342 1.349 . S
C354 H348 0.950 . S
C354 C355 1.327 . S
C355 H349 0.950 . S
C355 C354 1.327 . S
C355 C359 1.429 . S
C356 C339 1.574 . S
C356 H350 0.949 . S
C356 C360 1.368 . S
C357 C338 1.429 . S
C357 C351 1.429 . S
C357 C358 1.523 . S
C358 C339 1.368 . S
C358 C352 1.368 . S
C358 C357 1.523 . S
C359 C343 1.429 . S
C359 C355 1.429 . S
C359 C360 1.523 . S
C360 C344 1.368 . S
C360 C356 1.368 . S
C360 C359 1.523 . S
H361 C336 0.950 . S
H362 C338 0.950 . S
H363 C339 0.949 . S
H364 C341 0.950 . S
H365 C343 0.950 . S
C366 C367 1.349 . S
C366 C368 1.327 . S
C366 H391 0.950 . S
C367 C366 1.349 . S
C367 C383 1.349 . S
C368 C366 1.327 . S
C368 C387 1.429 . S
C368 H392 0.950 . S
C369 C386 1.574 1_455 S
C369 C388 1.368 . S
C369 H393 0.949 . S
H370 C374 0.949 . S
C371 C372 1.349 . S
C371 C373 1.327 . S
C371 H394 0.950 . S
C372 C371 1.349 . S
C372 C384 1.349 . S
C373 C371 1.327 . S
C373 C389 1.429 . S
C373 H395 0.950 . S
C374 H370 0.949 . S
C374 C382 1.574 1_655 S
C374 C390 1.368 . S
H375 C383 0.950 . S
H376 C381 0.950 . S
H377 C382 0.949 . S
H378 C384 0.950 . S
H379 C385 0.950 . S
H380 C386 0.949 . S
C381 H376 0.950 . S
C381 C383 1.327 . S
C381 C387 1.429 . S
C382 C374 1.574 1_455 S
C382 H377 0.949 . S
C382 C388 1.368 . S
C383 C367 1.349 . S
C383 H375 0.950 . S
C383 C381 1.327 . S
C384 C372 1.349 . S
C384 H378 0.950 . S
C384 C385 1.327 . S
C385 H379 0.950 . S
C385 C384 1.327 . S
C385 C389 1.429 . S
C386 C369 1.574 1_655 S
C386 H380 0.949 . S
C386 C390 1.368 . S
C387 C368 1.429 . S
C387 C381 1.429 . S
C387 C388 1.523 . S
C388 C369 1.368 . S
C388 C382 1.368 . S
C388 C387 1.523 . S
C389 C373 1.429 . S
C389 C385 1.429 . S
C389 C390 1.523 . S
C390 C374 1.368 . S
C390 C386 1.368 . S
C390 C389 1.523 . S
H391 C366 0.950 . S
H392 C368 0.950 . S
H393 C369 0.949 . S
H394 C371 0.950 . S
H395 C373 0.950 . S
C396 C397 1.349 . S
C396 C398 1.327 . S
C396 H421 0.950 . S
C397 C396 1.349 . S
C397 C413 1.349 . S
C398 C396 1.327 . S
C398 C417 1.429 . S
C398 H422 0.950 . S
C399 C416 1.574 . S
C399 C418 1.368 . S
C399 H423 0.949 . S
H400 C404 0.949 . S
C401 C402 1.349 . S
C401 C403 1.327 . S
C401 H424 0.950 . S
C402 C401 1.349 . S
C402 C414 1.349 . S
C403 C401 1.327 . S
C403 C419 1.429 . S
C403 H425 0.950 . S
C404 H400 0.949 . S
C404 C412 1.574 . S
C404 C420 1.368 . S
H405 C413 0.950 . S
H406 C411 0.950 . S
H407 C412 0.949 . S
H408 C414 0.950 . S
H409 C415 0.950 . S
H410 C416 0.949 . S
C411 H406 0.950 . S
C411 C413 1.327 . S
C411 C417 1.429 . S
C412 C404 1.574 . S
C412 H407 0.949 . S
C412 C418 1.368 . S
C413 C397 1.349 . S
C413 H405 0.950 . S
C413 C411 1.327 . S
C414 C402 1.349 . S
C414 H408 0.950 . S
C414 C415 1.327 . S
C415 H409 0.950 . S
C415 C414 1.327 . S
C415 C419 1.429 . S
C416 C399 1.574 . S
C416 H410 0.949 . S
C416 C420 1.368 . S
C417 C398 1.429 . S
C417 C411 1.429 . S
C417 C418 1.523 . S
C418 C399 1.368 . S
C418 C412 1.368 . S
C418 C417 1.523 . S
C419 C403 1.429 . S
C419 C415 1.429 . S
C419 C420 1.523 . S
C420 C404 1.368 . S
C420 C416 1.368 . S
C420 C419 1.523 . S
H421 C396 0.950 . S
H422 C398 0.950 . S
H423 C399 0.949 . S
H424 C401 0.950 . S
H425 C403 0.950 . S
C426 C427 1.349 . S
C426 C428 1.327 . S
C426 H451 0.950 . S
C427 C426 1.349 . S
C427 C443 1.349 . S
C428 C426 1.327 . S
C428 C447 1.429 . S
C428 H452 0.950 . S
C429 C446 1.574 . S
C429 C448 1.368 . S
C429 H453 0.949 . S
H430 C434 0.949 . S
C431 C432 1.349 . S
C431 C433 1.327 . S
C431 H454 0.950 . S
C432 C431 1.349 . S
C432 C444 1.349 . S
C433 C431 1.327 . S
C433 C449 1.429 . S
C433 H455 0.950 . S
C434 H430 0.949 . S
C434 C442 1.574 . S
C434 C450 1.368 . S
H435 C443 0.950 . S
H436 C441 0.950 . S
H437 C442 0.949 . S
H438 C444 0.950 . S
H439 C445 0.950 . S
H440 C446 0.949 . S
C441 H436 0.950 . S
C441 C443 1.327 . S
C441 C447 1.429 . S
C442 C434 1.574 . S
C442 H437 0.949 . S
C442 C448 1.368 . S
C443 C427 1.349 . S
C443 H435 0.950 . S
C443 C441 1.327 . S
C444 C432 1.349 . S
C444 H438 0.950 . S
C444 C445 1.327 . S
C445 H439 0.950 . S
C445 C444 1.327 . S
C445 C449 1.429 . S
C446 C429 1.574 . S
C446 H440 0.949 . S
C446 C450 1.368 . S
C447 C428 1.429 . S
C447 C441 1.429 . S
C447 C448 1.523 . S
C448 C429 1.368 . S
C448 C442 1.368 . S
C448 C447 1.523 . S
C449 C433 1.429 . S
C449 C445 1.429 . S
C449 C450 1.523 . S
C450 C434 1.368 . S
C450 C446 1.368 . S
C450 C449 1.523 . S
H451 C426 0.950 . S
H452 C428 0.950 . S
H453 C429 0.949 . S
H454 C431 0.950 . S
H455 C433 0.950 . S
C456 C457 1.349 . S
C456 C458 1.327 . S
C456 H481 0.950 . S
C457 C456 1.349 . S
C457 C473 1.349 . S
C458 C456 1.327 . S
C458 C477 1.429 . S
C458 H482 0.950 . S
C459 C476 1.574 . S
C459 C478 1.368 . S
C459 H483 0.949 . S
H460 C464 0.949 . S
C461 C462 1.349 . S
C461 C463 1.327 . S
C461 H484 0.950 . S
C462 C461 1.349 . S
C462 C474 1.349 . S
C463 C461 1.327 . S
C463 C479 1.429 . S
C463 H485 0.950 . S
C464 H460 0.949 . S
C464 C472 1.574 . S
C464 C480 1.368 . S
H465 C473 0.950 . S
H466 C471 0.950 . S
H467 C472 0.949 . S
H468 C474 0.950 . S
H469 C475 0.950 . S
H470 C476 0.949 . S
C471 H466 0.950 . S
C471 C473 1.327 . S
C471 C477 1.429 . S
C472 C464 1.574 . S
C472 H467 0.949 . S
C472 C478 1.368 . S
C473 C457 1.349 . S
C473 H465 0.950 . S
C473 C471 1.327 . S
C474 C462 1.349 . S
C474 H468 0.950 . S
C474 C475 1.327 . S
C475 H469 0.950 . S
C475 C474 1.327 . S
C475 C479 1.429 . S
C476 C459 1.574 . S
C476 H470 0.949 . S
C476 C480 1.368 . S
C477 C458 1.429 . S
C477 C471 1.429 . S
C477 C478 1.523 . S
C478 C459 1.368 . S
C478 C472 1.368 . S
C478 C477 1.523 . S
C479 C463 1.429 . S
C479 C475 1.429 . S
C479 C480 1.523 . S
C480 C464 1.368 . S
C480 C476 1.368 . S
C480 C479 1.523 . S
H481 C456 0.950 . S
H482 C458 0.950 . S
H483 C459 0.949 . S
H484 C461 0.950 . S
H485 C463 0.950 . S
C486 C487 1.349 . S
C486 C488 1.327 . S
C486 H511 0.950 . S
C487 C486 1.349 . S
C487 C503 1.349 . S
C488 C486 1.327 . S
C488 C507 1.429 . S
C488 H512 0.950 . S
C489 C506 1.574 . S
C489 C508 1.368 . S
C489 H513 0.949 . S
H490 C494 0.949 . S
C491 C492 1.349 1_556 S
C491 C493 1.327 . S
C491 H514 0.950 1_556 S
C492 C491 1.349 1_554 S
C492 C504 1.349 . S
C493 C491 1.327 . S
C493 C509 1.429 . S
C493 H515 0.950 . S
C494 H490 0.949 . S
C494 C502 1.574 . S
C494 C510 1.368 . S
H495 C503 0.950 . S
H496 C501 0.950 . S
H497 C502 0.949 . S
H498 C504 0.950 . S
H499 C505 0.950 . S
H500 C506 0.949 . S
C501 H496 0.950 . S
C501 C503 1.327 . S
C501 C507 1.429 . S
C502 C494 1.574 . S
C502 H497 0.949 . S
C502 C508 1.368 . S
C503 C487 1.349 . S
C503 H495 0.950 . S
C503 C501 1.327 . S
C504 C492 1.349 . S
C504 H498 0.950 . S
C504 C505 1.327 1_554 S
C505 H499 0.950 . S
C505 C504 1.327 1_556 S
C505 C509 1.429 . S
C506 C489 1.574 . S
C506 H500 0.949 . S
C506 C510 1.368 . S
C507 C488 1.429 . S
C507 C501 1.429 . S
C507 C508 1.523 . S
C508 C489 1.368 . S
C508 C502 1.368 . S
C508 C507 1.523 . S
C509 C493 1.429 . S
C509 C505 1.429 . S
C509 C510 1.523 . S
C510 C494 1.368 . S
C510 C506 1.368 . S
C510 C509 1.523 . S
H511 C486 0.950 . S
H512 C488 0.950 . S
H513 C489 0.949 . S
H514 C491 0.950 1_554 S
H515 C493 0.950 . S
C516 C517 1.349 1_554 S
C516 C518 1.327 . S
C516 H541 0.950 . S
C517 C516 1.349 1_556 S
C517 C533 1.349 . S
C518 C516 1.327 . S
C518 C537 1.429 . S
C518 H542 0.950 . S
C519 C536 1.574 . S
C519 C538 1.368 . S
C519 H543 0.949 . S
H520 C524 0.949 . S
C521 C522 1.349 . S
C521 C523 1.327 . S
C521 H544 0.950 . S
C522 C521 1.349 . S
C522 C534 1.349 . S
C523 C521 1.327 . S
C523 C539 1.429 . S
C523 H545 0.950 . S
C524 H520 0.949 . S
C524 C532 1.574 . S
C524 C540 1.368 . S
H525 C533 0.950 . S
H526 C531 0.950 . S
H527 C532 0.949 . S
H528 C534 0.950 . S
H529 C535 0.950 . S
H530 C536 0.949 . S
C531 H526 0.950 . S
C531 C533 1.327 1_554 S
C531 C537 1.429 . S
C532 C524 1.574 . S
C532 H527 0.949 . S
C532 C538 1.368 . S
C533 C517 1.349 . S
C533 H525 0.950 . S
C533 C531 1.327 1_556 S
C534 C522 1.349 . S
C534 H528 0.950 . S
C534 C535 1.327 . S
C535 H529 0.950 . S
C535 C534 1.327 . S
C535 C539 1.429 . S
C536 C519 1.574 . S
C536 H530 0.949 . S
C536 C540 1.368 . S
C537 C518 1.429 . S
C537 C531 1.429 . S
C537 C538 1.523 . S
C538 C519 1.368 . S
C538 C532 1.368 . S
C538 C537 1.523 . S
C539 C523 1.429 . S
C539 C535 1.429 . S
C539 C540 1.523 . S
C540 C524 1.368 . S
C540 C536 1.368 . S
C540 C539 1.523 . S
H541 C516 0.950 . S
H542 C518 0.950 . S
H543 C519 0.949 . S
H544 C521 0.950 . S
H545 C523 0.950 . S
C546 C547 1.349 . S
C546 C548 1.327 . S
C546 H571 0.950 . S
C547 C546 1.349 . S
C547 C563 1.349 . S
C548 C546 1.327 . S
C548 C567 1.429 . S
C548 H572 0.950 . S
C549 C566 1.574 . S
C549 C568 1.368 . S
C549 H573 0.949 . S
H550 C554 0.949 . S
C551 C552 1.349 . S
C551 C553 1.327 . S
C551 H574 0.950 . S
C552 C551 1.349 . S
C552 C564 1.349 . S
C553 C551 1.327 . S
C553 C569 1.429 . S
C553 H575 0.950 . S
C554 H550 0.949 . S
C554 C562 1.574 . S
C554 C570 1.368 . S
H555 C563 0.950 . S
H556 C561 0.950 . S
H557 C562 0.949 . S
H558 C564 0.950 . S
H559 C565 0.950 . S
H560 C566 0.949 . S
C561 H556 0.950 . S
C561 C563 1.327 . S
C561 C567 1.429 . S
C562 C554 1.574 . S
C562 H557 0.949 . S
C562 C568 1.368 . S
C563 C547 1.349 . S
C563 H555 0.950 . S
C563 C561 1.327 . S
C564 C552 1.349 . S
C564 H558 0.950 . S
C564 C565 1.327 . S
C565 H559 0.950 . S
C565 C564 1.327 . S
C565 C569 1.429 . S
C566 C549 1.574 . S
C566 H560 0.949 . S
C566 C570 1.368 . S
C567 C548 1.429 . S
C567 C561 1.429 . S
C567 C568 1.523 . S
C568 C549 1.368 . S
C568 C562 1.368 . S
C568 C567 1.523 . S
C569 C553 1.429 . S
C569 C565 1.429 . S
C569 C570 1.523 . S
C570 C554 1.368 . S
C570 C566 1.368 . S
C570 C569 1.523 . S
H571 C546 0.950 . S
H572 C548 0.950 . S
H573 C549 0.949 . S
H574 C551 0.950 . S
H575 C553 0.950 . S
C217 C4 1.589 . S
C222 C183 1.592 . S
C247 C3 1.592 . S
C252 C40 1.589 . S
C277 C76 1.589 . S
C282 C39 1.592 . S
C307 C112 1.589 . S
C312 C75 1.592 . S
C337 C148 1.589 . S
C342 C111 1.592 . S
C367 C184 1.589 . S
C372 C147 1.592 . S
C397 C14 1.402 . S
C402 C146 1.453 . S
C427 C182 1.453 . S
C432 C50 1.402 . S
C457 C86 1.402 . S
C462 C2 1.453 . S
C487 C38 1.453 . S
C492 C122 1.402 . S
C517 C74 1.453 . S
C522 C158 1.402 . S
C547 C194 1.402 . S
C552 C110 1.453 . S
