# Generated by pormake.
# Topology rob, (6)-cn, num edge types: 1
# Building blocks:
#     Node 0, Type 0, BuildingBlock: CIFDUS_clean_sbu_1, # of connection points: 6
#     Node 1, Type 0, BuildingBlock: CIFDUS_clean_sbu_1, # of connection points: 6
#     Node 2, Type 0, BuildingBlock: CIFDUS_clean_sbu_1, # of connection points: 6
#     Node 3, Type 0, BuildingBlock: CIFDUS_clean_sbu_1, # of connection points: 6
#     Edge 4, Type (0, 0), BuildingBlock: ZUJKAS_clean_linker_0, # of connection points: 2
#     Edge 5, Type (0, 0), BuildingBlock: ZUJKAS_clean_linker_0, # of connection points: 2
#     Edge 6, Type (0, 0), BuildingBlock: ZUJKAS_clean_linker_0, # of connection points: 2
#     Edge 7, Type (0, 0), BuildingBlock: ZUJKAS_clean_linker_0, # of connection points: 2
#     Edge 8, Type (0, 0), BuildingBlock: ZUJKAS_clean_linker_0, # of connection points: 2
#     Edge 9, Type (0, 0), BuildingBlock: ZUJKAS_clean_linker_0, # of connection points: 2
#     Edge 10, Type (0, 0), BuildingBlock: ZUJKAS_clean_linker_0, # of connection points: 2
#     Edge 11, Type (0, 0), BuildingBlock: ZUJKAS_clean_linker_0, # of connection points: 2
#     Edge 12, Type (0, 0), BuildingBlock: ZUJKAS_clean_linker_0, # of connection points: 2
#     Edge 13, Type (0, 0), BuildingBlock: ZUJKAS_clean_linker_0, # of connection points: 2
#     Edge 14, Type (0, 0), BuildingBlock: ZUJKAS_clean_linker_0, # of connection points: 2
#     Edge 15, Type (0, 0), BuildingBlock: ZUJKAS_clean_linker_0, # of connection points: 2
# Relax obj value: 0.211
# Max RMSD: 0.229
# Mean RMSD: 0.229
data_MOF--net-rob--node1-CIFDUS_clean_sbu_1--edge1-ZUJKAS_clean_linker_0
_symmetry_space_group_name_H-M    P1
_symmetry_Int_Tables_number       1
_symmetry_cell_setting            triclinic
loop_
_symmetry_equiv_pos_as_xyz
'x, y, z'
_cell_length_a     19.850266
_cell_length_b     33.265527
_cell_length_c     33.787596
_cell_angle_alpha  108.27934
_cell_angle_beta   90.405509
_cell_angle_gamma 90.082449
loop_
_atom_site_label
_atom_site_type_symbol
_atom_site_fract_x
_atom_site_fract_y
_atom_site_fract_z
_atom_type_partial_charge
O0 O 0.17693 0.27143 0.94024 0.0
Mn1 Mn 0.2316 0.2729 0.9935 0.0
O2 O 0.20717 0.20924 0.89341 0.0
Mn3 Mn 0.26169 0.18891 0.92781 0.0
O4 O 0.28661 0.27415 0.04652 0.0
O5 O 0.23816 0.33718 0.00972 0.0
Mn6 Mn 0.20357 0.35709 0.05988 0.0
O7 O 0.14266 0.27336 0.02735 0.0
O8 O 0.25974 0.33689 0.0936 0.0
O9 O 0.32041 0.2726 0.95968 0.0
O10 O 0.3504 0.20544 0.93146 0.0
O11 O 0.22836 0.40406 0.0467 0.0
O12 O 0.11485 0.34074 0.05764 0.0
C13 C 0.2124 0.16913 0.97357 0.0
C14 C 0.17476 0.24417 0.90353 0.0
C15 C 0.29092 0.30154 0.08305 0.0
C16 C 0.25109 0.37656 0.01327 0.0
C17 C 0.10156 0.30162 0.04861 0.0
C18 C 0.36258 0.24455 0.93941 0.0
O19 O 0.22507 0.2086 0.97739 0.0
O20 O 0.23628 0.14177 0.94043 0.0
O21 O 0.67581 0.77032 0.94071 0.0
Mn22 Mn 0.72966 0.77379 -0.00512 0.0
O23 O 0.71201 0.70974 0.89358 0.0
Mn24 Mn 0.77064 0.69167 0.92784 0.0
O25 O 0.78351 0.77729 0.04909 0.0
O26 O 0.72628 0.83783 0.01249 0.0
Mn27 Mn 0.68862 0.8559 0.06184 0.0
O28 O 0.641 0.76862 0.02672 0.0
O29 O 0.74721 0.8379 0.09617 0.0
O30 O 0.81823 0.77892 0.963 0.0
O31 O 0.8566 0.71368 0.93251 0.0
O32 O 0.7088 0.90382 0.04846 0.0
O33 O 0.60265 0.83391 0.05702 0.0
C34 C 0.72364 0.67025 0.97394 0.0
C35 C 0.67604 0.7433 0.90384 0.0
C36 C 0.78324 0.80437 0.08594 0.0
C37 C 0.73563 0.87738 0.01582 0.0
C38 C 0.59562 0.79407 0.04725 0.0
C39 C 0.86351 0.75352 0.94228 0.0
O40 O 0.73311 0.70977 0.97723 0.0
O41 O 0.75037 0.64377 0.94128 0.0
O42 O 0.18249 0.78237 0.5518 0.0
Mn43 Mn 0.23018 0.77713 0.49592 0.0
O44 O 0.2351 0.83859 0.59729 0.0
Mn45 Mn 0.28409 0.85782 0.55971 0.0
O46 O 0.27742 0.77148 0.43987 0.0
O47 O 0.22269 0.71353 0.47863 0.0
Mn48 Mn 0.17411 0.69603 0.43282 0.0
O49 O 0.13817 0.78358 0.46674 0.0
O50 O 0.2218 0.71603 0.39505 0.0
O51 O 0.32234 0.77048 0.52501 0.0
O52 O 0.36832 0.83455 0.54781 0.0
O53 O 0.20327 0.64798 0.44377 0.0
O54 O 0.09057 0.7199 0.44635 0.0
C55 C 0.22801 0.8808 0.51741 0.0
C56 C 0.19405 0.8072 0.58895 0.0
C57 C 0.26407 0.74683 0.40286 0.0
C58 C 0.23699 0.67434 0.47373 0.0
C59 C 0.08772 0.75924 0.45125 0.0
C60 C 0.3721 0.79503 0.54151 0.0
O61 O 0.23659 0.84105 0.51327 0.0
O62 O 0.26023 0.9065 0.5486 0.0
O63 O 0.68375 0.27653 0.54895 0.0
Mn64 Mn 0.7356 0.2757 0.49518 0.0
O65 O 0.73399 0.3319 0.59589 0.0
Mn66 Mn 0.7793 0.35266 0.55858 0.0
O67 O 0.78774 0.27501 0.44164 0.0
O68 O 0.73902 0.21149 0.47745 0.0
Mn69 Mn 0.70229 0.19228 0.42754 0.0
O70 O 0.64512 0.27696 0.46267 0.0
O71 O 0.75767 0.2129 0.39403 0.0
O72 O 0.82643 0.27209 0.52672 0.0
O73 O 0.86713 0.33653 0.54819 0.0
O74 O 0.72723 0.14494 0.44042 0.0
O75 O 0.61423 0.21003 0.43121 0.0
C76 C 0.72611 0.38266 0.52354 0.0
C77 C 0.69335 0.30049 0.58669 0.0
C78 C 0.78989 0.24806 0.40479 0.0
C79 C 0.75152 0.17217 0.4738 0.0
C80 C 0.60254 0.24939 0.44117 0.0
C81 C 0.87498 0.29763 0.54236 0.0
O82 O 0.72974 0.34114 0.51249 0.0
O83 O 0.7585 0.4042 0.55696 0.0
H84 H 0.58925 0.68676 0.98139 0.0
H85 H 0.50457 0.63631 0.98986 0.0
H86 H 0.66245 0.56125 0.0195 0.0
H87 H 0.74607 0.61209 0.01236 0.0
H88 H 0.50381 0.55623 0.93734 0.0
H89 H 0.52191 0.54828 0.09833 0.0
H90 H 0.55439 0.59256 0.08413 0.0
H91 H 0.60235 0.5445 0.07373 0.0
C92 C 0.60522 0.66103 0.99249 0.0
C93 C 0.67409 0.65383 -0.00275 0.0
C94 C 0.55695 0.6317 -0.00349 0.0
C95 C 0.57688 0.59485 0.00544 0.0
C96 C 0.64523 0.58973 0.01363 0.0
H97 H 0.38512 0.35967 0.00553 0.0
H98 H 0.46926 0.41007 -0.00362 0.0
C99 C 0.69319 0.61904 0.00979 0.0
C100 C 0.5287 0.55909 0.00035 0.0
H101 H 0.46909 0.48966 0.04794 0.0
C102 C 0.49566 0.54197 0.96171 0.0
C103 C 0.51884 0.5399 0.03179 0.0
C104 C 0.55076 0.55749 0.07444 0.0
C105 C 0.45403 0.50595 0.95346 0.0
C106 C 0.44426 0.4867 0.98488 0.0
C107 C 0.4772 0.50391 0.02355 0.0
C108 C 0.3966 0.45064 0.97972 0.0
C109 C 0.42223 0.48836 0.91077 0.0
C110 C 0.32826 0.45511 0.97098 0.0
C111 C 0.28064 0.4257 0.97505 0.0
C112 C 0.30002 0.39152 0.98851 0.0
C113 C 0.36895 0.38489 -0.00626 0.0
C114 C 0.4169 0.41422 0.98934 0.0
H115 H 0.45125 0.4975 0.88691 0.0
H116 H 0.41846 0.4533 0.90109 0.0
H117 H 0.37072 0.50144 0.9114 0.0
H118 H 0.31068 0.48327 0.96461 0.0
H119 H 0.22769 0.43232 0.97222 0.0
H120 H 0.26993 0.65919 0.54707 0.0
H121 H 0.36251 0.6134 0.55559 0.0
H122 H 0.42918 0.60148 0.43098 0.0
H123 H 0.34347 0.65092 0.42517 0.0
H124 H 0.37817 0.53794 0.52157 0.0
H125 H 0.60641 0.60456 0.47543 0.0
H126 H 0.52928 0.63421 0.48556 0.0
H127 H 0.54606 0.59741 0.43438 0.0
C128 C 0.30726 0.64873 0.52279 0.0
C129 C 0.30118 0.6596 0.48605 0.0
C130 C 0.35944 0.62189 0.5272 0.0
C131 C 0.40432 0.60399 0.49414 0.0
C132 C 0.39835 0.61596 0.45792 0.0
H133 H 0.59944 0.36142 0.48788 0.0
H134 H 0.51865 0.41078 0.47264 0.0
C135 C 0.34871 0.64422 0.45445 0.0
C136 C 0.45209 0.56952 0.4952 0.0
H137 H 0.6069 0.52908 0.4623 0.0
C138 C 0.42904 0.53671 0.50979 0.0
C139 C 0.5186 0.56722 0.47969 0.0
C140 C 0.55151 0.60308 0.4684 0.0
C141 C 0.47046 0.50237 0.50988 0.0
C142 C 0.53549 0.49879 0.4918 0.0
C143 C 0.5574 0.53111 0.47616 0.0
C144 C 0.58544 0.46537 0.49306 0.0
C145 C 0.44419 0.47157 0.5308 0.0
C146 C 0.65217 0.47781 0.50498 0.0
C147 C 0.6995 0.44881 0.50935 0.0
C148 C 0.68124 0.40674 0.50425 0.0
C149 C 0.61564 0.39321 0.49051 0.0
C150 C 0.56862 0.42206 0.48362 0.0
H151 H 0.40394 0.48594 0.55352 0.0
H152 H 0.42189 0.44373 0.50688 0.0
H153 H 0.48487 0.46069 0.54765 0.0
H154 H 0.66763 0.51063 0.51285 0.0
H155 H 0.74962 0.46033 0.52011 0.0
H156 H 0.23433 0.11137 0.01255 0.0
H157 H 0.14951 0.06103 0.01969 0.0
H158 H -0.00691 0.13857 0.99253 0.0
H159 H 0.07885 0.18817 0.98348 0.0
H160 H 0.03808 0.05572 0.06112 0.0
H161 H 0.97174 0.0321 0.89549 0.0
H162 H 0.0413 0.06512 0.92121 0.0
H163 H 0.95637 0.08475 0.92928 0.0
C164 C 0.18159 0.11875 0.01015 0.0
C165 C 0.16315 0.15386 -0.0021 0.0
C166 C 0.13308 0.08963 0.01368 0.0
C167 C 0.06505 0.0951 0.00508 0.0
C168 C 0.04555 0.13292 -0.00207 0.0
H169 H 0.71373 0.93707 0.97912 0.0
H170 H 0.79861 0.98751 0.9722 0.0
C171 C 0.0944 0.16189 -0.00614 0.0
C172 C 0.01666 0.05944 -0.00012 0.0
H173 H 0.91032 0.99195 0.92951 0.0
C174 C 0.01015 0.04179 0.03234 0.0
C175 C 0.98081 0.04077 0.96204 0.0
C176 C -0.01174 0.05634 0.92485 0.0
C177 C 0.96772 1.00685 0.02854 0.0
C178 C 0.93177 0.98826 0.99075 0.0
C179 C 0.9383 1.00588 0.95827 0.0
C180 C 0.88316 0.95274 0.9856 0.0
C181 C 0.96044 0.99109 0.06562 0.0
C182 C 0.90268 0.9146 0.99206 0.0
C183 C 0.85383 0.88552 -0.00411 0.0
C184 C 0.78504 0.8939 0.9925 0.0
C185 C 0.76647 0.9295 0.98113 0.0
C186 C 0.81501 0.95865 0.97769 0.0
H187 H 0.97759 1.01508 0.09499 0.0
H188 H 0.90731 0.98262 0.06946 0.0
H189 H -0.00818 0.96241 0.06084 0.0
H190 H 0.95521 0.90871 -0.00298 0.0
H191 H 0.86954 0.8589 0.00567 0.0
H192 H 0.72823 0.11729 0.5159 0.0
H193 H 0.8114 0.06768 0.5268 0.0
H194 H 0.96969 0.13818 0.49138 0.0
H195 H 0.88608 0.18797 0.48061 0.0
H196 H 0.87963 1.01986 0.45954 0.0
H197 H 0.06125 0.10332 0.58342 0.0
H198 H 0.98104 0.12599 0.57673 0.0
H199 H 0.05093 0.12854 0.54399 0.0
C200 C 0.7812 0.12366 0.51296 0.0
C201 C 0.80088 0.15708 0.4985 0.0
C202 C 0.82867 0.09491 0.51857 0.0
C203 C 0.89688 0.09897 0.50978 0.0
C204 C 0.91757 0.1346 0.49895 0.0
H205 H 0.24669 0.93955 0.47934 0.0
H206 H 0.16158 0.98924 0.47098 0.0
C207 C 0.86981 0.16338 0.49321 0.0
C208 C 0.94352 0.06286 0.50564 0.0
H209 H 0.09396 0.03524 0.53898 0.0
C210 C 0.92631 1.02315 0.47718 0.0
C211 C 0.00467 0.06716 0.52828 0.0
C212 C 0.02535 0.10845 0.5601 0.0
C213 C 0.96887 0.98788 0.4703 0.0
C214 C 0.03014 0.99225 0.49284 0.0
C215 C 0.04718 0.0319 0.52143 0.0
C216 C 0.0778 0.95648 0.48788 0.0
C217 C 0.94839 0.94664 0.43833 0.0
C218 C 0.0587 0.92012 0.49797 0.0
C219 C 0.10761 0.89128 0.50227 0.0
C220 C 0.17605 0.89831 0.49627 0.0
C221 C 0.19409 0.93275 0.48293 0.0
C222 C 0.14553 0.96147 0.47869 0.0
H223 H 0.91169 0.95172 0.41539 0.0
H224 H -0.00728 0.92957 0.42125 0.0
H225 H 0.92392 0.92609 0.45436 0.0
H226 H 0.00697 0.91582 0.50582 0.0
H227 H 0.09263 0.86584 0.51402 0.0
H228 H 0.59958 0.32095 0.41818 0.0
H229 H 0.53553 0.33124 0.36065 0.0
H230 H 0.43203 0.21283 0.34365 0.0
H231 H 0.49181 0.20427 0.40369 0.0
H232 H 0.55498 0.27962 0.28556 0.0
H233 H 0.28142 0.27882 0.31704 0.0
H234 H 0.34411 0.28708 0.35779 0.0
H235 H 0.32424 0.23439 0.32463 0.0
C236 C 0.55969 0.29871 0.40443 0.0
C237 C 0.54992 0.26228 0.41636 0.0
C238 C 0.52408 0.3041 0.37068 0.0
C239 C 0.47885 0.27284 0.34768 0.0
C240 C 0.46543 0.23791 0.36131 0.0
H241 H 0.30431 0.22556 0.09783 0.0
H242 H 0.3553 0.2143 0.16018 0.0
C243 C 0.49998 0.23297 0.39566 0.0
C244 C 0.454 0.27375 0.30641 0.0
H245 H 0.31286 0.26771 0.24636 0.0
C246 C 0.50193 0.27733 0.27721 0.0
C247 C 0.3849 0.27007 0.29515 0.0
C248 C 0.33068 0.26778 0.32545 0.0
C249 C 0.48268 0.27771 0.23735 0.0
C250 C 0.41379 0.27421 0.22628 0.0
C251 C 0.36581 0.26987 0.25497 0.0
C252 C 0.38996 0.27899 0.18652 0.0
C253 C 0.53604 0.28186 0.20726 0.0
C254 C 0.39392 0.31877 0.18066 0.0
C255 C 0.3647 0.32527 0.14559 0.0
C256 C 0.33138 0.29203 0.11564 0.0
C257 C 0.33035 0.25155 0.12035 0.0
C258 C 0.35892 0.24518 0.15595 0.0
H259 H 0.58726 0.27536 0.2172 0.0
H260 H 0.52555 0.25986 0.17551 0.0
H261 H 0.53562 0.3146 0.20547 0.0
H262 H 0.41723 0.34528 0.20409 0.0
H263 H 0.36624 0.35673 0.14254 0.0
H264 H 0.47508 0.82996 0.07722 0.0
H265 H 0.41334 0.81888 0.13538 0.0
H266 H 0.54533 0.71546 0.13355 0.0
H267 H 0.60618 0.72572 0.07497 0.0
H268 H 0.41986 0.70062 0.15488 0.0
H269 H 0.50247 0.86125 0.24938 0.0
H270 H 0.45242 0.86183 0.20513 0.0
H271 H 0.53275 0.83557 0.19741 0.0
C272 C 0.48934 0.80386 0.08822 0.0
C273 C 0.54557 0.77875 0.07146 0.0
C274 C 0.45468 0.79797 0.12186 0.0
C275 C 0.47632 0.76736 0.13976 0.0
C276 C 0.52821 0.7396 0.12054 0.0
H277 H 0.39114 0.77815 0.39792 0.0
H278 H 0.44611 0.78392 0.33481 0.0
C279 C 0.56248 0.74518 0.08661 0.0
C280 C 0.44838 0.76622 0.18008 0.0
H281 H 0.4233 0.82712 0.28113 0.0
C282 C 0.42065 0.72826 0.18246 0.0
C283 C 0.45181 0.80184 0.21658 0.0
C284 C 0.48716 0.84227 0.21725 0.0
C285 C 0.39415 0.72536 0.21988 0.0
C286 C 0.39297 0.76186 0.25554 0.0
C287 C 0.42289 0.79942 0.2536 0.0
C288 C 0.35929 0.76164 0.2946 0.0
C289 C 0.36898 0.68287 0.22098 0.0
C290 C 0.29173 0.74893 0.29333 0.0
C291 C 0.26104 0.74486 0.32881 0.0
C292 C 0.2966 0.75455 0.36675 0.0
C293 C 0.36287 0.77009 0.36893 0.0
C294 C 0.39418 0.77339 0.33296 0.0
H295 H 0.39387 0.65648 0.19693 0.0
H296 H 0.37793 0.67876 0.25196 0.0
H297 H 0.31404 0.68037 0.21433 0.0
H298 H 0.2629 0.74136 0.26457 0.0
H299 H 0.20929 0.73391 0.32649 0.0
H300 H 0.65968 0.81797 0.88693 0.0
H301 H 0.61039 0.82669 0.82322 0.0
H302 H 0.55238 0.69486 0.7819 0.0
H303 H 0.60357 0.68584 0.8445 0.0
H304 H 0.62057 0.71425 0.7231 0.0
H305 H 0.42087 0.83383 0.78247 0.0
H306 H 0.50223 0.85166 0.80455 0.0
H307 H 0.46234 0.80754 0.81513 0.0
C308 C 0.63475 0.79125 0.86467 0.0
C309 C 0.63528 0.75123 0.87044 0.0
C310 C 0.6066 0.79621 0.82831 0.0
C311 C 0.5774 0.76142 0.79775 0.0
C312 C 0.57489 0.72208 0.80484 0.0
H313 H 0.37219 0.72218 0.5629 0.0
H314 H 0.43128 0.71121 0.62233 0.0
C315 C 0.60387 0.71698 0.84066 0.0
C316 C 0.55461 0.76463 0.75685 0.0
H317 H 0.44858 0.81759 0.71058 0.0
C318 C 0.58273 0.73676 0.72042 0.0
C319 C 0.5052 0.79395 0.75328 0.0
C320 C 0.4704 0.82315 0.79091 0.0
C321 C 0.56302 0.73754 0.68068 0.0
C322 C 0.51438 0.76712 0.67723 0.0
C323 C 0.48646 0.79518 0.71348 0.0
C324 C 0.48994 0.76886 0.6363 0.0
C325 C 0.59426 0.70689 0.64255 0.0
C326 C 0.50589 0.80375 0.62327 0.0
C327 C 0.47317 0.80959 0.58872 0.0
C328 C 0.42269 0.78108 0.56709 0.0
C329 C 0.41117 0.74434 0.57826 0.0
C330 C 0.44446 0.73829 0.6126 0.0
H331 H 0.63825 0.69022 0.65053 0.0
H332 H 0.55608 0.68288 0.62623 0.0
H333 H 0.61056 0.72372 0.62057 0.0
H334 H 0.54105 0.82762 0.64115 0.0
H335 H 0.48359 0.83827 0.58109 0.0
H336 H 0.70476 0.34589 0.6686 0.0
H337 H 0.65196 0.33309 0.72771 0.0
H338 H 0.54937 0.22382 0.646 0.0
H339 H 0.60207 0.23677 0.58525 0.0
H340 H 0.46727 0.27722 0.70947 0.0
H341 H 0.7062 0.24032 0.77618 0.0
H342 H 0.71004 0.28898 0.76394 0.0
H343 H 0.69853 0.23975 0.72271 0.0
C344 C 0.67105 0.31899 0.66269 0.0
C345 C 0.65819 0.29213 0.62192 0.0
C346 C 0.64119 0.31162 0.69682 0.0
C347 C 0.59816 0.27698 0.69137 0.0
C348 C 0.58328 0.25049 0.6508 0.0
H349 H 0.4671 0.19599 0.89892 0.0
H350 H 0.52625 0.20411 0.83888 0.0
C351 C 0.61337 0.2579 0.6162 0.0
C352 C 0.56875 0.26955 0.72862 0.0
H353 H 0.61249 0.25825 0.82246 0.0
C354 C 0.49879 0.27252 0.734 0.0
C355 C 0.61009 0.26317 0.76042 0.0
C356 C 0.68532 0.25744 0.75543 0.0
C357 C 0.46912 0.27064 0.77101 0.0
C358 C 0.5109 0.26665 0.80379 0.0
C359 C 0.58066 0.26219 0.79772 0.0
C360 C 0.48285 0.26513 0.8439 0.0
C361 C 0.3933 0.27252 0.77436 0.0
C362 C 0.44228 0.29801 0.86836 0.0
C363 C 0.40795 0.29336 0.90267 0.0
C364 C 0.41444 0.25598 0.91344 0.0
C365 C 0.46069 0.22513 0.89142 0.0
C366 C 0.49432 0.22959 0.85688 0.0
H367 H 0.36859 0.26395 0.74319 0.0
H368 H 0.37432 0.25093 0.79107 0.0
H369 H 0.37798 0.30528 0.792 0.0
H370 H 0.43447 0.32636 0.85969 0.0
H371 H 0.37225 0.3175 0.91846 0.0
H372 H 0.8597 0.86139 0.14309 0.0
H373 H 0.91115 0.85331 0.20605 0.0
H374 H 0.84503 0.72303 0.16924 0.0
H375 H 0.7957 0.73072 0.10512 0.0
H376 H 0.84341 0.83823 0.26682 0.0
H377 H 0.03356 0.71208 0.2087 0.0
H378 H -0.0066 0.73788 0.17517 0.0
H379 H 0.95089 0.69582 0.18801 0.0
C380 C 0.85777 0.83073 0.14798 0.0
C381 C 0.82416 0.79663 0.11934 0.0
C382 C 0.88686 0.82618 0.18401 0.0
C383 C 0.88215 0.78758 0.19248 0.0
C384 C 0.85061 0.75288 0.16306 0.0
H385 H 0.97561 0.71619 0.41257 0.0
H386 H 0.9182 0.72549 0.3519 0.0
C387 C 0.82242 0.75725 0.12646 0.0
C388 C 0.90512 0.7852 0.23367 0.0
H389 H 0.00729 0.73119 0.28102 0.0
C390 C 0.87947 0.81488 0.26985 0.0
C391 C 0.95225 0.75482 0.23773 0.0
C392 C -0.01535 0.72363 0.20034 0.0
C393 C 0.8994 0.81489 0.30981 0.0
C394 C 0.9457 0.78425 0.31375 0.0
C395 C 0.97112 0.75439 0.27776 0.0
C396 C 0.97062 0.78334 0.35487 0.0
C397 C 0.87099 0.84761 0.3476 0.0
C398 C 0.01721 0.81375 0.37756 0.0
C399 C 0.05085 0.80833 0.41206 0.0
C400 C 0.03802 0.77256 0.42471 0.0
C401 C -0.01322 0.74421 0.40394 0.0
C402 C 0.95405 0.74929 0.36906 0.0
H403 H 0.82714 0.86435 0.33958 0.0
H404 H 0.85539 0.83269 0.37126 0.0
H405 H 0.91065 0.87136 0.36189 0.0
H406 H 0.03103 0.84009 0.36685 0.0
H407 H 0.09099 0.83017 0.42628 0.0
H408 H 0.86394 0.19309 0.34546 0.0
H409 H 0.91356 0.20438 0.28393 0.0
H410 H 0.85083 0.33501 0.32693 0.0
H411 H 0.80253 0.32399 0.38957 0.0
H412 H 0.8412 0.2251 0.22543 0.0
H413 H 0.04214 0.34466 0.28879 0.0
H414 H 0.00173 0.31647 0.31991 0.0
H415 H 0.96053 0.36078 0.31055 0.0
C416 C 0.86205 0.22446 0.34222 0.0
C417 C 0.82945 0.25765 0.37211 0.0
C418 C 0.8902 0.23085 0.30702 0.0
C419 C 0.88587 0.27047 0.30073 0.0
C420 C 0.85572 0.30432 0.33143 0.0
H421 H -0.00268 0.3505 0.08902 0.0
H422 H 0.93574 0.34138 0.14794 0.0
C423 C 0.82819 0.29805 0.36717 0.0
C424 C 0.90821 0.27483 0.26046 0.0
H425 H 0.01702 0.32784 0.21655 0.0
C426 C 0.87969 0.24758 0.22352 0.0
C427 C 0.9584 0.30414 0.25799 0.0
C428 C -0.007 0.33292 0.29638 0.0
C429 C 0.90014 0.24875 0.18422 0.0
C430 C 0.95023 0.27797 0.18181 0.0
C431 C 0.97816 0.30564 0.21864 0.0
C432 C 0.97661 0.27948 0.14145 0.0
C433 C 0.86819 0.21877 0.14554 0.0
C434 C 0.01782 0.24687 0.1173 0.0
C435 C 0.05359 0.25206 0.08369 0.0
C436 C 0.04845 0.28992 0.07365 0.0
C437 C 0.00239 0.32088 0.09578 0.0
C438 C 0.96736 0.31588 0.12963 0.0
H439 H 0.82079 0.20468 0.15263 0.0
H440 H 0.85716 0.23525 0.1223 0.0
H441 H 0.90384 0.19267 0.13119 0.0
H442 H 0.0261 0.2187 0.12625 0.0
H443 H 0.08979 0.22813 0.06825 0.0
H444 H 0.8781 0.22688 0.56716 0.0
H445 H 0.94089 0.21859 0.62631 0.0
H446 H 0.04509 0.33609 0.64087 0.0
H447 H -0.01518 0.3438 0.58032 0.0
H448 H 0.10818 0.23911 0.65344 0.0
H449 H 0.89873 0.33524 0.74537 0.0
H450 H 0.88497 0.30082 0.69277 0.0
H451 H 0.93353 0.3483 0.70169 0.0
C452 C 0.91713 0.24968 0.58113 0.0
C453 C 0.9267 0.28576 0.56851 0.0
C454 C 0.95225 0.24523 0.61548 0.0
C455 C -0.00315 0.27698 0.638 0.0
C456 C 0.01079 0.31128 0.62369 0.0
H457 H 0.15339 0.32127 0.89186 0.0
H458 H 0.10875 0.33291 0.82814 0.0
C459 C 0.97639 0.31549 0.58898 0.0
C460 C 0.0218 0.27694 0.6792 0.0
H461 H 0.98078 0.31025 0.78241 0.0
C462 C 0.08077 0.25484 0.6817 0.0
C463 C -0.01421 0.29778 0.71584 0.0
C464 C 0.9221 0.32194 0.71421 0.0
C465 C 0.10432 0.25253 0.72019 0.0
C466 C 0.06705 0.27216 0.75673 0.0
C467 C 0.009 0.29521 0.7543 0.0
C468 C 0.0859 0.26678 0.79717 0.0
C469 C 0.16886 0.22901 0.72149 0.0
C470 C 0.08449 0.22624 0.80139 0.0
C471 C 0.10974 0.21959 0.83734 0.0
C472 C 0.13624 0.25344 0.86999 0.0
C473 C 0.13303 0.29467 0.86716 0.0
C474 C 0.10801 0.30129 0.83079 0.0
H475 H 0.20014 0.22566 0.6935 0.0
H476 H 0.19908 0.24542 0.74976 0.0
H477 H 0.15654 0.19678 0.72243 0.0
H478 H 0.06606 0.19941 0.77617 0.0
H479 H 0.11079 0.18758 0.83898 0.0
H480 H 0.0676 0.7745 0.59263 0.0
H481 H 0.01225 0.76733 0.6551 0.0
H482 H 0.19403 0.81083 0.7266 0.0
H483 H 0.24789 0.81973 0.66538 0.0
H484 H 0.03555 0.72353 0.70816 0.0
H485 H 0.06096 0.89396 0.79424 0.0
H486 H 0.07773 0.87246 0.73925 0.0
H487 H 0.14145 0.87102 0.77704 0.0
C488 C 0.09542 0.7825 0.62178 0.0
C489 C 0.16129 0.79875 0.62458 0.0
C490 C 0.06392 0.77839 0.65737 0.0
C491 C 0.0983 0.78999 0.69589 0.0
C492 C 0.16557 0.80338 0.69772 0.0
H493 H 0.98377 0.71774 0.91136 0.0
H494 H 0.04483 0.72953 0.85328 0.0
C495 C 0.19639 0.80828 0.66265 0.0
C496 C 0.06442 0.78896 0.7346 0.0
H497 H 0.03644 0.84881 0.83556 0.0
C498 C 0.03535 0.75097 0.73593 0.0
C499 C 0.06246 0.82512 0.77057 0.0
C500 C 0.08662 0.86803 0.7701 0.0
C501 C 0.00653 0.74776 0.77269 0.0
C502 C 0.0093 0.78304 0.80952 0.0
C503 C 0.03617 0.82143 0.80772 0.0
C504 C 0.98144 0.78115 0.8496 0.0
C505 C 0.972 0.70689 0.77137 0.0
C506 C 0.92947 0.80866 0.86914 0.0
C507 C 0.89559 0.80266 0.903 0.0
C508 C 0.91302 0.76896 0.91783 0.0
C509 C 0.96918 0.74397 0.90065 0.0
C510 C 0.00343 0.75026 0.86704 0.0
H511 H 0.95688 0.68825 0.73908 0.0
H512 H 0.00722 0.68728 0.78309 0.0
H513 H 0.92639 0.71295 0.79119 0.0
H514 H 0.91204 0.83298 0.85647 0.0
H515 H 0.85181 0.82194 0.91484 0.0
loop_
_geom_bond_atom_site_label_1
_geom_bond_atom_site_label_2
_geom_bond_distance
_geom_bond_site_symmetry_2
_ccdc_geom_bond_type
O0 Mn1 2.147 1_556 S
O0 C14 1.244 . S
Mn1 O0 2.147 1_554 S
Mn1 O4 2.175 . S
Mn1 O5 2.224 . S
Mn1 O7 2.178 . S
Mn1 O9 2.145 1_554 S
Mn1 O19 2.219 1_554 S
O2 Mn3 2.087 . S
O2 C14 1.256 . S
Mn3 O2 2.087 . S
Mn3 O10 2.089 . S
Mn3 O19 2.290 . S
Mn3 O20 2.251 . S
O4 Mn1 2.175 . S
O4 C15 1.239 . S
O5 Mn1 2.224 . S
O5 Mn6 2.290 . S
O5 C16 1.278 . S
Mn6 O5 2.290 . S
Mn6 O8 2.089 . S
Mn6 O11 2.251 . S
Mn6 O12 2.087 . S
O7 Mn1 2.178 . S
O7 C17 1.244 . S
O8 Mn6 2.089 . S
O8 C15 1.256 . S
O9 Mn1 2.145 1_556 S
O9 C18 1.239 . S
O10 Mn3 2.089 . S
O10 C18 1.256 . S
O11 Mn6 2.251 . S
O11 C16 1.241 . S
O12 Mn6 2.087 . S
O12 C17 1.256 . S
C13 O19 1.278 . S
C13 O20 1.241 . S
C14 O0 1.244 . S
C14 O2 1.256 . S
C15 O4 1.239 . S
C15 O8 1.256 . S
C16 O5 1.278 . S
C16 O11 1.241 . S
C17 O7 1.244 . S
C17 O12 1.256 . S
C18 O9 1.239 . S
C18 O10 1.256 . S
O19 Mn1 2.219 1_556 S
O19 Mn3 2.290 . S
O19 C13 1.278 . S
O20 Mn3 2.251 . S
O20 C13 1.241 . S
O21 Mn22 2.147 1_556 S
O21 C35 1.244 . S
Mn22 O21 2.147 1_554 S
Mn22 O25 2.175 . S
Mn22 O26 2.224 . S
Mn22 O28 2.178 . S
Mn22 O30 2.145 1_554 S
Mn22 O40 2.219 1_554 S
O23 Mn24 2.087 . S
O23 C35 1.256 . S
Mn24 O23 2.087 . S
Mn24 O31 2.089 . S
Mn24 O40 2.290 . S
Mn24 O41 2.251 . S
O25 Mn22 2.175 . S
O25 C36 1.239 . S
O26 Mn22 2.224 . S
O26 Mn27 2.290 . S
O26 C37 1.278 . S
Mn27 O26 2.290 . S
Mn27 O29 2.089 . S
Mn27 O32 2.251 . S
Mn27 O33 2.087 . S
O28 Mn22 2.178 . S
O28 C38 1.244 . S
O29 Mn27 2.089 . S
O29 C36 1.256 . S
O30 Mn22 2.145 1_556 S
O30 C39 1.239 . S
O31 Mn24 2.089 . S
O31 C39 1.256 . S
O32 Mn27 2.251 . S
O32 C37 1.241 . S
O33 Mn27 2.087 . S
O33 C38 1.256 . S
C34 O40 1.278 . S
C34 O41 1.241 . S
C35 O21 1.244 . S
C35 O23 1.256 . S
C36 O25 1.239 . S
C36 O29 1.256 . S
C37 O26 1.278 . S
C37 O32 1.241 . S
C38 O28 1.244 . S
C38 O33 1.256 . S
C39 O30 1.239 . S
C39 O31 1.256 . S
O40 Mn22 2.219 1_556 S
O40 Mn24 2.290 . S
O40 C34 1.278 . S
O41 Mn24 2.251 . S
O41 C34 1.241 . S
O42 Mn43 2.163 . S
O42 C56 1.244 . S
Mn43 O42 2.163 . S
Mn43 O46 2.160 . S
Mn43 O47 2.221 . S
Mn43 O49 2.163 . S
Mn43 O51 2.160 . S
Mn43 O61 2.221 . S
O44 Mn45 2.087 . S
O44 C56 1.256 . S
Mn45 O44 2.087 . S
Mn45 O52 2.089 . S
Mn45 O61 2.290 . S
Mn45 O62 2.251 . S
O46 Mn43 2.160 . S
O46 C57 1.239 . S
O47 Mn43 2.221 . S
O47 Mn48 2.290 . S
O47 C58 1.278 . S
Mn48 O47 2.290 . S
Mn48 O50 2.089 . S
Mn48 O53 2.251 . S
Mn48 O54 2.087 . S
O49 Mn43 2.163 . S
O49 C59 1.244 . S
O50 Mn48 2.089 . S
O50 C57 1.256 . S
O51 Mn43 2.160 . S
O51 C60 1.239 . S
O52 Mn45 2.089 . S
O52 C60 1.256 . S
O53 Mn48 2.251 . S
O53 C58 1.241 . S
O54 Mn48 2.087 . S
O54 C59 1.256 . S
C55 O61 1.278 . S
C55 O62 1.241 . S
C56 O42 1.244 . S
C56 O44 1.256 . S
C57 O46 1.239 . S
C57 O50 1.256 . S
C58 O47 1.278 . S
C58 O53 1.241 . S
C59 O49 1.244 . S
C59 O54 1.256 . S
C60 O51 1.239 . S
C60 O52 1.256 . S
O61 Mn43 2.221 . S
O61 Mn45 2.290 . S
O61 C55 1.278 . S
O62 Mn45 2.251 . S
O62 C55 1.241 . S
O63 Mn64 2.163 . S
O63 C77 1.244 . S
Mn64 O63 2.163 . S
Mn64 O67 2.160 . S
Mn64 O68 2.221 . S
Mn64 O70 2.163 . S
Mn64 O72 2.160 . S
Mn64 O82 2.221 . S
O65 Mn66 2.087 . S
O65 C77 1.256 . S
Mn66 O65 2.087 . S
Mn66 O73 2.089 . S
Mn66 O82 2.290 . S
Mn66 O83 2.251 . S
O67 Mn64 2.160 . S
O67 C78 1.239 . S
O68 Mn64 2.221 . S
O68 Mn69 2.290 . S
O68 C79 1.278 . S
Mn69 O68 2.290 . S
Mn69 O71 2.089 . S
Mn69 O74 2.251 . S
Mn69 O75 2.087 . S
O70 Mn64 2.163 . S
O70 C80 1.244 . S
O71 Mn69 2.089 . S
O71 C78 1.256 . S
O72 Mn64 2.160 . S
O72 C81 1.239 . S
O73 Mn66 2.089 . S
O73 C81 1.256 . S
O74 Mn69 2.251 . S
O74 C79 1.241 . S
O75 Mn69 2.087 . S
O75 C80 1.256 . S
C76 O82 1.278 . S
C76 O83 1.241 . S
C77 O63 1.244 . S
C77 O65 1.256 . S
C78 O67 1.239 . S
C78 O71 1.256 . S
C79 O68 1.278 . S
C79 O74 1.241 . S
C80 O70 1.244 . S
C80 O75 1.256 . S
C81 O72 1.239 . S
C81 O73 1.256 . S
O82 Mn64 2.221 . S
O82 Mn66 2.290 . S
O82 C76 1.278 . S
O83 Mn66 2.251 . S
O83 C76 1.241 . S
H84 C92 0.929 . S
H85 C94 0.930 . S
H86 C96 0.930 . S
H87 C99 0.929 . S
H88 C102 0.930 . S
H89 C104 0.960 . S
H90 C104 0.960 . S
H91 C104 0.960 . S
C92 H84 0.929 . S
C92 C93 1.368 1_556 S
C92 C94 1.384 . S
C93 C92 1.368 1_554 S
C93 C99 1.404 . S
C94 H85 0.930 . S
C94 C92 1.384 . S
C94 C95 1.369 1_556 S
C95 C94 1.369 1_554 S
C95 C96 1.402 . S
C95 C100 1.491 1_554 S
C96 H86 0.930 . S
C96 C95 1.402 . S
C96 C99 1.386 . S
H97 C113 0.930 . S
H98 C114 0.931 . S
C99 H87 0.929 . S
C99 C93 1.404 . S
C99 C96 1.386 . S
C100 C95 1.491 1_556 S
C100 C102 1.395 . S
C100 C103 1.403 1_556 S
H101 C107 0.930 . S
C102 H88 0.930 . S
C102 C100 1.395 . S
C102 C105 1.403 . S
C103 C100 1.403 1_554 S
C103 C104 1.524 . S
C103 C107 1.400 . S
C104 H89 0.960 . S
C104 H90 0.960 . S
C104 H91 0.960 . S
C104 C103 1.524 . S
C105 C102 1.403 . S
C105 C106 1.392 . S
C105 C109 1.495 . S
C106 C105 1.392 . S
C106 C107 1.385 1_556 S
C106 C108 1.478 . S
C107 H101 0.930 . S
C107 C103 1.400 . S
C107 C106 1.385 1_554 S
C108 C106 1.478 . S
C108 C110 1.381 . S
C108 C114 1.383 1_556 S
C109 C105 1.495 . S
C109 H115 0.959 . S
C109 H116 0.961 . S
C109 H117 0.960 . S
C110 C108 1.381 . S
C110 C111 1.394 . S
C110 H118 0.930 . S
C111 C110 1.394 . S
C111 C112 1.389 . S
C111 H119 0.929 . S
C112 C111 1.389 . S
C112 C113 1.374 1_556 S
C113 H97 0.930 . S
C113 C112 1.374 1_554 S
C113 C114 1.379 . S
C114 H98 0.931 . S
C114 C108 1.383 1_554 S
C114 C113 1.379 . S
H115 C109 0.959 . S
H116 C109 0.961 . S
H117 C109 0.960 . S
H118 C110 0.930 . S
H119 C111 0.929 . S
H120 C128 0.929 . S
H121 C130 0.930 . S
H122 C132 0.930 . S
H123 C135 0.929 . S
H124 C138 0.930 . S
H125 C140 0.960 . S
H126 C140 0.960 . S
H127 C140 0.960 . S
C128 H120 0.929 . S
C128 C129 1.377 . S
C128 C130 1.384 . S
C129 C128 1.377 . S
C129 C135 1.390 . S
C130 H121 0.930 . S
C130 C128 1.384 . S
C130 C131 1.372 . S
C131 C130 1.372 . S
C131 C132 1.400 . S
C131 C136 1.490 . S
C132 H122 0.930 . S
C132 C131 1.400 . S
C132 C135 1.386 . S
H133 C149 0.930 . S
H134 C150 0.931 . S
C135 H123 0.929 . S
C135 C129 1.390 . S
C135 C132 1.386 . S
C136 C131 1.490 . S
C136 C138 1.395 . S
C136 C139 1.403 . S
H137 C143 0.930 . S
C138 H124 0.930 . S
C138 C136 1.395 . S
C138 C141 1.403 . S
C139 C136 1.403 . S
C139 C140 1.524 . S
C139 C143 1.400 . S
C140 H125 0.960 . S
C140 H126 0.960 . S
C140 H127 0.960 . S
C140 C139 1.524 . S
C141 C138 1.403 . S
C141 C142 1.392 . S
C141 C145 1.495 . S
C142 C141 1.392 . S
C142 C143 1.385 . S
C142 C144 1.478 . S
C143 H137 0.930 . S
C143 C139 1.400 . S
C143 C142 1.385 . S
C144 C142 1.478 . S
C144 C146 1.381 . S
C144 C150 1.383 . S
C145 C141 1.495 . S
C145 H151 0.959 . S
C145 H152 0.961 . S
C145 H153 0.960 . S
C146 C144 1.381 . S
C146 C147 1.394 . S
C146 H154 0.930 . S
C147 C146 1.394 . S
C147 C148 1.383 . S
C147 H155 0.929 . S
C148 C147 1.383 . S
C148 C149 1.377 . S
C149 H133 0.930 . S
C149 C148 1.377 . S
C149 C150 1.379 . S
C150 H134 0.931 . S
C150 C144 1.383 . S
C150 C149 1.379 . S
H151 C145 0.959 . S
H152 C145 0.961 . S
H153 C145 0.960 . S
H154 C146 0.930 . S
H155 C147 0.929 . S
H156 C164 0.929 . S
H157 C166 0.930 . S
H158 C168 0.930 1_655 S
H159 C171 0.929 . S
H160 C174 0.930 . S
H161 C176 0.959 1_655 S
H162 C176 0.962 . S
H163 C176 0.960 1_655 S
C164 H156 0.929 . S
C164 C165 1.378 . S
C164 C166 1.384 . S
C165 C164 1.378 . S
C165 C171 1.389 1_554 S
C166 H157 0.930 . S
C166 C164 1.384 . S
C166 C167 1.372 . S
C167 C166 1.372 . S
C167 C168 1.400 1_554 S
C167 C172 1.490 . S
C168 H158 0.930 1_455 S
C168 C167 1.400 1_556 S
C168 C171 1.386 . S
H169 C185 0.930 1_556 S
H170 C186 0.935 . S
C171 H159 0.929 . S
C171 C165 1.389 1_556 S
C171 C168 1.386 . S
C172 C167 1.490 . S
C172 C174 1.395 . S
C172 C175 1.403 1_454 S
H173 C179 0.930 . S
C174 H160 0.930 . S
C174 C172 1.395 . S
C174 C177 1.403 1_445 S
C175 C172 1.403 1_656 S
C175 C176 1.524 1_655 S
C175 C179 1.400 1_545 S
C176 H161 0.959 1_455 S
C176 H162 0.962 . S
C176 H163 0.960 1_455 S
C176 C175 1.524 1_455 S
C177 C174 1.403 1_665 S
C177 C178 1.392 . S
C177 C181 1.495 . S
C178 C177 1.392 . S
C178 C179 1.385 1_554 S
C178 C180 1.478 . S
C179 H173 0.930 . S
C179 C175 1.400 1_565 S
C179 C178 1.385 1_556 S
C180 C178 1.478 . S
C180 C182 1.381 . S
C180 C186 1.383 . S
C181 C177 1.495 . S
C181 H187 0.959 1_655 S
C181 H188 0.961 . S
C181 H189 0.960 . S
C182 C180 1.381 . S
C182 C183 1.394 . S
C182 H190 0.930 . S
C183 C182 1.394 . S
C183 C184 1.383 . S
C183 H191 0.929 . S
C184 C183 1.383 . S
C184 C185 1.377 . S
C185 H169 0.930 1_554 S
C185 C184 1.377 . S
C185 C186 1.379 . S
C186 H170 0.935 . S
C186 C180 1.383 . S
C186 C185 1.379 . S
H187 C181 0.959 1_455 S
H188 C181 0.961 . S
H189 C181 0.960 . S
H190 C182 0.930 . S
H191 C183 0.929 . S
H192 C200 0.929 . S
H193 C202 0.930 . S
H194 C204 0.930 . S
H195 C207 0.929 . S
H196 C210 0.930 . S
H197 C212 0.960 . S
H198 C212 0.960 . S
H199 C212 0.960 . S
C200 H192 0.929 . S
C200 C201 1.377 . S
C200 C202 1.384 . S
C201 C200 1.377 . S
C201 C207 1.390 . S
C202 H193 0.930 . S
C202 C200 1.384 . S
C202 C203 1.372 . S
C203 C202 1.372 . S
C203 C204 1.400 . S
C203 C208 1.490 . S
C204 H194 0.930 . S
C204 C203 1.400 . S
C204 C207 1.386 . S
H205 C221 0.930 . S
H206 C222 0.931 . S
C207 H195 0.929 . S
C207 C201 1.390 . S
C207 C204 1.386 . S
C208 C203 1.490 . S
C208 C210 1.395 1_545 S
C208 C211 1.403 1_655 S
H209 C215 0.930 . S
C210 H196 0.930 . S
C210 C208 1.395 1_565 S
C210 C213 1.403 . S
C211 C208 1.403 1_455 S
C211 C212 1.524 . S
C211 C215 1.400 1_545 S
C212 H197 0.960 . S
C212 H198 0.960 . S
C212 H199 0.960 . S
C212 C211 1.524 . S
C213 C210 1.403 . S
C213 C214 1.392 1_655 S
C213 C217 1.495 . S
C214 C213 1.392 1_455 S
C214 C215 1.385 . S
C214 C216 1.478 . S
C215 H209 0.930 . S
C215 C211 1.400 1_565 S
C215 C214 1.385 . S
C216 C214 1.478 . S
C216 C218 1.381 . S
C216 C222 1.383 . S
C217 C213 1.495 . S
C217 H223 0.959 . S
C217 H224 0.961 . S
C217 H225 0.960 . S
C218 C216 1.381 . S
C218 C219 1.394 . S
C218 H226 0.930 . S
C219 C218 1.394 . S
C219 C220 1.383 . S
C219 H227 0.929 . S
C220 C219 1.383 . S
C220 C221 1.377 . S
C221 H205 0.930 . S
C221 C220 1.377 . S
C221 C222 1.379 . S
C222 H206 0.931 . S
C222 C216 1.383 . S
C222 C221 1.379 . S
H223 C217 0.959 . S
H224 C217 0.961 . S
H225 C217 0.960 . S
H226 C218 0.930 . S
H227 C219 0.929 . S
H228 C236 0.929 . S
H229 C238 0.930 . S
H230 C240 0.930 . S
H231 C243 0.929 . S
H232 C246 0.930 . S
H233 C248 0.960 . S
H234 C248 0.960 . S
H235 C248 0.960 . S
C236 H228 0.929 . S
C236 C237 1.377 . S
C236 C238 1.384 . S
C237 C236 1.377 . S
C237 C243 1.390 . S
C238 H229 0.930 . S
C238 C236 1.384 . S
C238 C239 1.372 . S
C239 C238 1.372 . S
C239 C240 1.400 . S
C239 C244 1.490 . S
C240 H230 0.930 . S
C240 C239 1.400 . S
C240 C243 1.386 . S
H241 C257 0.930 . S
H242 C258 0.931 . S
C243 H231 0.929 . S
C243 C237 1.390 . S
C243 C240 1.386 . S
C244 C239 1.490 . S
C244 C246 1.395 . S
C244 C247 1.403 . S
H245 C251 0.930 . S
C246 H232 0.930 . S
C246 C244 1.395 . S
C246 C249 1.403 . S
C247 C244 1.403 . S
C247 C248 1.524 . S
C247 C251 1.400 . S
C248 H233 0.960 . S
C248 H234 0.960 . S
C248 H235 0.960 . S
C248 C247 1.524 . S
C249 C246 1.403 . S
C249 C250 1.392 . S
C249 C253 1.495 . S
C250 C249 1.392 . S
C250 C251 1.385 . S
C250 C252 1.478 . S
C251 H245 0.930 . S
C251 C247 1.400 . S
C251 C250 1.385 . S
C252 C250 1.478 . S
C252 C254 1.381 . S
C252 C258 1.383 . S
C253 C249 1.495 . S
C253 H259 0.959 . S
C253 H260 0.961 . S
C253 H261 0.960 . S
C254 C252 1.381 . S
C254 C255 1.394 . S
C254 H262 0.930 . S
C255 C254 1.394 . S
C255 C256 1.383 . S
C255 H263 0.929 . S
C256 C255 1.383 . S
C256 C257 1.377 . S
C257 H241 0.930 . S
C257 C256 1.377 . S
C257 C258 1.379 . S
C258 H242 0.931 . S
C258 C252 1.383 . S
C258 C257 1.379 . S
H259 C253 0.959 . S
H260 C253 0.961 . S
H261 C253 0.960 . S
H262 C254 0.930 . S
H263 C255 0.929 . S
H264 C272 0.929 . S
H265 C274 0.930 . S
H266 C276 0.930 . S
H267 C279 0.929 . S
H268 C282 0.930 . S
H269 C284 0.960 . S
H270 C284 0.960 . S
H271 C284 0.960 . S
C272 H264 0.929 . S
C272 C273 1.377 . S
C272 C274 1.384 . S
C273 C272 1.377 . S
C273 C279 1.390 . S
C274 H265 0.930 . S
C274 C272 1.384 . S
C274 C275 1.372 . S
C275 C274 1.372 . S
C275 C276 1.400 . S
C275 C280 1.490 . S
C276 H266 0.930 . S
C276 C275 1.400 . S
C276 C279 1.386 . S
H277 C293 0.930 . S
H278 C294 0.931 . S
C279 H267 0.929 . S
C279 C273 1.390 . S
C279 C276 1.386 . S
C280 C275 1.490 . S
C280 C282 1.395 . S
C280 C283 1.403 . S
H281 C287 0.930 . S
C282 H268 0.930 . S
C282 C280 1.395 . S
C282 C285 1.403 . S
C283 C280 1.403 . S
C283 C284 1.524 . S
C283 C287 1.400 . S
C284 H269 0.960 . S
C284 H270 0.960 . S
C284 H271 0.960 . S
C284 C283 1.524 . S
C285 C282 1.403 . S
C285 C286 1.392 . S
C285 C289 1.495 . S
C286 C285 1.392 . S
C286 C287 1.385 . S
C286 C288 1.478 . S
C287 H281 0.930 . S
C287 C283 1.400 . S
C287 C286 1.385 . S
C288 C286 1.478 . S
C288 C290 1.381 . S
C288 C294 1.383 . S
C289 C285 1.495 . S
C289 H295 0.959 . S
C289 H296 0.961 . S
C289 H297 0.960 . S
C290 C288 1.381 . S
C290 C291 1.394 . S
C290 H298 0.930 . S
C291 C290 1.394 . S
C291 C292 1.383 . S
C291 H299 0.929 . S
C292 C291 1.383 . S
C292 C293 1.377 . S
C293 H277 0.930 . S
C293 C292 1.377 . S
C293 C294 1.379 . S
C294 H278 0.931 . S
C294 C288 1.383 . S
C294 C293 1.379 . S
H295 C289 0.959 . S
H296 C289 0.961 . S
H297 C289 0.960 . S
H298 C290 0.930 . S
H299 C291 0.929 . S
H300 C308 0.929 . S
H301 C310 0.930 . S
H302 C312 0.930 . S
H303 C315 0.929 . S
H304 C318 0.930 . S
H305 C320 0.960 . S
H306 C320 0.960 . S
H307 C320 0.960 . S
C308 H300 0.929 . S
C308 C309 1.377 . S
C308 C310 1.384 . S
C309 C308 1.377 . S
C309 C315 1.390 . S
C310 H301 0.930 . S
C310 C308 1.384 . S
C310 C311 1.372 . S
C311 C310 1.372 . S
C311 C312 1.400 . S
C311 C316 1.490 . S
C312 H302 0.930 . S
C312 C311 1.400 . S
C312 C315 1.386 . S
H313 C329 0.930 . S
H314 C330 0.931 . S
C315 H303 0.929 . S
C315 C309 1.390 . S
C315 C312 1.386 . S
C316 C311 1.490 . S
C316 C318 1.395 . S
C316 C319 1.403 . S
H317 C323 0.930 . S
C318 H304 0.930 . S
C318 C316 1.395 . S
C318 C321 1.403 . S
C319 C316 1.403 . S
C319 C320 1.524 . S
C319 C323 1.400 . S
C320 H305 0.960 . S
C320 H306 0.960 . S
C320 H307 0.960 . S
C320 C319 1.524 . S
C321 C318 1.403 . S
C321 C322 1.392 . S
C321 C325 1.495 . S
C322 C321 1.392 . S
C322 C323 1.385 . S
C322 C324 1.478 . S
C323 H317 0.930 . S
C323 C319 1.400 . S
C323 C322 1.385 . S
C324 C322 1.478 . S
C324 C326 1.381 . S
C324 C330 1.383 . S
C325 C321 1.495 . S
C325 H331 0.959 . S
C325 H332 0.961 . S
C325 H333 0.960 . S
C326 C324 1.381 . S
C326 C327 1.394 . S
C326 H334 0.930 . S
C327 C326 1.394 . S
C327 C328 1.383 . S
C327 H335 0.929 . S
C328 C327 1.383 . S
C328 C329 1.377 . S
C329 H313 0.930 . S
C329 C328 1.377 . S
C329 C330 1.379 . S
C330 H314 0.931 . S
C330 C324 1.383 . S
C330 C329 1.379 . S
H331 C325 0.959 . S
H332 C325 0.961 . S
H333 C325 0.960 . S
H334 C326 0.930 . S
H335 C327 0.929 . S
H336 C344 0.929 . S
H337 C346 0.930 . S
H338 C348 0.930 . S
H339 C351 0.929 . S
H340 C354 0.930 . S
H341 C356 0.960 . S
H342 C356 0.960 . S
H343 C356 0.960 . S
C344 H336 0.929 . S
C344 C345 1.377 . S
C344 C346 1.384 . S
C345 C344 1.377 . S
C345 C351 1.390 . S
C346 H337 0.930 . S
C346 C344 1.384 . S
C346 C347 1.372 . S
C347 C346 1.372 . S
C347 C348 1.400 . S
C347 C352 1.490 . S
C348 H338 0.930 . S
C348 C347 1.400 . S
C348 C351 1.386 . S
H349 C365 0.930 . S
H350 C366 0.931 . S
C351 H339 0.929 . S
C351 C345 1.390 . S
C351 C348 1.386 . S
C352 C347 1.490 . S
C352 C354 1.395 . S
C352 C355 1.403 . S
H353 C359 0.930 . S
C354 H340 0.930 . S
C354 C352 1.395 . S
C354 C357 1.403 . S
C355 C352 1.403 . S
C355 C356 1.524 . S
C355 C359 1.400 . S
C356 H341 0.960 . S
C356 H342 0.960 . S
C356 H343 0.960 . S
C356 C355 1.524 . S
C357 C354 1.403 . S
C357 C358 1.392 . S
C357 C361 1.495 . S
C358 C357 1.392 . S
C358 C359 1.385 . S
C358 C360 1.478 . S
C359 H353 0.930 . S
C359 C355 1.400 . S
C359 C358 1.385 . S
C360 C358 1.478 . S
C360 C362 1.381 . S
C360 C366 1.383 . S
C361 C357 1.495 . S
C361 H367 0.959 . S
C361 H368 0.961 . S
C361 H369 0.960 . S
C362 C360 1.381 . S
C362 C363 1.394 . S
C362 H370 0.930 . S
C363 C362 1.394 . S
C363 C364 1.383 . S
C363 H371 0.929 . S
C364 C363 1.383 . S
C364 C365 1.377 . S
C365 H349 0.930 . S
C365 C364 1.377 . S
C365 C366 1.379 . S
C366 H350 0.931 . S
C366 C360 1.383 . S
C366 C365 1.379 . S
H367 C361 0.959 . S
H368 C361 0.961 . S
H369 C361 0.960 . S
H370 C362 0.930 . S
H371 C363 0.929 . S
H372 C380 0.929 . S
H373 C382 0.930 1_455 S
H374 C384 0.930 . S
H375 C387 0.929 . S
H376 C390 0.930 . S
H377 C392 0.960 1_455 S
H378 C392 0.960 1_455 S
H379 C392 0.960 . S
C380 H372 0.929 . S
C380 C381 1.377 . S
C380 C382 1.384 . S
C381 C380 1.377 . S
C381 C387 1.390 . S
C382 H373 0.930 1_655 S
C382 C380 1.384 . S
C382 C383 1.372 . S
C383 C382 1.372 . S
C383 C384 1.400 . S
C383 C388 1.490 . S
C384 H374 0.930 . S
C384 C383 1.400 . S
C384 C387 1.386 . S
H385 C401 0.930 . S
H386 C402 0.931 1_655 S
C387 H375 0.929 . S
C387 C381 1.390 . S
C387 C384 1.386 . S
C388 C383 1.490 . S
C388 C390 1.395 . S
C388 C391 1.403 . S
H389 C395 0.930 . S
C390 H376 0.930 . S
C390 C388 1.395 . S
C390 C393 1.403 1_655 S
C391 C388 1.403 . S
C391 C392 1.524 . S
C391 C395 1.400 1_655 S
C392 H377 0.960 1_655 S
C392 H378 0.960 1_655 S
C392 H379 0.960 . S
C392 C391 1.524 . S
C393 C390 1.403 1_455 S
C393 C394 1.392 . S
C393 C397 1.495 . S
C394 C393 1.392 . S
C394 C395 1.385 . S
C394 C396 1.478 . S
C395 H389 0.930 . S
C395 C391 1.400 1_455 S
C395 C394 1.385 . S
C396 C394 1.478 . S
C396 C398 1.381 . S
C396 C402 1.383 . S
C397 C393 1.495 . S
C397 H403 0.959 . S
C397 H404 0.961 . S
C397 H405 0.960 . S
C398 C396 1.381 . S
C398 C399 1.394 . S
C398 H406 0.930 . S
C399 C398 1.394 . S
C399 C400 1.383 . S
C399 H407 0.929 . S
C400 C399 1.383 . S
C400 C401 1.377 . S
C401 H385 0.930 . S
C401 C400 1.377 . S
C401 C402 1.379 . S
C402 H386 0.931 1_455 S
C402 C396 1.383 . S
C402 C401 1.379 . S
H403 C397 0.959 . S
H404 C397 0.961 . S
H405 C397 0.960 . S
H406 C398 0.930 . S
H407 C399 0.929 . S
H408 C416 0.929 . S
H409 C418 0.930 1_455 S
H410 C420 0.930 . S
H411 C423 0.929 . S
H412 C426 0.930 1_655 S
H413 C428 0.960 . S
H414 C428 0.960 . S
H415 C428 0.960 . S
C416 H408 0.929 . S
C416 C417 1.377 . S
C416 C418 1.384 . S
C417 C416 1.377 . S
C417 C423 1.390 . S
C418 H409 0.930 1_655 S
C418 C416 1.384 . S
C418 C419 1.372 . S
C419 C418 1.372 . S
C419 C420 1.400 . S
C419 C424 1.490 . S
C420 H410 0.930 . S
C420 C419 1.400 . S
C420 C423 1.386 . S
H421 C437 0.930 . S
H422 C438 0.931 1_655 S
C423 H411 0.929 . S
C423 C417 1.390 . S
C423 C420 1.386 . S
C424 C419 1.490 . S
C424 C426 1.395 1_655 S
C424 C427 1.403 . S
H425 C431 0.930 . S
C426 H412 0.930 1_455 S
C426 C424 1.395 1_455 S
C426 C429 1.403 . S
C427 C424 1.403 . S
C427 C428 1.524 . S
C427 C431 1.400 1_655 S
C428 H413 0.960 . S
C428 H414 0.960 . S
C428 H415 0.960 . S
C428 C427 1.524 . S
C429 C426 1.403 . S
C429 C430 1.392 . S
C429 C433 1.495 . S
C430 C429 1.392 . S
C430 C431 1.385 . S
C430 C432 1.478 . S
C431 H425 0.930 . S
C431 C427 1.400 1_455 S
C431 C430 1.385 . S
C432 C430 1.478 . S
C432 C434 1.381 . S
C432 C438 1.383 . S
C433 C429 1.495 . S
C433 H439 0.959 . S
C433 H440 0.961 . S
C433 H441 0.960 . S
C434 C432 1.381 . S
C434 C435 1.394 . S
C434 H442 0.930 . S
C435 C434 1.394 . S
C435 C436 1.383 . S
C435 H443 0.929 . S
C436 C435 1.383 . S
C436 C437 1.377 . S
C437 H421 0.930 . S
C437 C436 1.377 . S
C437 C438 1.379 . S
C438 H422 0.931 1_455 S
C438 C432 1.383 . S
C438 C437 1.379 . S
H439 C433 0.959 . S
H440 C433 0.961 . S
H441 C433 0.960 . S
H442 C434 0.930 . S
H443 C435 0.929 . S
H444 C452 0.929 . S
H445 C454 0.930 . S
H446 C456 0.930 . S
H447 C459 0.929 . S
H448 C462 0.930 . S
H449 C464 0.960 . S
H450 C464 0.960 . S
H451 C464 0.960 . S
C452 H444 0.929 . S
C452 C453 1.377 . S
C452 C454 1.384 . S
C453 C452 1.377 . S
C453 C459 1.390 . S
C454 H445 0.930 . S
C454 C452 1.384 . S
C454 C455 1.372 . S
C455 C454 1.372 . S
C455 C456 1.400 . S
C455 C460 1.490 . S
C456 H446 0.930 . S
C456 C455 1.400 . S
C456 C459 1.386 . S
H457 C473 0.930 . S
H458 C474 0.931 . S
C459 H447 0.929 . S
C459 C453 1.390 . S
C459 C456 1.386 . S
C460 C455 1.490 . S
C460 C462 1.395 1_655 S
C460 C463 1.403 . S
H461 C467 0.930 1_655 S
C462 H448 0.930 . S
C462 C460 1.395 1_455 S
C462 C465 1.403 . S
C463 C460 1.403 . S
C463 C464 1.524 . S
C463 C467 1.400 1_655 S
C464 H449 0.960 . S
C464 H450 0.960 . S
C464 H451 0.960 . S
C464 C463 1.524 . S
C465 C462 1.403 . S
C465 C466 1.392 . S
C465 C469 1.495 . S
C466 C465 1.392 . S
C466 C467 1.385 . S
C466 C468 1.478 . S
C467 H461 0.930 1_455 S
C467 C463 1.400 1_455 S
C467 C466 1.385 . S
C468 C466 1.478 . S
C468 C470 1.381 . S
C468 C474 1.383 . S
C469 C465 1.495 . S
C469 H475 0.959 . S
C469 H476 0.961 . S
C469 H477 0.960 . S
C470 C468 1.381 . S
C470 C471 1.394 . S
C470 H478 0.930 . S
C471 C470 1.394 . S
C471 C472 1.383 . S
C471 H479 0.929 . S
C472 C471 1.383 . S
C472 C473 1.377 . S
C473 H457 0.930 . S
C473 C472 1.377 . S
C473 C474 1.379 . S
C474 H458 0.931 . S
C474 C468 1.383 . S
C474 C473 1.379 . S
H475 C469 0.959 . S
H476 C469 0.961 . S
H477 C469 0.960 . S
H478 C470 0.930 . S
H479 C471 0.929 . S
H480 C488 0.929 . S
H481 C490 0.930 1_655 S
H482 C492 0.930 . S
H483 C495 0.929 . S
H484 C498 0.930 . S
H485 C500 0.960 . S
H486 C500 0.960 . S
H487 C500 0.960 . S
C488 H480 0.929 . S
C488 C489 1.377 . S
C488 C490 1.384 . S
C489 C488 1.377 . S
C489 C495 1.390 . S
C490 H481 0.930 1_455 S
C490 C488 1.384 . S
C490 C491 1.372 . S
C491 C490 1.372 . S
C491 C492 1.400 . S
C491 C496 1.490 . S
C492 H482 0.930 . S
C492 C491 1.400 . S
C492 C495 1.386 . S
H493 C509 0.930 . S
H494 C510 0.931 1_455 S
C495 H483 0.929 . S
C495 C489 1.390 . S
C495 C492 1.386 . S
C496 C491 1.490 . S
C496 C498 1.395 . S
C496 C499 1.403 . S
H497 C503 0.932 . S
C498 H484 0.930 . S
C498 C496 1.395 . S
C498 C501 1.403 1_455 S
C499 C496 1.403 . S
C499 C500 1.524 . S
C499 C503 1.394 1_455 S
C500 H485 0.960 . S
C500 H486 0.960 . S
C500 H487 0.960 . S
C500 C499 1.524 . S
C501 C498 1.403 1_655 S
C501 C502 1.392 . S
C501 C505 1.495 . S
C502 C501 1.392 . S
C502 C503 1.390 . S
C502 C504 1.478 . S
C503 H497 0.932 . S
C503 C499 1.394 1_655 S
C503 C502 1.390 . S
C504 C502 1.478 . S
C504 C506 1.381 . S
C504 C510 1.383 . S
C505 C501 1.495 . S
C505 H511 0.959 . S
C505 H512 0.961 . S
C505 H513 0.960 . S
C506 C504 1.381 . S
C506 C507 1.394 . S
C506 H514 0.930 . S
C507 C506 1.394 . S
C507 C508 1.383 . S
C507 H515 0.929 . S
C508 C507 1.383 . S
C508 C509 1.377 . S
C509 H493 0.930 . S
C509 C508 1.377 . S
C509 C510 1.379 . S
C510 H494 0.931 1_655 S
C510 C504 1.383 . S
C510 C509 1.379 . S
H511 C505 0.959 . S
H512 C505 0.961 . S
H513 C505 0.960 . S
H514 C506 0.930 . S
H515 C507 0.929 . S
C93 C34 1.372 1_554 S
C112 C16 1.416 1_556 S
C129 C58 1.386 . S
C148 C76 1.355 . S
C165 C13 1.380 1_554 S
C184 C37 1.331 . S
C201 C79 1.388 . S
C220 C55 1.364 . S
C237 C80 0.832 . S
C256 C15 0.855 . S
C273 C38 0.828 . S
C292 C57 0.751 . S
C309 C35 0.839 . S
C328 C60 0.869 . S
C345 C77 0.826 . S
C364 C18 0.812 . S
C381 C36 0.824 . S
C400 C59 0.853 . S
C417 C78 0.826 . S
C436 C17 0.846 . S
C453 C81 0.826 . S
C472 C14 0.779 . S
C489 C56 0.826 . S
C508 C39 0.818 . S
