# Generated by pormake.
# Topology ukb, (4)-cn, num edge types: 1
# Building blocks:
#     Node 0, Type 0, BuildingBlock: ICAMEG_clean_sbu_1, # of connection points: 4
#     Node 1, Type 0, BuildingBlock: ICAMEG_clean_sbu_1, # of connection points: 4
#     Node 2, Type 0, BuildingBlock: ICAMEG_clean_sbu_1, # of connection points: 4
#     Node 3, Type 0, BuildingBlock: ICAMEG_clean_sbu_1, # of connection points: 4
#     Node 4, Type 0, BuildingBlock: ICAMEG_clean_sbu_1, # of connection points: 4
#     Node 5, Type 0, BuildingBlock: ICAMEG_clean_sbu_1, # of connection points: 4
#     Node 6, Type 0, BuildingBlock: ICAMEG_clean_sbu_1, # of connection points: 4
#     Node 7, Type 0, BuildingBlock: ICAMEG_clean_sbu_1, # of connection points: 4
#     Node 8, Type 0, BuildingBlock: ICAMEG_clean_sbu_1, # of connection points: 4
#     Node 9, Type 0, BuildingBlock: ICAMEG_clean_sbu_1, # of connection points: 4
#     Node 10, Type 0, BuildingBlock: ICAMEG_clean_sbu_1, # of connection points: 4
#     Node 11, Type 0, BuildingBlock: ICAMEG_clean_sbu_1, # of connection points: 4
#     Node 12, Type 0, BuildingBlock: ICAMEG_clean_sbu_1, # of connection points: 4
#     Node 13, Type 0, BuildingBlock: ICAMEG_clean_sbu_1, # of connection points: 4
#     Node 14, Type 0, BuildingBlock: ICAMEG_clean_sbu_1, # of connection points: 4
#     Node 15, Type 0, BuildingBlock: ICAMEG_clean_sbu_1, # of connection points: 4
#     Edge 16, Type (0, 0), None
#     Edge 17, Type (0, 0), None
#     Edge 18, Type (0, 0), None
#     Edge 19, Type (0, 0), None
#     Edge 20, Type (0, 0), None
#     Edge 21, Type (0, 0), None
#     Edge 22, Type (0, 0), None
#     Edge 23, Type (0, 0), None
#     Edge 24, Type (0, 0), None
#     Edge 25, Type (0, 0), None
#     Edge 26, Type (0, 0), None
#     Edge 27, Type (0, 0), None
#     Edge 28, Type (0, 0), None
#     Edge 29, Type (0, 0), None
#     Edge 30, Type (0, 0), None
#     Edge 31, Type (0, 0), None
#     Edge 32, Type (0, 0), None
#     Edge 33, Type (0, 0), None
#     Edge 34, Type (0, 0), None
#     Edge 35, Type (0, 0), None
#     Edge 36, Type (0, 0), None
#     Edge 37, Type (0, 0), None
#     Edge 38, Type (0, 0), None
#     Edge 39, Type (0, 0), None
#     Edge 40, Type (0, 0), None
#     Edge 41, Type (0, 0), None
#     Edge 42, Type (0, 0), None
#     Edge 43, Type (0, 0), None
#     Edge 44, Type (0, 0), None
#     Edge 45, Type (0, 0), None
#     Edge 46, Type (0, 0), None
#     Edge 47, Type (0, 0), None
# Relax obj value: 0.072
# Max RMSD: 0.089
# Mean RMSD: 0.089
data_MOF--net-ukb--node1-ICAMEG_clean_sbu_1--edge1-none
_symmetry_space_group_name_H-M    P1
_symmetry_Int_Tables_number       1
_symmetry_cell_setting            triclinic
loop_
_symmetry_equiv_pos_as_xyz
'x, y, z'
_cell_length_a     22.081353
_cell_length_b     22.095306
_cell_length_c     24.320528
_cell_angle_alpha  89.764074
_cell_angle_beta   90.229827
_cell_angle_gamma 90.135539
loop_
_atom_site_label
_atom_site_type_symbol
_atom_site_fract_x
_atom_site_fract_y
_atom_site_fract_z
_atom_type_partial_charge
Co0 Co 0.62802 0.21964 0.09201 0.0
Co1 Co 0.54525 0.20969 0.21146 0.0
O2 O 0.55232 0.20383 0.12943 0.0
C3 C 0.54143 0.24138 -0.01621 0.0
O4 O 0.49607 0.20845 0.00195 0.0
C5 C 0.50828 0.07769 0.21973 0.0
O6 O 0.56323 0.05977 0.23235 0.0
O7 O 0.62318 0.1617 0.22833 0.0
O8 O 0.67561 0.18054 0.15292 0.0
H9 H 0.53358 0.12967 0.40489 0.0
H10 H 0.59548 0.1487 -0.02338 0.0
O11 O 0.58268 0.25971 0.01954 0.0
H12 H 0.56396 0.99984 0.12232 0.0
H13 H 0.82267 0.32146 -0.02645 0.0
H14 H 0.71283 0.26853 0.08736 0.0
H15 H 0.60467 0.09692 0.14472 0.0
H16 H 0.79753 0.17276 -0.01626 0.0
O17 O 0.49617 0.133 0.20941 0.0
H18 H 0.56384 0.12753 0.30886 0.0
H19 H 0.50134 0.30739 0.2854 0.0
H20 H 0.78688 0.37379 0.02436 0.0
H21 H 0.54934 0.05441 -0.04548 0.0
H22 H 0.83072 0.40218 -0.03301 0.0
H23 H 0.53482 0.97628 0.02651 0.0
O24 O 0.62277 0.30333 0.12867 0.0
H25 H 0.31947 0.23074 0.21064 0.0
H26 H 0.51005 0.31403 0.13811 0.0
H27 H 0.41352 0.34969 0.10031 0.0
H28 H 0.31722 0.30518 0.13405 0.0
H29 H 0.41729 0.1977 0.24911 0.0
H30 H 0.47229 0.31226 0.38321 0.0
H31 H 0.48781 0.22208 0.44339 0.0
O32 O 0.59525 0.28732 0.21525 0.0
C33 C 0.67179 0.15653 0.2002 0.0
C34 C 0.52646 0.16905 0.37915 0.0
C35 C 0.49217 0.27147 0.36688 0.0
N36 N 0.53217 0.21627 0.2903 0.0
C37 C 0.54298 0.16786 0.32402 0.0
C38 C 0.50853 0.26833 0.31149 0.0
C39 C 0.50073 0.22111 0.40065 0.0
C40 C 0.58568 0.12028 0.01108 0.0
N41 N 0.60484 0.134 0.0641 0.0
C42 C 0.56154 0.06391 -0.0032 0.0
C43 C 0.55412 0.0199 0.03676 0.0
C44 C 0.57151 0.03272 0.09012 0.0
C45 C 0.59645 0.08919 0.10269 0.0
C46 C 0.82305 0.27952 -0.03235 0.0
C47 C 0.72176 0.31675 0.09239 0.0
C48 C 0.78566 0.21733 -0.00026 0.0
N49 N 0.72227 0.24488 0.07184 0.0
C50 C 0.76197 0.37291 0.05569 0.0
C51 C 0.81016 0.35759 -0.00638 0.0
C52 C 0.62162 0.32 0.17878 0.0
C53 C 0.36127 0.24957 0.19493 0.0
C54 C 0.46887 0.29688 0.1557 0.0
C55 C 0.414 0.31644 0.13313 0.0
C56 C 0.36001 0.2913 0.1519 0.0
N57 N 0.4702 0.25339 0.19587 0.0
C58 C 0.41696 0.23154 0.21689 0.0
Co59 Co 0.27048 0.61308 0.56628 0.0
Co60 Co 0.29419 0.51352 0.67148 0.0
O61 O 0.29541 0.53396 0.59103 0.0
C62 C 0.25703 0.54224 0.45116 0.0
O63 O 0.29451 0.50063 0.46939 0.0
C64 C 0.41128 0.45826 0.69053 0.0
O65 O 0.41665 0.49449 0.73277 0.0
O66 O 0.35212 0.58274 0.69145 0.0
O67 O 0.30841 0.64856 0.63526 0.0
H68 H 0.32205 0.52834 0.87794 0.0
H69 H 0.33524 0.61796 0.44343 0.0
O70 O 0.23594 0.5821 0.48686 0.0
H71 H 0.49747 0.56521 0.57173 0.0
H72 H 0.15629 0.82496 0.47869 0.0
H73 H 0.20537 0.68423 0.56191 0.0
H74 H 0.39677 0.57642 0.6049 0.0
H75 H 0.30465 0.81481 0.51201 0.0
O76 O 0.36499 0.45964 0.65895 0.0
H77 H 0.32374 0.56593 0.78291 0.0
H78 H 0.27842 0.39166 0.72422 0.0
H79 H 0.10265 0.76454 0.5026 0.0
H80 H 0.43334 0.59942 0.4091 0.0
H81 H 0.07722 0.82669 0.45988 0.0
H82 H 0.51808 0.57523 0.4722 0.0
O83 O 0.19087 0.59449 0.60713 0.0
H84 H 0.22724 0.33503 0.55841 0.0
H85 H 0.16603 0.48008 0.70094 0.0
H86 H 0.09163 0.40813 0.66462 0.0
H87 H 0.12203 0.33333 0.59421 0.0
H88 H 0.29915 0.41159 0.59206 0.0
H89 H 0.28031 0.35134 0.81746 0.0
H90 H 0.3026 0.41925 0.89559 0.0
O91 O 0.22549 0.57176 0.68918 0.0
C92 C 0.34642 0.63695 0.67333 0.0
C93 C 0.31087 0.49849 0.84435 0.0
C94 C 0.2871 0.39931 0.81055 0.0
N95 N 0.2931 0.48392 0.74772 0.0
C96 C 0.30872 0.52057 0.79047 0.0
C97 C 0.28462 0.4232 0.75744 0.0
C98 C 0.2999 0.4374 0.85432 0.0
C99 C 0.36827 0.60851 0.47424 0.0
N100 N 0.35567 0.60691 0.53017 0.0
C101 C 0.42597 0.59792 0.45304 0.0
C102 C 0.47325 0.58392 0.48815 0.0
C103 C 0.46175 0.57905 0.54379 0.0
C104 C 0.4032 0.58895 0.56338 0.0
C105 C 0.19826 0.8322 0.4827 0.0
C106 C 0.15635 0.68331 0.55689 0.0
C107 C 0.25995 0.7936 0.51693 0.0
N108 N 0.22954 0.70184 0.55701 0.0
C109 C 0.10187 0.72854 0.5233 0.0
C110 C 0.11956 0.80027 0.48533 0.0
C111 C 0.18518 0.59692 0.6591 0.0
C112 C 0.21346 0.36682 0.58969 0.0
C113 C 0.17981 0.44901 0.66943 0.0
C114 C 0.13741 0.40767 0.64936 0.0
C115 C 0.15448 0.36595 0.60965 0.0
N116 N 0.23745 0.4503 0.64923 0.0
C117 C 0.25431 0.40997 0.60955 0.0
Co118 Co 0.89824 0.31268 0.07238 0.0
Co119 Co 1.00252 0.32954 0.17433 0.0
O120 O 0.97812 0.33605 0.09664 0.0
C121 C 0.9453 0.23939 -0.03896 0.0
O122 O 0.94232 0.18515 -0.01687 0.0
C123 C 0.03723 0.45628 0.15228 0.0
O124 O 0.98026 0.46746 0.14112 0.0
O125 O 0.93074 0.38211 0.19857 0.0
O126 O 0.86017 0.34067 0.14482 0.0
H127 H 1.00101 0.37534 0.37894 0.0
H128 H 0.97741 0.38037 -0.00193 0.0
O129 O 0.93354 0.28661 -0.00783 0.0
H130 H 0.85122 0.54284 0.07206 0.0
H131 H 0.68635 0.18415 0.00515 0.0
H132 H 0.82062 0.26301 0.07524 0.0
H133 H 0.83532 0.43919 0.10087 0.0
H134 H 0.7073 0.33455 -0.02116 0.0
O135 O 0.05451 0.40315 0.16505 0.0
H136 H 0.95913 0.37157 0.28693 0.0
H137 H 0.12316 0.29521 0.22812 0.0
H138 H 0.73919 0.14711 0.05575 0.0
H139 H 1.00048 0.48368 -0.02454 0.0
H140 H 0.69206 0.10223 0.01196 0.0
H141 H 0.93515 0.56716 0.00854 0.0
O142 O 0.92264 0.22856 0.10248 0.0
H143 H 0.17859 0.28345 0.05088 0.0
H144 H 0.04248 0.19923 0.19199 0.0
H145 H 0.11251 0.1319 0.14322 0.0
H146 H 0.18347 0.17437 0.07458 0.0
H147 H 0.10208 0.34764 0.09384 0.0
H148 H 0.16466 0.29596 0.32009 0.0
H149 H 0.10398 0.33575 0.39739 0.0
O150 O 0.94888 0.25519 0.1871 0.0
C151 C 0.87492 0.37598 0.18444 0.0
C152 C 0.02705 0.35537 0.34606 0.0
C153 C 0.11852 0.31067 0.3132 0.0
N154 N 0.03435 0.32615 0.25057 0.0
C155 C 1.00292 0.352 0.29287 0.0
C156 C 0.09319 0.30866 0.26048 0.0
C157 C 0.08481 0.33346 0.35642 0.0
C158 C 0.94645 0.4142 0.01255 0.0
N159 N 0.89959 0.39955 0.04735 0.0
C160 C 0.96061 0.47399 -0.00071 0.0
C161 C 0.92509 0.5206 0.01916 0.0
C162 C 0.87829 0.50686 0.0549 0.0
C163 C 0.86855 0.44669 0.07069 0.0
C164 C 0.68117 0.22443 -0.00842 0.0
C165 C 0.81604 0.21766 0.09194 0.0
C166 C 0.72495 0.29378 -0.00075 0.0
N167 N 0.80702 0.28179 0.05842 0.0
C168 C 0.77115 0.15497 0.07946 0.0
C169 C 0.70788 0.15378 0.02923 0.0
C170 C 0.92623 0.21608 0.15373 0.0
C171 C 0.14874 0.26468 0.08179 0.0
C172 C 0.07113 0.21811 0.16045 0.0
C173 C 0.11193 0.17979 0.13402 0.0
C174 C 0.15143 0.20347 0.09503 0.0
N175 N 0.06766 0.27816 0.14652 0.0
C176 C 0.10576 0.3012 0.10729 0.0
Co177 Co 0.17022 0.87876 0.57727 0.0
Co178 Co 0.17675 0.96935 0.69064 0.0
O179 O 0.15846 0.95624 0.61167 0.0
C180 C 0.24596 0.94448 0.47353 0.0
O181 O 0.29926 0.93454 0.49586 0.0
C182 C 0.04823 1.00359 0.68316 0.0
O183 O 0.03459 0.94827 0.66823 0.0
O184 O 0.12657 0.89626 0.71792 0.0
O185 O 0.13707 0.8382 0.64534 0.0
H186 H 0.11892 0.00535 0.88741 0.0
H187 H 0.09844 0.97062 0.51695 0.0
O188 O 0.1971 0.93457 0.50366 0.0
H189 H 0.94603 0.81959 0.57113 0.0
H190 H 0.31073 0.70438 0.5012 0.0
H191 H 0.19104 0.78874 0.58268 0.0
H192 H 0.05249 0.80378 0.59407 0.0
H193 H 0.16603 0.71287 0.45052 0.0
O194 O 0.10233 0.01929 0.69431 0.0
H195 H 0.10162 0.97734 0.7908 0.0
H196 H 0.28913 0.99941 0.75758 0.0
H197 H 0.32329 0.73649 0.57176 0.0
H198 H 0.99268 0.98598 0.49087 0.0
H199 H 0.3858 0.70972 0.53153 0.0
H200 H 0.91504 0.91034 0.51801 0.0
O201 O 0.26096 0.88609 0.60243 0.0
H202 H 0.20019 0.17871 0.60671 0.0
H203 H 0.31197 0.99884 0.66833 0.0
H204 H 0.36492 0.0784 0.61983 0.0
H205 H 0.31084 0.17139 0.5914 0.0
H206 H 0.14585 0.09467 0.64646 0.0
H207 H 0.30781 0.02964 0.85288 0.0
H208 H 0.22253 0.0327 0.91896 0.0
O209 O 0.25052 0.91502 0.68946 0.0
C210 C 0.11636 0.84641 0.6928 0.0
C211 C 0.1564 0.00492 0.85885 0.0
C212 C 0.26228 0.01878 0.83943 0.0
N213 N 0.19386 0.98853 0.76734 0.0
C214 C 0.14692 0.98911 0.80391 0.0
C215 C 0.2512 1.00215 0.78492 0.0
C216 C 0.21448 0.02025 0.87654 0.0
C217 C 0.06631 0.93568 0.52726 0.0
N218 N 0.08403 0.88459 0.55517 0.0
C219 C 0.00573 0.94546 0.51308 0.0
C220 C 0.96217 0.90328 0.52856 0.0
C221 C 0.97956 0.85239 0.55839 0.0
C222 C 0.04053 0.84411 0.57195 0.0
C223 C 0.27648 0.70002 0.47772 0.0
C224 C 0.22956 0.78252 0.6098 0.0
C225 C 0.1992 0.72861 0.48008 0.0
N226 N 0.18019 0.78111 0.55969 0.0
C227 C 0.30271 0.75564 0.60032 0.0
C228 C 0.32958 0.71711 0.53709 0.0
C229 C 0.28151 0.88946 0.6518 0.0
C230 C 0.22484 0.13914 0.62056 0.0
C231 C 0.28553 0.03685 0.65519 0.0
C232 C 0.31701 0.083 0.62803 0.0
C233 C 0.28669 0.13498 0.61168 0.0
N234 N 0.22413 0.04019 0.66388 0.0
C235 C 0.19417 0.09086 0.64528 0.0
Co236 Co 0.61221 0.27138 0.80545 0.0
Co237 Co 0.51165 0.29563 0.70086 0.0
O238 O 0.53281 0.29644 0.7812 0.0
C239 C 0.54189 0.25635 0.92065 0.0
O240 O 0.49981 0.29357 0.90284 0.0
C241 C 0.45677 0.41295 0.68229 0.0
O242 O 0.49284 0.41832 0.63992 0.0
O243 O 0.58105 0.35322 0.68054 0.0
O244 O 0.64724 0.30979 0.73653 0.0
H245 H 0.52571 0.32407 0.49441 0.0
H246 H 0.61758 0.33461 0.92869 0.0
O247 O 0.58191 0.23612 0.88474 0.0
H248 H 0.56465 0.49815 0.80179 0.0
H249 H 0.82544 0.15714 0.89067 0.0
H250 H 0.68345 0.20688 0.80954 0.0
H251 H 0.57658 0.39797 0.76758 0.0
H252 H 0.81496 0.30561 0.85846 0.0
O253 O 0.45822 0.36665 0.71382 0.0
H254 H 0.56342 0.32569 0.58938 0.0
H255 H 0.38927 0.28001 0.64832 0.0
H256 H 0.76461 0.10372 0.86725 0.0
H257 H 0.59736 0.43191 -0.03601 0.0
H258 H 0.82731 0.07803 0.90921 0.0
H259 H 0.57344 0.51736 0.90165 0.0
O260 O 0.5935 0.19195 0.76438 0.0
H261 H 0.33297 0.2304 0.81457 0.0
H262 H 0.47719 0.16758 0.67182 0.0
H263 H 0.40432 0.09408 0.7083 0.0
H264 H 0.32995 0.12531 0.77873 0.0
H265 H 0.41026 0.30138 0.78079 0.0
H266 H 0.34881 0.28182 0.55505 0.0
H267 H 0.4168 0.30411 0.47671 0.0
O268 O 0.56937 0.22666 0.68269 0.0
C269 C 0.63545 0.34739 0.6982 0.0
C270 C 0.49591 0.31276 0.52803 0.0
C271 C 0.39679 0.28874 0.56192 0.0
N272 N 0.48152 0.29488 0.62471 0.0
C273 C 0.51804 0.31066 0.5819 0.0
C274 C 0.42076 0.28634 0.61505 0.0
C275 C 0.43485 0.30154 0.51807 0.0
C276 C 0.60775 0.36792 0.8982 0.0
N277 N 0.60637 0.35605 0.84215 0.0
C278 C 0.59644 0.42517 0.91996 0.0
C279 C 0.58254 0.47284 0.88526 0.0
C280 C 0.57833 0.46211 0.82945 0.0
C281 C 0.5886 0.40391 0.80929 0.0
C282 C 0.83263 0.19913 0.88681 0.0
C283 C 0.68257 0.15785 0.8143 0.0
C284 C 0.79358 0.26101 0.85352 0.0
N285 N 0.70116 0.231 0.81439 0.0
C286 C 0.72829 0.10312 0.84698 0.0
C287 C 0.80062 0.1205 0.88415 0.0
C288 C 0.59497 0.18629 0.7124 0.0
C289 C 0.36453 0.21628 0.78321 0.0
C290 C 0.44626 0.18172 0.70333 0.0
C291 C 0.40441 0.13984 0.72347 0.0
C292 C 0.36292 0.15737 0.76323 0.0
N293 N 0.44814 0.23935 0.72344 0.0
C294 C 0.4081 0.25661 0.76326 0.0
Co295 Co 0.22242 0.62684 0.2788 0.0
Co296 Co 0.21282 0.54577 0.15877 0.0
O297 O 0.20678 0.55166 0.2409 0.0
C298 C 0.24269 0.54135 0.38786 0.0
O299 O 0.2098 0.49595 0.36975 0.0
C300 C 0.08143 0.50549 0.15047 0.0
O301 O 0.06263 0.56051 0.1395 0.0
O302 O 0.16173 0.62186 0.14257 0.0
O303 O 0.18364 0.67457 0.21722 0.0
H304 H 0.12746 0.53887 -0.03278 0.0
H305 H 0.15007 0.59566 0.39446 0.0
O306 O 0.26164 0.58214 0.35191 0.0
H307 H 1.00256 0.56275 0.24784 0.0
H308 H 0.32229 0.82215 0.39816 0.0
H309 H 0.27284 0.71022 0.28488 0.0
H310 H 0.10057 0.60177 0.22579 0.0
H311 H 0.17391 0.79709 0.3848 0.0
O312 O 0.13735 0.49377 0.15929 0.0
H313 H 0.12981 0.56695 0.06324 0.0
H314 H 0.30892 0.49903 0.07881 0.0
H315 H 0.37633 0.78507 0.34964 0.0
H316 H 0.05521 0.55077 0.4163 0.0
H317 H 0.40283 0.83074 0.40651 0.0
H318 H 0.97768 0.53563 0.34386 0.0
O319 O 0.30625 0.6207 0.24228 0.0
H320 H 0.24794 0.34515 0.25181 0.0
H321 H 0.34939 0.51606 0.16066 0.0
H322 H 0.40905 0.44399 0.21262 0.0
H323 H 0.35883 0.35939 0.26167 0.0
H324 H 0.18824 0.41843 0.20169 0.0
H325 H 0.30889 0.47229 -0.01802 0.0
H326 H 0.21676 0.49115 0.92493 0.0
O327 O 0.28653 0.60081 0.15486 0.0
C328 C 0.15812 0.67081 0.17045 0.0
C329 C 0.1676 0.52998 -0.00848 0.0
C330 C 0.26911 0.49252 -9e-05 0.0
N331 N 0.21847 0.53269 0.07926 0.0
C332 C 0.16916 0.5454 0.04692 0.0
C333 C 0.2686 0.50756 0.05565 0.0
C334 C 0.21784 0.50316 -0.0321 0.0
C335 C 0.12201 0.58561 0.35983 0.0
N336 N 0.13653 0.6036 0.30662 0.0
C337 C 0.06527 0.56212 0.37394 0.0
C338 C 0.02162 0.55431 0.33371 0.0
C339 C 0.03521 0.57051 0.28021 0.0
C340 C 0.09211 0.59461 0.26779 0.0
C341 C 0.28014 0.82276 0.4029 0.0
C342 C 0.32136 0.71859 0.28128 0.0
C343 C 0.21891 0.7852 0.36964 0.0
N344 N 0.24866 0.72015 0.29947 0.0
C345 C 0.37644 0.75935 0.31887 0.0
C346 C 0.35912 0.80914 0.37939 0.0
C347 C 0.32057 0.62449 0.19169 0.0
C348 C 0.27022 0.38279 0.23159 0.0
C349 C 0.32536 0.47951 0.18007 0.0
C350 C 0.36041 0.43827 0.20989 0.0
C351 C 0.33233 0.39074 0.23723 0.0
N352 N 0.26334 0.47432 0.17704 0.0
C353 C 0.23645 0.42486 0.20141 0.0
Co354 Co 0.87791 0.17118 0.792 0.0
Co355 Co 0.96771 0.17824 0.67808 0.0
O356 O 0.95519 0.15949 0.757 0.0
C357 C 0.94523 0.24452 0.89679 0.0
O358 O 0.93564 0.29839 0.87554 0.0
C359 C 1.00191 0.04966 0.68477 0.0
O360 O 0.94664 0.03582 0.69981 0.0
O361 O 0.8943 0.12818 0.65121 0.0
O362 O 0.83637 0.13903 0.72391 0.0
H363 H 1.00327 0.12235 0.48081 0.0
H364 H 0.97032 0.09805 0.85041 0.0
O365 O 0.93487 0.1965 0.86565 0.0
H366 H 0.817 0.94755 0.79717 0.0
H367 H 0.70459 0.31167 0.87085 0.0
H368 H 0.78771 0.19269 0.78736 0.0
H369 H 0.80189 0.05425 0.77506 0.0
H370 H 0.71348 0.16664 0.92009 0.0
O371 O 0.01746 0.10381 0.67381 0.0
H372 H 0.97486 0.10405 0.57721 0.0
H373 H 0.99783 0.29086 0.61247 0.0
H374 H 0.73565 0.32486 0.79995 0.0
H375 H 0.98512 0.99203 0.87561 0.0
H376 H 0.70925 0.38692 0.84094 0.0
H377 H 0.90832 0.91534 0.84896 0.0
O378 O 0.88517 0.26205 0.7673 0.0
H379 H 0.18099 0.20186 0.75449 0.0
H380 H 0.99658 0.31277 0.70396 0.0
H381 H 0.07683 0.36469 0.75228 0.0
H382 H 0.17195 0.31117 0.77535 0.0
H383 H 0.09675 0.14799 0.71485 0.0
H384 H 0.02812 0.31066 0.51719 0.0
H385 H 0.03097 0.22619 0.45028 0.0
O386 O 0.91336 0.25198 0.67999 0.0
C387 C 0.84447 0.11807 0.67648 0.0
C388 C 1.00279 0.15949 0.5097 0.0
C389 C 0.01697 0.26505 0.53016 0.0
N390 N 0.98627 0.19592 0.60146 0.0
C391 C 0.98673 0.14943 0.56449 0.0
C392 C 1.00017 0.25338 0.58453 0.0
C393 C 0.01836 0.21771 0.4926 0.0
C394 C 0.93492 0.06634 0.84032 0.0
N395 N 0.88352 0.08473 0.81319 0.0
C396 C 0.94437 0.00561 0.85398 0.0
C397 C 0.90154 0.96258 0.83877 0.0
C398 C 0.85035 0.98064 0.80967 0.0
C399 C 0.84243 0.04174 0.79659 0.0
C400 C 0.70062 0.27726 0.89415 0.0
C401 C 0.78111 0.23145 0.76062 0.0
C402 C 0.72905 0.20005 0.89079 0.0
N403 N 0.78038 0.18163 0.81039 0.0
C404 C 0.75441 0.30453 0.771 0.0
C405 C 0.71677 0.33081 0.83493 0.0
C406 C 0.88786 0.28268 0.71789 0.0
C407 C 0.14018 0.22623 0.74348 0.0
C408 C 0.03519 0.28629 0.71532 0.0
C409 C 0.08187 0.3173 0.74217 0.0
C410 C 0.13509 0.28731 0.75543 0.0
N411 N 0.03911 0.22545 0.70422 0.0
C412 C 0.09146 0.19585 0.71913 0.0
Co413 Co 0.31564 0.89642 0.29901 0.0
Co414 Co 0.33113 1.00169 0.19799 0.0
O415 O 0.33874 0.97617 0.27513 0.0
C416 C 0.24235 0.94501 0.40929 0.0
O417 O 0.18854 0.94326 0.38618 0.0
C418 C 0.45889 0.03389 0.21839 0.0
O419 O 0.46971 0.97678 0.22908 0.0
O420 O 0.38275 0.93026 0.17198 0.0
O421 O 0.34314 0.85902 0.22613 0.0
H422 H 0.37407 1.00418 -0.00713 0.0
H423 H 0.38519 0.97469 0.37294 0.0
O424 O 0.29006 0.93226 0.37909 0.0
H425 H 0.54487 0.84655 0.29655 0.0
H426 H 0.18533 0.6861 0.36497 0.0
H427 H 0.26759 0.81818 0.29496 0.0
H428 H 0.44026 0.83154 0.26989 0.0
H429 H 0.33513 0.70656 0.39486 0.0
O430 O 0.40561 0.05216 0.20704 0.0
H431 H 0.37102 0.96032 0.08418 0.0
H432 H 0.29729 0.12367 0.14684 0.0
H433 H 0.15037 0.73807 0.31245 0.0
H434 H 0.48972 0.99681 0.39346 0.0
H435 H 0.10369 0.69203 0.35565 0.0
H436 H 0.57155 0.9305 0.35915 0.0
O437 O 0.23079 0.92065 0.26991 0.0
H438 H 0.28838 0.17435 0.32601 0.0
H439 H 0.20099 0.0433 0.18256 0.0
H440 H 0.13492 0.11252 0.23378 0.0
H441 H 0.17886 0.18081 0.30376 0.0
H442 H 0.35144 0.09897 0.28009 0.0
H443 H 0.29777 0.1674 0.05576 0.0
H444 H 0.33569 0.10803 -0.02316 0.0
O445 O 0.25605 0.94895 0.18542 0.0
C446 C 0.37757 0.87444 0.18606 0.0
C447 C 0.35477 0.02966 0.02645 0.0
C448 C 0.31178 0.12088 0.06155 0.0
N449 N 0.32682 0.03508 0.12237 0.0
C450 C 0.35176 1.00436 0.07921 0.0
C451 C 0.30995 0.09432 0.11377 0.0
C452 C 0.33356 0.08791 0.01745 0.0
C453 C 0.41853 0.94352 0.35784 0.0
N454 N 0.40268 0.89676 0.32341 0.0
C455 C 0.47884 0.95704 0.36998 0.0
C456 C 0.52462 0.92092 0.34944 0.0
C457 C 0.50958 0.87408 0.31423 0.0
C458 C 0.44895 0.86494 0.2996 0.0
C459 C 0.22511 0.68085 0.37974 0.0
C460 C 0.22291 0.81351 0.27685 0.0
C461 C 0.29498 0.72411 0.37342 0.0
N462 N 0.28564 0.80486 0.31252 0.0
C463 C 0.15935 0.76948 0.28845 0.0
C464 C 0.15593 0.70725 0.33966 0.0
C465 C 0.21747 0.92543 0.21886 0.0
C466 C 0.26888 0.14563 0.2946 0.0
C467 C 0.22056 0.07096 0.2145 0.0
C468 C 0.18295 0.11124 0.24238 0.0
C469 C 0.20748 0.14924 0.28215 0.0
N470 N 0.28081 0.06664 0.22758 0.0
C471 C 0.30476 0.10334 0.26745 0.0
Co472 Co 0.37988 0.78987 0.77872 0.0
Co473 Co 0.46269 0.79975 0.65955 0.0
O474 O 0.45536 0.80573 0.74143 0.0
C475 C 0.46669 0.76807 0.88676 0.0
O476 O 0.51205 0.80087 0.86839 0.0
C477 C 0.49939 0.93196 0.65143 0.0
O478 O 0.44456 0.94979 0.63829 0.0
O479 O 0.38484 0.84755 0.64221 0.0
O480 O 0.33241 0.82887 0.71769 0.0
H481 H 0.47524 0.87915 0.46596 0.0
H482 H 0.41277 0.8608 0.89405 0.0
O483 O 0.42521 0.74983 0.85119 0.0
H484 H 0.44363 0.0098 0.74838 0.0
H485 H 0.18549 0.68865 0.89773 0.0
H486 H 0.29527 0.74086 0.78364 0.0
H487 H 0.40274 0.91279 0.72601 0.0
H488 H 0.21059 0.83724 0.88684 0.0
O489 O 0.51147 0.87668 0.66187 0.0
H490 H 0.44454 0.88158 0.5619 0.0
H491 H 0.50799 0.7022 0.58628 0.0
H492 H 0.22133 0.63597 0.84724 0.0
H493 H 0.459 0.95505 0.91607 0.0
H494 H 0.17723 0.60799 0.90461 0.0
H495 H 0.47328 0.03323 0.84408 0.0
O496 O 0.38502 0.70622 0.74201 0.0
H497 H 0.68735 0.78701 0.67254 0.0
H498 H 0.49611 0.69288 0.73071 0.0
H499 H 0.59049 0.66216 0.77519 0.0
H500 H 0.68622 0.71387 0.75035 0.0
H501 H 0.59193 0.81347 0.62578 0.0
H502 H 0.53756 0.69705 0.48859 0.0
H503 H 0.52171 0.7868 0.42799 0.0
O504 O 0.41272 0.72216 0.65548 0.0
C505 C 0.33622 0.85268 0.67032 0.0
C506 C 0.48246 0.83993 0.49188 0.0
C507 C 0.51734 0.73779 0.5047 0.0
N508 N 0.47654 0.79306 0.58087 0.0
C509 C 0.46567 0.84129 0.54694 0.0
C510 C 0.5007 0.74109 0.56 0.0
C511 C 0.50858 0.78792 0.47068 0.0
C512 C 0.42246 0.88922 0.85957 0.0
N513 N 0.40322 0.8755 0.80657 0.0
C514 C 0.44667 0.94558 0.87382 0.0
C515 C 0.45396 0.9896 0.83386 0.0
C516 C 0.43631 0.97685 0.78056 0.0
C517 C 0.41134 0.92039 0.768 0.0
C518 C 0.18509 0.73062 0.90342 0.0
C519 C 0.28642 0.69258 0.77891 0.0
C520 C 0.22239 0.79258 0.87099 0.0
N521 N 0.2858 0.76462 0.79903 0.0
C522 C 0.24628 0.63664 0.81594 0.0
C523 C 0.198 0.65238 0.87787 0.0
C524 C 0.3862 0.68957 0.6919 0.0
C525 C 0.64544 0.76547 0.68478 0.0
C526 C 0.5376 0.71199 0.71575 0.0
C527 C 0.5912 0.69521 0.74221 0.0
C528 C 0.64498 0.72401 0.72805 0.0
N529 N 0.53742 0.75606 0.67605 0.0
C530 C 0.59117 0.77989 0.65821 0.0
Co531 Co 0.73798 0.39599 0.30424 0.0
Co532 Co 0.71448 0.49577 0.19908 0.0
O533 O 0.71339 0.4753 0.27955 0.0
C534 C 0.75155 0.46643 0.41964 0.0
O535 O 0.71418 0.50821 0.40154 0.0
C536 C 0.59724 0.55137 0.1801 0.0
O537 O 0.59159 0.51502 0.13798 0.0
O538 O 0.65634 0.42667 0.17918 0.0
O539 O 0.70007 0.36068 0.23512 0.0
H540 H 0.68508 0.48097 -0.00723 0.0
H541 H 0.67301 0.39096 0.42702 0.0
O542 O 0.77252 0.42665 0.3838 0.0
H543 H 0.51121 0.44494 0.29864 0.0
H544 H 0.85122 0.18339 0.39147 0.0
H545 H 0.80268 0.32458 0.30867 0.0
H546 H 0.61191 0.4335 0.26563 0.0
H547 H 0.70294 0.19415 0.35818 0.0
O548 O 0.64363 0.54981 0.2116 0.0
H549 H 0.68392 0.44348 0.08774 0.0
H550 H 0.73092 0.61752 0.14605 0.0
H551 H 0.90511 0.2437 0.36781 0.0
H552 H 0.57502 0.41022 0.46128 0.0
H553 H 0.93023 0.18138 0.41047 0.0
H554 H 0.49046 0.43486 0.39814 0.0
O555 O 0.81787 0.41438 0.26355 0.0
H556 H 0.78131 0.67427 0.31214 0.0
H557 H 0.84282 0.5291 0.16981 0.0
H558 H 0.91727 0.60078 0.20655 0.0
H559 H 0.88668 0.67571 0.27674 0.0
H560 H 0.70942 0.59782 0.27833 0.0
H561 H 0.72825 0.65777 0.05281 0.0
H562 H 0.7047 0.58986 -0.02517 0.0
O563 O 0.7834 0.43745 0.18148 0.0
C564 C 0.66176 0.37245 0.19733 0.0
C565 C 0.69668 0.51079 0.02626 0.0
C566 C 0.72128 0.60985 0.0598 0.0
N567 N 0.71544 0.52531 0.12277 0.0
C568 C 0.69921 0.48874 0.08013 0.0
C569 C 0.72422 0.58596 0.11292 0.0
C570 C 0.70779 0.57181 0.01615 0.0
C571 C 0.64008 0.40073 0.39618 0.0
N572 N 0.65276 0.4024 0.34027 0.0
C573 C 0.58243 0.41166 0.41735 0.0
C574 C 0.53525 0.42595 0.38221 0.0
C575 C 0.54683 0.43085 0.3266 0.0
C576 C 0.60536 0.42073 0.30706 0.0
C577 C 0.80922 0.17631 0.38741 0.0
C578 C 0.85171 0.3253 0.31371 0.0
C579 C 0.74771 0.21524 0.35333 0.0
N580 N 0.77844 0.30703 0.31353 0.0
C581 C 0.90602 0.27976 0.34719 0.0
C582 C 0.88804 0.20797 0.38495 0.0
C583 C 0.82387 0.4124 0.21157 0.0
C584 C 0.79516 0.64245 0.28091 0.0
C585 C 0.82897 0.56018 0.20129 0.0
C586 C 0.8714 0.60139 0.22156 0.0
C587 C 0.85423 0.64317 0.26118 0.0
N588 N 0.77125 0.55899 0.22131 0.0
C589 C 0.75432 0.59937 0.26093 0.0
Co590 Co 0.11031 0.69619 0.79841 0.0
Co591 Co 0.00648 0.67855 0.69613 0.0
O592 O 0.0308 0.67221 0.77385 0.0
C593 C 0.06306 0.76937 0.90974 0.0
O594 O 0.06596 0.82361 0.88764 0.0
C595 C 0.97433 0.55066 0.71684 0.0
O596 O 0.03145 0.53995 0.72771 0.0
O597 O 0.07868 0.62717 0.67177 0.0
O598 O 0.14882 0.66829 0.72612 0.0
H599 H 0.00736 0.63091 0.49177 0.0
H600 H 0.03129 0.62818 0.87253 0.0
O601 O 0.07471 0.72214 0.87856 0.0
H602 H 0.15826 0.46625 0.79871 0.0
H603 H 0.32164 0.82585 0.86537 0.0
H604 H 0.18751 0.74637 0.79573 0.0
H605 H 0.17391 0.56999 0.77003 0.0
H606 H 0.30091 0.67557 0.89246 0.0
O607 O 0.95609 0.60388 0.70521 0.0
H608 H 0.0492 0.63479 0.58366 0.0
H609 H 0.88628 0.7144 0.64173 0.0
H610 H 0.26877 0.86251 0.8146 0.0
H611 H 0.00838 0.52476 0.89482 0.0
H612 H 0.31598 0.90772 0.85805 0.0
H613 H 0.07412 0.44155 0.86186 0.0
O614 O 0.08549 0.78015 0.76816 0.0
H615 H 0.82998 0.72152 0.81999 0.0
H616 H 0.96514 0.80866 0.67958 0.0
H617 H 0.89451 0.87473 0.72903 0.0
H618 H 0.824 0.83088 0.79727 0.0
H619 H 0.90704 0.65855 0.77632 0.0
H620 H 0.84487 0.71325 0.54989 0.0
H621 H 0.90502 0.67187 0.47293 0.0
O622 O 0.05914 0.75359 0.68352 0.0
C623 C 0.13429 0.63329 0.68622 0.0
C624 C 0.98158 0.65155 0.52448 0.0
C625 C 0.89079 0.69793 0.55691 0.0
N626 N 0.97464 0.68173 0.6198 0.0
C627 C 0.0057 0.655 0.57767 0.0
C628 C 0.91611 0.70009 0.60963 0.0
C629 C 0.92418 0.67425 0.5139 0.0
C630 C 0.06243 0.59448 0.85812 0.0
N631 N 0.1094 0.60935 0.82352 0.0
C632 C 0.04835 0.53462 0.87119 0.0
C633 C 0.0841 0.48816 0.85139 0.0
C634 C 0.13104 0.50211 0.81586 0.0
C635 C 0.14067 0.56235 0.8002 0.0
C636 C 0.32689 0.78568 0.87916 0.0
C637 C 0.192 0.79162 0.77882 0.0
C638 C 0.28319 0.71621 0.87189 0.0
N639 N 0.20112 0.7277 0.81265 0.0
C640 C 0.23681 0.85444 0.79095 0.0
C641 C 0.30009 0.85604 0.84114 0.0
C642 C 0.08183 0.79265 0.71691 0.0
C643 C 0.85965 0.74095 0.78926 0.0
C644 C 0.9367 0.78913 0.71096 0.0
C645 C 0.89555 0.82675 0.73776 0.0
C646 C 0.85631 0.80227 0.77656 0.0
N647 N 0.94066 0.72891 0.72421 0.0
C648 C 0.90289 0.7051 0.76333 0.0
Co649 Co 0.83767 0.12991 0.29321 0.0
Co650 Co 0.83123 0.03942 0.1798 0.0
O651 O 0.84942 0.0524 0.25879 0.0
C652 C 0.76229 0.06399 0.39729 0.0
O653 O 0.70888 0.07388 0.37513 0.0
C654 C 0.95971 1.00469 0.18765 0.0
O655 O 0.97341 0.05998 0.20263 0.0
O656 O 0.88164 0.11242 0.15272 0.0
O657 O 0.87069 0.1706 0.22515 0.0
H658 H 0.88904 1.00423 -0.01709 0.0
H659 H 0.90961 0.03792 0.35325 0.0
O660 O 0.81101 0.07389 0.36692 0.0
H661 H 0.06179 0.18947 0.29974 0.0
H662 H 0.69727 0.30458 0.36938 0.0
H663 H 0.81663 0.22009 0.28761 0.0
H664 H 0.95542 0.20491 0.27636 0.0
H665 H 0.84195 0.29556 0.41984 0.0
O666 O 0.9056 0.98921 0.17619 0.0
H667 H 0.90644 0.03146 0.0797 0.0
H668 H 0.71888 0.00974 0.11284 0.0
H669 H 0.68456 0.27279 0.29871 0.0
H670 H 0.01532 0.02282 0.37964 0.0
H671 H 0.6222 0.29975 0.33902 0.0
H672 H 0.09283 0.09877 0.35293 0.0
O673 O 0.74696 0.12275 0.26807 0.0
H674 H 0.80699 0.82946 0.26245 0.0
H675 H 0.69597 0.01041 0.20241 0.0
H676 H 0.64284 0.93095 0.25084 0.0
H677 H 0.69655 0.83752 0.27863 0.0
H678 H 0.86157 0.91324 0.22264 0.0
H679 H 0.70006 0.98035 0.01731 0.0
H680 H 0.78531 0.97757 -0.04882 0.0
O681 O 0.75751 0.09403 0.18097 0.0
C682 C 0.89164 0.16233 0.17779 0.0
C683 C 0.85156 1.00459 0.01147 0.0
C684 C 0.74563 0.99096 0.03082 0.0
N685 N 0.81416 0.02047 0.10306 0.0
C686 C 0.8611 0.01994 0.06651 0.0
C687 C 0.75677 0.00713 0.08543 0.0
C688 C 0.79341 0.98964 -0.00631 0.0
C689 C 0.9417 0.07295 0.34305 0.0
N690 N 0.92393 0.12405 0.31516 0.0
C691 C 1.00224 0.06332 0.35742 0.0
C692 C 0.04573 0.10567 0.34217 0.0
C693 C 0.02832 0.15652 0.31229 0.0
C694 C 0.9674 0.16461 0.29849 0.0
C695 C 0.73152 0.30872 0.39288 0.0
C696 C 0.77813 0.22652 0.26051 0.0
C697 C 0.80869 0.27989 0.39037 0.0
N698 N 0.82754 0.2276 0.31062 0.0
C699 C 0.70507 0.25365 0.27008 0.0
C700 C 0.67836 0.29207 0.33345 0.0
C701 C 0.72649 0.11958 0.21866 0.0
C702 C 0.78253 0.86933 0.24904 0.0
C703 C 0.7223 0.97226 0.21536 0.0
C704 C 0.69071 0.92616 0.24249 0.0
C705 C 0.7208 0.87389 0.25841 0.0
N706 N 0.78361 0.96861 0.20634 0.0
C707 C 0.81334 0.91754 0.22435 0.0
Co708 Co 0.39637 0.73913 0.06541 0.0
Co709 Co 0.49743 0.71466 0.16974 0.0
O710 O 0.47582 0.71382 0.08951 0.0
C711 C 0.46639 0.75329 -0.05008 0.0
O712 O 0.50837 0.71596 -0.03228 0.0
C713 C 0.55185 0.59689 0.18838 0.0
O714 O 0.51562 0.59152 0.23063 0.0
O715 O 0.42762 0.65782 0.19049 0.0
O716 O 0.36141 0.70155 0.13461 0.0
H717 H 0.48458 0.68514 0.37623 0.0
H718 H 0.39069 0.67499 -0.05744 0.0
O719 O 0.42659 0.77383 -0.01411 0.0
H720 H 0.44229 0.51202 0.07054 0.0
H721 H 0.18336 0.85381 -0.01999 0.0
H722 H 0.3252 0.80376 0.06129 0.0
H723 H 0.43114 0.61255 0.10406 0.0
H724 H 0.19355 0.70524 0.01224 0.0
O725 O 0.55043 0.64318 0.15682 0.0
H726 H 0.44646 0.68387 0.28147 0.0
H727 H 0.62008 0.73059 0.22198 0.0
H728 H 0.24428 0.90704 0.00353 0.0
H729 H 0.40985 0.57714 0.90791 0.0
H730 H 0.18163 0.93296 -0.03835 0.0
H731 H 0.43312 0.49202 -0.02917 0.0
O732 O 0.41539 0.81861 0.10619 0.0
H733 H 0.6761 0.77815 0.05527 0.0
H734 H 0.53265 0.84275 0.19802 0.0
H735 H 0.60572 0.91565 0.16077 0.0
H736 H 0.67973 0.88348 0.09043 0.0
H737 H 0.59856 0.70782 0.08963 0.0
H738 H 0.66095 0.72855 0.31506 0.0
H739 H 0.59342 0.70569 0.3936 0.0
O740 O 0.44019 0.78401 0.1878 0.0
C741 C 0.37309 0.66444 0.17334 0.0
C742 C 0.51414 0.69691 0.34255 0.0
C743 C 0.61296 0.72153 0.30835 0.0
N744 N 0.52794 0.71539 0.24584 0.0
C745 C 0.49174 0.69921 0.28877 0.0
C746 C 0.58873 0.72407 0.25531 0.0
C747 C 0.57517 0.70839 0.35232 0.0
C748 C 0.40036 0.64186 -0.02676 0.0
N749 N 0.40183 0.65416 0.02921 0.0
C750 C 0.41102 0.58429 -0.04812 0.0
C751 C 0.42452 0.53678 -0.0131 0.0
C752 C 0.42897 0.54796 0.04262 0.0
C753 C 0.41919 0.60641 0.06238 0.0
C754 C 0.17608 0.81185 -0.01617 0.0
C755 C 0.32615 0.85278 0.05653 0.0
C756 C 0.215 0.74982 0.01716 0.0
N757 N 0.30746 0.77968 0.05641 0.0
C758 C 0.28057 0.90758 0.02382 0.0
C759 C 0.20827 0.89038 -0.01342 0.0
C760 C 0.41419 0.82423 0.1582 0.0
C761 C 0.64471 0.79266 0.08661 0.0
C762 C 0.56339 0.82821 0.16648 0.0
C763 C 0.60535 0.86976 0.14594 0.0
C764 C 0.64665 0.85171 0.10621 0.0
N765 N 0.56119 0.77043 0.14674 0.0
C766 C 0.60101 0.75269 0.10692 0.0
Co767 Co 0.78723 0.38138 0.59155 0.0
Co768 Co 0.79833 0.46386 0.71088 0.0
O769 O 0.80358 0.4568 0.62887 0.0
C770 C 0.7661 0.46721 0.4829 0.0
O771 O 0.79906 0.51258 0.50097 0.0
C772 C 0.93053 0.50119 0.71851 0.0
O773 O 0.94861 0.44639 0.7314 0.0
O774 O 0.84653 0.38617 0.72768 0.0
O775 O 0.82641 0.33377 0.65256 0.0
H776 H 0.87876 0.47252 0.90441 0.0
H777 H 0.85864 0.41296 0.47564 0.0
O778 O 0.7473 0.42638 0.51888 0.0
H779 H 0.00747 0.44478 0.62133 0.0
H780 H 0.68586 0.18658 0.47257 0.0
H781 H 0.73675 0.29777 0.5859 0.0
H782 H 0.90986 0.40523 0.64397 0.0
H783 H 0.83445 0.21135 0.48481 0.0
O784 O 0.87513 0.51302 0.70817 0.0
H785 H 0.88085 0.44434 0.80789 0.0
H786 H 0.70159 0.5092 0.78512 0.0
H787 H 0.63249 0.22339 0.52184 0.0
H788 H 0.95322 0.45829 0.45339 0.0
H789 H 0.60524 0.17822 0.46492 0.0
H790 H 0.03135 0.47297 0.52537 0.0
O791 O 0.70388 0.3867 0.62896 0.0
H792 H 0.78482 0.68832 0.69739 0.0
H793 H 0.68996 0.49687 0.64128 0.0
H794 H 0.6582 0.59087 0.59703 0.0
H795 H 0.71026 0.68669 0.62068 0.0
H796 H 0.81211 0.59323 0.74429 0.0
H797 H 0.69696 0.53669 0.88324 0.0
H798 H 0.787 0.51888 -0.05665 0.0
O799 O 0.72095 0.41357 0.71549 0.0
C800 C 0.85091 0.33747 0.69968 0.0
C801 C 0.83956 0.48073 0.87867 0.0
C802 C 0.73761 0.51671 0.8667 0.0
N803 N 0.79238 0.47725 0.78967 0.0
C804 C 0.84069 0.46538 0.82328 0.0
C805 C 0.74063 0.5013 0.81109 0.0
C806 C 0.7878 0.50678 0.90044 0.0
C807 C 0.88697 0.42292 0.51012 0.0
N808 N 0.87293 0.40454 0.56331 0.0
C809 C 0.94354 0.4466 0.49575 0.0
C810 C 0.98753 0.45412 0.53571 0.0
C811 C 0.9745 0.43733 0.58918 0.0
C812 C 0.91777 0.41301 0.60189 0.0
C813 C 0.72794 0.18596 0.46741 0.0
C814 C 0.68829 0.28934 0.59001 0.0
C815 C 0.78961 0.22338 0.5002 0.0
N816 N 0.76076 0.28797 0.57101 0.0
C817 C 0.63276 0.24887 0.55276 0.0
C818 C 0.6493 0.19951 0.49178 0.0
C819 C 0.68797 0.38718 0.67929 0.0
C820 C 0.76307 0.64635 0.6857 0.0
C821 C 0.70928 0.53836 0.65586 0.0
C822 C 0.69186 0.59179 0.62951 0.0
C823 C 0.72083 0.64563 0.64303 0.0
N824 N 0.75409 0.5384 0.6949 0.0
C825 C 0.77803 0.59226 0.71229 0.0
Co826 Co 0.13059 0.83815 0.07879 0.0
Co827 Co 0.04068 0.82994 0.19268 0.0
O828 O 0.05322 0.84901 0.1138 0.0
C829 C 0.06381 0.76427 -0.026 0.0
O830 O 0.07381 0.71046 -0.00477 0.0
C831 C 0.00605 0.95853 0.18606 0.0
O832 O 0.06133 0.97243 0.17107 0.0
O833 O 0.11393 0.88005 0.22002 0.0
O834 O 0.17154 0.87075 0.14701 0.0
H835 H 1.00403 0.88525 0.38988 0.0
H836 H 0.03774 0.91071 0.02028 0.0
O837 O 0.07388 0.81235 0.00512 0.0
H838 H 0.19045 0.06185 0.07356 0.0
H839 H 0.30391 0.69895 -0.0 0.0
H840 H 0.22094 0.81815 0.08332 0.0
H841 H 0.20583 0.95537 0.09591 0.0
H842 H 0.29548 0.84403 -0.04928 0.0
O843 O 0.99065 0.90434 0.1971 0.0
H844 H 0.03284 0.90383 0.29364 0.0
H845 H 0.01109 0.71694 0.25809 0.0
H846 H 0.27274 0.68596 0.07086 0.0
H847 H 0.02256 0.01669 -0.00508 0.0
H848 H 0.29884 0.62373 0.02995 0.0
H849 H 0.09906 0.0937 0.02153 0.0
O850 O 0.12405 0.74697 0.1033 0.0
H851 H 0.82811 0.80626 0.1148 0.0
H852 H 0.01208 0.69539 0.16682 0.0
H853 H 0.93207 0.64332 0.11828 0.0
H854 H 0.83719 0.69685 0.0944 0.0
H855 H 0.91209 0.86021 0.15481 0.0
H856 H 0.98044 0.69686 0.35321 0.0
H857 H 0.97674 0.78122 0.42019 0.0
O858 O 0.09524 0.75616 0.19053 0.0
C859 C 0.16359 0.89089 0.19472 0.0
C860 C 0.00485 0.84815 0.36096 0.0
C861 C 0.99138 0.74254 0.34033 0.0
N862 N 0.02202 0.81194 0.26922 0.0
C863 C 0.02114 0.85836 0.30625 0.0
C864 C 0.00839 0.75437 0.28604 0.0
C865 C 0.98952 0.78983 0.37793 0.0
C866 C 0.07295 0.94263 0.03043 0.0
N867 N 0.12436 0.92451 0.05766 0.0
C868 C 0.0633 1.0033 0.01666 0.0
C869 C 0.10596 0.04652 0.03186 0.0
C870 C 0.15716 0.02869 0.0611 0.0
C871 C 0.16523 0.96768 0.07433 0.0
C872 C 0.30801 0.73336 -0.02329 0.0
C873 C 0.22743 0.7794 0.1101 0.0
C874 C 0.27968 0.81064 -0.02001 0.0
N875 N 0.22829 0.82912 0.06033 0.0
C876 C 0.25401 0.70634 0.09979 0.0
C877 C 0.29162 0.6799 0.03594 0.0
C878 C 0.12105 0.72581 0.15254 0.0
C879 C 0.86878 0.78189 0.1262 0.0
C880 C 0.97349 0.72182 0.15526 0.0
C881 C 0.92698 0.69075 0.1282 0.0
C882 C 0.8739 0.72074 0.1145 0.0
N883 N 0.96949 0.78269 0.16621 0.0
C884 C 0.91732 0.8123 0.1508 0.0
Co885 Co 0.69292 0.11224 0.57197 0.0
Co886 Co 0.67662 0.00791 0.67367 0.0
O887 O 0.66931 0.03277 0.59629 0.0
C888 C 0.76615 0.06373 0.46155 0.0
O889 O 0.82005 0.06596 0.48446 0.0
C890 C 0.54875 0.97583 0.65318 0.0
O891 O 0.53799 0.03293 0.64244 0.0
O892 O 0.62528 0.07982 0.69907 0.0
O893 O 0.66561 0.15033 0.6446 0.0
H894 H 0.63355 0.00755 0.8788 0.0
H895 H 0.62339 0.03392 0.49812 0.0
O896 O 0.71848 0.07619 0.49193 0.0
H897 H 0.46354 0.16223 0.57396 0.0
H898 H 0.82323 0.32248 0.50505 0.0
H899 H 0.74193 0.18992 0.57524 0.0
H900 H 0.56795 0.17697 0.60122 0.0
H901 H 0.67318 0.30208 0.47636 0.0
O902 O 0.60198 0.95758 0.6648 0.0
H903 H 0.63665 0.05049 0.78714 0.0
H904 H 0.71046 0.88649 0.72594 0.0
H905 H 0.85888 0.27019 0.55691 0.0
H906 H 0.51896 0.01193 0.47724 0.0
H907 H 0.905 0.31644 0.51339 0.0
H908 H 0.43706 0.07835 0.51123 0.0
O909 O 0.77747 0.08763 0.60139 0.0
H910 H 0.71889 0.8334 0.54748 0.0
H911 H 0.80674 0.9662 0.68935 0.0
H912 H 0.8726 0.89622 0.63882 0.0
H913 H 0.82843 0.82697 0.56974 0.0
H914 H 0.65611 0.90972 0.59242 0.0
H915 H 0.70986 0.84366 0.81734 0.0
H916 H 0.67186 0.90384 0.89573 0.0
O917 O 0.75178 0.06051 0.68604 0.0
C918 C 0.63106 0.13552 0.68476 0.0
C919 C 0.65278 0.9817 0.84544 0.0
C920 C 0.69577 0.8901 0.81114 0.0
N921 N 0.6807 0.97524 0.74957 0.0
C922 C 0.65579 0.00645 0.79247 0.0
C923 C 0.69761 0.91612 0.7587 0.0
C924 C 0.67397 0.92352 0.85494 0.0
C925 C 0.59005 0.06515 0.51309 0.0
N926 N 0.60583 0.11192 0.54755 0.0
C927 C 0.52978 0.05168 0.50075 0.0
C928 C 0.48395 0.08787 0.52112 0.0
C929 C 0.49889 0.13466 0.55641 0.0
C930 C 0.55946 0.14369 0.57131 0.0
C931 C 0.78327 0.32779 0.4907 0.0
C932 C 0.78689 0.19447 0.59282 0.0
C933 C 0.7135 0.28449 0.49752 0.0
N934 N 0.72363 0.20335 0.55792 0.0
C935 C 0.85023 0.23864 0.58084 0.0
C936 C 0.85296 0.30116 0.52991 0.0
C937 C 0.79055 0.0835 0.65252 0.0
C938 C 0.73849 0.86252 0.57854 0.0
C939 C 0.78706 0.9382 0.65772 0.0
C940 C 0.82456 0.89746 0.63026 0.0
C941 C 0.79989 0.85893 0.59098 0.0
N942 N 0.7268 0.94249 0.64464 0.0
C943 C 0.70276 0.90535 0.60515 0.0
loop_
_geom_bond_atom_site_label_1
_geom_bond_atom_site_label_2
_geom_bond_distance
_geom_bond_site_symmetry_2
_ccdc_geom_bond_type
Co0 O2 2.143 . S
Co0 O8 2.074 . S
Co0 O11 2.093 . S
Co0 O24 2.097 . S
Co0 N41 2.151 . S
Co0 N49 2.214 . S
Co1 O2 2.160 . S
Co1 O7 2.058 . S
Co1 O17 2.057 . S
Co1 O32 2.037 . S
Co1 N36 2.145 . S
Co1 N57 2.257 . S
O2 Co0 2.143 . S
O2 Co1 2.160 . S
C3 O4 1.278 . S
C3 O11 1.224 . S
O4 C3 1.278 . S
C5 O6 1.245 . S
C5 O17 1.232 . S
O6 C5 1.245 . S
O7 Co1 2.058 . S
O7 C33 1.269 . S
O8 Co0 2.074 . S
O8 C33 1.257 . S
H9 C34 0.930 . S
H10 C40 0.930 . S
O11 Co0 2.093 . S
O11 C3 1.224 . S
H12 C44 0.929 . S
H13 C46 0.930 1_556 S
H14 C47 0.930 . S
H15 C45 0.929 . S
H16 C48 0.928 . S
O17 Co1 2.057 . S
O17 C5 1.232 . S
H18 C37 0.929 . S
H19 C38 0.929 . S
H20 C50 0.931 . S
H21 C42 0.929 1_556 S
H22 C51 0.930 . S
H23 C43 0.931 1_556 S
O24 Co0 2.097 . S
O24 C52 1.214 . S
H25 C53 0.929 . S
H26 C54 0.929 . S
H27 C55 0.930 . S
H28 C56 0.929 . S
H29 C58 0.930 . S
H30 C35 0.930 . S
H31 C39 0.930 . S
O32 Co1 2.037 . S
O32 C52 1.234 . S
C33 O7 1.269 . S
C33 O8 1.257 . S
C34 H9 0.930 . S
C34 C37 1.388 . S
C34 C39 1.418 . S
C35 H30 0.930 . S
C35 C38 1.404 . S
C35 C39 1.353 . S
N36 Co1 2.145 . S
N36 C37 1.397 . S
N36 C38 1.334 . S
C37 H18 0.929 . S
C37 C34 1.388 . S
C37 N36 1.397 . S
C38 H19 0.929 . S
C38 C35 1.404 . S
C38 N36 1.334 . S
C39 H31 0.930 . S
C39 C34 1.418 . S
C39 C35 1.353 . S
C40 H10 0.930 . S
C40 N41 1.330 . S
C40 C42 1.446 . S
N41 Co0 2.151 . S
N41 C40 1.330 . S
N41 C45 1.418 . S
C42 H21 0.929 1_554 S
C42 C40 1.446 . S
C42 C43 1.332 . S
C43 H23 0.931 1_554 S
C43 C42 1.332 . S
C43 C44 1.267 . S
C44 H12 0.929 . S
C44 C43 1.267 . S
C44 C45 1.251 . S
C45 H15 0.929 . S
C45 N41 1.418 . S
C45 C44 1.251 . S
C46 H13 0.930 1_554 S
C46 C48 1.406 . S
C46 C51 1.261 . S
C47 H14 0.930 . S
C47 N49 1.325 . S
C47 C50 1.357 . S
C48 H16 0.928 . S
C48 C46 1.406 . S
C48 N49 1.261 . S
N49 Co0 2.214 . S
N49 C47 1.325 . S
N49 C48 1.261 . S
C50 H20 0.931 . S
C50 C47 1.357 . S
C50 C51 1.312 . S
C51 H22 0.930 . S
C51 C46 1.261 . S
C51 C50 1.312 . S
C52 O24 1.214 . S
C52 O32 1.234 . S
C53 H25 0.929 . S
C53 C56 1.391 . S
C53 C58 1.391 . S
C54 H26 0.929 . S
C54 C55 1.390 . S
C54 N57 1.391 . S
C55 H27 0.930 . S
C55 C54 1.390 . S
C55 C56 1.392 . S
C56 H28 0.929 . S
C56 C53 1.391 . S
C56 C55 1.392 . S
N57 Co1 2.257 . S
N57 C54 1.391 . S
N57 C58 1.388 . S
C58 H29 0.930 . S
C58 C53 1.391 . S
C58 N57 1.388 . S
Co59 O61 2.143 . S
Co59 O67 2.074 . S
Co59 O70 2.093 . S
Co59 O83 2.097 . S
Co59 N100 2.151 . S
Co59 N108 2.214 . S
Co60 O61 2.160 . S
Co60 O66 2.058 . S
Co60 O76 2.057 . S
Co60 O91 2.037 . S
Co60 N95 2.145 . S
Co60 N116 2.257 . S
O61 Co59 2.143 . S
O61 Co60 2.160 . S
C62 O63 1.278 . S
C62 O70 1.224 . S
O63 C62 1.278 . S
C64 O65 1.245 . S
C64 O76 1.232 . S
O65 C64 1.245 . S
O66 Co60 2.058 . S
O66 C92 1.269 . S
O67 Co59 2.074 . S
O67 C92 1.257 . S
H68 C93 0.930 . S
H69 C99 0.930 . S
O70 Co59 2.093 . S
O70 C62 1.224 . S
H71 C103 0.929 . S
H72 C105 0.930 . S
H73 C106 0.930 . S
H74 C104 0.929 . S
H75 C107 0.928 . S
O76 Co60 2.057 . S
O76 C64 1.232 . S
H77 C96 0.929 . S
H78 C97 0.929 . S
H79 C109 0.931 . S
H80 C101 0.929 . S
H81 C110 0.930 . S
H82 C102 0.931 . S
O83 Co59 2.097 . S
O83 C111 1.214 . S
H84 C112 0.929 . S
H85 C113 0.929 . S
H86 C114 0.930 . S
H87 C115 0.929 . S
H88 C117 0.930 . S
H89 C94 0.930 . S
H90 C98 0.930 1_554 S
O91 Co60 2.037 . S
O91 C111 1.234 . S
C92 O66 1.269 . S
C92 O67 1.257 . S
C93 H68 0.930 . S
C93 C96 1.388 . S
C93 C98 1.418 . S
C94 H89 0.930 . S
C94 C97 1.404 . S
C94 C98 1.353 . S
N95 Co60 2.145 . S
N95 C96 1.397 . S
N95 C97 1.334 . S
C96 H77 0.929 . S
C96 C93 1.388 . S
C96 N95 1.397 . S
C97 H78 0.929 . S
C97 C94 1.404 . S
C97 N95 1.334 . S
C98 H90 0.930 1_556 S
C98 C93 1.418 . S
C98 C94 1.353 . S
C99 H69 0.930 . S
C99 N100 1.330 . S
C99 C101 1.446 . S
N100 Co59 2.151 . S
N100 C99 1.330 . S
N100 C104 1.418 . S
C101 H80 0.929 . S
C101 C99 1.446 . S
C101 C102 1.332 . S
C102 H82 0.931 . S
C102 C101 1.332 . S
C102 C103 1.267 . S
C103 H71 0.929 . S
C103 C102 1.267 . S
C103 C104 1.251 . S
C104 H74 0.929 . S
C104 N100 1.418 . S
C104 C103 1.251 . S
C105 H72 0.930 . S
C105 C107 1.406 . S
C105 C110 1.261 . S
C106 H73 0.930 . S
C106 N108 1.325 . S
C106 C109 1.357 . S
C107 H75 0.928 . S
C107 C105 1.406 . S
C107 N108 1.261 . S
N108 Co59 2.214 . S
N108 C106 1.325 . S
N108 C107 1.261 . S
C109 H79 0.931 . S
C109 C106 1.357 . S
C109 C110 1.312 . S
C110 H81 0.930 . S
C110 C105 1.261 . S
C110 C109 1.312 . S
C111 O83 1.214 . S
C111 O91 1.234 . S
C112 H84 0.929 . S
C112 C115 1.391 . S
C112 C117 1.391 . S
C113 H85 0.929 . S
C113 C114 1.390 . S
C113 N116 1.391 . S
C114 H86 0.930 . S
C114 C113 1.390 . S
C114 C115 1.392 . S
C115 H87 0.929 . S
C115 C112 1.391 . S
C115 C114 1.392 . S
N116 Co60 2.257 . S
N116 C113 1.391 . S
N116 C117 1.388 . S
C117 H88 0.930 . S
C117 C112 1.391 . S
C117 N116 1.388 . S
Co118 O120 2.143 . S
Co118 O126 2.074 . S
Co118 O129 2.093 . S
Co118 O142 2.097 . S
Co118 N159 2.151 . S
Co118 N167 2.214 . S
Co119 O120 2.160 . S
Co119 O125 2.058 . S
Co119 O135 2.057 1_655 S
Co119 O150 2.037 . S
Co119 N154 2.145 1_655 S
Co119 N175 2.257 1_655 S
O120 Co118 2.143 . S
O120 Co119 2.160 . S
C121 O122 1.278 1_655 S
C121 O129 1.224 . S
O122 C121 1.278 1_455 S
C123 O124 1.245 . S
C123 O135 1.232 . S
O124 C123 1.245 . S
O125 Co119 2.058 . S
O125 C151 1.269 . S
O126 Co118 2.074 . S
O126 C151 1.257 . S
H127 C152 0.930 . S
H128 C158 0.930 . S
O129 Co118 2.093 . S
O129 C121 1.224 . S
H130 C162 0.929 . S
H131 C164 0.930 1_556 S
H132 C165 0.930 . S
H133 C163 0.929 . S
H134 C166 0.928 . S
O135 Co119 2.057 1_455 S
O135 C123 1.232 . S
H136 C155 0.929 . S
H137 C156 0.929 . S
H138 C168 0.931 . S
H139 C160 0.929 1_556 S
H140 C169 0.930 . S
H141 C161 0.931 1_556 S
O142 Co118 2.097 . S
O142 C170 1.214 . S
H143 C171 0.929 . S
H144 C172 0.929 . S
H145 C173 0.930 . S
H146 C174 0.929 . S
H147 C176 0.930 . S
H148 C153 0.930 . S
H149 C157 0.930 . S
O150 Co119 2.037 . S
O150 C170 1.234 . S
C151 O125 1.269 . S
C151 O126 1.257 . S
C152 H127 0.930 . S
C152 C155 1.388 . S
C152 C157 1.418 1_655 S
C153 H148 0.930 . S
C153 C156 1.404 . S
C153 C157 1.353 . S
N154 Co119 2.145 1_455 S
N154 C155 1.397 1_455 S
N154 C156 1.334 . S
C155 H136 0.929 . S
C155 C152 1.388 . S
C155 N154 1.397 1_655 S
C156 H137 0.929 . S
C156 C153 1.404 . S
C156 N154 1.334 . S
C157 H149 0.930 . S
C157 C152 1.418 1_455 S
C157 C153 1.353 . S
C158 H128 0.930 . S
C158 N159 1.330 . S
C158 C160 1.446 . S
N159 Co118 2.151 . S
N159 C158 1.330 . S
N159 C163 1.418 . S
C160 H139 0.929 1_554 S
C160 C158 1.446 . S
C160 C161 1.332 . S
C161 H141 0.931 1_554 S
C161 C160 1.332 . S
C161 C162 1.267 . S
C162 H130 0.929 . S
C162 C161 1.267 . S
C162 C163 1.251 . S
C163 H133 0.929 . S
C163 N159 1.418 . S
C163 C162 1.251 . S
C164 H131 0.930 1_554 S
C164 C166 1.406 . S
C164 C169 1.261 . S
C165 H132 0.930 . S
C165 N167 1.325 . S
C165 C168 1.357 . S
C166 H134 0.928 . S
C166 C164 1.406 . S
C166 N167 1.261 . S
N167 Co118 2.214 . S
N167 C165 1.325 . S
N167 C166 1.261 . S
C168 H138 0.931 . S
C168 C165 1.357 . S
C168 C169 1.312 . S
C169 H140 0.930 . S
C169 C164 1.261 . S
C169 C168 1.312 . S
C170 O142 1.214 . S
C170 O150 1.234 . S
C171 H143 0.929 . S
C171 C174 1.391 . S
C171 C176 1.391 . S
C172 H144 0.929 . S
C172 C173 1.390 . S
C172 N175 1.391 . S
C173 H145 0.930 . S
C173 C172 1.390 . S
C173 C174 1.392 . S
C174 H146 0.929 . S
C174 C171 1.391 . S
C174 C173 1.392 . S
N175 Co119 2.257 1_455 S
N175 C172 1.391 . S
N175 C176 1.388 . S
C176 H147 0.930 . S
C176 C171 1.391 . S
C176 N175 1.388 . S
Co177 O179 2.143 . S
Co177 O185 2.074 . S
Co177 O188 2.093 . S
Co177 O201 2.097 . S
Co177 N218 2.151 . S
Co177 N226 2.214 . S
Co178 O179 2.160 . S
Co178 O184 2.058 . S
Co178 O194 2.057 1_565 S
Co178 O209 2.037 . S
Co178 N213 2.145 1_565 S
Co178 N234 2.257 1_565 S
O179 Co177 2.143 . S
O179 Co178 2.160 . S
C180 O181 1.278 1_565 S
C180 O188 1.224 . S
O181 C180 1.278 1_545 S
C182 O183 1.245 . S
C182 O194 1.232 . S
O183 C182 1.245 . S
O184 Co178 2.058 . S
O184 C210 1.269 . S
O185 Co177 2.074 . S
O185 C210 1.257 . S
H186 C211 0.930 . S
H187 C217 0.930 . S
O188 Co177 2.093 . S
O188 C180 1.224 . S
H189 C221 0.929 . S
H190 C223 0.930 . S
H191 C224 0.930 . S
H192 C222 0.929 . S
H193 C225 0.928 . S
O194 Co178 2.057 1_545 S
O194 C182 1.232 . S
H195 C214 0.929 . S
H196 C215 0.929 . S
H197 C227 0.931 . S
H198 C219 0.929 . S
H199 C228 0.930 . S
H200 C220 0.931 . S
O201 Co177 2.097 . S
O201 C229 1.214 . S
H202 C230 0.929 . S
H203 C231 0.929 . S
H204 C232 0.930 . S
H205 C233 0.929 . S
H206 C235 0.930 . S
H207 C212 0.930 . S
H208 C216 0.930 1_554 S
O209 Co178 2.037 . S
O209 C229 1.234 . S
C210 O184 1.269 . S
C210 O185 1.257 . S
C211 H186 0.930 . S
C211 C214 1.388 . S
C211 C216 1.418 1_565 S
C212 H207 0.930 . S
C212 C215 1.404 . S
C212 C216 1.353 . S
N213 Co178 2.145 1_545 S
N213 C214 1.397 1_545 S
N213 C215 1.334 . S
C214 H195 0.929 . S
C214 C211 1.388 . S
C214 N213 1.397 1_565 S
C215 H196 0.929 . S
C215 C212 1.404 . S
C215 N213 1.334 . S
C216 H208 0.930 1_556 S
C216 C211 1.418 1_545 S
C216 C212 1.353 . S
C217 H187 0.930 . S
C217 N218 1.330 . S
C217 C219 1.446 . S
N218 Co177 2.151 . S
N218 C217 1.330 . S
N218 C222 1.418 . S
C219 H198 0.929 . S
C219 C217 1.446 . S
C219 C220 1.332 . S
C220 H200 0.931 . S
C220 C219 1.332 . S
C220 C221 1.267 . S
C221 H189 0.929 . S
C221 C220 1.267 . S
C221 C222 1.251 . S
C222 H192 0.929 . S
C222 N218 1.418 . S
C222 C221 1.251 . S
C223 H190 0.930 . S
C223 C225 1.406 . S
C223 C228 1.261 . S
C224 H191 0.930 . S
C224 N226 1.325 . S
C224 C227 1.357 . S
C225 H193 0.928 . S
C225 C223 1.406 . S
C225 N226 1.261 . S
N226 Co177 2.214 . S
N226 C224 1.325 . S
N226 C225 1.261 . S
C227 H197 0.931 . S
C227 C224 1.357 . S
C227 C228 1.312 . S
C228 H199 0.930 . S
C228 C223 1.261 . S
C228 C227 1.312 . S
C229 O201 1.214 . S
C229 O209 1.234 . S
C230 H202 0.929 . S
C230 C233 1.391 . S
C230 C235 1.391 . S
C231 H203 0.929 . S
C231 C232 1.390 . S
C231 N234 1.391 . S
C232 H204 0.930 . S
C232 C231 1.390 . S
C232 C233 1.392 . S
C233 H205 0.929 . S
C233 C230 1.391 . S
C233 C232 1.392 . S
N234 Co178 2.257 1_545 S
N234 C231 1.391 . S
N234 C235 1.388 . S
C235 H206 0.930 . S
C235 C230 1.391 . S
C235 N234 1.388 . S
Co236 O238 2.143 . S
Co236 O244 2.074 . S
Co236 O247 2.093 . S
Co236 O260 2.097 . S
Co236 N277 2.151 . S
Co236 N285 2.214 . S
Co237 O238 2.160 . S
Co237 O243 2.058 . S
Co237 O253 2.057 . S
Co237 O268 2.037 . S
Co237 N272 2.145 . S
Co237 N293 2.257 . S
O238 Co236 2.143 . S
O238 Co237 2.160 . S
C239 O240 1.278 . S
C239 O247 1.224 . S
O240 C239 1.278 . S
C241 O242 1.245 . S
C241 O253 1.232 . S
O242 C241 1.245 . S
O243 Co237 2.058 . S
O243 C269 1.269 . S
O244 Co236 2.074 . S
O244 C269 1.257 . S
H245 C270 0.930 . S
H246 C276 0.930 . S
O247 Co236 2.093 . S
O247 C239 1.224 . S
H248 C280 0.929 . S
H249 C282 0.930 1_554 S
H250 C283 0.930 . S
H251 C281 0.929 . S
H252 C284 0.928 . S
O253 Co237 2.057 . S
O253 C241 1.232 . S
H254 C273 0.929 . S
H255 C274 0.929 . S
H256 C286 0.931 . S
H257 C278 0.929 1_554 S
H258 C287 0.930 . S
H259 C279 0.931 1_554 S
O260 Co236 2.097 . S
O260 C288 1.214 . S
H261 C289 0.929 . S
H262 C290 0.929 . S
H263 C291 0.930 . S
H264 C292 0.929 . S
H265 C294 0.930 . S
H266 C271 0.930 . S
H267 C275 0.930 . S
O268 Co237 2.037 . S
O268 C288 1.234 . S
C269 O243 1.269 . S
C269 O244 1.257 . S
C270 H245 0.930 . S
C270 C273 1.388 . S
C270 C275 1.418 . S
C271 H266 0.930 . S
C271 C274 1.404 . S
C271 C275 1.353 . S
N272 Co237 2.145 . S
N272 C273 1.397 . S
N272 C274 1.334 . S
C273 H254 0.929 . S
C273 C270 1.388 . S
C273 N272 1.397 . S
C274 H255 0.929 . S
C274 C271 1.404 . S
C274 N272 1.334 . S
C275 H267 0.930 . S
C275 C270 1.418 . S
C275 C271 1.353 . S
C276 H246 0.930 . S
C276 N277 1.330 . S
C276 C278 1.446 . S
N277 Co236 2.151 . S
N277 C276 1.330 . S
N277 C281 1.418 . S
C278 H257 0.929 1_556 S
C278 C276 1.446 . S
C278 C279 1.332 . S
C279 H259 0.931 1_556 S
C279 C278 1.332 . S
C279 C280 1.267 . S
C280 H248 0.929 . S
C280 C279 1.267 . S
C280 C281 1.251 . S
C281 H251 0.929 . S
C281 N277 1.418 . S
C281 C280 1.251 . S
C282 H249 0.930 1_556 S
C282 C284 1.406 . S
C282 C287 1.261 . S
C283 H250 0.930 . S
C283 N285 1.325 . S
C283 C286 1.357 . S
C284 H252 0.928 . S
C284 C282 1.406 . S
C284 N285 1.261 . S
N285 Co236 2.214 . S
N285 C283 1.325 . S
N285 C284 1.261 . S
C286 H256 0.931 . S
C286 C283 1.357 . S
C286 C287 1.312 . S
C287 H258 0.930 . S
C287 C282 1.261 . S
C287 C286 1.312 . S
C288 O260 1.214 . S
C288 O268 1.234 . S
C289 H261 0.929 . S
C289 C292 1.391 . S
C289 C294 1.391 . S
C290 H262 0.929 . S
C290 C291 1.390 . S
C290 N293 1.391 . S
C291 H263 0.930 . S
C291 C290 1.390 . S
C291 C292 1.392 . S
C292 H264 0.929 . S
C292 C289 1.391 . S
C292 C291 1.392 . S
N293 Co237 2.257 . S
N293 C290 1.391 . S
N293 C294 1.388 . S
C294 H265 0.930 . S
C294 C289 1.391 . S
C294 N293 1.388 . S
Co295 O297 2.143 . S
Co295 O303 2.074 . S
Co295 O306 2.093 . S
Co295 O319 2.097 . S
Co295 N336 2.151 . S
Co295 N344 2.214 . S
Co296 O297 2.160 . S
Co296 O302 2.058 . S
Co296 O312 2.057 . S
Co296 O327 2.037 . S
Co296 N331 2.145 . S
Co296 N352 2.257 . S
O297 Co295 2.143 . S
O297 Co296 2.160 . S
C298 O299 1.278 . S
C298 O306 1.224 . S
O299 C298 1.278 . S
C300 O301 1.245 . S
C300 O312 1.232 . S
O301 C300 1.245 . S
O302 Co296 2.058 . S
O302 C328 1.269 . S
O303 Co295 2.074 . S
O303 C328 1.257 . S
H304 C329 0.930 . S
H305 C335 0.930 . S
O306 Co295 2.093 . S
O306 C298 1.224 . S
H307 C339 0.929 . S
H308 C341 0.930 . S
H309 C342 0.930 . S
H310 C340 0.929 . S
H311 C343 0.928 . S
O312 Co296 2.057 . S
O312 C300 1.232 . S
H313 C332 0.929 . S
H314 C333 0.929 . S
H315 C345 0.931 . S
H316 C337 0.929 . S
H317 C346 0.930 . S
H318 C338 0.931 . S
O319 Co295 2.097 . S
O319 C347 1.214 . S
H320 C348 0.929 . S
H321 C349 0.929 . S
H322 C350 0.930 . S
H323 C351 0.929 . S
H324 C353 0.930 . S
H325 C330 0.930 . S
H326 C334 0.930 1_556 S
O327 Co296 2.037 . S
O327 C347 1.234 . S
C328 O302 1.269 . S
C328 O303 1.257 . S
C329 H304 0.930 . S
C329 C332 1.388 . S
C329 C334 1.418 . S
C330 H325 0.930 . S
C330 C333 1.404 . S
C330 C334 1.353 . S
N331 Co296 2.145 . S
N331 C332 1.397 . S
N331 C333 1.334 . S
C332 H313 0.929 . S
C332 C329 1.388 . S
C332 N331 1.397 . S
C333 H314 0.929 . S
C333 C330 1.404 . S
C333 N331 1.334 . S
C334 H326 0.930 1_554 S
C334 C329 1.418 . S
C334 C330 1.353 . S
C335 H305 0.930 . S
C335 N336 1.330 . S
C335 C337 1.446 . S
N336 Co295 2.151 . S
N336 C335 1.330 . S
N336 C340 1.418 . S
C337 H316 0.929 . S
C337 C335 1.446 . S
C337 C338 1.332 . S
C338 H318 0.931 . S
C338 C337 1.332 . S
C338 C339 1.267 . S
C339 H307 0.929 . S
C339 C338 1.267 . S
C339 C340 1.251 . S
C340 H310 0.929 . S
C340 N336 1.418 . S
C340 C339 1.251 . S
C341 H308 0.930 . S
C341 C343 1.406 . S
C341 C346 1.261 . S
C342 H309 0.930 . S
C342 N344 1.325 . S
C342 C345 1.357 . S
C343 H311 0.928 . S
C343 C341 1.406 . S
C343 N344 1.261 . S
N344 Co295 2.214 . S
N344 C342 1.325 . S
N344 C343 1.261 . S
C345 H315 0.931 . S
C345 C342 1.357 . S
C345 C346 1.312 . S
C346 H317 0.930 . S
C346 C341 1.261 . S
C346 C345 1.312 . S
C347 O319 1.214 . S
C347 O327 1.234 . S
C348 H320 0.929 . S
C348 C351 1.391 . S
C348 C353 1.391 . S
C349 H321 0.929 . S
C349 C350 1.390 . S
C349 N352 1.391 . S
C350 H322 0.930 . S
C350 C349 1.390 . S
C350 C351 1.392 . S
C351 H323 0.929 . S
C351 C348 1.391 . S
C351 C350 1.392 . S
N352 Co296 2.257 . S
N352 C349 1.391 . S
N352 C353 1.388 . S
C353 H324 0.930 . S
C353 C348 1.391 . S
C353 N352 1.388 . S
Co354 O356 2.143 . S
Co354 O362 2.074 . S
Co354 O365 2.093 . S
Co354 O378 2.097 . S
Co354 N395 2.151 . S
Co354 N403 2.214 . S
Co355 O356 2.160 . S
Co355 O361 2.058 . S
Co355 O371 2.057 1_655 S
Co355 O386 2.037 . S
Co355 N390 2.145 1_655 S
Co355 N411 2.257 1_655 S
O356 Co354 2.143 . S
O356 Co355 2.160 . S
C357 O358 1.278 1_655 S
C357 O365 1.224 . S
O358 C357 1.278 1_455 S
C359 O360 1.245 . S
C359 O371 1.232 . S
O360 C359 1.245 . S
O361 Co355 2.058 . S
O361 C387 1.269 . S
O362 Co354 2.074 . S
O362 C387 1.257 . S
H363 C388 0.930 . S
H364 C394 0.930 . S
O365 Co354 2.093 . S
O365 C357 1.224 . S
H366 C398 0.929 . S
H367 C400 0.930 1_554 S
H368 C401 0.930 . S
H369 C399 0.929 . S
H370 C402 0.928 . S
O371 Co355 2.057 1_455 S
O371 C359 1.232 . S
H372 C391 0.929 . S
H373 C392 0.929 . S
H374 C404 0.931 . S
H375 C396 0.929 1_554 S
H376 C405 0.930 . S
H377 C397 0.931 1_554 S
O378 Co354 2.097 . S
O378 C406 1.214 . S
H379 C407 0.929 . S
H380 C408 0.929 . S
H381 C409 0.930 . S
H382 C410 0.929 . S
H383 C412 0.930 . S
H384 C389 0.930 . S
H385 C393 0.930 . S
O386 Co355 2.037 . S
O386 C406 1.234 . S
C387 O361 1.269 . S
C387 O362 1.257 . S
C388 H363 0.930 . S
C388 C391 1.388 . S
C388 C393 1.418 1_655 S
C389 H384 0.930 . S
C389 C392 1.404 . S
C389 C393 1.353 . S
N390 Co355 2.145 1_455 S
N390 C391 1.397 1_455 S
N390 C392 1.334 . S
C391 H372 0.929 . S
C391 C388 1.388 . S
C391 N390 1.397 1_655 S
C392 H373 0.929 . S
C392 C389 1.404 . S
C392 N390 1.334 . S
C393 H385 0.930 . S
C393 C388 1.418 1_455 S
C393 C389 1.353 . S
C394 H364 0.930 . S
C394 N395 1.330 . S
C394 C396 1.446 . S
N395 Co354 2.151 . S
N395 C394 1.330 . S
N395 C399 1.418 . S
C396 H375 0.929 1_556 S
C396 C394 1.446 . S
C396 C397 1.332 . S
C397 H377 0.931 1_556 S
C397 C396 1.332 . S
C397 C398 1.267 . S
C398 H366 0.929 . S
C398 C397 1.267 . S
C398 C399 1.251 . S
C399 H369 0.929 . S
C399 N395 1.418 . S
C399 C398 1.251 . S
C400 H367 0.930 1_556 S
C400 C402 1.406 . S
C400 C405 1.261 . S
C401 H368 0.930 . S
C401 N403 1.325 . S
C401 C404 1.357 . S
C402 H370 0.928 . S
C402 C400 1.406 . S
C402 N403 1.261 . S
N403 Co354 2.214 . S
N403 C401 1.325 . S
N403 C402 1.261 . S
C404 H374 0.931 . S
C404 C401 1.357 . S
C404 C405 1.312 . S
C405 H376 0.930 . S
C405 C400 1.261 . S
C405 C404 1.312 . S
C406 O378 1.214 . S
C406 O386 1.234 . S
C407 H379 0.929 . S
C407 C410 1.391 . S
C407 C412 1.391 . S
C408 H380 0.929 . S
C408 C409 1.390 . S
C408 N411 1.391 . S
C409 H381 0.930 . S
C409 C408 1.390 . S
C409 C410 1.392 . S
C410 H382 0.929 . S
C410 C407 1.391 . S
C410 C409 1.392 . S
N411 Co355 2.257 1_455 S
N411 C408 1.391 . S
N411 C412 1.388 . S
C412 H383 0.930 . S
C412 C407 1.391 . S
C412 N411 1.388 . S
Co413 O415 2.143 . S
Co413 O421 2.074 . S
Co413 O424 2.093 . S
Co413 O437 2.097 . S
Co413 N454 2.151 . S
Co413 N462 2.214 . S
Co414 O415 2.160 . S
Co414 O420 2.058 . S
Co414 O430 2.057 1_565 S
Co414 O445 2.037 . S
Co414 N449 2.145 1_565 S
Co414 N470 2.257 1_565 S
O415 Co413 2.143 . S
O415 Co414 2.160 . S
C416 O417 1.278 1_565 S
C416 O424 1.224 . S
O417 C416 1.278 1_545 S
C418 O419 1.245 . S
C418 O430 1.232 . S
O419 C418 1.245 . S
O420 Co414 2.058 . S
O420 C446 1.269 . S
O421 Co413 2.074 . S
O421 C446 1.257 . S
H422 C447 0.930 . S
H423 C453 0.930 . S
O424 Co413 2.093 . S
O424 C416 1.224 . S
H425 C457 0.929 . S
H426 C459 0.930 . S
H427 C460 0.930 . S
H428 C458 0.929 . S
H429 C461 0.928 . S
O430 Co414 2.057 1_545 S
O430 C418 1.232 . S
H431 C450 0.929 . S
H432 C451 0.929 . S
H433 C463 0.931 . S
H434 C455 0.929 . S
H435 C464 0.930 . S
H436 C456 0.931 . S
O437 Co413 2.097 . S
O437 C465 1.214 . S
H438 C466 0.929 . S
H439 C467 0.929 . S
H440 C468 0.930 . S
H441 C469 0.929 . S
H442 C471 0.930 . S
H443 C448 0.930 . S
H444 C452 0.930 1_556 S
O445 Co414 2.037 . S
O445 C465 1.234 . S
C446 O420 1.269 . S
C446 O421 1.257 . S
C447 H422 0.930 . S
C447 C450 1.388 . S
C447 C452 1.418 1_565 S
C448 H443 0.930 . S
C448 C451 1.404 . S
C448 C452 1.353 . S
N449 Co414 2.145 1_545 S
N449 C450 1.397 1_545 S
N449 C451 1.334 . S
C450 H431 0.929 . S
C450 C447 1.388 . S
C450 N449 1.397 1_565 S
C451 H432 0.929 . S
C451 C448 1.404 . S
C451 N449 1.334 . S
C452 H444 0.930 1_554 S
C452 C447 1.418 1_545 S
C452 C448 1.353 . S
C453 H423 0.930 . S
C453 N454 1.330 . S
C453 C455 1.446 . S
N454 Co413 2.151 . S
N454 C453 1.330 . S
N454 C458 1.418 . S
C455 H434 0.929 . S
C455 C453 1.446 . S
C455 C456 1.332 . S
C456 H436 0.931 . S
C456 C455 1.332 . S
C456 C457 1.267 . S
C457 H425 0.929 . S
C457 C456 1.267 . S
C457 C458 1.251 . S
C458 H428 0.929 . S
C458 N454 1.418 . S
C458 C457 1.251 . S
C459 H426 0.930 . S
C459 C461 1.406 . S
C459 C464 1.261 . S
C460 H427 0.930 . S
C460 N462 1.325 . S
C460 C463 1.357 . S
C461 H429 0.928 . S
C461 C459 1.406 . S
C461 N462 1.261 . S
N462 Co413 2.214 . S
N462 C460 1.325 . S
N462 C461 1.261 . S
C463 H433 0.931 . S
C463 C460 1.357 . S
C463 C464 1.312 . S
C464 H435 0.930 . S
C464 C459 1.261 . S
C464 C463 1.312 . S
C465 O437 1.214 . S
C465 O445 1.234 . S
C466 H438 0.929 . S
C466 C469 1.391 . S
C466 C471 1.391 . S
C467 H439 0.929 . S
C467 C468 1.390 . S
C467 N470 1.391 . S
C468 H440 0.930 . S
C468 C467 1.390 . S
C468 C469 1.392 . S
C469 H441 0.929 . S
C469 C466 1.391 . S
C469 C468 1.392 . S
N470 Co414 2.257 1_545 S
N470 C467 1.391 . S
N470 C471 1.388 . S
C471 H442 0.930 . S
C471 C466 1.391 . S
C471 N470 1.388 . S
Co472 O474 2.143 . S
Co472 O480 2.074 . S
Co472 O483 2.093 . S
Co472 O496 2.097 . S
Co472 N513 2.151 . S
Co472 N521 2.214 . S
Co473 O474 2.160 . S
Co473 O479 2.058 . S
Co473 O489 2.057 . S
Co473 O504 2.037 . S
Co473 N508 2.145 . S
Co473 N529 2.257 . S
O474 Co472 2.143 . S
O474 Co473 2.160 . S
C475 O476 1.278 . S
C475 O483 1.224 . S
O476 C475 1.278 . S
C477 O478 1.245 . S
C477 O489 1.232 . S
O478 C477 1.245 . S
O479 Co473 2.058 . S
O479 C505 1.269 . S
O480 Co472 2.074 . S
O480 C505 1.257 . S
H481 C506 0.930 . S
H482 C512 0.930 . S
O483 Co472 2.093 . S
O483 C475 1.224 . S
H484 C516 0.929 . S
H485 C518 0.930 1_554 S
H486 C519 0.930 . S
H487 C517 0.929 . S
H488 C520 0.928 . S
O489 Co473 2.057 . S
O489 C477 1.232 . S
H490 C509 0.929 . S
H491 C510 0.929 . S
H492 C522 0.931 . S
H493 C514 0.929 1_554 S
H494 C523 0.930 . S
H495 C515 0.931 1_554 S
O496 Co472 2.097 . S
O496 C524 1.214 . S
H497 C525 0.929 . S
H498 C526 0.929 . S
H499 C527 0.930 . S
H500 C528 0.929 . S
H501 C530 0.930 . S
H502 C507 0.930 . S
H503 C511 0.930 . S
O504 Co473 2.037 . S
O504 C524 1.234 . S
C505 O479 1.269 . S
C505 O480 1.257 . S
C506 H481 0.930 . S
C506 C509 1.388 . S
C506 C511 1.418 . S
C507 H502 0.930 . S
C507 C510 1.404 . S
C507 C511 1.353 . S
N508 Co473 2.145 . S
N508 C509 1.397 . S
N508 C510 1.334 . S
C509 H490 0.929 . S
C509 C506 1.388 . S
C509 N508 1.397 . S
C510 H491 0.929 . S
C510 C507 1.404 . S
C510 N508 1.334 . S
C511 H503 0.930 . S
C511 C506 1.418 . S
C511 C507 1.353 . S
C512 H482 0.930 . S
C512 N513 1.330 . S
C512 C514 1.446 . S
N513 Co472 2.151 . S
N513 C512 1.330 . S
N513 C517 1.418 . S
C514 H493 0.929 1_556 S
C514 C512 1.446 . S
C514 C515 1.332 . S
C515 H495 0.931 1_556 S
C515 C514 1.332 . S
C515 C516 1.267 . S
C516 H484 0.929 . S
C516 C515 1.267 . S
C516 C517 1.251 . S
C517 H487 0.929 . S
C517 N513 1.418 . S
C517 C516 1.251 . S
C518 H485 0.930 1_556 S
C518 C520 1.406 . S
C518 C523 1.261 . S
C519 H486 0.930 . S
C519 N521 1.325 . S
C519 C522 1.357 . S
C520 H488 0.928 . S
C520 C518 1.406 . S
C520 N521 1.261 . S
N521 Co472 2.214 . S
N521 C519 1.325 . S
N521 C520 1.261 . S
C522 H492 0.931 . S
C522 C519 1.357 . S
C522 C523 1.312 . S
C523 H494 0.930 . S
C523 C518 1.261 . S
C523 C522 1.312 . S
C524 O496 1.214 . S
C524 O504 1.234 . S
C525 H497 0.929 . S
C525 C528 1.391 . S
C525 C530 1.391 . S
C526 H498 0.929 . S
C526 C527 1.390 . S
C526 N529 1.391 . S
C527 H499 0.930 . S
C527 C526 1.390 . S
C527 C528 1.392 . S
C528 H500 0.929 . S
C528 C525 1.391 . S
C528 C527 1.392 . S
N529 Co473 2.257 . S
N529 C526 1.391 . S
N529 C530 1.388 . S
C530 H501 0.930 . S
C530 C525 1.391 . S
C530 N529 1.388 . S
Co531 O533 2.143 . S
Co531 O539 2.074 . S
Co531 O542 2.093 . S
Co531 O555 2.097 . S
Co531 N572 2.151 . S
Co531 N580 2.214 . S
Co532 O533 2.160 . S
Co532 O538 2.058 . S
Co532 O548 2.057 . S
Co532 O563 2.037 . S
Co532 N567 2.145 . S
Co532 N588 2.257 . S
O533 Co531 2.143 . S
O533 Co532 2.160 . S
C534 O535 1.278 . S
C534 O542 1.224 . S
O535 C534 1.278 . S
C536 O537 1.245 . S
C536 O548 1.232 . S
O537 C536 1.245 . S
O538 Co532 2.058 . S
O538 C564 1.269 . S
O539 Co531 2.074 . S
O539 C564 1.257 . S
H540 C565 0.930 . S
H541 C571 0.930 . S
O542 Co531 2.093 . S
O542 C534 1.224 . S
H543 C575 0.929 . S
H544 C577 0.930 . S
H545 C578 0.930 . S
H546 C576 0.929 . S
H547 C579 0.928 . S
O548 Co532 2.057 . S
O548 C536 1.232 . S
H549 C568 0.929 . S
H550 C569 0.929 . S
H551 C581 0.931 . S
H552 C573 0.929 . S
H553 C582 0.930 . S
H554 C574 0.931 . S
O555 Co531 2.097 . S
O555 C583 1.214 . S
H556 C584 0.929 . S
H557 C585 0.929 . S
H558 C586 0.930 . S
H559 C587 0.929 . S
H560 C589 0.930 . S
H561 C566 0.930 . S
H562 C570 0.930 1_556 S
O563 Co532 2.037 . S
O563 C583 1.234 . S
C564 O538 1.269 . S
C564 O539 1.257 . S
C565 H540 0.930 . S
C565 C568 1.388 . S
C565 C570 1.418 . S
C566 H561 0.930 . S
C566 C569 1.404 . S
C566 C570 1.353 . S
N567 Co532 2.145 . S
N567 C568 1.397 . S
N567 C569 1.334 . S
C568 H549 0.929 . S
C568 C565 1.388 . S
C568 N567 1.397 . S
C569 H550 0.929 . S
C569 C566 1.404 . S
C569 N567 1.334 . S
C570 H562 0.930 1_554 S
C570 C565 1.418 . S
C570 C566 1.353 . S
C571 H541 0.930 . S
C571 N572 1.330 . S
C571 C573 1.446 . S
N572 Co531 2.151 . S
N572 C571 1.330 . S
N572 C576 1.418 . S
C573 H552 0.929 . S
C573 C571 1.446 . S
C573 C574 1.332 . S
C574 H554 0.931 . S
C574 C573 1.332 . S
C574 C575 1.267 . S
C575 H543 0.929 . S
C575 C574 1.267 . S
C575 C576 1.251 . S
C576 H546 0.929 . S
C576 N572 1.418 . S
C576 C575 1.251 . S
C577 H544 0.930 . S
C577 C579 1.406 . S
C577 C582 1.261 . S
C578 H545 0.930 . S
C578 N580 1.325 . S
C578 C581 1.357 . S
C579 H547 0.928 . S
C579 C577 1.406 . S
C579 N580 1.261 . S
N580 Co531 2.214 . S
N580 C578 1.325 . S
N580 C579 1.261 . S
C581 H551 0.931 . S
C581 C578 1.357 . S
C581 C582 1.312 . S
C582 H553 0.930 . S
C582 C577 1.261 . S
C582 C581 1.312 . S
C583 O555 1.214 . S
C583 O563 1.234 . S
C584 H556 0.929 . S
C584 C587 1.391 . S
C584 C589 1.391 . S
C585 H557 0.929 . S
C585 C586 1.390 . S
C585 N588 1.391 . S
C586 H558 0.930 . S
C586 C585 1.390 . S
C586 C587 1.392 . S
C587 H559 0.929 . S
C587 C584 1.391 . S
C587 C586 1.392 . S
N588 Co532 2.257 . S
N588 C585 1.391 . S
N588 C589 1.388 . S
C589 H560 0.930 . S
C589 C584 1.391 . S
C589 N588 1.388 . S
Co590 O592 2.143 . S
Co590 O598 2.074 . S
Co590 O601 2.093 . S
Co590 O614 2.097 . S
Co590 N631 2.151 . S
Co590 N639 2.214 . S
Co591 O592 2.160 . S
Co591 O597 2.058 . S
Co591 O607 2.057 1_455 S
Co591 O622 2.037 . S
Co591 N626 2.145 1_455 S
Co591 N647 2.257 1_455 S
O592 Co590 2.143 . S
O592 Co591 2.160 . S
C593 O594 1.278 1_455 S
C593 O601 1.224 . S
O594 C593 1.278 1_655 S
C595 O596 1.245 . S
C595 O607 1.232 . S
O596 C595 1.245 . S
O597 Co591 2.058 . S
O597 C623 1.269 . S
O598 Co590 2.074 . S
O598 C623 1.257 . S
H599 C624 0.930 . S
H600 C630 0.930 . S
O601 Co590 2.093 . S
O601 C593 1.224 . S
H602 C634 0.929 . S
H603 C636 0.930 1_554 S
H604 C637 0.930 . S
H605 C635 0.929 . S
H606 C638 0.928 . S
O607 Co591 2.057 1_655 S
O607 C595 1.232 . S
H608 C627 0.929 . S
H609 C628 0.929 . S
H610 C640 0.931 . S
H611 C632 0.929 1_554 S
H612 C641 0.930 . S
H613 C633 0.931 1_554 S
O614 Co590 2.097 . S
O614 C642 1.214 . S
H615 C643 0.929 . S
H616 C644 0.929 . S
H617 C645 0.930 . S
H618 C646 0.929 . S
H619 C648 0.930 . S
H620 C625 0.930 . S
H621 C629 0.930 . S
O622 Co591 2.037 . S
O622 C642 1.234 . S
C623 O597 1.269 . S
C623 O598 1.257 . S
C624 H599 0.930 . S
C624 C627 1.388 . S
C624 C629 1.418 1_455 S
C625 H620 0.930 . S
C625 C628 1.404 . S
C625 C629 1.353 . S
N626 Co591 2.145 1_655 S
N626 C627 1.397 1_655 S
N626 C628 1.334 . S
C627 H608 0.929 . S
C627 C624 1.388 . S
C627 N626 1.397 1_455 S
C628 H609 0.929 . S
C628 C625 1.404 . S
C628 N626 1.334 . S
C629 H621 0.930 . S
C629 C624 1.418 1_655 S
C629 C625 1.353 . S
C630 H600 0.930 . S
C630 N631 1.330 . S
C630 C632 1.446 . S
N631 Co590 2.151 . S
N631 C630 1.330 . S
N631 C635 1.418 . S
C632 H611 0.929 1_556 S
C632 C630 1.446 . S
C632 C633 1.332 . S
C633 H613 0.931 1_556 S
C633 C632 1.332 . S
C633 C634 1.267 . S
C634 H602 0.929 . S
C634 C633 1.267 . S
C634 C635 1.251 . S
C635 H605 0.929 . S
C635 N631 1.418 . S
C635 C634 1.251 . S
C636 H603 0.930 1_556 S
C636 C638 1.406 . S
C636 C641 1.261 . S
C637 H604 0.930 . S
C637 N639 1.325 . S
C637 C640 1.357 . S
C638 H606 0.928 . S
C638 C636 1.406 . S
C638 N639 1.261 . S
N639 Co590 2.214 . S
N639 C637 1.325 . S
N639 C638 1.261 . S
C640 H610 0.931 . S
C640 C637 1.357 . S
C640 C641 1.312 . S
C641 H612 0.930 . S
C641 C636 1.261 . S
C641 C640 1.312 . S
C642 O614 1.214 . S
C642 O622 1.234 . S
C643 H615 0.929 . S
C643 C646 1.391 . S
C643 C648 1.391 . S
C644 H616 0.929 . S
C644 C645 1.390 . S
C644 N647 1.391 . S
C645 H617 0.930 . S
C645 C644 1.390 . S
C645 C646 1.392 . S
C646 H618 0.929 . S
C646 C643 1.391 . S
C646 C645 1.392 . S
N647 Co591 2.257 1_655 S
N647 C644 1.391 . S
N647 C648 1.388 . S
C648 H619 0.930 . S
C648 C643 1.391 . S
C648 N647 1.388 . S
Co649 O651 2.143 . S
Co649 O657 2.074 . S
Co649 O660 2.093 . S
Co649 O673 2.097 . S
Co649 N690 2.151 . S
Co649 N698 2.214 . S
Co650 O651 2.160 . S
Co650 O656 2.058 . S
Co650 O666 2.057 1_545 S
Co650 O681 2.037 . S
Co650 N685 2.145 1_545 S
Co650 N706 2.257 1_545 S
O651 Co649 2.143 . S
O651 Co650 2.160 . S
C652 O653 1.278 1_545 S
C652 O660 1.224 . S
O653 C652 1.278 1_565 S
C654 O655 1.245 . S
C654 O666 1.232 . S
O655 C654 1.245 . S
O656 Co650 2.058 . S
O656 C682 1.269 . S
O657 Co649 2.074 . S
O657 C682 1.257 . S
H658 C683 0.930 . S
H659 C689 0.930 . S
O660 Co649 2.093 . S
O660 C652 1.224 . S
H661 C693 0.929 . S
H662 C695 0.930 . S
H663 C696 0.930 . S
H664 C694 0.929 . S
H665 C697 0.928 . S
O666 Co650 2.057 1_565 S
O666 C654 1.232 . S
H667 C686 0.929 . S
H668 C687 0.929 . S
H669 C699 0.931 . S
H670 C691 0.929 . S
H671 C700 0.930 . S
H672 C692 0.931 . S
O673 Co649 2.097 . S
O673 C701 1.214 . S
H674 C702 0.929 . S
H675 C703 0.929 . S
H676 C704 0.930 . S
H677 C705 0.929 . S
H678 C707 0.930 . S
H679 C684 0.930 . S
H680 C688 0.930 1_556 S
O681 Co650 2.037 . S
O681 C701 1.234 . S
C682 O656 1.269 . S
C682 O657 1.257 . S
C683 H658 0.930 . S
C683 C686 1.388 . S
C683 C688 1.418 1_545 S
C684 H679 0.930 . S
C684 C687 1.404 . S
C684 C688 1.353 . S
N685 Co650 2.145 1_565 S
N685 C686 1.397 1_565 S
N685 C687 1.334 . S
C686 H667 0.929 . S
C686 C683 1.388 . S
C686 N685 1.397 1_545 S
C687 H668 0.929 . S
C687 C684 1.404 . S
C687 N685 1.334 . S
C688 H680 0.930 1_554 S
C688 C683 1.418 1_565 S
C688 C684 1.353 . S
C689 H659 0.930 . S
C689 N690 1.330 . S
C689 C691 1.446 . S
N690 Co649 2.151 . S
N690 C689 1.330 . S
N690 C694 1.418 . S
C691 H670 0.929 . S
C691 C689 1.446 . S
C691 C692 1.332 . S
C692 H672 0.931 . S
C692 C691 1.332 . S
C692 C693 1.267 . S
C693 H661 0.929 . S
C693 C692 1.267 . S
C693 C694 1.251 . S
C694 H664 0.929 . S
C694 N690 1.418 . S
C694 C693 1.251 . S
C695 H662 0.930 . S
C695 C697 1.406 . S
C695 C700 1.261 . S
C696 H663 0.930 . S
C696 N698 1.325 . S
C696 C699 1.357 . S
C697 H665 0.928 . S
C697 C695 1.406 . S
C697 N698 1.261 . S
N698 Co649 2.214 . S
N698 C696 1.325 . S
N698 C697 1.261 . S
C699 H669 0.931 . S
C699 C696 1.357 . S
C699 C700 1.312 . S
C700 H671 0.930 . S
C700 C695 1.261 . S
C700 C699 1.312 . S
C701 O673 1.214 . S
C701 O681 1.234 . S
C702 H674 0.929 . S
C702 C705 1.391 . S
C702 C707 1.391 . S
C703 H675 0.929 . S
C703 C704 1.390 . S
C703 N706 1.391 . S
C704 H676 0.930 . S
C704 C703 1.390 . S
C704 C705 1.392 . S
C705 H677 0.929 . S
C705 C702 1.391 . S
C705 C704 1.392 . S
N706 Co650 2.257 1_565 S
N706 C703 1.391 . S
N706 C707 1.388 . S
C707 H678 0.930 . S
C707 C702 1.391 . S
C707 N706 1.388 . S
Co708 O710 2.143 . S
Co708 O716 2.074 . S
Co708 O719 2.093 . S
Co708 O732 2.097 . S
Co708 N749 2.151 . S
Co708 N757 2.214 . S
Co709 O710 2.160 . S
Co709 O715 2.058 . S
Co709 O725 2.057 . S
Co709 O740 2.037 . S
Co709 N744 2.145 . S
Co709 N765 2.257 . S
O710 Co708 2.143 . S
O710 Co709 2.160 . S
C711 O712 1.278 . S
C711 O719 1.224 . S
O712 C711 1.278 . S
C713 O714 1.245 . S
C713 O725 1.232 . S
O714 C713 1.245 . S
O715 Co709 2.058 . S
O715 C741 1.269 . S
O716 Co708 2.074 . S
O716 C741 1.257 . S
H717 C742 0.930 . S
H718 C748 0.930 . S
O719 Co708 2.093 . S
O719 C711 1.224 . S
H720 C752 0.929 . S
H721 C754 0.930 1_556 S
H722 C755 0.930 . S
H723 C753 0.929 . S
H724 C756 0.928 . S
O725 Co709 2.057 . S
O725 C713 1.232 . S
H726 C745 0.929 . S
H727 C746 0.929 . S
H728 C758 0.931 . S
H729 C750 0.929 1_556 S
H730 C759 0.930 . S
H731 C751 0.931 1_556 S
O732 Co708 2.097 . S
O732 C760 1.214 . S
H733 C761 0.929 . S
H734 C762 0.929 . S
H735 C763 0.930 . S
H736 C764 0.929 . S
H737 C766 0.930 . S
H738 C743 0.930 . S
H739 C747 0.930 . S
O740 Co709 2.037 . S
O740 C760 1.234 . S
C741 O715 1.269 . S
C741 O716 1.257 . S
C742 H717 0.930 . S
C742 C745 1.388 . S
C742 C747 1.418 . S
C743 H738 0.930 . S
C743 C746 1.404 . S
C743 C747 1.353 . S
N744 Co709 2.145 . S
N744 C745 1.397 . S
N744 C746 1.334 . S
C745 H726 0.929 . S
C745 C742 1.388 . S
C745 N744 1.397 . S
C746 H727 0.929 . S
C746 C743 1.404 . S
C746 N744 1.334 . S
C747 H739 0.930 . S
C747 C742 1.418 . S
C747 C743 1.353 . S
C748 H718 0.930 . S
C748 N749 1.330 . S
C748 C750 1.446 . S
N749 Co708 2.151 . S
N749 C748 1.330 . S
N749 C753 1.418 . S
C750 H729 0.929 1_554 S
C750 C748 1.446 . S
C750 C751 1.332 . S
C751 H731 0.931 1_554 S
C751 C750 1.332 . S
C751 C752 1.267 . S
C752 H720 0.929 . S
C752 C751 1.267 . S
C752 C753 1.251 . S
C753 H723 0.929 . S
C753 N749 1.418 . S
C753 C752 1.251 . S
C754 H721 0.930 1_554 S
C754 C756 1.406 . S
C754 C759 1.261 . S
C755 H722 0.930 . S
C755 N757 1.325 . S
C755 C758 1.357 . S
C756 H724 0.928 . S
C756 C754 1.406 . S
C756 N757 1.261 . S
N757 Co708 2.214 . S
N757 C755 1.325 . S
N757 C756 1.261 . S
C758 H728 0.931 . S
C758 C755 1.357 . S
C758 C759 1.312 . S
C759 H730 0.930 . S
C759 C754 1.261 . S
C759 C758 1.312 . S
C760 O732 1.214 . S
C760 O740 1.234 . S
C761 H733 0.929 . S
C761 C764 1.391 . S
C761 C766 1.391 . S
C762 H734 0.929 . S
C762 C763 1.390 . S
C762 N765 1.391 . S
C763 H735 0.930 . S
C763 C762 1.390 . S
C763 C764 1.392 . S
C764 H736 0.929 . S
C764 C761 1.391 . S
C764 C763 1.392 . S
N765 Co709 2.257 . S
N765 C762 1.391 . S
N765 C766 1.388 . S
C766 H737 0.930 . S
C766 C761 1.391 . S
C766 N765 1.388 . S
Co767 O769 2.143 . S
Co767 O775 2.074 . S
Co767 O778 2.093 . S
Co767 O791 2.097 . S
Co767 N808 2.151 . S
Co767 N816 2.214 . S
Co768 O769 2.160 . S
Co768 O774 2.058 . S
Co768 O784 2.057 . S
Co768 O799 2.037 . S
Co768 N803 2.145 . S
Co768 N824 2.257 . S
O769 Co767 2.143 . S
O769 Co768 2.160 . S
C770 O771 1.278 . S
C770 O778 1.224 . S
O771 C770 1.278 . S
C772 O773 1.245 . S
C772 O784 1.232 . S
O773 C772 1.245 . S
O774 Co768 2.058 . S
O774 C800 1.269 . S
O775 Co767 2.074 . S
O775 C800 1.257 . S
H776 C801 0.930 . S
H777 C807 0.930 . S
O778 Co767 2.093 . S
O778 C770 1.224 . S
H779 C811 0.929 . S
H780 C813 0.930 . S
H781 C814 0.930 . S
H782 C812 0.929 . S
H783 C815 0.928 . S
O784 Co768 2.057 . S
O784 C772 1.232 . S
H785 C804 0.929 . S
H786 C805 0.929 . S
H787 C817 0.931 . S
H788 C809 0.929 . S
H789 C818 0.930 . S
H790 C810 0.931 . S
O791 Co767 2.097 . S
O791 C819 1.214 . S
H792 C820 0.929 . S
H793 C821 0.929 . S
H794 C822 0.930 . S
H795 C823 0.929 . S
H796 C825 0.930 . S
H797 C802 0.930 . S
H798 C806 0.930 1_554 S
O799 Co768 2.037 . S
O799 C819 1.234 . S
C800 O774 1.269 . S
C800 O775 1.257 . S
C801 H776 0.930 . S
C801 C804 1.388 . S
C801 C806 1.418 . S
C802 H797 0.930 . S
C802 C805 1.404 . S
C802 C806 1.353 . S
N803 Co768 2.145 . S
N803 C804 1.397 . S
N803 C805 1.334 . S
C804 H785 0.929 . S
C804 C801 1.388 . S
C804 N803 1.397 . S
C805 H786 0.929 . S
C805 C802 1.404 . S
C805 N803 1.334 . S
C806 H798 0.930 1_556 S
C806 C801 1.418 . S
C806 C802 1.353 . S
C807 H777 0.930 . S
C807 N808 1.330 . S
C807 C809 1.446 . S
N808 Co767 2.151 . S
N808 C807 1.330 . S
N808 C812 1.418 . S
C809 H788 0.929 . S
C809 C807 1.446 . S
C809 C810 1.332 . S
C810 H790 0.931 . S
C810 C809 1.332 . S
C810 C811 1.267 . S
C811 H779 0.929 . S
C811 C810 1.267 . S
C811 C812 1.251 . S
C812 H782 0.929 . S
C812 N808 1.418 . S
C812 C811 1.251 . S
C813 H780 0.930 . S
C813 C815 1.406 . S
C813 C818 1.261 . S
C814 H781 0.930 . S
C814 N816 1.325 . S
C814 C817 1.357 . S
C815 H783 0.928 . S
C815 C813 1.406 . S
C815 N816 1.261 . S
N816 Co767 2.214 . S
N816 C814 1.325 . S
N816 C815 1.261 . S
C817 H787 0.931 . S
C817 C814 1.357 . S
C817 C818 1.312 . S
C818 H789 0.930 . S
C818 C813 1.261 . S
C818 C817 1.312 . S
C819 O791 1.214 . S
C819 O799 1.234 . S
C820 H792 0.929 . S
C820 C823 1.391 . S
C820 C825 1.391 . S
C821 H793 0.929 . S
C821 C822 1.390 . S
C821 N824 1.391 . S
C822 H794 0.930 . S
C822 C821 1.390 . S
C822 C823 1.392 . S
C823 H795 0.929 . S
C823 C820 1.391 . S
C823 C822 1.392 . S
N824 Co768 2.257 . S
N824 C821 1.391 . S
N824 C825 1.388 . S
C825 H796 0.930 . S
C825 C820 1.391 . S
C825 N824 1.388 . S
Co826 O828 2.143 . S
Co826 O834 2.074 . S
Co826 O837 2.093 . S
Co826 O850 2.097 . S
Co826 N867 2.151 . S
Co826 N875 2.214 . S
Co827 O828 2.160 . S
Co827 O833 2.058 . S
Co827 O843 2.057 1_455 S
Co827 O858 2.037 . S
Co827 N862 2.145 1_455 S
Co827 N883 2.257 1_455 S
O828 Co826 2.143 . S
O828 Co827 2.160 . S
C829 O830 1.278 1_455 S
C829 O837 1.224 . S
O830 C829 1.278 1_655 S
C831 O832 1.245 . S
C831 O843 1.232 . S
O832 C831 1.245 . S
O833 Co827 2.058 . S
O833 C859 1.269 . S
O834 Co826 2.074 . S
O834 C859 1.257 . S
H835 C860 0.930 . S
H836 C866 0.930 . S
O837 Co826 2.093 . S
O837 C829 1.224 . S
H838 C870 0.929 . S
H839 C872 0.930 1_556 S
H840 C873 0.930 . S
H841 C871 0.929 . S
H842 C874 0.928 . S
O843 Co827 2.057 1_655 S
O843 C831 1.232 . S
H844 C863 0.929 . S
H845 C864 0.929 . S
H846 C876 0.931 . S
H847 C868 0.929 1_556 S
H848 C877 0.930 . S
H849 C869 0.931 1_556 S
O850 Co826 2.097 . S
O850 C878 1.214 . S
H851 C879 0.929 . S
H852 C880 0.929 . S
H853 C881 0.930 . S
H854 C882 0.929 . S
H855 C884 0.930 . S
H856 C861 0.930 . S
H857 C865 0.930 . S
O858 Co827 2.037 . S
O858 C878 1.234 . S
C859 O833 1.269 . S
C859 O834 1.257 . S
C860 H835 0.930 . S
C860 C863 1.388 . S
C860 C865 1.418 1_455 S
C861 H856 0.930 . S
C861 C864 1.404 . S
C861 C865 1.353 . S
N862 Co827 2.145 1_655 S
N862 C863 1.397 1_655 S
N862 C864 1.334 . S
C863 H844 0.929 . S
C863 C860 1.388 . S
C863 N862 1.397 1_455 S
C864 H845 0.929 . S
C864 C861 1.404 . S
C864 N862 1.334 . S
C865 H857 0.930 . S
C865 C860 1.418 1_655 S
C865 C861 1.353 . S
C866 H836 0.930 . S
C866 N867 1.330 . S
C866 C868 1.446 . S
N867 Co826 2.151 . S
N867 C866 1.330 . S
N867 C871 1.418 . S
C868 H847 0.929 1_554 S
C868 C866 1.446 . S
C868 C869 1.332 . S
C869 H849 0.931 1_554 S
C869 C868 1.332 . S
C869 C870 1.267 . S
C870 H838 0.929 . S
C870 C869 1.267 . S
C870 C871 1.251 . S
C871 H841 0.929 . S
C871 N867 1.418 . S
C871 C870 1.251 . S
C872 H839 0.930 1_554 S
C872 C874 1.406 . S
C872 C877 1.261 . S
C873 H840 0.930 . S
C873 N875 1.325 . S
C873 C876 1.357 . S
C874 H842 0.928 . S
C874 C872 1.406 . S
C874 N875 1.261 . S
N875 Co826 2.214 . S
N875 C873 1.325 . S
N875 C874 1.261 . S
C876 H846 0.931 . S
C876 C873 1.357 . S
C876 C877 1.312 . S
C877 H848 0.930 . S
C877 C872 1.261 . S
C877 C876 1.312 . S
C878 O850 1.214 . S
C878 O858 1.234 . S
C879 H851 0.929 . S
C879 C882 1.391 . S
C879 C884 1.391 . S
C880 H852 0.929 . S
C880 C881 1.390 . S
C880 N883 1.391 . S
C881 H853 0.930 . S
C881 C880 1.390 . S
C881 C882 1.392 . S
C882 H854 0.929 . S
C882 C879 1.391 . S
C882 C881 1.392 . S
N883 Co827 2.257 1_655 S
N883 C880 1.391 . S
N883 C884 1.388 . S
C884 H855 0.930 . S
C884 C879 1.391 . S
C884 N883 1.388 . S
Co885 O887 2.143 . S
Co885 O893 2.074 . S
Co885 O896 2.093 . S
Co885 O909 2.097 . S
Co885 N926 2.151 . S
Co885 N934 2.214 . S
Co886 O887 2.160 . S
Co886 O892 2.058 . S
Co886 O902 2.057 1_545 S
Co886 O917 2.037 . S
Co886 N921 2.145 1_545 S
Co886 N942 2.257 1_545 S
O887 Co885 2.143 . S
O887 Co886 2.160 . S
C888 O889 1.278 1_545 S
C888 O896 1.224 . S
O889 C888 1.278 1_565 S
C890 O891 1.245 . S
C890 O902 1.232 . S
O891 C890 1.245 . S
O892 Co886 2.058 . S
O892 C918 1.269 . S
O893 Co885 2.074 . S
O893 C918 1.257 . S
H894 C919 0.930 . S
H895 C925 0.930 . S
O896 Co885 2.093 . S
O896 C888 1.224 . S
H897 C929 0.929 . S
H898 C931 0.930 . S
H899 C932 0.930 . S
H900 C930 0.929 . S
H901 C933 0.928 . S
O902 Co886 2.057 1_565 S
O902 C890 1.232 . S
H903 C922 0.929 . S
H904 C923 0.929 . S
H905 C935 0.931 . S
H906 C927 0.929 . S
H907 C936 0.930 . S
H908 C928 0.931 . S
O909 Co885 2.097 . S
O909 C937 1.214 . S
H910 C938 0.929 . S
H911 C939 0.929 . S
H912 C940 0.930 . S
H913 C941 0.929 . S
H914 C943 0.930 . S
H915 C920 0.930 . S
H916 C924 0.930 1_554 S
O917 Co886 2.037 . S
O917 C937 1.234 . S
C918 O892 1.269 . S
C918 O893 1.257 . S
C919 H894 0.930 . S
C919 C922 1.388 . S
C919 C924 1.418 1_545 S
C920 H915 0.930 . S
C920 C923 1.404 . S
C920 C924 1.353 . S
N921 Co886 2.145 1_565 S
N921 C922 1.397 1_565 S
N921 C923 1.334 . S
C922 H903 0.929 . S
C922 C919 1.388 . S
C922 N921 1.397 1_545 S
C923 H904 0.929 . S
C923 C920 1.404 . S
C923 N921 1.334 . S
C924 H916 0.930 1_556 S
C924 C919 1.418 1_565 S
C924 C920 1.353 . S
C925 H895 0.930 . S
C925 N926 1.330 . S
C925 C927 1.446 . S
N926 Co885 2.151 . S
N926 C925 1.330 . S
N926 C930 1.418 . S
C927 H906 0.929 . S
C927 C925 1.446 . S
C927 C928 1.332 . S
C928 H908 0.931 . S
C928 C927 1.332 . S
C928 C929 1.267 . S
C929 H897 0.929 . S
C929 C928 1.267 . S
C929 C930 1.251 . S
C930 H900 0.929 . S
C930 N926 1.418 . S
C930 C929 1.251 . S
C931 H898 0.930 . S
C931 C933 1.406 . S
C931 C936 1.261 . S
C932 H899 0.930 . S
C932 N934 1.325 . S
C932 C935 1.357 . S
C933 H901 0.928 . S
C933 C931 1.406 . S
C933 N934 1.261 . S
N934 Co885 2.214 . S
N934 C932 1.325 . S
N934 C933 1.261 . S
C935 H905 0.931 . S
C935 C932 1.357 . S
C935 C936 1.312 . S
C936 H907 0.930 . S
C936 C931 1.261 . S
C936 C935 1.312 . S
C937 O909 1.214 . S
C937 O917 1.234 . S
C938 H910 0.929 . S
C938 C941 1.391 . S
C938 C943 1.391 . S
C939 H911 0.929 . S
C939 C940 1.390 . S
C939 N942 1.391 . S
C940 H912 0.930 . S
C940 C939 1.390 . S
C940 C941 1.392 . S
C941 H913 0.929 . S
C941 C938 1.391 . S
C941 C940 1.392 . S
N942 Co886 2.257 1_565 S
N942 C939 1.391 . S
N942 C943 1.388 . S
C943 H914 0.930 . S
C943 C938 1.391 . S
C943 N942 1.388 . S
C5 C418 1.529 . S
C64 C241 1.529 . S
C123 C300 1.529 . S
C182 C359 1.529 . S
C477 C890 1.529 . S
C713 C536 1.529 . S
C595 C772 1.529 . S
C654 C831 1.529 . S
C52 C564 1.719 . S
C111 C623 1.720 . S
C682 C170 1.720 . S
C229 C505 1.719 . S
C288 C918 1.720 . S
C741 C347 1.719 . S
C800 C406 1.719 . S
C859 C465 1.720 . S
C92 C524 1.719 . S
C151 C583 1.720 . S
C642 C210 1.720 . S
C33 C701 1.719 . S
C760 C446 1.720 . S
C819 C269 1.719 . S
C328 C878 1.719 . S
C387 C937 1.720 . S
C3 C239 1.921 1_554 S
C298 C62 1.921 . S
C121 C357 1.921 1_554 S
C416 C180 1.921 . S
C475 C711 1.921 1_556 S
C770 C534 1.921 . S
C829 C593 1.921 1_554 S
C888 C652 1.921 . S
