# Generated by pormake.
# Topology lon, (4)-cn, num edge types: 1
# Building blocks:
#     Node 0, Type 0, BuildingBlock: AZAVOO_clean_sbu_0, # of connection points: 4
#     Node 1, Type 0, BuildingBlock: AZAVOO_clean_sbu_0, # of connection points: 4
#     Node 2, Type 0, BuildingBlock: AZAVOO_clean_sbu_0, # of connection points: 4
#     Node 3, Type 0, BuildingBlock: AZAVOO_clean_sbu_0, # of connection points: 4
#     Edge 4, Type (0, 0), BuildingBlock: MIFKUJ_clean_linker_0, # of connection points: 2
#     Edge 5, Type (0, 0), BuildingBlock: MIFKUJ_clean_linker_0, # of connection points: 2
#     Edge 6, Type (0, 0), BuildingBlock: MIFKUJ_clean_linker_0, # of connection points: 2
#     Edge 7, Type (0, 0), BuildingBlock: MIFKUJ_clean_linker_0, # of connection points: 2
#     Edge 8, Type (0, 0), BuildingBlock: MIFKUJ_clean_linker_0, # of connection points: 2
#     Edge 9, Type (0, 0), BuildingBlock: MIFKUJ_clean_linker_0, # of connection points: 2
#     Edge 10, Type (0, 0), BuildingBlock: MIFKUJ_clean_linker_0, # of connection points: 2
#     Edge 11, Type (0, 0), BuildingBlock: MIFKUJ_clean_linker_0, # of connection points: 2
# Relax obj value: 0.018
# Max RMSD: 0.070
# Mean RMSD: 0.063
data_MOF--net-lon--node1-AZAVOO_clean_sbu_0--edge1-MIFKUJ_clean_linker_0
_symmetry_space_group_name_H-M    P1
_symmetry_Int_Tables_number       1
_symmetry_cell_setting            triclinic
loop_
_symmetry_equiv_pos_as_xyz
'x, y, z'
_cell_length_a     32.543023
_cell_length_b     31.889568
_cell_length_c     53.396487
_cell_angle_alpha  92.655405
_cell_angle_beta   90.114954
_cell_angle_gamma 120.5699
loop_
_atom_site_label
_atom_site_type_symbol
_atom_site_fract_x
_atom_site_fract_y
_atom_site_fract_z
_atom_type_partial_charge
Mg0 Mg 0.38394 0.68034 0.06579 0.0
O1 O 0.30378 0.64374 0.05455 0.0
O2 O 0.27768 0.68803 0.07519 0.0
Mg3 Mg 0.33719 0.74848 0.10038 0.0
C4 C 0.27055 0.65265 0.06001 0.0
C5 C 0.43442 0.63403 0.0435 0.0
O6 O 0.45364 0.65459 0.06566 0.0
O7 O 0.40255 0.74453 0.04119 0.0
O8 O 0.37887 0.78641 0.06597 0.0
O9 O 0.36651 0.63404 0.09901 0.0
O10 O 0.37259 0.70615 0.09976 0.0
C11 C 0.3993 0.78232 0.04637 0.0
C12 C 0.36395 0.66839 0.11146 0.0
O13 O 0.39958 0.63771 0.03547 0.0
Mg14 Mg 0.6527 0.33568 0.56571 0.0
O15 O 0.60818 0.25372 0.55447 0.0
O16 O 0.5423 0.22374 0.577 0.0
Mg17 Mg 0.54661 0.28413 0.60375 0.0
C18 C 0.56778 0.21827 0.56048 0.0
C19 C 0.72414 0.3938 0.52662 0.0
O20 O 0.71194 0.42452 0.53615 0.0
O21 O 0.60133 0.35051 0.54422 0.0
O22 O 0.54038 0.32392 0.57032 0.0
O23 O 0.69112 0.32313 0.59612 0.0
O24 O 0.62462 0.32476 0.6012 0.0
C25 C 0.56101 0.34491 0.55045 0.0
C26 C 0.65815 0.31987 0.61082 0.0
O27 O 0.70144 0.34994 0.533 0.0
Mg28 Mg 0.29771 0.6292 0.42304 0.0
O29 O 0.3353 0.71107 0.43522 0.0
O30 O 0.29984 0.74264 0.41337 0.0
Mg31 Mg 0.24115 0.68301 0.38761 0.0
C32 C 0.33098 0.74719 0.42956 0.0
C33 C 0.37897 0.63155 0.45393 0.0
O34 O 0.40295 0.66343 0.43714 0.0
O35 O 0.23294 0.61378 0.44606 0.0
O36 O 0.1995 0.64518 0.42228 0.0
O37 O 0.34685 0.64439 0.39119 0.0
O38 O 0.27773 0.6415 0.38855 0.0
C39 C 0.19967 0.62274 0.44148 0.0
C40 C 0.3159 0.64845 0.37788 0.0
O41 O 0.3341 0.61377 0.45476 0.0
Mg42 Mg 0.72077 0.34236 0.9173 0.0
O43 O 0.67223 0.37299 0.92927 0.0
O44 O 0.60937 0.33699 0.9023 0.0
Mg45 Mg 0.61738 0.28683 0.87327 0.0
C46 C 0.63203 0.36611 0.92116 0.0
C47 C 0.79519 0.35441 0.9552 0.0
O48 O 0.78768 0.31752 0.93991 0.0
O49 O 0.6691 0.2692 0.93381 0.0
O50 O 0.61183 0.23593 0.90362 0.0
O51 O 0.7596 0.40138 0.89027 0.0
O52 O 0.69371 0.33101 0.88111 0.0
C53 C 0.63067 0.23319 0.92403 0.0
C54 C 0.72575 0.37308 0.87425 0.0
O55 O 0.76864 0.37261 0.95266 0.0
H56 H 0.37842 0.74319 0.1437 0.0
H57 H 0.3702 0.74238 0.18895 0.0
H58 H 0.31687 0.58746 0.18554 0.0
H59 H 0.32717 0.58856 0.14008 0.0
H60 H 0.30318 0.70429 0.21938 0.0
H61 H 0.35069 0.55571 0.23764 0.0
H62 H 0.39792 0.52229 0.21871 0.0
H63 H 0.48784 0.65791 0.18471 0.0
H64 H 0.44156 0.69231 0.2037 0.0
H65 H 0.24766 0.63137 0.34301 0.0
H66 H 0.25614 0.63811 0.29787 0.0
H67 H 0.40765 0.69487 0.30688 0.0
H68 H 0.39876 0.68562 0.35216 0.0
H69 H 0.37629 0.63175 0.27045 0.0
H70 H 0.3582 0.76793 0.29169 0.0
H71 H 0.32166 0.81234 0.31115 0.0
H72 H 0.19285 0.72236 0.2671 0.0
H73 H 0.22839 0.67695 0.24761 0.0
C74 C 0.36452 0.7088 0.15251 0.0
C75 C 0.35367 0.66594 0.13839 0.0
C76 C 0.3598 0.7084 0.17843 0.0
C77 C 0.34364 0.66505 0.19075 0.0
C78 C 0.33052 0.62161 0.17652 0.0
C79 C 0.33609 0.62217 0.15055 0.0
C80 C 0.34199 0.66605 0.21852 0.0
C81 C 0.31914 0.68839 0.23055 0.0
C82 C 0.36395 0.64654 0.23317 0.0
C83 C 0.39231 0.62635 0.22187 0.0
C84 C 0.38064 0.57842 0.22619 0.0
C85 C 0.40723 0.55931 0.21544 0.0
C86 C 0.44574 0.5879 0.20045 0.0
C87 C 0.45788 0.63574 0.19625 0.0
C88 C 0.43146 0.65504 0.20698 0.0
C89 C 0.28291 0.64591 0.33542 0.0
C90 C 0.32262 0.65814 0.35106 0.0
C91 C 0.28776 0.64993 0.30959 0.0
C92 C 0.33265 0.66764 0.29894 0.0
C93 C 0.37263 0.68104 0.31465 0.0
C94 C 0.3676 0.67601 0.3405 0.0
C95 C 0.3373 0.66983 0.27133 0.0
C96 C 0.36049 0.64785 0.25931 0.0
C97 C 0.31732 0.69142 0.25675 0.0
C98 C 0.29585 0.71878 0.26834 0.0
C99 C 0.32197 0.7574 0.28627 0.0
C100 C 0.30145 0.78278 0.29729 0.0
C101 C 0.25493 0.77012 0.29041 0.0
C102 C 0.22887 0.73211 0.27243 0.0
C103 C 0.24921 0.70658 0.26137 0.0
H104 H 0.23911 0.7898 0.29896 0.0
H105 H 0.46625 0.57303 0.19213 0.0
H106 H 0.59434 0.31127 0.64634 0.0
H107 H 0.60921 0.32515 0.69162 0.0
H108 H 0.74825 0.34148 0.68249 0.0
H109 H 0.7331 0.3262 0.63723 0.0
H110 H 0.70983 0.29607 0.72374 0.0
H111 H 0.73504 0.44122 0.68755 0.0
H112 H 0.71459 0.49086 0.662 0.0
H113 H 0.59674 0.45991 0.70914 0.0
H114 H 0.61607 0.40944 0.73477 0.0
H115 H 0.79972 0.41344 0.84275 0.0
H116 H 0.79304 0.41359 0.79694 0.0
H117 H 0.6425 0.36155 0.80205 0.0
H118 H 0.64893 0.36067 0.84767 0.0
H119 H 0.69328 0.43109 0.76263 0.0
H120 H 0.66622 0.27946 0.79596 0.0
H121 H 0.68976 0.2324 0.82168 0.0
H122 H 0.81651 0.28021 0.7792 0.0
H123 H 0.79406 0.3283 0.75351 0.0
C124 C 0.62763 0.31668 0.65399 0.0
C125 C 0.66275 0.31814 0.63819 0.0
C126 C 0.63626 0.32507 0.67986 0.0
C127 C 0.68039 0.33578 0.6903 0.0
C128 C 0.71413 0.33378 0.67477 0.0
C129 C 0.70536 0.32493 0.64891 0.0
C130 C 0.69224 0.35139 0.71717 0.0
C131 C 0.70686 0.32604 0.73211 0.0
C132 C 0.68823 0.39046 0.72815 0.0
C133 C 0.67675 0.42118 0.71295 0.0
C134 C 0.70457 0.44473 0.69237 0.0
C135 C 0.6932 0.47304 0.67788 0.0
C136 C 0.65432 0.47844 0.68391 0.0
C137 C 0.62681 0.45564 0.70448 0.0
C138 C 0.63798 0.42721 0.71901 0.0
C139 C 0.76566 0.40377 0.8341 0.0
C140 C 0.72467 0.3864 0.84847 0.0
C141 C 0.76185 0.40368 0.80803 0.0
C142 C 0.71717 0.387 0.79626 0.0
C143 C 0.67721 0.37442 0.81087 0.0
C144 C 0.68084 0.37362 0.83683 0.0
C145 C 0.71038 0.37551 0.76897 0.0
C146 C 0.69666 0.40151 0.75405 0.0
C147 C 0.71569 0.33744 0.75791 0.0
C148 C 0.72877 0.3079 0.77304 0.0
C149 C 0.6993 0.28025 0.79225 0.0
C150 C 0.71241 0.25336 0.8068 0.0
C151 C 0.75468 0.25343 0.80212 0.0
C152 C 0.78383 0.28027 0.78283 0.0
C153 C 0.77094 0.30735 0.76827 0.0
H154 H 0.76478 0.23258 0.8134 0.0
H155 H 0.64556 0.50036 0.67266 0.0
H156 H 0.40605 0.58764 -0.00359 0.0
H157 H 0.43845 0.54272 0.97351 0.0
H158 H 0.53689 0.57367 0.03545 0.0
H159 H 0.50565 0.61889 0.05803 0.0
H160 H 0.58143 0.58834 -0.00743 0.0
H161 H 0.43361 0.46115 0.02511 0.0
H162 H 0.34652 0.416 0.03064 0.0
H163 H 0.32304 0.38547 0.95105 0.0
H164 H 0.41003 0.43099 0.94502 0.0
H165 H 0.65826 0.41946 0.96631 0.0
H166 H 0.6234 0.46494 0.98562 0.0
H167 H 0.52482 0.42169 0.92239 0.0
H168 H 0.55829 0.37512 0.90342 0.0
H169 H 0.47939 0.41475 0.96329 0.0
H170 H 0.6264 0.53856 0.93048 0.0
H171 H 0.71331 0.58397 0.9244 0.0
H172 H 0.73832 0.62189 0.00341 0.0
H173 H 0.65155 0.57616 0.01001 0.0
C174 C 0.43463 0.58487 0.00508 0.0
C175 C 0.45319 0.60684 0.02905 0.0
C176 C 0.453 0.55905 0.99203 0.0
C177 C 0.48993 0.55451 0.00285 0.0
C178 C 0.50856 0.57675 0.02667 0.0
C179 C 0.49045 0.60253 0.0396 0.0
C180 C 0.50965 0.52676 0.98966 0.0
C181 C 0.55915 0.55024 0.98636 0.0
C182 C 0.48053 0.47743 0.98096 0.0
C183 C 0.42828 0.44992 0.9846 0.0
C184 C 0.40985 0.44512 0.00878 0.0
C185 C 0.36052 0.41941 0.012 0.0
C186 C 0.32927 0.398 0.99121 0.0
C187 C 0.34729 0.40214 0.96714 0.0
C188 C 0.3966 0.42786 0.96381 0.0
C189 C 0.62915 0.41962 0.95653 0.0
C190 C 0.61119 0.39365 0.93329 0.0
C191 C 0.60937 0.44584 0.96753 0.0
C192 C 0.57186 0.44739 0.9553 0.0
C193 C 0.55366 0.42111 0.93223 0.0
C194 C 0.57299 0.39451 0.92138 0.0
C195 C 0.55133 0.47615 0.96648 0.0
C196 C 0.5017 0.45291 0.96936 0.0
C197 C 0.58031 0.52581 0.9747 0.0
C198 C 0.63249 0.55357 0.97076 0.0
C199 C 0.65045 0.55631 0.94658 0.0
C200 C 0.69968 0.58215 0.94303 0.0
C201 C 0.73132 0.6057 0.96351 0.0
C202 C 0.71378 0.60358 0.98757 0.0
C203 C 0.66458 0.57775 0.99122 0.0
H204 H 0.76942 0.62568 0.96073 0.0
H205 H 0.29109 0.37812 -0.00626 0.0
H206 H 0.14061 0.65859 0.44962 0.0
H207 H 0.06212 0.6171 0.46827 0.0
H208 H 0.08246 0.49821 0.48608 0.0
H209 H 0.16167 0.53999 0.46766 0.0
H210 H 0.99875 0.47027 0.45708 0.0
H211 H 0.07612 0.56271 0.53285 0.0
H212 H 0.12902 0.6363 0.55957 0.0
H213 H 0.04469 0.69953 0.54056 0.0
H214 H 0.99164 0.62659 0.51342 0.0
H215 H 0.77379 0.34696 0.51707 0.0
H216 H 0.85646 0.38377 0.50425 0.0
H217 H 0.8617 0.52011 0.49499 0.0
H218 H 0.77939 0.4839 0.50846 0.0
H219 H 0.93494 0.53485 0.52285 0.0
H220 H 0.86221 0.44713 0.44441 0.0
H221 H 0.8099 0.3752 0.4165 0.0
H222 H 0.88578 0.30499 0.43918 0.0
H223 H 0.93819 0.3763 0.46747 0.0
C224 C 0.12886 0.62416 0.45805 0.0
C225 C 0.15709 0.60238 0.4571 0.0
C226 C 0.08409 0.60057 0.46874 0.0
C227 C 0.06655 0.55459 0.47846 0.0
C228 C 0.09552 0.53373 0.47865 0.0
C229 C 0.14079 0.55775 0.46829 0.0
C230 C 0.01624 0.52668 0.48597 0.0
C231 C 0.98481 0.48373 0.47182 0.0
C232 C 0.99817 0.54521 0.50469 0.0
C233 C 0.0301 0.58929 0.52092 0.0
C234 C 0.06909 0.59248 0.53417 0.0
C235 C 0.09906 0.63405 0.54944 0.0
C236 C 0.09029 0.67261 0.55172 0.0
C237 C 0.05146 0.66964 0.53876 0.0
C238 C 0.02139 0.62816 0.52346 0.0
C239 C 0.79215 0.38447 0.51177 0.0
C240 C 0.77013 0.41264 0.51394 0.0
C241 C 0.83949 0.40549 0.50444 0.0
C242 C 0.86538 0.45478 0.49873 0.0
C243 C 0.84254 0.48213 0.49952 0.0
C244 C 0.79539 0.46129 0.50707 0.0
C245 C 0.91707 0.47882 0.4936 0.0
C246 C 0.94879 0.52104 0.50824 0.0
C247 C 0.93537 0.45982 0.47519 0.0
C248 C 0.90377 0.41683 0.45827 0.0
C249 C 0.86746 0.41617 0.44362 0.0
C250 C 0.83786 0.37555 0.42769 0.0
C251 C 0.84441 0.33549 0.42613 0.0
C252 C 0.88068 0.33601 0.44044 0.0
C253 C 0.91037 0.37654 0.45641 0.0
H254 H 0.82147 0.30408 0.41378 0.0
H255 H 0.11351 0.70475 0.56356 0.0
H256 H 0.57632 0.14405 0.90034 0.0
H257 H 0.53962 0.06463 0.9183 0.0
H258 H 0.59614 0.13422 0.99159 0.0
H259 H 0.63527 0.2143 0.97332 0.0
H260 H 0.60411 0.05816 0.98648 0.0
H261 H 0.47499 0.08612 0.97185 0.0
H262 H 0.42332 0.10602 0.94744 0.0
H263 H 0.38305 0.98158 0.89695 0.0
H264 H 0.43496 0.96126 0.9209 0.0
H265 H 0.42821 0.87619 0.06053 0.0
H266 H 0.46994 0.94796 0.036 0.0
H267 H 0.46595 0.8581 0.97213 0.0
H268 H 0.42476 0.7852 -0.00305 0.0
H269 H 0.43209 0.93874 0.96948 0.0
H270 H 0.56177 0.9108 0.98866 0.0
H271 H 0.60962 0.89258 0.01722 0.0
H272 H 0.64408 0.02027 0.06384 0.0
H273 H 0.59578 0.03881 0.03573 0.0
C274 C 0.58082 0.14255 0.92033 0.0
C275 C 0.60821 0.18547 0.93551 0.0
C276 C 0.55964 0.09702 0.93059 0.0
C277 C 0.56409 0.09333 0.95641 0.0
C278 C 0.59201 0.13612 0.97162 0.0
C279 C 0.6142 0.18185 0.96122 0.0
C280 C 0.5397 0.04478 0.96742 0.0
C281 C 0.56644 0.03229 0.98282 0.0
C282 C 0.49061 0.01044 0.96241 0.0
C283 C 0.45925 0.02247 0.94802 0.0
C284 C 0.45538 0.0632 0.95544 0.0
C285 C 0.426 0.07452 0.94171 0.0
C286 C 0.40003 0.04516 0.92062 0.0
C287 C 0.40325 0.00433 0.91327 0.0
C288 C 0.43261 0.99286 0.92693 0.0
C289 C 0.43588 0.87135 0.04123 0.0
C290 C 0.423 0.82489 0.03063 0.0
C291 C 0.45992 0.91252 0.02731 0.0
C292 C 0.47104 0.90813 0.00241 0.0
C293 C 0.45763 0.86192 0.99143 0.0
C294 C 0.43424 0.8205 0.00558 0.0
C295 C 0.49662 0.9526 0.98827 0.0
C296 C 0.46996 0.96448 0.97259 0.0
C297 C 0.54542 0.98672 -0.00659 0.0
C298 C 0.5748 0.97591 0.01022 0.0
C299 C 0.57917 0.93472 0.00513 0.0
C300 C 0.60646 0.9244 0.0212 0.0
C301 C 0.62978 0.95519 0.04237 0.0
C302 C 0.62596 0.99643 0.04745 0.0
C303 C 0.59868 0.00689 0.03144 0.0
H304 H 0.65089 0.94714 0.05479 0.0
H305 H 0.37731 0.05399 0.91001 0.0
H306 H 0.60286 0.41142 0.51432 0.0
H307 H 0.57283 0.46018 0.49626 0.0
H308 H 0.44246 0.38168 0.53644 0.0
H309 H 0.47183 0.33253 0.5544 0.0
H310 H 0.42635 0.40061 0.48892 0.0
H311 H 0.53119 0.48856 0.5607 0.0
H312 H 0.60715 0.52505 0.58509 0.0
H313 H 0.68061 0.61798 0.52516 0.0
H314 H 0.60513 0.58151 0.50026 0.0
H315 H 0.33867 0.5606 0.4879 0.0
H316 H 0.3718 0.51323 0.50413 0.0
H317 H 0.50299 0.60227 0.4663 0.0
H318 H 0.47058 0.65047 0.45041 0.0
H319 H 0.52086 0.57857 0.51082 0.0
H320 H 0.41752 0.49383 0.43936 0.0
H321 H 0.3427 0.4574 0.41398 0.0
H322 H 0.26794 0.35847 0.47153 0.0
H323 H 0.34223 0.39483 0.49745 0.0
C324 C 0.56739 0.4038 0.51892 0.0
C325 C 0.53997 0.36841 0.53605 0.0
C326 C 0.55043 0.43193 0.5087 0.0
C327 C 0.50583 0.42512 0.51541 0.0
C328 C 0.47711 0.3877 0.53115 0.0
C329 C 0.49405 0.35971 0.54144 0.0
C330 C 0.49014 0.45879 0.50742 0.0
C331 C 0.44676 0.43944 0.49388 0.0
C332 C 0.51737 0.50962 0.51346 0.0
C333 C 0.56263 0.53197 0.52853 0.0
C334 C 0.5636 0.51654 0.55266 0.0
C335 C 0.60656 0.53724 0.56659 0.0
C336 C 0.64871 0.57371 0.55666 0.0
C337 C 0.64795 0.58967 0.53281 0.0
C338 C 0.60509 0.56902 0.5188 0.0
C339 C 0.37491 0.57074 0.48342 0.0
C340 C 0.40173 0.60889 0.46756 0.0
C341 C 0.39368 0.54342 0.49258 0.0
C342 C 0.43939 0.55344 0.48587 0.0
C343 C 0.46748 0.59364 0.47152 0.0
C344 C 0.44884 0.62115 0.46245 0.0
C345 C 0.45675 0.52032 0.49252 0.0
C346 C 0.50048 0.53977 0.50576 0.0
C347 C 0.43 0.4696 0.48606 0.0
C348 C 0.38534 0.44737 0.47044 0.0
C349 C 0.38505 0.46454 0.44668 0.0
C350 C 0.34275 0.44387 0.43219 0.0
C351 C 0.30056 0.40572 0.44116 0.0
C352 C 0.30063 0.38807 0.46462 0.0
C353 C 0.34283 0.40867 0.47922 0.0
H354 H 0.26784 0.38977 0.42992 0.0
H355 H 0.68194 0.58969 0.56746 0.0
H356 H 0.23313 0.56196 0.03595 0.0
H357 H 0.15084 0.50767 0.02048 0.0
H358 H 0.11515 0.61637 0.04382 0.0
H359 H 0.19663 0.67006 0.05989 0.0
H360 H 0.04781 0.53146 0.05694 0.0
H361 H 0.13174 0.59305 0.98096 0.0
H362 H 0.19354 0.61065 0.94979 0.0
H363 H 0.14319 0.45766 0.93859 0.0
H364 H 0.08145 0.43919 0.96995 0.0
H365 H 0.83184 0.44139 0.98294 0.0
H366 H 0.91078 0.48793 0.00378 0.0
H367 H 0.93706 0.37089 0.98465 0.0
H368 H 0.85859 0.32438 0.96374 0.0
H369 H 0.00853 0.45695 0.97023 0.0
H370 H 0.92105 0.39609 0.04513 0.0
H371 H 0.85857 0.38021 0.07559 0.0
H372 H 0.91482 0.53414 0.08796 0.0
H373 H 0.97728 0.55094 0.0573 0.0
C374 C 0.20784 0.57442 0.03763 0.0
C375 C 0.22158 0.62041 0.04917 0.0
C376 C 0.16077 0.54336 0.02874 0.0
C377 C 0.12673 0.558 0.0308 0.0
C378 C 0.14058 0.60407 0.0421 0.0
C379 C 0.18736 0.63485 0.0512 0.0
C380 C 0.07652 0.52538 0.0215 0.0
C381 C 0.03925 0.51562 0.03788 0.0
C382 C 0.06516 0.50376 -0.00319 0.0
C383 C 0.10233 0.5148 0.97801 0.0
C384 C 0.13411 0.5632 0.97201 0.0
C385 C 0.16907 0.57332 0.95427 0.0
C386 C 0.17238 0.53531 0.94227 0.0
C387 C 0.14065 0.48708 0.94794 0.0
C388 C 0.10564 0.47676 0.96567 0.0
C389 C 0.85401 0.42514 0.98362 0.0
C390 C 0.839 0.37929 0.9715 0.0
C391 C 0.89916 0.45179 -0.00444 0.0
C392 C 0.92994 0.43295 -0.00429 0.0
C393 C 0.91406 0.38627 0.98465 0.0
C394 C 0.86905 0.35965 0.97276 0.0
C395 C 0.97992 0.46322 0.00563 0.0
C396 C 0.01713 0.47259 0.98934 0.0
C397 C 0.99115 0.48476 0.0303 0.0
C398 C 0.95358 0.47475 0.04873 0.0
C399 C 0.91985 0.42655 0.05418 0.0
C400 C 0.88449 0.41738 0.07152 0.0
C401 C 0.88265 0.45614 0.08366 0.0
C402 C 0.91625 0.50415 0.07852 0.0
C403 C 0.95167 0.51352 0.06118 0.0
H404 H 0.85525 0.44897 0.09708 0.0
H405 H 0.19946 0.54322 0.92854 0.0
H406 H 0.61415 0.18794 0.528 0.0
H407 H 0.58209 0.10757 0.50638 0.0
H408 H 0.44726 0.05808 0.54193 0.0
H409 H 0.47921 0.13753 0.56401 0.0
H410 H 0.4683 0.98914 0.54184 0.0
H411 H 0.46659 0.095 0.48049 0.0
H412 H 0.50212 0.1672 0.45497 0.0
H413 H 0.59576 0.12332 0.42219 0.0
H414 H 0.56114 0.05114 0.44777 0.0
H415 H 0.32862 0.83063 0.42389 0.0
H416 H 0.37644 0.90956 0.44627 0.0
H417 H 0.45235 0.85423 0.48656 0.0
H418 H 0.40373 0.77428 0.4645 0.0
H419 H 0.46788 0.97529 0.44891 0.0
H420 H 0.48117 0.91045 0.54586 0.0
H421 H 0.43734 0.83846 0.57115 0.0
H422 H 0.30639 0.80052 0.53218 0.0
H423 H 0.34934 0.87259 0.50691 0.0
C424 C 0.57772 0.15989 0.53129 0.0
C425 C 0.54922 0.16938 0.54768 0.0
C426 C 0.55941 0.11397 0.51886 0.0
C427 C 0.51207 0.07685 0.52232 0.0
C428 C 0.48392 0.08602 0.539 0.0
C429 C 0.50225 0.13166 0.55156 0.0
C430 C 0.491 0.0288 0.50816 0.0
C431 C 0.46857 0.98615 0.52152 0.0
C432 C 0.49089 0.02471 0.48163 0.0
C433 C 0.51168 0.06803 0.46624 0.0
C434 C 0.49501 0.10097 0.46798 0.0
C435 C 0.51493 0.14184 0.45348 0.0
C436 C 0.55128 0.14993 0.43702 0.0
C437 C 0.56768 0.11707 0.43498 0.0
C438 C 0.54791 0.07617 0.44946 0.0
C439 C 0.35554 0.83505 0.43743 0.0
C440 C 0.36202 0.79582 0.44248 0.0
C441 C 0.38306 0.88043 0.45016 0.0
C442 C 0.41778 0.88783 0.46824 0.0
C443 C 0.42533 0.84921 0.47292 0.0
C444 C 0.39757 0.80355 0.46024 0.0
C445 C 0.44465 0.93568 0.48257 0.0
C446 C 0.46832 0.97828 0.46924 0.0
C447 C 0.44488 0.93975 0.50909 0.0
C448 C 0.41859 0.89653 0.5243 0.0
C449 C 0.44301 0.88677 0.54274 0.0
C450 C 0.41832 0.84597 0.55707 0.0
C451 C 0.36914 0.81483 0.55321 0.0
C452 C 0.34451 0.82454 0.53508 0.0
C453 C 0.36902 0.86533 0.52073 0.0
H454 H 0.3501 0.78325 0.56431 0.0
H455 H 0.56666 0.18158 0.42581 0.0
loop_
_geom_bond_atom_site_label_1
_geom_bond_atom_site_label_2
_geom_bond_distance
_geom_bond_site_symmetry_2
_ccdc_geom_bond_type
Mg0 O1 2.028 . S
Mg0 O7 1.986 . S
Mg0 O9 2.114 . S
Mg0 O10 2.251 . S
Mg0 O13 2.010 . S
O1 Mg0 2.028 . S
O1 C4 1.250 . S
O2 Mg3 2.028 . S
O2 C4 1.248 . S
Mg3 O2 2.028 . S
Mg3 O8 2.032 . S
Mg3 O10 2.079 . S
C4 O1 1.250 . S
C4 O2 1.248 . S
C5 O6 1.264 . S
C5 O13 1.249 . S
O6 C5 1.264 . S
O7 Mg0 1.986 . S
O7 C11 1.246 . S
O8 Mg3 2.032 . S
O8 C11 1.259 . S
O9 Mg0 2.114 . S
O9 C12 1.252 . S
O10 Mg0 2.251 . S
O10 Mg3 2.079 . S
O10 C12 1.273 . S
C11 O7 1.246 . S
C11 O8 1.259 . S
C12 O9 1.252 . S
C12 O10 1.273 . S
O13 Mg0 2.010 . S
O13 C5 1.249 . S
Mg14 O15 2.028 . S
Mg14 O21 1.986 . S
Mg14 O23 2.114 . S
Mg14 O24 2.251 . S
Mg14 O27 2.010 . S
O15 Mg14 2.028 . S
O15 C18 1.250 . S
O16 Mg17 2.028 . S
O16 C18 1.248 . S
Mg17 O16 2.028 . S
Mg17 O22 2.032 . S
Mg17 O24 2.079 . S
C18 O15 1.250 . S
C18 O16 1.248 . S
C19 O20 1.264 . S
C19 O27 1.249 . S
O20 C19 1.264 . S
O21 Mg14 1.986 . S
O21 C25 1.246 . S
O22 Mg17 2.032 . S
O22 C25 1.259 . S
O23 Mg14 2.114 . S
O23 C26 1.252 . S
O24 Mg14 2.251 . S
O24 Mg17 2.079 . S
O24 C26 1.273 . S
C25 O21 1.246 . S
C25 O22 1.259 . S
C26 O23 1.252 . S
C26 O24 1.273 . S
O27 Mg14 2.010 . S
O27 C19 1.249 . S
Mg28 O29 2.028 . S
Mg28 O35 1.986 . S
Mg28 O37 2.114 . S
Mg28 O38 2.251 . S
Mg28 O41 2.010 . S
O29 Mg28 2.028 . S
O29 C32 1.250 . S
O30 Mg31 2.028 . S
O30 C32 1.248 . S
Mg31 O30 2.028 . S
Mg31 O36 2.032 . S
Mg31 O38 2.079 . S
C32 O29 1.250 . S
C32 O30 1.248 . S
C33 O34 1.264 . S
C33 O41 1.249 . S
O34 C33 1.264 . S
O35 Mg28 1.986 . S
O35 C39 1.246 . S
O36 Mg31 2.032 . S
O36 C39 1.259 . S
O37 Mg28 2.114 . S
O37 C40 1.252 . S
O38 Mg28 2.251 . S
O38 Mg31 2.079 . S
O38 C40 1.273 . S
C39 O35 1.246 . S
C39 O36 1.259 . S
C40 O37 1.252 . S
C40 O38 1.273 . S
O41 Mg28 2.010 . S
O41 C33 1.249 . S
Mg42 O43 2.028 . S
Mg42 O49 1.986 . S
Mg42 O51 2.114 . S
Mg42 O52 2.251 . S
Mg42 O55 2.010 . S
O43 Mg42 2.028 . S
O43 C46 1.250 . S
O44 Mg45 2.028 . S
O44 C46 1.248 . S
Mg45 O44 2.028 . S
Mg45 O50 2.032 . S
Mg45 O52 2.079 . S
C46 O43 1.250 . S
C46 O44 1.248 . S
C47 O48 1.264 . S
C47 O55 1.249 . S
O48 C47 1.264 . S
O49 Mg42 1.986 . S
O49 C53 1.246 . S
O50 Mg45 2.032 . S
O50 C53 1.259 . S
O51 Mg42 2.114 . S
O51 C54 1.252 . S
O52 Mg42 2.251 . S
O52 Mg45 2.079 . S
O52 C54 1.273 . S
C53 O49 1.246 . S
C53 O50 1.259 . S
C54 O51 1.252 . S
C54 O52 1.273 . S
O55 Mg42 2.010 . S
O55 C47 1.249 . S
H56 C74 0.951 . S
H57 C76 0.951 . S
H58 C78 0.950 . S
H59 C79 0.950 . S
H60 C81 0.950 . S
H61 C84 0.950 . S
H62 C85 0.950 . S
H63 C87 0.950 . S
H64 C88 0.950 . S
H65 C89 0.951 . S
H66 C91 0.951 . S
H67 C93 0.950 . S
H68 C94 0.950 . S
H69 C96 0.950 . S
H70 C99 0.950 . S
H71 C100 0.950 . S
H72 C102 0.950 . S
H73 C103 0.950 . S
C74 H56 0.951 . S
C74 C75 1.366 . S
C74 C76 1.388 . S
C75 C74 1.366 . S
C75 C79 1.385 . S
C76 H57 0.951 . S
C76 C74 1.388 . S
C76 C77 1.366 . S
C77 C76 1.366 . S
C77 C78 1.414 . S
C77 C80 1.499 . S
C78 H58 0.950 . S
C78 C77 1.414 . S
C78 C79 1.374 . S
C79 H59 0.950 . S
C79 C75 1.385 . S
C79 C78 1.374 . S
C80 C77 1.499 . S
C80 C81 1.373 . S
C80 C82 1.389 . S
C81 H60 0.950 . S
C81 C80 1.373 . S
C81 C97 1.377 . S
C82 C80 1.389 . S
C82 C83 1.524 . S
C82 C96 1.377 . S
C83 C82 1.524 . S
C83 C84 1.397 . S
C83 C88 1.363 . S
C84 H61 0.950 . S
C84 C83 1.397 . S
C84 C85 1.334 . S
C85 H62 0.950 . S
C85 C84 1.334 . S
C85 C86 1.287 . S
C86 C85 1.287 . S
C86 C87 1.524 . S
C86 H105 0.913 . S
C87 H63 0.950 . S
C87 C86 1.524 . S
C87 C88 1.415 . S
C88 H64 0.950 . S
C88 C83 1.363 . S
C88 C87 1.415 . S
C89 H65 0.951 . S
C89 C90 1.366 . S
C89 C91 1.388 . S
C90 C89 1.366 . S
C90 C94 1.385 . S
C91 H66 0.951 . S
C91 C89 1.388 . S
C91 C92 1.366 . S
C92 C91 1.366 . S
C92 C93 1.414 . S
C92 C95 1.499 . S
C93 H67 0.950 . S
C93 C92 1.414 . S
C93 C94 1.374 . S
C94 H68 0.950 . S
C94 C90 1.385 . S
C94 C93 1.374 . S
C95 C92 1.499 . S
C95 C96 1.373 . S
C95 C97 1.389 . S
C96 H69 0.950 . S
C96 C82 1.377 . S
C96 C95 1.373 . S
C97 C81 1.377 . S
C97 C95 1.389 . S
C97 C98 1.524 . S
C98 C97 1.524 . S
C98 C99 1.397 . S
C98 C103 1.363 . S
C99 H70 0.950 . S
C99 C98 1.397 . S
C99 C100 1.334 . S
C100 H71 0.950 . S
C100 C99 1.334 . S
C100 C101 1.287 . S
C101 C100 1.287 . S
C101 C102 1.524 . S
C101 H104 0.999 . S
C102 H72 0.950 . S
C102 C101 1.524 . S
C102 C103 1.415 . S
C103 H73 0.950 . S
C103 C98 1.363 . S
C103 C102 1.415 . S
H104 C101 0.999 . S
H105 C86 0.913 . S
H106 C124 0.951 . S
H107 C126 0.951 . S
H108 C128 0.950 . S
H109 C129 0.950 . S
H110 C131 0.950 . S
H111 C134 0.950 . S
H112 C135 0.950 . S
H113 C137 0.950 . S
H114 C138 0.950 . S
H115 C139 0.951 . S
H116 C141 0.951 . S
H117 C143 0.950 . S
H118 C144 0.950 . S
H119 C146 0.950 . S
H120 C149 0.950 . S
H121 C150 0.950 . S
H122 C152 0.950 . S
H123 C153 0.950 . S
C124 H106 0.951 . S
C124 C125 1.366 . S
C124 C126 1.388 . S
C125 C124 1.366 . S
C125 C129 1.385 . S
C126 H107 0.951 . S
C126 C124 1.388 . S
C126 C127 1.366 . S
C127 C126 1.366 . S
C127 C128 1.414 . S
C127 C130 1.499 . S
C128 H108 0.950 . S
C128 C127 1.414 . S
C128 C129 1.374 . S
C129 H109 0.950 . S
C129 C125 1.385 . S
C129 C128 1.374 . S
C130 C127 1.499 . S
C130 C131 1.373 . S
C130 C132 1.389 . S
C131 H110 0.950 . S
C131 C130 1.373 . S
C131 C147 1.377 . S
C132 C130 1.389 . S
C132 C133 1.524 . S
C132 C146 1.377 . S
C133 C132 1.524 . S
C133 C134 1.397 . S
C133 C138 1.363 . S
C134 H111 0.950 . S
C134 C133 1.397 . S
C134 C135 1.334 . S
C135 H112 0.950 . S
C135 C134 1.334 . S
C135 C136 1.287 . S
C136 C135 1.287 . S
C136 C137 1.524 . S
C136 H155 0.913 . S
C137 H113 0.950 . S
C137 C136 1.524 . S
C137 C138 1.415 . S
C138 H114 0.950 . S
C138 C133 1.363 . S
C138 C137 1.415 . S
C139 H115 0.951 . S
C139 C140 1.366 . S
C139 C141 1.388 . S
C140 C139 1.366 . S
C140 C144 1.385 . S
C141 H116 0.951 . S
C141 C139 1.388 . S
C141 C142 1.366 . S
C142 C141 1.366 . S
C142 C143 1.414 . S
C142 C145 1.499 . S
C143 H117 0.950 . S
C143 C142 1.414 . S
C143 C144 1.374 . S
C144 H118 0.950 . S
C144 C140 1.385 . S
C144 C143 1.374 . S
C145 C142 1.499 . S
C145 C146 1.373 . S
C145 C147 1.389 . S
C146 H119 0.950 . S
C146 C132 1.377 . S
C146 C145 1.373 . S
C147 C131 1.377 . S
C147 C145 1.389 . S
C147 C148 1.524 . S
C148 C147 1.524 . S
C148 C149 1.397 . S
C148 C153 1.363 . S
C149 H120 0.950 . S
C149 C148 1.397 . S
C149 C150 1.334 . S
C150 H121 0.950 . S
C150 C149 1.334 . S
C150 C151 1.287 . S
C151 C150 1.287 . S
C151 C152 1.524 . S
C151 H154 0.999 . S
C152 H122 0.950 . S
C152 C151 1.524 . S
C152 C153 1.415 . S
C153 H123 0.950 . S
C153 C148 1.363 . S
C153 C152 1.415 . S
H154 C151 0.999 . S
H155 C136 0.913 . S
H156 C174 0.951 1_556 S
H157 C176 0.951 . S
H158 C178 0.950 . S
H159 C179 0.950 . S
H160 C181 0.950 . S
H161 C184 0.950 . S
H162 C185 0.950 . S
H163 C187 0.950 . S
H164 C188 0.950 . S
H165 C189 0.951 . S
H166 C191 0.951 1_554 S
H167 C193 0.950 . S
H168 C194 0.950 . S
H169 C196 0.950 . S
H170 C199 0.950 1_556 S
H171 C200 0.950 . S
H172 C202 0.950 . S
H173 C203 0.950 . S
C174 H156 0.951 1_554 S
C174 C175 1.366 . S
C174 C176 1.388 1_554 S
C175 C174 1.366 . S
C175 C179 1.385 . S
C176 H157 0.951 . S
C176 C174 1.388 1_556 S
C176 C177 1.366 1_556 S
C177 C176 1.366 1_554 S
C177 C178 1.414 . S
C177 C180 1.499 . S
C178 H158 0.950 . S
C178 C177 1.414 . S
C178 C179 1.374 . S
C179 H159 0.950 . S
C179 C175 1.385 . S
C179 C178 1.374 . S
C180 C177 1.499 . S
C180 C181 1.373 . S
C180 C182 1.389 1_554 S
C181 H160 0.950 . S
C181 C180 1.373 . S
C181 C197 1.377 . S
C182 C180 1.389 1_556 S
C182 C183 1.524 . S
C182 C196 1.377 . S
C183 C182 1.524 . S
C183 C184 1.397 . S
C183 C188 1.363 . S
C184 H161 0.950 . S
C184 C183 1.397 . S
C184 C185 1.334 . S
C185 H162 0.950 . S
C185 C184 1.334 . S
C185 C186 1.287 . S
C186 C185 1.287 . S
C186 C187 1.524 . S
C186 H205 0.913 . S
C187 H163 0.950 . S
C187 C186 1.524 . S
C187 C188 1.415 . S
C188 H164 0.950 . S
C188 C183 1.363 . S
C188 C187 1.415 . S
C189 H165 0.951 . S
C189 C190 1.366 . S
C189 C191 1.388 . S
C190 C189 1.366 . S
C190 C194 1.385 . S
C191 H166 0.951 1_556 S
C191 C189 1.388 . S
C191 C192 1.366 . S
C192 C191 1.366 . S
C192 C193 1.414 . S
C192 C195 1.499 . S
C193 H167 0.950 . S
C193 C192 1.414 . S
C193 C194 1.374 . S
C194 H168 0.950 . S
C194 C190 1.385 . S
C194 C193 1.374 . S
C195 C192 1.499 . S
C195 C196 1.373 . S
C195 C197 1.389 1_556 S
C196 H169 0.950 . S
C196 C182 1.377 . S
C196 C195 1.373 . S
C197 C181 1.377 . S
C197 C195 1.389 1_554 S
C197 C198 1.524 . S
C198 C197 1.524 . S
C198 C199 1.397 . S
C198 C203 1.363 . S
C199 H170 0.950 1_554 S
C199 C198 1.397 . S
C199 C200 1.334 . S
C200 H171 0.950 . S
C200 C199 1.334 . S
C200 C201 1.287 . S
C201 C200 1.287 . S
C201 C202 1.524 . S
C201 H204 0.999 . S
C202 H172 0.950 . S
C202 C201 1.524 . S
C202 C203 1.415 . S
C203 H173 0.950 . S
C203 C198 1.363 . S
C203 C202 1.415 . S
H204 C201 0.999 . S
H205 C186 0.913 . S
H206 C224 0.951 . S
H207 C226 0.951 . S
H208 C228 0.950 . S
H209 C229 0.950 . S
H210 C231 0.950 . S
H211 C234 0.950 . S
H212 C235 0.950 . S
H213 C237 0.950 . S
H214 C238 0.950 . S
H215 C239 0.951 . S
H216 C241 0.951 . S
H217 C243 0.950 . S
H218 C244 0.950 . S
H219 C246 0.950 . S
H220 C249 0.950 . S
H221 C250 0.950 . S
H222 C252 0.950 . S
H223 C253 0.950 . S
C224 H206 0.951 . S
C224 C225 1.366 . S
C224 C226 1.388 . S
C225 C224 1.366 . S
C225 C229 1.385 . S
C226 H207 0.951 . S
C226 C224 1.388 . S
C226 C227 1.366 . S
C227 C226 1.366 . S
C227 C228 1.414 . S
C227 C230 1.499 . S
C228 H208 0.950 . S
C228 C227 1.414 . S
C228 C229 1.374 . S
C229 H209 0.950 . S
C229 C225 1.385 . S
C229 C228 1.374 . S
C230 C227 1.499 . S
C230 C231 1.373 . S
C230 C232 1.389 . S
C231 H210 0.950 . S
C231 C230 1.373 . S
C231 C247 1.377 1_455 S
C232 C230 1.389 . S
C232 C233 1.524 . S
C232 C246 1.377 1_455 S
C233 C232 1.524 . S
C233 C234 1.397 . S
C233 C238 1.363 . S
C234 H211 0.950 . S
C234 C233 1.397 . S
C234 C235 1.334 . S
C235 H212 0.950 . S
C235 C234 1.334 . S
C235 C236 1.287 . S
C236 C235 1.287 . S
C236 C237 1.524 . S
C236 H255 0.913 . S
C237 H213 0.950 . S
C237 C236 1.524 . S
C237 C238 1.415 . S
C238 H214 0.950 . S
C238 C233 1.363 . S
C238 C237 1.415 . S
C239 H215 0.951 . S
C239 C240 1.366 . S
C239 C241 1.388 . S
C240 C239 1.366 . S
C240 C244 1.385 . S
C241 H216 0.951 . S
C241 C239 1.388 . S
C241 C242 1.366 . S
C242 C241 1.366 . S
C242 C243 1.414 . S
C242 C245 1.499 . S
C243 H217 0.950 . S
C243 C242 1.414 . S
C243 C244 1.374 . S
C244 H218 0.950 . S
C244 C240 1.385 . S
C244 C243 1.374 . S
C245 C242 1.499 . S
C245 C246 1.373 . S
C245 C247 1.389 . S
C246 H219 0.950 . S
C246 C232 1.377 1_655 S
C246 C245 1.373 . S
C247 C231 1.377 1_655 S
C247 C245 1.389 . S
C247 C248 1.524 . S
C248 C247 1.524 . S
C248 C249 1.397 . S
C248 C253 1.363 . S
C249 H220 0.950 . S
C249 C248 1.397 . S
C249 C250 1.334 . S
C250 H221 0.950 . S
C250 C249 1.334 . S
C250 C251 1.287 . S
C251 C250 1.287 . S
C251 C252 1.524 . S
C251 H254 0.999 . S
C252 H222 0.950 . S
C252 C251 1.524 . S
C252 C253 1.415 . S
C253 H223 0.950 . S
C253 C248 1.363 . S
C253 C252 1.415 . S
H254 C251 0.999 . S
H255 C236 0.913 . S
H256 C274 0.951 . S
H257 C276 0.951 . S
H258 C278 0.950 1_554 S
H259 C279 0.971 . S
H260 C281 0.950 . S
H261 C284 0.950 . S
H262 C285 0.950 . S
H263 C287 0.950 . S
H264 C288 0.950 . S
H265 C289 0.951 . S
H266 C291 0.951 . S
H267 C293 0.950 1_556 S
H268 C294 0.950 . S
H269 C296 0.950 . S
H270 C299 0.950 . S
H271 C300 0.950 . S
H272 C302 0.950 . S
H273 C303 0.950 . S
C274 H256 0.951 . S
C274 C275 1.366 . S
C274 C276 1.388 . S
C275 C274 1.366 . S
C275 C279 1.385 . S
C276 H257 0.951 . S
C276 C274 1.388 . S
C276 C277 1.366 . S
C277 C276 1.366 . S
C277 C278 1.414 . S
C277 C280 1.499 . S
C278 H258 0.950 1_556 S
C278 C277 1.414 . S
C278 C279 1.374 . S
C279 H259 0.971 . S
C279 C275 1.385 . S
C279 C278 1.374 . S
C280 C277 1.499 . S
C280 C281 1.373 1_556 S
C280 C282 1.389 . S
C281 H260 0.950 . S
C281 C280 1.373 1_554 S
C281 C297 1.377 1_545 S
C282 C280 1.389 . S
C282 C283 1.524 . S
C282 C296 1.377 1_545 S
C283 C282 1.524 . S
C283 C284 1.397 . S
C283 C288 1.363 1_545 S
C284 H261 0.950 . S
C284 C283 1.397 . S
C284 C285 1.334 . S
C285 H262 0.950 . S
C285 C284 1.334 . S
C285 C286 1.287 . S
C286 C285 1.287 . S
C286 C287 1.524 1_545 S
C286 H305 0.913 . S
C287 H263 0.950 . S
C287 C286 1.524 1_565 S
C287 C288 1.415 . S
C288 H264 0.950 . S
C288 C283 1.363 1_565 S
C288 C287 1.415 . S
C289 H265 0.951 . S
C289 C290 1.366 . S
C289 C291 1.388 . S
C290 C289 1.366 . S
C290 C294 1.385 . S
C291 H266 0.951 . S
C291 C289 1.388 . S
C291 C292 1.366 . S
C292 C291 1.366 . S
C292 C293 1.414 . S
C292 C295 1.499 . S
C293 H267 0.950 1_554 S
C293 C292 1.414 . S
C293 C294 1.374 . S
C294 H268 0.950 . S
C294 C290 1.385 . S
C294 C293 1.374 . S
C295 C292 1.499 . S
C295 C296 1.373 1_554 S
C295 C297 1.389 . S
C296 H269 0.950 . S
C296 C282 1.377 1_565 S
C296 C295 1.373 1_556 S
C297 C281 1.377 1_565 S
C297 C295 1.389 . S
C297 C298 1.524 . S
C298 C297 1.524 . S
C298 C299 1.397 . S
C298 C303 1.363 1_565 S
C299 H270 0.950 . S
C299 C298 1.397 . S
C299 C300 1.334 . S
C300 H271 0.950 . S
C300 C299 1.334 . S
C300 C301 1.287 . S
C301 C300 1.287 . S
C301 C302 1.524 1_565 S
C301 H304 0.999 . S
C302 H272 0.950 . S
C302 C301 1.524 1_545 S
C302 C303 1.415 . S
C303 H273 0.950 . S
C303 C298 1.363 1_545 S
C303 C302 1.415 . S
H304 C301 0.999 . S
H305 C286 0.913 . S
H306 C324 0.951 . S
H307 C326 0.951 . S
H308 C328 0.950 . S
H309 C329 0.950 . S
H310 C331 0.950 . S
H311 C334 0.950 . S
H312 C335 0.950 . S
H313 C337 0.950 . S
H314 C338 0.950 . S
H315 C339 0.951 . S
H316 C341 0.951 . S
H317 C343 0.950 . S
H318 C344 0.950 . S
H319 C346 0.950 . S
H320 C349 0.950 . S
H321 C350 0.950 . S
H322 C352 0.950 . S
H323 C353 0.950 . S
C324 H306 0.951 . S
C324 C325 1.366 . S
C324 C326 1.388 . S
C325 C324 1.366 . S
C325 C329 1.385 . S
C326 H307 0.951 . S
C326 C324 1.388 . S
C326 C327 1.366 . S
C327 C326 1.366 . S
C327 C328 1.414 . S
C327 C330 1.499 . S
C328 H308 0.950 . S
C328 C327 1.414 . S
C328 C329 1.374 . S
C329 H309 0.950 . S
C329 C325 1.385 . S
C329 C328 1.374 . S
C330 C327 1.499 . S
C330 C331 1.373 . S
C330 C332 1.389 . S
C331 H310 0.950 . S
C331 C330 1.373 . S
C331 C347 1.377 . S
C332 C330 1.389 . S
C332 C333 1.524 . S
C332 C346 1.377 . S
C333 C332 1.524 . S
C333 C334 1.397 . S
C333 C338 1.363 . S
C334 H311 0.950 . S
C334 C333 1.397 . S
C334 C335 1.334 . S
C335 H312 0.950 . S
C335 C334 1.334 . S
C335 C336 1.287 . S
C336 C335 1.287 . S
C336 C337 1.524 . S
C336 H355 0.913 . S
C337 H313 0.950 . S
C337 C336 1.524 . S
C337 C338 1.415 . S
C338 H314 0.950 . S
C338 C333 1.363 . S
C338 C337 1.415 . S
C339 H315 0.951 . S
C339 C340 1.366 . S
C339 C341 1.388 . S
C340 C339 1.366 . S
C340 C344 1.385 . S
C341 H316 0.951 . S
C341 C339 1.388 . S
C341 C342 1.366 . S
C342 C341 1.366 . S
C342 C343 1.414 . S
C342 C345 1.499 . S
C343 H317 0.950 . S
C343 C342 1.414 . S
C343 C344 1.374 . S
C344 H318 0.950 . S
C344 C340 1.385 . S
C344 C343 1.374 . S
C345 C342 1.499 . S
C345 C346 1.373 . S
C345 C347 1.389 . S
C346 H319 0.950 . S
C346 C332 1.377 . S
C346 C345 1.373 . S
C347 C331 1.377 . S
C347 C345 1.389 . S
C347 C348 1.524 . S
C348 C347 1.524 . S
C348 C349 1.397 . S
C348 C353 1.363 . S
C349 H320 0.950 . S
C349 C348 1.397 . S
C349 C350 1.334 . S
C350 H321 0.950 . S
C350 C349 1.334 . S
C350 C351 1.287 . S
C351 C350 1.287 . S
C351 C352 1.524 . S
C351 H354 0.999 . S
C352 H322 0.950 . S
C352 C351 1.524 . S
C352 C353 1.415 . S
C353 H323 0.950 . S
C353 C348 1.363 . S
C353 C352 1.415 . S
H354 C351 0.999 . S
H355 C336 0.913 . S
H356 C374 0.951 . S
H357 C376 0.951 . S
H358 C378 0.950 . S
H359 C379 0.950 . S
H360 C381 0.950 . S
H361 C384 0.950 . S
H362 C385 0.950 . S
H363 C387 0.950 . S
H364 C388 0.950 . S
H365 C389 0.951 . S
H366 C391 0.951 . S
H367 C393 0.950 . S
H368 C394 0.950 . S
H369 C396 0.950 1_655 S
H370 C399 0.950 . S
H371 C400 0.950 . S
H372 C402 0.950 . S
H373 C403 0.950 . S
C374 H356 0.951 . S
C374 C375 1.366 . S
C374 C376 1.388 . S
C375 C374 1.366 . S
C375 C379 1.385 . S
C376 H357 0.951 . S
C376 C374 1.388 . S
C376 C377 1.366 . S
C377 C376 1.366 . S
C377 C378 1.414 . S
C377 C380 1.499 . S
C378 H358 0.950 . S
C378 C377 1.414 . S
C378 C379 1.374 . S
C379 H359 0.950 . S
C379 C375 1.385 . S
C379 C378 1.374 . S
C380 C377 1.499 . S
C380 C381 1.373 . S
C380 C382 1.389 1_554 S
C381 H360 0.950 . S
C381 C380 1.373 . S
C381 C397 1.377 1_455 S
C382 C380 1.389 1_556 S
C382 C383 1.524 . S
C382 C396 1.377 . S
C383 C382 1.524 . S
C383 C384 1.397 . S
C383 C388 1.363 . S
C384 H361 0.950 . S
C384 C383 1.397 . S
C384 C385 1.334 . S
C385 H362 0.950 . S
C385 C384 1.334 . S
C385 C386 1.287 . S
C386 C385 1.287 . S
C386 C387 1.524 . S
C386 H405 0.913 . S
C387 H363 0.950 . S
C387 C386 1.524 . S
C387 C388 1.415 . S
C388 H364 0.950 . S
C388 C383 1.363 . S
C388 C387 1.415 . S
C389 H365 0.951 . S
C389 C390 1.366 . S
C389 C391 1.388 . S
C390 C389 1.366 . S
C390 C394 1.385 . S
C391 H366 0.951 . S
C391 C389 1.388 . S
C391 C392 1.366 . S
C392 C391 1.366 . S
C392 C393 1.414 . S
C392 C395 1.499 . S
C393 H367 0.950 . S
C393 C392 1.414 . S
C393 C394 1.374 . S
C394 H368 0.950 . S
C394 C390 1.385 . S
C394 C393 1.374 . S
C395 C392 1.499 . S
C395 C396 1.373 1_655 S
C395 C397 1.389 1_556 S
C396 H369 0.950 1_455 S
C396 C382 1.377 . S
C396 C395 1.373 1_455 S
C397 C381 1.377 1_655 S
C397 C395 1.389 1_554 S
C397 C398 1.524 . S
C398 C397 1.524 . S
C398 C399 1.397 . S
C398 C403 1.363 . S
C399 H370 0.950 . S
C399 C398 1.397 . S
C399 C400 1.334 . S
C400 H371 0.950 . S
C400 C399 1.334 . S
C400 C401 1.287 . S
C401 C400 1.287 . S
C401 C402 1.524 . S
C401 H404 0.999 . S
C402 H372 0.950 . S
C402 C401 1.524 . S
C402 C403 1.415 . S
C403 H373 0.950 . S
C403 C398 1.363 . S
C403 C402 1.415 . S
H404 C401 0.999 . S
H405 C386 0.913 . S
H406 C424 0.951 . S
H407 C426 0.951 . S
H408 C428 0.950 . S
H409 C429 0.950 . S
H410 C431 0.950 . S
H411 C434 0.950 . S
H412 C435 0.950 . S
H413 C437 0.950 . S
H414 C438 0.950 . S
H415 C439 0.951 . S
H416 C441 0.951 . S
H417 C443 0.950 . S
H418 C444 0.950 . S
H419 C446 0.950 . S
H420 C449 0.950 . S
H421 C450 0.950 . S
H422 C452 0.950 . S
H423 C453 0.950 . S
C424 H406 0.951 . S
C424 C425 1.366 . S
C424 C426 1.388 . S
C425 C424 1.366 . S
C425 C429 1.385 . S
C426 H407 0.951 . S
C426 C424 1.388 . S
C426 C427 1.366 . S
C427 C426 1.366 . S
C427 C428 1.414 . S
C427 C430 1.499 . S
C428 H408 0.950 . S
C428 C427 1.414 . S
C428 C429 1.374 . S
C429 H409 0.950 . S
C429 C425 1.385 . S
C429 C428 1.374 . S
C430 C427 1.499 . S
C430 C431 1.373 . S
C430 C432 1.389 . S
C431 H410 0.950 . S
C431 C430 1.373 . S
C431 C447 1.377 1_545 S
C432 C430 1.389 . S
C432 C433 1.524 . S
C432 C446 1.377 1_545 S
C433 C432 1.524 . S
C433 C434 1.397 . S
C433 C438 1.363 . S
C434 H411 0.950 . S
C434 C433 1.397 . S
C434 C435 1.334 . S
C435 H412 0.950 . S
C435 C434 1.334 . S
C435 C436 1.287 . S
C436 C435 1.287 . S
C436 C437 1.524 . S
C436 H455 0.913 . S
C437 H413 0.950 . S
C437 C436 1.524 . S
C437 C438 1.415 . S
C438 H414 0.950 . S
C438 C433 1.363 . S
C438 C437 1.415 . S
C439 H415 0.951 . S
C439 C440 1.366 . S
C439 C441 1.388 . S
C440 C439 1.366 . S
C440 C444 1.385 . S
C441 H416 0.951 . S
C441 C439 1.388 . S
C441 C442 1.366 . S
C442 C441 1.366 . S
C442 C443 1.414 . S
C442 C445 1.499 . S
C443 H417 0.950 . S
C443 C442 1.414 . S
C443 C444 1.374 . S
C444 H418 0.950 . S
C444 C440 1.385 . S
C444 C443 1.374 . S
C445 C442 1.499 . S
C445 C446 1.373 . S
C445 C447 1.389 . S
C446 H419 0.950 . S
C446 C432 1.377 1_565 S
C446 C445 1.373 . S
C447 C431 1.377 1_565 S
C447 C445 1.389 . S
C447 C448 1.524 . S
C448 C447 1.524 . S
C448 C449 1.397 . S
C448 C453 1.363 . S
C449 H420 0.950 . S
C449 C448 1.397 . S
C449 C450 1.334 . S
C450 H421 0.950 . S
C450 C449 1.334 . S
C450 C451 1.287 . S
C451 C450 1.287 . S
C451 C452 1.524 . S
C451 H454 0.999 . S
C452 H422 0.950 . S
C452 C451 1.524 . S
C452 C453 1.415 . S
C453 H423 0.950 . S
C453 C448 1.363 . S
C453 C452 1.415 . S
H454 C451 0.999 . S
H455 C436 0.913 . S
C75 C12 1.502 . S
C90 C40 1.502 . S
C125 C26 1.502 . S
C140 C54 1.502 . S
C175 C5 1.322 . S
C190 C46 1.577 . S
C225 C39 1.372 . S
C240 C19 1.131 . S
C275 C53 1.250 . S
C290 C11 1.250 . S
C325 C25 1.372 . S
C340 C33 1.133 . S
C375 C4 1.577 . S
C390 C47 1.322 . S
C425 C18 1.702 . S
C440 C32 1.702 . S
