# Generated by pormake.
# Topology wio, (6)-cn, num edge types: 1
# Building blocks:
#     Node 0, Type 0, BuildingBlock: BETGAK_clean_sbu_0, # of connection points: 6
#     Node 1, Type 0, BuildingBlock: BETGAK_clean_sbu_0, # of connection points: 6
#     Node 2, Type 0, BuildingBlock: BETGAK_clean_sbu_0, # of connection points: 6
#     Node 3, Type 0, BuildingBlock: BETGAK_clean_sbu_0, # of connection points: 6
#     Node 4, Type 0, BuildingBlock: BETGAK_clean_sbu_0, # of connection points: 6
#     Node 5, Type 0, BuildingBlock: BETGAK_clean_sbu_0, # of connection points: 6
#     Node 6, Type 0, BuildingBlock: BETGAK_clean_sbu_0, # of connection points: 6
#     Node 7, Type 0, BuildingBlock: BETGAK_clean_sbu_0, # of connection points: 6
#     Node 8, Type 0, BuildingBlock: BETGAK_clean_sbu_0, # of connection points: 6
#     Node 9, Type 0, BuildingBlock: BETGAK_clean_sbu_0, # of connection points: 6
#     Node 10, Type 0, BuildingBlock: BETGAK_clean_sbu_0, # of connection points: 6
#     Node 11, Type 0, BuildingBlock: BETGAK_clean_sbu_0, # of connection points: 6
#     Node 12, Type 0, BuildingBlock: BETGAK_clean_sbu_0, # of connection points: 6
#     Node 13, Type 0, BuildingBlock: BETGAK_clean_sbu_0, # of connection points: 6
#     Node 14, Type 0, BuildingBlock: BETGAK_clean_sbu_0, # of connection points: 6
#     Node 15, Type 0, BuildingBlock: BETGAK_clean_sbu_0, # of connection points: 6
#     Node 16, Type 0, BuildingBlock: BETGAK_clean_sbu_0, # of connection points: 6
#     Node 17, Type 0, BuildingBlock: BETGAK_clean_sbu_0, # of connection points: 6
#     Node 18, Type 0, BuildingBlock: BETGAK_clean_sbu_0, # of connection points: 6
#     Node 19, Type 0, BuildingBlock: BETGAK_clean_sbu_0, # of connection points: 6
#     Node 20, Type 0, BuildingBlock: BETGAK_clean_sbu_0, # of connection points: 6
#     Node 21, Type 0, BuildingBlock: BETGAK_clean_sbu_0, # of connection points: 6
#     Node 22, Type 0, BuildingBlock: BETGAK_clean_sbu_0, # of connection points: 6
#     Node 23, Type 0, BuildingBlock: BETGAK_clean_sbu_0, # of connection points: 6
#     Node 24, Type 0, BuildingBlock: BETGAK_clean_sbu_0, # of connection points: 6
#     Node 25, Type 0, BuildingBlock: BETGAK_clean_sbu_0, # of connection points: 6
#     Node 26, Type 0, BuildingBlock: BETGAK_clean_sbu_0, # of connection points: 6
#     Node 27, Type 0, BuildingBlock: BETGAK_clean_sbu_0, # of connection points: 6
#     Node 28, Type 0, BuildingBlock: BETGAK_clean_sbu_0, # of connection points: 6
#     Node 29, Type 0, BuildingBlock: BETGAK_clean_sbu_0, # of connection points: 6
#     Node 30, Type 0, BuildingBlock: BETGAK_clean_sbu_0, # of connection points: 6
#     Node 31, Type 0, BuildingBlock: BETGAK_clean_sbu_0, # of connection points: 6
#     Edge 32, Type (0, 0), BuildingBlock: CIFDUS_clean_linker_0, # of connection points: 2
#     Edge 33, Type (0, 0), BuildingBlock: CIFDUS_clean_linker_0, # of connection points: 2
#     Edge 34, Type (0, 0), BuildingBlock: CIFDUS_clean_linker_0, # of connection points: 2
#     Edge 35, Type (0, 0), BuildingBlock: CIFDUS_clean_linker_0, # of connection points: 2
#     Edge 36, Type (0, 0), BuildingBlock: CIFDUS_clean_linker_0, # of connection points: 2
#     Edge 37, Type (0, 0), BuildingBlock: CIFDUS_clean_linker_0, # of connection points: 2
#     Edge 38, Type (0, 0), BuildingBlock: CIFDUS_clean_linker_0, # of connection points: 2
#     Edge 39, Type (0, 0), BuildingBlock: CIFDUS_clean_linker_0, # of connection points: 2
#     Edge 40, Type (0, 0), BuildingBlock: CIFDUS_clean_linker_0, # of connection points: 2
#     Edge 41, Type (0, 0), BuildingBlock: CIFDUS_clean_linker_0, # of connection points: 2
#     Edge 42, Type (0, 0), BuildingBlock: CIFDUS_clean_linker_0, # of connection points: 2
#     Edge 43, Type (0, 0), BuildingBlock: CIFDUS_clean_linker_0, # of connection points: 2
#     Edge 44, Type (0, 0), BuildingBlock: CIFDUS_clean_linker_0, # of connection points: 2
#     Edge 45, Type (0, 0), BuildingBlock: CIFDUS_clean_linker_0, # of connection points: 2
#     Edge 46, Type (0, 0), BuildingBlock: CIFDUS_clean_linker_0, # of connection points: 2
#     Edge 47, Type (0, 0), BuildingBlock: CIFDUS_clean_linker_0, # of connection points: 2
#     Edge 48, Type (0, 0), BuildingBlock: CIFDUS_clean_linker_0, # of connection points: 2
#     Edge 49, Type (0, 0), BuildingBlock: CIFDUS_clean_linker_0, # of connection points: 2
#     Edge 50, Type (0, 0), BuildingBlock: CIFDUS_clean_linker_0, # of connection points: 2
#     Edge 51, Type (0, 0), BuildingBlock: CIFDUS_clean_linker_0, # of connection points: 2
#     Edge 52, Type (0, 0), BuildingBlock: CIFDUS_clean_linker_0, # of connection points: 2
#     Edge 53, Type (0, 0), BuildingBlock: CIFDUS_clean_linker_0, # of connection points: 2
#     Edge 54, Type (0, 0), BuildingBlock: CIFDUS_clean_linker_0, # of connection points: 2
#     Edge 55, Type (0, 0), BuildingBlock: CIFDUS_clean_linker_0, # of connection points: 2
#     Edge 56, Type (0, 0), BuildingBlock: CIFDUS_clean_linker_0, # of connection points: 2
#     Edge 57, Type (0, 0), BuildingBlock: CIFDUS_clean_linker_0, # of connection points: 2
#     Edge 58, Type (0, 0), BuildingBlock: CIFDUS_clean_linker_0, # of connection points: 2
#     Edge 59, Type (0, 0), BuildingBlock: CIFDUS_clean_linker_0, # of connection points: 2
#     Edge 60, Type (0, 0), BuildingBlock: CIFDUS_clean_linker_0, # of connection points: 2
#     Edge 61, Type (0, 0), BuildingBlock: CIFDUS_clean_linker_0, # of connection points: 2
#     Edge 62, Type (0, 0), BuildingBlock: CIFDUS_clean_linker_0, # of connection points: 2
#     Edge 63, Type (0, 0), BuildingBlock: CIFDUS_clean_linker_0, # of connection points: 2
#     Edge 64, Type (0, 0), BuildingBlock: CIFDUS_clean_linker_0, # of connection points: 2
#     Edge 65, Type (0, 0), BuildingBlock: CIFDUS_clean_linker_0, # of connection points: 2
#     Edge 66, Type (0, 0), BuildingBlock: CIFDUS_clean_linker_0, # of connection points: 2
#     Edge 67, Type (0, 0), BuildingBlock: CIFDUS_clean_linker_0, # of connection points: 2
#     Edge 68, Type (0, 0), BuildingBlock: CIFDUS_clean_linker_0, # of connection points: 2
#     Edge 69, Type (0, 0), BuildingBlock: CIFDUS_clean_linker_0, # of connection points: 2
#     Edge 70, Type (0, 0), BuildingBlock: CIFDUS_clean_linker_0, # of connection points: 2
#     Edge 71, Type (0, 0), BuildingBlock: CIFDUS_clean_linker_0, # of connection points: 2
#     Edge 72, Type (0, 0), BuildingBlock: CIFDUS_clean_linker_0, # of connection points: 2
#     Edge 73, Type (0, 0), BuildingBlock: CIFDUS_clean_linker_0, # of connection points: 2
#     Edge 74, Type (0, 0), BuildingBlock: CIFDUS_clean_linker_0, # of connection points: 2
#     Edge 75, Type (0, 0), BuildingBlock: CIFDUS_clean_linker_0, # of connection points: 2
#     Edge 76, Type (0, 0), BuildingBlock: CIFDUS_clean_linker_0, # of connection points: 2
#     Edge 77, Type (0, 0), BuildingBlock: CIFDUS_clean_linker_0, # of connection points: 2
#     Edge 78, Type (0, 0), BuildingBlock: CIFDUS_clean_linker_0, # of connection points: 2
#     Edge 79, Type (0, 0), BuildingBlock: CIFDUS_clean_linker_0, # of connection points: 2
#     Edge 80, Type (0, 0), BuildingBlock: CIFDUS_clean_linker_0, # of connection points: 2
#     Edge 81, Type (0, 0), BuildingBlock: CIFDUS_clean_linker_0, # of connection points: 2
#     Edge 82, Type (0, 0), BuildingBlock: CIFDUS_clean_linker_0, # of connection points: 2
#     Edge 83, Type (0, 0), BuildingBlock: CIFDUS_clean_linker_0, # of connection points: 2
#     Edge 84, Type (0, 0), BuildingBlock: CIFDUS_clean_linker_0, # of connection points: 2
#     Edge 85, Type (0, 0), BuildingBlock: CIFDUS_clean_linker_0, # of connection points: 2
#     Edge 86, Type (0, 0), BuildingBlock: CIFDUS_clean_linker_0, # of connection points: 2
#     Edge 87, Type (0, 0), BuildingBlock: CIFDUS_clean_linker_0, # of connection points: 2
#     Edge 88, Type (0, 0), BuildingBlock: CIFDUS_clean_linker_0, # of connection points: 2
#     Edge 89, Type (0, 0), BuildingBlock: CIFDUS_clean_linker_0, # of connection points: 2
#     Edge 90, Type (0, 0), BuildingBlock: CIFDUS_clean_linker_0, # of connection points: 2
#     Edge 91, Type (0, 0), BuildingBlock: CIFDUS_clean_linker_0, # of connection points: 2
#     Edge 92, Type (0, 0), BuildingBlock: CIFDUS_clean_linker_0, # of connection points: 2
#     Edge 93, Type (0, 0), BuildingBlock: CIFDUS_clean_linker_0, # of connection points: 2
#     Edge 94, Type (0, 0), BuildingBlock: CIFDUS_clean_linker_0, # of connection points: 2
#     Edge 95, Type (0, 0), BuildingBlock: CIFDUS_clean_linker_0, # of connection points: 2
#     Edge 96, Type (0, 0), BuildingBlock: CIFDUS_clean_linker_0, # of connection points: 2
#     Edge 97, Type (0, 0), BuildingBlock: CIFDUS_clean_linker_0, # of connection points: 2
#     Edge 98, Type (0, 0), BuildingBlock: CIFDUS_clean_linker_0, # of connection points: 2
#     Edge 99, Type (0, 0), BuildingBlock: CIFDUS_clean_linker_0, # of connection points: 2
#     Edge 100, Type (0, 0), BuildingBlock: CIFDUS_clean_linker_0, # of connection points: 2
#     Edge 101, Type (0, 0), BuildingBlock: CIFDUS_clean_linker_0, # of connection points: 2
#     Edge 102, Type (0, 0), BuildingBlock: CIFDUS_clean_linker_0, # of connection points: 2
#     Edge 103, Type (0, 0), BuildingBlock: CIFDUS_clean_linker_0, # of connection points: 2
#     Edge 104, Type (0, 0), BuildingBlock: CIFDUS_clean_linker_0, # of connection points: 2
#     Edge 105, Type (0, 0), BuildingBlock: CIFDUS_clean_linker_0, # of connection points: 2
#     Edge 106, Type (0, 0), BuildingBlock: CIFDUS_clean_linker_0, # of connection points: 2
#     Edge 107, Type (0, 0), BuildingBlock: CIFDUS_clean_linker_0, # of connection points: 2
#     Edge 108, Type (0, 0), BuildingBlock: CIFDUS_clean_linker_0, # of connection points: 2
#     Edge 109, Type (0, 0), BuildingBlock: CIFDUS_clean_linker_0, # of connection points: 2
#     Edge 110, Type (0, 0), BuildingBlock: CIFDUS_clean_linker_0, # of connection points: 2
#     Edge 111, Type (0, 0), BuildingBlock: CIFDUS_clean_linker_0, # of connection points: 2
#     Edge 112, Type (0, 0), BuildingBlock: CIFDUS_clean_linker_0, # of connection points: 2
#     Edge 113, Type (0, 0), BuildingBlock: CIFDUS_clean_linker_0, # of connection points: 2
#     Edge 114, Type (0, 0), BuildingBlock: CIFDUS_clean_linker_0, # of connection points: 2
#     Edge 115, Type (0, 0), BuildingBlock: CIFDUS_clean_linker_0, # of connection points: 2
#     Edge 116, Type (0, 0), BuildingBlock: CIFDUS_clean_linker_0, # of connection points: 2
#     Edge 117, Type (0, 0), BuildingBlock: CIFDUS_clean_linker_0, # of connection points: 2
#     Edge 118, Type (0, 0), BuildingBlock: CIFDUS_clean_linker_0, # of connection points: 2
#     Edge 119, Type (0, 0), BuildingBlock: CIFDUS_clean_linker_0, # of connection points: 2
#     Edge 120, Type (0, 0), BuildingBlock: CIFDUS_clean_linker_0, # of connection points: 2
#     Edge 121, Type (0, 0), BuildingBlock: CIFDUS_clean_linker_0, # of connection points: 2
#     Edge 122, Type (0, 0), BuildingBlock: CIFDUS_clean_linker_0, # of connection points: 2
#     Edge 123, Type (0, 0), BuildingBlock: CIFDUS_clean_linker_0, # of connection points: 2
#     Edge 124, Type (0, 0), BuildingBlock: CIFDUS_clean_linker_0, # of connection points: 2
#     Edge 125, Type (0, 0), BuildingBlock: CIFDUS_clean_linker_0, # of connection points: 2
#     Edge 126, Type (0, 0), BuildingBlock: CIFDUS_clean_linker_0, # of connection points: 2
#     Edge 127, Type (0, 0), BuildingBlock: CIFDUS_clean_linker_0, # of connection points: 2
# Relax obj value: 0.208
# Max RMSD: 0.240
# Mean RMSD: 0.240
data_MOF--net-wio--node1-BETGAK_clean_sbu_0--edge1-CIFDUS_clean_linker_0
_symmetry_space_group_name_H-M    P1
_symmetry_Int_Tables_number       1
_symmetry_cell_setting            triclinic
loop_
_symmetry_equiv_pos_as_xyz
'x, y, z'
_cell_length_a     56.278582
_cell_length_b     56.330419
_cell_length_c     48.135868
_cell_angle_alpha  89.97298
_cell_angle_beta   89.970637
_cell_angle_gamma 90.031528
loop_
_atom_site_label
_atom_site_type_symbol
_atom_site_fract_x
_atom_site_fract_y
_atom_site_fract_z
_atom_type_partial_charge
La0 La 0.15482 0.11782 0.30161 0.0
La1 La 0.10322 0.1244 0.31383 0.0
C2 C 0.19483 0.10585 0.28228 0.0
C3 C 0.21255 0.11348 0.26157 0.0
C4 C 0.20647 0.12757 0.23858 0.0
C5 C 0.22397 0.13446 0.21942 0.0
C6 C 0.24781 0.12739 0.22297 0.0
C7 C 0.25371 0.11356 0.24632 0.0
C8 C 0.23626 0.10668 0.26534 0.0
C9 C 0.14515 0.15719 0.329 0.0
C10 C 0.12085 0.13779 0.2536 0.0
C11 C 0.0645 0.13847 0.33542 0.0
C12 C 0.04896 0.13547 0.36014 0.0
C13 C 0.03612 0.15509 0.37014 0.0
C14 C 0.01914 0.1524 0.3913 0.0
C15 C 0.0145 0.12994 0.40289 0.0
C16 C 0.02824 0.1105 0.39369 0.0
C17 C 0.04526 0.11322 0.37259 0.0
C18 C 0.11389 0.08295 0.29028 0.0
C19 C 0.13676 0.09885 0.3589 0.0
O20 O 0.19201 0.11986 0.30363 0.0
O21 O 0.17456 0.09754 0.27308 0.0
O22 O 0.16454 0.14512 0.33114 0.0
O23 O 0.13255 0.1484 0.30966 0.0
O24 O 0.14207 0.12999 0.26098 0.0
O25 O 0.10298 0.13916 0.27153 0.0
O26 O 0.06623 0.12062 0.31818 0.0
O27 O 0.08494 0.14906 0.33901 0.0
O28 O 0.09431 0.09462 0.28624 0.0
O29 O 0.12576 0.0941 0.30817 0.0
O30 O 0.11615 0.10948 0.35376 0.0
O31 O 0.15335 0.09707 0.33957 0.0
H32 H 0.18825 0.13312 0.23538 0.0
H33 H 0.21875 0.14493 0.20156 0.0
H34 H 0.27189 0.10813 0.25002 0.0
H35 H 0.24133 0.096 0.28311 0.0
H36 H 0.03864 0.17245 0.36087 0.0
H37 H 1.00887 0.16773 0.39761 0.0
H38 H 0.02547 0.09299 0.40243 0.0
H39 H 0.05503 0.09781 0.36548 0.0
La40 La 0.15798 0.9025 0.54906 0.0
La41 La 0.14987 0.85138 0.56176 0.0
C42 C 0.17018 0.94192 0.52856 0.0
C43 C 0.16151 0.95932 0.50791 0.0
C44 C 0.13827 0.96845 0.50887 0.0
C45 C 0.13118 0.9863 0.49036 0.0
C46 C 0.14717 0.99534 0.4705 0.0
C47 C 0.17019 0.98561 0.46914 0.0
C48 C 0.17727 0.96789 0.4877 0.0
C49 C 0.11852 0.89409 0.57704 0.0
C50 C 0.13685 0.86899 0.50139 0.0
C51 C 0.13445 0.81324 0.5835 0.0
C52 C 0.13592 0.79829 0.60884 0.0
C53 C 0.11602 0.78486 0.6169 0.0
C54 C 0.11755 0.76833 0.63866 0.0
C55 C 0.13912 0.76475 0.6528 0.0
C56 C 0.15873 0.77914 0.64556 0.0
C57 C 0.15715 0.79572 0.62384 0.0
C58 C 0.19165 0.86031 0.5376 0.0
C59 C 0.17814 0.88386 0.60558 0.0
O60 O 0.15781 0.93963 0.55142 0.0
O61 O 0.17761 0.92144 0.51906 0.0
O62 O 0.13138 0.91298 0.57932 0.0
O63 O 0.12675 0.88132 0.55756 0.0
O64 O 0.14495 0.89007 0.50875 0.0
O65 O 0.13537 0.85112 0.5193 0.0
O66 O 0.15331 0.81455 0.5677 0.0
O67 O 0.12379 0.83375 0.58563 0.0
O68 O 0.17914 0.84117 0.53399 0.0
O69 O 0.18088 0.8728 0.5552 0.0
O70 O 0.16515 0.86441 0.60163 0.0
O71 O 0.18049 0.89971 0.58547 0.0
H72 H 0.12568 0.96215 0.52423 0.0
H73 H 0.11338 0.99343 0.49211 0.0
H74 H 0.18281 0.99173 0.45374 0.0
H75 H 0.19525 0.96108 0.4865 0.0
H76 H 0.09943 0.78653 0.60564 0.0
H77 H 0.10216 0.75752 0.64344 0.0
H78 H 0.17553 0.77716 0.65626 0.0
H79 H 0.17272 0.80599 0.61825 0.0
La80 La 0.37284 0.90448 0.79875 0.0
La81 La 0.42433 0.89514 0.81011 0.0
C82 C 0.33318 0.91818 0.78031 0.0
C83 C 0.31661 0.91447 0.75702 0.0
C84 C 0.3115 0.89177 0.74645 0.0
C85 C 0.29448 0.88895 0.72543 0.0
C86 C 0.2825 0.9088 0.71454 0.0
C87 C 0.28788 0.93144 0.72511 0.0
C88 C 0.30471 0.93422 0.74612 0.0
C89 C 0.38128 0.86577 0.82792 0.0
C90 C 0.4044 0.881 0.75077 0.0
C91 C 0.46202 0.87915 0.83239 0.0
C92 C 0.47817 0.88272 0.85648 0.0
C93 C 0.49019 0.86308 0.86774 0.0
C94 C 0.50719 0.866 0.88882 0.0
C95 C 0.5127 0.88873 0.89912 0.0
C96 C 0.49989 0.90829 0.88851 0.0
C97 C 0.48283 0.90534 0.86747 0.0
C98 C 0.41597 0.93677 0.78564 0.0
C99 C 0.39297 0.92486 0.85444 0.0
O100 O 0.33581 0.90068 0.79791 0.0
O101 O 0.35333 0.9288 0.77463 0.0
O102 O 0.36301 0.87942 0.83108 0.0
O103 O 0.39352 0.87308 0.80749 0.0
O104 O 0.38421 0.89112 0.75827 0.0
O105 O 0.42239 0.87855 0.76852 0.0
O106 O 0.46165 0.89554 0.81312 0.0
O107 O 0.44073 0.871 0.8376 0.0
O108 O 0.43501 0.92408 0.78211 0.0
O109 O 0.40349 0.92635 0.80357 0.0
O110 O 0.41273 0.91251 0.84957 0.0
O111 O 0.37598 0.92616 0.83557 0.0
H112 H 0.3205 0.87624 0.75453 0.0
H113 H 0.29087 0.87132 0.71748 0.0
H114 H 0.27878 0.94705 0.7174 0.0
H115 H 0.30825 0.95185 0.75414 0.0
H116 H 0.4869 0.84543 0.85964 0.0
H117 H 0.51673 0.85055 0.8962 0.0
H118 H 0.5033 0.92603 0.8962 0.0
H119 H 0.47368 0.92078 0.8594 0.0
La120 La 0.36687 0.11802 0.04885 0.0
La121 La 0.37317 0.17027 0.06085 0.0
C122 C 0.3549 0.0778 1.03053 0.0
C123 C 0.35911 0.06174 1.00684 0.0
C124 C 0.3821 0.05682 0.9969 0.0
C125 C 0.38549 0.04013 0.97568 0.0
C126 C 0.36595 0.02824 0.96394 0.0
C127 C 0.343 0.03341 0.97385 0.0
C128 C 0.33966 0.04995 0.99507 0.0
C129 C 0.40614 0.12866 0.07585 0.0
C130 C 0.38553 0.15176 1.00003 0.0
C131 C 0.38815 0.20839 0.08309 0.0
C132 C 0.38321 0.22629 0.10534 0.0
C133 C 0.37426 0.24872 0.09803 0.0
C134 C 0.37155 0.26664 0.11797 0.0
C135 C 0.37776 0.26284 0.14601 0.0
C136 C 0.38695 0.24044 0.15337 0.0
C137 C 0.38966 0.22241 0.1333 0.0
C138 C 0.33084 0.15913 1.03951 0.0
C139 C 0.34825 0.13636 0.10655 0.0
O140 O 0.37266 0.08133 0.04755 0.0
O141 O 0.3429 0.09728 1.02561 0.0
O142 O 0.39419 0.10921 0.07865 0.0
O143 O 0.3971 0.14096 0.05636 0.0
O144 O 0.37779 0.13062 1.00776 0.0
O145 O 0.38727 0.16975 1.01788 0.0
O146 O 0.37391 0.2077 0.06159 0.0
O147 O 0.39496 0.1871 0.0905 0.0
O148 O 0.34094 0.17982 1.0376 0.0
O149 O 0.3435 0.14707 0.05573 0.0
O150 O 0.35762 0.15747 0.1006 0.0
O151 O 0.34765 0.11903 0.08801 0.0
H152 H 0.39744 0.06571 1.00566 0.0
H153 H 0.40334 0.0367 0.96826 0.0
H154 H 0.3276 0.02437 0.96548 0.0
H155 H 0.32181 0.05329 1.0026 0.0
H156 H 0.36971 0.25262 0.07664 0.0
H157 H 0.36491 0.28372 0.1112 0.0
H158 H 0.39182 0.23673 0.17469 0.0
H159 H 0.39707 0.20553 0.13968 0.0
La160 La 0.15581 0.90642 0.2898 0.0
La161 La 0.10385 0.89969 0.27731 0.0
C162 C 0.19551 0.91908 0.30929 0.0
C163 C 0.2134 0.91145 0.32972 0.0
C164 C 0.20757 0.89691 0.35243 0.0
C165 C 0.22525 0.88981 0.3712 0.0
C166 C 0.24903 0.89709 0.36752 0.0
C167 C 0.25465 0.91148 0.34455 0.0
C168 C 0.23702 0.91858 0.32591 0.0
C169 C 0.14619 0.86711 0.26242 0.0
C170 C 0.12176 0.88593 0.33752 0.0
C171 C 0.06545 0.88491 0.25555 0.0
C172 C 0.04983 0.88766 0.23086 0.0
C173 C 0.03634 0.86815 0.22176 0.0
C174 C 0.01951 0.87066 0.20042 0.0
C175 C 0.01567 0.89283 0.18771 0.0
C176 C 0.03004 0.91212 0.19608 0.0
C177 C 0.0469 0.90958 0.21739 0.0
C178 C 0.11483 0.94113 0.30095 0.0
C179 C 0.13745 0.92544 0.23248 0.0
O180 O 0.19302 0.90543 0.28755 0.0
O181 O 0.17505 0.92668 0.31879 0.0
O182 O 0.16576 0.87899 0.2606 0.0
O183 O 0.13344 0.87598 0.28159 0.0
O184 O 0.14312 0.89341 0.33009 0.0
O185 O 0.10373 0.88507 0.31973 0.0
O186 O 0.06677 0.90269 0.27296 0.0
O187 O 0.08615 0.87488 0.25179 0.0
O188 O 0.09462 0.93023 0.30373 0.0
O189 O 0.12662 0.92967 0.28332 0.0
O190 O 0.11686 0.91471 0.2375 0.0
O191 O 0.15404 0.92721 0.25183 0.0
H192 H 0.18943 0.8911 0.35566 0.0
H193 H 0.22023 0.87892 0.3888 0.0
H194 H 0.27278 0.91708 0.34075 0.0
H195 H 0.24188 0.92963 0.30836 0.0
H196 H 0.03827 0.85105 0.23181 0.0
H197 H 1.00875 0.85546 0.19479 0.0
H198 H 0.02794 0.92938 0.1865 0.0
H199 H 0.0572 0.92488 0.2238 0.0
La200 La 0.37216 0.90046 0.53878 0.0
La201 La 0.37246 0.84792 0.52629 0.0
C202 C 0.36356 0.94359 0.54907 0.0
C203 C 0.37043 0.96199 0.56977 0.0
C204 C 0.39095 0.97599 0.56632 0.0
C205 C 0.39645 0.99407 0.58534 0.0
C206 C 0.38147 0.9987 0.60814 0.0
C207 C 0.36106 0.98455 0.61161 0.0
C208 C 0.35558 0.96656 0.59265 0.0
C209 C 0.41415 0.8827 0.52332 0.0
C210 C 0.38458 0.8657 0.58735 0.0
C211 C 0.38121 0.80724 0.50606 0.0
C212 C 0.38495 0.79345 0.47981 0.0
C213 C 0.36571 0.7865 0.4629 0.0
C214 C 0.36888 0.77015 0.44111 0.0
C215 C 0.39134 0.76008 0.43569 0.0
C216 C 0.41072 0.76788 0.45187 0.0
C217 C 0.40756 0.78422 0.4736 0.0
C218 C 0.33344 0.86317 0.5524 0.0
C219 C 0.35174 0.88324 0.48062 0.0
O220 O 0.37962 0.93654 0.53113 0.0
O221 O 0.35072 0.92585 0.55834 0.0
O222 O 0.41108 0.89871 0.54233 0.0
O223 O 0.39395 0.87736 0.51402 0.0
O224 O 0.37482 0.88613 0.58049 0.0
O225 O 0.38868 0.8489 0.56845 0.0
O226 O 0.35985 0.81524 0.51136 0.0
O227 O 0.39775 0.82215 0.51419 0.0
O228 O 0.34301 0.84235 0.55549 0.0
O229 O 0.34554 0.87375 0.53422 0.0
O230 O 0.35719 0.86102 0.48722 0.0
O231 O 0.35606 0.90127 0.49756 0.0
H232 H 0.40265 0.9732 0.54875 0.0
H233 H 0.41218 1.00474 0.58184 0.0
H234 H 0.3493 0.98727 0.62913 0.0
H235 H 0.33952 0.9563 0.59586 0.0
H236 H 0.34796 0.79296 0.46714 0.0
H237 H 0.35345 0.76454 0.42939 0.0
H238 H 0.42837 0.76094 0.44814 0.0
H239 H 0.42274 0.78896 0.48626 0.0
La240 La 0.3668 0.11373 0.78727 0.0
La241 La 0.41877 0.12125 0.77463 0.0
C242 C 0.32712 0.10076 0.80644 0.0
C243 C 0.31115 0.10511 0.83022 0.0
C244 C 0.30003 0.08566 0.84289 0.0
C245 C 0.28378 0.08907 0.86443 0.0
C246 C 0.2782 0.11207 0.87377 0.0
C247 C 0.28939 0.13161 0.86109 0.0
C248 C 0.30582 0.12817 0.83956 0.0
C249 C 0.3763 0.15331 0.76028 0.0
C250 C 0.40041 0.13378 0.83547 0.0
C251 C 0.45653 0.1373 0.7525 0.0
C252 C 0.47483 0.13303 0.73054 0.0
C253 C 0.49698 0.12337 0.73786 0.0
C254 C 0.51533 0.12151 0.71831 0.0
C255 C 0.51224 0.12929 0.6907 0.0
C256 C 0.4901 0.13909 0.68333 0.0
C257 C 0.47165 0.14097 0.703 0.0
C258 C 0.40886 0.07867 0.79618 0.0
C259 C 0.38518 0.09563 0.72922 0.0
O260 O 0.32986 0.11808 0.78862 0.0
O261 O 0.3471 0.08968 0.81161 0.0
O262 O 0.35707 0.14096 0.75766 0.0
O263 O 0.38895 0.14446 0.77957 0.0
O264 O 0.37938 0.12545 0.82811 0.0
O265 O 0.4182 0.1357 0.81737 0.0
O266 O 0.45616 0.12313 0.77407 0.0
O267 O 0.43505 0.14332 0.7448 0.0
O268 O 0.42932 0.08926 0.79776 0.0
O269 O 0.39633 0.09099 0.78008 0.0
O270 O 0.40601 0.10578 0.73482 0.0
O271 O 0.36812 0.09439 0.74814 0.0
H272 H 0.30373 0.06776 0.83587 0.0
H273 H 0.27528 0.07366 0.87353 0.0
H274 H 0.28565 0.14951 0.86804 0.0
H275 H 0.31419 0.1435 0.83012 0.0
H276 H 0.50036 0.11768 0.75899 0.0
H277 H 0.5322 0.11434 0.7251 0.0
H278 H 0.48694 0.14516 0.66231 0.0
H279 H 0.45501 0.14897 0.69669 0.0
La280 La 0.15609 0.12064 1.04163 0.0
La281 La 0.1472 0.17165 1.0289 0.0
C282 C 0.16905 0.08109 0.06111 0.0
C283 C 0.16065 0.06277 0.08062 0.0
C284 C 0.14605 0.06826 0.10339 0.0
C285 C 0.13874 0.0503 0.1217 0.0
C286 C 0.1459 0.02661 0.11747 0.0
C287 C 0.16011 0.02127 0.09425 0.0
C288 C 0.16742 0.03917 0.07608 0.0
C289 C 0.11651 0.12854 1.01368 0.0
C290 C 0.13437 0.15366 0.0893 0.0
C291 C 0.13101 0.20943 1.00713 0.0
C292 C 0.13308 0.22489 0.9823 0.0
C293 C 0.1137 0.23917 0.97462 0.0
C294 C 0.11582 0.25594 0.95318 0.0
C295 C 0.13748 0.2589 0.939 0.0
C296 C 0.15655 0.24372 0.94591 0.0
C297 C 0.15438 0.22691 0.96731 0.0
C298 C 0.18902 0.16353 0.05322 0.0
C299 C 0.17634 0.13971 0.98529 0.0
O300 O 0.1567 0.08349 1.03831 0.0
O301 O 0.17547 0.10159 0.07155 0.0
O302 O 0.12964 0.10988 1.0113 0.0
O303 O 0.12458 0.14135 1.03318 0.0
O304 O 0.14296 0.13276 0.082 0.0
O305 O 0.13241 0.17142 0.07128 0.0
O306 O 0.14913 0.20871 1.0241 0.0
O307 O 0.12152 0.18846 1.00374 0.0
O308 O 0.17632 0.18257 0.05646 0.0
O309 O 0.1785 0.15076 1.03567 0.0
O310 O 0.16309 0.159 0.98912 0.0
O311 O 0.17884 0.12397 1.00547 0.0
H312 H 0.14049 0.08638 0.10717 0.0
H313 H 0.12797 0.05506 0.13949 0.0
H314 H 0.16561 1.0032 0.09007 0.0
H315 H 0.17849 0.03457 0.05846 0.0
H316 H 0.09707 0.23791 0.98588 0.0
H317 H 0.10084 0.26736 0.94866 0.0
H318 H 0.17339 0.2452 0.93516 0.0
H319 H 0.16954 0.21598 0.97265 0.0
La320 La 0.92416 0.89939 0.77952 0.0
La321 La 0.87249 0.905 0.79018 0.0
C322 C 0.9638 0.88694 0.7587 0.0
C323 C 0.97852 0.88903 0.73309 0.0
C324 C 0.99134 0.86919 0.72362 0.0
C325 C 1.00783 0.87128 0.70181 0.0
C326 C 0.01203 0.89336 0.68904 0.0
C327 C 0.99827 0.91296 0.69767 0.0
C328 C 0.98172 0.91084 0.71939 0.0
C329 C 0.91258 0.94038 0.80375 0.0
C330 C 0.89141 0.92565 0.73428 0.0
C331 C 0.83138 0.91495 0.80783 0.0
C332 C 0.81512 0.90913 0.83089 0.0
C333 C 0.79077 0.90677 0.82532 0.0
C334 C 0.77459 0.90277 0.84687 0.0
C335 C 0.78246 0.90117 0.87452 0.0
C336 C 0.807 0.90285 0.87996 0.0
C337 C 0.82321 0.90673 0.85834 0.0
C338 C 0.88347 0.86704 0.7607 0.0
C339 C 0.90568 0.88578 0.83928 0.0
O340 O 0.96058 0.90608 0.77358 0.0
O341 O 0.94449 0.87411 0.75742 0.0
O342 O 0.93201 0.92862 0.8084 0.0
O343 O 0.90121 0.92935 0.78533 0.0
O344 O 0.91134 0.91368 0.73912 0.0
O345 O 0.87476 0.92726 0.75357 0.0
O346 O 0.8358 0.89791 0.79017 0.0
O347 O 0.85043 0.92734 0.81373 0.0
O348 O 0.86467 0.87988 0.75744 0.0
O349 O 0.89511 0.87476 0.78148 0.0
O350 O 0.88458 0.89337 0.83126 0.0
O351 O 0.92396 0.88465 0.82186 0.0
H352 H 0.98925 0.85217 0.73384 0.0
H353 H 0.01813 0.85585 0.69592 0.0
H354 H 1.00071 0.93018 0.68806 0.0
H355 H 0.97199 0.92643 0.72601 0.0
H356 H 0.78418 0.90854 0.80427 0.0
H357 H 0.75583 0.9018 0.84199 0.0
H358 H 0.81366 0.90139 0.90101 0.0
H359 H 0.84195 0.90826 0.86315 0.0
La360 La 0.87519 0.17011 0.52789 0.0
La361 La 0.86656 0.1182 0.53949 0.0
C362 C 0.89191 0.20748 0.50578 0.0
C363 C 0.88797 0.22411 0.48234 0.0
C364 C 0.86526 0.22825 0.47132 0.0
C365 C 0.86193 0.24553 0.45064 0.0
C366 C 0.88122 0.25905 0.44049 0.0
C367 C 0.90406 0.25409 0.45083 0.0
C368 C 0.90735 0.23686 0.47154 0.0
C369 C 0.83288 0.16079 0.55056 0.0
C370 C 0.84678 0.13823 0.48316 0.0
C371 C 0.85404 0.07823 0.55801 0.0
C372 C 0.86026 0.06188 0.58076 0.0
C373 C 0.86202 0.03753 0.57507 0.0
C374 C 0.8666 0.02135 0.59642 0.0
C375 C 0.86934 0.02925 0.6239 0.0
C376 C 0.86827 0.05377 0.62944 0.0
C377 C 0.86384 0.06997 0.60803 0.0
C378 C 0.90592 0.12752 0.51183 0.0
C379 C 0.88804 0.15075 0.58796 0.0
O380 O 0.87628 0.20742 0.52594 0.0
O381 O 0.89885 0.186 0.49948 0.0
O382 O 0.84387 0.18103 0.55223 0.0
O383 O 0.8446 0.14833 0.53388 0.0
O384 O 0.85926 0.15791 0.488 0.0
O385 O 0.84482 0.12152 0.5024 0.0
O386 O 0.87014 0.08109 0.53871 0.0
O387 O 0.84366 0.09824 0.56475 0.0
O388 O 0.89289 0.10885 0.50845 0.0
O389 O 0.89767 0.13967 0.53184 0.0
O390 O 0.87882 0.13017 0.58026 0.0
O391 O 0.89045 0.1687 0.57017 0.0
H392 H 0.85005 0.21848 0.47906 0.0
H393 H 0.84413 0.24856 0.44289 0.0
H394 H 0.91928 0.2642 0.44377 0.0
H395 H 0.92506 0.23391 0.47968 0.0
H396 H 0.85936 0.03096 0.55415 0.0
H397 H 0.8671 1.00258 0.59157 0.0
H398 H 0.87059 0.06038 0.65039 0.0
H399 H 0.86281 0.08871 0.61291 0.0
La400 La 0.59993 0.12558 0.27763 0.0
La401 La 0.65132 0.11691 0.28966 0.0
C402 C 0.56209 0.14134 0.25543 0.0
C403 C 0.54662 0.13846 0.23066 0.0
C404 C 0.54464 0.11672 0.21659 0.0
C405 C 0.52809 0.11397 0.19498 0.0
C406 C 0.51311 0.13287 0.1869 0.0
C407 C 0.51597 0.1549 0.20026 0.0
C408 C 0.53248 0.15761 0.2219 0.0
C409 C 0.60849 0.08392 0.30181 0.0
C410 C 0.63192 0.09657 0.23352 0.0
C411 C 0.69134 0.10463 0.30848 0.0
C412 C 0.70808 0.11068 0.33101 0.0
C413 C 0.73223 0.11366 0.32458 0.0
C414 C 0.7489 0.11759 0.34561 0.0
C415 C 0.74175 0.11843 0.37356 0.0
C416 C 0.71741 0.11622 0.37989 0.0
C417 C 0.70071 0.11244 0.35882 0.0
C418 C 0.64252 0.15588 0.26106 0.0
C419 C 0.61858 0.1389 0.33763 0.0
O420 O 0.56275 0.12387 0.27332 0.0
O421 O 0.58313 0.15057 0.25153 0.0
O422 O 0.58932 0.09643 0.30526 0.0
O423 O 0.62113 0.09451 0.28417 0.0
O424 O 0.61233 0.10928 0.23796 0.0
O425 O 0.64841 0.09472 0.25297 0.0
O426 O 0.68848 0.12061 0.28909 0.0
O427 O 0.67127 0.09436 0.31538 0.0
O428 O 0.66096 0.14251 0.25784 0.0
O429 O 0.63029 0.14812 0.28125 0.0
O430 O 0.63927 0.12974 0.3303 0.0
O431 O 0.60073 0.14102 0.31972 0.0
H432 H 0.55548 0.10172 0.22273 0.0
H433 H 0.52672 0.09684 0.18491 0.0
H434 H 0.50471 0.16979 0.19486 0.0
H435 H 0.5337 0.17458 0.23241 0.0
H436 H 0.73829 0.11235 0.30327 0.0
H437 H 0.76751 0.11901 0.34009 0.0
H438 H 0.71133 0.11708 0.40122 0.0
H439 H 0.68215 0.11044 0.36435 0.0
La440 La 0.64911 0.84956 1.02963 0.0
La441 La 0.65732 0.90097 1.04083 0.0
C442 C 0.63424 0.81125 1.00765 0.0
C443 C 0.63753 0.79566 0.98294 0.0
C444 C 0.61782 0.78359 0.97183 0.0
C445 C 0.62065 0.76667 0.95061 0.0
C446 C 0.64335 0.76127 0.94005 0.0
C447 C 0.66294 0.77422 0.95041 0.0
C448 C 0.66008 0.79119 0.97156 0.0
C449 C 0.69062 0.85859 0.05404 0.0
C450 C 0.67811 0.88128 0.98523 0.0
C451 C 0.66873 0.94139 0.05931 0.0
C452 C 0.66221 0.95798 0.08182 0.0
C453 C 0.65974 0.98221 0.07562 0.0
C454 C 0.65521 0.9987 0.0967 0.0
C455 C 0.65322 0.99129 0.12448 0.0
C456 C 0.65494 0.96687 0.13053 0.0
C457 C 0.65933 0.95036 0.1094 0.0
C458 C 0.61865 0.89161 1.01175 0.0
C459 C 0.63568 0.86862 0.08938 0.0
O460 O 0.65161 0.81244 1.02562 0.0
O461 O 0.62441 0.83199 1.00372 0.0
O462 O 0.67802 0.83953 0.0578 0.0
O463 O 0.68016 0.87098 1.03605 0.0
O464 O 0.66536 0.86176 0.98988 0.0
O465 O 0.67995 0.89791 1.0045 0.0
O466 O 0.65281 0.93802 1.03996 0.0
O467 O 0.67949 0.92163 0.06628 0.0
O468 O 0.63212 0.90996 1.00836 0.0
O469 O 0.62616 0.8797 1.03235 0.0
O470 O 0.64462 0.88928 0.08164 0.0
O471 O 0.63363 0.85057 0.07174 0.0
H472 H 0.60023 0.78668 0.98023 0.0
H473 H 0.60518 0.75704 0.9434 0.0
H474 H 0.68065 0.7709 0.94253 0.0
H475 H 0.67559 0.80033 0.9795 0.0
H476 H 0.66187 0.98847 0.05447 0.0
H477 H 0.6542 0.01736 0.09137 0.0
H478 H 0.65319 0.96056 0.1517 0.0
H479 H 0.6609 0.93174 0.11474 0.0
La480 La 0.9211 0.12402 0.81304 0.0
La481 La 0.86902 0.11807 0.80263 0.0
C482 C 0.95996 0.13829 0.83416 0.0
C483 C 0.976 0.13495 0.8584 0.0
C484 C 0.98048 0.11248 0.86992 0.0
C485 C 0.99747 0.10976 0.89107 0.0
C486 C 1.01042 0.12941 0.90124 0.0
C487 C 1.00512 0.15199 0.89038 0.0
C488 C 0.98817 0.15468 0.86921 0.0
C489 C 0.90924 0.08221 0.79106 0.0
C490 C 0.88773 0.09976 0.85977 0.0
C491 C 0.82786 0.10827 0.78509 0.0
C492 C 0.81264 0.11115 0.76024 0.0
C493 C 0.80577 0.13371 0.75055 0.0
C494 C 0.78946 0.13591 0.72874 0.0
C495 C 0.77975 0.11561 0.71608 0.0
C496 C 0.78697 0.09309 0.72551 0.0
C497 C 0.80316 0.09091 0.74739 0.0
C498 C 0.88041 0.15704 0.82997 0.0
C499 C 0.90256 0.13491 0.75267 0.0
O500 O 0.95832 0.12104 0.81605 0.0
O501 O 0.93934 0.14816 0.83884 0.0
O502 O 0.92944 0.09291 0.78729 0.0
O503 O 0.89783 0.09414 0.80866 0.0
O504 O 0.90874 0.10909 0.85327 0.0
O505 O 0.87008 0.09902 0.84169 0.0
O506 O 0.83319 0.12747 0.799 0.0
O507 O 0.8459 0.09366 0.7833 0.0
O508 O 0.86145 0.14455 0.83387 0.0
O509 O 0.89199 0.14839 0.80962 0.0
O510 O 0.88205 0.12588 0.76079 0.0
O511 O 0.92031 0.13845 0.7704 0.0
H512 H 0.97122 0.09696 0.8622 0.0
H513 H 1.00072 0.09213 0.89919 0.0
H514 H 0.01477 0.1675 0.8974 0.0
H515 H 0.98505 0.17221 0.86069 0.0
H516 H 0.81269 0.1497 0.76006 0.0
H517 H 0.78451 0.15349 0.72172 0.0
H518 H 0.77965 0.0771 0.71642 0.0
H519 H 0.8079 0.07333 0.75466 0.0
La520 La 0.6505 0.17468 0.56153 0.0
La521 La 0.65675 0.12355 0.5483 0.0
C522 C 0.63896 0.21423 0.58324 0.0
C523 C 0.63616 0.2278 0.60976 0.0
C524 C 0.65583 0.2345 0.62611 0.0
C525 C 0.65325 0.25076 0.64813 0.0
C526 C 0.63098 0.26095 0.65427 0.0
C527 C 0.61119 0.25331 0.63869 0.0
C528 C 0.61376 0.23706 0.61678 0.0
C529 C 0.69121 0.16483 0.53563 0.0
C530 C 0.67731 0.14084 0.60455 0.0
C531 C 0.66783 0.08392 0.5274 0.0
C532 C 0.6591 0.06632 0.50694 0.0
C533 C 0.63673 0.05536 0.50963 0.0
C534 C 0.62994 0.03711 0.49149 0.0
C535 C 0.64537 0.02939 0.4703 0.0
C536 C 0.66743 0.0409 0.46723 0.0
C537 C 0.67422 0.05906 0.48538 0.0
C538 C 0.61868 0.13256 0.57864 0.0
C539 C 0.63597 0.15781 0.50114 0.0
O540 O 0.66041 0.20878 0.57504 0.0
O541 O 0.62377 0.19732 0.57749 0.0
O542 O 0.67861 0.18385 0.53182 0.0
O543 O 0.68079 0.15251 0.55374 0.0
O544 O 0.66334 0.15968 0.60156 0.0
O545 O 0.68043 0.12599 0.58363 0.0
O546 O 0.6557 0.0864 0.55041 0.0
O547 O 0.67543 0.10431 0.51775 0.0
O548 O 0.63122 0.1134 0.57991 0.0
O549 O 0.62631 0.14532 0.55878 0.0
O550 O 0.64223 0.13619 0.5088 0.0
O551 O 0.63669 0.17604 0.51866 0.0
H552 H 0.67342 0.22791 0.62125 0.0
H553 H 0.66895 0.25623 0.65943 0.0
H554 H 0.59367 0.26034 0.64299 0.0
H555 H 0.59827 0.23245 0.60456 0.0
H556 H 0.62466 0.06051 0.52609 0.0
H557 H 0.61289 0.02859 0.49458 0.0
H558 H 0.67957 0.03582 0.45082 0.0
H559 H 0.69155 0.06718 0.48286 0.0
La560 La 0.60203 0.90186 0.31395 0.0
La561 La 0.65411 0.90614 0.30165 0.0
C562 C 0.56191 0.89031 0.3342 0.0
C563 C 0.54807 0.88622 0.36029 0.0
C564 C 0.54185 0.90495 0.37829 0.0
C565 C 0.52546 0.90137 0.40002 0.0
C566 C 0.51469 0.87904 0.40418 0.0
C567 C 0.5218 0.86015 0.3869 0.0
C568 C 0.53818 0.8637 0.36529 0.0
C569 C 0.61454 0.94237 0.28923 0.0
C570 C 0.63657 0.92566 0.35861 0.0
C571 C 0.69449 0.91703 0.28259 0.0
C572 C 0.71246 0.90891 0.2625 0.0
C573 C 0.70661 0.89464 0.23958 0.0
C574 C 0.72432 0.88763 0.22076 0.0
C575 C 0.7481 0.89481 0.22459 0.0
C576 C 0.75377 0.90873 0.24791 0.0
C577 C 0.73614 0.9157 0.26661 0.0
C578 C 0.64298 0.86826 0.33108 0.0
C579 C 0.61949 0.88779 0.25341 0.0
O580 O 0.56809 0.91203 0.32789 0.0
O581 O 0.57841 0.87499 0.32737 0.0
O582 O 0.59424 0.93171 0.28613 0.0
O583 O 0.62598 0.93084 0.30715 0.0
O584 O 0.6165 0.91374 0.35448 0.0
O585 O 0.65235 0.92826 0.33849 0.0
O586 O 0.69124 0.90353 0.30434 0.0
O587 O 0.67446 0.92532 0.27268 0.0
O588 O 0.66289 0.87961 0.33249 0.0
O589 O 0.63071 0.87678 0.31128 0.0
O590 O 0.6414 0.89242 0.26171 0.0
O591 O 0.60096 0.88954 0.27046 0.0
H592 H 0.54893 0.92261 0.375 0.0
H593 H 0.52039 0.91641 0.41269 0.0
H594 H 0.51428 0.8426 0.38965 0.0
H595 H 0.54243 0.84894 0.35175 0.0
H596 H 0.68842 0.88911 0.23612 0.0
H597 H 0.71931 0.87707 0.20291 0.0
H598 H 0.77191 0.91423 0.25178 0.0
H599 H 0.74101 0.92654 0.28431 0.0
La600 La 0.87477 0.8532 0.06418 0.0
La601 La 0.86797 0.90514 0.05123 0.0
C602 C 0.89049 0.81551 0.08654 0.0
C603 C 0.88651 0.79895 0.11009 0.0
C604 C 0.86373 0.79439 0.12075 0.0
C605 C 0.8604 0.77696 0.14127 0.0
C606 C 0.87974 0.76365 0.15162 0.0
C607 C 0.90263 0.76903 0.14164 0.0
C608 C 0.90593 0.78643 0.12111 0.0
C609 C 0.83255 0.86352 1.04205 0.0
C610 C 0.84901 0.88693 0.10887 0.0
C611 C 0.85554 0.94484 1.03179 0.0
C612 C 0.86372 0.96273 1.01166 0.0
C613 C 0.87691 0.95662 0.98795 0.0
C614 C 0.88428 0.97429 0.96929 0.0
C615 C 0.87861 0.9983 0.97412 0.0
C616 C 0.86578 1.00422 0.99822 0.0
C617 C 0.85839 0.98662 1.01672 0.0
C618 C 0.90772 0.89539 0.07787 0.0
C619 C 0.88791 0.87104 1.00346 0.0
O620 O 0.87462 0.81591 0.06668 0.0
O621 O 0.89818 0.83682 0.09251 0.0
O622 O 0.84297 0.84299 1.04054 0.0
O623 O 0.84477 0.876 0.05828 0.0
O624 O 0.85959 0.86627 0.10388 0.0
O625 O 0.84737 0.9035 0.08945 0.0
O626 O 0.86872 0.94229 0.05392 0.0
O627 O 0.84806 0.92444 1.02201 0.0
O628 O 0.89603 0.91504 0.07981 0.0
O629 O 0.8984 0.88273 0.05896 0.0
O630 O 0.88042 0.89237 1.01082 0.0
O631 O 0.88902 0.85313 1.02144 0.0
H632 H 0.84847 0.80394 0.11281 0.0
H633 H 0.84255 0.77364 0.14874 0.0
H634 H 0.91792 0.75911 0.14882 0.0
H635 H 0.92368 0.78964 0.11323 0.0
H636 H 0.88137 0.93827 0.98376 0.0
H637 H 0.89395 0.96908 0.95082 0.0
H638 H 0.86147 0.02253 1.00287 0.0
H639 H 0.84845 0.99169 1.03507 0.0
La640 La 0.65617 0.615 0.80089 0.0
La641 La 0.60464 0.62427 0.81071 0.0
C642 C 0.69709 0.60335 0.784 0.0
C643 C 0.71285 0.60541 0.75954 0.0
C644 C 0.71521 0.62678 0.74467 0.0
C645 C 0.7321 0.62882 0.72337 0.0
C646 C 0.74683 0.60952 0.71643 0.0
C647 C 0.74396 0.58803 0.731 0.0
C648 C 0.7272 0.58604 0.75232 0.0
C649 C 0.64686 0.65439 0.8286 0.0
C650 C 0.62425 0.63386 0.75064 0.0
C651 C 0.56634 0.64014 0.83174 0.0
C652 C 0.54988 0.63666 0.85562 0.0
C653 C 0.53842 0.65646 0.86732 0.0
C654 C 0.52095 0.65366 0.88794 0.0
C655 C 0.51439 0.63091 0.89732 0.0
C656 C 0.52667 0.61115 0.88636 0.0
C657 C 0.54419 0.61398 0.8658 0.0
C658 C 0.61365 0.58193 0.78833 0.0
C659 C 0.63568 0.5963 0.85704 0.0
O660 O 0.69242 0.62289 0.79756 0.0
O661 O 0.6784 0.58963 0.78179 0.0
O662 O 0.6647 0.64051 0.83312 0.0
O663 O 0.63518 0.6467 0.80788 0.0
O664 O 0.64376 0.62298 0.75895 0.0
O665 O 0.60697 0.6393 0.76836 0.0
O666 O 0.56729 0.62346 0.81288 0.0
O667 O 0.58741 0.64878 0.8371 0.0
O668 O 0.5947 0.59446 0.78362 0.0
O669 O 0.6257 0.59288 0.8062 0.0
O670 O 0.61593 0.60832 0.85108 0.0
O671 O 0.65308 0.59448 0.83869 0.0
H672 H 0.70431 0.64201 0.7498 0.0
H673 H 0.7336 0.64551 0.71231 0.0
H674 H 0.75514 0.57288 0.72643 0.0
H675 H 0.72581 0.56947 0.76364 0.0
H676 H 0.54248 0.67415 0.85985 0.0
H677 H 0.51186 0.66926 0.89564 0.0
H678 H 0.52244 0.59337 0.89334 0.0
H679 H 0.55285 0.59839 0.8574 0.0
La680 La 0.65477 0.40248 0.05167 0.0
La681 La 0.64548 0.35112 0.0618 0.0
C682 C 0.66733 0.4427 1.03385 0.0
C683 C 0.66157 0.45915 1.011 0.0
C684 C 0.65906 0.48341 1.01689 0.0
C685 C 0.65501 0.49973 0.99552 0.0
C686 C 0.65355 0.49207 0.96781 0.0
C687 C 0.65529 0.46762 0.96205 0.0
C688 C 0.65921 0.45129 0.98346 0.0
C689 C 0.61551 0.3936 0.07973 0.0
C690 C 0.63237 0.37132 1.00257 0.0
C691 C 0.62953 0.31301 0.08301 0.0
C692 C 0.63314 0.29678 0.10695 0.0
C693 C 0.61358 0.28435 0.11783 0.0
C694 C 0.61662 0.2673 0.13881 0.0
C695 C 0.63937 0.26218 0.14932 0.0
C696 C 0.65883 0.27538 0.13909 0.0
C697 C 0.65576 0.2925 0.11817 0.0
C698 C 0.68766 0.35993 1.03858 0.0
C699 C 0.67432 0.38187 0.10735 0.0
O700 O 0.65074 0.43954 0.05249 0.0
O701 O 0.67814 0.42285 1.0274 0.0
O702 O 0.62924 0.41166 0.08368 0.0
O703 O 0.62311 0.38169 0.05918 0.0
O704 O 0.64249 0.39134 1.01062 0.0
O705 O 0.62936 0.3533 1.02007 0.0
O706 O 0.64619 0.31383 0.06407 0.0
O707 O 0.621 0.33409 0.08838 0.0
O708 O 0.67497 0.34102 1.03425 0.0
O709 O 0.67689 0.37207 0.0565 0.0
O710 O 0.66166 0.3624 0.10204 0.0
O711 O 0.6764 0.39883 0.08853 0.0
H712 H 0.66076 0.48983 1.03802 0.0
H713 H 0.65397 0.51844 1.00057 0.0
H714 H 0.65396 0.46117 0.94091 0.0
H715 H 0.66086 0.43263 0.97839 0.0
H716 H 0.59594 0.28737 0.10953 0.0
H717 H 0.60126 0.25743 0.14594 0.0
H718 H 0.67657 0.27222 0.14697 0.0
H719 H 0.67112 0.30199 0.11037 0.0
La720 La 0.86532 0.40613 0.30405 0.0
La721 La 0.91764 0.39844 0.31357 0.0
C722 C 0.82467 0.41792 0.28684 0.0
C723 C 0.80876 0.41259 0.26336 0.0
C724 C 0.78443 0.40945 0.26852 0.0
C725 C 0.76871 0.40496 0.24668 0.0
C726 C 0.77704 0.4036 0.2192 0.0
C727 C 0.80157 0.40621 0.21417 0.0
C728 C 0.81729 0.41067 0.23605 0.0
C729 C 0.8758 0.36687 0.33097 0.0
C730 C 0.89718 0.38604 0.25384 0.0
C731 C 0.95604 0.38264 0.33429 0.0
C732 C 0.97231 0.38585 0.3583 0.0
C733 C 0.98588 0.36647 0.3676 0.0
C734 C 1.0028 0.36923 0.3888 0.0
C735 C 1.00664 0.39153 0.40118 0.0
C736 C 0.99229 0.41073 0.3925 0.0
C737 C 0.97533 0.40793 0.37134 0.0
C738 C 0.90671 0.44022 0.29118 0.0
C739 C 0.88579 0.42437 0.36067 0.0
O740 O 0.82847 0.40041 0.30409 0.0
O741 O 0.84408 0.42999 0.28154 0.0
O742 O 0.857 0.37955 0.33498 0.0
O743 O 0.88752 0.37535 0.31067 0.0
O744 O 0.87672 0.39491 0.26254 0.0
O745 O 0.91558 0.38357 0.27103 0.0
O746 O 0.95499 0.3997 0.31585 0.0
O747 O 0.93504 0.37378 0.33949 0.0
O748 O 0.92687 0.42934 0.28785 0.0
O749 O 0.89518 0.42871 0.30902 0.0
O750 O 0.90628 0.41398 0.35403 0.0
O751 O 0.86807 0.42581 0.34268 0.0
H752 H 0.77752 0.41081 0.28948 0.0
H753 H 0.74993 0.40333 0.25122 0.0
H754 H 0.80858 0.40499 0.19325 0.0
H755 H 0.83602 0.41288 0.23157 0.0
H756 H 0.98383 0.34923 0.35791 0.0
H757 H 0.01355 0.3541 0.39466 0.0
H758 H 0.99442 0.42809 0.40182 0.0
H759 H 0.96494 0.42311 0.3648 0.0
La760 La 0.87104 0.61924 0.5495 0.0
La761 La 0.87347 0.67214 0.55936 0.0
C762 C 0.86086 0.5764 0.5398 0.0
C763 C 0.86815 0.5575 0.51999 0.0
C764 C 0.8907 0.54673 0.52099 0.0
C765 C 0.89678 0.52872 0.50209 0.0
C766 C 0.88046 0.52103 0.4818 0.0
C767 C 0.85798 0.53196 0.48087 0.0
C768 C 0.8519 0.5498 0.49976 0.0
C769 C 0.91315 0.63559 0.56676 0.0
C770 C 0.88763 0.6518 0.50009 0.0
C771 C 0.88305 0.71283 0.57898 0.0
C772 C 0.88408 0.72633 0.60567 0.0
C773 C 0.90391 0.74071 0.61162 0.0
C774 C 0.9035 0.75685 0.63395 0.0
C775 C 0.88311 0.75917 0.65066 0.0
C776 C 0.86385 0.74375 0.64567 0.0
C777 C 0.86434 0.7275 0.62357 0.0
C778 C 0.83471 0.65745 0.53229 0.0
C779 C 0.84865 0.63952 0.60535 0.0
O780 O 0.87604 0.58306 0.55897 0.0
O781 O 0.84952 0.59448 0.52895 0.0
O782 O 0.91017 0.61879 0.5487 0.0
O783 O 0.89284 0.64222 0.57435 0.0
O784 O 0.8768 0.63199 0.50744 0.0
O785 O 0.89151 0.66913 0.51841 0.0
O786 O 0.86203 0.70629 0.57017 0.0
O787 O 0.8992 0.69654 0.5742 0.0
O788 O 0.84551 0.67752 0.52797 0.0
O789 O 0.84569 0.64729 0.55166 0.0
O790 O 0.8562 0.66105 0.59829 0.0
O791 O 0.85229 0.62077 0.58923 0.0
H792 H 0.90364 0.55214 0.53638 0.0
H793 H 0.91417 0.52061 0.50364 0.0
H794 H 0.84506 0.52696 0.46527 0.0
H795 H 0.83437 0.55769 0.49848 0.0
H796 H 0.91933 0.74029 0.59816 0.0
H797 H 0.91856 0.76853 0.63706 0.0
H798 H 0.84794 0.74489 0.65828 0.0
H799 H 0.84878 0.71665 0.6198 0.0
La800 La 0.65413 0.40462 0.78861 0.0
La801 La 0.60095 0.4005 0.77786 0.0
C802 C 0.69653 0.41749 0.79718 0.0
C803 C 0.71602 0.41346 0.81719 0.0
C804 C 0.71691 0.39328 0.83433 0.0
C805 C 0.73472 0.3911 0.85464 0.0
C806 C 0.75173 0.4092 0.85835 0.0
C807 C 0.75095 0.42908 0.84067 0.0
C808 C 0.73333 0.43115 0.82035 0.0
C809 C 0.63883 0.36173 0.77297 0.0
C810 C 0.62094 0.38979 0.83811 0.0
C811 C 0.56062 0.3894 0.7582 0.0
C812 C 0.54703 0.3882 0.73158 0.0
C813 C 0.54609 0.40772 0.71335 0.0
C814 C 0.52958 0.4083 0.69151 0.0
C815 C 0.51367 0.38934 0.68709 0.0
C816 C 0.51578 0.3691 0.70405 0.0
C817 C 0.53219 0.36861 0.72614 0.0
C818 C 0.61471 0.44034 0.80342 0.0
C819 C 0.63355 0.42448 0.73144 0.0
O820 O 0.69065 0.40002 0.78054 0.0
O821 O 0.6779 0.42849 0.80713 0.0
O822 O 0.65554 0.36557 0.79099 0.0
O823 O 0.63178 0.38164 0.7645 0.0
O824 O 0.64053 0.40096 0.83059 0.0
O825 O 0.60421 0.38401 0.81968 0.0
O826 O 0.56635 0.41056 0.76721 0.0
O827 O 0.57759 0.3739 0.76271 0.0
O828 O 0.59431 0.42995 0.80694 0.0
O829 O 0.62533 0.4288 0.78488 0.0
O830 O 0.61207 0.41671 0.7384 0.0
O831 O 0.65224 0.42175 0.74792 0.0
H832 H 0.70357 0.3795 0.8324 0.0
H833 H 0.73469 0.37566 0.86806 0.0
H834 H 0.7639 0.44321 0.84271 0.0
H835 H 0.73293 0.4469 0.80742 0.0
H836 H 0.5573 0.42308 0.71675 0.0
H837 H 0.52857 0.42409 0.67871 0.0
H838 H 0.50373 0.35428 0.70137 0.0
H839 H 0.53241 0.35338 0.73988 0.0
La840 La 0.86511 0.4061 1.03673 0.0
La841 La 0.86989 0.35305 1.02828 0.0
C842 C 0.85281 0.44878 1.04398 0.0
C843 C 0.85763 0.46818 0.06388 0.0
C844 C 0.87881 0.46935 0.07931 0.0
C845 C 0.88179 0.48684 0.09986 0.0
C846 C 0.8635 0.50319 0.10554 0.0
C847 C 0.84265 0.50226 0.08945 0.0
C848 C 0.83979 0.48499 0.06888 0.0
C849 C 0.90848 0.39094 1.02245 0.0
C850 C 0.8795 0.37464 0.08809 0.0
C851 C 0.88178 0.31257 1.0098 0.0
C852 C 0.88311 0.29896 0.98323 0.0
C853 C 0.8638 0.29832 0.9647 0.0
C854 C 0.86335 0.28203 0.94266 0.0
C855 C 0.88223 0.26602 0.93837 0.0
C856 C 0.90228 0.2678 0.95569 0.0
C857 C 0.90265 0.28402 0.97796 0.0
C858 C 0.82942 0.36668 0.05251 0.0
C859 C 0.84607 0.38387 0.97993 0.0
O860 O 0.87004 0.44229 1.0273 0.0
O861 O 0.84132 0.43054 0.05419 0.0
O862 O 0.90414 0.40779 1.0401 0.0
O863 O 0.88875 0.38352 1.01382 0.0
O864 O 0.86814 0.39378 0.07945 0.0
O865 O 0.88578 0.35753 0.07037 0.0
O866 O 0.86053 0.31801 1.0188 0.0
O867 O 0.89698 0.32989 1.01397 0.0
O868 O 0.84019 0.34664 0.05703 0.0
O869 O 0.84101 0.3771 1.03378 0.0
O870 O 0.85375 0.36273 0.98827 0.0
O871 O 0.84853 0.40312 0.99561 0.0
H872 H 0.89276 0.45641 0.07597 0.0
H873 H 0.89796 0.48697 0.11204 0.0
H874 H 0.82832 0.51471 0.09311 0.0
H875 H 0.82329 0.48438 0.05729 0.0
H876 H 0.84848 0.30959 0.968 0.0
H877 H 0.8477 0.28127 0.9296 0.0
H878 H 0.91703 0.25565 0.95312 0.0
H879 H 0.91774 0.28403 0.99192 0.0
La880 La 0.86828 0.61372 0.28525 0.0
La881 La 0.91935 0.62449 0.27504 0.0
C882 C 0.82815 0.60089 0.30363 0.0
C883 C 0.81034 0.60926 0.3239 0.0
C884 C 0.81674 0.62261 0.34738 0.0
C885 C 0.79932 0.63026 0.3662 0.0
C886 C 0.77517 0.62477 0.36184 0.0
C887 C 0.76892 0.6117 0.33801 0.0
C888 C 0.78631 0.60403 0.31931 0.0
C889 C 0.87615 0.65462 0.25982 0.0
C890 C 0.89977 0.6346 0.33507 0.0
C891 C 0.95722 0.64138 0.25404 0.0
C892 C 0.97382 0.6379 0.2304 0.0
C893 C 0.98799 0.65699 0.22147 0.0
C894 C 1.00535 0.65383 0.20084 0.0
C895 C 1.00905 0.63141 0.18869 0.0
C896 C 0.99413 0.61251 0.19697 0.0
C897 C 0.97672 0.61572 0.21756 0.0
C898 C 0.91169 0.58204 0.29764 0.0
C899 C 0.88895 0.59574 0.22886 0.0
O900 O 0.83107 0.61418 0.28167 0.0
O901 O 0.84842 0.59316 0.31343 0.0
O902 O 0.85806 0.64103 0.25567 0.0
O903 O 0.88845 0.64611 0.27947 0.0
O904 O 0.88029 0.62353 0.32694 0.0
O905 O 0.91706 0.63978 0.31726 0.0
O906 O 0.9567 0.62489 0.27317 0.0
O907 O 0.93591 0.64915 0.24826 0.0
O908 O 0.93031 0.5951 0.30206 0.0
O909 O 0.8992 0.59236 0.27966 0.0
O910 O 0.90797 0.60903 0.23443 0.0
O911 O 0.87246 0.59225 0.24806 0.0
H912 H 0.83518 0.627 0.35127 0.0
H913 H 0.80484 0.64006 0.38444 0.0
H914 H 0.75051 0.60747 0.33369 0.0
H915 H 0.78098 0.59396 0.30118 0.0
H916 H 0.98607 0.67428 0.23105 0.0
H917 H 0.01654 0.66873 0.19526 0.0
H918 H 0.99614 0.59507 0.18781 0.0
H919 H 0.96588 0.60075 0.22387 0.0
La920 La 0.65837 0.61707 0.5361 0.0
La921 La 0.65091 0.66894 0.52577 0.0
C922 C 0.6709 0.57695 0.5543 0.0
C923 C 0.66585 0.56053 0.57749 0.0
C924 C 0.66095 0.53666 0.57144 0.0
C925 C 0.6574 0.52022 0.5928 0.0
C926 C 0.65886 0.5273 0.62073 0.0
C927 C 0.66325 0.55137 0.6268 0.0
C928 C 0.66663 0.56787 0.60538 0.0
C929 C 0.6187 0.62703 0.50959 0.0
C930 C 0.63812 0.64945 0.58558 0.0
C931 C 0.63568 0.70771 0.50551 0.0
C932 C 0.63811 0.72405 0.48146 0.0
C933 C 0.65993 0.72769 0.46796 0.0
C934 C 0.66207 0.74505 0.44715 0.0
C935 C 0.64246 0.75922 0.43934 0.0
C936 C 0.62042 0.75472 0.45209 0.0
C937 C 0.61831 0.73738 0.47292 0.0
C938 C 0.69302 0.65794 0.54754 0.0
C939 C 0.67566 0.63635 0.47868 0.0
O940 O 0.65374 0.58008 0.53638 0.0
O941 O 0.68216 0.59677 0.55992 0.0
O942 O 0.63123 0.60804 0.50615 0.0
O943 O 0.62745 0.63915 0.52938 0.0
O944 O 0.64693 0.62886 0.57735 0.0
O945 O 0.63588 0.6676 0.5681 0.0
O946 O 0.65353 0.70613 0.52282 0.0
O947 O 0.62591 0.68703 0.50093 0.0
O948 O 0.68153 0.67749 0.55242 0.0
O949 O 0.6814 0.64656 0.5297 0.0
O950 O 0.66555 0.657 0.4851 0.0
O951 O 0.67743 0.619 0.49705 0.0
H952 H 0.6603 0.53061 0.55009 0.0
H953 H 0.65428 0.50181 0.58745 0.0
H954 H 0.6642 0.5574 0.64814 0.0
H955 H 0.67017 0.58623 0.61065 0.0
H956 H 0.67544 0.71752 0.47393 0.0
H957 H 0.67925 0.74769 0.4375 0.0
H958 H 0.60499 0.7653 0.44689 0.0
H959 H 0.60128 0.73489 0.48301 0.0
La960 La 0.41702 0.39826 0.27614 0.0
La961 La 0.36512 0.40609 0.28902 0.0
C962 C 0.4546 0.38214 0.25376 0.0
C963 C 0.47127 0.3858 0.2302 0.0
C964 C 0.47657 0.40848 0.2198 0.0
C965 C 0.49414 0.41143 0.19933 0.0
C966 C 0.50686 0.39178 0.18877 0.0
C967 C 0.50073 0.36901 0.19848 0.0
C968 C 0.48319 0.3661 0.21896 0.0
C969 C 0.40748 0.44057 0.29879 0.0
C970 C 0.3842 0.42611 0.23218 0.0
C971 C 0.32547 0.41866 0.30862 0.0
C972 C 0.3076 0.41044 0.32884 0.0
C973 C 0.3138 0.39698 0.35231 0.0
C974 C 0.29627 0.38985 0.37128 0.0
C975 C 0.27228 0.39605 0.36706 0.0
C976 C 0.26624 0.40914 0.34319 0.0
C977 C 0.28372 0.41627 0.32434 0.0
C978 C 0.37427 0.3666 0.26143 0.0
C979 C 0.39878 0.38518 0.33675 0.0
O980 O 0.45436 0.39807 0.27355 0.0
O981 O 0.43321 0.37467 0.24785 0.0
O982 O 0.42789 0.42987 0.29991 0.0
O983 O 0.39485 0.42856 0.28257 0.0
O984 O 0.4038 0.41338 0.23636 0.0
O985 O 0.36819 0.42852 0.25221 0.0
O986 O 0.32789 0.4057 0.28628 0.0
O987 O 0.34596 0.4259 0.31843 0.0
O988 O 0.35502 0.37896 0.25928 0.0
O989 O 0.38692 0.37528 0.28078 0.0
O990 O 0.37766 0.39326 0.32938 0.0
O991 O 0.41668 0.38364 0.31875 0.0
H992 H 0.46752 0.42397 0.22791 0.0
H993 H 0.49803 0.42921 0.19207 0.0
H994 H 0.51017 0.35349 0.19114 0.0
H995 H 0.47941 0.34841 0.22664 0.0
H996 H 0.33214 0.39217 0.35611 0.0
H997 H 0.30158 0.37996 0.38955 0.0
H998 H 0.24794 0.41387 0.339 0.0
H999 H 0.27857 0.42647 0.30623 0.0
La1000 La 0.37667 0.67014 1.02697 0.0
La1001 La 0.36704 0.61883 1.03553 0.0
C1002 C 0.39292 0.7084 1.00633 0.0
C1003 C 0.38945 0.72479 0.98246 0.0
C1004 C 0.36685 0.72945 0.97136 0.0
C1005 C 0.36393 0.74667 0.95052 0.0
C1006 C 0.38353 0.75964 0.94021 0.0
C1007 C 0.40624 0.75417 0.95061 0.0
C1008 C 0.40912 0.73701 0.97151 0.0
C1009 C 0.33481 0.66166 0.05071 0.0
C1010 C 0.34678 0.64059 0.98097 0.0
C1011 C 0.3564 0.5772 0.0509 0.0
C1012 C 0.35904 0.56098 0.07473 0.0
C1013 C 0.36202 0.53667 0.06953 0.0
C1014 C 0.36428 0.52057 0.09146 0.0
C1015 C 0.36354 0.52845 0.11915 0.0
C1016 C 0.36081 0.55294 0.12433 0.0
C1017 C 0.35865 0.56909 0.1023 0.0
C1018 C 0.40595 0.62852 1.00689 0.0
C1019 C 0.38643 0.64962 0.08637 0.0
O1020 O 0.37616 0.70747 1.02514 0.0
O1021 O 0.40145 0.68734 1.00089 0.0
O1022 O 0.34792 0.68023 0.05532 0.0
O1023 O 0.34491 0.64951 1.03219 0.0
O1024 O 0.35933 0.66001 0.98693 0.0
O1025 O 0.34533 0.62285 0.99885 0.0
O1026 O 0.37593 0.58268 1.03774 0.0
O1027 O 0.34229 0.59552 0.05375 0.0
O1028 O 0.39143 0.61136 1.00168 0.0
O1029 O 0.39892 0.63947 1.02842 0.0
O1030 O 0.37521 0.63044 0.07767 0.0
O1031 O 0.39214 0.66705 0.06899 0.0
H1032 H 0.35138 0.72015 0.97919 0.0
H1033 H 0.3462 0.75008 0.94274 0.0
H1034 H 0.42171 0.76383 0.94343 0.0
H1035 H 0.42675 0.73372 0.9797 0.0
H1036 H 0.3624 0.53008 0.04838 0.0
H1037 H 0.36606 0.50186 0.08672 0.0
H1038 H 0.36043 0.55962 0.14541 0.0
H1039 H 0.35658 0.58781 0.10681 0.0
La1040 La 0.09652 0.62389 0.78142 0.0
La1041 La 0.14823 0.61889 0.79183 0.0
C1042 C 0.05621 0.63498 0.76138 0.0
C1043 C 0.04264 0.63803 0.7349 0.0
C1044 C 0.03699 0.61866 0.71756 0.0
C1045 C 0.02106 0.62133 0.69523 0.0
C1046 C 1.01019 0.64338 0.68969 0.0
C1047 C 0.01673 0.6629 0.70635 0.0
C1048 C 0.03263 0.66024 0.72861 0.0
C1049 C 0.10846 0.58343 0.80627 0.0
C1050 C 0.12945 0.59827 0.73621 0.0
C1051 C 0.18959 0.60931 0.80873 0.0
C1052 C 0.20623 0.61575 0.83112 0.0
C1053 C 0.23042 0.6183 0.82474 0.0
C1054 C 0.24701 0.62265 0.84573 0.0
C1055 C 0.23969 0.62441 0.87356 0.0
C1056 C 0.21528 0.62272 0.87977 0.0
C1057 C 0.19867 0.61849 0.85873 0.0
C1058 C 0.13699 0.65623 0.76151 0.0
C1059 C 0.11512 0.63679 0.84162 0.0
O1060 O 0.06229 0.61351 0.76879 0.0
O1061 O 0.07279 0.65045 0.76743 0.0
O1062 O 0.08913 0.59529 0.81117 0.0
O1063 O 0.11972 0.59428 0.78759 0.0
O1064 O 0.11001 0.61114 0.74057 0.0
O1065 O 0.14559 0.59603 0.75594 0.0
O1066 O 0.1849 0.62587 0.79055 0.0
O1067 O 0.17064 0.59712 0.81561 0.0
O1068 O 0.15589 0.6435 0.75857 0.0
O1069 O 0.12538 0.64883 0.78246 0.0
O1070 O 0.13658 0.63105 0.8328 0.0
O1071 O 0.09637 0.63656 0.82481 0.0
H1072 H 0.04421 0.60121 0.7218 0.0
H1073 H 0.01644 0.60581 0.6831 0.0
H1074 H 1.00917 0.68027 0.70256 0.0
H1075 H 0.03647 0.67549 0.74156 0.0
H1076 H 0.23658 0.6163 0.80354 0.0
H1077 H 0.26567 0.62363 0.84031 0.0
H1078 H 0.20908 0.62428 0.901 0.0
H1079 H 0.18005 0.61686 0.86413 0.0
La1080 La 0.14616 0.35393 0.52861 0.0
La1081 La 0.15242 0.40613 0.54014 0.0
C1082 C 0.13139 0.31563 0.50667 0.0
C1083 C 0.13629 0.29777 0.48442 0.0
C1084 C 0.14528 0.27537 0.49174 0.0
C1085 C 0.14798 0.25746 0.47181 0.0
C1086 C 0.14173 0.26126 0.44379 0.0
C1087 C 0.1325 0.28364 0.43642 0.0
C1088 C 0.12979 0.30165 0.45648 0.0
C1089 C 0.18806 0.36522 0.55095 0.0
C1090 C 0.17144 0.38738 0.48285 0.0
C1091 C 0.16437 0.44649 0.55804 0.0
C1092 C 0.16108 0.46249 0.58197 0.0
C1093 C 0.13855 0.46704 0.59345 0.0
C1094 C 0.13592 0.48384 0.6147 0.0
C1095 C 0.15579 0.49621 0.62493 0.0
C1096 C 0.17829 0.49136 0.61354 0.0
C1097 C 0.18088 0.47471 0.59229 0.0
C1098 C 0.11365 0.39535 0.51223 0.0
C1099 C 0.133 0.37265 0.58886 0.0
O1100 O 0.14586 0.31651 0.52794 0.0
O1101 O 0.12427 0.33683 0.4993 0.0
O1102 O 0.17777 0.34466 0.55315 0.0
O1103 O 0.17592 0.37707 0.534 0.0
O1104 O 0.16217 0.36628 0.48899 0.0
O1105 O 0.17173 0.40494 0.50108 0.0
O1106 O 0.14584 0.44264 0.54227 0.0
O1107 O 0.17699 0.42724 0.56205 0.0
O1108 O 0.12584 0.41464 0.50928 0.0
O1109 O 0.12223 0.38333 0.53225 0.0
O1110 O 0.1412 0.39366 0.58125 0.0
O1111 O 0.13122 0.3547 0.57102 0.0
H1112 H 0.14986 0.27148 0.51312 0.0
H1113 H 0.15466 0.24038 0.47855 0.0
H1114 H 0.1276 0.28733 0.41511 0.0
H1115 H 0.12236 0.31853 0.45011 0.0
H1116 H 0.12296 0.45783 0.58583 0.0
H1117 H 0.11841 0.48701 0.62328 0.0
H1118 H 0.19391 0.50076 0.62074 0.0
H1119 H 0.19837 0.47166 0.58355 0.0
La1120 La 0.42423 0.62178 0.30979 0.0
La1121 La 0.37166 0.61618 0.29998 0.0
C1122 C 0.46528 0.63326 0.32678 0.0
C1123 C 0.48184 0.6347 0.35069 0.0
C1124 C 0.50623 0.63358 0.34494 0.0
C1125 C 0.52289 0.63275 0.3664 0.0
C1126 C 0.5157 0.63308 0.39436 0.0
C1127 C 0.49125 0.63521 0.40032 0.0
C1128 C 0.47438 0.63589 0.37859 0.0
C1129 C 0.41204 0.58211 0.28308 0.0
C1130 C 0.39331 0.59568 0.35615 0.0
C1131 C 0.32968 0.60218 0.29116 0.0
C1132 C 0.31012 0.6064 0.2713 0.0
C1133 C 0.30845 0.62738 0.25559 0.0
C1134 C 0.29071 0.62981 0.23522 0.0
C1135 C 0.27462 0.61117 0.22999 0.0
C1136 C 0.27616 0.59046 0.24623 0.0
C1137 C 0.29367 0.58814 0.26665 0.0
C1138 C 0.38551 0.65927 0.31683 0.0
C1139 C 0.4029 0.63528 0.25094 0.0
O1140 O 0.45945 0.612 0.31834 0.0
O1141 O 0.44749 0.64823 0.32506 0.0
O1142 O 0.431 0.59453 0.27806 0.0
O1143 O 0.40107 0.5924 0.30235 0.0
O1144 O 0.4145 0.60415 0.349 0.0
O1145 O 0.37434 0.59841 0.34015 0.0
O1146 O 0.33508 0.6192 0.30863 0.0
O1147 O 0.34861 0.59207 0.28068 0.0
O1148 O 0.3688 0.65519 0.2989 0.0
O1149 O 0.39325 0.63945 0.32471 0.0
O1150 O 0.384 0.62276 0.25794 0.0
O1151 O 0.41974 0.64031 0.26946 0.0
H1152 H 0.51244 0.63268 0.32365 0.0
H1153 H 0.54154 0.63117 0.3611 0.0
H1154 H 0.48516 0.63529 0.42166 0.0
H1155 H 0.45562 0.63671 0.38355 0.0
H1156 H 0.32115 0.6416 0.25863 0.0
H1157 H 0.29012 0.64589 0.2229 0.0
H1158 H 0.26393 0.57587 0.24293 0.0
H1159 H 0.2947 0.57178 0.27843 0.0
La1160 La 0.15055 0.66852 0.06569 0.0
La1161 La 0.15814 0.61643 0.05393 0.0
C1162 C 0.13481 0.70641 0.08758 0.0
C1163 C 0.13942 0.72468 0.10943 0.0
C1164 C 0.14777 0.74721 0.1016 0.0
C1165 C 0.15015 0.76544 0.12118 0.0
C1166 C 0.14417 0.76182 0.14931 0.0
C1167 C 0.13557 0.73932 0.15719 0.0
C1168 C 0.13321 0.72098 0.1375 0.0
C1169 C 0.19262 0.65849 1.04277 0.0
C1170 C 0.17827 0.63631 0.11052 0.0
C1171 C 0.17028 0.57643 1.03488 0.0
C1172 C 0.16192 0.55858 1.01476 0.0
C1173 C 0.16973 0.53509 1.01755 0.0
C1174 C 0.16229 0.51764 0.99886 0.0
C1175 C 0.14685 0.5233 0.97684 0.0
C1176 C 0.13876 0.54688 0.97431 0.0
C1177 C 0.14622 0.56438 0.99313 0.0
C1178 C 0.1185 0.62635 0.08093 0.0
C1179 C 0.13679 0.64956 1.00576 0.0
O1180 O 0.14892 0.70589 0.06595 0.0
O1181 O 0.12863 0.68503 0.09543 0.0
O1182 O 0.1821 0.67897 1.0415 0.0
O1183 O 0.18081 0.64613 0.05952 0.0
O1184 O 0.16606 0.65608 0.10552 0.0
O1185 O 0.18028 0.61964 0.09116 0.0
O1186 O 0.15717 0.57925 0.05706 0.0
O1187 O 0.17786 0.59672 1.0249 0.0
O1188 O 0.13068 0.60706 0.08375 0.0
O1189 O 0.12746 0.63856 0.0614 0.0
O1190 O 0.14531 0.62862 1.01324 0.0
O1191 O 0.13512 0.6675 1.0236 0.0
H1192 H 0.15211 0.75095 0.08011 0.0
H1193 H 0.15636 0.7826 0.11408 0.0
H1194 H 0.13091 0.73579 0.17863 0.0
H1195 H 0.12626 0.70399 0.14424 0.0
H1196 H 0.18168 0.53023 1.03426 0.0
H1197 H 0.16856 0.49964 1.00176 0.0
H1198 H 0.12705 0.55193 0.95747 0.0
H1199 H 0.13987 0.58241 0.99068 0.0
La1200 La 0.09916 0.40217 0.81415 0.0
La1201 La 0.15135 0.40538 0.80136 0.0
C1202 C 0.05884 0.39198 0.835 0.0
C1203 C 0.04477 0.3892 0.86124 0.0
C1204 C 0.03745 0.40892 0.87712 0.0
C1205 C 0.02083 0.40632 0.89884 0.0
C1206 C 1.01088 0.38398 0.90514 0.0
C1207 C 0.01907 0.36417 0.89 0.0
C1208 C 0.03568 0.36676 0.8684 0.0
C1209 C 0.11262 0.44243 0.78957 0.0
C1210 C 0.13472 0.42494 0.85864 0.0
C1211 C 0.19179 0.41541 0.78176 0.0
C1212 C 0.20944 0.40702 0.76136 0.0
C1213 C 0.20304 0.39371 0.73786 0.0
C1214 C 0.22047 0.3865 0.71877 0.0
C1215 C 0.24454 0.39251 0.72289 0.0
C1216 C 0.25075 0.40547 0.74679 0.0
C1217 C 0.23339 0.41265 0.76574 0.0
C1218 C 0.13956 0.36755 0.83046 0.0
C1219 C 0.11601 0.38799 0.75335 0.0
O1220 O 0.06532 0.41331 0.82742 0.0
O1221 O 0.07515 0.37621 0.82908 0.0
O1222 O 0.09212 0.4322 0.78634 0.0
O1223 O 0.12377 0.43059 0.80744 0.0
O1224 O 0.11427 0.41368 0.85455 0.0
O1225 O 0.15047 0.42723 0.83844 0.0
O1226 O 0.18845 0.4019 0.80349 0.0
O1227 O 0.17185 0.42423 0.77221 0.0
O1228 O 0.15977 0.37837 0.8317 0.0
O1229 O 0.12728 0.37651 0.81093 0.0
O1230 O 0.13803 0.39232 0.76147 0.0
O1231 O 0.09762 0.38976 0.77064 0.0
H1232 H 0.04383 0.42656 0.87213 0.0
H1233 H 0.01494 0.42205 0.90978 0.0
H1234 H 0.01223 0.3466 0.89442 0.0
H1235 H 0.04072 0.35122 0.85654 0.0
H1236 H 0.18463 0.38908 0.73416 0.0
H1237 H 0.21503 0.37669 0.7005 0.0
H1238 H 0.2691 0.41006 0.75091 0.0
H1239 H 0.2387 0.42274 0.78387 0.0
La1240 La 0.37119 0.35024 0.56154 0.0
La1241 La 0.36552 0.4019 0.5509 0.0
C1242 C 0.38483 0.31105 0.58241 0.0
C1243 C 0.38242 0.29559 0.60732 0.0
C1244 C 0.36075 0.29294 0.62146 0.0
C1245 C 0.35844 0.27615 0.64289 0.0
C1246 C 0.37772 0.26156 0.65074 0.0
C1247 C 0.39968 0.26512 0.63739 0.0
C1248 C 0.40196 0.28188 0.61592 0.0
C1249 C 0.32992 0.36157 0.53822 0.0
C1250 C 0.34587 0.38338 0.60755 0.0
C1251 C 0.35558 0.44296 0.53317 0.0
C1252 C 0.36084 0.45915 0.50981 0.0
C1253 C 0.36632 0.48293 0.51566 0.0
C1254 C 0.37013 0.4992 0.49416 0.0
C1255 C 0.36839 0.49204 0.46627 0.0
C1256 C 0.36343 0.46803 0.46043 0.0
C1257 C 0.35975 0.4517 0.48199 0.0
C1258 C 0.40419 0.39075 0.57911 0.0
C1259 C 0.38389 0.36865 0.50139 0.0
O1260 O 0.36633 0.3134 0.56621 0.0
O1261 O 0.3962 0.33112 0.58536 0.0
O1262 O 0.34166 0.34216 0.53344 0.0
O1263 O 0.34108 0.3732 0.55638 0.0
O1264 O 0.35577 0.36255 0.6016 0.0
O1265 O 0.34516 0.40074 0.58911 0.0
O1266 O 0.37317 0.4384 0.55002 0.0
O1267 O 0.34264 0.42409 0.52814 0.0
O1268 O 0.39162 0.40967 0.58266 0.0
O1269 O 0.39584 0.37915 0.55865 0.0
O1270 O 0.37611 0.38966 0.50947 0.0
O1271 O 0.38555 0.35051 0.51893 0.0
H1272 H 0.34543 0.30339 0.61548 0.0
H1273 H 0.34134 0.27426 0.65298 0.0
H1274 H 0.41486 0.25419 0.6426 0.0
H1275 H 0.41888 0.28358 0.60535 0.0
H1276 H 0.36722 0.48906 0.53697 0.0
H1277 H 0.37365 0.51756 0.49941 0.0
H1278 H 0.36226 0.46189 0.43915 0.0
H1279 H 0.35575 0.4334 0.47689 0.0
H1280 H 0.28329 0.09933 0.20321 0.0
H1281 H 0.25417 0.16988 0.19582 0.0
H1282 H 0.28435 0.17987 0.16108 0.0
H1283 H 0.31807 0.1678 0.13111 0.0
H1284 H 0.34572 0.09669 0.13785 0.0
H1285 H 0.31764 0.08793 0.17519 0.0
C1286 C 0.28373 0.11704 0.19438 0.0
C1287 C 0.26644 0.13381 0.20221 0.0
C1288 C 0.30108 0.12263 0.17445 0.0
C1289 C 0.26705 0.1565 0.18999 0.0
C1290 C 0.28443 0.16229 0.17025 0.0
C1291 C 0.31827 0.15062 0.14129 0.0
C1292 C 0.3341 0.13298 0.13207 0.0
C1293 C 0.30146 0.14544 0.16216 0.0
C1294 C 0.3338 0.11056 0.14482 0.0
C1295 C 0.31765 0.10551 0.16602 0.0
H1296 H 0.10548 0.06809 0.38251 0.0
H1297 H 0.17613 0.09677 0.39065 0.0
H1298 H 0.18506 0.06817 0.42739 0.0
H1299 H 0.17394 0.03317 0.45447 0.0
H1300 H 0.10448 1.002 0.44387 0.0
H1301 H 0.09381 0.03345 0.41115 0.0
C1302 C 0.12257 0.06839 0.39291 0.0
C1303 C 0.14005 0.08465 0.3843 0.0
C1304 C 0.1279 0.05122 0.41327 0.0
C1305 C 0.16238 0.08452 0.39725 0.0
C1306 C 0.16753 0.06808 0.41808 0.0
C1307 C 0.15649 0.03313 0.44491 0.0
C1308 C 0.14016 0.01505 0.45149 0.0
C1309 C 0.15065 0.05097 0.42573 0.0
C1310 C 0.11741 0.01572 0.43937 0.0
C1311 C 0.11131 0.03367 0.42053 0.0
H1312 H 0.24629 0.87636 0.71022 0.0
H1313 H 0.27883 0.93568 0.66797 0.0
H1314 H 0.2487 0.93378 0.63177 0.0
H1315 H 0.21341 0.91582 0.61227 0.0
H1316 H 0.18072 0.85546 0.65228 0.0
H1317 H 0.21052 0.8574 0.68946 0.0
C1318 C 0.24684 0.88871 0.69295 0.0
C1319 C 0.26468 0.90629 0.69194 0.0
C1320 C 0.22933 0.88753 0.67205 0.0
C1321 C 0.2651 0.92226 0.6695 0.0
C1322 C 0.2479 0.92116 0.64876 0.0
C1323 C 0.21253 0.90311 0.62917 0.0
C1324 C 0.19464 0.88562 0.62954 0.0
C1325 C 0.22987 0.90403 0.64996 0.0
C1326 C 0.19415 0.86922 0.65156 0.0
C1327 C 0.21127 0.87026 0.67273 0.0
H1328 H 0.36138 0.96039 0.86055 0.0
H1329 H 0.42143 0.92776 0.90119 0.0
H1330 H 0.41886 0.95735 0.93863 0.0
H1331 H 0.39901 0.99255 0.95969 0.0
H1332 H 0.33997 0.02484 0.91666 0.0
H1333 H 0.34286 0.99523 0.88004 0.0
C1334 C 0.37389 0.95944 0.87764 0.0
C1335 C 0.39141 0.9416 0.87819 0.0
C1336 C 0.37254 0.97658 0.89857 0.0
C1337 C 0.40764 0.94115 0.90036 0.0
C1338 C 0.40621 0.95812 0.92169 0.0
C1339 C 0.38694 0.99317 0.94216 0.0
C1340 C 0.3691 1.01076 0.94109 0.0
C1341 C 0.38872 0.97597 0.92097 0.0
C1342 C 0.35354 0.01128 0.91829 0.0
C1343 C 0.35522 0.99439 0.89728 0.0
H1344 H 0.32026 0.85338 0.45576 0.0
H1345 H 0.3492 0.9242 0.45087 0.0
H1346 H 0.32038 0.93446 0.4149 0.0
H1347 H 0.28519 0.92433 0.38747 0.0
H1348 H 0.25536 0.85389 0.3929 0.0
H1349 H 0.28595 0.84265 0.42646 0.0
C1350 C 0.32059 0.87088 0.44635 0.0
C1351 C 0.33698 0.88796 0.45581 0.0
C1352 C 0.30347 0.87689 0.42623 0.0
C1353 C 0.33683 0.91072 0.44387 0.0
C1354 C 0.32027 0.91664 0.42342 0.0
C1355 C 0.28555 0.90639 0.39562 0.0
C1356 C 0.26792 0.89002 0.38762 0.0
C1357 C 0.30322 0.90003 0.41484 0.0
C1358 C 0.26847 0.86699 0.39893 0.0
C1359 C 0.28609 0.86047 0.41798 0.0
H1360 H 0.35035 0.02968 0.63195 0.0
H1361 H 0.42483 0.01173 0.62967 0.0
H1362 H 0.43314 0.04209 0.66468 0.0
H1363 H 0.41868 0.07175 0.69881 0.0
H1364 H 0.34377 0.08763 0.7023 0.0
H1365 H 0.33626 0.06018 0.66412 0.0
C1366 C 0.36841 0.03229 0.63916 0.0
C1367 C 0.38686 0.01818 0.62829 0.0
C1368 C 0.37301 0.0495 0.65961 0.0
C1369 C 0.41025 0.02234 0.63748 0.0
C1370 C 0.41501 0.03965 0.65765 0.0
C1371 C 0.40081 0.06953 0.69079 0.0
C1372 C 0.38181 0.08177 0.70334 0.0
C1373 C 0.39649 0.05313 0.66919 0.0
C1374 C 0.35869 0.07841 0.69303 0.0
C1375 C 0.35436 0.06264 0.67125 0.0
H1376 H 0.21242 0.10862 0.97933 0.0
H1377 H 0.17769 0.16681 0.93741 0.0
H1378 H 0.20656 0.16386 0.89924 0.0
H1379 H 0.2418 0.14433 0.87792 0.0
H1380 H 0.27625 0.08712 0.92197 0.0
H1381 H 0.24731 0.0903 0.95937 0.0
C1382 C 0.21089 0.12065 0.96182 0.0
C1383 C 0.19268 0.13778 0.96116 0.0
C1384 C 0.22763 0.11909 0.9404 0.0
C1385 C 0.1914 0.15334 0.93837 0.0
C1386 C 0.20796 0.1517 0.91662 0.0
C1387 C 0.24303 0.13272 0.89583 0.0
C1388 C 0.26105 0.11532 0.89699 0.0
C1389 C 0.22622 0.13465 0.91745 0.0
C1390 C 0.26235 0.10034 0.92029 0.0
C1391 C 0.24585 0.10219 0.94174 0.0
H1392 H 0.10558 0.95489 0.20762 0.0
H1393 H 0.1774 0.9288 0.20189 0.0
H1394 H 0.18601 0.95715 0.16479 0.0
H1395 H 0.17425 0.9914 0.13695 0.0
H1396 H 0.10309 0.01924 0.14363 0.0
H1397 H 0.09321 0.98858 0.17784 0.0
C1398 C 0.12289 0.9551 0.1977 0.0
C1399 C 0.14079 0.93965 0.20709 0.0
C1400 C 0.12797 0.97211 0.17706 0.0
C1401 C 0.16335 0.94044 0.19472 0.0
C1402 C 0.16831 0.95674 0.17368 0.0
C1403 C 0.15643 0.99055 0.14548 0.0
C1404 C 0.13944 1.00759 0.13764 0.0
C1405 C 0.15093 0.97298 0.16512 0.0
C1406 C 0.1166 1.0065 0.14948 0.0
C1407 C 0.11089 0.98887 0.16891 0.0
H1408 H 0.74288 0.87287 0.87788 0.0
H1409 H 0.78268 0.92577 0.92312 0.0
H1410 H 0.75358 0.92461 0.96058 0.0
H1411 H 0.71688 0.90924 0.98023 0.0
H1412 H 0.67702 0.85537 0.93674 0.0
H1413 H 0.70591 0.85657 0.89854 0.0
C1414 C 0.74511 0.88418 0.89592 0.0
C1415 C 0.76501 0.89936 0.89768 0.0
C1416 C 0.72821 0.88345 0.9175 0.0
C1417 C 0.76778 0.91369 0.92136 0.0
C1418 C 0.75102 0.91319 0.9427 0.0
C1419 C 0.71427 0.89786 0.96232 0.0
C1420 C 0.69458 0.88245 0.9612 0.0
C1421 C 0.73114 0.89827 0.94091 0.0
C1422 C 0.69189 0.86753 0.93803 0.0
C1423 C 0.70845 0.86817 0.91624 0.0
H1424 H 0.89805 0.9901 0.62665 0.0
H1425 H 0.84521 0.02929 0.67269 0.0
H1426 H 0.8468 1.00008 0.70999 0.0
H1427 H 0.8626 0.96359 0.72925 0.0
H1428 H 0.91699 0.92465 0.68548 0.0
H1429 H 0.91506 0.9534 0.64715 0.0
C1430 C 0.88689 0.99216 0.64486 0.0
C1431 C 0.87155 0.01186 0.64693 0.0
C1432 C 0.88796 0.97527 0.66638 0.0
C1433 C 0.85737 0.01448 0.67075 0.0
C1434 C 0.85812 0.99768 0.69197 0.0
C1435 C 0.87394 0.96114 0.71126 0.0
C1436 C 0.88972 0.94179 0.71007 0.0
C1437 C 0.87322 0.97799 0.68992 0.0
C1438 C 0.90456 0.93929 0.68679 0.0
C1439 C 0.90351 0.95576 0.66496 0.0
H1440 H 0.78061 0.14772 0.37709 0.0
H1441 H 0.74348 0.0918 0.42051 0.0
H1442 H 0.77328 0.09243 0.45717 0.0
H1443 H 0.80946 0.10858 0.47696 0.0
H1444 H 0.84662 0.1656 0.43563 0.0
H1445 H 0.8174 0.16455 0.39778 0.0
C1446 C 0.77913 0.13566 0.39458 0.0
C1447 C 0.75975 0.11981 0.39612 0.0
C1448 C 0.79639 0.13616 0.41577 0.0
C1449 C 0.75796 0.10442 0.41901 0.0
C1450 C 0.77511 0.10463 0.43988 0.0
C1451 C 0.81145 0.12068 0.45959 0.0
C1452 C 0.83043 0.13698 0.45902 0.0
C1453 C 0.79437 0.12036 0.43845 0.0
C1454 C 0.8323 0.15275 0.4365 0.0
C1455 C 0.81554 0.15221 0.41492 0.0
H1456 H 0.6245 0.03066 0.12693 0.0
H1457 H 0.67771 0.99205 0.17309 0.0
H1458 H 0.6762 0.02158 0.20997 0.0
H1459 H 0.66041 0.05821 0.22894 0.0
H1460 H 0.606 0.09688 0.18487 0.0
H1461 H 0.60765 0.06766 0.14705 0.0
C1462 C 0.63578 0.02878 0.14506 0.0
C1463 C 0.65115 1.00907 0.14724 0.0
C1464 C 0.6348 0.04592 0.16637 0.0
C1465 C 0.66547 1.00678 0.171 0.0
C1466 C 0.66477 0.02378 0.19203 0.0
C1467 C 0.64898 0.06051 0.211 0.0
C1468 C 0.63331 0.07996 0.20962 0.0
C1469 C 0.64962 0.04343 0.18986 0.0
C1470 C 0.61838 0.08221 0.18637 0.0
C1471 C 0.61927 0.06545 0.16481 0.0
H1472 H 0.74175 0.14585 0.7124 0.0
H1473 H 0.77834 0.0902 0.66801 0.0
H1474 H 0.7492 0.09246 0.63067 0.0
H1475 H 0.71385 0.11013 0.61048 0.0
H1476 H 0.6773 0.16679 0.65311 0.0
H1477 H 0.70592 0.16415 0.69143 0.0
C1478 C 0.74342 0.13435 0.69445 0.0
C1479 C 0.76217 0.11776 0.69312 0.0
C1480 C 0.72655 0.13579 0.67289 0.0
C1481 C 0.76393 0.10285 0.66981 0.0
C1482 C 0.74731 0.10418 0.64838 0.0
C1483 C 0.71189 0.12184 0.6282 0.0
C1484 C 0.69327 0.13854 0.62895 0.0
C1485 C 0.72854 0.12049 0.64977 0.0
C1486 C 0.69134 0.15368 0.65204 0.0
C1487 C 0.70777 0.15223 0.67389 0.0
H1488 H 0.67394 0.9937 0.45189 0.0
H1489 H 0.60187 0.01945 0.447 0.0
H1490 H 0.59176 0.98735 0.4149 0.0
H1491 H 0.60437 0.95383 0.38498 0.0
H1492 H 0.67725 0.93051 0.38762 0.0
H1493 H 0.68604 0.9596 0.42384 0.0
C1494 C 0.65603 0.99242 0.44373 0.0
C1495 C 0.63879 1.0092 0.45171 0.0
C1496 C 0.65045 0.97418 0.42491 0.0
C1497 C 0.61551 1.00678 0.44139 0.0
C1498 C 0.60972 0.98845 0.42291 0.0
C1499 C 0.62197 0.95477 0.39409 0.0
C1500 C 0.64011 0.9399 0.38399 0.0
C1501 C 0.62713 0.97223 0.4142 0.0
C1502 C 0.66301 0.94166 0.39532 0.0
C1503 C 0.66808 0.95839 0.41586 0.0
H1504 H 0.81953 0.85504 0.13377 0.0
H1505 H 0.84536 0.92694 0.13927 0.0
H1506 H 0.81698 0.93542 0.17639 0.0
H1507 H 0.78292 0.92345 0.20458 0.0
H1508 H 0.75537 0.85219 0.19813 0.0
H1509 H 0.78593 0.84252 0.1637 0.0
C1510 C 0.81926 0.87235 0.14364 0.0
C1511 C 0.83468 0.89029 0.13419 0.0
C1512 C 0.80225 0.87735 0.16432 0.0
C1513 C 0.83376 0.91285 0.14647 0.0
C1514 C 0.81745 0.91774 0.16754 0.0
C1515 C 0.7838 0.90567 0.196 0.0
C1516 C 0.76689 0.88857 0.20402 0.0
C1517 C 0.80131 0.90029 0.17622 0.0
C1518 C 0.768 0.86578 0.19215 0.0
C1519 C 0.78558 0.86018 0.17259 0.0
H1520 H 0.91894 0.06849 0.88243 0.0
H1521 H 0.84923 0.09881 0.89309 0.0
H1522 H 0.84068 0.07063 0.9304 0.0
H1523 H 0.85156 0.03535 0.95691 0.0
H1524 H 0.92051 1.0034 0.94534 0.0
H1525 H 0.93063 0.03382 0.91095 0.0
C1526 C 0.90216 0.06924 0.89348 0.0
C1527 C 0.88481 0.08582 0.88541 0.0
C1528 C 0.89702 0.05235 0.91421 0.0
C1529 C 0.86287 0.08629 0.89924 0.0
C1530 C 0.85792 0.07009 0.92039 0.0
C1531 C 0.86899 0.03524 0.94728 0.0
C1532 C 0.88525 0.01711 0.95378 0.0
C1533 C 0.87464 0.05271 0.92759 0.0
C1534 C 0.90754 0.01698 0.94052 0.0
C1535 C 0.91341 0.03448 0.92101 0.0
H1536 H 0.77728 0.64656 0.7068 0.0
H1537 H 0.7579 0.57717 0.67626 0.0
H1538 H 0.78875 0.5797 0.64079 0.0
H1539 H 0.82054 0.60175 0.61775 0.0
H1540 H 0.8394 0.67178 0.64671 0.0
H1541 H 0.80951 0.6688 0.6835 0.0
C1542 C 0.77968 0.63208 0.69223 0.0
C1543 C 0.76527 0.61166 0.69431 0.0
C1544 C 0.79747 0.63368 0.6717 0.0
C1545 C 0.76888 0.59295 0.67544 0.0
C1546 C 0.78649 0.59441 0.65506 0.0
C1547 C 0.81841 0.61629 0.63229 0.0
C1548 C 0.8324 0.6369 0.62951 0.0
C1549 C 0.8009 0.61465 0.65302 0.0
C1550 C 0.82901 0.65565 0.64839 0.0
C1551 C 0.81182 0.654 0.66937 0.0
H1552 H 0.66445 0.5585 0.86364 0.0
H1553 H 0.60799 0.59694 0.90436 0.0
H1554 H 0.6084 0.56795 0.94254 0.0
H1555 H 0.6247 0.53114 0.96374 0.0
H1556 H 0.67975 0.4926 0.92053 0.0
H1557 H 0.67959 0.52206 0.88349 0.0
C1558 C 0.65231 0.56082 0.88094 0.0
C1559 C 0.63641 0.58011 0.88131 0.0
C1560 C 0.65218 0.54384 0.90215 0.0
C1561 C 0.62055 0.58239 0.9037 0.0
C1562 C 0.62073 0.56576 0.92543 0.0
C1563 C 0.63665 0.52927 0.9462 0.0
C1564 C 0.65218 0.50965 0.94486 0.0
C1565 C 0.63642 0.54633 0.92479 0.0
C1566 C 0.6674 0.50731 0.92189 0.0
C1567 C 0.66748 0.52426 0.90082 0.0
H1568 H 0.71269 0.41004 0.11277 0.0
H1569 H 0.67337 0.35529 0.15556 0.0
H1570 H 0.702 0.35686 0.19408 0.0
H1571 H 0.73839 0.37407 0.21529 0.0
H1572 H 0.77732 0.428 0.17052 0.0
H1573 H 0.74877 0.42603 0.13266 0.0
C1574 C 0.71012 0.3985 0.13056 0.0
C1575 C 0.69065 0.3828 0.13146 0.0
C1576 C 0.72677 0.39917 0.1521 0.0
C1577 C 0.68806 0.36769 0.15448 0.0
C1578 C 0.70446 0.36855 0.17643 0.0
C1579 C 0.74054 0.38541 0.19725 0.0
C1580 C 0.76003 0.40115 0.19576 0.0
C1581 C 0.72391 0.38426 0.17544 0.0
C1582 C 0.76274 0.41551 0.17209 0.0
C1583 C 0.7463 0.41455 0.15051 0.0
H1584 H 0.85183 0.48568 0.46221 0.0
H1585 H 0.92317 0.51315 0.45536 0.0
H1586 H 0.93225 0.48361 0.41968 0.0
H1587 H 0.91874 0.45204 0.38726 0.0
H1588 H 0.84638 0.42724 0.39235 0.0
H1589 H 0.83891 0.45358 0.43163 0.0
C1590 C 0.86936 0.48536 0.45288 0.0
C1591 C 0.88666 0.50191 0.46142 0.0
C1592 C 0.8743 0.4687 0.43191 0.0
C1593 C 0.90947 0.50063 0.44946 0.0
C1594 C 0.91466 0.48379 0.42886 0.0
C1595 C 0.90153 0.45209 0.39742 0.0
C1596 C 0.88315 0.43762 0.38705 0.0
C1597 C 0.89709 0.46796 0.41955 0.0
C1598 C 0.86079 0.43818 0.40002 0.0
C1599 C 0.85648 0.45332 0.42241 0.0
H1600 H 0.77926 0.37148 0.87477 0.0
H1601 H 0.76409 0.44474 0.89389 0.0
H1602 H 0.79293 0.44386 0.93165 0.0
H1603 H 0.82155 0.42215 0.96031 0.0
H1604 H 0.8368 0.34872 0.94196 0.0
H1605 H 0.8091 0.34991 0.90292 0.0
C1606 C 0.78223 0.38721 0.88727 0.0
C1607 C 0.76951 0.40816 0.88136 0.0
C1608 C 0.79898 0.38662 0.90909 0.0
C1609 C 0.7738 0.42846 0.89766 0.0
C1610 C 0.79025 0.42796 0.91937 0.0
C1611 C 0.81909 0.40644 0.94764 0.0
C1612 C 0.83135 0.38537 0.95425 0.0
C1613 C 0.80291 0.40715 0.92534 0.0
C1614 C 0.82769 0.36521 0.9375 0.0
C1615 C 0.81173 0.36583 0.91516 0.0
H1616 H 0.85242 0.56805 0.21172 0.0
H1617 H 0.92302 0.5902 0.18811 0.0
H1618 H 0.92168 0.56341 0.14798 0.0
H1619 H 0.90053 0.5327 0.1201 0.0
H1620 H 0.82998 0.51134 0.14487 0.0
H1621 H 0.83136 0.53865 0.18403 0.0
C1622 C 0.86755 0.5672 0.19778 0.0
C1623 C 0.88781 0.58119 0.20306 0.0
C1624 C 0.86671 0.55171 0.17494 0.0
C1625 C 0.90713 0.57976 0.18458 0.0
C1626 C 0.90642 0.56433 0.16167 0.0
C1627 C 0.88552 0.53403 0.13415 0.0
C1628 C 0.86511 0.52004 0.1294 0.0
C1629 C 0.88636 0.55002 0.15676 0.0
C1630 C 0.84575 0.52209 0.14773 0.0
C1631 C 0.84655 0.53767 0.17023 0.0
H1632 H 0.73733 0.59882 0.37975 0.0
H1633 H 0.77132 0.66687 0.39044 0.0
H1634 H 0.74172 0.67778 0.42544 0.0
H1635 H 0.70726 0.66697 0.45502 0.0
H1636 H 0.67491 0.59814 0.44515 0.0
H1637 H 0.70213 0.58892 0.4071 0.0
C1638 C 0.73807 0.61623 0.3893 0.0
C1639 C 0.7566 0.63196 0.38238 0.0
C1640 C 0.72104 0.62236 0.4094 0.0
C1641 C 0.75747 0.65425 0.39556 0.0
C1642 C 0.74043 0.66059 0.41546 0.0
C1643 C 0.70584 0.65025 0.44396 0.0
C1644 C 0.68894 0.63335 0.45249 0.0
C1645 C 0.72223 0.6447 0.42276 0.0
C1646 C 0.68765 0.61147 0.43865 0.0
C1647 C 0.70332 0.60613 0.41707 0.0
H1648 H 0.6672 0.45802 0.72328 0.0
H1649 H 0.60476 0.42743 0.68556 0.0
H1650 H 0.60713 0.45648 0.64772 0.0
H1651 H 0.62639 0.49147 0.62623 0.0
H1652 H 0.68763 0.52276 0.66584 0.0
H1653 H 0.68604 0.49273 0.70235 0.0
C1654 C 0.65429 0.45741 0.70657 0.0
C1655 C 0.63603 0.44032 0.70703 0.0
C1656 C 0.65534 0.47455 0.68546 0.0
C1657 C 0.61912 0.44025 0.68556 0.0
C1658 C 0.62041 0.45693 0.66401 0.0
C1659 C 0.63942 0.49162 0.64281 0.0
C1660 C 0.65708 0.50938 0.64333 0.0
C1661 C 0.63833 0.47431 0.66388 0.0
C1662 C 0.67368 0.50951 0.66513 0.0
C1663 C 0.6729 0.49223 0.6859 0.0
H1664 H 0.20253 0.35616 0.45965 0.0
H1665 H 0.17321 0.4264 0.45039 0.0
H1666 H 0.20125 0.43491 0.41291 0.0
H1667 H 0.23597 0.42364 0.38546 0.0
H1668 H 0.26682 0.35408 0.39553 0.0
H1669 H 0.23672 0.34422 0.43042 0.0
C1670 C 0.20197 0.37308 0.4489 0.0
C1671 C 0.18568 0.39056 0.45741 0.0
C1672 C 0.21875 0.37815 0.42799 0.0
C1673 C 0.18551 0.41266 0.44395 0.0
C1674 C 0.20162 0.41758 0.42267 0.0
C1675 C 0.23591 0.40615 0.39489 0.0
C1676 C 0.25364 0.38963 0.38778 0.0
C1677 C 0.21862 0.40064 0.41491 0.0
C1678 C 0.25356 0.36725 0.40079 0.0
C1679 C 0.23624 0.36153 0.42061 0.0
H1680 H 0.35405 0.46314 0.22518 0.0
H1681 H 0.41108 0.42551 0.18449 0.0
H1682 H 0.40978 0.45388 0.1459 0.0
H1683 H 0.39297 0.49002 0.12435 0.0
H1684 H 0.33658 0.52766 0.16624 0.0
H1685 H 0.33746 0.49881 0.20402 0.0
C1686 C 0.36609 0.4609 0.20778 0.0
C1687 C 0.38252 0.44203 0.20767 0.0
C1688 C 0.36556 0.47749 0.18604 0.0
C1689 C 0.39817 0.43976 0.18506 0.0
C1690 C 0.39748 0.45603 0.16304 0.0
C1691 C 0.38078 0.49181 0.14167 0.0
C1692 C 0.36475 0.51106 0.14243 0.0
C1693 C 0.38134 0.47507 0.1634 0.0
C1694 C 0.34932 0.51328 0.16526 0.0
C1695 C 0.34967 0.49666 0.18678 0.0
H1696 H 0.27934 0.65271 0.87639 0.0
H1697 H 0.24041 0.59892 0.92136 0.0
H1698 H 0.27044 0.59899 0.95771 0.0
H1699 H 0.30767 0.61341 0.97629 0.0
H1700 H 0.34688 0.66828 0.93361 0.0
H1701 H 0.31693 0.66843 0.89642 0.0
C1702 C 0.2775 0.64102 0.89416 0.0
C1703 C 0.25759 0.62587 0.89618 0.0
C1704 C 0.29495 0.64113 0.91515 0.0
C1705 C 0.25531 0.61099 0.91947 0.0
C1706 C 0.2726 0.61086 0.94016 0.0
C1707 C 0.30994 0.62532 0.95877 0.0
C1708 C 0.32975 0.64055 0.9575 0.0
C1709 C 0.29251 0.62569 0.93809 0.0
C1710 C 0.33194 0.65621 0.93492 0.0
C1711 C 0.31478 0.65633 0.91375 0.0
H1712 H 0.16282 0.56472 0.72768 0.0
H1713 H 0.10011 0.59517 0.69034 0.0
H1714 H 0.10244 0.56597 0.65255 0.0
H1715 H 0.12228 0.53123 0.63068 0.0
H1716 H 0.18399 0.50084 0.67035 0.0
H1717 H 0.18185 0.53058 0.70692 0.0
C1718 C 0.14967 0.56525 0.71123 0.0
C1719 C 0.13139 0.5823 0.7118 0.0
C1720 C 0.15085 0.54824 0.69011 0.0
C1721 C 0.11447 0.58237 0.69033 0.0
C1722 C 0.11574 0.56559 0.66882 0.0
C1723 C 0.13512 0.53106 0.64747 0.0
C1724 C 0.1534 0.51392 0.64764 0.0
C1725 C 0.13377 0.5483 0.66862 0.0
C1726 C 0.17 0.51402 0.66944 0.0
C1727 C 0.16876 0.53099 0.69042 0.0
H1728 H 0.20668 0.59958 0.12624 0.0
H1729 H 0.18478 0.66979 0.15137 0.0
H1730 H 0.21272 0.66849 0.19025 0.0
H1731 H 0.24437 0.64768 0.21662 0.0
H1732 H 0.26566 0.57747 0.19098 0.0
H1733 H 0.23713 0.5786 0.1529 0.0
C1734 C 0.20783 0.61459 0.14028 0.0
C1735 C 0.19358 0.63477 0.13571 0.0
C1736 C 0.22402 0.61379 0.16253 0.0
C1737 C 0.19543 0.65397 0.1543 0.0
C1738 C 0.21152 0.65329 0.17652 0.0
C1739 C 0.24278 0.63269 0.20262 0.0
C1740 C 0.25713 0.61249 0.20675 0.0
C1741 C 0.22611 0.63338 0.18071 0.0
C1742 C 0.25468 0.59312 0.18853 0.0
C1743 C 0.2384 0.59378 0.16666 0.0
H1744 H 0.10358 0.45328 0.88659 0.0
H1745 H 0.17596 0.42832 0.88676 0.0
H1746 H 0.18586 0.45588 0.92418 0.0
H1747 H 0.17489 0.48917 0.95404 0.0
H1748 H 0.10303 0.51577 0.95313 0.0
H1749 H 0.09209 0.48591 0.91847 0.0
C1750 C 0.12132 0.45353 0.89539 0.0
C1751 C 0.13898 0.4386 0.8843 0.0
C1752 C 0.12711 0.47009 0.91629 0.0
C1753 C 0.16208 0.43952 0.89521 0.0
C1754 C 0.16778 0.45538 0.91645 0.0
C1755 C 0.15672 0.48823 0.94666 0.0
C1756 C 0.13984 0.50474 0.95628 0.0
C1757 C 0.15058 0.47109 0.92674 0.0
C1758 C 0.11649 0.5035 0.9459 0.0
C1759 C 0.11016 0.48631 0.9262 0.0
H1760 H 0.31456 0.35218 0.63071 0.0
H1761 H 0.34412 0.42233 0.63996 0.0
H1762 H 0.31589 0.43103 0.67715 0.0
H1763 H 0.28098 0.41996 0.70439 0.0
H1764 H 0.24981 0.35052 0.69441 0.0
H1765 H 0.28007 0.34044 0.65979 0.0
C1766 C 0.31513 0.36911 0.64142 0.0
C1767 C 0.33158 0.3865 0.633 0.0
C1768 C 0.29821 0.37431 0.66217 0.0
C1769 C 0.33174 0.40864 0.64637 0.0
C1770 C 0.3155 0.41367 0.66747 0.0
C1771 C 0.28098 0.40246 0.69501 0.0
C1772 C 0.26313 0.38602 0.70211 0.0
C1773 C 0.29836 0.39683 0.67514 0.0
C1774 C 0.26316 0.36363 0.68916 0.0
C1775 C 0.28058 0.35779 0.66949 0.0
H1776 H 0.40086 0.52803 0.46093 0.0
H1777 H 0.34027 0.49621 0.4205 0.0
H1778 H 0.34217 0.52603 0.38384 0.0
H1779 H 0.36069 0.56104 0.36332 0.0
H1780 H 0.42218 0.5926 0.40205 0.0
H1781 H 0.42 0.56324 0.43965 0.0
C1782 C 0.38802 0.52771 0.44415 0.0
C1783 C 0.37045 0.50984 0.44349 0.0
C1784 C 0.38921 0.545 0.42303 0.0
C1785 C 0.35416 0.50951 0.42137 0.0
C1786 C 0.3551 0.52669 0.4005 0.0
C1787 C 0.37346 0.56178 0.38017 0.0
C1788 C 0.39135 0.57927 0.38013 0.0
C1789 C 0.37245 0.54455 0.40119 0.0
C1790 C 0.40811 0.57947 0.40175 0.0
C1791 C 0.4069 0.56263 0.42317 0.0
H1792 H 0.11304 0.24771 0.39949 0.0
H1793 H 0.17953 0.23132 0.44002 0.0
H1794 H 0.18579 0.19831 0.40846 0.0
H1795 H 0.17255 0.17338 0.37037 0.0
H1796 H 0.1074 0.18925 0.32722 0.0
H1797 H 0.1005 0.22307 0.35863 0.0
C1798 C 0.129 0.23705 0.40125 0.0
C1799 C 0.14558 0.24197 0.42266 0.0
C1800 C 0.13269 0.21787 0.38263 0.0
C1801 C 0.16612 0.2278 0.42442 0.0
C1802 C 0.16984 0.20891 0.4062 0.0
C1803 C 0.1568 0.18422 0.36764 0.0
C1804 C 0.14033 0.17847 0.34664 0.0
C1805 C 0.15319 0.20365 0.38546 0.0
C1806 C 0.12016 0.19293 0.34347 0.0
C1807 C 0.11631 0.21237 0.36139 0.0
H1808 H 0.10298 0.9215 0.61892 0.0
H1809 H 0.08511 0.85777 0.57408 0.0
H1810 H 0.05077 0.85151 0.60489 0.0
H1811 H 0.0258 0.86448 0.6452 0.0
H1812 H 0.04414 0.92938 0.68783 0.0
H1813 H 0.07793 0.935 0.65703 0.0
C1814 C 0.09158 0.90621 0.61573 0.0
C1815 C 0.09695 0.88989 0.59445 0.0
C1816 C 0.07174 0.90305 0.63312 0.0
C1817 C 0.08177 0.87034 0.59062 0.0
C1818 C 0.06202 0.86687 0.60817 0.0
C1819 C 0.03719 0.87984 0.64771 0.0
C1820 C 0.03214 0.89658 0.66886 0.0
C1821 C 0.05685 0.88309 0.62965 0.0
C1822 C 0.04715 0.91643 0.67158 0.0
C1823 C 0.06667 0.91959 0.65405 0.0
H1824 H 0.35516 0.85143 0.8717 0.0
H1825 H 0.41648 0.83158 0.82337 0.0
H1826 H 0.42284 0.79708 0.8538 0.0
H1827 H 0.41069 0.77252 0.8946 0.0
H1828 H 0.34853 0.79302 0.94142 0.0
H1829 H 0.34262 0.82693 0.91089 0.0
C1830 C 0.36994 0.83956 0.8677 0.0
C1831 C 0.3855 0.84432 0.84543 0.0
C1832 C 0.37322 0.81968 0.88499 0.0
C1833 C 0.40443 0.82859 0.84056 0.0
C1834 C 0.40799 0.80879 0.85793 0.0
C1835 C 0.39588 0.78442 0.89814 0.0
C1836 C 0.37999 0.77993 0.92036 0.0
C1837 C 0.39251 0.80417 0.88032 0.0
C1838 C 0.36081 0.79558 0.92435 0.0
C1839 C 0.35749 0.81518 0.90697 0.0
H1840 H 0.42432 0.10081 0.11568 0.0
H1841 H 0.43654 0.16774 0.07466 0.0
H1842 H 0.47075 0.17519 0.10538 0.0
H1843 H 0.49703 0.16237 0.14464 0.0
H1844 H 0.48383 0.09458 0.18371 0.0
H1845 H 0.45048 0.08769 0.15272 0.0
C1846 C 0.43443 0.11708 0.11327 0.0
C1847 C 0.4276 0.13384 0.09304 0.0
C1848 C 0.4541 0.12099 0.13065 0.0
C1849 C 0.44114 0.15467 0.09025 0.0
C1850 C 0.46077 0.15886 0.1078 0.0
C1851 C 0.48685 0.1461 0.14635 0.0
C1852 C 0.49326 0.12893 0.16655 0.0
C1853 C 0.46738 0.14215 0.12823 0.0
C1854 C 0.47982 0.10791 0.1682 0.0
C1855 C 0.46053 0.10401 0.15057 0.0
H1856 H 0.17366 0.85104 0.22111 0.0
H1857 H 0.1087 0.83474 0.26455 0.0
H1858 H 0.10226 0.80046 0.23368 0.0
H1859 H 0.11524 0.77546 0.19331 0.0
H1860 H 0.18146 0.79242 0.15239 0.0
H1861 H 0.18723 0.82593 0.18338 0.0
C1862 C 0.15805 0.84001 0.22401 0.0
C1863 C 0.14151 0.84573 0.24495 0.0
C1864 C 0.15471 0.82035 0.20651 0.0
C1865 C 0.12151 0.83106 0.24834 0.0
C1866 C 0.11793 0.81136 0.23074 0.0
C1867 C 0.13103 0.78636 0.19135 0.0
C1868 C 0.14771 0.78145 0.17004 0.0
C1869 C 0.13441 0.80585 0.2096 0.0
C1870 C 0.16801 0.79593 0.16796 0.0
C1871 C 0.17144 0.8151 0.18584 0.0
H1872 H 0.5108 0.89718 0.45732 0.0
H1873 H 0.47355 0.85372 0.39772 0.0
H1874 H 0.44038 0.84935 0.42988 0.0
H1875 H 0.42059 0.85958 0.47398 0.0
H1876 H 0.45725 0.90342 0.53356 0.0
H1877 H 0.49172 0.90578 0.50264 0.0
C1878 C 0.49544 0.88676 0.45133 0.0
C1879 C 0.49492 0.87579 0.42494 0.0
C1880 C 0.47615 0.88435 0.47003 0.0
C1881 C 0.47482 0.86212 0.41789 0.0
C1882 C 0.45566 0.85971 0.43627 0.0
C1883 C 0.43624 0.86941 0.48037 0.0
C1884 C 0.43621 0.88138 0.50611 0.0
C1885 C 0.45599 0.87091 0.4623 0.0
C1886 C 0.4567 0.89403 0.51394 0.0
C1887 C 0.47643 0.89549 0.49616 0.0
H1888 H 0.40776 0.24557 0.69253 0.0
H1889 H 0.34 0.23147 0.65379 0.0
H1890 H 0.33393 0.19766 0.68433 0.0
H1891 H 0.34779 0.17132 0.72091 0.0
H1892 H 0.41477 0.18441 0.76147 0.0
H1893 H 0.42134 0.21909 0.73122 0.0
C1894 C 0.39168 0.2351 0.69079 0.0
C1895 C 0.37427 0.2414 0.67082 0.0
C1896 C 0.38822 0.21534 0.70862 0.0
C1897 C 0.3535 0.22755 0.66913 0.0
C1898 C 0.35008 0.20799 0.6865 0.0
C1899 C 0.36387 0.18174 0.72331 0.0
C1900 C 0.3809 0.17502 0.74329 0.0
C1901 C 0.3673 0.20167 0.70619 0.0
C1902 C 0.4015 0.18893 0.74608 0.0
C1903 C 0.40519 0.20883 0.7288 0.0
H1904 H 0.10175 0.10161 0.97093 0.0
H1905 H 0.08254 0.16416 1.01727 0.0
H1906 H 0.04807 0.17017 0.98664 0.0
H1907 H 0.0234 0.15736 0.94617 0.0
H1908 H 0.04343 0.09404 0.90136 0.0
H1909 H 0.07717 0.08844 0.9322 0.0
C1910 C 0.09003 0.11659 0.97448 0.0
C1911 C 0.09499 0.13261 0.9962 0.0
C1912 C 0.07018 0.11967 0.95709 0.0
C1913 C 0.07944 0.15178 1.00046 0.0
C1914 C 0.05964 0.15512 0.98299 0.0
C1915 C 0.03516 0.14236 0.94313 0.0
C1916 C 0.03057 0.12605 0.92137 0.0
C1917 C 0.05486 0.1392 0.9611 0.0
C1918 C 0.04604 0.10664 0.91806 0.0
C1919 C 0.06555 0.10351 0.93561 0.0
H1920 H 0.85528 0.85 0.72046 0.0
H1921 H 0.92099 0.83463 0.76269 0.0
H1922 H 0.92734 0.80027 0.73194 0.0
H1923 H 0.91379 0.77453 0.69226 0.0
H1924 H 0.84643 0.78997 0.65344 0.0
H1925 H 0.84108 0.82408 0.68376 0.0
C1926 C 0.87105 0.83918 0.72313 0.0
C1927 C 0.88787 0.8453 0.74362 0.0
C1928 C 0.87419 0.81926 0.70593 0.0
C1929 C 0.90799 0.83075 0.74678 0.0
C1930 C 0.91152 0.81099 0.72924 0.0
C1931 C 0.89795 0.78537 0.69056 0.0
C1932 C 0.88044 0.77949 0.67056 0.0
C1933 C 0.89475 0.80508 0.70857 0.0
C1934 C 0.86001 0.79375 0.66877 0.0
C1935 C 0.85698 0.8134 0.68604 0.0
H1936 H 0.99992 0.15806 0.44698 0.0
H1937 H 0.98243 0.09381 0.40251 0.0
H1938 H 0.94808 0.08772 0.4323 0.0
H1939 H 0.9223 0.10068 0.46994 0.0
H1940 H 0.93894 0.16403 0.51618 0.0
H1941 H 0.97404 0.1706 0.48659 0.0
C1942 C 0.98859 0.14274 0.44383 0.0
C1943 C 0.99405 0.12632 0.42248 0.0
C1944 C 0.96856 0.13927 0.46122 0.0
C1945 C 0.97912 0.10651 0.41895 0.0
C1946 C 0.95927 0.10309 0.43588 0.0
C1947 C 0.93359 0.11596 0.4737 0.0
C1948 C 0.92776 0.13202 0.49507 0.0
C1949 C 0.95377 0.11935 0.45696 0.0
C1950 C 0.94277 0.15158 0.49965 0.0
C1951 C 0.9629 0.15526 0.48277 0.0
H1952 H 0.61236 0.24911 0.19492 0.0
H1953 H 0.67464 0.22917 0.14799 0.0
H1954 H 0.68082 0.19524 0.17839 0.0
H1955 H 0.66846 0.17055 0.21741 0.0
H1956 H 0.60708 0.18982 0.26597 0.0
H1957 H 0.60043 0.22438 0.23568 0.0
C1958 C 0.62726 0.23732 0.19135 0.0
C1959 C 0.64311 0.24195 0.16913 0.0
C1960 C 0.63078 0.21757 0.20909 0.0
C1961 C 0.6624 0.22647 0.16507 0.0
C1962 C 0.66587 0.20687 0.18237 0.0
C1963 C 0.6536 0.1823 0.2215 0.0
C1964 C 0.63808 0.17737 0.24375 0.0
C1965 C 0.65018 0.2022 0.20433 0.0
C1966 C 0.61906 0.19294 0.24875 0.0
C1967 C 0.61535 0.21278 0.23148 0.0
H1968 H 0.52551 0.86162 0.94487 0.0
H1969 H 0.54607 0.92374 0.89803 0.0
H1970 H 0.57987 0.92978 0.92867 0.0
H1971 H 0.60426 0.91742 0.9679 0.0
H1972 H 0.58454 0.85613 1.01632 0.0
H1973 H 0.55008 0.84958 0.9858 0.0
C1974 C 0.5374 0.87646 0.94135 0.0
C1975 C 0.53293 0.89231 0.91909 0.0
C1976 C 0.55712 0.87989 0.95924 0.0
C1977 C 0.54859 0.9115 0.91513 0.0
C1978 C 0.56813 0.91489 0.93257 0.0
C1979 C 0.59244 0.9026 0.97192 0.0
C1980 C 0.59722 0.88712 0.99425 0.0
C1981 C 0.57261 0.89921 0.95459 0.0
C1982 C 0.58154 0.86813 0.9991 0.0
C1983 C 0.56176 0.86447 0.98167 0.0
H1984 H 0.91279 0.24962 0.8971 0.0
H1985 H 0.84496 0.23602 0.93586 0.0
H1986 H 0.83892 0.20177 0.90596 0.0
H1987 H 0.85258 0.17526 0.86971 0.0
H1988 H 0.91876 0.18863 0.82741 0.0
H1989 H 0.92584 0.22318 0.85771 0.0
C1990 C 0.8967 0.23915 0.89887 0.0
C1991 C 0.87926 0.24558 0.91872 0.0
C1992 C 0.89309 0.21935 0.88107 0.0
C1993 C 0.8585 0.23179 0.92064 0.0
C1994 C 0.85506 0.21208 0.9036 0.0
C1995 C 0.86862 0.18568 0.8669 0.0
C1996 C 0.88534 0.17895 0.84656 0.0
C1997 C 0.87219 0.20567 0.88384 0.0
C1998 C 0.9058 0.193 0.84322 0.0
C1999 C 0.90977 0.21287 0.8605 0.0
H2000 H 0.52652 0.16017 0.64884 0.0
H2001 H 0.54271 0.09198 0.68532 0.0
H2002 H 0.57652 0.08763 0.65439 0.0
H2003 H 0.60215 0.10298 0.61789 0.0
H2004 H 0.58623 0.16987 0.57865 0.0
H2005 H 0.55177 0.17489 0.60959 0.0
C2006 C 0.53729 0.14426 0.64984 0.0
C2007 C 0.53207 0.12661 0.66996 0.0
C2008 C 0.5569 0.14167 0.63157 0.0
C2009 C 0.54644 0.10617 0.67077 0.0
C2010 C 0.56578 0.10355 0.65289 0.0
C2011 C 0.59116 0.11871 0.61593 0.0
C2012 C 0.59707 0.1362 0.59614 0.0
C2013 C 0.57132 0.12123 0.63343 0.0
C2014 C 0.58242 0.15631 0.59394 0.0
C2015 C 0.56261 0.15909 0.61158 0.0
H2016 H 0.67086 0.85111 0.37146 0.0
H2017 H 0.60491 0.83663 0.32926 0.0
H2018 H 0.59864 0.80168 0.35911 0.0
H2019 H 0.61248 0.77502 0.39747 0.0
H2020 H 0.67928 0.79048 0.43781 0.0
H2021 H 0.68479 0.82488 0.40804 0.0
C2022 C 0.65505 0.84034 0.36862 0.0
C2023 C 0.63824 0.84672 0.34826 0.0
C2024 C 0.65186 0.82021 0.38545 0.0
C2025 C 0.61796 0.83242 0.34499 0.0
C2026 C 0.61448 0.81233 0.362 0.0
C2027 C 0.62823 0.78594 0.39975 0.0
C2028 C 0.64556 0.77983 0.41988 0.0
C2029 C 0.63135 0.80603 0.38238 0.0
C2030 C 0.66587 0.79425 0.42229 0.0
C2031 C 0.66897 0.81414 0.40538 0.0
H2032 H 0.92525 0.92312 0.11819 0.0
H2033 H 0.93903 0.85712 0.07593 0.0
H2034 H 0.97367 0.85027 0.10616 0.0
H2035 H 1.0 0.86341 0.14519 0.0
H2036 H 0.98515 0.93021 0.18568 0.0
H2037 H 0.95132 0.93649 0.15525 0.0
C2038 C 0.93581 0.90719 0.11542 0.0
C2039 C 0.9293 0.89051 0.09497 0.0
C2040 C 0.95571 0.90362 0.13252 0.0
C2041 C 0.94336 0.87009 0.09173 0.0
C2042 C 0.96325 0.86626 0.10897 0.0
C2043 C 0.98935 0.87933 0.14734 0.0
C2044 C 0.99546 0.89642 0.16775 0.0
C2045 C 0.96957 0.8829 0.12958 0.0
C2046 C 0.98139 0.91697 0.16998 0.0
C2047 C 0.96182 0.92051 0.15267 0.0
H2048 H 0.67243 0.6693 0.87242 0.0
H2049 H 0.61144 0.68853 0.82324 0.0
H2050 H 0.60465 0.72319 0.85336 0.0
H2051 H 0.61635 0.74805 0.89427 0.0
H2052 H 0.67832 0.72798 0.94165 0.0
H2053 H 0.68454 0.69399 0.91144 0.0
C2054 C 0.65761 0.68105 0.86813 0.0
C2055 C 0.64229 0.67606 0.84571 0.0
C2056 C 0.6541 0.701 0.88522 0.0
C2057 C 0.62333 0.69168 0.84052 0.0
C2058 C 0.61952 0.71157 0.85773 0.0
C2059 C 0.63121 0.73623 0.89797 0.0
C2060 C 0.64696 0.74091 0.92029 0.0
C2061 C 0.63478 0.71641 0.88028 0.0
C2062 C 0.66616 0.72532 0.92451 0.0
C2063 C 0.66965 0.70567 0.9073 0.0
H2064 H 0.60042 0.41954 0.12315 0.0
H2065 H 0.58113 0.35861 0.07396 0.0
H2066 H 0.54577 0.35251 0.10323 0.0
H2067 H 0.52034 0.36479 0.14326 0.0
H2068 H 0.54065 0.42637 0.19116 0.0
H2069 H 0.57525 0.43209 0.16165 0.0
C2070 C 0.5885 0.40489 0.1187 0.0
C2071 C 0.59361 0.3894 0.0965 0.0
C2072 C 0.5682 0.40174 0.13534 0.0
C2073 C 0.57782 0.37063 0.09107 0.0
C2074 C 0.55755 0.36722 0.10778 0.0
C2075 C 0.53236 0.37944 0.14727 0.0
C2076 C 0.52757 0.39524 0.16947 0.0
C2077 C 0.55256 0.38266 0.13009 0.0
C2078 C 0.5434 0.41419 0.17406 0.0
C2079 C 0.5634 0.41738 0.15728 0.0
H2080 H 0.85056 0.35106 0.37442 0.0
H2081 H 0.91209 0.33369 0.32513 0.0
H2082 H 0.91944 0.29876 0.35469 0.0
H2083 H 0.90798 0.27316 0.39503 0.0
H2084 H 0.84552 0.2915 0.44258 0.0
H2085 H 0.83875 0.32574 0.41289 0.0
C2086 C 0.86561 0.33966 0.36997 0.0
C2087 C 0.88093 0.34522 0.34773 0.0
C2088 C 0.86943 0.3196 0.3867 0.0
C2089 C 0.90022 0.33008 0.34233 0.0
C2090 C 0.90433 0.31004 0.35919 0.0
C2091 C 0.8929 0.28467 0.39888 0.0
C2092 C 0.87717 0.27947 0.42106 0.0
C2093 C 0.88905 0.30463 0.38155 0.0
C2094 C 0.85767 0.29461 0.42551 0.0
C2095 C 0.85387 0.31439 0.40862 0.0
H2096 H 0.91829 0.66043 0.61518 0.0
H2097 H 0.95614 0.61371 0.55977 0.0
H2098 H 0.98963 0.61233 0.59219 0.0
H2099 H 1.00755 0.62288 0.63757 0.0
H2100 H 0.96899 0.66908 0.6931 0.0
H2101 H 0.93683 0.67227 0.65946 0.0
C2102 C 0.93398 0.65016 0.61002 0.0
C2103 C 0.93459 0.63715 0.58499 0.0
C2104 C 0.95315 0.64923 0.62897 0.0
C2105 C 0.95512 0.62392 0.5788 0.0
C2106 C 0.97428 0.62303 0.59744 0.0
C2107 C 0.99212 0.63363 0.64238 0.0
C2108 C 0.99098 0.64576 0.66806 0.0
C2109 C 0.97338 0.63532 0.62284 0.0
C2110 C 0.97078 0.6598 0.67351 0.0
C2111 C 0.95218 0.66154 0.65428 0.0
H2112 H 0.61322 0.35448 0.7255 0.0
H2113 H 0.66204 0.31956 0.78107 0.0
H2114 H 0.66366 0.28519 0.74996 0.0
H2115 H 0.65264 0.26566 0.70558 0.0
H2116 H 0.60406 0.30124 0.65011 0.0
H2117 H 0.60081 0.3343 0.68248 0.0
C2118 C 0.62399 0.33923 0.73102 0.0
C2119 C 0.63752 0.33971 0.75568 0.0
C2120 C 0.62499 0.31954 0.71285 0.0
C2121 C 0.65142 0.31975 0.76231 0.0
C2122 C 0.65243 0.30008 0.74441 0.0
C2123 C 0.64134 0.28063 0.70054 0.0
C2124 C 0.62857 0.28067 0.67524 0.0
C2125 C 0.63959 0.29989 0.71936 0.0
C2126 C 0.61385 0.3003 0.66944 0.0
C2127 C 0.61208 0.31941 0.68793 0.0
H2128 H 0.91672 0.36511 0.97532 0.0
H2129 H 0.95016 0.41508 1.03072 0.0
H2130 H 0.98482 0.41714 1.00001 0.0
H2131 H 1.00509 0.4061 0.95606 0.0
H2132 H 0.97103 0.35634 0.90074 0.0
H2133 H 0.93762 0.35277 0.93267 0.0
C2134 C 0.93171 0.37624 0.98088 0.0
C2135 C 0.93071 0.38995 1.0054 0.0
C2136 C 0.95159 0.37749 0.96295 0.0
C2137 C 0.95036 0.40431 1.01209 0.0
C2138 C 0.9702 0.40558 0.99441 0.0
C2139 C 0.99037 0.39448 0.95094 0.0
C2140 C 0.99088 0.38147 0.92582 0.0
C2141 C 0.97091 0.39252 0.96953 0.0
C2142 C 0.97157 0.36633 0.91994 0.0
C2143 C 0.95225 0.36437 0.93819 0.0
H2144 H 0.90667 0.74939 0.19684 0.0
H2145 H 0.84407 0.73098 0.14962 0.0
H2146 H 0.83761 0.69653 0.17911 0.0
H2147 H 0.84989 0.67084 0.21723 0.0
H2148 H 0.91187 0.68821 0.26568 0.0
H2149 H 0.91858 0.72357 0.23665 0.0
C2150 C 0.89163 0.73783 0.19299 0.0
C2151 C 0.87579 0.74308 0.17096 0.0
C2152 C 0.88799 0.71771 0.21014 0.0
C2153 C 0.85632 0.72786 0.16658 0.0
C2154 C 0.85269 0.70794 0.18335 0.0
C2155 C 0.86489 0.68236 0.22159 0.0
C2156 C 0.88052 0.67668 0.24346 0.0
C2157 C 0.86841 0.70264 0.20506 0.0
C2158 C 0.89973 0.69195 0.2488 0.0
C2159 C 0.9035 0.71222 0.23222 0.0
H2160 H 0.6025 0.6006 0.46751 0.0
H2161 H 0.58591 0.66409 0.51348 0.0
H2162 H 0.55168 0.67136 0.48271 0.0
H2163 H 0.52713 0.65984 0.44103 0.0
H2164 H 0.54523 0.59568 0.39693 0.0
H2165 H 0.57785 0.58831 0.42892 0.0
C2166 C 0.59141 0.61606 0.47103 0.0
C2167 C 0.59708 0.63198 0.49258 0.0
C2168 C 0.57185 0.61991 0.45352 0.0
C2169 C 0.58228 0.65175 0.49678 0.0
C2170 C 0.56261 0.65582 0.47923 0.0
C2171 C 0.5381 0.64415 0.43873 0.0
C2172 C 0.53382 0.62839 0.4164 0.0
C2173 C 0.55728 0.64007 0.45729 0.0
C2174 C 0.54825 0.60818 0.41367 0.0
C2175 C 0.56694 0.60395 0.43197 0.0
H2176 H 0.40626 0.27616 0.19062 0.0
H2177 H 0.34015 0.2931 0.14956 0.0
H2178 H 0.3339 0.32605 0.18121 0.0
H2179 H 0.34701 0.35078 0.21963 0.0
H2180 H 0.41179 0.33434 0.26323 0.0
H2181 H 0.41869 0.30059 0.23169 0.0
C2182 C 0.39038 0.28692 0.18876 0.0
C2183 C 0.37391 0.28216 0.16717 0.0
C2184 C 0.38669 0.30609 0.20743 0.0
C2185 C 0.35349 0.29649 0.16528 0.0
C2186 C 0.34977 0.31535 0.18357 0.0
C2187 C 0.36268 0.33984 0.22241 0.0
C2188 C 0.37904 0.3454 0.24361 0.0
C2189 C 0.3663 0.32045 0.2045 0.0
C2190 C 0.3991 0.33079 0.24686 0.0
C2191 C 0.40295 0.3114 0.22886 0.0
H2192 H 0.50166 0.65701 0.94392 0.0
H2193 H 0.47964 0.59743 0.89368 0.0
H2194 H 0.44495 0.59176 0.92306 0.0
H2195 H 0.42023 0.60374 0.96217 0.0
H2196 H 0.44136 0.6624 1.01404 0.0
H2197 H 0.47671 0.66859 0.98478 0.0
C2198 C 0.48926 0.64281 0.93939 0.0
C2199 C 0.49358 0.62755 0.91654 0.0
C2200 C 0.46903 0.63956 0.95658 0.0
C2201 C 0.47724 0.60918 0.91126 0.0
C2202 C 0.4572 0.60601 0.92798 0.0
C2203 C 0.43255 0.61792 0.96722 0.0
C2204 C 0.42793 0.63275 0.99017 0.0
C2205 C 0.45287 0.62108 0.9506 0.0
C2206 C 0.44426 0.65089 0.99636 0.0
C2207 C 0.46454 0.65435 0.97963 0.0
H2208 H 0.10838 0.74954 0.69423 0.0
H2209 H 0.17607 0.73394 0.65606 0.0
H2210 H 0.18097 0.69978 0.68634 0.0
H2211 H 0.16608 0.67361 0.7224 0.0
H2212 H 0.0994 0.68841 0.76287 0.0
H2213 H 0.09389 0.72333 0.73278 0.0
C2214 C 0.1242 0.73866 0.6926 0.0
C2215 C 0.14193 0.74458 0.67286 0.0
C2216 C 0.127 0.71876 0.71033 0.0
C2217 C 0.16235 0.73026 0.67125 0.0
C2218 C 0.1651 0.71052 0.68846 0.0
C2219 C 0.15028 0.68443 0.72483 0.0
C2220 C 0.133 0.67812 0.7447 0.0
C2221 C 0.14755 0.70455 0.70791 0.0
C2222 C 0.11281 0.69258 0.74753 0.0
C2223 C 0.10975 0.71263 0.73036 0.0
H2224 H 0.02195 0.36256 0.44431 0.0
H2225 H 0.03727 0.42885 0.40283 0.0
H2226 H 0.07089 0.43545 0.43352 0.0
H2227 H 0.09657 0.42254 0.47114 0.0
H2228 H 0.08233 0.35705 0.5144 0.0
H2229 H 0.04794 0.34986 0.48387 0.0
C2230 C 0.03266 0.37844 0.44199 0.0
C2231 C 0.02675 0.39529 0.42122 0.0
C2232 C 0.05229 0.3822 0.45992 0.0
C2233 C 0.04089 0.41579 0.41879 0.0
C2234 C 0.06033 0.41952 0.43625 0.0
C2235 C 0.08597 0.40664 0.47407 0.0
C2236 C 0.09224 0.39023 0.49494 0.0
C2237 C 0.06622 0.40287 0.45677 0.0
C2238 C 0.07812 0.36985 0.49836 0.0
C2239 C 0.0584 0.36581 0.48092 0.0
H2240 H 0.37025 0.75508 0.38414 0.0
H2241 H 0.41889 0.72014 0.4401 0.0
H2242 H 0.42275 0.68709 0.40777 0.0
H2243 H 0.41081 0.66671 0.36459 0.0
H2244 H 0.36175 0.70104 0.3088 0.0
H2245 H 0.3596 0.73538 0.33986 0.0
C2246 C 0.38168 0.74025 0.38933 0.0
C2247 C 0.39428 0.74039 0.41475 0.0
C2248 C 0.38374 0.72099 0.37057 0.0
C2249 C 0.40922 0.72095 0.42068 0.0
C2250 C 0.41133 0.70184 0.40221 0.0
C2251 C 0.39985 0.68182 0.35905 0.0
C2252 C 0.38641 0.68118 0.33432 0.0
C2253 C 0.39853 0.70152 0.3772 0.0
C2254 C 0.37228 0.70097 0.32762 0.0
C2255 C 0.37098 0.72062 0.34548 0.0
H2256 H 0.10016 0.59905 0.12141 0.0
H2257 H 0.08764 0.6647 0.07783 0.0
H2258 H 0.05267 0.67227 0.10725 0.0
H2259 H 0.02571 0.65997 0.14597 0.0
H2260 H 0.03907 0.59354 0.18798 0.0
H2261 H 0.0733 0.58643 0.1583 0.0
C2262 C 0.08979 0.61505 0.1182 0.0
C2263 C 0.09674 0.63142 0.09759 0.0
C2264 C 0.06967 0.61905 0.13489 0.0
C2265 C 0.08292 0.65194 0.09373 0.0
C2266 C 0.06287 0.6562 0.11053 0.0
C2267 C 0.03613 0.64395 0.14864 0.0
C2268 C 0.02952 0.62724 0.16925 0.0
C2269 C 0.05609 0.63989 0.13132 0.0
C2270 C 0.04327 0.60652 0.17212 0.0
C2271 C 0.06305 0.6025 0.15524 0.0
H2272 H 0.16793 0.34903 0.86944 0.0
H2273 H 0.10025 0.33737 0.82987 0.0
H2274 H 0.09332 0.30277 0.86009 0.0
H2275 H 0.10702 0.27574 0.89821 0.0
H2276 H 0.17568 0.28821 0.93554 0.0
H2277 H 0.18185 0.32223 0.90535 0.0
C2278 C 0.1516 0.33896 0.86724 0.0
C2279 C 0.13447 0.34607 0.84759 0.0
C2280 C 0.14805 0.319 0.88421 0.0
C2281 C 0.11355 0.33262 0.84509 0.0
C2282 C 0.10969 0.31273 0.8623 0.0
C2283 C 0.12332 0.28591 0.89969 0.0
C2284 C 0.14096 0.27912 0.91913 0.0
C2285 C 0.12684 0.30575 0.88205 0.0
C2286 C 0.162 0.29255 0.92056 0.0
C2287 C 0.16548 0.31221 0.90341 0.0
H2288 H 0.49739 0.35905 0.64559 0.0
H2289 H 0.4832 0.42628 0.68521 0.0
H2290 H 0.44867 0.43215 0.65561 0.0
H2291 H 0.42208 0.41847 0.61928 0.0
H2292 H 0.43624 0.35296 0.57616 0.0
H2293 H 0.47095 0.34605 0.60624 0.0
C2294 C 0.48673 0.37497 0.64761 0.0
C2295 C 0.49307 0.39229 0.66762 0.0
C2296 C 0.46679 0.37849 0.62999 0.0
C2297 C 0.47904 0.41284 0.66986 0.0
C2298 C 0.45916 0.41617 0.653 0.0
C2299 C 0.43271 0.40262 0.61627 0.0
C2300 C 0.42614 0.38602 0.59574 0.0
C2301 C 0.45285 0.39916 0.63308 0.0
C2302 C 0.44046 0.3658 0.59213 0.0
C2303 C 0.46043 0.36194 0.60928 0.0
H2304 H 0.12666 0.05026 0.32923 0.0
H2305 H 0.10255 0.05695 0.24462 0.0
H2306 H 0.10172 0.01356 0.24 0.0
H2307 H 0.10645 0.9736 0.26071 0.0
H2308 H 0.12733 0.96697 0.3464 0.0
H2309 H 0.13064 1.01037 0.3502 0.0
C2310 C 0.12148 0.04219 0.3097 0.0
C2311 C 0.11497 0.05676 0.28711 0.0
C2312 C 0.12021 0.01724 0.30758 0.0
C2313 C 0.10778 0.04608 0.26216 0.0
C2314 C 0.10723 0.02129 0.25958 0.0
C2315 C 0.11175 0.98176 0.28016 0.0
C2316 C 0.11669 0.96726 0.30329 0.0
C2317 C 0.11316 1.00669 0.28223 0.0
C2318 C 0.12343 0.97787 0.32842 0.0
C2319 C 0.12536 1.00264 0.33053 0.0
H2320 H 0.2241 0.88707 0.56632 0.0
H2321 H 0.21861 0.83278 0.50348 0.0
H2322 H 0.26192 0.82886 0.50267 0.0
H2323 H 0.30137 0.83958 0.52126 0.0
H2324 H 0.30716 0.89356 0.58418 0.0
H2325 H 0.26374 0.89867 0.58399 0.0
C2326 C 0.23236 0.87455 0.55224 0.0
C2327 C 0.21803 0.8602 0.53496 0.0
C2328 C 0.25733 0.87206 0.55231 0.0
C2329 C 0.22915 0.84402 0.51696 0.0
C2330 C 0.25393 0.84169 0.51661 0.0
C2331 C 0.29303 0.85234 0.53503 0.0
C2332 C 0.30727 0.8659 0.5531 0.0
C2333 C 0.26817 0.85532 0.53449 0.0
C2334 C 0.29645 0.88275 0.57041 0.0
C2335 C 0.27167 0.88572 0.57017 0.0
H2336 H 0.38537 0.96911 0.80852 0.0
H2337 H 0.44734 0.96372 0.75613 0.0
H2338 H 0.4509 1.00699 0.7553 0.0
H2339 H 0.43736 0.0465 0.77088 0.0
H2340 H 0.37516 0.05216 0.82257 0.0
H2341 H 0.37088 1.00878 0.82267 0.0
C2342 C 0.39951 0.9774 0.79669 0.0
C2343 C 0.41612 0.96309 0.78244 0.0
C2344 C 0.40161 1.00238 0.79655 0.0
C2345 C 0.43432 0.97422 0.76725 0.0
C2346 C 0.43645 0.999 0.7669 0.0
C2347 C 0.42297 0.03816 0.7823 0.0
C2348 C 0.40675 0.05243 0.79703 0.0
C2349 C 0.42043 0.01325 0.7818 0.0
C2350 C 0.38789 0.04152 0.81122 0.0
C2351 C 0.38544 0.01673 0.8112 0.0
H2352 H 0.22155 0.13391 1.02892 0.0
H2353 H 0.21585 0.19443 0.08339 0.0
H2354 H 0.25912 0.19864 0.08357 0.0
H2355 H 0.29862 0.18623 0.06663 0.0
H2356 H 0.30457 0.12562 1.01261 0.0
H2357 H 0.26123 0.12052 1.0134 0.0
C2358 C 0.22976 0.14789 1.04104 0.0
C2359 C 0.21538 0.16392 0.05605 0.0
C2360 C 0.25471 0.15041 1.04072 0.0
C2361 C 0.22643 0.18188 0.07165 0.0
C2362 C 0.25119 0.18438 0.07163 0.0
C2363 C 0.29034 0.17202 0.05489 0.0
C2364 C 0.30464 0.15653 1.03919 0.0
C2365 C 0.26549 0.16901 0.05588 0.0
C2366 C 0.29386 0.13784 1.02463 0.0
C2367 C 0.2691 0.13491 1.02517 0.0
H2368 H 0.92193 0.05031 0.83049 0.0
H2369 H 0.89203 0.05565 0.74839 0.0
H2370 H 0.88874 0.0122 0.74585 0.0
H2371 H 0.89553 0.97268 0.76658 0.0
H2372 H 0.92789 0.96712 0.84742 0.0
H2373 H 0.9288 1.01058 0.8512 0.0
C2374 C 0.91468 0.04186 0.8121 0.0
C2375 C 0.90724 0.05602 0.78959 0.0
C2376 C 0.9132 0.01687 0.81071 0.0
C2377 C 0.89789 0.04503 0.76586 0.0
C2378 C 0.89599 0.02022 0.76447 0.0
C2379 C 0.90252 0.98096 0.78516 0.0
C2380 C 0.91143 0.96665 0.80685 0.0
C2381 C 0.90368 1.00595 0.78672 0.0
C2382 C 0.92085 0.97772 0.83054 0.0
C2383 C 0.92144 1.00256 0.83263 0.0
H2384 H 0.7236 0.13628 0.56169 0.0
H2385 H 0.71822 0.19487 0.50431 0.0
H2386 H 0.76147 0.19939 0.50469 0.0
H2387 H 0.8009 0.18763 0.52266 0.0
H2388 H 0.80639 0.12886 0.57951 0.0
H2389 H 0.76307 0.12373 0.57855 0.0
C2390 C 0.73187 0.14989 0.54904 0.0
C2391 C 0.71758 0.16527 0.53301 0.0
C2392 C 0.75678 0.15264 0.54973 0.0
C2393 C 0.72872 0.1828 0.5168 0.0
C2394 C 0.75347 0.18549 0.51716 0.0
C2395 C 0.7925 0.17391 0.53508 0.0
C2396 C 0.80666 0.15895 0.55165 0.0
C2397 C 0.76766 0.17079 0.53389 0.0
C2398 C 0.79576 0.14077 0.56697 0.0
C2399 C 0.77103 0.13777 0.56627 0.0
H2400 H 0.63744 0.05176 0.27602 0.0
H2401 H 0.57898 0.05688 0.33368 0.0
H2402 H 0.57537 0.01358 0.33433 0.0
H2403 H 0.5878 0.97421 0.31711 0.0
H2404 H 0.64628 0.96886 0.25976 0.0
H2405 H 0.65065 0.01228 0.2598 0.0
C2406 C 0.62403 0.04342 0.2889 0.0
C2407 C 0.60843 0.05762 0.30474 0.0
C2408 C 0.62179 0.01847 0.28877 0.0
C2409 C 0.59119 0.04642 0.32131 0.0
C2410 C 0.58903 0.02165 0.32156 0.0
C2411 C 0.60132 0.98265 0.30444 0.0
C2412 C 0.6164 0.96854 0.28797 0.0
C2413 C 0.60396 1.00752 0.30504 0.0
C2414 C 0.63429 0.97948 0.27223 0.0
C2415 C 0.63685 1.00426 0.2724 0.0
H2416 H 0.72323 0.88773 1.02901 0.0
H2417 H 0.71731 0.82861 0.08559 0.0
H2418 H 0.76058 0.8246 0.08637 0.0
H2419 H 0.80019 0.83676 0.06946 0.0
H2420 H 0.80643 0.89616 1.01361 0.0
H2421 H 0.76303 0.90096 1.01353 0.0
C2422 C 0.7314 0.87411 1.04172 0.0
C2423 C 0.71695 0.85841 0.05715 0.0
C2424 C 0.75637 0.87169 1.04176 0.0
C2425 C 0.72794 0.8409 0.0735 0.0
C2426 C 0.75271 0.8385 0.07383 0.0
C2427 C 0.79196 0.85061 0.05711 0.0
C2428 C 0.80634 0.86581 1.04109 0.0
C2429 C 0.76708 0.85352 0.05769 0.0
C2430 C 0.79563 0.8841 1.02578 0.0
C2431 C 0.77085 0.88689 1.02587 0.0
H2432 H 0.63568 0.5496 0.82199 0.0
H2433 H 0.59088 0.55508 0.74965 0.0
H2434 H 0.58731 0.51175 0.74793 0.0
H2435 H 0.59575 0.47225 0.76803 0.0
H2436 H 0.63938 0.46669 0.84118 0.0
H2437 H 0.64437 0.51007 0.84195 0.0
C2438 C 0.62533 0.54132 0.8057 0.0
C2439 C 0.61361 0.5556 0.78588 0.0
C2440 C 0.62286 0.51638 0.80532 0.0
C2441 C 0.60009 0.54452 0.76508 0.0
C2442 C 0.59797 0.51975 0.76418 0.0
C2443 C 0.6062 0.48065 0.78422 0.0
C2444 C 0.61694 0.46649 0.80478 0.0
C2445 C 0.60899 0.50552 0.7844 0.0
C2446 C 0.63076 0.47736 0.8254 0.0
C2447 C 0.63368 0.5021 0.82571 0.0
H2448 H 0.79775 0.33924 1.02523 0.0
H2449 H 0.80258 0.39882 0.08093 0.0
H2450 H 0.75908 0.40295 0.08048 0.0
H2451 H 0.71965 0.38929 0.06422 0.0
H2452 H 0.71514 0.32981 1.00808 0.0
H2453 H 0.75847 0.32627 1.00811 0.0
C2454 C 0.78918 0.35297 1.03744 0.0
C2455 C 0.80319 0.36845 0.05354 0.0
C2456 C 0.76426 0.35545 1.03661 0.0
C2457 C 0.79206 0.38654 0.06873 0.0
C2458 C 0.76723 0.38895 0.06832 0.0
C2459 C 0.72813 0.37567 0.05183 0.0
C2460 C 0.71406 0.35977 1.03619 0.0
C2461 C 0.75313 0.37353 0.05227 0.0
C2462 C 0.72546 0.34226 1.02026 0.0
C2463 C 0.75026 0.34015 1.02039 0.0
H2464 H 0.88366 0.54889 0.27215 0.0
H2465 H 0.94071 0.55633 0.33132 0.0
H2466 H 0.9445 0.51313 0.33417 0.0
H2467 H 0.9326 0.4731 0.31856 0.0
H2468 H 0.87539 0.46543 0.2599 0.0
H2469 H 0.87081 0.50876 0.25775 0.0
C2470 C 0.89678 0.54106 0.28586 0.0
C2471 C 0.91196 0.55586 0.30145 0.0
C2472 C 0.89905 0.51614 0.28712 0.0
C2473 C 0.92886 0.54537 0.31907 0.0
C2474 C 0.93111 0.52066 0.32061 0.0
C2475 C 0.91928 0.48103 0.30517 0.0
C2476 C 0.90459 0.46628 0.28902 0.0
C2477 C 0.91656 0.50588 0.30443 0.0
C2478 C 0.88702 0.47655 0.27224 0.0
C2479 C 0.88436 0.50128 0.27112 0.0
H2480 H 0.72455 0.65368 0.50507 0.0
H2481 H 0.72025 0.65989 0.59413 0.0
H2482 H 0.76379 0.65862 0.59734 0.0
H2483 H 0.80307 0.65706 0.57461 0.0
H2484 H 0.8076 0.655 0.4853 0.0
H2485 H 0.76401 0.6534 0.48216 0.0
C2486 C 0.7332 0.6546 0.52516 0.0
C2487 C 0.71928 0.65662 0.54943 0.0
C2488 C 0.75824 0.65472 0.52668 0.0
C2489 C 0.73064 0.65824 0.57527 0.0
C2490 C 0.75549 0.65754 0.57706 0.0
C2491 C 0.79448 0.65607 0.55447 0.0
C2492 C 0.80847 0.65583 0.53016 0.0
C2493 C 0.76947 0.65595 0.55291 0.0
C2494 C 0.79717 0.65505 0.50422 0.0
C2495 C 0.77228 0.65416 0.50247 0.0
H2496 H 0.38418 0.55008 0.31067 0.0
H2497 H 0.44032 0.55483 0.24988 0.0
H2498 H 0.44433 0.51157 0.25002 0.0
H2499 H 0.43305 0.47231 0.26887 0.0
H2500 H 0.37655 0.46732 0.32893 0.0
H2501 H 0.37174 0.51066 0.32809 0.0
C2502 C 0.39709 0.54164 0.29718 0.0
C2503 C 0.41197 0.55576 0.28026 0.0
C2504 C 0.39954 0.5167 0.29769 0.0
C2505 C 0.42864 0.54445 0.26303 0.0
C2506 C 0.43105 0.5197 0.26325 0.0
C2507 C 0.41987 0.48081 0.28196 0.0
C2508 C 0.40552 0.4668 0.29946 0.0
C2509 C 0.4169 0.50566 0.28084 0.0
C2510 C 0.38802 0.47784 0.31569 0.0
C2511 C 0.3852 0.50259 0.31505 0.0
H2512 H 0.30139 0.63355 1.02562 0.0
H2513 H 0.30909 0.69152 0.08343 0.0
H2514 H 0.26593 0.69613 0.08539 0.0
H2515 H 0.22584 0.68464 0.06948 0.0
H2516 H 0.21777 0.62622 1.01264 0.0
H2517 H 0.26109 0.62103 1.01102 0.0
C2518 C 0.29362 0.64704 1.03884 0.0
C2519 C 0.30854 0.66225 0.05429 0.0
C2520 C 0.26868 0.64975 1.03965 0.0
C2521 C 0.29809 0.67962 0.07131 0.0
C2522 C 0.27338 0.68234 0.07233 0.0
C2523 C 0.23366 0.67093 0.05658 0.0
C2524 C 0.21877 0.6561 1.04076 0.0
C2525 C 0.25851 0.66777 0.05629 0.0
C2526 C 0.22896 0.63799 1.02469 0.0
C2527 C 0.2537 0.63498 1.02389 0.0
H2528 H 0.09218 0.47344 0.82478 0.0
H2529 H 0.13847 0.4695 0.75368 0.0
H2530 H 0.14285 0.51294 0.75388 0.0
H2531 H 0.13263 0.55193 0.77379 0.0
H2532 H 0.08541 0.5559 0.84425 0.0
H2533 H 0.08267 0.51249 0.84534 0.0
C2534 C 0.10309 0.48221 0.80926 0.0
C2535 C 0.1147 0.46853 0.78893 0.0
C2536 C 0.10557 0.50708 0.8097 0.0
C2537 C 0.12916 0.47983 0.76924 0.0
C2538 C 0.13173 0.50459 0.76948 0.0
C2539 C 0.12195 0.54333 0.7896 0.0
C2540 C 0.10924 0.55718 0.80899 0.0
C2541 C 0.11997 0.5184 0.78959 0.0
C2542 C 0.09537 0.54566 0.82916 0.0
C2543 C 0.09369 0.52086 0.82967 0.0
H2544 H 0.22009 0.34728 0.51474 0.0
H2545 H 0.21443 0.38894 0.5894 0.0
H2546 H 0.2579 0.39304 0.59113 0.0
H2547 H 0.29762 0.3837 0.57195 0.0
H2548 H 0.30313 0.341 0.4979 0.0
H2549 H 0.25973 0.33875 0.49495 0.0
C2550 C 0.22847 0.35719 0.53138 0.0
C2551 C 0.21424 0.36758 0.55213 0.0
C2552 C 0.25342 0.35947 0.53213 0.0
C2553 C 0.22513 0.38065 0.5734 0.0
C2554 C 0.24994 0.38304 0.5743 0.0
C2555 C 0.28932 0.37417 0.55496 0.0
C2556 C 0.30364 0.3626 0.53504 0.0
C2557 C 0.2643 0.37245 0.55383 0.0
C2558 C 0.29254 0.35007 0.51341 0.0
C2559 C 0.26772 0.34869 0.51181 0.0
H2560 H 0.10694 0.12658 0.12399 0.0
H2561 H 0.15208 0.18831 0.12271 0.0
H2562 H 0.15137 0.18987 0.17363 0.0
H2563 H 0.14091 0.17113 0.21901 0.0
H2564 H 0.0925 0.11191 0.21997 0.0
H2565 H 0.09123 0.11198 0.16909 0.0
C2566 C 0.11607 0.14075 0.13486 0.0
C2567 C 0.12942 0.15742 0.11947 0.0
C2568 C 0.11512 0.14185 0.16424 0.0
C2569 C 0.14136 0.17552 0.13395 0.0
C2570 C 0.14114 0.17627 0.16314 0.0
C2571 C 0.12958 0.1587 0.20804 0.0
C2572 C 0.11662 0.14165 0.22333 0.0
C2573 C 0.12848 0.15923 0.1786 0.0
C2574 C 0.1023 0.12545 0.20877 0.0
C2575 C 0.10173 0.12536 0.17962 0.0
H2576 H 0.10472 0.8913 0.46738 0.0
H2577 H 0.1606 0.83912 0.46722 0.0
H2578 H 0.16052 0.83872 0.4163 0.0
H2579 H 0.14715 0.85628 0.37154 0.0
H2580 H 0.08849 0.90533 0.37149 0.0
H2581 H 0.08678 0.90375 0.42236 0.0
C2582 C 0.11637 0.87934 0.45615 0.0
C2583 C 0.13252 0.86507 0.47115 0.0
C2584 C 0.11584 0.87882 0.42671 0.0
C2585 C 0.14773 0.84993 0.45626 0.0
C2586 C 0.14784 0.84988 0.42708 0.0
C2587 C 0.1336 0.86612 0.38267 0.0
C2588 C 0.11787 0.88084 0.36765 0.0
C2589 C 0.13234 0.86463 0.41202 0.0
C2590 C 0.10055 0.89362 0.38243 0.0
C2591 C 0.09972 0.89286 0.4116 0.0
H2592 H 0.369 0.86555 0.71674 0.0
H2593 H 0.44416 0.88014 0.71716 0.0
H2594 H 0.44561 0.87431 0.66658 0.0
H2595 H 0.42428 0.8692 0.62114 0.0
H2596 H 0.34927 0.85399 0.62215 0.0
H2597 H 0.34902 0.85566 0.67287 0.0
C2598 C 0.38584 0.86706 0.70589 0.0
C2599 C 0.40645 0.87339 0.72094 0.0
C2600 C 0.38652 0.86359 0.6768 0.0
C2601 C 0.42805 0.87513 0.70634 0.0
C2602 C 0.42883 0.87195 0.67728 0.0
C2603 C 0.4081 0.86544 0.63257 0.0
C2604 C 0.38685 0.86095 0.61777 0.0
C2605 C 0.40806 0.86666 0.66211 0.0
C2606 C 0.36591 0.85693 0.63295 0.0
C2607 C 0.36572 0.85812 0.66201 0.0
H2608 H 0.37502 0.16362 0.86961 0.0
H2609 H 0.43342 0.11427 0.86985 0.0
H2610 H 0.43507 0.11605 0.92073 0.0
H2611 H 0.41731 0.12892 0.96579 0.0
H2612 H 0.36177 0.18144 0.96535 0.0
H2613 H 0.36173 0.18145 0.9144 0.0
C2614 C 0.3885 0.15373 0.88078 0.0
C2615 C 0.40419 0.1389 0.86575 0.0
C2616 C 0.38975 0.15534 0.9102 0.0
C2617 C 0.42138 0.12607 0.8807 0.0
C2618 C 0.42219 0.12695 0.90991 0.0
C2619 C 0.40569 0.14086 0.95451 0.0
C2620 C 0.3897 0.15538 0.96954 0.0
C2621 C 0.40616 0.14116 0.92499 0.0
C2622 C 0.37454 0.17046 0.95448 0.0
C2623 C 0.37436 0.17028 0.92524 0.0
H2624 H 0.88352 0.8535 0.87346 0.0
H2625 H 0.93441 0.9106 0.87375 0.0
H2626 H 0.93437 0.91079 0.92466 0.0
H2627 H 0.91698 0.89705 0.96937 0.0
H2628 H 0.86933 0.83722 0.96943 0.0
H2629 H 0.87115 0.83547 0.91856 0.0
C2630 C 0.8951 0.86551 0.88472 0.0
C2631 C 0.90917 0.88188 0.86972 0.0
C2632 C 0.89541 0.86511 0.9142 0.0
C2633 C 0.92379 0.89755 0.88468 0.0
C2634 C 0.92359 0.8978 0.91387 0.0
C2635 C 0.90749 0.88325 0.95826 0.0
C2636 C 0.89311 0.86719 0.97331 0.0
C2637 C 0.90912 0.88198 0.9289 0.0
C2638 C 0.88079 0.84955 0.9585 0.0
C2639 C 0.88167 0.84869 0.92932 0.0
H2640 H 0.89851 0.17365 0.71725 0.0
H2641 H 0.9131 0.0986 0.71903 0.0
H2642 H 0.91129 0.09699 0.66836 0.0
H2643 H 0.90219 0.11595 0.62367 0.0
H2644 H 0.8884 0.19113 0.62042 0.0
H2645 H 0.89358 0.19376 0.67101 0.0
C2646 C 0.902 0.15715 0.70643 0.0
C2647 C 0.90641 0.1363 0.722 0.0
C2648 C 0.90082 0.15632 0.6769 0.0
C2649 C 0.91018 0.11493 0.70762 0.0
C2650 C 0.90894 0.11397 0.67858 0.0
C2651 C 0.90063 0.13303 0.6339 0.0
C2652 C 0.89479 0.15331 0.61802 0.0
C2653 C 0.90377 0.1344 0.66301 0.0
C2654 C 0.89303 0.17525 0.63188 0.0
C2655 C 0.89585 0.17671 0.66094 0.0
H2656 H 0.60454 0.13369 0.46799 0.0
H2657 H 0.65736 0.189 0.46594 0.0
H2658 H 0.65621 0.18908 0.41501 0.0
H2659 H 0.64296 0.17041 0.37064 0.0
H2660 H 0.58726 0.11802 0.37278 0.0
H2661 H 0.5865 0.1199 0.42365 0.0
C2662 C 0.61529 0.14623 0.45638 0.0
C2663 C 0.63091 0.16147 0.4709 0.0
C2664 C 0.61414 0.14653 0.42695 0.0
C2665 C 0.64489 0.1774 0.45545 0.0
C2666 C 0.64441 0.17727 0.42623 0.0
C2667 C 0.63022 0.15991 0.38225 0.0
C2668 C 0.61503 0.14419 0.36781 0.0
C2669 C 0.62949 0.16153 0.41167 0.0
C2670 C 0.59883 0.13051 0.38325 0.0
C2671 C 0.59856 0.13145 0.41242 0.0
H2672 H 0.60576 0.89446 0.12282 0.0
H2673 H 0.65588 0.83675 0.1245 0.0
H2674 H 0.65498 0.83674 0.17544 0.0
H2675 H 0.64261 0.85572 0.2199 0.0
H2676 H 0.58923 0.91046 0.21827 0.0
H2677 H 0.58847 0.90894 0.16737 0.0
C2678 C 0.61596 0.88144 0.13436 0.0
C2679 C 0.63072 0.86544 0.11973 0.0
C2680 C 0.61489 0.88116 0.16382 0.0
C2681 C 0.64405 0.84893 0.13509 0.0
C2682 C 0.64371 0.84909 0.16431 0.0
C2683 C 0.63038 0.86689 0.2084 0.0
C2684 C 0.61589 0.88314 0.22304 0.0
C2685 C 0.62956 0.86544 0.17897 0.0
C2686 C 0.6003 0.89757 0.2077 0.0
C2687 C 0.60001 0.89684 0.1785 0.0
H2688 H 0.62497 0.67277 0.71473 0.0
H2689 H 0.61738 0.59667 0.71729 0.0
H2690 H 0.61971 0.59478 0.66674 0.0
H2691 H 0.62724 0.61399 0.62197 0.0
H2692 H 0.63456 0.69006 0.61765 0.0
H2693 H 0.62873 0.69276 0.66815 0.0
C2694 C 0.62312 0.65591 0.7041 0.0
C2695 C 0.6206 0.63486 0.7199 0.0
C2696 C 0.62473 0.6549 0.67457 0.0
C2697 C 0.61893 0.61312 0.70572 0.0
C2698 C 0.62045 0.612 0.67674 0.0
C2699 C 0.6273 0.63126 0.63192 0.0
C2700 C 0.63149 0.65178 0.61575 0.0
C2701 C 0.62388 0.63266 0.66096 0.0
C2702 C 0.6313 0.67393 0.62932 0.0
C2703 C 0.62807 0.67547 0.65834 0.0
H2704 H 0.61919 0.35035 0.87306 0.0
H2705 H 0.61483 0.42673 0.87209 0.0
H2706 H 0.61621 0.4277 0.9227 0.0
H2707 H 0.62233 0.40752 0.96708 0.0
H2708 H 0.62714 0.33122 0.96986 0.0
H2709 H 0.62153 0.32948 0.91925 0.0
C2710 C 0.61781 0.36709 0.88404 0.0
C2711 C 0.61652 0.38848 0.86868 0.0
C2712 C 0.61899 0.36756 0.9136 0.0
C2713 C 0.61545 0.41005 0.8833 0.0
C2714 C 0.61642 0.41063 0.91232 0.0
C2715 C 0.6219 0.39042 0.95676 0.0
C2716 C 0.62535 0.36953 0.9725 0.0
C2717 C 0.61877 0.38959 0.92767 0.0
C2718 C 0.62445 0.3476 0.95851 0.0
C2719 C 0.62138 0.34663 0.92943 0.0
H2720 H 0.91873 0.37274 0.12383 0.0
H2721 H 0.84218 0.37068 0.12219 0.0
H2722 H 0.84091 0.37243 0.17279 0.0
H2723 H 0.86093 0.37759 0.21748 0.0
H2724 H 0.93738 0.38054 0.22096 0.0
H2725 H 0.93931 0.37508 0.17033 0.0
C2726 C 0.90185 0.37205 0.13464 0.0
C2727 C 0.88052 0.37119 0.11901 0.0
C2728 C 0.90119 0.3735 0.16426 0.0
C2729 C 0.85883 0.37099 0.13352 0.0
C2730 C 0.85807 0.37216 0.16256 0.0
C2731 C 0.87812 0.37691 0.20733 0.0
C2732 C 0.89898 0.3797 0.2234 0.0
C2733 C 0.87906 0.37392 0.17816 0.0
C2734 C 0.92098 0.3784 0.20947 0.0
C2735 C 0.92207 0.37539 0.18034 0.0
H2736 H 0.89946 0.67407 0.37042 0.0
H2737 H 0.9066 0.59789 0.36904 0.0
H2738 H 0.90513 0.59664 0.41963 0.0
H2739 H 0.89837 0.61633 0.46415 0.0
H2740 H 0.89134 0.6924 0.46763 0.0
H2741 H 0.89651 0.69463 0.4169 0.0
C2742 C 0.90133 0.65733 0.3813 0.0
C2743 C 0.90347 0.63606 0.36581 0.0
C2744 C 0.90021 0.65668 0.41091 0.0
C2745 C 0.90527 0.61449 0.38034 0.0
C2746 C 0.90426 0.61374 0.40935 0.0
C2747 C 0.89824 0.63351 0.45395 0.0
C2748 C 0.89431 0.65416 0.46993 0.0
C2749 C 0.90121 0.6346 0.42484 0.0
C2750 C 0.89444 0.6762 0.4561 0.0
C2751 C 0.89725 0.67744 0.42695 0.0
H2752 H 0.36961 0.35988 0.37143 0.0
H2753 H 0.43537 0.39899 0.37036 0.0
H2754 H 0.43758 0.39664 0.4212 0.0
H2755 H 0.41868 0.38645 0.46672 0.0
H2756 H 0.35492 0.34417 0.46713 0.0
H2757 H 0.35411 0.34453 0.41624 0.0
C2758 C 0.38472 0.36741 0.38228 0.0
C2759 C 0.40237 0.37955 0.36693 0.0
C2760 C 0.38614 0.3655 0.41161 0.0
C2761 C 0.42173 0.38927 0.38147 0.0
C2762 C 0.42288 0.3881 0.41066 0.0
C2763 C 0.40502 0.37676 0.4556 0.0
C2764 C 0.38701 0.36501 0.47082 0.0
C2765 C 0.40495 0.37664 0.42607 0.0
C2766 C 0.36921 0.35292 0.45603 0.0
C2767 C 0.36863 0.35332 0.42686 0.0
H2768 H 0.3669 0.64316 0.21477 0.0
H2769 H 0.44333 0.64379 0.21948 0.0
H2770 H 0.44564 0.6506 0.16903 0.0
H2771 H 0.42541 0.65272 0.12231 0.0
H2772 H 0.34883 0.65206 0.11979 0.0
H2773 H 0.34714 0.64916 0.17022 0.0
C2774 C 0.38414 0.64503 0.2049 0.0
C2775 C 0.40491 0.64274 0.22107 0.0
C2776 C 0.38528 0.64893 0.17598 0.0
C2777 C 0.42701 0.64551 0.20773 0.0
C2778 C 0.42832 0.64929 0.17876 0.0
C2779 C 0.40843 0.65259 0.13294 0.0
C2780 C 0.38721 0.65284 0.11717 0.0
C2781 C 0.40754 0.6506 0.16245 0.0
C2782 C 0.36537 0.65211 0.13133 0.0
C2783 C 0.36438 0.6503 0.16024 0.0
H2784 H 0.13684 0.66928 0.87584 0.0
H2785 H 0.0883 0.61018 0.87662 0.0
H2786 H 0.09005 0.60886 0.92749 0.0
H2787 H 0.10827 0.62242 0.97193 0.0
H2788 H 0.15328 0.68427 0.97154 0.0
H2789 H 0.14991 0.68682 0.92084 0.0
C2790 C 0.1261 0.65658 0.88721 0.0
C2791 C 0.1122 0.64001 0.87231 0.0
C2792 C 0.12678 0.65629 0.9167 0.0
C2793 C 0.09872 0.62343 0.88746 0.0
C2794 C 0.09994 0.62252 0.91662 0.0
C2795 C 0.1169 0.63676 0.96077 0.0
C2796 C 0.131 0.65318 0.97566 0.0
C2797 C 0.11427 0.63855 0.93151 0.0
C2798 C 0.14211 0.67158 0.96077 0.0
C2799 C 0.14032 0.67294 0.93168 0.0
H2800 H 0.14064 0.35787 0.71905 0.0
H2801 H 0.08405 0.4093 0.71885 0.0
H2802 H 0.08335 0.40869 0.66791 0.0
H2803 H 0.10159 0.3962 0.62294 0.0
H2804 H 0.15526 0.34174 0.62332 0.0
H2805 H 0.15425 0.34066 0.67422 0.0
C2806 C 0.12773 0.36849 0.70786 0.0
C2807 C 0.11231 0.38355 0.72293 0.0
C2808 C 0.12706 0.36761 0.67841 0.0
C2809 C 0.09584 0.39729 0.70797 0.0
C2810 C 0.09561 0.3971 0.67873 0.0
C2811 C 0.1126 0.38366 0.63418 0.0
C2812 C 0.12839 0.36892 0.6192 0.0
C2813 C 0.11147 0.3827 0.66364 0.0
C2814 C 0.14269 0.35298 0.63418 0.0
C2815 C 0.14226 0.35251 0.66338 0.0
loop_
_geom_bond_atom_site_label_1
_geom_bond_atom_site_label_2
_geom_bond_distance
_geom_bond_site_symmetry_2
_ccdc_geom_bond_type
La0 C2 2.928 . S
La0 O20 2.521 . S
La0 O21 2.628 . S
La0 O22 2.554 . S
La0 O23 2.757 . S
La0 O24 2.470 . S
La0 O29 2.482 . S
La0 O31 2.503 . S
La1 C11 2.928 . S
La1 O23 2.482 . S
La1 O25 2.503 . S
La1 O26 2.521 . S
La1 O27 2.628 . S
La1 O28 2.554 . S
La1 O29 2.757 . S
La1 O30 2.470 . S
C2 La0 2.928 . S
C2 C3 1.503 . S
C2 O20 1.261 . S
C2 O21 1.243 . S
C3 C2 1.503 . S
C3 C4 1.394 . S
C3 C8 1.373 . S
C4 C3 1.394 . S
C4 C5 1.380 . S
C4 H32 0.930 . S
C5 C4 1.380 . S
C5 C6 1.376 . S
C5 H33 0.930 . S
C6 C5 1.376 . S
C6 C7 1.370 . S
C7 C6 1.370 . S
C7 C8 1.396 . S
C7 H34 0.929 . S
C8 C3 1.373 . S
C8 C7 1.396 . S
C8 H35 0.929 . S
C9 O22 1.240 . S
C9 O23 1.289 . S
C10 O24 1.258 . S
C10 O25 1.256 . S
C11 La1 2.928 . S
C11 C12 1.503 . S
C11 O26 1.261 . S
C11 O27 1.243 . S
C12 C11 1.503 . S
C12 C13 1.394 . S
C12 C17 1.373 . S
C13 C12 1.394 . S
C13 C14 1.380 . S
C13 H36 0.930 . S
C14 C13 1.380 . S
C14 C15 1.376 . S
C14 H37 0.930 1_455 S
C15 C14 1.376 . S
C15 C16 1.370 . S
C16 C15 1.370 . S
C16 C17 1.396 . S
C16 H38 0.929 . S
C17 C12 1.373 . S
C17 C16 1.396 . S
C17 H39 0.929 . S
C18 O28 1.240 . S
C18 O29 1.289 . S
C19 O30 1.258 . S
C19 O31 1.256 . S
O20 La0 2.521 . S
O20 C2 1.261 . S
O21 La0 2.628 . S
O21 C2 1.243 . S
O22 La0 2.554 . S
O22 C9 1.240 . S
O23 La0 2.757 . S
O23 La1 2.482 . S
O23 C9 1.289 . S
O24 La0 2.470 . S
O24 C10 1.258 . S
O25 La1 2.503 . S
O25 C10 1.256 . S
O26 La1 2.521 . S
O26 C11 1.261 . S
O27 La1 2.628 . S
O27 C11 1.243 . S
O28 La1 2.554 . S
O28 C18 1.240 . S
O29 La0 2.482 . S
O29 La1 2.757 . S
O29 C18 1.289 . S
O30 La1 2.470 . S
O30 C19 1.258 . S
O31 La0 2.503 . S
O31 C19 1.256 . S
H32 C4 0.930 . S
H33 C5 0.930 . S
H34 C7 0.929 . S
H35 C8 0.929 . S
H36 C13 0.930 . S
H37 C14 0.930 1_655 S
H38 C16 0.929 . S
H39 C17 0.929 . S
La40 C42 2.928 . S
La40 O60 2.521 . S
La40 O61 2.628 . S
La40 O62 2.554 . S
La40 O63 2.757 . S
La40 O64 2.470 . S
La40 O69 2.482 . S
La40 O71 2.503 . S
La41 C51 2.928 . S
La41 O63 2.482 . S
La41 O65 2.503 . S
La41 O66 2.521 . S
La41 O67 2.628 . S
La41 O68 2.554 . S
La41 O69 2.757 . S
La41 O70 2.470 . S
C42 La40 2.928 . S
C42 C43 1.503 . S
C42 O60 1.261 . S
C42 O61 1.243 . S
C43 C42 1.503 . S
C43 C44 1.394 . S
C43 C48 1.373 . S
C44 C43 1.394 . S
C44 C45 1.380 1_565 S
C44 H72 0.930 . S
C45 C44 1.380 1_545 S
C45 C46 1.377 . S
C45 H73 0.930 . S
C46 C45 1.377 . S
C46 C47 1.355 1_545 S
C47 C46 1.355 1_565 S
C47 C48 1.396 . S
C47 H74 0.929 . S
C48 C43 1.373 . S
C48 C47 1.396 . S
C48 H75 0.929 . S
C49 O62 1.240 . S
C49 O63 1.289 . S
C50 O64 1.258 . S
C50 O65 1.256 . S
C51 La41 2.928 . S
C51 C52 1.503 . S
C51 O66 1.261 . S
C51 O67 1.243 . S
C52 C51 1.503 . S
C52 C53 1.394 . S
C52 C57 1.373 . S
C53 C52 1.394 . S
C53 C54 1.380 . S
C53 H76 0.930 . S
C54 C53 1.380 . S
C54 C55 1.376 . S
C54 H77 0.930 . S
C55 C54 1.376 . S
C55 C56 1.370 . S
C56 C55 1.370 . S
C56 C57 1.396 . S
C56 H78 0.929 . S
C57 C52 1.373 . S
C57 C56 1.396 . S
C57 H79 0.929 . S
C58 O68 1.240 . S
C58 O69 1.289 . S
C59 O70 1.258 . S
C59 O71 1.256 . S
O60 La40 2.521 . S
O60 C42 1.261 . S
O61 La40 2.628 . S
O61 C42 1.243 . S
O62 La40 2.554 . S
O62 C49 1.240 . S
O63 La40 2.757 . S
O63 La41 2.482 . S
O63 C49 1.289 . S
O64 La40 2.470 . S
O64 C50 1.258 . S
O65 La41 2.503 . S
O65 C50 1.256 . S
O66 La41 2.521 . S
O66 C51 1.261 . S
O67 La41 2.628 . S
O67 C51 1.243 . S
O68 La41 2.554 . S
O68 C58 1.240 . S
O69 La40 2.482 . S
O69 La41 2.757 . S
O69 C58 1.289 . S
O70 La41 2.470 . S
O70 C59 1.258 . S
O71 La40 2.503 . S
O71 C59 1.256 . S
H72 C44 0.930 . S
H73 C45 0.930 . S
H74 C47 0.929 . S
H75 C48 0.929 . S
H76 C53 0.930 . S
H77 C54 0.930 . S
H78 C56 0.929 . S
H79 C57 0.929 . S
La80 C82 2.928 . S
La80 O100 2.521 . S
La80 O101 2.628 . S
La80 O102 2.554 . S
La80 O103 2.757 . S
La80 O104 2.470 . S
La80 O109 2.482 . S
La80 O111 2.503 . S
La81 C91 2.928 . S
La81 O103 2.482 . S
La81 O105 2.503 . S
La81 O106 2.521 . S
La81 O107 2.628 . S
La81 O108 2.554 . S
La81 O109 2.757 . S
La81 O110 2.470 . S
C82 La80 2.928 . S
C82 C83 1.503 . S
C82 O100 1.261 . S
C82 O101 1.243 . S
C83 C82 1.503 . S
C83 C84 1.394 . S
C83 C88 1.373 . S
C84 C83 1.394 . S
C84 C85 1.380 . S
C84 H112 0.930 . S
C85 C84 1.380 . S
C85 C86 1.376 . S
C85 H113 0.930 . S
C86 C85 1.376 . S
C86 C87 1.370 . S
C87 C86 1.370 . S
C87 C88 1.396 . S
C87 H114 0.929 . S
C88 C83 1.373 . S
C88 C87 1.396 . S
C88 H115 0.929 . S
C89 O102 1.240 . S
C89 O103 1.289 . S
C90 O104 1.258 . S
C90 O105 1.256 . S
C91 La81 2.928 . S
C91 C92 1.503 . S
C91 O106 1.261 . S
C91 O107 1.243 . S
C92 C91 1.503 . S
C92 C93 1.394 . S
C92 C97 1.373 . S
C93 C92 1.394 . S
C93 C94 1.380 . S
C93 H116 0.930 . S
C94 C93 1.380 . S
C94 C95 1.376 . S
C94 H117 0.930 . S
C95 C94 1.376 . S
C95 C96 1.370 . S
C96 C95 1.370 . S
C96 C97 1.396 . S
C96 H118 0.929 . S
C97 C92 1.373 . S
C97 C96 1.396 . S
C97 H119 0.929 . S
C98 O108 1.240 . S
C98 O109 1.289 . S
C99 O110 1.258 . S
C99 O111 1.256 . S
O100 La80 2.521 . S
O100 C82 1.261 . S
O101 La80 2.628 . S
O101 C82 1.243 . S
O102 La80 2.554 . S
O102 C89 1.240 . S
O103 La80 2.757 . S
O103 La81 2.482 . S
O103 C89 1.289 . S
O104 La80 2.470 . S
O104 C90 1.258 . S
O105 La81 2.503 . S
O105 C90 1.256 . S
O106 La81 2.521 . S
O106 C91 1.261 . S
O107 La81 2.628 . S
O107 C91 1.243 . S
O108 La81 2.554 . S
O108 C98 1.240 . S
O109 La80 2.482 . S
O109 La81 2.757 . S
O109 C98 1.289 . S
O110 La81 2.470 . S
O110 C99 1.258 . S
O111 La80 2.503 . S
O111 C99 1.256 . S
H112 C84 0.930 . S
H113 C85 0.930 . S
H114 C87 0.929 . S
H115 C88 0.929 . S
H116 C93 0.930 . S
H117 C94 0.930 . S
H118 C96 0.929 . S
H119 C97 0.929 . S
La120 C122 2.928 1_554 S
La120 O140 2.517 1_554 S
La120 O141 2.628 1_554 S
La120 O142 2.554 . S
La120 O143 2.757 . S
La120 O144 2.470 1_554 S
La120 O149 2.482 . S
La120 O151 2.503 . S
La121 C131 2.928 . S
La121 O143 2.482 . S
La121 O145 2.503 1_554 S
La121 O146 2.521 . S
La121 O147 2.628 . S
La121 O148 2.554 . S
La121 O149 2.757 . S
La121 O150 2.470 . S
C122 La120 2.928 1_556 S
C122 C123 1.503 . S
C122 O140 1.269 . S
C122 O141 1.243 . S
C123 C122 1.503 . S
C123 C124 1.394 . S
C123 C128 1.373 . S
C124 C123 1.394 . S
C124 C125 1.380 1_545 S
C124 H152 0.930 . S
C125 C124 1.380 1_565 S
C125 C126 1.377 . S
C125 H153 0.930 . S
C126 C125 1.377 . S
C126 C127 1.355 1_565 S
C127 C126 1.355 1_545 S
C127 C128 1.396 . S
C127 H154 0.929 . S
C128 C123 1.373 . S
C128 C127 1.396 . S
C128 H155 0.929 . S
C129 O142 1.240 . S
C129 O143 1.289 . S
C130 O144 1.258 . S
C130 O145 1.256 . S
C131 La121 2.928 . S
C131 C132 1.503 . S
C131 O146 1.261 . S
C131 O147 1.243 . S
C132 C131 1.503 . S
C132 C133 1.394 . S
C132 C137 1.373 . S
C133 C132 1.394 . S
C133 C134 1.380 . S
C133 H156 0.930 . S
C134 C133 1.380 . S
C134 C135 1.376 . S
C134 H157 0.930 . S
C135 C134 1.376 . S
C135 C136 1.370 . S
C136 C135 1.370 . S
C136 C137 1.396 . S
C136 H158 0.929 . S
C137 C132 1.373 . S
C137 C136 1.396 . S
C137 H159 0.929 . S
C138 O148 1.240 . S
C138 O149 1.289 . S
C139 O150 1.258 . S
C139 O151 1.256 . S
O140 La120 2.517 1_556 S
O140 C122 1.269 . S
O141 La120 2.628 1_556 S
O141 C122 1.243 . S
O142 La120 2.554 . S
O142 C129 1.240 . S
O143 La120 2.757 . S
O143 La121 2.482 . S
O143 C129 1.289 . S
O144 La120 2.470 1_556 S
O144 C130 1.258 . S
O145 La121 2.503 1_556 S
O145 C130 1.256 . S
O146 La121 2.521 . S
O146 C131 1.261 . S
O147 La121 2.628 . S
O147 C131 1.243 . S
O148 La121 2.554 . S
O148 C138 1.240 . S
O149 La120 2.482 . S
O149 La121 2.757 . S
O149 C138 1.289 . S
O150 La121 2.470 . S
O150 C139 1.258 . S
O151 La120 2.503 . S
O151 C139 1.256 . S
H152 C124 0.930 . S
H153 C125 0.930 . S
H154 C127 0.929 . S
H155 C128 0.929 . S
H156 C133 0.930 . S
H157 C134 0.930 . S
H158 C136 0.929 . S
H159 C137 0.929 . S
La160 C162 2.928 . S
La160 O180 2.521 . S
La160 O181 2.628 . S
La160 O182 2.554 . S
La160 O183 2.757 . S
La160 O184 2.470 . S
La160 O189 2.482 . S
La160 O191 2.503 . S
La161 C171 2.928 . S
La161 O183 2.482 . S
La161 O185 2.503 . S
La161 O186 2.521 . S
La161 O187 2.628 . S
La161 O188 2.554 . S
La161 O189 2.757 . S
La161 O190 2.470 . S
C162 La160 2.928 . S
C162 C163 1.503 . S
C162 O180 1.261 . S
C162 O181 1.243 . S
C163 C162 1.503 . S
C163 C164 1.394 . S
C163 C168 1.373 . S
C164 C163 1.394 . S
C164 C165 1.380 . S
C164 H192 0.930 . S
C165 C164 1.380 . S
C165 C166 1.376 . S
C165 H193 0.930 . S
C166 C165 1.376 . S
C166 C167 1.370 . S
C167 C166 1.370 . S
C167 C168 1.396 . S
C167 H194 0.929 . S
C168 C163 1.373 . S
C168 C167 1.396 . S
C168 H195 0.929 . S
C169 O182 1.240 . S
C169 O183 1.289 . S
C170 O184 1.258 . S
C170 O185 1.256 . S
C171 La161 2.928 . S
C171 C172 1.503 . S
C171 O186 1.261 . S
C171 O187 1.243 . S
C172 C171 1.503 . S
C172 C173 1.394 . S
C172 C177 1.373 . S
C173 C172 1.394 . S
C173 C174 1.380 . S
C173 H196 0.930 . S
C174 C173 1.380 . S
C174 C175 1.376 . S
C174 H197 0.930 1_455 S
C175 C174 1.376 . S
C175 C176 1.370 . S
C176 C175 1.370 . S
C176 C177 1.396 . S
C176 H198 0.929 . S
C177 C172 1.373 . S
C177 C176 1.396 . S
C177 H199 0.929 . S
C178 O188 1.240 . S
C178 O189 1.289 . S
C179 O190 1.258 . S
C179 O191 1.256 . S
O180 La160 2.521 . S
O180 C162 1.261 . S
O181 La160 2.628 . S
O181 C162 1.243 . S
O182 La160 2.554 . S
O182 C169 1.240 . S
O183 La160 2.757 . S
O183 La161 2.482 . S
O183 C169 1.289 . S
O184 La160 2.470 . S
O184 C170 1.258 . S
O185 La161 2.503 . S
O185 C170 1.256 . S
O186 La161 2.521 . S
O186 C171 1.261 . S
O187 La161 2.628 . S
O187 C171 1.243 . S
O188 La161 2.554 . S
O188 C178 1.240 . S
O189 La160 2.482 . S
O189 La161 2.757 . S
O189 C178 1.289 . S
O190 La161 2.470 . S
O190 C179 1.258 . S
O191 La160 2.503 . S
O191 C179 1.256 . S
H192 C164 0.930 . S
H193 C165 0.930 . S
H194 C167 0.929 . S
H195 C168 0.929 . S
H196 C173 0.930 . S
H197 C174 0.930 1_655 S
H198 C176 0.929 . S
H199 C177 0.929 . S
La200 C202 2.928 . S
La200 O220 2.521 . S
La200 O221 2.628 . S
La200 O222 2.554 . S
La200 O223 2.757 . S
La200 O224 2.470 . S
La200 O229 2.482 . S
La200 O231 2.503 . S
La201 C211 2.928 . S
La201 O223 2.482 . S
La201 O225 2.503 . S
La201 O226 2.521 . S
La201 O227 2.628 . S
La201 O228 2.554 . S
La201 O229 2.757 . S
La201 O230 2.470 . S
C202 La200 2.928 . S
C202 C203 1.503 . S
C202 O220 1.261 . S
C202 O221 1.243 . S
C203 C202 1.503 . S
C203 C204 1.394 . S
C203 C208 1.373 . S
C204 C203 1.394 . S
C204 C205 1.380 1_565 S
C204 H232 0.930 . S
C205 C204 1.380 1_545 S
C205 C206 1.377 . S
C205 H233 0.930 . S
C206 C205 1.377 . S
C206 C207 1.355 1_545 S
C207 C206 1.355 1_565 S
C207 C208 1.396 . S
C207 H234 0.929 . S
C208 C203 1.373 . S
C208 C207 1.396 . S
C208 H235 0.929 . S
C209 O222 1.240 . S
C209 O223 1.289 . S
C210 O224 1.258 . S
C210 O225 1.256 . S
C211 La201 2.928 . S
C211 C212 1.503 . S
C211 O226 1.261 . S
C211 O227 1.243 . S
C212 C211 1.503 . S
C212 C213 1.394 . S
C212 C217 1.373 . S
C213 C212 1.394 . S
C213 C214 1.380 . S
C213 H236 0.930 . S
C214 C213 1.380 . S
C214 C215 1.376 . S
C214 H237 0.930 . S
C215 C214 1.376 . S
C215 C216 1.370 . S
C216 C215 1.370 . S
C216 C217 1.396 . S
C216 H238 0.929 . S
C217 C212 1.373 . S
C217 C216 1.396 . S
C217 H239 0.929 . S
C218 O228 1.240 . S
C218 O229 1.289 . S
C219 O230 1.258 . S
C219 O231 1.256 . S
O220 La200 2.521 . S
O220 C202 1.261 . S
O221 La200 2.628 . S
O221 C202 1.243 . S
O222 La200 2.554 . S
O222 C209 1.240 . S
O223 La200 2.757 . S
O223 La201 2.482 . S
O223 C209 1.289 . S
O224 La200 2.470 . S
O224 C210 1.258 . S
O225 La201 2.503 . S
O225 C210 1.256 . S
O226 La201 2.521 . S
O226 C211 1.261 . S
O227 La201 2.628 . S
O227 C211 1.243 . S
O228 La201 2.554 . S
O228 C218 1.240 . S
O229 La200 2.482 . S
O229 La201 2.757 . S
O229 C218 1.289 . S
O230 La201 2.470 . S
O230 C219 1.258 . S
O231 La200 2.503 . S
O231 C219 1.256 . S
H232 C204 0.930 . S
H233 C205 0.930 . S
H234 C207 0.929 . S
H235 C208 0.929 . S
H236 C213 0.930 . S
H237 C214 0.930 . S
H238 C216 0.929 . S
H239 C217 0.929 . S
La240 C242 2.928 . S
La240 O260 2.521 . S
La240 O261 2.628 . S
La240 O262 2.554 . S
La240 O263 2.757 . S
La240 O264 2.470 . S
La240 O269 2.482 . S
La240 O271 2.503 . S
La241 C251 2.928 . S
La241 O263 2.482 . S
La241 O265 2.503 . S
La241 O266 2.521 . S
La241 O267 2.628 . S
La241 O268 2.554 . S
La241 O269 2.757 . S
La241 O270 2.470 . S
C242 La240 2.928 . S
C242 C243 1.503 . S
C242 O260 1.261 . S
C242 O261 1.243 . S
C243 C242 1.503 . S
C243 C244 1.394 . S
C243 C248 1.373 . S
C244 C243 1.394 . S
C244 C245 1.380 . S
C244 H272 0.930 . S
C245 C244 1.380 . S
C245 C246 1.376 . S
C245 H273 0.930 . S
C246 C245 1.376 . S
C246 C247 1.370 . S
C247 C246 1.370 . S
C247 C248 1.396 . S
C247 H274 0.929 . S
C248 C243 1.373 . S
C248 C247 1.396 . S
C248 H275 0.929 . S
C249 O262 1.240 . S
C249 O263 1.289 . S
C250 O264 1.258 . S
C250 O265 1.256 . S
C251 La241 2.928 . S
C251 C252 1.503 . S
C251 O266 1.261 . S
C251 O267 1.243 . S
C252 C251 1.503 . S
C252 C253 1.394 . S
C252 C257 1.373 . S
C253 C252 1.394 . S
C253 C254 1.380 . S
C253 H276 0.930 . S
C254 C253 1.380 . S
C254 C255 1.376 . S
C254 H277 0.930 . S
C255 C254 1.376 . S
C255 C256 1.370 . S
C256 C255 1.370 . S
C256 C257 1.396 . S
C256 H278 0.929 . S
C257 C252 1.373 . S
C257 C256 1.396 . S
C257 H279 0.929 . S
C258 O268 1.240 . S
C258 O269 1.289 . S
C259 O270 1.258 . S
C259 O271 1.256 . S
O260 La240 2.521 . S
O260 C242 1.261 . S
O261 La240 2.628 . S
O261 C242 1.243 . S
O262 La240 2.554 . S
O262 C249 1.240 . S
O263 La240 2.757 . S
O263 La241 2.482 . S
O263 C249 1.289 . S
O264 La240 2.470 . S
O264 C250 1.258 . S
O265 La241 2.503 . S
O265 C250 1.256 . S
O266 La241 2.521 . S
O266 C251 1.261 . S
O267 La241 2.628 . S
O267 C251 1.243 . S
O268 La241 2.554 . S
O268 C258 1.240 . S
O269 La240 2.482 . S
O269 La241 2.757 . S
O269 C258 1.289 . S
O270 La241 2.470 . S
O270 C259 1.258 . S
O271 La240 2.503 . S
O271 C259 1.256 . S
H272 C244 0.930 . S
H273 C245 0.930 . S
H274 C247 0.929 . S
H275 C248 0.929 . S
H276 C253 0.930 . S
H277 C254 0.930 . S
H278 C256 0.929 . S
H279 C257 0.929 . S
La280 C282 2.928 1_556 S
La280 O300 2.517 1_556 S
La280 O301 2.628 1_556 S
La280 O302 2.554 . S
La280 O303 2.757 . S
La280 O304 2.470 1_556 S
La280 O309 2.482 . S
La280 O311 2.503 . S
La281 C291 2.928 . S
La281 O303 2.482 . S
La281 O305 2.503 1_556 S
La281 O306 2.521 . S
La281 O307 2.628 . S
La281 O308 2.554 . S
La281 O309 2.757 . S
La281 O310 2.470 . S
C282 La280 2.928 1_554 S
C282 C283 1.503 . S
C282 O300 1.269 . S
C282 O301 1.243 . S
C283 C282 1.503 . S
C283 C284 1.394 . S
C283 C288 1.373 . S
C284 C283 1.394 . S
C284 C285 1.380 1_545 S
C284 H312 0.930 . S
C285 C284 1.380 1_565 S
C285 C286 1.377 . S
C285 H313 0.930 . S
C286 C285 1.377 . S
C286 C287 1.355 1_565 S
C287 C286 1.355 1_545 S
C287 C288 1.396 . S
C287 H314 0.929 . S
C288 C283 1.373 . S
C288 C287 1.396 . S
C288 H315 0.929 . S
C289 O302 1.240 . S
C289 O303 1.289 . S
C290 O304 1.258 . S
C290 O305 1.256 . S
C291 La281 2.928 . S
C291 C292 1.503 . S
C291 O306 1.261 . S
C291 O307 1.243 . S
C292 C291 1.503 . S
C292 C293 1.394 . S
C292 C297 1.373 . S
C293 C292 1.394 . S
C293 C294 1.380 . S
C293 H316 0.930 . S
C294 C293 1.380 . S
C294 C295 1.376 . S
C294 H317 0.930 . S
C295 C294 1.376 . S
C295 C296 1.370 . S
C296 C295 1.370 . S
C296 C297 1.396 . S
C296 H318 0.929 . S
C297 C292 1.373 . S
C297 C296 1.396 . S
C297 H319 0.929 . S
C298 O308 1.240 . S
C298 O309 1.289 . S
C299 O310 1.258 . S
C299 O311 1.256 . S
O300 La280 2.517 1_554 S
O300 C282 1.269 . S
O301 La280 2.628 1_554 S
O301 C282 1.243 . S
O302 La280 2.554 . S
O302 C289 1.240 . S
O303 La280 2.757 . S
O303 La281 2.482 . S
O303 C289 1.289 . S
O304 La280 2.470 1_554 S
O304 C290 1.258 . S
O305 La281 2.503 1_554 S
O305 C290 1.256 . S
O306 La281 2.521 . S
O306 C291 1.261 . S
O307 La281 2.628 . S
O307 C291 1.243 . S
O308 La281 2.554 . S
O308 C298 1.240 . S
O309 La280 2.482 . S
O309 La281 2.757 . S
O309 C298 1.289 . S
O310 La281 2.470 . S
O310 C299 1.258 . S
O311 La280 2.503 . S
O311 C299 1.256 . S
H312 C284 0.930 . S
H313 C285 0.930 . S
H314 C287 0.929 . S
H315 C288 0.929 . S
H316 C293 0.930 . S
H317 C294 0.930 . S
H318 C296 0.929 . S
H319 C297 0.929 . S
La320 C322 2.928 . S
La320 O340 2.521 . S
La320 O341 2.628 . S
La320 O342 2.554 . S
La320 O343 2.757 . S
La320 O344 2.470 . S
La320 O349 2.482 . S
La320 O351 2.503 . S
La321 C331 2.928 . S
La321 O343 2.482 . S
La321 O345 2.503 . S
La321 O346 2.521 . S
La321 O347 2.628 . S
La321 O348 2.554 . S
La321 O349 2.757 . S
La321 O350 2.470 . S
C322 La320 2.928 . S
C322 C323 1.503 . S
C322 O340 1.261 . S
C322 O341 1.243 . S
C323 C322 1.503 . S
C323 C324 1.394 . S
C323 C328 1.373 . S
C324 C323 1.394 . S
C324 C325 1.380 . S
C324 H352 0.930 . S
C325 C324 1.380 . S
C325 C326 1.376 . S
C325 H353 0.930 1_655 S
C326 C325 1.376 . S
C326 C327 1.370 . S
C327 C326 1.370 . S
C327 C328 1.396 . S
C327 H354 0.929 . S
C328 C323 1.373 . S
C328 C327 1.396 . S
C328 H355 0.929 . S
C329 O342 1.240 . S
C329 O343 1.289 . S
C330 O344 1.258 . S
C330 O345 1.256 . S
C331 La321 2.928 . S
C331 C332 1.503 . S
C331 O346 1.261 . S
C331 O347 1.243 . S
C332 C331 1.503 . S
C332 C333 1.394 . S
C332 C337 1.373 . S
C333 C332 1.394 . S
C333 C334 1.380 . S
C333 H356 0.930 . S
C334 C333 1.380 . S
C334 C335 1.376 . S
C334 H357 0.930 . S
C335 C334 1.376 . S
C335 C336 1.370 . S
C336 C335 1.370 . S
C336 C337 1.396 . S
C336 H358 0.929 . S
C337 C332 1.373 . S
C337 C336 1.396 . S
C337 H359 0.929 . S
C338 O348 1.240 . S
C338 O349 1.289 . S
C339 O350 1.258 . S
C339 O351 1.256 . S
O340 La320 2.521 . S
O340 C322 1.261 . S
O341 La320 2.628 . S
O341 C322 1.243 . S
O342 La320 2.554 . S
O342 C329 1.240 . S
O343 La320 2.757 . S
O343 La321 2.482 . S
O343 C329 1.289 . S
O344 La320 2.470 . S
O344 C330 1.258 . S
O345 La321 2.503 . S
O345 C330 1.256 . S
O346 La321 2.521 . S
O346 C331 1.261 . S
O347 La321 2.628 . S
O347 C331 1.243 . S
O348 La321 2.554 . S
O348 C338 1.240 . S
O349 La320 2.482 . S
O349 La321 2.757 . S
O349 C338 1.289 . S
O350 La321 2.470 . S
O350 C339 1.258 . S
O351 La320 2.503 . S
O351 C339 1.256 . S
H352 C324 0.930 . S
H353 C325 0.930 1_455 S
H354 C327 0.929 . S
H355 C328 0.929 . S
H356 C333 0.930 . S
H357 C334 0.930 . S
H358 C336 0.929 . S
H359 C337 0.929 . S
La360 C362 2.928 . S
La360 O380 2.521 . S
La360 O381 2.628 . S
La360 O382 2.554 . S
La360 O383 2.757 . S
La360 O384 2.470 . S
La360 O389 2.482 . S
La360 O391 2.503 . S
La361 C371 2.928 . S
La361 O383 2.482 . S
La361 O385 2.503 . S
La361 O386 2.521 . S
La361 O387 2.628 . S
La361 O388 2.554 . S
La361 O389 2.757 . S
La361 O390 2.470 . S
C362 La360 2.928 . S
C362 C363 1.503 . S
C362 O380 1.261 . S
C362 O381 1.243 . S
C363 C362 1.503 . S
C363 C364 1.394 . S
C363 C368 1.373 . S
C364 C363 1.394 . S
C364 C365 1.380 . S
C364 H392 0.930 . S
C365 C364 1.380 . S
C365 C366 1.376 . S
C365 H393 0.930 . S
C366 C365 1.376 . S
C366 C367 1.370 . S
C367 C366 1.370 . S
C367 C368 1.396 . S
C367 H394 0.929 . S
C368 C363 1.373 . S
C368 C367 1.396 . S
C368 H395 0.929 . S
C369 O382 1.240 . S
C369 O383 1.289 . S
C370 O384 1.258 . S
C370 O385 1.256 . S
C371 La361 2.928 . S
C371 C372 1.503 . S
C371 O386 1.261 . S
C371 O387 1.243 . S
C372 C371 1.503 . S
C372 C373 1.394 . S
C372 C377 1.373 . S
C373 C372 1.394 . S
C373 C374 1.380 1_545 S
C373 H396 0.930 . S
C374 C373 1.380 1_565 S
C374 C375 1.377 . S
C374 H397 0.930 . S
C375 C374 1.377 . S
C375 C376 1.355 1_565 S
C376 C375 1.355 1_545 S
C376 C377 1.396 . S
C376 H398 0.929 . S
C377 C372 1.373 . S
C377 C376 1.396 . S
C377 H399 0.929 . S
C378 O388 1.240 . S
C378 O389 1.289 . S
C379 O390 1.258 . S
C379 O391 1.256 . S
O380 La360 2.521 . S
O380 C362 1.261 . S
O381 La360 2.628 . S
O381 C362 1.243 . S
O382 La360 2.554 . S
O382 C369 1.240 . S
O383 La360 2.757 . S
O383 La361 2.482 . S
O383 C369 1.289 . S
O384 La360 2.470 . S
O384 C370 1.258 . S
O385 La361 2.503 . S
O385 C370 1.256 . S
O386 La361 2.521 . S
O386 C371 1.261 . S
O387 La361 2.628 . S
O387 C371 1.243 . S
O388 La361 2.554 . S
O388 C378 1.240 . S
O389 La360 2.482 . S
O389 La361 2.757 . S
O389 C378 1.289 . S
O390 La361 2.470 . S
O390 C379 1.258 . S
O391 La360 2.503 . S
O391 C379 1.256 . S
H392 C364 0.930 . S
H393 C365 0.930 . S
H394 C367 0.929 . S
H395 C368 0.929 . S
H396 C373 0.930 . S
H397 C374 0.930 . S
H398 C376 0.929 . S
H399 C377 0.929 . S
La400 C402 2.928 . S
La400 O420 2.521 . S
La400 O421 2.628 . S
La400 O422 2.554 . S
La400 O423 2.757 . S
La400 O424 2.470 . S
La400 O429 2.482 . S
La400 O431 2.503 . S
La401 C411 2.928 . S
La401 O423 2.482 . S
La401 O425 2.503 . S
La401 O426 2.521 . S
La401 O427 2.628 . S
La401 O428 2.554 . S
La401 O429 2.757 . S
La401 O430 2.470 . S
C402 La400 2.928 . S
C402 C403 1.503 . S
C402 O420 1.261 . S
C402 O421 1.243 . S
C403 C402 1.503 . S
C403 C404 1.394 . S
C403 C408 1.373 . S
C404 C403 1.394 . S
C404 C405 1.380 . S
C404 H432 0.930 . S
C405 C404 1.380 . S
C405 C406 1.376 . S
C405 H433 0.930 . S
C406 C405 1.376 . S
C406 C407 1.370 . S
C407 C406 1.370 . S
C407 C408 1.396 . S
C407 H434 0.929 . S
C408 C403 1.373 . S
C408 C407 1.396 . S
C408 H435 0.929 . S
C409 O422 1.240 . S
C409 O423 1.289 . S
C410 O424 1.258 . S
C410 O425 1.256 . S
C411 La401 2.928 . S
C411 C412 1.503 . S
C411 O426 1.261 . S
C411 O427 1.243 . S
C412 C411 1.503 . S
C412 C413 1.394 . S
C412 C417 1.373 . S
C413 C412 1.394 . S
C413 C414 1.380 . S
C413 H436 0.930 . S
C414 C413 1.380 . S
C414 C415 1.376 . S
C414 H437 0.930 . S
C415 C414 1.376 . S
C415 C416 1.370 . S
C416 C415 1.370 . S
C416 C417 1.396 . S
C416 H438 0.929 . S
C417 C412 1.373 . S
C417 C416 1.396 . S
C417 H439 0.929 . S
C418 O428 1.240 . S
C418 O429 1.289 . S
C419 O430 1.258 . S
C419 O431 1.256 . S
O420 La400 2.521 . S
O420 C402 1.261 . S
O421 La400 2.628 . S
O421 C402 1.243 . S
O422 La400 2.554 . S
O422 C409 1.240 . S
O423 La400 2.757 . S
O423 La401 2.482 . S
O423 C409 1.289 . S
O424 La400 2.470 . S
O424 C410 1.258 . S
O425 La401 2.503 . S
O425 C410 1.256 . S
O426 La401 2.521 . S
O426 C411 1.261 . S
O427 La401 2.628 . S
O427 C411 1.243 . S
O428 La401 2.554 . S
O428 C418 1.240 . S
O429 La400 2.482 . S
O429 La401 2.757 . S
O429 C418 1.289 . S
O430 La401 2.470 . S
O430 C419 1.258 . S
O431 La400 2.503 . S
O431 C419 1.256 . S
H432 C404 0.930 . S
H433 C405 0.930 . S
H434 C407 0.929 . S
H435 C408 0.929 . S
H436 C413 0.930 . S
H437 C414 0.930 . S
H438 C416 0.929 . S
H439 C417 0.929 . S
La440 C442 2.928 . S
La440 O460 2.521 . S
La440 O461 2.628 . S
La440 O462 2.554 . S
La440 O463 2.757 . S
La440 O464 2.470 . S
La440 O469 2.482 . S
La440 O471 2.503 1_556 S
La441 C451 2.928 1_556 S
La441 O463 2.482 . S
La441 O465 2.503 . S
La441 O466 2.517 1_556 S
La441 O467 2.628 1_556 S
La441 O468 2.554 . S
La441 O469 2.757 . S
La441 O470 2.470 1_556 S
C442 La440 2.928 . S
C442 C443 1.503 . S
C442 O460 1.261 . S
C442 O461 1.243 . S
C443 C442 1.503 . S
C443 C444 1.394 . S
C443 C448 1.373 . S
C444 C443 1.394 . S
C444 C445 1.380 . S
C444 H472 0.930 . S
C445 C444 1.380 . S
C445 C446 1.376 . S
C445 H473 0.930 . S
C446 C445 1.376 . S
C446 C447 1.370 . S
C447 C446 1.370 . S
C447 C448 1.396 . S
C447 H474 0.929 . S
C448 C443 1.373 . S
C448 C447 1.396 . S
C448 H475 0.929 . S
C449 O462 1.240 . S
C449 O463 1.289 . S
C450 O464 1.258 . S
C450 O465 1.256 . S
C451 La441 2.928 1_554 S
C451 C452 1.503 . S
C451 O466 1.269 . S
C451 O467 1.243 . S
C452 C451 1.503 . S
C452 C453 1.394 . S
C452 C457 1.373 . S
C453 C452 1.394 . S
C453 C454 1.380 1_565 S
C453 H476 0.930 . S
C454 C453 1.380 1_545 S
C454 C455 1.377 . S
C454 H477 0.930 . S
C455 C454 1.377 . S
C455 C456 1.355 1_545 S
C456 C455 1.355 1_565 S
C456 C457 1.396 . S
C456 H478 0.929 . S
C457 C452 1.373 . S
C457 C456 1.396 . S
C457 H479 0.929 . S
C458 O468 1.240 . S
C458 O469 1.289 . S
C459 O470 1.258 . S
C459 O471 1.256 . S
O460 La440 2.521 . S
O460 C442 1.261 . S
O461 La440 2.628 . S
O461 C442 1.243 . S
O462 La440 2.554 . S
O462 C449 1.240 . S
O463 La440 2.757 . S
O463 La441 2.482 . S
O463 C449 1.289 . S
O464 La440 2.470 . S
O464 C450 1.258 . S
O465 La441 2.503 . S
O465 C450 1.256 . S
O466 La441 2.517 1_554 S
O466 C451 1.269 . S
O467 La441 2.628 1_554 S
O467 C451 1.243 . S
O468 La441 2.554 . S
O468 C458 1.240 . S
O469 La440 2.482 . S
O469 La441 2.757 . S
O469 C458 1.289 . S
O470 La441 2.470 1_554 S
O470 C459 1.258 . S
O471 La440 2.503 1_554 S
O471 C459 1.256 . S
H472 C444 0.930 . S
H473 C445 0.930 . S
H474 C447 0.929 . S
H475 C448 0.929 . S
H476 C453 0.930 . S
H477 C454 0.930 . S
H478 C456 0.929 . S
H479 C457 0.929 . S
La480 C482 2.928 . S
La480 O500 2.521 . S
La480 O501 2.628 . S
La480 O502 2.554 . S
La480 O503 2.757 . S
La480 O504 2.470 . S
La480 O509 2.482 . S
La480 O511 2.503 . S
La481 C491 2.928 . S
La481 O503 2.482 . S
La481 O505 2.503 . S
La481 O506 2.521 . S
La481 O507 2.628 . S
La481 O508 2.554 . S
La481 O509 2.757 . S
La481 O510 2.470 . S
C482 La480 2.928 . S
C482 C483 1.503 . S
C482 O500 1.261 . S
C482 O501 1.243 . S
C483 C482 1.503 . S
C483 C484 1.394 . S
C483 C488 1.373 . S
C484 C483 1.394 . S
C484 C485 1.380 . S
C484 H512 0.930 . S
C485 C484 1.380 . S
C485 C486 1.376 . S
C485 H513 0.930 1_655 S
C486 C485 1.376 . S
C486 C487 1.370 . S
C487 C486 1.370 . S
C487 C488 1.396 . S
C487 H514 0.929 . S
C488 C483 1.373 . S
C488 C487 1.396 . S
C488 H515 0.929 . S
C489 O502 1.240 . S
C489 O503 1.289 . S
C490 O504 1.258 . S
C490 O505 1.256 . S
C491 La481 2.928 . S
C491 C492 1.503 . S
C491 O506 1.261 . S
C491 O507 1.243 . S
C492 C491 1.503 . S
C492 C493 1.394 . S
C492 C497 1.373 . S
C493 C492 1.394 . S
C493 C494 1.380 . S
C493 H516 0.930 . S
C494 C493 1.380 . S
C494 C495 1.376 . S
C494 H517 0.930 . S
C495 C494 1.376 . S
C495 C496 1.370 . S
C496 C495 1.370 . S
C496 C497 1.396 . S
C496 H518 0.929 . S
C497 C492 1.373 . S
C497 C496 1.396 . S
C497 H519 0.929 . S
C498 O508 1.240 . S
C498 O509 1.289 . S
C499 O510 1.258 . S
C499 O511 1.256 . S
O500 La480 2.521 . S
O500 C482 1.261 . S
O501 La480 2.628 . S
O501 C482 1.243 . S
O502 La480 2.554 . S
O502 C489 1.240 . S
O503 La480 2.757 . S
O503 La481 2.482 . S
O503 C489 1.289 . S
O504 La480 2.470 . S
O504 C490 1.258 . S
O505 La481 2.503 . S
O505 C490 1.256 . S
O506 La481 2.521 . S
O506 C491 1.261 . S
O507 La481 2.628 . S
O507 C491 1.243 . S
O508 La481 2.554 . S
O508 C498 1.240 . S
O509 La480 2.482 . S
O509 La481 2.757 . S
O509 C498 1.289 . S
O510 La481 2.470 . S
O510 C499 1.258 . S
O511 La480 2.503 . S
O511 C499 1.256 . S
H512 C484 0.930 . S
H513 C485 0.930 1_455 S
H514 C487 0.929 . S
H515 C488 0.929 . S
H516 C493 0.930 . S
H517 C494 0.930 . S
H518 C496 0.929 . S
H519 C497 0.929 . S
La520 C522 2.928 . S
La520 O540 2.521 . S
La520 O541 2.628 . S
La520 O542 2.554 . S
La520 O543 2.757 . S
La520 O544 2.470 . S
La520 O549 2.482 . S
La520 O551 2.503 . S
La521 C531 2.928 . S
La521 O543 2.482 . S
La521 O545 2.503 . S
La521 O546 2.521 . S
La521 O547 2.628 . S
La521 O548 2.554 . S
La521 O549 2.757 . S
La521 O550 2.470 . S
C522 La520 2.928 . S
C522 C523 1.503 . S
C522 O540 1.261 . S
C522 O541 1.243 . S
C523 C522 1.503 . S
C523 C524 1.394 . S
C523 C528 1.373 . S
C524 C523 1.394 . S
C524 C525 1.380 . S
C524 H552 0.930 . S
C525 C524 1.380 . S
C525 C526 1.376 . S
C525 H553 0.930 . S
C526 C525 1.376 . S
C526 C527 1.370 . S
C527 C526 1.370 . S
C527 C528 1.396 . S
C527 H554 0.929 . S
C528 C523 1.373 . S
C528 C527 1.396 . S
C528 H555 0.929 . S
C529 O542 1.240 . S
C529 O543 1.289 . S
C530 O544 1.258 . S
C530 O545 1.256 . S
C531 La521 2.928 . S
C531 C532 1.503 . S
C531 O546 1.261 . S
C531 O547 1.243 . S
C532 C531 1.503 . S
C532 C533 1.394 . S
C532 C537 1.373 . S
C533 C532 1.394 . S
C533 C534 1.380 1_545 S
C533 H556 0.930 . S
C534 C533 1.380 1_565 S
C534 C535 1.377 . S
C534 H557 0.930 . S
C535 C534 1.377 . S
C535 C536 1.355 1_565 S
C536 C535 1.355 1_545 S
C536 C537 1.396 . S
C536 H558 0.929 . S
C537 C532 1.373 . S
C537 C536 1.396 . S
C537 H559 0.929 . S
C538 O548 1.240 . S
C538 O549 1.289 . S
C539 O550 1.258 . S
C539 O551 1.256 . S
O540 La520 2.521 . S
O540 C522 1.261 . S
O541 La520 2.628 . S
O541 C522 1.243 . S
O542 La520 2.554 . S
O542 C529 1.240 . S
O543 La520 2.757 . S
O543 La521 2.482 . S
O543 C529 1.289 . S
O544 La520 2.470 . S
O544 C530 1.258 . S
O545 La521 2.503 . S
O545 C530 1.256 . S
O546 La521 2.521 . S
O546 C531 1.261 . S
O547 La521 2.628 . S
O547 C531 1.243 . S
O548 La521 2.554 . S
O548 C538 1.240 . S
O549 La520 2.482 . S
O549 La521 2.757 . S
O549 C538 1.289 . S
O550 La521 2.470 . S
O550 C539 1.258 . S
O551 La520 2.503 . S
O551 C539 1.256 . S
H552 C524 0.930 . S
H553 C525 0.930 . S
H554 C527 0.929 . S
H555 C528 0.929 . S
H556 C533 0.930 . S
H557 C534 0.930 . S
H558 C536 0.929 . S
H559 C537 0.929 . S
La560 C562 2.928 . S
La560 O580 2.521 . S
La560 O581 2.628 . S
La560 O582 2.554 . S
La560 O583 2.757 . S
La560 O584 2.470 . S
La560 O589 2.482 . S
La560 O591 2.503 . S
La561 C571 2.928 . S
La561 O583 2.482 . S
La561 O585 2.503 . S
La561 O586 2.521 . S
La561 O587 2.628 . S
La561 O588 2.554 . S
La561 O589 2.757 . S
La561 O590 2.470 . S
C562 La560 2.928 . S
C562 C563 1.503 . S
C562 O580 1.261 . S
C562 O581 1.243 . S
C563 C562 1.503 . S
C563 C564 1.394 . S
C563 C568 1.373 . S
C564 C563 1.394 . S
C564 C565 1.380 . S
C564 H592 0.930 . S
C565 C564 1.380 . S
C565 C566 1.376 . S
C565 H593 0.930 . S
C566 C565 1.376 . S
C566 C567 1.370 . S
C567 C566 1.370 . S
C567 C568 1.396 . S
C567 H594 0.929 . S
C568 C563 1.373 . S
C568 C567 1.396 . S
C568 H595 0.929 . S
C569 O582 1.240 . S
C569 O583 1.289 . S
C570 O584 1.258 . S
C570 O585 1.256 . S
C571 La561 2.928 . S
C571 C572 1.503 . S
C571 O586 1.261 . S
C571 O587 1.243 . S
C572 C571 1.503 . S
C572 C573 1.394 . S
C572 C577 1.373 . S
C573 C572 1.394 . S
C573 C574 1.380 . S
C573 H596 0.930 . S
C574 C573 1.380 . S
C574 C575 1.376 . S
C574 H597 0.930 . S
C575 C574 1.376 . S
C575 C576 1.370 . S
C576 C575 1.370 . S
C576 C577 1.396 . S
C576 H598 0.929 . S
C577 C572 1.373 . S
C577 C576 1.396 . S
C577 H599 0.929 . S
C578 O588 1.240 . S
C578 O589 1.289 . S
C579 O590 1.258 . S
C579 O591 1.256 . S
O580 La560 2.521 . S
O580 C562 1.261 . S
O581 La560 2.628 . S
O581 C562 1.243 . S
O582 La560 2.554 . S
O582 C569 1.240 . S
O583 La560 2.757 . S
O583 La561 2.482 . S
O583 C569 1.289 . S
O584 La560 2.470 . S
O584 C570 1.258 . S
O585 La561 2.503 . S
O585 C570 1.256 . S
O586 La561 2.521 . S
O586 C571 1.261 . S
O587 La561 2.628 . S
O587 C571 1.243 . S
O588 La561 2.554 . S
O588 C578 1.240 . S
O589 La560 2.482 . S
O589 La561 2.757 . S
O589 C578 1.289 . S
O590 La561 2.470 . S
O590 C579 1.258 . S
O591 La560 2.503 . S
O591 C579 1.256 . S
H592 C564 0.930 . S
H593 C565 0.930 . S
H594 C567 0.929 . S
H595 C568 0.929 . S
H596 C573 0.930 . S
H597 C574 0.930 . S
H598 C576 0.929 . S
H599 C577 0.929 . S
La600 C602 2.928 . S
La600 O620 2.521 . S
La600 O621 2.628 . S
La600 O622 2.554 . S
La600 O623 2.757 . S
La600 O624 2.470 . S
La600 O629 2.482 . S
La600 O631 2.503 1_554 S
La601 C611 2.928 1_554 S
La601 O623 2.482 . S
La601 O625 2.503 . S
La601 O626 2.517 1_554 S
La601 O627 2.628 1_554 S
La601 O628 2.554 . S
La601 O629 2.757 . S
La601 O630 2.470 1_554 S
C602 La600 2.928 . S
C602 C603 1.503 . S
C602 O620 1.261 . S
C602 O621 1.243 . S
C603 C602 1.503 . S
C603 C604 1.394 . S
C603 C608 1.373 . S
C604 C603 1.394 . S
C604 C605 1.380 . S
C604 H632 0.930 . S
C605 C604 1.380 . S
C605 C606 1.376 . S
C605 H633 0.930 . S
C606 C605 1.376 . S
C606 C607 1.370 . S
C607 C606 1.370 . S
C607 C608 1.396 . S
C607 H634 0.929 . S
C608 C603 1.373 . S
C608 C607 1.396 . S
C608 H635 0.929 . S
C609 O622 1.240 . S
C609 O623 1.289 . S
C610 O624 1.258 . S
C610 O625 1.256 . S
C611 La601 2.928 1_556 S
C611 C612 1.503 . S
C611 O626 1.269 . S
C611 O627 1.243 . S
C612 C611 1.503 . S
C612 C613 1.394 . S
C612 C617 1.373 . S
C613 C612 1.394 . S
C613 C614 1.380 1_565 S
C613 H636 0.930 . S
C614 C613 1.380 1_545 S
C614 C615 1.377 . S
C614 H637 0.930 . S
C615 C614 1.377 . S
C615 C616 1.355 1_545 S
C616 C615 1.355 1_565 S
C616 C617 1.396 . S
C616 H638 0.929 . S
C617 C612 1.373 . S
C617 C616 1.396 . S
C617 H639 0.929 . S
C618 O628 1.240 . S
C618 O629 1.289 . S
C619 O630 1.258 . S
C619 O631 1.256 . S
O620 La600 2.521 . S
O620 C602 1.261 . S
O621 La600 2.628 . S
O621 C602 1.243 . S
O622 La600 2.554 . S
O622 C609 1.240 . S
O623 La600 2.757 . S
O623 La601 2.482 . S
O623 C609 1.289 . S
O624 La600 2.470 . S
O624 C610 1.258 . S
O625 La601 2.503 . S
O625 C610 1.256 . S
O626 La601 2.517 1_556 S
O626 C611 1.269 . S
O627 La601 2.628 1_556 S
O627 C611 1.243 . S
O628 La601 2.554 . S
O628 C618 1.240 . S
O629 La600 2.482 . S
O629 La601 2.757 . S
O629 C618 1.289 . S
O630 La601 2.470 1_556 S
O630 C619 1.258 . S
O631 La600 2.503 1_556 S
O631 C619 1.256 . S
H632 C604 0.930 . S
H633 C605 0.930 . S
H634 C607 0.929 . S
H635 C608 0.929 . S
H636 C613 0.930 . S
H637 C614 0.930 . S
H638 C616 0.929 . S
H639 C617 0.929 . S
La640 C642 2.928 . S
La640 O660 2.521 . S
La640 O661 2.628 . S
La640 O662 2.554 . S
La640 O663 2.757 . S
La640 O664 2.470 . S
La640 O669 2.482 . S
La640 O671 2.503 . S
La641 C651 2.928 . S
La641 O663 2.482 . S
La641 O665 2.503 . S
La641 O666 2.521 . S
La641 O667 2.628 . S
La641 O668 2.554 . S
La641 O669 2.757 . S
La641 O670 2.470 . S
C642 La640 2.928 . S
C642 C643 1.503 . S
C642 O660 1.261 . S
C642 O661 1.243 . S
C643 C642 1.503 . S
C643 C644 1.394 . S
C643 C648 1.373 . S
C644 C643 1.394 . S
C644 C645 1.380 . S
C644 H672 0.930 . S
C645 C644 1.380 . S
C645 C646 1.376 . S
C645 H673 0.930 . S
C646 C645 1.376 . S
C646 C647 1.370 . S
C647 C646 1.370 . S
C647 C648 1.396 . S
C647 H674 0.929 . S
C648 C643 1.373 . S
C648 C647 1.396 . S
C648 H675 0.929 . S
C649 O662 1.240 . S
C649 O663 1.289 . S
C650 O664 1.258 . S
C650 O665 1.256 . S
C651 La641 2.928 . S
C651 C652 1.503 . S
C651 O666 1.261 . S
C651 O667 1.243 . S
C652 C651 1.503 . S
C652 C653 1.394 . S
C652 C657 1.373 . S
C653 C652 1.394 . S
C653 C654 1.380 . S
C653 H676 0.930 . S
C654 C653 1.380 . S
C654 C655 1.376 . S
C654 H677 0.930 . S
C655 C654 1.376 . S
C655 C656 1.370 . S
C656 C655 1.370 . S
C656 C657 1.396 . S
C656 H678 0.929 . S
C657 C652 1.373 . S
C657 C656 1.396 . S
C657 H679 0.929 . S
C658 O668 1.240 . S
C658 O669 1.289 . S
C659 O670 1.258 . S
C659 O671 1.256 . S
O660 La640 2.521 . S
O660 C642 1.261 . S
O661 La640 2.628 . S
O661 C642 1.243 . S
O662 La640 2.554 . S
O662 C649 1.240 . S
O663 La640 2.757 . S
O663 La641 2.482 . S
O663 C649 1.289 . S
O664 La640 2.470 . S
O664 C650 1.258 . S
O665 La641 2.503 . S
O665 C650 1.256 . S
O666 La641 2.521 . S
O666 C651 1.261 . S
O667 La641 2.628 . S
O667 C651 1.243 . S
O668 La641 2.554 . S
O668 C658 1.240 . S
O669 La640 2.482 . S
O669 La641 2.757 . S
O669 C658 1.289 . S
O670 La641 2.470 . S
O670 C659 1.258 . S
O671 La640 2.503 . S
O671 C659 1.256 . S
H672 C644 0.930 . S
H673 C645 0.930 . S
H674 C647 0.929 . S
H675 C648 0.929 . S
H676 C653 0.930 . S
H677 C654 0.930 . S
H678 C656 0.929 . S
H679 C657 0.929 . S
La680 C682 2.928 1_554 S
La680 O700 2.517 1_554 S
La680 O701 2.628 1_554 S
La680 O702 2.554 . S
La680 O703 2.757 . S
La680 O704 2.470 1_554 S
La680 O709 2.482 . S
La680 O711 2.503 . S
La681 C691 2.928 . S
La681 O703 2.482 . S
La681 O705 2.503 1_554 S
La681 O706 2.521 . S
La681 O707 2.628 . S
La681 O708 2.554 . S
La681 O709 2.757 . S
La681 O710 2.470 . S
C682 La680 2.928 1_556 S
C682 C683 1.503 . S
C682 O700 1.269 . S
C682 O701 1.243 . S
C683 C682 1.503 . S
C683 C684 1.394 . S
C683 C688 1.373 . S
C684 C683 1.394 . S
C684 C685 1.380 . S
C684 H712 0.930 . S
C685 C684 1.380 . S
C685 C686 1.376 . S
C685 H713 0.930 . S
C686 C685 1.376 . S
C686 C687 1.370 . S
C687 C686 1.370 . S
C687 C688 1.396 . S
C687 H714 0.929 . S
C688 C683 1.373 . S
C688 C687 1.396 . S
C688 H715 0.929 . S
C689 O702 1.240 . S
C689 O703 1.289 . S
C690 O704 1.258 . S
C690 O705 1.256 . S
C691 La681 2.928 . S
C691 C692 1.503 . S
C691 O706 1.261 . S
C691 O707 1.243 . S
C692 C691 1.503 . S
C692 C693 1.394 . S
C692 C697 1.373 . S
C693 C692 1.394 . S
C693 C694 1.380 . S
C693 H716 0.930 . S
C694 C693 1.380 . S
C694 C695 1.376 . S
C694 H717 0.930 . S
C695 C694 1.376 . S
C695 C696 1.370 . S
C696 C695 1.370 . S
C696 C697 1.396 . S
C696 H718 0.929 . S
C697 C692 1.373 . S
C697 C696 1.396 . S
C697 H719 0.929 . S
C698 O708 1.240 . S
C698 O709 1.289 . S
C699 O710 1.258 . S
C699 O711 1.256 . S
O700 La680 2.517 1_556 S
O700 C682 1.269 . S
O701 La680 2.628 1_556 S
O701 C682 1.243 . S
O702 La680 2.554 . S
O702 C689 1.240 . S
O703 La680 2.757 . S
O703 La681 2.482 . S
O703 C689 1.289 . S
O704 La680 2.470 1_556 S
O704 C690 1.258 . S
O705 La681 2.503 1_556 S
O705 C690 1.256 . S
O706 La681 2.521 . S
O706 C691 1.261 . S
O707 La681 2.628 . S
O707 C691 1.243 . S
O708 La681 2.554 . S
O708 C698 1.240 . S
O709 La680 2.482 . S
O709 La681 2.757 . S
O709 C698 1.289 . S
O710 La681 2.470 . S
O710 C699 1.258 . S
O711 La680 2.503 . S
O711 C699 1.256 . S
H712 C684 0.930 . S
H713 C685 0.930 . S
H714 C687 0.929 . S
H715 C688 0.929 . S
H716 C693 0.930 . S
H717 C694 0.930 . S
H718 C696 0.929 . S
H719 C697 0.929 . S
La720 C722 2.928 . S
La720 O740 2.521 . S
La720 O741 2.628 . S
La720 O742 2.554 . S
La720 O743 2.757 . S
La720 O744 2.470 . S
La720 O749 2.482 . S
La720 O751 2.503 . S
La721 C731 2.928 . S
La721 O743 2.482 . S
La721 O745 2.503 . S
La721 O746 2.521 . S
La721 O747 2.628 . S
La721 O748 2.554 . S
La721 O749 2.757 . S
La721 O750 2.470 . S
C722 La720 2.928 . S
C722 C723 1.503 . S
C722 O740 1.261 . S
C722 O741 1.243 . S
C723 C722 1.503 . S
C723 C724 1.394 . S
C723 C728 1.373 . S
C724 C723 1.394 . S
C724 C725 1.380 . S
C724 H752 0.930 . S
C725 C724 1.380 . S
C725 C726 1.376 . S
C725 H753 0.930 . S
C726 C725 1.376 . S
C726 C727 1.370 . S
C727 C726 1.370 . S
C727 C728 1.396 . S
C727 H754 0.929 . S
C728 C723 1.373 . S
C728 C727 1.396 . S
C728 H755 0.929 . S
C729 O742 1.240 . S
C729 O743 1.289 . S
C730 O744 1.258 . S
C730 O745 1.256 . S
C731 La721 2.928 . S
C731 C732 1.503 . S
C731 O746 1.261 . S
C731 O747 1.243 . S
C732 C731 1.503 . S
C732 C733 1.394 . S
C732 C737 1.373 . S
C733 C732 1.394 . S
C733 C734 1.380 . S
C733 H756 0.930 . S
C734 C733 1.380 . S
C734 C735 1.376 . S
C734 H757 0.930 1_655 S
C735 C734 1.376 . S
C735 C736 1.370 . S
C736 C735 1.370 . S
C736 C737 1.396 . S
C736 H758 0.929 . S
C737 C732 1.373 . S
C737 C736 1.396 . S
C737 H759 0.929 . S
C738 O748 1.240 . S
C738 O749 1.289 . S
C739 O750 1.258 . S
C739 O751 1.256 . S
O740 La720 2.521 . S
O740 C722 1.261 . S
O741 La720 2.628 . S
O741 C722 1.243 . S
O742 La720 2.554 . S
O742 C729 1.240 . S
O743 La720 2.757 . S
O743 La721 2.482 . S
O743 C729 1.289 . S
O744 La720 2.470 . S
O744 C730 1.258 . S
O745 La721 2.503 . S
O745 C730 1.256 . S
O746 La721 2.521 . S
O746 C731 1.261 . S
O747 La721 2.628 . S
O747 C731 1.243 . S
O748 La721 2.554 . S
O748 C738 1.240 . S
O749 La720 2.482 . S
O749 La721 2.757 . S
O749 C738 1.289 . S
O750 La721 2.470 . S
O750 C739 1.258 . S
O751 La720 2.503 . S
O751 C739 1.256 . S
H752 C724 0.930 . S
H753 C725 0.930 . S
H754 C727 0.929 . S
H755 C728 0.929 . S
H756 C733 0.930 . S
H757 C734 0.930 1_455 S
H758 C736 0.929 . S
H759 C737 0.929 . S
La760 C762 2.928 . S
La760 O780 2.521 . S
La760 O781 2.628 . S
La760 O782 2.554 . S
La760 O783 2.757 . S
La760 O784 2.470 . S
La760 O789 2.482 . S
La760 O791 2.503 . S
La761 C771 2.928 . S
La761 O783 2.482 . S
La761 O785 2.503 . S
La761 O786 2.521 . S
La761 O787 2.628 . S
La761 O788 2.554 . S
La761 O789 2.757 . S
La761 O790 2.470 . S
C762 La760 2.928 . S
C762 C763 1.503 . S
C762 O780 1.261 . S
C762 O781 1.243 . S
C763 C762 1.503 . S
C763 C764 1.394 . S
C763 C768 1.373 . S
C764 C763 1.394 . S
C764 C765 1.380 . S
C764 H792 0.930 . S
C765 C764 1.380 . S
C765 C766 1.376 . S
C765 H793 0.930 . S
C766 C765 1.376 . S
C766 C767 1.370 . S
C767 C766 1.370 . S
C767 C768 1.396 . S
C767 H794 0.929 . S
C768 C763 1.373 . S
C768 C767 1.396 . S
C768 H795 0.929 . S
C769 O782 1.240 . S
C769 O783 1.289 . S
C770 O784 1.258 . S
C770 O785 1.256 . S
C771 La761 2.928 . S
C771 C772 1.503 . S
C771 O786 1.261 . S
C771 O787 1.243 . S
C772 C771 1.503 . S
C772 C773 1.394 . S
C772 C777 1.373 . S
C773 C772 1.394 . S
C773 C774 1.380 . S
C773 H796 0.930 . S
C774 C773 1.380 . S
C774 C775 1.376 . S
C774 H797 0.930 . S
C775 C774 1.376 . S
C775 C776 1.370 . S
C776 C775 1.370 . S
C776 C777 1.396 . S
C776 H798 0.929 . S
C777 C772 1.373 . S
C777 C776 1.396 . S
C777 H799 0.929 . S
C778 O788 1.240 . S
C778 O789 1.289 . S
C779 O790 1.258 . S
C779 O791 1.256 . S
O780 La760 2.521 . S
O780 C762 1.261 . S
O781 La760 2.628 . S
O781 C762 1.243 . S
O782 La760 2.554 . S
O782 C769 1.240 . S
O783 La760 2.757 . S
O783 La761 2.482 . S
O783 C769 1.289 . S
O784 La760 2.470 . S
O784 C770 1.258 . S
O785 La761 2.503 . S
O785 C770 1.256 . S
O786 La761 2.521 . S
O786 C771 1.261 . S
O787 La761 2.628 . S
O787 C771 1.243 . S
O788 La761 2.554 . S
O788 C778 1.240 . S
O789 La760 2.482 . S
O789 La761 2.757 . S
O789 C778 1.289 . S
O790 La761 2.470 . S
O790 C779 1.258 . S
O791 La760 2.503 . S
O791 C779 1.256 . S
H792 C764 0.930 . S
H793 C765 0.930 . S
H794 C767 0.929 . S
H795 C768 0.929 . S
H796 C773 0.930 . S
H797 C774 0.930 . S
H798 C776 0.929 . S
H799 C777 0.929 . S
La800 C802 2.928 . S
La800 O820 2.521 . S
La800 O821 2.628 . S
La800 O822 2.554 . S
La800 O823 2.757 . S
La800 O824 2.470 . S
La800 O829 2.482 . S
La800 O831 2.503 . S
La801 C811 2.928 . S
La801 O823 2.482 . S
La801 O825 2.503 . S
La801 O826 2.521 . S
La801 O827 2.628 . S
La801 O828 2.554 . S
La801 O829 2.757 . S
La801 O830 2.470 . S
C802 La800 2.928 . S
C802 C803 1.503 . S
C802 O820 1.261 . S
C802 O821 1.243 . S
C803 C802 1.503 . S
C803 C804 1.394 . S
C803 C808 1.373 . S
C804 C803 1.394 . S
C804 C805 1.380 . S
C804 H832 0.930 . S
C805 C804 1.380 . S
C805 C806 1.376 . S
C805 H833 0.930 . S
C806 C805 1.376 . S
C806 C807 1.370 . S
C807 C806 1.370 . S
C807 C808 1.396 . S
C807 H834 0.929 . S
C808 C803 1.373 . S
C808 C807 1.396 . S
C808 H835 0.929 . S
C809 O822 1.240 . S
C809 O823 1.289 . S
C810 O824 1.258 . S
C810 O825 1.256 . S
C811 La801 2.928 . S
C811 C812 1.503 . S
C811 O826 1.261 . S
C811 O827 1.243 . S
C812 C811 1.503 . S
C812 C813 1.394 . S
C812 C817 1.373 . S
C813 C812 1.394 . S
C813 C814 1.380 . S
C813 H836 0.930 . S
C814 C813 1.380 . S
C814 C815 1.376 . S
C814 H837 0.930 . S
C815 C814 1.376 . S
C815 C816 1.370 . S
C816 C815 1.370 . S
C816 C817 1.396 . S
C816 H838 0.929 . S
C817 C812 1.373 . S
C817 C816 1.396 . S
C817 H839 0.929 . S
C818 O828 1.240 . S
C818 O829 1.289 . S
C819 O830 1.258 . S
C819 O831 1.256 . S
O820 La800 2.521 . S
O820 C802 1.261 . S
O821 La800 2.628 . S
O821 C802 1.243 . S
O822 La800 2.554 . S
O822 C809 1.240 . S
O823 La800 2.757 . S
O823 La801 2.482 . S
O823 C809 1.289 . S
O824 La800 2.470 . S
O824 C810 1.258 . S
O825 La801 2.503 . S
O825 C810 1.256 . S
O826 La801 2.521 . S
O826 C811 1.261 . S
O827 La801 2.628 . S
O827 C811 1.243 . S
O828 La801 2.554 . S
O828 C818 1.240 . S
O829 La800 2.482 . S
O829 La801 2.757 . S
O829 C818 1.289 . S
O830 La801 2.470 . S
O830 C819 1.258 . S
O831 La800 2.503 . S
O831 C819 1.256 . S
H832 C804 0.930 . S
H833 C805 0.930 . S
H834 C807 0.929 . S
H835 C808 0.929 . S
H836 C813 0.930 . S
H837 C814 0.930 . S
H838 C816 0.929 . S
H839 C817 0.929 . S
La840 C842 2.928 1_556 S
La840 O860 2.517 1_556 S
La840 O861 2.628 1_556 S
La840 O862 2.554 . S
La840 O863 2.757 . S
La840 O864 2.470 1_556 S
La840 O869 2.482 . S
La840 O871 2.503 . S
La841 C851 2.928 . S
La841 O863 2.482 . S
La841 O865 2.503 1_556 S
La841 O866 2.521 . S
La841 O867 2.628 . S
La841 O868 2.554 . S
La841 O869 2.757 . S
La841 O870 2.470 . S
C842 La840 2.928 1_554 S
C842 C843 1.503 . S
C842 O860 1.269 . S
C842 O861 1.243 . S
C843 C842 1.503 . S
C843 C844 1.394 . S
C843 C848 1.373 . S
C844 C843 1.394 . S
C844 C845 1.380 . S
C844 H872 0.930 . S
C845 C844 1.380 . S
C845 C846 1.376 . S
C845 H873 0.930 . S
C846 C845 1.376 . S
C846 C847 1.370 . S
C847 C846 1.370 . S
C847 C848 1.396 . S
C847 H874 0.929 . S
C848 C843 1.373 . S
C848 C847 1.396 . S
C848 H875 0.929 . S
C849 O862 1.240 . S
C849 O863 1.289 . S
C850 O864 1.258 . S
C850 O865 1.256 . S
C851 La841 2.928 . S
C851 C852 1.503 . S
C851 O866 1.261 . S
C851 O867 1.243 . S
C852 C851 1.503 . S
C852 C853 1.394 . S
C852 C857 1.373 . S
C853 C852 1.394 . S
C853 C854 1.380 . S
C853 H876 0.930 . S
C854 C853 1.380 . S
C854 C855 1.376 . S
C854 H877 0.930 . S
C855 C854 1.376 . S
C855 C856 1.370 . S
C856 C855 1.370 . S
C856 C857 1.396 . S
C856 H878 0.929 . S
C857 C852 1.373 . S
C857 C856 1.396 . S
C857 H879 0.929 . S
C858 O868 1.240 . S
C858 O869 1.289 . S
C859 O870 1.258 . S
C859 O871 1.256 . S
O860 La840 2.517 1_554 S
O860 C842 1.269 . S
O861 La840 2.628 1_554 S
O861 C842 1.243 . S
O862 La840 2.554 . S
O862 C849 1.240 . S
O863 La840 2.757 . S
O863 La841 2.482 . S
O863 C849 1.289 . S
O864 La840 2.470 1_554 S
O864 C850 1.258 . S
O865 La841 2.503 1_554 S
O865 C850 1.256 . S
O866 La841 2.521 . S
O866 C851 1.261 . S
O867 La841 2.628 . S
O867 C851 1.243 . S
O868 La841 2.554 . S
O868 C858 1.240 . S
O869 La840 2.482 . S
O869 La841 2.757 . S
O869 C858 1.289 . S
O870 La841 2.470 . S
O870 C859 1.258 . S
O871 La840 2.503 . S
O871 C859 1.256 . S
H872 C844 0.930 . S
H873 C845 0.930 . S
H874 C847 0.929 . S
H875 C848 0.929 . S
H876 C853 0.930 . S
H877 C854 0.930 . S
H878 C856 0.929 . S
H879 C857 0.929 . S
La880 C882 2.928 . S
La880 O900 2.521 . S
La880 O901 2.628 . S
La880 O902 2.554 . S
La880 O903 2.757 . S
La880 O904 2.470 . S
La880 O909 2.482 . S
La880 O911 2.503 . S
La881 C891 2.928 . S
La881 O903 2.482 . S
La881 O905 2.503 . S
La881 O906 2.521 . S
La881 O907 2.628 . S
La881 O908 2.554 . S
La881 O909 2.757 . S
La881 O910 2.470 . S
C882 La880 2.928 . S
C882 C883 1.503 . S
C882 O900 1.261 . S
C882 O901 1.243 . S
C883 C882 1.503 . S
C883 C884 1.394 . S
C883 C888 1.373 . S
C884 C883 1.394 . S
C884 C885 1.380 . S
C884 H912 0.930 . S
C885 C884 1.380 . S
C885 C886 1.376 . S
C885 H913 0.930 . S
C886 C885 1.376 . S
C886 C887 1.370 . S
C887 C886 1.370 . S
C887 C888 1.396 . S
C887 H914 0.929 . S
C888 C883 1.373 . S
C888 C887 1.396 . S
C888 H915 0.929 . S
C889 O902 1.240 . S
C889 O903 1.289 . S
C890 O904 1.258 . S
C890 O905 1.256 . S
C891 La881 2.928 . S
C891 C892 1.503 . S
C891 O906 1.261 . S
C891 O907 1.243 . S
C892 C891 1.503 . S
C892 C893 1.394 . S
C892 C897 1.373 . S
C893 C892 1.394 . S
C893 C894 1.380 . S
C893 H916 0.930 . S
C894 C893 1.380 . S
C894 C895 1.376 . S
C894 H917 0.930 1_655 S
C895 C894 1.376 . S
C895 C896 1.370 . S
C896 C895 1.370 . S
C896 C897 1.396 . S
C896 H918 0.929 . S
C897 C892 1.373 . S
C897 C896 1.396 . S
C897 H919 0.929 . S
C898 O908 1.240 . S
C898 O909 1.289 . S
C899 O910 1.258 . S
C899 O911 1.256 . S
O900 La880 2.521 . S
O900 C882 1.261 . S
O901 La880 2.628 . S
O901 C882 1.243 . S
O902 La880 2.554 . S
O902 C889 1.240 . S
O903 La880 2.757 . S
O903 La881 2.482 . S
O903 C889 1.289 . S
O904 La880 2.470 . S
O904 C890 1.258 . S
O905 La881 2.503 . S
O905 C890 1.256 . S
O906 La881 2.521 . S
O906 C891 1.261 . S
O907 La881 2.628 . S
O907 C891 1.243 . S
O908 La881 2.554 . S
O908 C898 1.240 . S
O909 La880 2.482 . S
O909 La881 2.757 . S
O909 C898 1.289 . S
O910 La881 2.470 . S
O910 C899 1.258 . S
O911 La880 2.503 . S
O911 C899 1.256 . S
H912 C884 0.930 . S
H913 C885 0.930 . S
H914 C887 0.929 . S
H915 C888 0.929 . S
H916 C893 0.930 . S
H917 C894 0.930 1_455 S
H918 C896 0.929 . S
H919 C897 0.929 . S
La920 C922 2.928 . S
La920 O940 2.521 . S
La920 O941 2.628 . S
La920 O942 2.554 . S
La920 O943 2.757 . S
La920 O944 2.470 . S
La920 O949 2.482 . S
La920 O951 2.503 . S
La921 C931 2.928 . S
La921 O943 2.482 . S
La921 O945 2.503 . S
La921 O946 2.521 . S
La921 O947 2.628 . S
La921 O948 2.554 . S
La921 O949 2.757 . S
La921 O950 2.470 . S
C922 La920 2.928 . S
C922 C923 1.503 . S
C922 O940 1.261 . S
C922 O941 1.243 . S
C923 C922 1.503 . S
C923 C924 1.394 . S
C923 C928 1.373 . S
C924 C923 1.394 . S
C924 C925 1.380 . S
C924 H952 0.930 . S
C925 C924 1.380 . S
C925 C926 1.376 . S
C925 H953 0.930 . S
C926 C925 1.376 . S
C926 C927 1.370 . S
C927 C926 1.370 . S
C927 C928 1.396 . S
C927 H954 0.929 . S
C928 C923 1.373 . S
C928 C927 1.396 . S
C928 H955 0.929 . S
C929 O942 1.240 . S
C929 O943 1.289 . S
C930 O944 1.258 . S
C930 O945 1.256 . S
C931 La921 2.928 . S
C931 C932 1.503 . S
C931 O946 1.261 . S
C931 O947 1.243 . S
C932 C931 1.503 . S
C932 C933 1.394 . S
C932 C937 1.373 . S
C933 C932 1.394 . S
C933 C934 1.380 . S
C933 H956 0.930 . S
C934 C933 1.380 . S
C934 C935 1.376 . S
C934 H957 0.930 . S
C935 C934 1.376 . S
C935 C936 1.370 . S
C936 C935 1.370 . S
C936 C937 1.396 . S
C936 H958 0.929 . S
C937 C932 1.373 . S
C937 C936 1.396 . S
C937 H959 0.929 . S
C938 O948 1.240 . S
C938 O949 1.289 . S
C939 O950 1.258 . S
C939 O951 1.256 . S
O940 La920 2.521 . S
O940 C922 1.261 . S
O941 La920 2.628 . S
O941 C922 1.243 . S
O942 La920 2.554 . S
O942 C929 1.240 . S
O943 La920 2.757 . S
O943 La921 2.482 . S
O943 C929 1.289 . S
O944 La920 2.470 . S
O944 C930 1.258 . S
O945 La921 2.503 . S
O945 C930 1.256 . S
O946 La921 2.521 . S
O946 C931 1.261 . S
O947 La921 2.628 . S
O947 C931 1.243 . S
O948 La921 2.554 . S
O948 C938 1.240 . S
O949 La920 2.482 . S
O949 La921 2.757 . S
O949 C938 1.289 . S
O950 La921 2.470 . S
O950 C939 1.258 . S
O951 La920 2.503 . S
O951 C939 1.256 . S
H952 C924 0.930 . S
H953 C925 0.930 . S
H954 C927 0.929 . S
H955 C928 0.929 . S
H956 C933 0.930 . S
H957 C934 0.930 . S
H958 C936 0.929 . S
H959 C937 0.929 . S
La960 C962 2.928 . S
La960 O980 2.521 . S
La960 O981 2.628 . S
La960 O982 2.554 . S
La960 O983 2.757 . S
La960 O984 2.470 . S
La960 O989 2.482 . S
La960 O991 2.503 . S
La961 C971 2.928 . S
La961 O983 2.482 . S
La961 O985 2.503 . S
La961 O986 2.521 . S
La961 O987 2.628 . S
La961 O988 2.554 . S
La961 O989 2.757 . S
La961 O990 2.470 . S
C962 La960 2.928 . S
C962 C963 1.503 . S
C962 O980 1.261 . S
C962 O981 1.243 . S
C963 C962 1.503 . S
C963 C964 1.394 . S
C963 C968 1.373 . S
C964 C963 1.394 . S
C964 C965 1.380 . S
C964 H992 0.930 . S
C965 C964 1.380 . S
C965 C966 1.376 . S
C965 H993 0.930 . S
C966 C965 1.376 . S
C966 C967 1.370 . S
C967 C966 1.370 . S
C967 C968 1.396 . S
C967 H994 0.929 . S
C968 C963 1.373 . S
C968 C967 1.396 . S
C968 H995 0.929 . S
C969 O982 1.240 . S
C969 O983 1.289 . S
C970 O984 1.258 . S
C970 O985 1.256 . S
C971 La961 2.928 . S
C971 C972 1.503 . S
C971 O986 1.261 . S
C971 O987 1.243 . S
C972 C971 1.503 . S
C972 C973 1.394 . S
C972 C977 1.373 . S
C973 C972 1.394 . S
C973 C974 1.380 . S
C973 H996 0.930 . S
C974 C973 1.380 . S
C974 C975 1.376 . S
C974 H997 0.930 . S
C975 C974 1.376 . S
C975 C976 1.370 . S
C976 C975 1.370 . S
C976 C977 1.396 . S
C976 H998 0.929 . S
C977 C972 1.373 . S
C977 C976 1.396 . S
C977 H999 0.929 . S
C978 O988 1.240 . S
C978 O989 1.289 . S
C979 O990 1.258 . S
C979 O991 1.256 . S
O980 La960 2.521 . S
O980 C962 1.261 . S
O981 La960 2.628 . S
O981 C962 1.243 . S
O982 La960 2.554 . S
O982 C969 1.240 . S
O983 La960 2.757 . S
O983 La961 2.482 . S
O983 C969 1.289 . S
O984 La960 2.470 . S
O984 C970 1.258 . S
O985 La961 2.503 . S
O985 C970 1.256 . S
O986 La961 2.521 . S
O986 C971 1.261 . S
O987 La961 2.628 . S
O987 C971 1.243 . S
O988 La961 2.554 . S
O988 C978 1.240 . S
O989 La960 2.482 . S
O989 La961 2.757 . S
O989 C978 1.289 . S
O990 La961 2.470 . S
O990 C979 1.258 . S
O991 La960 2.503 . S
O991 C979 1.256 . S
H992 C964 0.930 . S
H993 C965 0.930 . S
H994 C967 0.929 . S
H995 C968 0.929 . S
H996 C973 0.930 . S
H997 C974 0.930 . S
H998 C976 0.929 . S
H999 C977 0.929 . S
La1000 C1002 2.928 . S
La1000 O1020 2.521 . S
La1000 O1021 2.628 . S
La1000 O1022 2.554 . S
La1000 O1023 2.757 . S
La1000 O1024 2.470 . S
La1000 O1029 2.482 . S
La1000 O1031 2.503 1_556 S
La1001 C1011 2.928 1_556 S
La1001 O1023 2.482 . S
La1001 O1025 2.503 . S
La1001 O1026 2.517 1_556 S
La1001 O1027 2.628 1_556 S
La1001 O1028 2.554 . S
La1001 O1029 2.757 . S
La1001 O1030 2.470 1_556 S
C1002 La1000 2.928 . S
C1002 C1003 1.503 . S
C1002 O1020 1.261 . S
C1002 O1021 1.243 . S
C1003 C1002 1.503 . S
C1003 C1004 1.394 . S
C1003 C1008 1.373 . S
C1004 C1003 1.394 . S
C1004 C1005 1.380 . S
C1004 H1032 0.930 . S
C1005 C1004 1.380 . S
C1005 C1006 1.376 . S
C1005 H1033 0.930 . S
C1006 C1005 1.376 . S
C1006 C1007 1.370 . S
C1007 C1006 1.370 . S
C1007 C1008 1.396 . S
C1007 H1034 0.929 . S
C1008 C1003 1.373 . S
C1008 C1007 1.396 . S
C1008 H1035 0.929 . S
C1009 O1022 1.240 . S
C1009 O1023 1.289 . S
C1010 O1024 1.258 . S
C1010 O1025 1.256 . S
C1011 La1001 2.928 1_554 S
C1011 C1012 1.503 . S
C1011 O1026 1.269 . S
C1011 O1027 1.243 . S
C1012 C1011 1.503 . S
C1012 C1013 1.394 . S
C1012 C1017 1.373 . S
C1013 C1012 1.394 . S
C1013 C1014 1.380 . S
C1013 H1036 0.930 . S
C1014 C1013 1.380 . S
C1014 C1015 1.376 . S
C1014 H1037 0.930 . S
C1015 C1014 1.376 . S
C1015 C1016 1.370 . S
C1016 C1015 1.370 . S
C1016 C1017 1.396 . S
C1016 H1038 0.929 . S
C1017 C1012 1.373 . S
C1017 C1016 1.396 . S
C1017 H1039 0.929 . S
C1018 O1028 1.240 . S
C1018 O1029 1.289 . S
C1019 O1030 1.258 . S
C1019 O1031 1.256 . S
O1020 La1000 2.521 . S
O1020 C1002 1.261 . S
O1021 La1000 2.628 . S
O1021 C1002 1.243 . S
O1022 La1000 2.554 . S
O1022 C1009 1.240 . S
O1023 La1000 2.757 . S
O1023 La1001 2.482 . S
O1023 C1009 1.289 . S
O1024 La1000 2.470 . S
O1024 C1010 1.258 . S
O1025 La1001 2.503 . S
O1025 C1010 1.256 . S
O1026 La1001 2.517 1_554 S
O1026 C1011 1.269 . S
O1027 La1001 2.628 1_554 S
O1027 C1011 1.243 . S
O1028 La1001 2.554 . S
O1028 C1018 1.240 . S
O1029 La1000 2.482 . S
O1029 La1001 2.757 . S
O1029 C1018 1.289 . S
O1030 La1001 2.470 1_554 S
O1030 C1019 1.258 . S
O1031 La1000 2.503 1_554 S
O1031 C1019 1.256 . S
H1032 C1004 0.930 . S
H1033 C1005 0.930 . S
H1034 C1007 0.929 . S
H1035 C1008 0.929 . S
H1036 C1013 0.930 . S
H1037 C1014 0.930 . S
H1038 C1016 0.929 . S
H1039 C1017 0.929 . S
La1040 C1042 2.928 . S
La1040 O1060 2.521 . S
La1040 O1061 2.628 . S
La1040 O1062 2.554 . S
La1040 O1063 2.757 . S
La1040 O1064 2.470 . S
La1040 O1069 2.482 . S
La1040 O1071 2.503 . S
La1041 C1051 2.928 . S
La1041 O1063 2.482 . S
La1041 O1065 2.503 . S
La1041 O1066 2.521 . S
La1041 O1067 2.628 . S
La1041 O1068 2.554 . S
La1041 O1069 2.757 . S
La1041 O1070 2.470 . S
C1042 La1040 2.928 . S
C1042 C1043 1.503 . S
C1042 O1060 1.261 . S
C1042 O1061 1.243 . S
C1043 C1042 1.503 . S
C1043 C1044 1.394 . S
C1043 C1048 1.373 . S
C1044 C1043 1.394 . S
C1044 C1045 1.380 . S
C1044 H1072 0.930 . S
C1045 C1044 1.380 . S
C1045 C1046 1.376 . S
C1045 H1073 0.930 1_455 S
C1046 C1045 1.376 . S
C1046 C1047 1.370 . S
C1047 C1046 1.370 . S
C1047 C1048 1.396 . S
C1047 H1074 0.929 . S
C1048 C1043 1.373 . S
C1048 C1047 1.396 . S
C1048 H1075 0.929 . S
C1049 O1062 1.240 . S
C1049 O1063 1.289 . S
C1050 O1064 1.258 . S
C1050 O1065 1.256 . S
C1051 La1041 2.928 . S
C1051 C1052 1.503 . S
C1051 O1066 1.261 . S
C1051 O1067 1.243 . S
C1052 C1051 1.503 . S
C1052 C1053 1.394 . S
C1052 C1057 1.373 . S
C1053 C1052 1.394 . S
C1053 C1054 1.380 . S
C1053 H1076 0.930 . S
C1054 C1053 1.380 . S
C1054 C1055 1.376 . S
C1054 H1077 0.930 . S
C1055 C1054 1.376 . S
C1055 C1056 1.370 . S
C1056 C1055 1.370 . S
C1056 C1057 1.396 . S
C1056 H1078 0.929 . S
C1057 C1052 1.373 . S
C1057 C1056 1.396 . S
C1057 H1079 0.929 . S
C1058 O1068 1.240 . S
C1058 O1069 1.289 . S
C1059 O1070 1.258 . S
C1059 O1071 1.256 . S
O1060 La1040 2.521 . S
O1060 C1042 1.261 . S
O1061 La1040 2.628 . S
O1061 C1042 1.243 . S
O1062 La1040 2.554 . S
O1062 C1049 1.240 . S
O1063 La1040 2.757 . S
O1063 La1041 2.482 . S
O1063 C1049 1.289 . S
O1064 La1040 2.470 . S
O1064 C1050 1.258 . S
O1065 La1041 2.503 . S
O1065 C1050 1.256 . S
O1066 La1041 2.521 . S
O1066 C1051 1.261 . S
O1067 La1041 2.628 . S
O1067 C1051 1.243 . S
O1068 La1041 2.554 . S
O1068 C1058 1.240 . S
O1069 La1040 2.482 . S
O1069 La1041 2.757 . S
O1069 C1058 1.289 . S
O1070 La1041 2.470 . S
O1070 C1059 1.258 . S
O1071 La1040 2.503 . S
O1071 C1059 1.256 . S
H1072 C1044 0.930 . S
H1073 C1045 0.930 1_655 S
H1074 C1047 0.929 . S
H1075 C1048 0.929 . S
H1076 C1053 0.930 . S
H1077 C1054 0.930 . S
H1078 C1056 0.929 . S
H1079 C1057 0.929 . S
La1080 C1082 2.928 . S
La1080 O1100 2.521 . S
La1080 O1101 2.628 . S
La1080 O1102 2.554 . S
La1080 O1103 2.757 . S
La1080 O1104 2.470 . S
La1080 O1109 2.482 . S
La1080 O1111 2.503 . S
La1081 C1091 2.928 . S
La1081 O1103 2.482 . S
La1081 O1105 2.503 . S
La1081 O1106 2.521 . S
La1081 O1107 2.628 . S
La1081 O1108 2.554 . S
La1081 O1109 2.757 . S
La1081 O1110 2.470 . S
C1082 La1080 2.928 . S
C1082 C1083 1.503 . S
C1082 O1100 1.261 . S
C1082 O1101 1.243 . S
C1083 C1082 1.503 . S
C1083 C1084 1.394 . S
C1083 C1088 1.373 . S
C1084 C1083 1.394 . S
C1084 C1085 1.380 . S
C1084 H1112 0.930 . S
C1085 C1084 1.380 . S
C1085 C1086 1.376 . S
C1085 H1113 0.930 . S
C1086 C1085 1.376 . S
C1086 C1087 1.370 . S
C1087 C1086 1.370 . S
C1087 C1088 1.396 . S
C1087 H1114 0.929 . S
C1088 C1083 1.373 . S
C1088 C1087 1.396 . S
C1088 H1115 0.929 . S
C1089 O1102 1.240 . S
C1089 O1103 1.289 . S
C1090 O1104 1.258 . S
C1090 O1105 1.256 . S
C1091 La1081 2.928 . S
C1091 C1092 1.503 . S
C1091 O1106 1.261 . S
C1091 O1107 1.243 . S
C1092 C1091 1.503 . S
C1092 C1093 1.394 . S
C1092 C1097 1.373 . S
C1093 C1092 1.394 . S
C1093 C1094 1.380 . S
C1093 H1116 0.930 . S
C1094 C1093 1.380 . S
C1094 C1095 1.376 . S
C1094 H1117 0.930 . S
C1095 C1094 1.376 . S
C1095 C1096 1.370 . S
C1096 C1095 1.370 . S
C1096 C1097 1.396 . S
C1096 H1118 0.929 . S
C1097 C1092 1.373 . S
C1097 C1096 1.396 . S
C1097 H1119 0.929 . S
C1098 O1108 1.240 . S
C1098 O1109 1.289 . S
C1099 O1110 1.258 . S
C1099 O1111 1.256 . S
O1100 La1080 2.521 . S
O1100 C1082 1.261 . S
O1101 La1080 2.628 . S
O1101 C1082 1.243 . S
O1102 La1080 2.554 . S
O1102 C1089 1.240 . S
O1103 La1080 2.757 . S
O1103 La1081 2.482 . S
O1103 C1089 1.289 . S
O1104 La1080 2.470 . S
O1104 C1090 1.258 . S
O1105 La1081 2.503 . S
O1105 C1090 1.256 . S
O1106 La1081 2.521 . S
O1106 C1091 1.261 . S
O1107 La1081 2.628 . S
O1107 C1091 1.243 . S
O1108 La1081 2.554 . S
O1108 C1098 1.240 . S
O1109 La1080 2.482 . S
O1109 La1081 2.757 . S
O1109 C1098 1.289 . S
O1110 La1081 2.470 . S
O1110 C1099 1.258 . S
O1111 La1080 2.503 . S
O1111 C1099 1.256 . S
H1112 C1084 0.930 . S
H1113 C1085 0.930 . S
H1114 C1087 0.929 . S
H1115 C1088 0.929 . S
H1116 C1093 0.930 . S
H1117 C1094 0.930 . S
H1118 C1096 0.929 . S
H1119 C1097 0.929 . S
La1120 C1122 2.928 . S
La1120 O1140 2.521 . S
La1120 O1141 2.628 . S
La1120 O1142 2.554 . S
La1120 O1143 2.757 . S
La1120 O1144 2.470 . S
La1120 O1149 2.482 . S
La1120 O1151 2.503 . S
La1121 C1131 2.928 . S
La1121 O1143 2.482 . S
La1121 O1145 2.503 . S
La1121 O1146 2.521 . S
La1121 O1147 2.628 . S
La1121 O1148 2.554 . S
La1121 O1149 2.757 . S
La1121 O1150 2.470 . S
C1122 La1120 2.928 . S
C1122 C1123 1.503 . S
C1122 O1140 1.261 . S
C1122 O1141 1.243 . S
C1123 C1122 1.503 . S
C1123 C1124 1.394 . S
C1123 C1128 1.373 . S
C1124 C1123 1.394 . S
C1124 C1125 1.380 . S
C1124 H1152 0.930 . S
C1125 C1124 1.380 . S
C1125 C1126 1.376 . S
C1125 H1153 0.930 . S
C1126 C1125 1.376 . S
C1126 C1127 1.370 . S
C1127 C1126 1.370 . S
C1127 C1128 1.396 . S
C1127 H1154 0.929 . S
C1128 C1123 1.373 . S
C1128 C1127 1.396 . S
C1128 H1155 0.929 . S
C1129 O1142 1.240 . S
C1129 O1143 1.289 . S
C1130 O1144 1.258 . S
C1130 O1145 1.256 . S
C1131 La1121 2.928 . S
C1131 C1132 1.503 . S
C1131 O1146 1.261 . S
C1131 O1147 1.243 . S
C1132 C1131 1.503 . S
C1132 C1133 1.394 . S
C1132 C1137 1.373 . S
C1133 C1132 1.394 . S
C1133 C1134 1.380 . S
C1133 H1156 0.930 . S
C1134 C1133 1.380 . S
C1134 C1135 1.376 . S
C1134 H1157 0.930 . S
C1135 C1134 1.376 . S
C1135 C1136 1.370 . S
C1136 C1135 1.370 . S
C1136 C1137 1.396 . S
C1136 H1158 0.929 . S
C1137 C1132 1.373 . S
C1137 C1136 1.396 . S
C1137 H1159 0.929 . S
C1138 O1148 1.240 . S
C1138 O1149 1.289 . S
C1139 O1150 1.258 . S
C1139 O1151 1.256 . S
O1140 La1120 2.521 . S
O1140 C1122 1.261 . S
O1141 La1120 2.628 . S
O1141 C1122 1.243 . S
O1142 La1120 2.554 . S
O1142 C1129 1.240 . S
O1143 La1120 2.757 . S
O1143 La1121 2.482 . S
O1143 C1129 1.289 . S
O1144 La1120 2.470 . S
O1144 C1130 1.258 . S
O1145 La1121 2.503 . S
O1145 C1130 1.256 . S
O1146 La1121 2.521 . S
O1146 C1131 1.261 . S
O1147 La1121 2.628 . S
O1147 C1131 1.243 . S
O1148 La1121 2.554 . S
O1148 C1138 1.240 . S
O1149 La1120 2.482 . S
O1149 La1121 2.757 . S
O1149 C1138 1.289 . S
O1150 La1121 2.470 . S
O1150 C1139 1.258 . S
O1151 La1120 2.503 . S
O1151 C1139 1.256 . S
H1152 C1124 0.930 . S
H1153 C1125 0.930 . S
H1154 C1127 0.929 . S
H1155 C1128 0.929 . S
H1156 C1133 0.930 . S
H1157 C1134 0.930 . S
H1158 C1136 0.929 . S
H1159 C1137 0.929 . S
La1160 C1162 2.928 . S
La1160 O1180 2.521 . S
La1160 O1181 2.628 . S
La1160 O1182 2.554 . S
La1160 O1183 2.757 . S
La1160 O1184 2.470 . S
La1160 O1189 2.482 . S
La1160 O1191 2.503 1_554 S
La1161 C1171 2.928 1_554 S
La1161 O1183 2.482 . S
La1161 O1185 2.503 . S
La1161 O1186 2.517 1_554 S
La1161 O1187 2.628 1_554 S
La1161 O1188 2.554 . S
La1161 O1189 2.757 . S
La1161 O1190 2.470 1_554 S
C1162 La1160 2.928 . S
C1162 C1163 1.503 . S
C1162 O1180 1.261 . S
C1162 O1181 1.243 . S
C1163 C1162 1.503 . S
C1163 C1164 1.394 . S
C1163 C1168 1.373 . S
C1164 C1163 1.394 . S
C1164 C1165 1.380 . S
C1164 H1192 0.930 . S
C1165 C1164 1.380 . S
C1165 C1166 1.376 . S
C1165 H1193 0.930 . S
C1166 C1165 1.376 . S
C1166 C1167 1.370 . S
C1167 C1166 1.370 . S
C1167 C1168 1.396 . S
C1167 H1194 0.929 . S
C1168 C1163 1.373 . S
C1168 C1167 1.396 . S
C1168 H1195 0.929 . S
C1169 O1182 1.240 . S
C1169 O1183 1.289 . S
C1170 O1184 1.258 . S
C1170 O1185 1.256 . S
C1171 La1161 2.928 1_556 S
C1171 C1172 1.503 . S
C1171 O1186 1.269 . S
C1171 O1187 1.243 . S
C1172 C1171 1.503 . S
C1172 C1173 1.394 . S
C1172 C1177 1.373 . S
C1173 C1172 1.394 . S
C1173 C1174 1.380 . S
C1173 H1196 0.930 . S
C1174 C1173 1.380 . S
C1174 C1175 1.376 . S
C1174 H1197 0.930 . S
C1175 C1174 1.376 . S
C1175 C1176 1.370 . S
C1176 C1175 1.370 . S
C1176 C1177 1.396 . S
C1176 H1198 0.929 . S
C1177 C1172 1.373 . S
C1177 C1176 1.396 . S
C1177 H1199 0.929 . S
C1178 O1188 1.240 . S
C1178 O1189 1.289 . S
C1179 O1190 1.258 . S
C1179 O1191 1.256 . S
O1180 La1160 2.521 . S
O1180 C1162 1.261 . S
O1181 La1160 2.628 . S
O1181 C1162 1.243 . S
O1182 La1160 2.554 . S
O1182 C1169 1.240 . S
O1183 La1160 2.757 . S
O1183 La1161 2.482 . S
O1183 C1169 1.289 . S
O1184 La1160 2.470 . S
O1184 C1170 1.258 . S
O1185 La1161 2.503 . S
O1185 C1170 1.256 . S
O1186 La1161 2.517 1_556 S
O1186 C1171 1.269 . S
O1187 La1161 2.628 1_556 S
O1187 C1171 1.243 . S
O1188 La1161 2.554 . S
O1188 C1178 1.240 . S
O1189 La1160 2.482 . S
O1189 La1161 2.757 . S
O1189 C1178 1.289 . S
O1190 La1161 2.470 1_556 S
O1190 C1179 1.258 . S
O1191 La1160 2.503 1_556 S
O1191 C1179 1.256 . S
H1192 C1164 0.930 . S
H1193 C1165 0.930 . S
H1194 C1167 0.929 . S
H1195 C1168 0.929 . S
H1196 C1173 0.930 . S
H1197 C1174 0.930 . S
H1198 C1176 0.929 . S
H1199 C1177 0.929 . S
La1200 C1202 2.928 . S
La1200 O1220 2.521 . S
La1200 O1221 2.628 . S
La1200 O1222 2.554 . S
La1200 O1223 2.757 . S
La1200 O1224 2.470 . S
La1200 O1229 2.482 . S
La1200 O1231 2.503 . S
La1201 C1211 2.928 . S
La1201 O1223 2.482 . S
La1201 O1225 2.503 . S
La1201 O1226 2.521 . S
La1201 O1227 2.628 . S
La1201 O1228 2.554 . S
La1201 O1229 2.757 . S
La1201 O1230 2.470 . S
C1202 La1200 2.928 . S
C1202 C1203 1.503 . S
C1202 O1220 1.261 . S
C1202 O1221 1.243 . S
C1203 C1202 1.503 . S
C1203 C1204 1.394 . S
C1203 C1208 1.373 . S
C1204 C1203 1.394 . S
C1204 C1205 1.380 . S
C1204 H1232 0.930 . S
C1205 C1204 1.380 . S
C1205 C1206 1.376 . S
C1205 H1233 0.930 1_455 S
C1206 C1205 1.376 . S
C1206 C1207 1.370 . S
C1207 C1206 1.370 . S
C1207 C1208 1.396 . S
C1207 H1234 0.929 . S
C1208 C1203 1.373 . S
C1208 C1207 1.396 . S
C1208 H1235 0.929 . S
C1209 O1222 1.240 . S
C1209 O1223 1.289 . S
C1210 O1224 1.258 . S
C1210 O1225 1.256 . S
C1211 La1201 2.928 . S
C1211 C1212 1.503 . S
C1211 O1226 1.261 . S
C1211 O1227 1.243 . S
C1212 C1211 1.503 . S
C1212 C1213 1.394 . S
C1212 C1217 1.373 . S
C1213 C1212 1.394 . S
C1213 C1214 1.380 . S
C1213 H1236 0.930 . S
C1214 C1213 1.380 . S
C1214 C1215 1.376 . S
C1214 H1237 0.930 . S
C1215 C1214 1.376 . S
C1215 C1216 1.370 . S
C1216 C1215 1.370 . S
C1216 C1217 1.396 . S
C1216 H1238 0.929 . S
C1217 C1212 1.373 . S
C1217 C1216 1.396 . S
C1217 H1239 0.929 . S
C1218 O1228 1.240 . S
C1218 O1229 1.289 . S
C1219 O1230 1.258 . S
C1219 O1231 1.256 . S
O1220 La1200 2.521 . S
O1220 C1202 1.261 . S
O1221 La1200 2.628 . S
O1221 C1202 1.243 . S
O1222 La1200 2.554 . S
O1222 C1209 1.240 . S
O1223 La1200 2.757 . S
O1223 La1201 2.482 . S
O1223 C1209 1.289 . S
O1224 La1200 2.470 . S
O1224 C1210 1.258 . S
O1225 La1201 2.503 . S
O1225 C1210 1.256 . S
O1226 La1201 2.521 . S
O1226 C1211 1.261 . S
O1227 La1201 2.628 . S
O1227 C1211 1.243 . S
O1228 La1201 2.554 . S
O1228 C1218 1.240 . S
O1229 La1200 2.482 . S
O1229 La1201 2.757 . S
O1229 C1218 1.289 . S
O1230 La1201 2.470 . S
O1230 C1219 1.258 . S
O1231 La1200 2.503 . S
O1231 C1219 1.256 . S
H1232 C1204 0.930 . S
H1233 C1205 0.930 1_655 S
H1234 C1207 0.929 . S
H1235 C1208 0.929 . S
H1236 C1213 0.930 . S
H1237 C1214 0.930 . S
H1238 C1216 0.929 . S
H1239 C1217 0.929 . S
La1240 C1242 2.928 . S
La1240 O1260 2.521 . S
La1240 O1261 2.628 . S
La1240 O1262 2.554 . S
La1240 O1263 2.757 . S
La1240 O1264 2.470 . S
La1240 O1269 2.482 . S
La1240 O1271 2.503 . S
La1241 C1251 2.928 . S
La1241 O1263 2.482 . S
La1241 O1265 2.503 . S
La1241 O1266 2.521 . S
La1241 O1267 2.628 . S
La1241 O1268 2.554 . S
La1241 O1269 2.757 . S
La1241 O1270 2.470 . S
C1242 La1240 2.928 . S
C1242 C1243 1.503 . S
C1242 O1260 1.261 . S
C1242 O1261 1.243 . S
C1243 C1242 1.503 . S
C1243 C1244 1.394 . S
C1243 C1248 1.373 . S
C1244 C1243 1.394 . S
C1244 C1245 1.380 . S
C1244 H1272 0.930 . S
C1245 C1244 1.380 . S
C1245 C1246 1.376 . S
C1245 H1273 0.930 . S
C1246 C1245 1.376 . S
C1246 C1247 1.370 . S
C1247 C1246 1.370 . S
C1247 C1248 1.396 . S
C1247 H1274 0.929 . S
C1248 C1243 1.373 . S
C1248 C1247 1.396 . S
C1248 H1275 0.929 . S
C1249 O1262 1.240 . S
C1249 O1263 1.289 . S
C1250 O1264 1.258 . S
C1250 O1265 1.256 . S
C1251 La1241 2.928 . S
C1251 C1252 1.503 . S
C1251 O1266 1.261 . S
C1251 O1267 1.243 . S
C1252 C1251 1.503 . S
C1252 C1253 1.394 . S
C1252 C1257 1.373 . S
C1253 C1252 1.394 . S
C1253 C1254 1.380 . S
C1253 H1276 0.930 . S
C1254 C1253 1.380 . S
C1254 C1255 1.376 . S
C1254 H1277 0.930 . S
C1255 C1254 1.376 . S
C1255 C1256 1.370 . S
C1256 C1255 1.370 . S
C1256 C1257 1.396 . S
C1256 H1278 0.929 . S
C1257 C1252 1.373 . S
C1257 C1256 1.396 . S
C1257 H1279 0.929 . S
C1258 O1268 1.240 . S
C1258 O1269 1.289 . S
C1259 O1270 1.258 . S
C1259 O1271 1.256 . S
O1260 La1240 2.521 . S
O1260 C1242 1.261 . S
O1261 La1240 2.628 . S
O1261 C1242 1.243 . S
O1262 La1240 2.554 . S
O1262 C1249 1.240 . S
O1263 La1240 2.757 . S
O1263 La1241 2.482 . S
O1263 C1249 1.289 . S
O1264 La1240 2.470 . S
O1264 C1250 1.258 . S
O1265 La1241 2.503 . S
O1265 C1250 1.256 . S
O1266 La1241 2.521 . S
O1266 C1251 1.261 . S
O1267 La1241 2.628 . S
O1267 C1251 1.243 . S
O1268 La1241 2.554 . S
O1268 C1258 1.240 . S
O1269 La1240 2.482 . S
O1269 La1241 2.757 . S
O1269 C1258 1.289 . S
O1270 La1241 2.470 . S
O1270 C1259 1.258 . S
O1271 La1240 2.503 . S
O1271 C1259 1.256 . S
H1272 C1244 0.930 . S
H1273 C1245 0.930 . S
H1274 C1247 0.929 . S
H1275 C1248 0.929 . S
H1276 C1253 0.930 . S
H1277 C1254 0.930 . S
H1278 C1256 0.929 . S
H1279 C1257 0.929 . S
H1280 C1286 0.930 . S
H1281 C1289 0.930 . S
H1282 C1290 0.930 . S
H1283 C1291 0.930 . S
H1284 C1294 0.930 . S
H1285 C1295 0.930 . S
C1286 H1280 0.930 . S
C1286 C1287 1.355 . S
C1286 C1288 1.415 . S
C1287 C1286 1.355 . S
C1287 C1289 1.419 . S
C1288 C1286 1.415 . S
C1288 C1293 1.425 . S
C1288 C1295 1.409 . S
C1289 H1281 0.930 . S
C1289 C1287 1.419 . S
C1289 C1290 1.362 . S
C1290 H1282 0.930 . S
C1290 C1289 1.362 . S
C1290 C1293 1.409 . S
C1291 H1283 0.930 . S
C1291 C1292 1.355 . S
C1291 C1293 1.415 . S
C1292 C1291 1.355 . S
C1292 C1294 1.419 . S
C1293 C1288 1.425 . S
C1293 C1290 1.409 . S
C1293 C1291 1.415 . S
C1294 H1284 0.930 . S
C1294 C1292 1.419 . S
C1294 C1295 1.362 . S
C1295 H1285 0.930 . S
C1295 C1288 1.409 . S
C1295 C1294 1.362 . S
H1296 C1302 0.930 . S
H1297 C1305 0.930 . S
H1298 C1306 0.930 . S
H1299 C1307 0.930 . S
H1300 C1310 0.930 . S
H1301 C1311 0.930 . S
C1302 H1296 0.930 . S
C1302 C1303 1.355 . S
C1302 C1304 1.415 . S
C1303 C1302 1.355 . S
C1303 C1305 1.419 . S
C1304 C1302 1.415 . S
C1304 C1309 1.425 . S
C1304 C1311 1.409 . S
C1305 H1297 0.930 . S
C1305 C1303 1.419 . S
C1305 C1306 1.362 . S
C1306 H1298 0.930 . S
C1306 C1305 1.362 . S
C1306 C1309 1.409 . S
C1307 H1299 0.930 . S
C1307 C1308 1.355 . S
C1307 C1309 1.415 . S
C1308 C1307 1.355 . S
C1308 C1310 1.419 . S
C1309 C1304 1.425 . S
C1309 C1306 1.409 . S
C1309 C1307 1.415 . S
C1310 H1300 0.930 . S
C1310 C1308 1.419 . S
C1310 C1311 1.362 . S
C1311 H1301 0.930 . S
C1311 C1304 1.409 . S
C1311 C1310 1.362 . S
H1312 C1318 0.930 . S
H1313 C1321 0.930 . S
H1314 C1322 0.930 . S
H1315 C1323 0.930 . S
H1316 C1326 0.930 . S
H1317 C1327 0.930 . S
C1318 H1312 0.930 . S
C1318 C1319 1.355 . S
C1318 C1320 1.415 . S
C1319 C1318 1.355 . S
C1319 C1321 1.419 . S
C1320 C1318 1.415 . S
C1320 C1325 1.425 . S
C1320 C1327 1.409 . S
C1321 H1313 0.930 . S
C1321 C1319 1.419 . S
C1321 C1322 1.362 . S
C1322 H1314 0.930 . S
C1322 C1321 1.362 . S
C1322 C1325 1.409 . S
C1323 H1315 0.930 . S
C1323 C1324 1.355 . S
C1323 C1325 1.415 . S
C1324 C1323 1.355 . S
C1324 C1326 1.419 . S
C1325 C1320 1.425 . S
C1325 C1322 1.409 . S
C1325 C1323 1.415 . S
C1326 H1316 0.930 . S
C1326 C1324 1.419 . S
C1326 C1327 1.362 . S
C1327 H1317 0.930 . S
C1327 C1320 1.409 . S
C1327 C1326 1.362 . S
H1328 C1334 0.930 . S
H1329 C1337 0.930 . S
H1330 C1338 0.930 . S
H1331 C1339 0.930 . S
H1332 C1342 0.930 1_545 S
H1333 C1343 0.930 . S
C1334 H1328 0.930 . S
C1334 C1335 1.355 . S
C1334 C1336 1.415 . S
C1335 C1334 1.355 . S
C1335 C1337 1.419 . S
C1336 C1334 1.415 . S
C1336 C1341 1.425 . S
C1336 C1343 1.409 . S
C1337 H1329 0.930 . S
C1337 C1335 1.419 . S
C1337 C1338 1.362 . S
C1338 H1330 0.930 . S
C1338 C1337 1.362 . S
C1338 C1341 1.409 . S
C1339 H1331 0.930 . S
C1339 C1340 1.355 . S
C1339 C1341 1.415 . S
C1340 C1339 1.355 . S
C1340 C1342 1.419 . S
C1341 C1336 1.425 . S
C1341 C1338 1.409 . S
C1341 C1339 1.415 . S
C1342 H1332 0.930 1_565 S
C1342 C1340 1.419 . S
C1342 C1343 1.362 . S
C1343 H1333 0.930 . S
C1343 C1336 1.409 . S
C1343 C1342 1.362 . S
H1344 C1350 0.930 . S
H1345 C1353 0.930 . S
H1346 C1354 0.930 . S
H1347 C1355 0.930 . S
H1348 C1358 0.930 . S
H1349 C1359 0.930 . S
C1350 H1344 0.930 . S
C1350 C1351 1.355 . S
C1350 C1352 1.415 . S
C1351 C1350 1.355 . S
C1351 C1353 1.419 . S
C1352 C1350 1.415 . S
C1352 C1357 1.425 . S
C1352 C1359 1.409 . S
C1353 H1345 0.930 . S
C1353 C1351 1.419 . S
C1353 C1354 1.362 . S
C1354 H1346 0.930 . S
C1354 C1353 1.362 . S
C1354 C1357 1.409 . S
C1355 H1347 0.930 . S
C1355 C1356 1.355 . S
C1355 C1357 1.415 . S
C1356 C1355 1.355 . S
C1356 C1358 1.419 . S
C1357 C1352 1.425 . S
C1357 C1354 1.409 . S
C1357 C1355 1.415 . S
C1358 H1348 0.930 . S
C1358 C1356 1.419 . S
C1358 C1359 1.362 . S
C1359 H1349 0.930 . S
C1359 C1352 1.409 . S
C1359 C1358 1.362 . S
H1360 C1366 0.930 . S
H1361 C1369 0.930 . S
H1362 C1370 0.930 . S
H1363 C1371 0.930 . S
H1364 C1374 0.930 . S
H1365 C1375 0.930 . S
C1366 H1360 0.930 . S
C1366 C1367 1.355 . S
C1366 C1368 1.415 . S
C1367 C1366 1.355 . S
C1367 C1369 1.419 . S
C1368 C1366 1.415 . S
C1368 C1373 1.425 . S
C1368 C1375 1.409 . S
C1369 H1361 0.930 . S
C1369 C1367 1.419 . S
C1369 C1370 1.362 . S
C1370 H1362 0.930 . S
C1370 C1369 1.362 . S
C1370 C1373 1.409 . S
C1371 H1363 0.930 . S
C1371 C1372 1.355 . S
C1371 C1373 1.415 . S
C1372 C1371 1.355 . S
C1372 C1374 1.419 . S
C1373 C1368 1.425 . S
C1373 C1370 1.409 . S
C1373 C1371 1.415 . S
C1374 H1364 0.930 . S
C1374 C1372 1.419 . S
C1374 C1375 1.362 . S
C1375 H1365 0.930 . S
C1375 C1368 1.409 . S
C1375 C1374 1.362 . S
H1376 C1382 0.930 . S
H1377 C1385 0.930 . S
H1378 C1386 0.930 . S
H1379 C1387 0.930 . S
H1380 C1390 0.930 . S
H1381 C1391 0.930 . S
C1382 H1376 0.930 . S
C1382 C1383 1.355 . S
C1382 C1384 1.415 . S
C1383 C1382 1.355 . S
C1383 C1385 1.419 . S
C1384 C1382 1.415 . S
C1384 C1389 1.425 . S
C1384 C1391 1.409 . S
C1385 H1377 0.930 . S
C1385 C1383 1.419 . S
C1385 C1386 1.362 . S
C1386 H1378 0.930 . S
C1386 C1385 1.362 . S
C1386 C1389 1.409 . S
C1387 H1379 0.930 . S
C1387 C1388 1.355 . S
C1387 C1389 1.415 . S
C1388 C1387 1.355 . S
C1388 C1390 1.419 . S
C1389 C1384 1.425 . S
C1389 C1386 1.409 . S
C1389 C1387 1.415 . S
C1390 H1380 0.930 . S
C1390 C1388 1.419 . S
C1390 C1391 1.362 . S
C1391 H1381 0.930 . S
C1391 C1384 1.409 . S
C1391 C1390 1.362 . S
H1392 C1398 0.930 . S
H1393 C1401 0.930 . S
H1394 C1402 0.930 . S
H1395 C1403 0.939 . S
H1396 C1406 0.930 . S
H1397 C1407 0.930 . S
C1398 H1392 0.930 . S
C1398 C1399 1.355 . S
C1398 C1400 1.415 . S
C1399 C1398 1.355 . S
C1399 C1401 1.419 . S
C1400 C1398 1.415 . S
C1400 C1405 1.425 . S
C1400 C1407 1.409 . S
C1401 H1393 0.930 . S
C1401 C1399 1.419 . S
C1401 C1402 1.362 . S
C1402 H1394 0.930 . S
C1402 C1401 1.362 . S
C1402 C1405 1.409 . S
C1403 H1395 0.939 . S
C1403 C1404 1.355 . S
C1403 C1405 1.415 . S
C1404 C1403 1.355 . S
C1404 C1406 1.419 . S
C1405 C1400 1.425 . S
C1405 C1402 1.409 . S
C1405 C1403 1.415 . S
C1406 H1396 0.930 . S
C1406 C1404 1.419 . S
C1406 C1407 1.362 . S
C1407 H1397 0.930 . S
C1407 C1400 1.409 . S
C1407 C1406 1.362 . S
H1408 C1414 0.930 . S
H1409 C1417 0.930 . S
H1410 C1418 0.930 . S
H1411 C1419 0.930 . S
H1412 C1422 0.930 . S
H1413 C1423 0.930 . S
C1414 H1408 0.930 . S
C1414 C1415 1.355 . S
C1414 C1416 1.415 . S
C1415 C1414 1.355 . S
C1415 C1417 1.419 . S
C1416 C1414 1.415 . S
C1416 C1421 1.425 . S
C1416 C1423 1.409 . S
C1417 H1409 0.930 . S
C1417 C1415 1.419 . S
C1417 C1418 1.362 . S
C1418 H1410 0.930 . S
C1418 C1417 1.362 . S
C1418 C1421 1.409 . S
C1419 H1411 0.930 . S
C1419 C1420 1.355 . S
C1419 C1421 1.415 . S
C1420 C1419 1.355 . S
C1420 C1422 1.419 . S
C1421 C1416 1.425 . S
C1421 C1418 1.409 . S
C1421 C1419 1.415 . S
C1422 H1412 0.930 . S
C1422 C1420 1.419 . S
C1422 C1423 1.362 . S
C1423 H1413 0.930 . S
C1423 C1416 1.409 . S
C1423 C1422 1.362 . S
H1424 C1430 0.930 . S
H1425 C1433 0.930 . S
H1426 C1434 0.930 . S
H1427 C1435 0.930 . S
H1428 C1438 0.930 . S
H1429 C1439 0.930 . S
C1430 H1424 0.930 . S
C1430 C1431 1.355 . S
C1430 C1432 1.415 . S
C1431 C1430 1.355 . S
C1431 C1433 1.419 . S
C1432 C1430 1.415 . S
C1432 C1437 1.425 . S
C1432 C1439 1.409 . S
C1433 H1425 0.930 . S
C1433 C1431 1.419 . S
C1433 C1434 1.362 . S
C1434 H1426 0.930 . S
C1434 C1433 1.362 . S
C1434 C1437 1.409 . S
C1435 H1427 0.930 . S
C1435 C1436 1.355 . S
C1435 C1437 1.415 . S
C1436 C1435 1.355 . S
C1436 C1438 1.419 . S
C1437 C1432 1.425 . S
C1437 C1434 1.409 . S
C1437 C1435 1.415 . S
C1438 H1428 0.930 . S
C1438 C1436 1.419 . S
C1438 C1439 1.362 . S
C1439 H1429 0.930 . S
C1439 C1432 1.409 . S
C1439 C1438 1.362 . S
H1440 C1446 0.930 . S
H1441 C1449 0.930 . S
H1442 C1450 0.930 . S
H1443 C1451 0.930 . S
H1444 C1454 0.930 . S
H1445 C1455 0.930 . S
C1446 H1440 0.930 . S
C1446 C1447 1.355 . S
C1446 C1448 1.415 . S
C1447 C1446 1.355 . S
C1447 C1449 1.419 . S
C1448 C1446 1.415 . S
C1448 C1453 1.425 . S
C1448 C1455 1.409 . S
C1449 H1441 0.930 . S
C1449 C1447 1.419 . S
C1449 C1450 1.362 . S
C1450 H1442 0.930 . S
C1450 C1449 1.362 . S
C1450 C1453 1.409 . S
C1451 H1443 0.930 . S
C1451 C1452 1.355 . S
C1451 C1453 1.415 . S
C1452 C1451 1.355 . S
C1452 C1454 1.419 . S
C1453 C1448 1.425 . S
C1453 C1450 1.409 . S
C1453 C1451 1.415 . S
C1454 H1444 0.930 . S
C1454 C1452 1.419 . S
C1454 C1455 1.362 . S
C1455 H1445 0.930 . S
C1455 C1448 1.409 . S
C1455 C1454 1.362 . S
H1456 C1462 0.930 . S
H1457 C1465 0.930 . S
H1458 C1466 0.930 . S
H1459 C1467 0.930 . S
H1460 C1470 0.930 . S
H1461 C1471 0.930 . S
C1462 H1456 0.930 . S
C1462 C1463 1.355 . S
C1462 C1464 1.415 . S
C1463 C1462 1.355 . S
C1463 C1465 1.419 . S
C1464 C1462 1.415 . S
C1464 C1469 1.425 . S
C1464 C1471 1.409 . S
C1465 H1457 0.930 . S
C1465 C1463 1.419 . S
C1465 C1466 1.362 . S
C1466 H1458 0.930 . S
C1466 C1465 1.362 . S
C1466 C1469 1.409 . S
C1467 H1459 0.930 . S
C1467 C1468 1.355 . S
C1467 C1469 1.415 . S
C1468 C1467 1.355 . S
C1468 C1470 1.419 . S
C1469 C1464 1.425 . S
C1469 C1466 1.409 . S
C1469 C1467 1.415 . S
C1470 H1460 0.930 . S
C1470 C1468 1.419 . S
C1470 C1471 1.362 . S
C1471 H1461 0.930 . S
C1471 C1464 1.409 . S
C1471 C1470 1.362 . S
H1472 C1478 0.930 . S
H1473 C1481 0.930 . S
H1474 C1482 0.930 . S
H1475 C1483 0.930 . S
H1476 C1486 0.930 . S
H1477 C1487 0.930 . S
C1478 H1472 0.930 . S
C1478 C1479 1.355 . S
C1478 C1480 1.415 . S
C1479 C1478 1.355 . S
C1479 C1481 1.419 . S
C1480 C1478 1.415 . S
C1480 C1485 1.425 . S
C1480 C1487 1.409 . S
C1481 H1473 0.930 . S
C1481 C1479 1.419 . S
C1481 C1482 1.362 . S
C1482 H1474 0.930 . S
C1482 C1481 1.362 . S
C1482 C1485 1.409 . S
C1483 H1475 0.930 . S
C1483 C1484 1.355 . S
C1483 C1485 1.415 . S
C1484 C1483 1.355 . S
C1484 C1486 1.419 . S
C1485 C1480 1.425 . S
C1485 C1482 1.409 . S
C1485 C1483 1.415 . S
C1486 H1476 0.930 . S
C1486 C1484 1.419 . S
C1486 C1487 1.362 . S
C1487 H1477 0.930 . S
C1487 C1480 1.409 . S
C1487 C1486 1.362 . S
H1488 C1494 0.930 . S
H1489 C1497 0.930 . S
H1490 C1498 0.930 . S
H1491 C1499 0.930 . S
H1492 C1502 0.930 . S
H1493 C1503 0.930 . S
C1494 H1488 0.930 . S
C1494 C1495 1.355 . S
C1494 C1496 1.415 . S
C1495 C1494 1.355 . S
C1495 C1497 1.419 . S
C1496 C1494 1.415 . S
C1496 C1501 1.425 . S
C1496 C1503 1.409 . S
C1497 H1489 0.930 . S
C1497 C1495 1.419 . S
C1497 C1498 1.362 . S
C1498 H1490 0.930 . S
C1498 C1497 1.362 . S
C1498 C1501 1.409 . S
C1499 H1491 0.930 . S
C1499 C1500 1.355 . S
C1499 C1501 1.415 . S
C1500 C1499 1.355 . S
C1500 C1502 1.419 . S
C1501 C1496 1.425 . S
C1501 C1498 1.409 . S
C1501 C1499 1.415 . S
C1502 H1492 0.930 . S
C1502 C1500 1.419 . S
C1502 C1503 1.362 . S
C1503 H1493 0.930 . S
C1503 C1496 1.409 . S
C1503 C1502 1.362 . S
H1504 C1510 0.930 . S
H1505 C1513 0.930 . S
H1506 C1514 0.930 . S
H1507 C1515 0.930 . S
H1508 C1518 0.930 . S
H1509 C1519 0.930 . S
C1510 H1504 0.930 . S
C1510 C1511 1.355 . S
C1510 C1512 1.415 . S
C1511 C1510 1.355 . S
C1511 C1513 1.419 . S
C1512 C1510 1.415 . S
C1512 C1517 1.425 . S
C1512 C1519 1.409 . S
C1513 H1505 0.930 . S
C1513 C1511 1.419 . S
C1513 C1514 1.362 . S
C1514 H1506 0.930 . S
C1514 C1513 1.362 . S
C1514 C1517 1.409 . S
C1515 H1507 0.930 . S
C1515 C1516 1.355 . S
C1515 C1517 1.415 . S
C1516 C1515 1.355 . S
C1516 C1518 1.419 . S
C1517 C1512 1.425 . S
C1517 C1514 1.409 . S
C1517 C1515 1.415 . S
C1518 H1508 0.930 . S
C1518 C1516 1.419 . S
C1518 C1519 1.362 . S
C1519 H1509 0.930 . S
C1519 C1512 1.409 . S
C1519 C1518 1.362 . S
H1520 C1526 0.930 . S
H1521 C1529 0.930 . S
H1522 C1530 0.930 . S
H1523 C1531 0.930 . S
H1524 C1534 0.930 . S
H1525 C1535 0.930 . S
C1526 H1520 0.930 . S
C1526 C1527 1.355 . S
C1526 C1528 1.415 . S
C1527 C1526 1.355 . S
C1527 C1529 1.419 . S
C1528 C1526 1.415 . S
C1528 C1533 1.425 . S
C1528 C1535 1.409 . S
C1529 H1521 0.930 . S
C1529 C1527 1.419 . S
C1529 C1530 1.362 . S
C1530 H1522 0.930 . S
C1530 C1529 1.362 . S
C1530 C1533 1.409 . S
C1531 H1523 0.930 . S
C1531 C1532 1.355 . S
C1531 C1533 1.415 . S
C1532 C1531 1.355 . S
C1532 C1534 1.419 . S
C1533 C1528 1.425 . S
C1533 C1530 1.409 . S
C1533 C1531 1.415 . S
C1534 H1524 0.930 . S
C1534 C1532 1.419 . S
C1534 C1535 1.362 . S
C1535 H1525 0.930 . S
C1535 C1528 1.409 . S
C1535 C1534 1.362 . S
H1536 C1542 0.930 . S
H1537 C1545 0.930 . S
H1538 C1546 0.930 . S
H1539 C1547 0.930 . S
H1540 C1550 0.930 . S
H1541 C1551 0.930 . S
C1542 H1536 0.930 . S
C1542 C1543 1.355 . S
C1542 C1544 1.415 . S
C1543 C1542 1.355 . S
C1543 C1545 1.419 . S
C1544 C1542 1.415 . S
C1544 C1549 1.425 . S
C1544 C1551 1.409 . S
C1545 H1537 0.930 . S
C1545 C1543 1.419 . S
C1545 C1546 1.362 . S
C1546 H1538 0.930 . S
C1546 C1545 1.362 . S
C1546 C1549 1.409 . S
C1547 H1539 0.930 . S
C1547 C1548 1.355 . S
C1547 C1549 1.415 . S
C1548 C1547 1.355 . S
C1548 C1550 1.419 . S
C1549 C1544 1.425 . S
C1549 C1546 1.409 . S
C1549 C1547 1.415 . S
C1550 H1540 0.930 . S
C1550 C1548 1.419 . S
C1550 C1551 1.362 . S
C1551 H1541 0.930 . S
C1551 C1544 1.409 . S
C1551 C1550 1.362 . S
H1552 C1558 0.930 . S
H1553 C1561 0.930 . S
H1554 C1562 0.930 . S
H1555 C1563 0.930 . S
H1556 C1566 0.930 . S
H1557 C1567 0.930 . S
C1558 H1552 0.930 . S
C1558 C1559 1.355 . S
C1558 C1560 1.415 . S
C1559 C1558 1.355 . S
C1559 C1561 1.419 . S
C1560 C1558 1.415 . S
C1560 C1565 1.425 . S
C1560 C1567 1.409 . S
C1561 H1553 0.930 . S
C1561 C1559 1.419 . S
C1561 C1562 1.362 . S
C1562 H1554 0.930 . S
C1562 C1561 1.362 . S
C1562 C1565 1.409 . S
C1563 H1555 0.930 . S
C1563 C1564 1.355 . S
C1563 C1565 1.415 . S
C1564 C1563 1.355 . S
C1564 C1566 1.419 . S
C1565 C1560 1.425 . S
C1565 C1562 1.409 . S
C1565 C1563 1.415 . S
C1566 H1556 0.930 . S
C1566 C1564 1.419 . S
C1566 C1567 1.362 . S
C1567 H1557 0.930 . S
C1567 C1560 1.409 . S
C1567 C1566 1.362 . S
H1568 C1574 0.930 . S
H1569 C1577 0.930 . S
H1570 C1578 0.930 . S
H1571 C1579 0.930 . S
H1572 C1582 0.930 . S
H1573 C1583 0.930 . S
C1574 H1568 0.930 . S
C1574 C1575 1.355 . S
C1574 C1576 1.415 . S
C1575 C1574 1.355 . S
C1575 C1577 1.419 . S
C1576 C1574 1.415 . S
C1576 C1581 1.425 . S
C1576 C1583 1.409 . S
C1577 H1569 0.930 . S
C1577 C1575 1.419 . S
C1577 C1578 1.362 . S
C1578 H1570 0.930 . S
C1578 C1577 1.362 . S
C1578 C1581 1.409 . S
C1579 H1571 0.930 . S
C1579 C1580 1.355 . S
C1579 C1581 1.415 . S
C1580 C1579 1.355 . S
C1580 C1582 1.419 . S
C1581 C1576 1.425 . S
C1581 C1578 1.409 . S
C1581 C1579 1.415 . S
C1582 H1572 0.930 . S
C1582 C1580 1.419 . S
C1582 C1583 1.362 . S
C1583 H1573 0.930 . S
C1583 C1576 1.409 . S
C1583 C1582 1.362 . S
H1584 C1590 0.930 . S
H1585 C1593 0.930 . S
H1586 C1594 0.930 . S
H1587 C1595 0.930 . S
H1588 C1598 0.930 . S
H1589 C1599 0.930 . S
C1590 H1584 0.930 . S
C1590 C1591 1.355 . S
C1590 C1592 1.415 . S
C1591 C1590 1.355 . S
C1591 C1593 1.419 . S
C1592 C1590 1.415 . S
C1592 C1597 1.425 . S
C1592 C1599 1.409 . S
C1593 H1585 0.930 . S
C1593 C1591 1.419 . S
C1593 C1594 1.362 . S
C1594 H1586 0.930 . S
C1594 C1593 1.362 . S
C1594 C1597 1.409 . S
C1595 H1587 0.930 . S
C1595 C1596 1.355 . S
C1595 C1597 1.415 . S
C1596 C1595 1.355 . S
C1596 C1598 1.419 . S
C1597 C1592 1.425 . S
C1597 C1594 1.409 . S
C1597 C1595 1.415 . S
C1598 H1588 0.930 . S
C1598 C1596 1.419 . S
C1598 C1599 1.362 . S
C1599 H1589 0.930 . S
C1599 C1592 1.409 . S
C1599 C1598 1.362 . S
H1600 C1606 0.930 . S
H1601 C1609 0.930 . S
H1602 C1610 0.930 . S
H1603 C1611 0.930 . S
H1604 C1614 0.930 . S
H1605 C1615 0.930 . S
C1606 H1600 0.930 . S
C1606 C1607 1.355 . S
C1606 C1608 1.415 . S
C1607 C1606 1.355 . S
C1607 C1609 1.419 . S
C1608 C1606 1.415 . S
C1608 C1613 1.425 . S
C1608 C1615 1.409 . S
C1609 H1601 0.930 . S
C1609 C1607 1.419 . S
C1609 C1610 1.362 . S
C1610 H1602 0.930 . S
C1610 C1609 1.362 . S
C1610 C1613 1.409 . S
C1611 H1603 0.930 . S
C1611 C1612 1.355 . S
C1611 C1613 1.415 . S
C1612 C1611 1.355 . S
C1612 C1614 1.419 . S
C1613 C1608 1.425 . S
C1613 C1610 1.409 . S
C1613 C1611 1.415 . S
C1614 H1604 0.930 . S
C1614 C1612 1.419 . S
C1614 C1615 1.362 . S
C1615 H1605 0.930 . S
C1615 C1608 1.409 . S
C1615 C1614 1.362 . S
H1616 C1622 0.930 . S
H1617 C1625 0.930 . S
H1618 C1626 0.930 . S
H1619 C1627 0.930 . S
H1620 C1630 0.930 . S
H1621 C1631 0.930 . S
C1622 H1616 0.930 . S
C1622 C1623 1.355 . S
C1622 C1624 1.415 . S
C1623 C1622 1.355 . S
C1623 C1625 1.419 . S
C1624 C1622 1.415 . S
C1624 C1629 1.425 . S
C1624 C1631 1.409 . S
C1625 H1617 0.930 . S
C1625 C1623 1.419 . S
C1625 C1626 1.362 . S
C1626 H1618 0.930 . S
C1626 C1625 1.362 . S
C1626 C1629 1.409 . S
C1627 H1619 0.930 . S
C1627 C1628 1.355 . S
C1627 C1629 1.415 . S
C1628 C1627 1.355 . S
C1628 C1630 1.419 . S
C1629 C1624 1.425 . S
C1629 C1626 1.409 . S
C1629 C1627 1.415 . S
C1630 H1620 0.930 . S
C1630 C1628 1.419 . S
C1630 C1631 1.362 . S
C1631 H1621 0.930 . S
C1631 C1624 1.409 . S
C1631 C1630 1.362 . S
H1632 C1638 0.930 . S
H1633 C1641 0.930 . S
H1634 C1642 0.930 . S
H1635 C1643 0.930 . S
H1636 C1646 0.930 . S
H1637 C1647 0.930 . S
C1638 H1632 0.930 . S
C1638 C1639 1.355 . S
C1638 C1640 1.415 . S
C1639 C1638 1.355 . S
C1639 C1641 1.419 . S
C1640 C1638 1.415 . S
C1640 C1645 1.425 . S
C1640 C1647 1.409 . S
C1641 H1633 0.930 . S
C1641 C1639 1.419 . S
C1641 C1642 1.362 . S
C1642 H1634 0.930 . S
C1642 C1641 1.362 . S
C1642 C1645 1.409 . S
C1643 H1635 0.930 . S
C1643 C1644 1.355 . S
C1643 C1645 1.415 . S
C1644 C1643 1.355 . S
C1644 C1646 1.419 . S
C1645 C1640 1.425 . S
C1645 C1642 1.409 . S
C1645 C1643 1.415 . S
C1646 H1636 0.930 . S
C1646 C1644 1.419 . S
C1646 C1647 1.362 . S
C1647 H1637 0.930 . S
C1647 C1640 1.409 . S
C1647 C1646 1.362 . S
H1648 C1654 0.930 . S
H1649 C1657 0.930 . S
H1650 C1658 0.930 . S
H1651 C1659 0.930 . S
H1652 C1662 0.930 . S
H1653 C1663 0.930 . S
C1654 H1648 0.930 . S
C1654 C1655 1.355 . S
C1654 C1656 1.415 . S
C1655 C1654 1.355 . S
C1655 C1657 1.419 . S
C1656 C1654 1.415 . S
C1656 C1661 1.425 . S
C1656 C1663 1.409 . S
C1657 H1649 0.930 . S
C1657 C1655 1.419 . S
C1657 C1658 1.362 . S
C1658 H1650 0.930 . S
C1658 C1657 1.362 . S
C1658 C1661 1.409 . S
C1659 H1651 0.930 . S
C1659 C1660 1.355 . S
C1659 C1661 1.415 . S
C1660 C1659 1.355 . S
C1660 C1662 1.419 . S
C1661 C1656 1.425 . S
C1661 C1658 1.409 . S
C1661 C1659 1.415 . S
C1662 H1652 0.930 . S
C1662 C1660 1.419 . S
C1662 C1663 1.362 . S
C1663 H1653 0.930 . S
C1663 C1656 1.409 . S
C1663 C1662 1.362 . S
H1664 C1670 0.930 . S
H1665 C1673 0.930 . S
H1666 C1674 0.930 . S
H1667 C1675 0.930 . S
H1668 C1678 0.930 . S
H1669 C1679 0.930 . S
C1670 H1664 0.930 . S
C1670 C1671 1.355 . S
C1670 C1672 1.415 . S
C1671 C1670 1.355 . S
C1671 C1673 1.419 . S
C1672 C1670 1.415 . S
C1672 C1677 1.425 . S
C1672 C1679 1.409 . S
C1673 H1665 0.930 . S
C1673 C1671 1.419 . S
C1673 C1674 1.362 . S
C1674 H1666 0.930 . S
C1674 C1673 1.362 . S
C1674 C1677 1.409 . S
C1675 H1667 0.930 . S
C1675 C1676 1.355 . S
C1675 C1677 1.415 . S
C1676 C1675 1.355 . S
C1676 C1678 1.419 . S
C1677 C1672 1.425 . S
C1677 C1674 1.409 . S
C1677 C1675 1.415 . S
C1678 H1668 0.930 . S
C1678 C1676 1.419 . S
C1678 C1679 1.362 . S
C1679 H1669 0.930 . S
C1679 C1672 1.409 . S
C1679 C1678 1.362 . S
H1680 C1686 0.930 . S
H1681 C1689 0.930 . S
H1682 C1690 0.930 . S
H1683 C1691 0.930 . S
H1684 C1694 0.930 . S
H1685 C1695 0.930 . S
C1686 H1680 0.930 . S
C1686 C1687 1.355 . S
C1686 C1688 1.415 . S
C1687 C1686 1.355 . S
C1687 C1689 1.419 . S
C1688 C1686 1.415 . S
C1688 C1693 1.425 . S
C1688 C1695 1.409 . S
C1689 H1681 0.930 . S
C1689 C1687 1.419 . S
C1689 C1690 1.362 . S
C1690 H1682 0.930 . S
C1690 C1689 1.362 . S
C1690 C1693 1.409 . S
C1691 H1683 0.930 . S
C1691 C1692 1.355 . S
C1691 C1693 1.415 . S
C1692 C1691 1.355 . S
C1692 C1694 1.419 . S
C1693 C1688 1.425 . S
C1693 C1690 1.409 . S
C1693 C1691 1.415 . S
C1694 H1684 0.930 . S
C1694 C1692 1.419 . S
C1694 C1695 1.362 . S
C1695 H1685 0.930 . S
C1695 C1688 1.409 . S
C1695 C1694 1.362 . S
H1696 C1702 0.930 . S
H1697 C1705 0.930 . S
H1698 C1706 0.930 . S
H1699 C1707 0.930 . S
H1700 C1710 0.930 . S
H1701 C1711 0.930 . S
C1702 H1696 0.930 . S
C1702 C1703 1.355 . S
C1702 C1704 1.415 . S
C1703 C1702 1.355 . S
C1703 C1705 1.419 . S
C1704 C1702 1.415 . S
C1704 C1709 1.425 . S
C1704 C1711 1.409 . S
C1705 H1697 0.930 . S
C1705 C1703 1.419 . S
C1705 C1706 1.362 . S
C1706 H1698 0.930 . S
C1706 C1705 1.362 . S
C1706 C1709 1.409 . S
C1707 H1699 0.930 . S
C1707 C1708 1.355 . S
C1707 C1709 1.415 . S
C1708 C1707 1.355 . S
C1708 C1710 1.419 . S
C1709 C1704 1.425 . S
C1709 C1706 1.409 . S
C1709 C1707 1.415 . S
C1710 H1700 0.930 . S
C1710 C1708 1.419 . S
C1710 C1711 1.362 . S
C1711 H1701 0.930 . S
C1711 C1704 1.409 . S
C1711 C1710 1.362 . S
H1712 C1718 0.930 . S
H1713 C1721 0.930 . S
H1714 C1722 0.930 . S
H1715 C1723 0.930 . S
H1716 C1726 0.930 . S
H1717 C1727 0.930 . S
C1718 H1712 0.930 . S
C1718 C1719 1.355 . S
C1718 C1720 1.415 . S
C1719 C1718 1.355 . S
C1719 C1721 1.419 . S
C1720 C1718 1.415 . S
C1720 C1725 1.425 . S
C1720 C1727 1.409 . S
C1721 H1713 0.930 . S
C1721 C1719 1.419 . S
C1721 C1722 1.362 . S
C1722 H1714 0.930 . S
C1722 C1721 1.362 . S
C1722 C1725 1.409 . S
C1723 H1715 0.930 . S
C1723 C1724 1.355 . S
C1723 C1725 1.415 . S
C1724 C1723 1.355 . S
C1724 C1726 1.419 . S
C1725 C1720 1.425 . S
C1725 C1722 1.409 . S
C1725 C1723 1.415 . S
C1726 H1716 0.930 . S
C1726 C1724 1.419 . S
C1726 C1727 1.362 . S
C1727 H1717 0.930 . S
C1727 C1720 1.409 . S
C1727 C1726 1.362 . S
H1728 C1734 0.930 . S
H1729 C1737 0.930 . S
H1730 C1738 0.930 . S
H1731 C1739 0.930 . S
H1732 C1742 0.930 . S
H1733 C1743 0.930 . S
C1734 H1728 0.930 . S
C1734 C1735 1.355 . S
C1734 C1736 1.415 . S
C1735 C1734 1.355 . S
C1735 C1737 1.419 . S
C1736 C1734 1.415 . S
C1736 C1741 1.425 . S
C1736 C1743 1.409 . S
C1737 H1729 0.930 . S
C1737 C1735 1.419 . S
C1737 C1738 1.362 . S
C1738 H1730 0.930 . S
C1738 C1737 1.362 . S
C1738 C1741 1.409 . S
C1739 H1731 0.930 . S
C1739 C1740 1.355 . S
C1739 C1741 1.415 . S
C1740 C1739 1.355 . S
C1740 C1742 1.419 . S
C1741 C1736 1.425 . S
C1741 C1738 1.409 . S
C1741 C1739 1.415 . S
C1742 H1732 0.930 . S
C1742 C1740 1.419 . S
C1742 C1743 1.362 . S
C1743 H1733 0.930 . S
C1743 C1736 1.409 . S
C1743 C1742 1.362 . S
H1744 C1750 0.930 . S
H1745 C1753 0.930 . S
H1746 C1754 0.930 . S
H1747 C1755 0.930 . S
H1748 C1758 0.930 . S
H1749 C1759 0.930 . S
C1750 H1744 0.930 . S
C1750 C1751 1.355 . S
C1750 C1752 1.415 . S
C1751 C1750 1.355 . S
C1751 C1753 1.419 . S
C1752 C1750 1.415 . S
C1752 C1757 1.425 . S
C1752 C1759 1.409 . S
C1753 H1745 0.930 . S
C1753 C1751 1.419 . S
C1753 C1754 1.362 . S
C1754 H1746 0.930 . S
C1754 C1753 1.362 . S
C1754 C1757 1.409 . S
C1755 H1747 0.930 . S
C1755 C1756 1.355 . S
C1755 C1757 1.415 . S
C1756 C1755 1.355 . S
C1756 C1758 1.419 . S
C1757 C1752 1.425 . S
C1757 C1754 1.409 . S
C1757 C1755 1.415 . S
C1758 H1748 0.930 . S
C1758 C1756 1.419 . S
C1758 C1759 1.362 . S
C1759 H1749 0.930 . S
C1759 C1752 1.409 . S
C1759 C1758 1.362 . S
H1760 C1766 0.930 . S
H1761 C1769 0.930 . S
H1762 C1770 0.930 . S
H1763 C1771 0.930 . S
H1764 C1774 0.930 . S
H1765 C1775 0.930 . S
C1766 H1760 0.930 . S
C1766 C1767 1.355 . S
C1766 C1768 1.415 . S
C1767 C1766 1.355 . S
C1767 C1769 1.419 . S
C1768 C1766 1.415 . S
C1768 C1773 1.425 . S
C1768 C1775 1.409 . S
C1769 H1761 0.930 . S
C1769 C1767 1.419 . S
C1769 C1770 1.362 . S
C1770 H1762 0.930 . S
C1770 C1769 1.362 . S
C1770 C1773 1.409 . S
C1771 H1763 0.930 . S
C1771 C1772 1.355 . S
C1771 C1773 1.415 . S
C1772 C1771 1.355 . S
C1772 C1774 1.419 . S
C1773 C1768 1.425 . S
C1773 C1770 1.409 . S
C1773 C1771 1.415 . S
C1774 H1764 0.930 . S
C1774 C1772 1.419 . S
C1774 C1775 1.362 . S
C1775 H1765 0.930 . S
C1775 C1768 1.409 . S
C1775 C1774 1.362 . S
H1776 C1782 0.930 . S
H1777 C1785 0.930 . S
H1778 C1786 0.930 . S
H1779 C1787 0.930 . S
H1780 C1790 0.930 . S
H1781 C1791 0.930 . S
C1782 H1776 0.930 . S
C1782 C1783 1.355 . S
C1782 C1784 1.415 . S
C1783 C1782 1.355 . S
C1783 C1785 1.419 . S
C1784 C1782 1.415 . S
C1784 C1789 1.425 . S
C1784 C1791 1.409 . S
C1785 H1777 0.930 . S
C1785 C1783 1.419 . S
C1785 C1786 1.362 . S
C1786 H1778 0.930 . S
C1786 C1785 1.362 . S
C1786 C1789 1.409 . S
C1787 H1779 0.930 . S
C1787 C1788 1.355 . S
C1787 C1789 1.415 . S
C1788 C1787 1.355 . S
C1788 C1790 1.419 . S
C1789 C1784 1.425 . S
C1789 C1786 1.409 . S
C1789 C1787 1.415 . S
C1790 H1780 0.930 . S
C1790 C1788 1.419 . S
C1790 C1791 1.362 . S
C1791 H1781 0.930 . S
C1791 C1784 1.409 . S
C1791 C1790 1.362 . S
H1792 C1798 0.930 . S
H1793 C1801 0.930 . S
H1794 C1802 0.930 . S
H1795 C1803 0.930 . S
H1796 C1806 0.930 . S
H1797 C1807 0.930 . S
C1798 H1792 0.930 . S
C1798 C1799 1.355 . S
C1798 C1800 1.415 . S
C1799 C1798 1.355 . S
C1799 C1801 1.419 . S
C1800 C1798 1.415 . S
C1800 C1805 1.425 . S
C1800 C1807 1.409 . S
C1801 H1793 0.930 . S
C1801 C1799 1.419 . S
C1801 C1802 1.362 . S
C1802 H1794 0.930 . S
C1802 C1801 1.362 . S
C1802 C1805 1.409 . S
C1803 H1795 0.930 . S
C1803 C1804 1.355 . S
C1803 C1805 1.415 . S
C1804 C1803 1.355 . S
C1804 C1806 1.419 . S
C1805 C1800 1.425 . S
C1805 C1802 1.409 . S
C1805 C1803 1.415 . S
C1806 H1796 0.930 . S
C1806 C1804 1.419 . S
C1806 C1807 1.362 . S
C1807 H1797 0.930 . S
C1807 C1800 1.409 . S
C1807 C1806 1.362 . S
H1808 C1814 0.930 . S
H1809 C1817 0.930 . S
H1810 C1818 0.930 . S
H1811 C1819 0.930 . S
H1812 C1822 0.930 1_655 S
H1813 C1823 0.930 . S
C1814 H1808 0.930 . S
C1814 C1815 1.355 . S
C1814 C1816 1.415 . S
C1815 C1814 1.355 . S
C1815 C1817 1.419 . S
C1816 C1814 1.415 . S
C1816 C1821 1.425 . S
C1816 C1823 1.409 . S
C1817 H1809 0.930 . S
C1817 C1815 1.419 . S
C1817 C1818 1.362 . S
C1818 H1810 0.930 . S
C1818 C1817 1.362 . S
C1818 C1821 1.409 . S
C1819 H1811 0.930 . S
C1819 C1820 1.355 . S
C1819 C1821 1.415 . S
C1820 C1819 1.355 . S
C1820 C1822 1.419 . S
C1821 C1816 1.425 . S
C1821 C1818 1.409 . S
C1821 C1819 1.415 . S
C1822 H1812 0.930 1_455 S
C1822 C1820 1.419 . S
C1822 C1823 1.362 . S
C1823 H1813 0.930 . S
C1823 C1816 1.409 . S
C1823 C1822 1.362 . S
H1824 C1830 0.930 . S
H1825 C1833 0.930 . S
H1826 C1834 0.930 . S
H1827 C1835 0.930 . S
H1828 C1838 0.930 . S
H1829 C1839 0.930 . S
C1830 H1824 0.930 . S
C1830 C1831 1.355 . S
C1830 C1832 1.415 . S
C1831 C1830 1.355 . S
C1831 C1833 1.419 . S
C1832 C1830 1.415 . S
C1832 C1837 1.425 . S
C1832 C1839 1.409 . S
C1833 H1825 0.930 . S
C1833 C1831 1.419 . S
C1833 C1834 1.362 . S
C1834 H1826 0.930 . S
C1834 C1833 1.362 . S
C1834 C1837 1.409 . S
C1835 H1827 0.930 . S
C1835 C1836 1.355 . S
C1835 C1837 1.415 . S
C1836 C1835 1.355 . S
C1836 C1838 1.419 . S
C1837 C1832 1.425 . S
C1837 C1834 1.409 . S
C1837 C1835 1.415 . S
C1838 H1828 0.930 . S
C1838 C1836 1.419 . S
C1838 C1839 1.362 . S
C1839 H1829 0.930 . S
C1839 C1832 1.409 . S
C1839 C1838 1.362 . S
H1840 C1846 0.930 . S
H1841 C1849 0.930 . S
H1842 C1850 0.930 . S
H1843 C1851 0.930 . S
H1844 C1854 0.930 . S
H1845 C1855 0.930 . S
C1846 H1840 0.930 . S
C1846 C1847 1.355 . S
C1846 C1848 1.415 . S
C1847 C1846 1.355 . S
C1847 C1849 1.419 . S
C1848 C1846 1.415 . S
C1848 C1853 1.425 . S
C1848 C1855 1.409 . S
C1849 H1841 0.930 . S
C1849 C1847 1.419 . S
C1849 C1850 1.362 . S
C1850 H1842 0.930 . S
C1850 C1849 1.362 . S
C1850 C1853 1.409 . S
C1851 H1843 0.930 . S
C1851 C1852 1.355 . S
C1851 C1853 1.415 . S
C1852 C1851 1.355 . S
C1852 C1854 1.419 . S
C1853 C1848 1.425 . S
C1853 C1850 1.409 . S
C1853 C1851 1.415 . S
C1854 H1844 0.930 . S
C1854 C1852 1.419 . S
C1854 C1855 1.362 . S
C1855 H1845 0.930 . S
C1855 C1848 1.409 . S
C1855 C1854 1.362 . S
H1856 C1862 0.930 . S
H1857 C1865 0.930 . S
H1858 C1866 0.930 . S
H1859 C1867 0.930 . S
H1860 C1870 0.930 . S
H1861 C1871 0.930 . S
C1862 H1856 0.930 . S
C1862 C1863 1.355 . S
C1862 C1864 1.415 . S
C1863 C1862 1.355 . S
C1863 C1865 1.419 . S
C1864 C1862 1.415 . S
C1864 C1869 1.425 . S
C1864 C1871 1.409 . S
C1865 H1857 0.930 . S
C1865 C1863 1.419 . S
C1865 C1866 1.362 . S
C1866 H1858 0.930 . S
C1866 C1865 1.362 . S
C1866 C1869 1.409 . S
C1867 H1859 0.930 . S
C1867 C1868 1.355 . S
C1867 C1869 1.415 . S
C1868 C1867 1.355 . S
C1868 C1870 1.419 . S
C1869 C1864 1.425 . S
C1869 C1866 1.409 . S
C1869 C1867 1.415 . S
C1870 H1860 0.930 . S
C1870 C1868 1.419 . S
C1870 C1871 1.362 . S
C1871 H1861 0.930 . S
C1871 C1864 1.409 . S
C1871 C1870 1.362 . S
H1872 C1878 0.930 . S
H1873 C1881 0.930 . S
H1874 C1882 0.930 . S
H1875 C1883 0.930 . S
H1876 C1886 0.930 . S
H1877 C1887 0.930 . S
C1878 H1872 0.930 . S
C1878 C1879 1.355 . S
C1878 C1880 1.415 . S
C1879 C1878 1.355 . S
C1879 C1881 1.419 . S
C1880 C1878 1.415 . S
C1880 C1885 1.425 . S
C1880 C1887 1.409 . S
C1881 H1873 0.930 . S
C1881 C1879 1.419 . S
C1881 C1882 1.362 . S
C1882 H1874 0.930 . S
C1882 C1881 1.362 . S
C1882 C1885 1.409 . S
C1883 H1875 0.930 . S
C1883 C1884 1.355 . S
C1883 C1885 1.415 . S
C1884 C1883 1.355 . S
C1884 C1886 1.419 . S
C1885 C1880 1.425 . S
C1885 C1882 1.409 . S
C1885 C1883 1.415 . S
C1886 H1876 0.930 . S
C1886 C1884 1.419 . S
C1886 C1887 1.362 . S
C1887 H1877 0.930 . S
C1887 C1880 1.409 . S
C1887 C1886 1.362 . S
H1888 C1894 0.930 . S
H1889 C1897 0.930 . S
H1890 C1898 0.930 . S
H1891 C1899 0.930 . S
H1892 C1902 0.930 . S
H1893 C1903 0.930 . S
C1894 H1888 0.930 . S
C1894 C1895 1.355 . S
C1894 C1896 1.415 . S
C1895 C1894 1.355 . S
C1895 C1897 1.419 . S
C1896 C1894 1.415 . S
C1896 C1901 1.425 . S
C1896 C1903 1.409 . S
C1897 H1889 0.930 . S
C1897 C1895 1.419 . S
C1897 C1898 1.362 . S
C1898 H1890 0.930 . S
C1898 C1897 1.362 . S
C1898 C1901 1.409 . S
C1899 H1891 0.930 . S
C1899 C1900 1.355 . S
C1899 C1901 1.415 . S
C1900 C1899 1.355 . S
C1900 C1902 1.419 . S
C1901 C1896 1.425 . S
C1901 C1898 1.409 . S
C1901 C1899 1.415 . S
C1902 H1892 0.930 . S
C1902 C1900 1.419 . S
C1902 C1903 1.362 . S
C1903 H1893 0.930 . S
C1903 C1896 1.409 . S
C1903 C1902 1.362 . S
H1904 C1910 0.930 . S
H1905 C1913 0.930 . S
H1906 C1914 0.930 . S
H1907 C1915 0.930 . S
H1908 C1918 0.930 . S
H1909 C1919 0.930 . S
C1910 H1904 0.930 . S
C1910 C1911 1.355 . S
C1910 C1912 1.415 . S
C1911 C1910 1.355 . S
C1911 C1913 1.419 . S
C1912 C1910 1.415 . S
C1912 C1917 1.425 . S
C1912 C1919 1.409 . S
C1913 H1905 0.930 . S
C1913 C1911 1.419 . S
C1913 C1914 1.362 . S
C1914 H1906 0.930 . S
C1914 C1913 1.362 . S
C1914 C1917 1.409 . S
C1915 H1907 0.930 . S
C1915 C1916 1.355 . S
C1915 C1917 1.415 . S
C1916 C1915 1.355 . S
C1916 C1918 1.419 . S
C1917 C1912 1.425 . S
C1917 C1914 1.409 . S
C1917 C1915 1.415 . S
C1918 H1908 0.930 . S
C1918 C1916 1.419 . S
C1918 C1919 1.362 . S
C1919 H1909 0.930 . S
C1919 C1912 1.409 . S
C1919 C1918 1.362 . S
H1920 C1926 0.930 . S
H1921 C1929 0.930 . S
H1922 C1930 0.930 . S
H1923 C1931 0.930 . S
H1924 C1934 0.930 . S
H1925 C1935 0.930 . S
C1926 H1920 0.930 . S
C1926 C1927 1.355 . S
C1926 C1928 1.415 . S
C1927 C1926 1.355 . S
C1927 C1929 1.419 . S
C1928 C1926 1.415 . S
C1928 C1933 1.425 . S
C1928 C1935 1.409 . S
C1929 H1921 0.930 . S
C1929 C1927 1.419 . S
C1929 C1930 1.362 . S
C1930 H1922 0.930 . S
C1930 C1929 1.362 . S
C1930 C1933 1.409 . S
C1931 H1923 0.930 . S
C1931 C1932 1.355 . S
C1931 C1933 1.415 . S
C1932 C1931 1.355 . S
C1932 C1934 1.419 . S
C1933 C1928 1.425 . S
C1933 C1930 1.409 . S
C1933 C1931 1.415 . S
C1934 H1924 0.930 . S
C1934 C1932 1.419 . S
C1934 C1935 1.362 . S
C1935 H1925 0.930 . S
C1935 C1928 1.409 . S
C1935 C1934 1.362 . S
H1936 C1942 0.930 . S
H1937 C1945 0.930 1_455 S
H1938 C1946 0.930 . S
H1939 C1947 0.930 . S
H1940 C1950 0.930 . S
H1941 C1951 0.930 . S
C1942 H1936 0.930 . S
C1942 C1943 1.355 . S
C1942 C1944 1.415 . S
C1943 C1942 1.355 . S
C1943 C1945 1.419 . S
C1944 C1942 1.415 . S
C1944 C1949 1.425 . S
C1944 C1951 1.409 . S
C1945 H1937 0.930 1_655 S
C1945 C1943 1.419 . S
C1945 C1946 1.362 . S
C1946 H1938 0.930 . S
C1946 C1945 1.362 . S
C1946 C1949 1.409 . S
C1947 H1939 0.930 . S
C1947 C1948 1.355 . S
C1947 C1949 1.415 . S
C1948 C1947 1.355 . S
C1948 C1950 1.419 . S
C1949 C1944 1.425 . S
C1949 C1946 1.409 . S
C1949 C1947 1.415 . S
C1950 H1940 0.930 . S
C1950 C1948 1.419 . S
C1950 C1951 1.362 . S
C1951 H1941 0.930 . S
C1951 C1944 1.409 . S
C1951 C1950 1.362 . S
H1952 C1958 0.930 . S
H1953 C1961 0.930 . S
H1954 C1962 0.930 . S
H1955 C1963 0.930 . S
H1956 C1966 0.930 . S
H1957 C1967 0.930 . S
C1958 H1952 0.930 . S
C1958 C1959 1.355 . S
C1958 C1960 1.415 . S
C1959 C1958 1.355 . S
C1959 C1961 1.419 . S
C1960 C1958 1.415 . S
C1960 C1965 1.425 . S
C1960 C1967 1.409 . S
C1961 H1953 0.930 . S
C1961 C1959 1.419 . S
C1961 C1962 1.362 . S
C1962 H1954 0.930 . S
C1962 C1961 1.362 . S
C1962 C1965 1.409 . S
C1963 H1955 0.930 . S
C1963 C1964 1.355 . S
C1963 C1965 1.415 . S
C1964 C1963 1.355 . S
C1964 C1966 1.419 . S
C1965 C1960 1.425 . S
C1965 C1962 1.409 . S
C1965 C1963 1.415 . S
C1966 H1956 0.930 . S
C1966 C1964 1.419 . S
C1966 C1967 1.362 . S
C1967 H1957 0.930 . S
C1967 C1960 1.409 . S
C1967 C1966 1.362 . S
H1968 C1974 0.930 . S
H1969 C1977 0.930 . S
H1970 C1978 0.930 . S
H1971 C1979 0.930 . S
H1972 C1982 0.930 . S
H1973 C1983 0.930 . S
C1974 H1968 0.930 . S
C1974 C1975 1.355 . S
C1974 C1976 1.415 . S
C1975 C1974 1.355 . S
C1975 C1977 1.419 . S
C1976 C1974 1.415 . S
C1976 C1981 1.425 . S
C1976 C1983 1.409 . S
C1977 H1969 0.930 . S
C1977 C1975 1.419 . S
C1977 C1978 1.362 . S
C1978 H1970 0.930 . S
C1978 C1977 1.362 . S
C1978 C1981 1.409 . S
C1979 H1971 0.930 . S
C1979 C1980 1.355 . S
C1979 C1981 1.415 . S
C1980 C1979 1.355 . S
C1980 C1982 1.419 . S
C1981 C1976 1.425 . S
C1981 C1978 1.409 . S
C1981 C1979 1.415 . S
C1982 H1972 0.930 . S
C1982 C1980 1.419 . S
C1982 C1983 1.362 . S
C1983 H1973 0.930 . S
C1983 C1976 1.409 . S
C1983 C1982 1.362 . S
H1984 C1990 0.930 . S
H1985 C1993 0.930 . S
H1986 C1994 0.930 . S
H1987 C1995 0.930 . S
H1988 C1998 0.930 . S
H1989 C1999 0.930 . S
C1990 H1984 0.930 . S
C1990 C1991 1.355 . S
C1990 C1992 1.415 . S
C1991 C1990 1.355 . S
C1991 C1993 1.419 . S
C1992 C1990 1.415 . S
C1992 C1997 1.425 . S
C1992 C1999 1.409 . S
C1993 H1985 0.930 . S
C1993 C1991 1.419 . S
C1993 C1994 1.362 . S
C1994 H1986 0.930 . S
C1994 C1993 1.362 . S
C1994 C1997 1.409 . S
C1995 H1987 0.930 . S
C1995 C1996 1.355 . S
C1995 C1997 1.415 . S
C1996 C1995 1.355 . S
C1996 C1998 1.419 . S
C1997 C1992 1.425 . S
C1997 C1994 1.409 . S
C1997 C1995 1.415 . S
C1998 H1988 0.930 . S
C1998 C1996 1.419 . S
C1998 C1999 1.362 . S
C1999 H1989 0.930 . S
C1999 C1992 1.409 . S
C1999 C1998 1.362 . S
H2000 C2006 0.930 . S
H2001 C2009 0.930 . S
H2002 C2010 0.930 . S
H2003 C2011 0.930 . S
H2004 C2014 0.930 . S
H2005 C2015 0.930 . S
C2006 H2000 0.930 . S
C2006 C2007 1.355 . S
C2006 C2008 1.415 . S
C2007 C2006 1.355 . S
C2007 C2009 1.419 . S
C2008 C2006 1.415 . S
C2008 C2013 1.425 . S
C2008 C2015 1.409 . S
C2009 H2001 0.930 . S
C2009 C2007 1.419 . S
C2009 C2010 1.362 . S
C2010 H2002 0.930 . S
C2010 C2009 1.362 . S
C2010 C2013 1.409 . S
C2011 H2003 0.930 . S
C2011 C2012 1.355 . S
C2011 C2013 1.415 . S
C2012 C2011 1.355 . S
C2012 C2014 1.419 . S
C2013 C2008 1.425 . S
C2013 C2010 1.409 . S
C2013 C2011 1.415 . S
C2014 H2004 0.930 . S
C2014 C2012 1.419 . S
C2014 C2015 1.362 . S
C2015 H2005 0.930 . S
C2015 C2008 1.409 . S
C2015 C2014 1.362 . S
H2016 C2022 0.930 . S
H2017 C2025 0.930 . S
H2018 C2026 0.930 . S
H2019 C2027 0.930 . S
H2020 C2030 0.930 . S
H2021 C2031 0.930 . S
C2022 H2016 0.930 . S
C2022 C2023 1.355 . S
C2022 C2024 1.415 . S
C2023 C2022 1.355 . S
C2023 C2025 1.419 . S
C2024 C2022 1.415 . S
C2024 C2029 1.425 . S
C2024 C2031 1.409 . S
C2025 H2017 0.930 . S
C2025 C2023 1.419 . S
C2025 C2026 1.362 . S
C2026 H2018 0.930 . S
C2026 C2025 1.362 . S
C2026 C2029 1.409 . S
C2027 H2019 0.930 . S
C2027 C2028 1.355 . S
C2027 C2029 1.415 . S
C2028 C2027 1.355 . S
C2028 C2030 1.419 . S
C2029 C2024 1.425 . S
C2029 C2026 1.409 . S
C2029 C2027 1.415 . S
C2030 H2020 0.930 . S
C2030 C2028 1.419 . S
C2030 C2031 1.362 . S
C2031 H2021 0.930 . S
C2031 C2024 1.409 . S
C2031 C2030 1.362 . S
H2032 C2038 0.930 . S
H2033 C2041 0.930 . S
H2034 C2042 0.930 . S
H2035 C2043 0.930 . S
H2036 C2046 0.930 1_455 S
H2037 C2047 0.930 . S
C2038 H2032 0.930 . S
C2038 C2039 1.355 . S
C2038 C2040 1.415 . S
C2039 C2038 1.355 . S
C2039 C2041 1.419 . S
C2040 C2038 1.415 . S
C2040 C2045 1.425 . S
C2040 C2047 1.409 . S
C2041 H2033 0.930 . S
C2041 C2039 1.419 . S
C2041 C2042 1.362 . S
C2042 H2034 0.930 . S
C2042 C2041 1.362 . S
C2042 C2045 1.409 . S
C2043 H2035 0.930 . S
C2043 C2044 1.355 . S
C2043 C2045 1.415 . S
C2044 C2043 1.355 . S
C2044 C2046 1.419 . S
C2045 C2040 1.425 . S
C2045 C2042 1.409 . S
C2045 C2043 1.415 . S
C2046 H2036 0.930 1_655 S
C2046 C2044 1.419 . S
C2046 C2047 1.362 . S
C2047 H2037 0.930 . S
C2047 C2040 1.409 . S
C2047 C2046 1.362 . S
H2048 C2054 0.930 . S
H2049 C2057 0.930 . S
H2050 C2058 0.930 . S
H2051 C2059 0.930 . S
H2052 C2062 0.930 . S
H2053 C2063 0.930 . S
C2054 H2048 0.930 . S
C2054 C2055 1.355 . S
C2054 C2056 1.415 . S
C2055 C2054 1.355 . S
C2055 C2057 1.419 . S
C2056 C2054 1.415 . S
C2056 C2061 1.425 . S
C2056 C2063 1.409 . S
C2057 H2049 0.930 . S
C2057 C2055 1.419 . S
C2057 C2058 1.362 . S
C2058 H2050 0.930 . S
C2058 C2057 1.362 . S
C2058 C2061 1.409 . S
C2059 H2051 0.930 . S
C2059 C2060 1.355 . S
C2059 C2061 1.415 . S
C2060 C2059 1.355 . S
C2060 C2062 1.419 . S
C2061 C2056 1.425 . S
C2061 C2058 1.409 . S
C2061 C2059 1.415 . S
C2062 H2052 0.930 . S
C2062 C2060 1.419 . S
C2062 C2063 1.362 . S
C2063 H2053 0.930 . S
C2063 C2056 1.409 . S
C2063 C2062 1.362 . S
H2064 C2070 0.930 . S
H2065 C2073 0.930 . S
H2066 C2074 0.930 . S
H2067 C2075 0.930 . S
H2068 C2078 0.930 . S
H2069 C2079 0.930 . S
C2070 H2064 0.930 . S
C2070 C2071 1.355 . S
C2070 C2072 1.415 . S
C2071 C2070 1.355 . S
C2071 C2073 1.419 . S
C2072 C2070 1.415 . S
C2072 C2077 1.425 . S
C2072 C2079 1.409 . S
C2073 H2065 0.930 . S
C2073 C2071 1.419 . S
C2073 C2074 1.362 . S
C2074 H2066 0.930 . S
C2074 C2073 1.362 . S
C2074 C2077 1.409 . S
C2075 H2067 0.930 . S
C2075 C2076 1.355 . S
C2075 C2077 1.415 . S
C2076 C2075 1.355 . S
C2076 C2078 1.419 . S
C2077 C2072 1.425 . S
C2077 C2074 1.409 . S
C2077 C2075 1.415 . S
C2078 H2068 0.930 . S
C2078 C2076 1.419 . S
C2078 C2079 1.362 . S
C2079 H2069 0.930 . S
C2079 C2072 1.409 . S
C2079 C2078 1.362 . S
H2080 C2086 0.930 . S
H2081 C2089 0.930 . S
H2082 C2090 0.930 . S
H2083 C2091 0.930 . S
H2084 C2094 0.930 . S
H2085 C2095 0.930 . S
C2086 H2080 0.930 . S
C2086 C2087 1.355 . S
C2086 C2088 1.415 . S
C2087 C2086 1.355 . S
C2087 C2089 1.419 . S
C2088 C2086 1.415 . S
C2088 C2093 1.425 . S
C2088 C2095 1.409 . S
C2089 H2081 0.930 . S
C2089 C2087 1.419 . S
C2089 C2090 1.362 . S
C2090 H2082 0.930 . S
C2090 C2089 1.362 . S
C2090 C2093 1.409 . S
C2091 H2083 0.930 . S
C2091 C2092 1.355 . S
C2091 C2093 1.415 . S
C2092 C2091 1.355 . S
C2092 C2094 1.419 . S
C2093 C2088 1.425 . S
C2093 C2090 1.409 . S
C2093 C2091 1.415 . S
C2094 H2084 0.930 . S
C2094 C2092 1.419 . S
C2094 C2095 1.362 . S
C2095 H2085 0.930 . S
C2095 C2088 1.409 . S
C2095 C2094 1.362 . S
H2096 C2102 0.930 . S
H2097 C2105 0.930 . S
H2098 C2106 0.930 . S
H2099 C2107 0.930 . S
H2100 C2110 0.930 . S
H2101 C2111 0.930 . S
C2102 H2096 0.930 . S
C2102 C2103 1.355 . S
C2102 C2104 1.415 . S
C2103 C2102 1.355 . S
C2103 C2105 1.419 . S
C2104 C2102 1.415 . S
C2104 C2109 1.425 . S
C2104 C2111 1.409 . S
C2105 H2097 0.930 . S
C2105 C2103 1.419 . S
C2105 C2106 1.362 . S
C2106 H2098 0.930 . S
C2106 C2105 1.362 . S
C2106 C2109 1.409 . S
C2107 H2099 0.930 . S
C2107 C2108 1.355 . S
C2107 C2109 1.415 . S
C2108 C2107 1.355 . S
C2108 C2110 1.419 . S
C2109 C2104 1.425 . S
C2109 C2106 1.409 . S
C2109 C2107 1.415 . S
C2110 H2100 0.930 . S
C2110 C2108 1.419 . S
C2110 C2111 1.362 . S
C2111 H2101 0.930 . S
C2111 C2104 1.409 . S
C2111 C2110 1.362 . S
H2112 C2118 0.930 . S
H2113 C2121 0.930 . S
H2114 C2122 0.930 . S
H2115 C2123 0.930 . S
H2116 C2126 0.930 . S
H2117 C2127 0.930 . S
C2118 H2112 0.930 . S
C2118 C2119 1.355 . S
C2118 C2120 1.415 . S
C2119 C2118 1.355 . S
C2119 C2121 1.419 . S
C2120 C2118 1.415 . S
C2120 C2125 1.425 . S
C2120 C2127 1.409 . S
C2121 H2113 0.930 . S
C2121 C2119 1.419 . S
C2121 C2122 1.362 . S
C2122 H2114 0.930 . S
C2122 C2121 1.362 . S
C2122 C2125 1.409 . S
C2123 H2115 0.930 . S
C2123 C2124 1.355 . S
C2123 C2125 1.415 . S
C2124 C2123 1.355 . S
C2124 C2126 1.419 . S
C2125 C2120 1.425 . S
C2125 C2122 1.409 . S
C2125 C2123 1.415 . S
C2126 H2116 0.930 . S
C2126 C2124 1.419 . S
C2126 C2127 1.362 . S
C2127 H2117 0.930 . S
C2127 C2120 1.409 . S
C2127 C2126 1.362 . S
H2128 C2134 0.930 . S
H2129 C2137 0.930 . S
H2130 C2138 0.930 . S
H2131 C2139 0.930 . S
H2132 C2142 0.930 1_455 S
H2133 C2143 0.930 . S
C2134 H2128 0.930 . S
C2134 C2135 1.355 . S
C2134 C2136 1.415 . S
C2135 C2134 1.355 . S
C2135 C2137 1.419 . S
C2136 C2134 1.415 . S
C2136 C2141 1.425 . S
C2136 C2143 1.409 . S
C2137 H2129 0.930 . S
C2137 C2135 1.419 . S
C2137 C2138 1.362 . S
C2138 H2130 0.930 . S
C2138 C2137 1.362 . S
C2138 C2141 1.409 . S
C2139 H2131 0.930 . S
C2139 C2140 1.355 . S
C2139 C2141 1.415 . S
C2140 C2139 1.355 . S
C2140 C2142 1.419 . S
C2141 C2136 1.425 . S
C2141 C2138 1.409 . S
C2141 C2139 1.415 . S
C2142 H2132 0.930 1_655 S
C2142 C2140 1.419 . S
C2142 C2143 1.362 . S
C2143 H2133 0.930 . S
C2143 C2136 1.409 . S
C2143 C2142 1.362 . S
H2144 C2150 0.930 . S
H2145 C2153 0.930 . S
H2146 C2154 0.930 . S
H2147 C2155 0.930 . S
H2148 C2158 0.930 . S
H2149 C2159 0.930 . S
C2150 H2144 0.930 . S
C2150 C2151 1.355 . S
C2150 C2152 1.415 . S
C2151 C2150 1.355 . S
C2151 C2153 1.419 . S
C2152 C2150 1.415 . S
C2152 C2157 1.425 . S
C2152 C2159 1.409 . S
C2153 H2145 0.930 . S
C2153 C2151 1.419 . S
C2153 C2154 1.362 . S
C2154 H2146 0.930 . S
C2154 C2153 1.362 . S
C2154 C2157 1.409 . S
C2155 H2147 0.930 . S
C2155 C2156 1.355 . S
C2155 C2157 1.415 . S
C2156 C2155 1.355 . S
C2156 C2158 1.419 . S
C2157 C2152 1.425 . S
C2157 C2154 1.409 . S
C2157 C2155 1.415 . S
C2158 H2148 0.930 . S
C2158 C2156 1.419 . S
C2158 C2159 1.362 . S
C2159 H2149 0.930 . S
C2159 C2152 1.409 . S
C2159 C2158 1.362 . S
H2160 C2166 0.930 . S
H2161 C2169 0.930 . S
H2162 C2170 0.930 . S
H2163 C2171 0.930 . S
H2164 C2174 0.930 . S
H2165 C2175 0.930 . S
C2166 H2160 0.930 . S
C2166 C2167 1.355 . S
C2166 C2168 1.415 . S
C2167 C2166 1.355 . S
C2167 C2169 1.419 . S
C2168 C2166 1.415 . S
C2168 C2173 1.425 . S
C2168 C2175 1.409 . S
C2169 H2161 0.930 . S
C2169 C2167 1.419 . S
C2169 C2170 1.362 . S
C2170 H2162 0.930 . S
C2170 C2169 1.362 . S
C2170 C2173 1.409 . S
C2171 H2163 0.930 . S
C2171 C2172 1.355 . S
C2171 C2173 1.415 . S
C2172 C2171 1.355 . S
C2172 C2174 1.419 . S
C2173 C2168 1.425 . S
C2173 C2170 1.409 . S
C2173 C2171 1.415 . S
C2174 H2164 0.930 . S
C2174 C2172 1.419 . S
C2174 C2175 1.362 . S
C2175 H2165 0.930 . S
C2175 C2168 1.409 . S
C2175 C2174 1.362 . S
H2176 C2182 0.930 . S
H2177 C2185 0.930 . S
H2178 C2186 0.930 . S
H2179 C2187 0.930 . S
H2180 C2190 0.930 . S
H2181 C2191 0.930 . S
C2182 H2176 0.930 . S
C2182 C2183 1.355 . S
C2182 C2184 1.415 . S
C2183 C2182 1.355 . S
C2183 C2185 1.419 . S
C2184 C2182 1.415 . S
C2184 C2189 1.425 . S
C2184 C2191 1.409 . S
C2185 H2177 0.930 . S
C2185 C2183 1.419 . S
C2185 C2186 1.362 . S
C2186 H2178 0.930 . S
C2186 C2185 1.362 . S
C2186 C2189 1.409 . S
C2187 H2179 0.930 . S
C2187 C2188 1.355 . S
C2187 C2189 1.415 . S
C2188 C2187 1.355 . S
C2188 C2190 1.419 . S
C2189 C2184 1.425 . S
C2189 C2186 1.409 . S
C2189 C2187 1.415 . S
C2190 H2180 0.930 . S
C2190 C2188 1.419 . S
C2190 C2191 1.362 . S
C2191 H2181 0.930 . S
C2191 C2184 1.409 . S
C2191 C2190 1.362 . S
H2192 C2198 0.930 . S
H2193 C2201 0.930 . S
H2194 C2202 0.930 . S
H2195 C2203 0.930 . S
H2196 C2206 0.930 . S
H2197 C2207 0.930 . S
C2198 H2192 0.930 . S
C2198 C2199 1.355 . S
C2198 C2200 1.415 . S
C2199 C2198 1.355 . S
C2199 C2201 1.419 . S
C2200 C2198 1.415 . S
C2200 C2205 1.425 . S
C2200 C2207 1.409 . S
C2201 H2193 0.930 . S
C2201 C2199 1.419 . S
C2201 C2202 1.362 . S
C2202 H2194 0.930 . S
C2202 C2201 1.362 . S
C2202 C2205 1.409 . S
C2203 H2195 0.930 . S
C2203 C2204 1.355 . S
C2203 C2205 1.415 . S
C2204 C2203 1.355 . S
C2204 C2206 1.419 . S
C2205 C2200 1.425 . S
C2205 C2202 1.409 . S
C2205 C2203 1.415 . S
C2206 H2196 0.930 . S
C2206 C2204 1.419 . S
C2206 C2207 1.362 . S
C2207 H2197 0.930 . S
C2207 C2200 1.409 . S
C2207 C2206 1.362 . S
H2208 C2214 0.930 . S
H2209 C2217 0.930 . S
H2210 C2218 0.930 . S
H2211 C2219 0.930 . S
H2212 C2222 0.930 . S
H2213 C2223 0.930 . S
C2214 H2208 0.930 . S
C2214 C2215 1.355 . S
C2214 C2216 1.415 . S
C2215 C2214 1.355 . S
C2215 C2217 1.419 . S
C2216 C2214 1.415 . S
C2216 C2221 1.425 . S
C2216 C2223 1.409 . S
C2217 H2209 0.930 . S
C2217 C2215 1.419 . S
C2217 C2218 1.362 . S
C2218 H2210 0.930 . S
C2218 C2217 1.362 . S
C2218 C2221 1.409 . S
C2219 H2211 0.930 . S
C2219 C2220 1.355 . S
C2219 C2221 1.415 . S
C2220 C2219 1.355 . S
C2220 C2222 1.419 . S
C2221 C2216 1.425 . S
C2221 C2218 1.409 . S
C2221 C2219 1.415 . S
C2222 H2212 0.930 . S
C2222 C2220 1.419 . S
C2222 C2223 1.362 . S
C2223 H2213 0.930 . S
C2223 C2216 1.409 . S
C2223 C2222 1.362 . S
H2224 C2230 0.930 . S
H2225 C2233 0.930 1_655 S
H2226 C2234 0.930 . S
H2227 C2235 0.930 . S
H2228 C2238 0.930 . S
H2229 C2239 0.930 . S
C2230 H2224 0.930 . S
C2230 C2231 1.355 . S
C2230 C2232 1.415 . S
C2231 C2230 1.355 . S
C2231 C2233 1.419 . S
C2232 C2230 1.415 . S
C2232 C2237 1.425 . S
C2232 C2239 1.409 . S
C2233 H2225 0.930 1_455 S
C2233 C2231 1.419 . S
C2233 C2234 1.362 . S
C2234 H2226 0.930 . S
C2234 C2233 1.362 . S
C2234 C2237 1.409 . S
C2235 H2227 0.930 . S
C2235 C2236 1.355 . S
C2235 C2237 1.415 . S
C2236 C2235 1.355 . S
C2236 C2238 1.419 . S
C2237 C2232 1.425 . S
C2237 C2234 1.409 . S
C2237 C2235 1.415 . S
C2238 H2228 0.930 . S
C2238 C2236 1.419 . S
C2238 C2239 1.362 . S
C2239 H2229 0.930 . S
C2239 C2232 1.409 . S
C2239 C2238 1.362 . S
H2240 C2246 0.930 . S
H2241 C2249 0.930 . S
H2242 C2250 0.930 . S
H2243 C2251 0.930 . S
H2244 C2254 0.930 . S
H2245 C2255 0.930 . S
C2246 H2240 0.930 . S
C2246 C2247 1.355 . S
C2246 C2248 1.415 . S
C2247 C2246 1.355 . S
C2247 C2249 1.419 . S
C2248 C2246 1.415 . S
C2248 C2253 1.425 . S
C2248 C2255 1.409 . S
C2249 H2241 0.930 . S
C2249 C2247 1.419 . S
C2249 C2250 1.362 . S
C2250 H2242 0.930 . S
C2250 C2249 1.362 . S
C2250 C2253 1.409 . S
C2251 H2243 0.930 . S
C2251 C2252 1.355 . S
C2251 C2253 1.415 . S
C2252 C2251 1.355 . S
C2252 C2254 1.419 . S
C2253 C2248 1.425 . S
C2253 C2250 1.409 . S
C2253 C2251 1.415 . S
C2254 H2244 0.930 . S
C2254 C2252 1.419 . S
C2254 C2255 1.362 . S
C2255 H2245 0.930 . S
C2255 C2248 1.409 . S
C2255 C2254 1.362 . S
H2256 C2262 0.930 . S
H2257 C2265 0.930 . S
H2258 C2266 0.930 . S
H2259 C2267 0.930 . S
H2260 C2270 0.930 1_655 S
H2261 C2271 0.930 . S
C2262 H2256 0.930 . S
C2262 C2263 1.355 . S
C2262 C2264 1.415 . S
C2263 C2262 1.355 . S
C2263 C2265 1.419 . S
C2264 C2262 1.415 . S
C2264 C2269 1.425 . S
C2264 C2271 1.409 . S
C2265 H2257 0.930 . S
C2265 C2263 1.419 . S
C2265 C2266 1.362 . S
C2266 H2258 0.930 . S
C2266 C2265 1.362 . S
C2266 C2269 1.409 . S
C2267 H2259 0.930 . S
C2267 C2268 1.355 . S
C2267 C2269 1.415 . S
C2268 C2267 1.355 . S
C2268 C2270 1.419 . S
C2269 C2264 1.425 . S
C2269 C2266 1.409 . S
C2269 C2267 1.415 . S
C2270 H2260 0.930 1_455 S
C2270 C2268 1.419 . S
C2270 C2271 1.362 . S
C2271 H2261 0.930 . S
C2271 C2264 1.409 . S
C2271 C2270 1.362 . S
H2272 C2278 0.930 . S
H2273 C2281 0.930 . S
H2274 C2282 0.930 . S
H2275 C2283 0.930 . S
H2276 C2286 0.930 . S
H2277 C2287 0.930 . S
C2278 H2272 0.930 . S
C2278 C2279 1.355 . S
C2278 C2280 1.415 . S
C2279 C2278 1.355 . S
C2279 C2281 1.419 . S
C2280 C2278 1.415 . S
C2280 C2285 1.425 . S
C2280 C2287 1.409 . S
C2281 H2273 0.930 . S
C2281 C2279 1.419 . S
C2281 C2282 1.362 . S
C2282 H2274 0.930 . S
C2282 C2281 1.362 . S
C2282 C2285 1.409 . S
C2283 H2275 0.930 . S
C2283 C2284 1.355 . S
C2283 C2285 1.415 . S
C2284 C2283 1.355 . S
C2284 C2286 1.419 . S
C2285 C2280 1.425 . S
C2285 C2282 1.409 . S
C2285 C2283 1.415 . S
C2286 H2276 0.930 . S
C2286 C2284 1.419 . S
C2286 C2287 1.362 . S
C2287 H2277 0.930 . S
C2287 C2280 1.409 . S
C2287 C2286 1.362 . S
H2288 C2294 0.930 . S
H2289 C2297 0.930 . S
H2290 C2298 0.930 . S
H2291 C2299 0.930 . S
H2292 C2302 0.930 . S
H2293 C2303 0.930 . S
C2294 H2288 0.930 . S
C2294 C2295 1.355 . S
C2294 C2296 1.415 . S
C2295 C2294 1.355 . S
C2295 C2297 1.419 . S
C2296 C2294 1.415 . S
C2296 C2301 1.425 . S
C2296 C2303 1.409 . S
C2297 H2289 0.930 . S
C2297 C2295 1.419 . S
C2297 C2298 1.362 . S
C2298 H2290 0.930 . S
C2298 C2297 1.362 . S
C2298 C2301 1.409 . S
C2299 H2291 0.930 . S
C2299 C2300 1.355 . S
C2299 C2301 1.415 . S
C2300 C2299 1.355 . S
C2300 C2302 1.419 . S
C2301 C2296 1.425 . S
C2301 C2298 1.409 . S
C2301 C2299 1.415 . S
C2302 H2292 0.930 . S
C2302 C2300 1.419 . S
C2302 C2303 1.362 . S
C2303 H2293 0.930 . S
C2303 C2296 1.409 . S
C2303 C2302 1.362 . S
H2304 C2310 0.930 . S
H2305 C2313 0.930 . S
H2306 C2314 0.930 . S
H2307 C2315 0.930 . S
H2308 C2318 0.930 . S
H2309 C2319 0.930 . S
C2310 H2304 0.930 . S
C2310 C2311 1.355 . S
C2310 C2312 1.415 . S
C2311 C2310 1.355 . S
C2311 C2313 1.419 . S
C2312 C2310 1.415 . S
C2312 C2317 1.425 1_545 S
C2312 C2319 1.409 1_545 S
C2313 H2305 0.930 . S
C2313 C2311 1.419 . S
C2313 C2314 1.362 . S
C2314 H2306 0.930 . S
C2314 C2313 1.362 . S
C2314 C2317 1.409 1_545 S
C2315 H2307 0.930 . S
C2315 C2316 1.355 . S
C2315 C2317 1.415 . S
C2316 C2315 1.355 . S
C2316 C2318 1.419 . S
C2317 C2312 1.425 1_565 S
C2317 C2314 1.409 1_565 S
C2317 C2315 1.415 . S
C2318 H2308 0.930 . S
C2318 C2316 1.419 . S
C2318 C2319 1.362 . S
C2319 H2309 0.930 . S
C2319 C2312 1.409 1_565 S
C2319 C2318 1.362 . S
H2320 C2326 0.930 . S
H2321 C2329 0.930 . S
H2322 C2330 0.930 . S
H2323 C2331 0.930 . S
H2324 C2334 0.930 . S
H2325 C2335 0.930 . S
C2326 H2320 0.930 . S
C2326 C2327 1.355 . S
C2326 C2328 1.415 . S
C2327 C2326 1.355 . S
C2327 C2329 1.419 . S
C2328 C2326 1.415 . S
C2328 C2333 1.425 . S
C2328 C2335 1.409 . S
C2329 H2321 0.930 . S
C2329 C2327 1.419 . S
C2329 C2330 1.362 . S
C2330 H2322 0.930 . S
C2330 C2329 1.362 . S
C2330 C2333 1.409 . S
C2331 H2323 0.930 . S
C2331 C2332 1.355 . S
C2331 C2333 1.415 . S
C2332 C2331 1.355 . S
C2332 C2334 1.419 . S
C2333 C2328 1.425 . S
C2333 C2330 1.409 . S
C2333 C2331 1.415 . S
C2334 H2324 0.930 . S
C2334 C2332 1.419 . S
C2334 C2335 1.362 . S
C2335 H2325 0.930 . S
C2335 C2328 1.409 . S
C2335 C2334 1.362 . S
H2336 C2342 0.930 . S
H2337 C2345 0.930 . S
H2338 C2346 0.930 . S
H2339 C2347 0.930 . S
H2340 C2350 0.930 . S
H2341 C2351 0.930 . S
C2342 H2336 0.930 . S
C2342 C2343 1.355 . S
C2342 C2344 1.415 . S
C2343 C2342 1.355 . S
C2343 C2345 1.419 . S
C2344 C2342 1.415 . S
C2344 C2349 1.425 1_565 S
C2344 C2351 1.409 1_565 S
C2345 H2337 0.930 . S
C2345 C2343 1.419 . S
C2345 C2346 1.362 . S
C2346 H2338 0.930 . S
C2346 C2345 1.362 . S
C2346 C2349 1.409 1_565 S
C2347 H2339 0.930 . S
C2347 C2348 1.355 . S
C2347 C2349 1.415 . S
C2348 C2347 1.355 . S
C2348 C2350 1.419 . S
C2349 C2344 1.425 1_545 S
C2349 C2346 1.409 1_545 S
C2349 C2347 1.415 . S
C2350 H2340 0.930 . S
C2350 C2348 1.419 . S
C2350 C2351 1.362 . S
C2351 H2341 0.930 . S
C2351 C2344 1.409 1_545 S
C2351 C2350 1.362 . S
H2352 C2358 0.930 . S
H2353 C2361 0.930 . S
H2354 C2362 0.930 . S
H2355 C2363 0.930 . S
H2356 C2366 0.930 . S
H2357 C2367 0.930 . S
C2358 H2352 0.930 . S
C2358 C2359 1.355 1_556 S
C2358 C2360 1.415 . S
C2359 C2358 1.355 1_554 S
C2359 C2361 1.419 . S
C2360 C2358 1.415 . S
C2360 C2365 1.425 1_556 S
C2360 C2367 1.409 . S
C2361 H2353 0.930 . S
C2361 C2359 1.419 . S
C2361 C2362 1.362 . S
C2362 H2354 0.930 . S
C2362 C2361 1.362 . S
C2362 C2365 1.409 . S
C2363 H2355 0.930 . S
C2363 C2364 1.355 1_554 S
C2363 C2365 1.415 . S
C2364 C2363 1.355 1_556 S
C2364 C2366 1.419 . S
C2365 C2360 1.425 1_554 S
C2365 C2362 1.409 . S
C2365 C2363 1.415 . S
C2366 H2356 0.930 . S
C2366 C2364 1.419 . S
C2366 C2367 1.362 . S
C2367 H2357 0.930 . S
C2367 C2360 1.409 . S
C2367 C2366 1.362 . S
H2368 C2374 0.930 . S
H2369 C2377 0.930 . S
H2370 C2378 0.930 . S
H2371 C2379 0.930 . S
H2372 C2382 0.930 . S
H2373 C2383 0.930 . S
C2374 H2368 0.930 . S
C2374 C2375 1.355 . S
C2374 C2376 1.415 . S
C2375 C2374 1.355 . S
C2375 C2377 1.419 . S
C2376 C2374 1.415 . S
C2376 C2381 1.425 1_545 S
C2376 C2383 1.409 1_545 S
C2377 H2369 0.930 . S
C2377 C2375 1.419 . S
C2377 C2378 1.362 . S
C2378 H2370 0.930 . S
C2378 C2377 1.362 . S
C2378 C2381 1.409 1_545 S
C2379 H2371 0.930 . S
C2379 C2380 1.355 . S
C2379 C2381 1.415 . S
C2380 C2379 1.355 . S
C2380 C2382 1.419 . S
C2381 C2376 1.425 1_565 S
C2381 C2378 1.409 1_565 S
C2381 C2379 1.415 . S
C2382 H2372 0.930 . S
C2382 C2380 1.419 . S
C2382 C2383 1.362 . S
C2383 H2373 0.930 . S
C2383 C2376 1.409 1_565 S
C2383 C2382 1.362 . S
H2384 C2390 0.930 . S
H2385 C2393 0.930 . S
H2386 C2394 0.930 . S
H2387 C2395 0.930 . S
H2388 C2398 0.930 . S
H2389 C2399 0.930 . S
C2390 H2384 0.930 . S
C2390 C2391 1.355 . S
C2390 C2392 1.415 . S
C2391 C2390 1.355 . S
C2391 C2393 1.419 . S
C2392 C2390 1.415 . S
C2392 C2397 1.425 . S
C2392 C2399 1.409 . S
C2393 H2385 0.930 . S
C2393 C2391 1.419 . S
C2393 C2394 1.362 . S
C2394 H2386 0.930 . S
C2394 C2393 1.362 . S
C2394 C2397 1.409 . S
C2395 H2387 0.930 . S
C2395 C2396 1.355 . S
C2395 C2397 1.415 . S
C2396 C2395 1.355 . S
C2396 C2398 1.419 . S
C2397 C2392 1.425 . S
C2397 C2394 1.409 . S
C2397 C2395 1.415 . S
C2398 H2388 0.930 . S
C2398 C2396 1.419 . S
C2398 C2399 1.362 . S
C2399 H2389 0.930 . S
C2399 C2392 1.409 . S
C2399 C2398 1.362 . S
H2400 C2406 0.930 . S
H2401 C2409 0.930 . S
H2402 C2410 0.930 . S
H2403 C2411 0.930 . S
H2404 C2414 0.930 . S
H2405 C2415 0.930 . S
C2406 H2400 0.930 . S
C2406 C2407 1.355 . S
C2406 C2408 1.415 . S
C2407 C2406 1.355 . S
C2407 C2409 1.419 . S
C2408 C2406 1.415 . S
C2408 C2413 1.425 1_545 S
C2408 C2415 1.409 1_545 S
C2409 H2401 0.930 . S
C2409 C2407 1.419 . S
C2409 C2410 1.362 . S
C2410 H2402 0.930 . S
C2410 C2409 1.362 . S
C2410 C2413 1.409 1_545 S
C2411 H2403 0.930 . S
C2411 C2412 1.355 . S
C2411 C2413 1.415 . S
C2412 C2411 1.355 . S
C2412 C2414 1.419 . S
C2413 C2408 1.425 1_565 S
C2413 C2410 1.409 1_565 S
C2413 C2411 1.415 . S
C2414 H2404 0.930 . S
C2414 C2412 1.419 . S
C2414 C2415 1.362 . S
C2415 H2405 0.930 . S
C2415 C2408 1.409 1_565 S
C2415 C2414 1.362 . S
H2416 C2422 0.930 . S
H2417 C2425 0.930 . S
H2418 C2426 0.930 . S
H2419 C2427 0.930 . S
H2420 C2430 0.930 . S
H2421 C2431 0.930 . S
C2422 H2416 0.930 . S
C2422 C2423 1.355 1_556 S
C2422 C2424 1.415 . S
C2423 C2422 1.355 1_554 S
C2423 C2425 1.419 . S
C2424 C2422 1.415 . S
C2424 C2429 1.425 1_556 S
C2424 C2431 1.409 . S
C2425 H2417 0.930 . S
C2425 C2423 1.419 . S
C2425 C2426 1.362 . S
C2426 H2418 0.930 . S
C2426 C2425 1.362 . S
C2426 C2429 1.409 . S
C2427 H2419 0.930 . S
C2427 C2428 1.355 1_554 S
C2427 C2429 1.415 . S
C2428 C2427 1.355 1_556 S
C2428 C2430 1.419 . S
C2429 C2424 1.425 1_554 S
C2429 C2426 1.409 . S
C2429 C2427 1.415 . S
C2430 H2420 0.930 . S
C2430 C2428 1.419 . S
C2430 C2431 1.362 . S
C2431 H2421 0.930 . S
C2431 C2424 1.409 . S
C2431 C2430 1.362 . S
H2432 C2438 0.930 . S
H2433 C2441 0.930 . S
H2434 C2442 0.930 . S
H2435 C2443 0.930 . S
H2436 C2446 0.930 . S
H2437 C2447 0.930 . S
C2438 H2432 0.930 . S
C2438 C2439 1.355 . S
C2438 C2440 1.415 . S
C2439 C2438 1.355 . S
C2439 C2441 1.419 . S
C2440 C2438 1.415 . S
C2440 C2445 1.425 . S
C2440 C2447 1.409 . S
C2441 H2433 0.930 . S
C2441 C2439 1.419 . S
C2441 C2442 1.362 . S
C2442 H2434 0.930 . S
C2442 C2441 1.362 . S
C2442 C2445 1.409 . S
C2443 H2435 0.930 . S
C2443 C2444 1.355 . S
C2443 C2445 1.415 . S
C2444 C2443 1.355 . S
C2444 C2446 1.419 . S
C2445 C2440 1.425 . S
C2445 C2442 1.409 . S
C2445 C2443 1.415 . S
C2446 H2436 0.930 . S
C2446 C2444 1.419 . S
C2446 C2447 1.362 . S
C2447 H2437 0.930 . S
C2447 C2440 1.409 . S
C2447 C2446 1.362 . S
H2448 C2454 0.930 . S
H2449 C2457 0.930 . S
H2450 C2458 0.930 . S
H2451 C2459 0.930 . S
H2452 C2462 0.930 . S
H2453 C2463 0.930 . S
C2454 H2448 0.930 . S
C2454 C2455 1.355 1_556 S
C2454 C2456 1.415 . S
C2455 C2454 1.355 1_554 S
C2455 C2457 1.419 . S
C2456 C2454 1.415 . S
C2456 C2461 1.425 1_556 S
C2456 C2463 1.409 . S
C2457 H2449 0.930 . S
C2457 C2455 1.419 . S
C2457 C2458 1.362 . S
C2458 H2450 0.930 . S
C2458 C2457 1.362 . S
C2458 C2461 1.409 . S
C2459 H2451 0.930 . S
C2459 C2460 1.355 1_554 S
C2459 C2461 1.415 . S
C2460 C2459 1.355 1_556 S
C2460 C2462 1.419 . S
C2461 C2456 1.425 1_554 S
C2461 C2458 1.409 . S
C2461 C2459 1.415 . S
C2462 H2452 0.930 . S
C2462 C2460 1.419 . S
C2462 C2463 1.362 . S
C2463 H2453 0.930 . S
C2463 C2456 1.409 . S
C2463 C2462 1.362 . S
H2464 C2470 0.930 . S
H2465 C2473 0.930 . S
H2466 C2474 0.930 . S
H2467 C2475 0.930 . S
H2468 C2478 0.930 . S
H2469 C2479 0.930 . S
C2470 H2464 0.930 . S
C2470 C2471 1.355 . S
C2470 C2472 1.415 . S
C2471 C2470 1.355 . S
C2471 C2473 1.419 . S
C2472 C2470 1.415 . S
C2472 C2477 1.425 . S
C2472 C2479 1.409 . S
C2473 H2465 0.930 . S
C2473 C2471 1.419 . S
C2473 C2474 1.362 . S
C2474 H2466 0.930 . S
C2474 C2473 1.362 . S
C2474 C2477 1.409 . S
C2475 H2467 0.930 . S
C2475 C2476 1.355 . S
C2475 C2477 1.415 . S
C2476 C2475 1.355 . S
C2476 C2478 1.419 . S
C2477 C2472 1.425 . S
C2477 C2474 1.409 . S
C2477 C2475 1.415 . S
C2478 H2468 0.930 . S
C2478 C2476 1.419 . S
C2478 C2479 1.362 . S
C2479 H2469 0.930 . S
C2479 C2472 1.409 . S
C2479 C2478 1.362 . S
H2480 C2486 0.930 . S
H2481 C2489 0.930 . S
H2482 C2490 0.930 . S
H2483 C2491 0.930 . S
H2484 C2494 0.930 . S
H2485 C2495 0.930 . S
C2486 H2480 0.930 . S
C2486 C2487 1.355 . S
C2486 C2488 1.415 . S
C2487 C2486 1.355 . S
C2487 C2489 1.419 . S
C2488 C2486 1.415 . S
C2488 C2493 1.425 . S
C2488 C2495 1.409 . S
C2489 H2481 0.930 . S
C2489 C2487 1.419 . S
C2489 C2490 1.362 . S
C2490 H2482 0.930 . S
C2490 C2489 1.362 . S
C2490 C2493 1.409 . S
C2491 H2483 0.930 . S
C2491 C2492 1.355 . S
C2491 C2493 1.415 . S
C2492 C2491 1.355 . S
C2492 C2494 1.419 . S
C2493 C2488 1.425 . S
C2493 C2490 1.409 . S
C2493 C2491 1.415 . S
C2494 H2484 0.930 . S
C2494 C2492 1.419 . S
C2494 C2495 1.362 . S
C2495 H2485 0.930 . S
C2495 C2488 1.409 . S
C2495 C2494 1.362 . S
H2496 C2502 0.930 . S
H2497 C2505 0.930 . S
H2498 C2506 0.930 . S
H2499 C2507 0.930 . S
H2500 C2510 0.930 . S
H2501 C2511 0.930 . S
C2502 H2496 0.930 . S
C2502 C2503 1.355 . S
C2502 C2504 1.415 . S
C2503 C2502 1.355 . S
C2503 C2505 1.419 . S
C2504 C2502 1.415 . S
C2504 C2509 1.425 . S
C2504 C2511 1.409 . S
C2505 H2497 0.930 . S
C2505 C2503 1.419 . S
C2505 C2506 1.362 . S
C2506 H2498 0.930 . S
C2506 C2505 1.362 . S
C2506 C2509 1.409 . S
C2507 H2499 0.930 . S
C2507 C2508 1.355 . S
C2507 C2509 1.415 . S
C2508 C2507 1.355 . S
C2508 C2510 1.419 . S
C2509 C2504 1.425 . S
C2509 C2506 1.409 . S
C2509 C2507 1.415 . S
C2510 H2500 0.930 . S
C2510 C2508 1.419 . S
C2510 C2511 1.362 . S
C2511 H2501 0.930 . S
C2511 C2504 1.409 . S
C2511 C2510 1.362 . S
H2512 C2518 0.930 . S
H2513 C2521 0.930 . S
H2514 C2522 0.930 . S
H2515 C2523 0.930 . S
H2516 C2526 0.930 . S
H2517 C2527 0.930 . S
C2518 H2512 0.930 . S
C2518 C2519 1.355 1_556 S
C2518 C2520 1.415 . S
C2519 C2518 1.355 1_554 S
C2519 C2521 1.419 . S
C2520 C2518 1.415 . S
C2520 C2525 1.425 1_556 S
C2520 C2527 1.409 . S
C2521 H2513 0.930 . S
C2521 C2519 1.419 . S
C2521 C2522 1.362 . S
C2522 H2514 0.930 . S
C2522 C2521 1.362 . S
C2522 C2525 1.409 . S
C2523 H2515 0.930 . S
C2523 C2524 1.355 1_554 S
C2523 C2525 1.415 . S
C2524 C2523 1.355 1_556 S
C2524 C2526 1.419 . S
C2525 C2520 1.425 1_554 S
C2525 C2522 1.409 . S
C2525 C2523 1.415 . S
C2526 H2516 0.930 . S
C2526 C2524 1.419 . S
C2526 C2527 1.362 . S
C2527 H2517 0.930 . S
C2527 C2520 1.409 . S
C2527 C2526 1.362 . S
H2528 C2534 0.930 . S
H2529 C2537 0.930 . S
H2530 C2538 0.930 . S
H2531 C2539 0.930 . S
H2532 C2542 0.930 . S
H2533 C2543 0.930 . S
C2534 H2528 0.930 . S
C2534 C2535 1.355 . S
C2534 C2536 1.415 . S
C2535 C2534 1.355 . S
C2535 C2537 1.419 . S
C2536 C2534 1.415 . S
C2536 C2541 1.425 . S
C2536 C2543 1.409 . S
C2537 H2529 0.930 . S
C2537 C2535 1.419 . S
C2537 C2538 1.362 . S
C2538 H2530 0.930 . S
C2538 C2537 1.362 . S
C2538 C2541 1.409 . S
C2539 H2531 0.930 . S
C2539 C2540 1.355 . S
C2539 C2541 1.415 . S
C2540 C2539 1.355 . S
C2540 C2542 1.419 . S
C2541 C2536 1.425 . S
C2541 C2538 1.409 . S
C2541 C2539 1.415 . S
C2542 H2532 0.930 . S
C2542 C2540 1.419 . S
C2542 C2543 1.362 . S
C2543 H2533 0.930 . S
C2543 C2536 1.409 . S
C2543 C2542 1.362 . S
H2544 C2550 0.930 . S
H2545 C2553 0.930 . S
H2546 C2554 0.930 . S
H2547 C2555 0.930 . S
H2548 C2558 0.930 . S
H2549 C2559 0.930 . S
C2550 H2544 0.930 . S
C2550 C2551 1.355 . S
C2550 C2552 1.415 . S
C2551 C2550 1.355 . S
C2551 C2553 1.419 . S
C2552 C2550 1.415 . S
C2552 C2557 1.425 . S
C2552 C2559 1.409 . S
C2553 H2545 0.930 . S
C2553 C2551 1.419 . S
C2553 C2554 1.362 . S
C2554 H2546 0.930 . S
C2554 C2553 1.362 . S
C2554 C2557 1.409 . S
C2555 H2547 0.930 . S
C2555 C2556 1.355 . S
C2555 C2557 1.415 . S
C2556 C2555 1.355 . S
C2556 C2558 1.419 . S
C2557 C2552 1.425 . S
C2557 C2554 1.409 . S
C2557 C2555 1.415 . S
C2558 H2548 0.930 . S
C2558 C2556 1.419 . S
C2558 C2559 1.362 . S
C2559 H2549 0.930 . S
C2559 C2552 1.409 . S
C2559 C2558 1.362 . S
H2560 C2566 0.930 . S
H2561 C2569 0.930 . S
H2562 C2570 0.930 . S
H2563 C2571 0.930 . S
H2564 C2574 0.930 . S
H2565 C2575 0.930 . S
C2566 H2560 0.930 . S
C2566 C2567 1.355 . S
C2566 C2568 1.415 . S
C2567 C2566 1.355 . S
C2567 C2569 1.419 . S
C2568 C2566 1.415 . S
C2568 C2573 1.425 . S
C2568 C2575 1.409 . S
C2569 H2561 0.930 . S
C2569 C2567 1.419 . S
C2569 C2570 1.362 . S
C2570 H2562 0.930 . S
C2570 C2569 1.362 . S
C2570 C2573 1.409 . S
C2571 H2563 0.930 . S
C2571 C2572 1.355 . S
C2571 C2573 1.415 . S
C2572 C2571 1.355 . S
C2572 C2574 1.419 . S
C2573 C2568 1.425 . S
C2573 C2570 1.409 . S
C2573 C2571 1.415 . S
C2574 H2564 0.930 . S
C2574 C2572 1.419 . S
C2574 C2575 1.362 . S
C2575 H2565 0.930 . S
C2575 C2568 1.409 . S
C2575 C2574 1.362 . S
H2576 C2582 0.930 . S
H2577 C2585 0.930 . S
H2578 C2586 0.930 . S
H2579 C2587 0.930 . S
H2580 C2590 0.930 . S
H2581 C2591 0.930 . S
C2582 H2576 0.930 . S
C2582 C2583 1.355 . S
C2582 C2584 1.415 . S
C2583 C2582 1.355 . S
C2583 C2585 1.419 . S
C2584 C2582 1.415 . S
C2584 C2589 1.425 . S
C2584 C2591 1.409 . S
C2585 H2577 0.930 . S
C2585 C2583 1.419 . S
C2585 C2586 1.362 . S
C2586 H2578 0.930 . S
C2586 C2585 1.362 . S
C2586 C2589 1.409 . S
C2587 H2579 0.930 . S
C2587 C2588 1.355 . S
C2587 C2589 1.415 . S
C2588 C2587 1.355 . S
C2588 C2590 1.419 . S
C2589 C2584 1.425 . S
C2589 C2586 1.409 . S
C2589 C2587 1.415 . S
C2590 H2580 0.930 . S
C2590 C2588 1.419 . S
C2590 C2591 1.362 . S
C2591 H2581 0.930 . S
C2591 C2584 1.409 . S
C2591 C2590 1.362 . S
H2592 C2598 0.930 . S
H2593 C2601 0.930 . S
H2594 C2602 0.930 . S
H2595 C2603 0.930 . S
H2596 C2606 0.930 . S
H2597 C2607 0.930 . S
C2598 H2592 0.930 . S
C2598 C2599 1.355 . S
C2598 C2600 1.415 . S
C2599 C2598 1.355 . S
C2599 C2601 1.419 . S
C2600 C2598 1.415 . S
C2600 C2605 1.425 . S
C2600 C2607 1.409 . S
C2601 H2593 0.930 . S
C2601 C2599 1.419 . S
C2601 C2602 1.362 . S
C2602 H2594 0.930 . S
C2602 C2601 1.362 . S
C2602 C2605 1.409 . S
C2603 H2595 0.930 . S
C2603 C2604 1.355 . S
C2603 C2605 1.415 . S
C2604 C2603 1.355 . S
C2604 C2606 1.419 . S
C2605 C2600 1.425 . S
C2605 C2602 1.409 . S
C2605 C2603 1.415 . S
C2606 H2596 0.930 . S
C2606 C2604 1.419 . S
C2606 C2607 1.362 . S
C2607 H2597 0.930 . S
C2607 C2600 1.409 . S
C2607 C2606 1.362 . S
H2608 C2614 0.930 . S
H2609 C2617 0.930 . S
H2610 C2618 0.930 . S
H2611 C2619 0.930 . S
H2612 C2622 0.930 . S
H2613 C2623 0.930 . S
C2614 H2608 0.930 . S
C2614 C2615 1.355 . S
C2614 C2616 1.415 . S
C2615 C2614 1.355 . S
C2615 C2617 1.419 . S
C2616 C2614 1.415 . S
C2616 C2621 1.425 . S
C2616 C2623 1.409 . S
C2617 H2609 0.930 . S
C2617 C2615 1.419 . S
C2617 C2618 1.362 . S
C2618 H2610 0.930 . S
C2618 C2617 1.362 . S
C2618 C2621 1.409 . S
C2619 H2611 0.930 . S
C2619 C2620 1.355 . S
C2619 C2621 1.415 . S
C2620 C2619 1.355 . S
C2620 C2622 1.419 . S
C2621 C2616 1.425 . S
C2621 C2618 1.409 . S
C2621 C2619 1.415 . S
C2622 H2612 0.930 . S
C2622 C2620 1.419 . S
C2622 C2623 1.362 . S
C2623 H2613 0.930 . S
C2623 C2616 1.409 . S
C2623 C2622 1.362 . S
H2624 C2630 0.930 . S
H2625 C2633 0.930 . S
H2626 C2634 0.930 . S
H2627 C2635 0.930 . S
H2628 C2638 0.930 . S
H2629 C2639 0.930 . S
C2630 H2624 0.930 . S
C2630 C2631 1.355 . S
C2630 C2632 1.415 . S
C2631 C2630 1.355 . S
C2631 C2633 1.419 . S
C2632 C2630 1.415 . S
C2632 C2637 1.425 . S
C2632 C2639 1.409 . S
C2633 H2625 0.930 . S
C2633 C2631 1.419 . S
C2633 C2634 1.362 . S
C2634 H2626 0.930 . S
C2634 C2633 1.362 . S
C2634 C2637 1.409 . S
C2635 H2627 0.930 . S
C2635 C2636 1.355 . S
C2635 C2637 1.415 . S
C2636 C2635 1.355 . S
C2636 C2638 1.419 . S
C2637 C2632 1.425 . S
C2637 C2634 1.409 . S
C2637 C2635 1.415 . S
C2638 H2628 0.930 . S
C2638 C2636 1.419 . S
C2638 C2639 1.362 . S
C2639 H2629 0.930 . S
C2639 C2632 1.409 . S
C2639 C2638 1.362 . S
H2640 C2646 0.930 . S
H2641 C2649 0.930 . S
H2642 C2650 0.930 . S
H2643 C2651 0.930 . S
H2644 C2654 0.930 . S
H2645 C2655 0.930 . S
C2646 H2640 0.930 . S
C2646 C2647 1.355 . S
C2646 C2648 1.415 . S
C2647 C2646 1.355 . S
C2647 C2649 1.419 . S
C2648 C2646 1.415 . S
C2648 C2653 1.425 . S
C2648 C2655 1.409 . S
C2649 H2641 0.930 . S
C2649 C2647 1.419 . S
C2649 C2650 1.362 . S
C2650 H2642 0.930 . S
C2650 C2649 1.362 . S
C2650 C2653 1.409 . S
C2651 H2643 0.930 . S
C2651 C2652 1.355 . S
C2651 C2653 1.415 . S
C2652 C2651 1.355 . S
C2652 C2654 1.419 . S
C2653 C2648 1.425 . S
C2653 C2650 1.409 . S
C2653 C2651 1.415 . S
C2654 H2644 0.930 . S
C2654 C2652 1.419 . S
C2654 C2655 1.362 . S
C2655 H2645 0.930 . S
C2655 C2648 1.409 . S
C2655 C2654 1.362 . S
H2656 C2662 0.930 . S
H2657 C2665 0.930 . S
H2658 C2666 0.930 . S
H2659 C2667 0.930 . S
H2660 C2670 0.930 . S
H2661 C2671 0.930 . S
C2662 H2656 0.930 . S
C2662 C2663 1.355 . S
C2662 C2664 1.415 . S
C2663 C2662 1.355 . S
C2663 C2665 1.419 . S
C2664 C2662 1.415 . S
C2664 C2669 1.425 . S
C2664 C2671 1.409 . S
C2665 H2657 0.930 . S
C2665 C2663 1.419 . S
C2665 C2666 1.362 . S
C2666 H2658 0.930 . S
C2666 C2665 1.362 . S
C2666 C2669 1.409 . S
C2667 H2659 0.930 . S
C2667 C2668 1.355 . S
C2667 C2669 1.415 . S
C2668 C2667 1.355 . S
C2668 C2670 1.419 . S
C2669 C2664 1.425 . S
C2669 C2666 1.409 . S
C2669 C2667 1.415 . S
C2670 H2660 0.930 . S
C2670 C2668 1.419 . S
C2670 C2671 1.362 . S
C2671 H2661 0.930 . S
C2671 C2664 1.409 . S
C2671 C2670 1.362 . S
H2672 C2678 0.930 . S
H2673 C2681 0.930 . S
H2674 C2682 0.930 . S
H2675 C2683 0.930 . S
H2676 C2686 0.930 . S
H2677 C2687 0.930 . S
C2678 H2672 0.930 . S
C2678 C2679 1.355 . S
C2678 C2680 1.415 . S
C2679 C2678 1.355 . S
C2679 C2681 1.419 . S
C2680 C2678 1.415 . S
C2680 C2685 1.425 . S
C2680 C2687 1.409 . S
C2681 H2673 0.930 . S
C2681 C2679 1.419 . S
C2681 C2682 1.362 . S
C2682 H2674 0.930 . S
C2682 C2681 1.362 . S
C2682 C2685 1.409 . S
C2683 H2675 0.930 . S
C2683 C2684 1.355 . S
C2683 C2685 1.415 . S
C2684 C2683 1.355 . S
C2684 C2686 1.419 . S
C2685 C2680 1.425 . S
C2685 C2682 1.409 . S
C2685 C2683 1.415 . S
C2686 H2676 0.930 . S
C2686 C2684 1.419 . S
C2686 C2687 1.362 . S
C2687 H2677 0.930 . S
C2687 C2680 1.409 . S
C2687 C2686 1.362 . S
H2688 C2694 0.930 . S
H2689 C2697 0.930 . S
H2690 C2698 0.930 . S
H2691 C2699 0.930 . S
H2692 C2702 0.930 . S
H2693 C2703 0.930 . S
C2694 H2688 0.930 . S
C2694 C2695 1.355 . S
C2694 C2696 1.415 . S
C2695 C2694 1.355 . S
C2695 C2697 1.419 . S
C2696 C2694 1.415 . S
C2696 C2701 1.425 . S
C2696 C2703 1.409 . S
C2697 H2689 0.930 . S
C2697 C2695 1.419 . S
C2697 C2698 1.362 . S
C2698 H2690 0.930 . S
C2698 C2697 1.362 . S
C2698 C2701 1.409 . S
C2699 H2691 0.930 . S
C2699 C2700 1.355 . S
C2699 C2701 1.415 . S
C2700 C2699 1.355 . S
C2700 C2702 1.419 . S
C2701 C2696 1.425 . S
C2701 C2698 1.409 . S
C2701 C2699 1.415 . S
C2702 H2692 0.930 . S
C2702 C2700 1.419 . S
C2702 C2703 1.362 . S
C2703 H2693 0.930 . S
C2703 C2696 1.409 . S
C2703 C2702 1.362 . S
H2704 C2710 0.930 . S
H2705 C2713 0.930 . S
H2706 C2714 0.930 . S
H2707 C2715 0.930 . S
H2708 C2718 0.930 . S
H2709 C2719 0.930 . S
C2710 H2704 0.930 . S
C2710 C2711 1.355 . S
C2710 C2712 1.415 . S
C2711 C2710 1.355 . S
C2711 C2713 1.419 . S
C2712 C2710 1.415 . S
C2712 C2717 1.425 . S
C2712 C2719 1.409 . S
C2713 H2705 0.930 . S
C2713 C2711 1.419 . S
C2713 C2714 1.362 . S
C2714 H2706 0.930 . S
C2714 C2713 1.362 . S
C2714 C2717 1.409 . S
C2715 H2707 0.930 . S
C2715 C2716 1.355 . S
C2715 C2717 1.415 . S
C2716 C2715 1.355 . S
C2716 C2718 1.419 . S
C2717 C2712 1.425 . S
C2717 C2714 1.409 . S
C2717 C2715 1.415 . S
C2718 H2708 0.930 . S
C2718 C2716 1.419 . S
C2718 C2719 1.362 . S
C2719 H2709 0.930 . S
C2719 C2712 1.409 . S
C2719 C2718 1.362 . S
H2720 C2726 0.930 . S
H2721 C2729 0.930 . S
H2722 C2730 0.930 . S
H2723 C2731 0.930 . S
H2724 C2734 0.930 . S
H2725 C2735 0.930 . S
C2726 H2720 0.930 . S
C2726 C2727 1.355 . S
C2726 C2728 1.415 . S
C2727 C2726 1.355 . S
C2727 C2729 1.419 . S
C2728 C2726 1.415 . S
C2728 C2733 1.425 . S
C2728 C2735 1.409 . S
C2729 H2721 0.930 . S
C2729 C2727 1.419 . S
C2729 C2730 1.362 . S
C2730 H2722 0.930 . S
C2730 C2729 1.362 . S
C2730 C2733 1.409 . S
C2731 H2723 0.930 . S
C2731 C2732 1.355 . S
C2731 C2733 1.415 . S
C2732 C2731 1.355 . S
C2732 C2734 1.419 . S
C2733 C2728 1.425 . S
C2733 C2730 1.409 . S
C2733 C2731 1.415 . S
C2734 H2724 0.930 . S
C2734 C2732 1.419 . S
C2734 C2735 1.362 . S
C2735 H2725 0.930 . S
C2735 C2728 1.409 . S
C2735 C2734 1.362 . S
H2736 C2742 0.930 . S
H2737 C2745 0.930 . S
H2738 C2746 0.930 . S
H2739 C2747 0.930 . S
H2740 C2750 0.930 . S
H2741 C2751 0.930 . S
C2742 H2736 0.930 . S
C2742 C2743 1.355 . S
C2742 C2744 1.415 . S
C2743 C2742 1.355 . S
C2743 C2745 1.419 . S
C2744 C2742 1.415 . S
C2744 C2749 1.425 . S
C2744 C2751 1.409 . S
C2745 H2737 0.930 . S
C2745 C2743 1.419 . S
C2745 C2746 1.362 . S
C2746 H2738 0.930 . S
C2746 C2745 1.362 . S
C2746 C2749 1.409 . S
C2747 H2739 0.930 . S
C2747 C2748 1.355 . S
C2747 C2749 1.415 . S
C2748 C2747 1.355 . S
C2748 C2750 1.419 . S
C2749 C2744 1.425 . S
C2749 C2746 1.409 . S
C2749 C2747 1.415 . S
C2750 H2740 0.930 . S
C2750 C2748 1.419 . S
C2750 C2751 1.362 . S
C2751 H2741 0.930 . S
C2751 C2744 1.409 . S
C2751 C2750 1.362 . S
H2752 C2758 0.930 . S
H2753 C2761 0.930 . S
H2754 C2762 0.930 . S
H2755 C2763 0.930 . S
H2756 C2766 0.930 . S
H2757 C2767 0.930 . S
C2758 H2752 0.930 . S
C2758 C2759 1.355 . S
C2758 C2760 1.415 . S
C2759 C2758 1.355 . S
C2759 C2761 1.419 . S
C2760 C2758 1.415 . S
C2760 C2765 1.425 . S
C2760 C2767 1.409 . S
C2761 H2753 0.930 . S
C2761 C2759 1.419 . S
C2761 C2762 1.362 . S
C2762 H2754 0.930 . S
C2762 C2761 1.362 . S
C2762 C2765 1.409 . S
C2763 H2755 0.930 . S
C2763 C2764 1.355 . S
C2763 C2765 1.415 . S
C2764 C2763 1.355 . S
C2764 C2766 1.419 . S
C2765 C2760 1.425 . S
C2765 C2762 1.409 . S
C2765 C2763 1.415 . S
C2766 H2756 0.930 . S
C2766 C2764 1.419 . S
C2766 C2767 1.362 . S
C2767 H2757 0.930 . S
C2767 C2760 1.409 . S
C2767 C2766 1.362 . S
H2768 C2774 0.930 . S
H2769 C2777 0.930 . S
H2770 C2778 0.930 . S
H2771 C2779 0.930 . S
H2772 C2782 0.930 . S
H2773 C2783 0.930 . S
C2774 H2768 0.930 . S
C2774 C2775 1.355 . S
C2774 C2776 1.415 . S
C2775 C2774 1.355 . S
C2775 C2777 1.419 . S
C2776 C2774 1.415 . S
C2776 C2781 1.425 . S
C2776 C2783 1.409 . S
C2777 H2769 0.930 . S
C2777 C2775 1.419 . S
C2777 C2778 1.362 . S
C2778 H2770 0.930 . S
C2778 C2777 1.362 . S
C2778 C2781 1.409 . S
C2779 H2771 0.930 . S
C2779 C2780 1.355 . S
C2779 C2781 1.415 . S
C2780 C2779 1.355 . S
C2780 C2782 1.419 . S
C2781 C2776 1.425 . S
C2781 C2778 1.409 . S
C2781 C2779 1.415 . S
C2782 H2772 0.930 . S
C2782 C2780 1.419 . S
C2782 C2783 1.362 . S
C2783 H2773 0.930 . S
C2783 C2776 1.409 . S
C2783 C2782 1.362 . S
H2784 C2790 0.930 . S
H2785 C2793 0.930 . S
H2786 C2794 0.930 . S
H2787 C2795 0.930 . S
H2788 C2798 0.930 . S
H2789 C2799 0.930 . S
C2790 H2784 0.930 . S
C2790 C2791 1.355 . S
C2790 C2792 1.415 . S
C2791 C2790 1.355 . S
C2791 C2793 1.419 . S
C2792 C2790 1.415 . S
C2792 C2797 1.425 . S
C2792 C2799 1.409 . S
C2793 H2785 0.930 . S
C2793 C2791 1.419 . S
C2793 C2794 1.362 . S
C2794 H2786 0.930 . S
C2794 C2793 1.362 . S
C2794 C2797 1.409 . S
C2795 H2787 0.930 . S
C2795 C2796 1.355 . S
C2795 C2797 1.415 . S
C2796 C2795 1.355 . S
C2796 C2798 1.419 . S
C2797 C2792 1.425 . S
C2797 C2794 1.409 . S
C2797 C2795 1.415 . S
C2798 H2788 0.930 . S
C2798 C2796 1.419 . S
C2798 C2799 1.362 . S
C2799 H2789 0.930 . S
C2799 C2792 1.409 . S
C2799 C2798 1.362 . S
H2800 C2806 0.930 . S
H2801 C2809 0.930 . S
H2802 C2810 0.930 . S
H2803 C2811 0.930 . S
H2804 C2814 0.930 . S
H2805 C2815 0.930 . S
C2806 H2800 0.930 . S
C2806 C2807 1.355 . S
C2806 C2808 1.415 . S
C2807 C2806 1.355 . S
C2807 C2809 1.419 . S
C2808 C2806 1.415 . S
C2808 C2813 1.425 . S
C2808 C2815 1.409 . S
C2809 H2801 0.930 . S
C2809 C2807 1.419 . S
C2809 C2810 1.362 . S
C2810 H2802 0.930 . S
C2810 C2809 1.362 . S
C2810 C2813 1.409 . S
C2811 H2803 0.930 . S
C2811 C2812 1.355 . S
C2811 C2813 1.415 . S
C2812 C2811 1.355 . S
C2812 C2814 1.419 . S
C2813 C2808 1.425 . S
C2813 C2810 1.409 . S
C2813 C2811 1.415 . S
C2814 H2804 0.930 . S
C2814 C2812 1.419 . S
C2814 C2815 1.362 . S
C2815 H2805 0.930 . S
C2815 C2808 1.409 . S
C2815 C2814 1.362 . S
C1287 C6 1.060 . S
C1292 C139 0.937 . S
C1303 C19 0.982 . S
C1308 C46 1.065 . S
C1319 C86 1.039 . S
C1324 C59 1.065 . S
C1335 C99 1.049 . S
C1340 C126 1.057 . S
C1351 C219 0.942 . S
C1356 C166 1.058 . S
C1367 C206 1.071 . S
C1372 C259 0.953 . S
C1383 C299 0.942 . S
C1388 C246 1.060 . S
C1399 C179 0.945 . S
C1404 C286 1.073 . S
C1415 C335 1.057 . S
C1420 C450 0.967 . S
C1431 C375 1.068 . S
C1436 C330 0.998 . S
C1447 C415 1.054 . S
C1452 C370 0.990 . S
C1463 C455 1.063 . S
C1468 C410 1.026 . S
C1479 C495 1.040 . S
C1484 C530 1.064 . S
C1495 C535 1.061 . S
C1500 C570 1.005 . S
C1511 C610 0.939 . S
C1516 C575 1.060 . S
C1527 C490 0.936 . S
C1532 C615 1.076 . S
C1543 C646 1.040 . S
C1548 C779 1.055 . S
C1559 C659 1.036 . S
C1564 C686 1.046 . S
C1575 C699 0.946 . S
C1580 C726 1.060 . S
C1591 C766 1.051 . S
C1596 C739 0.980 . S
C1607 C806 1.039 . S
C1612 C859 1.060 . S
C1623 C899 1.050 . S
C1628 C846 1.043 . S
C1639 C886 1.060 . S
C1644 C939 0.939 . S
C1655 C819 0.956 . S
C1660 C926 1.058 . S
C1671 C1090 0.949 . S
C1676 C975 1.059 . S
C1687 C970 1.060 . S
C1692 C1015 1.041 . S
C1703 C1055 1.049 . S
C1708 C1010 1.024 . S
C1719 C1050 1.065 . S
C1724 C1095 1.039 . S
C1735 C1170 1.065 . S
C1740 C1135 1.039 . S
C1751 C1210 1.033 . S
C1756 C1175 1.042 . S
C1767 C1250 0.940 . S
C1772 C1215 1.060 . S
C1783 C1255 1.051 . S
C1788 C1130 1.007 . S
C1799 C1086 1.611 . S
C1804 C9 1.570 . S
C1815 C49 1.501 . S
C1820 C326 1.591 1_455 S
C1831 C89 1.568 . S
C1836 C1006 1.608 . S
C1847 C129 1.568 . S
C1852 C406 1.608 . S
C1863 C169 1.566 . S
C1868 C1166 1.617 . S
C1879 C566 1.580 . S
C1884 C209 1.489 . S
C1895 C1246 1.575 . S
C1900 C249 1.509 . S
C1911 C289 1.569 . S
C1916 C486 1.609 1_455 S
C1927 C338 1.504 . S
C1932 C775 1.593 . S
C1943 C15 1.592 1_655 S
C1948 C378 1.502 . S
C1959 C695 1.585 . S
C1964 C418 1.494 . S
C1975 C95 1.592 . S
C1980 C458 1.502 . S
C1991 C855 1.582 . S
C1996 C498 1.529 . S
C2007 C255 1.617 . S
C2012 C538 1.564 . S
C2023 C578 1.502 . S
C2028 C935 1.573 . S
C2039 C618 1.514 . S
C2044 C175 1.599 1_655 S
C2055 C649 1.505 . S
C2060 C446 1.594 . S
C2071 C689 1.545 . S
C2076 C966 1.591 . S
C2087 C729 1.567 . S
C2092 C366 1.607 . S
C2103 C769 1.489 . S
C2108 C1046 1.573 1_655 S
C2119 C809 1.487 . S
C2124 C526 1.575 . S
C2135 C849 1.488 . S
C2140 C1206 1.574 1_655 S
C2151 C606 1.572 . S
C2156 C889 1.492 . S
C2167 C929 1.569 . S
C2172 C1126 1.616 . S
C2183 C135 1.616 . S
C2188 C978 1.556 . S
C2199 C655 1.584 . S
C2204 C1018 1.492 . S
C2215 C55 1.595 . S
C2220 C1058 1.507 . S
C2231 C735 1.590 1_455 S
C2236 C1098 1.499 . S
C2247 C215 1.572 . S
C2252 C1138 1.491 . S
C2263 C1178 1.519 . S
C2268 C895 1.602 1_455 S
C2279 C1218 1.533 . S
C2284 C295 1.608 . S
C2295 C815 1.572 . S
C2300 C1258 1.497 . S
C2311 C18 0.889 . S
C2316 C178 0.976 . S
C2327 C58 0.867 . S
C2332 C218 0.936 . S
C2343 C98 0.956 . S
C2348 C258 0.993 . S
C2359 C298 0.975 1_554 S
C2364 C138 0.983 1_556 S
C2375 C489 0.874 . S
C2380 C329 0.897 . S
C2391 C529 0.947 . S
C2396 C369 0.995 . S
C2407 C409 0.885 . S
C2412 C569 0.973 . S
C2423 C449 0.956 1_554 S
C2428 C609 0.993 1_556 S
C2439 C658 0.985 . S
C2444 C818 0.972 . S
C2455 C858 0.995 1_554 S
C2460 C698 0.946 1_556 S
C2471 C898 0.866 . S
C2476 C738 0.928 . S
C2487 C938 0.958 . S
C2492 C778 0.992 . S
C2503 C1129 0.872 . S
C2508 C969 0.955 . S
C2519 C1009 0.952 1_554 S
C2524 C1169 0.994 1_556 S
C2535 C1209 0.951 . S
C2540 C1049 0.994 . S
C2551 C1089 0.989 . S
C2556 C1249 0.908 . S
C2567 C290 2.709 . S
C2572 C10 2.710 . S
C2583 C50 2.709 . S
C2588 C170 2.709 . S
C2599 C90 2.714 . S
C2604 C210 2.715 . S
C2615 C250 2.714 . S
C2620 C130 2.714 . S
C2631 C339 2.710 . S
C2636 C619 2.711 . S
C2647 C499 2.709 . S
C2652 C379 2.709 . S
C2663 C539 2.709 . S
C2668 C419 2.709 . S
C2679 C459 2.709 . S
C2684 C579 2.710 . S
C2695 C650 2.709 . S
C2700 C930 2.710 . S
C2711 C810 2.709 . S
C2716 C690 2.709 . S
C2727 C850 2.709 . S
C2732 C730 2.709 . S
C2743 C890 2.709 . S
C2748 C770 2.710 . S
C2759 C979 2.714 . S
C2764 C1259 2.715 . S
C2775 C1139 2.713 . S
C2780 C1019 2.712 . S
C2791 C1059 2.713 . S
C2796 C1179 2.713 . S
C2807 C1219 2.716 . S
C2812 C1099 2.716 . S
