# Generated by pormake.
# Topology ooa, (5)-cn, num edge types: 1
# Building blocks:
#     Node 0, Type 0, BuildingBlock: BEQFEK_clean_sbu_0, # of connection points: 5
#     Node 1, Type 0, BuildingBlock: BEQFEK_clean_sbu_0, # of connection points: 5
#     Node 2, Type 0, BuildingBlock: BEQFEK_clean_sbu_0, # of connection points: 5
#     Node 3, Type 0, BuildingBlock: BEQFEK_clean_sbu_0, # of connection points: 5
#     Node 4, Type 0, BuildingBlock: BEQFEK_clean_sbu_0, # of connection points: 5
#     Node 5, Type 0, BuildingBlock: BEQFEK_clean_sbu_0, # of connection points: 5
#     Node 6, Type 0, BuildingBlock: BEQFEK_clean_sbu_0, # of connection points: 5
#     Node 7, Type 0, BuildingBlock: BEQFEK_clean_sbu_0, # of connection points: 5
#     Edge 8, Type (0, 0), BuildingBlock: CIFDUS_clean_linker_0, # of connection points: 2
#     Edge 9, Type (0, 0), BuildingBlock: CIFDUS_clean_linker_0, # of connection points: 2
#     Edge 10, Type (0, 0), BuildingBlock: CIFDUS_clean_linker_0, # of connection points: 2
#     Edge 11, Type (0, 0), BuildingBlock: CIFDUS_clean_linker_0, # of connection points: 2
#     Edge 12, Type (0, 0), BuildingBlock: CIFDUS_clean_linker_0, # of connection points: 2
#     Edge 13, Type (0, 0), BuildingBlock: CIFDUS_clean_linker_0, # of connection points: 2
#     Edge 14, Type (0, 0), BuildingBlock: CIFDUS_clean_linker_0, # of connection points: 2
#     Edge 15, Type (0, 0), BuildingBlock: CIFDUS_clean_linker_0, # of connection points: 2
#     Edge 16, Type (0, 0), BuildingBlock: CIFDUS_clean_linker_0, # of connection points: 2
#     Edge 17, Type (0, 0), BuildingBlock: CIFDUS_clean_linker_0, # of connection points: 2
#     Edge 18, Type (0, 0), BuildingBlock: CIFDUS_clean_linker_0, # of connection points: 2
#     Edge 19, Type (0, 0), BuildingBlock: CIFDUS_clean_linker_0, # of connection points: 2
#     Edge 20, Type (0, 0), BuildingBlock: CIFDUS_clean_linker_0, # of connection points: 2
#     Edge 21, Type (0, 0), BuildingBlock: CIFDUS_clean_linker_0, # of connection points: 2
#     Edge 22, Type (0, 0), BuildingBlock: CIFDUS_clean_linker_0, # of connection points: 2
#     Edge 23, Type (0, 0), BuildingBlock: CIFDUS_clean_linker_0, # of connection points: 2
#     Edge 24, Type (0, 0), BuildingBlock: CIFDUS_clean_linker_0, # of connection points: 2
#     Edge 25, Type (0, 0), BuildingBlock: CIFDUS_clean_linker_0, # of connection points: 2
#     Edge 26, Type (0, 0), BuildingBlock: CIFDUS_clean_linker_0, # of connection points: 2
#     Edge 27, Type (0, 0), BuildingBlock: CIFDUS_clean_linker_0, # of connection points: 2
# Relax obj value: 0.516
# Max RMSD: 0.275
# Mean RMSD: 0.275
data_MOF--net-ooa--node1-BEQFEK_clean_sbu_0--edge1-CIFDUS_clean_linker_0
_symmetry_space_group_name_H-M    P1
_symmetry_Int_Tables_number       1
_symmetry_cell_setting            triclinic
loop_
_symmetry_equiv_pos_as_xyz
'x, y, z'
_cell_length_a     24.312988
_cell_length_b     42.175215
_cell_length_c     42.576666
_cell_angle_alpha  90.121126
_cell_angle_beta   89.872904
_cell_angle_gamma 89.794126
loop_
_atom_site_label
_atom_site_type_symbol
_atom_site_fract_x
_atom_site_fract_y
_atom_site_fract_z
_atom_type_partial_charge
Co0 Co 0.17995 0.1088 0.05542 0.0
Co1 Co 0.2211 0.15948 0.10381 0.0
C2 C 0.22209 0.0909 0.11975 0.0
O3 O 0.20239 0.08562 0.09279 0.0
O4 O 0.23373 0.11897 0.12857 0.0
C5 C 0.09563 0.06803 0.05055 0.0
O6 O 0.0901 0.08067 0.07862 0.0
C7 C 0.22453 0.19772 0.16169 0.0
C8 C 0.25561 0.24366 0.14447 0.0
C9 C 0.2372 0.22836 0.17127 0.0
N10 N 0.23519 0.19506 0.13075 0.0
N11 N 0.25412 0.22257 0.12067 0.0
C12 C 0.19781 0.17228 0.18074 0.0
H13 H 0.17236 0.15687 0.16545 0.0
H14 H 0.1718 0.18267 0.19961 0.0
H15 H 0.23023 0.15743 0.19172 0.0
C16 C 0.08762 0.1525 0.05122 0.0
N17 N 0.13494 0.14351 0.06469 0.0
N18 N 0.1477 0.16342 0.08731 0.0
C19 C 0.10651 0.18507 0.08986 0.0
C20 C 0.06745 0.1787 0.06685 0.0
C21 C 0.06268 0.13711 0.02287 0.0
H22 H 0.09471 0.12512 1.00856 0.0
H23 H 0.03142 0.11964 0.03051 0.0
H24 H 0.04149 0.15491 1.00801 0.0
O25 O 0.24454 0.12429 0.03284 0.0
O26 O 0.27434 0.16081 0.06677 0.0
H27 H 0.13918 0.22845 0.10754 0.0
H28 H 0.06552 0.22473 0.1121 0.0
C29 C 0.10531 0.21177 0.11296 0.0
H30 H 0.11209 0.20239 0.13695 0.0
H31 H 0.26476 0.22717 0.09737 0.0
O32 O 0.1355 0.07678 0.0332 0.0
C33 C 0.27851 0.14596 0.04053 0.0
Co34 Co 0.31041 0.89805 0.05436 0.0
Co35 Co 0.27753 0.84659 0.10364 0.0
C36 C 0.26565 0.91558 0.11806 0.0
O37 O 0.28336 0.92145 0.09074 0.0
O38 O 0.25973 0.88716 0.12758 0.0
C39 C 0.38102 0.94684 0.04517 0.0
O40 O 0.38623 0.94059 0.07524 0.0
C41 C 0.28351 0.8099 0.16226 0.0
C42 C 0.24016 0.76586 0.14946 0.0
C43 C 0.26656 0.78074 0.17432 0.0
N44 N 0.26747 0.81189 0.13208 0.0
N45 N 0.24159 0.78548 0.1246 0.0
C46 C 0.31701 0.83496 0.17806 0.0
H47 H 0.33779 0.85001 0.1603 0.0
H48 H 0.34818 0.82407 0.19374 0.0
H49 H 0.28948 0.85039 0.19226 0.0
C50 C 0.41249 0.86168 0.05305 0.0
N51 N 0.36256 0.86733 0.0654 0.0
N52 N 0.35157 0.84602 0.08705 0.0
C53 C 0.3957 0.82638 0.08953 0.0
C54 C 0.43561 0.83606 0.06812 0.0
C55 C 0.43649 0.87885 0.02544 0.0
H56 H 0.45904 0.90001 0.03389 0.0
H57 H 0.4662 0.8637 1.01243 0.0
H58 H 0.40358 0.88626 1.00905 0.0
O59 O 0.25016 0.87732 0.03224 0.0
O60 O 0.22432 0.84097 0.06713 0.0
H61 H 0.3614 0.78348 0.10761 0.0
H62 H 0.43595 0.78373 0.10571 0.0
C63 C 0.3987 0.79821 0.11068 0.0
H64 H 0.39989 0.80636 0.13544 0.0
H65 H 0.22484 0.78087 0.10252 0.0
O66 O 0.34691 0.93084 0.02908 0.0
C67 C 0.21921 0.8544 0.04031 0.0
Co68 Co 0.17442 0.40342 0.4729 0.0
Co69 Co 0.2016 0.35377 0.41917 0.0
C70 C 0.20609 0.42254 0.4064 0.0
O71 O 0.19263 0.42712 0.43481 0.0
O72 O 0.21256 0.39465 0.39546 0.0
C73 C 0.14166 0.46499 0.49482 0.0
O74 O 0.18164 0.4749 0.47654 0.0
C75 C 0.22041 0.31633 0.36046 0.0
C76 C 0.20884 0.26759 0.37806 0.0
C77 C 0.21951 0.28465 0.35094 0.0
N78 N 0.20938 0.31773 0.39149 0.0
N79 N 0.20322 0.28844 0.40183 0.0
C80 C 0.23659 0.34454 0.34132 0.0
H81 H 0.26193 0.36082 0.35568 0.0
H82 H 0.19899 0.35744 0.33383 0.0
H83 H 0.2608 0.33751 0.32031 0.0
C84 C 0.07462 0.3657 0.47699 0.0
N85 N 0.12337 0.37158 0.46342 0.0
N86 N 0.13076 0.35232 0.4394 0.0
C87 C 0.08514 0.33419 0.43638 0.0
C88 C 0.04878 0.34173 0.46058 0.0
C89 C 0.05122 0.38493 0.50347 0.0
H90 H 0.03796 0.4082 0.49405 0.0
H91 H 0.01508 0.37361 0.51456 0.0
H92 H 0.08318 0.38884 0.5216 0.0
O93 O 0.24118 0.38396 0.49117 0.0
O94 O 0.26008 0.34974 0.45261 0.0
H95 H 0.09138 0.28712 0.41832 0.0
H96 H 0.03118 0.3082 0.40571 0.0
C97 C 0.07575 0.31061 0.41071 0.0
H98 H 0.09781 0.31783 0.38906 0.0
H99 H 0.19485 0.28268 0.42517 0.0
O100 O 0.1369 0.43542 0.50002 0.0
C101 C 0.27119 0.36204 0.47937 0.0
Co102 Co 0.32056 0.6088 0.47194 0.0
Co103 Co 0.29011 0.66309 0.42524 0.0
C104 C 0.26923 0.59534 0.40922 0.0
O105 O 0.28882 0.58766 0.43564 0.0
O106 O 0.26552 0.62427 0.4009 0.0
C107 C 0.384 0.55559 0.48025 0.0
O108 O 0.38746 0.55968 0.44973 0.0
C109 C 0.29382 0.70055 0.3671 0.0
C110 C 0.25888 0.74644 0.38236 0.0
C111 C 0.27927 0.73061 0.35615 0.0
N112 N 0.28201 0.69892 0.39796 0.0
N113 N 0.26124 0.72645 0.40694 0.0
C114 C 0.32118 0.67412 0.34946 0.0
H115 H 0.34304 0.65809 0.36594 0.0
H116 H 0.35072 0.68361 0.33196 0.0
H117 H 0.28947 0.66003 0.33704 0.0
C118 C 0.4276 0.64011 0.47073 0.0
N119 N 0.37562 0.63749 0.46041 0.0
N120 N 0.36545 0.65977 0.43958 0.0
C121 C 0.41209 0.67687 0.43547 0.0
C122 C 0.45279 0.6647 0.45509 0.0
C123 C 0.45261 0.62019 0.49614 0.0
H124 H 0.46966 0.59821 0.48558 0.0
H125 H 0.48688 0.63255 0.50804 0.0
H126 H 0.42128 0.61409 0.51403 0.0
O127 O 0.26342 0.6309 0.49576 0.0
O128 O 0.23914 0.66941 0.46288 0.0
H129 H 0.38284 0.7218 0.41917 0.0
H130 H 0.45702 0.71713 0.41767 0.0
C131 C 0.41702 0.70497 0.41436 0.0
H132 H 0.41356 0.69709 0.38959 0.0
H133 H 0.24835 0.73154 0.4298 0.0
O134 O 0.35387 0.5743 0.49627 0.0
C135 C 0.23388 0.65496 0.48916 0.0
Co136 Co 0.81938 0.89954 0.97741 0.0
Co137 Co 0.77973 0.84861 0.92933 0.0
C138 C 0.77878 0.91838 0.91413 0.0
O139 O 0.79869 0.92414 0.94097 0.0
O140 O 0.76713 0.89012 0.9057 0.0
C141 C 0.84172 0.95628 1.01353 0.0
O142 O 0.78949 0.96372 1.01053 0.0
C143 C 0.78464 0.81129 0.87091 0.0
C144 C 0.73534 0.76918 0.88294 0.0
C145 C 0.76543 0.78267 0.85868 0.0
N146 N 0.76644 0.81435 0.90065 0.0
N147 N 0.73695 0.78909 0.90767 0.0
C148 C 0.82256 0.83461 0.85579 0.0
H149 H 0.84414 0.84877 0.87396 0.0
H150 H 0.85313 0.82224 0.84068 0.0
H151 H 0.79819 0.85116 0.84107 0.0
C152 C 0.91741 0.86044 0.97802 0.0
N153 N 0.86754 0.86701 0.96634 0.0
N154 N 0.85312 0.84495 0.94611 0.0
C155 C 0.89433 0.82322 0.94453 0.0
C156 C 0.93629 0.83264 0.96468 0.0
C157 C 0.94545 0.87985 1.00276 0.0
H158 H 0.95571 0.9034 0.9929 0.0
H159 H 0.98386 0.86858 1.0113 0.0
H160 H 0.9172 0.88334 0.02298 0.0
O161 O 0.75503 0.882 0.99907 0.0
O162 O 0.72551 0.84533 0.96547 0.0
H163 H 0.85268 0.78139 0.92909 0.0
H164 H 0.92688 0.77726 0.93173 0.0
C165 C 0.89261 0.79349 0.92542 0.0
H166 H 0.89598 0.79961 0.90018 0.0
H167 H 0.71813 0.78539 0.9294 0.0
O168 O 0.85944 0.92992 1.00327 0.0
C169 C 0.72142 0.86009 0.99169 0.0
Co170 Co 0.69196 0.10928 0.97956 0.0
Co171 Co 0.72438 0.16167 0.93108 0.0
C172 C 0.73623 0.09307 0.91533 0.0
O173 O 0.71852 0.08676 0.94255 0.0
O174 O 0.74245 0.12164 0.9063 0.0
C175 C 0.62168 0.06012 0.98821 0.0
O176 O 0.6162 0.06666 0.95821 0.0
C177 C 0.72045 0.19952 0.87309 0.0
C178 C 0.75094 0.24604 0.88919 0.0
C179 C 0.7315 0.23019 0.86291 0.0
N180 N 0.73308 0.19744 0.90378 0.0
N181 N 0.75151 0.22531 0.91321 0.0
C182 C 0.69408 0.17328 0.85493 0.0
H183 H 0.6718 0.15711 0.87104 0.0
H184 H 0.66516 0.1829 0.83718 0.0
H185 H 0.72649 0.1594 0.84264 0.0
C186 C 0.5896 0.14541 0.98142 0.0
N187 N 0.63975 0.14013 0.96921 0.0
N188 N 0.65043 0.16153 0.94761 0.0
C189 C 0.60583 0.18075 0.9449 0.0
C190 C 0.56604 0.17083 0.96624 0.0
C191 C 0.56553 0.12786 1.00876 0.0
H192 H 0.54303 0.10682 1.0 0.0
H193 H 0.53575 0.14287 0.02189 0.0
H194 H 0.59838 0.12022 0.0251 0.0
O195 O 0.75249 0.12945 1.00179 0.0
O196 O 0.77765 0.16664 0.96763 0.0
H197 H 0.63567 0.22536 0.92857 0.0
H198 H 0.56178 0.22083 0.9257 0.0
C199 C 0.602 0.20851 0.92327 0.0
H200 H 0.6073 0.2003 0.89869 0.0
H201 H 0.76371 0.2303 0.93617 0.0
O202 O 0.65577 0.07605 1.00438 0.0
C203 C 0.78324 0.15258 0.9941 0.0
Co204 Co 0.8239 0.61367 0.55391 0.0
Co205 Co 0.79612 0.66321 0.60742 0.0
C206 C 0.7879 0.59421 0.61948 0.0
O207 O 0.80258 0.58967 0.59126 0.0
O208 O 0.78244 0.62212 0.63062 0.0
C209 C 0.85709 0.55216 0.53187 0.0
O210 O 0.81693 0.5421 0.54993 0.0
C211 C 0.79964 0.70014 0.66666 0.0
C212 C 0.7623 0.74546 0.65179 0.0
C213 C 0.78409 0.73005 0.67772 0.0
N214 N 0.78709 0.69819 0.63591 0.0
N215 N 0.76486 0.7254 0.62723 0.0
C216 C 0.82888 0.67438 0.68409 0.0
H217 H 0.85233 0.65914 0.66748 0.0
H218 H 0.85722 0.68455 0.70182 0.0
H219 H 0.79814 0.65937 0.69625 0.0
C220 C 0.92485 0.65057 0.55124 0.0
N221 N 0.87602 0.64456 0.56466 0.0
N222 N 0.86709 0.6649 0.58762 0.0
C223 C 0.91091 0.6846 0.58946 0.0
C224 C 0.9487 0.67601 0.56633 0.0
C225 C 0.9485 0.6321 0.52434 0.0
H226 H 0.96231 0.6087 0.53319 0.0
H227 H 0.98429 0.64416 0.51353 0.0
H228 H 0.91657 0.62838 0.50616 0.0
O229 O 0.75848 0.63453 0.53484 0.0
O230 O 0.73881 0.66817 0.57376 0.0
H231 H 0.88135 0.72855 0.60802 0.0
H232 H 0.95547 0.72406 0.60933 0.0
C233 C 0.9156 0.7116 0.61205 0.0
H234 H 0.9117 0.70256 0.63639 0.0
H235 H 0.75128 0.73024 0.6045 0.0
O236 O 0.86179 0.58176 0.52682 0.0
C237 C 0.72847 0.65648 0.54666 0.0
Co238 Co 0.69166 0.39768 0.55614 0.0
Co239 Co 0.70378 0.35112 0.61288 0.0
C240 C 0.72969 0.41851 0.62135 0.0
O241 O 0.71985 0.42184 0.59232 0.0
O242 O 0.72444 0.39177 0.63484 0.0
C243 C 0.62869 0.44802 0.54293 0.0
O244 O 0.62178 0.44297 0.57312 0.0
C245 C 0.71517 0.31454 0.67249 0.0
C246 C 0.68777 0.26718 0.65692 0.0
C247 C 0.70628 0.28368 0.68298 0.0
N248 N 0.70156 0.31613 0.64185 0.0
N249 N 0.68556 0.28764 0.63276 0.0
C250 C 0.74084 0.34131 0.69025 0.0
H251 H 0.76899 0.35463 0.67463 0.0
H252 H 0.70805 0.35775 0.69843 0.0
H253 H 0.76446 0.33264 0.71078 0.0
C254 C 0.58349 0.36794 0.55236 0.0
N255 N 0.63243 0.3713 0.56656 0.0
N256 N 0.63314 0.35484 0.59272 0.0
C257 C 0.58242 0.34229 0.59706 0.0
C258 C 0.5497 0.34993 0.5713 0.0
C259 C 0.56876 0.3821 0.5212 0.0
H260 H 0.54442 0.40407 0.52503 0.0
H261 H 0.54302 0.36564 0.50731 0.0
H262 H 0.60619 0.38739 0.50734 0.0
O263 O 0.75026 0.37192 0.5386 0.0
O264 O 0.76242 0.34031 0.57994 0.0
H265 H 0.57085 0.29793 0.62001 0.0
H266 H 0.52117 0.32767 0.63051 0.0
C267 C 0.56532 0.32353 0.62515 0.0
H268 H 0.59079 0.32992 0.64579 0.0
H269 H 0.67329 0.28214 0.60992 0.0
O270 O 0.66292 0.43078 0.52796 0.0
C271 C 0.77554 0.34928 0.55215 0.0
H272 H 0.99011 0.06437 0.06975 0.0
H273 H 0.10741 0.02228 1.00571 0.0
H274 H 0.03851 0.98357 0.98908 0.0
H275 H 0.94613 0.96148 0.99356 0.0
H276 H 0.82686 1.00487 0.05543 0.0
H277 H 0.89569 0.0438 0.0722 0.0
C278 C 0.00056 0.04666 0.05219 0.0
C279 C 0.05378 0.04579 0.03917 0.0
C280 C 0.96065 0.0249 0.04252 0.0
C281 C 0.06665 0.02327 1.01601 0.0
C282 C 0.02741 1.00115 1.00662 0.0
C283 C 0.93534 0.97923 1.011 0.0
C284 C 0.88203 0.98001 0.02384 0.0
C285 C 0.97455 1.00163 0.01993 0.0
C286 C 0.8679 1.00375 0.04553 0.0
C287 C 0.90716 0.02591 0.05506 0.0
H288 H 0.53635 0.02992 0.96086 0.0
H289 H 0.61909 0.04187 0.04975 0.0
H290 H 0.55032 0.00856 0.07532 0.0
H291 H 0.46665 0.97681 0.0724 0.0
H292 H 0.38388 0.96482 0.98353 0.0
H293 H 0.45277 0.99804 0.95792 0.0
C294 C 0.53963 0.02511 0.9858 0.0
C295 C 0.58279 0.03827 1.0034 0.0
C296 C 0.49975 0.00632 1.00034 0.0
C297 C 0.5863 0.03193 0.0357 0.0
C298 C 0.54691 0.01302 0.05033 0.0
C299 C 0.46339 0.98158 0.04745 0.0
C300 C 0.42015 0.96848 0.02988 0.0
C301 C 0.50333 1.00031 0.0329 0.0
C302 C 0.41671 0.97474 0.99757 0.0
C303 C 0.45617 0.9936 0.98291 0.0
H304 H 0.94949 0.56553 0.49801 0.0
H305 H 0.87067 0.49055 0.5501 0.0
H306 H 0.9535 0.45807 0.54561 0.0
H307 H 0.04943 0.45176 0.52882 0.0
H308 H 0.12824 0.52665 0.47661 0.0
H309 H 0.04548 0.55919 0.4812 0.0
C310 C 0.95038 0.54214 0.50847 0.0
C311 C 0.90396 0.53074 0.52465 0.0
C312 C 0.9987 0.52389 0.50659 0.0
C313 C 0.90561 0.50001 0.53742 0.0
C314 C 0.95323 0.4815 0.53519 0.0
C315 C 0.04856 0.47514 0.51835 0.0
C316 C 0.09494 0.48649 0.50211 0.0
C317 C 0.00027 0.4934 0.52024 0.0
C318 C 0.09332 0.51722 0.48933 0.0
C319 C 0.04574 0.53577 0.49162 0.0
H320 H 0.46996 0.52416 0.45399 0.0
H321 H 0.38648 0.54002 0.54234 0.0
H322 H 0.45692 0.50927 0.56953 0.0
H323 H 0.54232 0.47907 0.56832 0.0
H324 H 0.6263 0.46268 0.48025 0.0
H325 H 0.55561 0.49329 0.45275 0.0
C326 C 0.46681 0.52062 0.47915 0.0
C327 C 0.42301 0.53425 0.49615 0.0
C328 C 0.50783 0.50339 0.49467 0.0
C329 C 0.41975 0.52968 0.52875 0.0
C330 C 0.46012 0.51228 0.54432 0.0
C331 C 0.54556 0.48233 0.54312 0.0
C332 C 0.58962 0.46878 0.52633 0.0
C333 C 0.50454 0.49936 0.52754 0.0
C334 C 0.59292 0.47308 0.4937 0.0
C335 C 0.55238 0.49037 0.47797 0.0
H336 H 0.33113 0.96203 0.13965 0.0
H337 H 0.1621 0.93238 0.13521 0.0
H338 H 0.13162 0.98718 0.14333 0.0
H339 H 0.15435 0.04383 0.13748 0.0
H340 H 0.32347 0.07357 0.14036 0.0
H341 H 0.35299 0.01857 0.14804 0.0
C342 C 0.28767 0.96743 0.1422 0.0
C343 C 0.2488 0.94331 0.13694 0.0
C344 C 0.27066 0.99914 0.14597 0.0
C345 C 0.19263 0.95049 0.13967 0.0
C346 C 0.17528 0.98193 0.14381 0.0
C347 C 0.19742 0.03837 0.14147 0.0
C348 C 0.23678 0.0626 0.13832 0.0
C349 C 0.21399 0.00659 0.145 0.0
C350 C 0.29249 0.05537 0.14309 0.0
C351 C 0.30937 0.02382 0.14697 0.0
H352 H 0.14083 0.473 0.39565 0.0
H353 H 0.30398 0.43655 0.37907 0.0
H354 H 0.3378 0.49044 0.37027 0.0
H355 H 0.32448 0.54747 0.3814 0.0
H356 H 0.16155 0.58367 0.39906 0.0
H357 H 0.12342 0.5305 0.39246 0.0
C358 C 0.18316 0.47682 0.3885 0.0
C359 C 0.22002 0.45102 0.38808 0.0
C360 C 0.20235 0.50791 0.3842 0.0
C361 C 0.27487 0.45607 0.37918 0.0
C362 C 0.2943 0.48694 0.37461 0.0
C363 C 0.28031 0.54391 0.38197 0.0
C364 C 0.24571 0.56933 0.39056 0.0
C365 C 0.25904 0.51308 0.37898 0.0
C366 C 0.18871 0.56452 0.39193 0.0
C367 C 0.16708 0.53399 0.38869 0.0
H368 H 0.84652 0.96499 0.89528 0.0
H369 H 0.67719 0.93555 0.89375 0.0
H370 H 0.64784 0.99051 0.88567 0.0
H371 H 0.67015 0.04701 0.89365 0.0
H372 H 0.83939 0.07639 0.89722 0.0
H373 H 0.86945 0.02154 0.88892 0.0
C374 C 0.80341 0.97049 0.89148 0.0
C375 C 0.76397 0.94637 0.89517 0.0
C376 C 0.78696 1.00227 0.88781 0.0
C377 C 0.70822 0.95365 0.89062 0.0
C378 C 0.69146 0.98519 0.88651 0.0
C379 C 0.71354 0.04155 0.89085 0.0
C380 C 0.75261 0.06559 0.89597 0.0
C381 C 0.73031 0.0098 0.88711 0.0
C382 C 0.80869 0.05834 0.89288 0.0
C383 C 0.82581 0.02687 0.88867 0.0
H384 H 0.66986 0.46797 0.64307 0.0
H385 H 0.83559 0.43318 0.63281 0.0
H386 H 0.87114 0.48709 0.63819 0.0
H387 H 0.85264 0.5443 0.63316 0.0
H388 H 0.687 0.57946 0.64255 0.0
H389 H 0.6536 0.52542 0.65113 0.0
C390 C 0.71386 0.47211 0.64376 0.0
C391 C 0.75023 0.44672 0.63795 0.0
C392 C 0.7338 0.50335 0.64616 0.0
C393 C 0.80705 0.45232 0.63792 0.0
C394 C 0.82728 0.48322 0.64053 0.0
C395 C 0.80965 0.5402 0.63868 0.0
C396 C 0.77226 0.5657 0.63737 0.0
C397 C 0.7908 0.50901 0.64291 0.0
C398 C 0.71654 0.56023 0.64396 0.0
C399 C 0.6974 0.52924 0.64838 0.0
H400 H 0.35755 0.19217 0.04554 0.0
H401 H 0.30273 0.11583 0.98554 0.0
H402 H 0.3824 0.12288 0.95187 0.0
H403 H 0.47443 0.14465 0.94415 0.0
H404 H 0.53307 0.21866 1.0049 0.0
H405 H 0.4446 0.21962 0.03272 0.0
C406 C 0.36268 0.17735 0.02489 0.0
C407 C 0.32453 0.15305 0.0186 0.0
C408 C 0.40914 0.18139 1.00545 0.0
C409 C 0.3316 0.13441 0.9914 0.0
C410 C 0.37718 0.13847 0.97194 0.0
C411 C 0.4666 0.16208 0.96243 0.0
C412 C 0.50946 0.1819 0.97223 0.0
C413 C 0.41698 0.16118 0.97926 0.0
C414 C 0.49994 0.20377 0.99654 0.0
C415 C 0.44982 0.20377 1.01286 0.0
H416 H 0.03323 0.84713 0.93913 0.0
H417 H 0.95775 0.78932 1.01007 0.0
H418 H 0.04423 0.78759 0.03946 0.0
H419 H 0.13438 0.81251 0.05014 0.0
H420 H 0.2061 0.87349 0.97979 0.0
H421 H 0.12861 0.8641 0.94522 0.0
C422 C 0.03683 0.83271 0.96012 0.0
C423 C 0.98976 0.81809 0.97232 0.0
C424 C 0.08555 0.83354 0.97771 0.0
C425 C 0.99402 0.80017 0.99997 0.0
C426 C 0.04313 0.79984 0.01712 0.0
C427 C 0.13352 0.82327 0.02704 0.0
C428 C 0.1755 0.84437 0.01806 0.0
C429 C 0.08812 0.81807 1.00714 0.0
C430 C 0.17392 0.85774 0.98778 0.0
C431 C 0.12964 0.85227 0.9678 0.0
H432 H 0.50233 0.31377 0.52679 0.0
H433 H 0.46538 0.37875 0.60202 0.0
H434 H 0.37218 0.38641 0.58142 0.0
H435 H 0.30714 0.38094 0.53739 0.0
H436 H 0.34743 0.31818 0.46031 0.0
H437 H 0.43328 0.30358 0.48598 0.0
C438 C 0.47299 0.32867 0.53922 0.0
C439 C 0.49019 0.34553 0.56591 0.0
C440 C 0.42068 0.33413 0.52631 0.0
C441 C 0.45251 0.36517 0.5817 0.0
C442 C 0.39963 0.36996 0.56959 0.0
C443 C 0.33436 0.36381 0.52632 0.0
C444 C 0.32098 0.35113 0.49662 0.0
C445 C 0.38417 0.35564 0.54112 0.0
C446 C 0.35669 0.32868 0.48292 0.0
C447 C 0.40588 0.3202 0.49763 0.0
H448 H 0.04546 0.65707 0.58963 0.0
H449 H 0.97251 0.72029 0.52236 0.0
H450 H 0.05947 0.72282 0.49327 0.0
H451 H 0.14985 0.69819 0.48161 0.0
H452 H 0.21997 0.63284 0.54863 0.0
H453 H 0.14125 0.64012 0.58308 0.0
C454 C 0.04968 0.67267 0.56953 0.0
C455 C 0.00327 0.68882 0.55831 0.0
C456 C 0.09891 0.67272 0.55222 0.0
C457 C 0.00831 0.70825 0.53173 0.0
C458 C 0.05771 0.70916 0.51478 0.0
C459 C 0.14844 0.68607 0.50403 0.0
C460 C 0.19034 0.66438 0.512 0.0
C461 C 0.10238 0.69009 0.52387 0.0
C462 C 0.18795 0.64917 0.54141 0.0
C463 C 0.14289 0.65336 0.5613 0.0
H464 H 0.52843 0.861 0.08998 0.0
H465 H 0.46649 0.78834 0.02872 0.0
H466 H 0.55415 0.78716 1.00009 0.0
H467 H 0.64141 0.8143 0.98676 0.0
H468 H 0.69941 0.88933 0.04741 0.0
H469 H 0.62066 0.88222 0.08173 0.0
C470 C 0.53537 0.84377 0.0714 0.0
C471 C 0.49176 0.82443 0.06171 0.0
C472 C 0.58453 0.84458 0.05411 0.0
C473 C 0.50018 0.80284 0.03702 0.0
C474 C 0.54985 0.80274 0.02022 0.0
C475 C 0.63719 0.8288 1.0077 0.0
C476 C 0.67597 0.85277 1.01397 0.0
C477 C 0.59122 0.82473 0.02754 0.0
C478 C 0.67004 0.87101 0.04153 0.0
C479 C 0.62498 0.86692 0.06138 0.0
H480 H 0.86275 0.19825 0.98656 0.0
H481 H 0.80289 0.12829 0.05219 0.0
H482 H 0.88117 0.13764 0.08612 0.0
H483 H 0.97425 0.15814 0.09238 0.0
H484 H 0.03837 0.22513 0.02588 0.0
H485 H 0.95026 0.22579 0.99802 0.0
C486 C 0.86636 0.18545 1.00852 0.0
C487 C 0.82745 0.16203 1.01627 0.0
C488 C 0.91218 0.19071 0.02808 0.0
C489 C 0.83255 0.14601 0.04513 0.0
C490 C 0.87731 0.15142 0.06476 0.0
C491 C 0.96771 0.17419 0.07283 0.0
C492 C 0.01213 0.1918 0.06131 0.0
C493 C 0.91833 0.17281 0.05592 0.0
C494 C 0.00412 0.21191 0.03548 0.0
C495 C 0.95417 0.21166 0.01914 0.0
H496 H 0.69659 0.6418 0.48665 0.0
H497 H 0.64902 0.69738 0.56766 0.0
H498 H 0.56286 0.71167 0.54221 0.0
H499 H 0.49495 0.70149 0.50071 0.0
H500 H 0.53979 0.64378 0.42123 0.0
H501 H 0.63349 0.63826 0.44153 0.0
C502 C 0.66774 0.65737 0.4986 0.0
C503 C 0.67908 0.66791 0.52935 0.0
C504 C 0.61778 0.66544 0.48387 0.0
C505 C 0.64135 0.68849 0.54419 0.0
C506 C 0.59194 0.69679 0.52962 0.0
C507 C 0.5262 0.68911 0.48714 0.0
C508 C 0.51104 0.67344 0.45935 0.0
C509 C 0.57898 0.68465 0.49988 0.0
C510 C 0.55107 0.65657 0.44233 0.0
C511 C 0.60428 0.65288 0.45431 0.0
H512 H 0.0123 0.30852 0.51026 0.0
H513 H 0.95876 0.3539 0.42514 0.0
H514 H 0.86413 0.35546 0.44486 0.0
H515 H 0.80233 0.35423 0.4904 0.0
H516 H 0.8578 0.3128 0.57744 0.0
H517 H 0.9458 0.29911 0.55297 0.0
C518 C 0.97925 0.31741 0.49558 0.0
C519 C 0.99197 0.33109 0.46639 0.0
C520 C 0.92575 0.31982 0.50788 0.0
C521 C 0.94951 0.343 0.44755 0.0
C522 C 0.89567 0.34436 0.45908 0.0
C523 C 0.83327 0.3417 0.50392 0.0
C524 C 0.82395 0.33523 0.53596 0.0
C525 C 0.88412 0.33454 0.4899 0.0
C526 C 0.86406 0.31839 0.55288 0.0
C527 C 0.91448 0.31062 0.5389 0.0
H528 H 0.19092 0.30936 0.29351 0.0
H529 H 0.26303 0.22688 0.33711 0.0
H530 H 0.27349 0.20167 0.28577 0.0
H531 H 0.26354 0.20329 0.22824 0.0
H532 H 0.19638 0.28689 0.18446 0.0
H533 H 0.1844 0.31189 0.23596 0.0
C534 C 0.21049 0.28631 0.29181 0.0
C535 C 0.22754 0.27047 0.31921 0.0
C536 C 0.21719 0.2721 0.2621 0.0
C537 C 0.24998 0.23979 0.31644 0.0
C538 C 0.25606 0.22533 0.28706 0.0
C539 C 0.24577 0.22684 0.23006 0.0
C540 C 0.23008 0.24306 0.20267 0.0
C541 C 0.23982 0.24124 0.25972 0.0
C542 C 0.20858 0.27392 0.20526 0.0
C543 C 0.20165 0.28819 0.23469 0.0
H544 H 0.27594 0.81153 0.23148 0.0
H545 H 0.2686 0.71829 0.18971 0.0
H546 H 0.27259 0.69431 0.24168 0.0
H547 H 0.27389 0.69984 0.29889 0.0
H548 H 0.28773 0.79285 0.34054 0.0
H549 H 0.28577 0.81683 0.2885 0.0
C550 C 0.27717 0.786 0.2334 0.0
C551 C 0.27308 0.76689 0.20632 0.0
C552 C 0.28018 0.77223 0.26345 0.0
C553 C 0.27184 0.73373 0.20998 0.0
C554 C 0.2742 0.71991 0.23976 0.0
C555 C 0.27852 0.72521 0.29681 0.0
C556 C 0.28217 0.7443 0.32391 0.0
C557 C 0.27805 0.73892 0.2667 0.0
C558 C 0.28507 0.77742 0.32023 0.0
C559 C 0.28402 0.79123 0.29041 0.0
H560 H 0.77711 0.69983 0.73494 0.0
H561 H 0.79501 0.79223 0.69289 0.0
H562 H 0.79223 0.81685 0.74474 0.0
H563 H 0.77969 0.81242 0.80166 0.0
H564 H 0.7659 0.71993 0.84403 0.0
H565 H 0.77224 0.69512 0.79233 0.0
C566 C 0.78225 0.72521 0.737 0.0
C567 C 0.78727 0.74399 0.70985 0.0
C568 C 0.78081 0.73931 0.76702 0.0
C569 C 0.79123 0.7771 0.7133 0.0
C570 C 0.78966 0.79126 0.743 0.0
C571 C 0.77992 0.78685 0.7999 0.0
C572 C 0.7734 0.76818 0.82703 0.0
C573 C 0.78396 0.77263 0.77003 0.0
C574 C 0.77103 0.735 0.82367 0.0
C575 C 0.77473 0.72072 0.79406 0.0
H576 H 0.68769 0.31106 0.74051 0.0
H577 H 0.74133 0.22409 0.69642 0.0
H578 H 0.75296 0.1995 0.74786 0.0
H579 H 0.74961 0.20296 0.80546 0.0
H580 H 0.69732 0.29007 0.8497 0.0
H581 H 0.68521 0.31467 0.79822 0.0
C582 C 0.70314 0.28699 0.74215 0.0
C583 C 0.71484 0.26971 0.71461 0.0
C584 C 0.70994 0.27299 0.77188 0.0
C585 C 0.73243 0.23803 0.71723 0.0
C586 C 0.73915 0.22393 0.74666 0.0
C587 C 0.73459 0.22711 0.80385 0.0
C588 C 0.72335 0.24444 0.8314 0.0
C589 C 0.72799 0.24116 0.77415 0.0
C590 C 0.706 0.27616 0.82884 0.0
C591 C 0.69899 0.29024 0.79941 0.0
loop_
_geom_bond_atom_site_label_1
_geom_bond_atom_site_label_2
_geom_bond_distance
_geom_bond_site_symmetry_2
_ccdc_geom_bond_type
Co0 O3 1.970 . S
Co0 N17 1.989 . S
Co0 O25 1.967 . S
Co0 O32 1.920 . S
Co1 O4 1.966 . S
Co1 N10 2.022 . S
Co1 N18 1.993 . S
Co1 O26 1.941 . S
C2 O3 1.258 . S
C2 O4 1.263 . S
O3 Co0 1.970 . S
O3 C2 1.258 . S
O4 Co1 1.966 . S
O4 C2 1.263 . S
C5 O6 1.235 . S
C5 O32 1.289 . S
O6 C5 1.235 . S
C7 C9 1.400 . S
C7 N10 1.351 . S
C7 C12 1.501 . S
C8 C9 1.387 . S
C8 N11 1.341 . S
C9 C7 1.400 . S
C9 C8 1.387 . S
N10 Co1 2.022 . S
N10 C7 1.351 . S
N10 N11 1.365 . S
N11 C8 1.341 . S
N11 N10 1.365 . S
N11 H31 0.862 . S
C12 C7 1.501 . S
C12 H13 0.961 . S
C12 H14 0.961 . S
C12 H15 0.960 . S
H13 C12 0.961 . S
H14 C12 0.961 . S
H15 C12 0.960 . S
C16 N17 1.342 1_655 S
C16 C20 1.401 . S
C16 C21 1.499 . S
N17 Co0 1.989 . S
N17 C16 1.342 1_455 S
N17 N18 1.388 . S
N18 Co1 1.993 . S
N18 N17 1.388 . S
N18 C19 1.346 . S
C19 N18 1.346 . S
C19 C20 1.396 1_455 S
C19 C29 1.510 . S
C20 C16 1.401 . S
C20 C19 1.396 1_655 S
C21 C16 1.499 . S
C21 H22 0.948 1_655 S
C21 H23 0.960 . S
C21 H24 0.953 1_554 S
H22 C21 0.948 1_455 S
H23 C21 0.960 . S
H24 C21 0.953 1_556 S
O25 Co0 1.967 . S
O25 C33 1.258 . S
O26 Co1 1.941 . S
O26 C33 1.266 . S
H27 C29 0.959 . S
H28 C29 0.961 1_655 S
C29 C19 1.510 . S
C29 H27 0.959 . S
C29 H28 0.961 1_455 S
C29 H30 0.960 . S
H30 C29 0.960 . S
H31 N11 0.862 . S
O32 Co0 1.920 . S
O32 C5 1.289 . S
C33 O25 1.258 . S
C33 O26 1.266 . S
Co34 O37 1.970 . S
Co34 N51 1.989 . S
Co34 O59 1.967 . S
Co34 O66 1.920 . S
Co35 O38 1.966 . S
Co35 N44 2.022 . S
Co35 N52 1.993 . S
Co35 O60 1.941 . S
C36 O37 1.258 . S
C36 O38 1.263 . S
O37 Co34 1.970 . S
O37 C36 1.258 . S
O38 Co35 1.966 . S
O38 C36 1.263 . S
C39 O40 1.235 . S
C39 O66 1.289 . S
O40 C39 1.235 . S
C41 C43 1.400 . S
C41 N44 1.351 . S
C41 C46 1.501 . S
C42 C43 1.387 . S
C42 N45 1.341 . S
C43 C41 1.400 . S
C43 C42 1.387 . S
N44 Co35 2.022 . S
N44 C41 1.351 . S
N44 N45 1.365 . S
N45 C42 1.341 . S
N45 N44 1.365 . S
N45 H65 0.862 . S
C46 C41 1.501 . S
C46 H47 0.961 . S
C46 H48 0.961 . S
C46 H49 0.960 . S
H47 C46 0.961 . S
H48 C46 0.961 . S
H49 C46 0.960 . S
C50 N51 1.342 . S
C50 C54 1.401 . S
C50 C55 1.499 . S
N51 Co34 1.989 . S
N51 C50 1.342 . S
N51 N52 1.388 . S
N52 Co35 1.993 . S
N52 N51 1.388 . S
N52 C53 1.346 . S
C53 N52 1.346 . S
C53 C54 1.396 . S
C53 C63 1.510 . S
C54 C50 1.401 . S
C54 C53 1.396 . S
C55 C50 1.499 . S
C55 H56 0.959 . S
C55 H57 0.960 . S
C55 H58 0.953 1_554 S
H56 C55 0.959 . S
H57 C55 0.960 . S
H58 C55 0.953 1_556 S
O59 Co34 1.967 . S
O59 C67 1.258 . S
O60 Co35 1.941 . S
O60 C67 1.266 . S
H61 C63 0.959 . S
H62 C63 0.961 . S
C63 C53 1.510 . S
C63 H61 0.959 . S
C63 H62 0.961 . S
C63 H64 0.960 . S
H64 C63 0.960 . S
H65 N45 0.862 . S
O66 Co34 1.920 . S
O66 C39 1.289 . S
C67 O59 1.258 . S
C67 O60 1.266 . S
Co68 O71 1.970 . S
Co68 N85 1.989 . S
Co68 O93 1.967 . S
Co68 O100 1.920 . S
Co69 O72 1.966 . S
Co69 N78 2.022 . S
Co69 N86 1.993 . S
Co69 O94 1.941 . S
C70 O71 1.258 . S
C70 O72 1.263 . S
O71 Co68 1.970 . S
O71 C70 1.258 . S
O72 Co69 1.966 . S
O72 C70 1.263 . S
C73 O74 1.235 . S
C73 O100 1.289 . S
O74 C73 1.235 . S
C75 C77 1.400 . S
C75 N78 1.351 . S
C75 C80 1.501 . S
C76 C77 1.387 . S
C76 N79 1.341 . S
C77 C75 1.400 . S
C77 C76 1.387 . S
N78 Co69 2.022 . S
N78 C75 1.351 . S
N78 N79 1.365 . S
N79 C76 1.341 . S
N79 N78 1.365 . S
N79 H99 0.862 . S
C80 C75 1.501 . S
C80 H81 0.961 . S
C80 H82 0.961 . S
C80 H83 0.960 . S
H81 C80 0.961 . S
H82 C80 0.961 . S
H83 C80 0.960 . S
C84 N85 1.342 1_655 S
C84 C88 1.401 . S
C84 C89 1.499 . S
N85 Co68 1.989 . S
N85 C84 1.342 1_455 S
N85 N86 1.388 . S
N86 Co69 1.993 . S
N86 N85 1.388 . S
N86 C87 1.346 . S
C87 N86 1.346 . S
C87 C88 1.396 1_455 S
C87 C97 1.510 . S
C88 C84 1.401 . S
C88 C87 1.396 1_655 S
C89 C84 1.499 . S
C89 H90 0.948 1_655 S
C89 H91 0.960 . S
C89 H92 0.961 . S
H90 C89 0.948 1_455 S
H91 C89 0.960 . S
H92 C89 0.961 . S
O93 Co68 1.967 . S
O93 C101 1.258 . S
O94 Co69 1.941 . S
O94 C101 1.266 . S
H95 C97 0.959 . S
H96 C97 0.961 1_655 S
C97 C87 1.510 . S
C97 H95 0.959 . S
C97 H96 0.961 1_455 S
C97 H98 0.960 . S
H98 C97 0.960 . S
H99 N79 0.862 . S
O100 Co68 1.920 . S
O100 C73 1.289 . S
C101 O93 1.258 . S
C101 O94 1.266 . S
Co102 O105 1.970 . S
Co102 N119 1.989 . S
Co102 O127 1.967 . S
Co102 O134 1.920 . S
Co103 O106 1.966 . S
Co103 N112 2.022 . S
Co103 N120 1.993 . S
Co103 O128 1.941 . S
C104 O105 1.258 . S
C104 O106 1.263 . S
O105 Co102 1.970 . S
O105 C104 1.258 . S
O106 Co103 1.966 . S
O106 C104 1.263 . S
C107 O108 1.235 . S
C107 O134 1.289 . S
O108 C107 1.235 . S
C109 C111 1.400 . S
C109 N112 1.351 . S
C109 C114 1.501 . S
C110 C111 1.387 . S
C110 N113 1.341 . S
C111 C109 1.400 . S
C111 C110 1.387 . S
N112 Co103 2.022 . S
N112 C109 1.351 . S
N112 N113 1.365 . S
N113 C110 1.341 . S
N113 N112 1.365 . S
N113 H133 0.862 . S
C114 C109 1.501 . S
C114 H115 0.961 . S
C114 H116 0.961 . S
C114 H117 0.960 . S
H115 C114 0.961 . S
H116 C114 0.961 . S
H117 C114 0.960 . S
C118 N119 1.342 . S
C118 C122 1.401 . S
C118 C123 1.499 . S
N119 Co102 1.989 . S
N119 C118 1.342 . S
N119 N120 1.388 . S
N120 Co103 1.993 . S
N120 N119 1.388 . S
N120 C121 1.346 . S
C121 N120 1.346 . S
C121 C122 1.396 . S
C121 C131 1.510 . S
C122 C118 1.401 . S
C122 C121 1.396 . S
C123 C118 1.499 . S
C123 H124 0.959 . S
C123 H125 0.960 . S
C123 H126 0.961 . S
H124 C123 0.959 . S
H125 C123 0.960 . S
H126 C123 0.961 . S
O127 Co102 1.967 . S
O127 C135 1.258 . S
O128 Co103 1.941 . S
O128 C135 1.266 . S
H129 C131 0.959 . S
H130 C131 0.961 . S
C131 C121 1.510 . S
C131 H129 0.959 . S
C131 H130 0.961 . S
C131 H132 0.960 . S
H132 C131 0.960 . S
H133 N113 0.862 . S
O134 Co102 1.920 . S
O134 C107 1.289 . S
C135 O127 1.258 . S
C135 O128 1.266 . S
Co136 O139 1.970 . S
Co136 N153 1.989 . S
Co136 O161 1.967 . S
Co136 O168 1.920 . S
Co137 O140 1.966 . S
Co137 N146 2.022 . S
Co137 N154 1.993 . S
Co137 O162 1.941 . S
C138 O139 1.258 . S
C138 O140 1.263 . S
O139 Co136 1.970 . S
O139 C138 1.258 . S
O140 Co137 1.966 . S
O140 C138 1.263 . S
C141 O142 1.235 . S
C141 O168 1.289 . S
O142 C141 1.235 . S
C143 C145 1.400 . S
C143 N146 1.351 . S
C143 C148 1.501 . S
C144 C145 1.387 . S
C144 N147 1.341 . S
C145 C143 1.400 . S
C145 C144 1.387 . S
N146 Co137 2.022 . S
N146 C143 1.351 . S
N146 N147 1.365 . S
N147 C144 1.341 . S
N147 N146 1.365 . S
N147 H167 0.862 . S
C148 C143 1.501 . S
C148 H149 0.961 . S
C148 H150 0.961 . S
C148 H151 0.960 . S
H149 C148 0.961 . S
H150 C148 0.961 . S
H151 C148 0.960 . S
C152 N153 1.342 1_455 S
C152 C156 1.401 . S
C152 C157 1.499 . S
N153 Co136 1.989 . S
N153 C152 1.342 1_655 S
N153 N154 1.388 . S
N154 Co137 1.993 . S
N154 N153 1.388 . S
N154 C155 1.346 . S
C155 N154 1.346 . S
C155 C156 1.396 1_655 S
C155 C165 1.510 . S
C156 C152 1.401 . S
C156 C155 1.396 1_455 S
C157 C152 1.499 . S
C157 H158 0.948 1_455 S
C157 H159 0.960 . S
C157 H160 0.953 1_556 S
H158 C157 0.948 1_655 S
H159 C157 0.960 . S
H160 C157 0.953 1_554 S
O161 Co136 1.967 . S
O161 C169 1.258 . S
O162 Co137 1.941 . S
O162 C169 1.266 . S
H163 C165 0.959 . S
H164 C165 0.961 1_455 S
C165 C155 1.510 . S
C165 H163 0.959 . S
C165 H164 0.961 1_655 S
C165 H166 0.960 . S
H166 C165 0.960 . S
H167 N147 0.862 . S
O168 Co136 1.920 . S
O168 C141 1.289 . S
C169 O161 1.258 . S
C169 O162 1.266 . S
Co170 O173 1.970 . S
Co170 N187 1.989 . S
Co170 O195 1.967 . S
Co170 O202 1.920 . S
Co171 O174 1.966 . S
Co171 N180 2.022 . S
Co171 N188 1.993 . S
Co171 O196 1.941 . S
C172 O173 1.258 . S
C172 O174 1.263 . S
O173 Co170 1.970 . S
O173 C172 1.258 . S
O174 Co171 1.966 . S
O174 C172 1.263 . S
C175 O176 1.235 . S
C175 O202 1.289 . S
O176 C175 1.235 . S
C177 C179 1.400 . S
C177 N180 1.351 . S
C177 C182 1.501 . S
C178 C179 1.387 . S
C178 N181 1.341 . S
C179 C177 1.400 . S
C179 C178 1.387 . S
N180 Co171 2.022 . S
N180 C177 1.351 . S
N180 N181 1.365 . S
N181 C178 1.341 . S
N181 N180 1.365 . S
N181 H201 0.862 . S
C182 C177 1.501 . S
C182 H183 0.961 . S
C182 H184 0.961 . S
C182 H185 0.960 . S
H183 C182 0.961 . S
H184 C182 0.961 . S
H185 C182 0.960 . S
C186 N187 1.342 . S
C186 C190 1.401 . S
C186 C191 1.499 . S
N187 Co170 1.989 . S
N187 C186 1.342 . S
N187 N188 1.388 . S
N188 Co171 1.993 . S
N188 N187 1.388 . S
N188 C189 1.346 . S
C189 N188 1.346 . S
C189 C190 1.396 . S
C189 C199 1.510 . S
C190 C186 1.401 . S
C190 C189 1.396 . S
C191 C186 1.499 . S
C191 H192 0.959 . S
C191 H193 0.960 . S
C191 H194 0.953 1_556 S
H192 C191 0.959 . S
H193 C191 0.960 . S
H194 C191 0.953 1_554 S
O195 Co170 1.967 . S
O195 C203 1.258 . S
O196 Co171 1.941 . S
O196 C203 1.266 . S
H197 C199 0.959 . S
H198 C199 0.961 . S
C199 C189 1.510 . S
C199 H197 0.959 . S
C199 H198 0.961 . S
C199 H200 0.960 . S
H200 C199 0.960 . S
H201 N181 0.862 . S
O202 Co170 1.920 . S
O202 C175 1.289 . S
C203 O195 1.258 . S
C203 O196 1.266 . S
Co204 O207 1.970 . S
Co204 N221 1.989 . S
Co204 O229 1.967 . S
Co204 O236 1.920 . S
Co205 O208 1.966 . S
Co205 N214 2.022 . S
Co205 N222 1.993 . S
Co205 O230 1.941 . S
C206 O207 1.258 . S
C206 O208 1.263 . S
O207 Co204 1.970 . S
O207 C206 1.258 . S
O208 Co205 1.966 . S
O208 C206 1.263 . S
C209 O210 1.235 . S
C209 O236 1.289 . S
O210 C209 1.235 . S
C211 C213 1.400 . S
C211 N214 1.351 . S
C211 C216 1.501 . S
C212 C213 1.387 . S
C212 N215 1.341 . S
C213 C211 1.400 . S
C213 C212 1.387 . S
N214 Co205 2.022 . S
N214 C211 1.351 . S
N214 N215 1.365 . S
N215 C212 1.341 . S
N215 N214 1.365 . S
N215 H235 0.862 . S
C216 C211 1.501 . S
C216 H217 0.961 . S
C216 H218 0.961 . S
C216 H219 0.960 . S
H217 C216 0.961 . S
H218 C216 0.961 . S
H219 C216 0.960 . S
C220 N221 1.342 1_455 S
C220 C224 1.401 . S
C220 C225 1.499 . S
N221 Co204 1.989 . S
N221 C220 1.342 1_655 S
N221 N222 1.388 . S
N222 Co205 1.993 . S
N222 N221 1.388 . S
N222 C223 1.346 . S
C223 N222 1.346 . S
C223 C224 1.396 1_655 S
C223 C233 1.510 . S
C224 C220 1.401 . S
C224 C223 1.396 1_455 S
C225 C220 1.499 . S
C225 H226 0.948 1_455 S
C225 H227 0.960 . S
C225 H228 0.961 . S
H226 C225 0.948 1_655 S
H227 C225 0.960 . S
H228 C225 0.961 . S
O229 Co204 1.967 . S
O229 C237 1.258 . S
O230 Co205 1.941 . S
O230 C237 1.266 . S
H231 C233 0.959 . S
H232 C233 0.961 1_455 S
C233 C223 1.510 . S
C233 H231 0.959 . S
C233 H232 0.961 1_655 S
C233 H234 0.960 . S
H234 C233 0.960 . S
H235 N215 0.862 . S
O236 Co204 1.920 . S
O236 C209 1.289 . S
C237 O229 1.258 . S
C237 O230 1.266 . S
Co238 O241 1.970 . S
Co238 N255 1.989 . S
Co238 O263 1.967 . S
Co238 O270 1.920 . S
Co239 O242 1.966 . S
Co239 N248 2.022 . S
Co239 N256 1.993 . S
Co239 O264 1.941 . S
C240 O241 1.258 . S
C240 O242 1.263 . S
O241 Co238 1.970 . S
O241 C240 1.258 . S
O242 Co239 1.966 . S
O242 C240 1.263 . S
C243 O244 1.235 . S
C243 O270 1.289 . S
O244 C243 1.235 . S
C245 C247 1.400 . S
C245 N248 1.351 . S
C245 C250 1.501 . S
C246 C247 1.387 . S
C246 N249 1.341 . S
C247 C245 1.400 . S
C247 C246 1.387 . S
N248 Co239 2.022 . S
N248 C245 1.351 . S
N248 N249 1.365 . S
N249 C246 1.341 . S
N249 N248 1.365 . S
N249 H269 0.862 . S
C250 C245 1.501 . S
C250 H251 0.961 . S
C250 H252 0.961 . S
C250 H253 0.960 . S
H251 C250 0.961 . S
H252 C250 0.961 . S
H253 C250 0.960 . S
C254 N255 1.342 . S
C254 C258 1.401 . S
C254 C259 1.499 . S
N255 Co238 1.989 . S
N255 C254 1.342 . S
N255 N256 1.388 . S
N256 Co239 1.993 . S
N256 N255 1.388 . S
N256 C257 1.346 . S
C257 N256 1.346 . S
C257 C258 1.396 . S
C257 C267 1.510 . S
C258 C254 1.401 . S
C258 C257 1.396 . S
C259 C254 1.499 . S
C259 H260 0.959 . S
C259 H261 0.960 . S
C259 H262 0.961 . S
H260 C259 0.959 . S
H261 C259 0.960 . S
H262 C259 0.961 . S
O263 Co238 1.967 . S
O263 C271 1.258 . S
O264 Co239 1.941 . S
O264 C271 1.266 . S
H265 C267 0.959 . S
H266 C267 0.961 . S
C267 C257 1.510 . S
C267 H265 0.959 . S
C267 H266 0.961 . S
C267 H268 0.960 . S
H268 C267 0.960 . S
H269 N249 0.862 . S
O270 Co238 1.920 . S
O270 C243 1.289 . S
C271 O263 1.258 . S
C271 O264 1.266 . S
H272 C278 0.930 1_655 S
H273 C281 0.930 . S
H274 C282 0.930 . S
H275 C283 0.930 1_455 S
H276 C286 0.930 . S
H277 C287 0.930 . S
C278 H272 0.930 1_455 S
C278 C279 1.355 1_554 S
C278 C280 1.415 1_455 S
C279 C278 1.355 1_556 S
C279 C281 1.419 . S
C280 C278 1.415 1_655 S
C280 C285 1.425 1_644 S
C280 C287 1.409 . S
C281 H273 0.930 . S
C281 C279 1.419 . S
C281 C282 1.362 1_545 S
C282 H274 0.930 . S
C282 C281 1.362 1_565 S
C282 C285 1.409 . S
C283 H275 0.930 1_655 S
C283 C284 1.355 1_556 S
C283 C285 1.415 1_655 S
C284 C283 1.355 1_554 S
C284 C286 1.419 . S
C285 C280 1.425 1_466 S
C285 C282 1.409 . S
C285 C283 1.415 1_455 S
C286 H276 0.930 . S
C286 C284 1.419 . S
C286 C287 1.362 1_565 S
C287 H277 0.930 . S
C287 C280 1.409 . S
C287 C286 1.362 1_545 S
H288 C294 0.930 . S
H289 C297 0.930 . S
H290 C298 0.930 . S
H291 C299 0.930 . S
H292 C302 0.930 . S
H293 C303 0.930 . S
C294 H288 0.930 . S
C294 C295 1.355 1_556 S
C294 C296 1.415 1_545 S
C295 C294 1.355 1_554 S
C295 C297 1.419 . S
C296 C294 1.415 1_565 S
C296 C301 1.425 1_566 S
C296 C303 1.409 . S
C297 H289 0.930 . S
C297 C295 1.419 . S
C297 C298 1.362 . S
C298 H290 0.930 . S
C298 C297 1.362 . S
C298 C301 1.409 . S
C299 H291 0.930 . S
C299 C300 1.355 1_554 S
C299 C301 1.415 1_565 S
C300 C299 1.355 1_556 S
C300 C302 1.419 . S
C301 C296 1.425 1_544 S
C301 C298 1.409 . S
C301 C299 1.415 1_545 S
C302 H292 0.930 . S
C302 C300 1.419 . S
C302 C303 1.362 . S
C303 H293 0.930 . S
C303 C296 1.409 . S
C303 C302 1.362 . S
H304 C310 0.930 1_455 S
H305 C313 0.930 . S
H306 C314 0.930 . S
H307 C315 0.930 1_655 S
H308 C318 0.930 . S
H309 C319 0.930 . S
C310 H304 0.930 1_655 S
C310 C311 1.355 . S
C310 C312 1.415 1_655 S
C311 C310 1.355 . S
C311 C313 1.419 . S
C312 C310 1.415 1_455 S
C312 C317 1.425 1_455 S
C312 C319 1.409 . S
C313 H305 0.930 . S
C313 C311 1.419 . S
C313 C314 1.362 . S
C314 H306 0.930 . S
C314 C313 1.362 . S
C314 C317 1.409 . S
C315 H307 0.930 1_455 S
C315 C316 1.355 . S
C315 C317 1.415 1_455 S
C316 C315 1.355 . S
C316 C318 1.419 . S
C317 C312 1.425 1_655 S
C317 C314 1.409 . S
C317 C315 1.415 1_655 S
C318 H308 0.930 . S
C318 C316 1.419 . S
C318 C319 1.362 . S
C319 H309 0.930 . S
C319 C312 1.409 . S
C319 C318 1.362 . S
H320 C326 0.930 . S
H321 C329 0.930 . S
H322 C330 0.930 . S
H323 C331 0.930 . S
H324 C334 0.930 . S
H325 C335 0.930 . S
C326 H320 0.930 . S
C326 C327 1.355 . S
C326 C328 1.415 . S
C327 C326 1.355 . S
C327 C329 1.419 . S
C328 C326 1.415 . S
C328 C333 1.425 . S
C328 C335 1.409 . S
C329 H321 0.930 . S
C329 C327 1.419 . S
C329 C330 1.362 . S
C330 H322 0.930 . S
C330 C329 1.362 . S
C330 C333 1.409 . S
C331 H323 0.930 . S
C331 C332 1.355 . S
C331 C333 1.415 . S
C332 C331 1.355 . S
C332 C334 1.419 . S
C333 C328 1.425 . S
C333 C330 1.409 . S
C333 C331 1.415 . S
C334 H324 0.930 . S
C334 C332 1.419 . S
C334 C335 1.362 . S
C335 H325 0.930 . S
C335 C328 1.409 . S
C335 C334 1.362 . S
H336 C342 0.930 . S
H337 C345 0.930 . S
H338 C346 0.930 . S
H339 C347 0.930 . S
H340 C350 0.930 . S
H341 C351 0.930 . S
C342 H336 0.930 . S
C342 C343 1.355 . S
C342 C344 1.415 1_565 S
C343 C342 1.355 . S
C343 C345 1.419 . S
C344 C342 1.415 1_545 S
C344 C349 1.425 1_545 S
C344 C351 1.409 . S
C345 H337 0.930 . S
C345 C343 1.419 . S
C345 C346 1.362 . S
C346 H338 0.930 . S
C346 C345 1.362 . S
C346 C349 1.409 . S
C347 H339 0.930 . S
C347 C348 1.355 . S
C347 C349 1.415 1_545 S
C348 C347 1.355 . S
C348 C350 1.419 . S
C349 C344 1.425 1_565 S
C349 C346 1.409 . S
C349 C347 1.415 1_565 S
C350 H340 0.930 . S
C350 C348 1.419 . S
C350 C351 1.362 . S
C351 H341 0.930 . S
C351 C344 1.409 . S
C351 C350 1.362 . S
H352 C358 0.930 . S
H353 C361 0.930 . S
H354 C362 0.930 . S
H355 C363 0.930 . S
H356 C366 0.930 . S
H357 C367 0.930 . S
C358 H352 0.930 . S
C358 C359 1.355 . S
C358 C360 1.415 . S
C359 C358 1.355 . S
C359 C361 1.419 . S
C360 C358 1.415 . S
C360 C365 1.425 . S
C360 C367 1.409 . S
C361 H353 0.930 . S
C361 C359 1.419 . S
C361 C362 1.362 . S
C362 H354 0.930 . S
C362 C361 1.362 . S
C362 C365 1.409 . S
C363 H355 0.930 . S
C363 C364 1.355 . S
C363 C365 1.415 . S
C364 C363 1.355 . S
C364 C366 1.419 . S
C365 C360 1.425 . S
C365 C362 1.409 . S
C365 C363 1.415 . S
C366 H356 0.930 . S
C366 C364 1.419 . S
C366 C367 1.362 . S
C367 H357 0.930 . S
C367 C360 1.409 . S
C367 C366 1.362 . S
H368 C374 0.930 . S
H369 C377 0.930 . S
H370 C378 0.930 . S
H371 C379 0.930 . S
H372 C382 0.930 . S
H373 C383 0.930 . S
C374 H368 0.930 . S
C374 C375 1.355 . S
C374 C376 1.426 . S
C375 C374 1.355 . S
C375 C377 1.419 . S
C376 C374 1.426 . S
C376 C381 1.425 1_565 S
C376 C383 1.399 1_565 S
C377 H369 0.930 . S
C377 C375 1.419 . S
C377 C378 1.362 . S
C378 H370 0.930 . S
C378 C377 1.362 . S
C378 C381 1.399 1_565 S
C379 H371 0.930 . S
C379 C380 1.355 . S
C379 C381 1.425 . S
C380 C379 1.355 . S
C380 C382 1.419 . S
C381 C376 1.425 1_545 S
C381 C378 1.399 1_545 S
C381 C379 1.425 . S
C382 H372 0.930 . S
C382 C380 1.419 . S
C382 C383 1.362 . S
C383 H373 0.930 . S
C383 C376 1.399 1_545 S
C383 C382 1.362 . S
H384 C390 0.930 . S
H385 C393 0.930 . S
H386 C394 0.930 . S
H387 C395 0.930 . S
H388 C398 0.930 . S
H389 C399 0.930 . S
C390 H384 0.930 . S
C390 C391 1.355 . S
C390 C392 1.415 . S
C391 C390 1.355 . S
C391 C393 1.419 . S
C392 C390 1.415 . S
C392 C397 1.425 . S
C392 C399 1.409 . S
C393 H385 0.930 . S
C393 C391 1.419 . S
C393 C394 1.362 . S
C394 H386 0.930 . S
C394 C393 1.362 . S
C394 C397 1.409 . S
C395 H387 0.930 . S
C395 C396 1.355 . S
C395 C397 1.415 . S
C396 C395 1.355 . S
C396 C398 1.419 . S
C397 C392 1.425 . S
C397 C394 1.409 . S
C397 C395 1.415 . S
C398 H388 0.930 . S
C398 C396 1.419 . S
C398 C399 1.362 . S
C399 H389 0.930 . S
C399 C392 1.409 . S
C399 C398 1.362 . S
H400 C406 0.930 . S
H401 C409 0.930 . S
H402 C410 0.930 . S
H403 C411 0.930 . S
H404 C414 0.930 . S
H405 C415 0.930 . S
C406 H400 0.930 . S
C406 C407 1.355 . S
C406 C408 1.400 1_554 S
C407 C406 1.355 . S
C407 C409 1.419 1_554 S
C408 C406 1.400 1_556 S
C408 C413 1.444 . S
C408 C415 1.406 1_556 S
C409 H401 0.930 . S
C409 C407 1.419 1_556 S
C409 C410 1.362 . S
C410 H402 0.930 . S
C410 C409 1.362 . S
C410 C413 1.409 . S
C411 H403 0.930 . S
C411 C412 1.355 . S
C411 C413 1.415 . S
C412 C411 1.355 . S
C412 C414 1.419 . S
C413 C408 1.444 . S
C413 C410 1.409 . S
C413 C411 1.415 . S
C414 H404 0.930 . S
C414 C412 1.419 . S
C414 C415 1.362 1_556 S
C415 H405 0.930 . S
C415 C408 1.406 1_554 S
C415 C414 1.362 1_554 S
H416 C422 0.930 . S
H417 C425 0.930 . S
H418 C426 0.952 . S
H419 C427 0.930 . S
H420 C430 0.930 . S
H421 C431 0.930 . S
C422 H416 0.930 . S
C422 C423 1.355 . S
C422 C424 1.415 . S
C423 C422 1.355 . S
C423 C425 1.419 . S
C424 C422 1.415 . S
C424 C429 1.425 . S
C424 C431 1.409 . S
C425 H417 0.930 . S
C425 C423 1.419 . S
C425 C426 1.344 1_556 S
C426 H418 0.952 . S
C426 C425 1.344 1_554 S
C426 C429 1.406 1_554 S
C427 H419 0.930 . S
C427 C428 1.355 . S
C427 C429 1.415 1_554 S
C428 C427 1.355 . S
C428 C430 1.419 1_554 S
C429 C424 1.425 . S
C429 C426 1.406 1_556 S
C429 C427 1.415 1_556 S
C430 H420 0.930 . S
C430 C428 1.419 1_556 S
C430 C431 1.362 . S
C431 H421 0.930 . S
C431 C424 1.409 . S
C431 C430 1.362 . S
H432 C438 0.930 . S
H433 C441 0.930 . S
H434 C442 0.930 . S
H435 C443 0.930 . S
H436 C446 0.930 . S
H437 C447 0.930 . S
C438 H432 0.930 . S
C438 C439 1.355 . S
C438 C440 1.415 . S
C439 C438 1.355 . S
C439 C441 1.419 . S
C440 C438 1.415 . S
C440 C445 1.425 . S
C440 C447 1.409 . S
C441 H433 0.930 . S
C441 C439 1.419 . S
C441 C442 1.362 . S
C442 H434 0.930 . S
C442 C441 1.362 . S
C442 C445 1.409 . S
C443 H435 0.930 . S
C443 C444 1.355 . S
C443 C445 1.415 . S
C444 C443 1.355 . S
C444 C446 1.419 . S
C445 C440 1.425 . S
C445 C442 1.409 . S
C445 C443 1.415 . S
C446 H436 0.930 . S
C446 C444 1.419 . S
C446 C447 1.362 . S
C447 H437 0.930 . S
C447 C440 1.409 . S
C447 C446 1.362 . S
H448 C454 0.930 . S
H449 C457 0.930 . S
H450 C458 0.930 . S
H451 C459 0.930 . S
H452 C462 0.930 . S
H453 C463 0.930 . S
C454 H448 0.930 . S
C454 C455 1.355 . S
C454 C456 1.415 . S
C455 C454 1.355 . S
C455 C457 1.419 . S
C456 C454 1.415 . S
C456 C461 1.425 . S
C456 C463 1.409 . S
C457 H449 0.930 . S
C457 C455 1.419 . S
C457 C458 1.362 . S
C458 H450 0.930 . S
C458 C457 1.362 . S
C458 C461 1.409 . S
C459 H451 0.930 . S
C459 C460 1.355 . S
C459 C461 1.415 . S
C460 C459 1.355 . S
C460 C462 1.419 . S
C461 C456 1.425 . S
C461 C458 1.409 . S
C461 C459 1.415 . S
C462 H452 0.930 . S
C462 C460 1.419 . S
C462 C463 1.362 . S
C463 H453 0.930 . S
C463 C456 1.409 . S
C463 C462 1.362 . S
H464 C470 0.930 . S
H465 C473 0.930 . S
H466 C474 0.930 . S
H467 C475 0.930 . S
H468 C478 0.930 . S
H469 C479 0.930 . S
C470 H464 0.930 . S
C470 C471 1.355 . S
C470 C472 1.415 . S
C471 C470 1.355 . S
C471 C473 1.419 . S
C472 C470 1.415 . S
C472 C477 1.408 1_554 S
C472 C479 1.409 . S
C473 H465 0.930 . S
C473 C471 1.419 . S
C473 C474 1.362 1_554 S
C474 H466 0.930 . S
C474 C473 1.362 1_556 S
C474 C477 1.413 . S
C475 H467 0.930 . S
C475 C476 1.355 . S
C475 C477 1.427 . S
C476 C475 1.355 . S
C476 C478 1.419 1_556 S
C477 C472 1.408 1_556 S
C477 C474 1.413 . S
C477 C475 1.427 . S
C478 H468 0.930 . S
C478 C476 1.419 1_554 S
C478 C479 1.362 . S
C479 H469 0.930 . S
C479 C472 1.409 . S
C479 C478 1.362 . S
H480 C486 0.930 . S
H481 C489 0.930 . S
H482 C490 0.930 . S
H483 C491 0.930 . S
H484 C494 0.930 . S
H485 C495 0.930 . S
C486 H480 0.930 . S
C486 C487 1.355 . S
C486 C488 1.415 . S
C487 C486 1.355 . S
C487 C489 1.419 1_556 S
C488 C486 1.415 . S
C488 C493 1.424 1_556 S
C488 C495 1.409 . S
C489 H481 0.930 . S
C489 C487 1.419 1_554 S
C489 C490 1.362 . S
C490 H482 0.930 . S
C490 C489 1.362 . S
C490 C493 1.409 . S
C491 H483 0.930 . S
C491 C492 1.355 . S
C491 C493 1.415 . S
C492 C491 1.355 . S
C492 C494 1.419 . S
C493 C488 1.424 1_554 S
C493 C490 1.409 . S
C493 C491 1.415 . S
C494 H484 0.930 . S
C494 C492 1.419 . S
C494 C495 1.362 1_554 S
C495 H485 0.930 . S
C495 C488 1.409 . S
C495 C494 1.362 1_556 S
H496 C502 0.930 . S
H497 C505 0.930 . S
H498 C506 0.930 . S
H499 C507 0.930 . S
H500 C510 0.930 . S
H501 C511 0.930 . S
C502 H496 0.930 . S
C502 C503 1.355 . S
C502 C504 1.415 . S
C503 C502 1.355 . S
C503 C505 1.419 . S
C504 C502 1.415 . S
C504 C509 1.425 . S
C504 C511 1.409 . S
C505 H497 0.930 . S
C505 C503 1.419 . S
C505 C506 1.362 . S
C506 H498 0.930 . S
C506 C505 1.362 . S
C506 C509 1.409 . S
C507 H499 0.930 . S
C507 C508 1.355 . S
C507 C509 1.415 . S
C508 C507 1.355 . S
C508 C510 1.419 . S
C509 C504 1.425 . S
C509 C506 1.409 . S
C509 C507 1.415 . S
C510 H500 0.930 . S
C510 C508 1.419 . S
C510 C511 1.362 . S
C511 H501 0.930 . S
C511 C504 1.409 . S
C511 C510 1.362 . S
H512 C518 0.930 . S
H513 C521 0.930 . S
H514 C522 0.930 . S
H515 C523 0.930 . S
H516 C526 0.930 . S
H517 C527 0.930 . S
C518 H512 0.930 . S
C518 C519 1.355 . S
C518 C520 1.415 . S
C519 C518 1.355 . S
C519 C521 1.419 . S
C520 C518 1.415 . S
C520 C525 1.425 . S
C520 C527 1.409 . S
C521 H513 0.930 . S
C521 C519 1.419 . S
C521 C522 1.362 . S
C522 H514 0.930 . S
C522 C521 1.362 . S
C522 C525 1.409 . S
C523 H515 0.930 . S
C523 C524 1.355 . S
C523 C525 1.415 . S
C524 C523 1.355 . S
C524 C526 1.419 . S
C525 C520 1.425 . S
C525 C522 1.409 . S
C525 C523 1.415 . S
C526 H516 0.930 . S
C526 C524 1.419 . S
C526 C527 1.362 . S
C527 H517 0.930 . S
C527 C520 1.409 . S
C527 C526 1.362 . S
H528 C534 0.930 . S
H529 C537 0.930 . S
H530 C538 0.930 . S
H531 C539 0.930 . S
H532 C542 0.930 . S
H533 C543 0.930 . S
C534 H528 0.930 . S
C534 C535 1.355 . S
C534 C536 1.415 . S
C535 C534 1.355 . S
C535 C537 1.419 . S
C536 C534 1.415 . S
C536 C541 1.425 . S
C536 C543 1.409 . S
C537 H529 0.930 . S
C537 C535 1.419 . S
C537 C538 1.362 . S
C538 H530 0.930 . S
C538 C537 1.362 . S
C538 C541 1.409 . S
C539 H531 0.930 . S
C539 C540 1.355 . S
C539 C541 1.415 . S
C540 C539 1.355 . S
C540 C542 1.419 . S
C541 C536 1.425 . S
C541 C538 1.409 . S
C541 C539 1.415 . S
C542 H532 0.930 . S
C542 C540 1.419 . S
C542 C543 1.362 . S
C543 H533 0.930 . S
C543 C536 1.409 . S
C543 C542 1.362 . S
H544 C550 0.930 . S
H545 C553 0.930 . S
H546 C554 0.930 . S
H547 C555 0.930 . S
H548 C558 0.930 . S
H549 C559 0.930 . S
C550 H544 0.930 . S
C550 C551 1.355 . S
C550 C552 1.415 . S
C551 C550 1.355 . S
C551 C553 1.419 . S
C552 C550 1.415 . S
C552 C557 1.425 . S
C552 C559 1.409 . S
C553 H545 0.930 . S
C553 C551 1.419 . S
C553 C554 1.362 . S
C554 H546 0.930 . S
C554 C553 1.362 . S
C554 C557 1.409 . S
C555 H547 0.930 . S
C555 C556 1.355 . S
C555 C557 1.415 . S
C556 C555 1.355 . S
C556 C558 1.419 . S
C557 C552 1.425 . S
C557 C554 1.409 . S
C557 C555 1.415 . S
C558 H548 0.930 . S
C558 C556 1.419 . S
C558 C559 1.362 . S
C559 H549 0.930 . S
C559 C552 1.409 . S
C559 C558 1.362 . S
H560 C566 0.930 . S
H561 C569 0.930 . S
H562 C570 0.930 . S
H563 C571 0.930 . S
H564 C574 0.930 . S
H565 C575 0.930 . S
C566 H560 0.930 . S
C566 C567 1.355 . S
C566 C568 1.415 . S
C567 C566 1.355 . S
C567 C569 1.419 . S
C568 C566 1.415 . S
C568 C573 1.425 . S
C568 C575 1.409 . S
C569 H561 0.930 . S
C569 C567 1.419 . S
C569 C570 1.362 . S
C570 H562 0.930 . S
C570 C569 1.362 . S
C570 C573 1.409 . S
C571 H563 0.930 . S
C571 C572 1.355 . S
C571 C573 1.415 . S
C572 C571 1.355 . S
C572 C574 1.419 . S
C573 C568 1.425 . S
C573 C570 1.409 . S
C573 C571 1.415 . S
C574 H564 0.930 . S
C574 C572 1.419 . S
C574 C575 1.362 . S
C575 H565 0.930 . S
C575 C568 1.409 . S
C575 C574 1.362 . S
H576 C582 0.930 . S
H577 C585 0.930 . S
H578 C586 0.930 . S
H579 C587 0.930 . S
H580 C590 0.930 . S
H581 C591 0.930 . S
C582 H576 0.930 . S
C582 C583 1.355 . S
C582 C584 1.415 . S
C583 C582 1.355 . S
C583 C585 1.419 . S
C584 C582 1.415 . S
C584 C589 1.425 . S
C584 C591 1.409 . S
C585 H577 0.930 . S
C585 C583 1.419 . S
C585 C586 1.362 . S
C586 H578 0.930 . S
C586 C585 1.362 . S
C586 C589 1.409 . S
C587 H579 0.930 . S
C587 C588 1.355 . S
C587 C589 1.415 . S
C588 C587 1.355 . S
C588 C590 1.419 . S
C589 C584 1.425 . S
C589 C586 1.409 . S
C589 C587 1.415 . S
C590 H580 0.930 . S
C590 C588 1.419 . S
C590 C591 1.362 . S
C591 H581 0.930 . S
C591 C584 1.409 . S
C591 C590 1.362 . S
C279 C5 0.755 1_556 S
C284 C141 0.755 1_554 S
C295 C175 0.757 1_554 S
C300 C39 0.757 1_556 S
C311 C209 0.791 . S
C316 C73 0.791 . S
C327 C107 0.729 . S
C332 C243 0.729 . S
C343 C36 1.959 . S
C348 C2 1.934 . S
C359 C70 1.969 . S
C364 C104 1.919 . S
C375 C138 1.914 . S
C380 C172 1.970 . S
C391 C240 1.932 . S
C396 C206 1.960 . S
C407 C33 1.565 . S
C412 C190 1.419 . S
C423 C156 1.428 . S
C428 C67 1.562 . S
C439 C258 1.491 . S
C444 C101 1.543 . S
C455 C224 1.456 . S
C460 C135 1.554 . S
C471 C54 1.424 . S
C476 C169 1.564 . S
C487 C203 1.548 . S
C492 C20 1.473 . S
C503 C237 1.543 . S
C508 C122 1.491 . S
C519 C88 1.508 . S
C524 C271 1.537 . S
C535 C77 1.343 . S
C540 C9 1.365 . S
C551 C43 1.339 . S
C556 C111 1.351 . S
C567 C213 1.354 . S
C572 C145 1.380 . S
C583 C247 1.344 . S
C588 C179 1.367 . S
