# Generated by pormake.
# Topology tfs, (6)-cn, num edge types: 1
# Building blocks:
#     Node 0, Type 0, BuildingBlock: BETDEL_clean_sbu_0, # of connection points: 6
#     Node 1, Type 0, BuildingBlock: BETDEL_clean_sbu_0, # of connection points: 6
#     Node 2, Type 0, BuildingBlock: BETDEL_clean_sbu_0, # of connection points: 6
#     Node 3, Type 0, BuildingBlock: BETDEL_clean_sbu_0, # of connection points: 6
#     Node 4, Type 0, BuildingBlock: BETDEL_clean_sbu_0, # of connection points: 6
#     Node 5, Type 0, BuildingBlock: BETDEL_clean_sbu_0, # of connection points: 6
#     Edge 6, Type (0, 0), BuildingBlock: EZIPEK_clean_linker_0, # of connection points: 2
#     Edge 7, Type (0, 0), BuildingBlock: EZIPEK_clean_linker_0, # of connection points: 2
#     Edge 8, Type (0, 0), BuildingBlock: EZIPEK_clean_linker_0, # of connection points: 2
#     Edge 9, Type (0, 0), BuildingBlock: EZIPEK_clean_linker_0, # of connection points: 2
#     Edge 10, Type (0, 0), BuildingBlock: EZIPEK_clean_linker_0, # of connection points: 2
#     Edge 11, Type (0, 0), BuildingBlock: EZIPEK_clean_linker_0, # of connection points: 2
#     Edge 12, Type (0, 0), BuildingBlock: EZIPEK_clean_linker_0, # of connection points: 2
#     Edge 13, Type (0, 0), BuildingBlock: EZIPEK_clean_linker_0, # of connection points: 2
#     Edge 14, Type (0, 0), BuildingBlock: EZIPEK_clean_linker_0, # of connection points: 2
#     Edge 15, Type (0, 0), BuildingBlock: EZIPEK_clean_linker_0, # of connection points: 2
#     Edge 16, Type (0, 0), BuildingBlock: EZIPEK_clean_linker_0, # of connection points: 2
#     Edge 17, Type (0, 0), BuildingBlock: EZIPEK_clean_linker_0, # of connection points: 2
#     Edge 18, Type (0, 0), BuildingBlock: EZIPEK_clean_linker_0, # of connection points: 2
#     Edge 19, Type (0, 0), BuildingBlock: EZIPEK_clean_linker_0, # of connection points: 2
#     Edge 20, Type (0, 0), BuildingBlock: EZIPEK_clean_linker_0, # of connection points: 2
#     Edge 21, Type (0, 0), BuildingBlock: EZIPEK_clean_linker_0, # of connection points: 2
#     Edge 22, Type (0, 0), BuildingBlock: EZIPEK_clean_linker_0, # of connection points: 2
#     Edge 23, Type (0, 0), BuildingBlock: EZIPEK_clean_linker_0, # of connection points: 2
# Relax obj value: 0.453
# Max RMSD: 0.293
# Mean RMSD: 0.258
data_MOF--net-tfs--node1-BETDEL_clean_sbu_0--edge1-EZIPEK_clean_linker_0
_symmetry_space_group_name_H-M    P1
_symmetry_Int_Tables_number       1
_symmetry_cell_setting            triclinic
loop_
_symmetry_equiv_pos_as_xyz
'x, y, z'
_cell_length_a     34.233943
_cell_length_b     33.712726
_cell_length_c     10.572077
_cell_angle_alpha  90.909015
_cell_angle_beta   90.932805
_cell_angle_gamma 122.76821
loop_
_atom_site_label
_atom_site_type_symbol
_atom_site_fract_x
_atom_site_fract_y
_atom_site_fract_z
_atom_type_partial_charge
Dy0 Dy 0.17185 0.46755 0.20459 0.0
C1 C 0.20411 0.31967 0.17613 0.0
C2 C 0.1652 0.5443 0.22735 0.0
Dy3 Dy 0.18954 0.39076 0.20247 0.0
O4 O 0.19107 0.53953 0.14902 0.0
O5 O 0.14312 0.50729 0.29662 0.0
O6 O 0.14768 0.45235 0.00275 0.0
O7 O 0.20019 0.44215 0.06167 0.0
C8 C 0.17354 0.43703 0.97015 0.0
C9 C 0.19122 0.42441 0.43559 0.0
O10 O 0.26187 0.45104 0.18994 0.0
O11 O 0.24682 0.50617 0.26458 0.0
O12 O 0.22532 0.35845 0.11449 0.0
O13 O 0.17321 0.31852 0.24829 0.0
O14 O 0.2173 0.40968 0.40063 0.0
O15 O 0.16258 0.41715 0.3474 0.0
O16 O 0.09918 0.40552 0.20342 0.0
O17 O 0.11783 0.35501 0.11756 0.0
C18 C 0.27589 0.49359 0.23359 0.0
C19 C 0.0875 0.36697 0.13768 0.0
Dy20 Dy 0.72355 0.16972 0.91111 0.0
C21 C 0.92087 0.26479 0.85223 0.0
C22 C 0.63245 0.12436 0.96498 0.0
Dy23 Dy 0.83027 0.225 0.9113 0.0
O24 O 0.65121 0.15031 0.86699 0.0
O25 O 0.66416 0.12517 0.03582 0.0
O26 O 0.71944 0.14033 0.71671 0.0
O27 O 0.77625 0.20757 0.76686 0.0
C28 C 0.7595 0.17518 0.68212 0.0
C29 C 0.80276 0.21011 0.15294 0.0
O30 O 0.82142 0.28601 0.91421 0.0
O31 O 0.74185 0.24359 0.95173 0.0
O32 O 0.89895 0.28648 0.85469 0.0
O33 O 0.89203 0.22087 0.87727 0.0
O34 O 0.84601 0.23231 0.12259 0.0
O35 O 0.77826 0.19778 0.05291 0.0
O36 O 0.73516 0.11258 0.94949 0.0
O37 O 0.80992 0.15031 0.87545 0.0
C38 C 0.78285 0.28393 0.94366 0.0
C39 C 0.77136 0.11208 0.9116 0.0
Dy40 Dy 0.52737 0.74125 0.16088 0.0
C41 C 0.68126 0.93037 0.05149 0.0
C42 C 0.45919 0.65558 0.2343 0.0
Dy43 Dy 0.61271 0.84878 0.14862 0.0
O44 O 0.49499 0.66359 0.17192 0.0
O45 O 0.46107 0.69445 0.2586 0.0
O46 O 0.51518 0.72739 0.94613 0.0
O47 O 0.56578 0.79228 0.01969 0.0
C48 C 0.54796 0.76976 0.91715 0.0
C49 C 0.5949 0.82263 0.39218 0.0
O50 O 0.55068 0.85699 0.15453 0.0
O51 O 0.49014 0.77855 0.18358 0.0
O52 O 0.68797 0.90209 0.11638 0.0
O53 O 0.6371 0.91403 0.03992 0.0
O54 O 0.62761 0.86477 0.35982 0.0
O55 O 0.57507 0.79827 0.2923 0.0
O56 O 0.58816 0.73565 0.20082 0.0
O57 O 0.64168 0.80375 0.09865 0.0
C58 C 0.50593 0.82404 0.17373 0.0
C59 C 0.62798 0.76145 0.14317 0.0
Dy60 Dy 0.7792 0.53081 0.08769 0.0
C61 C 0.72448 0.66373 0.08662 0.0
C62 C 0.78921 0.45565 0.06618 0.0
Dy63 Dy 0.74873 0.59805 0.10248 0.0
O64 O 0.78593 0.47841 0.97402 0.0
O65 O 0.7884 0.47473 0.17354 0.0
O66 O 0.80875 0.55965 0.90149 0.0
O67 O 0.74617 0.55285 0.94917 0.0
C68 C 0.77651 0.56627 0.86552 0.0
C69 C 0.75084 0.56341 0.3267 0.0
O70 O 0.67832 0.5302 0.06802 0.0
O71 O 0.70292 0.48112 0.12457 0.0
O72 O 0.73047 0.64729 0.18977 0.0
O73 O 0.73349 0.64554 0.99067 0.0
O74 O 0.7197 0.57173 0.2907 0.0
O75 O 0.78102 0.57586 0.24283 0.0
O76 O 0.84995 0.59493 0.13198 0.0
O77 O 0.82793 0.64751 0.0859 0.0
C78 C 0.66909 0.4879 0.0985 0.0
C79 C 0.86076 0.63836 0.10991 0.0
Dy80 Dy 0.25909 0.83051 0.17339 0.0
C81 C 0.06283 0.77017 0.13202 0.0
C82 C 0.34571 0.84215 0.19267 0.0
Dy83 Dy 0.15615 0.79954 0.1682 0.0
O84 O 0.31811 0.82682 0.09367 0.0
O85 O 0.32625 0.85188 0.2826 0.0
O86 O 0.26576 0.85851 0.9803 0.0
O87 O 0.20215 0.79839 0.02811 0.0
C88 C 0.22323 0.82811 0.94276 0.0
C89 C 0.19143 0.80206 0.40062 0.0
O90 O 0.14782 0.72914 0.14874 0.0
O91 O 0.22262 0.75394 0.2174 0.0
O92 O 0.08939 0.79205 0.23119 0.0
O93 O 0.0885 0.76568 0.05057 0.0
O94 O 0.14874 0.77263 0.36315 0.0
O95 O 0.2128 0.83126 0.31448 0.0
O96 O 0.26941 0.90123 0.20244 0.0
O97 O 0.19442 0.87875 0.1362 0.0
C98 C 0.17913 0.72029 0.18855 0.0
C99 C 0.2388 0.9117 0.16621 0.0
Dy100 Dy 0.45056 0.19784 0.12807 0.0
C101 C 0.3159 0.24361 0.1685 0.0
C102 C 0.4988 0.15642 0.09339 0.0
Dy103 Dy 0.3819 0.22325 0.12701 0.0
O104 O 0.47196 0.14874 0.18674 0.0
O105 O 0.49963 0.18695 0.01842 0.0
O106 O 0.47615 0.23021 0.32218 0.0
O107 O 0.4052 0.19589 0.27483 0.0
C108 C 0.4358 0.21949 0.36039 0.0
C109 C 0.39572 0.19986 0.89455 0.0
O110 O 0.44943 0.29658 0.14391 0.0
O111 O 0.50141 0.27447 0.1 0.0
O112 O 0.33015 0.23991 0.05884 0.0
O113 O 0.34141 0.24097 0.25564 0.0
O114 O 0.35565 0.18911 0.93452 0.0
O115 O 0.42659 0.22433 0.97873 0.0
O116 O 0.38517 0.12717 0.0863 0.0
O117 O 0.33544 0.14599 0.16852 0.0
C118 C 0.49239 0.30747 0.12066 0.0
C119 C 0.34404 0.11416 0.12887 0.0
C120 C 0.24487 0.23949 0.08415 0.0
C121 C 0.27627 0.24954 0.18729 0.0
C122 C 0.24749 0.29216 0.2994 0.0
C123 C 0.22214 0.28898 0.18764 0.0
N124 N 0.19467 0.25886 0.975 0.0
N125 N 0.28721 0.26193 0.41429 0.0
C126 C 0.21969 0.26181 0.0809 0.0
C127 C 0.27151 0.26863 0.30205 0.0
N128 N 0.23663 0.20588 0.99476 0.0
N129 N 0.2515 0.32034 0.39987 0.0
H130 H 0.29937 0.23971 0.4227 0.0
H131 H 0.28143 0.27213 0.50187 0.0
H132 H 0.23408 0.33779 0.40407 0.0
H133 H 0.27487 0.32928 0.47576 0.0
H134 H 0.21173 0.19433 0.92178 0.0
H135 H 0.25034 0.18491 0.00349 0.0
H136 H 0.19639 0.24495 0.88819 0.0
H137 H 0.17361 0.27248 0.97253 0.0
C138 C 0.02087 0.2909 0.05057 0.0
C139 C 0.04326 0.34075 0.06276 0.0
C140 C 0.99683 0.33908 0.88105 0.0
C141 C 0.97117 0.28964 0.88134 0.0
N142 N 0.97255 0.22051 0.91853 0.0
N143 N 0.04627 0.41181 0.9986 0.0
C144 C 0.98765 0.26607 0.95108 0.0
C145 C 0.02999 0.36504 0.97996 0.0
N146 N 0.02929 0.26709 0.13915 0.0
N147 N 0.98955 0.36079 0.78394 0.0
H148 H 0.06786 0.43294 0.07339 0.0
H149 H 0.03386 0.42907 0.9473 0.0
H150 H 0.96596 0.34129 0.70949 0.0
H151 H 0.01023 0.39692 0.76934 0.0
H152 H 0.01093 0.23042 0.14165 0.0
H153 H 0.05117 0.2839 0.2184 0.0
H154 H 0.98578 0.20211 0.95953 0.0
H155 H 0.95093 0.20346 0.8389 0.0
C156 C 0.73088 0.02976 0.8289 0.0
C157 C 0.7665 0.06599 0.90755 0.0
C158 C 0.75778 0.00933 0.06185 0.0
C159 C 0.71759 0.97387 0.99208 0.0
N160 N 0.67823 0.94556 0.78841 0.0
N161 N 0.8282 0.0877 0.0585 0.0
C162 C 0.70837 0.98251 0.86783 0.0
C163 C 0.78508 0.05473 0.01014 0.0
N164 N 0.71751 0.04118 0.72047 0.0
N165 N 0.76782 0.00136 0.18067 0.0
H166 H 0.84842 0.12085 0.01894 0.0
H167 H 0.8453 0.08054 0.12802 0.0
H168 H 0.74906 0.96885 0.22336 0.0
H169 H 0.79343 0.02807 0.24025 0.0
H170 H 0.68797 0.01746 0.6661 0.0
H171 H 0.73637 0.07535 0.68671 0.0
H172 H 0.67214 0.94931 0.69389 0.0
H173 H 0.66271 0.91048 0.81427 0.0
C174 C 0.65927 0.6742 0.02277 0.0
C175 C 0.70356 0.6929 0.0826 0.0
C176 C 0.70159 0.76079 0.1657 0.0
C177 C 0.6553 0.73949 0.11688 0.0
N178 N 0.58825 0.67337 0.00743 0.0
N179 N 0.76725 0.75339 0.21233 0.0
C180 C 0.63381 0.69566 0.04722 0.0
C181 C 0.7249 0.73624 0.15376 0.0
N182 N 0.64112 0.63568 0.94221 0.0
N183 N 0.72308 0.80424 0.22513 0.0
H184 H 0.78685 0.73857 0.1976 0.0
H185 H 0.7825 0.78119 0.27878 0.0
H186 H 0.70618 0.82159 0.24471 0.0
H187 H 0.75829 0.82441 0.25015 0.0
H188 H 0.61246 0.62456 0.88187 0.0
H189 H 0.6563 0.61641 0.92756 0.0
H190 H 0.56846 0.63832 0.97531 0.0
H191 H 0.56886 0.68871 0.01207 0.0
C192 C 0.98308 0.73708 0.23223 0.0
C193 C 0.01002 0.74556 0.12241 0.0
C194 C 0.93704 0.69132 0.99932 0.0
C195 C 0.91146 0.67786 0.11261 0.0
N196 N 0.91083 0.68544 0.3391 0.0
N197 N 0.00915 0.74569 0.89486 0.0
C198 C 0.93471 0.70028 0.22945 0.0
C199 C 0.98595 0.72675 0.00378 0.0
N200 N 1.00242 0.76655 0.33633 0.0
N201 N 0.91484 0.66888 0.88755 0.0
H202 H 0.04313 0.77506 0.89521 0.0
H203 H 0.9935 0.73673 0.80492 0.0
H204 H 0.87909 0.64478 0.87973 0.0
H205 H 0.93184 0.67195 0.80408 0.0
H206 H 0.98376 0.7643 0.41564 0.0
H207 H 0.0349 0.7979 0.33633 0.0
H208 H 0.9268 0.69565 0.42875 0.0
H209 H 0.87528 0.66003 0.34072 0.0
C210 C 0.27052 0.99157 0.2687 0.0
C211 C 0.25634 0.96285 0.15659 0.0
C212 C 0.28861 0.03392 0.02894 0.0
C213 C 0.30872 0.06266 0.14022 0.0
N214 N 0.32062 0.06947 0.36702 0.0
N215 N 0.25322 0.95619 0.92879 0.0
C216 C 0.29958 0.04169 0.2607 0.0
C217 C 0.26514 0.98387 0.03624 0.0
N218 N 0.25566 0.9707 0.38284 0.0
N219 N 0.29145 0.05465 0.91648 0.0
H220 H 0.23488 0.91953 0.93025 0.0
H221 H 0.26372 0.96945 0.83887 0.0
H222 H 0.30788 0.09109 0.90901 0.0
H223 H 0.27408 0.03589 0.8334 0.0
H224 H 0.26088 0.98935 0.46749 0.0
H225 H 0.23431 0.93417 0.39119 0.0
H226 H 0.3203 0.05627 0.45558 0.0
H227 H 0.34091 0.10621 0.36566 0.0
C228 C 0.15567 0.64163 0.09296 0.0
C229 C 0.16585 0.67097 0.20202 0.0
C230 C 0.16893 0.6135 0.33407 0.0
C231 C 0.15876 0.58422 0.22494 0.0
N232 N 0.12886 0.56327 0.00972 0.0
N233 N 0.16983 0.6798 0.4294 0.0
C234 C 0.14775 0.59606 0.10717 0.0
C235 C 0.16849 0.65521 0.32374 0.0
N236 N 0.15615 0.65817 0.97534 0.0
N237 N 0.18152 0.60299 0.44572 0.0
H238 H 0.16853 0.70987 0.42458 0.0
H239 H 0.16752 0.66798 0.52104 0.0
H240 H 0.18133 0.57229 0.45769 0.0
H241 H 0.19504 0.62606 0.52416 0.0
H242 H 0.15458 0.6405 0.89182 0.0
H243 H 0.16155 0.69129 0.96071 0.0
H244 H 0.11616 0.56829 0.92535 0.0
H245 H 0.12135 0.52904 0.01838 0.0
C246 C 0.55018 0.12887 0.16582 0.0
C247 C 0.52223 0.13147 0.06971 0.0
C248 C 0.55241 0.10262 0.91079 0.0
C249 C 0.58484 0.10716 0.00348 0.0
N250 N 0.596 0.0964 0.22247 0.0
N251 N 0.48286 0.10297 0.86593 0.0
C252 C 0.57723 0.11044 0.13274 0.0
C253 C 0.51864 0.11226 0.94657 0.0
N254 N 0.55393 0.14712 0.28501 0.0
N255 N 0.55529 0.09063 0.78894 0.0
H256 H 0.45653 0.10777 0.89332 0.0
H257 H 0.47676 0.08651 0.77721 0.0
H258 H 0.57761 0.07971 0.76492 0.0
H259 H 0.53638 0.09194 0.71286 0.0
H260 H 0.57804 0.15055 0.35298 0.0
H261 H 0.53579 0.16227 0.31374 0.0
H262 H 0.58922 0.09568 0.31844 0.0
H263 H 0.61289 0.07939 0.19821 0.0
C264 C 0.39095 0.58972 0.11767 0.0
C265 C 0.41564 0.60962 0.23444 0.0
C266 C 0.34949 0.55031 0.35203 0.0
C267 C 0.32536 0.52993 0.23502 0.0
N268 N 0.32513 0.52366 0.00645 0.0
N269 N 0.42321 0.60589 0.45988 0.0
C270 C 0.34698 0.54715 0.11788 0.0
C271 C 0.39637 0.58889 0.35107 0.0
N272 N 0.40763 0.6134 0.00755 0.0
N273 N 0.32719 0.53331 0.46326 0.0
H274 H 0.45778 0.63427 0.46109 0.0
H275 H 0.41267 0.58991 0.5469 0.0
H276 H 0.29366 0.50334 0.4672 0.0
H277 H 0.34092 0.54988 0.55123 0.0
H278 H 0.38819 0.60372 0.92302 0.0
H279 H 0.43941 0.64529 0.00159 0.0
H280 H 0.34189 0.53122 0.92054 0.0
H281 H 0.29121 0.49434 0.99976 0.0
C282 C 0.75107 0.37575 0.96161 0.0
C283 C 0.78609 0.41027 0.04651 0.0
C284 C 0.81669 0.35976 0.07403 0.0
C285 C 0.78559 0.32852 0.97595 0.0
N286 N 0.72935 0.31225 0.8095 0.0
N287 N 0.85623 0.43825 0.17155 0.0
C288 C 0.75445 0.33803 0.91508 0.0
C289 C 0.81994 0.4031 0.10002 0.0
N290 N 0.71341 0.37787 0.92915 0.0
N291 N 0.84169 0.34732 0.14622 0.0
H292 H 0.85958 0.47023 0.19355 0.0
H293 H 0.88485 0.43716 0.20062 0.0
H294 H 0.84013 0.31583 0.13236 0.0
H295 H 0.86073 0.3662 0.22758 0.0
H296 H 0.68478 0.35121 0.87701 0.0
H297 H 0.70823 0.40346 0.96648 0.0
H298 H 0.70969 0.32086 0.75394 0.0
H299 H 0.73202 0.28534 0.76965 0.0
C300 C 0.39728 0.81731 0.29066 0.0
C301 C 0.3908 0.84436 0.20115 0.0
C302 C 0.46343 0.8636 0.09905 0.0
C303 C 0.47043 0.8372 0.19045 0.0
N304 N 0.45011 0.80021 0.39335 0.0
N305 N 0.42318 0.90214 0.03913 0.0
C306 C 0.43923 0.81771 0.29252 0.0
C307 C 0.42564 0.87022 0.11123 0.0
N308 N 0.36214 0.78866 0.36918 0.0
N309 N 0.49118 0.88039 0.99667 0.0
H310 H 0.39643 0.90816 0.04644 0.0
H311 H 0.44975 0.92584 0.98144 0.0
H312 H 0.51999 0.87806 0.9852 0.0
H313 H 0.48395 0.89404 0.91852 0.0
H314 H 0.36246 0.76371 0.42527 0.0
H315 H 0.33073 0.7867 0.37047 0.0
H316 H 0.43172 0.79053 0.47675 0.0
H317 H 0.48028 0.79978 0.39909 0.0
C318 C 0.60074 0.42718 0.22396 0.0
C319 C 0.61972 0.44619 0.10455 0.0
C320 C 0.549 0.37951 0.99844 0.0
C321 C 0.53263 0.35798 0.11703 0.0
N322 N 0.54334 0.35996 0.34293 0.0
N323 N 0.61292 0.44006 0.87716 0.0
C324 C 0.55843 0.38176 0.22999 0.0
C325 C 0.59375 0.42252 0.99149 0.0
N326 N 0.62289 0.45316 0.33195 0.0
N327 N 0.52138 0.3587 0.89233 0.0
H328 H 0.64455 0.47209 0.86864 0.0
H329 H 0.59893 0.42207 0.79091 0.0
H330 H 0.48912 0.32702 0.89466 0.0
H331 H 0.52851 0.37414 0.80427 0.0
H332 H 0.60921 0.44401 0.42172 0.0
H333 H 0.6536 0.48629 0.33071 0.0
H334 H 0.56298 0.37203 0.4271 0.0
H335 H 0.51161 0.32802 0.35148 0.0
C336 C 0.20025 0.47597 0.76328 0.0
C337 C 0.18365 0.43511 0.83598 0.0
C338 C 0.16703 0.38655 0.64412 0.0
C339 C 0.18315 0.42723 0.57095 0.0
N340 N 0.20913 0.50898 0.55528 0.0
N341 N 0.16273 0.35486 0.8511 0.0
C342 C 0.19816 0.47158 0.62901 0.0
C343 C 0.17033 0.39129 0.778 0.0
N344 N 0.22005 0.51912 0.82376 0.0
N345 N 0.14658 0.34311 0.58501 0.0
H346 H 0.16756 0.35848 0.94892 0.0
H347 H 0.15685 0.32311 0.81512 0.0
H348 H 0.14214 0.33824 0.4869 0.0
H349 H 0.12994 0.31147 0.63248 0.0
H350 H 0.23604 0.55112 0.77825 0.0
H351 H 0.22426 0.52345 0.922 0.0
H352 H 0.21789 0.54189 0.59007 0.0
H353 H 0.20591 0.50596 0.45703 0.0
C354 C 0.75148 0.20597 0.47489 0.0
C355 C 0.76994 0.18404 0.54604 0.0
C356 C 0.79984 0.17038 0.35222 0.0
C357 C 0.78649 0.19722 0.28408 0.0
N358 N 0.75337 0.24466 0.28187 0.0
N359 N 0.81642 0.15012 0.55523 0.0
C360 C 0.76294 0.21583 0.34542 0.0
C361 C 0.79533 0.16746 0.4854 0.0
N362 N 0.72223 0.21655 0.53026 0.0
N363 N 0.81538 0.14618 0.28848 0.0
H364 H 0.81332 0.14669 0.65238 0.0
H365 H 0.84 0.14281 0.5187 0.0
H366 H 0.81837 0.1471 0.19058 0.0
H367 H 0.82075 0.12166 0.33015 0.0
H368 H 0.70335 0.22736 0.47988 0.0
H369 H 0.71401 0.21124 0.6256 0.0
H370 H 0.74172 0.26422 0.32509 0.0
H371 H 0.76018 0.25155 0.18669 0.0
C372 C 0.54617 0.81162 0.7229 0.0
C373 C 0.56262 0.78628 0.78548 0.0
C374 C 0.59593 0.78048 0.58611 0.0
C375 C 0.58199 0.8084 0.52586 0.0
N376 N 0.5532 0.85959 0.54557 0.0
N377 N 0.61114 0.75491 0.78361 0.0
C378 C 0.56005 0.82681 0.59703 0.0
C379 C 0.5896 0.77287 0.71871 0.0
N380 N 0.51563 0.81949 0.78164 0.0
N381 N 0.61587 0.76175 0.51705 0.0
H382 H 0.60887 0.75125 0.88101 0.0
H383 H 0.63485 0.74835 0.74431 0.0
H384 H 0.62444 0.76962 0.42274 0.0
H385 H 0.62158 0.73641 0.5509 0.0
H386 H 0.49834 0.8331 0.73599 0.0
H387 H 0.50456 0.80864 0.87321 0.0
H388 H 0.54241 0.87828 0.59776 0.0
H389 H 0.56109 0.87035 0.45245 0.0
C390 C 0.78577 0.60892 0.66671 0.0
C391 C 0.76649 0.56561 0.72921 0.0
C392 C 0.74489 0.52213 0.52539 0.0
C393 C 0.76133 0.56499 0.46311 0.0
N394 N 0.7945 0.64904 0.47074 0.0
N395 N 0.7222 0.48043 0.72233 0.0
C396 C 0.78112 0.60844 0.53276 0.0
C397 C 0.74437 0.52198 0.65971 0.0
N398 N 0.80932 0.6505 0.73562 0.0
N399 N 0.73087 0.48183 0.45574 0.0
H400 H 0.72138 0.47885 0.82068 0.0
H401 H 0.70131 0.44744 0.67764 0.0
H402 H 0.7313 0.48112 0.35719 0.0
H403 H 0.72265 0.45015 0.49478 0.0
H404 H 0.8294 0.68349 0.69587 0.0
H405 H 0.81055 0.65195 0.83432 0.0
H406 H 0.80365 0.68068 0.51602 0.0
H407 H 0.79471 0.65082 0.37235 0.0
C408 C 0.23215 0.80055 0.59864 0.0
C409 C 0.20298 0.81275 0.53816 0.0
C410 C 0.18227 0.82954 0.74525 0.0
C411 C 0.21163 0.81754 0.8054 0.0
N412 N 0.25661 0.78216 0.79407 0.0
N413 N 0.15683 0.84688 0.54966 0.0
C414 C 0.23456 0.80057 0.73324 0.0
C415 C 0.17963 0.82928 0.61048 0.0
N416 N 0.25866 0.7904 0.52702 0.0
N417 N 0.1557 0.83951 0.81742 0.0
H418 H 0.15551 0.84861 0.45138 0.0
H419 H 0.14269 0.86361 0.59549 0.0
H420 H 0.15664 0.8393 0.91595 0.0
H421 H 0.13006 0.84412 0.78097 0.0
H422 H 0.28414 0.78562 0.56391 0.0
H423 H 0.25795 0.7908 0.42869 0.0
H424 H 0.27023 0.76493 0.74822 0.0
H425 H 0.25747 0.78003 0.89226 0.0
C426 C 0.40987 0.2434 0.69228 0.0
C427 C 0.40556 0.20468 0.75751 0.0
C428 C 0.4219 0.17625 0.56286 0.0
C429 C 0.42477 0.21409 0.49661 0.0
N430 N 0.41598 0.28019 0.49127 0.0
N431 N 0.39964 0.1302 0.7526 0.0
C432 C 0.41711 0.24666 0.55942 0.0
C433 C 0.4095 0.17003 0.69216 0.0
N434 N 0.40793 0.27755 0.75806 0.0
N435 N 0.43158 0.14649 0.50248 0.0
H436 H 0.39159 0.12502 0.84786 0.0
H437 H 0.39608 0.10078 0.70705 0.0
H438 H 0.43727 0.1474 0.40585 0.0
H439 H 0.43633 0.12233 0.54883 0.0
H440 H 0.41596 0.30931 0.7201 0.0
H441 H 0.40123 0.27576 0.85434 0.0
H442 H 0.4053 0.30165 0.527 0.0
H443 H 0.42302 0.28471 0.39514 0.0
loop_
_geom_bond_atom_site_label_1
_geom_bond_atom_site_label_2
_geom_bond_distance
_geom_bond_site_symmetry_2
_ccdc_geom_bond_type
Dy0 O4 2.398 . S
Dy0 O5 2.491 . S
Dy0 O6 2.403 1_554 S
Dy0 O7 2.664 . S
Dy0 O11 2.326 . S
Dy0 O15 2.310 . S
Dy0 O16 2.351 . S
C1 O12 1.185 . S
C1 O13 1.355 . S
C2 O4 1.185 . S
C2 O5 1.355 . S
Dy3 O7 2.310 . S
Dy3 O10 2.351 . S
Dy3 O12 2.398 . S
Dy3 O13 2.491 . S
Dy3 O14 2.403 . S
Dy3 O15 2.664 . S
Dy3 O17 2.326 . S
O4 Dy0 2.398 . S
O4 C2 1.185 . S
O5 Dy0 2.491 . S
O5 C2 1.355 . S
O6 Dy0 2.403 1_556 S
O6 C8 1.254 . S
O7 Dy0 2.664 . S
O7 Dy3 2.310 . S
O7 C8 1.268 1_554 S
C8 O6 1.254 . S
C8 O7 1.268 1_556 S
C9 O14 1.254 . S
C9 O15 1.268 . S
O10 Dy3 2.351 . S
O10 C18 1.249 . S
O11 Dy0 2.326 . S
O11 C18 1.267 . S
O12 C1 1.185 . S
O12 Dy3 2.398 . S
O13 C1 1.355 . S
O13 Dy3 2.491 . S
O14 Dy3 2.403 . S
O14 C9 1.254 . S
O15 Dy0 2.310 . S
O15 Dy3 2.664 . S
O15 C9 1.268 . S
O16 Dy0 2.351 . S
O16 C19 1.249 . S
O17 Dy3 2.326 . S
O17 C19 1.267 . S
C18 O10 1.249 . S
C18 O11 1.267 . S
C19 O16 1.249 . S
C19 O17 1.267 . S
Dy20 O24 2.398 . S
Dy20 O25 2.491 1_556 S
Dy20 O26 2.403 . S
Dy20 O27 2.664 . S
Dy20 O31 2.326 . S
Dy20 O35 2.310 1_556 S
Dy20 O36 2.351 . S
C21 O32 1.185 . S
C21 O33 1.355 1_554 S
C22 O24 1.185 . S
C22 O25 1.355 1_556 S
Dy23 O27 2.310 1_554 S
Dy23 O30 2.351 . S
Dy23 O32 2.398 . S
Dy23 O33 2.491 1_554 S
Dy23 O34 2.403 . S
Dy23 O35 2.664 . S
Dy23 O37 2.326 . S
O24 Dy20 2.398 . S
O24 C22 1.185 . S
O25 Dy20 2.491 1_554 S
O25 C22 1.355 1_554 S
O26 Dy20 2.403 . S
O26 C28 1.254 . S
O27 Dy20 2.664 . S
O27 Dy23 2.310 1_556 S
O27 C28 1.268 . S
C28 O26 1.254 . S
C28 O27 1.268 . S
C29 O34 1.254 . S
C29 O35 1.268 . S
O30 Dy23 2.351 . S
O30 C38 1.249 1_554 S
O31 Dy20 2.326 . S
O31 C38 1.267 . S
O32 C21 1.185 . S
O32 Dy23 2.398 . S
O33 C21 1.355 1_556 S
O33 Dy23 2.491 1_556 S
O34 Dy23 2.403 . S
O34 C29 1.254 . S
O35 Dy20 2.310 1_554 S
O35 Dy23 2.664 . S
O35 C29 1.268 . S
O36 Dy20 2.351 . S
O36 C39 1.249 1_556 S
O37 Dy23 2.326 . S
O37 C39 1.267 . S
C38 O30 1.249 1_556 S
C38 O31 1.267 . S
C39 O36 1.249 1_554 S
C39 O37 1.267 . S
Dy40 O44 2.398 . S
Dy40 O45 2.491 . S
Dy40 O46 2.403 1_554 S
Dy40 O47 2.664 . S
Dy40 O51 2.326 . S
Dy40 O55 2.310 . S
Dy40 O56 2.351 . S
C41 O52 1.185 . S
C41 O53 1.355 . S
C42 O44 1.185 . S
C42 O45 1.355 . S
Dy43 O47 2.310 . S
Dy43 O50 2.351 . S
Dy43 O52 2.398 . S
Dy43 O53 2.491 . S
Dy43 O54 2.403 . S
Dy43 O55 2.664 . S
Dy43 O57 2.326 . S
O44 Dy40 2.398 . S
O44 C42 1.185 . S
O45 Dy40 2.491 . S
O45 C42 1.355 . S
O46 Dy40 2.403 1_556 S
O46 C48 1.254 . S
O47 Dy40 2.664 . S
O47 Dy43 2.310 . S
O47 C48 1.268 1_554 S
C48 O46 1.254 . S
C48 O47 1.268 1_556 S
C49 O54 1.254 . S
C49 O55 1.268 . S
O50 Dy43 2.351 . S
O50 C58 1.249 . S
O51 Dy40 2.326 . S
O51 C58 1.267 . S
O52 C41 1.185 . S
O52 Dy43 2.398 . S
O53 C41 1.355 . S
O53 Dy43 2.491 . S
O54 Dy43 2.403 . S
O54 C49 1.254 . S
O55 Dy40 2.310 . S
O55 Dy43 2.664 . S
O55 C49 1.268 . S
O56 Dy40 2.351 . S
O56 C59 1.249 . S
O57 Dy43 2.326 . S
O57 C59 1.267 . S
C58 O50 1.249 . S
C58 O51 1.267 . S
C59 O56 1.249 . S
C59 O57 1.267 . S
Dy60 O64 2.398 . S
Dy60 O65 2.491 1_556 S
Dy60 O66 2.403 . S
Dy60 O67 2.664 . S
Dy60 O71 2.326 . S
Dy60 O75 2.310 1_556 S
Dy60 O76 2.351 1_556 S
C61 O72 1.185 . S
C61 O73 1.355 1_554 S
C62 O64 1.183 1_554 S
C62 O65 1.357 . S
Dy63 O67 2.310 1_554 S
Dy63 O70 2.351 . S
Dy63 O72 2.398 . S
Dy63 O73 2.491 1_554 S
Dy63 O74 2.403 . S
Dy63 O75 2.664 . S
Dy63 O77 2.326 . S
O64 Dy60 2.398 . S
O64 C62 1.183 1_556 S
O65 Dy60 2.491 1_554 S
O65 C62 1.357 . S
O66 Dy60 2.403 . S
O66 C68 1.254 . S
O67 Dy60 2.664 . S
O67 Dy63 2.310 1_556 S
O67 C68 1.268 . S
C68 O66 1.254 . S
C68 O67 1.268 . S
C69 O74 1.254 . S
C69 O75 1.268 . S
O70 Dy63 2.351 . S
O70 C78 1.249 1_554 S
O71 Dy60 2.326 . S
O71 C78 1.267 . S
O72 C61 1.185 . S
O72 Dy63 2.398 . S
O73 C61 1.355 1_556 S
O73 Dy63 2.491 1_556 S
O74 Dy63 2.403 . S
O74 C69 1.254 . S
O75 Dy60 2.310 1_554 S
O75 Dy63 2.664 . S
O75 C69 1.268 . S
O76 Dy60 2.351 1_554 S
O76 C79 1.249 . S
O77 Dy63 2.326 . S
O77 C79 1.267 . S
C78 O70 1.249 1_556 S
C78 O71 1.267 . S
C79 O76 1.249 . S
C79 O77 1.267 . S
Dy80 O84 2.398 . S
Dy80 O85 2.491 . S
Dy80 O86 2.403 1_554 S
Dy80 O87 2.664 . S
Dy80 O91 2.326 . S
Dy80 O95 2.310 . S
Dy80 O96 2.351 . S
C81 O92 1.185 . S
C81 O93 1.355 . S
C82 O84 1.185 . S
C82 O85 1.355 . S
Dy83 O87 2.310 . S
Dy83 O90 2.351 . S
Dy83 O92 2.398 . S
Dy83 O93 2.491 . S
Dy83 O94 2.403 . S
Dy83 O95 2.664 . S
Dy83 O97 2.326 . S
O84 Dy80 2.398 . S
O84 C82 1.185 . S
O85 Dy80 2.491 . S
O85 C82 1.355 . S
O86 Dy80 2.403 1_556 S
O86 C88 1.254 . S
O87 Dy80 2.664 . S
O87 Dy83 2.310 . S
O87 C88 1.268 1_554 S
C88 O86 1.254 . S
C88 O87 1.268 1_556 S
C89 O94 1.254 . S
C89 O95 1.268 . S
O90 Dy83 2.351 . S
O90 C98 1.249 . S
O91 Dy80 2.326 . S
O91 C98 1.267 . S
O92 C81 1.185 . S
O92 Dy83 2.398 . S
O93 C81 1.355 . S
O93 Dy83 2.491 . S
O94 Dy83 2.403 . S
O94 C89 1.254 . S
O95 Dy80 2.310 . S
O95 Dy83 2.664 . S
O95 C89 1.268 . S
O96 Dy80 2.351 . S
O96 C99 1.249 . S
O97 Dy83 2.326 . S
O97 C99 1.267 . S
C98 O90 1.249 . S
C98 O91 1.267 . S
C99 O96 1.249 . S
C99 O97 1.267 . S
Dy100 O104 2.398 . S
Dy100 O105 2.491 1_554 S
Dy100 O106 2.403 . S
Dy100 O107 2.664 . S
Dy100 O111 2.326 . S
Dy100 O115 2.310 1_554 S
Dy100 O116 2.351 . S
C101 O112 1.185 1_554 S
C101 O113 1.355 . S
C102 O104 1.185 1_556 S
C102 O105 1.355 . S
Dy103 O107 2.310 1_556 S
Dy103 O110 2.351 . S
Dy103 O112 2.398 . S
Dy103 O113 2.492 1_556 S
Dy103 O114 2.403 . S
Dy103 O115 2.664 . S
Dy103 O117 2.326 . S
O104 Dy100 2.398 . S
O104 C102 1.185 1_554 S
O105 Dy100 2.491 1_556 S
O105 C102 1.355 . S
O106 Dy100 2.403 . S
O106 C108 1.254 . S
O107 Dy100 2.664 . S
O107 Dy103 2.310 1_554 S
O107 C108 1.268 . S
C108 O106 1.254 . S
C108 O107 1.268 . S
C109 O114 1.254 . S
C109 O115 1.268 . S
O110 Dy103 2.351 . S
O110 C118 1.249 1_556 S
O111 Dy100 2.326 . S
O111 C118 1.267 . S
O112 C101 1.185 1_556 S
O112 Dy103 2.398 . S
O113 C101 1.355 . S
O113 Dy103 2.492 1_554 S
O114 Dy103 2.403 . S
O114 C109 1.254 . S
O115 Dy100 2.310 1_556 S
O115 Dy103 2.664 . S
O115 C109 1.268 . S
O116 Dy100 2.351 . S
O116 C119 1.249 . S
O117 Dy103 2.326 . S
O117 C119 1.267 1_556 S
C118 O110 1.249 1_554 S
C118 O111 1.267 . S
C119 O116 1.249 . S
C119 O117 1.267 1_554 S
C120 C121 1.363 1_556 S
C120 C126 1.379 1_556 S
C120 N128 1.356 . S
C121 C120 1.363 1_554 S
C121 C127 1.363 . S
C122 C123 1.363 . S
C122 C127 1.379 . S
C122 N129 1.356 . S
C123 C122 1.363 . S
C123 C126 1.363 . S
N124 C126 1.356 1_556 S
N124 H136 0.984 . S
N124 H137 0.985 1_556 S
N125 C127 1.356 . S
N125 H130 0.984 . S
N125 H131 0.985 . S
C126 C120 1.379 1_554 S
C126 C123 1.363 . S
C126 N124 1.356 1_554 S
C127 C121 1.363 . S
C127 C122 1.379 . S
C127 N125 1.356 . S
N128 C120 1.356 . S
N128 H134 0.984 . S
N128 H135 0.984 . S
N129 C122 1.356 . S
N129 H132 0.984 . S
N129 H133 0.985 . S
H130 N125 0.984 . S
H131 N125 0.985 . S
H132 N129 0.984 . S
H133 N129 0.985 . S
H134 N128 0.984 . S
H135 N128 0.984 . S
H136 N124 0.984 . S
H137 N124 0.985 1_554 S
C138 C139 1.363 . S
C138 C144 1.379 1_455 S
C138 N146 1.356 . S
C139 C138 1.363 . S
C139 C145 1.363 . S
C140 C141 1.363 . S
C140 C145 1.379 1_655 S
C140 N147 1.356 1_554 S
C141 C140 1.363 . S
C141 C144 1.363 . S
N142 C144 1.356 . S
N142 H154 0.984 . S
N142 H155 0.985 . S
N143 C145 1.356 . S
N143 H148 0.984 . S
N143 H149 0.985 1_554 S
C144 C138 1.379 1_655 S
C144 C141 1.363 . S
C144 N142 1.356 . S
C145 C139 1.363 . S
C145 C140 1.379 1_455 S
C145 N143 1.356 . S
N146 C138 1.356 . S
N146 H152 0.984 . S
N146 H153 0.984 . S
N147 C140 1.356 1_556 S
N147 H150 0.984 . S
N147 H151 0.985 . S
H148 N143 0.984 . S
H149 N143 0.985 1_556 S
H150 N147 0.984 . S
H151 N147 0.985 . S
H152 N146 0.984 . S
H153 N146 0.984 . S
H154 N142 0.984 . S
H155 N142 0.985 . S
C156 C157 1.363 1_556 S
C156 C162 1.379 1_546 S
C156 N164 1.356 . S
C157 C156 1.363 1_554 S
C157 C163 1.363 . S
C158 C159 1.363 1_545 S
C158 C163 1.379 . S
C158 N165 1.356 . S
C159 C158 1.363 1_565 S
C159 C162 1.363 . S
N160 C162 1.356 1_556 S
N160 H172 0.984 . S
N160 H173 0.985 1_556 S
N161 C163 1.356 . S
N161 H166 0.984 . S
N161 H167 0.985 . S
C162 C156 1.379 1_564 S
C162 C159 1.363 . S
C162 N160 1.356 1_554 S
C163 C157 1.363 . S
C163 C158 1.379 . S
C163 N161 1.356 . S
N164 C156 1.356 . S
N164 H170 0.984 . S
N164 H171 0.984 . S
N165 C158 1.356 . S
N165 H168 0.984 1_545 S
N165 H169 0.985 . S
H166 N161 0.984 . S
H167 N161 0.985 . S
H168 N165 0.984 1_565 S
H169 N165 0.985 . S
H170 N164 0.984 . S
H171 N164 0.984 . S
H172 N160 0.984 . S
H173 N160 0.985 1_554 S
C174 C175 1.363 . S
C174 C180 1.379 . S
C174 N182 1.356 1_554 S
C175 C174 1.363 . S
C175 C181 1.363 . S
C176 C177 1.363 . S
C176 C181 1.379 . S
C176 N183 1.356 . S
C177 C176 1.363 . S
C177 C180 1.363 . S
N178 C180 1.356 . S
N178 H190 0.984 1_554 S
N178 H191 0.985 . S
N179 C181 1.356 . S
N179 H184 0.984 . S
N179 H185 0.985 . S
C180 C174 1.379 . S
C180 C177 1.363 . S
C180 N178 1.356 . S
C181 C175 1.363 . S
C181 C176 1.379 . S
C181 N179 1.356 . S
N182 C174 1.356 1_556 S
N182 H188 0.984 . S
N182 H189 0.984 . S
N183 C176 1.356 . S
N183 H186 0.984 . S
N183 H187 0.985 . S
H184 N179 0.984 . S
H185 N179 0.985 . S
H186 N183 0.984 . S
H187 N183 0.985 . S
H188 N182 0.984 . S
H189 N182 0.984 . S
H190 N178 0.984 1_556 S
H191 N178 0.985 . S
C192 C193 1.363 . S
C192 C198 1.379 . S
C192 N200 1.356 . S
C193 C192 1.363 . S
C193 C199 1.363 . S
C194 C195 1.363 1_556 S
C194 C199 1.379 1_556 S
C194 N201 1.356 . S
C195 C194 1.363 1_554 S
C195 C198 1.363 . S
N196 C198 1.356 . S
N196 H208 0.984 . S
N196 H209 0.985 . S
N197 C199 1.356 1_456 S
N197 H202 0.984 1_556 S
N197 H203 0.985 . S
C198 C192 1.379 . S
C198 C195 1.363 . S
C198 N196 1.356 . S
C199 C193 1.363 . S
C199 C194 1.379 1_554 S
C199 N197 1.356 1_654 S
N200 C192 1.356 . S
N200 H206 0.984 . S
N200 H207 0.984 1_655 S
N201 C194 1.356 . S
N201 H204 0.984 . S
N201 H205 0.985 . S
H202 N197 0.984 1_554 S
H203 N197 0.985 . S
H204 N201 0.984 . S
H205 N201 0.985 . S
H206 N200 0.984 . S
H207 N200 0.984 1_455 S
H208 N196 0.984 . S
H209 N196 0.985 . S
C210 C211 1.363 . S
C210 C216 1.379 1_565 S
C210 N218 1.356 . S
C211 C210 1.363 . S
C211 C217 1.363 . S
C212 C213 1.363 1_556 S
C212 C217 1.379 1_546 S
C212 N219 1.356 . S
C213 C212 1.363 1_554 S
C213 C216 1.363 . S
N214 C216 1.356 . S
N214 H226 0.984 . S
N214 H227 0.985 . S
N215 C217 1.356 1_556 S
N215 H220 0.984 1_556 S
N215 H221 0.985 . S
C216 C210 1.379 1_545 S
C216 C213 1.363 . S
C216 N214 1.356 . S
C217 C211 1.363 . S
C217 C212 1.379 1_564 S
C217 N215 1.356 1_554 S
N218 C210 1.356 . S
N218 H224 0.984 . S
N218 H225 0.984 . S
N219 C212 1.356 . S
N219 H222 0.984 . S
N219 H223 0.985 . S
H220 N215 0.984 1_554 S
H221 N215 0.985 . S
H222 N219 0.984 . S
H223 N219 0.985 . S
H224 N218 0.984 . S
H225 N218 0.984 . S
H226 N214 0.984 . S
H227 N214 0.985 . S
C228 C229 1.363 . S
C228 C234 1.379 . S
C228 N236 1.356 . S
C229 C228 1.363 . S
C229 C235 1.363 . S
C230 C231 1.363 . S
C230 C235 1.379 . S
C230 N237 1.356 . S
C231 C230 1.363 . S
C231 C234 1.363 . S
N232 C234 1.356 . S
N232 H244 0.984 . S
N232 H245 0.985 . S
N233 C235 1.356 . S
N233 H238 0.984 . S
N233 H239 0.985 . S
C234 C228 1.379 . S
C234 C231 1.363 . S
C234 N232 1.356 . S
C235 C229 1.363 . S
C235 C230 1.379 . S
C235 N233 1.356 . S
N236 C228 1.356 . S
N236 H242 0.984 1_554 S
N236 H243 0.984 . S
N237 C230 1.356 . S
N237 H240 0.984 . S
N237 H241 0.985 . S
H238 N233 0.984 . S
H239 N233 0.985 . S
H240 N237 0.984 . S
H241 N237 0.985 . S
H242 N236 0.984 1_556 S
H243 N236 0.984 . S
H244 N232 0.984 . S
H245 N232 0.985 . S
C246 C247 1.363 . S
C246 C252 1.379 . S
C246 N254 1.356 . S
C247 C246 1.363 . S
C247 C253 1.363 . S
C248 C249 1.363 . S
C248 C253 1.379 . S
C248 N255 1.356 . S
C249 C248 1.363 . S
C249 C252 1.363 . S
N250 C252 1.356 . S
N250 H262 0.984 1_556 S
N250 H263 0.985 . S
N251 C253 1.356 . S
N251 H256 0.984 . S
N251 H257 0.985 . S
C252 C246 1.379 . S
C252 C249 1.363 . S
C252 N250 1.356 . S
C253 C247 1.363 . S
C253 C248 1.379 . S
C253 N251 1.356 . S
N254 C246 1.356 . S
N254 H260 0.984 . S
N254 H261 0.984 . S
N255 C248 1.356 . S
N255 H258 0.984 . S
N255 H259 0.985 . S
H256 N251 0.984 . S
H257 N251 0.985 . S
H258 N255 0.984 . S
H259 N255 0.985 . S
H260 N254 0.984 . S
H261 N254 0.984 . S
H262 N250 0.984 1_554 S
H263 N250 0.985 . S
C264 C265 1.363 . S
C264 C270 1.379 . S
C264 N272 1.356 . S
C265 C264 1.363 . S
C265 C271 1.363 . S
C266 C267 1.363 . S
C266 C271 1.379 . S
C266 N273 1.356 . S
C267 C266 1.363 . S
C267 C270 1.363 . S
N268 C270 1.356 . S
N268 H280 0.984 . S
N268 H281 0.985 . S
N269 C271 1.356 . S
N269 H274 0.984 . S
N269 H275 0.985 . S
C270 C264 1.379 . S
C270 C267 1.363 . S
C270 N268 1.356 . S
C271 C265 1.363 . S
C271 C266 1.379 . S
C271 N269 1.356 . S
N272 C264 1.356 . S
N272 H278 0.984 . S
N272 H279 0.984 . S
N273 C266 1.356 . S
N273 H276 0.984 . S
N273 H277 0.985 . S
H274 N269 0.984 . S
H275 N269 0.985 . S
H276 N273 0.984 . S
H277 N273 0.985 . S
H278 N272 0.984 . S
H279 N272 0.984 . S
H280 N268 0.984 . S
H281 N268 0.985 . S
C282 C283 1.363 1_556 S
C282 C288 1.379 . S
C282 N290 1.356 . S
C283 C282 1.363 1_554 S
C283 C289 1.363 . S
C284 C285 1.363 1_554 S
C284 C289 1.379 . S
C284 N291 1.356 . S
C285 C284 1.363 1_556 S
C285 C288 1.363 . S
N286 C288 1.356 . S
N286 H298 0.984 . S
N286 H299 0.985 . S
N287 C289 1.356 . S
N287 H292 0.984 . S
N287 H293 0.985 . S
C288 C282 1.379 . S
C288 C285 1.363 . S
C288 N286 1.356 . S
C289 C283 1.363 . S
C289 C284 1.379 . S
C289 N287 1.356 . S
N290 C282 1.356 . S
N290 H296 0.984 . S
N290 H297 0.984 . S
N291 C284 1.356 . S
N291 H294 0.984 . S
N291 H295 0.985 . S
H292 N287 0.984 . S
H293 N287 0.985 . S
H294 N291 0.984 . S
H295 N291 0.985 . S
H296 N290 0.984 . S
H297 N290 0.984 . S
H298 N286 0.984 . S
H299 N286 0.985 . S
C300 C301 1.363 . S
C300 C306 1.379 . S
C300 N308 1.356 . S
C301 C300 1.363 . S
C301 C307 1.363 . S
C302 C303 1.363 . S
C302 C307 1.379 . S
C302 N309 1.356 . S
C303 C302 1.363 . S
C303 C306 1.363 . S
N304 C306 1.356 . S
N304 H316 0.984 . S
N304 H317 0.985 . S
N305 C307 1.356 . S
N305 H310 0.984 . S
N305 H311 0.985 . S
C306 C300 1.379 . S
C306 C303 1.363 . S
C306 N304 1.356 . S
C307 C301 1.363 . S
C307 C302 1.379 . S
C307 N305 1.356 . S
N308 C300 1.356 . S
N308 H314 0.984 . S
N308 H315 0.984 . S
N309 C302 1.356 . S
N309 H312 0.984 . S
N309 H313 0.985 . S
H310 N305 0.984 . S
H311 N305 0.985 . S
H312 N309 0.984 . S
H313 N309 0.985 . S
H314 N308 0.984 . S
H315 N308 0.984 . S
H316 N304 0.984 . S
H317 N304 0.985 . S
C318 C319 1.363 1_554 S
C318 C324 1.379 . S
C318 N326 1.356 . S
C319 C318 1.363 1_556 S
C319 C325 1.363 . S
C320 C321 1.363 . S
C320 C325 1.379 . S
C320 N327 1.356 . S
C321 C320 1.363 . S
C321 C324 1.363 1_556 S
N322 C324 1.356 . S
N322 H334 0.984 . S
N322 H335 0.985 . S
N323 C325 1.356 . S
N323 H328 0.984 . S
N323 H329 0.985 . S
C324 C318 1.379 . S
C324 C321 1.363 1_554 S
C324 N322 1.356 . S
C325 C319 1.363 . S
C325 C320 1.379 . S
C325 N323 1.356 . S
N326 C318 1.356 . S
N326 H332 0.984 . S
N326 H333 0.984 . S
N327 C320 1.356 . S
N327 H330 0.984 . S
N327 H331 0.985 . S
H328 N323 0.984 . S
H329 N323 0.985 . S
H330 N327 0.984 . S
H331 N327 0.985 . S
H332 N326 0.984 . S
H333 N326 0.984 . S
H334 N322 0.984 . S
H335 N322 0.985 . S
C336 C337 1.363 . S
C336 C342 1.379 . S
C336 N344 1.356 . S
C337 C336 1.363 . S
C337 C343 1.363 . S
C338 C339 1.363 . S
C338 C343 1.379 . S
C338 N345 1.356 . S
C339 C338 1.363 . S
C339 C342 1.363 . S
N340 C342 1.356 . S
N340 H352 0.984 . S
N340 H353 0.985 . S
N341 C343 1.356 . S
N341 H346 0.984 . S
N341 H347 0.985 . S
C342 C336 1.379 . S
C342 C339 1.363 . S
C342 N340 1.356 . S
C343 C337 1.363 . S
C343 C338 1.379 . S
C343 N341 1.356 . S
N344 C336 1.356 . S
N344 H350 0.984 . S
N344 H351 0.984 . S
N345 C338 1.356 . S
N345 H348 0.984 . S
N345 H349 0.985 . S
H346 N341 0.984 . S
H347 N341 0.985 . S
H348 N345 0.984 . S
H349 N345 0.985 . S
H350 N344 0.984 . S
H351 N344 0.984 . S
H352 N340 0.984 . S
H353 N340 0.985 . S
C354 C355 1.363 . S
C354 C360 1.379 . S
C354 N362 1.356 . S
C355 C354 1.363 . S
C355 C361 1.363 . S
C356 C357 1.363 . S
C356 C361 1.379 . S
C356 N363 1.356 . S
C357 C356 1.363 . S
C357 C360 1.363 . S
N358 C360 1.356 . S
N358 H370 0.984 . S
N358 H371 0.985 . S
N359 C361 1.356 . S
N359 H364 0.984 . S
N359 H365 0.985 . S
C360 C354 1.379 . S
C360 C357 1.363 . S
C360 N358 1.356 . S
C361 C355 1.363 . S
C361 C356 1.379 . S
C361 N359 1.356 . S
N362 C354 1.356 . S
N362 H368 0.984 . S
N362 H369 0.984 . S
N363 C356 1.356 . S
N363 H366 0.984 . S
N363 H367 0.985 . S
H364 N359 0.984 . S
H365 N359 0.985 . S
H366 N363 0.984 . S
H367 N363 0.985 . S
H368 N362 0.984 . S
H369 N362 0.984 . S
H370 N358 0.984 . S
H371 N358 0.985 . S
C372 C373 1.363 . S
C372 C378 1.379 . S
C372 N380 1.356 . S
C373 C372 1.363 . S
C373 C379 1.363 . S
C374 C375 1.363 . S
C374 C379 1.379 . S
C374 N381 1.356 . S
C375 C374 1.363 . S
C375 C378 1.363 . S
N376 C378 1.356 . S
N376 H388 0.984 . S
N376 H389 0.985 . S
N377 C379 1.356 . S
N377 H382 0.984 . S
N377 H383 0.985 . S
C378 C372 1.379 . S
C378 C375 1.363 . S
C378 N376 1.356 . S
C379 C373 1.363 . S
C379 C374 1.379 . S
C379 N377 1.356 . S
N380 C372 1.356 . S
N380 H386 0.984 . S
N380 H387 0.984 . S
N381 C374 1.356 . S
N381 H384 0.984 . S
N381 H385 0.985 . S
H382 N377 0.984 . S
H383 N377 0.985 . S
H384 N381 0.984 . S
H385 N381 0.985 . S
H386 N380 0.984 . S
H387 N380 0.984 . S
H388 N376 0.984 . S
H389 N376 0.985 . S
C390 C391 1.363 . S
C390 C396 1.379 . S
C390 N398 1.356 . S
C391 C390 1.363 . S
C391 C397 1.363 . S
C392 C393 1.363 . S
C392 C397 1.379 . S
C392 N399 1.356 . S
C393 C392 1.363 . S
C393 C396 1.363 . S
N394 C396 1.356 . S
N394 H406 0.984 . S
N394 H407 0.985 . S
N395 C397 1.356 . S
N395 H400 0.984 . S
N395 H401 0.985 . S
C396 C390 1.379 . S
C396 C393 1.363 . S
C396 N394 1.356 . S
C397 C391 1.363 . S
C397 C392 1.379 . S
C397 N395 1.356 . S
N398 C390 1.356 . S
N398 H404 0.984 . S
N398 H405 0.984 . S
N399 C392 1.356 . S
N399 H402 0.984 . S
N399 H403 0.985 . S
H400 N395 0.984 . S
H401 N395 0.985 . S
H402 N399 0.984 . S
H403 N399 0.985 . S
H404 N398 0.984 . S
H405 N398 0.984 . S
H406 N394 0.984 . S
H407 N394 0.985 . S
C408 C409 1.363 . S
C408 C414 1.379 . S
C408 N416 1.356 . S
C409 C408 1.363 . S
C409 C415 1.363 . S
C410 C411 1.363 . S
C410 C415 1.379 . S
C410 N417 1.356 . S
C411 C410 1.363 . S
C411 C414 1.363 . S
N412 C414 1.356 . S
N412 H424 0.984 . S
N412 H425 0.985 . S
N413 C415 1.356 . S
N413 H418 0.984 . S
N413 H419 0.985 . S
C414 C408 1.379 . S
C414 C411 1.363 . S
C414 N412 1.356 . S
C415 C409 1.363 . S
C415 C410 1.379 . S
C415 N413 1.356 . S
N416 C408 1.356 . S
N416 H422 0.984 . S
N416 H423 0.984 . S
N417 C410 1.356 . S
N417 H420 0.984 . S
N417 H421 0.985 . S
H418 N413 0.984 . S
H419 N413 0.985 . S
H420 N417 0.984 . S
H421 N417 0.985 . S
H422 N416 0.984 . S
H423 N416 0.984 . S
H424 N412 0.984 . S
H425 N412 0.985 . S
C426 C427 1.363 . S
C426 C432 1.379 . S
C426 N434 1.356 . S
C427 C426 1.363 . S
C427 C433 1.363 . S
C428 C429 1.363 . S
C428 C433 1.379 . S
C428 N435 1.356 . S
C429 C428 1.363 . S
C429 C432 1.363 . S
N430 C432 1.356 . S
N430 H442 0.984 . S
N430 H443 0.985 . S
N431 C433 1.356 . S
N431 H436 0.984 . S
N431 H437 0.985 . S
C432 C426 1.379 . S
C432 C429 1.363 . S
C432 N430 1.356 . S
C433 C427 1.363 . S
C433 C428 1.379 . S
C433 N431 1.356 . S
N434 C426 1.356 . S
N434 H440 0.984 . S
N434 H441 0.984 . S
N435 C428 1.356 . S
N435 H438 0.984 . S
N435 H439 0.985 . S
H436 N431 0.984 . S
H437 N431 0.985 . S
H438 N435 0.984 . S
H439 N435 0.985 . S
H440 N434 0.984 . S
H441 N434 0.984 . S
H442 N430 0.984 . S
H443 N430 0.985 . S
C121 C101 1.493 . S
C123 C1 1.567 . S
C139 C19 1.641 . S
C141 C21 1.303 . S
C157 C39 1.218 . S
C159 C41 1.172 . S
C175 C61 1.866 . S
C177 C59 1.989 . S
C193 C81 1.803 1_655 S
C195 C79 2.054 . S
C211 C99 1.539 . S
C213 C119 1.564 . S
C229 C98 1.653 . S
C231 C2 1.628 . S
C247 C102 1.257 . S
C249 C22 1.266 . S
C265 C42 1.425 . S
C267 C18 1.415 . S
C283 C62 1.711 . S
C285 C38 1.759 . S
C301 C82 1.998 . S
C303 C58 2.004 . S
C319 C78 2.189 . S
C321 C118 2.179 1_556 S
C337 C8 1.400 . S
C339 C9 1.400 . S
C355 C28 1.410 . S
C357 C29 1.410 . S
C373 C48 1.414 . S
C375 C49 1.414 . S
C391 C68 1.398 . S
C393 C69 1.398 . S
C409 C89 1.397 . S
C411 C88 1.397 . S
C427 C109 1.407 . S
C429 C108 1.407 . S
