# Generated by pormake.
# Topology uol, (4)-cn, num edge types: 1
# Building blocks:
#     Node 0, Type 0, BuildingBlock: KOZSID_clean_sbu_0, # of connection points: 4
#     Node 1, Type 0, BuildingBlock: KOZSID_clean_sbu_0, # of connection points: 4
#     Node 2, Type 0, BuildingBlock: KOZSID_clean_sbu_0, # of connection points: 4
#     Node 3, Type 0, BuildingBlock: KOZSID_clean_sbu_0, # of connection points: 4
#     Node 4, Type 0, BuildingBlock: KOZSID_clean_sbu_0, # of connection points: 4
#     Node 5, Type 0, BuildingBlock: KOZSID_clean_sbu_0, # of connection points: 4
#     Node 6, Type 0, BuildingBlock: KOZSID_clean_sbu_0, # of connection points: 4
#     Node 7, Type 0, BuildingBlock: KOZSID_clean_sbu_0, # of connection points: 4
#     Node 8, Type 0, BuildingBlock: KOZSID_clean_sbu_0, # of connection points: 4
#     Node 9, Type 0, BuildingBlock: KOZSID_clean_sbu_0, # of connection points: 4
#     Node 10, Type 0, BuildingBlock: KOZSID_clean_sbu_0, # of connection points: 4
#     Node 11, Type 0, BuildingBlock: KOZSID_clean_sbu_0, # of connection points: 4
#     Edge 12, Type (0, 0), BuildingBlock: XUDNAN_clean_linker_2, # of connection points: 2
#     Edge 13, Type (0, 0), BuildingBlock: XUDNAN_clean_linker_2, # of connection points: 2
#     Edge 14, Type (0, 0), BuildingBlock: XUDNAN_clean_linker_2, # of connection points: 2
#     Edge 15, Type (0, 0), BuildingBlock: XUDNAN_clean_linker_2, # of connection points: 2
#     Edge 16, Type (0, 0), BuildingBlock: XUDNAN_clean_linker_2, # of connection points: 2
#     Edge 17, Type (0, 0), BuildingBlock: XUDNAN_clean_linker_2, # of connection points: 2
#     Edge 18, Type (0, 0), BuildingBlock: XUDNAN_clean_linker_2, # of connection points: 2
#     Edge 19, Type (0, 0), BuildingBlock: XUDNAN_clean_linker_2, # of connection points: 2
#     Edge 20, Type (0, 0), BuildingBlock: XUDNAN_clean_linker_2, # of connection points: 2
#     Edge 21, Type (0, 0), BuildingBlock: XUDNAN_clean_linker_2, # of connection points: 2
#     Edge 22, Type (0, 0), BuildingBlock: XUDNAN_clean_linker_2, # of connection points: 2
#     Edge 23, Type (0, 0), BuildingBlock: XUDNAN_clean_linker_2, # of connection points: 2
#     Edge 24, Type (0, 0), BuildingBlock: XUDNAN_clean_linker_2, # of connection points: 2
#     Edge 25, Type (0, 0), BuildingBlock: XUDNAN_clean_linker_2, # of connection points: 2
#     Edge 26, Type (0, 0), BuildingBlock: XUDNAN_clean_linker_2, # of connection points: 2
#     Edge 27, Type (0, 0), BuildingBlock: XUDNAN_clean_linker_2, # of connection points: 2
#     Edge 28, Type (0, 0), BuildingBlock: XUDNAN_clean_linker_2, # of connection points: 2
#     Edge 29, Type (0, 0), BuildingBlock: XUDNAN_clean_linker_2, # of connection points: 2
#     Edge 30, Type (0, 0), BuildingBlock: XUDNAN_clean_linker_2, # of connection points: 2
#     Edge 31, Type (0, 0), BuildingBlock: XUDNAN_clean_linker_2, # of connection points: 2
#     Edge 32, Type (0, 0), BuildingBlock: XUDNAN_clean_linker_2, # of connection points: 2
#     Edge 33, Type (0, 0), BuildingBlock: XUDNAN_clean_linker_2, # of connection points: 2
#     Edge 34, Type (0, 0), BuildingBlock: XUDNAN_clean_linker_2, # of connection points: 2
#     Edge 35, Type (0, 0), BuildingBlock: XUDNAN_clean_linker_2, # of connection points: 2
# Relax obj value: 0.144
# Max RMSD: 0.328
# Mean RMSD: 0.313
data_MOF--net-uol--node1-KOZSID_clean_sbu_0--edge1-XUDNAN_clean_linker_2
_symmetry_space_group_name_H-M    P1
_symmetry_Int_Tables_number       1
_symmetry_cell_setting            triclinic
loop_
_symmetry_equiv_pos_as_xyz
'x, y, z'
_cell_length_a     41.250546
_cell_length_b     44.002885
_cell_length_c     67.272809
_cell_angle_alpha  89.903471
_cell_angle_beta   90.099392
_cell_angle_gamma 117.89071
loop_
_atom_site_label
_atom_site_type_symbol
_atom_site_fract_x
_atom_site_fract_y
_atom_site_fract_z
_atom_type_partial_charge
C0 C 0.18356 0.34832 0.08947 0.0
C1 C 0.17348 0.33556 0.07032 0.0
C2 C 0.13647 0.3245 0.06876 0.0
C3 C 0.12609 0.33132 0.0869 0.0
N4 N 0.15426 0.34606 0.0997 0.0
Co5 Co 0.15131 0.36029 0.12726 0.0
N6 N 0.09768 0.32887 0.12871 0.0
C7 C 0.07551 0.31489 0.11293 0.0
C8 C 0.03944 0.29515 0.1181 0.0
C9 C 0.0387 0.29715 0.13839 0.0
C10 C 0.07455 0.31811 0.14456 0.0
N11 N 0.14811 0.3749 0.15484 0.0
C12 C 0.1208 0.3607 0.16855 0.0
C13 C 0.13038 0.38017 0.18585 0.0
C14 C 0.16417 0.40779 0.1826 0.0
C15 C 0.17362 0.4037 0.16361 0.0
N16 N 0.20492 0.39113 0.12559 0.0
C17 C 0.22441 0.41792 0.13764 0.0
C18 C 0.26144 0.43246 0.13407 0.0
C19 C 0.26533 0.41364 0.11884 0.0
C20 C 0.23028 0.38875 0.11369 0.0
N21 N 0.14195 0.39792 0.11713 0.0
C22 C 0.13755 0.459 0.10852 0.0
C23 C 0.16204 0.45076 0.09824 0.0
C24 C 0.16382 0.42021 0.10276 0.0
C25 C 0.11362 0.43461 0.12213 0.0
C26 C 0.11607 0.40444 0.12609 0.0
N27 N 0.16185 0.32392 0.13768 0.0
C28 C 0.19776 0.30876 0.16002 0.0
C29 C 0.18404 0.27598 0.15162 0.0
C30 C 0.15874 0.26762 0.13593 0.0
C31 C 0.14772 0.29187 0.1293 0.0
C32 C 0.18647 0.33205 0.15293 0.0
H33 H 0.12819 0.28492 0.11726 0.0
H34 H 0.19855 0.3571 0.15963 0.0
H35 H 0.18409 0.41542 0.09524 0.0
H36 H 0.09798 0.3872 0.13718 0.0
C37 C 0.09002 0.31793 0.09378 0.0
C38 C 0.22131 0.36387 0.09715 0.0
C39 C 0.08443 0.3308 0.1651 0.0
C40 C 0.20808 0.42312 0.1547 0.0
H41 H 0.19093 0.33416 0.05876 0.0
H42 H 0.11898 0.31142 0.05624 0.0
H43 H 1.01645 0.28074 0.10832 0.0
H44 H 1.0143 0.28541 0.14751 0.0
H45 H 0.11445 0.3752 0.19934 0.0
H46 H 0.18035 0.42789 0.19306 0.0
H47 H 0.28324 0.45276 0.14243 0.0
H48 H 0.29116 0.41748 0.1127 0.0
H49 H 0.18103 0.46858 0.08754 0.0
H50 H 0.09362 0.43922 0.13017 0.0
H51 H 0.2178 0.31679 0.17192 0.0
H52 H 0.14725 0.2425 0.12902 0.0
C53 C 0.71603 0.15109 0.29273 0.0
C54 C 0.69887 0.1668 0.3032 0.0
C55 C 0.7195 0.18118 0.31978 0.0
C56 C 0.74791 0.17336 0.31876 0.0
N57 N 0.747 0.15526 0.30243 0.0
Co58 Co 0.78138 0.13576 0.29728 0.0
N59 N 0.81695 0.16557 0.31777 0.0
C60 C 0.8098 0.18255 0.33228 0.0
C61 C 0.83989 0.20239 0.34372 0.0
C62 C 0.8678 0.19754 0.33598 0.0
C63 C 0.85297 0.17455 0.32031 0.0
N64 N 0.81573 0.11662 0.29213 0.0
C65 C 0.85194 0.12969 0.29666 0.0
C66 C 0.86563 0.10819 0.28992 0.0
C67 C 0.837 0.08091 0.28077 0.0
C68 C 0.80745 0.08716 0.28251 0.0
N69 N 0.74519 0.1056 0.27702 0.0
C70 C 0.7454 0.07789 0.2686 0.0
C71 C 0.71873 0.06274 0.2544 0.0
C72 C 0.69997 0.08149 0.25414 0.0
C73 C 0.71561 0.1068 0.2686 0.0
N74 N 0.80808 0.17099 0.27679 0.0
C75 C 0.86566 0.21803 0.25245 0.0
C76 C 0.84482 0.18349 0.24696 0.0
C77 C 0.81628 0.16069 0.25913 0.0
C78 C 0.8545 0.2291 0.26954 0.0
C79 C 0.82551 0.20529 0.28138 0.0
N80 N 0.7565 0.09983 0.31778 0.0
C81 C 0.70193 0.05358 0.33217 0.0
C82 C 0.72292 0.04299 0.3442 0.0
C83 C 0.76122 0.06284 0.34309 0.0
C84 C 0.77722 0.09103 0.33014 0.0
C85 C 0.7191 0.08167 0.31907 0.0
H86 H 0.80673 0.10501 0.32971 0.0
H87 H 0.70203 0.08815 0.30968 0.0
H88 H 0.80277 0.13411 0.25483 0.0
H89 H 0.81889 0.21427 0.29493 0.0
C90 C 0.77703 0.18445 0.33219 0.0
C91 C 0.69948 0.12917 0.27508 0.0
C92 C 0.87326 0.16094 0.3085 0.0
C93 C 0.77417 0.07006 0.27223 0.0
H94 H 0.67328 0.16685 0.29981 0.0
H95 H 0.71425 0.19547 0.33129 0.0
H96 H 0.84187 0.21981 0.35556 0.0
H97 H 0.89583 0.21005 0.3412 0.0
H98 H 0.89336 0.11188 0.29145 0.0
H99 H 0.83809 0.05988 0.27302 0.0
H100 H 0.71419 0.04131 0.24487 0.0
H101 H 0.67714 0.07669 0.24445 0.0
H102 H 0.85116 0.17371 0.23357 0.0
H103 H 0.86921 0.25559 0.27438 0.0
H104 H 0.67229 0.0402 0.33264 0.0
H105 H 0.77923 0.05618 0.35164 0.0
C106 C 0.67841 0.82451 0.42805 0.0
C107 C 0.69442 0.82772 0.40951 0.0
C108 C 0.70732 0.80408 0.4089 0.0
C109 C 0.69843 0.78773 0.427 0.0
N110 N 0.68076 0.79961 0.43892 0.0
Co111 Co 0.66372 0.78362 0.46636 0.0
N112 N 0.69765 0.76345 0.46931 0.0
C113 C 0.71446 0.75628 0.45426 0.0
C114 C 0.73765 0.74394 0.46068 0.0
C115 C 0.735 0.74293 0.481 0.0
C116 C 0.7097 0.75422 0.48593 0.0
N117 N 0.64667 0.7676 0.49378 0.0
C118 C 0.66224 0.75736 0.50839 0.0
C119 C 0.63999 0.74704 0.52511 0.0
C120 C 0.60962 0.75101 0.52073 0.0
C121 C 0.61481 0.76335 0.5016 0.0
N122 N 0.63004 0.80391 0.46324 0.0
C123 C 0.60006 0.79606 0.47432 0.0
C124 C 0.58259 0.8149 0.46902 0.0
C125 C 0.60289 0.83575 0.45365 0.0
C126 C 0.6317 0.82843 0.45035 0.0
N127 N 0.62507 0.73915 0.4559 0.0
C128 C 0.56658 0.67633 0.4422 0.0
C129 C 0.57558 0.70781 0.43272 0.0
C130 C 0.60455 0.73863 0.43976 0.0
C131 C 0.58787 0.67724 0.45873 0.0
C132 C 0.61701 0.70865 0.4652 0.0
N133 N 0.70134 0.82791 0.47686 0.0
C134 C 0.71641 0.87772 0.49738 0.0
C135 C 0.75166 0.89502 0.48911 0.0
C136 C 0.76151 0.87715 0.47505 0.0
C137 C 0.73611 0.84367 0.46923 0.0
C138 C 0.69186 0.84452 0.49106 0.0
H139 H 0.74425 0.8309 0.45814 0.0
H140 H 0.66475 0.83263 0.4974 0.0
H141 H 0.6101 0.76221 0.4322 0.0
H142 H 0.63287 0.7082 0.47785 0.0
C143 C 0.71275 0.76701 0.43483 0.0
C144 C 0.65919 0.8438 0.43438 0.0
C145 C 0.69609 0.75406 0.50625 0.0
C146 C 0.59373 0.77622 0.49167 0.0
H147 H 0.69667 0.84536 0.39772 0.0
H148 H 0.72299 0.80057 0.39706 0.0
H149 H 0.75569 0.73793 0.45173 0.0
H150 H 0.75032 0.73498 0.49087 0.0
H151 H 0.64493 0.7372 0.53891 0.0
H152 H 0.58701 0.74636 0.53056 0.0
H153 H 0.559 0.81479 0.4761 0.0
H154 H 0.59725 0.85431 0.44587 0.0
H155 H 0.55997 0.70881 0.42001 0.0
H156 H 0.58254 0.65374 0.46644 0.0
H157 H 0.70753 0.88973 0.50865 0.0
H158 H 0.78826 0.8892 0.46809 0.0
C159 C 0.86929 0.70084 0.59211 0.0
C160 C 0.87899 0.71775 0.57397 0.0
C161 C 0.9163 0.73089 0.57231 0.0
C162 C 0.92717 0.72124 0.58947 0.0
N163 N 0.89902 0.70278 0.60173 0.0
Co164 Co 0.90242 0.68381 0.62793 0.0
N165 N 0.95551 0.71655 0.63038 0.0
C166 C 0.97747 0.73548 0.61548 0.0
C167 C 1.01219 0.75782 0.62177 0.0
C168 C 1.01226 0.75236 0.64182 0.0
C169 C 0.9776 0.72626 0.64668 0.0
N170 N 0.90643 0.66378 0.65368 0.0
C171 C 0.93322 0.67636 0.66773 0.0
C172 C 0.92551 0.65261 0.68295 0.0
C173 C 0.8928 0.62447 0.6782 0.0
C174 C 0.88235 0.63233 0.66032 0.0
N175 N 0.84918 0.65218 0.62558 0.0
C176 C 0.83045 0.62277 0.63573 0.0
C177 C 0.79347 0.60738 0.63156 0.0
C178 C 0.78894 0.6286 0.61796 0.0
C179 C 0.82346 0.65579 0.6146 0.0
N180 N 0.91366 0.64968 0.61456 0.0
C181 C 0.91752 0.58924 0.60402 0.0
C182 C 0.89223 0.59774 0.5948 0.0
C183 C 0.89085 0.62811 0.60021 0.0
C184 C 0.94307 0.6135 0.61708 0.0
C185 C 0.9409 0.64343 0.622 0.0
N186 N 0.88974 0.71642 0.64187 0.0
C187 C 0.85749 0.72566 0.66911 0.0
C188 C 0.86061 0.75611 0.66068 0.0
C189 C 0.88146 0.76746 0.64303 0.0
C190 C 0.89649 0.7477 0.63418 0.0
C191 C 0.87043 0.70585 0.65922 0.0
H192 H 0.91237 0.75722 0.62075 0.0
H193 H 0.86334 0.68122 0.66564 0.0
H194 H 0.86975 0.63294 0.59371 0.0
H195 H 0.95979 0.66023 0.63298 0.0
C196 C 0.96315 0.73548 0.5966 0.0
C197 C 0.83189 0.68339 0.59992 0.0
C198 C 0.9673 0.70937 0.66636 0.0
C199 C 0.84766 0.61415 0.65123 0.0
H200 H 0.86111 0.72088 0.56329 0.0
H201 H 0.9336 0.74738 0.56061 0.0
H202 H 0.03439 0.7769 0.61301 0.0
H203 H 0.03537 0.76632 0.65155 0.0
H204 H 0.9419 0.65523 0.69603 0.0
H205 H 0.87784 0.60159 0.68711 0.0
H206 H 0.7721 0.58428 0.6382 0.0
H207 H 0.76337 0.62454 0.61124 0.0
H208 H 0.87212 0.58007 0.58447 0.0
H209 H 0.96374 0.60865 0.62424 0.0
H210 H 0.84432 0.71599 0.68325 0.0
H211 H 0.88559 0.79087 0.6357 0.0
C212 C 0.33068 0.87723 0.80096 0.0
C213 C 0.3431 0.85784 0.81187 0.0
C214 C 0.31802 0.84165 0.82646 0.0
C215 C 0.29203 0.85236 0.82399 0.0
N216 N 0.29909 0.8748 0.80882 0.0
Co217 Co 0.26907 0.89832 0.80141 0.0
N218 N 0.23396 0.87612 0.82393 0.0
C219 C 0.23718 0.85654 0.83848 0.0
C220 C 0.21 0.84601 0.85249 0.0
C221 C 0.18767 0.85924 0.84633 0.0
C222 C 0.20232 0.87668 0.82867 0.0
N223 N 0.23783 0.92017 0.79337 0.0
C224 C 0.20394 0.91393 0.79976 0.0
C225 C 0.18999 0.93135 0.78827 0.0
C226 C 0.2158 0.94908 0.77416 0.0
C227 C 0.24381 0.94127 0.77766 0.0
N228 N 0.30591 0.92204 0.77963 0.0
C229 C 0.30526 0.94531 0.76671 0.0
C230 C 0.33318 0.95694 0.75311 0.0
C231 C 0.35316 0.94038 0.75767 0.0
C232 C 0.33647 0.91959 0.774 0.0
N233 N 0.23773 0.85927 0.78341 0.0
C234 C 0.1756 0.81444 0.76089 0.0
C235 C 0.20465 0.84294 0.75207 0.0
C236 C 0.23529 0.8648 0.76348 0.0
C237 C 0.18039 0.80651 0.78049 0.0
C238 C 0.21203 0.82853 0.79119 0.0
N239 N 0.29857 0.93787 0.81961 0.0
C240 C 0.31661 0.99675 0.8296 0.0
C241 C 0.32529 0.9907 0.84884 0.0
C242 C 0.32331 0.9585 0.85252 0.0
C243 C 0.31034 0.93288 0.83783 0.0
C244 C 0.30378 0.97038 0.81533 0.0
H245 H 0.30912 0.90892 0.84182 0.0
H246 H 0.29704 0.97663 0.80113 0.0
H247 H 0.25554 0.88707 0.75608 0.0
H248 H 0.21416 0.82121 0.80615 0.0
C249 C 0.26356 0.84538 0.83728 0.0
C250 C 0.35007 0.89733 0.78329 0.0
C251 C 0.18364 0.89078 0.81613 0.0
C252 C 0.27554 0.95234 0.7662 0.0
H253 H 0.3681 0.85597 0.80982 0.0
H254 H 0.31936 0.82512 0.83801 0.0
H255 H 0.20607 0.82955 0.86521 0.0
H256 H 0.16268 0.85538 0.85365 0.0
H257 H 0.16358 0.93076 0.78961 0.0
H258 H 0.21391 0.965 0.7624 0.0
H259 H 0.33771 0.97443 0.74085 0.0
H260 H 0.37681 0.94288 0.7495 0.0
H261 H 0.20269 0.84974 0.73679 0.0
H262 H 0.15927 0.78396 0.78775 0.0
H263 H 0.31805 0.02124 0.82572 0.0
H264 H 0.33111 0.95272 0.86685 0.0
C265 C 0.37048 0.21352 0.92821 0.0
C266 C 0.3545 0.21027 0.90962 0.0
C267 C 0.34378 0.23543 0.90838 0.0
C268 C 0.35346 0.25243 0.92625 0.0
N269 N 0.36961 0.23952 0.93859 0.0
Co270 Co 0.38587 0.25497 0.96621 0.0
N271 N 0.3537 0.27705 0.96828 0.0
C272 C 0.33891 0.28576 0.95284 0.0
C273 C 0.31802 0.30096 0.95865 0.0
C274 C 0.32011 0.3022 0.979 0.0
C275 C 0.34237 0.28773 0.98452 0.0
N276 N 0.40223 0.27056 0.99378 0.0
C277 C 0.38728 0.28223 0.00792 0.0
C278 C 0.40867 0.29147 0.02499 0.0
C279 C 0.43805 0.28563 0.02127 0.0
C280 C 0.4331 0.27319 1.00217 0.0
N281 N 0.41768 0.23267 0.96396 0.0
C282 C 0.44691 0.23916 0.97542 0.0
C283 C 0.4625 0.21844 0.97075 0.0
C284 C 0.44162 0.19773 0.95545 0.0
C285 C 0.41433 0.20694 0.95167 0.0
N286 N 0.42622 0.29847 0.95595 0.0
C287 C 0.48588 0.35974 0.94167 0.0
C288 C 0.47615 0.32772 0.93279 0.0
C289 C 0.4466 0.29768 0.9401 0.0
C290 C 0.46497 0.36018 0.95802 0.0
C291 C 0.43522 0.32946 0.9648 0.0
N292 N 0.34649 0.21141 0.97638 0.0
C293 C 0.32955 0.15935 0.99516 0.0
C294 C 0.29531 0.14315 0.98569 0.0
C295 C 0.28647 0.16289 0.9724 0.0
C296 C 0.3123 0.19691 0.96803 0.0
C297 C 0.35451 0.19333 0.99039 0.0
H298 H 0.30521 0.21099 0.95723 0.0
H299 H 0.38113 0.20431 0.99733 0.0
H300 H 0.44036 0.27366 0.93293 0.0
H301 H 0.41955 0.33086 0.97726 0.0
C302 C 0.34066 0.27463 0.93355 0.0
C303 C 0.38697 0.19241 0.93564 0.0
C304 C 0.35492 0.28771 1.00503 0.0
C305 C 0.45343 0.25907 0.99273 0.0
H306 H 0.35029 0.19149 0.89824 0.0
H307 H 0.3286 0.23932 0.89638 0.0
H308 H 0.30225 0.30922 0.94929 0.0
H309 H 0.30714 0.31297 0.98864 0.0
H310 H 0.40379 0.30175 0.0386 0.0
H311 H 0.45983 0.28915 0.03148 0.0
H312 H 0.48507 0.21717 0.97825 0.0
H313 H 0.44579 0.17806 0.948 0.0
H314 H 0.49154 0.32573 0.92028 0.0
H315 H 0.471 0.38419 0.96529 0.0
H316 H 0.33798 0.14542 1.00544 0.0
H317 H 0.26006 0.15193 0.96503 0.0
C318 C 0.57957 0.88148 0.71618 0.0
C319 C 0.54745 0.862 0.70559 0.0
C320 C 0.55586 0.84558 0.69093 0.0
C321 C 0.5926 0.85627 0.69305 0.0
N322 N 0.60846 0.87897 0.70803 0.0
Co323 Co 0.66213 0.90267 0.71495 0.0
N324 N 0.67399 0.87855 0.69311 0.0
C325 C 0.65081 0.85791 0.67904 0.0
C326 C 0.66674 0.84508 0.66594 0.0
C327 C 0.70217 0.85786 0.67223 0.0
C328 C 0.70566 0.87771 0.6889 0.0
N329 N 0.71545 0.92504 0.72237 0.0
C330 C 0.74226 0.91722 0.71658 0.0
C331 C 0.77451 0.93605 0.72702 0.0
C332 C 0.76771 0.95616 0.74012 0.0
C333 C 0.73175 0.94834 0.73697 0.0
N334 N 0.64993 0.92769 0.73633 0.0
C335 C 0.6744 0.95217 0.74848 0.0
C336 C 0.65847 0.96419 0.76209 0.0
C337 C 0.62166 0.94655 0.75838 0.0
C338 C 0.617 0.92477 0.7425 0.0
N339 N 0.65486 0.86486 0.73382 0.0
C340 C 0.66671 0.81721 0.75721 0.0
C341 C 0.67468 0.84968 0.76453 0.0
C342 C 0.66808 0.87261 0.75288 0.0
C343 C 0.64912 0.80784 0.73865 0.0
C344 C 0.64331 0.83185 0.72731 0.0
N345 N 0.67159 0.94114 0.6958 0.0
C346 C 0.71062 1.00011 0.68516 0.0
C347 C 0.69595 0.99319 0.66593 0.0
C348 C 0.66679 0.96028 0.6625 0.0
C349 C 0.65506 0.93506 0.67747 0.0
C350 C 0.69794 0.97419 0.69971 0.0
H351 H 0.63309 0.91062 0.67363 0.0
H352 H 0.7108 0.98146 0.71385 0.0
H353 H 0.6756 0.89715 0.75928 0.0
H354 H 0.63101 0.82386 0.71292 0.0
C355 C 0.61345 0.84778 0.68009 0.0
C356 C 0.58078 0.90142 0.73399 0.0
C357 C 0.738 0.89158 0.70162 0.0
C358 C 0.71157 0.96025 0.74833 0.0
H359 H 0.52061 0.85999 0.70803 0.0
H360 H 0.53754 0.82856 0.67971 0.0
H361 H 0.65369 0.82718 0.65389 0.0
H362 H 0.72264 0.85195 0.66586 0.0
H363 H 0.79998 0.9348 0.72552 0.0
H364 H 0.78636 0.97347 0.75112 0.0
H365 H 0.67191 0.9827 0.77382 0.0
H366 H 0.60075 0.94909 0.76676 0.0
H367 H 0.68669 0.85776 0.77915 0.0
H368 H 0.64155 0.78275 0.7324 0.0
H369 H 0.73296 0.02507 0.6889 0.0
H370 H 0.6532 0.95366 0.64819 0.0
C371 C 0.85637 0.70018 0.92452 0.0
C372 C 0.85903 0.71469 0.94312 0.0
C373 C 0.8313 0.72361 0.94418 0.0
C374 C 0.81337 0.71406 0.92622 0.0
N375 N 0.82804 0.6996 0.91405 0.0
Co376 Co 0.81162 0.68311 0.88665 0.0
N377 N 0.78687 0.71224 0.88394 0.0
C378 C 0.77719 0.72613 0.89918 0.0
C379 C 0.75907 0.74391 0.89314 0.0
C380 C 0.75681 0.7407 0.87286 0.0
C381 C 0.77386 0.72111 0.86755 0.0
N382 N 0.79451 0.66603 0.85934 0.0
C383 C 0.78077 0.6785 0.84491 0.0
C384 C 0.77252 0.65817 0.82798 0.0
C385 C 0.78027 0.63171 0.83227 0.0
C386 C 0.79317 0.63732 0.85145 0.0
N387 N 0.83722 0.65484 0.88959 0.0
C388 C 0.8315 0.62743 0.87852 0.0
C389 C 0.85523 0.61462 0.88337 0.0
C390 C 0.87716 0.63546 0.89837 0.0
C391 C 0.86559 0.65988 0.9018 0.0
N392 N 0.76575 0.64474 0.89712 0.0
C393 C 0.70162 0.58316 0.90645 0.0
C394 C 0.7346 0.59269 0.91682 0.0
C395 C 0.76629 0.62353 0.91195 0.0
C396 C 0.70112 0.60649 0.89237 0.0
C397 C 0.73307 0.63684 0.888 0.0
N398 N 0.8573 0.72031 0.87579 0.0
C399 C 0.90828 0.73712 0.85327 0.0
C400 C 0.92673 0.76983 0.86191 0.0
C401 C 0.90855 0.77753 0.87729 0.0
C402 C 0.87375 0.7526 0.88383 0.0
C403 C 0.87432 0.71289 0.86054 0.0
H404 H 0.86061 0.75911 0.89574 0.0
H405 H 0.86235 0.68772 0.85398 0.0
H406 H 0.79161 0.62947 0.91959 0.0
H407 H 0.73146 0.65308 0.87648 0.0
C408 C 0.7891 0.72516 0.9186 0.0
C409 C 0.8805 0.68663 0.91725 0.0
C410 C 0.77267 0.70775 0.8473 0.0
C411 C 0.80985 0.6199 0.86125 0.0
H412 H 0.87919 0.71883 0.95454 0.0
H413 H 0.82635 0.73738 0.95612 0.0
H414 H 0.74905 0.75788 0.90233 0.0
H415 H 0.74308 0.75076 0.86321 0.0
H416 H 0.76183 0.66186 0.81401 0.0
H417 H 0.77801 0.61152 0.82231 0.0
H418 H 0.85778 0.5939 0.87613 0.0
H419 H 0.89924 0.63321 0.90579 0.0
H420 H 0.73646 0.57568 0.9279 0.0
H421 H 0.67626 0.60087 0.88423 0.0
H422 H 0.91991 0.72979 0.84093 0.0
H423 H 0.92133 0.80224 0.88466 0.0
C424 C 0.18223 0.83259 0.08604 0.0
C425 C 0.17063 0.83758 0.10454 0.0
C426 C 0.13434 0.8137 0.10621 0.0
C427 C 0.1257 0.79562 0.08868 0.0
N428 N 0.15434 0.80667 0.07616 0.0
Co429 Co 0.15343 0.78899 0.04895 0.0
N430 N 0.09929 0.76884 0.0471 0.0
C431 C 0.07638 0.76249 0.06259 0.0
C432 C 0.04044 0.74972 0.05684 0.0
C433 C 0.04073 0.74766 0.03651 0.0
C434 C 0.07698 0.75887 0.0309 0.0
N435 N 0.15249 0.77107 0.02184 0.0
C436 C 0.12588 0.76051 0.0077 0.0
C437 C 0.13655 0.74911 0.99095 0.0
C438 C 0.17094 0.75274 0.99486 0.0
C439 C 0.17939 0.76598 0.01377 0.0
N440 N 0.20741 0.80947 0.05087 0.0
C441 C 0.22884 0.80085 0.03972 0.0
C442 C 0.2655 0.82077 0.04395 0.0
C443 C 0.26691 0.84316 0.05864 0.0
C444 C 0.23098 0.83571 0.06252 0.0
N445 N 0.14846 0.74529 0.0602 0.0
C446 C 0.14567 0.68358 0.07478 0.0
C447 C 0.16851 0.71558 0.08353 0.0
C448 C 0.16965 0.74588 0.07603 0.0
C449 C 0.12404 0.68333 0.05858 0.0
C450 C 0.12553 0.71424 0.05168 0.0
N451 N 0.15946 0.83259 0.03762 0.0
C452 C 0.19149 0.87945 0.01474 0.0
C453 C 0.17552 0.89815 0.02327 0.0
C454 C 0.15072 0.88317 0.03897 0.0
C455 C 0.14262 0.85008 0.04574 0.0
C456 C 0.18345 0.84709 0.0222 0.0
H457 H 0.12331 0.83893 0.05776 0.0
H458 H 0.19752 0.83421 0.01572 0.0
H459 H 0.18813 0.76996 0.08294 0.0
H460 H 0.10829 0.71296 0.0393 0.0
C461 C 0.09015 0.77442 0.08167 0.0
C462 C 0.21969 0.85217 0.0782 0.0
C463 C 0.08923 0.75812 0.01037 0.0
C464 C 0.21409 0.77955 0.02298 0.0
H465 H 0.1863 0.85673 0.11556 0.0
H466 H 0.11592 0.81138 0.11824 0.0
H467 H 1.017 0.74413 0.06621 0.0
H468 H 1.01685 0.73909 0.02707 0.0
H469 H 0.12096 0.73892 0.97744 0.0
H470 H 0.18817 0.74747 0.98483 0.0
H471 H 0.28857 0.82034 0.03656 0.0
H472 H 0.29143 0.86271 0.06566 0.0
H473 H 0.18597 0.71736 0.09599 0.0
H474 H 0.10556 0.65934 0.05145 0.0
H475 H 0.21083 0.89016 1.0026 0.0
H476 H 0.13753 0.89677 0.04582 0.0
C477 C 0.47756 0.16309 0.213 0.0
C478 C 0.51142 0.18403 0.20439 0.0
C479 C 0.50665 0.20627 0.19206 0.0
C480 C 0.47017 0.19734 0.19334 0.0
N481 N 0.45122 0.17062 0.20562 0.0
Co482 Co 0.3966 0.14747 0.20947 0.0
N483 N 0.38863 0.17202 0.18625 0.0
C484 C 0.4153 0.19847 0.17632 0.0
C485 C 0.4026 0.21099 0.16126 0.0
C486 C 0.36536 0.19184 0.16187 0.0
C487 C 0.35723 0.1684 0.17737 0.0
N488 N 0.34233 0.1244 0.21348 0.0
C489 C 0.31497 0.12456 0.20219 0.0
C490 C 0.28091 0.10396 0.21064 0.0
C491 C 0.28717 0.09181 0.22818 0.0
C492 C 0.32454 0.10521 0.22938 0.0
N493 N 0.40501 0.12292 0.23242 0.0
C494 C 0.38023 0.10577 0.24668 0.0
C495 C 0.39361 0.09307 0.26139 0.0
C496 C 0.42918 0.10282 0.25618 0.0
C497 C 0.43557 0.12071 0.23837 0.0
N498 N 0.40056 0.18483 0.22762 0.0
C499 C 0.39231 0.22776 0.25633 0.0
C500 C 0.41835 0.21583 0.25893 0.0
C501 C 0.42205 0.19437 0.24439 0.0
C502 C 0.37282 0.21975 0.23852 0.0
C503 C 0.37747 0.19883 0.22457 0.0
N504 N 0.39041 0.1096 0.19138 0.0
C505 C 0.3533 0.04998 0.18199 0.0
C506 C 0.3654 0.05701 0.16221 0.0
C507 C 0.39294 0.09059 0.15795 0.0
C508 C 0.40504 0.11629 0.17265 0.0
C509 C 0.36635 0.07633 0.19626 0.0
H510 H 0.42496 0.14192 0.1685 0.0
H511 H 0.35514 0.06992 0.211 0.0
H512 H 0.44139 0.18473 0.24704 0.0
H513 H 0.3608 0.19318 0.21168 0.0
C514 C 0.45205 0.20931 0.18062 0.0
C515 C 0.47184 0.13717 0.2285 0.0
C516 C 0.31998 0.14845 0.18565 0.0
C517 C 0.3437 0.09869 0.24451 0.0
H518 H 0.53694 0.18311 0.20624 0.0
H519 H 0.52699 0.22536 0.18241 0.0
H520 H 0.41851 0.23177 0.1511 0.0
H521 H 0.34671 0.19602 0.1524 0.0
H522 H 0.25444 0.09978 0.20517 0.0
H523 H 0.26689 0.07538 0.23885 0.0
H524 H 0.37904 0.07796 0.27419 0.0
H525 H 0.44833 0.09772 0.26474 0.0
H526 H 0.43469 0.22191 0.27237 0.0
H527 H 0.35333 0.22919 0.23539 0.0
H528 H 0.33233 0.02471 0.18636 0.0
H529 H 0.40452 0.09741 0.14319 0.0
C530 C 0.19075 0.32971 0.42133 0.0
C531 C 0.17838 0.3038 0.43562 0.0
C532 C 0.20363 0.29204 0.43678 0.0
C533 C 0.22908 0.30973 0.42247 0.0
N534 N 0.22129 0.33195 0.4123 0.0
Co535 Co 0.24371 0.35408 0.38656 0.0
N536 N 0.26423 0.32178 0.38194 0.0
C537 C 0.26869 0.30215 0.39593 0.0
C538 C 0.28422 0.2828 0.38883 0.0
C539 C 0.29047 0.29103 0.36912 0.0
C540 C 0.27832 0.3151 0.36528 0.0
N541 N 0.26629 0.3763 0.36087 0.0
C542 C 0.28129 0.36579 0.3461 0.0
C543 C 0.29593 0.39071 0.33138 0.0
C544 C 0.29054 0.41785 0.33738 0.0
C545 C 0.27285 0.40809 0.35535 0.0
N546 N 0.22278 0.3858 0.39135 0.0
C547 C 0.23476 0.41689 0.38286 0.0
C548 C 0.2167 0.43419 0.38981 0.0
C549 C 0.1918 0.4125 0.40345 0.0
C550 C 0.19559 0.38274 0.40392 0.0
N551 N 0.28979 0.38699 0.40012 0.0
C552 C 0.35444 0.44762 0.41037 0.0
C553 C 0.32135 0.43801 0.42063 0.0
C554 C 0.28948 0.4075 0.4154 0.0
C555 C 0.35501 0.42408 0.39649 0.0
C556 C 0.32282 0.39417 0.39171 0.0
N557 N 0.19814 0.32288 0.37249 0.0
C558 C 0.15167 0.31658 0.34859 0.0
C559 C 0.13112 0.28149 0.35287 0.0
C560 C 0.14503 0.26747 0.36731 0.0
C561 C 0.17877 0.28851 0.37678 0.0
C562 C 0.18465 0.33661 0.35849 0.0
H563 H 0.189 0.27709 0.38768 0.0
H564 H 0.19899 0.36356 0.35493 0.0
H565 H 0.26405 0.40182 0.42279 0.0
H566 H 0.32446 0.37829 0.38002 0.0
C567 C 0.25263 0.29833 0.41454 0.0
C568 C 0.17447 0.35293 0.4172 0.0
C569 C 0.28523 0.33411 0.34645 0.0
C570 C 0.25863 0.42619 0.36648 0.0
H571 H 0.15287 0.29256 0.44371 0.0
H572 H 0.20134 0.27038 0.44546 0.0
H573 H 0.28948 0.26422 0.39687 0.0
H574 H 0.30337 0.28102 0.35891 0.0
H575 H 0.30978 0.38967 0.31795 0.0
H576 H 0.29822 0.44165 0.32943 0.0
H577 H 0.22033 0.45911 0.38509 0.0
H578 H 0.17318 0.41813 0.4121 0.0
H579 H 0.31944 0.45494 0.43169 0.0
H580 H 0.37998 0.42955 0.38856 0.0
H581 H 0.14199 0.32885 0.33784 0.0
H582 H 0.13024 0.24042 0.37106 0.0
C583 C 0.87083 0.21454 0.58499 0.0
C584 C 0.88448 0.2079 0.60242 0.0
C585 C 0.92158 0.22837 0.60212 0.0
C586 C 0.9285 0.246 0.58451 0.0
N587 N 0.89803 0.23894 0.57382 0.0
Co588 Co 0.89633 0.25454 0.54593 0.0
N589 N 0.95092 0.27704 0.54328 0.0
C590 C 0.97491 0.28315 0.55833 0.0
C591 C 1.01053 0.30479 0.55331 0.0
C592 C 1.00929 0.31262 0.53379 0.0
C593 C 0.97292 0.29419 0.52771 0.0
N594 N 0.89463 0.26826 0.5176 0.0
C595 C 0.92103 0.27907 0.50321 0.0
C596 C 0.9056 0.27762 0.4846 0.0
C597 C 0.8693 0.26794 0.4875 0.0
C598 C 0.8639 0.26265 0.50753 0.0
N599 N 0.84186 0.23275 0.5489 0.0
C600 C 0.81808 0.23545 0.53613 0.0
C601 C 0.78208 0.21593 0.54165 0.0
C602 C 0.7831 0.19936 0.5587 0.0
C603 C 0.81975 0.20963 0.5626 0.0
N604 N 0.90031 0.29973 0.55578 0.0
C605 C 0.9048 0.36294 0.57022 0.0
C606 C 0.88632 0.34776 0.55256 0.0
C607 C 0.8846 0.31679 0.54568 0.0
C608 C 0.92163 0.34599 0.58018 0.0
C609 C 0.9188 0.3149 0.57296 0.0
N610 N 0.89151 0.20991 0.53627 0.0
C611 C 0.85556 0.15692 0.51836 0.0
C612 C 0.87548 0.14161 0.52664 0.0
C613 C 0.90524 0.16214 0.53903 0.0
C614 C 0.91292 0.19616 0.54352 0.0
C615 C 0.86382 0.19051 0.52335 0.0
H616 H 0.93553 0.2108 0.5533 0.0
H617 H 0.84658 0.19994 0.51699 0.0
H618 H 0.87006 0.30729 0.53215 0.0
H619 H 0.93189 0.30381 0.58177 0.0
C620 C 0.96328 0.26728 0.5768 0.0
C621 C 0.83234 0.19564 0.57889 0.0
C622 C 0.96086 0.29213 0.50684 0.0
C623 C 0.82969 0.24891 0.51706 0.0
H624 H 0.86959 0.18937 0.61388 0.0
H625 H 0.94131 0.22903 0.61296 0.0
H626 H 0.03458 0.31379 0.56271 0.0
H627 H 0.03277 0.32977 0.52507 0.0
H628 H 0.91848 0.28204 0.4702 0.0
H629 H 0.84889 0.26362 0.4762 0.0
H630 H 0.75788 0.21198 0.53339 0.0
H631 H 0.7596 0.1807 0.56687 0.0
H632 H 0.87244 0.35924 0.54415 0.0
H633 H 0.93729 0.35659 0.59363 0.0
H634 H 0.8332 0.14297 0.50811 0.0
H635 H 0.92188 0.1518 0.54574 0.0
H636 H 0.14481 0.62761 0.05468 0.0
H637 H 0.14199 0.66522 0.1139 0.0
H638 H 0.13974 0.61275 0.12835 0.0
H639 H 0.08361 0.53718 0.06459 0.0
H640 H 0.10887 0.52168 0.04952 0.0
H641 H 0.10966 0.56196 0.04355 0.0
H642 H 0.18056 0.59273 0.04521 0.0
H643 H 0.17999 0.55256 0.05123 0.0
H644 H 0.20308 0.58912 0.06741 0.0
H645 H 0.13698 0.55606 0.13673 0.0
H646 H 0.13585 0.49969 0.1386 0.0
H647 H 0.14222 0.49741 0.07427 0.0
C648 C 0.14349 0.62468 0.07068 0.0
C649 C 0.14367 0.65091 0.08312 0.0
C650 C 0.14231 0.64598 0.104 0.0
C651 C 0.14085 0.61607 0.11238 0.0
C652 C 0.141 0.59098 0.09979 0.0
C653 C 0.14246 0.59493 0.07939 0.0
C654 C 0.14308 0.56408 0.06937 0.0
C655 C 0.10929 0.5451 0.05596 0.0
C656 C 0.1788 0.5753 0.05761 0.0
C657 C 0.14156 0.5422 0.08733 0.0
C658 C 0.14016 0.55829 0.10469 0.0
C659 C 0.13804 0.54325 0.12321 0.0
C660 C 0.1372 0.51099 0.12411 0.0
C661 C 0.13866 0.49364 0.10663 0.0
C662 C 0.14119 0.50985 0.08795 0.0
H663 H 0.67788 0.17771 0.26239 0.0
H664 H 0.63482 0.06822 0.27216 0.0
H665 H 0.57427 0.05838 0.25992 0.0
H666 H 0.59584 0.17812 0.28228 0.0
H667 H 0.5986 0.2117 0.26589 0.0
H668 H 0.63976 0.20991 0.27312 0.0
H669 H 0.65601 0.20894 0.23606 0.0
H670 H 0.61474 0.21045 0.22873 0.0
H671 H 0.62337 0.17625 0.21991 0.0
H672 H 0.51805 0.06026 0.24455 0.0
H673 H 0.46961 0.07417 0.23283 0.0
H674 H 0.54421 0.18272 0.24049 0.0
C675 C 0.65579 0.1516 0.2618 0.0
C676 C 0.66215 0.12358 0.26742 0.0
C677 C 0.63176 0.09005 0.26701 0.0
C678 C 0.5969 0.08421 0.26026 0.0
C679 C 0.59177 0.11226 0.2547 0.0
C680 C 0.62016 0.14542 0.25599 0.0
C681 C 0.60628 0.17123 0.2511 0.0
C682 C 0.61036 0.19409 0.26917 0.0
C683 C 0.6263 0.19301 0.23287 0.0
C684 C 0.56596 0.14743 0.24644 0.0
C685 C 0.55839 0.11347 0.24819 0.0
C686 C 0.52368 0.08682 0.24347 0.0
C687 C 0.49617 0.09498 0.23684 0.0
C688 C 0.50264 0.12955 0.2354 0.0
C689 C 0.53815 0.156 0.24075 0.0
H690 H 0.51281 0.61995 0.46293 0.0
H691 H 0.5514 0.65668 0.40328 0.0
H692 H 0.50189 0.60338 0.38941 0.0
H693 H 0.4863 0.52981 0.45362 0.0
H694 H 0.44582 0.51352 0.46895 0.0
H695 H 0.48449 0.55452 0.47454 0.0
H696 H 0.4425 0.58344 0.47292 0.0
H697 H 0.40372 0.54254 0.46728 0.0
H698 H 0.41563 0.57864 0.45087 0.0
H699 H 0.44889 0.5462 0.38157 0.0
H700 H 0.39505 0.48903 0.38013 0.0
H701 H 0.38771 0.48708 0.44452 0.0
C702 C 0.51097 0.61668 0.44696 0.0
C703 C 0.53627 0.64302 0.43425 0.0
C704 C 0.53237 0.63751 0.41341 0.0
C705 C 0.50432 0.60708 0.40535 0.0
C706 C 0.47981 0.58196 0.41819 0.0
C707 C 0.48265 0.58632 0.43856 0.0
C708 C 0.45206 0.55511 0.44886 0.0
C709 C 0.46813 0.53718 0.46229 0.0
C710 C 0.42699 0.56556 0.46069 0.0
C711 C 0.43181 0.53256 0.43111 0.0
C712 C 0.44859 0.54872 0.4136 0.0
C713 C 0.43564 0.53331 0.3952 0.0
C714 C 0.405 0.50056 0.39455 0.0
C715 C 0.38701 0.48296 0.41217 0.0
C716 C 0.4006 0.49961 0.43074 0.0
H717 H 0.90993 0.55012 0.56975 0.0
H718 H 0.91926 0.54845 0.63396 0.0
H719 H 0.91593 0.49121 0.63209 0.0
H720 H 0.84662 0.45871 0.56366 0.0
H721 H 0.86763 0.45419 0.54116 0.0
H722 H 0.86978 0.49497 0.54724 0.0
H723 H 0.94057 0.52448 0.5447 0.0
H724 H 0.93862 0.48381 0.53858 0.0
H725 H 0.96589 0.50838 0.55936 0.0
H726 H 0.91055 0.43378 0.6238 0.0
H727 H 0.90657 0.38088 0.60959 0.0
H728 H 0.90432 0.41892 0.55017 0.0
C729 C 0.91112 0.53759 0.58339 0.0
C730 C 0.91515 0.55418 0.60204 0.0
C731 C 0.91676 0.53679 0.61949 0.0
C732 C 0.91465 0.50404 0.6186 0.0
C733 C 0.91107 0.48859 0.60011 0.0
C734 C 0.90951 0.50474 0.58276 0.0
C735 C 0.90663 0.48237 0.56483 0.0
C736 C 0.87051 0.47195 0.55356 0.0
C737 C 0.93991 0.50087 0.55105 0.0
C738 C 0.90684 0.45132 0.57487 0.0
C739 C 0.90913 0.45552 0.59523 0.0
C740 C 0.90923 0.43042 0.60783 0.0
C741 C 0.90733 0.40038 0.5995 0.0
C742 C 0.90585 0.39534 0.57859 0.0
C743 C 0.90532 0.42141 0.56618 0.0
H744 H 0.5558 0.94929 0.74353 0.0
H745 H 0.52409 0.84045 0.74599 0.0
H746 H 0.46182 0.82806 0.75651 0.0
H747 H 0.50464 0.94621 0.78976 0.0
H748 H 0.49319 0.97884 0.78117 0.0
H749 H 0.5349 0.97916 0.77292 0.0
H750 H 0.51487 0.97869 0.7364 0.0
H751 H 0.47275 0.97761 0.74454 0.0
H752 H 0.47141 0.94478 0.72807 0.0
H753 H 0.40058 0.82685 0.76227 0.0
H754 H 0.34897 0.8371 0.77223 0.0
H755 H 0.42228 0.94684 0.77401 0.0
C756 C 0.53606 0.92293 0.74674 0.0
C757 C 0.54499 0.89574 0.74352 0.0
C758 C 0.51797 0.86167 0.74792 0.0
C759 C 0.4824 0.85435 0.75387 0.0
C760 C 0.4742 0.88148 0.75629 0.0
C761 C 0.50063 0.91522 0.75369 0.0
C762 C 0.48503 0.93955 0.75897 0.0
C763 C 0.50567 0.96229 0.77677 0.0
C764 C 0.48609 0.96146 0.74092 0.0
C765 C 0.4456 0.91416 0.76449 0.0
C766 C 0.43984 0.88081 0.76222 0.0
C767 C 0.40512 0.85285 0.76471 0.0
C768 C 0.37587 0.85895 0.77037 0.0
C769 C 0.38134 0.89266 0.77444 0.0
C770 C 0.41689 0.92069 0.77116 0.0
H771 H 0.54096 0.41622 0.96155 0.0
H772 H 0.50052 0.37719 0.90248 0.0
H773 H 0.551 0.42888 0.88776 0.0
H774 H 0.57028 0.5064 0.95043 0.0
H775 H 0.6109 0.52235 0.96568 0.0
H776 H 0.57138 0.48233 0.9719 0.0
H777 H 0.61148 0.45141 0.97123 0.0
H778 H 0.6511 0.49131 0.96493 0.0
H779 H 0.63769 0.45415 0.94926 0.0
H780 H 0.60524 0.4845 0.87903 0.0
H781 H 0.66026 0.54078 0.87672 0.0
H782 H 0.66835 0.54592 0.94109 0.0
C783 C 0.54261 0.41867 0.94553 0.0
C784 C 0.51656 0.39218 0.93322 0.0
C785 C 0.52015 0.39655 0.9123 0.0
C786 C 0.54875 0.42602 0.90376 0.0
C787 C 0.57404 0.45131 0.91621 0.0
C788 C 0.57143 0.44807 0.93665 0.0
C789 C 0.60282 0.47923 0.94648 0.0
C790 C 0.58795 0.49873 0.95939 0.0
C791 C 0.62721 0.46837 0.9587 0.0
C792 C 0.62327 0.50044 0.92837 0.0
C793 C 0.60593 0.48368 0.91111 0.0
C794 C 0.61896 0.49788 0.89245 0.0
C795 C 0.65027 0.53009 0.89131 0.0
C796 C 0.66875 0.54826 0.90867 0.0
C797 C 0.65509 0.53282 0.9275 0.0
H798 H 0.28493 0.15692 0.15187 0.0
H799 H 0.29503 0.17369 0.21566 0.0
H800 H 0.25546 0.20137 0.21376 0.0
H801 H 0.29453 0.24033 0.14091 0.0
H802 H 0.26329 0.22659 0.12012 0.0
H803 H 0.28794 0.20331 0.12655 0.0
H804 H 0.22653 0.14714 0.12934 0.0
H805 H 0.2017 0.17037 0.12302 0.0
H806 H 0.1912 0.14565 0.14567 0.0
H807 H 0.21781 0.22982 0.20535 0.0
H808 H 0.18911 0.26257 0.19064 0.0
H809 H 0.20757 0.23432 0.13155 0.0
C810 C 0.27878 0.16642 0.16542 0.0
C811 C 0.29334 0.16297 0.18395 0.0
C812 C 0.28414 0.17552 0.20131 0.0
C813 C 0.26161 0.1914 0.2004 0.0
C814 C 0.24861 0.19519 0.18194 0.0
C815 C 0.25712 0.18349 0.16468 0.0
C816 C 0.24243 0.19414 0.14661 0.0
C817 C 0.27392 0.21748 0.13273 0.0
C818 C 0.21376 0.16243 0.1355 0.0
C819 C 0.22477 0.21392 0.15646 0.0
C820 C 0.22819 0.21349 0.17688 0.0
C821 C 0.21501 0.23039 0.18938 0.0
C822 C 0.19883 0.24906 0.18084 0.0
C823 C 0.19625 0.25136 0.15992 0.0
C824 C 0.20872 0.23281 0.14758 0.0
H825 H 0.91328 0.16242 0.34184 0.0
H826 H 0.92507 0.19321 0.27998 0.0
H827 H 0.99275 0.22294 0.28387 0.0
H828 H 0.98302 0.24143 0.35991 0.0
H829 H 0.99893 0.22272 0.37896 0.0
H830 H 0.95201 0.20048 0.37067 0.0
H831 H 0.95981 0.14685 0.3623 0.0
H832 H 1.00681 0.16894 0.37057 0.0
H833 H 0.99619 0.15109 0.34588 0.0
H834 H 0.05885 0.25318 0.29531 0.0
H835 H 0.11796 0.28217 0.31306 0.0
H836 H 0.06376 0.23391 0.36817 0.0
C837 C 0.93024 0.17515 0.32909 0.0
C838 C 0.91404 0.17577 0.3106 0.0
C839 C 0.93699 0.19245 0.29422 0.0
C840 C 0.97542 0.20942 0.29634 0.0
C841 C 0.99054 0.20936 0.31495 0.0
C842 C 0.96865 0.19259 0.33104 0.0
C843 C 0.99163 0.19841 0.34974 0.0
C844 C 0.98075 0.21686 0.36576 0.0
C845 C 0.98841 0.16428 0.35758 0.0
C846 C 0.02988 0.22148 0.34176 0.0
C847 C 0.02859 0.22719 0.32161 0.0
C848 C 0.06011 0.24869 0.31105 0.0
C849 C 0.09362 0.26519 0.32131 0.0
C850 C 0.09572 0.26045 0.34206 0.0
C851 C 0.06331 0.23773 0.35229 0.0
H852 H 0.80565 0.08793 0.52183 0.0
H853 H 0.92005 0.11073 0.52151 0.0
H854 H 0.90128 0.05016 0.51267 0.0
H855 H 0.76803 1.00219 0.54163 0.0
H856 H 0.7277 0.98596 0.52614 0.0
H857 H 0.75029 0.03054 0.53339 0.0
H858 H 0.75676 0.04876 0.49634 0.0
H859 H 0.7342 1.00425 0.48899 0.0
H860 H 0.77896 0.03287 0.47927 0.0
H861 H 0.8691 0.98629 0.50266 0.0
H862 H 0.82723 0.92621 0.49317 0.0
H863 H 0.73467 0.94719 0.49825 0.0
C864 C 0.82698 0.08048 0.51977 0.0
C865 C 0.86452 0.10455 0.52229 0.0
C866 C 0.89114 0.093 0.5199 0.0
C867 C 0.88072 0.05859 0.51473 0.0
C868 C 0.84352 0.03585 0.51199 0.0
C869 C 0.81712 0.04645 0.51447 0.0
C870 C 0.77904 1.01741 0.51029 0.0
C871 C 0.75485 1.0085 0.52898 0.0
C872 C 0.7612 0.02637 0.49268 0.0
C873 C 0.78799 0.98871 0.50499 0.0
C874 C 0.82528 0.99971 0.50609 0.0
C875 C 0.83987 0.97755 0.50174 0.0
C876 C 0.8158 0.94341 0.49619 0.0
C877 C 0.77737 0.9315 0.49494 0.0
C878 C 0.76365 0.95487 0.49937 0.0
H879 H 0.8713 0.8241 0.65529 0.0
H880 H 0.80137 0.72897 0.68674 0.0
H881 H 0.77242 0.75769 0.70424 0.0
H882 H 0.87815 0.88559 0.69331 0.0
H883 H 0.87171 0.91391 0.67623 0.0
H884 H 0.89255 0.88822 0.6678 0.0
H885 H 0.84354 0.86184 0.64007 0.0
H886 H 0.82302 0.88788 0.64822 0.0
H887 H 0.79562 0.84186 0.64662 0.0
H888 H 0.74914 0.79504 0.71874 0.0
H889 H 0.72386 0.83548 0.72349 0.0
H890 H 0.79976 0.90416 0.67973 0.0
C891 C 0.85017 0.80908 0.66589 0.0
C892 C 0.84111 0.77429 0.67022 0.0
C893 C 0.8119 0.75609 0.68388 0.0
C894 C 0.79444 0.77213 0.69392 0.0
C895 C 0.80488 0.80633 0.68976 0.0
C896 C 0.83109 0.82437 0.6756 0.0
C897 C 0.83312 0.85944 0.67212 0.0
C898 C 0.87116 0.88851 0.6777 0.0
C899 C 0.82323 0.86295 0.65047 0.0
C900 C 0.80388 0.85792 0.68649 0.0
C901 C 0.78874 0.82727 0.69687 0.0
C902 C 0.76076 0.81917 0.71072 0.0
C903 C 0.74673 0.84234 0.71346 0.0
C904 C 0.76022 0.87296 0.70222 0.0
C905 C 0.78969 0.88124 0.68885 0.0
H906 H 0.98063 0.75587 0.84644 0.0
H907 H 0.95995 0.84128 0.86153 0.0
H908 H 1.02219 0.88182 0.85001 0.0
H909 H 0.07392 0.79383 0.85975 0.0
H910 H 0.08708 0.77572 0.83922 0.0
H911 H 0.04113 0.75365 0.8489 0.0
H912 H 1.01499 0.75368 0.81375 0.0
H913 H 0.061 0.77554 0.80408 0.0
H914 H 0.03033 0.79378 0.80059 0.0
H915 H 0.08915 0.91336 0.83826 0.0
H916 H 0.15297 0.93201 0.827 0.0
H917 H 0.12608 0.8259 0.81596 0.0
C918 C 0.98847 0.783 0.847 0.0
C919 C 0.96463 0.79497 0.85495 0.0
C920 C 0.97738 0.83103 0.85588 0.0
C921 C 1.01273 0.8544 0.84914 0.0
C922 C 0.03507 0.8415 0.84119 0.0
C923 C 1.0232 0.80657 0.83996 0.0
C924 C 0.05228 0.79904 0.83084 0.0
C925 C 0.0643 0.77941 0.84556 0.0
C926 C 0.03884 0.77935 0.81114 0.0
C927 C 0.08267 0.83521 0.82735 0.0
C928 C 0.07243 0.85945 0.8335 0.0
C929 C 0.09712 0.89456 0.83305 0.0
C930 C 0.13321 0.90499 0.82648 0.0
C931 C 0.14415 0.88047 0.82017 0.0
C932 C 0.1182 0.84523 0.8203 0.0
H933 H 0.21105 0.96069 0.04231 0.0
H934 H 0.16308 0.91365 0.98591 0.0
H935 H 0.18467 0.97125 0.97089 0.0
H936 H 0.19383 0.03603 0.03812 0.0
H937 H 0.2372 0.06491 0.04927 0.0
H938 H 0.21458 0.02012 0.05616 0.0
H939 H 0.27282 1.01534 0.04672 0.0
H940 H 0.29555 0.06001 0.03967 0.0
H941 H 0.29173 0.02762 0.02209 0.0
H942 H 0.21519 0.03354 0.96131 0.0
H943 H 0.253 0.09614 0.95757 0.0
H944 H 0.28209 0.10402 0.02013 0.0
C945 C 0.20432 0.96269 0.02696 0.0
C946 C 0.18483 0.9328 0.0153 0.0
C947 C 0.17756 0.93627 0.99509 0.0
C948 C 0.18974 0.96886 0.98646 0.0
C949 C 0.20944 0.99788 0.99819 0.0
C950 C 0.2167 0.99519 0.01802 0.0
C951 C 0.24066 0.03052 0.02686 0.0
C952 C 0.22035 0.03835 0.0436 0.0
C953 C 0.27736 0.03354 0.03427 0.0
C954 C 0.2461 0.05337 0.00887 0.0
C955 C 0.22757 0.03398 0.99255 0.0
C956 C 0.22939 0.04904 0.97406 0.0
C957 C 0.2508 0.0848 0.97213 0.0
C958 C 0.27038 0.10544 0.98856 0.0
C959 C 0.26762 0.08923 0.00721 0.0
H960 H 0.22314 0.30387 0.08781 0.0
H961 H 0.2816 0.41385 0.07784 0.0
H962 H 0.32574 0.40632 0.05632 0.0
H963 H 0.30187 0.28581 0.08575 0.0
H964 H 0.27691 0.2465 0.07197 0.0
H965 H 0.25294 0.26085 0.0888 0.0
H966 H 0.20975 0.25873 0.06028 0.0
H967 H 0.23353 0.24441 0.04335 0.0
H968 H 0.22911 0.28236 0.03769 0.0
H969 H 0.36203 0.38675 0.03445 0.0
H970 H 0.38427 0.35635 0.01168 0.0
H971 H 0.29969 0.25842 0.03309 0.0
C972 C 0.24587 0.32641 0.08149 0.0
C973 C 0.25003 0.35971 0.08543 0.0
C974 C 0.27903 0.38837 0.07607 0.0
C975 C 0.30402 0.38425 0.06358 0.0
C976 C 0.29928 0.35116 0.06011 0.0
C977 C 0.27065 0.32264 0.06861 0.0
C978 C 0.2696 0.2897 0.06086 0.0
C979 C 0.2757 0.26953 0.07786 0.0
C980 C 0.23335 0.2675 0.04989 0.0
C981 C 0.30192 0.30412 0.04655 0.0
C982 C 0.31896 0.33969 0.04661 0.0
C983 C 0.34899 0.35894 0.03438 0.0
C984 C 0.36154 0.34152 0.02155 0.0
C985 C 0.34395 0.30517 0.0208 0.0
C986 C 0.31393 0.28625 0.0336 0.0
H987 H 0.91692 0.20304 0.23446 0.0
H988 H 0.89078 0.28677 0.24356 0.0
H989 H 0.94514 0.32509 0.22375 0.0
H990 H 1.01577 0.25427 0.23675 0.0
H991 H 1.02407 0.23003 0.21768 0.0
H992 H 0.98381 0.20951 0.23309 0.0
H993 H 0.94263 0.19105 0.20169 0.0
H994 H 0.98274 0.2114 0.18619 0.0
H995 H 0.94654 0.2232 0.18384 0.0
H996 H 1.00133 0.35389 0.20136 0.0
H997 H 0.05439 0.37053 0.17882 0.0
H998 H 0.04448 0.26846 0.18421 0.0
C999 C 0.92235 0.22937 0.23221 0.0
C1000 C 0.89909 0.24165 0.24064 0.0
C1001 C 0.90805 0.2766 0.23754 0.0
C1002 C 0.9389 0.29859 0.22618 0.0
C1003 C 0.96094 0.28552 0.21801 0.0
C1004 C 0.95308 0.2517 0.22094 0.0
C1005 C 0.98091 0.24387 0.21035 0.0
C1006 C 1.00241 0.23383 0.22536 0.0
C1007 C 0.96207 0.21571 0.19458 0.0
C1008 C 1.00544 0.27844 0.20077 0.0
C1009 C 0.9935 0.30217 0.20544 0.0
C1010 C 1.01108 0.33558 0.19785 0.0
C1011 C 0.04135 0.3449 0.18514 0.0
C1012 C 0.05417 0.32111 0.18015 0.0
C1013 C 0.03581 0.28741 0.18811 0.0
H1014 H 0.74941 0.02727 0.37913 0.0
H1015 H 0.65657 0.98434 0.3385 0.0
H1016 H 0.62874 0.93149 0.35846 0.0
H1017 H 0.75526 0.94895 0.38476 0.0
H1018 H 0.76866 0.95628 0.41053 0.0
H1019 H 0.78004 0.99224 0.39413 0.0
H1020 H 0.74734 1.01548 0.41781 0.0
H1021 H 0.73573 0.97947 0.43424 0.0
H1022 H 0.70016 0.98819 0.42454 0.0
H1023 H 0.61135 0.88144 0.38223 0.0
H1024 H 0.60783 0.8381 0.40691 0.0
H1025 H 0.71321 0.9111 0.43088 0.0
C1026 C 0.7233 1.00691 0.37421 0.0
C1027 C 0.70536 1.01094 0.35704 0.0
C1028 C 0.67087 0.98309 0.35171 0.0
C1029 C 0.6548 0.95252 0.36293 0.0
C1030 C 0.6734 0.94952 0.37953 0.0
C1031 C 0.70704 0.9759 0.38509 0.0
C1032 C 0.72222 0.96535 0.40298 0.0
C1033 C 0.7587 0.96573 0.39778 0.0
C1034 C 0.72662 0.9885 0.42095 0.0
C1035 C 0.69198 0.92888 0.4065 0.0
C1036 C 0.66386 0.92039 0.39292 0.0
C1037 C 0.63312 0.88797 0.39299 0.0
C1038 C 0.63121 0.86354 0.40712 0.0
C1039 C 0.65984 0.87145 0.42103 0.0
C1040 C 0.69062 0.9046 0.42065 0.0
H1041 H 0.78356 0.65388 0.56874 0.0
H1042 H 0.82128 0.73708 0.61132 0.0
H1043 H 0.78699 0.76223 0.5934 0.0
H1044 H 0.79242 0.70348 0.52684 0.0
H1045 H 0.75211 0.67242 0.51403 0.0
H1046 H 0.77521 0.65819 0.53154 0.0
H1047 H 0.71504 0.62507 0.55147 0.0
H1048 H 0.69152 0.63869 0.53381 0.0
H1049 H 0.69049 0.64742 0.55991 0.0
H1050 H 0.75485 0.78223 0.56833 0.0
H1051 H 0.72469 0.79344 0.53937 0.0
H1052 H 0.7047 0.69598 0.51368 0.0
C1053 C 0.78321 0.67657 0.5747 0.0
C1054 C 0.80415 0.69304 0.59179 0.0
C1055 C 0.80457 0.72361 0.59862 0.0
C1056 C 0.78537 0.73818 0.58843 0.0
C1057 C 0.76571 0.72189 0.57134 0.0
C1058 C 0.76401 0.69144 0.56467 0.0
C1059 C 0.74278 0.68032 0.54522 0.0
C1060 C 0.76708 0.6785 0.52842 0.0
C1061 C 0.70788 0.64582 0.54776 0.0
C1062 C 0.7335 0.70955 0.54177 0.0
C1063 C 0.74701 0.7333 0.557 0.0
C1064 C 0.74379 0.76353 0.55648 0.0
C1065 C 0.72666 0.76975 0.53996 0.0
C1066 C 0.71288 0.74598 0.52408 0.0
C1067 C 0.7156 0.71505 0.52537 0.0
H1068 H 0.16189 0.7862 0.72302 0.0
H1069 H 0.10794 0.80029 0.77478 0.0
H1070 H 0.04858 0.77331 0.75693 0.0
H1071 H 0.11074 0.8031 0.68615 0.0
H1072 H 0.10792 0.77036 0.66914 0.0
H1073 H 0.146 0.78983 0.68612 0.0
H1074 H 0.13135 0.72978 0.69991 0.0
H1075 H 0.09339 0.7101 0.68286 0.0
H1076 H 0.08597 0.70181 0.70914 0.0
H1077 H 0.99564 0.74925 0.73204 0.0
H1078 H 0.95321 0.72592 0.70336 0.0
H1079 H 0.03963 0.72126 0.66911 0.0
C1080 C 0.13748 0.78325 0.73064 0.0
C1081 C 0.13959 0.79526 0.75038 0.0
C1082 C 0.10696 0.79091 0.7598 0.0
C1083 C 0.07312 0.77578 0.74971 0.0
C1084 C 0.07199 0.76447 0.73022 0.0
C1085 C 0.10322 0.76744 0.7209 0.0
C1086 C 0.09441 0.75284 0.69996 0.0
C1087 C 0.11606 0.7807 0.68443 0.0
C1088 C 0.10171 0.72178 0.69785 0.0
C1089 C 0.05363 0.74191 0.69879 0.0
C1090 C 0.04126 0.74912 0.71633 0.0
C1091 C 1.00504 0.74317 0.71833 0.0
C1092 C 0.98108 0.7299 0.70198 0.0
C1093 C 0.99314 0.72238 0.68383 0.0
C1094 C 0.02972 0.72759 0.68255 0.0
H1095 H 0.40258 0.17935 0.89755 0.0
H1096 H 0.3515 0.12916 0.95276 0.0
H1097 H 0.33262 0.07227 0.93717 0.0
H1098 H 0.33278 0.11932 0.86564 0.0
H1099 H 0.36393 0.12118 0.84635 0.0
H1100 H 0.37579 0.15773 0.86229 0.0
H1101 H 0.43632 0.15729 0.87204 0.0
H1102 H 0.42469 0.12075 0.85609 0.0
H1103 H 0.43476 0.11855 0.88198 0.0
H1104 H 0.31682 0.02073 0.91489 0.0
H1105 H 0.30484 0.97868 0.88809 0.0
H1106 H 0.36523 0.06218 0.84678 0.0
C1107 C 0.38749 0.15632 0.90633 0.0
C1108 C 0.37818 0.15853 0.92634 0.0
C1109 C 0.35888 0.12794 0.93744 0.0
C1110 C 0.348 0.09557 0.92867 0.0
C1111 C 0.35676 0.09418 0.90875 0.0
C1112 C 0.37613 0.12378 0.89772 0.0
C1113 C 0.38078 0.11515 0.87638 0.0
C1114 C 0.36221 0.12918 0.86181 0.0
C1115 C 0.42157 0.12874 0.87133 0.0
C1116 C 0.36078 0.07609 0.87704 0.0
C1117 C 0.34737 0.06455 0.8959 0.0
C1118 C 0.32751 0.02955 0.90013 0.0
C1119 C 0.32106 1.00576 0.88475 0.0
C1120 C 0.33427 1.01677 0.86518 0.0
C1121 C 0.35451 0.05263 0.86144 0.0
H1122 H 0.73056 0.83468 0.77836 0.0
H1123 H 0.62725 0.74694 0.76243 0.0
H1124 H 0.64427 0.70911 0.78225 0.0
H1125 H 0.7857 0.79009 0.77708 0.0
H1126 H 0.81369 0.81332 0.79798 0.0
H1127 H 0.79379 0.83329 0.78216 0.0
H1128 H 0.76304 0.84479 0.81273 0.0
H1129 H 0.78293 0.82497 0.82864 0.0
H1130 H 0.73402 0.80944 0.82862 0.0
H1131 H 0.67112 0.68128 0.80589 0.0
H1132 H 0.70626 0.66573 0.83004 0.0
H1133 H 0.79328 0.77088 0.82967 0.0
C1134 C 0.71138 0.80752 0.77907 0.0
C1135 C 0.67733 0.79394 0.76881 0.0
C1136 C 0.65351 0.75808 0.76995 0.0
C1137 C 0.66293 0.73636 0.78127 0.0
C1138 C 0.69652 0.75067 0.7913 0.0
C1139 C 0.72048 0.78543 0.79019 0.0
C1140 C 0.75481 0.79444 0.80245 0.0
C1141 C 0.78902 0.80862 0.78912 0.0
C1142 C 0.75893 0.81992 0.8191 0.0
C1143 C 0.74629 0.75942 0.81087 0.0
C1144 C 0.71249 0.7345 0.80427 0.0
C1145 C 0.6979 0.70051 0.81081 0.0
C1146 C 0.7182 0.69182 0.82443 0.0
C1147 C 0.75309 0.71678 0.83126 0.0
C1148 C 0.76717 0.75104 0.82431 0.0
H1149 H 0.90029 0.6585 0.94886 0.0
H1150 H 0.94332 0.74353 0.90731 0.0
H1151 H 1.00272 0.7695 0.9253 0.0
H1152 H 0.94111 0.7074 0.99174 0.0
H1153 H 0.95116 0.67599 1.0036 0.0
H1154 H 0.9134 0.6623 0.98642 0.0
H1155 H 0.94065 0.63062 0.9653 0.0
H1156 H 0.97833 0.64389 0.98255 0.0
H1157 H 0.98721 0.65384 0.95649 0.0
H1158 H 0.05598 0.78873 0.94974 0.0
H1159 H 0.09865 0.7987 0.97793 0.0
H1160 H 1.02237 0.70037 1.00316 0.0
C1161 C 0.92268 0.68205 0.94328 0.0
C1162 C 0.91761 0.69871 0.92642 0.0
C1163 C 0.94699 0.73009 0.91993 0.0
C1164 C 0.98074 0.74507 0.93013 0.0
C1165 C 0.98482 0.72838 0.94689 0.0
C1166 C 0.95667 0.69736 0.95333 0.0
C1167 C 0.96759 0.68559 0.97231 0.0
C1168 C 0.94177 0.68265 0.98953 0.0
C1169 C 0.9685 0.65146 0.96896 0.0
C1170 C 1.00595 0.71498 0.97574 0.0
C1171 C 1.0154 0.73941 0.96089 0.0
C1172 C 0.04886 0.76958 0.96133 0.0
C1173 C 0.07297 0.77508 0.97739 0.0
C1174 C 0.06369 0.75069 0.99292 0.0
C1175 C 0.03001 0.71986 0.99173 0.0
H1176 H 0.2516 0.86658 0.1156 0.0
H1177 H 0.24641 0.91487 0.06039 0.0
H1178 H 0.28546 0.9723 0.07512 0.0
H1179 H 0.24488 0.92763 0.14773 0.0
H1180 H 0.2759 0.92651 0.16627 0.0
H1181 H 0.24999 0.88941 0.15092 0.0
H1182 H 0.31012 0.88969 0.13965 0.0
H1183 H 0.33623 0.92674 0.15503 0.0
H1184 H 0.34624 0.92814 0.12887 0.0
H1185 H 0.32205 0.02474 0.09684 0.0
H1186 H 0.3534 0.0676 0.12302 0.0
H1187 H 0.33583 0.98544 0.16444 0.0
C1188 C 0.25902 0.88931 0.1066 0.0
C1189 C 0.24594 0.88637 0.08684 0.0
C1190 C 0.25629 0.91661 0.0755 0.0
C1191 C 0.27836 0.9493 0.08379 0.0
C1192 C 0.29015 0.95142 0.10348 0.0
C1193 C 0.28098 0.92219 0.11471 0.0
C1194 C 0.29611 0.93158 0.13572 0.0
C1195 C 0.26486 0.91797 0.15106 0.0
C1196 C 0.32383 0.91825 0.14007 0.0
C1197 C 0.31495 0.97065 0.13466 0.0
C1198 C 0.31128 0.98154 0.11591 0.0
C1199 C 0.32545 1.01641 0.11149 0.0
C1200 C 0.34362 0.04072 0.12654 0.0
C1201 C 0.34783 0.03043 0.14602 0.0
C1202 C 0.33323 0.99463 0.1499 0.0
H1203 H 0.32484 0.21718 0.26936 0.0
H1204 H 0.44107 0.28446 0.2777 0.0
H1205 H 0.42644 0.32131 0.30001 0.0
H1206 H 0.29594 0.28191 0.26815 0.0
H1207 H 0.25401 0.25687 0.28165 0.0
H1208 H 0.27368 0.23563 0.2668 0.0
H1209 H 0.27508 0.20048 0.29744 0.0
H1210 H 0.2548 0.22117 0.31228 0.0
H1211 H 0.29746 0.22274 0.31992 0.0
H1212 H 0.39806 0.35207 0.32071 0.0
H1213 H 0.35929 0.36967 0.34081 0.0
H1214 H 0.26181 0.28163 0.31914 0.0
C1215 C 0.34729 0.23962 0.27594 0.0
C1216 C 0.38422 0.248 0.27166 0.0
C1217 C 0.41266 0.27735 0.28082 0.0
C1218 C 0.40453 0.29858 0.29337 0.0
C1219 C 0.36779 0.29002 0.2968 0.0
C1220 C 0.33966 0.26084 0.28857 0.0
C1221 C 0.30245 0.25666 0.29488 0.0
C1222 C 0.28022 0.25784 0.27679 0.0
C1223 C 0.2812 0.22329 0.30684 0.0
C1224 C 0.31382 0.28814 0.30792 0.0
C1225 C 0.35164 0.30727 0.30872 0.0
C1226 C 0.36849 0.33727 0.32007 0.0
C1227 C 0.34628 0.34733 0.33127 0.0
C1228 C 0.30758 0.32752 0.33112 0.0
C1229 C 0.29126 0.29775 0.3191 0.0
H1230 H 0.15506 0.33838 0.45748 0.0
H1231 H 0.11661 0.36108 0.40214 0.0
H1232 H 0.06035 0.35373 0.4194 0.0
H1233 H 0.06543 0.26197 0.4635 0.0
H1234 H 0.0686 0.26297 0.49025 0.0
H1235 H 0.10962 0.27885 0.47544 0.0
H1236 H 0.1358 0.33728 0.4937 0.0
H1237 H 0.09479 0.32178 0.50852 0.0
H1238 H 0.1097 0.36063 0.49415 0.0
H1239 H 1.01189 0.3509 0.44648 0.0
H1240 H 0.96749 0.33403 0.47407 0.0
H1241 H 1.02221 0.28209 0.5027 0.0
C1242 C 0.13429 0.33996 0.4484 0.0
C1243 C 0.1405 0.34932 0.42802 0.0
C1244 C 0.11318 0.35423 0.41774 0.0
C1245 C 0.08091 0.34989 0.42742 0.0
C1246 C 0.075 0.33845 0.44713 0.0
C1247 C 0.10023 0.33172 0.45704 0.0
C1248 C 0.0847 0.3132 0.47654 0.0
C1249 C 0.08191 0.2771 0.47642 0.0
C1250 C 0.10762 0.33451 0.49427 0.0
C1251 C 0.04705 0.31136 0.47633 0.0
C1252 C 0.04285 0.32799 0.45989 0.0
C1253 C 1.01367 0.33564 0.45866 0.0
C1254 C 0.98789 0.32516 0.47429 0.0
C1255 C 0.98913 0.30433 0.49016 0.0
C1256 C 1.01936 0.29723 0.49079 0.0
H1257 H 0.72646 0.06464 0.66793 0.0
H1258 H 0.70308 0.98145 0.62636 0.0
H1259 H 0.73163 0.0237 0.59947 0.0
H1260 H 0.712 0.12116 0.63351 0.0
H1261 H 0.74934 0.15974 0.64338 0.0
H1262 H 0.72503 0.12291 0.65924 0.0
H1263 H 0.78622 0.12307 0.66818 0.0
H1264 H 0.81069 0.1599 0.65237 0.0
H1265 H 0.81504 0.12144 0.64853 0.0
H1266 H 0.76599 0.07549 0.57705 0.0
H1267 H 0.80356 0.13252 0.56149 0.0
H1268 H 0.80504 0.18221 0.61725 0.0
C1269 C 0.72724 0.05514 0.6532 0.0
C1270 C 0.71195 1.0193 0.64945 0.0
C1271 C 0.71362 1.00847 0.62976 0.0
C1272 C 0.73011 0.03239 0.61431 0.0
C1273 C 0.74502 0.06735 0.61859 0.0
C1274 C 0.7437 0.07873 0.63756 0.0
C1275 C 0.76282 0.11781 0.63832 0.0
C1276 C 0.73567 0.13118 0.64394 0.0
C1277 C 0.79564 0.13134 0.6527 0.0
C1278 C 0.77545 0.12662 0.6169 0.0
C1279 C 0.76479 0.09712 0.60572 0.0
C1280 C 0.77424 0.09871 0.58567 0.0
C1281 C 0.79547 0.13116 0.57692 0.0
C1282 C 0.80722 0.16166 0.58817 0.0
C1283 C 0.79647 0.15925 0.60833 0.0
loop_
_geom_bond_atom_site_label_1
_geom_bond_atom_site_label_2
_geom_bond_distance
_geom_bond_site_symmetry_2
_ccdc_geom_bond_type
C0 C1 1.443 . S
C0 N4 1.376 . S
C0 C38 1.389 . S
C1 C0 1.443 . S
C1 C2 1.340 . S
C1 H41 0.951 . S
C2 C1 1.340 . S
C2 C3 1.439 . S
C2 H42 0.950 . S
C3 C2 1.439 . S
C3 N4 1.374 . S
C3 C37 1.395 . S
N4 C0 1.376 . S
N4 C3 1.374 . S
N4 Co5 2.008 . S
Co5 N4 2.008 . S
Co5 N6 1.995 . S
Co5 N11 2.008 . S
Co5 N16 1.995 . S
Co5 N21 2.282 . S
Co5 N27 2.282 . S
N6 Co5 1.995 . S
N6 C7 1.376 . S
N6 C10 1.383 . S
C7 N6 1.376 . S
C7 C8 1.446 . S
C7 C37 1.391 . S
C8 C7 1.446 . S
C8 C9 1.339 . S
C8 H43 0.949 . S
C9 C8 1.339 . S
C9 C10 1.439 . S
C9 H44 0.950 . S
C10 N6 1.383 . S
C10 C9 1.439 . S
C10 C39 1.392 . S
N11 Co5 2.008 . S
N11 C12 1.376 . S
N11 C15 1.374 . S
C12 N11 1.376 . S
C12 C13 1.443 . S
C12 C39 1.389 . S
C13 C12 1.443 . S
C13 C14 1.340 . S
C13 H45 0.951 . S
C14 C13 1.340 . S
C14 C15 1.439 . S
C14 H46 0.950 . S
C15 N11 1.374 . S
C15 C14 1.439 . S
C15 C40 1.395 . S
N16 Co5 1.995 . S
N16 C17 1.376 . S
N16 C20 1.383 . S
C17 N16 1.376 . S
C17 C18 1.446 . S
C17 C40 1.391 . S
C18 C17 1.446 . S
C18 C19 1.339 . S
C18 H47 0.949 . S
C19 C18 1.339 . S
C19 C20 1.439 . S
C19 H48 0.950 . S
C20 N16 1.383 . S
C20 C19 1.439 . S
C20 C38 1.392 . S
N21 Co5 2.282 . S
N21 C24 1.332 . S
N21 C26 1.332 . S
C22 C23 1.386 . S
C22 C25 1.388 . S
C23 C22 1.386 . S
C23 C24 1.382 . S
C23 H49 0.950 . S
C24 N21 1.332 . S
C24 C23 1.382 . S
C24 H35 0.952 . S
C25 C22 1.388 . S
C25 C26 1.382 . S
C25 H50 0.950 . S
C26 N21 1.332 . S
C26 C25 1.382 . S
C26 H36 0.948 . S
N27 Co5 2.282 . S
N27 C31 1.332 . S
N27 C32 1.332 . S
C28 C29 1.388 . S
C28 C32 1.382 . S
C28 H51 0.950 . S
C29 C28 1.388 . S
C29 C30 1.386 . S
C30 C29 1.386 . S
C30 C31 1.382 . S
C30 H52 0.950 . S
C31 N27 1.332 . S
C31 C30 1.382 . S
C31 H33 0.952 . S
C32 N27 1.332 . S
C32 C28 1.382 . S
C32 H34 0.948 . S
H33 C31 0.952 . S
H34 C32 0.948 . S
H35 C24 0.952 . S
H36 C26 0.948 . S
C37 C3 1.395 . S
C37 C7 1.391 . S
C38 C0 1.389 . S
C38 C20 1.392 . S
C39 C10 1.392 . S
C39 C12 1.389 . S
C40 C15 1.395 . S
C40 C17 1.391 . S
H41 C1 0.951 . S
H42 C2 0.950 . S
H43 C8 0.949 . S
H44 C9 0.950 . S
H45 C13 0.951 . S
H46 C14 0.950 . S
H47 C18 0.949 . S
H48 C19 0.950 . S
H49 C23 0.950 . S
H50 C25 0.950 . S
H51 C28 0.950 . S
H52 C30 0.950 . S
C53 C54 1.443 . S
C53 N57 1.376 . S
C53 C91 1.389 . S
C54 C53 1.443 . S
C54 C55 1.340 . S
C54 H94 0.951 . S
C55 C54 1.340 . S
C55 C56 1.439 . S
C55 H95 0.950 . S
C56 C55 1.439 . S
C56 N57 1.374 . S
C56 C90 1.395 . S
N57 C53 1.376 . S
N57 C56 1.374 . S
N57 Co58 2.008 . S
Co58 N57 2.008 . S
Co58 N59 1.995 . S
Co58 N64 2.008 . S
Co58 N69 1.995 . S
Co58 N74 2.282 . S
Co58 N80 2.282 . S
N59 Co58 1.995 . S
N59 C60 1.376 . S
N59 C63 1.383 . S
C60 N59 1.376 . S
C60 C61 1.446 . S
C60 C90 1.391 . S
C61 C60 1.446 . S
C61 C62 1.339 . S
C61 H96 0.949 . S
C62 C61 1.339 . S
C62 C63 1.439 . S
C62 H97 0.950 . S
C63 N59 1.383 . S
C63 C62 1.439 . S
C63 C92 1.392 . S
N64 Co58 2.008 . S
N64 C65 1.376 . S
N64 C68 1.374 . S
C65 N64 1.376 . S
C65 C66 1.443 . S
C65 C92 1.389 . S
C66 C65 1.443 . S
C66 C67 1.340 . S
C66 H98 0.951 . S
C67 C66 1.340 . S
C67 C68 1.439 . S
C67 H99 0.950 . S
C68 N64 1.374 . S
C68 C67 1.439 . S
C68 C93 1.395 . S
N69 Co58 1.995 . S
N69 C70 1.376 . S
N69 C73 1.383 . S
C70 N69 1.376 . S
C70 C71 1.446 . S
C70 C93 1.391 . S
C71 C70 1.446 . S
C71 C72 1.339 . S
C71 H100 0.949 . S
C72 C71 1.339 . S
C72 C73 1.439 . S
C72 H101 0.950 . S
C73 N69 1.383 . S
C73 C72 1.439 . S
C73 C91 1.392 . S
N74 Co58 2.282 . S
N74 C77 1.332 . S
N74 C79 1.332 . S
C75 C76 1.386 . S
C75 C78 1.388 . S
C76 C75 1.386 . S
C76 C77 1.382 . S
C76 H102 0.950 . S
C77 N74 1.332 . S
C77 C76 1.382 . S
C77 H88 0.952 . S
C78 C75 1.388 . S
C78 C79 1.382 . S
C78 H103 0.950 . S
C79 N74 1.332 . S
C79 C78 1.382 . S
C79 H89 0.948 . S
N80 Co58 2.282 . S
N80 C84 1.332 . S
N80 C85 1.332 . S
C81 C82 1.388 . S
C81 C85 1.382 . S
C81 H104 0.950 . S
C82 C81 1.388 . S
C82 C83 1.386 . S
C83 C82 1.386 . S
C83 C84 1.382 . S
C83 H105 0.950 . S
C84 N80 1.332 . S
C84 C83 1.382 . S
C84 H86 0.952 . S
C85 N80 1.332 . S
C85 C81 1.382 . S
C85 H87 0.948 . S
H86 C84 0.952 . S
H87 C85 0.948 . S
H88 C77 0.952 . S
H89 C79 0.948 . S
C90 C56 1.395 . S
C90 C60 1.391 . S
C91 C53 1.389 . S
C91 C73 1.392 . S
C92 C63 1.392 . S
C92 C65 1.389 . S
C93 C68 1.395 . S
C93 C70 1.391 . S
H94 C54 0.951 . S
H95 C55 0.950 . S
H96 C61 0.949 . S
H97 C62 0.950 . S
H98 C66 0.951 . S
H99 C67 0.950 . S
H100 C71 0.949 . S
H101 C72 0.950 . S
H102 C76 0.950 . S
H103 C78 0.950 . S
H104 C81 0.950 . S
H105 C83 0.950 . S
C106 C107 1.443 . S
C106 N110 1.376 . S
C106 C144 1.389 . S
C107 C106 1.443 . S
C107 C108 1.340 . S
C107 H147 0.951 . S
C108 C107 1.340 . S
C108 C109 1.439 . S
C108 H148 0.950 . S
C109 C108 1.439 . S
C109 N110 1.374 . S
C109 C143 1.395 . S
N110 C106 1.376 . S
N110 C109 1.374 . S
N110 Co111 2.008 . S
Co111 N110 2.008 . S
Co111 N112 1.995 . S
Co111 N117 2.008 . S
Co111 N122 1.995 . S
Co111 N127 2.282 . S
Co111 N133 2.282 . S
N112 Co111 1.995 . S
N112 C113 1.376 . S
N112 C116 1.383 . S
C113 N112 1.376 . S
C113 C114 1.446 . S
C113 C143 1.391 . S
C114 C113 1.446 . S
C114 C115 1.339 . S
C114 H149 0.949 . S
C115 C114 1.339 . S
C115 C116 1.439 . S
C115 H150 0.950 . S
C116 N112 1.383 . S
C116 C115 1.439 . S
C116 C145 1.392 . S
N117 Co111 2.008 . S
N117 C118 1.376 . S
N117 C121 1.374 . S
C118 N117 1.376 . S
C118 C119 1.443 . S
C118 C145 1.389 . S
C119 C118 1.443 . S
C119 C120 1.340 . S
C119 H151 0.951 . S
C120 C119 1.340 . S
C120 C121 1.439 . S
C120 H152 0.950 . S
C121 N117 1.374 . S
C121 C120 1.439 . S
C121 C146 1.395 . S
N122 Co111 1.995 . S
N122 C123 1.376 . S
N122 C126 1.383 . S
C123 N122 1.376 . S
C123 C124 1.446 . S
C123 C146 1.391 . S
C124 C123 1.446 . S
C124 C125 1.339 . S
C124 H153 0.949 . S
C125 C124 1.339 . S
C125 C126 1.439 . S
C125 H154 0.950 . S
C126 N122 1.383 . S
C126 C125 1.439 . S
C126 C144 1.392 . S
N127 Co111 2.282 . S
N127 C130 1.332 . S
N127 C132 1.332 . S
C128 C129 1.386 . S
C128 C131 1.388 . S
C129 C128 1.386 . S
C129 C130 1.382 . S
C129 H155 0.950 . S
C130 N127 1.332 . S
C130 C129 1.382 . S
C130 H141 0.952 . S
C131 C128 1.388 . S
C131 C132 1.382 . S
C131 H156 0.950 . S
C132 N127 1.332 . S
C132 C131 1.382 . S
C132 H142 0.948 . S
N133 Co111 2.282 . S
N133 C137 1.332 . S
N133 C138 1.332 . S
C134 C135 1.388 . S
C134 C138 1.382 . S
C134 H157 0.950 . S
C135 C134 1.388 . S
C135 C136 1.386 . S
C136 C135 1.386 . S
C136 C137 1.382 . S
C136 H158 0.950 . S
C137 N133 1.332 . S
C137 C136 1.382 . S
C137 H139 0.952 . S
C138 N133 1.332 . S
C138 C134 1.382 . S
C138 H140 0.948 . S
H139 C137 0.952 . S
H140 C138 0.948 . S
H141 C130 0.952 . S
H142 C132 0.948 . S
C143 C109 1.395 . S
C143 C113 1.391 . S
C144 C106 1.389 . S
C144 C126 1.392 . S
C145 C116 1.392 . S
C145 C118 1.389 . S
C146 C121 1.395 . S
C146 C123 1.391 . S
H147 C107 0.951 . S
H148 C108 0.950 . S
H149 C114 0.949 . S
H150 C115 0.950 . S
H151 C119 0.951 . S
H152 C120 0.950 . S
H153 C124 0.949 . S
H154 C125 0.950 . S
H155 C129 0.950 . S
H156 C131 0.950 . S
H157 C134 0.950 . S
H158 C136 0.950 . S
C159 C160 1.443 . S
C159 N163 1.376 . S
C159 C197 1.389 . S
C160 C159 1.443 . S
C160 C161 1.340 . S
C160 H200 0.951 . S
C161 C160 1.340 . S
C161 C162 1.439 . S
C161 H201 0.950 . S
C162 C161 1.439 . S
C162 N163 1.374 . S
C162 C196 1.395 . S
N163 C159 1.376 . S
N163 C162 1.374 . S
N163 Co164 2.008 . S
Co164 N163 2.008 . S
Co164 N165 1.995 . S
Co164 N170 2.008 . S
Co164 N175 1.995 . S
Co164 N180 2.282 . S
Co164 N186 2.282 . S
N165 Co164 1.995 . S
N165 C166 1.376 . S
N165 C169 1.383 . S
C166 N165 1.376 . S
C166 C167 1.446 . S
C166 C196 1.391 . S
C167 C166 1.446 . S
C167 C168 1.339 . S
C167 H202 0.949 . S
C168 C167 1.339 . S
C168 C169 1.439 . S
C168 H203 0.950 . S
C169 N165 1.383 . S
C169 C168 1.439 . S
C169 C198 1.392 . S
N170 Co164 2.008 . S
N170 C171 1.376 . S
N170 C174 1.374 . S
C171 N170 1.376 . S
C171 C172 1.443 . S
C171 C198 1.389 . S
C172 C171 1.443 . S
C172 C173 1.340 . S
C172 H204 0.951 . S
C173 C172 1.340 . S
C173 C174 1.439 . S
C173 H205 0.950 . S
C174 N170 1.374 . S
C174 C173 1.439 . S
C174 C199 1.395 . S
N175 Co164 1.995 . S
N175 C176 1.376 . S
N175 C179 1.383 . S
C176 N175 1.376 . S
C176 C177 1.446 . S
C176 C199 1.391 . S
C177 C176 1.446 . S
C177 C178 1.339 . S
C177 H206 0.949 . S
C178 C177 1.339 . S
C178 C179 1.439 . S
C178 H207 0.950 . S
C179 N175 1.383 . S
C179 C178 1.439 . S
C179 C197 1.392 . S
N180 Co164 2.282 . S
N180 C183 1.332 . S
N180 C185 1.332 . S
C181 C182 1.386 . S
C181 C184 1.388 . S
C182 C181 1.386 . S
C182 C183 1.382 . S
C182 H208 0.950 . S
C183 N180 1.332 . S
C183 C182 1.382 . S
C183 H194 0.952 . S
C184 C181 1.388 . S
C184 C185 1.382 . S
C184 H209 0.950 . S
C185 N180 1.332 . S
C185 C184 1.382 . S
C185 H195 0.948 . S
N186 Co164 2.282 . S
N186 C190 1.332 . S
N186 C191 1.332 . S
C187 C188 1.388 . S
C187 C191 1.382 . S
C187 H210 0.950 . S
C188 C187 1.388 . S
C188 C189 1.386 . S
C189 C188 1.386 . S
C189 C190 1.382 . S
C189 H211 0.950 . S
C190 N186 1.332 . S
C190 C189 1.382 . S
C190 H192 0.952 . S
C191 N186 1.332 . S
C191 C187 1.382 . S
C191 H193 0.948 . S
H192 C190 0.952 . S
H193 C191 0.948 . S
H194 C183 0.952 . S
H195 C185 0.948 . S
C196 C162 1.395 . S
C196 C166 1.391 . S
C197 C159 1.389 . S
C197 C179 1.392 . S
C198 C169 1.392 . S
C198 C171 1.389 . S
C199 C174 1.395 . S
C199 C176 1.391 . S
H200 C160 0.951 . S
H201 C161 0.950 . S
H202 C167 0.949 . S
H203 C168 0.950 . S
H204 C172 0.951 . S
H205 C173 0.950 . S
H206 C177 0.949 . S
H207 C178 0.950 . S
H208 C182 0.950 . S
H209 C184 0.950 . S
H210 C187 0.950 . S
H211 C189 0.950 . S
C212 C213 1.443 . S
C212 N216 1.376 . S
C212 C250 1.389 . S
C213 C212 1.443 . S
C213 C214 1.340 . S
C213 H253 0.951 . S
C214 C213 1.340 . S
C214 C215 1.439 . S
C214 H254 0.950 . S
C215 C214 1.439 . S
C215 N216 1.374 . S
C215 C249 1.395 . S
N216 C212 1.376 . S
N216 C215 1.374 . S
N216 Co217 2.008 . S
Co217 N216 2.008 . S
Co217 N218 1.995 . S
Co217 N223 2.008 . S
Co217 N228 1.995 . S
Co217 N233 2.282 . S
Co217 N239 2.282 . S
N218 Co217 1.995 . S
N218 C219 1.376 . S
N218 C222 1.383 . S
C219 N218 1.376 . S
C219 C220 1.446 . S
C219 C249 1.391 . S
C220 C219 1.446 . S
C220 C221 1.339 . S
C220 H255 0.949 . S
C221 C220 1.339 . S
C221 C222 1.439 . S
C221 H256 0.950 . S
C222 N218 1.383 . S
C222 C221 1.439 . S
C222 C251 1.392 . S
N223 Co217 2.008 . S
N223 C224 1.376 . S
N223 C227 1.374 . S
C224 N223 1.376 . S
C224 C225 1.443 . S
C224 C251 1.389 . S
C225 C224 1.443 . S
C225 C226 1.340 . S
C225 H257 0.951 . S
C226 C225 1.340 . S
C226 C227 1.439 . S
C226 H258 0.950 . S
C227 N223 1.374 . S
C227 C226 1.439 . S
C227 C252 1.395 . S
N228 Co217 1.995 . S
N228 C229 1.376 . S
N228 C232 1.383 . S
C229 N228 1.376 . S
C229 C230 1.446 . S
C229 C252 1.391 . S
C230 C229 1.446 . S
C230 C231 1.339 . S
C230 H259 0.949 . S
C231 C230 1.339 . S
C231 C232 1.439 . S
C231 H260 0.950 . S
C232 N228 1.383 . S
C232 C231 1.439 . S
C232 C250 1.392 . S
N233 Co217 2.282 . S
N233 C236 1.332 . S
N233 C238 1.332 . S
C234 C235 1.386 . S
C234 C237 1.388 . S
C235 C234 1.386 . S
C235 C236 1.382 . S
C235 H261 0.950 . S
C236 N233 1.332 . S
C236 C235 1.382 . S
C236 H247 0.952 . S
C237 C234 1.388 . S
C237 C238 1.382 . S
C237 H262 0.950 . S
C238 N233 1.332 . S
C238 C237 1.382 . S
C238 H248 0.948 . S
N239 Co217 2.282 . S
N239 C243 1.332 . S
N239 C244 1.332 . S
C240 C241 1.388 . S
C240 C244 1.382 . S
C240 H263 0.950 . S
C241 C240 1.388 . S
C241 C242 1.386 . S
C242 C241 1.386 . S
C242 C243 1.382 . S
C242 H264 0.950 . S
C243 N239 1.332 . S
C243 C242 1.382 . S
C243 H245 0.952 . S
C244 N239 1.332 . S
C244 C240 1.382 . S
C244 H246 0.948 . S
H245 C243 0.952 . S
H246 C244 0.948 . S
H247 C236 0.952 . S
H248 C238 0.948 . S
C249 C215 1.395 . S
C249 C219 1.391 . S
C250 C212 1.389 . S
C250 C232 1.392 . S
C251 C222 1.392 . S
C251 C224 1.389 . S
C252 C227 1.395 . S
C252 C229 1.391 . S
H253 C213 0.951 . S
H254 C214 0.950 . S
H255 C220 0.949 . S
H256 C221 0.950 . S
H257 C225 0.951 . S
H258 C226 0.950 . S
H259 C230 0.949 . S
H260 C231 0.950 . S
H261 C235 0.950 . S
H262 C237 0.950 . S
H263 C240 0.950 . S
H264 C242 0.950 . S
C265 C266 1.443 . S
C265 N269 1.376 . S
C265 C303 1.389 . S
C266 C265 1.443 . S
C266 C267 1.340 . S
C266 H306 0.951 . S
C267 C266 1.340 . S
C267 C268 1.439 . S
C267 H307 0.950 . S
C268 C267 1.439 . S
C268 N269 1.374 . S
C268 C302 1.395 . S
N269 C265 1.376 . S
N269 C268 1.374 . S
N269 Co270 2.008 . S
Co270 N269 2.008 . S
Co270 N271 1.995 . S
Co270 N276 2.008 . S
Co270 N281 1.995 . S
Co270 N286 2.282 . S
Co270 N292 2.282 . S
N271 Co270 1.995 . S
N271 C272 1.376 . S
N271 C275 1.383 . S
C272 N271 1.376 . S
C272 C273 1.446 . S
C272 C302 1.391 . S
C273 C272 1.446 . S
C273 C274 1.339 . S
C273 H308 0.949 . S
C274 C273 1.339 . S
C274 C275 1.439 . S
C274 H309 0.950 . S
C275 N271 1.383 . S
C275 C274 1.439 . S
C275 C304 1.392 . S
N276 Co270 2.008 . S
N276 C277 1.376 . S
N276 C280 1.374 . S
C277 N276 1.376 . S
C277 C278 1.443 . S
C277 C304 1.389 . S
C278 C277 1.443 . S
C278 C279 1.340 . S
C278 H310 0.992 . S
C279 C278 1.340 . S
C279 C280 1.439 . S
C279 H311 0.950 . S
C280 N276 1.374 . S
C280 C279 1.439 . S
C280 C305 1.395 . S
N281 Co270 1.995 . S
N281 C282 1.376 . S
N281 C285 1.383 . S
C282 N281 1.376 . S
C282 C283 1.446 . S
C282 C305 1.391 . S
C283 C282 1.446 . S
C283 C284 1.339 . S
C283 H312 0.949 . S
C284 C283 1.339 . S
C284 C285 1.439 . S
C284 H313 0.950 . S
C285 N281 1.383 . S
C285 C284 1.439 . S
C285 C303 1.392 . S
N286 Co270 2.282 . S
N286 C289 1.332 . S
N286 C291 1.332 . S
C287 C288 1.386 . S
C287 C290 1.388 . S
C288 C287 1.386 . S
C288 C289 1.382 . S
C288 H314 0.950 . S
C289 N286 1.332 . S
C289 C288 1.382 . S
C289 H300 0.952 . S
C290 C287 1.388 . S
C290 C291 1.382 . S
C290 H315 0.950 . S
C291 N286 1.332 . S
C291 C290 1.382 . S
C291 H301 0.948 . S
N292 Co270 2.282 . S
N292 C296 1.332 . S
N292 C297 1.332 . S
C293 C294 1.388 . S
C293 C297 1.382 . S
C293 H316 0.950 . S
C294 C293 1.388 . S
C294 C295 1.386 . S
C295 C294 1.386 . S
C295 C296 1.382 . S
C295 H317 0.950 . S
C296 N292 1.332 . S
C296 C295 1.382 . S
C296 H298 0.952 . S
C297 N292 1.332 . S
C297 C293 1.382 . S
C297 H299 0.948 . S
H298 C296 0.952 . S
H299 C297 0.948 . S
H300 C289 0.952 . S
H301 C291 0.948 . S
C302 C268 1.395 . S
C302 C272 1.391 . S
C303 C265 1.389 . S
C303 C285 1.392 . S
C304 C275 1.392 . S
C304 C277 1.389 . S
C305 C280 1.395 . S
C305 C282 1.391 . S
H306 C266 0.951 . S
H307 C267 0.950 . S
H308 C273 0.949 . S
H309 C274 0.950 . S
H310 C278 0.992 . S
H311 C279 0.950 . S
H312 C283 0.949 . S
H313 C284 0.950 . S
H314 C288 0.950 . S
H315 C290 0.950 . S
H316 C293 0.950 . S
H317 C295 0.950 . S
C318 C319 1.443 . S
C318 N322 1.376 . S
C318 C356 1.389 . S
C319 C318 1.443 . S
C319 C320 1.340 . S
C319 H359 0.951 . S
C320 C319 1.340 . S
C320 C321 1.439 . S
C320 H360 0.950 . S
C321 C320 1.439 . S
C321 N322 1.374 . S
C321 C355 1.395 . S
N322 C318 1.376 . S
N322 C321 1.374 . S
N322 Co323 2.008 . S
Co323 N322 2.008 . S
Co323 N324 1.995 . S
Co323 N329 2.008 . S
Co323 N334 1.995 . S
Co323 N339 2.282 . S
Co323 N345 2.282 . S
N324 Co323 1.995 . S
N324 C325 1.376 . S
N324 C328 1.383 . S
C325 N324 1.376 . S
C325 C326 1.446 . S
C325 C355 1.391 . S
C326 C325 1.446 . S
C326 C327 1.339 . S
C326 H361 0.949 . S
C327 C326 1.339 . S
C327 C328 1.439 . S
C327 H362 0.950 . S
C328 N324 1.383 . S
C328 C327 1.439 . S
C328 C357 1.392 . S
N329 Co323 2.008 . S
N329 C330 1.376 . S
N329 C333 1.374 . S
C330 N329 1.376 . S
C330 C331 1.443 . S
C330 C357 1.389 . S
C331 C330 1.443 . S
C331 C332 1.340 . S
C331 H363 0.951 . S
C332 C331 1.340 . S
C332 C333 1.439 . S
C332 H364 0.950 . S
C333 N329 1.374 . S
C333 C332 1.439 . S
C333 C358 1.395 . S
N334 Co323 1.995 . S
N334 C335 1.376 . S
N334 C338 1.383 . S
C335 N334 1.376 . S
C335 C336 1.446 . S
C335 C358 1.391 . S
C336 C335 1.446 . S
C336 C337 1.339 . S
C336 H365 0.949 . S
C337 C336 1.339 . S
C337 C338 1.439 . S
C337 H366 0.950 . S
C338 N334 1.383 . S
C338 C337 1.439 . S
C338 C356 1.392 . S
N339 Co323 2.282 . S
N339 C342 1.332 . S
N339 C344 1.332 . S
C340 C341 1.386 . S
C340 C343 1.388 . S
C341 C340 1.386 . S
C341 C342 1.382 . S
C341 H367 0.950 . S
C342 N339 1.332 . S
C342 C341 1.382 . S
C342 H353 0.952 . S
C343 C340 1.388 . S
C343 C344 1.382 . S
C343 H368 0.950 . S
C344 N339 1.332 . S
C344 C343 1.382 . S
C344 H354 0.948 . S
N345 Co323 2.282 . S
N345 C349 1.332 . S
N345 C350 1.332 . S
C346 C347 1.388 . S
C346 C350 1.382 . S
C346 H369 0.950 . S
C347 C346 1.388 . S
C347 C348 1.386 . S
C348 C347 1.386 . S
C348 C349 1.382 . S
C348 H370 0.950 . S
C349 N345 1.332 . S
C349 C348 1.382 . S
C349 H351 0.952 . S
C350 N345 1.332 . S
C350 C346 1.382 . S
C350 H352 0.948 . S
H351 C349 0.952 . S
H352 C350 0.948 . S
H353 C342 0.952 . S
H354 C344 0.948 . S
C355 C321 1.395 . S
C355 C325 1.391 . S
C356 C318 1.389 . S
C356 C338 1.392 . S
C357 C328 1.392 . S
C357 C330 1.389 . S
C358 C333 1.395 . S
C358 C335 1.391 . S
H359 C319 0.951 . S
H360 C320 0.950 . S
H361 C326 0.949 . S
H362 C327 0.950 . S
H363 C331 0.951 . S
H364 C332 0.950 . S
H365 C336 0.949 . S
H366 C337 0.950 . S
H367 C341 0.950 . S
H368 C343 0.950 . S
H369 C346 0.950 . S
H370 C348 0.950 . S
C371 C372 1.443 . S
C371 N375 1.376 . S
C371 C409 1.389 . S
C372 C371 1.443 . S
C372 C373 1.340 . S
C372 H412 0.951 . S
C373 C372 1.340 . S
C373 C374 1.439 . S
C373 H413 0.950 . S
C374 C373 1.439 . S
C374 N375 1.374 . S
C374 C408 1.395 . S
N375 C371 1.376 . S
N375 C374 1.374 . S
N375 Co376 2.008 . S
Co376 N375 2.008 . S
Co376 N377 1.995 . S
Co376 N382 2.008 . S
Co376 N387 1.995 . S
Co376 N392 2.282 . S
Co376 N398 2.282 . S
N377 Co376 1.995 . S
N377 C378 1.376 . S
N377 C381 1.383 . S
C378 N377 1.376 . S
C378 C379 1.446 . S
C378 C408 1.391 . S
C379 C378 1.446 . S
C379 C380 1.339 . S
C379 H414 0.949 . S
C380 C379 1.339 . S
C380 C381 1.439 . S
C380 H415 0.950 . S
C381 N377 1.383 . S
C381 C380 1.439 . S
C381 C410 1.392 . S
N382 Co376 2.008 . S
N382 C383 1.376 . S
N382 C386 1.374 . S
C383 N382 1.376 . S
C383 C384 1.443 . S
C383 C410 1.389 . S
C384 C383 1.443 . S
C384 C385 1.340 . S
C384 H416 0.951 . S
C385 C384 1.340 . S
C385 C386 1.439 . S
C385 H417 0.950 . S
C386 N382 1.374 . S
C386 C385 1.439 . S
C386 C411 1.395 . S
N387 Co376 1.995 . S
N387 C388 1.376 . S
N387 C391 1.383 . S
C388 N387 1.376 . S
C388 C389 1.446 . S
C388 C411 1.391 . S
C389 C388 1.446 . S
C389 C390 1.339 . S
C389 H418 0.949 . S
C390 C389 1.339 . S
C390 C391 1.439 . S
C390 H419 0.950 . S
C391 N387 1.383 . S
C391 C390 1.439 . S
C391 C409 1.392 . S
N392 Co376 2.282 . S
N392 C395 1.332 . S
N392 C397 1.332 . S
C393 C394 1.386 . S
C393 C396 1.388 . S
C394 C393 1.386 . S
C394 C395 1.382 . S
C394 H420 0.950 . S
C395 N392 1.332 . S
C395 C394 1.382 . S
C395 H406 0.952 . S
C396 C393 1.388 . S
C396 C397 1.382 . S
C396 H421 0.950 . S
C397 N392 1.332 . S
C397 C396 1.382 . S
C397 H407 0.948 . S
N398 Co376 2.282 . S
N398 C402 1.332 . S
N398 C403 1.332 . S
C399 C400 1.388 . S
C399 C403 1.382 . S
C399 H422 0.950 . S
C400 C399 1.388 . S
C400 C401 1.386 . S
C401 C400 1.386 . S
C401 C402 1.382 . S
C401 H423 0.950 . S
C402 N398 1.332 . S
C402 C401 1.382 . S
C402 H404 0.952 . S
C403 N398 1.332 . S
C403 C399 1.382 . S
C403 H405 0.948 . S
H404 C402 0.952 . S
H405 C403 0.948 . S
H406 C395 0.952 . S
H407 C397 0.948 . S
C408 C374 1.395 . S
C408 C378 1.391 . S
C409 C371 1.389 . S
C409 C391 1.392 . S
C410 C381 1.392 . S
C410 C383 1.389 . S
C411 C386 1.395 . S
C411 C388 1.391 . S
H412 C372 0.951 . S
H413 C373 0.950 . S
H414 C379 0.949 . S
H415 C380 0.950 . S
H416 C384 0.951 . S
H417 C385 0.950 . S
H418 C389 0.949 . S
H419 C390 0.950 . S
H420 C394 0.950 . S
H421 C396 0.950 . S
H422 C399 0.950 . S
H423 C401 0.950 . S
C424 C425 1.443 . S
C424 N428 1.376 . S
C424 C462 1.389 . S
C425 C424 1.443 . S
C425 C426 1.340 . S
C425 H465 0.951 . S
C426 C425 1.340 . S
C426 C427 1.439 . S
C426 H466 0.950 . S
C427 C426 1.439 . S
C427 N428 1.374 . S
C427 C461 1.395 . S
N428 C424 1.376 . S
N428 C427 1.374 . S
N428 Co429 2.008 . S
Co429 N428 2.008 . S
Co429 N430 1.995 . S
Co429 N435 2.008 . S
Co429 N440 1.995 . S
Co429 N445 2.282 . S
Co429 N451 2.282 . S
N430 Co429 1.995 . S
N430 C431 1.376 . S
N430 C434 1.383 . S
C431 N430 1.376 . S
C431 C432 1.446 . S
C431 C461 1.391 . S
C432 C431 1.446 . S
C432 C433 1.339 . S
C432 H467 0.949 . S
C433 C432 1.339 . S
C433 C434 1.439 . S
C433 H468 0.950 . S
C434 N430 1.383 . S
C434 C433 1.439 . S
C434 C463 1.392 . S
N435 Co429 2.008 . S
N435 C436 1.376 . S
N435 C439 1.374 . S
C436 N435 1.376 . S
C436 C437 1.443 . S
C436 C463 1.389 . S
C437 C436 1.443 . S
C437 C438 1.340 . S
C437 H469 0.992 . S
C438 C437 1.340 . S
C438 C439 1.439 . S
C438 H470 0.950 . S
C439 N435 1.374 . S
C439 C438 1.439 . S
C439 C464 1.395 . S
N440 Co429 1.995 . S
N440 C441 1.376 . S
N440 C444 1.383 . S
C441 N440 1.376 . S
C441 C442 1.446 . S
C441 C464 1.391 . S
C442 C441 1.446 . S
C442 C443 1.339 . S
C442 H471 0.949 . S
C443 C442 1.339 . S
C443 C444 1.439 . S
C443 H472 0.950 . S
C444 N440 1.383 . S
C444 C443 1.439 . S
C444 C462 1.392 . S
N445 Co429 2.282 . S
N445 C448 1.332 . S
N445 C450 1.332 . S
C446 C447 1.386 . S
C446 C449 1.388 . S
C447 C446 1.386 . S
C447 C448 1.382 . S
C447 H473 0.950 . S
C448 N445 1.332 . S
C448 C447 1.382 . S
C448 H459 0.952 . S
C449 C446 1.388 . S
C449 C450 1.382 . S
C449 H474 0.950 . S
C450 N445 1.332 . S
C450 C449 1.382 . S
C450 H460 0.948 . S
N451 Co429 2.282 . S
N451 C455 1.332 . S
N451 C456 1.332 . S
C452 C453 1.388 . S
C452 C456 1.382 . S
C452 H475 0.950 . S
C453 C452 1.388 . S
C453 C454 1.386 . S
C454 C453 1.386 . S
C454 C455 1.382 . S
C454 H476 0.950 . S
C455 N451 1.332 . S
C455 C454 1.382 . S
C455 H457 0.952 . S
C456 N451 1.332 . S
C456 C452 1.382 . S
C456 H458 0.948 . S
H457 C455 0.952 . S
H458 C456 0.948 . S
H459 C448 0.952 . S
H460 C450 0.948 . S
C461 C427 1.395 . S
C461 C431 1.391 . S
C462 C424 1.389 . S
C462 C444 1.392 . S
C463 C434 1.392 . S
C463 C436 1.389 . S
C464 C439 1.395 . S
C464 C441 1.391 . S
H465 C425 0.951 . S
H466 C426 0.950 . S
H467 C432 0.949 . S
H468 C433 0.950 . S
H469 C437 0.992 . S
H470 C438 0.950 . S
H471 C442 0.949 . S
H472 C443 0.950 . S
H473 C447 0.950 . S
H474 C449 0.950 . S
H475 C452 0.950 . S
H476 C454 0.950 . S
C477 C478 1.443 . S
C477 N481 1.376 . S
C477 C515 1.389 . S
C478 C477 1.443 . S
C478 C479 1.340 . S
C478 H518 0.951 . S
C479 C478 1.340 . S
C479 C480 1.439 . S
C479 H519 0.950 . S
C480 C479 1.439 . S
C480 N481 1.374 . S
C480 C514 1.395 . S
N481 C477 1.376 . S
N481 C480 1.374 . S
N481 Co482 2.008 . S
Co482 N481 2.008 . S
Co482 N483 1.995 . S
Co482 N488 2.008 . S
Co482 N493 1.995 . S
Co482 N498 2.282 . S
Co482 N504 2.282 . S
N483 Co482 1.995 . S
N483 C484 1.376 . S
N483 C487 1.383 . S
C484 N483 1.376 . S
C484 C485 1.446 . S
C484 C514 1.391 . S
C485 C484 1.446 . S
C485 C486 1.339 . S
C485 H520 0.949 . S
C486 C485 1.339 . S
C486 C487 1.439 . S
C486 H521 0.950 . S
C487 N483 1.383 . S
C487 C486 1.439 . S
C487 C516 1.392 . S
N488 Co482 2.008 . S
N488 C489 1.376 . S
N488 C492 1.374 . S
C489 N488 1.376 . S
C489 C490 1.443 . S
C489 C516 1.389 . S
C490 C489 1.443 . S
C490 C491 1.340 . S
C490 H522 0.951 . S
C491 C490 1.340 . S
C491 C492 1.439 . S
C491 H523 0.950 . S
C492 N488 1.374 . S
C492 C491 1.439 . S
C492 C517 1.395 . S
N493 Co482 1.995 . S
N493 C494 1.376 . S
N493 C497 1.383 . S
C494 N493 1.376 . S
C494 C495 1.446 . S
C494 C517 1.391 . S
C495 C494 1.446 . S
C495 C496 1.339 . S
C495 H524 0.949 . S
C496 C495 1.339 . S
C496 C497 1.439 . S
C496 H525 0.950 . S
C497 N493 1.383 . S
C497 C496 1.439 . S
C497 C515 1.392 . S
N498 Co482 2.282 . S
N498 C501 1.332 . S
N498 C503 1.332 . S
C499 C500 1.386 . S
C499 C502 1.388 . S
C500 C499 1.386 . S
C500 C501 1.382 . S
C500 H526 0.950 . S
C501 N498 1.332 . S
C501 C500 1.382 . S
C501 H512 0.952 . S
C502 C499 1.388 . S
C502 C503 1.382 . S
C502 H527 0.950 . S
C503 N498 1.332 . S
C503 C502 1.382 . S
C503 H513 0.948 . S
N504 Co482 2.282 . S
N504 C508 1.332 . S
N504 C509 1.332 . S
C505 C506 1.388 . S
C505 C509 1.382 . S
C505 H528 0.950 . S
C506 C505 1.388 . S
C506 C507 1.386 . S
C507 C506 1.386 . S
C507 C508 1.382 . S
C507 H529 0.950 . S
C508 N504 1.332 . S
C508 C507 1.382 . S
C508 H510 0.952 . S
C509 N504 1.332 . S
C509 C505 1.382 . S
C509 H511 0.948 . S
H510 C508 0.952 . S
H511 C509 0.948 . S
H512 C501 0.952 . S
H513 C503 0.948 . S
C514 C480 1.395 . S
C514 C484 1.391 . S
C515 C477 1.389 . S
C515 C497 1.392 . S
C516 C487 1.392 . S
C516 C489 1.389 . S
C517 C492 1.395 . S
C517 C494 1.391 . S
H518 C478 0.951 . S
H519 C479 0.950 . S
H520 C485 0.949 . S
H521 C486 0.950 . S
H522 C490 0.951 . S
H523 C491 0.950 . S
H524 C495 0.949 . S
H525 C496 0.950 . S
H526 C500 0.950 . S
H527 C502 0.950 . S
H528 C505 0.950 . S
H529 C507 0.950 . S
C530 C531 1.443 . S
C530 N534 1.376 . S
C530 C568 1.389 . S
C531 C530 1.443 . S
C531 C532 1.340 . S
C531 H571 0.951 . S
C532 C531 1.340 . S
C532 C533 1.439 . S
C532 H572 0.950 . S
C533 C532 1.439 . S
C533 N534 1.374 . S
C533 C567 1.395 . S
N534 C530 1.376 . S
N534 C533 1.374 . S
N534 Co535 2.008 . S
Co535 N534 2.008 . S
Co535 N536 1.995 . S
Co535 N541 2.008 . S
Co535 N546 1.995 . S
Co535 N551 2.282 . S
Co535 N557 2.282 . S
N536 Co535 1.995 . S
N536 C537 1.376 . S
N536 C540 1.383 . S
C537 N536 1.376 . S
C537 C538 1.446 . S
C537 C567 1.391 . S
C538 C537 1.446 . S
C538 C539 1.339 . S
C538 H573 0.949 . S
C539 C538 1.339 . S
C539 C540 1.439 . S
C539 H574 0.950 . S
C540 N536 1.383 . S
C540 C539 1.439 . S
C540 C569 1.392 . S
N541 Co535 2.008 . S
N541 C542 1.376 . S
N541 C545 1.374 . S
C542 N541 1.376 . S
C542 C543 1.443 . S
C542 C569 1.389 . S
C543 C542 1.443 . S
C543 C544 1.340 . S
C543 H575 0.951 . S
C544 C543 1.340 . S
C544 C545 1.439 . S
C544 H576 0.950 . S
C545 N541 1.374 . S
C545 C544 1.439 . S
C545 C570 1.395 . S
N546 Co535 1.995 . S
N546 C547 1.376 . S
N546 C550 1.383 . S
C547 N546 1.376 . S
C547 C548 1.446 . S
C547 C570 1.391 . S
C548 C547 1.446 . S
C548 C549 1.339 . S
C548 H577 0.949 . S
C549 C548 1.339 . S
C549 C550 1.439 . S
C549 H578 0.950 . S
C550 N546 1.383 . S
C550 C549 1.439 . S
C550 C568 1.392 . S
N551 Co535 2.282 . S
N551 C554 1.332 . S
N551 C556 1.332 . S
C552 C553 1.386 . S
C552 C555 1.388 . S
C553 C552 1.386 . S
C553 C554 1.382 . S
C553 H579 0.950 . S
C554 N551 1.332 . S
C554 C553 1.382 . S
C554 H565 0.952 . S
C555 C552 1.388 . S
C555 C556 1.382 . S
C555 H580 0.950 . S
C556 N551 1.332 . S
C556 C555 1.382 . S
C556 H566 0.948 . S
N557 Co535 2.282 . S
N557 C561 1.332 . S
N557 C562 1.332 . S
C558 C559 1.388 . S
C558 C562 1.382 . S
C558 H581 0.950 . S
C559 C558 1.388 . S
C559 C560 1.386 . S
C560 C559 1.386 . S
C560 C561 1.382 . S
C560 H582 0.950 . S
C561 N557 1.332 . S
C561 C560 1.382 . S
C561 H563 0.952 . S
C562 N557 1.332 . S
C562 C558 1.382 . S
C562 H564 0.948 . S
H563 C561 0.952 . S
H564 C562 0.948 . S
H565 C554 0.952 . S
H566 C556 0.948 . S
C567 C533 1.395 . S
C567 C537 1.391 . S
C568 C530 1.389 . S
C568 C550 1.392 . S
C569 C540 1.392 . S
C569 C542 1.389 . S
C570 C545 1.395 . S
C570 C547 1.391 . S
H571 C531 0.951 . S
H572 C532 0.950 . S
H573 C538 0.949 . S
H574 C539 0.950 . S
H575 C543 0.951 . S
H576 C544 0.950 . S
H577 C548 0.949 . S
H578 C549 0.950 . S
H579 C553 0.950 . S
H580 C555 0.950 . S
H581 C558 0.950 . S
H582 C560 0.950 . S
C583 C584 1.443 . S
C583 N587 1.376 . S
C583 C621 1.389 . S
C584 C583 1.443 . S
C584 C585 1.340 . S
C584 H624 0.951 . S
C585 C584 1.340 . S
C585 C586 1.439 . S
C585 H625 0.950 . S
C586 C585 1.439 . S
C586 N587 1.374 . S
C586 C620 1.395 . S
N587 C583 1.376 . S
N587 C586 1.374 . S
N587 Co588 2.008 . S
Co588 N587 2.008 . S
Co588 N589 1.995 . S
Co588 N594 2.008 . S
Co588 N599 1.995 . S
Co588 N604 2.282 . S
Co588 N610 2.282 . S
N589 Co588 1.995 . S
N589 C590 1.376 . S
N589 C593 1.383 . S
C590 N589 1.376 . S
C590 C591 1.446 . S
C590 C620 1.391 . S
C591 C590 1.446 . S
C591 C592 1.339 . S
C591 H626 0.949 . S
C592 C591 1.339 . S
C592 C593 1.439 . S
C592 H627 0.950 . S
C593 N589 1.383 . S
C593 C592 1.439 . S
C593 C622 1.392 . S
N594 Co588 2.008 . S
N594 C595 1.376 . S
N594 C598 1.374 . S
C595 N594 1.376 . S
C595 C596 1.443 . S
C595 C622 1.389 . S
C596 C595 1.443 . S
C596 C597 1.340 . S
C596 H628 0.951 . S
C597 C596 1.340 . S
C597 C598 1.439 . S
C597 H629 0.950 . S
C598 N594 1.374 . S
C598 C597 1.439 . S
C598 C623 1.395 . S
N599 Co588 1.995 . S
N599 C600 1.376 . S
N599 C603 1.383 . S
C600 N599 1.376 . S
C600 C601 1.446 . S
C600 C623 1.391 . S
C601 C600 1.446 . S
C601 C602 1.339 . S
C601 H630 0.949 . S
C602 C601 1.339 . S
C602 C603 1.439 . S
C602 H631 0.950 . S
C603 N599 1.383 . S
C603 C602 1.439 . S
C603 C621 1.392 . S
N604 Co588 2.282 . S
N604 C607 1.332 . S
N604 C609 1.332 . S
C605 C606 1.386 . S
C605 C608 1.388 . S
C606 C605 1.386 . S
C606 C607 1.382 . S
C606 H632 0.950 . S
C607 N604 1.332 . S
C607 C606 1.382 . S
C607 H618 0.952 . S
C608 C605 1.388 . S
C608 C609 1.382 . S
C608 H633 0.950 . S
C609 N604 1.332 . S
C609 C608 1.382 . S
C609 H619 0.948 . S
N610 Co588 2.282 . S
N610 C614 1.332 . S
N610 C615 1.332 . S
C611 C612 1.388 . S
C611 C615 1.382 . S
C611 H634 0.950 . S
C612 C611 1.388 . S
C612 C613 1.386 . S
C613 C612 1.386 . S
C613 C614 1.382 . S
C613 H635 0.950 . S
C614 N610 1.332 . S
C614 C613 1.382 . S
C614 H616 0.952 . S
C615 N610 1.332 . S
C615 C611 1.382 . S
C615 H617 0.948 . S
H616 C614 0.952 . S
H617 C615 0.948 . S
H618 C607 0.952 . S
H619 C609 0.948 . S
C620 C586 1.395 . S
C620 C590 1.391 . S
C621 C583 1.389 . S
C621 C603 1.392 . S
C622 C593 1.392 . S
C622 C595 1.389 . S
C623 C598 1.395 . S
C623 C600 1.391 . S
H624 C584 0.951 . S
H625 C585 0.950 . S
H626 C591 0.949 . S
H627 C592 0.950 . S
H628 C596 0.951 . S
H629 C597 0.950 . S
H630 C601 0.949 . S
H631 C602 0.950 . S
H632 C606 0.950 . S
H633 C608 0.950 . S
H634 C611 0.950 . S
H635 C613 0.950 . S
H636 C648 0.930 . S
H637 C650 0.930 . S
H638 C651 0.930 . S
H639 C655 0.959 . S
H640 C655 0.959 . S
H641 C655 0.961 . S
H642 C656 0.960 . S
H643 C656 0.961 . S
H644 C656 0.959 . S
H645 C659 0.929 . S
H646 C660 0.931 . S
H647 C662 0.930 . S
C648 H636 0.930 . S
C648 C649 1.399 . S
C648 C653 1.399 . S
C649 C648 1.399 . S
C649 C650 1.376 . S
C650 H637 0.930 . S
C650 C649 1.376 . S
C650 C651 1.388 . S
C651 H638 0.930 . S
C651 C650 1.388 . S
C651 C652 1.390 . S
C652 C651 1.390 . S
C652 C653 1.394 . S
C652 C658 1.465 . S
C653 C648 1.399 . S
C653 C652 1.394 . S
C653 C654 1.516 . S
C654 C653 1.516 . S
C654 C655 1.502 . S
C654 C656 1.561 . S
C654 C657 1.526 . S
C655 H639 0.959 . S
C655 H640 0.959 . S
C655 H641 0.961 . S
C655 C654 1.502 . S
C656 H642 0.960 . S
C656 H643 0.961 . S
C656 H644 0.959 . S
C656 C654 1.561 . S
C657 C654 1.526 . S
C657 C658 1.396 . S
C657 C662 1.390 . S
C658 C652 1.465 . S
C658 C657 1.396 . S
C658 C659 1.399 . S
C659 H645 0.929 . S
C659 C658 1.399 . S
C659 C660 1.385 . S
C660 H646 0.931 . S
C660 C659 1.385 . S
C660 C661 1.389 . S
C661 C660 1.389 . S
C661 C662 1.387 . S
C662 H647 0.930 . S
C662 C657 1.390 . S
C662 C661 1.387 . S
H663 C675 0.930 . S
H664 C677 0.930 . S
H665 C678 0.930 . S
H666 C682 0.959 . S
H667 C682 0.959 . S
H668 C682 0.961 . S
H669 C683 0.960 . S
H670 C683 0.961 . S
H671 C683 0.959 . S
H672 C686 0.929 . S
H673 C687 0.931 . S
H674 C689 0.930 . S
C675 H663 0.930 . S
C675 C676 1.399 . S
C675 C680 1.399 . S
C676 C675 1.399 . S
C676 C677 1.376 . S
C677 H664 0.930 . S
C677 C676 1.376 . S
C677 C678 1.388 . S
C678 H665 0.930 . S
C678 C677 1.388 . S
C678 C679 1.390 . S
C679 C678 1.390 . S
C679 C680 1.394 . S
C679 C685 1.465 . S
C680 C675 1.399 . S
C680 C679 1.394 . S
C680 C681 1.516 . S
C681 C680 1.516 . S
C681 C682 1.502 . S
C681 C683 1.561 . S
C681 C684 1.526 . S
C682 H666 0.959 . S
C682 H667 0.959 . S
C682 H668 0.961 . S
C682 C681 1.502 . S
C683 H669 0.960 . S
C683 H670 0.961 . S
C683 H671 0.959 . S
C683 C681 1.561 . S
C684 C681 1.526 . S
C684 C685 1.396 . S
C684 C689 1.390 . S
C685 C679 1.465 . S
C685 C684 1.396 . S
C685 C686 1.399 . S
C686 H672 0.929 . S
C686 C685 1.399 . S
C686 C687 1.385 . S
C687 H673 0.931 . S
C687 C686 1.385 . S
C687 C688 1.389 . S
C688 C687 1.389 . S
C688 C689 1.387 . S
C689 H674 0.930 . S
C689 C684 1.390 . S
C689 C688 1.387 . S
H690 C702 0.930 . S
H691 C704 0.930 . S
H692 C705 0.930 . S
H693 C709 0.959 . S
H694 C709 0.959 . S
H695 C709 0.961 . S
H696 C710 0.960 . S
H697 C710 0.961 . S
H698 C710 0.959 . S
H699 C713 0.929 . S
H700 C714 0.931 . S
H701 C716 0.930 . S
C702 H690 0.930 . S
C702 C703 1.399 . S
C702 C707 1.399 . S
C703 C702 1.399 . S
C703 C704 1.376 . S
C704 H691 0.930 . S
C704 C703 1.376 . S
C704 C705 1.388 . S
C705 H692 0.930 . S
C705 C704 1.388 . S
C705 C706 1.390 . S
C706 C705 1.390 . S
C706 C707 1.394 . S
C706 C712 1.465 . S
C707 C702 1.399 . S
C707 C706 1.394 . S
C707 C708 1.516 . S
C708 C707 1.516 . S
C708 C709 1.502 . S
C708 C710 1.561 . S
C708 C711 1.526 . S
C709 H693 0.959 . S
C709 H694 0.959 . S
C709 H695 0.961 . S
C709 C708 1.502 . S
C710 H696 0.960 . S
C710 H697 0.961 . S
C710 H698 0.959 . S
C710 C708 1.561 . S
C711 C708 1.526 . S
C711 C712 1.396 . S
C711 C716 1.390 . S
C712 C706 1.465 . S
C712 C711 1.396 . S
C712 C713 1.399 . S
C713 H699 0.929 . S
C713 C712 1.399 . S
C713 C714 1.385 . S
C714 H700 0.931 . S
C714 C713 1.385 . S
C714 C715 1.389 . S
C715 C714 1.389 . S
C715 C716 1.387 . S
C716 H701 0.930 . S
C716 C711 1.390 . S
C716 C715 1.387 . S
H717 C729 0.930 . S
H718 C731 0.930 . S
H719 C732 0.930 . S
H720 C736 0.959 . S
H721 C736 0.959 . S
H722 C736 0.961 . S
H723 C737 0.960 . S
H724 C737 0.961 . S
H725 C737 0.959 . S
H726 C740 0.929 . S
H727 C741 0.931 . S
H728 C743 0.930 . S
C729 H717 0.930 . S
C729 C730 1.399 . S
C729 C734 1.399 . S
C730 C729 1.399 . S
C730 C731 1.376 . S
C731 H718 0.930 . S
C731 C730 1.376 . S
C731 C732 1.388 . S
C732 H719 0.930 . S
C732 C731 1.388 . S
C732 C733 1.390 . S
C733 C732 1.390 . S
C733 C734 1.394 . S
C733 C739 1.465 . S
C734 C729 1.399 . S
C734 C733 1.394 . S
C734 C735 1.516 . S
C735 C734 1.516 . S
C735 C736 1.502 . S
C735 C737 1.561 . S
C735 C738 1.526 . S
C736 H720 0.959 . S
C736 H721 0.959 . S
C736 H722 0.961 . S
C736 C735 1.502 . S
C737 H723 0.960 . S
C737 H724 0.961 . S
C737 H725 0.959 . S
C737 C735 1.561 . S
C738 C735 1.526 . S
C738 C739 1.396 . S
C738 C743 1.390 . S
C739 C733 1.465 . S
C739 C738 1.396 . S
C739 C740 1.399 . S
C740 H726 0.929 . S
C740 C739 1.399 . S
C740 C741 1.385 . S
C741 H727 0.931 . S
C741 C740 1.385 . S
C741 C742 1.389 . S
C742 C741 1.389 . S
C742 C743 1.387 . S
C743 H728 0.930 . S
C743 C738 1.390 . S
C743 C742 1.387 . S
H744 C756 0.930 . S
H745 C758 0.930 . S
H746 C759 0.930 . S
H747 C763 0.959 . S
H748 C763 0.959 . S
H749 C763 0.961 . S
H750 C764 0.960 . S
H751 C764 0.961 . S
H752 C764 0.959 . S
H753 C767 0.929 . S
H754 C768 0.931 . S
H755 C770 0.930 . S
C756 H744 0.930 . S
C756 C757 1.399 . S
C756 C761 1.399 . S
C757 C756 1.399 . S
C757 C758 1.376 . S
C758 H745 0.930 . S
C758 C757 1.376 . S
C758 C759 1.388 . S
C759 H746 0.930 . S
C759 C758 1.388 . S
C759 C760 1.390 . S
C760 C759 1.390 . S
C760 C761 1.394 . S
C760 C766 1.465 . S
C761 C756 1.399 . S
C761 C760 1.394 . S
C761 C762 1.516 . S
C762 C761 1.516 . S
C762 C763 1.502 . S
C762 C764 1.561 . S
C762 C765 1.526 . S
C763 H747 0.959 . S
C763 H748 0.959 . S
C763 H749 0.961 . S
C763 C762 1.502 . S
C764 H750 0.960 . S
C764 H751 0.961 . S
C764 H752 0.959 . S
C764 C762 1.561 . S
C765 C762 1.526 . S
C765 C766 1.396 . S
C765 C770 1.390 . S
C766 C760 1.465 . S
C766 C765 1.396 . S
C766 C767 1.399 . S
C767 H753 0.929 . S
C767 C766 1.399 . S
C767 C768 1.385 . S
C768 H754 0.931 . S
C768 C767 1.385 . S
C768 C769 1.389 . S
C769 C768 1.389 . S
C769 C770 1.387 . S
C770 H755 0.930 . S
C770 C765 1.390 . S
C770 C769 1.387 . S
H771 C783 0.930 . S
H772 C785 0.930 . S
H773 C786 0.930 . S
H774 C790 0.959 . S
H775 C790 0.959 . S
H776 C790 0.961 . S
H777 C791 0.960 . S
H778 C791 0.961 . S
H779 C791 0.959 . S
H780 C794 0.929 . S
H781 C795 0.931 . S
H782 C797 0.930 . S
C783 H771 0.930 . S
C783 C784 1.399 . S
C783 C788 1.399 . S
C784 C783 1.399 . S
C784 C785 1.376 . S
C785 H772 0.930 . S
C785 C784 1.376 . S
C785 C786 1.388 . S
C786 H773 0.930 . S
C786 C785 1.388 . S
C786 C787 1.390 . S
C787 C786 1.390 . S
C787 C788 1.394 . S
C787 C793 1.465 . S
C788 C783 1.399 . S
C788 C787 1.394 . S
C788 C789 1.516 . S
C789 C788 1.516 . S
C789 C790 1.502 . S
C789 C791 1.561 . S
C789 C792 1.526 . S
C790 H774 0.959 . S
C790 H775 0.959 . S
C790 H776 0.961 . S
C790 C789 1.502 . S
C791 H777 0.960 . S
C791 H778 0.961 . S
C791 H779 0.959 . S
C791 C789 1.561 . S
C792 C789 1.526 . S
C792 C793 1.396 . S
C792 C797 1.390 . S
C793 C787 1.465 . S
C793 C792 1.396 . S
C793 C794 1.399 . S
C794 H780 0.929 . S
C794 C793 1.399 . S
C794 C795 1.385 . S
C795 H781 0.931 . S
C795 C794 1.385 . S
C795 C796 1.389 . S
C796 C795 1.389 . S
C796 C797 1.387 . S
C797 H782 0.930 . S
C797 C792 1.390 . S
C797 C796 1.387 . S
H798 C810 0.930 . S
H799 C812 0.930 . S
H800 C813 0.930 . S
H801 C817 0.959 . S
H802 C817 0.959 . S
H803 C817 0.961 . S
H804 C818 0.960 . S
H805 C818 0.961 . S
H806 C818 0.959 . S
H807 C821 0.929 . S
H808 C822 0.931 . S
H809 C824 0.930 . S
C810 H798 0.930 . S
C810 C811 1.399 . S
C810 C815 1.399 . S
C811 C810 1.399 . S
C811 C812 1.376 . S
C812 H799 0.930 . S
C812 C811 1.376 . S
C812 C813 1.388 . S
C813 H800 0.930 . S
C813 C812 1.388 . S
C813 C814 1.390 . S
C814 C813 1.390 . S
C814 C815 1.394 . S
C814 C820 1.465 . S
C815 C810 1.399 . S
C815 C814 1.394 . S
C815 C816 1.516 . S
C816 C815 1.516 . S
C816 C817 1.502 . S
C816 C818 1.561 . S
C816 C819 1.526 . S
C817 H801 0.959 . S
C817 H802 0.959 . S
C817 H803 0.961 . S
C817 C816 1.502 . S
C818 H804 0.960 . S
C818 H805 0.961 . S
C818 H806 0.959 . S
C818 C816 1.561 . S
C819 C816 1.526 . S
C819 C820 1.396 . S
C819 C824 1.390 . S
C820 C814 1.465 . S
C820 C819 1.396 . S
C820 C821 1.399 . S
C821 H807 0.929 . S
C821 C820 1.399 . S
C821 C822 1.385 . S
C822 H808 0.931 . S
C822 C821 1.385 . S
C822 C823 1.389 . S
C823 C822 1.389 . S
C823 C824 1.387 . S
C824 H809 0.930 . S
C824 C819 1.390 . S
C824 C823 1.387 . S
H825 C837 0.930 . S
H826 C839 0.930 . S
H827 C840 0.930 . S
H828 C844 0.959 . S
H829 C844 0.959 . S
H830 C844 0.961 . S
H831 C845 0.960 . S
H832 C845 0.961 . S
H833 C845 0.959 . S
H834 C848 0.929 . S
H835 C849 0.931 . S
H836 C851 0.930 . S
C837 H825 0.930 . S
C837 C838 1.399 . S
C837 C842 1.399 . S
C838 C837 1.399 . S
C838 C839 1.376 . S
C839 H826 0.930 . S
C839 C838 1.376 . S
C839 C840 1.388 . S
C840 H827 0.930 . S
C840 C839 1.388 . S
C840 C841 1.390 . S
C841 C840 1.390 . S
C841 C842 1.394 . S
C841 C847 1.465 . S
C842 C837 1.399 . S
C842 C841 1.394 . S
C842 C843 1.516 . S
C843 C842 1.516 . S
C843 C844 1.502 . S
C843 C845 1.561 . S
C843 C846 1.526 . S
C844 H828 0.959 . S
C844 H829 0.959 . S
C844 H830 0.961 . S
C844 C843 1.502 . S
C845 H831 0.960 . S
C845 H832 0.961 . S
C845 H833 0.959 . S
C845 C843 1.561 . S
C846 C843 1.526 . S
C846 C847 1.396 . S
C846 C851 1.390 . S
C847 C841 1.465 . S
C847 C846 1.396 . S
C847 C848 1.399 1_655 S
C848 H834 0.929 . S
C848 C847 1.399 1_455 S
C848 C849 1.385 . S
C849 H835 0.931 . S
C849 C848 1.385 . S
C849 C850 1.389 . S
C850 C849 1.389 . S
C850 C851 1.387 1_455 S
C851 H836 0.930 . S
C851 C846 1.390 . S
C851 C850 1.387 1_655 S
H852 C864 0.930 . S
H853 C866 0.930 . S
H854 C867 0.930 . S
H855 C871 0.959 . S
H856 C871 0.959 . S
H857 C871 0.961 1_545 S
H858 C872 0.960 . S
H859 C872 0.961 . S
H860 C872 0.959 . S
H861 C875 0.929 . S
H862 C876 0.931 . S
H863 C878 0.930 . S
C864 H852 0.930 . S
C864 C865 1.399 . S
C864 C869 1.399 . S
C865 C864 1.399 . S
C865 C866 1.376 . S
C866 H853 0.930 . S
C866 C865 1.376 . S
C866 C867 1.388 . S
C867 H854 0.930 . S
C867 C866 1.388 . S
C867 C868 1.390 . S
C868 C867 1.390 . S
C868 C869 1.394 . S
C868 C874 1.465 1_545 S
C869 C864 1.399 . S
C869 C868 1.394 . S
C869 C870 1.516 . S
C870 C869 1.516 . S
C870 C871 1.502 1_545 S
C870 C872 1.561 . S
C870 C873 1.526 1_545 S
C871 H855 0.959 . S
C871 H856 0.959 . S
C871 H857 0.961 1_565 S
C871 C870 1.502 1_565 S
C872 H858 0.960 . S
C872 H859 0.961 . S
C872 H860 0.959 . S
C872 C870 1.561 . S
C873 C870 1.526 1_565 S
C873 C874 1.396 . S
C873 C878 1.390 . S
C874 C868 1.465 1_565 S
C874 C873 1.396 . S
C874 C875 1.399 . S
C875 H861 0.929 . S
C875 C874 1.399 . S
C875 C876 1.385 . S
C876 H862 0.931 . S
C876 C875 1.385 . S
C876 C877 1.389 . S
C877 C876 1.389 . S
C877 C878 1.387 . S
C878 H863 0.930 . S
C878 C873 1.390 . S
C878 C877 1.387 . S
H879 C891 0.930 . S
H880 C893 0.930 . S
H881 C894 0.930 . S
H882 C898 0.959 . S
H883 C898 0.959 . S
H884 C898 0.961 . S
H885 C899 0.960 . S
H886 C899 0.961 . S
H887 C899 0.959 . S
H888 C902 0.929 . S
H889 C903 0.931 . S
H890 C905 0.930 . S
C891 H879 0.930 . S
C891 C892 1.399 . S
C891 C896 1.399 . S
C892 C891 1.399 . S
C892 C893 1.376 . S
C893 H880 0.930 . S
C893 C892 1.376 . S
C893 C894 1.388 . S
C894 H881 0.930 . S
C894 C893 1.388 . S
C894 C895 1.390 . S
C895 C894 1.390 . S
C895 C896 1.394 . S
C895 C901 1.465 . S
C896 C891 1.399 . S
C896 C895 1.394 . S
C896 C897 1.516 . S
C897 C896 1.516 . S
C897 C898 1.502 . S
C897 C899 1.561 . S
C897 C900 1.526 . S
C898 H882 0.959 . S
C898 H883 0.959 . S
C898 H884 0.961 . S
C898 C897 1.502 . S
C899 H885 0.960 . S
C899 H886 0.961 . S
C899 H887 0.959 . S
C899 C897 1.561 . S
C900 C897 1.526 . S
C900 C901 1.396 . S
C900 C905 1.390 . S
C901 C895 1.465 . S
C901 C900 1.396 . S
C901 C902 1.399 . S
C902 H888 0.929 . S
C902 C901 1.399 . S
C902 C903 1.385 . S
C903 H889 0.931 . S
C903 C902 1.385 . S
C903 C904 1.389 . S
C904 C903 1.389 . S
C904 C905 1.387 . S
C905 H890 0.930 . S
C905 C900 1.390 . S
C905 C904 1.387 . S
H906 C918 0.930 . S
H907 C920 0.930 . S
H908 C921 0.930 . S
H909 C925 0.959 . S
H910 C925 0.959 . S
H911 C925 0.961 . S
H912 C926 0.960 . S
H913 C926 0.961 1_455 S
H914 C926 0.959 . S
H915 C929 0.929 . S
H916 C930 0.931 . S
H917 C932 0.930 . S
C918 H906 0.930 . S
C918 C919 1.399 . S
C918 C923 1.399 1_655 S
C919 C918 1.399 . S
C919 C920 1.376 . S
C920 H907 0.930 . S
C920 C919 1.376 . S
C920 C921 1.388 1_655 S
C921 H908 0.930 . S
C921 C920 1.388 1_455 S
C921 C922 1.390 . S
C922 C921 1.390 . S
C922 C923 1.394 . S
C922 C928 1.465 . S
C923 C918 1.399 1_455 S
C923 C922 1.394 . S
C923 C924 1.516 . S
C924 C923 1.516 . S
C924 C925 1.502 . S
C924 C926 1.561 1_455 S
C924 C927 1.526 . S
C925 H909 0.959 . S
C925 H910 0.959 . S
C925 H911 0.961 . S
C925 C924 1.502 . S
C926 H912 0.960 . S
C926 H913 0.961 1_655 S
C926 H914 0.959 . S
C926 C924 1.561 1_655 S
C927 C924 1.526 . S
C927 C928 1.396 . S
C927 C932 1.390 . S
C928 C922 1.465 . S
C928 C927 1.396 . S
C928 C929 1.399 . S
C929 H915 0.929 . S
C929 C928 1.399 . S
C929 C930 1.385 . S
C930 H916 0.931 . S
C930 C929 1.385 . S
C930 C931 1.389 . S
C931 C930 1.389 . S
C931 C932 1.387 . S
C932 H917 0.930 . S
C932 C927 1.390 . S
C932 C931 1.387 . S
H933 C945 0.930 . S
H934 C947 0.930 . S
H935 C948 0.930 . S
H936 C952 0.959 . S
H937 C952 0.959 . S
H938 C952 0.961 . S
H939 C953 0.960 . S
H940 C953 0.961 . S
H941 C953 0.959 . S
H942 C956 0.929 1_565 S
H943 C957 0.931 . S
H944 C959 0.930 . S
C945 H933 0.930 . S
C945 C946 1.399 . S
C945 C950 1.399 . S
C946 C945 1.399 . S
C946 C947 1.376 . S
C947 H934 0.930 . S
C947 C946 1.376 . S
C947 C948 1.388 1_554 S
C948 H935 0.930 . S
C948 C947 1.388 1_556 S
C948 C949 1.391 . S
C949 C948 1.391 . S
C949 C950 1.387 1_556 S
C949 C955 1.470 1_565 S
C950 C945 1.399 . S
C950 C949 1.387 1_554 S
C950 C951 1.516 1_565 S
C951 C950 1.516 1_545 S
C951 C952 1.502 . S
C951 C953 1.561 . S
C951 C954 1.526 1_554 S
C952 H936 0.959 . S
C952 H937 0.959 . S
C952 H938 0.961 . S
C952 C951 1.502 . S
C953 H939 0.960 . S
C953 H940 0.961 . S
C953 H941 0.959 . S
C953 C951 1.561 . S
C954 C951 1.526 1_556 S
C954 C955 1.396 . S
C954 C959 1.390 . S
C955 C949 1.470 1_545 S
C955 C954 1.396 . S
C955 C956 1.399 . S
C956 H942 0.929 1_545 S
C956 C955 1.399 . S
C956 C957 1.385 . S
C957 H943 0.931 . S
C957 C956 1.385 . S
C957 C958 1.389 . S
C958 C957 1.389 . S
C958 C959 1.387 . S
C959 H944 0.930 . S
C959 C954 1.390 . S
C959 C958 1.387 . S
H960 C972 0.930 . S
H961 C974 0.930 . S
H962 C975 0.930 . S
H963 C979 0.959 . S
H964 C979 0.959 . S
H965 C979 0.961 . S
H966 C980 0.960 . S
H967 C980 0.961 . S
H968 C980 0.959 1_556 S
H969 C983 0.929 . S
H970 C984 0.931 . S
H971 C986 0.927 1_556 S
C972 H960 0.930 . S
C972 C973 1.399 . S
C972 C977 1.399 . S
C973 C972 1.399 . S
C973 C974 1.376 . S
C974 H961 0.930 . S
C974 C973 1.376 . S
C974 C975 1.388 . S
C975 H962 0.930 . S
C975 C974 1.388 . S
C975 C976 1.390 . S
C976 C975 1.390 . S
C976 C977 1.394 . S
C976 C982 1.465 . S
C977 C972 1.399 . S
C977 C976 1.394 . S
C977 C978 1.516 . S
C978 C977 1.516 . S
C978 C979 1.502 . S
C978 C980 1.561 . S
C978 C981 1.526 . S
C979 H963 0.959 . S
C979 H964 0.959 . S
C979 H965 0.961 . S
C979 C978 1.502 . S
C980 H966 0.960 . S
C980 H967 0.961 . S
C980 H968 0.959 1_554 S
C980 C978 1.561 . S
C981 C978 1.526 . S
C981 C982 1.396 . S
C981 C986 1.423 . S
C982 C976 1.465 . S
C982 C981 1.396 . S
C982 C983 1.399 . S
C983 H969 0.929 . S
C983 C982 1.399 . S
C983 C984 1.385 1_554 S
C984 H970 0.931 . S
C984 C983 1.385 1_556 S
C984 C985 1.389 . S
C985 C984 1.389 . S
C985 C986 1.360 1_556 S
C986 H971 0.927 1_554 S
C986 C981 1.423 . S
C986 C985 1.360 1_554 S
H987 C999 0.930 . S
H988 C1001 0.930 . S
H989 C1002 0.930 . S
H990 C1006 0.959 . S
H991 C1006 0.959 . S
H992 C1006 0.961 . S
H993 C1007 0.960 . S
H994 C1007 0.961 . S
H995 C1007 0.959 . S
H996 C1010 0.929 . S
H997 C1011 0.931 . S
H998 C1013 0.930 . S
C999 H987 0.930 . S
C999 C1000 1.399 . S
C999 C1004 1.399 . S
C1000 C999 1.399 . S
C1000 C1001 1.376 . S
C1001 H988 0.930 . S
C1001 C1000 1.376 . S
C1001 C1002 1.388 . S
C1002 H989 0.930 . S
C1002 C1001 1.388 . S
C1002 C1003 1.390 . S
C1003 C1002 1.390 . S
C1003 C1004 1.394 . S
C1003 C1009 1.465 1_655 S
C1004 C999 1.399 . S
C1004 C1003 1.394 . S
C1004 C1005 1.516 . S
C1005 C1004 1.516 . S
C1005 C1006 1.502 . S
C1005 C1007 1.561 . S
C1005 C1008 1.526 1_655 S
C1006 H990 0.959 . S
C1006 H991 0.959 . S
C1006 H992 0.961 . S
C1006 C1005 1.502 . S
C1007 H993 0.960 . S
C1007 H994 0.961 . S
C1007 H995 0.959 . S
C1007 C1005 1.561 . S
C1008 C1005 1.526 1_455 S
C1008 C1009 1.396 . S
C1008 C1013 1.390 . S
C1009 C1003 1.465 1_455 S
C1009 C1008 1.396 . S
C1009 C1010 1.399 . S
C1010 H996 0.929 . S
C1010 C1009 1.399 . S
C1010 C1011 1.385 . S
C1011 H997 0.931 . S
C1011 C1010 1.385 . S
C1011 C1012 1.389 . S
C1012 C1011 1.389 . S
C1012 C1013 1.387 . S
C1013 H998 0.930 . S
C1013 C1008 1.390 . S
C1013 C1012 1.387 . S
H1014 C1026 0.930 . S
H1015 C1028 0.917 1_545 S
H1016 C1029 0.930 . S
H1017 C1033 0.959 . S
H1018 C1033 0.959 . S
H1019 C1033 0.961 1_545 S
H1020 C1034 0.960 1_545 S
H1021 C1034 0.961 . S
H1022 C1034 0.959 . S
H1023 C1037 0.929 . S
H1024 C1038 0.931 . S
H1025 C1040 0.930 . S
C1026 H1014 0.930 . S
C1026 C1027 1.399 . S
C1026 C1031 1.399 1_545 S
C1027 C1026 1.399 . S
C1027 C1028 1.360 1_545 S
C1028 H1015 0.917 1_565 S
C1028 C1027 1.360 1_565 S
C1028 C1029 1.419 . S
C1029 H1016 0.930 . S
C1029 C1028 1.419 . S
C1029 C1030 1.390 . S
C1030 C1029 1.390 . S
C1030 C1031 1.394 . S
C1030 C1036 1.465 . S
C1031 C1026 1.399 1_565 S
C1031 C1030 1.394 . S
C1031 C1032 1.516 . S
C1032 C1031 1.516 . S
C1032 C1033 1.502 . S
C1032 C1034 1.561 . S
C1032 C1035 1.526 . S
C1033 H1017 0.959 . S
C1033 H1018 0.959 . S
C1033 H1019 0.961 1_565 S
C1033 C1032 1.502 . S
C1034 H1020 0.960 1_565 S
C1034 H1021 0.961 . S
C1034 H1022 0.959 . S
C1034 C1032 1.561 . S
C1035 C1032 1.526 . S
C1035 C1036 1.396 . S
C1035 C1040 1.390 . S
C1036 C1030 1.465 . S
C1036 C1035 1.396 . S
C1036 C1037 1.399 . S
C1037 H1023 0.929 . S
C1037 C1036 1.399 . S
C1037 C1038 1.385 . S
C1038 H1024 0.931 . S
C1038 C1037 1.385 . S
C1038 C1039 1.389 . S
C1039 C1038 1.389 . S
C1039 C1040 1.387 . S
C1040 H1025 0.930 . S
C1040 C1035 1.390 . S
C1040 C1039 1.387 . S
H1041 C1053 0.930 . S
H1042 C1055 0.930 . S
H1043 C1056 0.930 . S
H1044 C1060 0.959 . S
H1045 C1060 0.959 . S
H1046 C1060 0.961 . S
H1047 C1061 0.960 . S
H1048 C1061 0.961 . S
H1049 C1061 0.959 . S
H1050 C1064 0.929 . S
H1051 C1065 0.931 . S
H1052 C1067 0.930 . S
C1053 H1041 0.930 . S
C1053 C1054 1.399 . S
C1053 C1058 1.399 . S
C1054 C1053 1.399 . S
C1054 C1055 1.376 . S
C1055 H1042 0.930 . S
C1055 C1054 1.376 . S
C1055 C1056 1.388 . S
C1056 H1043 0.930 . S
C1056 C1055 1.388 . S
C1056 C1057 1.390 . S
C1057 C1056 1.390 . S
C1057 C1058 1.394 . S
C1057 C1063 1.465 . S
C1058 C1053 1.399 . S
C1058 C1057 1.394 . S
C1058 C1059 1.516 . S
C1059 C1058 1.516 . S
C1059 C1060 1.502 . S
C1059 C1061 1.561 . S
C1059 C1062 1.526 . S
C1060 H1044 0.959 . S
C1060 H1045 0.959 . S
C1060 H1046 0.961 . S
C1060 C1059 1.502 . S
C1061 H1047 0.960 . S
C1061 H1048 0.961 . S
C1061 H1049 0.959 . S
C1061 C1059 1.561 . S
C1062 C1059 1.526 . S
C1062 C1063 1.396 . S
C1062 C1067 1.390 . S
C1063 C1057 1.465 . S
C1063 C1062 1.396 . S
C1063 C1064 1.399 . S
C1064 H1050 0.929 . S
C1064 C1063 1.399 . S
C1064 C1065 1.385 . S
C1065 H1051 0.931 . S
C1065 C1064 1.385 . S
C1065 C1066 1.389 . S
C1066 C1065 1.389 . S
C1066 C1067 1.387 . S
C1067 H1052 0.930 . S
C1067 C1062 1.390 . S
C1067 C1066 1.387 . S
H1068 C1080 0.930 . S
H1069 C1082 0.930 . S
H1070 C1083 0.930 . S
H1071 C1087 0.959 . S
H1072 C1087 0.959 . S
H1073 C1087 0.961 . S
H1074 C1088 0.960 . S
H1075 C1088 0.961 1_655 S
H1076 C1088 0.959 1_655 S
H1077 C1091 0.929 . S
H1078 C1092 0.931 . S
H1079 C1094 0.930 . S
C1080 H1068 0.930 . S
C1080 C1081 1.399 . S
C1080 C1085 1.399 . S
C1081 C1080 1.399 . S
C1081 C1082 1.376 . S
C1082 H1069 0.930 . S
C1082 C1081 1.376 . S
C1082 C1083 1.388 . S
C1083 H1070 0.930 . S
C1083 C1082 1.388 . S
C1083 C1084 1.390 . S
C1084 C1083 1.390 . S
C1084 C1085 1.394 . S
C1084 C1090 1.465 1_455 S
C1085 C1080 1.399 . S
C1085 C1084 1.394 . S
C1085 C1086 1.516 . S
C1086 C1085 1.516 . S
C1086 C1087 1.502 . S
C1086 C1088 1.561 . S
C1086 C1089 1.526 1_455 S
C1087 H1071 0.959 . S
C1087 H1072 0.959 . S
C1087 H1073 0.961 . S
C1087 C1086 1.502 . S
C1088 H1074 0.960 . S
C1088 H1075 0.961 1_455 S
C1088 H1076 0.959 1_455 S
C1088 C1086 1.561 . S
C1089 C1086 1.526 1_655 S
C1089 C1090 1.396 . S
C1089 C1094 1.390 . S
C1090 C1084 1.465 1_655 S
C1090 C1089 1.396 . S
C1090 C1091 1.399 . S
C1091 H1077 0.929 . S
C1091 C1090 1.399 . S
C1091 C1092 1.385 . S
C1092 H1078 0.931 . S
C1092 C1091 1.385 . S
C1092 C1093 1.389 . S
C1093 C1092 1.389 . S
C1093 C1094 1.387 . S
C1094 H1079 0.930 . S
C1094 C1089 1.390 . S
C1094 C1093 1.387 . S
H1095 C1107 0.930 . S
H1096 C1109 0.930 . S
H1097 C1110 0.930 . S
H1098 C1114 0.959 . S
H1099 C1114 0.959 . S
H1100 C1114 0.961 . S
H1101 C1115 0.960 . S
H1102 C1115 0.961 . S
H1103 C1115 0.959 . S
H1104 C1118 0.929 . S
H1105 C1119 0.931 . S
H1106 C1121 0.926 . S
C1107 H1095 0.930 . S
C1107 C1108 1.399 . S
C1107 C1112 1.399 . S
C1108 C1107 1.399 . S
C1108 C1109 1.376 . S
C1109 H1096 0.930 . S
C1109 C1108 1.376 . S
C1109 C1110 1.388 . S
C1110 H1097 0.930 . S
C1110 C1109 1.388 . S
C1110 C1111 1.390 . S
C1111 C1110 1.390 . S
C1111 C1112 1.394 . S
C1111 C1117 1.465 . S
C1112 C1107 1.399 . S
C1112 C1111 1.394 . S
C1112 C1113 1.516 . S
C1113 C1112 1.516 . S
C1113 C1114 1.502 . S
C1113 C1115 1.561 . S
C1113 C1116 1.526 . S
C1114 H1098 0.959 . S
C1114 H1099 0.959 . S
C1114 H1100 0.961 . S
C1114 C1113 1.502 . S
C1115 H1101 0.960 . S
C1115 H1102 0.961 . S
C1115 H1103 0.959 . S
C1115 C1113 1.561 . S
C1116 C1113 1.526 . S
C1116 C1117 1.396 . S
C1116 C1121 1.381 1_545 S
C1117 C1111 1.465 . S
C1117 C1116 1.396 . S
C1117 C1118 1.399 1_545 S
C1118 H1104 0.929 . S
C1118 C1117 1.399 1_565 S
C1118 C1119 1.385 . S
C1119 H1105 0.931 . S
C1119 C1118 1.385 . S
C1119 C1120 1.389 . S
C1120 C1119 1.389 . S
C1120 C1121 1.398 . S
C1121 H1106 0.926 . S
C1121 C1116 1.381 1_565 S
C1121 C1120 1.398 . S
H1122 C1134 0.930 . S
H1123 C1136 0.930 . S
H1124 C1137 0.930 . S
H1125 C1141 0.959 . S
H1126 C1141 0.959 . S
H1127 C1141 0.961 . S
H1128 C1142 0.960 . S
H1129 C1142 0.961 . S
H1130 C1142 0.959 . S
H1131 C1145 0.929 . S
H1132 C1146 0.931 . S
H1133 C1148 0.930 . S
C1134 H1122 0.930 . S
C1134 C1135 1.399 . S
C1134 C1139 1.399 . S
C1135 C1134 1.399 . S
C1135 C1136 1.376 . S
C1136 H1123 0.930 . S
C1136 C1135 1.376 . S
C1136 C1137 1.388 . S
C1137 H1124 0.930 . S
C1137 C1136 1.388 . S
C1137 C1138 1.390 . S
C1138 C1137 1.390 . S
C1138 C1139 1.394 . S
C1138 C1144 1.465 . S
C1139 C1134 1.399 . S
C1139 C1138 1.394 . S
C1139 C1140 1.516 . S
C1140 C1139 1.516 . S
C1140 C1141 1.502 . S
C1140 C1142 1.561 . S
C1140 C1143 1.526 . S
C1141 H1125 0.959 . S
C1141 H1126 0.959 . S
C1141 H1127 0.961 . S
C1141 C1140 1.502 . S
C1142 H1128 0.960 . S
C1142 H1129 0.961 . S
C1142 H1130 0.959 . S
C1142 C1140 1.561 . S
C1143 C1140 1.526 . S
C1143 C1144 1.396 . S
C1143 C1148 1.390 . S
C1144 C1138 1.465 . S
C1144 C1143 1.396 . S
C1144 C1145 1.399 . S
C1145 H1131 0.929 . S
C1145 C1144 1.399 . S
C1145 C1146 1.385 . S
C1146 H1132 0.931 . S
C1146 C1145 1.385 . S
C1146 C1147 1.389 . S
C1147 C1146 1.389 . S
C1147 C1148 1.387 . S
C1148 H1133 0.930 . S
C1148 C1143 1.390 . S
C1148 C1147 1.387 . S
H1149 C1161 0.930 . S
H1150 C1163 0.930 . S
H1151 C1164 0.930 1_455 S
H1152 C1168 0.959 . S
H1153 C1168 0.959 . S
H1154 C1168 0.961 . S
H1155 C1169 0.960 . S
H1156 C1169 0.961 1_554 S
H1157 C1169 0.959 . S
H1158 C1172 0.929 . S
H1159 C1173 0.931 . S
H1160 C1175 0.930 . S
C1161 H1149 0.930 . S
C1161 C1162 1.399 . S
C1161 C1166 1.399 . S
C1162 C1161 1.399 . S
C1162 C1163 1.376 . S
C1163 H1150 0.930 . S
C1163 C1162 1.376 . S
C1163 C1164 1.388 . S
C1164 H1151 0.930 1_655 S
C1164 C1163 1.388 . S
C1164 C1165 1.390 . S
C1165 C1164 1.390 . S
C1165 C1166 1.394 . S
C1165 C1171 1.465 1_655 S
C1166 C1161 1.399 . S
C1166 C1165 1.394 . S
C1166 C1167 1.516 . S
C1167 C1166 1.516 . S
C1167 C1168 1.502 1_556 S
C1167 C1169 1.561 . S
C1167 C1170 1.526 1_655 S
C1168 H1152 0.959 . S
C1168 H1153 0.959 . S
C1168 H1154 0.961 . S
C1168 C1167 1.502 1_554 S
C1169 H1155 0.960 . S
C1169 H1156 0.961 1_556 S
C1169 H1157 0.959 . S
C1169 C1167 1.561 . S
C1170 C1167 1.526 1_455 S
C1170 C1171 1.396 . S
C1170 C1175 1.390 1_556 S
C1171 C1165 1.465 1_455 S
C1171 C1170 1.396 . S
C1171 C1172 1.399 . S
C1172 H1158 0.929 . S
C1172 C1171 1.399 . S
C1172 C1173 1.385 . S
C1173 H1159 0.931 . S
C1173 C1172 1.385 . S
C1173 C1174 1.389 1_556 S
C1174 C1173 1.389 1_554 S
C1174 C1175 1.387 . S
C1175 H1160 0.930 . S
C1175 C1170 1.390 1_554 S
C1175 C1174 1.387 . S
H1176 C1188 0.930 . S
H1177 C1190 0.930 . S
H1178 C1191 0.930 . S
H1179 C1195 0.959 . S
H1180 C1195 0.959 . S
H1181 C1195 0.961 . S
H1182 C1196 0.960 . S
H1183 C1196 0.961 . S
H1184 C1196 0.959 . S
H1185 C1199 0.929 . S
H1186 C1200 0.931 . S
H1187 C1202 0.930 . S
C1188 H1176 0.930 . S
C1188 C1189 1.399 . S
C1188 C1193 1.399 . S
C1189 C1188 1.399 . S
C1189 C1190 1.376 . S
C1190 H1177 0.930 . S
C1190 C1189 1.376 . S
C1190 C1191 1.388 . S
C1191 H1178 0.930 . S
C1191 C1190 1.388 . S
C1191 C1192 1.390 . S
C1192 C1191 1.390 . S
C1192 C1193 1.394 . S
C1192 C1198 1.465 . S
C1193 C1188 1.399 . S
C1193 C1192 1.394 . S
C1193 C1194 1.516 . S
C1194 C1193 1.516 . S
C1194 C1195 1.502 . S
C1194 C1196 1.561 . S
C1194 C1197 1.526 . S
C1195 H1179 0.959 . S
C1195 H1180 0.959 . S
C1195 H1181 0.961 . S
C1195 C1194 1.502 . S
C1196 H1182 0.960 . S
C1196 H1183 0.961 . S
C1196 H1184 0.959 . S
C1196 C1194 1.561 . S
C1197 C1194 1.526 . S
C1197 C1198 1.396 . S
C1197 C1202 1.390 . S
C1198 C1192 1.465 . S
C1198 C1197 1.396 . S
C1198 C1199 1.399 1_565 S
C1199 H1185 0.929 . S
C1199 C1198 1.399 1_545 S
C1199 C1200 1.385 . S
C1200 H1186 0.931 . S
C1200 C1199 1.385 . S
C1200 C1201 1.389 . S
C1201 C1200 1.389 . S
C1201 C1202 1.387 1_545 S
C1202 H1187 0.930 . S
C1202 C1197 1.390 . S
C1202 C1201 1.387 1_565 S
H1203 C1215 0.930 . S
H1204 C1217 0.930 . S
H1205 C1218 0.930 . S
H1206 C1222 0.959 . S
H1207 C1222 0.959 . S
H1208 C1222 0.961 . S
H1209 C1223 0.960 . S
H1210 C1223 0.961 . S
H1211 C1223 0.959 . S
H1212 C1226 0.929 . S
H1213 C1227 0.931 . S
H1214 C1229 0.930 . S
C1215 H1203 0.930 . S
C1215 C1216 1.399 . S
C1215 C1220 1.399 . S
C1216 C1215 1.399 . S
C1216 C1217 1.376 . S
C1217 H1204 0.930 . S
C1217 C1216 1.376 . S
C1217 C1218 1.388 . S
C1218 H1205 0.930 . S
C1218 C1217 1.388 . S
C1218 C1219 1.390 . S
C1219 C1218 1.390 . S
C1219 C1220 1.394 . S
C1219 C1225 1.465 . S
C1220 C1215 1.399 . S
C1220 C1219 1.394 . S
C1220 C1221 1.516 . S
C1221 C1220 1.516 . S
C1221 C1222 1.502 . S
C1221 C1223 1.561 . S
C1221 C1224 1.526 . S
C1222 H1206 0.959 . S
C1222 H1207 0.959 . S
C1222 H1208 0.961 . S
C1222 C1221 1.502 . S
C1223 H1209 0.960 . S
C1223 H1210 0.961 . S
C1223 H1211 0.959 . S
C1223 C1221 1.561 . S
C1224 C1221 1.526 . S
C1224 C1225 1.396 . S
C1224 C1229 1.390 . S
C1225 C1219 1.465 . S
C1225 C1224 1.396 . S
C1225 C1226 1.399 . S
C1226 H1212 0.929 . S
C1226 C1225 1.399 . S
C1226 C1227 1.385 . S
C1227 H1213 0.931 . S
C1227 C1226 1.385 . S
C1227 C1228 1.389 . S
C1228 C1227 1.389 . S
C1228 C1229 1.387 . S
C1229 H1214 0.930 . S
C1229 C1224 1.390 . S
C1229 C1228 1.387 . S
H1230 C1242 0.930 . S
H1231 C1244 0.930 . S
H1232 C1245 0.930 . S
H1233 C1249 0.959 . S
H1234 C1249 0.959 . S
H1235 C1249 0.961 . S
H1236 C1250 0.960 . S
H1237 C1250 0.961 . S
H1238 C1250 0.959 . S
H1239 C1253 0.929 . S
H1240 C1254 0.931 . S
H1241 C1256 0.930 . S
C1242 H1230 0.930 . S
C1242 C1243 1.399 . S
C1242 C1247 1.399 . S
C1243 C1242 1.399 . S
C1243 C1244 1.376 . S
C1244 H1231 0.930 . S
C1244 C1243 1.376 . S
C1244 C1245 1.388 . S
C1245 H1232 0.930 . S
C1245 C1244 1.388 . S
C1245 C1246 1.390 . S
C1246 C1245 1.390 . S
C1246 C1247 1.394 . S
C1246 C1252 1.465 1_455 S
C1247 C1242 1.399 . S
C1247 C1246 1.394 . S
C1247 C1248 1.516 . S
C1248 C1247 1.516 . S
C1248 C1249 1.502 . S
C1248 C1250 1.561 . S
C1248 C1251 1.526 1_455 S
C1249 H1233 0.959 . S
C1249 H1234 0.959 . S
C1249 H1235 0.961 . S
C1249 C1248 1.502 . S
C1250 H1236 0.960 . S
C1250 H1237 0.961 . S
C1250 H1238 0.959 . S
C1250 C1248 1.561 . S
C1251 C1248 1.526 1_655 S
C1251 C1252 1.396 . S
C1251 C1256 1.390 . S
C1252 C1246 1.465 1_655 S
C1252 C1251 1.396 . S
C1252 C1253 1.399 . S
C1253 H1239 0.929 . S
C1253 C1252 1.399 . S
C1253 C1254 1.385 . S
C1254 H1240 0.931 . S
C1254 C1253 1.385 . S
C1254 C1255 1.389 . S
C1255 C1254 1.389 . S
C1255 C1256 1.387 . S
C1256 H1241 0.930 . S
C1256 C1251 1.390 . S
C1256 C1255 1.387 . S
H1257 C1269 0.930 . S
H1258 C1271 0.930 . S
H1259 C1272 0.930 . S
H1260 C1276 0.959 . S
H1261 C1276 0.959 . S
H1262 C1276 0.961 . S
H1263 C1277 0.960 . S
H1264 C1277 0.961 . S
H1265 C1277 0.959 . S
H1266 C1280 0.929 . S
H1267 C1281 0.931 . S
H1268 C1283 0.930 . S
C1269 H1257 0.930 . S
C1269 C1270 1.399 1_545 S
C1269 C1274 1.399 . S
C1270 C1269 1.399 1_565 S
C1270 C1271 1.376 . S
C1271 H1258 0.930 . S
C1271 C1270 1.376 . S
C1271 C1272 1.388 . S
C1272 H1259 0.930 . S
C1272 C1271 1.388 . S
C1272 C1273 1.390 1_565 S
C1273 C1272 1.390 1_545 S
C1273 C1274 1.394 . S
C1273 C1279 1.465 . S
C1274 C1269 1.399 . S
C1274 C1273 1.394 . S
C1274 C1275 1.516 . S
C1275 C1274 1.516 . S
C1275 C1276 1.502 . S
C1275 C1277 1.561 . S
C1275 C1278 1.526 . S
C1276 H1260 0.959 . S
C1276 H1261 0.959 . S
C1276 H1262 0.961 . S
C1276 C1275 1.502 . S
C1277 H1263 0.960 . S
C1277 H1264 0.961 . S
C1277 H1265 0.959 . S
C1277 C1275 1.561 . S
C1278 C1275 1.526 . S
C1278 C1279 1.396 . S
C1278 C1283 1.390 . S
C1279 C1273 1.465 . S
C1279 C1278 1.396 . S
C1279 C1280 1.399 . S
C1280 H1266 0.929 . S
C1280 C1279 1.399 . S
C1280 C1281 1.385 . S
C1281 H1267 0.931 . S
C1281 C1280 1.385 . S
C1281 C1282 1.389 . S
C1282 C1281 1.389 . S
C1282 C1283 1.387 . S
C1283 H1268 0.930 . S
C1283 C1278 1.390 . S
C1283 C1282 1.387 . S
C649 C446 1.755 . S
C661 C22 1.729 . S
C676 C91 1.761 . S
C688 C515 1.749 . S
C703 C128 1.767 . S
C715 C552 1.734 . S
C730 C181 1.753 . S
C742 C605 1.780 . S
C757 C356 1.702 . S
C769 C250 1.710 . S
C784 C287 1.764 . S
C796 C393 1.732 . S
C811 C516 1.483 . S
C823 C29 1.420 . S
C838 C92 1.486 . S
C850 C559 1.418 . S
C865 C612 1.354 . S
C877 C135 1.356 . S
C892 C188 1.438 . S
C904 C357 1.460 . S
C919 C400 1.476 . S
C931 C251 1.458 . S
C946 C453 1.310 . S
C958 C294 1.356 . S
C973 C38 2.188 . S
C985 C304 2.177 . S
C1000 C75 2.355 . S
C1012 C39 2.375 . S
C1027 C82 2.223 . S
C1039 C144 2.300 . S
C1054 C197 2.159 . S
C1066 C145 2.147 . S
C1081 C234 2.324 . S
C1093 C198 2.347 . S
C1108 C303 2.292 . S
C1120 C241 2.233 . S
C1135 C340 2.367 . S
C1147 C410 2.373 . S
C1162 C409 2.165 . S
C1174 C463 2.154 . S
C1189 C462 2.288 . S
C1201 C506 2.229 . S
C1216 C499 2.338 . S
C1228 C569 2.338 . S
C1243 C568 2.185 . S
C1255 C622 2.176 . S
C1270 C347 2.188 . S
C1282 C621 2.274 . S
