# Generated by pormake.
# Topology yfq, (5)-cn, num edge types: 1
# Building blocks:
#     Node 0, Type 0, BuildingBlock: BEQFEK_clean_sbu_0, # of connection points: 5
#     Node 1, Type 0, BuildingBlock: BEQFEK_clean_sbu_0, # of connection points: 5
#     Node 2, Type 0, BuildingBlock: BEQFEK_clean_sbu_0, # of connection points: 5
#     Node 3, Type 0, BuildingBlock: BEQFEK_clean_sbu_0, # of connection points: 5
#     Node 4, Type 0, BuildingBlock: BEQFEK_clean_sbu_0, # of connection points: 5
#     Node 5, Type 0, BuildingBlock: BEQFEK_clean_sbu_0, # of connection points: 5
#     Node 6, Type 0, BuildingBlock: BEQFEK_clean_sbu_0, # of connection points: 5
#     Node 7, Type 0, BuildingBlock: BEQFEK_clean_sbu_0, # of connection points: 5
#     Node 8, Type 0, BuildingBlock: BEQFEK_clean_sbu_0, # of connection points: 5
#     Node 9, Type 0, BuildingBlock: BEQFEK_clean_sbu_0, # of connection points: 5
#     Node 10, Type 0, BuildingBlock: BEQFEK_clean_sbu_0, # of connection points: 5
#     Node 11, Type 0, BuildingBlock: BEQFEK_clean_sbu_0, # of connection points: 5
#     Node 12, Type 0, BuildingBlock: BEQFEK_clean_sbu_0, # of connection points: 5
#     Node 13, Type 0, BuildingBlock: BEQFEK_clean_sbu_0, # of connection points: 5
#     Node 14, Type 0, BuildingBlock: BEQFEK_clean_sbu_0, # of connection points: 5
#     Node 15, Type 0, BuildingBlock: BEQFEK_clean_sbu_0, # of connection points: 5
#     Node 16, Type 0, BuildingBlock: BEQFEK_clean_sbu_0, # of connection points: 5
#     Node 17, Type 0, BuildingBlock: BEQFEK_clean_sbu_0, # of connection points: 5
#     Node 18, Type 0, BuildingBlock: BEQFEK_clean_sbu_0, # of connection points: 5
#     Node 19, Type 0, BuildingBlock: BEQFEK_clean_sbu_0, # of connection points: 5
#     Node 20, Type 0, BuildingBlock: BEQFEK_clean_sbu_0, # of connection points: 5
#     Node 21, Type 0, BuildingBlock: BEQFEK_clean_sbu_0, # of connection points: 5
#     Node 22, Type 0, BuildingBlock: BEQFEK_clean_sbu_0, # of connection points: 5
#     Node 23, Type 0, BuildingBlock: BEQFEK_clean_sbu_0, # of connection points: 5
#     Node 24, Type 0, BuildingBlock: BEQFEK_clean_sbu_0, # of connection points: 5
#     Node 25, Type 0, BuildingBlock: BEQFEK_clean_sbu_0, # of connection points: 5
#     Node 26, Type 0, BuildingBlock: BEQFEK_clean_sbu_0, # of connection points: 5
#     Node 27, Type 0, BuildingBlock: BEQFEK_clean_sbu_0, # of connection points: 5
#     Node 28, Type 0, BuildingBlock: BEQFEK_clean_sbu_0, # of connection points: 5
#     Node 29, Type 0, BuildingBlock: BEQFEK_clean_sbu_0, # of connection points: 5
#     Node 30, Type 0, BuildingBlock: BEQFEK_clean_sbu_0, # of connection points: 5
#     Node 31, Type 0, BuildingBlock: BEQFEK_clean_sbu_0, # of connection points: 5
#     Edge 32, Type (0, 0), BuildingBlock: UVAHIK_clean_linker_0, # of connection points: 2
#     Edge 33, Type (0, 0), BuildingBlock: UVAHIK_clean_linker_0, # of connection points: 2
#     Edge 34, Type (0, 0), BuildingBlock: UVAHIK_clean_linker_0, # of connection points: 2
#     Edge 35, Type (0, 0), BuildingBlock: UVAHIK_clean_linker_0, # of connection points: 2
#     Edge 36, Type (0, 0), BuildingBlock: UVAHIK_clean_linker_0, # of connection points: 2
#     Edge 37, Type (0, 0), BuildingBlock: UVAHIK_clean_linker_0, # of connection points: 2
#     Edge 38, Type (0, 0), BuildingBlock: UVAHIK_clean_linker_0, # of connection points: 2
#     Edge 39, Type (0, 0), BuildingBlock: UVAHIK_clean_linker_0, # of connection points: 2
#     Edge 40, Type (0, 0), BuildingBlock: UVAHIK_clean_linker_0, # of connection points: 2
#     Edge 41, Type (0, 0), BuildingBlock: UVAHIK_clean_linker_0, # of connection points: 2
#     Edge 42, Type (0, 0), BuildingBlock: UVAHIK_clean_linker_0, # of connection points: 2
#     Edge 43, Type (0, 0), BuildingBlock: UVAHIK_clean_linker_0, # of connection points: 2
#     Edge 44, Type (0, 0), BuildingBlock: UVAHIK_clean_linker_0, # of connection points: 2
#     Edge 45, Type (0, 0), BuildingBlock: UVAHIK_clean_linker_0, # of connection points: 2
#     Edge 46, Type (0, 0), BuildingBlock: UVAHIK_clean_linker_0, # of connection points: 2
#     Edge 47, Type (0, 0), BuildingBlock: UVAHIK_clean_linker_0, # of connection points: 2
#     Edge 48, Type (0, 0), BuildingBlock: UVAHIK_clean_linker_0, # of connection points: 2
#     Edge 49, Type (0, 0), BuildingBlock: UVAHIK_clean_linker_0, # of connection points: 2
#     Edge 50, Type (0, 0), BuildingBlock: UVAHIK_clean_linker_0, # of connection points: 2
#     Edge 51, Type (0, 0), BuildingBlock: UVAHIK_clean_linker_0, # of connection points: 2
#     Edge 52, Type (0, 0), BuildingBlock: UVAHIK_clean_linker_0, # of connection points: 2
#     Edge 53, Type (0, 0), BuildingBlock: UVAHIK_clean_linker_0, # of connection points: 2
#     Edge 54, Type (0, 0), BuildingBlock: UVAHIK_clean_linker_0, # of connection points: 2
#     Edge 55, Type (0, 0), BuildingBlock: UVAHIK_clean_linker_0, # of connection points: 2
#     Edge 56, Type (0, 0), BuildingBlock: UVAHIK_clean_linker_0, # of connection points: 2
#     Edge 57, Type (0, 0), BuildingBlock: UVAHIK_clean_linker_0, # of connection points: 2
#     Edge 58, Type (0, 0), BuildingBlock: UVAHIK_clean_linker_0, # of connection points: 2
#     Edge 59, Type (0, 0), BuildingBlock: UVAHIK_clean_linker_0, # of connection points: 2
#     Edge 60, Type (0, 0), BuildingBlock: UVAHIK_clean_linker_0, # of connection points: 2
#     Edge 61, Type (0, 0), BuildingBlock: UVAHIK_clean_linker_0, # of connection points: 2
#     Edge 62, Type (0, 0), BuildingBlock: UVAHIK_clean_linker_0, # of connection points: 2
#     Edge 63, Type (0, 0), BuildingBlock: UVAHIK_clean_linker_0, # of connection points: 2
#     Edge 64, Type (0, 0), BuildingBlock: UVAHIK_clean_linker_0, # of connection points: 2
#     Edge 65, Type (0, 0), BuildingBlock: UVAHIK_clean_linker_0, # of connection points: 2
#     Edge 66, Type (0, 0), BuildingBlock: UVAHIK_clean_linker_0, # of connection points: 2
#     Edge 67, Type (0, 0), BuildingBlock: UVAHIK_clean_linker_0, # of connection points: 2
#     Edge 68, Type (0, 0), BuildingBlock: UVAHIK_clean_linker_0, # of connection points: 2
#     Edge 69, Type (0, 0), BuildingBlock: UVAHIK_clean_linker_0, # of connection points: 2
#     Edge 70, Type (0, 0), BuildingBlock: UVAHIK_clean_linker_0, # of connection points: 2
#     Edge 71, Type (0, 0), BuildingBlock: UVAHIK_clean_linker_0, # of connection points: 2
#     Edge 72, Type (0, 0), BuildingBlock: UVAHIK_clean_linker_0, # of connection points: 2
#     Edge 73, Type (0, 0), BuildingBlock: UVAHIK_clean_linker_0, # of connection points: 2
#     Edge 74, Type (0, 0), BuildingBlock: UVAHIK_clean_linker_0, # of connection points: 2
#     Edge 75, Type (0, 0), BuildingBlock: UVAHIK_clean_linker_0, # of connection points: 2
#     Edge 76, Type (0, 0), BuildingBlock: UVAHIK_clean_linker_0, # of connection points: 2
#     Edge 77, Type (0, 0), BuildingBlock: UVAHIK_clean_linker_0, # of connection points: 2
#     Edge 78, Type (0, 0), BuildingBlock: UVAHIK_clean_linker_0, # of connection points: 2
#     Edge 79, Type (0, 0), BuildingBlock: UVAHIK_clean_linker_0, # of connection points: 2
#     Edge 80, Type (0, 0), BuildingBlock: UVAHIK_clean_linker_0, # of connection points: 2
#     Edge 81, Type (0, 0), BuildingBlock: UVAHIK_clean_linker_0, # of connection points: 2
#     Edge 82, Type (0, 0), BuildingBlock: UVAHIK_clean_linker_0, # of connection points: 2
#     Edge 83, Type (0, 0), BuildingBlock: UVAHIK_clean_linker_0, # of connection points: 2
#     Edge 84, Type (0, 0), BuildingBlock: UVAHIK_clean_linker_0, # of connection points: 2
#     Edge 85, Type (0, 0), BuildingBlock: UVAHIK_clean_linker_0, # of connection points: 2
#     Edge 86, Type (0, 0), BuildingBlock: UVAHIK_clean_linker_0, # of connection points: 2
#     Edge 87, Type (0, 0), BuildingBlock: UVAHIK_clean_linker_0, # of connection points: 2
#     Edge 88, Type (0, 0), BuildingBlock: UVAHIK_clean_linker_0, # of connection points: 2
#     Edge 89, Type (0, 0), BuildingBlock: UVAHIK_clean_linker_0, # of connection points: 2
#     Edge 90, Type (0, 0), BuildingBlock: UVAHIK_clean_linker_0, # of connection points: 2
#     Edge 91, Type (0, 0), BuildingBlock: UVAHIK_clean_linker_0, # of connection points: 2
#     Edge 92, Type (0, 0), BuildingBlock: UVAHIK_clean_linker_0, # of connection points: 2
#     Edge 93, Type (0, 0), BuildingBlock: UVAHIK_clean_linker_0, # of connection points: 2
#     Edge 94, Type (0, 0), BuildingBlock: UVAHIK_clean_linker_0, # of connection points: 2
#     Edge 95, Type (0, 0), BuildingBlock: UVAHIK_clean_linker_0, # of connection points: 2
#     Edge 96, Type (0, 0), BuildingBlock: UVAHIK_clean_linker_0, # of connection points: 2
#     Edge 97, Type (0, 0), BuildingBlock: UVAHIK_clean_linker_0, # of connection points: 2
#     Edge 98, Type (0, 0), BuildingBlock: UVAHIK_clean_linker_0, # of connection points: 2
#     Edge 99, Type (0, 0), BuildingBlock: UVAHIK_clean_linker_0, # of connection points: 2
#     Edge 100, Type (0, 0), BuildingBlock: UVAHIK_clean_linker_0, # of connection points: 2
#     Edge 101, Type (0, 0), BuildingBlock: UVAHIK_clean_linker_0, # of connection points: 2
#     Edge 102, Type (0, 0), BuildingBlock: UVAHIK_clean_linker_0, # of connection points: 2
#     Edge 103, Type (0, 0), BuildingBlock: UVAHIK_clean_linker_0, # of connection points: 2
#     Edge 104, Type (0, 0), BuildingBlock: UVAHIK_clean_linker_0, # of connection points: 2
#     Edge 105, Type (0, 0), BuildingBlock: UVAHIK_clean_linker_0, # of connection points: 2
#     Edge 106, Type (0, 0), BuildingBlock: UVAHIK_clean_linker_0, # of connection points: 2
#     Edge 107, Type (0, 0), BuildingBlock: UVAHIK_clean_linker_0, # of connection points: 2
#     Edge 108, Type (0, 0), BuildingBlock: UVAHIK_clean_linker_0, # of connection points: 2
#     Edge 109, Type (0, 0), BuildingBlock: UVAHIK_clean_linker_0, # of connection points: 2
#     Edge 110, Type (0, 0), BuildingBlock: UVAHIK_clean_linker_0, # of connection points: 2
#     Edge 111, Type (0, 0), BuildingBlock: UVAHIK_clean_linker_0, # of connection points: 2
# Relax obj value: 0.340
# Max RMSD: 0.188
# Mean RMSD: 0.188
data_MOF--net-yfq--node1-BEQFEK_clean_sbu_0--edge1-UVAHIK_clean_linker_0
_symmetry_space_group_name_H-M    P1
_symmetry_Int_Tables_number       1
_symmetry_cell_setting            triclinic
loop_
_symmetry_equiv_pos_as_xyz
'x, y, z'
_cell_length_a     71.905356
_cell_length_b     71.897973
_cell_length_c     76.370531
_cell_angle_alpha  89.998296
_cell_angle_beta   90.004141
_cell_angle_gamma 89.995316
loop_
_atom_site_label
_atom_site_type_symbol
_atom_site_fract_x
_atom_site_fract_y
_atom_site_fract_z
_atom_type_partial_charge
Co0 Co 0.11675 0.2016 0.29775 0.0
Co1 Co 0.11285 0.17465 0.26544 0.0
C2 C 0.0861 0.20572 0.27096 0.0
O3 O 0.09459 0.21059 0.28485 0.0
O4 O 0.09167 0.19197 0.26187 0.0
C5 C 0.12116 0.23751 0.31172 0.0
O6 O 0.11723 0.2419 0.29543 0.0
C7 C 0.10938 0.16162 0.229 0.0
C8 C 0.12615 0.13588 0.22939 0.0
C9 C 0.11625 0.14752 0.21834 0.0
N10 N 0.11541 0.15871 0.24544 0.0
N11 N 0.1252 0.14315 0.24563 0.0
C12 C 0.09629 0.17695 0.22407 0.0
H13 H 0.08436 0.17686 0.23322 0.0
H14 H 0.10349 0.19054 0.22533 0.0
H15 H 0.09068 0.17529 0.21066 0.0
C16 C 0.15426 0.20641 0.28305 0.0
N17 N 0.13723 0.19868 0.28276 0.0
N18 N 0.13551 0.18828 0.26867 0.0
C19 C 0.15127 0.18978 0.25912 0.0
C20 C 0.16366 0.20114 0.26805 0.0
C21 C 0.16097 0.21953 0.29692 0.0
H22 H 0.15613 0.21483 0.30996 0.0
H23 H 0.15531 0.23359 0.29426 0.0
H24 H 0.17634 0.22058 0.29711 0.0
O25 O 0.11109 0.17781 0.30893 0.0
O26 O 0.10692 0.15871 0.2863 0.0
H27 H 0.15536 0.16556 0.24345 0.0
H28 H 0.1673 0.18583 0.2354 0.0
C29 C 0.15432 0.18082 0.24168 0.0
H30 H 0.14233 0.18379 0.23299 0.0
H31 H 0.13168 0.13777 0.25676 0.0
O32 O 0.12194 0.22045 0.316 0.0
C33 C 0.10715 0.16186 0.30275 0.0
Co34 Co 0.04488 0.86807 0.54677 0.0
Co35 Co 0.07215 0.86528 0.51471 0.0
C36 C 0.04079 0.83853 0.51903 0.0
O37 O 0.03559 0.84662 0.53303 0.0
O38 O 0.05483 0.84428 0.51044 0.0
C39 C 0.00905 0.87241 0.56144 0.0
O40 O 0.00421 0.86871 0.54522 0.0
C41 C 0.08377 0.86384 0.47805 0.0
C42 C 0.11236 0.87504 0.47911 0.0
C43 C 0.09899 0.86826 0.4677 0.0
N44 N 0.08797 0.86773 0.4948 0.0
N45 N 0.10513 0.87432 0.49537 0.0
C46 C 0.06497 0.85755 0.47207 0.0
H47 H 0.05405 0.86297 0.48098 0.0
H48 H 0.0621 0.8623 0.45851 0.0
H49 H 0.06445 0.84212 0.47237 0.0
C50 C 0.0405 0.90624 0.53314 0.0
N51 N 0.0482 0.88919 0.53251 0.0
N52 N 0.05897 0.88797 0.51861 0.0
C53 C 0.05797 0.90414 0.50967 0.0
C54 C 0.04634 0.91622 0.51865 0.0
C55 C 0.02676 0.91236 0.5467 0.0
H56 H 0.03117 0.90743 0.5598 0.0
H57 H 0.01297 0.90632 0.54357 0.0
H58 H 0.02523 0.92768 0.54709 0.0
O59 O 0.06855 0.8612 0.55782 0.0
O60 O 0.08795 0.85851 0.53527 0.0
H61 H 0.08291 0.90571 0.4945 0.0
H62 H 0.06539 0.92242 0.48823 0.0
C63 C 0.06777 0.90795 0.49277 0.0
H64 H 0.06273 0.89813 0.48263 0.0
H65 H 0.11177 0.8786 0.50682 0.0
O66 O 0.02623 0.87295 0.56534 0.0
C67 C 0.08459 0.85756 0.55165 0.0
Co68 Co 0.38269 0.79776 0.79785 0.0
Co69 Co 0.38556 0.82296 0.76421 0.0
C70 C 0.41234 0.79203 0.77031 0.0
O71 O 0.40437 0.78799 0.78471 0.0
O72 O 0.40651 0.80531 0.76072 0.0
C73 C 0.37916 0.76278 0.81453 0.0
O74 O 0.38445 0.7569 0.79902 0.0
C75 C 0.39012 0.83653 0.72797 0.0
C76 C 0.3689 0.8587 0.72676 0.0
C77 C 0.38176 0.84918 0.71666 0.0
N78 N 0.38216 0.83817 0.74384 0.0
N79 N 0.3697 0.85166 0.74308 0.0
C80 C 0.40626 0.824 0.72426 0.0
H81 H 0.41651 0.82523 0.73504 0.0
H82 H 0.40138 0.80937 0.7237 0.0
H83 H 0.41335 0.8277 0.71185 0.0
C84 C 0.3454 0.79096 0.7837 0.0
N85 N 0.36189 0.79973 0.78315 0.0
N86 N 0.36316 0.8093 0.76851 0.0
C87 C 0.34764 0.80627 0.75894 0.0
C88 C 0.33594 0.79454 0.7683 0.0
C89 C 0.33862 0.77957 0.79882 0.0
H90 H 0.34338 0.78576 0.81134 0.0
H91 H 0.34425 0.76525 0.79772 0.0
H92 H 0.32321 0.77875 0.79892 0.0
O93 O 0.38894 0.82201 0.80776 0.0
O94 O 0.39219 0.83986 0.78419 0.0
H95 H 0.34016 0.82738 0.7406 0.0
H96 H 0.33436 0.80419 0.73359 0.0
C97 C 0.34494 0.81271 0.74048 0.0
H98 H 0.35827 0.81192 0.73323 0.0
H99 H 0.36135 0.85568 0.75359 0.0
O100 O 0.37753 0.78015 0.81718 0.0
C101 C 0.39273 0.83761 0.80075 0.0
Co102 Co 0.45161 0.12938 0.04711 0.0
Co103 Co 0.42331 0.13401 0.01596 0.0
C104 C 0.45564 0.1599 0.02067 0.0
O105 O 0.46111 0.15127 0.03427 0.0
O106 O 0.44122 0.15472 0.01232 0.0
C107 C 0.48719 0.12588 0.06337 0.0
O108 O 0.49292 0.13279 0.04838 0.0
C109 C 0.41281 0.134 0.97898 0.0
C110 C 0.38211 0.13369 0.98014 0.0
C111 C 0.39698 0.13416 0.96861 0.0
N112 N 0.40754 0.1333 0.99586 0.0
N113 N 0.38917 0.13305 0.99647 0.0
C114 C 0.43256 0.13623 0.97314 0.0
H115 H 0.44226 0.13461 0.98433 0.0
H116 H 0.4361 0.12576 0.96305 0.0
H117 H 0.43438 0.1502 0.9672 0.0
C118 C 0.4553 0.09211 0.0319 0.0
N119 N 0.44776 0.1092 0.03196 0.0
N120 N 0.43592 0.11074 0.01887 0.0
C121 C 0.4357 0.09449 0.00998 0.0
C122 C 0.44792 0.08223 0.018 0.0
C123 C 0.47025 0.08591 0.04425 0.0
H124 H 0.4655 0.08791 0.05794 0.0
H125 H 0.48279 0.09459 0.04216 0.0
H126 H 0.47416 0.07115 0.0423 0.0
O127 O 0.42806 0.13568 0.05868 0.0
O128 O 0.40786 0.14006 0.03697 0.0
H129 H 0.4228 0.07534 0.99191 0.0
H130 H 0.43022 0.09711 0.98264 0.0
C131 C 0.42387 0.09053 0.99431 0.0
H132 H 0.40976 0.09638 0.99622 0.0
H133 H 0.38146 0.13274 0.00804 0.0
O134 O 0.46991 0.12304 0.06565 0.0
C135 C 0.41184 0.13977 0.05324 0.0
Co136 Co 0.11704 0.79736 0.20001 0.0
Co137 Co 0.1146 0.82282 0.23351 0.0
C138 C 0.08718 0.79242 0.22744 0.0
O139 O 0.0951 0.78814 0.21308 0.0
O140 O 0.09325 0.80563 0.23698 0.0
C141 C 0.11967 0.76233 0.1832 0.0
O142 O 0.11402 0.75651 0.19862 0.0
C143 C 0.1097 0.83704 0.2695 0.0
C144 C 0.13194 0.85816 0.27104 0.0
C145 C 0.11832 0.84942 0.2809 0.0
N146 N 0.1182 0.83805 0.25384 0.0
N147 N 0.13127 0.85094 0.25479 0.0
C148 C 0.09277 0.82548 0.27287 0.0
H149 H 0.0831 0.82683 0.26165 0.0
H150 H 0.09687 0.81065 0.27407 0.0
H151 H 0.08533 0.82995 0.28486 0.0
C152 C 0.15393 0.78946 0.21452 0.0
N153 N 0.13777 0.79883 0.21483 0.0
N154 N 0.13669 0.8086 0.22937 0.0
C155 C 0.15202 0.80515 0.23909 0.0
C156 C 0.16336 0.79292 0.22994 0.0
C157 C 0.16034 0.77737 0.19975 0.0
H158 H 0.15611 0.7835 0.18704 0.0
H159 H 0.15397 0.7634 0.20108 0.0
H160 H 0.17569 0.77575 0.1999 0.0
O161 O 0.11145 0.82172 0.19001 0.0
O162 O 0.10848 0.8398 0.21346 0.0
H163 H 0.1601 0.82616 0.25729 0.0
H164 H 0.16512 0.80287 0.26449 0.0
C165 C 0.15483 0.81167 0.2575 0.0
H166 H 0.14145 0.81138 0.26471 0.0
H167 H 0.1401 0.85442 0.24445 0.0
O168 O 0.12186 0.77966 0.18067 0.0
C169 C 0.10801 0.83745 0.19691 0.0
Co170 Co 0.45096 0.86556 0.449 0.0
Co171 Co 0.42492 0.86354 0.48203 0.0
C172 C 0.45565 0.83618 0.47677 0.0
O173 O 0.46037 0.84398 0.46247 0.0
O174 O 0.44205 0.84224 0.48582 0.0
C175 C 0.48605 0.86851 0.43208 0.0
O176 O 0.49205 0.86297 0.44747 0.0
C177 C 0.41377 0.86197 0.51897 0.0
C178 C 0.38633 0.87579 0.51847 0.0
C179 C 0.39912 0.86751 0.52957 0.0
N180 N 0.40978 0.86668 0.50235 0.0
N181 N 0.39331 0.87483 0.50213 0.0
C182 C 0.43199 0.85388 0.52463 0.0
H183 H 0.43125 0.8385 0.52367 0.0
H184 H 0.44332 0.85881 0.51594 0.0
H185 H 0.43525 0.85774 0.53836 0.0
C186 C 0.45799 0.90297 0.46302 0.0
N187 N 0.44903 0.88658 0.46349 0.0
N188 N 0.43864 0.8858 0.47767 0.0
C189 C 0.441 0.90169 0.48685 0.0
C190 C 0.45344 0.91296 0.47788 0.0
C191 C 0.47064 0.90911 0.44856 0.0
H192 H 0.46492 0.90473 0.43573 0.0
H193 H 0.4845 0.90264 0.4504 0.0
H194 H 0.47235 0.92445 0.44854 0.0
O195 O 0.42668 0.85938 0.43887 0.0
O196 O 0.40815 0.85708 0.46207 0.0
H197 H 0.41741 0.90535 0.50352 0.0
H198 H 0.43752 0.91875 0.51004 0.0
C199 C 0.43279 0.90529 0.50453 0.0
H200 H 0.43688 0.89396 0.51359 0.0
H201 H 0.38698 0.88003 0.49085 0.0
O202 O 0.46867 0.87043 0.42964 0.0
C203 C 0.41082 0.85611 0.44559 0.0
Co204 Co 0.37772 0.20287 0.70184 0.0
Co205 Co 0.38375 0.17583 0.73371 0.0
C206 C 0.40891 0.20805 0.7278 0.0
O207 O 0.39982 0.21254 0.71415 0.0
O208 O 0.40427 0.19402 0.73697 0.0
C209 C 0.37216 0.23872 0.68784 0.0
O210 O 0.37645 0.2433 0.704 0.0
C211 C 0.38653 0.16494 0.77048 0.0
C212 C 0.37987 0.13494 0.76968 0.0
C213 C 0.38438 0.14933 0.78097 0.0
N214 N 0.38321 0.16004 0.75379 0.0
N215 N 0.37928 0.14209 0.75338 0.0
C216 C 0.39313 0.18389 0.77578 0.0
H217 H 0.3853 0.19471 0.7685 0.0
H218 H 0.3919 0.18629 0.79004 0.0
H219 H 0.408 0.18528 0.77214 0.0
C220 C 0.3412 0.20738 0.71844 0.0
N221 N 0.35803 0.19931 0.71757 0.0
N222 N 0.36033 0.18834 0.73122 0.0
C223 C 0.34492 0.18937 0.74134 0.0
C224 C 0.33249 0.2016 0.73358 0.0
C225 C 0.33353 0.22064 0.70516 0.0
H226 H 0.33767 0.21628 0.6918 0.0
H227 H 0.33905 0.23476 0.70778 0.0
H228 H 0.31812 0.22124 0.7059 0.0
O229 O 0.38399 0.17936 0.69037 0.0
O230 O 0.38983 0.16028 0.71266 0.0
H231 H 0.34616 0.16491 0.7573 0.0
H232 H 0.32806 0.18112 0.76347 0.0
C233 C 0.34255 0.17984 0.7586 0.0
H234 H 0.35205 0.1862 0.76833 0.0
H235 H 0.37615 0.13473 0.74197 0.0
O236 O 0.37147 0.22161 0.68372 0.0
C237 C 0.38893 0.16356 0.69626 0.0
Co238 Co 0.04681 0.13199 0.95228 0.0
Co239 Co 0.07427 0.13521 0.98413 0.0
C240 C 0.04436 0.16334 0.97837 0.0
O241 O 0.03889 0.15481 0.9647 0.0
O242 O 0.05802 0.15736 0.98739 0.0
C243 C 0.01108 0.12957 0.93634 0.0
O244 O 0.00562 0.13649 0.95141 0.0
C245 C 0.08684 0.13786 0.02058 0.0
C246 C 0.11363 0.1228 0.01973 0.0
C247 C 0.1015 0.13186 0.03095 0.0
N248 N 0.09016 0.1326 0.00398 0.0
N249 N 0.10628 0.12378 0.00353 0.0
C250 C 0.0691 0.14672 0.02653 0.0
H251 H 0.05734 0.14195 0.01827 0.0
H252 H 0.06614 0.14338 0.04044 0.0
H253 H 0.07033 0.16204 0.02515 0.0
C254 C 0.039 0.09588 0.96855 0.0
N255 N 0.04845 0.11198 0.9679 0.0
N256 N 0.05958 0.11315 0.98154 0.0
C257 C 0.05728 0.09777 0.99149 0.0
C258 C 0.04406 0.08647 0.98359 0.0
C259 C 0.02565 0.08935 0.95482 0.0
H260 H 0.0311 0.09269 0.94161 0.0
H261 H 0.01212 0.0965 0.95665 0.0
H262 H 0.02333 0.07412 0.95567 0.0
O263 O 0.07085 0.13616 0.94095 0.0
O264 O 0.09042 0.13992 0.96323 0.0
H265 H 0.08181 0.09411 0.0069 0.0
H266 H 0.06189 0.08136 0.0149 0.0
C267 C 0.06653 0.09455 0.00877 0.0
H268 H 0.06324 0.10623 0.01771 0.0
H269 H 0.11201 0.11796 0.99223 0.0
O270 O 0.02829 0.12664 0.9338 0.0
C271 C 0.08705 0.13946 0.94684 0.0
Co272 Co 0.87921 0.79999 0.69886 0.0
Co273 Co 0.88472 0.82399 0.73293 0.0
C274 C 0.91136 0.79414 0.72406 0.0
O275 O 0.9024 0.791 0.70999 0.0
O276 O 0.90595 0.80644 0.73493 0.0
C277 C 0.87582 0.76506 0.68252 0.0
O278 O 0.88205 0.75965 0.69788 0.0
C279 C 0.89074 0.83662 0.76934 0.0
C280 C 0.87047 0.85962 0.77127 0.0
C281 C 0.88313 0.8494 0.781 0.0
N282 N 0.88254 0.83888 0.75365 0.0
N283 N 0.87066 0.85284 0.75484 0.0
C284 C 0.90628 0.82321 0.77262 0.0
H285 H 0.90062 0.80885 0.77312 0.0
H286 H 0.91378 0.82636 0.78494 0.0
H287 H 0.91639 0.82398 0.76169 0.0
C288 C 0.84375 0.79138 0.71594 0.0
N289 N 0.85987 0.80081 0.71524 0.0
N290 N 0.8622 0.81013 0.72991 0.0
C291 C 0.84775 0.80639 0.74067 0.0
C292 C 0.83568 0.79437 0.73211 0.0
C293 C 0.83618 0.77956 0.70147 0.0
H294 H 0.83952 0.78583 0.68859 0.0
H295 H 0.84251 0.76552 0.70222 0.0
H296 H 0.82087 0.77804 0.70264 0.0
O297 O 0.88353 0.8246 0.68899 0.0
O298 O 0.88994 0.84129 0.71278 0.0
H299 H 0.84266 0.8274 0.7598 0.0
H300 H 0.83589 0.8044 0.76665 0.0
C301 C 0.84651 0.81248 0.75936 0.0
H302 H 0.86022 0.81076 0.76581 0.0
H303 H 0.86225 0.85738 0.74455 0.0
O304 O 0.87332 0.78231 0.67976 0.0
C305 C 0.88838 0.83979 0.69619 0.0
Co306 Co 0.95114 0.1305 0.45205 0.0
Co307 Co 0.92323 0.13479 0.48339 0.0
C308 C 0.95582 0.1602 0.47942 0.0
O309 O 0.96101 0.15178 0.46561 0.0
O310 O 0.94137 0.15509 0.48774 0.0
C311 C 0.98708 0.12503 0.43807 0.0
O312 O 0.99169 0.1288 0.45434 0.0
C313 C 0.91221 0.13618 0.52002 0.0
C314 C 0.88205 0.13044 0.51896 0.0
C315 C 0.89649 0.13427 0.53046 0.0
N316 N 0.90723 0.13371 0.50324 0.0
N317 N 0.88918 0.13035 0.50265 0.0
C318 C 0.93193 0.13888 0.52577 0.0
H319 H 0.94165 0.13309 0.51588 0.0
H320 H 0.93444 0.13207 0.5386 0.0
H321 H 0.93479 0.15398 0.52706 0.0
C322 C 0.95365 0.09237 0.46613 0.0
N323 N 0.94669 0.10974 0.46651 0.0
N324 N 0.9354 0.11143 0.47999 0.0
C325 C 0.93518 0.09517 0.48885 0.0
C326 C 0.94668 0.08262 0.4803 0.0
C327 C 0.9677 0.08568 0.45309 0.0
H328 H 0.96376 0.09038 0.43978 0.0
H329 H 0.98148 0.09161 0.45644 0.0
H330 H 0.96899 0.07034 0.45307 0.0
O331 O 0.92794 0.13805 0.44046 0.0
O332 O 0.90806 0.14176 0.4625 0.0
H333 H 0.90967 0.09639 0.50328 0.0
H334 H 0.92411 0.07655 0.5085 0.0
C335 C 0.92418 0.09157 0.50512 0.0
H336 H 0.93038 0.09943 0.51615 0.0
H337 H 0.88177 0.12786 0.49114 0.0
O338 O 0.96997 0.12474 0.43389 0.0
C339 C 0.91186 0.1423 0.4462 0.0
Co340 Co 0.61955 0.20229 0.20095 0.0
Co341 Co 0.61484 0.17637 0.23395 0.0
C342 C 0.58941 0.20835 0.22805 0.0
O343 O 0.59799 0.21236 0.21397 0.0
O344 O 0.59445 0.19467 0.23751 0.0
C345 C 0.62512 0.23779 0.18638 0.0
O346 O 0.62179 0.24255 0.20269 0.0
C347 C 0.61095 0.16344 0.27048 0.0
C348 C 0.6275 0.13756 0.27014 0.0
C349 C 0.6176 0.14925 0.28115 0.0
N350 N 0.6171 0.16053 0.25407 0.0
N351 N 0.62675 0.14489 0.25392 0.0
C352 C 0.59791 0.17883 0.27534 0.0
H353 H 0.58628 0.17913 0.26584 0.0
H354 H 0.60533 0.19234 0.2746 0.0
H355 H 0.59186 0.17692 0.28856 0.0
C356 C 0.65733 0.20606 0.21543 0.0
N357 N 0.6401 0.19878 0.2158 0.0
N358 N 0.63798 0.18897 0.23022 0.0
C359 C 0.65366 0.19044 0.23987 0.0
C360 C 0.66645 0.20114 0.2307 0.0
C361 C 0.6644 0.21871 0.20133 0.0
H362 H 0.65911 0.21413 0.18841 0.0
H363 H 0.65948 0.23305 0.20396 0.0
H364 H 0.67979 0.219 0.2009 0.0
O365 O 0.6124 0.17864 0.19026 0.0
O366 O 0.60788 0.16036 0.21338 0.0
H367 H 0.65702 0.16695 0.25663 0.0
H368 H 0.66908 0.18737 0.26408 0.0
C369 C 0.65617 0.18229 0.25774 0.0
H370 H 0.64402 0.18582 0.26603 0.0
H371 H 0.63326 0.13947 0.24282 0.0
O372 O 0.62515 0.22065 0.18232 0.0
C373 C 0.60775 0.16307 0.19686 0.0
Co374 Co 0.54793 0.87028 0.94988 0.0
Co375 Co 0.57507 0.86628 0.98198 0.0
C376 C 0.54345 0.83988 0.9766 0.0
O377 O 0.53841 0.84834 0.96274 0.0
O378 O 0.55745 0.84532 0.98543 0.0
C379 C 0.51272 0.8735 0.933 0.0
O380 O 0.50674 0.86675 0.94796 0.0
C381 C 0.58586 0.86382 0.01883 0.0
C382 C 0.61466 0.87452 0.01854 0.0
C383 C 0.60091 0.86777 0.02956 0.0
N384 N 0.59051 0.86796 0.00224 0.0
N385 N 0.60779 0.87424 0.00213 0.0
C386 C 0.56681 0.85778 0.02432 0.0
H387 H 0.55621 0.86355 0.01526 0.0
H388 H 0.56372 0.86236 0.03789 0.0
H389 H 0.56602 0.84238 0.02377 0.0
C390 C 0.54293 0.90754 0.9649 0.0
N391 N 0.55097 0.89066 0.96494 0.0
N392 N 0.56199 0.88917 0.97863 0.0
C393 C 0.56099 0.90511 0.98796 0.0
C394 C 0.54899 0.91724 0.97947 0.0
C395 C 0.52847 0.91352 0.95194 0.0
H396 H 0.53363 0.91107 0.93845 0.0
H397 H 0.51575 0.90508 0.95393 0.0
H398 H 0.52467 0.92836 0.95336 0.0
O399 O 0.57182 0.86411 0.93898 0.0
O400 O 0.59116 0.86007 0.96143 0.0
H401 H 0.56911 0.92312 0.00935 0.0
H402 H 0.56598 0.89889 0.0149 0.0
C403 C 0.57112 0.90862 0.00474 0.0
H404 H 0.58617 0.90604 0.00282 0.0
H405 H 0.61477 0.87865 0.99089 0.0
O406 O 0.53004 0.87623 0.93091 0.0
C407 C 0.58782 0.86013 0.94503 0.0
Co408 Co 0.88079 0.1996 0.79734 0.0
Co409 Co 0.88439 0.17204 0.76564 0.0
C410 C 0.91096 0.20351 0.77032 0.0
O411 O 0.90258 0.20867 0.78415 0.0
O412 O 0.9055 0.1894 0.76168 0.0
C413 C 0.87647 0.23563 0.81109 0.0
O414 O 0.88032 0.23991 0.79476 0.0
C415 C 0.88625 0.16103 0.72896 0.0
C416 C 0.87783 0.13149 0.72973 0.0
C417 C 0.88332 0.14555 0.71841 0.0
N418 N 0.88279 0.15626 0.74565 0.0
N419 N 0.87784 0.13857 0.74606 0.0
C420 C 0.89082 0.18045 0.72334 0.0
H421 H 0.88551 0.19064 0.73303 0.0
H422 H 0.88472 0.18352 0.71031 0.0
H423 H 0.90615 0.18202 0.72254 0.0
C424 C 0.8436 0.20497 0.78223 0.0
N425 N 0.86025 0.19649 0.78243 0.0
N426 N 0.86158 0.18536 0.76879 0.0
C427 C 0.84573 0.1867 0.75933 0.0
C428 C 0.83401 0.19935 0.76749 0.0
C429 C 0.83675 0.21815 0.79598 0.0
H430 H 0.84153 0.21361 0.80909 0.0
H431 H 0.84224 0.23226 0.79324 0.0
H432 H 0.82133 0.21888 0.79597 0.0
O433 O 0.88698 0.17599 0.80875 0.0
O434 O 0.89043 0.15632 0.78651 0.0
H435 H 0.84562 0.16204 0.7436 0.0
H436 H 0.82774 0.17866 0.73789 0.0
C437 C 0.84235 0.17704 0.74227 0.0
H438 H 0.85161 0.18303 0.73214 0.0
H439 H 0.87429 0.13139 0.75746 0.0
O440 O 0.87568 0.2186 0.81548 0.0
C441 C 0.89072 0.15986 0.80288 0.0
Co442 Co 0.54781 0.13044 0.54715 0.0
Co443 Co 0.57526 0.13355 0.51517 0.0
C444 C 0.54512 0.1613 0.52043 0.0
O445 O 0.53982 0.1529 0.53422 0.0
O446 O 0.55884 0.15541 0.51147 0.0
C447 C 0.51164 0.12738 0.56118 0.0
O448 O 0.5073 0.13162 0.54495 0.0
C449 C 0.58805 0.13635 0.47877 0.0
C450 C 0.61468 0.12102 0.47956 0.0
C451 C 0.60272 0.13039 0.4684 0.0
N452 N 0.59122 0.13083 0.49533 0.0
N453 N 0.60724 0.12182 0.49574 0.0
C454 C 0.57045 0.1455 0.47283 0.0
H455 H 0.55852 0.14042 0.4807 0.0
H456 H 0.56773 0.14273 0.45876 0.0
H457 H 0.57167 0.16075 0.47479 0.0
C458 C 0.54063 0.0939 0.53138 0.0
N459 N 0.54985 0.11014 0.53186 0.0
N460 N 0.56076 0.11141 0.51807 0.0
C461 C 0.55844 0.09603 0.50813 0.0
C462 C 0.5455 0.08457 0.51624 0.0
C463 C 0.52761 0.08715 0.5453 0.0
H464 H 0.53257 0.0916 0.55838 0.0
H465 H 0.51358 0.09305 0.54295 0.0
H466 H 0.52649 0.07175 0.54508 0.0
O467 O 0.57172 0.13514 0.55854 0.0
O468 O 0.59118 0.13885 0.53614 0.0
H469 H 0.58253 0.09229 0.49216 0.0
H470 H 0.56221 0.08013 0.48427 0.0
C471 C 0.56722 0.09307 0.4906 0.0
H472 H 0.56398 0.10504 0.48199 0.0
H473 H 0.61286 0.1158 0.50699 0.0
O474 O 0.52869 0.12588 0.56534 0.0
C475 C 0.58785 0.13863 0.55254 0.0
Co476 Co 0.61746 0.79858 0.29851 0.0
Co477 Co 0.61414 0.8234 0.26464 0.0
C478 C 0.58669 0.79345 0.27195 0.0
O479 O 0.59506 0.78939 0.28614 0.0
O480 O 0.59255 0.80639 0.26197 0.0
C481 C 0.62031 0.7637 0.31529 0.0
O482 O 0.61445 0.75799 0.2999 0.0
C483 C 0.60889 0.83675 0.22836 0.0
C484 C 0.63077 0.85821 0.22643 0.0
C485 C 0.61733 0.84902 0.21672 0.0
N486 N 0.61734 0.83828 0.24401 0.0
N487 N 0.63019 0.85135 0.24282 0.0
C488 C 0.59226 0.8247 0.22516 0.0
H489 H 0.58249 0.82607 0.2363 0.0
H490 H 0.59673 0.80995 0.2243 0.0
H491 H 0.58478 0.82871 0.21305 0.0
C492 C 0.65384 0.79013 0.28314 0.0
N493 N 0.63775 0.79963 0.28313 0.0
N494 N 0.63626 0.8091 0.26845 0.0
C495 C 0.65124 0.80533 0.25835 0.0
C496 C 0.66278 0.79318 0.26739 0.0
C497 C 0.66066 0.77831 0.29795 0.0
H498 H 0.65673 0.78463 0.31066 0.0
H499 H 0.65433 0.76429 0.29695 0.0
H500 H 0.67601 0.77674 0.29746 0.0
O501 O 0.61221 0.82313 0.3083 0.0
O502 O 0.60853 0.84068 0.28459 0.0
H503 H 0.65853 0.82606 0.23959 0.0
H504 H 0.6637 0.80269 0.23269 0.0
C505 C 0.65349 0.81149 0.23976 0.0
H506 H 0.63992 0.81087 0.23289 0.0
H507 H 0.63897 0.8552 0.25309 0.0
O508 O 0.62261 0.78101 0.31787 0.0
C509 C 0.60848 0.83869 0.30119 0.0
Co510 Co 0.95295 0.86627 0.0479 0.0
Co511 Co 0.92592 0.86313 0.01568 0.0
C512 C 0.95642 0.83553 0.02136 0.0
O513 O 0.96166 0.84388 0.03522 0.0
O514 O 0.9427 0.84144 0.01239 0.0
C515 C 0.98831 0.86934 0.06453 0.0
O516 O 0.99426 0.86293 0.04943 0.0
C517 C 0.91444 0.86062 0.97894 0.0
C518 C 0.88682 0.87409 0.97934 0.0
C519 C 0.89969 0.86583 0.96831 0.0
N520 N 0.91045 0.86552 0.9955 0.0
N521 N 0.89385 0.87343 0.99568 0.0
C522 C 0.93278 0.85278 0.97332 0.0
H523 H 0.94403 0.85787 0.98203 0.0
H524 H 0.936 0.85666 0.95959 0.0
H525 H 0.93224 0.83739 0.97429 0.0
C526 C 0.96013 0.90288 0.03231 0.0
N527 N 0.95102 0.88657 0.0326 0.0
N528 N 0.94003 0.88545 0.01885 0.0
C529 C 0.94207 0.90109 0.00921 0.0
C530 C 0.95499 0.91249 0.01741 0.0
C531 C 0.97329 0.90938 0.04622 0.0
H532 H 0.9678 0.90574 0.05933 0.0
H533 H 0.98694 0.90247 0.04436 0.0
H534 H 0.97539 0.92466 0.0456 0.0
O535 O 0.92881 0.86122 0.05878 0.0
O536 O 0.90953 0.85768 0.03624 0.0
H537 H 0.91759 0.90406 0.99359 0.0
H538 H 0.93696 0.91805 0.98624 0.0
C539 C 0.9329 0.90445 0.99192 0.0
H540 H 0.93688 0.89326 0.98267 0.0
H541 H 0.88751 0.87875 0.00691 0.0
O542 O 0.97097 0.87172 0.06681 0.0
C543 C 0.91273 0.85777 0.05266 0.0
Co544 Co 0.61791 0.70011 0.79838 0.0
Co545 Co 0.61497 0.6728 0.76644 0.0
C546 C 0.58786 0.70378 0.77118 0.0
O547 O 0.59607 0.709 0.78509 0.0
O548 O 0.59363 0.68985 0.76247 0.0
C549 C 0.62218 0.73612 0.81208 0.0
O550 O 0.61865 0.7403 0.79566 0.0
C551 C 0.61343 0.66194 0.7297 0.0
C552 C 0.62199 0.63244 0.73042 0.0
C553 C 0.61644 0.6465 0.71912 0.0
N554 N 0.61691 0.65716 0.74638 0.0
N555 N 0.62196 0.6395 0.74676 0.0
C556 C 0.60871 0.68135 0.72413 0.0
H557 H 0.6139 0.69154 0.73389 0.0
H558 H 0.61484 0.68453 0.71114 0.0
H559 H 0.59338 0.68279 0.72329 0.0
C560 C 0.65535 0.70573 0.78384 0.0
N561 N 0.63867 0.69732 0.78365 0.0
N562 N 0.63758 0.68635 0.76988 0.0
C563 C 0.6536 0.68777 0.76068 0.0
C564 C 0.66521 0.70028 0.76918 0.0
C565 C 0.66211 0.71839 0.79805 0.0
H566 H 0.65689 0.71362 0.81094 0.0
H567 H 0.65702 0.73269 0.79552 0.0
H568 H 0.67754 0.71877 0.79843 0.0
O569 O 0.61188 0.67634 0.80962 0.0
O570 O 0.60893 0.65688 0.78714 0.0
H571 H 0.65437 0.66315 0.74493 0.0
H572 H 0.67178 0.68025 0.73918 0.0
C573 C 0.65723 0.67824 0.74361 0.0
H574 H 0.64778 0.68396 0.7335 0.0
H575 H 0.6255 0.6323 0.75815 0.0
O576 O 0.62272 0.71911 0.8166 0.0
C577 C 0.60838 0.66023 0.80354 0.0
Co578 Co 0.54577 0.36616 0.04685 0.0
Co579 Co 0.5724 0.36359 0.01431 0.0
C580 C 0.54205 0.33605 0.01951 0.0
O581 O 0.53705 0.34421 0.03354 0.0
O582 O 0.55571 0.34198 0.01049 0.0
C583 C 0.51015 0.37153 0.06205 0.0
O584 O 0.50476 0.37015 0.04566 0.0
C585 C 0.58481 0.36121 0.97771 0.0
C586 C 0.6112 0.37696 0.97841 0.0
C587 C 0.59931 0.36747 0.96729 0.0
N588 N 0.58802 0.36669 0.99428 0.0
N589 N 0.6039 0.37595 0.99463 0.0
C590 C 0.56734 0.35178 0.97183 0.0
H591 H 0.55533 0.35692 0.97955 0.0
H592 H 0.56469 0.35422 0.95771 0.0
H593 H 0.5687 0.33659 0.9741 0.0
C594 C 0.5392 0.40358 0.03239 0.0
N595 N 0.54784 0.387 0.03214 0.0
N596 N 0.55823 0.38582 0.01798 0.0
C597 C 0.55598 0.40153 0.00848 0.0
C598 C 0.54375 0.41315 0.01731 0.0
C599 C 0.52738 0.41066 0.04708 0.0
H600 H 0.53221 0.40491 0.05975 0.0
H601 H 0.51272 0.40655 0.04482 0.0
H602 H 0.5279 0.42608 0.0477 0.0
O603 O 0.56984 0.36083 0.05762 0.0
O604 O 0.58882 0.35765 0.0348 0.0
H605 H 0.57955 0.40584 0.99198 0.0
H606 H 0.55879 0.41765 0.98465 0.0
C607 C 0.56423 0.40474 0.99076 0.0
H608 H 0.56101 0.39276 0.98215 0.0
H609 H 0.60951 0.38198 0.00588 0.0
O610 O 0.52735 0.37035 0.06568 0.0
C611 C 0.58583 0.35745 0.05126 0.0
Co612 Co 0.87962 0.29866 0.29721 0.0
Co613 Co 0.88431 0.32617 0.26559 0.0
C614 C 0.90993 0.29383 0.27051 0.0
O615 O 0.90128 0.28879 0.28424 0.0
O616 O 0.90485 0.30809 0.26186 0.0
C617 C 0.87549 0.26309 0.31287 0.0
O618 O 0.88179 0.2576 0.29757 0.0
C619 C 0.88534 0.3366 0.22876 0.0
C620 C 0.8809 0.36702 0.22958 0.0
C621 C 0.88377 0.35225 0.21824 0.0
N622 N 0.88329 0.34186 0.24552 0.0
N623 N 0.88064 0.36005 0.24596 0.0
C624 C 0.89038 0.31721 0.22339 0.0
H625 H 0.90554 0.31521 0.22541 0.0
H626 H 0.88301 0.307 0.2318 0.0
H627 H 0.88726 0.31446 0.20944 0.0
C628 C 0.84207 0.2952 0.28235 0.0
N629 N 0.85925 0.30257 0.28225 0.0
N630 N 0.861 0.31379 0.26872 0.0
C631 C 0.8449 0.31362 0.25959 0.0
C632 C 0.83244 0.30192 0.268 0.0
C633 C 0.83552 0.28095 0.29526 0.0
H634 H 0.83859 0.28576 0.30875 0.0
H635 H 0.84312 0.26776 0.29295 0.0
H636 H 0.82043 0.27814 0.29408 0.0
O637 O 0.88667 0.32212 0.30855 0.0
O638 O 0.89077 0.34176 0.28638 0.0
H639 H 0.84602 0.33898 0.2449 0.0
H640 H 0.82644 0.32422 0.23959 0.0
C641 C 0.84141 0.32439 0.24316 0.0
H642 H 0.84951 0.31814 0.2323 0.0
H643 H 0.87874 0.3677 0.25743 0.0
O644 O 0.87329 0.28038 0.31569 0.0
C645 C 0.89094 0.33816 0.30274 0.0
Co646 Co 0.95367 0.63096 0.54702 0.0
Co647 Co 0.92632 0.63427 0.51502 0.0
C648 C 0.95852 0.66038 0.51956 0.0
O649 O 0.96367 0.65224 0.53355 0.0
O650 O 0.94433 0.65485 0.51106 0.0
C651 C 0.98885 0.6274 0.56402 0.0
O652 O 0.99501 0.63392 0.54903 0.0
C653 C 0.91577 0.63323 0.47797 0.0
C654 C 0.88508 0.63253 0.47939 0.0
C655 C 0.89983 0.633 0.46774 0.0
N656 N 0.91067 0.63278 0.4949 0.0
N657 N 0.89231 0.63226 0.49566 0.0
C658 C 0.93543 0.6356 0.47189 0.0
H659 H 0.94523 0.63493 0.48308 0.0
H660 H 0.93915 0.62455 0.46242 0.0
H661 H 0.93686 0.64918 0.46512 0.0
C662 C 0.95759 0.59297 0.53325 0.0
N663 N 0.95004 0.61006 0.53258 0.0
N664 N 0.93872 0.61114 0.51906 0.0
C665 C 0.93887 0.59464 0.51061 0.0
C666 C 0.95078 0.58264 0.51937 0.0
C667 C 0.9722 0.58723 0.54616 0.0
H668 H 0.9672 0.58997 0.55965 0.0
H669 H 0.9849 0.59561 0.54388 0.0
H670 H 0.97597 0.57236 0.54497 0.0
O671 O 0.92998 0.63835 0.55786 0.0
O672 O 0.91052 0.64131 0.53541 0.0
H673 H 0.91349 0.59587 0.49591 0.0
H674 H 0.92706 0.57502 0.4923 0.0
C675 C 0.92778 0.59025 0.49457 0.0
H676 H 0.93446 0.59684 0.48306 0.0
H677 H 0.88471 0.63209 0.5073 0.0
O678 O 0.97147 0.62505 0.56609 0.0
C679 C 0.91396 0.64222 0.55176 0.0
Co680 Co 0.61842 0.29736 0.7 0.0
Co681 Co 0.6147 0.32353 0.73282 0.0
C682 C 0.58756 0.29321 0.72669 0.0
O683 O 0.59615 0.28873 0.71275 0.0
O684 O 0.59312 0.30664 0.73622 0.0
C685 C 0.62234 0.26146 0.68605 0.0
O686 O 0.61837 0.25726 0.70237 0.0
C687 C 0.61154 0.33599 0.76936 0.0
C688 C 0.62736 0.36234 0.76891 0.0
C689 C 0.61766 0.35046 0.77989 0.0
N690 N 0.61731 0.33919 0.75288 0.0
N691 N 0.6266 0.35506 0.75268 0.0
C692 C 0.60197 0.31853 0.77508 0.0
H693 H 0.60722 0.3065 0.76745 0.0
H694 H 0.60414 0.31587 0.78925 0.0
H695 H 0.58683 0.31991 0.77256 0.0
C696 C 0.6551 0.29042 0.71559 0.0
N697 N 0.63871 0.29939 0.71531 0.0
N698 N 0.63709 0.30958 0.72955 0.0
C699 C 0.65236 0.30696 0.73958 0.0
C700 C 0.66412 0.29464 0.73104 0.0
C701 C 0.66219 0.27802 0.70133 0.0
H702 H 0.65752 0.28316 0.68838 0.0
H703 H 0.65683 0.26372 0.7034 0.0
H704 H 0.67762 0.27741 0.70151 0.0
O705 O 0.61299 0.32137 0.68911 0.0
O706 O 0.60904 0.33985 0.71217 0.0
H707 H 0.65582 0.33015 0.75675 0.0
H708 H 0.6677 0.30936 0.7639 0.0
C709 C 0.65491 0.31478 0.75757 0.0
H710 H 0.64271 0.31118 0.76576 0.0
H711 H 0.63284 0.36066 0.74153 0.0
O712 O 0.62331 0.27849 0.68166 0.0
C713 C 0.60908 0.33718 0.69565 0.0
Co714 Co 0.95188 0.3699 0.95293 0.0
Co715 Co 0.92364 0.36411 0.9838 0.0
C716 C 0.9567 0.33946 0.97961 0.0
O717 O 0.96178 0.34831 0.96602 0.0
O718 O 0.94213 0.34411 0.98799 0.0
C719 C 0.98799 0.37619 0.93979 0.0
O720 O 0.99226 0.37223 0.9561 0.0
C721 C 0.91233 0.36271 0.02033 0.0
C722 C 0.88179 0.36591 0.01891 0.0
C723 C 0.89641 0.36368 0.03054 0.0
N724 N 0.90736 0.3645 0.00347 0.0
N725 N 0.8891 0.36639 0.00267 0.0
C726 C 0.9318 0.35852 0.0261 0.0
H727 H 0.94189 0.36599 0.01765 0.0
H728 H 0.9342 0.36217 0.03999 0.0
H729 H 0.93434 0.34339 0.02455 0.0
C730 C 0.95343 0.4076 0.96788 0.0
N731 N 0.94689 0.39008 0.96785 0.0
N732 N 0.93542 0.38783 0.98113 0.0
C733 C 0.93469 0.4039 0.99028 0.0
C734 C 0.94601 0.41689 0.98211 0.0
C735 C 0.96742 0.41493 0.95508 0.0
H736 H 0.96372 0.41041 0.94165 0.0
H737 H 0.98131 0.40928 0.95842 0.0
H738 H 0.96831 0.4303 0.95535 0.0
O739 O 0.92894 0.36273 0.94081 0.0
O740 O 0.90892 0.35737 0.96248 0.0
H741 H 0.90905 0.40174 0.00441 0.0
H742 H 0.92288 0.42188 0.01006 0.0
C743 C 0.9234 0.40692 0.00648 0.0
H744 H 0.9297 0.39907 0.01747 0.0
H745 H 0.88163 0.36796 0.99105 0.0
O746 O 0.97098 0.37637 0.93526 0.0
C747 C 0.91293 0.35785 0.94622 0.0
Co748 Co 0.88147 0.70026 0.20095 0.0
Co749 Co 0.88476 0.67323 0.23313 0.0
C750 C 0.9115 0.70444 0.22816 0.0
O751 O 0.90325 0.70942 0.21419 0.0
O752 O 0.90586 0.69054 0.23701 0.0
C753 C 0.87693 0.73615 0.18692 0.0
O754 O 0.88047 0.74054 0.20329 0.0
C755 C 0.88598 0.66241 0.26997 0.0
C756 C 0.87861 0.63257 0.26902 0.0
C757 C 0.88331 0.64683 0.28039 0.0
N758 N 0.88282 0.65761 0.25323 0.0
N759 N 0.87842 0.63977 0.25273 0.0
C760 C 0.89307 0.68113 0.2754 0.0
H761 H 0.88633 0.69216 0.26747 0.0
H762 H 0.89083 0.68386 0.28951 0.0
H763 H 0.90824 0.68173 0.27281 0.0
C764 C 0.84405 0.70571 0.21561 0.0
N765 N 0.86077 0.69737 0.21575 0.0
N766 N 0.86204 0.68658 0.22963 0.0
C767 C 0.84613 0.68806 0.23896 0.0
C768 C 0.83436 0.70041 0.23042 0.0
C769 C 0.83714 0.71823 0.20136 0.0
H770 H 0.84231 0.71339 0.18847 0.0
H771 H 0.84218 0.73258 0.20376 0.0
H772 H 0.8217 0.71853 0.20106 0.0
O773 O 0.88775 0.67648 0.18986 0.0
O774 O 0.89101 0.65727 0.21249 0.0
H775 H 0.84536 0.66373 0.25508 0.0
H776 H 0.82845 0.68124 0.26104 0.0
C777 C 0.84281 0.67888 0.25627 0.0
H778 H 0.85268 0.68457 0.26604 0.0
H779 H 0.87539 0.63248 0.24126 0.0
O780 O 0.87646 0.71908 0.18259 0.0
C781 C 0.89148 0.66047 0.19606 0.0
Co782 Co 0.54746 0.63115 0.45228 0.0
Co783 Co 0.57477 0.63443 0.4842 0.0
C784 C 0.54325 0.66096 0.47964 0.0
O785 O 0.5382 0.65276 0.46567 0.0
O786 O 0.55729 0.65539 0.48832 0.0
C787 C 0.51154 0.62649 0.43838 0.0
O788 O 0.50718 0.63018 0.45473 0.0
C789 C 0.58578 0.63582 0.52092 0.0
C790 C 0.61545 0.62794 0.51995 0.0
C791 C 0.60135 0.63303 0.53139 0.0
N792 N 0.59054 0.63265 0.50417 0.0
N793 N 0.6083 0.628 0.50365 0.0
C794 C 0.56631 0.64005 0.52662 0.0
H795 H 0.55618 0.63479 0.51685 0.0
H796 H 0.56333 0.63369 0.53956 0.0
H797 H 0.56455 0.65535 0.52764 0.0
C798 C 0.54229 0.59365 0.46689 0.0
N799 N 0.55062 0.61038 0.46695 0.0
N800 N 0.56167 0.61158 0.48066 0.0
C801 C 0.56044 0.59557 0.48989 0.0
C802 C 0.54795 0.58387 0.4815 0.0
C803 C 0.52918 0.58689 0.45305 0.0
H804 H 0.53368 0.59187 0.44 0.0
H805 H 0.51502 0.59221 0.45586 0.0
H806 H 0.52856 0.57146 0.45288 0.0
O807 O 0.57111 0.63772 0.44104 0.0
O808 O 0.59051 0.64093 0.46353 0.0
H809 H 0.58503 0.59546 0.50569 0.0
H810 H 0.56865 0.57721 0.51096 0.0
C811 C 0.57008 0.59195 0.5069 0.0
H812 H 0.56392 0.60089 0.5172 0.0
H813 H 0.6155 0.62476 0.49219 0.0
O814 O 0.52859 0.62604 0.43401 0.0
C815 C 0.58715 0.64152 0.44714 0.0
Co816 Co 0.37776 0.29304 0.20393 0.0
Co817 Co 0.38372 0.32252 0.23372 0.0
C818 C 0.40897 0.28963 0.22971 0.0
O819 O 0.39959 0.28371 0.21675 0.0
O820 O 0.40448 0.30457 0.23759 0.0
C821 C 0.37194 0.25668 0.19075 0.0
O822 O 0.37666 0.25222 0.20683 0.0
C823 C 0.38521 0.33424 0.27014 0.0
C824 C 0.38372 0.36489 0.26836 0.0
C825 C 0.38513 0.35032 0.28017 0.0
N826 N 0.38372 0.33907 0.25321 0.0
N827 N 0.38282 0.3574 0.2522 0.0
C828 C 0.38837 0.31469 0.2762 0.0
H829 H 0.38303 0.30466 0.26636 0.0
H830 H 0.38164 0.31202 0.28899 0.0
H831 H 0.40354 0.31239 0.27779 0.0
C832 C 0.34048 0.29135 0.21959 0.0
N833 N 0.35787 0.29818 0.21909 0.0
N834 N 0.36015 0.3102 0.23193 0.0
C835 C 0.34417 0.3111 0.24122 0.0
C836 C 0.33127 0.29924 0.23363 0.0
C837 C 0.3332 0.27676 0.20739 0.0
H838 H 0.33687 0.28038 0.19372 0.0
H839 H 0.33971 0.26323 0.21069 0.0
H840 H 0.31791 0.27514 0.20839 0.0
O841 O 0.38483 0.31565 0.1913 0.0
O842 O 0.38931 0.337 0.21193 0.0
H843 H 0.3466 0.33732 0.25438 0.0
H844 H 0.32608 0.32412 0.26019 0.0
C845 C 0.34109 0.32317 0.25689 0.0
H846 H 0.34857 0.31718 0.26826 0.0
H847 H 0.38176 0.3648 0.24049 0.0
O848 O 0.37112 0.27375 0.18651 0.0
C849 C 0.38916 0.33212 0.19585 0.0
Co850 Co 0.45228 0.63267 0.95206 0.0
Co851 Co 0.42562 0.63656 0.9844 0.0
C852 C 0.4568 0.6633 0.97847 0.0
O853 O 0.46171 0.6548 0.96461 0.0
O854 O 0.44302 0.65776 0.98755 0.0
C855 C 0.48759 0.62891 0.93587 0.0
O856 O 0.49328 0.6352 0.95111 0.0
C857 C 0.41565 0.63804 0.0214 0.0
C858 C 0.38553 0.63186 0.02098 0.0
C859 C 0.4002 0.63595 0.03209 0.0
N860 N 0.41038 0.63515 0.00475 0.0
N861 N 0.39237 0.63146 0.00456 0.0
C862 C 0.43475 0.64433 0.02652 0.0
H863 H 0.44528 0.63801 0.01772 0.0
H864 H 0.43802 0.6409 0.04031 0.0
H865 H 0.43556 0.65965 0.02498 0.0
C866 C 0.45857 0.59588 0.96771 0.0
N867 N 0.44983 0.61239 0.96741 0.0
N868 N 0.43893 0.61377 0.98121 0.0
C869 C 0.44059 0.59807 0.99082 0.0
C870 C 0.45327 0.58639 0.98263 0.0
C871 C 0.47171 0.58914 0.95389 0.0
H872 H 0.46636 0.59284 0.94073 0.0
H873 H 0.48546 0.59582 0.95581 0.0
H874 H 0.47354 0.57383 0.95455 0.0
O875 O 0.42826 0.63866 0.94126 0.0
O876 O 0.40926 0.64231 0.96396 0.0
H877 H 0.41623 0.59808 0.00695 0.0
H878 H 0.43296 0.58026 0.01254 0.0
C879 C 0.43125 0.59483 0.00806 0.0
H880 H 0.43743 0.60417 0.01802 0.0
H881 H 0.38473 0.62877 0.99322 0.0
O882 O 0.47027 0.62677 0.93324 0.0
C883 C 0.4123 0.64247 0.94751 0.0
Co884 Co 0.11827 0.69782 0.69759 0.0
Co885 Co 0.11468 0.67394 0.73197 0.0
C886 C 0.08688 0.70294 0.72369 0.0
O887 O 0.09517 0.70629 0.7093 0.0
O888 O 0.09314 0.69096 0.73446 0.0
C889 C 0.12091 0.73279 0.68127 0.0
O890 O 0.11524 0.7381 0.69684 0.0
C891 C 0.10932 0.66084 0.76831 0.0
C892 C 0.13108 0.63924 0.77031 0.0
C893 C 0.11767 0.64854 0.77997 0.0
N894 N 0.1178 0.65922 0.75268 0.0
N895 N 0.13058 0.64608 0.75391 0.0
C896 C 0.09284 0.67311 0.77151 0.0
H897 H 0.08306 0.67199 0.76035 0.0
H898 H 0.09753 0.68777 0.7725 0.0
H899 H 0.08528 0.66912 0.78359 0.0
C900 C 0.15447 0.70681 0.71321 0.0
N901 N 0.13831 0.69742 0.71332 0.0
N902 N 0.13671 0.68825 0.72815 0.0
C903 C 0.15165 0.69214 0.73825 0.0
C904 C 0.16332 0.70403 0.72906 0.0
C905 C 0.16157 0.71793 0.69804 0.0
H906 H 0.1574 0.71133 0.68553 0.0
H907 H 0.15566 0.73216 0.69863 0.0
H908 H 0.17696 0.71905 0.69844 0.0
O909 O 0.11388 0.6731 0.68794 0.0
O910 O 0.10919 0.65643 0.71206 0.0
H911 H 0.15896 0.67171 0.75732 0.0
H912 H 0.16381 0.69523 0.764 0.0
C913 C 0.15377 0.68623 0.75693 0.0
H914 H 0.14013 0.6868 0.76368 0.0
H915 H 0.13934 0.64215 0.74366 0.0
O916 O 0.12326 0.71555 0.67832 0.0
C917 C 0.10973 0.65784 0.69541 0.0
Co918 Co 0.04534 0.36776 0.45391 0.0
Co919 Co 0.07355 0.36317 0.48502 0.0
C920 C 0.04158 0.33693 0.48014 0.0
O921 O 0.0361 0.34562 0.46657 0.0
O922 O 0.05586 0.34225 0.48864 0.0
C923 C 0.00975 0.37112 0.43774 0.0
O924 O 0.0041 0.36372 0.45254 0.0
C925 C 0.08419 0.36149 0.52173 0.0
C926 C 0.11434 0.36735 0.52099 0.0
C927 C 0.09978 0.36344 0.53234 0.0
N928 N 0.08936 0.36403 0.505 0.0
N929 N 0.1074 0.36745 0.50461 0.0
C930 C 0.0644 0.35874 0.52724 0.0
H931 H 0.0548 0.36436 0.51717 0.0
H932 H 0.06167 0.36565 0.53998 0.0
H933 H 0.06161 0.34363 0.52863 0.0
C934 C 0.0412 0.40488 0.46938 0.0
N935 N 0.04893 0.38787 0.46919 0.0
N936 N 0.06069 0.38631 0.48233 0.0
C937 C 0.06063 0.40243 0.49143 0.0
C938 C 0.04835 0.41467 0.48344 0.0
C939 C 0.02629 0.41107 0.45698 0.0
H940 H 0.03117 0.40926 0.4433 0.0
H941 H 0.01382 0.40226 0.45891 0.0
H942 H 0.02221 0.42576 0.45903 0.0
O943 O 0.06891 0.36173 0.44225 0.0
O944 O 0.08902 0.35729 0.46402 0.0
H945 H 0.08669 0.40144 0.505 0.0
H946 H 0.07238 0.42131 0.51049 0.0
C947 C 0.07225 0.40625 0.50727 0.0
H948 H 0.06648 0.39851 0.51859 0.0
H949 H 0.11493 0.37003 0.49318 0.0
O950 O 0.02699 0.37418 0.43551 0.0
C951 C 0.08512 0.35766 0.44774 0.0
Co952 Co 0.37933 0.69882 0.2999 0.0
Co953 Co 0.38465 0.67237 0.26756 0.0
C954 C 0.41074 0.70386 0.27434 0.0
O955 O 0.40182 0.7085 0.28806 0.0
O956 O 0.40559 0.69012 0.26502 0.0
C957 C 0.37471 0.73408 0.31586 0.0
O958 O 0.38095 0.73972 0.30059 0.0
C959 C 0.38719 0.66289 0.23052 0.0
C960 C 0.38186 0.63261 0.23046 0.0
C961 C 0.38573 0.64755 0.21961 0.0
N962 N 0.38413 0.6573 0.24706 0.0
N963 N 0.38096 0.63919 0.24696 0.0
C964 C 0.39299 0.68224 0.22572 0.0
H965 H 0.38651 0.69245 0.23475 0.0
H966 H 0.38936 0.68571 0.21202 0.0
H967 H 0.4083 0.68337 0.22713 0.0
C968 C 0.34303 0.70477 0.28322 0.0
N969 N 0.35962 0.69622 0.28395 0.0
N970 N 0.36157 0.68537 0.27018 0.0
C971 C 0.34616 0.6869 0.26012 0.0
C972 C 0.33409 0.69943 0.26801 0.0
C973 C 0.33569 0.71777 0.29689 0.0
H974 H 0.33915 0.71248 0.31012 0.0
H975 H 0.34215 0.73165 0.29512 0.0
H976 H 0.32037 0.71931 0.29586 0.0
O977 O 0.38492 0.67477 0.31076 0.0
O978 O 0.3901 0.65601 0.28811 0.0
H979 H 0.34727 0.66269 0.2438 0.0
H980 H 0.32903 0.67889 0.23805 0.0
C981 C 0.34356 0.67761 0.24276 0.0
H982 H 0.35286 0.6842 0.233 0.0
H983 H 0.37827 0.63132 0.25816 0.0
O984 O 0.37279 0.71675 0.31861 0.0
C985 C 0.38928 0.65894 0.30455 0.0
Co986 Co 0.04733 0.62913 0.04689 0.0
Co987 Co 0.07402 0.63256 0.01445 0.0
C988 C 0.04232 0.65884 0.0195 0.0
O989 O 0.03753 0.65059 0.03354 0.0
O990 O 0.05628 0.65338 0.01062 0.0
C991 C 0.01205 0.62585 0.06333 0.0
O992 O 0.00631 0.63197 0.04805 0.0
C993 C 0.08505 0.63454 0.97762 0.0
C994 C 0.11365 0.62329 0.97818 0.0
C995 C 0.10012 0.63024 0.96703 0.0
N996 N 0.08949 0.63041 0.99427 0.0
N997 N 0.10665 0.6238 0.99454 0.0
C998 C 0.06618 0.64093 0.97195 0.0
H999 H 0.06562 0.65634 0.97259 0.0
H1000 H 0.05537 0.63527 0.98085 0.0
H1001 H 0.06317 0.63649 0.95833 0.0
C1002 C 0.04265 0.59138 0.03281 0.0
N1003 N 0.05052 0.60833 0.03233 0.0
N1004 N 0.06114 0.60969 0.01835 0.0
C1005 C 0.05995 0.59363 0.00923 0.0
C1006 C 0.04831 0.58153 0.01819 0.0
C1007 C 0.02865 0.58542 0.04622 0.0
H1008 H 0.03382 0.58884 0.05951 0.0
H1009 H 0.01549 0.59307 0.04395 0.0
H1010 H 0.02563 0.57034 0.04555 0.0
O1011 O 0.07114 0.63608 0.05756 0.0
O1012 O 0.09015 0.63933 0.03479 0.0
H1013 H 0.08458 0.59224 0.99363 0.0
H1014 H 0.06691 0.57564 0.98746 0.0
C1015 C 0.06941 0.59004 0.99213 0.0
H1016 H 0.06419 0.60001 0.9822 0.0
H1017 H 0.11345 0.61935 0.00585 0.0
O1018 O 0.02937 0.62353 0.06586 0.0
C1019 C 0.08704 0.63999 0.05123 0.0
Co1020 Co 0.11604 0.29597 0.79845 0.0
Co1021 Co 0.1122 0.32408 0.76719 0.0
C1022 C 0.08529 0.29291 0.7719 0.0
O1023 O 0.09376 0.28747 0.7856 0.0
O1024 O 0.09088 0.307 0.76331 0.0
C1025 C 0.1202 0.25969 0.81192 0.0
O1026 O 0.11568 0.25549 0.79572 0.0
C1027 C 0.11003 0.33557 0.73065 0.0
C1028 C 0.11847 0.36509 0.73169 0.0
C1029 C 0.1129 0.35118 0.72025 0.0
N1030 N 0.11363 0.34012 0.74737 0.0
N1031 N 0.11859 0.3578 0.74794 0.0
C1032 C 0.10542 0.31622 0.72485 0.0
H1033 H 0.11078 0.30591 0.73441 0.0
H1034 H 0.11144 0.3133 0.71175 0.0
H1035 H 0.09009 0.31467 0.72411 0.0
C1036 C 0.15281 0.29022 0.78252 0.0
N1037 N 0.13628 0.29891 0.78314 0.0
N1038 N 0.13491 0.31043 0.76979 0.0
C1039 C 0.15063 0.30919 0.76013 0.0
C1040 C 0.16228 0.29618 0.76785 0.0
C1041 C 0.15968 0.27654 0.79582 0.0
H1042 H 0.15539 0.2809 0.80913 0.0
H1043 H 0.15373 0.26265 0.79293 0.0
H1044 H 0.17507 0.27539 0.79543 0.0
O1045 O 0.11079 0.31959 0.8103 0.0
O1046 O 0.1067 0.33955 0.78835 0.0
H1047 H 0.15074 0.33436 0.74514 0.0
H1048 H 0.16871 0.31797 0.73906 0.0
C1049 C 0.15405 0.31942 0.74339 0.0
H1050 H 0.14487 0.31374 0.73304 0.0
H1051 H 0.12223 0.36483 0.75939 0.0
O1052 O 0.12136 0.2767 0.8163 0.0
C1053 C 0.10703 0.33582 0.80467 0.0
Co1054 Co 0.45265 0.36751 0.54727 0.0
Co1055 Co 0.42549 0.36326 0.51524 0.0
C1056 C 0.4569 0.33673 0.52095 0.0
O1057 O 0.46187 0.34525 0.53478 0.0
O1058 O 0.44301 0.34219 0.51197 0.0
C1059 C 0.48811 0.37099 0.56346 0.0
O1060 O 0.49378 0.36441 0.54832 0.0
C1061 C 0.41508 0.36151 0.4783 0.0
C1062 C 0.38519 0.36867 0.47889 0.0
C1063 C 0.39963 0.36409 0.46769 0.0
N1064 N 0.41003 0.36463 0.49499 0.0
N1065 N 0.39215 0.36888 0.49527 0.0
C1066 C 0.43396 0.35463 0.47311 0.0
H1067 H 0.44481 0.36171 0.48102 0.0
H1068 H 0.43678 0.35662 0.45899 0.0
H1069 H 0.4348 0.33953 0.476 0.0
C1070 C 0.45905 0.40392 0.53101 0.0
N1071 N 0.45009 0.38755 0.53172 0.0
N1072 N 0.43887 0.38609 0.51815 0.0
C1073 C 0.44052 0.40164 0.5083 0.0
C1074 C 0.45352 0.41325 0.5161 0.0
C1075 C 0.47286 0.41054 0.5443 0.0
H1076 H 0.46779 0.40739 0.55767 0.0
H1077 H 0.48628 0.40329 0.54219 0.0
H1078 H 0.47524 0.42575 0.54319 0.0
O1079 O 0.42869 0.36197 0.55835 0.0
O1080 O 0.4094 0.35755 0.53594 0.0
H1081 H 0.41588 0.40161 0.49255 0.0
H1082 H 0.43258 0.41935 0.48664 0.0
C1083 C 0.43089 0.40479 0.4912 0.0
H1084 H 0.43687 0.39537 0.48119 0.0
H1085 H 0.3847 0.37191 0.50665 0.0
O1086 O 0.47082 0.37348 0.56597 0.0
C1087 C 0.41268 0.35797 0.55235 0.0
C1088 C 0.10888 0.1178 0.05997 0.0
C1089 C 0.10348 0.13335 0.05012 0.0
C1090 C 0.1103 0.11897 0.07818 0.0
C1091 C 0.096 0.14874 0.11587 0.0
H1092 H 0.13331 0.11998 0.14063 0.0
C1093 C 0.11568 0.16126 0.18816 0.0
C1094 C 0.11489 0.14556 0.19909 0.0
C1095 C 0.11422 0.15937 0.17002 0.0
C1096 C 0.12276 0.12798 0.13385 0.0
H1097 H 0.09619 0.16252 0.05131 0.0
H1098 H 0.09932 0.16487 0.08301 0.0
H1099 H 0.1313 0.1179 0.1088 0.0
H1100 H 0.11334 0.11546 0.19954 0.0
H1101 H 0.11131 0.11211 0.16764 0.0
H1102 H 0.08802 0.1593 0.14101 0.0
C1103 C 0.10173 0.15152 0.07687 0.0
C1104 C 0.12151 0.12674 0.11562 0.0
C1105 C 0.1 0.15023 0.05869 0.0
C1106 C 0.11364 0.12783 0.19144 0.0
C1107 C 0.11252 0.1259 0.17324 0.0
C1108 C 0.09749 0.15021 0.13404 0.0
C1109 C 0.10672 0.13585 0.08691 0.0
C1110 C 0.1081 0.13711 0.10636 0.0
C1111 C 0.11254 0.14169 0.16241 0.0
C1112 C 0.11086 0.13984 0.14319 0.0
H1113 H 0.11159 0.1046 0.0536 0.0
H1114 H 0.11388 0.10652 0.08541 0.0
H1115 H 0.08521 0.15661 0.10932 0.0
H1116 H 0.11771 0.17503 0.19356 0.0
H1117 H 0.11471 0.17172 0.1619 0.0
C1118 C 0.09443 0.85091 0.43964 0.0
C1119 C 0.10081 0.86677 0.4485 0.0
C1120 C 0.09614 0.84957 0.42147 0.0
C1121 C 0.12135 0.87 0.3835 0.0
H1122 H 0.0825 0.84533 0.35701 0.0
C1123 C 0.11828 0.86957 0.3076 0.0
C1124 C 0.11531 0.85206 0.29992 0.0
C1125 C 0.11623 0.872 0.32568 0.0
C1126 C 0.09348 0.8522 0.36427 0.0
H1127 H 0.11418 0.89354 0.44547 0.0
H1128 H 0.11668 0.89155 0.41365 0.0
H1129 H 0.07936 0.84858 0.38864 0.0
H1130 H 0.10923 0.82307 0.30542 0.0
H1131 H 0.10486 0.8275 0.33677 0.0
H1132 H 0.13524 0.87389 0.35893 0.0
C1133 C 0.11066 0.87995 0.42069 0.0
C1134 C 0.09176 0.85398 0.38241 0.0
C1135 C 0.10915 0.88116 0.43891 0.0
C1136 C 0.11065 0.83695 0.31074 0.0
C1137 C 0.10836 0.83942 0.32874 0.0
C1138 C 0.12295 0.86843 0.36532 0.0
C1139 C 0.10415 0.86413 0.41172 0.0
C1140 C 0.10575 0.86275 0.39231 0.0
C1141 C 0.11115 0.85695 0.33639 0.0
C1142 C 0.1091 0.85936 0.35556 0.0
H1143 H 0.0884 0.83939 0.44679 0.0
H1144 H 0.09141 0.83697 0.41511 0.0
H1145 H 0.13256 0.87657 0.39067 0.0
H1146 H 0.12214 0.88142 0.29963 0.0
H1147 H 0.11847 0.88567 0.33126 0.0
C1148 C 0.3822 0.86887 0.68967 0.0
C1149 C 0.38424 0.85132 0.69751 0.0
C1150 C 0.38372 0.87088 0.67151 0.0
C1151 C 0.38176 0.84348 0.63021 0.0
H1152 H 0.4054 0.88713 0.61037 0.0
C1153 C 0.40232 0.84921 0.55729 0.0
C1154 C 0.39734 0.86578 0.54877 0.0
C1155 C 0.40047 0.84761 0.57544 0.0
C1156 C 0.39865 0.87494 0.61575 0.0
H1157 H 0.38824 0.82194 0.69231 0.0
H1158 H 0.39203 0.82553 0.66092 0.0
H1159 H 0.40298 0.88401 0.64211 0.0
H1160 H 0.3863 0.89354 0.55236 0.0
H1161 H 0.3833 0.89084 0.58421 0.0
H1162 H 0.37788 0.83426 0.60379 0.0
C1163 C 0.38917 0.8378 0.66869 0.0
C1164 C 0.39718 0.87316 0.63393 0.0
C1165 C 0.38745 0.83578 0.6868 0.0
C1166 C 0.39032 0.88066 0.55867 0.0
C1167 C 0.38871 0.87915 0.57685 0.0
C1168 C 0.38344 0.84517 0.61206 0.0
C1169 C 0.38726 0.85536 0.66078 0.0
C1170 C 0.38873 0.85738 0.64141 0.0
C1171 C 0.39374 0.8626 0.5854 0.0
C1172 C 0.39189 0.8609 0.60466 0.0
H1173 H 0.37939 0.88105 0.69758 0.0
H1174 H 0.38179 0.88457 0.66588 0.0
H1175 H 0.37479 0.83134 0.63543 0.0
H1176 H 0.4074 0.8374 0.54991 0.0
H1177 H 0.40449 0.8347 0.58171 0.0
C1178 C 0.39635 0.13351 0.80777 0.0
C1179 C 0.38586 0.14785 0.80019 0.0
C1180 C 0.39757 0.13189 0.82598 0.0
C1181 C 0.37332 0.14463 0.86675 0.0
H1182 H 0.42115 0.13539 0.88853 0.0
C1183 C 0.38368 0.14852 0.94165 0.0
C1184 C 0.39569 0.13551 0.94936 0.0
C1185 C 0.38242 0.14993 0.92343 0.0
C1186 C 0.40764 0.13773 0.88266 0.0
H1187 H 0.36749 0.17104 0.8055 0.0
H1188 H 0.3698 0.16843 0.83735 0.0
H1189 H 0.41903 0.13787 0.85675 0.0
H1190 H 0.41479 0.11288 0.94421 0.0
H1191 H 0.41267 0.11529 0.91241 0.0
H1192 H 0.36187 0.14435 0.89259 0.0
C1193 C 0.37727 0.15855 0.82927 0.0
C1194 C 0.40645 0.13918 0.86444 0.0
C1195 C 0.37616 0.16023 0.81107 0.0
C1196 C 0.40603 0.12357 0.93858 0.0
C1197 C 0.40471 0.1249 0.92037 0.0
C1198 C 0.37449 0.1431 0.88496 0.0
C1199 C 0.38805 0.14441 0.83694 0.0
C1200 C 0.38928 0.14269 0.85628 0.0
C1201 C 0.39296 0.13816 0.91255 0.0
C1202 C 0.39168 0.13968 0.89315 0.0
H1203 H 0.40373 0.12365 0.7996 0.0
H1204 H 0.40575 0.12068 0.8315 0.0
H1205 H 0.35985 0.14708 0.86083 0.0
H1206 H 0.37549 0.15781 0.94973 0.0
H1207 H 0.37337 0.16043 0.91789 0.0
C1208 C 0.89114 0.87896 0.93915 0.0
C1209 C 0.89804 0.86407 0.94911 0.0
C1210 C 0.88981 0.8775 0.92094 0.0
C1211 C 0.88493 0.84382 0.88553 0.0
H1212 H 0.90548 0.88259 0.85601 0.0
C1213 C 0.8888 0.83534 0.81062 0.0
C1214 C 0.88597 0.85114 0.80014 0.0
C1215 C 0.89068 0.83703 0.82875 0.0
C1216 C 0.89941 0.87176 0.86403 0.0
H1217 H 0.90818 0.83572 0.94805 0.0
H1218 H 0.90567 0.83307 0.91619 0.0
H1219 H 0.90751 0.88542 0.88779 0.0
H1220 H 0.88203 0.881 0.80051 0.0
H1221 H 0.88463 0.88395 0.83222 0.0
H1222 H 0.87632 0.83035 0.86196 0.0
C1223 C 0.90156 0.84595 0.92245 0.0
C1224 C 0.90065 0.87337 0.88224 0.0
C1225 C 0.90315 0.84752 0.94062 0.0
C1226 C 0.88453 0.86861 0.80824 0.0
C1227 C 0.88618 0.8703 0.82641 0.0
C1228 C 0.88344 0.84232 0.86734 0.0
C1229 C 0.89499 0.86097 0.91243 0.0
C1230 C 0.8935 0.85937 0.89314 0.0
C1231 C 0.88929 0.85452 0.83692 0.0
C1232 C 0.89075 0.85622 0.85633 0.0
H1233 H 0.88704 0.89183 0.94543 0.0
H1234 H 0.88452 0.88921 0.91353 0.0
H1235 H 0.87909 0.83294 0.89366 0.0
H1236 H 0.8891 0.82157 0.80493 0.0
H1237 H 0.89319 0.82457 0.83635 0.0
C1238 C 0.89856 0.15378 0.68985 0.0
C1239 C 0.88483 0.14398 0.69913 0.0
C1240 C 0.89957 0.15255 0.67163 0.0
C1241 C 0.8866 0.12311 0.63423 0.0
H1242 H 0.89281 0.16851 0.60746 0.0
C1243 C 0.88205 0.12425 0.55869 0.0
C1244 C 0.8949 0.13549 0.54976 0.0
C1245 C 0.88047 0.12521 0.57691 0.0
C1246 C 0.89131 0.15567 0.61473 0.0
H1247 H 0.86195 0.12454 0.69668 0.0
H1248 H 0.8638 0.12227 0.66479 0.0
H1249 H 0.89109 0.17001 0.63929 0.0
H1250 H 0.91531 0.15745 0.55289 0.0
H1251 H 0.91317 0.1586 0.58461 0.0
H1252 H 0.88706 0.10872 0.60972 0.0
C1253 C 0.87368 0.13103 0.67163 0.0
C1254 C 0.89029 0.15654 0.63297 0.0
C1255 C 0.8726 0.13236 0.68986 0.0
C1256 C 0.90579 0.14808 0.55938 0.0
C1257 C 0.90428 0.149 0.57759 0.0
C1258 C 0.88773 0.12221 0.61598 0.0
C1259 C 0.88706 0.14127 0.66231 0.0
C1260 C 0.88797 0.14027 0.64292 0.0
C1261 C 0.89164 0.13754 0.5866 0.0
C1262 C 0.89014 0.13848 0.606 0.0
H1263 H 0.90873 0.16221 0.69663 0.0
H1264 H 0.91033 0.16025 0.66484 0.0
H1265 H 0.88502 0.11031 0.64157 0.0
H1266 H 0.87332 0.11455 0.5516 0.0
H1267 H 0.87035 0.11643 0.58338 0.0
C1268 C 0.61662 0.16274 0.31147 0.0
C1269 C 0.61603 0.14713 0.30039 0.0
C1270 C 0.61519 0.16064 0.3296 0.0
C1271 C 0.62403 0.12861 0.36538 0.0
H1272 H 0.58694 0.15716 0.39059 0.0
C1273 C 0.61015 0.11694 0.43911 0.0
C1274 C 0.60489 0.13231 0.44927 0.0
C1275 C 0.61163 0.11853 0.42092 0.0
C1276 C 0.59761 0.14931 0.38386 0.0
H1277 H 0.61474 0.11703 0.2997 0.0
H1278 H 0.61272 0.11334 0.33155 0.0
H1279 H 0.58958 0.16043 0.35894 0.0
H1280 H 0.59799 0.1616 0.44868 0.0
H1281 H 0.60124 0.16467 0.41704 0.0
H1282 H 0.63258 0.11793 0.39023 0.0
C1283 C 0.6138 0.1272 0.32608 0.0
C1284 C 0.599 0.15111 0.36569 0.0
C1285 C 0.61491 0.12932 0.3079 0.0
C1286 C 0.60168 0.14945 0.44105 0.0
C1287 C 0.60347 0.15114 0.4229 0.0
C1288 C 0.62287 0.12703 0.3836 0.0
C1289 C 0.61372 0.14287 0.33707 0.0
C1290 C 0.6122 0.14076 0.35629 0.0
C1291 C 0.60827 0.13565 0.41254 0.0
C1292 C 0.60962 0.13735 0.39311 0.0
H1293 H 0.61854 0.17657 0.30619 0.0
H1294 H 0.6156 0.17291 0.33782 0.0
H1295 H 0.63446 0.12063 0.35843 0.0
H1296 H 0.61266 0.10356 0.4452 0.0
H1297 H 0.61507 0.10622 0.41344 0.0
C1298 C 0.59553 0.84995 0.05725 0.0
C1299 C 0.60226 0.86591 0.04877 0.0
C1300 C 0.59699 0.8482 0.07542 0.0
C1301 C 0.60084 0.87516 0.11575 0.0
H1302 H 0.62129 0.82993 0.13559 0.0
C1303 C 0.61727 0.86847 0.18958 0.0
C1304 C 0.61442 0.85114 0.19761 0.0
C1305 C 0.61555 0.87042 0.17144 0.0
C1306 C 0.61524 0.84254 0.13034 0.0
H1307 H 0.61595 0.89245 0.05247 0.0
H1308 H 0.61823 0.88954 0.08437 0.0
H1309 H 0.61842 0.83296 0.10394 0.0
H1310 H 0.60866 0.82198 0.19269 0.0
H1311 H 0.60441 0.82556 0.16136 0.0
H1312 H 0.59717 0.88463 0.14206 0.0
C1313 C 0.61179 0.87843 0.07695 0.0
C1314 C 0.61371 0.84429 0.11218 0.0
C1315 C 0.61059 0.88004 0.05874 0.0
C1316 C 0.61009 0.83572 0.18707 0.0
C1317 C 0.60811 0.8377 0.16898 0.0
C1318 C 0.60212 0.87333 0.13394 0.0
C1319 C 0.60505 0.86247 0.08545 0.0
C1320 C 0.60654 0.86062 0.10471 0.0
C1321 C 0.61092 0.85505 0.16087 0.0
C1322 C 0.60939 0.857 0.14149 0.0
H1323 H 0.58938 0.8387 0.04982 0.0
H1324 H 0.59166 0.83577 0.08166 0.0
H1325 H 0.59509 0.88783 0.11031 0.0
H1326 H 0.62095 0.88054 0.19734 0.0
H1327 H 0.61821 0.88392 0.16568 0.0
C1328 C 0.6154 0.62275 0.55971 0.0
C1329 C 0.60311 0.6345 0.55066 0.0
C1330 C 0.61719 0.62397 0.5779 0.0
C1331 C 0.60803 0.65559 0.61534 0.0
H1332 H 0.61292 0.61047 0.64279 0.0
C1333 C 0.60116 0.65478 0.69056 0.0
C1334 C 0.61481 0.64486 0.69984 0.0
C1335 C 0.59999 0.65339 0.67235 0.0
C1336 C 0.61173 0.62319 0.63527 0.0
H1337 H 0.58396 0.65762 0.55357 0.0
H1338 H 0.58634 0.65916 0.58524 0.0
H1339 H 0.61043 0.60843 0.61098 0.0
H1340 H 0.63736 0.62502 0.6974 0.0
H1341 H 0.63518 0.62242 0.66555 0.0
H1342 H 0.60899 0.67029 0.63971 0.0
C1343 C 0.59467 0.64898 0.57833 0.0
C1344 C 0.61035 0.62204 0.61704 0.0
C1345 C 0.59299 0.64784 0.56015 0.0
C1346 C 0.62679 0.63296 0.69059 0.0
C1347 C 0.62553 0.63144 0.67238 0.0
C1348 C 0.60925 0.65672 0.63356 0.0
C1349 C 0.60675 0.63703 0.58746 0.0
C1350 C 0.60846 0.63824 0.60685 0.0
C1351 C 0.61223 0.64179 0.66306 0.0
C1352 C 0.61108 0.64053 0.64371 0.0
H1353 H 0.62356 0.61247 0.55274 0.0
H1354 H 0.6269 0.61478 0.58444 0.0
H1355 H 0.60696 0.66838 0.60791 0.0
H1356 H 0.59114 0.6634 0.69731 0.0
H1357 H 0.58931 0.66119 0.66555 0.0
C1358 C 0.60607 0.38122 0.93802 0.0
C1359 C 0.60143 0.36565 0.94816 0.0
C1360 C 0.60772 0.37969 0.91984 0.0
C1361 C 0.59585 0.3482 0.88258 0.0
H1362 H 0.63105 0.37948 0.85792 0.0
C1363 C 0.59833 0.35002 0.80708 0.0
C1364 C 0.61566 0.35249 0.79901 0.0
C1365 C 0.59653 0.35192 0.82522 0.0
C1366 C 0.62131 0.37043 0.86456 0.0
H1367 H 0.59567 0.33613 0.94756 0.0
H1368 H 0.59932 0.33315 0.91594 0.0
H1369 H 0.62886 0.38144 0.88952 0.0
H1370 H 0.64469 0.35889 0.80333 0.0
H1371 H 0.64187 0.36138 0.83504 0.0
H1372 H 0.58906 0.33643 0.85772 0.0
C1373 C 0.60092 0.34677 0.92179 0.0
C1374 C 0.61981 0.3718 0.88276 0.0
C1375 C 0.59892 0.34841 0.93993 0.0
C1376 C 0.63116 0.35699 0.8093 0.0
C1377 C 0.62947 0.35854 0.82747 0.0
C1378 C 0.5976 0.34659 0.86442 0.0
C1379 C 0.6052 0.36242 0.91145 0.0
C1380 C 0.60699 0.36078 0.89204 0.0
C1381 C 0.61211 0.35606 0.83571 0.0
C1382 C 0.6103 0.35773 0.85512 0.0
H1383 H 0.608 0.39469 0.94412 0.0
H1384 H 0.61068 0.39215 0.91239 0.0
H1385 H 0.5856 0.33967 0.88914 0.0
H1386 H 0.58611 0.34687 0.79933 0.0
H1387 H 0.58285 0.35035 0.83095 0.0
C1388 C 0.89634 0.36688 0.19112 0.0
C1389 C 0.88485 0.35352 0.199 0.0
C1390 C 0.89739 0.36818 0.17289 0.0
C1391 C 0.87186 0.35666 0.13247 0.0
H1392 H 0.92014 0.3619 0.1104 0.0
C1393 C 0.88196 0.35069 0.05759 0.0
C1394 C 0.89484 0.36275 0.04977 0.0
C1395 C 0.8805 0.34971 0.07582 0.0
C1396 C 0.90653 0.36067 0.11636 0.0
H1397 H 0.86454 0.33188 0.19421 0.0
H1398 H 0.86659 0.33387 0.16231 0.0
H1399 H 0.91802 0.36007 0.14221 0.0
H1400 H 0.91531 0.38421 0.05462 0.0
H1401 H 0.91282 0.38258 0.08647 0.0
H1402 H 0.86034 0.35737 0.10664 0.0
C1403 C 0.87494 0.34322 0.17017 0.0
C1404 C 0.90532 0.35961 0.13458 0.0
C1405 C 0.87397 0.34188 0.1884 0.0
C1406 C 0.90579 0.37428 0.0604 0.0
C1407 C 0.9043 0.37337 0.07861 0.0
C1408 C 0.87305 0.35779 0.11423 0.0
C1409 C 0.88675 0.35631 0.16221 0.0
C1410 C 0.88798 0.35757 0.14284 0.0
C1411 C 0.89173 0.36098 0.08656 0.0
C1412 C 0.89041 0.3598 0.10596 0.0
H1413 H 0.90465 0.37618 0.19908 0.0
H1414 H 0.90639 0.37861 0.16715 0.0
H1415 H 0.85827 0.35535 0.13846 0.0
H1416 H 0.87326 0.34179 0.04959 0.0
H1417 H 0.87078 0.33991 0.0815 0.0
C1418 C 0.89569 0.63091 0.30695 0.0
C1419 C 0.88499 0.64522 0.29956 0.0
C1420 C 0.8973 0.62932 0.32514 0.0
C1421 C 0.87395 0.64194 0.36632 0.0
H1422 H 0.92247 0.63381 0.38713 0.0
C1423 C 0.88585 0.64683 0.44088 0.0
C1424 C 0.8983 0.63418 0.44851 0.0
C1425 C 0.88422 0.64802 0.42268 0.0
C1426 C 0.90878 0.63583 0.38154 0.0
H1427 H 0.86667 0.66836 0.30518 0.0
H1428 H 0.86961 0.66576 0.33698 0.0
H1429 H 0.91952 0.63592 0.35538 0.0
H1430 H 0.91789 0.61201 0.44324 0.0
H1431 H 0.9151 0.61401 0.41147 0.0
H1432 H 0.86313 0.64167 0.3924 0.0
C1433 C 0.87694 0.6559 0.32877 0.0
C1434 C 0.90711 0.63707 0.36334 0.0
C1435 C 0.87545 0.65756 0.3106 0.0
C1436 C 0.90877 0.62241 0.43767 0.0
C1437 C 0.90706 0.6235 0.41947 0.0
C1438 C 0.87559 0.64059 0.38451 0.0
C1439 C 0.88796 0.64182 0.33624 0.0
C1440 C 0.88969 0.64021 0.35555 0.0
C1441 C 0.89482 0.63637 0.41174 0.0
C1442 C 0.89304 0.63759 0.39236 0.0
H1443 H 0.90297 0.6211 0.29865 0.0
H1444 H 0.90567 0.61817 0.33051 0.0
H1445 H 0.8603 0.64409 0.36068 0.0
H1446 H 0.87757 0.656 0.449 0.0
H1447 H 0.87482 0.65824 0.4172 0.0
C1448 C 0.41089 0.3723 0.4377 0.0
C1449 C 0.3983 0.36273 0.44846 0.0
C1450 C 0.40937 0.37126 0.41949 0.0
C1451 C 0.37607 0.35978 0.38406 0.0
H1452 H 0.42074 0.35555 0.35588 0.0
C1453 C 0.37433 0.34215 0.31029 0.0
C1454 C 0.38648 0.35206 0.29936 0.0
C1455 C 0.37563 0.34384 0.32847 0.0
C1456 C 0.40815 0.35692 0.36356 0.0
H1457 H 0.37391 0.34511 0.44881 0.0
H1458 H 0.37138 0.34295 0.41695 0.0
H1459 H 0.4233 0.35755 0.38766 0.0
H1460 H 0.409 0.37201 0.29863 0.0
H1461 H 0.41135 0.37499 0.33051 0.0
H1462 H 0.36093 0.35895 0.35993 0.0
C1463 C 0.38239 0.35134 0.42252 0.0
C1464 C 0.40961 0.35809 0.38178 0.0
C1465 C 0.38388 0.35247 0.44074 0.0
C1466 C 0.39964 0.36406 0.30686 0.0
C1467 C 0.40104 0.36566 0.32506 0.0
C1468 C 0.37461 0.35853 0.36585 0.0
C1469 C 0.39514 0.3607 0.41166 0.0
C1470 C 0.39359 0.35952 0.39226 0.0
C1471 C 0.38908 0.35552 0.33607 0.0
C1472 C 0.39064 0.35707 0.3554 0.0
H1473 H 0.4217 0.38089 0.44338 0.0
H1474 H 0.41915 0.379 0.41155 0.0
H1475 H 0.36346 0.3612 0.39169 0.0
H1476 H 0.36365 0.3333 0.30478 0.0
H1477 H 0.36624 0.33582 0.3366 0.0
C1478 C 0.38545 0.64885 0.05899 0.0
C1479 C 0.39906 0.63754 0.05129 0.0
C1480 C 0.38415 0.65021 0.0772 0.0
C1481 C 0.41085 0.64128 0.11799 0.0
H1482 H 0.36223 0.64435 0.13978 0.0
C1483 C 0.39946 0.63373 0.19262 0.0
C1484 C 0.38756 0.64678 0.20041 0.0
C1485 C 0.40104 0.63279 0.1744 0.0
C1486 C 0.3759 0.64367 0.13386 0.0
H1487 H 0.42124 0.61791 0.05636 0.0
H1488 H 0.41892 0.62008 0.08818 0.0
H1489 H 0.3646 0.64223 0.108 0.0
H1490 H 0.36721 0.66836 0.19549 0.0
H1491 H 0.37004 0.66685 0.1636 0.0
H1492 H 0.42207 0.64242 0.14395 0.0
C1493 C 0.40968 0.62846 0.08025 0.0
C1494 C 0.37728 0.6425 0.11565 0.0
C1495 C 0.41105 0.62723 0.06204 0.0
C1496 C 0.37689 0.65855 0.18975 0.0
C1497 C 0.37833 0.65751 0.17153 0.0
C1498 C 0.40945 0.6423 0.13621 0.0
C1499 C 0.39625 0.64003 0.08807 0.0
C1500 C 0.39478 0.64131 0.10747 0.0
C1501 C 0.39047 0.64466 0.16367 0.0
C1502 C 0.39196 0.64354 0.14433 0.0
H1503 H 0.37598 0.65682 0.0509 0.0
H1504 H 0.37378 0.65941 0.08275 0.0
H1505 H 0.42455 0.64071 0.11214 0.0
H1506 H 0.40764 0.62437 0.20064 0.0
H1507 H 0.41032 0.62258 0.16869 0.0
C1508 C 0.10982 0.61769 0.93796 0.0
C1509 C 0.10169 0.63201 0.94783 0.0
C1510 C 0.11122 0.61924 0.91976 0.0
C1511 C 0.11403 0.65328 0.88448 0.0
H1512 H 0.09689 0.61321 0.85457 0.0
C1513 C 0.11055 0.66191 0.8096 0.0
C1514 C 0.11471 0.64645 0.79907 0.0
C1515 C 0.10854 0.65995 0.8277 0.0
C1516 C 0.10201 0.62443 0.8627 0.0
H1517 H 0.08938 0.65949 0.94664 0.0
H1518 H 0.09199 0.6623 0.91481 0.0
H1519 H 0.09463 0.61008 0.88631 0.0
H1520 H 0.12089 0.61696 0.79934 0.0
H1521 H 0.11808 0.6136 0.831 0.0
H1522 H 0.12192 0.66748 0.86108 0.0
C1523 C 0.09702 0.64977 0.92111 0.0
C1524 C 0.10063 0.62264 0.88088 0.0
C1525 C 0.09537 0.6481 0.93927 0.0
C1526 C 0.11735 0.62907 0.8071 0.0
C1527 C 0.11559 0.62714 0.82524 0.0
C1528 C 0.11565 0.65498 0.86632 0.0
C1529 C 0.10487 0.63532 0.91118 0.0
C1530 C 0.10654 0.63709 0.89193 0.0
C1531 C 0.11114 0.64256 0.83579 0.0
C1532 C 0.10957 0.64063 0.85517 0.0
H1533 H 0.11487 0.60519 0.9443 0.0
H1534 H 0.11749 0.60798 0.91242 0.0
H1535 H 0.11891 0.66453 0.89272 0.0
H1536 H 0.10927 0.67566 0.80399 0.0
H1537 H 0.10498 0.67213 0.83532 0.0
C1538 C 0.12336 0.36479 0.6918 0.0
C1539 C 0.11122 0.35302 0.701 0.0
C1540 C 0.12207 0.36646 0.6736 0.0
C1541 C 0.08998 0.35832 0.63636 0.0
H1542 H 0.13524 0.36 0.60878 0.0
C1543 C 0.09008 0.34988 0.56126 0.0
C1544 C 0.10114 0.36234 0.55166 0.0
C1545 C 0.09134 0.34914 0.5795 0.0
C1546 C 0.12248 0.35973 0.61632 0.0
H1547 H 0.08737 0.33475 0.69842 0.0
H1548 H 0.08559 0.33703 0.66671 0.0
H1549 H 0.13721 0.35813 0.64062 0.0
H1550 H 0.12273 0.38328 0.55359 0.0
H1551 H 0.12502 0.38191 0.58549 0.0
H1552 H 0.07529 0.35964 0.61201 0.0
C1553 C 0.09615 0.34499 0.67351 0.0
C1554 C 0.1236 0.3587 0.63457 0.0
C1555 C 0.0974 0.34338 0.69169 0.0
C1556 C 0.11393 0.37362 0.56065 0.0
C1557 C 0.11528 0.37281 0.57889 0.0
C1558 C 0.08888 0.35924 0.61812 0.0
C1559 C 0.10853 0.35647 0.66421 0.0
C1560 C 0.10736 0.35793 0.64482 0.0
C1561 C 0.10389 0.36066 0.58852 0.0
C1562 C 0.10511 0.35991 0.6079 0.0
H1563 H 0.13402 0.37256 0.69865 0.0
H1564 H 0.13161 0.3757 0.66692 0.0
H1565 H 0.07719 0.35809 0.64384 0.0
H1566 H 0.08068 0.34041 0.55473 0.0
H1567 H 0.0827 0.33932 0.58654 0.0
C1568 C 0.939 0.29073 0.25249 0.0
C1569 C 0.9269 0.28355 0.26528 0.0
C1570 C 0.95599 0.28198 0.24901 0.0
C1571 C 0.99577 0.26891 0.25562 0.0
H1572 H 0.00132 0.21526 0.2562 0.0
C1573 C 0.06394 0.23231 0.27455 0.0
C1574 C 0.06891 0.21576 0.26593 0.0
C1575 C 0.04702 0.24102 0.27094 0.0
C1576 C 2e-05 0.23026 0.25574 0.0
H1577 H 0.92277 0.26101 0.2838 0.0
H1578 H 0.95229 0.24587 0.27777 0.0
H1579 H 0.97028 0.22892 0.25566 0.0
H1580 H 0.06015 0.19572 0.24635 0.0
H1581 H 0.03062 0.21102 0.24001 0.0
H1582 H 0.02551 0.27026 0.25602 0.0
C1583 C 0.94867 0.2582 0.27037 0.0
C1584 C 0.98223 0.23808 0.2556 0.0
C1585 C 0.93178 0.26698 0.27392 0.0
C1586 C 0.0568 0.20846 0.2532 0.0
C1587 C 0.03981 0.21715 0.24965 0.0
C1588 C 0.01356 0.2611 0.25582 0.0
C1589 C 0.96113 0.26579 0.25814 0.0
C1590 C 0.9799 0.25749 0.25594 0.0
C1591 C 0.03462 0.23338 0.25867 0.0
C1592 C 0.01588 0.24169 0.25627 0.0
H1593 H 0.93565 0.30344 0.24556 0.0
H1594 H 0.96523 0.28804 0.23938 0.0
H1595 H 0.99445 0.28392 0.25601 0.0
H1596 H 0.07295 0.23836 0.28439 0.0
H1597 H 0.04336 0.25339 0.27828 0.0
C1598 C 0.98477 0.68305 0.52253 0.0
C1599 C 0.96846 0.67739 0.51389 0.0
C1600 C 0.99305 0.7001 0.51859 0.0
C1601 C 0.01207 0.73407 0.5032 0.0
H1602 H 0.97818 0.77604 0.50273 0.0
C1603 C 0.03875 0.80973 0.50052 0.0
C1604 C 0.03106 0.82136 0.51344 0.0
C1605 C 0.03064 0.79249 0.49676 0.0
C1606 C 0.98781 0.76445 0.50274 0.0
H1607 H 0.94857 0.68488 0.49369 0.0
H1608 H 0.96307 0.71474 0.48686 0.0
H1609 H 0.96579 0.74445 0.50307 0.0
H1610 H 0.00828 0.82442 0.53187 0.0
H1611 H 0.99424 0.79446 0.52533 0.0
H1612 H 0.03409 0.75409 0.50367 0.0
C1613 C 0.96932 0.70599 0.4968 0.0
C1614 C 0.98072 0.74636 0.50276 0.0
C1615 C 0.96108 0.68885 0.50066 0.0
C1616 C 0.01462 0.81578 0.5219 0.0
C1617 C 0.00648 0.79864 0.51806 0.0
C1618 C 0.01916 0.75217 0.50309 0.0
C1619 C 0.9852 0.71195 0.50596 0.0
C1620 C 0.99277 0.73097 0.50344 0.0
C1621 C 0.01461 0.78663 0.50573 0.0
C1622 C 0.0071 0.76756 0.50332 0.0
H1623 H 0.99087 0.67455 0.53274 0.0
H1624 H 0.00516 0.70436 0.52602 0.0
H1625 H 0.0217 0.72249 0.50354 0.0
H1626 H 0.05137 0.81363 0.49371 0.0
H1627 H 0.03711 0.7836 0.48706 0.0
C1628 C 0.43447 0.76553 0.7745 0.0
C1629 C 0.42923 0.78155 0.76517 0.0
C1630 C 0.45118 0.75649 0.77078 0.0
C1631 C 0.4976 0.76622 0.75392 0.0
H1632 H 0.50319 0.71264 0.75666 0.0
C1633 C 0.55877 0.7059 0.75306 0.0
C1634 C 0.57074 0.71363 0.76568 0.0
C1635 C 0.54174 0.7144 0.74923 0.0
C1636 C 0.50185 0.72761 0.75558 0.0
H1637 H 0.4372 0.80021 0.74414 0.0
H1638 H 0.46646 0.78441 0.73769 0.0
H1639 H 0.4721 0.72632 0.75645 0.0
H1640 H 0.57462 0.73682 0.78352 0.0
H1641 H 0.54504 0.75156 0.77683 0.0
H1642 H 0.52734 0.76754 0.7535 0.0
C1643 C 0.45762 0.77895 0.74796 0.0
C1644 C 0.48406 0.73544 0.75563 0.0
C1645 C 0.44081 0.78794 0.7516 0.0
C1646 C 0.56569 0.73043 0.7738 0.0
C1647 C 0.54879 0.73898 0.76987 0.0
C1648 C 0.51538 0.7584 0.75397 0.0
C1649 C 0.46311 0.76329 0.75769 0.0
C1650 C 0.48176 0.75485 0.75522 0.0
C1651 C 0.53647 0.73089 0.75779 0.0
C1652 C 0.5177 0.73904 0.75522 0.0
H1653 H 0.42586 0.76016 0.78499 0.0
H1654 H 0.4551 0.74458 0.77865 0.0
H1655 H 0.49629 0.78123 0.75371 0.0
H1656 H 0.56228 0.693 0.74653 0.0
H1657 H 0.53257 0.70795 0.73976 0.0
C1658 C 0.4585 0.18847 0.00193 0.0
C1659 C 0.46574 0.17685 0.01509 0.0
C1660 C 0.46718 0.20535 0.9979 0.0
C1661 C 0.47993 0.24536 0.00343 0.0
H1662 H 0.53353 0.25142 0.00411 0.0
C1663 C 0.51576 0.31356 0.02272 0.0
C1664 C 0.53224 0.31886 0.01418 0.0
C1665 C 0.50724 0.29662 0.01887 0.0
C1666 C 0.51854 0.24996 0.00359 0.0
H1667 H 0.48829 0.17346 0.03372 0.0
H1668 H 0.5033 0.20283 0.02676 0.0
H1669 H 0.52015 0.22022 0.00406 0.0
H1670 H 0.55234 0.31077 0.99439 0.0
H1671 H 0.53742 0.28103 0.98771 0.0
H1672 H 0.47832 0.27509 0.00337 0.0
C1673 C 0.49099 0.19889 0.01948 0.0
C1674 C 0.51089 0.2321 0.00374 0.0
C1675 C 0.48228 0.1821 0.02357 0.0
C1676 C 0.53967 0.30708 0.00124 0.0
C1677 C 0.5312 0.29003 0.99747 0.0
C1678 C 0.48759 0.26321 0.00334 0.0
C1679 C 0.48335 0.21087 0.00685 0.0
C1680 C 0.4915 0.22962 0.00411 0.0
C1681 C 0.51503 0.28451 0.00643 0.0
C1682 C 0.50696 0.26571 0.00388 0.0
H1683 H 0.44583 0.1848 0.99507 0.0
H1684 H 0.46108 0.21421 0.98798 0.0
H1685 H 0.46494 0.24393 0.00382 0.0
H1686 H 0.5096 0.32232 0.0327 0.0
H1687 H 0.49494 0.29269 0.02616 0.0
C1688 C 0.94063 0.70692 0.24616 0.0
C1689 C 0.92856 0.71446 0.23354 0.0
C1690 C 0.95764 0.71553 0.24984 0.0
C1691 C 0.99742 0.7287 0.24315 0.0
H1692 H 0.003 0.78234 0.24431 0.0
C1693 C 0.06473 0.76618 0.22344 0.0
C1694 C 0.07014 0.78224 0.23263 0.0
C1695 C 0.04797 0.7573 0.22729 0.0
C1696 C 0.00169 0.76734 0.2443 0.0
H1697 H 0.92446 0.73746 0.21553 0.0
H1698 H 0.95401 0.7524 0.22193 0.0
H1699 H 0.97194 0.76867 0.24487 0.0
H1700 H 0.06237 0.80117 0.25351 0.0
H1701 H 0.033 0.78567 0.26018 0.0
H1702 H 0.02715 0.72738 0.24212 0.0
C1703 C 0.95036 0.73988 0.22903 0.0
C1704 C 0.9839 0.75952 0.24445 0.0
C1705 C 0.93347 0.73122 0.22526 0.0
C1706 C 0.05864 0.78887 0.24615 0.0
C1707 C 0.04177 0.78005 0.24993 0.0
C1708 C 0.0152 0.73652 0.2429 0.0
C1709 C 0.96279 0.73195 0.2411 0.0
C1710 C 0.98157 0.74014 0.24346 0.0
C1711 C 0.03615 0.76431 0.24037 0.0
C1712 C 0.01751 0.75593 0.24305 0.0
H1713 H 0.93725 0.69404 0.2528 0.0
H1714 H 0.96689 0.7092 0.25931 0.0
H1715 H 0.99607 0.71373 0.24225 0.0
H1716 H 0.07327 0.76062 0.21299 0.0
H1717 H 0.04394 0.74534 0.21955 0.0
C1718 C 0.51637 0.68283 0.47694 0.0
C1719 C 0.53314 0.6779 0.48519 0.0
C1720 C 0.50767 0.69967 0.4808 0.0
C1721 C 0.48802 0.73326 0.49605 0.0
H1722 H 0.52031 0.77638 0.49374 0.0
C1723 C 0.45878 0.80807 0.49609 0.0
C1724 C 0.46572 0.81927 0.48247 0.0
C1725 C 0.46751 0.79128 0.50036 0.0
C1726 C 0.51113 0.76447 0.49452 0.0
H1727 H 0.55348 0.68647 0.50458 0.0
H1728 H 0.53825 0.71605 0.51124 0.0
H1729 H 0.53387 0.74527 0.49428 0.0
H1730 H 0.48777 0.82199 0.46322 0.0
H1731 H 0.50288 0.7928 0.47064 0.0
H1732 H 0.46526 0.75242 0.49544 0.0
C1733 C 0.53195 0.70685 0.5017 0.0
C1734 C 0.51889 0.74666 0.49501 0.0
C1735 C 0.54061 0.68989 0.49794 0.0
C1736 C 0.48199 0.81368 0.47372 0.0
C1737 C 0.49076 0.797 0.47807 0.0
C1738 C 0.48026 0.75107 0.49564 0.0
C1739 C 0.51555 0.71205 0.49295 0.0
C1740 C 0.5074 0.73085 0.49527 0.0
C1741 C 0.48345 0.78545 0.49123 0.0
C1742 C 0.49172 0.76684 0.49436 0.0
H1743 H 0.51017 0.67388 0.46713 0.0
H1744 H 0.49517 0.70335 0.47368 0.0
H1745 H 0.47882 0.72133 0.49643 0.0
H1746 H 0.4463 0.81199 0.50312 0.0
H1747 H 0.46165 0.78273 0.51066 0.0
C1748 C 0.43876 0.21208 0.74454 0.0
C1749 C 0.42585 0.21876 0.73221 0.0
C1750 C 0.45586 0.22107 0.74684 0.0
C1751 C 0.48816 0.24903 0.72118 0.0
H1752 H 0.51429 0.25716 0.76496 0.0
C1753 C 0.56505 0.26744 0.7213 0.0
C1754 C 0.57021 0.28317 0.73109 0.0
C1755 C 0.54775 0.25914 0.72374 0.0
C1756 C 0.50708 0.25501 0.75267 0.0
H1757 H 0.42018 0.24093 0.71365 0.0
H1758 H 0.44982 0.25655 0.71775 0.0
H1759 H 0.48246 0.2447 0.76532 0.0
H1760 H 0.56164 0.30181 0.75193 0.0
H1761 H 0.53116 0.28725 0.75613 0.0
H1762 H 0.51253 0.25924 0.70846 0.0
C1763 C 0.44692 0.24417 0.72536 0.0
C1764 C 0.48897 0.2478 0.75287 0.0
C1765 C 0.42991 0.23522 0.72305 0.0
C1766 C 0.55804 0.28977 0.74412 0.0
C1767 C 0.54064 0.2814 0.74657 0.0
C1768 C 0.50619 0.25604 0.72098 0.0
C1769 C 0.4603 0.23688 0.73685 0.0
C1770 C 0.47933 0.2448 0.73709 0.0
C1771 C 0.53514 0.26636 0.73603 0.0
C1772 C 0.5159 0.25903 0.73668 0.0
H1773 H 0.43601 0.19946 0.75186 0.0
H1774 H 0.46594 0.21512 0.75577 0.0
H1775 H 0.48122 0.24663 0.70879 0.0
H1776 H 0.57417 0.26179 0.71133 0.0
H1777 H 0.54402 0.24732 0.71568 0.0
C1778 C 0.01852 0.18631 0.97483 0.0
C1779 C 0.03495 0.18087 0.9834 0.0
C1780 C 0.01015 0.20334 0.97863 0.0
C1781 C 0.99043 0.23644 0.99462 0.0
H1782 H 0.02257 0.27975 0.99443 0.0
C1783 C 0.96037 0.31065 0.99792 0.0
C1784 C 0.96731 0.32273 0.98498 0.0
C1785 C 0.9694 0.29384 0.00152 0.0
C1786 C 0.01343 0.26778 0.99459 0.0
H1787 H 0.05518 0.1889 0.00308 0.0
H1788 H 0.04052 0.21881 0.00967 0.0
H1789 H 0.03625 0.24867 0.99362 0.0
H1790 H 0.98973 0.32705 0.96639 0.0
H1791 H 0.00532 0.2978 0.97259 0.0
H1792 H 0.9676 0.2555 0.99477 0.0
C1793 C 0.03422 0.20984 -6e-05 0.0
C1794 C 0.02126 0.24998 0.99431 0.0
C1795 C 0.04256 0.19269 0.99621 0.0
C1796 C 0.98394 0.31805 0.97636 0.0
C1797 C 0.99298 0.30131 0.98002 0.0
C1798 C 0.98261 0.25422 0.99497 0.0
C1799 C 0.01802 0.21541 0.99106 0.0
C1800 C 0.00983 0.23413 0.99385 0.0
C1801 C 0.98561 0.28883 0.99236 0.0
C1802 C 0.99401 0.27009 0.99451 0.0
H1803 H 0.01223 0.17755 0.96492 0.0
H1804 H 0.99782 0.20732 0.97139 0.0
H1805 H 0.98128 0.22448 0.99449 0.0
H1806 H 0.94764 0.31387 0.00486 0.0
H1807 H 0.9635 0.2846 0.01124 0.0
C1808 C 0.93785 0.78442 0.74363 0.0
C1809 C 0.9286 0.78346 0.72742 0.0
C1810 C 0.95434 0.77446 0.74638 0.0
C1811 C 0.98248 0.73583 0.72739 0.0
H1812 H 0.02388 0.75995 0.75075 0.0
C1813 C 0.05907 0.72051 0.71339 0.0
C1814 C 0.06901 0.71238 0.72727 0.0
C1815 C 0.04162 0.72837 0.71626 0.0
C1816 C 0.01231 0.75299 0.74445 0.0
H1817 H 0.92951 0.7713 0.7014 0.0
H1818 H 0.95824 0.75453 0.70599 0.0
H1819 H 0.99332 0.77506 0.75041 0.0
H1820 H 0.06871 0.7067 0.75518 0.0
H1821 H 0.03813 0.72106 0.76023 0.0
H1822 H 0.00184 0.71439 0.7205 0.0
C1823 C 0.95261 0.7625 0.7168 0.0
C1824 C 0.99482 0.76156 0.74428 0.0
C1825 C 0.93615 0.77228 0.7141 0.0
C1826 C 0.06134 0.71279 0.74423 0.0
C1827 C 0.04394 0.72101 0.74715 0.0
C1828 C -3e-05 0.72746 0.72735 0.0
C1829 C 0.96194 0.76341 0.73295 0.0
C1830 C 0.97982 0.7533 0.73532 0.0
C1831 C 0.03389 0.72856 0.7331 0.0
C1832 C 0.01506 0.73616 0.73555 0.0
H1833 H 0.93235 0.79282 0.75419 0.0
H1834 H 0.96108 0.77535 0.75903 0.0
H1835 H 0.97115 0.72882 0.72077 0.0
H1836 H 0.06452 0.72039 0.70017 0.0
H1837 H 0.03406 0.7342 0.70528 0.0
C1838 C 0.01526 0.31441 0.47691 0.0
C1839 C 0.03175 0.31971 0.48544 0.0
C1840 C 0.00684 0.29738 0.48066 0.0
C1841 C 0.01848 0.25064 0.49579 0.0
H1842 H 0.96493 0.24419 0.49566 0.0
C1843 C 0.95883 0.18876 0.49817 0.0
C1844 C 0.96607 0.17703 0.48509 0.0
C1845 C 0.96745 0.20571 0.50202 0.0
C1846 C 0.97991 0.24574 0.49602 0.0
H1847 H 0.05192 0.31155 0.50515 0.0
H1848 H 0.03718 0.28171 0.51164 0.0
H1849 H 0.97807 0.27546 0.4959 0.0
H1850 H 0.98864 0.1735 0.4665 0.0
H1851 H 0.00357 0.20299 0.47318 0.0
H1852 H 0.02032 0.22091 0.49552 0.0
C1853 C 0.03088 0.29074 0.50196 0.0
C1854 C 0.98743 0.26366 0.49597 0.0
C1855 C 0.03926 0.30786 0.49828 0.0
C1856 C 0.98262 0.18222 0.47659 0.0
C1857 C 0.99128 0.19909 0.48051 0.0
C1858 C 0.01096 0.23272 0.49576 0.0
C1859 C 0.01473 0.2852 0.49298 0.0
C1860 C 0.00679 0.26631 0.49544 0.0
C1861 C 0.98358 0.21121 0.49299 0.0
C1862 C 0.9916 0.23007 0.49546 0.0
H1863 H 0.00905 0.32321 0.46699 0.0
H1864 H 0.99453 0.29344 0.47337 0.0
H1865 H 0.03345 0.25221 0.49526 0.0
H1866 H 0.94615 0.18515 0.50503 0.0
H1867 H 0.96132 0.21468 0.51184 0.0
C1868 C 0.43107 0.26313 0.22584 0.0
C1869 C 0.42637 0.27979 0.23442 0.0
C1870 C 0.44861 0.25522 0.22804 0.0
C1871 C 0.49005 0.2526 0.223 0.0
H1872 H 0.51706 0.24616 0.26654 0.0
C1873 C 0.56723 0.23445 0.22239 0.0
C1874 C 0.57239 0.21897 0.23254 0.0
C1875 C 0.55003 0.24302 0.22486 0.0
C1876 C 0.50964 0.24789 0.25431 0.0
H1877 H 0.43601 0.30043 0.25307 0.0
H1878 H 0.46681 0.2865 0.25687 0.0
H1879 H 0.48488 0.25766 0.26712 0.0
H1880 H 0.56391 0.20113 0.25402 0.0
H1881 H 0.53378 0.21615 0.25831 0.0
H1882 H 0.51452 0.24284 0.21012 0.0
C1883 C 0.45683 0.27966 0.24842 0.0
C1884 C 0.49131 0.25454 0.25464 0.0
C1885 C 0.43922 0.28765 0.24619 0.0
C1886 C 0.56038 0.21298 0.24595 0.0
C1887 C 0.54313 0.22162 0.24845 0.0
C1888 C 0.50831 0.24617 0.22266 0.0
C1889 C 0.46188 0.26372 0.2389 0.0
C1890 C 0.48131 0.2568 0.23896 0.0
C1891 C 0.53757 0.23635 0.23756 0.0
C1892 C 0.51832 0.24372 0.23828 0.0
H1893 H 0.42145 0.25653 0.21687 0.0
H1894 H 0.452 0.24271 0.22081 0.0
H1895 H 0.48279 0.25444 0.21069 0.0
H1896 H 0.57621 0.23962 0.21209 0.0
H1897 H 0.54625 0.25458 0.21649 0.0
C1898 C 0.51702 0.81752 0.97317 0.0
C1899 C 0.53339 0.82282 0.98192 0.0
C1900 C 0.50835 0.80065 0.97705 0.0
C1901 C 0.51928 0.75413 0.99306 0.0
H1902 H 0.46568 0.7481 0.99247 0.0
C1903 C 0.45951 0.69252 0.99633 0.0
C1904 C 0.46677 0.68052 0.98349 0.0
C1905 C 0.46805 0.70962 -0.00024 0.0
C1906 C 0.48066 0.74955 0.99295 0.0
H1907 H 0.55308 0.81482 0.00211 0.0
H1908 H 0.5379 0.78527 0.00883 0.0
H1909 H 0.47908 0.77929 0.99232 0.0
H1910 H 0.4892 0.6767 0.9648 0.0
H1911 H 0.50401 0.70642 0.97079 0.0
H1912 H 0.52087 0.72439 0.99328 0.0
C1913 C 0.53189 0.79418 0.99888 0.0
C1914 C 0.48833 0.76741 0.99269 0.0
C1915 C 0.54052 0.81114 0.99508 0.0
C1916 C 0.48318 0.68564 0.97472 0.0
C1917 C 0.49177 0.70263 0.97824 0.0
C1918 C 0.51161 0.73628 0.99323 0.0
C1919 C 0.51587 0.78863 0.98972 0.0
C1920 C 0.50772 0.76988 0.99234 0.0
C1921 C 0.48412 0.71496 0.99056 0.0
C1922 C 0.49223 0.73379 0.99277 0.0
H1923 H 0.5111 0.8262 0.96301 0.0
H1924 H 0.49615 0.7967 0.96961 0.0
H1925 H 0.53426 0.75556 0.99267 0.0
H1926 H 0.44691 0.68898 0.00336 0.0
H1927 H 0.46194 0.71879 0.00944 0.0
C1928 C 0.93971 0.20654 0.7518 0.0
C1929 C 0.92783 0.21374 0.76477 0.0
C1930 C 0.95649 0.21547 0.74785 0.0
C1931 C 0.98232 0.25978 0.7536 0.0
H1932 H 0.02596 0.22811 0.75448 0.0
C1933 C 0.06306 0.26633 0.77471 0.0
C1934 C 0.06827 0.28293 0.76633 0.0
C1935 C 0.04641 0.25749 0.77043 0.0
C1936 C 0.0139 0.23713 0.7541 0.0
H1937 H 0.92385 0.23648 0.78311 0.0
H1938 H 0.953 0.25189 0.77629 0.0
H1939 H 0.99508 0.21409 0.75428 0.0
H1940 H 0.06034 0.30291 0.74637 0.0
H1941 H 0.0311 0.28743 0.73895 0.0
H1942 H 0.00113 0.28282 0.75432 0.0
C1943 C 0.94937 0.23942 0.7691 0.0
C1944 C 0.99621 0.2291 0.7538 0.0
C1945 C 0.9327 0.23047 0.77312 0.0
C1946 C 0.05669 0.29018 0.75314 0.0
C1947 C 0.03993 0.28137 0.74892 0.0
C1948 C 1e-05 0.26781 0.75384 0.0
C1949 C 0.96161 0.23186 0.75667 0.0
C1950 C 0.98023 0.24034 0.75408 0.0
C1951 C 0.03451 0.26505 0.75769 0.0
C1952 C 0.01598 0.25657 0.75462 0.0
H1953 H 0.93632 0.19372 0.74507 0.0
H1954 H 0.96559 0.2094 0.7381 0.0
H1955 H 0.97025 0.26879 0.7536 0.0
H1956 H 0.07167 0.26029 0.78488 0.0
H1957 H 0.04253 0.24508 0.7776 0.0
C1958 C 0.48347 0.31459 0.52451 0.0
C1959 C 0.4671 0.31974 0.51568 0.0
C1960 C 0.49243 0.29791 0.52054 0.0
C1961 C 0.48241 0.25144 0.50392 0.0
H1962 H 0.53607 0.24618 0.50561 0.0
C1963 C 0.54299 0.19053 0.50248 0.0
C1964 C 0.5354 0.17858 0.51519 0.0
C1965 C 0.53442 0.20754 0.49869 0.0
C1966 C 0.52108 0.24742 0.5048 0.0
H1967 H 0.4477 0.31167 0.49527 0.0
H1968 H 0.46341 0.28243 0.48837 0.0
H1969 H 0.52221 0.27717 0.50551 0.0
H1970 H 0.51245 0.17476 0.53331 0.0
H1971 H 0.49764 0.2043 0.52674 0.0
H1972 H 0.48126 0.22169 0.50363 0.0
C1973 C 0.46919 0.29132 0.49845 0.0
C1974 C 0.51315 0.26516 0.50493 0.0
C1975 C 0.46025 0.30809 0.50237 0.0
C1976 C 0.51873 0.18367 0.52352 0.0
C1977 C 0.51013 0.20055 0.51964 0.0
C1978 C 0.49034 0.2337 0.50386 0.0
C1979 C 0.48523 0.28593 0.50768 0.0
C1980 C 0.49372 0.26734 0.50495 0.0
C1981 C 0.51802 0.21281 0.50739 0.0
C1982 C 0.50974 0.2315 0.50477 0.0
H1983 H 0.48919 0.32325 0.53479 0.0
H1984 H 0.50462 0.29406 0.52804 0.0
H1985 H 0.46739 0.25264 0.50404 0.0
H1986 H 0.5558 0.18699 0.49581 0.0
H1987 H 0.54074 0.21667 0.4891 0.0
C1988 C 0.43286 0.73029 0.27895 0.0
C1989 C 0.42785 0.71418 0.26965 0.0
C1990 C 0.44965 0.73931 0.27548 0.0
C1991 C 0.49641 0.72977 0.25928 0.0
H1992 H 0.50136 0.78348 0.26054 0.0
C1993 C 0.55688 0.79046 0.25501 0.0
C1994 C 0.56935 0.7834 0.26754 0.0
C1995 C 0.53976 0.78175 0.25211 0.0
C1996 C 0.50019 0.76847 0.2599 0.0
H1997 H 0.43629 0.69528 0.24896 0.0
H1998 H 0.46569 0.71106 0.24296 0.0
H1999 H 0.47043 0.76943 0.26087 0.0
H2000 H 0.57392 0.76119 0.28632 0.0
H2001 H 0.54418 0.74603 0.28121 0.0
H2002 H 0.52617 0.7288 0.2587 0.0
C2003 C 0.45663 0.7166 0.25302 0.0
C2004 C 0.4825 0.76043 0.26026 0.0
C2005 C 0.43976 0.70762 0.25641 0.0
C2006 C 0.56462 0.76705 0.27662 0.0
C2007 C 0.54762 0.75827 0.2736 0.0
C2008 C 0.51409 0.7378 0.25903 0.0
C2009 C 0.46185 0.73239 0.26267 0.0
C2010 C 0.48044 0.74099 0.26029 0.0
C2011 C 0.53488 0.76568 0.26153 0.0
C2012 C 0.51617 0.75722 0.25968 0.0
H2013 H 0.42399 0.73577 0.28919 0.0
H2014 H 0.45337 0.75133 0.28328 0.0
H2015 H 0.49528 0.71475 0.25941 0.0
H2016 H 0.56007 0.80304 0.24782 0.0
H2017 H 0.53025 0.78769 0.24263 0.0
C2018 C 0.03924 0.68767 0.00114 0.0
C2019 C 0.03209 0.67578 0.01412 0.0
C2020 C 0.03057 0.70467 0.99754 0.0
C2021 C 0.01802 0.74459 0.00426 0.0
H2022 H 0.96445 0.75082 0.00508 0.0
C2023 C 0.98238 0.81264 0.02473 0.0
C2024 C 0.96604 0.8182 0.01608 0.0
C2025 C 0.99079 0.79566 0.02074 0.0
C2026 C 0.97942 0.74933 0.00454 0.0
H2027 H 0.00965 0.67199 0.03281 0.0
H2028 H 0.99464 0.70153 0.02654 0.0
H2029 H 0.97772 0.71959 0.00424 0.0
H2030 H 0.94606 0.81052 0.99604 0.0
H2031 H 0.96078 0.78076 0.98916 0.0
H2032 H 0.01973 0.77432 0.00499 0.0
C2033 C 0.00689 0.69774 0.01911 0.0
C2034 C 0.98702 0.73144 0.00422 0.0
C2035 C 0.0156 0.68085 0.0228 0.0
C2036 C 0.95861 0.80663 0.00298 0.0
C2037 C 0.96698 0.78956 0.99908 0.0
C2038 C 0.01043 0.76247 0.00466 0.0
C2039 C 0.01448 0.71002 0.00671 0.0
C2040 C 0.0064 0.72887 0.00451 0.0
C2041 C 0.98303 0.7838 0.00808 0.0
C2042 C 0.99105 0.76502 0.00524 0.0
H2043 H 0.05189 0.68416 0.99418 0.0
H2044 H 0.03664 0.71378 0.98779 0.0
H2045 H 0.033 0.74309 0.00461 0.0
H2046 H 0.98853 0.82122 0.03484 0.0
H2047 H 0.00301 0.79154 0.02807 0.0
C2048 C 0.12794 0.24776 0.34245 0.0
C2049 C 0.12446 0.25226 0.32484 0.0
C2050 C 0.12959 0.26179 0.35503 0.0
C2051 C 0.11246 0.30862 0.36288 0.0
H2052 H 0.14519 0.30752 0.40322 0.0
C2053 C 0.09916 0.3592 0.41809 0.0
C2054 C 0.09871 0.35106 0.43476 0.0
C2055 C 0.10818 0.35027 0.40429 0.0
C2056 C 0.13595 0.30802 0.39204 0.0
H2057 H 0.12111 0.27502 0.30644 0.0
H2058 H 0.12399 0.29944 0.32838 0.0
H2059 H 0.14973 0.28517 0.37941 0.0
H2060 H 0.10848 0.32806 0.45056 0.0
H2061 H 0.12353 0.31193 0.42632 0.0
H2062 H 0.09797 0.33055 0.37562 0.0
C2063 C 0.12519 0.28507 0.33249 0.0
C2064 C 0.13857 0.29524 0.37842 0.0
C2065 C 0.12355 0.27107 0.31993 0.0
C2066 C 0.10874 0.33464 0.4378 0.0
C2067 C 0.1174 0.32543 0.42387 0.0
C2068 C 0.10975 0.32122 0.37648 0.0
C2069 C 0.12778 0.28057 0.35023 0.0
C2070 C 0.12664 0.29524 0.36383 0.0
C2071 C 0.1164 0.3327 0.40677 0.0
C2072 C 0.12124 0.32092 0.3914 0.0
H2073 H 0.12884 0.23339 0.34663 0.0
H2074 H 0.13142 0.25788 0.36862 0.0
H2075 H 0.10281 0.30877 0.35199 0.0
H2076 H 0.09166 0.37199 0.41551 0.0
H2077 H 0.10769 0.3566 0.39143 0.0
C2078 C 0.88664 0.85746 0.66833 0.0
C2079 C 0.89523 0.85463 0.6846 0.0
C2080 C 0.89606 0.86672 0.65494 0.0
C2081 C 0.9409 0.89028 0.64308 0.0
H2082 H 0.93611 0.85914 0.60187 0.0
C2083 C -0.00039 0.87871 0.5925 0.0
C2084 C 0.99469 0.87613 0.57485 0.0
C2085 C 0.98588 0.88106 0.60527 0.0
C2086 C 0.93743 0.86828 0.61308 0.0
H2087 H 0.91953 0.86073 0.7003 0.0
H2088 H 0.93634 0.87627 0.67679 0.0
H2089 H 0.9141 0.85582 0.62554 0.0
H2090 H 0.97156 0.87504 0.55664 0.0
H2091 H 0.94766 0.87924 0.57888 0.0
H2092 H 0.96499 0.902 0.63069 0.0
C2093 C 0.92221 0.87176 0.67434 0.0
C2094 C 0.9247 0.86644 0.62671 0.0
C2095 C 0.91258 0.86285 0.68787 0.0
C2096 C 0.97581 0.87673 0.57015 0.0
C2097 C 0.96211 0.87913 0.58289 0.0
C2098 C 0.95376 0.89206 0.6294 0.0
C2099 C 0.91446 0.87282 0.65743 0.0
C2100 C 0.92643 0.87715 0.64205 0.0
C2101 C 0.96695 0.88091 0.60065 0.0
C2102 C 0.95234 0.88081 0.61439 0.0
H2103 H 0.87318 0.85135 0.66556 0.0
H2104 H 0.88942 0.86785 0.64226 0.0
H2105 H 0.94255 0.89888 0.65462 0.0
H2106 H 0.01405 0.87842 0.59653 0.0
H2107 H 0.99007 0.8822 0.61885 0.0
C2108 C 0.38483 0.66274 0.94117 0.0
C2109 C 0.398 0.64966 0.9354 0.0
C2110 C 0.37465 0.67317 0.92902 0.0
C2111 C 0.36406 0.67877 0.88157 0.0
H2112 H 0.37548 0.73064 0.8903 0.0
C2113 C 0.3789 0.73038 0.82636 0.0
C2114 C 0.37477 0.74932 0.82855 0.0
C2115 C 0.37557 0.71774 0.83986 0.0
C2116 C 0.37168 0.71633 0.88773 0.0
H2117 H 0.40931 0.63571 0.91261 0.0
H2118 H 0.39154 0.6537 0.89151 0.0
H2119 H 0.37899 0.70812 0.91371 0.0
H2120 H 0.36303 0.76974 0.84631 0.0
H2121 H 0.35699 0.74759 0.86984 0.0
H2122 H 0.35746 0.68692 0.85534 0.0
C2123 C 0.38908 0.65606 0.90532 0.0
C2124 C 0.37367 0.70338 0.90121 0.0
C2125 C 0.39939 0.64583 0.91742 0.0
C2126 C 0.3666 0.75526 0.84431 0.0
C2127 C 0.36315 0.74257 0.8578 0.0
C2128 C 0.36193 0.69175 0.8681 0.0
C2129 C 0.37732 0.67047 0.91096 0.0
C2130 C 0.37062 0.68437 0.89808 0.0
C2131 C 0.36789 0.7237 0.85585 0.0
C2132 C 0.36649 0.71057 0.87083 0.0
H2133 H 0.38344 0.66597 0.95497 0.0
H2134 H 0.36552 0.68407 0.93372 0.0
H2135 H 0.36139 0.66422 0.87886 0.0
H2136 H 0.38518 0.72536 0.81437 0.0
H2137 H 0.37971 0.7034 0.83798 0.0
C2138 C 0.49477 0.11383 0.09337 0.0
C2139 C 0.50067 0.12178 0.07749 0.0
C2140 C 0.50736 0.11114 0.1071 0.0
C2141 C 0.55795 0.11137 0.11809 0.0
H2142 H 0.54079 0.13006 0.16287 0.0
C2143 C 0.60387 0.14966 0.167 0.0
C2144 C 0.59985 0.14889 0.18499 0.0
C2145 C 0.59339 0.13942 0.15505 0.0
C2146 C 0.54575 0.12431 0.15062 0.0
H2147 H 0.52455 0.13245 0.06334 0.0
H2148 H 0.54635 0.12815 0.08731 0.0
H2149 H 0.51862 0.12537 0.1393 0.0
H2150 H 0.58276 0.13556 0.20472 0.0
H2151 H 0.56427 0.11767 0.18372 0.0
H2152 H 0.5853 0.11139 0.12923 0.0
C2153 C 0.53209 0.12369 0.08913 0.0
C2154 C 0.53301 0.12165 0.13705 0.0
C2155 C 0.51953 0.12634 0.07541 0.0
C2156 C 0.58616 0.13645 0.19093 0.0
C2157 C 0.5755 0.12631 0.17891 0.0
C2158 C 0.57071 0.1141 0.13166 0.0
C2159 C 0.52611 0.11636 0.10525 0.0
C2160 C 0.53906 0.11581 0.12043 0.0
C2161 C 0.57855 0.12828 0.16081 0.0
C2162 C 0.56483 0.12126 0.14787 0.0
H2163 H 0.48035 0.10999 0.09533 0.0
H2164 H 0.50234 0.10524 0.11927 0.0
H2165 H 0.563 0.10645 0.10556 0.0
H2166 H 0.61444 0.15903 0.16205 0.0
H2167 H 0.59604 0.14137 0.14121 0.0
C2168 C 0.11401 0.66105 0.0572 0.0
C2169 C 0.10117 0.64775 0.06319 0.0
C2170 C 0.12402 0.67185 0.06918 0.0
C2171 C 0.13491 0.67803 0.11651 0.0
H2172 H 0.12277 0.72969 0.10749 0.0
C2173 C 0.11979 0.7299 0.17143 0.0
C2174 C 0.12392 0.74883 0.16916 0.0
C2175 C 0.12309 0.7172 0.15797 0.0
C2176 C 0.12676 0.71544 0.11014 0.0
H2177 H 0.09028 0.63386 0.08619 0.0
H2178 H 0.10778 0.65248 0.107 0.0
H2179 H 0.11935 0.70691 0.08426 0.0
H2180 H 0.13555 0.76918 0.15127 0.0
H2181 H 0.14147 0.74694 0.12778 0.0
H2182 H 0.14157 0.68648 0.14264 0.0
C2183 C 0.1101 0.65474 0.09315 0.0
C2184 C 0.12482 0.70235 0.09676 0.0
C2185 C 0.09995 0.64414 0.08122 0.0
C2186 C 0.132 0.7547 0.15334 0.0
C2187 C 0.13539 0.74197 0.13988 0.0
C2188 C 0.13696 0.69115 0.12988 0.0
C2189 C 0.12155 0.6693 0.08729 0.0
C2190 C 0.12814 0.6834 0.10002 0.0
C2191 C 0.13071 0.7231 0.14194 0.0
C2192 C 0.13214 0.70987 0.12704 0.0
H2193 H 0.11525 0.66412 0.04336 0.0
H2194 H 0.1329 0.68287 0.06432 0.0
H2195 H 0.1378 0.66354 0.11932 0.0
H2196 H 0.11359 0.72491 0.18347 0.0
H2197 H 0.11899 0.70285 0.15993 0.0
C2198 C 0.60516 0.85333 0.33054 0.0
C2199 C 0.60109 0.85357 0.31256 0.0
C2200 C 0.59437 0.86354 0.34228 0.0
C2201 C 0.546 0.8759 0.34569 0.0
H2202 H 0.56096 0.89352 0.39155 0.0
C2203 C 0.49324 0.88094 0.40215 0.0
C2204 C 0.4994 0.87316 0.41801 0.0
C2205 C 0.50585 0.88481 0.38871 0.0
C2206 C 0.55654 0.88866 0.37878 0.0
H2207 H 0.58389 0.86622 0.29252 0.0
H2208 H 0.5649 0.88406 0.31311 0.0
H2209 H 0.58408 0.89085 0.36825 0.0
H2210 H 0.52369 0.86383 0.43238 0.0
H2211 H 0.54556 0.8701 0.40885 0.0
H2212 H 0.51878 0.87257 0.35639 0.0
C2213 C 0.57636 0.87584 0.31812 0.0
C2214 C 0.56977 0.88724 0.36543 0.0
C2215 C 0.58731 0.86574 0.30633 0.0
C2216 C 0.51848 0.86978 0.42031 0.0
C2217 C 0.53106 0.87358 0.40686 0.0
C2218 C 0.53281 0.87724 0.35904 0.0
C2219 C 0.5792 0.87408 0.33627 0.0
C2220 C 0.56477 0.88015 0.34894 0.0
C2221 C 0.52489 0.88093 0.39081 0.0
C2222 C 0.53808 0.88294 0.37594 0.0
H2223 H 0.61582 0.84419 0.33569 0.0
H2224 H 0.59692 0.86181 0.35616 0.0
H2225 H 0.54171 0.87015 0.33322 0.0
H2226 H 0.47864 0.88392 0.40005 0.0
H2227 H 0.50066 0.89066 0.37659 0.0
C2228 C 0.36585 0.24867 0.65692 0.0
C2229 C 0.36886 0.25333 0.67458 0.0
C2230 C 0.36457 0.26259 0.64418 0.0
C2231 C 0.38213 0.30933 0.63652 0.0
H2232 H 0.35103 0.30794 0.59506 0.0
C2233 C 0.39754 0.35963 0.58152 0.0
C2234 C 0.39859 0.35144 0.56489 0.0
C2235 C 0.38804 0.35073 0.59506 0.0
C2236 C 0.35982 0.30852 0.60656 0.0
H2237 H 0.37162 0.27627 0.69286 0.0
H2238 H 0.36934 0.30048 0.67067 0.0
H2239 H 0.34552 0.28579 0.61886 0.0
H2240 H 0.38941 0.32837 0.54887 0.0
H2241 H 0.37351 0.31231 0.57266 0.0
H2242 H 0.39715 0.33114 0.62414 0.0
C2243 C 0.36826 0.28608 0.66664 0.0
C2244 C 0.35664 0.29585 0.62017 0.0
C2245 C 0.36956 0.27219 0.67935 0.0
C2246 C 0.38868 0.335 0.56159 0.0
C2247 C 0.37954 0.32582 0.57527 0.0
C2248 C 0.38539 0.32182 0.62294 0.0
C2249 C 0.36626 0.28142 0.64887 0.0
C2250 C 0.36798 0.29596 0.63518 0.0
C2251 C 0.37992 0.33314 0.59237 0.0
C2252 C 0.3745 0.32142 0.60763 0.0
H2253 H 0.36514 0.23426 0.65284 0.0
H2254 H 0.36317 0.25855 0.63058 0.0
H2255 H 0.39135 0.30956 0.64774 0.0
H2256 H 0.40494 0.37242 0.5843 0.0
H2257 H 0.38807 0.3571 0.6079 0.0
C2258 C 0.9786 0.12984 0.92464 0.0
C2259 C 0.99735 0.12486 0.92264 0.0
C2260 C 0.96578 0.1262 0.91135 0.0
C2261 C 0.96407 0.11991 0.8638 0.0
H2262 H 0.91176 0.11129 0.8731 0.0
C2263 C 0.91077 0.1324 0.80997 0.0
C2264 C 0.89783 0.14588 0.81536 0.0
C2265 C 0.92103 0.12245 0.82241 0.0
C2266 C 0.92635 0.11349 0.87027 0.0
H2267 H 0.01722 0.1113 0.90547 0.0
H2268 H 0.99478 0.10479 0.88232 0.0
H2269 H 0.93439 0.10797 0.89676 0.0
H2270 H 0.88392 0.15799 0.83782 0.0
H2271 H 0.90166 0.14069 0.85941 0.0
H2272 H 0.95601 0.12626 0.83756 0.0
C2273 C 0.99005 0.11181 0.89405 0.0
C2274 C 0.9393 0.1117 0.88382 0.0
C2275 C 0.0029 0.11554 0.90732 0.0
C2276 C 0.89396 0.14783 0.83329 0.0
C2277 C 0.90404 0.13778 0.84568 0.0
C2278 C 0.95116 0.12162 0.85025 0.0
C2279 C 0.9714 0.11738 0.89578 0.0
C2280 C 0.9582 0.11565 0.88089 0.0
C2281 C 0.91832 0.12568 0.8404 0.0
C2282 C 0.93208 0.11918 0.85351 0.0
H2283 H 0.97387 0.137 0.9363 0.0
H2284 H 0.9516 0.13097 0.91303 0.0
H2285 H 0.97848 0.12321 0.86108 0.0
H2286 H 0.914 0.13056 0.79622 0.0
H2287 H 0.93181 0.11304 0.81798 0.0
C2288 C 0.86356 0.75659 0.65282 0.0
C2289 C 0.8718 0.75122 0.66873 0.0
C2290 C 0.86075 0.74356 0.63949 0.0
C2291 C 0.86175 0.69257 0.62993 0.0
H2292 H 0.87907 0.70877 0.58435 0.0
C2293 C 0.90166 0.647 0.58194 0.0
C2294 C 0.89996 0.65003 0.56384 0.0
C2295 C 0.89114 0.65737 0.59376 0.0
C2296 C 0.87371 0.70406 0.59685 0.0
H2297 H 0.88294 0.72787 0.68335 0.0
H2298 H 0.87855 0.70536 0.66005 0.0
H2299 H 0.87411 0.73159 0.60731 0.0
H2300 H 0.88482 0.66521 0.54386 0.0
H2301 H 0.86658 0.68362 0.56463 0.0
H2302 H 0.86263 0.66484 0.61965 0.0
C2303 C 0.87388 0.7195 0.65791 0.0
C2304 C 0.87087 0.71717 0.61006 0.0
C2305 C 0.87659 0.73248 0.67124 0.0
C2306 C 0.88645 0.6626 0.55774 0.0
C2307 C 0.87608 0.67319 0.56961 0.0
C2308 C 0.86473 0.67944 0.61673 0.0
C2309 C 0.86618 0.72492 0.64176 0.0
C2310 C 0.86557 0.7115 0.62696 0.0
C2311 C 0.87885 0.67114 0.58773 0.0
C2312 C 0.87141 0.685 0.60027 0.0
H2313 H 0.85952 0.7709 0.65057 0.0
H2314 H 0.85457 0.74815 0.6273 0.0
H2315 H 0.85722 0.68779 0.64268 0.0
H2316 H 0.91185 0.63729 0.58701 0.0
H2317 H 0.8937 0.65556 0.60763 0.0
C2318 C 0.02051 0.12168 0.42963 0.0
C2319 C 0.00165 0.1215 0.42482 0.0
C2320 C 0.03438 0.11992 0.41696 0.0
C2321 C 0.04381 0.10761 0.37057 0.0
H2322 H 0.0806 0.14677 0.37436 0.0
C2323 C 0.0837 0.13833 0.31188 0.0
C2324 C 0.10045 0.1477 0.31513 0.0
C2325 C 0.07436 0.12938 0.32557 0.0
C2326 C 0.07084 0.13537 0.37321 0.0
H2327 H 0.98254 0.11829 0.40304 0.0
H2328 H 0.0068 0.11552 0.38086 0.0
H2329 H 0.05882 0.14192 0.39799 0.0
H2330 H 0.12179 0.15325 0.3344 0.0
H2331 H 0.10616 0.13668 0.35802 0.0
H2332 H 0.05564 0.10144 0.34547 0.0
C2333 C 0.01085 0.11686 0.39446 0.0
C2334 C 0.05824 0.13265 0.38681 0.0
C2335 C 0.99695 0.11861 0.40716 0.0
C2336 C 0.10877 0.14624 0.33167 0.0
C2337 C 0.09969 0.13693 0.34522 0.0
C2338 C 0.05657 0.11025 0.35694 0.0
C2339 C 0.02971 0.11795 0.39919 0.0
C2340 C 0.04434 0.11902 0.38552 0.0
C2341 C 0.08183 0.12943 0.34263 0.0
C2342 C 0.07001 0.12444 0.35794 0.0
H2343 H 0.02461 0.12365 0.44316 0.0
H2344 H 0.0488 0.12055 0.42103 0.0
H2345 H 0.03334 0.09687 0.3693 0.0
H2346 H 0.07698 0.13939 0.29922 0.0
H2347 H 0.06063 0.12381 0.32304 0.0
C2348 C 0.60961 0.33411 0.06001 0.0
C2349 C 0.60024 0.35083 0.06341 0.0
C2350 C 0.61878 0.32476 0.07357 0.0
C2351 C 0.61351 0.32119 0.12131 0.0
H2352 H 0.65192 0.28365 0.11685 0.0
C2353 C 0.62843 0.27114 0.17767 0.0
C2354 C 0.62842 0.25225 0.17296 0.0
C2355 C 0.62993 0.28493 0.16489 0.0
C2356 C 0.64121 0.29414 0.11827 0.0
H2357 H 0.59488 0.37211 0.08279 0.0
H2358 H 0.61186 0.35649 0.10616 0.0
H2359 H 0.64695 0.30595 0.09307 0.0
H2360 H 0.63102 0.23299 0.15123 0.0
H2361 H 0.63336 0.25713 0.12885 0.0
H2362 H 0.60743 0.30922 0.14621 0.0
C2363 C 0.61145 0.35004 0.09335 0.0
C2364 C 0.63834 0.30689 0.10467 0.0
C2365 C 0.60191 0.35912 0.07994 0.0
C2366 C 0.63086 0.24743 0.15527 0.0
C2367 C 0.63236 0.26125 0.14246 0.0
C2368 C 0.61648 0.30861 0.13489 0.0
C2369 C 0.61895 0.33219 0.09064 0.0
C2370 C 0.62418 0.32035 0.10588 0.0
C2371 C 0.63144 0.28015 0.14711 0.0
C2372 C 0.63008 0.29471 0.1334 0.0
H2373 H 0.60837 0.3274 0.04736 0.0
H2374 H 0.62433 0.31104 0.07095 0.0
H2375 H 0.60214 0.33096 0.12264 0.0
H2376 H 0.62681 0.27533 0.19121 0.0
H2377 H 0.62944 0.29938 0.16889 0.0
C2378 C 0.50559 0.88592 0.90304 0.0
C2379 C 0.49943 0.87794 0.91881 0.0
C2380 C 0.49312 0.88915 0.88932 0.0
C2381 C 0.44257 0.89053 0.87828 0.0
H2382 H 0.45916 0.87143 0.83347 0.0
C2383 C 0.39619 0.85213 0.83014 0.0
C2384 C 0.40025 0.85238 0.81216 0.0
C2385 C 0.40662 0.86275 0.84183 0.0
C2386 C 0.45437 0.87732 0.84572 0.0
H2387 H 0.47523 0.86774 0.93279 0.0
H2388 H 0.45362 0.87297 0.90883 0.0
H2389 H 0.4815 0.87557 0.85698 0.0
H2390 H 0.41725 0.86524 0.79209 0.0
H2391 H 0.43568 0.88378 0.81263 0.0
H2392 H 0.41519 0.89114 0.86722 0.0
C2393 C 0.468 0.87705 0.90709 0.0
C2394 C 0.4672 0.87967 0.85926 0.0
C2395 C 0.48045 0.87386 0.92079 0.0
C2396 C 0.41383 0.86476 0.8059 0.0
C2397 C 0.42445 0.87527 0.81765 0.0
C2398 C 0.42971 0.88812 0.86474 0.0
C2399 C 0.47422 0.88446 0.89108 0.0
C2400 C 0.46132 0.88557 0.87591 0.0
C2401 C 0.42146 0.87373 0.8358 0.0
C2402 C 0.43536 0.88078 0.84854 0.0
H2403 H 0.52011 0.88941 0.90116 0.0
H2404 H 0.49832 0.89506 0.87723 0.0
H2405 H 0.43767 0.89552 0.89084 0.0
H2406 H 0.3857 0.84281 0.83532 0.0
H2407 H 0.40401 0.86113 0.85572 0.0
C2408 C 0.88984 0.33417 0.93644 0.0
C2409 C 0.89969 0.35065 0.93319 0.0
C2410 C 0.88133 0.32463 0.92264 0.0
C2411 C 0.88881 0.31971 0.87527 0.0
H2412 H 0.84872 0.28385 0.87872 0.0
C2413 C 0.8743 0.26925 0.81914 0.0
C2414 C 0.87334 0.25047 0.82415 0.0
C2415 C 0.87286 0.28333 0.83164 0.0
C2416 C 0.85991 0.29386 0.87758 0.0
H2417 H 0.90656 0.37132 0.91362 0.0
H2418 H 0.89082 0.35532 0.88974 0.0
H2419 H 0.85347 0.3064 0.90231 0.0
H2420 H 0.86908 0.23175 0.84607 0.0
H2421 H 0.86683 0.25639 0.86796 0.0
H2422 H 0.89556 0.30701 0.85085 0.0
C2423 C 0.89037 0.3492 0.90269 0.0
C2424 C 0.86266 0.30675 0.89108 0.0
C2425 C 0.89924 0.35848 0.91637 0.0
C2426 C 0.87001 0.24609 0.84182 0.0
C2427 C 0.86855 0.2602 0.85433 0.0
C2428 C 0.88597 0.30699 0.86179 0.0
C2429 C 0.88227 0.33163 0.90543 0.0
C2430 C 0.87739 0.31961 0.89024 0.0
C2431 C 0.87041 0.27894 0.84942 0.0
C2432 C 0.87175 0.29369 0.86293 0.0
H2433 H 0.89009 0.32784 0.94932 0.0
H2434 H 0.87529 0.31112 0.92528 0.0
H2435 H 0.9006 0.32901 0.87428 0.0
H2436 H 0.87663 0.27311 0.80561 0.0
H2437 H 0.87409 0.29767 0.82744 0.0
C2438 C 0.50135 0.12113 0.59201 0.0
C2439 C 0.49687 0.12454 0.57438 0.0
C2440 C 0.48733 0.1198 0.60464 0.0
C2441 C 0.44034 0.13706 0.61242 0.0
H2442 H 0.44146 0.10447 0.65287 0.0
C2443 C 0.3883 0.14905 0.66675 0.0
C2444 C 0.39612 0.14994 0.68356 0.0
C2445 C 0.39782 0.14029 0.65315 0.0
C2446 C 0.44096 0.11367 0.64165 0.0
H2447 H 0.47412 0.12818 0.55603 0.0
H2448 H 0.44972 0.1258 0.57803 0.0
H2449 H 0.46408 0.10013 0.62925 0.0
H2450 H 0.41917 0.14108 0.69977 0.0
H2451 H 0.43623 0.12638 0.67589 0.0
H2452 H 0.41802 0.15123 0.62491 0.0
C2453 C 0.46407 0.12444 0.58213 0.0
C2454 C 0.4539 0.11118 0.62814 0.0
C2455 C 0.47806 0.12578 0.56953 0.0
C2456 C 0.41282 0.14049 0.68692 0.0
C2457 C 0.42258 0.13205 0.67319 0.0
C2458 C 0.42754 0.13961 0.62589 0.0
C2459 C 0.46856 0.12185 0.59988 0.0
C2460 C 0.45387 0.12304 0.6135 0.0
C2461 C 0.41561 0.1327 0.65597 0.0
C2462 C 0.42781 0.12814 0.64081 0.0
H2463 H 0.51571 0.12 0.59616 0.0
H2464 H 0.49125 0.11797 0.61823 0.0
H2465 H 0.44016 0.14668 0.6015 0.0
H2466 H 0.37532 0.15609 0.6639 0.0
H2467 H 0.39174 0.14051 0.64017 0.0
C2468 C 0.62019 0.73123 0.32692 0.0
C2469 C 0.62461 0.75009 0.32921 0.0
C2470 C 0.62348 0.71843 0.34029 0.0
C2471 C 0.62773 0.71642 0.38807 0.0
H2472 H 0.63749 0.66434 0.37853 0.0
C2473 C 0.61448 0.66199 0.44086 0.0
C2474 C 0.60119 0.64909 0.43498 0.0
C2475 C 0.62458 0.67262 0.42881 0.0
C2476 C 0.63498 0.67887 0.38143 0.0
H2477 H 0.63677 0.7702 0.34704 0.0
H2478 H 0.6427 0.74776 0.37036 0.0
H2479 H 0.64154 0.68732 0.35528 0.0
H2480 H 0.58952 0.6357 0.41204 0.0
H2481 H 0.60717 0.65404 0.3911 0.0
H2482 H 0.62044 0.70791 0.41397 0.0
C2483 C 0.63638 0.74293 0.35832 0.0
C2484 C 0.63718 0.69202 0.36811 0.0
C2485 C 0.63299 0.75578 0.34496 0.0
C2486 C 0.59955 0.64568 0.41694 0.0
C2487 C 0.60978 0.65611 0.40494 0.0
C2488 C 0.62566 0.7033 0.4014 0.0
C2489 C 0.6314 0.72414 0.35625 0.0
C2490 C 0.6328 0.71083 0.37108 0.0
C2491 C 0.62173 0.67029 0.41073 0.0
C2492 C 0.62851 0.68431 0.39801 0.0
H2493 H 0.61374 0.72639 0.31494 0.0
H2494 H 0.61913 0.70416 0.33832 0.0
H2495 H 0.62409 0.73074 0.39082 0.0
H2496 H 0.61607 0.6649 0.45469 0.0
H2497 H 0.63384 0.68335 0.43361 0.0
C2498 C 0.10509 0.85181 0.16742 0.0
C2499 C 0.10087 0.85228 0.18536 0.0
C2500 C 0.09477 0.86231 0.15554 0.0
C2501 C 0.04695 0.87643 0.15147 0.0
H2502 H 0.06334 0.89323 0.10577 0.0
C2503 C 0.99546 0.88252 0.09416 0.0
C2504 C 0.00163 0.87414 0.07857 0.0
C2505 C 0.00797 0.88632 0.10771 0.0
C2506 C 0.05853 0.88862 0.11849 0.0
H2507 H 0.08384 0.86551 0.20519 0.0
H2508 H 0.06562 0.88384 0.18434 0.0
H2509 H 0.08593 0.88991 0.12946 0.0
H2510 H 0.02585 0.86377 0.06474 0.0
H2511 H 0.04753 0.86995 0.08846 0.0
H2512 H 0.01983 0.87399 0.14034 0.0
C2513 C 0.07686 0.87524 0.17948 0.0
C2514 C 0.07145 0.88683 0.13207 0.0
C2515 C 0.08736 0.86485 0.19142 0.0
C2516 C 0.02064 0.87018 0.0766 0.0
C2517 C 0.03312 0.87392 0.09016 0.0
C2518 C 0.03406 0.87816 0.1379 0.0
C2519 C 0.07989 0.87337 0.16136 0.0
C2520 C 0.06591 0.87998 0.14849 0.0
C2521 C 0.0269 0.88178 0.10598 0.0
C2522 C 0.03984 0.88354 0.12106 0.0
H2523 H 0.11556 0.84236 0.16241 0.0
H2524 H 0.09743 0.86045 0.1417 0.0
H2525 H 0.04224 0.87089 0.16389 0.0
H2526 H 0.98093 0.88596 0.096 0.0
H2527 H 0.00276 0.89258 0.11964 0.0
C2528 C 0.62525 0.76976 0.81977 0.0
C2529 C 0.62555 0.75104 0.82502 0.0
C2530 C 0.62715 0.78396 0.83209 0.0
C2531 C 0.64039 0.79463 0.87796 0.0
H2532 H 0.60134 0.83151 0.87397 0.0
C2533 C 0.61116 0.8364 0.93612 0.0
C2534 C 0.60175 0.85308 0.9326 0.0
C2535 C 0.6198 0.82664 0.92252 0.0
C2536 C 0.61271 0.82172 0.87516 0.0
H2537 H 0.62902 0.7325 0.8472 0.0
H2538 H 0.63203 0.75735 0.86878 0.0
H2539 H 0.60553 0.80898 0.85086 0.0
H2540 H 0.5959 0.87389 0.91289 0.0
H2541 H 0.61195 0.85752 0.8894 0.0
H2542 H 0.64722 0.80721 0.90259 0.0
C2543 C 0.63051 0.76103 0.8551 0.0
C2544 C 0.61505 0.80869 0.86185 0.0
C2545 C 0.62861 0.7468 0.84276 0.0
C2546 C 0.60292 0.86092 0.91583 0.0
C2547 C 0.61195 0.85143 0.90237 0.0
C2548 C 0.63815 0.80782 0.89129 0.0
C2549 C 0.62938 0.77976 0.84994 0.0
C2550 C 0.62864 0.79477 0.86325 0.0
C2551 C 0.61943 0.83361 0.90529 0.0
C2552 C 0.624 0.82131 0.89021 0.0
H2553 H 0.62316 0.77351 0.80617 0.0
H2554 H 0.62648 0.79827 0.8277 0.0
H2555 H 0.65112 0.78414 0.87929 0.0
H2556 H 0.61032 0.83004 0.94896 0.0
H2557 H 0.62537 0.81296 0.92531 0.0
C2558 C 0.39462 0.33969 0.16445 0.0
C2559 C 0.39595 0.34497 0.18211 0.0
C2560 C 0.40399 0.3496 0.15152 0.0
C2561 C 0.44585 0.37833 0.14709 0.0
H2562 H 0.4319 0.37475 0.0982 0.0
C2563 C 0.47916 0.38301 0.07223 0.0
C2564 C 0.49644 0.37488 0.07605 0.0
C2565 C 0.46593 0.38553 0.08543 0.0
C2566 C 0.43604 0.37634 0.11174 0.0
H2567 H 0.40677 0.36588 0.19986 0.0
H2568 H 0.42288 0.38357 0.1771 0.0
H2569 H 0.40861 0.36998 0.12061 0.0
H2570 H 0.51363 0.36335 0.09665 0.0
H2571 H 0.49034 0.36667 0.11942 0.0
H2572 H 0.4732 0.38508 0.13822 0.0
C2573 C 0.41496 0.3714 0.17334 0.0
C2574 C 0.42265 0.3733 0.12466 0.0
C2575 C 0.40561 0.36135 0.18638 0.0
C2576 C 0.50042 0.36969 0.09335 0.0
C2577 C 0.48707 0.37182 0.10646 0.0
C2578 C 0.45917 0.38177 0.13416 0.0
C2579 C 0.41482 0.36522 0.15584 0.0
C2580 C 0.42761 0.37325 0.14248 0.0
C2581 C 0.46953 0.37957 0.10268 0.0
C2582 C 0.45467 0.37986 0.11631 0.0
H2583 H 0.38714 0.32725 0.16063 0.0
H2584 H 0.40365 0.34418 0.1383 0.0
H2585 H 0.45026 0.37847 0.16064 0.0
H2586 H 0.47586 0.38743 0.05903 0.0
H2587 H 0.45279 0.39193 0.08203 0.0
C2588 C 0.9003 0.1466 0.4157 0.0
C2589 C 0.89821 0.15 0.4337 0.0
C2590 C 0.89006 0.15675 0.40349 0.0
C2591 C 0.87251 0.20335 0.39922 0.0
H2592 H 0.85698 0.18606 0.35341 0.0
C2593 C 0.86271 0.25482 0.3424 0.0
C2594 C 0.87124 0.24933 0.32667 0.0
C2595 C 0.8598 0.24194 0.35584 0.0
C2596 C 0.86125 0.19112 0.36614 0.0
H2597 H 0.88267 0.16561 0.45311 0.0
H2598 H 0.8649 0.1836 0.43166 0.0
H2599 H 0.86218 0.16361 0.3769 0.0
H2600 H 0.88279 0.22591 0.31246 0.0
H2601 H 0.87825 0.20365 0.33597 0.0
H2602 H 0.87285 0.23067 0.3883 0.0
C2603 C 0.8745 0.17307 0.42705 0.0
C2604 C 0.86411 0.17827 0.3796 0.0
C2605 C 0.88461 0.16272 0.43931 0.0
C2606 C 0.8762 0.23059 0.32442 0.0
C2607 C 0.87342 0.21776 0.33788 0.0
C2608 C 0.86979 0.21618 0.38574 0.0
C2609 C 0.87764 0.17065 0.40903 0.0
C2610 C 0.87042 0.18421 0.39609 0.0
C2611 C 0.86547 0.22333 0.35387 0.0
C2612 C 0.86482 0.21015 0.36886 0.0
H2613 H 0.91056 0.13677 0.411 0.0
H2614 H 0.89291 0.15465 0.3897 0.0
H2615 H 0.87759 0.20834 0.41172 0.0
H2616 H 0.85851 0.26912 0.34445 0.0
H2617 H 0.8534 0.24664 0.36789 0.0
C2618 C 0.99568 0.61445 0.59385 0.0
C2619 C 0.00204 0.62242 0.57814 0.0
C2620 C 0.00811 0.61051 0.60743 0.0
C2621 C 0.05862 0.60672 0.61806 0.0
H2622 H 0.04322 0.62573 0.66328 0.0
C2623 C 0.10684 0.64243 0.66636 0.0
C2624 C 0.10247 0.64269 0.68428 0.0
C2625 C 0.09614 0.63205 0.65468 0.0
C2626 C 0.04767 0.61983 0.65092 0.0
H2627 H 0.02652 0.63191 0.56416 0.0
H2628 H 0.04808 0.62544 0.5879 0.0
H2629 H 0.02057 0.62303 0.63988 0.0
H2630 H 0.08482 0.63067 0.70432 0.0
H2631 H 0.06605 0.61247 0.68384 0.0
H2632 H 0.08601 0.6046 0.62893 0.0
C2633 C 0.03355 0.62192 0.58967 0.0
C2634 C 0.03464 0.61833 0.63744 0.0
C2635 C 0.02115 0.62582 0.5761 0.0
C2636 C 0.08848 0.63079 0.69056 0.0
C2637 C 0.07764 0.62048 0.67882 0.0
C2638 C 0.07167 0.60826 0.63156 0.0
C2639 C 0.02716 0.61445 0.6056 0.0
C2640 C 0.04013 0.61249 0.62065 0.0
C2641 C 0.08077 0.62179 0.66068 0.0
C2642 C 0.06648 0.61555 0.64792 0.0
H2643 H 0.98105 0.61147 0.59576 0.0
H2644 H 0.00276 0.60458 0.61946 0.0
H2645 H 0.06319 0.60176 0.60539 0.0
H2646 H 0.11766 0.65135 0.66116 0.0
H2647 H 0.09893 0.63345 0.64081 0.0
C2648 C 0.62509 0.22781 0.67831 0.0
C2649 C 0.62571 0.24654 0.67311 0.0
C2650 C 0.62699 0.21361 0.66598 0.0
C2651 C 0.64078 0.20285 0.62028 0.0
H2652 H 0.60123 0.16644 0.62372 0.0
C2653 C 0.61175 0.16166 0.56169 0.0
C2654 C 0.60195 0.14517 0.56505 0.0
C2655 C 0.62044 0.1712 0.57541 0.0
C2656 C 0.61274 0.17608 0.62269 0.0
H2657 H 0.62975 0.26509 0.65103 0.0
H2658 H 0.63276 0.24024 0.62942 0.0
H2659 H 0.60535 0.1889 0.6469 0.0
H2660 H 0.59548 0.1244 0.58463 0.0
H2661 H 0.61162 0.14034 0.60833 0.0
H2662 H 0.64782 0.1902 0.59573 0.0
C2663 C 0.63098 0.23655 0.64307 0.0
C2664 C 0.61503 0.18908 0.63604 0.0
C2665 C 0.62909 0.25078 0.65543 0.0
C2666 C 0.60281 0.13722 0.5818 0.0
C2667 C 0.61188 0.14648 0.59539 0.0
C2668 C 0.63858 0.18968 0.60691 0.0
C2669 C 0.62954 0.21782 0.64818 0.0
C2670 C 0.62881 0.20284 0.63483 0.0
C2671 C 0.61971 0.16418 0.59262 0.0
C2672 C 0.62425 0.17637 0.60779 0.0
H2673 H 0.62275 0.22406 0.69187 0.0
H2674 H 0.62608 0.1993 0.67034 0.0
H2675 H 0.65165 0.2132 0.6191 0.0
H2676 H 0.61115 0.16811 0.54888 0.0
H2677 H 0.62629 0.18477 0.57273 0.0
C2678 C 0.08467 0.36019 0.81436 0.0
C2679 C 0.10079 0.34972 0.81752 0.0
C2680 C 0.07577 0.36937 0.82816 0.0
C2681 C 0.07162 0.36303 0.87578 0.0
H2682 H 0.03645 0.40369 0.87193 0.0
C2683 C 0.02161 0.3789 0.93186 0.0
C2684 C 0.00284 0.37968 0.92681 0.0
C2685 C 0.0357 0.3803 0.91937 0.0
C2686 C 0.04629 0.39236 0.87319 0.0
H2687 H 0.12156 0.3424 0.83683 0.0
H2688 H 0.10676 0.35936 0.86068 0.0
H2689 H 0.05864 0.39804 0.84822 0.0
H2690 H 0.98414 0.38373 0.90484 0.0
H2691 H 0.00879 0.38592 0.88298 0.0
H2692 H 0.05909 0.35705 0.90046 0.0
C2693 C 0.10038 0.35978 0.84784 0.0
C2694 C 0.05897 0.38909 0.85962 0.0
C2695 C 0.10898 0.35022 0.83417 0.0
C2696 C 0.99847 0.38293 0.90913 0.0
C2697 C 0.0126 0.38436 0.89662 0.0
C2698 C 0.05913 0.36641 0.88934 0.0
C2699 C 0.08307 0.36851 0.84526 0.0
C2700 C 0.07152 0.37409 0.86057 0.0
C2701 C 0.03134 0.38254 0.90156 0.0
C2702 C 0.04605 0.38083 0.88805 0.0
H2703 H 0.07806 0.35991 0.80161 0.0
H2704 H 0.06246 0.37587 0.82563 0.0
H2705 H 0.08066 0.35105 0.87691 0.0
H2706 H 0.02546 0.37664 0.94541 0.0
H2707 H 0.05004 0.3791 0.92358 0.0
C2708 C 0.87057 0.74644 0.15611 0.0
C2709 C 0.87359 0.7509 0.17381 0.0
C2710 C 0.86877 0.76051 0.14359 0.0
C2711 C 0.88452 0.80799 0.13631 0.0
H2712 H 0.85251 0.80616 0.09548 0.0
C2713 C 0.89737 0.8593 0.08171 0.0
C2714 C 0.89852 0.85121 0.06505 0.0
C2715 C 0.88817 0.85011 0.09526 0.0
C2716 C 0.86154 0.80688 0.1068 0.0
H2717 H 0.876 0.77362 0.19238 0.0
H2718 H 0.87285 0.7981 0.17055 0.0
H2719 H 0.84837 0.78344 0.11903 0.0
H2720 H 0.88975 0.82804 0.04896 0.0
H2721 H 0.87438 0.8115 0.07275 0.0
H2722 H 0.89843 0.83054 0.12397 0.0
C2723 C 0.87213 0.78374 0.16633 0.0
C2724 C 0.85916 0.79387 0.12028 0.0
C2725 C 0.87393 0.7697 0.17883 0.0
C2726 C 0.88891 0.83461 0.06171 0.0
C2727 C 0.88009 0.82514 0.07539 0.0
C2728 C 0.887 0.82082 0.12286 0.0
C2729 C 0.86996 0.77931 0.14852 0.0
C2730 C 0.87085 0.79413 0.13503 0.0
C2731 C 0.8805 0.83234 0.09254 0.0
C2732 C 0.87577 0.82028 0.10777 0.0
H2733 H 0.87012 0.73208 0.15184 0.0
H2734 H 0.86728 0.75666 0.12995 0.0
H2735 H 0.89399 0.80837 0.14734 0.0
H2736 H 0.90457 0.8722 0.08452 0.0
H2737 H 0.88819 0.85638 0.10815 0.0
C2738 C 0.41288 0.63558 0.31365 0.0
C2739 C 0.39605 0.64482 0.31693 0.0
C2740 C 0.42239 0.62683 0.32734 0.0
C2741 C 0.42619 0.63362 0.37481 0.0
H2742 H 0.4647 0.59611 0.37097 0.0
C2743 C 0.47803 0.62252 0.43055 0.0
C2744 C 0.49678 0.62268 0.42539 0.0
C2745 C 0.46395 0.62017 0.41817 0.0
C2746 C 0.45394 0.60658 0.37222 0.0
H2747 H 0.37472 0.65019 0.33626 0.0
H2748 H 0.39067 0.63394 0.35989 0.0
H2749 H 0.44186 0.59957 0.34743 0.0
H2750 H 0.51553 0.61957 0.40332 0.0
H2751 H 0.49089 0.61581 0.38163 0.0
H2752 H 0.43846 0.641 0.39926 0.0
C2753 C 0.39706 0.63418 0.34705 0.0
C2754 C 0.44087 0.60857 0.35876 0.0
C2755 C 0.38781 0.64331 0.3335 0.0
C2756 C 0.5012 0.61964 0.40769 0.0
C2757 C 0.48709 0.6173 0.39529 0.0
C2758 C 0.4391 0.63153 0.38825 0.0
C2759 C 0.41503 0.62693 0.34443 0.0
C2760 C 0.42708 0.62243 0.35971 0.0
C2761 C 0.46831 0.61796 0.40035 0.0
C2762 C 0.45337 0.61829 0.38696 0.0
H2763 H 0.41955 0.63666 0.30097 0.0
H2764 H 0.43619 0.62144 0.32478 0.0
H2765 H 0.41614 0.64477 0.37592 0.0
H2766 H 0.47416 0.62458 0.44412 0.0
H2767 H 0.44961 0.62049 0.42249 0.0
C2768 C 0.38788 0.16236 0.06343 0.0
C2769 C 0.39819 0.14609 0.06629 0.0
C2770 C 0.37889 0.17114 0.07743 0.0
C2771 C 0.38564 0.17457 0.12502 0.0
H2772 H 0.3445 0.20929 0.12224 0.0
C2773 C 0.36987 0.22316 0.18224 0.0
C2774 C 0.3685 0.24201 0.17757 0.0
C2775 C 0.36856 0.20931 0.16949 0.0
C2776 C 0.35598 0.19959 0.1232 0.0
H2777 H 0.40549 0.12497 0.08528 0.0
H2778 H 0.38894 0.13959 0.10946 0.0
H2779 H 0.3502 0.18772 0.09803 0.0
H2780 H 0.36354 0.26107 0.15604 0.0
H2781 H 0.36156 0.23687 0.13374 0.0
H2782 H 0.39177 0.18665 0.14986 0.0
C2783 C 0.38846 0.14615 0.0967 0.0
C2784 C 0.35927 0.18726 0.10934 0.0
C2785 C 0.39779 0.13766 0.08284 0.0
C2786 C 0.36479 0.24667 0.16004 0.0
C2787 C 0.36348 0.2328 0.14727 0.0
C2788 C 0.38227 0.18673 0.13885 0.0
C2789 C 0.37984 0.16356 0.09442 0.0
C2790 C 0.3744 0.17485 0.10993 0.0
C2791 C 0.36588 0.21401 0.1518 0.0
C2792 C 0.36766 0.19964 0.13797 0.0
H2793 H 0.3881 0.16915 0.05076 0.0
H2794 H 0.37247 0.18454 0.07514 0.0
H2795 H 0.39772 0.16562 0.12585 0.0
H2796 H 0.3725 0.21909 0.19566 0.0
H2797 H 0.37019 0.19492 0.1734 0.0
C2798 C 0.58837 0.63261 0.81004 0.0
C2799 C 0.6012 0.64604 0.81576 0.0
C2800 C 0.57798 0.62244 0.82223 0.0
C2801 C 0.57214 0.61248 0.86979 0.0
H2802 H 0.52019 0.62307 0.86054 0.0
C2803 C 0.52007 0.62847 0.92427 0.0
C2804 C 0.50119 0.62407 0.92211 0.0
C2805 C 0.53284 0.62478 0.91095 0.0
C2806 C 0.53454 0.6195 0.86327 0.0
H2807 H 0.61479 0.65785 0.83853 0.0
H2808 H 0.59686 0.64011 0.85969 0.0
H2809 H 0.54284 0.62638 0.83721 0.0
H2810 H 0.48101 0.61147 0.90463 0.0
H2811 H 0.50336 0.60484 0.88141 0.0
H2812 H 0.56389 0.60639 0.8961 0.0
C2813 C 0.59466 0.63744 0.84589 0.0
C2814 C 0.54755 0.62138 0.84983 0.0
C2815 C 0.60485 0.64772 0.83376 0.0
C2816 C 0.49545 0.61526 0.90659 0.0
C2817 C 0.50824 0.61146 0.89329 0.0
C2818 C 0.55909 0.6105 0.88323 0.0
C2819 C 0.58048 0.62538 0.84028 0.0
C2820 C 0.56658 0.61866 0.85314 0.0
C2821 C 0.52704 0.61648 0.89518 0.0
C2822 C 0.54026 0.61478 0.8803 0.0
H2823 H 0.58529 0.63099 0.79624 0.0
H2824 H 0.56726 0.6131 0.81755 0.0
H2825 H 0.5867 0.61007 0.87265 0.0
H2826 H 0.52496 0.63523 0.93608 0.0
H2827 H 0.54712 0.62914 0.91277 0.0
C2828 C 0.09701 0.85272 0.58176 0.0
C2829 C 0.09867 0.84975 0.56366 0.0
C2830 C 0.10735 0.84211 0.59354 0.0
C2831 C 0.12384 0.79503 0.5962 0.0
H2832 H 0.14017 0.81033 0.64238 0.0
C2833 C 0.13292 0.74151 0.65155 0.0
C2834 C 0.1248 0.74675 0.66755 0.0
C2835 C 0.13586 0.75468 0.63837 0.0
C2836 C 0.13567 0.80582 0.62953 0.0
H2837 H 0.11363 0.8345 0.54361 0.0
H2838 H 0.13159 0.81572 0.56429 0.0
H2839 H 0.13542 0.83371 0.61961 0.0
H2840 H 0.11391 0.77 0.68246 0.0
H2841 H 0.11849 0.79278 0.65941 0.0
H2842 H 0.12283 0.76737 0.6063 0.0
C2843 C 0.12224 0.82626 0.56932 0.0
C2844 C 0.13307 0.8192 0.61649 0.0
C2845 C 0.11204 0.83707 0.5575 0.0
C2846 C 0.12017 0.76549 0.67028 0.0
C2847 C 0.12299 0.77862 0.65709 0.0
C2848 C 0.1263 0.78168 0.60927 0.0
C2849 C 0.11943 0.82817 0.58745 0.0
C2850 C 0.12647 0.814 0.59988 0.0
C2851 C 0.13065 0.77335 0.64088 0.0
C2852 C 0.13155 0.787 0.62628 0.0
H2853 H 0.08692 0.86251 0.58688 0.0
H2854 H 0.10478 0.84385 0.60742 0.0
H2855 H 0.11852 0.79061 0.5836 0.0
H2856 H 0.13685 0.72719 0.64913 0.0
H2857 H 0.14199 0.7502 0.62613 0.0
C2858 C 0.91141 0.3653 0.30991 0.0
C2859 C 0.89834 0.35193 0.31528 0.0
C2860 C 0.92162 0.37528 0.32237 0.0
C2861 C 0.9261 0.38513 0.3701 0.0
H2862 H 0.9785 0.37586 0.36196 0.0
C2863 C 0.97745 0.3707 0.42562 0.0
C2864 C 0.99622 0.37576 0.42383 0.0
C2865 C 0.96486 0.37397 0.41206 0.0
C2866 C 0.96401 0.37905 0.36437 0.0
H2867 H 0.8843 0.33993 0.33772 0.0
H2868 H 0.90194 0.35731 0.35934 0.0
H2869 H 0.95649 0.37191 0.33816 0.0
H2870 H 0.0163 0.38912 0.40676 0.0
H2871 H 0.99423 0.39498 0.38311 0.0
H2872 H 0.93358 0.39148 0.39656 0.0
C2873 C 0.90444 0.3601 0.34561 0.0
C2874 C 0.95136 0.3768 0.35067 0.0
C2875 C 0.89442 0.35001 0.33321 0.0
C2876 C 0.00197 0.38485 0.40846 0.0
C2877 C 0.98933 0.38819 0.3949 0.0
C2878 C 0.93877 0.38747 0.3838 0.0
C2879 C 0.91873 0.37221 0.34036 0.0
C2880 C 0.93219 0.37908 0.35357 0.0
C2881 C 0.9707 0.38248 0.39642 0.0
C2882 C 0.95778 0.38369 0.38127 0.0
H2883 H 0.9147 0.3671 0.29618 0.0
H2884 H 0.93243 0.38467 0.31797 0.0
H2885 H 0.91143 0.38723 0.37264 0.0
H2886 H 0.97256 0.36371 0.43731 0.0
H2887 H 0.9507 0.36911 0.4136 0.0
C2888 C 0.3618 0.742 0.34545 0.0
C2889 C 0.36995 0.74774 0.32962 0.0
C2890 C 0.35834 0.75486 0.35879 0.0
C2891 C 0.35734 0.80579 0.36863 0.0
H2892 H 0.3756 0.79001 0.41401 0.0
C2893 C 0.39696 0.85209 0.41595 0.0
C2894 C 0.39611 0.84871 0.43404 0.0
C2895 C 0.38612 0.84172 0.40439 0.0
C2896 C 0.36994 0.79459 0.40159 0.0
H2897 H 0.38021 0.77157 0.31512 0.0
H2898 H 0.37469 0.79382 0.33845 0.0
H2899 H 0.37123 0.76714 0.39101 0.0
H2900 H 0.38203 0.83304 0.45437 0.0
H2901 H 0.3632 0.81467 0.43403 0.0
H2902 H 0.35735 0.83349 0.379 0.0
C2903 C 0.37059 0.77949 0.34052 0.0
C2904 C 0.36746 0.78144 0.38834 0.0
C2905 C 0.37396 0.76668 0.32717 0.0
C2906 C 0.383 0.83592 0.44047 0.0
C2907 C 0.37229 0.82535 0.42885 0.0
C2908 C 0.35995 0.81897 0.38186 0.0
C2909 C 0.36303 0.77371 0.35661 0.0
C2910 C 0.36187 0.787 0.37149 0.0
C2911 C 0.37435 0.82762 0.41066 0.0
C2912 C 0.367 0.81358 0.39825 0.0
H2913 H 0.35834 0.72753 0.34765 0.0
H2914 H 0.35228 0.74997 0.37094 0.0
H2915 H 0.35258 0.81047 0.35591 0.0
H2916 H 0.40684 0.86197 0.41064 0.0
H2917 H 0.38813 0.84374 0.39046 0.0
C2918 C 0.91178 0.633 0.18976 0.0
C2919 C 0.89883 0.64626 0.18394 0.0
C2920 C 0.9222 0.62276 0.17765 0.0
C2921 C 0.92774 0.61197 0.13023 0.0
H2922 H 0.9798 0.62246 0.139 0.0
C2923 C 0.97964 0.62602 0.07512 0.0
C2924 C 0.99849 0.62149 0.07728 0.0
C2925 C 0.96693 0.62286 0.0886 0.0
C2926 C 0.96542 0.61893 0.13642 0.0
H2927 H 0.88513 0.65775 0.16107 0.0
H2928 H 0.90311 0.63987 0.14005 0.0
H2929 H 0.9573 0.62646 0.16238 0.0
H2930 H 0.01866 0.60923 0.09498 0.0
H2931 H 0.99639 0.60352 0.11849 0.0
H2932 H 0.9358 0.60518 0.10402 0.0
C2933 C 0.90538 0.63738 0.15388 0.0
C2934 C 0.95249 0.6212 0.14988 0.0
C2935 C 0.89515 0.64774 0.16593 0.0
C2936 C 0.00425 0.61309 0.09299 0.0
C2937 C 0.9915 0.60983 0.10647 0.0
C2938 C 0.9407 0.60958 0.11678 0.0
C2939 C 0.91962 0.62544 0.15957 0.0
C2940 C 0.93343 0.61849 0.14672 0.0
C2941 C 0.97274 0.61497 0.10454 0.0
C2942 C 0.95958 0.6138 0.11952 0.0
H2943 H 0.91489 0.63154 0.20357 0.0
H2944 H 0.93298 0.61351 0.18239 0.0
H2945 H 0.91315 0.60956 0.1275 0.0
H2946 H 0.97474 0.63249 0.06317 0.0
H2947 H 0.95267 0.62731 0.08674 0.0
C2948 C 0.11124 0.16192 0.93714 0.0
C2949 C 0.10124 0.14546 0.93419 0.0
C2950 C 0.12 0.17098 0.92318 0.0
C2951 C 0.11195 0.17478 0.87589 0.0
H2952 H 0.15106 0.21176 0.87849 0.0
C2953 C 0.12315 0.22603 0.81968 0.0
C2954 C 0.12394 0.24479 0.82479 0.0
C2955 C 0.12538 0.21188 0.83201 0.0
C2956 C 0.14014 0.20144 0.87758 0.0
H2957 H 0.09448 0.12424 0.91514 0.0
H2958 H 0.11072 0.13936 0.89102 0.0
H2959 H 0.14743 0.1892 0.90224 0.0
H2960 H 0.12865 0.26341 0.8467 0.0
H2961 H 0.13219 0.23867 0.86831 0.0
H2962 H 0.10427 0.18723 0.8516 0.0
C2963 C 0.1111 0.14583 0.90382 0.0
C2964 C 0.13805 0.18852 0.89117 0.0
C2965 C 0.10198 0.13704 0.91764 0.0
C2966 C 0.12783 0.24909 0.84237 0.0
C2967 C 0.13005 0.23491 0.85472 0.0
C2968 C 0.11412 0.18754 0.86233 0.0
C2969 C 0.11912 0.16351 0.90614 0.0
C2970 C 0.12363 0.17529 0.89067 0.0
C2971 C 0.12842 0.21616 0.84974 0.0
C2972 C 0.12794 0.20128 0.86318 0.0
H2973 H 0.11074 0.16872 0.94979 0.0
H2974 H 0.12599 0.18456 0.92552 0.0
H2975 H 0.10037 0.16518 0.87515 0.0
H2976 H 0.12041 0.22224 0.8062 0.0
H2977 H 0.1243 0.19756 0.82773 0.0
C2978 C 0.60577 0.3506 0.66575 0.0
C2979 C 0.60187 0.35167 0.68374 0.0
C2980 C 0.59544 0.36096 0.65376 0.0
C2981 C 0.54795 0.37627 0.64982 0.0
H2982 H 0.56433 0.39254 0.60394 0.0
C2983 C 0.49595 0.38395 0.59305 0.0
C2984 C 0.50172 0.37553 0.57734 0.0
C2985 C 0.50872 0.38733 0.60648 0.0
C2986 C 0.55952 0.38807 0.61671 0.0
H2987 H 0.58536 0.36578 0.70344 0.0
H2988 H 0.56716 0.38384 0.68239 0.0
H2989 H 0.58707 0.38851 0.6274 0.0
H2990 H 0.52551 0.36467 0.56319 0.0
H2991 H 0.54762 0.3701 0.58669 0.0
H2992 H 0.52063 0.37466 0.63897 0.0
C2993 C 0.57815 0.37488 0.67759 0.0
C2994 C 0.57253 0.38587 0.63015 0.0
C2995 C 0.58865 0.36463 0.68964 0.0
C2996 C 0.5206 0.37114 0.57514 0.0
C2997 C 0.53333 0.37444 0.58858 0.0
C2998 C 0.53496 0.37839 0.63637 0.0
C2999 C 0.5809 0.37249 0.6595 0.0
C3000 C 0.56697 0.37926 0.64665 0.0
C3001 C 0.52751 0.38232 0.60452 0.0
C3002 C 0.5407 0.38361 0.61948 0.0
H3003 H 0.616 0.34085 0.66083 0.0
H3004 H 0.59787 0.35871 0.63992 0.0
H3005 H 0.54322 0.37093 0.66231 0.0
H3006 H 0.48152 0.3877 0.59507 0.0
H3007 H 0.50382 0.39363 0.61851 0.0
C3008 C 0.19771 0.20506 0.27209 0.0
C3009 C 0.18169 0.2085 0.26217 0.0
C3010 C 0.21402 0.21495 0.26878 0.0
C3011 C 0.22914 0.25963 0.25009 0.0
H3012 H 0.27843 0.23838 0.2549 0.0
C3013 C 0.29706 0.29681 0.22985 0.0
C3014 C 0.31287 0.29372 0.24017 0.0
C3015 C 0.28037 0.28783 0.2338 0.0
C3016 C 0.26474 0.24457 0.25379 0.0
H3017 H 0.17012 0.22397 0.24048 0.0
H3018 H 0.19886 0.241 0.23424 0.0
H3019 H 0.25123 0.21835 0.2574 0.0
H3020 H 0.32369 0.28002 0.26322 0.0
H3021 H 0.29437 0.26437 0.27035 0.0
H3022 H 0.24274 0.28582 0.24624 0.0
C3023 C 0.19877 0.23099 0.24483 0.0
C3024 C 0.24917 0.23307 0.25514 0.0
C3025 C 0.18243 0.2211 0.24821 0.0
C3026 C 0.31155 0.28261 0.25518 0.0
C3027 C 0.29489 0.27353 0.2591 0.0
C3028 C 0.24473 0.27111 0.24866 0.0
C3029 C 0.21458 0.22842 0.25543 0.0
C3030 C 0.23118 0.24046 0.2533 0.0
C3031 C 0.27933 0.27556 0.24809 0.0
C3032 C 0.26269 0.26369 0.25052 0.0
H3033 H 0.1973 0.19541 0.28299 0.0
H3034 H 0.22588 0.21272 0.27727 0.0
H3035 H 0.21547 0.26583 0.24897 0.0
H3036 H 0.29795 0.30528 0.21814 0.0
H3037 H 0.26866 0.2896 0.22504 0.0
C3038 C 0.04115 0.95008 0.52324 0.0
C3039 C 0.03886 0.93422 0.5128 0.0
C3040 C 0.03126 0.96629 0.51948 0.0
C3041 C 0.00377 0.99024 0.48541 0.0
H3042 H 0.97953 0.01342 0.52522 0.0
C3043 C 0.95044 0.04857 0.47577 0.0
C3044 C 0.95303 0.06427 0.48636 0.0
C3045 C 0.95961 0.03198 0.47968 0.0
C3046 C 0.9863 0.00718 0.51399 0.0
H3047 H 0.02542 0.92286 0.48984 0.0
H3048 H 0.00812 0.95128 0.4831 0.0
H3049 H -0.00016 0.98669 0.5298 0.0
H3050 H 0.96611 0.07498 0.50977 0.0
H3051 H 0.98225 0.04596 0.51671 0.0
H3052 H 0.99034 0.01078 0.46961 0.0
C3053 C 0.01755 0.95128 0.49416 0.0
C3054 C 0.99799 0.99193 0.51661 0.0
C3055 C 0.02744 0.93505 0.49796 0.0
C3056 C 0.96389 0.06291 0.50153 0.0
C3057 C 0.97311 0.04633 0.50545 0.0
C3058 C 0.9921 0.0055 0.48279 0.0
C3059 C 0.01896 0.96689 0.50518 0.0
C3060 C 0.00689 0.98333 0.50235 0.0
C3061 C 0.97153 0.03087 0.49425 0.0
C3062 C 0.98325 0.01416 0.49706 0.0
H3063 H 0.05001 0.94965 0.53471 0.0
H3064 H 0.03292 0.97823 0.528 0.0
H3065 H 0.01058 0.98401 0.4742 0.0
H3066 H 0.94201 0.04942 0.46404 0.0
H3067 H 0.95781 0.02019 0.47102 0.0
C3068 C 0.18167 0.73292 0.7336 0.0
C3069 C 0.18026 0.71354 0.73519 0.0
C3070 C 0.19824 0.74197 0.73768 0.0
C3071 C 0.24283 0.73656 0.76101 0.0
H3072 H 0.2596 0.77447 0.72845 0.0
C3073 C 0.31673 0.76623 0.7638 0.0
C3074 C 0.31854 0.7856 0.76253 0.0
C3075 C 0.29981 0.75766 0.76009 0.0
C3076 C 0.255 0.76406 0.73775 0.0
H3077 H 0.19459 0.68837 0.74284 0.0
H3078 H 0.22384 0.70417 0.74997 0.0
H3079 H 0.22989 0.75896 0.72356 0.0
H3080 H 0.30456 0.81125 0.75577 0.0
H3081 H 0.27472 0.79625 0.74917 0.0
H3082 H 0.26801 0.74159 0.77514 0.0
C3083 C 0.21209 0.71241 0.74566 0.0
C3084 C 0.23799 0.75519 0.73498 0.0
C3085 C 0.19543 0.70336 0.74159 0.0
C3086 C 0.30341 0.79627 0.75678 0.0
C3087 C 0.28641 0.78768 0.75303 0.0
C3088 C 0.25985 0.74541 0.76377 0.0
C3089 C 0.21376 0.73178 0.74344 0.0
C3090 C 0.23173 0.74132 0.74657 0.0
C3091 C 0.28437 0.76832 0.75498 0.0
C3092 C 0.26615 0.7592 0.75213 0.0
H3093 H 0.16999 0.74106 0.72896 0.0
H3094 H 0.19895 0.75693 0.73622 0.0
H3095 H 0.23826 0.72614 0.7703 0.0
H3096 H 0.32836 0.7577 0.7679 0.0
H3097 H 0.29879 0.74269 0.76131 0.0
C3098 C 0.53084 0.93602 0.00079 0.0
C3099 C 0.54172 0.93521 0.9856 0.0
C3100 C 0.52077 0.95211 0.00471 0.0
C3101 C 0.49928 0.99154 0.98209 0.0
H3102 H 0.49292 0.01166 0.02878 0.0
C3103 C 0.46397 0.06207 0.99637 0.0
C3104 C 0.45398 0.06378 0.01202 0.0
C3105 C 0.47328 0.04552 0.99251 0.0
C3106 C 0.49431 0.00601 0.0157 0.0
H3107 H 0.55183 0.95058 0.9632 0.0
H3108 H 0.53443 0.9789 0.97012 0.0
H3109 H 0.51372 0.98533 0.02423 0.0
H3110 H 0.44448 0.04954 0.03529 0.0
H3111 H 0.46033 0.02034 0.0284 0.0
H3112 H 0.47985 0.01217 0.97354 0.0
C3113 C 0.53335 0.96706 0.97883 0.0
C3114 C 0.50631 0.991 0.0131 0.0
C3115 C 0.54341 0.951 0.97496 0.0
C3116 C 0.45222 0.04841 0.02316 0.0
C3117 C 0.46144 0.03184 0.0193 0.0
C3118 C 0.48724 0.0065 0.98469 0.0
C3119 C 0.52147 0.96757 0.99344 0.0
C3120 C 0.50899 0.98368 0.99626 0.0
C3121 C 0.47263 0.03044 0.00425 0.0
C3122 C 0.48465 0.01394 0.00152 0.0
H3123 H 0.52928 0.92387 0.00906 0.0
H3124 H 0.51169 0.95208 0.01603 0.0
H3125 H 0.50079 0.98593 0.969 0.0
H3126 H 0.46556 0.07389 0.98769 0.0
H3127 H 0.48185 0.04493 0.98086 0.0
C3128 C 0.30109 0.69753 0.25786 0.0
C3129 C 0.31717 0.70806 0.26086 0.0
C3130 C 0.28433 0.70644 0.25378 0.0
C3131 C 0.26104 0.75104 0.26091 0.0
H3132 H 0.22667 0.73436 0.22513 0.0
C3133 C 0.19622 0.79338 0.24047 0.0
C3134 C 0.18025 0.78331 0.23597 0.0
C3135 C 0.21284 0.78402 0.24407 0.0
C3136 C 0.236 0.73904 0.23535 0.0
H3137 H 0.3289 0.73579 0.26114 0.0
H3138 H 0.29973 0.75136 0.25395 0.0
H3139 H 0.25607 0.71798 0.22922 0.0
H3140 H 0.1685 0.75582 0.23266 0.0
H3141 H 0.19731 0.73941 0.23933 0.0
H3142 H 0.24098 0.77195 0.26721 0.0
C3143 C 0.29989 0.73633 0.25497 0.0
C3144 C 0.25284 0.72968 0.23763 0.0
C3145 C 0.31656 0.72745 0.25895 0.0
C3146 C 0.1808 0.76382 0.23589 0.0
C3147 C 0.1973 0.75447 0.23959 0.0
C3148 C 0.24416 0.76032 0.25871 0.0
C3149 C 0.28352 0.72597 0.25278 0.0
C3150 C 0.26556 0.73567 0.25036 0.0
C3151 C 0.21362 0.76445 0.24333 0.0
C3152 C 0.23147 0.75446 0.24588 0.0
H3153 H 0.3013 0.68256 0.25947 0.0
H3154 H 0.27188 0.69813 0.25221 0.0
H3155 H 0.27048 0.75575 0.27104 0.0
H3156 H 0.19602 0.80844 0.24051 0.0
H3157 H 0.22519 0.79212 0.2468 0.0
C3158 C 0.54695 0.05159 0.50601 0.0
C3159 C 0.53653 0.06764 0.50949 0.0
C3160 C 0.53792 0.03493 0.50189 0.0
C3161 C 0.49291 0.01172 0.50854 0.0
H3162 H 0.51076 0.97728 0.47332 0.0
C3163 C 0.45192 0.9463 0.48698 0.0
C3164 C 0.46242 0.93026 0.48374 0.0
C3165 C 0.46086 0.96316 0.49054 0.0
C3166 C 0.50573 0.98668 0.48334 0.0
H3167 H 0.50885 0.07941 0.51055 0.0
H3168 H 0.49306 0.05044 0.50316 0.0
H3169 H 0.52685 0.00679 0.47768 0.0
H3170 H 0.49019 0.91872 0.48242 0.0
H3171 H 0.50585 0.94803 0.48886 0.0
H3172 H 0.47183 0.9916 0.51426 0.0
C3173 C 0.5081 0.05051 0.50395 0.0
C3174 C 0.51494 0.00357 0.48581 0.0
C3175 C 0.5171 0.06708 0.50807 0.0
C3176 C 0.48187 0.93105 0.48473 0.0
C3177 C 0.4908 0.94781 0.48829 0.0
C3178 C 0.48371 0.99484 0.50609 0.0
C3179 C 0.51837 0.03416 0.50122 0.0
C3180 C 0.50861 0.01627 0.49842 0.0
C3181 C 0.48042 0.96412 0.4909 0.0
C3182 C 0.49006 0.98212 0.49349 0.0
H3183 H 0.56197 0.05178 0.50718 0.0
H3184 H 0.54619 0.02251 0.49993 0.0
H3185 H 0.4879 0.0211 0.51859 0.0
H3186 H 0.43688 0.94593 0.48613 0.0
H3187 H 0.4525 0.97553 0.4924 0.0
C3188 C 0.17939 0.26862 0.75717 0.0
C3189 C 0.17934 0.2877 0.76091 0.0
C3190 C 0.19605 0.25941 0.75383 0.0
C3191 C 0.24547 0.26603 0.74271 0.0
H3192 H 0.25148 0.21909 0.76721 0.0
C3193 C 0.31587 0.22914 0.74492 0.0
C3194 C 0.3157 0.21009 0.74104 0.0
C3195 C 0.29934 0.23843 0.74863 0.0
C3196 C 0.24995 0.23209 0.76019 0.0
H3197 H 0.19621 0.31242 0.76352 0.0
H3198 H 0.22565 0.29631 0.75762 0.0
H3199 H 0.22224 0.2361 0.76961 0.0
H3200 H 0.29862 0.1855 0.73857 0.0
H3201 H 0.26942 0.20177 0.74508 0.0
H3202 H 0.27316 0.262 0.73327 0.0
C3203 C 0.21279 0.28848 0.75711 0.0
C3204 C 0.23321 0.24181 0.76151 0.0
C3205 C 0.19603 0.29772 0.76043 0.0
C3206 C 0.29896 0.20018 0.74177 0.0
C3207 C 0.28233 0.20951 0.74544 0.0
C3208 C 0.26221 0.2563 0.74139 0.0
C3209 C 0.21299 0.26912 0.75428 0.0
C3210 C 0.23078 0.25885 0.75274 0.0
C3211 C 0.28233 0.22885 0.74839 0.0
C3212 C 0.26463 0.23923 0.75013 0.0
H3213 H 0.16658 0.2607 0.75752 0.0
H3214 H 0.19572 0.24459 0.75132 0.0
H3215 H 0.24393 0.27901 0.73566 0.0
H3216 H 0.32872 0.23698 0.74436 0.0
H3217 H 0.29982 0.25324 0.7512 0.0
C3218 C 0.98283 0.93085 0.00924 0.0
C3219 C 0.96346 0.92987 0.0111 0.0
C3220 C 0.99146 0.94783 0.00591 0.0
C3221 C 0.98338 0.99587 0.99097 0.0
H3222 H 0.0272 0.00644 0.01894 0.0
C3223 C 0.01607 0.06849 0.99207 0.0
C3224 C 0.03544 0.06928 0.99017 0.0
C3225 C 0.0073 0.05163 0.99563 0.0
C3226 C 0.01509 0.00362 0.01093 0.0
H3227 H 0.93773 0.94541 0.01034 0.0
H3228 H 0.95282 0.97536 0.00446 0.0
H3229 H 0.01162 0.97648 0.02188 0.0
H3230 H 0.06105 0.05355 0.99111 0.0
H3231 H 0.04572 0.02381 0.99736 0.0
H3232 H 0.98687 0.023 0.97999 0.0
C3233 C 0.96134 0.96299 0.00546 0.0
C3234 C 0.00618 0.98647 0.01258 0.0
C3235 C 0.9527 0.94592 0.00879 0.0
C3236 C 0.04608 0.05318 0.99269 0.0
C3237 C 0.0373 0.03623 0.99623 0.0
C3238 C 0.9923 0.01302 0.98932 0.0
C3239 C 0.98086 0.96416 0.00443 0.0
C3240 C 0.99026 0.98239 0.00258 0.0
C3241 C 0.01777 0.03523 0.99729 0.0
C3242 C 0.00824 0.01708 0.99929 0.0
H3243 H 0.99134 0.91854 0.01089 0.0
H3244 H 0.00647 0.94822 0.00481 0.0
H3245 H 0.97128 0.99304 0.98295 0.0
H3246 H 0.00766 0.08085 0.99026 0.0
H3247 H 0.99229 0.05137 0.99674 0.0
C3248 C 0.81946 0.76487 0.73914 0.0
C3249 C 0.8195 0.78436 0.73917 0.0
C3250 C 0.80337 0.7551 0.74346 0.0
C3251 C 0.75668 0.75991 0.76349 0.0
H3252 H 0.74486 0.71793 0.73351 0.0
C3253 C 0.68386 0.72808 0.76161 0.0
C3254 C 0.68273 0.70867 0.76309 0.0
C3255 C 0.70087 0.73667 0.75847 0.0
C3256 C 0.74808 0.7295 0.74208 0.0
H3257 H 0.80332 0.80909 0.74431 0.0
H3258 H 0.77486 0.79206 0.75165 0.0
H3259 H 0.77423 0.7344 0.72962 0.0
H3260 H 0.69813 0.68286 0.76188 0.0
H3261 H 0.72817 0.69793 0.75604 0.0
H3262 H 0.73031 0.75521 0.77566 0.0
C3263 C 0.7873 0.78425 0.74853 0.0
C3264 C 0.76492 0.73891 0.73992 0.0
C3265 C 0.80351 0.79403 0.74432 0.0
C3266 C 0.69873 0.69785 0.76059 0.0
C3267 C 0.71584 0.70647 0.75733 0.0
C3268 C 0.73981 0.75058 0.76555 0.0
C3269 C 0.78696 0.76467 0.74775 0.0
C3270 C 0.76937 0.75428 0.75055 0.0
C3271 C 0.7171 0.72599 0.75669 0.0
C3272 C 0.73529 0.73538 0.75479 0.0
H3273 H 0.83179 0.75719 0.73534 0.0
H3274 H 0.80372 0.74004 0.74314 0.0
H3275 H 0.75981 0.77148 0.77207 0.0
H3276 H 0.6716 0.73665 0.76339 0.0
H3277 H 0.70139 0.7517 0.75769 0.0
C3278 C 0.81296 0.28399 0.24711 0.0
C3279 C 0.81416 0.29542 0.26192 0.0
C3280 C 0.79642 0.27462 0.24336 0.0
C3281 C 0.75494 0.25693 0.26623 0.0
H3282 H 0.73746 0.24638 0.21926 0.0
C3283 C 0.6845 0.22159 0.25073 0.0
C3284 C 0.68425 0.20885 0.23684 0.0
C3285 C 0.70067 0.23158 0.2545 0.0
C3286 C 0.74232 0.24904 0.23245 0.0
H3287 H 0.79912 0.30717 0.28378 0.0
H3288 H 0.76993 0.29125 0.27699 0.0
H3289 H 0.76416 0.26683 0.2234 0.0
H3290 H 0.7006 0.19565 0.21659 0.0
H3291 H 0.72903 0.21304 0.22319 0.0
H3292 H 0.73297 0.23924 0.27524 0.0
C3293 C 0.7818 0.28909 0.26851 0.0
C3294 C 0.75757 0.26079 0.23482 0.0
C3295 C 0.79837 0.29836 0.27229 0.0
C3296 C 0.70058 0.20548 0.22734 0.0
C3297 C 0.71672 0.21552 0.23103 0.0
C3298 C 0.73962 0.24526 0.26385 0.0
C3299 C 0.78082 0.27662 0.25434 0.0
C3300 C 0.76409 0.26484 0.25174 0.0
C3301 C 0.71678 0.22903 0.24433 0.0
C3302 C 0.73322 0.24114 0.24694 0.0
H3303 H 0.82512 0.28146 0.23907 0.0
H3304 H 0.7962 0.26504 0.23242 0.0
H3305 H 0.75983 0.25944 0.27943 0.0
H3306 H 0.67193 0.22449 0.25807 0.0
H3307 H 0.70028 0.24196 0.26477 0.0
C3308 C 0.81654 0.22733 0.75834 0.0
C3309 C 0.81691 0.20801 0.7608 0.0
C3310 C 0.79985 0.23638 0.75481 0.0
C3311 C 0.75182 0.22985 0.73983 0.0
H3312 H 0.74245 0.27402 0.7677 0.0
C3313 C 0.68072 0.26574 0.73914 0.0
C3314 C 0.68077 0.28517 0.73777 0.0
C3315 C 0.69706 0.25619 0.74299 0.0
C3316 C 0.74493 0.26183 0.75971 0.0
H3317 H 0.80057 0.18277 0.76087 0.0
H3318 H 0.77108 0.19863 0.75448 0.0
H3319 H 0.77173 0.25729 0.77107 0.0
H3320 H 0.69743 0.31009 0.73985 0.0
H3321 H 0.72633 0.29339 0.74647 0.0
H3322 H 0.72513 0.23448 0.72831 0.0
C3323 C 0.78374 0.20675 0.75525 0.0
C3324 C 0.76168 0.25225 0.76163 0.0
C3325 C 0.80053 0.19768 0.75884 0.0
C3326 C 0.69717 0.29507 0.74101 0.0
C3327 C 0.71363 0.2855 0.74478 0.0
C3328 C 0.73509 0.23947 0.73786 0.0
C3329 C 0.7832 0.22626 0.75367 0.0
C3330 C 0.76532 0.23621 0.75166 0.0
C3331 C 0.71381 0.26592 0.7454 0.0
C3332 C 0.73147 0.25558 0.74777 0.0
H3333 H 0.82911 0.23551 0.75974 0.0
H3334 H 0.7999 0.25136 0.75331 0.0
H3335 H 0.75434 0.21764 0.73187 0.0
H3336 H 0.6681 0.2579 0.73677 0.0
H3337 H 0.69665 0.24115 0.74377 0.0
C3338 C 0.67987 0.76383 0.26152 0.0
C3339 C 0.67941 0.78332 0.26105 0.0
C3340 C 0.69619 0.7543 0.25751 0.0
C3341 C 0.74257 0.75955 0.23707 0.0
H3342 H 0.75537 0.71813 0.26737 0.0
C3343 C 0.81567 0.72825 0.23784 0.0
C3344 C 0.81689 0.70883 0.23663 0.0
C3345 C 0.79868 0.73679 0.24123 0.0
C3346 C 0.75188 0.72955 0.25872 0.0
H3347 H 0.69514 0.80824 0.25549 0.0
H3348 H 0.72399 0.79162 0.24868 0.0
H3349 H 0.72589 0.73435 0.27152 0.0
H3350 H 0.8017 0.68295 0.2386 0.0
H3351 H 0.77171 0.69794 0.24486 0.0
H3352 H 0.76875 0.75494 0.22451 0.0
C3353 C 0.7117 0.78364 0.25194 0.0
C3354 C 0.73499 0.73881 0.26103 0.0
C3355 C 0.69526 0.79318 0.25584 0.0
C3356 C 0.80103 0.69796 0.23965 0.0
C3357 C 0.78395 0.70653 0.24316 0.0
C3358 C 0.7595 0.75037 0.23484 0.0
C3359 C 0.71242 0.76409 0.25306 0.0
C3360 C 0.73017 0.75397 0.25026 0.0
C3361 C 0.78257 0.72605 0.24354 0.0
C3362 C 0.76436 0.73536 0.24571 0.0
H3363 H 0.66765 0.75598 0.26529 0.0
H3364 H 0.69614 0.73925 0.2581 0.0
H3365 H 0.73915 0.77095 0.22837 0.0
H3366 H 0.82783 0.73687 0.23569 0.0
H3367 H 0.79809 0.75184 0.2418 0.0
C3368 C 0.48124 0.5685 0.99127 0.0
C3369 C 0.46188 0.5692 0.98923 0.0
C3370 C 0.49007 0.55169 0.99488 0.0
C3371 C 0.48273 0.50399 0.01073 0.0
H3372 H 0.52614 0.49304 0.98233 0.0
C3373 C 0.51552 0.43143 0.01033 0.0
C3374 C 0.53496 0.43049 0.01129 0.0
C3375 C 0.5067 0.44829 0.00696 0.0
C3376 C 0.51417 0.49597 0.99049 0.0
H3377 H 0.43636 0.55331 0.98991 0.0
H3378 H 0.45181 0.52366 0.99642 0.0
H3379 H 0.51031 0.52283 0.97902 0.0
H3380 H 0.5606 0.44599 0.00898 0.0
H3381 H 0.54517 0.4758 0.00317 0.0
H3382 H 0.48662 0.4772 0.02229 0.0
C3383 C 0.46016 0.53614 0.9953 0.0
C3384 C 0.50511 0.51302 0.98861 0.0
C3385 C 0.45131 0.55303 0.99163 0.0
C3386 C 0.54557 0.44648 0.00815 0.0
C3387 C 0.53672 0.46346 0.00484 0.0
C3388 C 0.49182 0.48697 0.01266 0.0
C3389 C 0.47967 0.53526 0.99652 0.0
C3390 C 0.4893 0.5172 0.99871 0.0
C3391 C 0.51717 0.46459 0.0046 0.0
C3392 C 0.50761 0.48274 0.00252 0.0
H3393 H 0.4896 0.5809 0.98953 0.0
H3394 H 0.50508 0.5515 0.99609 0.0
H3395 H 0.47071 0.50693 0.01882 0.0
H3396 H 0.50712 0.41915 0.01258 0.0
H3397 H 0.49165 0.4486 0.00644 0.0
C3398 C 0.95563 0.54901 0.52542 0.0
C3399 C 0.95728 0.56412 0.51393 0.0
C3400 C 0.96499 0.53241 0.52195 0.0
C3401 C 0.99014 0.50609 0.48771 0.0
H3402 H 0.01701 0.48555 0.52732 0.0
C3403 C 0.04405 0.44846 0.47812 0.0
C3404 C 0.04228 0.43316 0.48936 0.0
C3405 C 0.0348 0.46505 0.48184 0.0
C3406 C 0.00949 0.49104 0.51617 0.0
H3407 H 0.96887 0.57369 0.48941 0.0
H3408 H 0.9853 0.54463 0.48322 0.0
H3409 H 0.99675 0.51238 0.53154 0.0
H3410 H 0.03064 0.42323 0.51373 0.0
H3411 H 0.01439 0.45231 0.52037 0.0
H3412 H 0.00289 0.48477 0.47233 0.0
C3413 C 0.97676 0.54549 0.49487 0.0
C3414 C 0.99781 0.50635 0.51858 0.0
C3415 C 0.96736 0.56209 0.49836 0.0
C3416 C 0.03224 0.43499 0.50498 0.0
C3417 C 0.02294 0.45159 0.50872 0.0
C3418 C 0.00182 0.4908 0.48529 0.0
C3419 C 0.97614 0.53069 0.50691 0.0
C3420 C 0.98801 0.51403 0.50438 0.0
C3421 C 0.02361 0.46656 0.49687 0.0
C3422 C 0.01166 0.48314 0.49948 0.0
H3423 H 0.9478 0.55036 0.53747 0.0
H3424 H 0.96392 0.52112 0.53128 0.0
H3425 H 0.98261 0.51156 0.47655 0.0
H3426 H 0.05182 0.44725 0.46602 0.0
H3427 H 0.0359 0.47648 0.47266 0.0
C3428 C 0.02878 0.56309 0.99774 0.0
C3429 C 0.04063 0.56365 0.01229 0.0
C3430 C 0.0184 0.54709 0.99422 0.0
C3431 C 0.99853 0.50708 0.01745 0.0
H3432 H 0.98857 0.48833 0.97081 0.0
C3433 C 0.96314 0.43653 0.00339 0.0
C3434 C 0.95185 0.43526 0.98849 0.0
C3435 C 0.97239 0.45312 0.0072 0.0
C3436 C 0.99097 0.4936 0.9839 0.0
H3437 H 0.05204 0.54798 0.03393 0.0
H3438 H 0.03417 0.51979 0.02765 0.0
H3439 H 0.00965 0.51456 0.9746 0.0
H3440 H 0.94004 0.45027 0.96663 0.0
H3441 H 0.95588 0.47952 0.97344 0.0
H3442 H 0.9799 0.48606 0.02676 0.0
C3443 C 0.03255 0.53175 0.01915 0.0
C3444 C 0.00313 0.50855 0.98606 0.0
C3445 C 0.04291 0.54773 0.02264 0.0
C3446 C 0.94876 0.45107 0.97818 0.0
C3447 C 0.95797 0.46767 0.98198 0.0
C3448 C 0.98636 0.49212 0.01529 0.0
C3449 C 0.01976 0.53147 0.00523 0.0
C3450 C 0.00711 0.51539 0.00286 0.0
C3451 C 0.97042 0.46866 0.99614 0.0
C3452 C 0.98248 0.48519 0.99849 0.0
H3453 H 0.02675 0.57535 0.98971 0.0
H3454 H 0.00861 0.54733 0.98345 0.0
H3455 H 0.00103 0.51229 0.03055 0.0
H3456 H 0.96576 0.42437 0.01139 0.0
H3457 H 0.98194 0.45341 0.01815 0.0
C3458 C 0.48155 0.42987 0.5057 0.0
C3459 C 0.46237 0.43005 0.50898 0.0
C3460 C 0.49091 0.44633 0.50189 0.0
C3461 C 0.48464 0.49521 0.48853 0.0
H3462 H 0.53075 0.50255 0.51406 0.0
C3463 C 0.52015 0.56633 0.49096 0.0
C3464 C 0.53937 0.56663 0.48794 0.0
C3465 C 0.51107 0.54958 0.49419 0.0
C3466 C 0.51801 0.50063 0.50671 0.0
H3467 H 0.43766 0.4471 0.51025 0.0
H3468 H 0.45403 0.47617 0.50354 0.0
H3469 H 0.51393 0.47326 0.51696 0.0
H3470 H 0.56443 0.5501 0.48646 0.0
H3471 H 0.54853 0.5205 0.49217 0.0
H3472 H 0.48869 0.5226 0.47834 0.0
C3473 C 0.46183 0.46329 0.50377 0.0
C3474 C 0.50838 0.48385 0.50833 0.0
C3475 C 0.45245 0.44673 0.50757 0.0
C3476 C 0.5496 0.55009 0.48896 0.0
C3477 C 0.54049 0.53324 0.49218 0.0
C3478 C 0.49426 0.51198 0.48692 0.0
C3479 C 0.48125 0.4633 0.50136 0.0
C3480 C 0.49159 0.48098 0.49927 0.0
C3481 C 0.52105 0.53279 0.49437 0.0
C3482 C 0.511 0.5149 0.49606 0.0
H3483 H 0.48941 0.41705 0.50673 0.0
H3484 H 0.5058 0.44584 0.49974 0.0
H3485 H 0.47186 0.49332 0.48123 0.0
H3486 H 0.51206 0.57903 0.49023 0.0
H3487 H 0.49616 0.54974 0.4962 0.0
loop_
_geom_bond_atom_site_label_1
_geom_bond_atom_site_label_2
_geom_bond_distance
_geom_bond_site_symmetry_2
_ccdc_geom_bond_type
Co0 O3 1.970 . S
Co0 N17 1.989 . S
Co0 O25 1.967 . S
Co0 O32 1.920 . S
Co1 O4 1.966 . S
Co1 N10 2.022 . S
Co1 N18 1.993 . S
Co1 O26 1.941 . S
C2 O3 1.258 . S
C2 O4 1.263 . S
O3 Co0 1.970 . S
O3 C2 1.258 . S
O4 Co1 1.966 . S
O4 C2 1.263 . S
C5 O6 1.235 . S
C5 O32 1.289 . S
O6 C5 1.235 . S
C7 C9 1.400 . S
C7 N10 1.351 . S
C7 C12 1.501 . S
C8 C9 1.387 . S
C8 N11 1.341 . S
C9 C7 1.400 . S
C9 C8 1.387 . S
N10 Co1 2.022 . S
N10 C7 1.351 . S
N10 N11 1.365 . S
N11 C8 1.341 . S
N11 N10 1.365 . S
N11 H31 0.862 . S
C12 C7 1.501 . S
C12 H13 0.961 . S
C12 H14 0.961 . S
C12 H15 0.960 . S
H13 C12 0.961 . S
H14 C12 0.961 . S
H15 C12 0.960 . S
C16 N17 1.342 . S
C16 C20 1.401 . S
C16 C21 1.499 . S
N17 Co0 1.989 . S
N17 C16 1.342 . S
N17 N18 1.388 . S
N18 Co1 1.993 . S
N18 N17 1.388 . S
N18 C19 1.346 . S
C19 N18 1.346 . S
C19 C20 1.396 . S
C19 C29 1.510 . S
C20 C16 1.401 . S
C20 C19 1.396 . S
C21 C16 1.499 . S
C21 H22 0.959 . S
C21 H23 0.960 . S
C21 H24 0.961 . S
H22 C21 0.959 . S
H23 C21 0.960 . S
H24 C21 0.961 . S
O25 Co0 1.967 . S
O25 C33 1.258 . S
O26 Co1 1.941 . S
O26 C33 1.266 . S
H27 C29 0.959 . S
H28 C29 0.961 . S
C29 C19 1.510 . S
C29 H27 0.959 . S
C29 H28 0.961 . S
C29 H30 0.960 . S
H30 C29 0.960 . S
H31 N11 0.862 . S
O32 Co0 1.920 . S
O32 C5 1.289 . S
C33 O25 1.258 . S
C33 O26 1.266 . S
Co34 O37 1.970 . S
Co34 N51 1.989 . S
Co34 O59 1.967 . S
Co34 O66 1.920 . S
Co35 O38 1.966 . S
Co35 N44 2.022 . S
Co35 N52 1.993 . S
Co35 O60 1.941 . S
C36 O37 1.258 . S
C36 O38 1.263 . S
O37 Co34 1.970 . S
O37 C36 1.258 . S
O38 Co35 1.966 . S
O38 C36 1.263 . S
C39 O40 1.235 1_455 S
C39 O66 1.289 . S
O40 C39 1.235 1_655 S
C41 C43 1.400 . S
C41 N44 1.351 . S
C41 C46 1.501 . S
C42 C43 1.387 . S
C42 N45 1.341 . S
C43 C41 1.400 . S
C43 C42 1.387 . S
N44 Co35 2.022 . S
N44 C41 1.351 . S
N44 N45 1.365 . S
N45 C42 1.341 . S
N45 N44 1.365 . S
N45 H65 0.862 . S
C46 C41 1.501 . S
C46 H47 0.961 . S
C46 H48 0.961 . S
C46 H49 0.960 . S
H47 C46 0.961 . S
H48 C46 0.961 . S
H49 C46 0.960 . S
C50 N51 1.342 . S
C50 C54 1.401 . S
C50 C55 1.499 . S
N51 Co34 1.989 . S
N51 C50 1.342 . S
N51 N52 1.388 . S
N52 Co35 1.993 . S
N52 N51 1.388 . S
N52 C53 1.346 . S
C53 N52 1.346 . S
C53 C54 1.396 . S
C53 C63 1.510 . S
C54 C50 1.401 . S
C54 C53 1.396 . S
C55 C50 1.499 . S
C55 H56 0.959 . S
C55 H57 0.960 . S
C55 H58 0.961 . S
H56 C55 0.959 . S
H57 C55 0.960 . S
H58 C55 0.961 . S
O59 Co34 1.967 . S
O59 C67 1.258 . S
O60 Co35 1.941 . S
O60 C67 1.266 . S
H61 C63 0.959 . S
H62 C63 0.961 . S
C63 C53 1.510 . S
C63 H61 0.959 . S
C63 H62 0.961 . S
C63 H64 0.960 . S
H64 C63 0.960 . S
H65 N45 0.862 . S
O66 Co34 1.920 . S
O66 C39 1.289 . S
C67 O59 1.258 . S
C67 O60 1.266 . S
Co68 O71 1.970 . S
Co68 N85 1.989 . S
Co68 O93 1.967 . S
Co68 O100 1.920 . S
Co69 O72 1.966 . S
Co69 N78 2.022 . S
Co69 N86 1.993 . S
Co69 O94 1.941 . S
C70 O71 1.258 . S
C70 O72 1.263 . S
O71 Co68 1.970 . S
O71 C70 1.258 . S
O72 Co69 1.966 . S
O72 C70 1.263 . S
C73 O74 1.235 . S
C73 O100 1.289 . S
O74 C73 1.235 . S
C75 C77 1.400 . S
C75 N78 1.351 . S
C75 C80 1.501 . S
C76 C77 1.387 . S
C76 N79 1.341 . S
C77 C75 1.400 . S
C77 C76 1.387 . S
N78 Co69 2.022 . S
N78 C75 1.351 . S
N78 N79 1.365 . S
N79 C76 1.341 . S
N79 N78 1.365 . S
N79 H99 0.862 . S
C80 C75 1.501 . S
C80 H81 0.961 . S
C80 H82 0.961 . S
C80 H83 0.960 . S
H81 C80 0.961 . S
H82 C80 0.961 . S
H83 C80 0.960 . S
C84 N85 1.342 . S
C84 C88 1.401 . S
C84 C89 1.499 . S
N85 Co68 1.989 . S
N85 C84 1.342 . S
N85 N86 1.388 . S
N86 Co69 1.993 . S
N86 N85 1.388 . S
N86 C87 1.346 . S
C87 N86 1.346 . S
C87 C88 1.396 . S
C87 C97 1.510 . S
C88 C84 1.401 . S
C88 C87 1.396 . S
C89 C84 1.499 . S
C89 H90 0.959 . S
C89 H91 0.960 . S
C89 H92 0.961 . S
H90 C89 0.959 . S
H91 C89 0.960 . S
H92 C89 0.961 . S
O93 Co68 1.967 . S
O93 C101 1.258 . S
O94 Co69 1.941 . S
O94 C101 1.266 . S
H95 C97 0.959 . S
H96 C97 0.961 . S
C97 C87 1.510 . S
C97 H95 0.959 . S
C97 H96 0.961 . S
C97 H98 0.960 . S
H98 C97 0.960 . S
H99 N79 0.862 . S
O100 Co68 1.920 . S
O100 C73 1.289 . S
C101 O93 1.258 . S
C101 O94 1.266 . S
Co102 O105 1.970 . S
Co102 N119 1.989 . S
Co102 O127 1.967 . S
Co102 O134 1.920 . S
Co103 O106 1.966 . S
Co103 N112 2.022 1_554 S
Co103 N120 1.993 . S
Co103 O128 1.941 . S
C104 O105 1.258 . S
C104 O106 1.263 . S
O105 Co102 1.970 . S
O105 C104 1.258 . S
O106 Co103 1.966 . S
O106 C104 1.263 . S
C107 O108 1.235 . S
C107 O134 1.289 . S
O108 C107 1.235 . S
C109 C111 1.400 . S
C109 N112 1.351 . S
C109 C114 1.501 . S
C110 C111 1.387 . S
C110 N113 1.341 . S
C111 C109 1.400 . S
C111 C110 1.387 . S
N112 Co103 2.022 1_556 S
N112 C109 1.351 . S
N112 N113 1.365 . S
N113 C110 1.341 . S
N113 N112 1.365 . S
N113 H133 0.862 1_556 S
C114 C109 1.501 . S
C114 H115 0.961 . S
C114 H116 0.961 . S
C114 H117 0.960 . S
H115 C114 0.961 . S
H116 C114 0.961 . S
H117 C114 0.960 . S
C118 N119 1.342 . S
C118 C122 1.401 . S
C118 C123 1.499 . S
N119 Co102 1.989 . S
N119 C118 1.342 . S
N119 N120 1.388 . S
N120 Co103 1.993 . S
N120 N119 1.388 . S
N120 C121 1.346 . S
C121 N120 1.346 . S
C121 C122 1.396 . S
C121 C131 1.510 1_554 S
C122 C118 1.401 . S
C122 C121 1.396 . S
C123 C118 1.499 . S
C123 H124 0.959 . S
C123 H125 0.960 . S
C123 H126 0.961 . S
H124 C123 0.959 . S
H125 C123 0.960 . S
H126 C123 0.961 . S
O127 Co102 1.967 . S
O127 C135 1.258 . S
O128 Co103 1.941 . S
O128 C135 1.266 . S
H129 C131 0.959 . S
H130 C131 0.961 . S
C131 C121 1.510 1_556 S
C131 H129 0.959 . S
C131 H130 0.961 . S
C131 H132 0.960 . S
H132 C131 0.960 . S
H133 N113 0.862 1_554 S
O134 Co102 1.920 . S
O134 C107 1.289 . S
C135 O127 1.258 . S
C135 O128 1.266 . S
Co136 O139 1.970 . S
Co136 N153 1.989 . S
Co136 O161 1.967 . S
Co136 O168 1.920 . S
Co137 O140 1.966 . S
Co137 N146 2.022 . S
Co137 N154 1.993 . S
Co137 O162 1.941 . S
C138 O139 1.258 . S
C138 O140 1.263 . S
O139 Co136 1.970 . S
O139 C138 1.258 . S
O140 Co137 1.966 . S
O140 C138 1.263 . S
C141 O142 1.235 . S
C141 O168 1.289 . S
O142 C141 1.235 . S
C143 C145 1.400 . S
C143 N146 1.351 . S
C143 C148 1.501 . S
C144 C145 1.387 . S
C144 N147 1.341 . S
C145 C143 1.400 . S
C145 C144 1.387 . S
N146 Co137 2.022 . S
N146 C143 1.351 . S
N146 N147 1.365 . S
N147 C144 1.341 . S
N147 N146 1.365 . S
N147 H167 0.862 . S
C148 C143 1.501 . S
C148 H149 0.961 . S
C148 H150 0.961 . S
C148 H151 0.960 . S
H149 C148 0.961 . S
H150 C148 0.961 . S
H151 C148 0.960 . S
C152 N153 1.342 . S
C152 C156 1.401 . S
C152 C157 1.499 . S
N153 Co136 1.989 . S
N153 C152 1.342 . S
N153 N154 1.388 . S
N154 Co137 1.993 . S
N154 N153 1.388 . S
N154 C155 1.346 . S
C155 N154 1.346 . S
C155 C156 1.396 . S
C155 C165 1.510 . S
C156 C152 1.401 . S
C156 C155 1.396 . S
C157 C152 1.499 . S
C157 H158 0.959 . S
C157 H159 0.960 . S
C157 H160 0.961 . S
H158 C157 0.959 . S
H159 C157 0.960 . S
H160 C157 0.961 . S
O161 Co136 1.967 . S
O161 C169 1.258 . S
O162 Co137 1.941 . S
O162 C169 1.266 . S
H163 C165 0.959 . S
H164 C165 0.961 . S
C165 C155 1.510 . S
C165 H163 0.959 . S
C165 H164 0.961 . S
C165 H166 0.960 . S
H166 C165 0.960 . S
H167 N147 0.862 . S
O168 Co136 1.920 . S
O168 C141 1.289 . S
C169 O161 1.258 . S
C169 O162 1.266 . S
Co170 O173 1.970 . S
Co170 N187 1.989 . S
Co170 O195 1.967 . S
Co170 O202 1.920 . S
Co171 O174 1.966 . S
Co171 N180 2.022 . S
Co171 N188 1.993 . S
Co171 O196 1.941 . S
C172 O173 1.258 . S
C172 O174 1.263 . S
O173 Co170 1.970 . S
O173 C172 1.258 . S
O174 Co171 1.966 . S
O174 C172 1.263 . S
C175 O176 1.235 . S
C175 O202 1.289 . S
O176 C175 1.235 . S
C177 C179 1.400 . S
C177 N180 1.351 . S
C177 C182 1.501 . S
C178 C179 1.387 . S
C178 N181 1.341 . S
C179 C177 1.400 . S
C179 C178 1.387 . S
N180 Co171 2.022 . S
N180 C177 1.351 . S
N180 N181 1.365 . S
N181 C178 1.341 . S
N181 N180 1.365 . S
N181 H201 0.862 . S
C182 C177 1.501 . S
C182 H183 0.961 . S
C182 H184 0.961 . S
C182 H185 0.960 . S
H183 C182 0.961 . S
H184 C182 0.961 . S
H185 C182 0.960 . S
C186 N187 1.342 . S
C186 C190 1.401 . S
C186 C191 1.499 . S
N187 Co170 1.989 . S
N187 C186 1.342 . S
N187 N188 1.388 . S
N188 Co171 1.993 . S
N188 N187 1.388 . S
N188 C189 1.346 . S
C189 N188 1.346 . S
C189 C190 1.396 . S
C189 C199 1.510 . S
C190 C186 1.401 . S
C190 C189 1.396 . S
C191 C186 1.499 . S
C191 H192 0.959 . S
C191 H193 0.960 . S
C191 H194 0.961 . S
H192 C191 0.959 . S
H193 C191 0.960 . S
H194 C191 0.961 . S
O195 Co170 1.967 . S
O195 C203 1.258 . S
O196 Co171 1.941 . S
O196 C203 1.266 . S
H197 C199 0.959 . S
H198 C199 0.961 . S
C199 C189 1.510 . S
C199 H197 0.959 . S
C199 H198 0.961 . S
C199 H200 0.960 . S
H200 C199 0.960 . S
H201 N181 0.862 . S
O202 Co170 1.920 . S
O202 C175 1.289 . S
C203 O195 1.258 . S
C203 O196 1.266 . S
Co204 O207 1.970 . S
Co204 N221 1.989 . S
Co204 O229 1.967 . S
Co204 O236 1.920 . S
Co205 O208 1.966 . S
Co205 N214 2.022 . S
Co205 N222 1.993 . S
Co205 O230 1.941 . S
C206 O207 1.258 . S
C206 O208 1.263 . S
O207 Co204 1.970 . S
O207 C206 1.258 . S
O208 Co205 1.966 . S
O208 C206 1.263 . S
C209 O210 1.235 . S
C209 O236 1.289 . S
O210 C209 1.235 . S
C211 C213 1.400 . S
C211 N214 1.351 . S
C211 C216 1.501 . S
C212 C213 1.387 . S
C212 N215 1.341 . S
C213 C211 1.400 . S
C213 C212 1.387 . S
N214 Co205 2.022 . S
N214 C211 1.351 . S
N214 N215 1.365 . S
N215 C212 1.341 . S
N215 N214 1.365 . S
N215 H235 0.862 . S
C216 C211 1.501 . S
C216 H217 0.961 . S
C216 H218 0.961 . S
C216 H219 0.960 . S
H217 C216 0.961 . S
H218 C216 0.961 . S
H219 C216 0.960 . S
C220 N221 1.342 . S
C220 C224 1.401 . S
C220 C225 1.499 . S
N221 Co204 1.989 . S
N221 C220 1.342 . S
N221 N222 1.388 . S
N222 Co205 1.993 . S
N222 N221 1.388 . S
N222 C223 1.346 . S
C223 N222 1.346 . S
C223 C224 1.396 . S
C223 C233 1.510 . S
C224 C220 1.401 . S
C224 C223 1.396 . S
C225 C220 1.499 . S
C225 H226 0.959 . S
C225 H227 0.960 . S
C225 H228 0.961 . S
H226 C225 0.959 . S
H227 C225 0.960 . S
H228 C225 0.961 . S
O229 Co204 1.967 . S
O229 C237 1.258 . S
O230 Co205 1.941 . S
O230 C237 1.266 . S
H231 C233 0.959 . S
H232 C233 0.961 . S
C233 C223 1.510 . S
C233 H231 0.959 . S
C233 H232 0.961 . S
C233 H234 0.960 . S
H234 C233 0.960 . S
H235 N215 0.862 . S
O236 Co204 1.920 . S
O236 C209 1.289 . S
C237 O229 1.258 . S
C237 O230 1.266 . S
Co238 O241 1.970 . S
Co238 N255 1.989 . S
Co238 O263 1.967 . S
Co238 O270 1.920 . S
Co239 O242 1.966 . S
Co239 N248 2.022 1_556 S
Co239 N256 1.993 . S
Co239 O264 1.941 . S
C240 O241 1.258 . S
C240 O242 1.263 . S
O241 Co238 1.970 . S
O241 C240 1.258 . S
O242 Co239 1.966 . S
O242 C240 1.263 . S
C243 O244 1.235 1_455 S
C243 O270 1.289 . S
O244 C243 1.235 1_655 S
C245 C247 1.400 . S
C245 N248 1.351 . S
C245 C250 1.501 . S
C246 C247 1.387 . S
C246 N249 1.341 . S
C247 C245 1.400 . S
C247 C246 1.387 . S
N248 Co239 2.022 1_554 S
N248 C245 1.351 . S
N248 N249 1.365 . S
N249 C246 1.341 . S
N249 N248 1.365 . S
N249 H269 0.862 1_554 S
C250 C245 1.501 . S
C250 H251 0.961 . S
C250 H252 0.961 . S
C250 H253 0.960 . S
H251 C250 0.961 . S
H252 C250 0.961 . S
H253 C250 0.960 . S
C254 N255 1.342 . S
C254 C258 1.401 . S
C254 C259 1.499 . S
N255 Co238 1.989 . S
N255 C254 1.342 . S
N255 N256 1.388 . S
N256 Co239 1.993 . S
N256 N255 1.388 . S
N256 C257 1.346 . S
C257 N256 1.346 . S
C257 C258 1.396 . S
C257 C267 1.510 1_556 S
C258 C254 1.401 . S
C258 C257 1.396 . S
C259 C254 1.499 . S
C259 H260 0.959 . S
C259 H261 0.960 . S
C259 H262 0.961 . S
H260 C259 0.959 . S
H261 C259 0.960 . S
H262 C259 0.961 . S
O263 Co238 1.967 . S
O263 C271 1.258 . S
O264 Co239 1.941 . S
O264 C271 1.266 . S
H265 C267 0.959 . S
H266 C267 0.961 . S
C267 C257 1.510 1_554 S
C267 H265 0.959 . S
C267 H266 0.961 . S
C267 H268 0.960 . S
H268 C267 0.960 . S
H269 N249 0.862 1_556 S
O270 Co238 1.920 . S
O270 C243 1.289 . S
C271 O263 1.258 . S
C271 O264 1.266 . S
Co272 O275 1.970 . S
Co272 N289 1.989 . S
Co272 O297 1.967 . S
Co272 O304 1.920 . S
Co273 O276 1.966 . S
Co273 N282 2.022 . S
Co273 N290 1.993 . S
Co273 O298 1.941 . S
C274 O275 1.258 . S
C274 O276 1.263 . S
O275 Co272 1.970 . S
O275 C274 1.258 . S
O276 Co273 1.966 . S
O276 C274 1.263 . S
C277 O278 1.235 . S
C277 O304 1.289 . S
O278 C277 1.235 . S
C279 C281 1.400 . S
C279 N282 1.351 . S
C279 C284 1.501 . S
C280 C281 1.387 . S
C280 N283 1.341 . S
C281 C279 1.400 . S
C281 C280 1.387 . S
N282 Co273 2.022 . S
N282 C279 1.351 . S
N282 N283 1.365 . S
N283 C280 1.341 . S
N283 N282 1.365 . S
N283 H303 0.862 . S
C284 C279 1.501 . S
C284 H285 0.961 . S
C284 H286 0.961 . S
C284 H287 0.960 . S
H285 C284 0.961 . S
H286 C284 0.961 . S
H287 C284 0.960 . S
C288 N289 1.342 . S
C288 C292 1.401 . S
C288 C293 1.499 . S
N289 Co272 1.989 . S
N289 C288 1.342 . S
N289 N290 1.388 . S
N290 Co273 1.993 . S
N290 N289 1.388 . S
N290 C291 1.346 . S
C291 N290 1.346 . S
C291 C292 1.396 . S
C291 C301 1.510 . S
C292 C288 1.401 . S
C292 C291 1.396 . S
C293 C288 1.499 . S
C293 H294 0.959 . S
C293 H295 0.960 . S
C293 H296 0.961 . S
H294 C293 0.959 . S
H295 C293 0.960 . S
H296 C293 0.961 . S
O297 Co272 1.967 . S
O297 C305 1.258 . S
O298 Co273 1.941 . S
O298 C305 1.266 . S
H299 C301 0.959 . S
H300 C301 0.961 . S
C301 C291 1.510 . S
C301 H299 0.959 . S
C301 H300 0.961 . S
C301 H302 0.960 . S
H302 C301 0.960 . S
H303 N283 0.862 . S
O304 Co272 1.920 . S
O304 C277 1.289 . S
C305 O297 1.258 . S
C305 O298 1.266 . S
Co306 O309 1.970 . S
Co306 N323 1.989 . S
Co306 O331 1.967 . S
Co306 O338 1.920 . S
Co307 O310 1.966 . S
Co307 N316 2.022 . S
Co307 N324 1.993 . S
Co307 O332 1.941 . S
C308 O309 1.258 . S
C308 O310 1.263 . S
O309 Co306 1.970 . S
O309 C308 1.258 . S
O310 Co307 1.966 . S
O310 C308 1.263 . S
C311 O312 1.235 1_655 S
C311 O338 1.289 . S
O312 C311 1.235 1_455 S
C313 C315 1.400 . S
C313 N316 1.351 . S
C313 C318 1.501 . S
C314 C315 1.387 . S
C314 N317 1.341 . S
C315 C313 1.400 . S
C315 C314 1.387 . S
N316 Co307 2.022 . S
N316 C313 1.351 . S
N316 N317 1.365 . S
N317 C314 1.341 . S
N317 N316 1.365 . S
N317 H337 0.862 . S
C318 C313 1.501 . S
C318 H319 0.961 . S
C318 H320 0.961 . S
C318 H321 0.960 . S
H319 C318 0.961 . S
H320 C318 0.961 . S
H321 C318 0.960 . S
C322 N323 1.342 . S
C322 C326 1.401 . S
C322 C327 1.499 . S
N323 Co306 1.989 . S
N323 C322 1.342 . S
N323 N324 1.388 . S
N324 Co307 1.993 . S
N324 N323 1.388 . S
N324 C325 1.346 . S
C325 N324 1.346 . S
C325 C326 1.396 . S
C325 C335 1.510 . S
C326 C322 1.401 . S
C326 C325 1.396 . S
C327 C322 1.499 . S
C327 H328 0.959 . S
C327 H329 0.960 . S
C327 H330 0.961 . S
H328 C327 0.959 . S
H329 C327 0.960 . S
H330 C327 0.961 . S
O331 Co306 1.967 . S
O331 C339 1.258 . S
O332 Co307 1.941 . S
O332 C339 1.266 . S
H333 C335 0.959 . S
H334 C335 0.961 . S
C335 C325 1.510 . S
C335 H333 0.959 . S
C335 H334 0.961 . S
C335 H336 0.960 . S
H336 C335 0.960 . S
H337 N317 0.862 . S
O338 Co306 1.920 . S
O338 C311 1.289 . S
C339 O331 1.258 . S
C339 O332 1.266 . S
Co340 O343 1.970 . S
Co340 N357 1.989 . S
Co340 O365 1.967 . S
Co340 O372 1.920 . S
Co341 O344 1.966 . S
Co341 N350 2.022 . S
Co341 N358 1.993 . S
Co341 O366 1.941 . S
C342 O343 1.258 . S
C342 O344 1.263 . S
O343 Co340 1.970 . S
O343 C342 1.258 . S
O344 Co341 1.966 . S
O344 C342 1.263 . S
C345 O346 1.235 . S
C345 O372 1.289 . S
O346 C345 1.235 . S
C347 C349 1.400 . S
C347 N350 1.351 . S
C347 C352 1.501 . S
C348 C349 1.387 . S
C348 N351 1.341 . S
C349 C347 1.400 . S
C349 C348 1.387 . S
N350 Co341 2.022 . S
N350 C347 1.351 . S
N350 N351 1.365 . S
N351 C348 1.341 . S
N351 N350 1.365 . S
N351 H371 0.862 . S
C352 C347 1.501 . S
C352 H353 0.961 . S
C352 H354 0.961 . S
C352 H355 0.960 . S
H353 C352 0.961 . S
H354 C352 0.961 . S
H355 C352 0.960 . S
C356 N357 1.342 . S
C356 C360 1.401 . S
C356 C361 1.499 . S
N357 Co340 1.989 . S
N357 C356 1.342 . S
N357 N358 1.388 . S
N358 Co341 1.993 . S
N358 N357 1.388 . S
N358 C359 1.346 . S
C359 N358 1.346 . S
C359 C360 1.396 . S
C359 C369 1.510 . S
C360 C356 1.401 . S
C360 C359 1.396 . S
C361 C356 1.499 . S
C361 H362 0.959 . S
C361 H363 0.960 . S
C361 H364 0.961 . S
H362 C361 0.959 . S
H363 C361 0.960 . S
H364 C361 0.961 . S
O365 Co340 1.967 . S
O365 C373 1.258 . S
O366 Co341 1.941 . S
O366 C373 1.266 . S
H367 C369 0.959 . S
H368 C369 0.961 . S
C369 C359 1.510 . S
C369 H367 0.959 . S
C369 H368 0.961 . S
C369 H370 0.960 . S
H370 C369 0.960 . S
H371 N351 0.862 . S
O372 Co340 1.920 . S
O372 C345 1.289 . S
C373 O365 1.258 . S
C373 O366 1.266 . S
Co374 O377 1.970 . S
Co374 N391 1.989 . S
Co374 O399 1.967 . S
Co374 O406 1.920 . S
Co375 O378 1.966 . S
Co375 N384 2.022 1_556 S
Co375 N392 1.993 . S
Co375 O400 1.941 . S
C376 O377 1.258 . S
C376 O378 1.263 . S
O377 Co374 1.970 . S
O377 C376 1.258 . S
O378 Co375 1.966 . S
O378 C376 1.263 . S
C379 O380 1.235 . S
C379 O406 1.289 . S
O380 C379 1.235 . S
C381 C383 1.400 . S
C381 N384 1.351 . S
C381 C386 1.501 . S
C382 C383 1.387 . S
C382 N385 1.341 . S
C383 C381 1.400 . S
C383 C382 1.387 . S
N384 Co375 2.022 1_554 S
N384 C381 1.351 . S
N384 N385 1.365 . S
N385 C382 1.341 . S
N385 N384 1.365 . S
N385 H405 0.862 1_554 S
C386 C381 1.501 . S
C386 H387 0.961 . S
C386 H388 0.961 . S
C386 H389 0.960 . S
H387 C386 0.961 . S
H388 C386 0.961 . S
H389 C386 0.960 . S
C390 N391 1.342 . S
C390 C394 1.401 . S
C390 C395 1.499 . S
N391 Co374 1.989 . S
N391 C390 1.342 . S
N391 N392 1.388 . S
N392 Co375 1.993 . S
N392 N391 1.388 . S
N392 C393 1.346 . S
C393 N392 1.346 . S
C393 C394 1.396 . S
C393 C403 1.510 1_556 S
C394 C390 1.401 . S
C394 C393 1.396 . S
C395 C390 1.499 . S
C395 H396 0.959 . S
C395 H397 0.960 . S
C395 H398 0.961 . S
H396 C395 0.959 . S
H397 C395 0.960 . S
H398 C395 0.961 . S
O399 Co374 1.967 . S
O399 C407 1.258 . S
O400 Co375 1.941 . S
O400 C407 1.266 . S
H401 C403 0.959 . S
H402 C403 0.961 . S
C403 C393 1.510 1_554 S
C403 H401 0.959 . S
C403 H402 0.961 . S
C403 H404 0.960 . S
H404 C403 0.960 . S
H405 N385 0.862 1_556 S
O406 Co374 1.920 . S
O406 C379 1.289 . S
C407 O399 1.258 . S
C407 O400 1.266 . S
Co408 O411 1.970 . S
Co408 N425 1.989 . S
Co408 O433 1.967 . S
Co408 O440 1.920 . S
Co409 O412 1.966 . S
Co409 N418 2.022 . S
Co409 N426 1.993 . S
Co409 O434 1.941 . S
C410 O411 1.258 . S
C410 O412 1.263 . S
O411 Co408 1.970 . S
O411 C410 1.258 . S
O412 Co409 1.966 . S
O412 C410 1.263 . S
C413 O414 1.235 . S
C413 O440 1.289 . S
O414 C413 1.235 . S
C415 C417 1.400 . S
C415 N418 1.351 . S
C415 C420 1.501 . S
C416 C417 1.387 . S
C416 N419 1.341 . S
C417 C415 1.400 . S
C417 C416 1.387 . S
N418 Co409 2.022 . S
N418 C415 1.351 . S
N418 N419 1.365 . S
N419 C416 1.341 . S
N419 N418 1.365 . S
N419 H439 0.862 . S
C420 C415 1.501 . S
C420 H421 0.961 . S
C420 H422 0.961 . S
C420 H423 0.960 . S
H421 C420 0.961 . S
H422 C420 0.961 . S
H423 C420 0.960 . S
C424 N425 1.342 . S
C424 C428 1.401 . S
C424 C429 1.499 . S
N425 Co408 1.989 . S
N425 C424 1.342 . S
N425 N426 1.388 . S
N426 Co409 1.993 . S
N426 N425 1.388 . S
N426 C427 1.346 . S
C427 N426 1.346 . S
C427 C428 1.396 . S
C427 C437 1.510 . S
C428 C424 1.401 . S
C428 C427 1.396 . S
C429 C424 1.499 . S
C429 H430 0.959 . S
C429 H431 0.960 . S
C429 H432 0.961 . S
H430 C429 0.959 . S
H431 C429 0.960 . S
H432 C429 0.961 . S
O433 Co408 1.967 . S
O433 C441 1.258 . S
O434 Co409 1.941 . S
O434 C441 1.266 . S
H435 C437 0.959 . S
H436 C437 0.961 . S
C437 C427 1.510 . S
C437 H435 0.959 . S
C437 H436 0.961 . S
C437 H438 0.960 . S
H438 C437 0.960 . S
H439 N419 0.862 . S
O440 Co408 1.920 . S
O440 C413 1.289 . S
C441 O433 1.258 . S
C441 O434 1.266 . S
Co442 O445 1.970 . S
Co442 N459 1.989 . S
Co442 O467 1.967 . S
Co442 O474 1.920 . S
Co443 O446 1.966 . S
Co443 N452 2.022 . S
Co443 N460 1.993 . S
Co443 O468 1.941 . S
C444 O445 1.258 . S
C444 O446 1.263 . S
O445 Co442 1.970 . S
O445 C444 1.258 . S
O446 Co443 1.966 . S
O446 C444 1.263 . S
C447 O448 1.235 . S
C447 O474 1.289 . S
O448 C447 1.235 . S
C449 C451 1.400 . S
C449 N452 1.351 . S
C449 C454 1.501 . S
C450 C451 1.387 . S
C450 N453 1.341 . S
C451 C449 1.400 . S
C451 C450 1.387 . S
N452 Co443 2.022 . S
N452 C449 1.351 . S
N452 N453 1.365 . S
N453 C450 1.341 . S
N453 N452 1.365 . S
N453 H473 0.862 . S
C454 C449 1.501 . S
C454 H455 0.961 . S
C454 H456 0.961 . S
C454 H457 0.960 . S
H455 C454 0.961 . S
H456 C454 0.961 . S
H457 C454 0.960 . S
C458 N459 1.342 . S
C458 C462 1.401 . S
C458 C463 1.499 . S
N459 Co442 1.989 . S
N459 C458 1.342 . S
N459 N460 1.388 . S
N460 Co443 1.993 . S
N460 N459 1.388 . S
N460 C461 1.346 . S
C461 N460 1.346 . S
C461 C462 1.396 . S
C461 C471 1.510 . S
C462 C458 1.401 . S
C462 C461 1.396 . S
C463 C458 1.499 . S
C463 H464 0.959 . S
C463 H465 0.960 . S
C463 H466 0.961 . S
H464 C463 0.959 . S
H465 C463 0.960 . S
H466 C463 0.961 . S
O467 Co442 1.967 . S
O467 C475 1.258 . S
O468 Co443 1.941 . S
O468 C475 1.266 . S
H469 C471 0.959 . S
H470 C471 0.961 . S
C471 C461 1.510 . S
C471 H469 0.959 . S
C471 H470 0.961 . S
C471 H472 0.960 . S
H472 C471 0.960 . S
H473 N453 0.862 . S
O474 Co442 1.920 . S
O474 C447 1.289 . S
C475 O467 1.258 . S
C475 O468 1.266 . S
Co476 O479 1.970 . S
Co476 N493 1.989 . S
Co476 O501 1.967 . S
Co476 O508 1.920 . S
Co477 O480 1.966 . S
Co477 N486 2.022 . S
Co477 N494 1.993 . S
Co477 O502 1.941 . S
C478 O479 1.258 . S
C478 O480 1.263 . S
O479 Co476 1.970 . S
O479 C478 1.258 . S
O480 Co477 1.966 . S
O480 C478 1.263 . S
C481 O482 1.235 . S
C481 O508 1.289 . S
O482 C481 1.235 . S
C483 C485 1.400 . S
C483 N486 1.351 . S
C483 C488 1.501 . S
C484 C485 1.387 . S
C484 N487 1.341 . S
C485 C483 1.400 . S
C485 C484 1.387 . S
N486 Co477 2.022 . S
N486 C483 1.351 . S
N486 N487 1.365 . S
N487 C484 1.341 . S
N487 N486 1.365 . S
N487 H507 0.862 . S
C488 C483 1.501 . S
C488 H489 0.961 . S
C488 H490 0.961 . S
C488 H491 0.960 . S
H489 C488 0.961 . S
H490 C488 0.961 . S
H491 C488 0.960 . S
C492 N493 1.342 . S
C492 C496 1.401 . S
C492 C497 1.499 . S
N493 Co476 1.989 . S
N493 C492 1.342 . S
N493 N494 1.388 . S
N494 Co477 1.993 . S
N494 N493 1.388 . S
N494 C495 1.346 . S
C495 N494 1.346 . S
C495 C496 1.396 . S
C495 C505 1.510 . S
C496 C492 1.401 . S
C496 C495 1.396 . S
C497 C492 1.499 . S
C497 H498 0.959 . S
C497 H499 0.960 . S
C497 H500 0.961 . S
H498 C497 0.959 . S
H499 C497 0.960 . S
H500 C497 0.961 . S
O501 Co476 1.967 . S
O501 C509 1.258 . S
O502 Co477 1.941 . S
O502 C509 1.266 . S
H503 C505 0.959 . S
H504 C505 0.961 . S
C505 C495 1.510 . S
C505 H503 0.959 . S
C505 H504 0.961 . S
C505 H506 0.960 . S
H506 C505 0.960 . S
H507 N487 0.862 . S
O508 Co476 1.920 . S
O508 C481 1.289 . S
C509 O501 1.258 . S
C509 O502 1.266 . S
Co510 O513 1.970 . S
Co510 N527 1.989 . S
Co510 O535 1.967 . S
Co510 O542 1.920 . S
Co511 O514 1.966 . S
Co511 N520 2.022 1_554 S
Co511 N528 1.993 . S
Co511 O536 1.941 . S
C512 O513 1.258 . S
C512 O514 1.263 . S
O513 Co510 1.970 . S
O513 C512 1.258 . S
O514 Co511 1.966 . S
O514 C512 1.263 . S
C515 O516 1.235 1_655 S
C515 O542 1.289 . S
O516 C515 1.235 1_455 S
C517 C519 1.400 . S
C517 N520 1.351 . S
C517 C522 1.501 . S
C518 C519 1.387 . S
C518 N521 1.341 . S
C519 C517 1.400 . S
C519 C518 1.387 . S
N520 Co511 2.022 1_556 S
N520 C517 1.351 . S
N520 N521 1.365 . S
N521 C518 1.341 . S
N521 N520 1.365 . S
N521 H541 0.862 1_556 S
C522 C517 1.501 . S
C522 H523 0.961 . S
C522 H524 0.961 . S
C522 H525 0.960 . S
H523 C522 0.961 . S
H524 C522 0.961 . S
H525 C522 0.960 . S
C526 N527 1.342 . S
C526 C530 1.401 . S
C526 C531 1.499 . S
N527 Co510 1.989 . S
N527 C526 1.342 . S
N527 N528 1.388 . S
N528 Co511 1.993 . S
N528 N527 1.388 . S
N528 C529 1.346 . S
C529 N528 1.346 . S
C529 C530 1.396 . S
C529 C539 1.510 1_554 S
C530 C526 1.401 . S
C530 C529 1.396 . S
C531 C526 1.499 . S
C531 H532 0.959 . S
C531 H533 0.960 . S
C531 H534 0.961 . S
H532 C531 0.959 . S
H533 C531 0.960 . S
H534 C531 0.961 . S
O535 Co510 1.967 . S
O535 C543 1.258 . S
O536 Co511 1.941 . S
O536 C543 1.266 . S
H537 C539 0.959 . S
H538 C539 0.961 . S
C539 C529 1.510 1_556 S
C539 H537 0.959 . S
C539 H538 0.961 . S
C539 H540 0.960 . S
H540 C539 0.960 . S
H541 N521 0.862 1_554 S
O542 Co510 1.920 . S
O542 C515 1.289 . S
C543 O535 1.258 . S
C543 O536 1.266 . S
Co544 O547 1.970 . S
Co544 N561 1.989 . S
Co544 O569 1.967 . S
Co544 O576 1.920 . S
Co545 O548 1.966 . S
Co545 N554 2.022 . S
Co545 N562 1.993 . S
Co545 O570 1.941 . S
C546 O547 1.258 . S
C546 O548 1.263 . S
O547 Co544 1.970 . S
O547 C546 1.258 . S
O548 Co545 1.966 . S
O548 C546 1.263 . S
C549 O550 1.235 . S
C549 O576 1.289 . S
O550 C549 1.235 . S
C551 C553 1.400 . S
C551 N554 1.351 . S
C551 C556 1.501 . S
C552 C553 1.387 . S
C552 N555 1.341 . S
C553 C551 1.400 . S
C553 C552 1.387 . S
N554 Co545 2.022 . S
N554 C551 1.351 . S
N554 N555 1.365 . S
N555 C552 1.341 . S
N555 N554 1.365 . S
N555 H575 0.862 . S
C556 C551 1.501 . S
C556 H557 0.961 . S
C556 H558 0.961 . S
C556 H559 0.960 . S
H557 C556 0.961 . S
H558 C556 0.961 . S
H559 C556 0.960 . S
C560 N561 1.342 . S
C560 C564 1.401 . S
C560 C565 1.499 . S
N561 Co544 1.989 . S
N561 C560 1.342 . S
N561 N562 1.388 . S
N562 Co545 1.993 . S
N562 N561 1.388 . S
N562 C563 1.346 . S
C563 N562 1.346 . S
C563 C564 1.396 . S
C563 C573 1.510 . S
C564 C560 1.401 . S
C564 C563 1.396 . S
C565 C560 1.499 . S
C565 H566 0.959 . S
C565 H567 0.960 . S
C565 H568 0.961 . S
H566 C565 0.959 . S
H567 C565 0.960 . S
H568 C565 0.961 . S
O569 Co544 1.967 . S
O569 C577 1.258 . S
O570 Co545 1.941 . S
O570 C577 1.266 . S
H571 C573 0.959 . S
H572 C573 0.961 . S
C573 C563 1.510 . S
C573 H571 0.959 . S
C573 H572 0.961 . S
C573 H574 0.960 . S
H574 C573 0.960 . S
H575 N555 0.862 . S
O576 Co544 1.920 . S
O576 C549 1.289 . S
C577 O569 1.258 . S
C577 O570 1.266 . S
Co578 O581 1.970 . S
Co578 N595 1.989 . S
Co578 O603 1.967 . S
Co578 O610 1.920 . S
Co579 O582 1.966 . S
Co579 N588 2.022 1_554 S
Co579 N596 1.993 . S
Co579 O604 1.941 . S
C580 O581 1.258 . S
C580 O582 1.263 . S
O581 Co578 1.970 . S
O581 C580 1.258 . S
O582 Co579 1.966 . S
O582 C580 1.263 . S
C583 O584 1.235 . S
C583 O610 1.289 . S
O584 C583 1.235 . S
C585 C587 1.400 . S
C585 N588 1.351 . S
C585 C590 1.501 . S
C586 C587 1.387 . S
C586 N589 1.341 . S
C587 C585 1.400 . S
C587 C586 1.387 . S
N588 Co579 2.022 1_556 S
N588 C585 1.351 . S
N588 N589 1.365 . S
N589 C586 1.341 . S
N589 N588 1.365 . S
N589 H609 0.862 1_556 S
C590 C585 1.501 . S
C590 H591 0.961 . S
C590 H592 0.961 . S
C590 H593 0.960 . S
H591 C590 0.961 . S
H592 C590 0.961 . S
H593 C590 0.960 . S
C594 N595 1.342 . S
C594 C598 1.401 . S
C594 C599 1.499 . S
N595 Co578 1.989 . S
N595 C594 1.342 . S
N595 N596 1.388 . S
N596 Co579 1.993 . S
N596 N595 1.388 . S
N596 C597 1.346 . S
C597 N596 1.346 . S
C597 C598 1.396 . S
C597 C607 1.510 1_554 S
C598 C594 1.401 . S
C598 C597 1.396 . S
C599 C594 1.499 . S
C599 H600 0.959 . S
C599 H601 0.960 . S
C599 H602 0.961 . S
H600 C599 0.959 . S
H601 C599 0.960 . S
H602 C599 0.961 . S
O603 Co578 1.967 . S
O603 C611 1.258 . S
O604 Co579 1.941 . S
O604 C611 1.266 . S
H605 C607 0.959 . S
H606 C607 0.961 . S
C607 C597 1.510 1_556 S
C607 H605 0.959 . S
C607 H606 0.961 . S
C607 H608 0.960 . S
H608 C607 0.960 . S
H609 N589 0.862 1_554 S
O610 Co578 1.920 . S
O610 C583 1.289 . S
C611 O603 1.258 . S
C611 O604 1.266 . S
Co612 O615 1.970 . S
Co612 N629 1.989 . S
Co612 O637 1.967 . S
Co612 O644 1.920 . S
Co613 O616 1.966 . S
Co613 N622 2.022 . S
Co613 N630 1.993 . S
Co613 O638 1.941 . S
C614 O615 1.258 . S
C614 O616 1.263 . S
O615 Co612 1.970 . S
O615 C614 1.258 . S
O616 Co613 1.966 . S
O616 C614 1.263 . S
C617 O618 1.235 . S
C617 O644 1.289 . S
O618 C617 1.235 . S
C619 C621 1.400 . S
C619 N622 1.351 . S
C619 C624 1.501 . S
C620 C621 1.387 . S
C620 N623 1.341 . S
C621 C619 1.400 . S
C621 C620 1.387 . S
N622 Co613 2.022 . S
N622 C619 1.351 . S
N622 N623 1.365 . S
N623 C620 1.341 . S
N623 N622 1.365 . S
N623 H643 0.862 . S
C624 C619 1.501 . S
C624 H625 0.961 . S
C624 H626 0.961 . S
C624 H627 0.960 . S
H625 C624 0.961 . S
H626 C624 0.961 . S
H627 C624 0.960 . S
C628 N629 1.342 . S
C628 C632 1.401 . S
C628 C633 1.499 . S
N629 Co612 1.989 . S
N629 C628 1.342 . S
N629 N630 1.388 . S
N630 Co613 1.993 . S
N630 N629 1.388 . S
N630 C631 1.346 . S
C631 N630 1.346 . S
C631 C632 1.396 . S
C631 C641 1.510 . S
C632 C628 1.401 . S
C632 C631 1.396 . S
C633 C628 1.499 . S
C633 H634 0.959 . S
C633 H635 0.960 . S
C633 H636 0.961 . S
H634 C633 0.959 . S
H635 C633 0.960 . S
H636 C633 0.961 . S
O637 Co612 1.967 . S
O637 C645 1.258 . S
O638 Co613 1.941 . S
O638 C645 1.266 . S
H639 C641 0.959 . S
H640 C641 0.961 . S
C641 C631 1.510 . S
C641 H639 0.959 . S
C641 H640 0.961 . S
C641 H642 0.960 . S
H642 C641 0.960 . S
H643 N623 0.862 . S
O644 Co612 1.920 . S
O644 C617 1.289 . S
C645 O637 1.258 . S
C645 O638 1.266 . S
Co646 O649 1.970 . S
Co646 N663 1.989 . S
Co646 O671 1.967 . S
Co646 O678 1.920 . S
Co647 O650 1.966 . S
Co647 N656 2.022 . S
Co647 N664 1.993 . S
Co647 O672 1.941 . S
C648 O649 1.258 . S
C648 O650 1.263 . S
O649 Co646 1.970 . S
O649 C648 1.258 . S
O650 Co647 1.966 . S
O650 C648 1.263 . S
C651 O652 1.235 1_655 S
C651 O678 1.289 . S
O652 C651 1.235 1_455 S
C653 C655 1.400 . S
C653 N656 1.351 . S
C653 C658 1.501 . S
C654 C655 1.387 . S
C654 N657 1.341 . S
C655 C653 1.400 . S
C655 C654 1.387 . S
N656 Co647 2.022 . S
N656 C653 1.351 . S
N656 N657 1.365 . S
N657 C654 1.341 . S
N657 N656 1.365 . S
N657 H677 0.862 . S
C658 C653 1.501 . S
C658 H659 0.961 . S
C658 H660 0.961 . S
C658 H661 0.960 . S
H659 C658 0.961 . S
H660 C658 0.961 . S
H661 C658 0.960 . S
C662 N663 1.342 . S
C662 C666 1.401 . S
C662 C667 1.499 . S
N663 Co646 1.989 . S
N663 C662 1.342 . S
N663 N664 1.388 . S
N664 Co647 1.993 . S
N664 N663 1.388 . S
N664 C665 1.346 . S
C665 N664 1.346 . S
C665 C666 1.396 . S
C665 C675 1.510 . S
C666 C662 1.401 . S
C666 C665 1.396 . S
C667 C662 1.499 . S
C667 H668 0.959 . S
C667 H669 0.960 . S
C667 H670 0.961 . S
H668 C667 0.959 . S
H669 C667 0.960 . S
H670 C667 0.961 . S
O671 Co646 1.967 . S
O671 C679 1.258 . S
O672 Co647 1.941 . S
O672 C679 1.266 . S
H673 C675 0.959 . S
H674 C675 0.961 . S
C675 C665 1.510 . S
C675 H673 0.959 . S
C675 H674 0.961 . S
C675 H676 0.960 . S
H676 C675 0.960 . S
H677 N657 0.862 . S
O678 Co646 1.920 . S
O678 C651 1.289 . S
C679 O671 1.258 . S
C679 O672 1.266 . S
Co680 O683 1.970 . S
Co680 N697 1.989 . S
Co680 O705 1.967 . S
Co680 O712 1.920 . S
Co681 O684 1.966 . S
Co681 N690 2.022 . S
Co681 N698 1.993 . S
Co681 O706 1.941 . S
C682 O683 1.258 . S
C682 O684 1.263 . S
O683 Co680 1.970 . S
O683 C682 1.258 . S
O684 Co681 1.966 . S
O684 C682 1.263 . S
C685 O686 1.235 . S
C685 O712 1.289 . S
O686 C685 1.235 . S
C687 C689 1.400 . S
C687 N690 1.351 . S
C687 C692 1.501 . S
C688 C689 1.387 . S
C688 N691 1.341 . S
C689 C687 1.400 . S
C689 C688 1.387 . S
N690 Co681 2.022 . S
N690 C687 1.351 . S
N690 N691 1.365 . S
N691 C688 1.341 . S
N691 N690 1.365 . S
N691 H711 0.862 . S
C692 C687 1.501 . S
C692 H693 0.961 . S
C692 H694 0.961 . S
C692 H695 0.960 . S
H693 C692 0.961 . S
H694 C692 0.961 . S
H695 C692 0.960 . S
C696 N697 1.342 . S
C696 C700 1.401 . S
C696 C701 1.499 . S
N697 Co680 1.989 . S
N697 C696 1.342 . S
N697 N698 1.388 . S
N698 Co681 1.993 . S
N698 N697 1.388 . S
N698 C699 1.346 . S
C699 N698 1.346 . S
C699 C700 1.396 . S
C699 C709 1.510 . S
C700 C696 1.401 . S
C700 C699 1.396 . S
C701 C696 1.499 . S
C701 H702 0.959 . S
C701 H703 0.960 . S
C701 H704 0.961 . S
H702 C701 0.959 . S
H703 C701 0.960 . S
H704 C701 0.961 . S
O705 Co680 1.967 . S
O705 C713 1.258 . S
O706 Co681 1.941 . S
O706 C713 1.266 . S
H707 C709 0.959 . S
H708 C709 0.961 . S
C709 C699 1.510 . S
C709 H707 0.959 . S
C709 H708 0.961 . S
C709 H710 0.960 . S
H710 C709 0.960 . S
H711 N691 0.862 . S
O712 Co680 1.920 . S
O712 C685 1.289 . S
C713 O705 1.258 . S
C713 O706 1.266 . S
Co714 O717 1.970 . S
Co714 N731 1.989 . S
Co714 O739 1.967 . S
Co714 O746 1.920 . S
Co715 O718 1.966 . S
Co715 N724 2.022 1_556 S
Co715 N732 1.993 . S
Co715 O740 1.941 . S
C716 O717 1.258 . S
C716 O718 1.263 . S
O717 Co714 1.970 . S
O717 C716 1.258 . S
O718 Co715 1.966 . S
O718 C716 1.263 . S
C719 O720 1.235 1_655 S
C719 O746 1.289 . S
O720 C719 1.235 1_455 S
C721 C723 1.400 . S
C721 N724 1.351 . S
C721 C726 1.501 . S
C722 C723 1.387 . S
C722 N725 1.341 . S
C723 C721 1.400 . S
C723 C722 1.387 . S
N724 Co715 2.022 1_554 S
N724 C721 1.351 . S
N724 N725 1.365 . S
N725 C722 1.341 . S
N725 N724 1.365 . S
N725 H745 0.862 1_554 S
C726 C721 1.501 . S
C726 H727 0.961 . S
C726 H728 0.961 . S
C726 H729 0.960 . S
H727 C726 0.961 . S
H728 C726 0.961 . S
H729 C726 0.960 . S
C730 N731 1.342 . S
C730 C734 1.401 . S
C730 C735 1.499 . S
N731 Co714 1.989 . S
N731 C730 1.342 . S
N731 N732 1.388 . S
N732 Co715 1.993 . S
N732 N731 1.388 . S
N732 C733 1.346 . S
C733 N732 1.346 . S
C733 C734 1.396 . S
C733 C743 1.510 1_556 S
C734 C730 1.401 . S
C734 C733 1.396 . S
C735 C730 1.499 . S
C735 H736 0.959 . S
C735 H737 0.960 . S
C735 H738 0.961 . S
H736 C735 0.959 . S
H737 C735 0.960 . S
H738 C735 0.961 . S
O739 Co714 1.967 . S
O739 C747 1.258 . S
O740 Co715 1.941 . S
O740 C747 1.266 . S
H741 C743 0.959 . S
H742 C743 0.961 . S
C743 C733 1.510 1_554 S
C743 H741 0.959 . S
C743 H742 0.961 . S
C743 H744 0.960 . S
H744 C743 0.960 . S
H745 N725 0.862 1_556 S
O746 Co714 1.920 . S
O746 C719 1.289 . S
C747 O739 1.258 . S
C747 O740 1.266 . S
Co748 O751 1.970 . S
Co748 N765 1.989 . S
Co748 O773 1.967 . S
Co748 O780 1.920 . S
Co749 O752 1.966 . S
Co749 N758 2.022 . S
Co749 N766 1.993 . S
Co749 O774 1.941 . S
C750 O751 1.258 . S
C750 O752 1.263 . S
O751 Co748 1.970 . S
O751 C750 1.258 . S
O752 Co749 1.966 . S
O752 C750 1.263 . S
C753 O754 1.235 . S
C753 O780 1.289 . S
O754 C753 1.235 . S
C755 C757 1.400 . S
C755 N758 1.351 . S
C755 C760 1.501 . S
C756 C757 1.387 . S
C756 N759 1.341 . S
C757 C755 1.400 . S
C757 C756 1.387 . S
N758 Co749 2.022 . S
N758 C755 1.351 . S
N758 N759 1.365 . S
N759 C756 1.341 . S
N759 N758 1.365 . S
N759 H779 0.862 . S
C760 C755 1.501 . S
C760 H761 0.961 . S
C760 H762 0.961 . S
C760 H763 0.960 . S
H761 C760 0.961 . S
H762 C760 0.961 . S
H763 C760 0.960 . S
C764 N765 1.342 . S
C764 C768 1.401 . S
C764 C769 1.499 . S
N765 Co748 1.989 . S
N765 C764 1.342 . S
N765 N766 1.388 . S
N766 Co749 1.993 . S
N766 N765 1.388 . S
N766 C767 1.346 . S
C767 N766 1.346 . S
C767 C768 1.396 . S
C767 C777 1.510 . S
C768 C764 1.401 . S
C768 C767 1.396 . S
C769 C764 1.499 . S
C769 H770 0.959 . S
C769 H771 0.960 . S
C769 H772 0.961 . S
H770 C769 0.959 . S
H771 C769 0.960 . S
H772 C769 0.961 . S
O773 Co748 1.967 . S
O773 C781 1.258 . S
O774 Co749 1.941 . S
O774 C781 1.266 . S
H775 C777 0.959 . S
H776 C777 0.961 . S
C777 C767 1.510 . S
C777 H775 0.959 . S
C777 H776 0.961 . S
C777 H778 0.960 . S
H778 C777 0.960 . S
H779 N759 0.862 . S
O780 Co748 1.920 . S
O780 C753 1.289 . S
C781 O773 1.258 . S
C781 O774 1.266 . S
Co782 O785 1.970 . S
Co782 N799 1.989 . S
Co782 O807 1.967 . S
Co782 O814 1.920 . S
Co783 O786 1.966 . S
Co783 N792 2.022 . S
Co783 N800 1.993 . S
Co783 O808 1.941 . S
C784 O785 1.258 . S
C784 O786 1.263 . S
O785 Co782 1.970 . S
O785 C784 1.258 . S
O786 Co783 1.966 . S
O786 C784 1.263 . S
C787 O788 1.235 . S
C787 O814 1.289 . S
O788 C787 1.235 . S
C789 C791 1.400 . S
C789 N792 1.351 . S
C789 C794 1.501 . S
C790 C791 1.387 . S
C790 N793 1.341 . S
C791 C789 1.400 . S
C791 C790 1.387 . S
N792 Co783 2.022 . S
N792 C789 1.351 . S
N792 N793 1.365 . S
N793 C790 1.341 . S
N793 N792 1.365 . S
N793 H813 0.862 . S
C794 C789 1.501 . S
C794 H795 0.961 . S
C794 H796 0.961 . S
C794 H797 0.960 . S
H795 C794 0.961 . S
H796 C794 0.961 . S
H797 C794 0.960 . S
C798 N799 1.342 . S
C798 C802 1.401 . S
C798 C803 1.499 . S
N799 Co782 1.989 . S
N799 C798 1.342 . S
N799 N800 1.388 . S
N800 Co783 1.993 . S
N800 N799 1.388 . S
N800 C801 1.346 . S
C801 N800 1.346 . S
C801 C802 1.396 . S
C801 C811 1.510 . S
C802 C798 1.401 . S
C802 C801 1.396 . S
C803 C798 1.499 . S
C803 H804 0.959 . S
C803 H805 0.960 . S
C803 H806 0.961 . S
H804 C803 0.959 . S
H805 C803 0.960 . S
H806 C803 0.961 . S
O807 Co782 1.967 . S
O807 C815 1.258 . S
O808 Co783 1.941 . S
O808 C815 1.266 . S
H809 C811 0.959 . S
H810 C811 0.961 . S
C811 C801 1.510 . S
C811 H809 0.959 . S
C811 H810 0.961 . S
C811 H812 0.960 . S
H812 C811 0.960 . S
H813 N793 0.862 . S
O814 Co782 1.920 . S
O814 C787 1.289 . S
C815 O807 1.258 . S
C815 O808 1.266 . S
Co816 O819 1.970 . S
Co816 N833 1.989 . S
Co816 O841 1.967 . S
Co816 O848 1.920 . S
Co817 O820 1.966 . S
Co817 N826 2.022 . S
Co817 N834 1.993 . S
Co817 O842 1.941 . S
C818 O819 1.258 . S
C818 O820 1.263 . S
O819 Co816 1.970 . S
O819 C818 1.258 . S
O820 Co817 1.966 . S
O820 C818 1.263 . S
C821 O822 1.235 . S
C821 O848 1.289 . S
O822 C821 1.235 . S
C823 C825 1.400 . S
C823 N826 1.351 . S
C823 C828 1.501 . S
C824 C825 1.387 . S
C824 N827 1.341 . S
C825 C823 1.400 . S
C825 C824 1.387 . S
N826 Co817 2.022 . S
N826 C823 1.351 . S
N826 N827 1.365 . S
N827 C824 1.341 . S
N827 N826 1.365 . S
N827 H847 0.862 . S
C828 C823 1.501 . S
C828 H829 0.961 . S
C828 H830 0.961 . S
C828 H831 0.960 . S
H829 C828 0.961 . S
H830 C828 0.961 . S
H831 C828 0.960 . S
C832 N833 1.342 . S
C832 C836 1.401 . S
C832 C837 1.499 . S
N833 Co816 1.989 . S
N833 C832 1.342 . S
N833 N834 1.388 . S
N834 Co817 1.993 . S
N834 N833 1.388 . S
N834 C835 1.346 . S
C835 N834 1.346 . S
C835 C836 1.396 . S
C835 C845 1.510 . S
C836 C832 1.401 . S
C836 C835 1.396 . S
C837 C832 1.499 . S
C837 H838 0.959 . S
C837 H839 0.960 . S
C837 H840 0.961 . S
H838 C837 0.959 . S
H839 C837 0.960 . S
H840 C837 0.961 . S
O841 Co816 1.967 . S
O841 C849 1.258 . S
O842 Co817 1.941 . S
O842 C849 1.266 . S
H843 C845 0.959 . S
H844 C845 0.961 . S
C845 C835 1.510 . S
C845 H843 0.959 . S
C845 H844 0.961 . S
C845 H846 0.960 . S
H846 C845 0.960 . S
H847 N827 0.862 . S
O848 Co816 1.920 . S
O848 C821 1.289 . S
C849 O841 1.258 . S
C849 O842 1.266 . S
Co850 O853 1.970 . S
Co850 N867 1.989 . S
Co850 O875 1.967 . S
Co850 O882 1.920 . S
Co851 O854 1.966 . S
Co851 N860 2.022 1_556 S
Co851 N868 1.993 . S
Co851 O876 1.941 . S
C852 O853 1.258 . S
C852 O854 1.263 . S
O853 Co850 1.970 . S
O853 C852 1.258 . S
O854 Co851 1.966 . S
O854 C852 1.263 . S
C855 O856 1.235 . S
C855 O882 1.289 . S
O856 C855 1.235 . S
C857 C859 1.400 . S
C857 N860 1.351 . S
C857 C862 1.501 . S
C858 C859 1.387 . S
C858 N861 1.341 . S
C859 C857 1.400 . S
C859 C858 1.387 . S
N860 Co851 2.022 1_554 S
N860 C857 1.351 . S
N860 N861 1.365 . S
N861 C858 1.341 . S
N861 N860 1.365 . S
N861 H881 0.862 1_554 S
C862 C857 1.501 . S
C862 H863 0.961 . S
C862 H864 0.961 . S
C862 H865 0.960 . S
H863 C862 0.961 . S
H864 C862 0.961 . S
H865 C862 0.960 . S
C866 N867 1.342 . S
C866 C870 1.401 . S
C866 C871 1.499 . S
N867 Co850 1.989 . S
N867 C866 1.342 . S
N867 N868 1.388 . S
N868 Co851 1.993 . S
N868 N867 1.388 . S
N868 C869 1.346 . S
C869 N868 1.346 . S
C869 C870 1.396 . S
C869 C879 1.510 1_556 S
C870 C866 1.401 . S
C870 C869 1.396 . S
C871 C866 1.499 . S
C871 H872 0.959 . S
C871 H873 0.960 . S
C871 H874 0.961 . S
H872 C871 0.959 . S
H873 C871 0.960 . S
H874 C871 0.961 . S
O875 Co850 1.967 . S
O875 C883 1.258 . S
O876 Co851 1.941 . S
O876 C883 1.266 . S
H877 C879 0.959 . S
H878 C879 0.961 . S
C879 C869 1.510 1_554 S
C879 H877 0.959 . S
C879 H878 0.961 . S
C879 H880 0.960 . S
H880 C879 0.960 . S
H881 N861 0.862 1_556 S
O882 Co850 1.920 . S
O882 C855 1.289 . S
C883 O875 1.258 . S
C883 O876 1.266 . S
Co884 O887 1.970 . S
Co884 N901 1.989 . S
Co884 O909 1.967 . S
Co884 O916 1.920 . S
Co885 O888 1.966 . S
Co885 N894 2.022 . S
Co885 N902 1.993 . S
Co885 O910 1.941 . S
C886 O887 1.258 . S
C886 O888 1.263 . S
O887 Co884 1.970 . S
O887 C886 1.258 . S
O888 Co885 1.966 . S
O888 C886 1.263 . S
C889 O890 1.235 . S
C889 O916 1.289 . S
O890 C889 1.235 . S
C891 C893 1.400 . S
C891 N894 1.351 . S
C891 C896 1.501 . S
C892 C893 1.387 . S
C892 N895 1.341 . S
C893 C891 1.400 . S
C893 C892 1.387 . S
N894 Co885 2.022 . S
N894 C891 1.351 . S
N894 N895 1.365 . S
N895 C892 1.341 . S
N895 N894 1.365 . S
N895 H915 0.862 . S
C896 C891 1.501 . S
C896 H897 0.961 . S
C896 H898 0.961 . S
C896 H899 0.960 . S
H897 C896 0.961 . S
H898 C896 0.961 . S
H899 C896 0.960 . S
C900 N901 1.342 . S
C900 C904 1.401 . S
C900 C905 1.499 . S
N901 Co884 1.989 . S
N901 C900 1.342 . S
N901 N902 1.388 . S
N902 Co885 1.993 . S
N902 N901 1.388 . S
N902 C903 1.346 . S
C903 N902 1.346 . S
C903 C904 1.396 . S
C903 C913 1.510 . S
C904 C900 1.401 . S
C904 C903 1.396 . S
C905 C900 1.499 . S
C905 H906 0.959 . S
C905 H907 0.960 . S
C905 H908 0.961 . S
H906 C905 0.959 . S
H907 C905 0.960 . S
H908 C905 0.961 . S
O909 Co884 1.967 . S
O909 C917 1.258 . S
O910 Co885 1.941 . S
O910 C917 1.266 . S
H911 C913 0.959 . S
H912 C913 0.961 . S
C913 C903 1.510 . S
C913 H911 0.959 . S
C913 H912 0.961 . S
C913 H914 0.960 . S
H914 C913 0.960 . S
H915 N895 0.862 . S
O916 Co884 1.920 . S
O916 C889 1.289 . S
C917 O909 1.258 . S
C917 O910 1.266 . S
Co918 O921 1.970 . S
Co918 N935 1.989 . S
Co918 O943 1.967 . S
Co918 O950 1.920 . S
Co919 O922 1.966 . S
Co919 N928 2.022 . S
Co919 N936 1.993 . S
Co919 O944 1.941 . S
C920 O921 1.258 . S
C920 O922 1.263 . S
O921 Co918 1.970 . S
O921 C920 1.258 . S
O922 Co919 1.966 . S
O922 C920 1.263 . S
C923 O924 1.235 1_455 S
C923 O950 1.289 . S
O924 C923 1.235 1_655 S
C925 C927 1.400 . S
C925 N928 1.351 . S
C925 C930 1.501 . S
C926 C927 1.387 . S
C926 N929 1.341 . S
C927 C925 1.400 . S
C927 C926 1.387 . S
N928 Co919 2.022 . S
N928 C925 1.351 . S
N928 N929 1.365 . S
N929 C926 1.341 . S
N929 N928 1.365 . S
N929 H949 0.862 . S
C930 C925 1.501 . S
C930 H931 0.961 . S
C930 H932 0.961 . S
C930 H933 0.960 . S
H931 C930 0.961 . S
H932 C930 0.961 . S
H933 C930 0.960 . S
C934 N935 1.342 . S
C934 C938 1.401 . S
C934 C939 1.499 . S
N935 Co918 1.989 . S
N935 C934 1.342 . S
N935 N936 1.388 . S
N936 Co919 1.993 . S
N936 N935 1.388 . S
N936 C937 1.346 . S
C937 N936 1.346 . S
C937 C938 1.396 . S
C937 C947 1.510 . S
C938 C934 1.401 . S
C938 C937 1.396 . S
C939 C934 1.499 . S
C939 H940 0.959 . S
C939 H941 0.960 . S
C939 H942 0.961 . S
H940 C939 0.959 . S
H941 C939 0.960 . S
H942 C939 0.961 . S
O943 Co918 1.967 . S
O943 C951 1.258 . S
O944 Co919 1.941 . S
O944 C951 1.266 . S
H945 C947 0.959 . S
H946 C947 0.961 . S
C947 C937 1.510 . S
C947 H945 0.959 . S
C947 H946 0.961 . S
C947 H948 0.960 . S
H948 C947 0.960 . S
H949 N929 0.862 . S
O950 Co918 1.920 . S
O950 C923 1.289 . S
C951 O943 1.258 . S
C951 O944 1.266 . S
Co952 O955 1.970 . S
Co952 N969 1.989 . S
Co952 O977 1.967 . S
Co952 O984 1.920 . S
Co953 O956 1.966 . S
Co953 N962 2.022 . S
Co953 N970 1.993 . S
Co953 O978 1.941 . S
C954 O955 1.258 . S
C954 O956 1.263 . S
O955 Co952 1.970 . S
O955 C954 1.258 . S
O956 Co953 1.966 . S
O956 C954 1.263 . S
C957 O958 1.235 . S
C957 O984 1.289 . S
O958 C957 1.235 . S
C959 C961 1.400 . S
C959 N962 1.351 . S
C959 C964 1.501 . S
C960 C961 1.387 . S
C960 N963 1.341 . S
C961 C959 1.400 . S
C961 C960 1.387 . S
N962 Co953 2.022 . S
N962 C959 1.351 . S
N962 N963 1.365 . S
N963 C960 1.341 . S
N963 N962 1.365 . S
N963 H983 0.862 . S
C964 C959 1.501 . S
C964 H965 0.961 . S
C964 H966 0.961 . S
C964 H967 0.960 . S
H965 C964 0.961 . S
H966 C964 0.961 . S
H967 C964 0.960 . S
C968 N969 1.342 . S
C968 C972 1.401 . S
C968 C973 1.499 . S
N969 Co952 1.989 . S
N969 C968 1.342 . S
N969 N970 1.388 . S
N970 Co953 1.993 . S
N970 N969 1.388 . S
N970 C971 1.346 . S
C971 N970 1.346 . S
C971 C972 1.396 . S
C971 C981 1.510 . S
C972 C968 1.401 . S
C972 C971 1.396 . S
C973 C968 1.499 . S
C973 H974 0.959 . S
C973 H975 0.960 . S
C973 H976 0.961 . S
H974 C973 0.959 . S
H975 C973 0.960 . S
H976 C973 0.961 . S
O977 Co952 1.967 . S
O977 C985 1.258 . S
O978 Co953 1.941 . S
O978 C985 1.266 . S
H979 C981 0.959 . S
H980 C981 0.961 . S
C981 C971 1.510 . S
C981 H979 0.959 . S
C981 H980 0.961 . S
C981 H982 0.960 . S
H982 C981 0.960 . S
H983 N963 0.862 . S
O984 Co952 1.920 . S
O984 C957 1.289 . S
C985 O977 1.258 . S
C985 O978 1.266 . S
Co986 O989 1.970 . S
Co986 N1003 1.989 . S
Co986 O1011 1.967 . S
Co986 O1018 1.920 . S
Co987 O990 1.966 . S
Co987 N996 2.022 1_554 S
Co987 N1004 1.993 . S
Co987 O1012 1.941 . S
C988 O989 1.258 . S
C988 O990 1.263 . S
O989 Co986 1.970 . S
O989 C988 1.258 . S
O990 Co987 1.966 . S
O990 C988 1.263 . S
C991 O992 1.235 1_455 S
C991 O1018 1.289 . S
O992 C991 1.235 1_655 S
C993 C995 1.400 . S
C993 N996 1.351 . S
C993 C998 1.501 . S
C994 C995 1.387 . S
C994 N997 1.341 . S
C995 C993 1.400 . S
C995 C994 1.387 . S
N996 Co987 2.022 1_556 S
N996 C993 1.351 . S
N996 N997 1.365 . S
N997 C994 1.341 . S
N997 N996 1.365 . S
N997 H1017 0.862 1_556 S
C998 C993 1.501 . S
C998 H999 0.961 . S
C998 H1000 0.961 . S
C998 H1001 0.960 . S
H999 C998 0.961 . S
H1000 C998 0.961 . S
H1001 C998 0.960 . S
C1002 N1003 1.342 . S
C1002 C1006 1.401 . S
C1002 C1007 1.499 . S
N1003 Co986 1.989 . S
N1003 C1002 1.342 . S
N1003 N1004 1.388 . S
N1004 Co987 1.993 . S
N1004 N1003 1.388 . S
N1004 C1005 1.346 . S
C1005 N1004 1.346 . S
C1005 C1006 1.396 . S
C1005 C1015 1.510 1_554 S
C1006 C1002 1.401 . S
C1006 C1005 1.396 . S
C1007 C1002 1.499 . S
C1007 H1008 0.959 . S
C1007 H1009 0.960 . S
C1007 H1010 0.961 . S
H1008 C1007 0.959 . S
H1009 C1007 0.960 . S
H1010 C1007 0.961 . S
O1011 Co986 1.967 . S
O1011 C1019 1.258 . S
O1012 Co987 1.941 . S
O1012 C1019 1.266 . S
H1013 C1015 0.959 . S
H1014 C1015 0.961 . S
C1015 C1005 1.510 1_556 S
C1015 H1013 0.959 . S
C1015 H1014 0.961 . S
C1015 H1016 0.960 . S
H1016 C1015 0.960 . S
H1017 N997 0.862 1_554 S
O1018 Co986 1.920 . S
O1018 C991 1.289 . S
C1019 O1011 1.258 . S
C1019 O1012 1.266 . S
Co1020 O1023 1.970 . S
Co1020 N1037 1.989 . S
Co1020 O1045 1.967 . S
Co1020 O1052 1.920 . S
Co1021 O1024 1.966 . S
Co1021 N1030 2.022 . S
Co1021 N1038 1.993 . S
Co1021 O1046 1.941 . S
C1022 O1023 1.258 . S
C1022 O1024 1.263 . S
O1023 Co1020 1.970 . S
O1023 C1022 1.258 . S
O1024 Co1021 1.966 . S
O1024 C1022 1.263 . S
C1025 O1026 1.235 . S
C1025 O1052 1.289 . S
O1026 C1025 1.235 . S
C1027 C1029 1.400 . S
C1027 N1030 1.351 . S
C1027 C1032 1.501 . S
C1028 C1029 1.387 . S
C1028 N1031 1.341 . S
C1029 C1027 1.400 . S
C1029 C1028 1.387 . S
N1030 Co1021 2.022 . S
N1030 C1027 1.351 . S
N1030 N1031 1.365 . S
N1031 C1028 1.341 . S
N1031 N1030 1.365 . S
N1031 H1051 0.862 . S
C1032 C1027 1.501 . S
C1032 H1033 0.961 . S
C1032 H1034 0.961 . S
C1032 H1035 0.960 . S
H1033 C1032 0.961 . S
H1034 C1032 0.961 . S
H1035 C1032 0.960 . S
C1036 N1037 1.342 . S
C1036 C1040 1.401 . S
C1036 C1041 1.499 . S
N1037 Co1020 1.989 . S
N1037 C1036 1.342 . S
N1037 N1038 1.388 . S
N1038 Co1021 1.993 . S
N1038 N1037 1.388 . S
N1038 C1039 1.346 . S
C1039 N1038 1.346 . S
C1039 C1040 1.396 . S
C1039 C1049 1.510 . S
C1040 C1036 1.401 . S
C1040 C1039 1.396 . S
C1041 C1036 1.499 . S
C1041 H1042 0.959 . S
C1041 H1043 0.960 . S
C1041 H1044 0.961 . S
H1042 C1041 0.959 . S
H1043 C1041 0.960 . S
H1044 C1041 0.961 . S
O1045 Co1020 1.967 . S
O1045 C1053 1.258 . S
O1046 Co1021 1.941 . S
O1046 C1053 1.266 . S
H1047 C1049 0.959 . S
H1048 C1049 0.961 . S
C1049 C1039 1.510 . S
C1049 H1047 0.959 . S
C1049 H1048 0.961 . S
C1049 H1050 0.960 . S
H1050 C1049 0.960 . S
H1051 N1031 0.862 . S
O1052 Co1020 1.920 . S
O1052 C1025 1.289 . S
C1053 O1045 1.258 . S
C1053 O1046 1.266 . S
Co1054 O1057 1.970 . S
Co1054 N1071 1.989 . S
Co1054 O1079 1.967 . S
Co1054 O1086 1.920 . S
Co1055 O1058 1.966 . S
Co1055 N1064 2.022 . S
Co1055 N1072 1.993 . S
Co1055 O1080 1.941 . S
C1056 O1057 1.258 . S
C1056 O1058 1.263 . S
O1057 Co1054 1.970 . S
O1057 C1056 1.258 . S
O1058 Co1055 1.966 . S
O1058 C1056 1.263 . S
C1059 O1060 1.235 . S
C1059 O1086 1.289 . S
O1060 C1059 1.235 . S
C1061 C1063 1.400 . S
C1061 N1064 1.351 . S
C1061 C1066 1.501 . S
C1062 C1063 1.387 . S
C1062 N1065 1.341 . S
C1063 C1061 1.400 . S
C1063 C1062 1.387 . S
N1064 Co1055 2.022 . S
N1064 C1061 1.351 . S
N1064 N1065 1.365 . S
N1065 C1062 1.341 . S
N1065 N1064 1.365 . S
N1065 H1085 0.862 . S
C1066 C1061 1.501 . S
C1066 H1067 0.961 . S
C1066 H1068 0.961 . S
C1066 H1069 0.960 . S
H1067 C1066 0.961 . S
H1068 C1066 0.961 . S
H1069 C1066 0.960 . S
C1070 N1071 1.342 . S
C1070 C1074 1.401 . S
C1070 C1075 1.499 . S
N1071 Co1054 1.989 . S
N1071 C1070 1.342 . S
N1071 N1072 1.388 . S
N1072 Co1055 1.993 . S
N1072 N1071 1.388 . S
N1072 C1073 1.346 . S
C1073 N1072 1.346 . S
C1073 C1074 1.396 . S
C1073 C1083 1.510 . S
C1074 C1070 1.401 . S
C1074 C1073 1.396 . S
C1075 C1070 1.499 . S
C1075 H1076 0.959 . S
C1075 H1077 0.960 . S
C1075 H1078 0.961 . S
H1076 C1075 0.959 . S
H1077 C1075 0.960 . S
H1078 C1075 0.961 . S
O1079 Co1054 1.967 . S
O1079 C1087 1.258 . S
O1080 Co1055 1.941 . S
O1080 C1087 1.266 . S
H1081 C1083 0.959 . S
H1082 C1083 0.961 . S
C1083 C1073 1.510 . S
C1083 H1081 0.959 . S
C1083 H1082 0.961 . S
C1083 H1084 0.960 . S
H1084 C1083 0.960 . S
H1085 N1065 0.862 . S
O1086 Co1054 1.920 . S
O1086 C1059 1.289 . S
C1087 O1079 1.258 . S
C1087 O1080 1.266 . S
C1088 C1089 1.349 . S
C1088 C1090 1.327 . S
C1088 H1113 0.950 . S
C1089 C1088 1.349 . S
C1089 C1105 1.349 . S
C1090 C1088 1.327 . S
C1090 C1109 1.429 . S
C1090 H1114 0.950 . S
C1091 C1108 1.574 . S
C1091 C1110 1.368 . S
C1091 H1115 0.949 . S
H1092 C1096 0.949 . S
C1093 C1094 1.349 . S
C1093 C1095 1.327 . S
C1093 H1116 0.950 . S
C1094 C1093 1.349 . S
C1094 C1106 1.349 . S
C1095 C1093 1.327 . S
C1095 C1111 1.429 . S
C1095 H1117 0.950 . S
C1096 H1092 0.949 . S
C1096 C1104 1.574 . S
C1096 C1112 1.368 . S
H1097 C1105 0.950 . S
H1098 C1103 0.950 . S
H1099 C1104 0.949 . S
H1100 C1106 0.950 . S
H1101 C1107 0.950 . S
H1102 C1108 0.949 . S
C1103 H1098 0.950 . S
C1103 C1105 1.327 . S
C1103 C1109 1.429 . S
C1104 C1096 1.574 . S
C1104 H1099 0.949 . S
C1104 C1110 1.368 . S
C1105 C1089 1.349 . S
C1105 H1097 0.950 . S
C1105 C1103 1.327 . S
C1106 C1094 1.349 . S
C1106 H1100 0.950 . S
C1106 C1107 1.327 . S
C1107 H1101 0.950 . S
C1107 C1106 1.327 . S
C1107 C1111 1.429 . S
C1108 C1091 1.574 . S
C1108 H1102 0.949 . S
C1108 C1112 1.368 . S
C1109 C1090 1.429 . S
C1109 C1103 1.429 . S
C1109 C1110 1.523 . S
C1110 C1091 1.368 . S
C1110 C1104 1.368 . S
C1110 C1109 1.523 . S
C1111 C1095 1.429 . S
C1111 C1107 1.429 . S
C1111 C1112 1.523 . S
C1112 C1096 1.368 . S
C1112 C1108 1.368 . S
C1112 C1111 1.523 . S
H1113 C1088 0.950 . S
H1114 C1090 0.950 . S
H1115 C1091 0.949 . S
H1116 C1093 0.950 . S
H1117 C1095 0.950 . S
C1118 C1119 1.349 . S
C1118 C1120 1.327 . S
C1118 H1143 0.950 . S
C1119 C1118 1.349 . S
C1119 C1135 1.349 . S
C1120 C1118 1.327 . S
C1120 C1139 1.429 . S
C1120 H1144 0.950 . S
C1121 C1138 1.574 . S
C1121 C1140 1.368 . S
C1121 H1145 0.949 . S
H1122 C1126 0.949 . S
C1123 C1124 1.349 . S
C1123 C1125 1.327 . S
C1123 H1146 0.950 . S
C1124 C1123 1.349 . S
C1124 C1136 1.349 . S
C1125 C1123 1.327 . S
C1125 C1141 1.429 . S
C1125 H1147 0.950 . S
C1126 H1122 0.949 . S
C1126 C1134 1.574 . S
C1126 C1142 1.368 . S
H1127 C1135 0.950 . S
H1128 C1133 0.950 . S
H1129 C1134 0.949 . S
H1130 C1136 0.950 . S
H1131 C1137 0.950 . S
H1132 C1138 0.949 . S
C1133 H1128 0.950 . S
C1133 C1135 1.327 . S
C1133 C1139 1.429 . S
C1134 C1126 1.574 . S
C1134 H1129 0.949 . S
C1134 C1140 1.368 . S
C1135 C1119 1.349 . S
C1135 H1127 0.950 . S
C1135 C1133 1.327 . S
C1136 C1124 1.349 . S
C1136 H1130 0.950 . S
C1136 C1137 1.327 . S
C1137 H1131 0.950 . S
C1137 C1136 1.327 . S
C1137 C1141 1.429 . S
C1138 C1121 1.574 . S
C1138 H1132 0.949 . S
C1138 C1142 1.368 . S
C1139 C1120 1.429 . S
C1139 C1133 1.429 . S
C1139 C1140 1.523 . S
C1140 C1121 1.368 . S
C1140 C1134 1.368 . S
C1140 C1139 1.523 . S
C1141 C1125 1.429 . S
C1141 C1137 1.429 . S
C1141 C1142 1.523 . S
C1142 C1126 1.368 . S
C1142 C1138 1.368 . S
C1142 C1141 1.523 . S
H1143 C1118 0.950 . S
H1144 C1120 0.950 . S
H1145 C1121 0.949 . S
H1146 C1123 0.950 . S
H1147 C1125 0.950 . S
C1148 C1149 1.349 . S
C1148 C1150 1.327 . S
C1148 H1173 0.950 . S
C1149 C1148 1.349 . S
C1149 C1165 1.349 . S
C1150 C1148 1.327 . S
C1150 C1169 1.429 . S
C1150 H1174 0.950 . S
C1151 C1168 1.574 . S
C1151 C1170 1.368 . S
C1151 H1175 0.949 . S
H1152 C1156 0.949 . S
C1153 C1154 1.349 . S
C1153 C1155 1.327 . S
C1153 H1176 0.950 . S
C1154 C1153 1.349 . S
C1154 C1166 1.349 . S
C1155 C1153 1.327 . S
C1155 C1171 1.429 . S
C1155 H1177 0.950 . S
C1156 H1152 0.949 . S
C1156 C1164 1.574 . S
C1156 C1172 1.368 . S
H1157 C1165 0.950 . S
H1158 C1163 0.950 . S
H1159 C1164 0.949 . S
H1160 C1166 0.950 . S
H1161 C1167 0.950 . S
H1162 C1168 0.949 . S
C1163 H1158 0.950 . S
C1163 C1165 1.327 . S
C1163 C1169 1.429 . S
C1164 C1156 1.574 . S
C1164 H1159 0.949 . S
C1164 C1170 1.368 . S
C1165 C1149 1.349 . S
C1165 H1157 0.950 . S
C1165 C1163 1.327 . S
C1166 C1154 1.349 . S
C1166 H1160 0.950 . S
C1166 C1167 1.327 . S
C1167 H1161 0.950 . S
C1167 C1166 1.327 . S
C1167 C1171 1.429 . S
C1168 C1151 1.574 . S
C1168 H1162 0.949 . S
C1168 C1172 1.368 . S
C1169 C1150 1.429 . S
C1169 C1163 1.429 . S
C1169 C1170 1.523 . S
C1170 C1151 1.368 . S
C1170 C1164 1.368 . S
C1170 C1169 1.523 . S
C1171 C1155 1.429 . S
C1171 C1167 1.429 . S
C1171 C1172 1.523 . S
C1172 C1156 1.368 . S
C1172 C1168 1.368 . S
C1172 C1171 1.523 . S
H1173 C1148 0.950 . S
H1174 C1150 0.950 . S
H1175 C1151 0.949 . S
H1176 C1153 0.950 . S
H1177 C1155 0.950 . S
C1178 C1179 1.349 . S
C1178 C1180 1.327 . S
C1178 H1203 0.950 . S
C1179 C1178 1.349 . S
C1179 C1195 1.349 . S
C1180 C1178 1.327 . S
C1180 C1199 1.429 . S
C1180 H1204 0.950 . S
C1181 C1198 1.574 . S
C1181 C1200 1.368 . S
C1181 H1205 0.949 . S
H1182 C1186 0.949 . S
C1183 C1184 1.349 . S
C1183 C1185 1.327 . S
C1183 H1206 0.950 . S
C1184 C1183 1.349 . S
C1184 C1196 1.349 . S
C1185 C1183 1.327 . S
C1185 C1201 1.429 . S
C1185 H1207 0.950 . S
C1186 H1182 0.949 . S
C1186 C1194 1.574 . S
C1186 C1202 1.368 . S
H1187 C1195 0.950 . S
H1188 C1193 0.950 . S
H1189 C1194 0.949 . S
H1190 C1196 0.950 . S
H1191 C1197 0.950 . S
H1192 C1198 0.949 . S
C1193 H1188 0.950 . S
C1193 C1195 1.327 . S
C1193 C1199 1.429 . S
C1194 C1186 1.574 . S
C1194 H1189 0.949 . S
C1194 C1200 1.368 . S
C1195 C1179 1.349 . S
C1195 H1187 0.950 . S
C1195 C1193 1.327 . S
C1196 C1184 1.349 . S
C1196 H1190 0.950 . S
C1196 C1197 1.327 . S
C1197 H1191 0.950 . S
C1197 C1196 1.327 . S
C1197 C1201 1.429 . S
C1198 C1181 1.574 . S
C1198 H1192 0.949 . S
C1198 C1202 1.368 . S
C1199 C1180 1.429 . S
C1199 C1193 1.429 . S
C1199 C1200 1.523 . S
C1200 C1181 1.368 . S
C1200 C1194 1.368 . S
C1200 C1199 1.523 . S
C1201 C1185 1.429 . S
C1201 C1197 1.429 . S
C1201 C1202 1.523 . S
C1202 C1186 1.368 . S
C1202 C1198 1.368 . S
C1202 C1201 1.523 . S
H1203 C1178 0.950 . S
H1204 C1180 0.950 . S
H1205 C1181 0.949 . S
H1206 C1183 0.950 . S
H1207 C1185 0.950 . S
C1208 C1209 1.349 . S
C1208 C1210 1.327 . S
C1208 H1233 0.950 . S
C1209 C1208 1.349 . S
C1209 C1225 1.349 . S
C1210 C1208 1.327 . S
C1210 C1229 1.429 . S
C1210 H1234 0.950 . S
C1211 C1228 1.574 . S
C1211 C1230 1.368 . S
C1211 H1235 0.949 . S
H1212 C1216 0.949 . S
C1213 C1214 1.349 . S
C1213 C1215 1.327 . S
C1213 H1236 0.950 . S
C1214 C1213 1.349 . S
C1214 C1226 1.349 . S
C1215 C1213 1.327 . S
C1215 C1231 1.429 . S
C1215 H1237 0.950 . S
C1216 H1212 0.949 . S
C1216 C1224 1.574 . S
C1216 C1232 1.368 . S
H1217 C1225 0.950 . S
H1218 C1223 0.950 . S
H1219 C1224 0.949 . S
H1220 C1226 0.950 . S
H1221 C1227 0.950 . S
H1222 C1228 0.949 . S
C1223 H1218 0.950 . S
C1223 C1225 1.327 . S
C1223 C1229 1.429 . S
C1224 C1216 1.574 . S
C1224 H1219 0.949 . S
C1224 C1230 1.368 . S
C1225 C1209 1.349 . S
C1225 H1217 0.950 . S
C1225 C1223 1.327 . S
C1226 C1214 1.349 . S
C1226 H1220 0.950 . S
C1226 C1227 1.327 . S
C1227 H1221 0.950 . S
C1227 C1226 1.327 . S
C1227 C1231 1.429 . S
C1228 C1211 1.574 . S
C1228 H1222 0.949 . S
C1228 C1232 1.368 . S
C1229 C1210 1.429 . S
C1229 C1223 1.429 . S
C1229 C1230 1.523 . S
C1230 C1211 1.368 . S
C1230 C1224 1.368 . S
C1230 C1229 1.523 . S
C1231 C1215 1.429 . S
C1231 C1227 1.429 . S
C1231 C1232 1.523 . S
C1232 C1216 1.368 . S
C1232 C1228 1.368 . S
C1232 C1231 1.523 . S
H1233 C1208 0.950 . S
H1234 C1210 0.950 . S
H1235 C1211 0.949 . S
H1236 C1213 0.950 . S
H1237 C1215 0.950 . S
C1238 C1239 1.349 . S
C1238 C1240 1.327 . S
C1238 H1263 0.950 . S
C1239 C1238 1.349 . S
C1239 C1255 1.349 . S
C1240 C1238 1.327 . S
C1240 C1259 1.429 . S
C1240 H1264 0.950 . S
C1241 C1258 1.574 . S
C1241 C1260 1.368 . S
C1241 H1265 0.949 . S
H1242 C1246 0.949 . S
C1243 C1244 1.349 . S
C1243 C1245 1.327 . S
C1243 H1266 0.950 . S
C1244 C1243 1.349 . S
C1244 C1256 1.349 . S
C1245 C1243 1.327 . S
C1245 C1261 1.429 . S
C1245 H1267 0.950 . S
C1246 H1242 0.949 . S
C1246 C1254 1.574 . S
C1246 C1262 1.368 . S
H1247 C1255 0.950 . S
H1248 C1253 0.950 . S
H1249 C1254 0.949 . S
H1250 C1256 0.950 . S
H1251 C1257 0.950 . S
H1252 C1258 0.949 . S
C1253 H1248 0.950 . S
C1253 C1255 1.327 . S
C1253 C1259 1.429 . S
C1254 C1246 1.574 . S
C1254 H1249 0.949 . S
C1254 C1260 1.368 . S
C1255 C1239 1.349 . S
C1255 H1247 0.950 . S
C1255 C1253 1.327 . S
C1256 C1244 1.349 . S
C1256 H1250 0.950 . S
C1256 C1257 1.327 . S
C1257 H1251 0.950 . S
C1257 C1256 1.327 . S
C1257 C1261 1.429 . S
C1258 C1241 1.574 . S
C1258 H1252 0.949 . S
C1258 C1262 1.368 . S
C1259 C1240 1.429 . S
C1259 C1253 1.429 . S
C1259 C1260 1.523 . S
C1260 C1241 1.368 . S
C1260 C1254 1.368 . S
C1260 C1259 1.523 . S
C1261 C1245 1.429 . S
C1261 C1257 1.429 . S
C1261 C1262 1.523 . S
C1262 C1246 1.368 . S
C1262 C1258 1.368 . S
C1262 C1261 1.523 . S
H1263 C1238 0.950 . S
H1264 C1240 0.950 . S
H1265 C1241 0.949 . S
H1266 C1243 0.950 . S
H1267 C1245 0.950 . S
C1268 C1269 1.349 . S
C1268 C1270 1.327 . S
C1268 H1293 0.950 . S
C1269 C1268 1.349 . S
C1269 C1285 1.349 . S
C1270 C1268 1.327 . S
C1270 C1289 1.429 . S
C1270 H1294 0.950 . S
C1271 C1288 1.574 . S
C1271 C1290 1.368 . S
C1271 H1295 0.949 . S
H1272 C1276 0.949 . S
C1273 C1274 1.349 . S
C1273 C1275 1.327 . S
C1273 H1296 0.950 . S
C1274 C1273 1.349 . S
C1274 C1286 1.349 . S
C1275 C1273 1.327 . S
C1275 C1291 1.429 . S
C1275 H1297 0.950 . S
C1276 H1272 0.949 . S
C1276 C1284 1.574 . S
C1276 C1292 1.368 . S
H1277 C1285 0.950 . S
H1278 C1283 0.950 . S
H1279 C1284 0.949 . S
H1280 C1286 0.950 . S
H1281 C1287 0.950 . S
H1282 C1288 0.949 . S
C1283 H1278 0.950 . S
C1283 C1285 1.327 . S
C1283 C1289 1.429 . S
C1284 C1276 1.574 . S
C1284 H1279 0.949 . S
C1284 C1290 1.368 . S
C1285 C1269 1.349 . S
C1285 H1277 0.950 . S
C1285 C1283 1.327 . S
C1286 C1274 1.349 . S
C1286 H1280 0.950 . S
C1286 C1287 1.327 . S
C1287 H1281 0.950 . S
C1287 C1286 1.327 . S
C1287 C1291 1.429 . S
C1288 C1271 1.574 . S
C1288 H1282 0.949 . S
C1288 C1292 1.368 . S
C1289 C1270 1.429 . S
C1289 C1283 1.429 . S
C1289 C1290 1.523 . S
C1290 C1271 1.368 . S
C1290 C1284 1.368 . S
C1290 C1289 1.523 . S
C1291 C1275 1.429 . S
C1291 C1287 1.429 . S
C1291 C1292 1.523 . S
C1292 C1276 1.368 . S
C1292 C1288 1.368 . S
C1292 C1291 1.523 . S
H1293 C1268 0.950 . S
H1294 C1270 0.950 . S
H1295 C1271 0.949 . S
H1296 C1273 0.950 . S
H1297 C1275 0.950 . S
C1298 C1299 1.349 . S
C1298 C1300 1.327 . S
C1298 H1323 0.950 . S
C1299 C1298 1.349 . S
C1299 C1315 1.349 . S
C1300 C1298 1.327 . S
C1300 C1319 1.429 . S
C1300 H1324 0.950 . S
C1301 C1318 1.574 . S
C1301 C1320 1.368 . S
C1301 H1325 0.949 . S
H1302 C1306 0.949 . S
C1303 C1304 1.349 . S
C1303 C1305 1.327 . S
C1303 H1326 0.950 . S
C1304 C1303 1.349 . S
C1304 C1316 1.349 . S
C1305 C1303 1.327 . S
C1305 C1321 1.429 . S
C1305 H1327 0.950 . S
C1306 H1302 0.949 . S
C1306 C1314 1.574 . S
C1306 C1322 1.368 . S
H1307 C1315 0.950 . S
H1308 C1313 0.950 . S
H1309 C1314 0.949 . S
H1310 C1316 0.950 . S
H1311 C1317 0.950 . S
H1312 C1318 0.949 . S
C1313 H1308 0.950 . S
C1313 C1315 1.327 . S
C1313 C1319 1.429 . S
C1314 C1306 1.574 . S
C1314 H1309 0.949 . S
C1314 C1320 1.368 . S
C1315 C1299 1.349 . S
C1315 H1307 0.950 . S
C1315 C1313 1.327 . S
C1316 C1304 1.349 . S
C1316 H1310 0.950 . S
C1316 C1317 1.327 . S
C1317 H1311 0.950 . S
C1317 C1316 1.327 . S
C1317 C1321 1.429 . S
C1318 C1301 1.574 . S
C1318 H1312 0.949 . S
C1318 C1322 1.368 . S
C1319 C1300 1.429 . S
C1319 C1313 1.429 . S
C1319 C1320 1.523 . S
C1320 C1301 1.368 . S
C1320 C1314 1.368 . S
C1320 C1319 1.523 . S
C1321 C1305 1.429 . S
C1321 C1317 1.429 . S
C1321 C1322 1.523 . S
C1322 C1306 1.368 . S
C1322 C1318 1.368 . S
C1322 C1321 1.523 . S
H1323 C1298 0.950 . S
H1324 C1300 0.950 . S
H1325 C1301 0.949 . S
H1326 C1303 0.950 . S
H1327 C1305 0.950 . S
C1328 C1329 1.349 . S
C1328 C1330 1.327 . S
C1328 H1353 0.950 . S
C1329 C1328 1.349 . S
C1329 C1345 1.349 . S
C1330 C1328 1.327 . S
C1330 C1349 1.429 . S
C1330 H1354 0.950 . S
C1331 C1348 1.574 . S
C1331 C1350 1.368 . S
C1331 H1355 0.949 . S
H1332 C1336 0.949 . S
C1333 C1334 1.349 . S
C1333 C1335 1.327 . S
C1333 H1356 0.950 . S
C1334 C1333 1.349 . S
C1334 C1346 1.349 . S
C1335 C1333 1.327 . S
C1335 C1351 1.429 . S
C1335 H1357 0.950 . S
C1336 H1332 0.949 . S
C1336 C1344 1.574 . S
C1336 C1352 1.368 . S
H1337 C1345 0.950 . S
H1338 C1343 0.950 . S
H1339 C1344 0.949 . S
H1340 C1346 0.950 . S
H1341 C1347 0.950 . S
H1342 C1348 0.949 . S
C1343 H1338 0.950 . S
C1343 C1345 1.327 . S
C1343 C1349 1.429 . S
C1344 C1336 1.574 . S
C1344 H1339 0.949 . S
C1344 C1350 1.368 . S
C1345 C1329 1.349 . S
C1345 H1337 0.950 . S
C1345 C1343 1.327 . S
C1346 C1334 1.349 . S
C1346 H1340 0.950 . S
C1346 C1347 1.327 . S
C1347 H1341 0.950 . S
C1347 C1346 1.327 . S
C1347 C1351 1.429 . S
C1348 C1331 1.574 . S
C1348 H1342 0.949 . S
C1348 C1352 1.368 . S
C1349 C1330 1.429 . S
C1349 C1343 1.429 . S
C1349 C1350 1.523 . S
C1350 C1331 1.368 . S
C1350 C1344 1.368 . S
C1350 C1349 1.523 . S
C1351 C1335 1.429 . S
C1351 C1347 1.429 . S
C1351 C1352 1.523 . S
C1352 C1336 1.368 . S
C1352 C1348 1.368 . S
C1352 C1351 1.523 . S
H1353 C1328 0.950 . S
H1354 C1330 0.950 . S
H1355 C1331 0.949 . S
H1356 C1333 0.950 . S
H1357 C1335 0.950 . S
C1358 C1359 1.349 . S
C1358 C1360 1.327 . S
C1358 H1383 0.950 . S
C1359 C1358 1.349 . S
C1359 C1375 1.349 . S
C1360 C1358 1.327 . S
C1360 C1379 1.429 . S
C1360 H1384 0.950 . S
C1361 C1378 1.574 . S
C1361 C1380 1.368 . S
C1361 H1385 0.949 . S
H1362 C1366 0.949 . S
C1363 C1364 1.349 . S
C1363 C1365 1.327 . S
C1363 H1386 0.950 . S
C1364 C1363 1.349 . S
C1364 C1376 1.349 . S
C1365 C1363 1.327 . S
C1365 C1381 1.429 . S
C1365 H1387 0.950 . S
C1366 H1362 0.949 . S
C1366 C1374 1.574 . S
C1366 C1382 1.368 . S
H1367 C1375 0.950 . S
H1368 C1373 0.950 . S
H1369 C1374 0.949 . S
H1370 C1376 0.950 . S
H1371 C1377 0.950 . S
H1372 C1378 0.949 . S
C1373 H1368 0.950 . S
C1373 C1375 1.327 . S
C1373 C1379 1.429 . S
C1374 C1366 1.574 . S
C1374 H1369 0.949 . S
C1374 C1380 1.368 . S
C1375 C1359 1.349 . S
C1375 H1367 0.950 . S
C1375 C1373 1.327 . S
C1376 C1364 1.349 . S
C1376 H1370 0.950 . S
C1376 C1377 1.327 . S
C1377 H1371 0.950 . S
C1377 C1376 1.327 . S
C1377 C1381 1.429 . S
C1378 C1361 1.574 . S
C1378 H1372 0.949 . S
C1378 C1382 1.368 . S
C1379 C1360 1.429 . S
C1379 C1373 1.429 . S
C1379 C1380 1.523 . S
C1380 C1361 1.368 . S
C1380 C1374 1.368 . S
C1380 C1379 1.523 . S
C1381 C1365 1.429 . S
C1381 C1377 1.429 . S
C1381 C1382 1.523 . S
C1382 C1366 1.368 . S
C1382 C1378 1.368 . S
C1382 C1381 1.523 . S
H1383 C1358 0.950 . S
H1384 C1360 0.950 . S
H1385 C1361 0.949 . S
H1386 C1363 0.950 . S
H1387 C1365 0.950 . S
C1388 C1389 1.349 . S
C1388 C1390 1.327 . S
C1388 H1413 0.950 . S
C1389 C1388 1.349 . S
C1389 C1405 1.349 . S
C1390 C1388 1.327 . S
C1390 C1409 1.429 . S
C1390 H1414 0.950 . S
C1391 C1408 1.574 . S
C1391 C1410 1.368 . S
C1391 H1415 0.949 . S
H1392 C1396 0.949 . S
C1393 C1394 1.349 . S
C1393 C1395 1.327 . S
C1393 H1416 0.950 . S
C1394 C1393 1.349 . S
C1394 C1406 1.349 . S
C1395 C1393 1.327 . S
C1395 C1411 1.429 . S
C1395 H1417 0.950 . S
C1396 H1392 0.949 . S
C1396 C1404 1.574 . S
C1396 C1412 1.368 . S
H1397 C1405 0.950 . S
H1398 C1403 0.950 . S
H1399 C1404 0.949 . S
H1400 C1406 0.950 . S
H1401 C1407 0.950 . S
H1402 C1408 0.949 . S
C1403 H1398 0.950 . S
C1403 C1405 1.327 . S
C1403 C1409 1.429 . S
C1404 C1396 1.574 . S
C1404 H1399 0.949 . S
C1404 C1410 1.368 . S
C1405 C1389 1.349 . S
C1405 H1397 0.950 . S
C1405 C1403 1.327 . S
C1406 C1394 1.349 . S
C1406 H1400 0.950 . S
C1406 C1407 1.327 . S
C1407 H1401 0.950 . S
C1407 C1406 1.327 . S
C1407 C1411 1.429 . S
C1408 C1391 1.574 . S
C1408 H1402 0.949 . S
C1408 C1412 1.368 . S
C1409 C1390 1.429 . S
C1409 C1403 1.429 . S
C1409 C1410 1.523 . S
C1410 C1391 1.368 . S
C1410 C1404 1.368 . S
C1410 C1409 1.523 . S
C1411 C1395 1.429 . S
C1411 C1407 1.429 . S
C1411 C1412 1.523 . S
C1412 C1396 1.368 . S
C1412 C1408 1.368 . S
C1412 C1411 1.523 . S
H1413 C1388 0.950 . S
H1414 C1390 0.950 . S
H1415 C1391 0.949 . S
H1416 C1393 0.950 . S
H1417 C1395 0.950 . S
C1418 C1419 1.349 . S
C1418 C1420 1.327 . S
C1418 H1443 0.950 . S
C1419 C1418 1.349 . S
C1419 C1435 1.349 . S
C1420 C1418 1.327 . S
C1420 C1439 1.429 . S
C1420 H1444 0.950 . S
C1421 C1438 1.574 . S
C1421 C1440 1.368 . S
C1421 H1445 0.949 . S
H1422 C1426 0.949 . S
C1423 C1424 1.349 . S
C1423 C1425 1.327 . S
C1423 H1446 0.950 . S
C1424 C1423 1.349 . S
C1424 C1436 1.349 . S
C1425 C1423 1.327 . S
C1425 C1441 1.429 . S
C1425 H1447 0.950 . S
C1426 H1422 0.949 . S
C1426 C1434 1.574 . S
C1426 C1442 1.368 . S
H1427 C1435 0.950 . S
H1428 C1433 0.950 . S
H1429 C1434 0.949 . S
H1430 C1436 0.950 . S
H1431 C1437 0.950 . S
H1432 C1438 0.949 . S
C1433 H1428 0.950 . S
C1433 C1435 1.327 . S
C1433 C1439 1.429 . S
C1434 C1426 1.574 . S
C1434 H1429 0.949 . S
C1434 C1440 1.368 . S
C1435 C1419 1.349 . S
C1435 H1427 0.950 . S
C1435 C1433 1.327 . S
C1436 C1424 1.349 . S
C1436 H1430 0.950 . S
C1436 C1437 1.327 . S
C1437 H1431 0.950 . S
C1437 C1436 1.327 . S
C1437 C1441 1.429 . S
C1438 C1421 1.574 . S
C1438 H1432 0.949 . S
C1438 C1442 1.368 . S
C1439 C1420 1.429 . S
C1439 C1433 1.429 . S
C1439 C1440 1.523 . S
C1440 C1421 1.368 . S
C1440 C1434 1.368 . S
C1440 C1439 1.523 . S
C1441 C1425 1.429 . S
C1441 C1437 1.429 . S
C1441 C1442 1.523 . S
C1442 C1426 1.368 . S
C1442 C1438 1.368 . S
C1442 C1441 1.523 . S
H1443 C1418 0.950 . S
H1444 C1420 0.950 . S
H1445 C1421 0.949 . S
H1446 C1423 0.950 . S
H1447 C1425 0.950 . S
C1448 C1449 1.349 . S
C1448 C1450 1.327 . S
C1448 H1473 0.950 . S
C1449 C1448 1.349 . S
C1449 C1465 1.349 . S
C1450 C1448 1.327 . S
C1450 C1469 1.429 . S
C1450 H1474 0.950 . S
C1451 C1468 1.574 . S
C1451 C1470 1.368 . S
C1451 H1475 0.949 . S
H1452 C1456 0.949 . S
C1453 C1454 1.349 . S
C1453 C1455 1.327 . S
C1453 H1476 0.950 . S
C1454 C1453 1.349 . S
C1454 C1466 1.349 . S
C1455 C1453 1.327 . S
C1455 C1471 1.429 . S
C1455 H1477 0.950 . S
C1456 H1452 0.949 . S
C1456 C1464 1.574 . S
C1456 C1472 1.368 . S
H1457 C1465 0.950 . S
H1458 C1463 0.950 . S
H1459 C1464 0.949 . S
H1460 C1466 0.950 . S
H1461 C1467 0.950 . S
H1462 C1468 0.949 . S
C1463 H1458 0.950 . S
C1463 C1465 1.327 . S
C1463 C1469 1.429 . S
C1464 C1456 1.574 . S
C1464 H1459 0.949 . S
C1464 C1470 1.368 . S
C1465 C1449 1.349 . S
C1465 H1457 0.950 . S
C1465 C1463 1.327 . S
C1466 C1454 1.349 . S
C1466 H1460 0.950 . S
C1466 C1467 1.327 . S
C1467 H1461 0.950 . S
C1467 C1466 1.327 . S
C1467 C1471 1.429 . S
C1468 C1451 1.574 . S
C1468 H1462 0.949 . S
C1468 C1472 1.368 . S
C1469 C1450 1.429 . S
C1469 C1463 1.429 . S
C1469 C1470 1.523 . S
C1470 C1451 1.368 . S
C1470 C1464 1.368 . S
C1470 C1469 1.523 . S
C1471 C1455 1.429 . S
C1471 C1467 1.429 . S
C1471 C1472 1.523 . S
C1472 C1456 1.368 . S
C1472 C1468 1.368 . S
C1472 C1471 1.523 . S
H1473 C1448 0.950 . S
H1474 C1450 0.950 . S
H1475 C1451 0.949 . S
H1476 C1453 0.950 . S
H1477 C1455 0.950 . S
C1478 C1479 1.349 . S
C1478 C1480 1.327 . S
C1478 H1503 0.950 . S
C1479 C1478 1.349 . S
C1479 C1495 1.349 . S
C1480 C1478 1.327 . S
C1480 C1499 1.429 . S
C1480 H1504 0.950 . S
C1481 C1498 1.574 . S
C1481 C1500 1.368 . S
C1481 H1505 0.949 . S
H1482 C1486 0.949 . S
C1483 C1484 1.349 . S
C1483 C1485 1.327 . S
C1483 H1506 0.950 . S
C1484 C1483 1.349 . S
C1484 C1496 1.349 . S
C1485 C1483 1.327 . S
C1485 C1501 1.429 . S
C1485 H1507 0.950 . S
C1486 H1482 0.949 . S
C1486 C1494 1.574 . S
C1486 C1502 1.368 . S
H1487 C1495 0.950 . S
H1488 C1493 0.950 . S
H1489 C1494 0.949 . S
H1490 C1496 0.950 . S
H1491 C1497 0.950 . S
H1492 C1498 0.949 . S
C1493 H1488 0.950 . S
C1493 C1495 1.327 . S
C1493 C1499 1.429 . S
C1494 C1486 1.574 . S
C1494 H1489 0.949 . S
C1494 C1500 1.368 . S
C1495 C1479 1.349 . S
C1495 H1487 0.950 . S
C1495 C1493 1.327 . S
C1496 C1484 1.349 . S
C1496 H1490 0.950 . S
C1496 C1497 1.327 . S
C1497 H1491 0.950 . S
C1497 C1496 1.327 . S
C1497 C1501 1.429 . S
C1498 C1481 1.574 . S
C1498 H1492 0.949 . S
C1498 C1502 1.368 . S
C1499 C1480 1.429 . S
C1499 C1493 1.429 . S
C1499 C1500 1.523 . S
C1500 C1481 1.368 . S
C1500 C1494 1.368 . S
C1500 C1499 1.523 . S
C1501 C1485 1.429 . S
C1501 C1497 1.429 . S
C1501 C1502 1.523 . S
C1502 C1486 1.368 . S
C1502 C1498 1.368 . S
C1502 C1501 1.523 . S
H1503 C1478 0.950 . S
H1504 C1480 0.950 . S
H1505 C1481 0.949 . S
H1506 C1483 0.950 . S
H1507 C1485 0.950 . S
C1508 C1509 1.349 . S
C1508 C1510 1.327 . S
C1508 H1533 0.950 . S
C1509 C1508 1.349 . S
C1509 C1525 1.349 . S
C1510 C1508 1.327 . S
C1510 C1529 1.429 . S
C1510 H1534 0.950 . S
C1511 C1528 1.574 . S
C1511 C1530 1.368 . S
C1511 H1535 0.949 . S
H1512 C1516 0.949 . S
C1513 C1514 1.349 . S
C1513 C1515 1.327 . S
C1513 H1536 0.950 . S
C1514 C1513 1.349 . S
C1514 C1526 1.349 . S
C1515 C1513 1.327 . S
C1515 C1531 1.429 . S
C1515 H1537 0.950 . S
C1516 H1512 0.949 . S
C1516 C1524 1.574 . S
C1516 C1532 1.368 . S
H1517 C1525 0.950 . S
H1518 C1523 0.950 . S
H1519 C1524 0.949 . S
H1520 C1526 0.950 . S
H1521 C1527 0.950 . S
H1522 C1528 0.949 . S
C1523 H1518 0.950 . S
C1523 C1525 1.327 . S
C1523 C1529 1.429 . S
C1524 C1516 1.574 . S
C1524 H1519 0.949 . S
C1524 C1530 1.368 . S
C1525 C1509 1.349 . S
C1525 H1517 0.950 . S
C1525 C1523 1.327 . S
C1526 C1514 1.349 . S
C1526 H1520 0.950 . S
C1526 C1527 1.327 . S
C1527 H1521 0.950 . S
C1527 C1526 1.327 . S
C1527 C1531 1.429 . S
C1528 C1511 1.574 . S
C1528 H1522 0.949 . S
C1528 C1532 1.368 . S
C1529 C1510 1.429 . S
C1529 C1523 1.429 . S
C1529 C1530 1.523 . S
C1530 C1511 1.368 . S
C1530 C1524 1.368 . S
C1530 C1529 1.523 . S
C1531 C1515 1.429 . S
C1531 C1527 1.429 . S
C1531 C1532 1.523 . S
C1532 C1516 1.368 . S
C1532 C1528 1.368 . S
C1532 C1531 1.523 . S
H1533 C1508 0.950 . S
H1534 C1510 0.950 . S
H1535 C1511 0.949 . S
H1536 C1513 0.950 . S
H1537 C1515 0.950 . S
C1538 C1539 1.349 . S
C1538 C1540 1.327 . S
C1538 H1563 0.950 . S
C1539 C1538 1.349 . S
C1539 C1555 1.349 . S
C1540 C1538 1.327 . S
C1540 C1559 1.429 . S
C1540 H1564 0.950 . S
C1541 C1558 1.574 . S
C1541 C1560 1.368 . S
C1541 H1565 0.949 . S
H1542 C1546 0.949 . S
C1543 C1544 1.349 . S
C1543 C1545 1.327 . S
C1543 H1566 0.950 . S
C1544 C1543 1.349 . S
C1544 C1556 1.349 . S
C1545 C1543 1.327 . S
C1545 C1561 1.429 . S
C1545 H1567 0.950 . S
C1546 H1542 0.949 . S
C1546 C1554 1.574 . S
C1546 C1562 1.368 . S
H1547 C1555 0.950 . S
H1548 C1553 0.950 . S
H1549 C1554 0.949 . S
H1550 C1556 0.950 . S
H1551 C1557 0.950 . S
H1552 C1558 0.949 . S
C1553 H1548 0.950 . S
C1553 C1555 1.327 . S
C1553 C1559 1.429 . S
C1554 C1546 1.574 . S
C1554 H1549 0.949 . S
C1554 C1560 1.368 . S
C1555 C1539 1.349 . S
C1555 H1547 0.950 . S
C1555 C1553 1.327 . S
C1556 C1544 1.349 . S
C1556 H1550 0.950 . S
C1556 C1557 1.327 . S
C1557 H1551 0.950 . S
C1557 C1556 1.327 . S
C1557 C1561 1.429 . S
C1558 C1541 1.574 . S
C1558 H1552 0.949 . S
C1558 C1562 1.368 . S
C1559 C1540 1.429 . S
C1559 C1553 1.429 . S
C1559 C1560 1.523 . S
C1560 C1541 1.368 . S
C1560 C1554 1.368 . S
C1560 C1559 1.523 . S
C1561 C1545 1.429 . S
C1561 C1557 1.429 . S
C1561 C1562 1.523 . S
C1562 C1546 1.368 . S
C1562 C1558 1.368 . S
C1562 C1561 1.523 . S
H1563 C1538 0.950 . S
H1564 C1540 0.950 . S
H1565 C1541 0.949 . S
H1566 C1543 0.950 . S
H1567 C1545 0.950 . S
C1568 C1569 1.349 . S
C1568 C1570 1.327 . S
C1568 H1593 0.950 . S
C1569 C1568 1.349 . S
C1569 C1585 1.349 . S
C1570 C1568 1.327 . S
C1570 C1589 1.429 . S
C1570 H1594 0.950 . S
C1571 C1588 1.574 1_655 S
C1571 C1590 1.368 . S
C1571 H1595 0.949 . S
H1572 C1576 0.949 . S
C1573 C1574 1.349 . S
C1573 C1575 1.327 . S
C1573 H1596 0.950 . S
C1574 C1573 1.349 . S
C1574 C1586 1.349 . S
C1575 C1573 1.327 . S
C1575 C1591 1.429 . S
C1575 H1597 0.950 . S
C1576 H1572 0.949 . S
C1576 C1584 1.574 1_455 S
C1576 C1592 1.368 . S
H1577 C1585 0.950 . S
H1578 C1583 0.950 . S
H1579 C1584 0.949 . S
H1580 C1586 0.950 . S
H1581 C1587 0.950 . S
H1582 C1588 0.949 . S
C1583 H1578 0.950 . S
C1583 C1585 1.327 . S
C1583 C1589 1.429 . S
C1584 C1576 1.574 1_655 S
C1584 H1579 0.949 . S
C1584 C1590 1.368 . S
C1585 C1569 1.349 . S
C1585 H1577 0.950 . S
C1585 C1583 1.327 . S
C1586 C1574 1.349 . S
C1586 H1580 0.950 . S
C1586 C1587 1.327 . S
C1587 H1581 0.950 . S
C1587 C1586 1.327 . S
C1587 C1591 1.429 . S
C1588 C1571 1.574 1_455 S
C1588 H1582 0.949 . S
C1588 C1592 1.368 . S
C1589 C1570 1.429 . S
C1589 C1583 1.429 . S
C1589 C1590 1.523 . S
C1590 C1571 1.368 . S
C1590 C1584 1.368 . S
C1590 C1589 1.523 . S
C1591 C1575 1.429 . S
C1591 C1587 1.429 . S
C1591 C1592 1.523 . S
C1592 C1576 1.368 . S
C1592 C1588 1.368 . S
C1592 C1591 1.523 . S
H1593 C1568 0.950 . S
H1594 C1570 0.950 . S
H1595 C1571 0.949 . S
H1596 C1573 0.950 . S
H1597 C1575 0.950 . S
C1598 C1599 1.349 . S
C1598 C1600 1.327 . S
C1598 H1623 0.950 . S
C1599 C1598 1.349 . S
C1599 C1615 1.349 . S
C1600 C1598 1.327 . S
C1600 C1619 1.429 . S
C1600 H1624 0.950 . S
C1601 C1618 1.574 . S
C1601 C1620 1.368 . S
C1601 H1625 0.949 . S
H1602 C1606 0.949 . S
C1603 C1604 1.349 . S
C1603 C1605 1.327 . S
C1603 H1626 0.950 . S
C1604 C1603 1.349 . S
C1604 C1616 1.349 . S
C1605 C1603 1.327 . S
C1605 C1621 1.429 . S
C1605 H1627 0.950 . S
C1606 H1602 0.949 . S
C1606 C1614 1.574 . S
C1606 C1622 1.368 . S
H1607 C1615 0.950 . S
H1608 C1613 0.950 . S
H1609 C1614 0.949 . S
H1610 C1616 0.950 . S
H1611 C1617 0.950 . S
H1612 C1618 0.949 . S
C1613 H1608 0.950 . S
C1613 C1615 1.327 . S
C1613 C1619 1.429 . S
C1614 C1606 1.574 . S
C1614 H1609 0.949 . S
C1614 C1620 1.368 1_455 S
C1615 C1599 1.349 . S
C1615 H1607 0.950 . S
C1615 C1613 1.327 . S
C1616 C1604 1.349 . S
C1616 H1610 0.950 . S
C1616 C1617 1.327 . S
C1617 H1611 0.950 . S
C1617 C1616 1.327 . S
C1617 C1621 1.429 . S
C1618 C1601 1.574 . S
C1618 H1612 0.949 . S
C1618 C1622 1.368 1_655 S
C1619 C1600 1.429 . S
C1619 C1613 1.429 . S
C1619 C1620 1.523 . S
C1620 C1601 1.368 . S
C1620 C1614 1.368 1_655 S
C1620 C1619 1.523 . S
C1621 C1605 1.429 . S
C1621 C1617 1.429 . S
C1621 C1622 1.523 . S
C1622 C1606 1.368 . S
C1622 C1618 1.368 1_455 S
C1622 C1621 1.523 . S
H1623 C1598 0.950 . S
H1624 C1600 0.950 . S
H1625 C1601 0.949 . S
H1626 C1603 0.950 . S
H1627 C1605 0.950 . S
C1628 C1629 1.349 . S
C1628 C1630 1.327 . S
C1628 H1653 0.950 . S
C1629 C1628 1.349 . S
C1629 C1645 1.349 . S
C1630 C1628 1.327 . S
C1630 C1649 1.429 . S
C1630 H1654 0.950 . S
C1631 C1648 1.574 . S
C1631 C1650 1.368 . S
C1631 H1655 0.949 . S
H1632 C1636 0.949 . S
C1633 C1634 1.349 . S
C1633 C1635 1.327 . S
C1633 H1656 0.950 . S
C1634 C1633 1.349 . S
C1634 C1646 1.349 . S
C1635 C1633 1.327 . S
C1635 C1651 1.429 . S
C1635 H1657 0.950 . S
C1636 H1632 0.949 . S
C1636 C1644 1.574 . S
C1636 C1652 1.368 . S
H1637 C1645 0.950 . S
H1638 C1643 0.950 . S
H1639 C1644 0.949 . S
H1640 C1646 0.950 . S
H1641 C1647 0.950 . S
H1642 C1648 0.949 . S
C1643 H1638 0.950 . S
C1643 C1645 1.327 . S
C1643 C1649 1.429 . S
C1644 C1636 1.574 . S
C1644 H1639 0.949 . S
C1644 C1650 1.368 . S
C1645 C1629 1.349 . S
C1645 H1637 0.950 . S
C1645 C1643 1.327 . S
C1646 C1634 1.349 . S
C1646 H1640 0.950 . S
C1646 C1647 1.327 . S
C1647 H1641 0.950 . S
C1647 C1646 1.327 . S
C1647 C1651 1.429 . S
C1648 C1631 1.574 . S
C1648 H1642 0.949 . S
C1648 C1652 1.368 . S
C1649 C1630 1.429 . S
C1649 C1643 1.429 . S
C1649 C1650 1.523 . S
C1650 C1631 1.368 . S
C1650 C1644 1.368 . S
C1650 C1649 1.523 . S
C1651 C1635 1.429 . S
C1651 C1647 1.429 . S
C1651 C1652 1.523 . S
C1652 C1636 1.368 . S
C1652 C1648 1.368 . S
C1652 C1651 1.523 . S
H1653 C1628 0.950 . S
H1654 C1630 0.950 . S
H1655 C1631 0.949 . S
H1656 C1633 0.950 . S
H1657 C1635 0.950 . S
C1658 C1659 1.349 . S
C1658 C1660 1.327 . S
C1658 H1683 0.950 . S
C1659 C1658 1.349 . S
C1659 C1675 1.349 . S
C1660 C1658 1.327 . S
C1660 C1679 1.429 . S
C1660 H1684 0.950 . S
C1661 C1678 1.574 . S
C1661 C1680 1.368 . S
C1661 H1685 0.949 . S
H1662 C1666 0.949 . S
C1663 C1664 1.349 . S
C1663 C1665 1.327 . S
C1663 H1686 0.950 . S
C1664 C1663 1.349 . S
C1664 C1676 1.349 . S
C1665 C1663 1.327 . S
C1665 C1681 1.429 . S
C1665 H1687 0.950 . S
C1666 H1662 0.949 . S
C1666 C1674 1.574 . S
C1666 C1682 1.368 . S
H1667 C1675 0.950 . S
H1668 C1673 0.950 . S
H1669 C1674 0.949 . S
H1670 C1676 0.950 . S
H1671 C1677 0.950 . S
H1672 C1678 0.949 . S
C1673 H1668 0.950 . S
C1673 C1675 1.327 . S
C1673 C1679 1.429 . S
C1674 C1666 1.574 . S
C1674 H1669 0.949 . S
C1674 C1680 1.368 . S
C1675 C1659 1.349 . S
C1675 H1667 0.950 . S
C1675 C1673 1.327 . S
C1676 C1664 1.349 . S
C1676 H1670 0.950 . S
C1676 C1677 1.327 . S
C1677 H1671 0.950 . S
C1677 C1676 1.327 . S
C1677 C1681 1.429 . S
C1678 C1661 1.574 . S
C1678 H1672 0.949 . S
C1678 C1682 1.368 . S
C1679 C1660 1.429 . S
C1679 C1673 1.429 . S
C1679 C1680 1.523 . S
C1680 C1661 1.368 . S
C1680 C1674 1.368 . S
C1680 C1679 1.523 . S
C1681 C1665 1.429 . S
C1681 C1677 1.429 . S
C1681 C1682 1.523 . S
C1682 C1666 1.368 . S
C1682 C1678 1.368 . S
C1682 C1681 1.523 . S
H1683 C1658 0.950 . S
H1684 C1660 0.950 . S
H1685 C1661 0.949 . S
H1686 C1663 0.950 . S
H1687 C1665 0.950 . S
C1688 C1689 1.349 . S
C1688 C1690 1.327 . S
C1688 H1713 0.950 . S
C1689 C1688 1.349 . S
C1689 C1705 1.349 . S
C1690 C1688 1.327 . S
C1690 C1709 1.429 . S
C1690 H1714 0.950 . S
C1691 C1708 1.574 1_655 S
C1691 C1710 1.368 . S
C1691 H1715 0.949 . S
H1692 C1696 0.949 . S
C1693 C1694 1.349 . S
C1693 C1695 1.327 . S
C1693 H1716 0.950 . S
C1694 C1693 1.349 . S
C1694 C1706 1.349 . S
C1695 C1693 1.327 . S
C1695 C1711 1.429 . S
C1695 H1717 0.950 . S
C1696 H1692 0.949 . S
C1696 C1704 1.574 1_455 S
C1696 C1712 1.368 . S
H1697 C1705 0.950 . S
H1698 C1703 0.950 . S
H1699 C1704 0.949 . S
H1700 C1706 0.950 . S
H1701 C1707 0.950 . S
H1702 C1708 0.949 . S
C1703 H1698 0.950 . S
C1703 C1705 1.327 . S
C1703 C1709 1.429 . S
C1704 C1696 1.574 1_655 S
C1704 H1699 0.949 . S
C1704 C1710 1.368 . S
C1705 C1689 1.349 . S
C1705 H1697 0.950 . S
C1705 C1703 1.327 . S
C1706 C1694 1.349 . S
C1706 H1700 0.950 . S
C1706 C1707 1.327 . S
C1707 H1701 0.950 . S
C1707 C1706 1.327 . S
C1707 C1711 1.429 . S
C1708 C1691 1.574 1_455 S
C1708 H1702 0.949 . S
C1708 C1712 1.368 . S
C1709 C1690 1.429 . S
C1709 C1703 1.429 . S
C1709 C1710 1.523 . S
C1710 C1691 1.368 . S
C1710 C1704 1.368 . S
C1710 C1709 1.523 . S
C1711 C1695 1.429 . S
C1711 C1707 1.429 . S
C1711 C1712 1.523 . S
C1712 C1696 1.368 . S
C1712 C1708 1.368 . S
C1712 C1711 1.523 . S
H1713 C1688 0.950 . S
H1714 C1690 0.950 . S
H1715 C1691 0.949 . S
H1716 C1693 0.950 . S
H1717 C1695 0.950 . S
C1718 C1719 1.349 . S
C1718 C1720 1.327 . S
C1718 H1743 0.950 . S
C1719 C1718 1.349 . S
C1719 C1735 1.349 . S
C1720 C1718 1.327 . S
C1720 C1739 1.429 . S
C1720 H1744 0.950 . S
C1721 C1738 1.574 . S
C1721 C1740 1.368 . S
C1721 H1745 0.949 . S
H1722 C1726 0.949 . S
C1723 C1724 1.349 . S
C1723 C1725 1.327 . S
C1723 H1746 0.950 . S
C1724 C1723 1.349 . S
C1724 C1736 1.349 . S
C1725 C1723 1.327 . S
C1725 C1741 1.429 . S
C1725 H1747 0.950 . S
C1726 H1722 0.949 . S
C1726 C1734 1.574 . S
C1726 C1742 1.368 . S
H1727 C1735 0.950 . S
H1728 C1733 0.950 . S
H1729 C1734 0.949 . S
H1730 C1736 0.950 . S
H1731 C1737 0.950 . S
H1732 C1738 0.949 . S
C1733 H1728 0.950 . S
C1733 C1735 1.327 . S
C1733 C1739 1.429 . S
C1734 C1726 1.574 . S
C1734 H1729 0.949 . S
C1734 C1740 1.368 . S
C1735 C1719 1.349 . S
C1735 H1727 0.950 . S
C1735 C1733 1.327 . S
C1736 C1724 1.349 . S
C1736 H1730 0.950 . S
C1736 C1737 1.327 . S
C1737 H1731 0.950 . S
C1737 C1736 1.327 . S
C1737 C1741 1.429 . S
C1738 C1721 1.574 . S
C1738 H1732 0.949 . S
C1738 C1742 1.368 . S
C1739 C1720 1.429 . S
C1739 C1733 1.429 . S
C1739 C1740 1.523 . S
C1740 C1721 1.368 . S
C1740 C1734 1.368 . S
C1740 C1739 1.523 . S
C1741 C1725 1.429 . S
C1741 C1737 1.429 . S
C1741 C1742 1.523 . S
C1742 C1726 1.368 . S
C1742 C1738 1.368 . S
C1742 C1741 1.523 . S
H1743 C1718 0.950 . S
H1744 C1720 0.950 . S
H1745 C1721 0.949 . S
H1746 C1723 0.950 . S
H1747 C1725 0.950 . S
C1748 C1749 1.349 . S
C1748 C1750 1.327 . S
C1748 H1773 0.950 . S
C1749 C1748 1.349 . S
C1749 C1765 1.349 . S
C1750 C1748 1.327 . S
C1750 C1769 1.429 . S
C1750 H1774 0.950 . S
C1751 C1768 1.574 . S
C1751 C1770 1.368 . S
C1751 H1775 0.949 . S
H1752 C1756 0.949 . S
C1753 C1754 1.349 . S
C1753 C1755 1.327 . S
C1753 H1776 0.950 . S
C1754 C1753 1.349 . S
C1754 C1766 1.349 . S
C1755 C1753 1.327 . S
C1755 C1771 1.429 . S
C1755 H1777 0.950 . S
C1756 H1752 0.949 . S
C1756 C1764 1.574 . S
C1756 C1772 1.368 . S
H1757 C1765 0.950 . S
H1758 C1763 0.950 . S
H1759 C1764 0.949 . S
H1760 C1766 0.950 . S
H1761 C1767 0.950 . S
H1762 C1768 0.949 . S
C1763 H1758 0.950 . S
C1763 C1765 1.327 . S
C1763 C1769 1.429 . S
C1764 C1756 1.574 . S
C1764 H1759 0.949 . S
C1764 C1770 1.368 . S
C1765 C1749 1.349 . S
C1765 H1757 0.950 . S
C1765 C1763 1.327 . S
C1766 C1754 1.349 . S
C1766 H1760 0.950 . S
C1766 C1767 1.327 . S
C1767 H1761 0.950 . S
C1767 C1766 1.327 . S
C1767 C1771 1.429 . S
C1768 C1751 1.574 . S
C1768 H1762 0.949 . S
C1768 C1772 1.368 . S
C1769 C1750 1.429 . S
C1769 C1763 1.429 . S
C1769 C1770 1.523 . S
C1770 C1751 1.368 . S
C1770 C1764 1.368 . S
C1770 C1769 1.523 . S
C1771 C1755 1.429 . S
C1771 C1767 1.429 . S
C1771 C1772 1.523 . S
C1772 C1756 1.368 . S
C1772 C1768 1.368 . S
C1772 C1771 1.523 . S
H1773 C1748 0.950 . S
H1774 C1750 0.950 . S
H1775 C1751 0.949 . S
H1776 C1753 0.950 . S
H1777 C1755 0.950 . S
C1778 C1779 1.349 . S
C1778 C1780 1.327 . S
C1778 H1803 0.950 . S
C1779 C1778 1.349 . S
C1779 C1795 1.349 . S
C1780 C1778 1.327 . S
C1780 C1799 1.429 . S
C1780 H1804 0.950 . S
C1781 C1798 1.574 . S
C1781 C1800 1.368 . S
C1781 H1805 0.949 . S
H1782 C1786 0.949 . S
C1783 C1784 1.349 . S
C1783 C1785 1.327 . S
C1783 H1806 0.950 . S
C1784 C1783 1.349 . S
C1784 C1796 1.349 . S
C1785 C1783 1.327 . S
C1785 C1801 1.429 . S
C1785 H1807 0.950 . S
C1786 H1782 0.949 . S
C1786 C1794 1.574 . S
C1786 C1802 1.368 . S
H1787 C1795 0.950 . S
H1788 C1793 0.950 . S
H1789 C1794 0.949 . S
H1790 C1796 0.950 . S
H1791 C1797 0.950 . S
H1792 C1798 0.949 . S
C1793 H1788 0.950 . S
C1793 C1795 1.327 . S
C1793 C1799 1.429 . S
C1794 C1786 1.574 . S
C1794 H1789 0.949 . S
C1794 C1800 1.368 1_655 S
C1795 C1779 1.349 . S
C1795 H1787 0.950 . S
C1795 C1793 1.327 . S
C1796 C1784 1.349 . S
C1796 H1790 0.950 . S
C1796 C1797 1.327 . S
C1797 H1791 0.950 . S
C1797 C1796 1.327 . S
C1797 C1801 1.429 . S
C1798 C1781 1.574 . S
C1798 H1792 0.949 . S
C1798 C1802 1.368 1_455 S
C1799 C1780 1.429 . S
C1799 C1793 1.429 . S
C1799 C1800 1.523 . S
C1800 C1781 1.368 . S
C1800 C1794 1.368 1_455 S
C1800 C1799 1.523 . S
C1801 C1785 1.429 . S
C1801 C1797 1.429 . S
C1801 C1802 1.523 . S
C1802 C1786 1.368 . S
C1802 C1798 1.368 1_655 S
C1802 C1801 1.523 . S
H1803 C1778 0.950 . S
H1804 C1780 0.950 . S
H1805 C1781 0.949 . S
H1806 C1783 0.950 . S
H1807 C1785 0.950 . S
C1808 C1809 1.349 . S
C1808 C1810 1.327 . S
C1808 H1833 0.950 . S
C1809 C1808 1.349 . S
C1809 C1825 1.349 . S
C1810 C1808 1.327 . S
C1810 C1829 1.429 . S
C1810 H1834 0.950 . S
C1811 C1828 1.574 1_655 S
C1811 C1830 1.368 . S
C1811 H1835 0.949 . S
H1812 C1816 0.949 . S
C1813 C1814 1.349 . S
C1813 C1815 1.327 . S
C1813 H1836 0.950 . S
C1814 C1813 1.349 . S
C1814 C1826 1.349 . S
C1815 C1813 1.327 . S
C1815 C1831 1.429 . S
C1815 H1837 0.950 . S
C1816 H1812 0.949 . S
C1816 C1824 1.574 1_455 S
C1816 C1832 1.368 . S
H1817 C1825 0.950 . S
H1818 C1823 0.950 . S
H1819 C1824 0.949 . S
H1820 C1826 0.950 . S
H1821 C1827 0.950 . S
H1822 C1828 0.949 . S
C1823 H1818 0.950 . S
C1823 C1825 1.327 . S
C1823 C1829 1.429 . S
C1824 C1816 1.574 1_655 S
C1824 H1819 0.949 . S
C1824 C1830 1.368 . S
C1825 C1809 1.349 . S
C1825 H1817 0.950 . S
C1825 C1823 1.327 . S
C1826 C1814 1.349 . S
C1826 H1820 0.950 . S
C1826 C1827 1.327 . S
C1827 H1821 0.950 . S
C1827 C1826 1.327 . S
C1827 C1831 1.429 . S
C1828 C1811 1.574 1_455 S
C1828 H1822 0.949 . S
C1828 C1832 1.368 . S
C1829 C1810 1.429 . S
C1829 C1823 1.429 . S
C1829 C1830 1.523 . S
C1830 C1811 1.368 . S
C1830 C1824 1.368 . S
C1830 C1829 1.523 . S
C1831 C1815 1.429 . S
C1831 C1827 1.429 . S
C1831 C1832 1.523 . S
C1832 C1816 1.368 . S
C1832 C1828 1.368 . S
C1832 C1831 1.523 . S
H1833 C1808 0.950 . S
H1834 C1810 0.950 . S
H1835 C1811 0.949 . S
H1836 C1813 0.950 . S
H1837 C1815 0.950 . S
C1838 C1839 1.349 . S
C1838 C1840 1.327 . S
C1838 H1863 0.950 . S
C1839 C1838 1.349 . S
C1839 C1855 1.349 . S
C1840 C1838 1.327 . S
C1840 C1859 1.429 . S
C1840 H1864 0.950 . S
C1841 C1858 1.574 . S
C1841 C1860 1.368 1_655 S
C1841 H1865 0.949 . S
H1842 C1846 0.949 . S
C1843 C1844 1.349 . S
C1843 C1845 1.327 . S
C1843 H1866 0.950 . S
C1844 C1843 1.349 . S
C1844 C1856 1.349 . S
C1845 C1843 1.327 . S
C1845 C1861 1.429 . S
C1845 H1867 0.950 . S
C1846 H1842 0.949 . S
C1846 C1854 1.574 . S
C1846 C1862 1.368 1_455 S
H1847 C1855 0.950 . S
H1848 C1853 0.950 . S
H1849 C1854 0.949 . S
H1850 C1856 0.950 . S
H1851 C1857 0.950 . S
H1852 C1858 0.949 . S
C1853 H1848 0.950 . S
C1853 C1855 1.327 . S
C1853 C1859 1.429 . S
C1854 C1846 1.574 . S
C1854 H1849 0.949 . S
C1854 C1860 1.368 . S
C1855 C1839 1.349 . S
C1855 H1847 0.950 . S
C1855 C1853 1.327 . S
C1856 C1844 1.349 . S
C1856 H1850 0.950 . S
C1856 C1857 1.327 . S
C1857 H1851 0.950 . S
C1857 C1856 1.327 . S
C1857 C1861 1.429 . S
C1858 C1841 1.574 . S
C1858 H1852 0.949 . S
C1858 C1862 1.368 . S
C1859 C1840 1.429 . S
C1859 C1853 1.429 . S
C1859 C1860 1.523 . S
C1860 C1841 1.368 1_455 S
C1860 C1854 1.368 . S
C1860 C1859 1.523 . S
C1861 C1845 1.429 . S
C1861 C1857 1.429 . S
C1861 C1862 1.523 . S
C1862 C1846 1.368 1_655 S
C1862 C1858 1.368 . S
C1862 C1861 1.523 . S
H1863 C1838 0.950 . S
H1864 C1840 0.950 . S
H1865 C1841 0.949 . S
H1866 C1843 0.950 . S
H1867 C1845 0.950 . S
C1868 C1869 1.349 . S
C1868 C1870 1.327 . S
C1868 H1893 0.950 . S
C1869 C1868 1.349 . S
C1869 C1885 1.349 . S
C1870 C1868 1.327 . S
C1870 C1889 1.429 . S
C1870 H1894 0.950 . S
C1871 C1888 1.574 . S
C1871 C1890 1.368 . S
C1871 H1895 0.949 . S
H1872 C1876 0.949 . S
C1873 C1874 1.349 . S
C1873 C1875 1.327 . S
C1873 H1896 0.950 . S
C1874 C1873 1.349 . S
C1874 C1886 1.349 . S
C1875 C1873 1.327 . S
C1875 C1891 1.429 . S
C1875 H1897 0.950 . S
C1876 H1872 0.949 . S
C1876 C1884 1.574 . S
C1876 C1892 1.368 . S
H1877 C1885 0.950 . S
H1878 C1883 0.950 . S
H1879 C1884 0.949 . S
H1880 C1886 0.950 . S
H1881 C1887 0.950 . S
H1882 C1888 0.949 . S
C1883 H1878 0.950 . S
C1883 C1885 1.327 . S
C1883 C1889 1.429 . S
C1884 C1876 1.574 . S
C1884 H1879 0.949 . S
C1884 C1890 1.368 . S
C1885 C1869 1.349 . S
C1885 H1877 0.950 . S
C1885 C1883 1.327 . S
C1886 C1874 1.349 . S
C1886 H1880 0.950 . S
C1886 C1887 1.327 . S
C1887 H1881 0.950 . S
C1887 C1886 1.327 . S
C1887 C1891 1.429 . S
C1888 C1871 1.574 . S
C1888 H1882 0.949 . S
C1888 C1892 1.368 . S
C1889 C1870 1.429 . S
C1889 C1883 1.429 . S
C1889 C1890 1.523 . S
C1890 C1871 1.368 . S
C1890 C1884 1.368 . S
C1890 C1889 1.523 . S
C1891 C1875 1.429 . S
C1891 C1887 1.429 . S
C1891 C1892 1.523 . S
C1892 C1876 1.368 . S
C1892 C1888 1.368 . S
C1892 C1891 1.523 . S
H1893 C1868 0.950 . S
H1894 C1870 0.950 . S
H1895 C1871 0.949 . S
H1896 C1873 0.950 . S
H1897 C1875 0.950 . S
C1898 C1899 1.349 . S
C1898 C1900 1.327 . S
C1898 H1923 0.950 . S
C1899 C1898 1.349 . S
C1899 C1915 1.349 . S
C1900 C1898 1.327 . S
C1900 C1919 1.429 . S
C1900 H1924 0.950 . S
C1901 C1918 1.574 . S
C1901 C1920 1.368 . S
C1901 H1925 0.949 . S
H1902 C1906 0.949 . S
C1903 C1904 1.349 . S
C1903 C1905 1.327 . S
C1903 H1926 0.950 . S
C1904 C1903 1.349 . S
C1904 C1916 1.349 . S
C1905 C1903 1.327 . S
C1905 C1921 1.429 . S
C1905 H1927 0.950 . S
C1906 H1902 0.949 . S
C1906 C1914 1.574 . S
C1906 C1922 1.368 . S
H1907 C1915 0.950 . S
H1908 C1913 0.950 . S
H1909 C1914 0.949 . S
H1910 C1916 0.950 . S
H1911 C1917 0.950 . S
H1912 C1918 0.949 . S
C1913 H1908 0.950 . S
C1913 C1915 1.327 . S
C1913 C1919 1.429 . S
C1914 C1906 1.574 . S
C1914 H1909 0.949 . S
C1914 C1920 1.368 . S
C1915 C1899 1.349 . S
C1915 H1907 0.950 . S
C1915 C1913 1.327 . S
C1916 C1904 1.349 . S
C1916 H1910 0.950 . S
C1916 C1917 1.327 . S
C1917 H1911 0.950 . S
C1917 C1916 1.327 . S
C1917 C1921 1.429 . S
C1918 C1901 1.574 . S
C1918 H1912 0.949 . S
C1918 C1922 1.368 . S
C1919 C1900 1.429 . S
C1919 C1913 1.429 . S
C1919 C1920 1.523 . S
C1920 C1901 1.368 . S
C1920 C1914 1.368 . S
C1920 C1919 1.523 . S
C1921 C1905 1.429 . S
C1921 C1917 1.429 . S
C1921 C1922 1.523 . S
C1922 C1906 1.368 . S
C1922 C1918 1.368 . S
C1922 C1921 1.523 . S
H1923 C1898 0.950 . S
H1924 C1900 0.950 . S
H1925 C1901 0.949 . S
H1926 C1903 0.950 . S
H1927 C1905 0.950 . S
C1928 C1929 1.349 . S
C1928 C1930 1.327 . S
C1928 H1953 0.950 . S
C1929 C1928 1.349 . S
C1929 C1945 1.349 . S
C1930 C1928 1.327 . S
C1930 C1949 1.429 . S
C1930 H1954 0.950 . S
C1931 C1948 1.574 1_655 S
C1931 C1950 1.368 . S
C1931 H1955 0.949 . S
H1932 C1936 0.949 . S
C1933 C1934 1.349 . S
C1933 C1935 1.327 . S
C1933 H1956 0.950 . S
C1934 C1933 1.349 . S
C1934 C1946 1.349 . S
C1935 C1933 1.327 . S
C1935 C1951 1.429 . S
C1935 H1957 0.950 . S
C1936 H1932 0.949 . S
C1936 C1944 1.574 1_455 S
C1936 C1952 1.368 . S
H1937 C1945 0.950 . S
H1938 C1943 0.950 . S
H1939 C1944 0.949 . S
H1940 C1946 0.950 . S
H1941 C1947 0.950 . S
H1942 C1948 0.949 . S
C1943 H1938 0.950 . S
C1943 C1945 1.327 . S
C1943 C1949 1.429 . S
C1944 C1936 1.574 1_655 S
C1944 H1939 0.949 . S
C1944 C1950 1.368 . S
C1945 C1929 1.349 . S
C1945 H1937 0.950 . S
C1945 C1943 1.327 . S
C1946 C1934 1.349 . S
C1946 H1940 0.950 . S
C1946 C1947 1.327 . S
C1947 H1941 0.950 . S
C1947 C1946 1.327 . S
C1947 C1951 1.429 . S
C1948 C1931 1.574 1_455 S
C1948 H1942 0.949 . S
C1948 C1952 1.368 . S
C1949 C1930 1.429 . S
C1949 C1943 1.429 . S
C1949 C1950 1.523 . S
C1950 C1931 1.368 . S
C1950 C1944 1.368 . S
C1950 C1949 1.523 . S
C1951 C1935 1.429 . S
C1951 C1947 1.429 . S
C1951 C1952 1.523 . S
C1952 C1936 1.368 . S
C1952 C1948 1.368 . S
C1952 C1951 1.523 . S
H1953 C1928 0.950 . S
H1954 C1930 0.950 . S
H1955 C1931 0.949 . S
H1956 C1933 0.950 . S
H1957 C1935 0.950 . S
C1958 C1959 1.349 . S
C1958 C1960 1.327 . S
C1958 H1983 0.950 . S
C1959 C1958 1.349 . S
C1959 C1975 1.349 . S
C1960 C1958 1.327 . S
C1960 C1979 1.429 . S
C1960 H1984 0.950 . S
C1961 C1978 1.574 . S
C1961 C1980 1.368 . S
C1961 H1985 0.949 . S
H1962 C1966 0.949 . S
C1963 C1964 1.349 . S
C1963 C1965 1.327 . S
C1963 H1986 0.950 . S
C1964 C1963 1.349 . S
C1964 C1976 1.349 . S
C1965 C1963 1.327 . S
C1965 C1981 1.429 . S
C1965 H1987 0.950 . S
C1966 H1962 0.949 . S
C1966 C1974 1.574 . S
C1966 C1982 1.368 . S
H1967 C1975 0.950 . S
H1968 C1973 0.950 . S
H1969 C1974 0.949 . S
H1970 C1976 0.950 . S
H1971 C1977 0.950 . S
H1972 C1978 0.949 . S
C1973 H1968 0.950 . S
C1973 C1975 1.327 . S
C1973 C1979 1.429 . S
C1974 C1966 1.574 . S
C1974 H1969 0.949 . S
C1974 C1980 1.368 . S
C1975 C1959 1.349 . S
C1975 H1967 0.950 . S
C1975 C1973 1.327 . S
C1976 C1964 1.349 . S
C1976 H1970 0.950 . S
C1976 C1977 1.327 . S
C1977 H1971 0.950 . S
C1977 C1976 1.327 . S
C1977 C1981 1.429 . S
C1978 C1961 1.574 . S
C1978 H1972 0.949 . S
C1978 C1982 1.368 . S
C1979 C1960 1.429 . S
C1979 C1973 1.429 . S
C1979 C1980 1.523 . S
C1980 C1961 1.368 . S
C1980 C1974 1.368 . S
C1980 C1979 1.523 . S
C1981 C1965 1.429 . S
C1981 C1977 1.429 . S
C1981 C1982 1.523 . S
C1982 C1966 1.368 . S
C1982 C1978 1.368 . S
C1982 C1981 1.523 . S
H1983 C1958 0.950 . S
H1984 C1960 0.950 . S
H1985 C1961 0.949 . S
H1986 C1963 0.950 . S
H1987 C1965 0.950 . S
C1988 C1989 1.349 . S
C1988 C1990 1.327 . S
C1988 H2013 0.950 . S
C1989 C1988 1.349 . S
C1989 C2005 1.349 . S
C1990 C1988 1.327 . S
C1990 C2009 1.429 . S
C1990 H2014 0.950 . S
C1991 C2008 1.574 . S
C1991 C2010 1.368 . S
C1991 H2015 0.949 . S
H1992 C1996 0.949 . S
C1993 C1994 1.349 . S
C1993 C1995 1.327 . S
C1993 H2016 0.950 . S
C1994 C1993 1.349 . S
C1994 C2006 1.349 . S
C1995 C1993 1.327 . S
C1995 C2011 1.429 . S
C1995 H2017 0.950 . S
C1996 H1992 0.949 . S
C1996 C2004 1.574 . S
C1996 C2012 1.368 . S
H1997 C2005 0.950 . S
H1998 C2003 0.950 . S
H1999 C2004 0.949 . S
H2000 C2006 0.950 . S
H2001 C2007 0.950 . S
H2002 C2008 0.949 . S
C2003 H1998 0.950 . S
C2003 C2005 1.327 . S
C2003 C2009 1.429 . S
C2004 C1996 1.574 . S
C2004 H1999 0.949 . S
C2004 C2010 1.368 . S
C2005 C1989 1.349 . S
C2005 H1997 0.950 . S
C2005 C2003 1.327 . S
C2006 C1994 1.349 . S
C2006 H2000 0.950 . S
C2006 C2007 1.327 . S
C2007 H2001 0.950 . S
C2007 C2006 1.327 . S
C2007 C2011 1.429 . S
C2008 C1991 1.574 . S
C2008 H2002 0.949 . S
C2008 C2012 1.368 . S
C2009 C1990 1.429 . S
C2009 C2003 1.429 . S
C2009 C2010 1.523 . S
C2010 C1991 1.368 . S
C2010 C2004 1.368 . S
C2010 C2009 1.523 . S
C2011 C1995 1.429 . S
C2011 C2007 1.429 . S
C2011 C2012 1.523 . S
C2012 C1996 1.368 . S
C2012 C2008 1.368 . S
C2012 C2011 1.523 . S
H2013 C1988 0.950 . S
H2014 C1990 0.950 . S
H2015 C1991 0.949 . S
H2016 C1993 0.950 . S
H2017 C1995 0.950 . S
C2018 C2019 1.349 . S
C2018 C2020 1.327 . S
C2018 H2043 0.950 . S
C2019 C2018 1.349 . S
C2019 C2035 1.349 . S
C2020 C2018 1.327 . S
C2020 C2039 1.429 . S
C2020 H2044 0.950 . S
C2021 C2038 1.574 . S
C2021 C2040 1.368 . S
C2021 H2045 0.949 . S
H2022 C2026 0.949 . S
C2023 C2024 1.349 . S
C2023 C2025 1.327 . S
C2023 H2046 0.950 . S
C2024 C2023 1.349 . S
C2024 C2036 1.349 . S
C2025 C2023 1.327 . S
C2025 C2041 1.429 . S
C2025 H2047 0.950 . S
C2026 H2022 0.949 . S
C2026 C2034 1.574 . S
C2026 C2042 1.368 . S
H2027 C2035 0.950 . S
H2028 C2033 0.950 . S
H2029 C2034 0.949 . S
H2030 C2036 0.950 . S
H2031 C2037 0.950 . S
H2032 C2038 0.949 . S
C2033 H2028 0.950 . S
C2033 C2035 1.327 . S
C2033 C2039 1.429 . S
C2034 C2026 1.574 . S
C2034 H2029 0.949 . S
C2034 C2040 1.368 1_655 S
C2035 C2019 1.349 . S
C2035 H2027 0.950 . S
C2035 C2033 1.327 . S
C2036 C2024 1.349 . S
C2036 H2030 0.950 . S
C2036 C2037 1.327 . S
C2037 H2031 0.950 . S
C2037 C2036 1.327 . S
C2037 C2041 1.429 . S
C2038 C2021 1.574 . S
C2038 H2032 0.949 . S
C2038 C2042 1.368 1_455 S
C2039 C2020 1.429 . S
C2039 C2033 1.429 . S
C2039 C2040 1.523 . S
C2040 C2021 1.368 . S
C2040 C2034 1.368 1_455 S
C2040 C2039 1.523 . S
C2041 C2025 1.429 . S
C2041 C2037 1.429 . S
C2041 C2042 1.523 . S
C2042 C2026 1.368 . S
C2042 C2038 1.368 1_655 S
C2042 C2041 1.523 . S
H2043 C2018 0.950 . S
H2044 C2020 0.950 . S
H2045 C2021 0.949 . S
H2046 C2023 0.950 . S
H2047 C2025 0.950 . S
C2048 C2049 1.349 . S
C2048 C2050 1.327 . S
C2048 H2073 0.950 . S
C2049 C2048 1.349 . S
C2049 C2065 1.349 . S
C2050 C2048 1.327 . S
C2050 C2069 1.429 . S
C2050 H2074 0.950 . S
C2051 C2068 1.574 . S
C2051 C2070 1.368 . S
C2051 H2075 0.949 . S
H2052 C2056 0.949 . S
C2053 C2054 1.349 . S
C2053 C2055 1.327 . S
C2053 H2076 0.950 . S
C2054 C2053 1.349 . S
C2054 C2066 1.349 . S
C2055 C2053 1.327 . S
C2055 C2071 1.429 . S
C2055 H2077 0.950 . S
C2056 H2052 0.949 . S
C2056 C2064 1.574 . S
C2056 C2072 1.368 . S
H2057 C2065 0.950 . S
H2058 C2063 0.950 . S
H2059 C2064 0.949 . S
H2060 C2066 0.950 . S
H2061 C2067 0.950 . S
H2062 C2068 0.949 . S
C2063 H2058 0.950 . S
C2063 C2065 1.327 . S
C2063 C2069 1.429 . S
C2064 C2056 1.574 . S
C2064 H2059 0.949 . S
C2064 C2070 1.368 . S
C2065 C2049 1.349 . S
C2065 H2057 0.950 . S
C2065 C2063 1.327 . S
C2066 C2054 1.349 . S
C2066 H2060 0.950 . S
C2066 C2067 1.327 . S
C2067 H2061 0.950 . S
C2067 C2066 1.327 . S
C2067 C2071 1.429 . S
C2068 C2051 1.574 . S
C2068 H2062 0.949 . S
C2068 C2072 1.368 . S
C2069 C2050 1.429 . S
C2069 C2063 1.429 . S
C2069 C2070 1.523 . S
C2070 C2051 1.368 . S
C2070 C2064 1.368 . S
C2070 C2069 1.523 . S
C2071 C2055 1.429 . S
C2071 C2067 1.429 . S
C2071 C2072 1.523 . S
C2072 C2056 1.368 . S
C2072 C2068 1.368 . S
C2072 C2071 1.523 . S
H2073 C2048 0.950 . S
H2074 C2050 0.950 . S
H2075 C2051 0.949 . S
H2076 C2053 0.950 . S
H2077 C2055 0.950 . S
C2078 C2079 1.349 . S
C2078 C2080 1.327 . S
C2078 H2103 0.950 . S
C2079 C2078 1.349 . S
C2079 C2095 1.349 . S
C2080 C2078 1.327 . S
C2080 C2099 1.429 . S
C2080 H2104 0.950 . S
C2081 C2098 1.574 . S
C2081 C2100 1.368 . S
C2081 H2105 0.949 . S
H2082 C2086 0.949 . S
C2083 C2084 1.349 . S
C2083 C2085 1.327 1_455 S
C2083 H2106 0.950 . S
C2084 C2083 1.349 . S
C2084 C2096 1.349 1_455 S
C2085 C2083 1.327 1_655 S
C2085 C2101 1.429 . S
C2085 H2107 0.950 . S
C2086 H2082 0.949 . S
C2086 C2094 1.574 . S
C2086 C2102 1.368 . S
H2087 C2095 0.950 . S
H2088 C2093 0.950 . S
H2089 C2094 0.949 . S
H2090 C2096 0.950 . S
H2091 C2097 0.950 . S
H2092 C2098 0.949 . S
C2093 H2088 0.950 . S
C2093 C2095 1.327 . S
C2093 C2099 1.429 . S
C2094 C2086 1.574 . S
C2094 H2089 0.949 . S
C2094 C2100 1.368 . S
C2095 C2079 1.349 . S
C2095 H2087 0.950 . S
C2095 C2093 1.327 . S
C2096 C2084 1.349 1_655 S
C2096 H2090 0.950 . S
C2096 C2097 1.327 . S
C2097 H2091 0.950 . S
C2097 C2096 1.327 . S
C2097 C2101 1.429 . S
C2098 C2081 1.574 . S
C2098 H2092 0.949 . S
C2098 C2102 1.368 . S
C2099 C2080 1.429 . S
C2099 C2093 1.429 . S
C2099 C2100 1.523 . S
C2100 C2081 1.368 . S
C2100 C2094 1.368 . S
C2100 C2099 1.523 . S
C2101 C2085 1.429 . S
C2101 C2097 1.429 . S
C2101 C2102 1.523 . S
C2102 C2086 1.368 . S
C2102 C2098 1.368 . S
C2102 C2101 1.523 . S
H2103 C2078 0.950 . S
H2104 C2080 0.950 . S
H2105 C2081 0.949 . S
H2106 C2083 0.950 . S
H2107 C2085 0.950 . S
C2108 C2109 1.349 . S
C2108 C2110 1.327 . S
C2108 H2133 0.950 . S
C2109 C2108 1.349 . S
C2109 C2125 1.349 . S
C2110 C2108 1.327 . S
C2110 C2129 1.429 . S
C2110 H2134 0.950 . S
C2111 C2128 1.574 . S
C2111 C2130 1.368 . S
C2111 H2135 0.949 . S
H2112 C2116 0.949 . S
C2113 C2114 1.349 . S
C2113 C2115 1.327 . S
C2113 H2136 0.950 . S
C2114 C2113 1.349 . S
C2114 C2126 1.349 . S
C2115 C2113 1.327 . S
C2115 C2131 1.429 . S
C2115 H2137 0.950 . S
C2116 H2112 0.949 . S
C2116 C2124 1.574 . S
C2116 C2132 1.368 . S
H2117 C2125 0.950 . S
H2118 C2123 0.950 . S
H2119 C2124 0.949 . S
H2120 C2126 0.950 . S
H2121 C2127 0.950 . S
H2122 C2128 0.949 . S
C2123 H2118 0.950 . S
C2123 C2125 1.327 . S
C2123 C2129 1.429 . S
C2124 C2116 1.574 . S
C2124 H2119 0.949 . S
C2124 C2130 1.368 . S
C2125 C2109 1.349 . S
C2125 H2117 0.950 . S
C2125 C2123 1.327 . S
C2126 C2114 1.349 . S
C2126 H2120 0.950 . S
C2126 C2127 1.327 . S
C2127 H2121 0.950 . S
C2127 C2126 1.327 . S
C2127 C2131 1.429 . S
C2128 C2111 1.574 . S
C2128 H2122 0.949 . S
C2128 C2132 1.368 . S
C2129 C2110 1.429 . S
C2129 C2123 1.429 . S
C2129 C2130 1.523 . S
C2130 C2111 1.368 . S
C2130 C2124 1.368 . S
C2130 C2129 1.523 . S
C2131 C2115 1.429 . S
C2131 C2127 1.429 . S
C2131 C2132 1.523 . S
C2132 C2116 1.368 . S
C2132 C2128 1.368 . S
C2132 C2131 1.523 . S
H2133 C2108 0.950 . S
H2134 C2110 0.950 . S
H2135 C2111 0.949 . S
H2136 C2113 0.950 . S
H2137 C2115 0.950 . S
C2138 C2139 1.349 . S
C2138 C2140 1.327 . S
C2138 H2163 0.950 . S
C2139 C2138 1.349 . S
C2139 C2155 1.349 . S
C2140 C2138 1.327 . S
C2140 C2159 1.429 . S
C2140 H2164 0.950 . S
C2141 C2158 1.574 . S
C2141 C2160 1.368 . S
C2141 H2165 0.949 . S
H2142 C2146 0.949 . S
C2143 C2144 1.349 . S
C2143 C2145 1.327 . S
C2143 H2166 0.950 . S
C2144 C2143 1.349 . S
C2144 C2156 1.349 . S
C2145 C2143 1.327 . S
C2145 C2161 1.429 . S
C2145 H2167 0.950 . S
C2146 H2142 0.949 . S
C2146 C2154 1.574 . S
C2146 C2162 1.368 . S
H2147 C2155 0.950 . S
H2148 C2153 0.950 . S
H2149 C2154 0.949 . S
H2150 C2156 0.950 . S
H2151 C2157 0.950 . S
H2152 C2158 0.949 . S
C2153 H2148 0.950 . S
C2153 C2155 1.327 . S
C2153 C2159 1.429 . S
C2154 C2146 1.574 . S
C2154 H2149 0.949 . S
C2154 C2160 1.368 . S
C2155 C2139 1.349 . S
C2155 H2147 0.950 . S
C2155 C2153 1.327 . S
C2156 C2144 1.349 . S
C2156 H2150 0.950 . S
C2156 C2157 1.327 . S
C2157 H2151 0.950 . S
C2157 C2156 1.327 . S
C2157 C2161 1.429 . S
C2158 C2141 1.574 . S
C2158 H2152 0.949 . S
C2158 C2162 1.368 . S
C2159 C2140 1.429 . S
C2159 C2153 1.429 . S
C2159 C2160 1.523 . S
C2160 C2141 1.368 . S
C2160 C2154 1.368 . S
C2160 C2159 1.523 . S
C2161 C2145 1.429 . S
C2161 C2157 1.429 . S
C2161 C2162 1.523 . S
C2162 C2146 1.368 . S
C2162 C2158 1.368 . S
C2162 C2161 1.523 . S
H2163 C2138 0.950 . S
H2164 C2140 0.950 . S
H2165 C2141 0.949 . S
H2166 C2143 0.950 . S
H2167 C2145 0.950 . S
C2168 C2169 1.349 . S
C2168 C2170 1.327 . S
C2168 H2193 0.950 . S
C2169 C2168 1.349 . S
C2169 C2185 1.349 . S
C2170 C2168 1.327 . S
C2170 C2189 1.429 . S
C2170 H2194 0.950 . S
C2171 C2188 1.574 . S
C2171 C2190 1.368 . S
C2171 H2195 0.949 . S
H2172 C2176 0.949 . S
C2173 C2174 1.349 . S
C2173 C2175 1.327 . S
C2173 H2196 0.950 . S
C2174 C2173 1.349 . S
C2174 C2186 1.349 . S
C2175 C2173 1.327 . S
C2175 C2191 1.429 . S
C2175 H2197 0.950 . S
C2176 H2172 0.949 . S
C2176 C2184 1.574 . S
C2176 C2192 1.368 . S
H2177 C2185 0.950 . S
H2178 C2183 0.950 . S
H2179 C2184 0.949 . S
H2180 C2186 0.950 . S
H2181 C2187 0.950 . S
H2182 C2188 0.949 . S
C2183 H2178 0.950 . S
C2183 C2185 1.327 . S
C2183 C2189 1.429 . S
C2184 C2176 1.574 . S
C2184 H2179 0.949 . S
C2184 C2190 1.368 . S
C2185 C2169 1.349 . S
C2185 H2177 0.950 . S
C2185 C2183 1.327 . S
C2186 C2174 1.349 . S
C2186 H2180 0.950 . S
C2186 C2187 1.327 . S
C2187 H2181 0.950 . S
C2187 C2186 1.327 . S
C2187 C2191 1.429 . S
C2188 C2171 1.574 . S
C2188 H2182 0.949 . S
C2188 C2192 1.368 . S
C2189 C2170 1.429 . S
C2189 C2183 1.429 . S
C2189 C2190 1.523 . S
C2190 C2171 1.368 . S
C2190 C2184 1.368 . S
C2190 C2189 1.523 . S
C2191 C2175 1.429 . S
C2191 C2187 1.429 . S
C2191 C2192 1.523 . S
C2192 C2176 1.368 . S
C2192 C2188 1.368 . S
C2192 C2191 1.523 . S
H2193 C2168 0.950 . S
H2194 C2170 0.950 . S
H2195 C2171 0.949 . S
H2196 C2173 0.950 . S
H2197 C2175 0.950 . S
C2198 C2199 1.349 . S
C2198 C2200 1.327 . S
C2198 H2223 0.950 . S
C2199 C2198 1.349 . S
C2199 C2215 1.349 . S
C2200 C2198 1.327 . S
C2200 C2219 1.429 . S
C2200 H2224 0.950 . S
C2201 C2218 1.574 . S
C2201 C2220 1.368 . S
C2201 H2225 0.949 . S
H2202 C2206 0.949 . S
C2203 C2204 1.349 . S
C2203 C2205 1.327 . S
C2203 H2226 0.950 . S
C2204 C2203 1.349 . S
C2204 C2216 1.349 . S
C2205 C2203 1.327 . S
C2205 C2221 1.429 . S
C2205 H2227 0.950 . S
C2206 H2202 0.949 . S
C2206 C2214 1.574 . S
C2206 C2222 1.368 . S
H2207 C2215 0.950 . S
H2208 C2213 0.950 . S
H2209 C2214 0.949 . S
H2210 C2216 0.950 . S
H2211 C2217 0.950 . S
H2212 C2218 0.949 . S
C2213 H2208 0.950 . S
C2213 C2215 1.327 . S
C2213 C2219 1.429 . S
C2214 C2206 1.574 . S
C2214 H2209 0.949 . S
C2214 C2220 1.368 . S
C2215 C2199 1.349 . S
C2215 H2207 0.950 . S
C2215 C2213 1.327 . S
C2216 C2204 1.349 . S
C2216 H2210 0.950 . S
C2216 C2217 1.327 . S
C2217 H2211 0.950 . S
C2217 C2216 1.327 . S
C2217 C2221 1.429 . S
C2218 C2201 1.574 . S
C2218 H2212 0.949 . S
C2218 C2222 1.368 . S
C2219 C2200 1.429 . S
C2219 C2213 1.429 . S
C2219 C2220 1.523 . S
C2220 C2201 1.368 . S
C2220 C2214 1.368 . S
C2220 C2219 1.523 . S
C2221 C2205 1.429 . S
C2221 C2217 1.429 . S
C2221 C2222 1.523 . S
C2222 C2206 1.368 . S
C2222 C2218 1.368 . S
C2222 C2221 1.523 . S
H2223 C2198 0.950 . S
H2224 C2200 0.950 . S
H2225 C2201 0.949 . S
H2226 C2203 0.950 . S
H2227 C2205 0.950 . S
C2228 C2229 1.349 . S
C2228 C2230 1.327 . S
C2228 H2253 0.950 . S
C2229 C2228 1.349 . S
C2229 C2245 1.349 . S
C2230 C2228 1.327 . S
C2230 C2249 1.429 . S
C2230 H2254 0.950 . S
C2231 C2248 1.574 . S
C2231 C2250 1.368 . S
C2231 H2255 0.949 . S
H2232 C2236 0.949 . S
C2233 C2234 1.349 . S
C2233 C2235 1.327 . S
C2233 H2256 0.950 . S
C2234 C2233 1.349 . S
C2234 C2246 1.349 . S
C2235 C2233 1.327 . S
C2235 C2251 1.429 . S
C2235 H2257 0.950 . S
C2236 H2232 0.949 . S
C2236 C2244 1.574 . S
C2236 C2252 1.368 . S
H2237 C2245 0.950 . S
H2238 C2243 0.950 . S
H2239 C2244 0.949 . S
H2240 C2246 0.950 . S
H2241 C2247 0.950 . S
H2242 C2248 0.949 . S
C2243 H2238 0.950 . S
C2243 C2245 1.327 . S
C2243 C2249 1.429 . S
C2244 C2236 1.574 . S
C2244 H2239 0.949 . S
C2244 C2250 1.368 . S
C2245 C2229 1.349 . S
C2245 H2237 0.950 . S
C2245 C2243 1.327 . S
C2246 C2234 1.349 . S
C2246 H2240 0.950 . S
C2246 C2247 1.327 . S
C2247 H2241 0.950 . S
C2247 C2246 1.327 . S
C2247 C2251 1.429 . S
C2248 C2231 1.574 . S
C2248 H2242 0.949 . S
C2248 C2252 1.368 . S
C2249 C2230 1.429 . S
C2249 C2243 1.429 . S
C2249 C2250 1.523 . S
C2250 C2231 1.368 . S
C2250 C2244 1.368 . S
C2250 C2249 1.523 . S
C2251 C2235 1.429 . S
C2251 C2247 1.429 . S
C2251 C2252 1.523 . S
C2252 C2236 1.368 . S
C2252 C2248 1.368 . S
C2252 C2251 1.523 . S
H2253 C2228 0.950 . S
H2254 C2230 0.950 . S
H2255 C2231 0.949 . S
H2256 C2233 0.950 . S
H2257 C2235 0.950 . S
C2258 C2259 1.349 1_655 S
C2258 C2260 1.327 . S
C2258 H2283 0.950 . S
C2259 C2258 1.349 1_455 S
C2259 C2275 1.351 . S
C2260 C2258 1.327 . S
C2260 C2279 1.429 . S
C2260 H2284 0.950 . S
C2261 C2278 1.574 . S
C2261 C2280 1.368 . S
C2261 H2285 0.949 . S
H2262 C2266 0.949 . S
C2263 C2264 1.349 . S
C2263 C2265 1.327 . S
C2263 H2286 0.950 . S
C2264 C2263 1.349 . S
C2264 C2276 1.349 . S
C2265 C2263 1.327 . S
C2265 C2281 1.429 . S
C2265 H2287 0.950 . S
C2266 H2262 0.949 . S
C2266 C2274 1.574 . S
C2266 C2282 1.368 . S
H2267 C2275 0.966 . S
H2268 C2273 0.950 . S
H2269 C2274 0.949 . S
H2270 C2276 0.950 . S
H2271 C2277 0.950 . S
H2272 C2278 0.949 . S
C2273 H2268 0.950 . S
C2273 C2275 1.310 1_655 S
C2273 C2279 1.429 . S
C2274 C2266 1.574 . S
C2274 H2269 0.949 . S
C2274 C2280 1.368 . S
C2275 C2259 1.351 . S
C2275 H2267 0.966 . S
C2275 C2273 1.310 1_455 S
C2276 C2264 1.349 . S
C2276 H2270 0.950 . S
C2276 C2277 1.327 . S
C2277 H2271 0.950 . S
C2277 C2276 1.327 . S
C2277 C2281 1.429 . S
C2278 C2261 1.574 . S
C2278 H2272 0.949 . S
C2278 C2282 1.368 . S
C2279 C2260 1.429 . S
C2279 C2273 1.429 . S
C2279 C2280 1.523 . S
C2280 C2261 1.368 . S
C2280 C2274 1.368 . S
C2280 C2279 1.523 . S
C2281 C2265 1.429 . S
C2281 C2277 1.429 . S
C2281 C2282 1.523 . S
C2282 C2266 1.368 . S
C2282 C2278 1.368 . S
C2282 C2281 1.523 . S
H2283 C2258 0.950 . S
H2284 C2260 0.950 . S
H2285 C2261 0.949 . S
H2286 C2263 0.950 . S
H2287 C2265 0.950 . S
C2288 C2289 1.349 . S
C2288 C2290 1.327 . S
C2288 H2313 0.950 . S
C2289 C2288 1.349 . S
C2289 C2305 1.349 . S
C2290 C2288 1.327 . S
C2290 C2309 1.429 . S
C2290 H2314 0.950 . S
C2291 C2308 1.574 . S
C2291 C2310 1.368 . S
C2291 H2315 0.949 . S
H2292 C2296 0.949 . S
C2293 C2294 1.349 . S
C2293 C2295 1.327 . S
C2293 H2316 0.950 . S
C2294 C2293 1.349 . S
C2294 C2306 1.349 . S
C2295 C2293 1.327 . S
C2295 C2311 1.429 . S
C2295 H2317 0.950 . S
C2296 H2292 0.949 . S
C2296 C2304 1.574 . S
C2296 C2312 1.368 . S
H2297 C2305 0.950 . S
H2298 C2303 0.950 . S
H2299 C2304 0.949 . S
H2300 C2306 0.950 . S
H2301 C2307 0.950 . S
H2302 C2308 0.949 . S
C2303 H2298 0.950 . S
C2303 C2305 1.327 . S
C2303 C2309 1.429 . S
C2304 C2296 1.574 . S
C2304 H2299 0.949 . S
C2304 C2310 1.368 . S
C2305 C2289 1.349 . S
C2305 H2297 0.950 . S
C2305 C2303 1.327 . S
C2306 C2294 1.349 . S
C2306 H2300 0.950 . S
C2306 C2307 1.327 . S
C2307 H2301 0.950 . S
C2307 C2306 1.327 . S
C2307 C2311 1.429 . S
C2308 C2291 1.574 . S
C2308 H2302 0.949 . S
C2308 C2312 1.368 . S
C2309 C2290 1.429 . S
C2309 C2303 1.429 . S
C2309 C2310 1.523 . S
C2310 C2291 1.368 . S
C2310 C2304 1.368 . S
C2310 C2309 1.523 . S
C2311 C2295 1.429 . S
C2311 C2307 1.429 . S
C2311 C2312 1.523 . S
C2312 C2296 1.368 . S
C2312 C2308 1.368 . S
C2312 C2311 1.523 . S
H2313 C2288 0.950 . S
H2314 C2290 0.950 . S
H2315 C2291 0.949 . S
H2316 C2293 0.950 . S
H2317 C2295 0.950 . S
C2318 C2319 1.349 1_455 S
C2318 C2320 1.327 . S
C2318 H2343 0.950 . S
C2319 C2318 1.349 1_655 S
C2319 C2335 1.349 . S
C2320 C2318 1.327 . S
C2320 C2339 1.429 . S
C2320 H2344 0.950 . S
C2321 C2338 1.574 . S
C2321 C2340 1.368 . S
C2321 H2345 0.949 . S
H2322 C2326 0.949 . S
C2323 C2324 1.349 . S
C2323 C2325 1.327 . S
C2323 H2346 0.950 . S
C2324 C2323 1.349 . S
C2324 C2336 1.349 . S
C2325 C2323 1.327 . S
C2325 C2341 1.429 . S
C2325 H2347 0.950 . S
C2326 H2322 0.949 . S
C2326 C2334 1.574 . S
C2326 C2342 1.368 . S
H2327 C2335 0.950 . S
H2328 C2333 0.950 . S
H2329 C2334 0.949 . S
H2330 C2336 0.950 . S
H2331 C2337 0.950 . S
H2332 C2338 0.949 . S
C2333 H2328 0.950 . S
C2333 C2335 1.327 1_455 S
C2333 C2339 1.429 . S
C2334 C2326 1.574 . S
C2334 H2329 0.949 . S
C2334 C2340 1.368 . S
C2335 C2319 1.349 . S
C2335 H2327 0.950 . S
C2335 C2333 1.327 1_655 S
C2336 C2324 1.349 . S
C2336 H2330 0.950 . S
C2336 C2337 1.327 . S
C2337 H2331 0.950 . S
C2337 C2336 1.327 . S
C2337 C2341 1.429 . S
C2338 C2321 1.574 . S
C2338 H2332 0.949 . S
C2338 C2342 1.368 . S
C2339 C2320 1.429 . S
C2339 C2333 1.429 . S
C2339 C2340 1.523 . S
C2340 C2321 1.368 . S
C2340 C2334 1.368 . S
C2340 C2339 1.523 . S
C2341 C2325 1.429 . S
C2341 C2337 1.429 . S
C2341 C2342 1.523 . S
C2342 C2326 1.368 . S
C2342 C2338 1.368 . S
C2342 C2341 1.523 . S
H2343 C2318 0.950 . S
H2344 C2320 0.950 . S
H2345 C2321 0.949 . S
H2346 C2323 0.950 . S
H2347 C2325 0.950 . S
C2348 C2349 1.349 . S
C2348 C2350 1.327 . S
C2348 H2373 0.950 . S
C2349 C2348 1.349 . S
C2349 C2365 1.349 . S
C2350 C2348 1.327 . S
C2350 C2369 1.429 . S
C2350 H2374 0.950 . S
C2351 C2368 1.574 . S
C2351 C2370 1.368 . S
C2351 H2375 0.949 . S
H2352 C2356 0.949 . S
C2353 C2354 1.349 . S
C2353 C2355 1.327 . S
C2353 H2376 0.950 . S
C2354 C2353 1.349 . S
C2354 C2366 1.349 . S
C2355 C2353 1.327 . S
C2355 C2371 1.429 . S
C2355 H2377 0.950 . S
C2356 H2352 0.949 . S
C2356 C2364 1.574 . S
C2356 C2372 1.368 . S
H2357 C2365 0.950 . S
H2358 C2363 0.950 . S
H2359 C2364 0.949 . S
H2360 C2366 0.950 . S
H2361 C2367 0.950 . S
H2362 C2368 0.949 . S
C2363 H2358 0.950 . S
C2363 C2365 1.327 . S
C2363 C2369 1.429 . S
C2364 C2356 1.574 . S
C2364 H2359 0.949 . S
C2364 C2370 1.368 . S
C2365 C2349 1.349 . S
C2365 H2357 0.950 . S
C2365 C2363 1.327 . S
C2366 C2354 1.349 . S
C2366 H2360 0.950 . S
C2366 C2367 1.327 . S
C2367 H2361 0.950 . S
C2367 C2366 1.327 . S
C2367 C2371 1.429 . S
C2368 C2351 1.574 . S
C2368 H2362 0.949 . S
C2368 C2372 1.368 . S
C2369 C2350 1.429 . S
C2369 C2363 1.429 . S
C2369 C2370 1.523 . S
C2370 C2351 1.368 . S
C2370 C2364 1.368 . S
C2370 C2369 1.523 . S
C2371 C2355 1.429 . S
C2371 C2367 1.429 . S
C2371 C2372 1.523 . S
C2372 C2356 1.368 . S
C2372 C2368 1.368 . S
C2372 C2371 1.523 . S
H2373 C2348 0.950 . S
H2374 C2350 0.950 . S
H2375 C2351 0.949 . S
H2376 C2353 0.950 . S
H2377 C2355 0.950 . S
C2378 C2379 1.349 . S
C2378 C2380 1.327 . S
C2378 H2403 0.950 . S
C2379 C2378 1.349 . S
C2379 C2395 1.349 . S
C2380 C2378 1.327 . S
C2380 C2399 1.429 . S
C2380 H2404 0.950 . S
C2381 C2398 1.574 . S
C2381 C2400 1.368 . S
C2381 H2405 0.949 . S
H2382 C2386 0.949 . S
C2383 C2384 1.349 . S
C2383 C2385 1.327 . S
C2383 H2406 0.950 . S
C2384 C2383 1.349 . S
C2384 C2396 1.349 . S
C2385 C2383 1.327 . S
C2385 C2401 1.429 . S
C2385 H2407 0.950 . S
C2386 H2382 0.949 . S
C2386 C2394 1.574 . S
C2386 C2402 1.368 . S
H2387 C2395 0.950 . S
H2388 C2393 0.950 . S
H2389 C2394 0.949 . S
H2390 C2396 0.950 . S
H2391 C2397 0.950 . S
H2392 C2398 0.949 . S
C2393 H2388 0.950 . S
C2393 C2395 1.327 . S
C2393 C2399 1.429 . S
C2394 C2386 1.574 . S
C2394 H2389 0.949 . S
C2394 C2400 1.368 . S
C2395 C2379 1.349 . S
C2395 H2387 0.950 . S
C2395 C2393 1.327 . S
C2396 C2384 1.349 . S
C2396 H2390 0.950 . S
C2396 C2397 1.327 . S
C2397 H2391 0.950 . S
C2397 C2396 1.327 . S
C2397 C2401 1.429 . S
C2398 C2381 1.574 . S
C2398 H2392 0.949 . S
C2398 C2402 1.368 . S
C2399 C2380 1.429 . S
C2399 C2393 1.429 . S
C2399 C2400 1.523 . S
C2400 C2381 1.368 . S
C2400 C2394 1.368 . S
C2400 C2399 1.523 . S
C2401 C2385 1.429 . S
C2401 C2397 1.429 . S
C2401 C2402 1.523 . S
C2402 C2386 1.368 . S
C2402 C2398 1.368 . S
C2402 C2401 1.523 . S
H2403 C2378 0.950 . S
H2404 C2380 0.950 . S
H2405 C2381 0.949 . S
H2406 C2383 0.950 . S
H2407 C2385 0.950 . S
C2408 C2409 1.349 . S
C2408 C2410 1.327 . S
C2408 H2433 0.950 . S
C2409 C2408 1.349 . S
C2409 C2425 1.349 . S
C2410 C2408 1.327 . S
C2410 C2429 1.429 . S
C2410 H2434 0.950 . S
C2411 C2428 1.574 . S
C2411 C2430 1.368 . S
C2411 H2435 0.949 . S
H2412 C2416 0.949 . S
C2413 C2414 1.349 . S
C2413 C2415 1.327 . S
C2413 H2436 0.950 . S
C2414 C2413 1.349 . S
C2414 C2426 1.349 . S
C2415 C2413 1.327 . S
C2415 C2431 1.429 . S
C2415 H2437 0.950 . S
C2416 H2412 0.949 . S
C2416 C2424 1.574 . S
C2416 C2432 1.368 . S
H2417 C2425 0.950 . S
H2418 C2423 0.950 . S
H2419 C2424 0.949 . S
H2420 C2426 0.950 . S
H2421 C2427 0.950 . S
H2422 C2428 0.949 . S
C2423 H2418 0.950 . S
C2423 C2425 1.327 . S
C2423 C2429 1.429 . S
C2424 C2416 1.574 . S
C2424 H2419 0.949 . S
C2424 C2430 1.368 . S
C2425 C2409 1.349 . S
C2425 H2417 0.950 . S
C2425 C2423 1.327 . S
C2426 C2414 1.349 . S
C2426 H2420 0.950 . S
C2426 C2427 1.327 . S
C2427 H2421 0.950 . S
C2427 C2426 1.327 . S
C2427 C2431 1.429 . S
C2428 C2411 1.574 . S
C2428 H2422 0.949 . S
C2428 C2432 1.368 . S
C2429 C2410 1.429 . S
C2429 C2423 1.429 . S
C2429 C2430 1.523 . S
C2430 C2411 1.368 . S
C2430 C2424 1.368 . S
C2430 C2429 1.523 . S
C2431 C2415 1.429 . S
C2431 C2427 1.429 . S
C2431 C2432 1.523 . S
C2432 C2416 1.368 . S
C2432 C2428 1.368 . S
C2432 C2431 1.523 . S
H2433 C2408 0.950 . S
H2434 C2410 0.950 . S
H2435 C2411 0.949 . S
H2436 C2413 0.950 . S
H2437 C2415 0.950 . S
C2438 C2439 1.349 . S
C2438 C2440 1.327 . S
C2438 H2463 0.950 . S
C2439 C2438 1.349 . S
C2439 C2455 1.349 . S
C2440 C2438 1.327 . S
C2440 C2459 1.429 . S
C2440 H2464 0.950 . S
C2441 C2458 1.574 . S
C2441 C2460 1.368 . S
C2441 H2465 0.949 . S
H2442 C2446 0.949 . S
C2443 C2444 1.349 . S
C2443 C2445 1.327 . S
C2443 H2466 0.950 . S
C2444 C2443 1.349 . S
C2444 C2456 1.349 . S
C2445 C2443 1.327 . S
C2445 C2461 1.429 . S
C2445 H2467 0.950 . S
C2446 H2442 0.949 . S
C2446 C2454 1.574 . S
C2446 C2462 1.368 . S
H2447 C2455 0.950 . S
H2448 C2453 0.950 . S
H2449 C2454 0.949 . S
H2450 C2456 0.950 . S
H2451 C2457 0.950 . S
H2452 C2458 0.949 . S
C2453 H2448 0.950 . S
C2453 C2455 1.327 . S
C2453 C2459 1.429 . S
C2454 C2446 1.574 . S
C2454 H2449 0.949 . S
C2454 C2460 1.368 . S
C2455 C2439 1.349 . S
C2455 H2447 0.950 . S
C2455 C2453 1.327 . S
C2456 C2444 1.349 . S
C2456 H2450 0.950 . S
C2456 C2457 1.327 . S
C2457 H2451 0.950 . S
C2457 C2456 1.327 . S
C2457 C2461 1.429 . S
C2458 C2441 1.574 . S
C2458 H2452 0.949 . S
C2458 C2462 1.368 . S
C2459 C2440 1.429 . S
C2459 C2453 1.429 . S
C2459 C2460 1.523 . S
C2460 C2441 1.368 . S
C2460 C2454 1.368 . S
C2460 C2459 1.523 . S
C2461 C2445 1.429 . S
C2461 C2457 1.429 . S
C2461 C2462 1.523 . S
C2462 C2446 1.368 . S
C2462 C2458 1.368 . S
C2462 C2461 1.523 . S
H2463 C2438 0.950 . S
H2464 C2440 0.950 . S
H2465 C2441 0.949 . S
H2466 C2443 0.950 . S
H2467 C2445 0.950 . S
C2468 C2469 1.349 . S
C2468 C2470 1.327 . S
C2468 H2493 0.950 . S
C2469 C2468 1.349 . S
C2469 C2485 1.349 . S
C2470 C2468 1.327 . S
C2470 C2489 1.429 . S
C2470 H2494 0.950 . S
C2471 C2488 1.574 . S
C2471 C2490 1.368 . S
C2471 H2495 0.949 . S
H2472 C2476 0.949 . S
C2473 C2474 1.349 . S
C2473 C2475 1.327 . S
C2473 H2496 0.950 . S
C2474 C2473 1.349 . S
C2474 C2486 1.349 . S
C2475 C2473 1.327 . S
C2475 C2491 1.429 . S
C2475 H2497 0.950 . S
C2476 H2472 0.949 . S
C2476 C2484 1.574 . S
C2476 C2492 1.368 . S
H2477 C2485 0.950 . S
H2478 C2483 0.950 . S
H2479 C2484 0.949 . S
H2480 C2486 0.950 . S
H2481 C2487 0.950 . S
H2482 C2488 0.949 . S
C2483 H2478 0.950 . S
C2483 C2485 1.327 . S
C2483 C2489 1.429 . S
C2484 C2476 1.574 . S
C2484 H2479 0.949 . S
C2484 C2490 1.368 . S
C2485 C2469 1.349 . S
C2485 H2477 0.950 . S
C2485 C2483 1.327 . S
C2486 C2474 1.349 . S
C2486 H2480 0.950 . S
C2486 C2487 1.327 . S
C2487 H2481 0.950 . S
C2487 C2486 1.327 . S
C2487 C2491 1.429 . S
C2488 C2471 1.574 . S
C2488 H2482 0.949 . S
C2488 C2492 1.368 . S
C2489 C2470 1.429 . S
C2489 C2483 1.429 . S
C2489 C2490 1.523 . S
C2490 C2471 1.368 . S
C2490 C2484 1.368 . S
C2490 C2489 1.523 . S
C2491 C2475 1.429 . S
C2491 C2487 1.429 . S
C2491 C2492 1.523 . S
C2492 C2476 1.368 . S
C2492 C2488 1.368 . S
C2492 C2491 1.523 . S
H2493 C2468 0.950 . S
H2494 C2470 0.950 . S
H2495 C2471 0.949 . S
H2496 C2473 0.950 . S
H2497 C2475 0.950 . S
C2498 C2499 1.349 . S
C2498 C2500 1.327 . S
C2498 H2523 0.950 . S
C2499 C2498 1.349 . S
C2499 C2515 1.349 . S
C2500 C2498 1.327 . S
C2500 C2519 1.429 . S
C2500 H2524 0.950 . S
C2501 C2518 1.574 . S
C2501 C2520 1.368 . S
C2501 H2525 0.949 . S
H2502 C2506 0.949 . S
C2503 C2504 1.349 . S
C2503 C2505 1.327 1_655 S
C2503 H2526 0.950 . S
C2504 C2503 1.349 . S
C2504 C2516 1.349 1_655 S
C2505 C2503 1.327 1_455 S
C2505 C2521 1.429 . S
C2505 H2527 0.950 . S
C2506 H2502 0.949 . S
C2506 C2514 1.574 . S
C2506 C2522 1.368 . S
H2507 C2515 0.950 . S
H2508 C2513 0.950 . S
H2509 C2514 0.949 . S
H2510 C2516 0.950 . S
H2511 C2517 0.950 . S
H2512 C2518 0.949 . S
C2513 H2508 0.950 . S
C2513 C2515 1.327 . S
C2513 C2519 1.429 . S
C2514 C2506 1.574 . S
C2514 H2509 0.949 . S
C2514 C2520 1.368 . S
C2515 C2499 1.349 . S
C2515 H2507 0.950 . S
C2515 C2513 1.327 . S
C2516 C2504 1.349 1_455 S
C2516 H2510 0.950 . S
C2516 C2517 1.327 . S
C2517 H2511 0.950 . S
C2517 C2516 1.327 . S
C2517 C2521 1.429 . S
C2518 C2501 1.574 . S
C2518 H2512 0.949 . S
C2518 C2522 1.368 . S
C2519 C2500 1.429 . S
C2519 C2513 1.429 . S
C2519 C2520 1.523 . S
C2520 C2501 1.368 . S
C2520 C2514 1.368 . S
C2520 C2519 1.523 . S
C2521 C2505 1.429 . S
C2521 C2517 1.429 . S
C2521 C2522 1.523 . S
C2522 C2506 1.368 . S
C2522 C2518 1.368 . S
C2522 C2521 1.523 . S
H2523 C2498 0.950 . S
H2524 C2500 0.950 . S
H2525 C2501 0.949 . S
H2526 C2503 0.950 . S
H2527 C2505 0.950 . S
C2528 C2529 1.349 . S
C2528 C2530 1.327 . S
C2528 H2553 0.950 . S
C2529 C2528 1.349 . S
C2529 C2545 1.349 . S
C2530 C2528 1.327 . S
C2530 C2549 1.429 . S
C2530 H2554 0.950 . S
C2531 C2548 1.574 . S
C2531 C2550 1.368 . S
C2531 H2555 0.949 . S
H2532 C2536 0.949 . S
C2533 C2534 1.349 . S
C2533 C2535 1.327 . S
C2533 H2556 0.950 . S
C2534 C2533 1.349 . S
C2534 C2546 1.349 . S
C2535 C2533 1.327 . S
C2535 C2551 1.429 . S
C2535 H2557 0.950 . S
C2536 H2532 0.949 . S
C2536 C2544 1.574 . S
C2536 C2552 1.368 . S
H2537 C2545 0.950 . S
H2538 C2543 0.950 . S
H2539 C2544 0.949 . S
H2540 C2546 0.950 . S
H2541 C2547 0.950 . S
H2542 C2548 0.949 . S
C2543 H2538 0.950 . S
C2543 C2545 1.327 . S
C2543 C2549 1.429 . S
C2544 C2536 1.574 . S
C2544 H2539 0.949 . S
C2544 C2550 1.368 . S
C2545 C2529 1.349 . S
C2545 H2537 0.950 . S
C2545 C2543 1.327 . S
C2546 C2534 1.349 . S
C2546 H2540 0.950 . S
C2546 C2547 1.327 . S
C2547 H2541 0.950 . S
C2547 C2546 1.327 . S
C2547 C2551 1.429 . S
C2548 C2531 1.574 . S
C2548 H2542 0.949 . S
C2548 C2552 1.368 . S
C2549 C2530 1.429 . S
C2549 C2543 1.429 . S
C2549 C2550 1.523 . S
C2550 C2531 1.368 . S
C2550 C2544 1.368 . S
C2550 C2549 1.523 . S
C2551 C2535 1.429 . S
C2551 C2547 1.429 . S
C2551 C2552 1.523 . S
C2552 C2536 1.368 . S
C2552 C2548 1.368 . S
C2552 C2551 1.523 . S
H2553 C2528 0.950 . S
H2554 C2530 0.950 . S
H2555 C2531 0.949 . S
H2556 C2533 0.950 . S
H2557 C2535 0.950 . S
C2558 C2559 1.349 . S
C2558 C2560 1.327 . S
C2558 H2583 0.950 . S
C2559 C2558 1.349 . S
C2559 C2575 1.349 . S
C2560 C2558 1.327 . S
C2560 C2579 1.429 . S
C2560 H2584 0.950 . S
C2561 C2578 1.574 . S
C2561 C2580 1.368 . S
C2561 H2585 0.949 . S
H2562 C2566 0.949 . S
C2563 C2564 1.349 . S
C2563 C2565 1.327 . S
C2563 H2586 0.950 . S
C2564 C2563 1.349 . S
C2564 C2576 1.349 . S
C2565 C2563 1.327 . S
C2565 C2581 1.429 . S
C2565 H2587 0.950 . S
C2566 H2562 0.949 . S
C2566 C2574 1.574 . S
C2566 C2582 1.368 . S
H2567 C2575 0.950 . S
H2568 C2573 0.950 . S
H2569 C2574 0.949 . S
H2570 C2576 0.950 . S
H2571 C2577 0.950 . S
H2572 C2578 0.949 . S
C2573 H2568 0.950 . S
C2573 C2575 1.327 . S
C2573 C2579 1.429 . S
C2574 C2566 1.574 . S
C2574 H2569 0.949 . S
C2574 C2580 1.368 . S
C2575 C2559 1.349 . S
C2575 H2567 0.950 . S
C2575 C2573 1.327 . S
C2576 C2564 1.349 . S
C2576 H2570 0.950 . S
C2576 C2577 1.327 . S
C2577 H2571 0.950 . S
C2577 C2576 1.327 . S
C2577 C2581 1.429 . S
C2578 C2561 1.574 . S
C2578 H2572 0.949 . S
C2578 C2582 1.368 . S
C2579 C2560 1.429 . S
C2579 C2573 1.429 . S
C2579 C2580 1.523 . S
C2580 C2561 1.368 . S
C2580 C2574 1.368 . S
C2580 C2579 1.523 . S
C2581 C2565 1.429 . S
C2581 C2577 1.429 . S
C2581 C2582 1.523 . S
C2582 C2566 1.368 . S
C2582 C2578 1.368 . S
C2582 C2581 1.523 . S
H2583 C2558 0.950 . S
H2584 C2560 0.950 . S
H2585 C2561 0.949 . S
H2586 C2563 0.950 . S
H2587 C2565 0.950 . S
C2588 C2589 1.349 . S
C2588 C2590 1.327 . S
C2588 H2613 0.950 . S
C2589 C2588 1.349 . S
C2589 C2605 1.349 . S
C2590 C2588 1.327 . S
C2590 C2609 1.429 . S
C2590 H2614 0.950 . S
C2591 C2608 1.574 . S
C2591 C2610 1.368 . S
C2591 H2615 0.949 . S
H2592 C2596 0.949 . S
C2593 C2594 1.349 . S
C2593 C2595 1.327 . S
C2593 H2616 0.950 . S
C2594 C2593 1.349 . S
C2594 C2606 1.349 . S
C2595 C2593 1.327 . S
C2595 C2611 1.429 . S
C2595 H2617 0.950 . S
C2596 H2592 0.949 . S
C2596 C2604 1.574 . S
C2596 C2612 1.368 . S
H2597 C2605 0.950 . S
H2598 C2603 0.950 . S
H2599 C2604 0.949 . S
H2600 C2606 0.950 . S
H2601 C2607 0.950 . S
H2602 C2608 0.949 . S
C2603 H2598 0.950 . S
C2603 C2605 1.327 . S
C2603 C2609 1.429 . S
C2604 C2596 1.574 . S
C2604 H2599 0.949 . S
C2604 C2610 1.368 . S
C2605 C2589 1.349 . S
C2605 H2597 0.950 . S
C2605 C2603 1.327 . S
C2606 C2594 1.349 . S
C2606 H2600 0.950 . S
C2606 C2607 1.327 . S
C2607 H2601 0.950 . S
C2607 C2606 1.327 . S
C2607 C2611 1.429 . S
C2608 C2591 1.574 . S
C2608 H2602 0.949 . S
C2608 C2612 1.368 . S
C2609 C2590 1.429 . S
C2609 C2603 1.429 . S
C2609 C2610 1.523 . S
C2610 C2591 1.368 . S
C2610 C2604 1.368 . S
C2610 C2609 1.523 . S
C2611 C2595 1.429 . S
C2611 C2607 1.429 . S
C2611 C2612 1.523 . S
C2612 C2596 1.368 . S
C2612 C2608 1.368 . S
C2612 C2611 1.523 . S
H2613 C2588 0.950 . S
H2614 C2590 0.950 . S
H2615 C2591 0.949 . S
H2616 C2593 0.950 . S
H2617 C2595 0.950 . S
C2618 C2619 1.349 . S
C2618 C2620 1.327 1_655 S
C2618 H2643 0.950 . S
C2619 C2618 1.349 . S
C2619 C2635 1.349 1_655 S
C2620 C2618 1.327 1_455 S
C2620 C2639 1.429 . S
C2620 H2644 0.950 . S
C2621 C2638 1.574 . S
C2621 C2640 1.368 . S
C2621 H2645 0.949 . S
H2622 C2626 0.949 . S
C2623 C2624 1.349 . S
C2623 C2625 1.327 . S
C2623 H2646 0.950 . S
C2624 C2623 1.349 . S
C2624 C2636 1.349 . S
C2625 C2623 1.327 . S
C2625 C2641 1.429 . S
C2625 H2647 0.950 . S
C2626 H2622 0.949 . S
C2626 C2634 1.574 . S
C2626 C2642 1.368 . S
H2627 C2635 0.950 . S
H2628 C2633 0.950 . S
H2629 C2634 0.949 . S
H2630 C2636 0.950 . S
H2631 C2637 0.950 . S
H2632 C2638 0.949 . S
C2633 H2628 0.950 . S
C2633 C2635 1.327 . S
C2633 C2639 1.429 . S
C2634 C2626 1.574 . S
C2634 H2629 0.949 . S
C2634 C2640 1.368 . S
C2635 C2619 1.349 1_455 S
C2635 H2627 0.950 . S
C2635 C2633 1.327 . S
C2636 C2624 1.349 . S
C2636 H2630 0.950 . S
C2636 C2637 1.327 . S
C2637 H2631 0.950 . S
C2637 C2636 1.327 . S
C2637 C2641 1.429 . S
C2638 C2621 1.574 . S
C2638 H2632 0.949 . S
C2638 C2642 1.368 . S
C2639 C2620 1.429 . S
C2639 C2633 1.429 . S
C2639 C2640 1.523 . S
C2640 C2621 1.368 . S
C2640 C2634 1.368 . S
C2640 C2639 1.523 . S
C2641 C2625 1.429 . S
C2641 C2637 1.429 . S
C2641 C2642 1.523 . S
C2642 C2626 1.368 . S
C2642 C2638 1.368 . S
C2642 C2641 1.523 . S
H2643 C2618 0.950 . S
H2644 C2620 0.950 . S
H2645 C2621 0.949 . S
H2646 C2623 0.950 . S
H2647 C2625 0.950 . S
C2648 C2649 1.349 . S
C2648 C2650 1.327 . S
C2648 H2673 0.950 . S
C2649 C2648 1.349 . S
C2649 C2665 1.349 . S
C2650 C2648 1.327 . S
C2650 C2669 1.429 . S
C2650 H2674 0.950 . S
C2651 C2668 1.574 . S
C2651 C2670 1.368 . S
C2651 H2675 0.949 . S
H2652 C2656 0.949 . S
C2653 C2654 1.349 . S
C2653 C2655 1.327 . S
C2653 H2676 0.950 . S
C2654 C2653 1.349 . S
C2654 C2666 1.349 . S
C2655 C2653 1.327 . S
C2655 C2671 1.429 . S
C2655 H2677 0.950 . S
C2656 H2652 0.949 . S
C2656 C2664 1.574 . S
C2656 C2672 1.368 . S
H2657 C2665 0.950 . S
H2658 C2663 0.950 . S
H2659 C2664 0.949 . S
H2660 C2666 0.950 . S
H2661 C2667 0.950 . S
H2662 C2668 0.949 . S
C2663 H2658 0.950 . S
C2663 C2665 1.327 . S
C2663 C2669 1.429 . S
C2664 C2656 1.574 . S
C2664 H2659 0.949 . S
C2664 C2670 1.368 . S
C2665 C2649 1.349 . S
C2665 H2657 0.950 . S
C2665 C2663 1.327 . S
C2666 C2654 1.349 . S
C2666 H2660 0.950 . S
C2666 C2667 1.327 . S
C2667 H2661 0.950 . S
C2667 C2666 1.327 . S
C2667 C2671 1.429 . S
C2668 C2651 1.574 . S
C2668 H2662 0.949 . S
C2668 C2672 1.368 . S
C2669 C2650 1.429 . S
C2669 C2663 1.429 . S
C2669 C2670 1.523 . S
C2670 C2651 1.368 . S
C2670 C2664 1.368 . S
C2670 C2669 1.523 . S
C2671 C2655 1.429 . S
C2671 C2667 1.429 . S
C2671 C2672 1.523 . S
C2672 C2656 1.368 . S
C2672 C2668 1.368 . S
C2672 C2671 1.523 . S
H2673 C2648 0.950 . S
H2674 C2650 0.950 . S
H2675 C2651 0.949 . S
H2676 C2653 0.950 . S
H2677 C2655 0.950 . S
C2678 C2679 1.349 . S
C2678 C2680 1.327 . S
C2678 H2703 0.950 . S
C2679 C2678 1.349 . S
C2679 C2695 1.349 . S
C2680 C2678 1.327 . S
C2680 C2699 1.429 . S
C2680 H2704 0.950 . S
C2681 C2698 1.574 . S
C2681 C2700 1.368 . S
C2681 H2705 0.949 . S
H2682 C2686 0.949 . S
C2683 C2684 1.349 1_455 S
C2683 C2685 1.327 . S
C2683 H2706 0.950 . S
C2684 C2683 1.349 1_655 S
C2684 C2696 1.349 . S
C2685 C2683 1.327 . S
C2685 C2701 1.429 . S
C2685 H2707 0.950 . S
C2686 H2682 0.949 . S
C2686 C2694 1.574 . S
C2686 C2702 1.368 . S
H2687 C2695 0.950 . S
H2688 C2693 0.950 . S
H2689 C2694 0.949 . S
H2690 C2696 0.950 . S
H2691 C2697 0.950 . S
H2692 C2698 0.949 . S
C2693 H2688 0.950 . S
C2693 C2695 1.327 . S
C2693 C2699 1.429 . S
C2694 C2686 1.574 . S
C2694 H2689 0.949 . S
C2694 C2700 1.368 . S
C2695 C2679 1.349 . S
C2695 H2687 0.950 . S
C2695 C2693 1.327 . S
C2696 C2684 1.349 . S
C2696 H2690 0.950 . S
C2696 C2697 1.327 1_655 S
C2697 H2691 0.950 . S
C2697 C2696 1.327 1_455 S
C2697 C2701 1.429 . S
C2698 C2681 1.574 . S
C2698 H2692 0.949 . S
C2698 C2702 1.368 . S
C2699 C2680 1.429 . S
C2699 C2693 1.429 . S
C2699 C2700 1.523 . S
C2700 C2681 1.368 . S
C2700 C2694 1.368 . S
C2700 C2699 1.523 . S
C2701 C2685 1.429 . S
C2701 C2697 1.429 . S
C2701 C2702 1.523 . S
C2702 C2686 1.368 . S
C2702 C2698 1.368 . S
C2702 C2701 1.523 . S
H2703 C2678 0.950 . S
H2704 C2680 0.950 . S
H2705 C2681 0.949 . S
H2706 C2683 0.950 . S
H2707 C2685 0.950 . S
C2708 C2709 1.349 . S
C2708 C2710 1.327 . S
C2708 H2733 0.950 . S
C2709 C2708 1.349 . S
C2709 C2725 1.349 . S
C2710 C2708 1.327 . S
C2710 C2729 1.429 . S
C2710 H2734 0.950 . S
C2711 C2728 1.574 . S
C2711 C2730 1.368 . S
C2711 H2735 0.949 . S
H2712 C2716 0.949 . S
C2713 C2714 1.349 . S
C2713 C2715 1.327 . S
C2713 H2736 0.950 . S
C2714 C2713 1.349 . S
C2714 C2726 1.349 . S
C2715 C2713 1.327 . S
C2715 C2731 1.429 . S
C2715 H2737 0.950 . S
C2716 H2712 0.949 . S
C2716 C2724 1.574 . S
C2716 C2732 1.368 . S
H2717 C2725 0.950 . S
H2718 C2723 0.950 . S
H2719 C2724 0.949 . S
H2720 C2726 0.950 . S
H2721 C2727 0.950 . S
H2722 C2728 0.949 . S
C2723 H2718 0.950 . S
C2723 C2725 1.327 . S
C2723 C2729 1.429 . S
C2724 C2716 1.574 . S
C2724 H2719 0.949 . S
C2724 C2730 1.368 . S
C2725 C2709 1.349 . S
C2725 H2717 0.950 . S
C2725 C2723 1.327 . S
C2726 C2714 1.349 . S
C2726 H2720 0.950 . S
C2726 C2727 1.327 . S
C2727 H2721 0.950 . S
C2727 C2726 1.327 . S
C2727 C2731 1.429 . S
C2728 C2711 1.574 . S
C2728 H2722 0.949 . S
C2728 C2732 1.368 . S
C2729 C2710 1.429 . S
C2729 C2723 1.429 . S
C2729 C2730 1.523 . S
C2730 C2711 1.368 . S
C2730 C2724 1.368 . S
C2730 C2729 1.523 . S
C2731 C2715 1.429 . S
C2731 C2727 1.429 . S
C2731 C2732 1.523 . S
C2732 C2716 1.368 . S
C2732 C2728 1.368 . S
C2732 C2731 1.523 . S
H2733 C2708 0.950 . S
H2734 C2710 0.950 . S
H2735 C2711 0.949 . S
H2736 C2713 0.950 . S
H2737 C2715 0.950 . S
C2738 C2739 1.349 . S
C2738 C2740 1.327 . S
C2738 H2763 0.950 . S
C2739 C2738 1.349 . S
C2739 C2755 1.349 . S
C2740 C2738 1.327 . S
C2740 C2759 1.429 . S
C2740 H2764 0.950 . S
C2741 C2758 1.574 . S
C2741 C2760 1.368 . S
C2741 H2765 0.949 . S
H2742 C2746 0.949 . S
C2743 C2744 1.349 . S
C2743 C2745 1.327 . S
C2743 H2766 0.950 . S
C2744 C2743 1.349 . S
C2744 C2756 1.349 . S
C2745 C2743 1.327 . S
C2745 C2761 1.429 . S
C2745 H2767 0.950 . S
C2746 H2742 0.949 . S
C2746 C2754 1.574 . S
C2746 C2762 1.368 . S
H2747 C2755 0.950 . S
H2748 C2753 0.950 . S
H2749 C2754 0.949 . S
H2750 C2756 0.950 . S
H2751 C2757 0.950 . S
H2752 C2758 0.949 . S
C2753 H2748 0.950 . S
C2753 C2755 1.327 . S
C2753 C2759 1.429 . S
C2754 C2746 1.574 . S
C2754 H2749 0.949 . S
C2754 C2760 1.368 . S
C2755 C2739 1.349 . S
C2755 H2747 0.950 . S
C2755 C2753 1.327 . S
C2756 C2744 1.349 . S
C2756 H2750 0.950 . S
C2756 C2757 1.327 . S
C2757 H2751 0.950 . S
C2757 C2756 1.327 . S
C2757 C2761 1.429 . S
C2758 C2741 1.574 . S
C2758 H2752 0.949 . S
C2758 C2762 1.368 . S
C2759 C2740 1.429 . S
C2759 C2753 1.429 . S
C2759 C2760 1.523 . S
C2760 C2741 1.368 . S
C2760 C2754 1.368 . S
C2760 C2759 1.523 . S
C2761 C2745 1.429 . S
C2761 C2757 1.429 . S
C2761 C2762 1.523 . S
C2762 C2746 1.368 . S
C2762 C2758 1.368 . S
C2762 C2761 1.523 . S
H2763 C2738 0.950 . S
H2764 C2740 0.950 . S
H2765 C2741 0.949 . S
H2766 C2743 0.950 . S
H2767 C2745 0.950 . S
C2768 C2769 1.349 . S
C2768 C2770 1.327 . S
C2768 H2793 0.950 . S
C2769 C2768 1.349 . S
C2769 C2785 1.349 . S
C2770 C2768 1.327 . S
C2770 C2789 1.429 . S
C2770 H2794 0.950 . S
C2771 C2788 1.574 . S
C2771 C2790 1.368 . S
C2771 H2795 0.949 . S
H2772 C2776 0.949 . S
C2773 C2774 1.349 . S
C2773 C2775 1.327 . S
C2773 H2796 0.950 . S
C2774 C2773 1.349 . S
C2774 C2786 1.349 . S
C2775 C2773 1.327 . S
C2775 C2791 1.429 . S
C2775 H2797 0.950 . S
C2776 H2772 0.949 . S
C2776 C2784 1.574 . S
C2776 C2792 1.368 . S
H2777 C2785 0.950 . S
H2778 C2783 0.950 . S
H2779 C2784 0.949 . S
H2780 C2786 0.950 . S
H2781 C2787 0.950 . S
H2782 C2788 0.949 . S
C2783 H2778 0.950 . S
C2783 C2785 1.327 . S
C2783 C2789 1.429 . S
C2784 C2776 1.574 . S
C2784 H2779 0.949 . S
C2784 C2790 1.368 . S
C2785 C2769 1.349 . S
C2785 H2777 0.950 . S
C2785 C2783 1.327 . S
C2786 C2774 1.349 . S
C2786 H2780 0.950 . S
C2786 C2787 1.327 . S
C2787 H2781 0.950 . S
C2787 C2786 1.327 . S
C2787 C2791 1.429 . S
C2788 C2771 1.574 . S
C2788 H2782 0.949 . S
C2788 C2792 1.368 . S
C2789 C2770 1.429 . S
C2789 C2783 1.429 . S
C2789 C2790 1.523 . S
C2790 C2771 1.368 . S
C2790 C2784 1.368 . S
C2790 C2789 1.523 . S
C2791 C2775 1.429 . S
C2791 C2787 1.429 . S
C2791 C2792 1.523 . S
C2792 C2776 1.368 . S
C2792 C2788 1.368 . S
C2792 C2791 1.523 . S
H2793 C2768 0.950 . S
H2794 C2770 0.950 . S
H2795 C2771 0.949 . S
H2796 C2773 0.950 . S
H2797 C2775 0.950 . S
C2798 C2799 1.349 . S
C2798 C2800 1.327 . S
C2798 H2823 0.950 . S
C2799 C2798 1.349 . S
C2799 C2815 1.349 . S
C2800 C2798 1.327 . S
C2800 C2819 1.429 . S
C2800 H2824 0.950 . S
C2801 C2818 1.574 . S
C2801 C2820 1.368 . S
C2801 H2825 0.949 . S
H2802 C2806 0.949 . S
C2803 C2804 1.349 . S
C2803 C2805 1.327 . S
C2803 H2826 0.950 . S
C2804 C2803 1.349 . S
C2804 C2816 1.349 . S
C2805 C2803 1.327 . S
C2805 C2821 1.429 . S
C2805 H2827 0.950 . S
C2806 H2802 0.949 . S
C2806 C2814 1.574 . S
C2806 C2822 1.368 . S
H2807 C2815 0.950 . S
H2808 C2813 0.950 . S
H2809 C2814 0.949 . S
H2810 C2816 0.950 . S
H2811 C2817 0.950 . S
H2812 C2818 0.949 . S
C2813 H2808 0.950 . S
C2813 C2815 1.327 . S
C2813 C2819 1.429 . S
C2814 C2806 1.574 . S
C2814 H2809 0.949 . S
C2814 C2820 1.368 . S
C2815 C2799 1.349 . S
C2815 H2807 0.950 . S
C2815 C2813 1.327 . S
C2816 C2804 1.349 . S
C2816 H2810 0.950 . S
C2816 C2817 1.327 . S
C2817 H2811 0.950 . S
C2817 C2816 1.327 . S
C2817 C2821 1.429 . S
C2818 C2801 1.574 . S
C2818 H2812 0.949 . S
C2818 C2822 1.368 . S
C2819 C2800 1.429 . S
C2819 C2813 1.429 . S
C2819 C2820 1.523 . S
C2820 C2801 1.368 . S
C2820 C2814 1.368 . S
C2820 C2819 1.523 . S
C2821 C2805 1.429 . S
C2821 C2817 1.429 . S
C2821 C2822 1.523 . S
C2822 C2806 1.368 . S
C2822 C2818 1.368 . S
C2822 C2821 1.523 . S
H2823 C2798 0.950 . S
H2824 C2800 0.950 . S
H2825 C2801 0.949 . S
H2826 C2803 0.950 . S
H2827 C2805 0.950 . S
C2828 C2829 1.349 . S
C2828 C2830 1.327 . S
C2828 H2853 0.950 . S
C2829 C2828 1.349 . S
C2829 C2845 1.349 . S
C2830 C2828 1.327 . S
C2830 C2849 1.429 . S
C2830 H2854 0.950 . S
C2831 C2848 1.574 . S
C2831 C2850 1.368 . S
C2831 H2855 0.949 . S
H2832 C2836 0.949 . S
C2833 C2834 1.349 . S
C2833 C2835 1.327 . S
C2833 H2856 0.950 . S
C2834 C2833 1.349 . S
C2834 C2846 1.349 . S
C2835 C2833 1.327 . S
C2835 C2851 1.429 . S
C2835 H2857 0.950 . S
C2836 H2832 0.949 . S
C2836 C2844 1.574 . S
C2836 C2852 1.368 . S
H2837 C2845 0.950 . S
H2838 C2843 0.950 . S
H2839 C2844 0.949 . S
H2840 C2846 0.950 . S
H2841 C2847 0.950 . S
H2842 C2848 0.949 . S
C2843 H2838 0.950 . S
C2843 C2845 1.327 . S
C2843 C2849 1.429 . S
C2844 C2836 1.574 . S
C2844 H2839 0.949 . S
C2844 C2850 1.368 . S
C2845 C2829 1.349 . S
C2845 H2837 0.950 . S
C2845 C2843 1.327 . S
C2846 C2834 1.349 . S
C2846 H2840 0.950 . S
C2846 C2847 1.327 . S
C2847 H2841 0.950 . S
C2847 C2846 1.327 . S
C2847 C2851 1.429 . S
C2848 C2831 1.574 . S
C2848 H2842 0.949 . S
C2848 C2852 1.368 . S
C2849 C2830 1.429 . S
C2849 C2843 1.429 . S
C2849 C2850 1.523 . S
C2850 C2831 1.368 . S
C2850 C2844 1.368 . S
C2850 C2849 1.523 . S
C2851 C2835 1.429 . S
C2851 C2847 1.429 . S
C2851 C2852 1.523 . S
C2852 C2836 1.368 . S
C2852 C2848 1.368 . S
C2852 C2851 1.523 . S
H2853 C2828 0.950 . S
H2854 C2830 0.950 . S
H2855 C2831 0.949 . S
H2856 C2833 0.950 . S
H2857 C2835 0.950 . S
C2858 C2859 1.349 . S
C2858 C2860 1.327 . S
C2858 H2883 0.950 . S
C2859 C2858 1.349 . S
C2859 C2875 1.349 . S
C2860 C2858 1.327 . S
C2860 C2879 1.429 . S
C2860 H2884 0.950 . S
C2861 C2878 1.574 . S
C2861 C2880 1.368 . S
C2861 H2885 0.949 . S
H2862 C2866 0.949 . S
C2863 C2864 1.349 1_655 S
C2863 C2865 1.327 . S
C2863 H2886 0.950 . S
C2864 C2863 1.349 1_455 S
C2864 C2876 1.349 . S
C2865 C2863 1.327 . S
C2865 C2881 1.429 . S
C2865 H2887 0.950 . S
C2866 H2862 0.949 . S
C2866 C2874 1.574 . S
C2866 C2882 1.368 . S
H2867 C2875 0.950 . S
H2868 C2873 0.950 . S
H2869 C2874 0.949 . S
H2870 C2876 0.950 . S
H2871 C2877 0.950 . S
H2872 C2878 0.949 . S
C2873 H2868 0.950 . S
C2873 C2875 1.327 . S
C2873 C2879 1.429 . S
C2874 C2866 1.574 . S
C2874 H2869 0.949 . S
C2874 C2880 1.368 . S
C2875 C2859 1.349 . S
C2875 H2867 0.950 . S
C2875 C2873 1.327 . S
C2876 C2864 1.349 . S
C2876 H2870 0.950 . S
C2876 C2877 1.327 1_455 S
C2877 H2871 0.950 . S
C2877 C2876 1.327 1_655 S
C2877 C2881 1.429 . S
C2878 C2861 1.574 . S
C2878 H2872 0.949 . S
C2878 C2882 1.368 . S
C2879 C2860 1.429 . S
C2879 C2873 1.429 . S
C2879 C2880 1.523 . S
C2880 C2861 1.368 . S
C2880 C2874 1.368 . S
C2880 C2879 1.523 . S
C2881 C2865 1.429 . S
C2881 C2877 1.429 . S
C2881 C2882 1.523 . S
C2882 C2866 1.368 . S
C2882 C2878 1.368 . S
C2882 C2881 1.523 . S
H2883 C2858 0.950 . S
H2884 C2860 0.950 . S
H2885 C2861 0.949 . S
H2886 C2863 0.950 . S
H2887 C2865 0.950 . S
C2888 C2889 1.349 . S
C2888 C2890 1.327 . S
C2888 H2913 0.950 . S
C2889 C2888 1.349 . S
C2889 C2905 1.349 . S
C2890 C2888 1.327 . S
C2890 C2909 1.429 . S
C2890 H2914 0.950 . S
C2891 C2908 1.574 . S
C2891 C2910 1.368 . S
C2891 H2915 0.949 . S
H2892 C2896 0.949 . S
C2893 C2894 1.349 . S
C2893 C2895 1.327 . S
C2893 H2916 0.950 . S
C2894 C2893 1.349 . S
C2894 C2906 1.349 . S
C2895 C2893 1.327 . S
C2895 C2911 1.429 . S
C2895 H2917 0.950 . S
C2896 H2892 0.949 . S
C2896 C2904 1.574 . S
C2896 C2912 1.368 . S
H2897 C2905 0.950 . S
H2898 C2903 0.950 . S
H2899 C2904 0.949 . S
H2900 C2906 0.950 . S
H2901 C2907 0.950 . S
H2902 C2908 0.949 . S
C2903 H2898 0.950 . S
C2903 C2905 1.327 . S
C2903 C2909 1.429 . S
C2904 C2896 1.574 . S
C2904 H2899 0.949 . S
C2904 C2910 1.368 . S
C2905 C2889 1.349 . S
C2905 H2897 0.950 . S
C2905 C2903 1.327 . S
C2906 C2894 1.349 . S
C2906 H2900 0.950 . S
C2906 C2907 1.327 . S
C2907 H2901 0.950 . S
C2907 C2906 1.327 . S
C2907 C2911 1.429 . S
C2908 C2891 1.574 . S
C2908 H2902 0.949 . S
C2908 C2912 1.368 . S
C2909 C2890 1.429 . S
C2909 C2903 1.429 . S
C2909 C2910 1.523 . S
C2910 C2891 1.368 . S
C2910 C2904 1.368 . S
C2910 C2909 1.523 . S
C2911 C2895 1.429 . S
C2911 C2907 1.429 . S
C2911 C2912 1.523 . S
C2912 C2896 1.368 . S
C2912 C2908 1.368 . S
C2912 C2911 1.523 . S
H2913 C2888 0.950 . S
H2914 C2890 0.950 . S
H2915 C2891 0.949 . S
H2916 C2893 0.950 . S
H2917 C2895 0.950 . S
C2918 C2919 1.349 . S
C2918 C2920 1.327 . S
C2918 H2943 0.950 . S
C2919 C2918 1.349 . S
C2919 C2935 1.349 . S
C2920 C2918 1.327 . S
C2920 C2939 1.429 . S
C2920 H2944 0.950 . S
C2921 C2938 1.574 . S
C2921 C2940 1.368 . S
C2921 H2945 0.949 . S
H2922 C2926 0.949 . S
C2923 C2924 1.349 1_655 S
C2923 C2925 1.327 . S
C2923 H2946 0.950 . S
C2924 C2923 1.349 1_455 S
C2924 C2936 1.349 . S
C2925 C2923 1.327 . S
C2925 C2941 1.429 . S
C2925 H2947 0.950 . S
C2926 H2922 0.949 . S
C2926 C2934 1.574 . S
C2926 C2942 1.368 . S
H2927 C2935 0.950 . S
H2928 C2933 0.950 . S
H2929 C2934 0.949 . S
H2930 C2936 0.950 . S
H2931 C2937 0.950 . S
H2932 C2938 0.949 . S
C2933 H2928 0.950 . S
C2933 C2935 1.327 . S
C2933 C2939 1.429 . S
C2934 C2926 1.574 . S
C2934 H2929 0.949 . S
C2934 C2940 1.368 . S
C2935 C2919 1.349 . S
C2935 H2927 0.950 . S
C2935 C2933 1.327 . S
C2936 C2924 1.349 . S
C2936 H2930 0.950 . S
C2936 C2937 1.327 1_455 S
C2937 H2931 0.950 . S
C2937 C2936 1.327 1_655 S
C2937 C2941 1.429 . S
C2938 C2921 1.574 . S
C2938 H2932 0.949 . S
C2938 C2942 1.368 . S
C2939 C2920 1.429 . S
C2939 C2933 1.429 . S
C2939 C2940 1.523 . S
C2940 C2921 1.368 . S
C2940 C2934 1.368 . S
C2940 C2939 1.523 . S
C2941 C2925 1.429 . S
C2941 C2937 1.429 . S
C2941 C2942 1.523 . S
C2942 C2926 1.368 . S
C2942 C2938 1.368 . S
C2942 C2941 1.523 . S
H2943 C2918 0.950 . S
H2944 C2920 0.950 . S
H2945 C2921 0.949 . S
H2946 C2923 0.950 . S
H2947 C2925 0.950 . S
C2948 C2949 1.349 . S
C2948 C2950 1.327 . S
C2948 H2973 0.950 . S
C2949 C2948 1.349 . S
C2949 C2965 1.349 . S
C2950 C2948 1.327 . S
C2950 C2969 1.429 . S
C2950 H2974 0.950 . S
C2951 C2968 1.574 . S
C2951 C2970 1.368 . S
C2951 H2975 0.949 . S
H2952 C2956 0.949 . S
C2953 C2954 1.349 . S
C2953 C2955 1.327 . S
C2953 H2976 0.950 . S
C2954 C2953 1.349 . S
C2954 C2966 1.349 . S
C2955 C2953 1.327 . S
C2955 C2971 1.429 . S
C2955 H2977 0.950 . S
C2956 H2952 0.949 . S
C2956 C2964 1.574 . S
C2956 C2972 1.368 . S
H2957 C2965 0.950 . S
H2958 C2963 0.950 . S
H2959 C2964 0.949 . S
H2960 C2966 0.950 . S
H2961 C2967 0.950 . S
H2962 C2968 0.949 . S
C2963 H2958 0.950 . S
C2963 C2965 1.327 . S
C2963 C2969 1.429 . S
C2964 C2956 1.574 . S
C2964 H2959 0.949 . S
C2964 C2970 1.368 . S
C2965 C2949 1.349 . S
C2965 H2957 0.950 . S
C2965 C2963 1.327 . S
C2966 C2954 1.349 . S
C2966 H2960 0.950 . S
C2966 C2967 1.327 . S
C2967 H2961 0.950 . S
C2967 C2966 1.327 . S
C2967 C2971 1.429 . S
C2968 C2951 1.574 . S
C2968 H2962 0.949 . S
C2968 C2972 1.368 . S
C2969 C2950 1.429 . S
C2969 C2963 1.429 . S
C2969 C2970 1.523 . S
C2970 C2951 1.368 . S
C2970 C2964 1.368 . S
C2970 C2969 1.523 . S
C2971 C2955 1.429 . S
C2971 C2967 1.429 . S
C2971 C2972 1.523 . S
C2972 C2956 1.368 . S
C2972 C2968 1.368 . S
C2972 C2971 1.523 . S
H2973 C2948 0.950 . S
H2974 C2950 0.950 . S
H2975 C2951 0.949 . S
H2976 C2953 0.950 . S
H2977 C2955 0.950 . S
C2978 C2979 1.349 . S
C2978 C2980 1.327 . S
C2978 H3003 0.950 . S
C2979 C2978 1.349 . S
C2979 C2995 1.349 . S
C2980 C2978 1.327 . S
C2980 C2999 1.429 . S
C2980 H3004 0.950 . S
C2981 C2998 1.574 . S
C2981 C3000 1.368 . S
C2981 H3005 0.949 . S
H2982 C2986 0.949 . S
C2983 C2984 1.349 . S
C2983 C2985 1.327 . S
C2983 H3006 0.950 . S
C2984 C2983 1.349 . S
C2984 C2996 1.349 . S
C2985 C2983 1.327 . S
C2985 C3001 1.429 . S
C2985 H3007 0.950 . S
C2986 H2982 0.949 . S
C2986 C2994 1.574 . S
C2986 C3002 1.368 . S
H2987 C2995 0.950 . S
H2988 C2993 0.950 . S
H2989 C2994 0.949 . S
H2990 C2996 0.950 . S
H2991 C2997 0.950 . S
H2992 C2998 0.949 . S
C2993 H2988 0.950 . S
C2993 C2995 1.327 . S
C2993 C2999 1.429 . S
C2994 C2986 1.574 . S
C2994 H2989 0.949 . S
C2994 C3000 1.368 . S
C2995 C2979 1.349 . S
C2995 H2987 0.950 . S
C2995 C2993 1.327 . S
C2996 C2984 1.349 . S
C2996 H2990 0.950 . S
C2996 C2997 1.327 . S
C2997 H2991 0.950 . S
C2997 C2996 1.327 . S
C2997 C3001 1.429 . S
C2998 C2981 1.574 . S
C2998 H2992 0.949 . S
C2998 C3002 1.368 . S
C2999 C2980 1.429 . S
C2999 C2993 1.429 . S
C2999 C3000 1.523 . S
C3000 C2981 1.368 . S
C3000 C2994 1.368 . S
C3000 C2999 1.523 . S
C3001 C2985 1.429 . S
C3001 C2997 1.429 . S
C3001 C3002 1.523 . S
C3002 C2986 1.368 . S
C3002 C2998 1.368 . S
C3002 C3001 1.523 . S
H3003 C2978 0.950 . S
H3004 C2980 0.950 . S
H3005 C2981 0.949 . S
H3006 C2983 0.950 . S
H3007 C2985 0.950 . S
C3008 C3009 1.349 . S
C3008 C3010 1.327 . S
C3008 H3033 0.950 . S
C3009 C3008 1.349 . S
C3009 C3025 1.349 . S
C3010 C3008 1.327 . S
C3010 C3029 1.429 . S
C3010 H3034 0.950 . S
C3011 C3028 1.574 . S
C3011 C3030 1.368 . S
C3011 H3035 0.949 . S
H3012 C3016 0.949 . S
C3013 C3014 1.349 . S
C3013 C3015 1.327 . S
C3013 H3036 0.950 . S
C3014 C3013 1.349 . S
C3014 C3026 1.349 . S
C3015 C3013 1.327 . S
C3015 C3031 1.429 . S
C3015 H3037 0.950 . S
C3016 H3012 0.949 . S
C3016 C3024 1.574 . S
C3016 C3032 1.368 . S
H3017 C3025 0.950 . S
H3018 C3023 0.950 . S
H3019 C3024 0.949 . S
H3020 C3026 0.950 . S
H3021 C3027 0.950 . S
H3022 C3028 0.949 . S
C3023 H3018 0.950 . S
C3023 C3025 1.327 . S
C3023 C3029 1.429 . S
C3024 C3016 1.574 . S
C3024 H3019 0.949 . S
C3024 C3030 1.368 . S
C3025 C3009 1.349 . S
C3025 H3017 0.950 . S
C3025 C3023 1.327 . S
C3026 C3014 1.349 . S
C3026 H3020 0.950 . S
C3026 C3027 1.327 . S
C3027 H3021 0.950 . S
C3027 C3026 1.327 . S
C3027 C3031 1.429 . S
C3028 C3011 1.574 . S
C3028 H3022 0.949 . S
C3028 C3032 1.368 . S
C3029 C3010 1.429 . S
C3029 C3023 1.429 . S
C3029 C3030 1.523 . S
C3030 C3011 1.368 . S
C3030 C3024 1.368 . S
C3030 C3029 1.523 . S
C3031 C3015 1.429 . S
C3031 C3027 1.429 . S
C3031 C3032 1.523 . S
C3032 C3016 1.368 . S
C3032 C3028 1.368 . S
C3032 C3031 1.523 . S
H3033 C3008 0.950 . S
H3034 C3010 0.950 . S
H3035 C3011 0.949 . S
H3036 C3013 0.950 . S
H3037 C3015 0.950 . S
C3038 C3039 1.349 . S
C3038 C3040 1.327 . S
C3038 H3063 0.950 . S
C3039 C3038 1.349 . S
C3039 C3055 1.349 . S
C3040 C3038 1.327 . S
C3040 C3059 1.429 . S
C3040 H3064 0.950 . S
C3041 C3058 1.544 1_565 S
C3041 C3060 1.368 1_655 S
C3041 H3065 0.949 . S
H3042 C3046 0.949 . S
C3043 C3044 1.349 . S
C3043 C3045 1.327 . S
C3043 H3066 0.950 . S
C3044 C3043 1.349 . S
C3044 C3056 1.349 . S
C3045 C3043 1.327 . S
C3045 C3061 1.429 . S
C3045 H3067 0.950 . S
C3046 H3042 0.949 . S
C3046 C3054 1.544 1_545 S
C3046 C3062 1.368 1_455 S
H3047 C3055 0.950 . S
H3048 C3053 0.950 . S
H3049 C3054 0.952 . S
H3050 C3056 0.950 . S
H3051 C3057 0.950 . S
H3052 C3058 0.952 . S
C3053 H3048 0.950 . S
C3053 C3055 1.327 . S
C3053 C3059 1.429 . S
C3054 C3046 1.544 1_565 S
C3054 H3049 0.952 . S
C3054 C3060 1.396 . S
C3055 C3039 1.349 . S
C3055 H3047 0.950 . S
C3055 C3053 1.327 . S
C3056 C3044 1.349 . S
C3056 H3050 0.950 . S
C3056 C3057 1.327 . S
C3057 H3051 0.950 . S
C3057 C3056 1.327 . S
C3057 C3061 1.429 . S
C3058 C3041 1.544 1_545 S
C3058 H3052 0.952 . S
C3058 C3062 1.396 . S
C3059 C3040 1.429 . S
C3059 C3053 1.429 . S
C3059 C3060 1.523 . S
C3060 C3041 1.368 1_455 S
C3060 C3054 1.396 . S
C3060 C3059 1.523 . S
C3061 C3045 1.429 . S
C3061 C3057 1.429 . S
C3061 C3062 1.523 . S
C3062 C3046 1.368 1_655 S
C3062 C3058 1.396 . S
C3062 C3061 1.523 . S
H3063 C3038 0.950 . S
H3064 C3040 0.950 . S
H3065 C3041 0.949 . S
H3066 C3043 0.950 . S
H3067 C3045 0.950 . S
C3068 C3069 1.349 . S
C3068 C3070 1.327 . S
C3068 H3093 0.950 . S
C3069 C3068 1.349 . S
C3069 C3085 1.349 . S
C3070 C3068 1.327 . S
C3070 C3089 1.429 . S
C3070 H3094 0.950 . S
C3071 C3088 1.574 . S
C3071 C3090 1.368 . S
C3071 H3095 0.949 . S
H3072 C3076 0.949 . S
C3073 C3074 1.349 . S
C3073 C3075 1.327 . S
C3073 H3096 0.950 . S
C3074 C3073 1.349 . S
C3074 C3086 1.349 . S
C3075 C3073 1.327 . S
C3075 C3091 1.429 . S
C3075 H3097 0.950 . S
C3076 H3072 0.949 . S
C3076 C3084 1.574 . S
C3076 C3092 1.368 . S
H3077 C3085 0.950 . S
H3078 C3083 0.950 . S
H3079 C3084 0.949 . S
H3080 C3086 0.950 . S
H3081 C3087 0.950 . S
H3082 C3088 0.949 . S
C3083 H3078 0.950 . S
C3083 C3085 1.327 . S
C3083 C3089 1.429 . S
C3084 C3076 1.574 . S
C3084 H3079 0.949 . S
C3084 C3090 1.368 . S
C3085 C3069 1.349 . S
C3085 H3077 0.950 . S
C3085 C3083 1.327 . S
C3086 C3074 1.349 . S
C3086 H3080 0.950 . S
C3086 C3087 1.327 . S
C3087 H3081 0.950 . S
C3087 C3086 1.327 . S
C3087 C3091 1.429 . S
C3088 C3071 1.574 . S
C3088 H3082 0.949 . S
C3088 C3092 1.368 . S
C3089 C3070 1.429 . S
C3089 C3083 1.429 . S
C3089 C3090 1.523 . S
C3090 C3071 1.368 . S
C3090 C3084 1.368 . S
C3090 C3089 1.523 . S
C3091 C3075 1.429 . S
C3091 C3087 1.429 . S
C3091 C3092 1.523 . S
C3092 C3076 1.368 . S
C3092 C3088 1.368 . S
C3092 C3091 1.523 . S
H3093 C3068 0.950 . S
H3094 C3070 0.950 . S
H3095 C3071 0.949 . S
H3096 C3073 0.950 . S
H3097 C3075 0.950 . S
C3098 C3099 1.349 . S
C3098 C3100 1.327 1_556 S
C3098 H3123 0.950 1_556 S
C3099 C3098 1.349 . S
C3099 C3115 1.349 . S
C3100 C3098 1.327 1_554 S
C3100 C3119 1.429 1_554 S
C3100 H3124 0.950 . S
C3101 C3118 1.574 1_565 S
C3101 C3120 1.368 . S
C3101 H3125 0.949 . S
H3102 C3106 0.949 . S
C3103 C3104 1.349 . S
C3103 C3105 1.327 1_554 S
C3103 H3126 0.950 1_554 S
C3104 C3103 1.349 . S
C3104 C3116 1.349 . S
C3105 C3103 1.327 1_556 S
C3105 C3121 1.429 1_556 S
C3105 H3127 0.950 . S
C3106 H3102 0.949 . S
C3106 C3114 1.574 1_545 S
C3106 C3122 1.368 . S
H3107 C3115 0.950 . S
H3108 C3113 0.950 . S
H3109 C3114 0.949 . S
H3110 C3116 0.950 . S
H3111 C3117 0.950 . S
H3112 C3118 0.949 . S
C3113 H3108 0.950 . S
C3113 C3115 1.327 . S
C3113 C3119 1.429 . S
C3114 C3106 1.574 1_565 S
C3114 H3109 0.949 . S
C3114 C3120 1.368 1_554 S
C3115 C3099 1.349 . S
C3115 H3107 0.950 . S
C3115 C3113 1.327 . S
C3116 C3104 1.349 . S
C3116 H3110 0.950 . S
C3116 C3117 1.327 . S
C3117 H3111 0.950 . S
C3117 C3116 1.327 . S
C3117 C3121 1.429 . S
C3118 C3101 1.574 1_545 S
C3118 H3112 0.949 . S
C3118 C3122 1.368 1_556 S
C3119 C3100 1.429 1_556 S
C3119 C3113 1.429 . S
C3119 C3120 1.523 . S
C3120 C3101 1.368 . S
C3120 C3114 1.368 1_556 S
C3120 C3119 1.523 . S
C3121 C3105 1.429 1_554 S
C3121 C3117 1.429 . S
C3121 C3122 1.523 . S
C3122 C3106 1.368 . S
C3122 C3118 1.368 1_554 S
C3122 C3121 1.523 . S
H3123 C3098 0.950 1_554 S
H3124 C3100 0.950 . S
H3125 C3101 0.949 . S
H3126 C3103 0.950 1_556 S
H3127 C3105 0.950 . S
C3128 C3129 1.349 . S
C3128 C3130 1.327 . S
C3128 H3153 0.950 . S
C3129 C3128 1.349 . S
C3129 C3145 1.349 . S
C3130 C3128 1.327 . S
C3130 C3149 1.429 . S
C3130 H3154 0.950 . S
C3131 C3148 1.574 . S
C3131 C3150 1.368 . S
C3131 H3155 0.949 . S
H3132 C3136 0.949 . S
C3133 C3134 1.349 . S
C3133 C3135 1.327 . S
C3133 H3156 0.950 . S
C3134 C3133 1.349 . S
C3134 C3146 1.349 . S
C3135 C3133 1.327 . S
C3135 C3151 1.429 . S
C3135 H3157 0.950 . S
C3136 H3132 0.949 . S
C3136 C3144 1.574 . S
C3136 C3152 1.368 . S
H3137 C3145 0.950 . S
H3138 C3143 0.950 . S
H3139 C3144 0.949 . S
H3140 C3146 0.950 . S
H3141 C3147 0.950 . S
H3142 C3148 0.949 . S
C3143 H3138 0.950 . S
C3143 C3145 1.327 . S
C3143 C3149 1.429 . S
C3144 C3136 1.574 . S
C3144 H3139 0.949 . S
C3144 C3150 1.368 . S
C3145 C3129 1.349 . S
C3145 H3137 0.950 . S
C3145 C3143 1.327 . S
C3146 C3134 1.349 . S
C3146 H3140 0.950 . S
C3146 C3147 1.327 . S
C3147 H3141 0.950 . S
C3147 C3146 1.327 . S
C3147 C3151 1.429 . S
C3148 C3131 1.574 . S
C3148 H3142 0.949 . S
C3148 C3152 1.368 . S
C3149 C3130 1.429 . S
C3149 C3143 1.429 . S
C3149 C3150 1.523 . S
C3150 C3131 1.368 . S
C3150 C3144 1.368 . S
C3150 C3149 1.523 . S
C3151 C3135 1.429 . S
C3151 C3147 1.429 . S
C3151 C3152 1.523 . S
C3152 C3136 1.368 . S
C3152 C3148 1.368 . S
C3152 C3151 1.523 . S
H3153 C3128 0.950 . S
H3154 C3130 0.950 . S
H3155 C3131 0.949 . S
H3156 C3133 0.950 . S
H3157 C3135 0.950 . S
C3158 C3159 1.349 . S
C3158 C3160 1.327 . S
C3158 H3183 0.950 . S
C3159 C3158 1.349 . S
C3159 C3175 1.349 . S
C3160 C3158 1.327 . S
C3160 C3179 1.429 . S
C3160 H3184 0.950 . S
C3161 C3178 1.574 1_545 S
C3161 C3180 1.368 . S
C3161 H3185 0.949 . S
H3162 C3166 0.949 . S
C3163 C3164 1.349 . S
C3163 C3165 1.327 . S
C3163 H3186 0.950 . S
C3164 C3163 1.349 . S
C3164 C3176 1.349 . S
C3165 C3163 1.327 . S
C3165 C3181 1.429 . S
C3165 H3187 0.950 . S
C3166 H3162 0.949 . S
C3166 C3174 1.574 1_565 S
C3166 C3182 1.368 . S
H3167 C3175 0.950 . S
H3168 C3173 0.950 . S
H3169 C3174 0.949 . S
H3170 C3176 0.950 . S
H3171 C3177 0.950 . S
H3172 C3178 0.949 . S
C3173 H3168 0.950 . S
C3173 C3175 1.327 . S
C3173 C3179 1.429 . S
C3174 C3166 1.574 1_545 S
C3174 H3169 0.949 . S
C3174 C3180 1.368 . S
C3175 C3159 1.349 . S
C3175 H3167 0.950 . S
C3175 C3173 1.327 . S
C3176 C3164 1.349 . S
C3176 H3170 0.950 . S
C3176 C3177 1.327 . S
C3177 H3171 0.950 . S
C3177 C3176 1.327 . S
C3177 C3181 1.429 . S
C3178 C3161 1.574 1_565 S
C3178 H3172 0.949 . S
C3178 C3182 1.368 . S
C3179 C3160 1.429 . S
C3179 C3173 1.429 . S
C3179 C3180 1.523 . S
C3180 C3161 1.368 . S
C3180 C3174 1.368 . S
C3180 C3179 1.523 . S
C3181 C3165 1.429 . S
C3181 C3177 1.429 . S
C3181 C3182 1.523 . S
C3182 C3166 1.368 . S
C3182 C3178 1.368 . S
C3182 C3181 1.523 . S
H3183 C3158 0.950 . S
H3184 C3160 0.950 . S
H3185 C3161 0.949 . S
H3186 C3163 0.950 . S
H3187 C3165 0.950 . S
C3188 C3189 1.349 . S
C3188 C3190 1.327 . S
C3188 H3213 0.950 . S
C3189 C3188 1.349 . S
C3189 C3205 1.349 . S
C3190 C3188 1.327 . S
C3190 C3209 1.429 . S
C3190 H3214 0.950 . S
C3191 C3208 1.574 . S
C3191 C3210 1.368 . S
C3191 H3215 0.949 . S
H3192 C3196 0.949 . S
C3193 C3194 1.349 . S
C3193 C3195 1.327 . S
C3193 H3216 0.950 . S
C3194 C3193 1.349 . S
C3194 C3206 1.349 . S
C3195 C3193 1.327 . S
C3195 C3211 1.429 . S
C3195 H3217 0.950 . S
C3196 H3192 0.949 . S
C3196 C3204 1.574 . S
C3196 C3212 1.368 . S
H3197 C3205 0.950 . S
H3198 C3203 0.950 . S
H3199 C3204 0.949 . S
H3200 C3206 0.950 . S
H3201 C3207 0.950 . S
H3202 C3208 0.949 . S
C3203 H3198 0.950 . S
C3203 C3205 1.327 . S
C3203 C3209 1.429 . S
C3204 C3196 1.574 . S
C3204 H3199 0.949 . S
C3204 C3210 1.368 . S
C3205 C3189 1.349 . S
C3205 H3197 0.950 . S
C3205 C3203 1.327 . S
C3206 C3194 1.349 . S
C3206 H3200 0.950 . S
C3206 C3207 1.327 . S
C3207 H3201 0.950 . S
C3207 C3206 1.327 . S
C3207 C3211 1.429 . S
C3208 C3191 1.574 . S
C3208 H3202 0.949 . S
C3208 C3212 1.368 . S
C3209 C3190 1.429 . S
C3209 C3203 1.429 . S
C3209 C3210 1.523 . S
C3210 C3191 1.368 . S
C3210 C3204 1.368 . S
C3210 C3209 1.523 . S
C3211 C3195 1.429 . S
C3211 C3207 1.429 . S
C3211 C3212 1.523 . S
C3212 C3196 1.368 . S
C3212 C3208 1.368 . S
C3212 C3211 1.523 . S
H3213 C3188 0.950 . S
H3214 C3190 0.950 . S
H3215 C3191 0.949 . S
H3216 C3193 0.950 . S
H3217 C3195 0.950 . S
C3218 C3219 1.349 . S
C3218 C3220 1.327 . S
C3218 H3243 0.950 . S
C3219 C3218 1.349 . S
C3219 C3235 1.349 . S
C3220 C3218 1.327 . S
C3220 C3239 1.429 . S
C3220 H3244 0.950 . S
C3221 C3238 1.574 1_565 S
C3221 C3240 1.368 1_556 S
C3221 H3245 0.949 . S
H3222 C3226 0.949 . S
C3223 C3224 1.349 . S
C3223 C3225 1.327 . S
C3223 H3246 0.950 . S
C3224 C3223 1.349 . S
C3224 C3236 1.349 . S
C3225 C3223 1.327 . S
C3225 C3241 1.429 . S
C3225 H3247 0.950 . S
C3226 H3222 0.949 . S
C3226 C3234 1.574 1_545 S
C3226 C3242 1.368 1_554 S
H3227 C3235 0.950 1_556 S
H3228 C3233 0.950 . S
H3229 C3234 0.949 . S
H3230 C3236 0.950 1_554 S
H3231 C3237 0.950 . S
H3232 C3238 0.949 . S
C3233 H3228 0.950 . S
C3233 C3235 1.327 1_556 S
C3233 C3239 1.429 1_556 S
C3234 C3226 1.574 1_565 S
C3234 H3229 0.949 . S
C3234 C3240 1.368 1_455 S
C3235 C3219 1.349 . S
C3235 H3227 0.950 1_554 S
C3235 C3233 1.327 1_554 S
C3236 C3224 1.349 . S
C3236 H3230 0.950 1_556 S
C3236 C3237 1.327 1_556 S
C3237 H3231 0.950 . S
C3237 C3236 1.327 1_554 S
C3237 C3241 1.429 1_554 S
C3238 C3221 1.574 1_545 S
C3238 H3232 0.949 . S
C3238 C3242 1.368 1_655 S
C3239 C3220 1.429 . S
C3239 C3233 1.429 1_554 S
C3239 C3240 1.523 . S
C3240 C3221 1.368 1_554 S
C3240 C3234 1.368 1_655 S
C3240 C3239 1.523 . S
C3241 C3225 1.429 . S
C3241 C3237 1.429 1_556 S
C3241 C3242 1.523 . S
C3242 C3226 1.368 1_556 S
C3242 C3238 1.368 1_455 S
C3242 C3241 1.523 . S
H3243 C3218 0.950 . S
H3244 C3220 0.950 . S
H3245 C3221 0.949 . S
H3246 C3223 0.950 . S
H3247 C3225 0.950 . S
C3248 C3249 1.349 . S
C3248 C3250 1.327 . S
C3248 H3273 0.950 . S
C3249 C3248 1.349 . S
C3249 C3265 1.349 . S
C3250 C3248 1.327 . S
C3250 C3269 1.429 . S
C3250 H3274 0.950 . S
C3251 C3268 1.574 . S
C3251 C3270 1.368 . S
C3251 H3275 0.949 . S
H3252 C3256 0.949 . S
C3253 C3254 1.349 . S
C3253 C3255 1.327 . S
C3253 H3276 0.950 . S
C3254 C3253 1.349 . S
C3254 C3266 1.349 . S
C3255 C3253 1.327 . S
C3255 C3271 1.429 . S
C3255 H3277 0.950 . S
C3256 H3252 0.949 . S
C3256 C3264 1.574 . S
C3256 C3272 1.368 . S
H3257 C3265 0.950 . S
H3258 C3263 0.950 . S
H3259 C3264 0.949 . S
H3260 C3266 0.950 . S
H3261 C3267 0.950 . S
H3262 C3268 0.949 . S
C3263 H3258 0.950 . S
C3263 C3265 1.327 . S
C3263 C3269 1.429 . S
C3264 C3256 1.574 . S
C3264 H3259 0.949 . S
C3264 C3270 1.368 . S
C3265 C3249 1.349 . S
C3265 H3257 0.950 . S
C3265 C3263 1.327 . S
C3266 C3254 1.349 . S
C3266 H3260 0.950 . S
C3266 C3267 1.327 . S
C3267 H3261 0.950 . S
C3267 C3266 1.327 . S
C3267 C3271 1.429 . S
C3268 C3251 1.574 . S
C3268 H3262 0.949 . S
C3268 C3272 1.368 . S
C3269 C3250 1.429 . S
C3269 C3263 1.429 . S
C3269 C3270 1.523 . S
C3270 C3251 1.368 . S
C3270 C3264 1.368 . S
C3270 C3269 1.523 . S
C3271 C3255 1.429 . S
C3271 C3267 1.429 . S
C3271 C3272 1.523 . S
C3272 C3256 1.368 . S
C3272 C3268 1.368 . S
C3272 C3271 1.523 . S
H3273 C3248 0.950 . S
H3274 C3250 0.950 . S
H3275 C3251 0.949 . S
H3276 C3253 0.950 . S
H3277 C3255 0.950 . S
C3278 C3279 1.349 . S
C3278 C3280 1.327 . S
C3278 H3303 0.950 . S
C3279 C3278 1.349 . S
C3279 C3295 1.349 . S
C3280 C3278 1.327 . S
C3280 C3299 1.429 . S
C3280 H3304 0.950 . S
C3281 C3298 1.574 . S
C3281 C3300 1.368 . S
C3281 H3305 0.949 . S
H3282 C3286 0.949 . S
C3283 C3284 1.349 . S
C3283 C3285 1.327 . S
C3283 H3306 0.950 . S
C3284 C3283 1.349 . S
C3284 C3296 1.349 . S
C3285 C3283 1.327 . S
C3285 C3301 1.429 . S
C3285 H3307 0.950 . S
C3286 H3282 0.949 . S
C3286 C3294 1.574 . S
C3286 C3302 1.368 . S
H3287 C3295 0.950 . S
H3288 C3293 0.950 . S
H3289 C3294 0.949 . S
H3290 C3296 0.950 . S
H3291 C3297 0.950 . S
H3292 C3298 0.949 . S
C3293 H3288 0.950 . S
C3293 C3295 1.327 . S
C3293 C3299 1.429 . S
C3294 C3286 1.574 . S
C3294 H3289 0.949 . S
C3294 C3300 1.368 . S
C3295 C3279 1.349 . S
C3295 H3287 0.950 . S
C3295 C3293 1.327 . S
C3296 C3284 1.349 . S
C3296 H3290 0.950 . S
C3296 C3297 1.327 . S
C3297 H3291 0.950 . S
C3297 C3296 1.327 . S
C3297 C3301 1.429 . S
C3298 C3281 1.574 . S
C3298 H3292 0.949 . S
C3298 C3302 1.368 . S
C3299 C3280 1.429 . S
C3299 C3293 1.429 . S
C3299 C3300 1.523 . S
C3300 C3281 1.368 . S
C3300 C3294 1.368 . S
C3300 C3299 1.523 . S
C3301 C3285 1.429 . S
C3301 C3297 1.429 . S
C3301 C3302 1.523 . S
C3302 C3286 1.368 . S
C3302 C3298 1.368 . S
C3302 C3301 1.523 . S
H3303 C3278 0.950 . S
H3304 C3280 0.950 . S
H3305 C3281 0.949 . S
H3306 C3283 0.950 . S
H3307 C3285 0.950 . S
C3308 C3309 1.349 . S
C3308 C3310 1.327 . S
C3308 H3333 0.950 . S
C3309 C3308 1.349 . S
C3309 C3325 1.349 . S
C3310 C3308 1.327 . S
C3310 C3329 1.429 . S
C3310 H3334 0.950 . S
C3311 C3328 1.574 . S
C3311 C3330 1.368 . S
C3311 H3335 0.949 . S
H3312 C3316 0.949 . S
C3313 C3314 1.349 . S
C3313 C3315 1.327 . S
C3313 H3336 0.950 . S
C3314 C3313 1.349 . S
C3314 C3326 1.349 . S
C3315 C3313 1.327 . S
C3315 C3331 1.429 . S
C3315 H3337 0.950 . S
C3316 H3312 0.949 . S
C3316 C3324 1.574 . S
C3316 C3332 1.368 . S
H3317 C3325 0.950 . S
H3318 C3323 0.950 . S
H3319 C3324 0.949 . S
H3320 C3326 0.950 . S
H3321 C3327 0.950 . S
H3322 C3328 0.949 . S
C3323 H3318 0.950 . S
C3323 C3325 1.327 . S
C3323 C3329 1.429 . S
C3324 C3316 1.574 . S
C3324 H3319 0.949 . S
C3324 C3330 1.368 . S
C3325 C3309 1.349 . S
C3325 H3317 0.950 . S
C3325 C3323 1.327 . S
C3326 C3314 1.349 . S
C3326 H3320 0.950 . S
C3326 C3327 1.327 . S
C3327 H3321 0.950 . S
C3327 C3326 1.327 . S
C3327 C3331 1.429 . S
C3328 C3311 1.574 . S
C3328 H3322 0.949 . S
C3328 C3332 1.368 . S
C3329 C3310 1.429 . S
C3329 C3323 1.429 . S
C3329 C3330 1.523 . S
C3330 C3311 1.368 . S
C3330 C3324 1.368 . S
C3330 C3329 1.523 . S
C3331 C3315 1.429 . S
C3331 C3327 1.429 . S
C3331 C3332 1.523 . S
C3332 C3316 1.368 . S
C3332 C3328 1.368 . S
C3332 C3331 1.523 . S
H3333 C3308 0.950 . S
H3334 C3310 0.950 . S
H3335 C3311 0.949 . S
H3336 C3313 0.950 . S
H3337 C3315 0.950 . S
C3338 C3339 1.349 . S
C3338 C3340 1.327 . S
C3338 H3363 0.950 . S
C3339 C3338 1.349 . S
C3339 C3355 1.349 . S
C3340 C3338 1.327 . S
C3340 C3359 1.429 . S
C3340 H3364 0.950 . S
C3341 C3358 1.574 . S
C3341 C3360 1.368 . S
C3341 H3365 0.949 . S
H3342 C3346 0.949 . S
C3343 C3344 1.349 . S
C3343 C3345 1.327 . S
C3343 H3366 0.950 . S
C3344 C3343 1.349 . S
C3344 C3356 1.349 . S
C3345 C3343 1.327 . S
C3345 C3361 1.429 . S
C3345 H3367 0.950 . S
C3346 H3342 0.949 . S
C3346 C3354 1.574 . S
C3346 C3362 1.368 . S
H3347 C3355 0.950 . S
H3348 C3353 0.950 . S
H3349 C3354 0.949 . S
H3350 C3356 0.950 . S
H3351 C3357 0.950 . S
H3352 C3358 0.949 . S
C3353 H3348 0.950 . S
C3353 C3355 1.327 . S
C3353 C3359 1.429 . S
C3354 C3346 1.574 . S
C3354 H3349 0.949 . S
C3354 C3360 1.368 . S
C3355 C3339 1.349 . S
C3355 H3347 0.950 . S
C3355 C3353 1.327 . S
C3356 C3344 1.349 . S
C3356 H3350 0.950 . S
C3356 C3357 1.327 . S
C3357 H3351 0.950 . S
C3357 C3356 1.327 . S
C3357 C3361 1.429 . S
C3358 C3341 1.574 . S
C3358 H3352 0.949 . S
C3358 C3362 1.368 . S
C3359 C3340 1.429 . S
C3359 C3353 1.429 . S
C3359 C3360 1.523 . S
C3360 C3341 1.368 . S
C3360 C3354 1.368 . S
C3360 C3359 1.523 . S
C3361 C3345 1.429 . S
C3361 C3357 1.429 . S
C3361 C3362 1.523 . S
C3362 C3346 1.368 . S
C3362 C3358 1.368 . S
C3362 C3361 1.523 . S
H3363 C3338 0.950 . S
H3364 C3340 0.950 . S
H3365 C3341 0.949 . S
H3366 C3343 0.950 . S
H3367 C3345 0.950 . S
C3368 C3369 1.349 . S
C3368 C3370 1.327 . S
C3368 H3393 0.950 . S
C3369 C3368 1.349 . S
C3369 C3385 1.349 . S
C3370 C3368 1.327 . S
C3370 C3389 1.429 . S
C3370 H3394 0.950 . S
C3371 C3388 1.574 . S
C3371 C3390 1.368 1_554 S
C3371 H3395 0.949 . S
H3372 C3376 0.949 . S
C3373 C3374 1.349 . S
C3373 C3375 1.327 . S
C3373 H3396 0.950 . S
C3374 C3373 1.349 . S
C3374 C3386 1.349 . S
C3375 C3373 1.327 . S
C3375 C3391 1.429 . S
C3375 H3397 0.950 . S
C3376 H3372 0.949 . S
C3376 C3384 1.574 . S
C3376 C3392 1.368 1_556 S
H3377 C3385 0.950 1_554 S
H3378 C3383 0.949 1_554 S
H3379 C3384 0.949 . S
H3380 C3386 0.950 1_556 S
H3381 C3387 0.949 1_556 S
H3382 C3388 0.949 . S
C3383 H3378 0.949 1_556 S
C3383 C3385 1.327 . S
C3383 C3389 1.429 . S
C3384 C3376 1.574 . S
C3384 H3379 0.949 . S
C3384 C3390 1.368 . S
C3385 C3369 1.349 . S
C3385 H3377 0.950 1_556 S
C3385 C3383 1.327 . S
C3386 C3374 1.349 . S
C3386 H3380 0.950 1_554 S
C3386 C3387 1.327 . S
C3387 H3381 0.949 1_554 S
C3387 C3386 1.327 . S
C3387 C3391 1.429 . S
C3388 C3371 1.574 . S
C3388 H3382 0.949 . S
C3388 C3392 1.368 . S
C3389 C3370 1.429 . S
C3389 C3383 1.429 . S
C3389 C3390 1.523 . S
C3390 C3371 1.368 1_556 S
C3390 C3384 1.368 . S
C3390 C3389 1.523 . S
C3391 C3375 1.429 . S
C3391 C3387 1.429 . S
C3391 C3392 1.523 . S
C3392 C3376 1.368 1_554 S
C3392 C3388 1.368 . S
C3392 C3391 1.523 . S
H3393 C3368 0.950 . S
H3394 C3370 0.950 . S
H3395 C3371 0.949 . S
H3396 C3373 0.950 . S
H3397 C3375 0.950 . S
C3398 C3399 1.349 . S
C3398 C3400 1.327 . S
C3398 H3423 0.950 . S
C3399 C3398 1.349 . S
C3399 C3415 1.349 . S
C3400 C3398 1.327 . S
C3400 C3419 1.429 . S
C3400 H3424 0.950 . S
C3401 C3418 1.574 . S
C3401 C3420 1.368 1_455 S
C3401 H3425 0.949 . S
H3402 C3406 0.949 . S
C3403 C3404 1.349 . S
C3403 C3405 1.327 . S
C3403 H3426 0.950 . S
C3404 C3403 1.349 . S
C3404 C3416 1.349 . S
C3405 C3403 1.327 . S
C3405 C3421 1.429 . S
C3405 H3427 0.950 . S
C3406 H3402 0.949 . S
C3406 C3414 1.574 . S
C3406 C3422 1.368 1_655 S
H3407 C3415 0.950 . S
H3408 C3413 0.950 . S
H3409 C3414 0.949 . S
H3410 C3416 0.950 . S
H3411 C3417 0.950 . S
H3412 C3418 0.949 . S
C3413 H3408 0.950 . S
C3413 C3415 1.327 . S
C3413 C3419 1.429 . S
C3414 C3406 1.574 . S
C3414 H3409 0.949 . S
C3414 C3420 1.368 . S
C3415 C3399 1.349 . S
C3415 H3407 0.950 . S
C3415 C3413 1.327 . S
C3416 C3404 1.349 . S
C3416 H3410 0.950 . S
C3416 C3417 1.327 . S
C3417 H3411 0.950 . S
C3417 C3416 1.327 . S
C3417 C3421 1.429 . S
C3418 C3401 1.574 . S
C3418 H3412 0.949 . S
C3418 C3422 1.368 . S
C3419 C3400 1.429 . S
C3419 C3413 1.429 . S
C3419 C3420 1.523 . S
C3420 C3401 1.368 1_655 S
C3420 C3414 1.368 . S
C3420 C3419 1.523 . S
C3421 C3405 1.429 . S
C3421 C3417 1.429 . S
C3421 C3422 1.523 . S
C3422 C3406 1.368 1_455 S
C3422 C3418 1.368 . S
C3422 C3421 1.523 . S
H3423 C3398 0.950 . S
H3424 C3400 0.950 . S
H3425 C3401 0.949 . S
H3426 C3403 0.950 . S
H3427 C3405 0.950 . S
C3428 C3429 1.349 . S
C3428 C3430 1.317 1_554 S
C3428 H3453 0.950 1_554 S
C3429 C3428 1.349 . S
C3429 C3445 1.349 . S
C3430 C3428 1.317 1_556 S
C3430 C3449 1.408 1_556 S
C3430 H3454 0.982 . S
C3431 C3448 1.602 . S
C3431 C3450 1.368 . S
C3431 H3455 0.949 . S
H3432 C3436 0.949 . S
C3433 C3434 1.349 . S
C3433 C3435 1.317 1_556 S
C3433 H3456 0.950 1_556 S
C3434 C3433 1.349 . S
C3434 C3446 1.349 . S
C3435 C3433 1.317 1_554 S
C3435 C3451 1.408 1_554 S
C3435 H3457 0.982 . S
C3436 H3432 0.949 . S
C3436 C3444 1.602 . S
C3436 C3452 1.368 . S
H3437 C3445 0.950 . S
H3438 C3443 0.950 . S
H3439 C3444 0.953 . S
H3440 C3446 0.950 . S
H3441 C3447 0.950 . S
H3442 C3448 0.953 . S
C3443 H3438 0.950 . S
C3443 C3445 1.327 . S
C3443 C3449 1.429 . S
C3444 C3436 1.602 . S
C3444 H3439 0.953 . S
C3444 C3450 1.340 1_656 S
C3445 C3429 1.349 . S
C3445 H3437 0.950 . S
C3445 C3443 1.327 . S
C3446 C3434 1.349 . S
C3446 H3440 0.950 . S
C3446 C3447 1.327 . S
C3447 H3441 0.950 . S
C3447 C3446 1.327 . S
C3447 C3451 1.429 . S
C3448 C3431 1.602 . S
C3448 H3442 0.953 . S
C3448 C3452 1.340 1_454 S
C3449 C3430 1.408 1_554 S
C3449 C3443 1.429 . S
C3449 C3450 1.523 . S
C3450 C3431 1.368 . S
C3450 C3444 1.340 1_454 S
C3450 C3449 1.523 . S
C3451 C3435 1.408 1_556 S
C3451 C3447 1.429 . S
C3451 C3452 1.523 . S
C3452 C3436 1.368 . S
C3452 C3448 1.340 1_656 S
C3452 C3451 1.523 . S
H3453 C3428 0.950 1_556 S
H3454 C3430 0.982 . S
H3455 C3431 0.949 . S
H3456 C3433 0.950 1_554 S
H3457 C3435 0.982 . S
C3458 C3459 1.349 . S
C3458 C3460 1.327 . S
C3458 H3483 0.950 . S
C3459 C3458 1.349 . S
C3459 C3475 1.349 . S
C3460 C3458 1.327 . S
C3460 C3479 1.429 . S
C3460 H3484 0.950 . S
C3461 C3478 1.574 . S
C3461 C3480 1.368 . S
C3461 H3485 0.949 . S
H3462 C3466 0.949 . S
C3463 C3464 1.349 . S
C3463 C3465 1.327 . S
C3463 H3486 0.950 . S
C3464 C3463 1.349 . S
C3464 C3476 1.349 . S
C3465 C3463 1.327 . S
C3465 C3481 1.429 . S
C3465 H3487 0.950 . S
C3466 H3462 0.949 . S
C3466 C3474 1.574 . S
C3466 C3482 1.368 . S
H3467 C3475 0.950 . S
H3468 C3473 0.950 . S
H3469 C3474 0.949 . S
H3470 C3476 0.950 . S
H3471 C3477 0.950 . S
H3472 C3478 0.949 . S
C3473 H3468 0.950 . S
C3473 C3475 1.327 . S
C3473 C3479 1.429 . S
C3474 C3466 1.574 . S
C3474 H3469 0.949 . S
C3474 C3480 1.368 . S
C3475 C3459 1.349 . S
C3475 H3467 0.950 . S
C3475 C3473 1.327 . S
C3476 C3464 1.349 . S
C3476 H3470 0.950 . S
C3476 C3477 1.327 . S
C3477 H3471 0.950 . S
C3477 C3476 1.327 . S
C3477 C3481 1.429 . S
C3478 C3461 1.574 . S
C3478 H3472 0.949 . S
C3478 C3482 1.368 . S
C3479 C3460 1.429 . S
C3479 C3473 1.429 . S
C3479 C3480 1.523 . S
C3480 C3461 1.368 . S
C3480 C3474 1.368 . S
C3480 C3479 1.523 . S
C3481 C3465 1.429 . S
C3481 C3477 1.429 . S
C3481 C3482 1.523 . S
C3482 C3466 1.368 . S
C3482 C3478 1.368 . S
C3482 C3481 1.523 . S
H3483 C3458 0.950 . S
H3484 C3460 0.950 . S
H3485 C3461 0.949 . S
H3486 C3463 0.950 . S
H3487 C3465 0.950 . S
C1089 C247 1.619 . S
C1094 C9 1.619 . S
C1119 C43 1.619 . S
C1124 C145 1.619 . S
C1149 C77 1.619 . S
C1154 C179 1.619 . S
C1179 C213 1.619 . S
C1184 C111 1.619 . S
C1209 C519 1.619 . S
C1214 C281 1.619 . S
C1239 C417 1.619 . S
C1244 C315 1.619 . S
C1269 C349 1.619 . S
C1274 C451 1.619 . S
C1299 C383 1.619 . S
C1304 C485 1.619 . S
C1329 C791 1.619 . S
C1334 C553 1.619 . S
C1359 C587 1.619 . S
C1364 C689 1.619 . S
C1389 C621 1.619 . S
C1394 C723 1.619 . S
C1419 C757 1.619 . S
C1424 C655 1.619 . S
C1449 C1063 1.619 . S
C1454 C825 1.619 . S
C1479 C859 1.619 . S
C1484 C961 1.619 . S
C1509 C995 1.619 . S
C1514 C893 1.619 . S
C1539 C1029 1.619 . S
C1544 C927 1.619 . S
C1569 C614 0.939 . S
C1574 C2 0.939 . S
C1599 C648 0.939 . S
C1604 C36 0.939 . S
C1629 C70 0.939 . S
C1634 C546 0.939 . S
C1659 C104 0.939 . S
C1664 C580 0.939 . S
C1689 C750 0.939 . S
C1694 C138 0.939 . S
C1719 C784 0.939 . S
C1724 C172 0.939 . S
C1749 C206 0.939 . S
C1754 C682 0.939 . S
C1779 C240 0.939 . S
C1784 C716 0.939 . S
C1809 C274 0.939 . S
C1814 C886 0.939 . S
C1839 C920 0.939 . S
C1844 C308 0.939 . S
C1869 C818 0.939 . S
C1874 C342 0.939 . S
C1899 C376 0.939 . S
C1904 C852 0.939 . S
C1929 C410 0.939 . S
C1934 C1022 0.939 . S
C1959 C1056 0.939 . S
C1964 C444 0.939 . S
C1989 C954 0.939 . S
C1994 C478 0.939 . S
C2019 C988 0.939 . S
C2024 C512 0.939 . S
C2049 C5 0.818 . S
C2054 C951 0.811 . S
C2079 C305 0.811 . S
C2084 C39 0.818 . S
C2109 C883 0.811 . S
C2114 C73 0.818 . S
C2139 C107 0.818 . S
C2144 C373 0.811 . S
C2169 C1019 0.811 . S
C2174 C141 0.818 . S
C2199 C509 0.811 . S
C2204 C175 0.818 . S
C2229 C209 0.818 . S
C2234 C1087 0.811 . S
C2259 C243 0.818 . S
C2264 C441 0.811 . S
C2289 C277 0.818 . S
C2294 C679 0.811 . S
C2319 C311 0.818 . S
C2324 C33 0.811 . S
C2349 C611 0.811 . S
C2354 C345 0.818 . S
C2379 C379 0.818 . S
C2384 C101 0.811 . S
C2409 C747 0.811 . S
C2414 C413 0.818 . S
C2439 C447 0.818 . S
C2444 C237 0.811 . S
C2469 C481 0.818 . S
C2474 C815 0.811 . S
C2499 C169 0.811 . S
C2504 C515 0.818 . S
C2529 C549 0.818 . S
C2534 C407 0.811 . S
C2559 C849 0.811 . S
C2564 C583 0.818 . S
C2589 C339 0.811 . S
C2594 C617 0.818 . S
C2619 C651 0.818 . S
C2624 C917 0.811 . S
C2649 C685 0.818 . S
C2654 C475 0.811 . S
C2679 C1053 0.811 . S
C2684 C719 0.818 . S
C2709 C753 0.818 . S
C2714 C543 0.811 . S
C2739 C985 0.811 . S
C2744 C787 0.818 . S
C2769 C135 0.811 . S
C2774 C821 0.818 . S
C2799 C577 0.811 . S
C2804 C855 0.818 . S
C2829 C67 0.811 . S
C2834 C889 0.818 . S
C2859 C645 0.811 . S
C2864 C923 0.818 . S
C2889 C957 0.818 . S
C2894 C203 0.811 . S
C2919 C781 0.811 . S
C2924 C991 0.818 . S
C2949 C271 0.811 . S
C2954 C1025 0.818 . S
C2979 C713 0.811 . S
C2984 C1059 0.818 . S
C3009 C20 1.450 . S
C3014 C836 1.450 . S
C3039 C54 1.450 . S
C3044 C326 1.450 . S
C3069 C904 1.450 . S
C3074 C88 1.450 . S
C3099 C394 1.450 . S
C3104 C122 1.450 . S
C3129 C972 1.450 . S
C3134 C156 1.450 . S
C3159 C462 1.450 . S
C3164 C190 1.450 . S
C3189 C1040 1.450 . S
C3194 C224 1.450 . S
C3219 C530 1.450 . S
C3224 C258 1.450 . S
C3249 C292 1.450 . S
C3254 C564 1.450 . S
C3279 C632 1.450 . S
C3284 C360 1.450 . S
C3309 C428 1.450 . S
C3314 C700 1.450 . S
C3339 C496 1.450 . S
C3344 C768 1.450 . S
C3369 C870 1.450 . S
C3374 C598 1.450 . S
C3399 C666 1.450 . S
C3404 C938 1.450 . S
C3429 C1006 1.450 . S
C3434 C734 1.450 . S
C3459 C1074 1.450 . S
C3464 C802 1.450 . S
